drugbank_target|Q86YZ3 Hornerin (DB01593; DB14487)
 OpenBabel12092121083D

  0  0  0     0  0            999 V3000
M  V30 BEGIN CTAB
M  V30 COUNTS 36822 37318 0 0 0
M  V30 BEGIN ATOM
M  V30 1 H -0.908 1.98254 -0.117106 0
M  V30 2 N 0 1.576 0 0
M  V30 3 C 0.933 2.03868 1.02534 0
M  V30 4 C 1.911 0.928543 1.3348 0
M  V30 5 O 3.095 1.19667 1.45644 0
M  V30 6 C 0.222 2.43627 2.35294 0
M  V30 7 C -0.732 3.65373 2.2001 0
M  V30 8 S 0.101 5.13292 1.52614 0
M  V30 9 C 1.257 5.56322 2.86805 0
M  V30 10 H 1.49 2.90518 0.631377 0
M  V30 11 H -0.977 1.52953 0.210867 0
M  V30 12 H 0.981 2.67203 3.11629 0
M  V30 13 H -0.358 1.57376 2.7183 0
M  V30 14 H -1.165 3.90944 3.18086 0
M  V30 15 H -1.563 3.418 1.51819 0
M  V30 16 H 0.729 5.58782 3.83104 0
M  V30 17 H 1.672 6.56266 2.65933 0
M  V30 18 H 2.08 4.83886 2.90714 0
M  V30 19 N 1.4781 -0.272755 1.55222 0
M  V30 20 C 2.8891 -0.84378 1.66545 0
M  V30 21 C 3.2401 -1.87035 0.592641 0
M  V30 22 O 2.3651 -2.14761 -0.265818 0
M  V30 23 C 2.9601 -1.53723 3.01918 0
M  V30 24 C 1.5191 -2.05628 3.15268 0
M  V30 25 C 0.6661 -0.898424 2.62343 0
M  V30 26 H 3.6171 -0.0490998 1.58624 0
M  V30 27 H 3.6381 -2.40421 2.94921 0
M  V30 28 H 3.1501 -0.78983 3.79978 0
M  V30 29 H 1.2511 -2.83329 2.41983 0
M  V30 30 H 1.3641 -2.27142 4.21833 0
M  V30 31 H -0.2719 -1.29186 2.19506 0
M  V30 32 H 0.5111 -0.164528 3.42906 0
M  V30 33 N 2.9562 -1.48159 -0.537278 0
M  V30 34 C 3.9032 -1.62138 -1.64256 0
M  V30 35 C 4.8732 -0.463668 -1.59497 0
M  V30 36 O 6.0582 -0.686241 -1.78032 0
M  V30 37 C 3.1982 -1.66028 -3.02537 0
M  V30 38 C 2.3112 -2.92855 -3.17585 0
M  V30 39 C 1.4462 -2.87952 -4.46382 0
M  V30 40 C 0.4852 -4.09516 -4.54932 0
M  V30 41 N -0.3778 -4.02733 -5.75109 0
M  V30 42 H 4.4622 -2.56529 -1.51647 0
M  V30 43 H 1.9992 -1.27224 -0.738414 0
M  V30 44 H 3.9572 -1.66265 -3.82638 0
M  V30 45 H 2.5872 -0.751331 -3.13934 0
M  V30 46 H 1.6392 -3.02395 -2.30784 0
M  V30 47 H 2.9512 -3.82822 -3.19764 0
M  V30 48 H 2.1052 -2.8655 -5.34765 0
M  V30 49 H 0.8442 -1.95702 -4.46712 0
M  V30 50 H -0.1508 -4.11201 -3.64957 0
M  V30 51 H 1.0742 -5.02917 -4.56346 0
M  V30 52 H -0.9798 -3.13299 -5.76351 0
M  V30 53 H -1.0628 -4.86397 -5.78752 0
M  V30 54 H 0.2052 -4.05379 -6.65799 0
M  V30 55 N 4.4343 0.785586 -1.36625 0
M  V30 56 C 5.3643 1.91259 -1.33949 0
M  V30 57 C 6.3453 1.68795 -0.210325 0
M  V30 58 O 7.5303 1.89854 -0.408561 0
M  V30 59 C 4.6603 3.28339 -1.13186 0
M  V30 60 C 3.6143 3.65335 -2.22967 0
M  V30 61 C 2.9403 5.00806 -1.87342 0
M  V30 62 C 4.2403 3.7352 -3.65075 0
M  V30 63 H 5.9343 1.93755 -2.28253 0
M  V30 64 H 3.4803 0.930788 -1.09874 0
M  V30 65 H 5.4333 4.06804 -1.09948 0
M  V30 66 H 4.1573 3.2624 -0.153332 0
M  V30 67 H 2.8163 2.89169 -2.25337 0
M  V30 68 H 2.4643 4.95233 -0.880545 0
M  V30 69 H 2.1643 5.26529 -2.60846 0
M  V30 70 H 3.6883 5.81687 -1.85667 0
M  V30 71 H 5.1023 4.42168 -3.64911 0
M  V30 72 H 3.4993 4.10731 -4.37516 0
M  V30 73 H 4.5693 2.74527 -3.99703 0
M  V30 74 N 5.9124 1.20967 1.01018 0
M  V30 75 C 6.8424 0.988272 2.11555 0
M  V30 76 C 7.8234 -0.0849778 1.69888 0
M  V30 77 O 9.0084 0.0738202 1.9406 0
M  V30 78 C 6.1384 0.546528 3.42973 0
M  V30 79 C 5.0924 1.56375 3.9841 0
M  V30 80 C 4.4184 0.97842 5.25672 0
M  V30 81 C 5.7184 2.94922 4.31066 0
M  V30 82 H 7.4124 1.91276 2.30334 0
M  V30 83 H 4.9584 0.921073 1.1069 0
M  V30 84 H 6.9114 0.378839 4.19694 0
M  V30 85 H 5.6354 -0.413598 3.23971 0
M  V30 86 H 4.2944 1.71891 3.23804 0
M  V30 87 H 3.9424 0.0101688 5.02999 0
M  V30 88 H 3.6424 1.65784 5.63728 0
M  V30 89 H 5.1664 0.821939 6.05043 0
M  V30 90 H 6.5804 2.8288 4.9865 0
M  V30 91 H 4.9774 3.5983 4.80253 0
M  V30 92 H 6.0474 3.4616 3.39561 0
M  V30 93 N 7.3905 -1.2043 1.01659 0
M  V30 94 C 8.3225 -2.22626 0.544988 0
M  V30 95 C 9.3355 -1.58479 -0.372609 0
M  V30 96 O 10.5245 -1.77679 -0.170958 0
M  V30 97 C 7.6245 -3.38141 -0.22663 0
M  V30 98 C 6.7975 -4.31877 0.692876 0
M  V30 99 C 5.8565 -5.26191 -0.0311616 0
M  V30 100 O 4.8825 -5.6612 0.591343 0
M  V30 101 N 6.0845 -5.65618 -1.30601 0
M  V30 102 H 8.8495 -2.63716 1.42388 0
M  V30 103 H 6.4105 -1.34971 0.894116 0
M  V30 104 H 8.4025 -3.98239 -0.72024 0
M  V30 105 H 6.9725 -2.95943 -1.00681 0
M  V30 106 H 6.1925 -3.69746 1.36679 0
M  V30 107 H 7.4805 -4.91426 1.31824 0
M  V30 108 H 6.8785 -5.3519 -1.83269 0
M  V30 109 H 5.4355 -6.28025 -1.74435 0
M  V30 110 N 8.8686 -0.792821 -1.36206 0
M  V30 111 C 10.1166 -0.366062 -1.98757 0
M  V30 112 C 10.4376 1.0668 -1.63231 0
M  V30 113 O 9.7076 1.73587 -0.907978 0
M  V30 114 H 8.2876 -0.132364 -0.735179 0
M  V30 115 H 10.9496 -1.01562 -1.66347 0
M  V30 116 H 10.0456 -0.460638 -3.08682 0
M  V30 117 N 10.3467 1.47872 -0.545128 0
M  V30 118 C 11.5927 2.02793 -0.0166104 0
M  V30 119 C 11.9257 1.41987 1.32489 0
M  V30 120 O 11.2007 0.571045 1.85928 0
M  V30 121 C 11.4837 3.59989 0.0893294 0
M  V30 122 C 11.3367 4.3125 -1.27841 0
M  V30 123 C 12.6557 4.32606 0.808724 0
M  V30 124 H 9.7747 0.736962 -0.00751035 0
M  V30 125 H 12.4167 1.76433 -0.705085 0
M  V30 126 H 10.5667 3.82579 0.675681 0
M  V30 127 H 12.2387 4.20035 -1.90704 0
M  V30 128 H 10.4817 3.92076 -1.85632 0
M  V30 129 H 11.1527 5.39736 -1.15713 0
M  V30 130 H 13.6287 4.14936 0.310992 0
M  V30 131 H 12.5047 5.42251 0.851782 0
M  V30 132 H 12.7657 4.00963 1.86229 0
M  V30 133 N 11.8248 0.280983 1.55075 0
M  V30 134 C 13.0738 -0.334784 1.98902 0
M  V30 135 C 13.3868 -1.56534 1.17288 0
M  V30 136 O 14.5928 -2.25443 1.51287 0
M  V30 137 C 13.0488 -0.646994 3.54037 0
M  V30 138 C 12.6568 0.564085 4.44435 0
M  V30 139 C 14.4008 -1.22506 4.06439 0
M  V30 140 C 12.3078 0.226137 5.90967 0
M  V30 141 H 11.2378 -0.128866 0.742906 0
M  V30 142 H 13.8888 0.386556 1.79382 0
M  V30 143 H 12.2708 -1.42739 3.6938 0
M  V30 144 H 13.4448 1.34082 4.40861 0
M  V30 145 H 11.7598 1.0594 4.02698 0
M  V30 146 H 14.3568 -1.49182 5.13468 0
M  V30 147 H 14.6998 -2.16085 3.55827 0
M  V30 148 H 15.2328 -0.50682 3.94558 0
M  V30 149 H 11.9718 1.12996 6.45687 0
M  V30 150 H 11.4918 -0.513717 5.97596 0
M  V30 151 H 13.1708 -0.179539 6.46751 0
M  V30 152 N 13.3029 -1.57598 0.00835791 0
M  V30 153 C 14.5309 -1.95214 -0.68549 0
M  V30 154 C 14.9459 -0.883706 -1.66841 0
M  V30 155 O 14.3029 0.136565 -1.81988 0
M  V30 156 C 14.3539 -3.32865 -1.41007 0
M  V30 157 O 14.0749 -4.35609 -0.466552 0
M  V30 158 C 15.5759 -3.84991 -2.19765 0
M  V30 159 H 12.7959 -0.643422 -0.190392 0
M  V30 160 H 15.3399 -2.04406 0.0619607 0
M  V30 161 H 13.4949 -3.24956 -2.10908 0
M  V30 162 H 13.9089 -5.15288 -0.978699 0
M  V30 163 H 15.3829 -4.8371 -2.65948 0
M  V30 164 H 15.8599 -3.18137 -3.02796 0
M  V30 165 H 16.4659 -3.96103 -1.54864 0
M  V30 166 N 14.781 0.264519 -1.55364 0
M  V30 167 C 16.027 0.99646 -1.76631 0
M  V30 168 C 16.36 1.85632 -0.570478 0
M  V30 169 O 15.635 1.89647 0.43175 0
M  V30 170 C 15.918 1.87187 -3.07625 0
M  V30 171 C 15.771 1.04138 -4.37579 0
M  V30 172 C 17.09 2.85749 -3.34717 0
M  V30 173 H 14.209 0.360841 -0.642622 0
M  V30 174 H 16.851 0.268218 -1.88097 0
M  V30 175 H 15.001 2.49279 -2.9798 0
M  V30 176 H 16.673 0.440517 -4.59192 0
M  V30 177 H 14.916 0.345115 -4.32425 0
M  V30 178 H 15.587 1.68729 -5.2558 0
M  V30 179 H 18.063 2.33793 -3.4421 0
M  V30 180 H 16.939 3.44136 -4.27623 0
M  V30 181 H 17.2 3.61311 -2.54768 0
M  V30 182 N 16.2591 1.48442 0.529413 0
M  V30 183 C 17.5081 1.55742 1.28169 0
M  V30 184 C 17.8211 0.236511 1.94165 0
M  V30 185 O 19.0271 0.187761 2.7085 0
M  V30 186 C 17.4831 2.74667 2.32564 0
M  V30 187 C 17.0911 4.13402 1.72636 0
M  V30 188 C 18.8351 2.9128 3.08798 0
M  V30 189 C 16.7421 5.23587 2.74975 0
M  V30 190 H 15.6721 0.579796 0.48203 0
M  V30 191 H 18.3231 1.74776 0.559056 0
M  V30 192 H 16.7051 2.49067 3.07866 0
M  V30 193 H 17.8791 4.49022 1.03519 0
M  V30 194 H 16.1941 4.0191 1.08892 0
M  V30 195 H 18.7911 3.70767 3.85274 0
M  V30 196 H 19.1341 2.00757 3.64695 0
M  V30 197 H 19.6671 3.16782 2.40611 0
M  V30 198 H 16.4061 6.16076 2.23897 0
M  V30 199 H 15.9261 4.92454 3.42417 0
M  V30 200 H 17.6051 5.51724 3.37949 0
M  V30 201 N 17.7372 -0.778329 1.37039 0
M  V30 202 C 19.0142 -1.52551 1.22424 0
M  V30 203 C 19.3942 -2.10288 -0.184964 0
M  V30 204 O 18.7422 -1.94953 -1.19187 0
M  V30 205 C 18.9522 -2.61164 2.31504 0
M  V30 206 C 20.3002 -3.28746 2.68721 0
M  V30 207 O 21.3242 -2.71455 2.30631 0
M  V30 208 O 20.1832 -4.3231 3.3432 0
M  V30 209 H 17.2772 -0.675343 0.477326 0
M  V30 210 H 19.8232 -0.815859 1.48801 0
M  V30 211 H 18.5952 -2.16574 3.25901 0
M  V30 212 H 18.2182 -3.39737 2.06554 0
M  V30 213 N 19.2153 -1.21501 -1.00376 0
M  V30 214 C 20.4613 -1.03452 -1.74429 0
M  V30 215 C 20.7943 0.430764 -1.89362 0
M  V30 216 O 20.0693 1.31962 -1.42886 0
M  V30 217 C 20.3523 -1.73375 -3.15615 0
M  V30 218 C 20.2053 -3.27431 -3.08397 0
M  V30 219 C 21.5243 -1.47732 -4.14564 0
M  V30 220 H 18.6433 -0.377226 -0.633143 0
M  V30 221 H 21.2853 -1.49693 -1.17013 0
M  V30 222 H 19.4353 -1.34064 -3.64636 0
M  V30 223 H 21.1073 -3.76119 -2.67081 0
M  V30 224 H 19.3503 -3.5767 -2.45468 0
M  V30 225 H 20.0213 -3.71524 -4.08258 0
M  V30 226 H 22.4973 -1.8186 -3.74254 0
M  V30 227 H 21.3733 -1.99169 -5.11491 0
M  V30 228 H 21.6343 -0.407589 -4.40217 0
M  V30 229 N 20.6934 1.19889 -1.02296 0
M  V30 230 C 21.9404 1.8942 -0.715972 0
M  V30 231 C 22.2684 1.79251 0.754944 0
M  V30 232 O 21.5234 1.17526 1.56481 0
M  V30 233 C 21.8224 3.39883 -1.10518 0
M  V30 234 C 21.4884 3.70254 -2.57337 0
M  V30 235 C 20.1504 3.78254 -2.97452 0
M  V30 236 C 22.5024 3.84052 -3.52354 0
M  V30 237 C 19.8304 3.97514 -4.31509 0
M  V30 238 C 22.1824 4.04824 -4.86108 0
M  V30 239 C 20.8464 4.11054 -5.25919 0
M  V30 240 H 20.1164 0.693138 -0.261993 0
M  V30 241 H 22.7634 1.42012 -1.28472 0
M  V30 242 H 21.0684 3.8915 -0.454953 0
M  V30 243 H 22.7654 3.9199 -0.845261 0
M  V30 244 H 19.3554 3.64632 -2.25258 0
M  V30 245 H 23.5394 3.77221 -3.22518 0
M  V30 246 H 18.7954 4.00574 -4.61898 0
M  V30 247 H 22.9694 4.14442 -5.59653 0
M  V30 248 H 20.5964 4.2573 -6.29808 0
M  V30 249 N 22.1715 0.800033 1.35784 0
M  V30 250 C 23.4015 0.389041 2.02904 0
M  V30 251 C 23.8095 -1.0027 1.60445 0
M  V30 252 O 23.1525 -1.65633 0.794453 0
M  V30 253 C 23.2145 0.385495 3.57427 0
M  V30 254 C 22.8785 1.72662 4.23127 0
M  V30 255 C 23.8755 2.68385 4.4527 0
M  V30 256 C 21.5605 2.00883 4.60381 0
M  V30 257 C 23.5545 3.90517 5.03761 0
M  V30 258 C 21.2415 3.2328 5.18588 0
M  V30 259 C 22.2395 4.17915 5.40218 0
M  V30 260 O 21.9275 5.38153 5.97199 0
M  V30 261 H 21.6595 0.157032 0.657508 0
M  V30 262 H 24.2135 1.08311 1.74522 0
M  V30 263 H 22.4435 -0.365128 3.84972 0
M  V30 264 H 24.1325 -0.00228296 4.059 0
M  V30 265 H 24.8985 2.47872 4.16874 0
M  V30 266 H 20.7775 1.28037 4.42863 0
M  V30 267 H 24.3215 4.64395 5.2056 0
M  V30 268 H 20.2185 3.43667 5.4641 0
M  V30 269 H 20.9865 5.3936 6.15656 0
M  V30 270 N 23.6496 -1.47581 0.552962 0
M  V30 271 C 24.5816 -2.27997 -0.234533 0
M  V30 272 C 25.5946 -1.36753 -0.883321 0
M  V30 273 O 26.7836 -1.61612 -0.757889 0
M  V30 274 C 23.8836 -3.10879 -1.34935 0
M  V30 275 C 23.0566 -4.30056 -0.798158 0
M  V30 276 C 22.1156 -4.94567 -1.79694 0
M  V30 277 O 21.1416 -5.53087 -1.34474 0
M  V30 278 N 22.3436 -4.88878 -3.13015 0
M  V30 279 H 25.1086 -2.96222 0.455255 0
M  V30 280 H 22.6696 -1.57163 0.388761 0
M  V30 281 H 24.6616 -3.50903 -2.01616 0
M  V30 282 H 23.2316 -2.44924 -1.94244 0
M  V30 283 H 22.4516 -3.94174 0.0453079 0
M  V30 284 H 23.7396 -5.07152 -0.409173 0
M  V30 285 H 23.1376 -4.42526 -3.52402 0
M  V30 286 H 21.6946 -5.32934 -3.75266 0
M  V30 287 N 25.1277 -0.289203 -1.54924 0
M  V30 288 C 26.3577 0.325989 -2.04012 0
M  V30 289 C 26.7657 1.48961 -1.1665 0
M  V30 290 O 26.1087 1.82794 -0.1822 0
M  V30 291 C 26.1707 0.856112 -3.49158 0
M  V30 292 C 25.8347 -0.180697 -4.56643 0
M  V30 293 C 26.8317 -1.0051 -5.10092 0
M  V30 294 C 24.5167 -0.318998 -5.01286 0
M  V30 295 C 26.5107 -1.95385 -6.06715 0
M  V30 296 C 24.1977 -1.27121 -5.97732 0
M  V30 297 C 25.1957 -2.08713 -6.50329 0
M  V30 298 O 24.8837 -3.02322 -7.44887 0
M  V30 299 H 24.6157 0.0765276 -0.671654 0
M  V30 300 H 27.1697 -0.423254 -2.00992 0
M  V30 301 H 25.3997 1.65567 -3.49463 0
M  V30 302 H 27.0887 1.38591 -3.81507 0
M  V30 303 H 27.8547 -0.90906 -4.76404 0
M  V30 304 H 23.7337 0.306108 -4.59983 0
M  V30 305 H 27.2777 -2.59111 -6.47694 0
M  V30 306 H 23.1747 -1.36801 -6.30837 0
M  V30 307 H 23.9427 -2.97165 -7.6265 0
M  V30 308 N 26.6058 1.57591 -0.0167156 0
M  V30 309 C 27.5688 2.08393 0.954204 0
M  V30 310 C 28.5688 0.996531 1.26198 0
M  V30 311 O 29.7588 1.25858 1.20438 0
M  V30 312 C 26.8908 2.5394 2.27436 0
M  V30 313 H 28.0838 2.95455 0.514451 0
M  V30 314 H 25.6368 1.54582 0.231089 0
M  V30 315 H 26.3718 1.70171 2.76066 0
M  V30 316 H 26.1568 3.33371 2.06412 0
M  V30 317 H 27.6468 2.93512 2.97053 0
M  V30 318 N 28.0839 -0.256276 1.55502 0
M  V30 319 C 29.3119 -1.00342 1.8094 0
M  V30 320 C 29.7269 -1.79307 0.59114 0
M  V30 321 O 29.0839 -1.77114 -0.440081 0
M  V30 322 C 29.1349 -1.94875 3.04476 0
M  V30 323 O 28.8559 -1.19107 4.21598 0
M  V30 324 C 30.3569 -2.81266 3.42644 0
M  V30 325 H 27.5769 -0.295685 0.602338 0
M  V30 326 H 30.1209 -0.281998 2.02546 0
M  V30 327 H 28.2759 -2.62457 2.84947 0
M  V30 328 H 28.6899 -1.82969 4.91551 0
M  V30 329 H 30.1639 -3.43362 4.32211 0
M  V30 330 H 30.6409 -3.51897 2.62802 0
M  V30 331 H 31.2469 -2.1915 3.64491 0
M  V30 332 N 29.562 -1.4872 -0.521534 0
M  V30 333 C 30.494 -1.59968 -1.64143 0
M  V30 334 C 31.507 -0.483463 -1.55456 0
M  V30 335 O 32.696 -0.75467 -1.61762 0
M  V30 336 C 29.796 -1.52127 -3.02838 0
M  V30 337 C 28.969 -2.78932 -3.36921 0
M  V30 338 C 28.028 -2.64428 -4.54933 0
M  V30 339 O 27.054 -3.38331 -4.57735 0
M  V30 340 N 28.256 -1.74606 -5.53618 0
M  V30 341 H 31.021 -2.56548 -1.54929 0
M  V30 342 H 28.582 -1.45551 -0.708988 0
M  V30 343 H 30.574 -1.40106 -3.79674 0
M  V30 344 H 29.144 -0.634868 -3.06085 0
M  V30 345 H 28.364 -3.05455 -2.4918 0
M  V30 346 H 29.652 -3.63041 -3.56481 0
M  V30 347 H 29.05 -1.13782 -5.54139 0
M  V30 348 H 27.607 -1.6852 -6.29638 0
M  V30 349 N 31.0401 0.771051 -1.3745 0
M  V30 350 C 31.9901 1.87456 -1.29785 0
M  V30 351 C 32.9741 1.59827 -0.185541 0
M  V30 352 O 34.1661 1.71945 -0.419997 0
M  V30 353 C 31.2951 3.24935 -1.1078 0
M  V30 354 C 30.3811 3.58514 -2.26558 0
M  V30 355 N 30.7721 3.6327 -3.5195 0
M  V30 356 C 29.0701 3.88683 -2.18727 0
M  V30 357 C 29.7711 3.93616 -4.283 0
M  V30 358 N 28.7471 4.09551 -3.57448 0
M  V30 359 H 32.5491 1.89386 -2.24745 0
M  V30 360 H 30.0631 0.967531 -1.30432 0
M  V30 361 H 32.0601 4.03881 -1.03374 0
M  V30 362 H 30.7201 3.24268 -0.16738 0
M  V30 363 H 31.7311 3.45458 -3.85848 0
M  V30 364 H 28.4081 3.95834 -1.32746 0
M  V30 365 H 29.7981 4.04066 -5.36824 0
M  V30 366 N 32.5182 1.22032 0.997298 0
M  V30 367 C 33.7662 1.04016 1.73278 0
M  V30 368 C 34.0872 -0.426255 1.90284 0
M  V30 369 O 33.3572 -1.30694 1.45931 0
M  V30 370 H 31.9372 0.381897 0.642 0
M  V30 371 H 34.5992 1.5347 1.20137 0
M  V30 372 H 33.6952 1.51441 2.72896 0
M  V30 373 N 33.9963 -1.19345 1.0293 0
M  V30 374 C 34.9063 -2.26245 0.620515 0
M  V30 375 C 35.9223 -1.70486 -0.347928 0
M  V30 376 O 37.0983 -2.00347 -0.205704 0
M  V30 377 C 34.1633 -3.46693 -0.0218957 0
M  V30 378 C 33.2243 -4.17632 0.994102 0
M  V30 379 C 32.4573 -5.32329 0.382253 0
M  V30 380 O 32.6803 -5.64552 -0.814676 0
M  V30 381 O 31.6143 -5.91664 1.10531 0
M  V30 382 H 35.4403 -2.63453 1.51083 0
M  V30 383 H 33.0253 -1.26207 0.799513 0
M  V30 384 H 34.9073 -4.19683 -0.380072 0
M  V30 385 H 33.5823 -3.11333 -0.886209 0
M  V30 386 H 32.4893 -3.4676 1.40387 0
M  V30 387 H 33.8223 -4.56964 1.8288 0
M  V30 388 N 35.4744 -0.807222 -1.35358 0
M  V30 389 C 36.7044 -0.399796 -2.02695 0
M  V30 390 C 37.1124 0.994176 -1.60974 0
M  V30 391 O 36.4554 1.65209 -0.803226 0
M  V30 392 C 36.5174 -0.404445 -3.57218 0
M  V30 393 C 36.1814 -1.74904 -4.22206 0
M  V30 394 C 37.1784 -2.70743 -4.4384 0
M  V30 395 C 34.8634 -2.03322 -4.5931 0
M  V30 396 C 36.8574 -3.93183 -5.01683 0
M  V30 397 C 34.5444 -3.26026 -5.16866 0
M  V30 398 C 35.5424 -4.20774 -5.37994 0
M  V30 399 O 35.2304 -5.41312 -5.94337 0
M  V30 400 H 34.9624 -0.160517 -0.656666 0
M  V30 401 H 37.5164 -1.09235 -1.73945 0
M  V30 402 H 35.7464 0.344707 -3.85161 0
M  V30 403 H 37.4354 -0.0192429 -4.05895 0
M  V30 404 H 38.2014 -2.5008 -4.15554 0
M  V30 405 H 34.0804 -1.30384 -4.42178 0
M  V30 406 H 37.6244 -4.6715 -5.1809 0
M  V30 407 H 33.5214 -3.46559 -5.44579 0
M  V30 408 H 34.2894 -5.42618 -6.12787 0
M  V30 409 N 36.9525 1.47285 -0.560781 0
M  V30 410 C 38.2295 1.9558 0.0277798 0
M  V30 411 C 38.6095 1.5034 1.48192 0
M  V30 412 O 37.9575 0.743882 2.16052 0
M  V30 413 C 38.1675 3.48789 -0.121418 0
M  V30 414 C 39.5155 4.24594 0.0220912 0
M  V30 415 O 40.5395 3.56166 -0.0491439 0
M  V30 416 O 39.3985 5.46217 0.175958 0
M  V30 417 H 36.4925 0.824663 0.0621342 0
M  V30 418 H 39.0385 1.5767 -0.627556 0
M  V30 419 H 37.8105 3.74533 -1.13316 0
M  V30 420 H 37.4335 3.93473 0.571366 0
M  V30 421 N 38.4306 0.297415 1.54768 0
M  V30 422 C 39.6586 -0.315623 2.04478 0
M  V30 423 C 40.0736 -1.47792 1.17486 0
M  V30 424 O 39.4306 -1.81404 0.19971 0
M  V30 425 C 39.4816 -0.7753 3.53088 0
M  V30 426 O 39.2026 0.340732 4.36773 0
M  V30 427 C 40.7036 -1.45386 4.18781 0
M  V30 428 H 37.9236 -0.0690887 0.667434 0
M  V30 429 H 40.4676 0.436003 1.99798 0
M  V30 430 H 38.6226 -1.47696 3.58141 0
M  V30 431 H 39.0366 -0.0165035 5.24497 0
M  V30 432 H 40.5106 -1.72669 5.24299 0
M  V30 433 H 40.9876 -2.39275 3.68299 0
M  V30 434 H 41.5936 -0.795475 4.17795 0
M  V30 435 N 39.9087 -1.5758 0.0250728 0
M  V30 436 C 40.8387 -2.13007 -0.956575 0
M  V30 437 C 41.8197 -1.0452 -1.342 0
M  V30 438 O 43.0047 -1.32332 -1.42133 0
M  V30 439 C 40.1347 -2.65386 -2.24026 0
M  V30 440 C 39.0887 -3.78623 -1.99571 0
M  V30 441 C 38.4147 -4.17414 -3.3417 0
M  V30 442 C 39.7147 -5.04867 -1.33814 0
M  V30 443 H 41.4087 -2.9528 -0.494991 0
M  V30 444 H 38.9547 -1.42042 -0.236651 0
M  V30 445 H 40.9077 -3.02794 -2.93076 0
M  V30 446 H 39.6317 -1.80268 -2.72343 0
M  V30 447 H 38.2907 -3.41646 -1.32941 0
M  V30 448 H 37.9387 -3.29284 -3.80238 0
M  V30 449 H 37.6387 -4.93719 -3.18615 0
M  V30 450 H 39.1627 -4.57402 -4.04495 0
M  V30 451 H 40.5767 -5.39888 -1.92857 0
M  V30 452 H 38.9737 -5.86144 -1.28669 0
M  V30 453 H 40.0437 -4.83904 -0.310561 0
M  V30 454 N 41.3868 0.248026 -1.55636 0
M  V30 455 C 42.3348 1.32683 -1.91045 0
M  V30 456 C 43.3288 1.49883 -0.789401 0
M  V30 457 O 44.5348 1.51371 -0.974007 0
M  V30 458 H 40.9098 0.444272 -0.606734 0
M  V30 459 H 42.8808 1.00085 -2.81115 0
M  V30 460 C 41.6298 2.6755 -2.22064 0
M  V30 461 H 40.9528 2.55114 -3.07826 0
M  V30 462 H 42.3928 3.41912 -2.50743 0
M  V30 463 C 40.8518 3.20556 -1.0366 0
M  V30 464 O 41.3818 4.00695 -0.284016 0
M  V30 465 N 39.5878 2.78568 -0.82753 0
M  V30 466 H 39.1348 2.1351 -1.44123 0
M  V30 467 H 39.0928 3.14378 -0.0369803 0
M  V30 468 N 42.8649 1.48995 0.513639 0
M  V30 469 C 43.8119 1.6473 1.61656 0
M  V30 470 C 44.7819 0.488984 1.58739 0
M  V30 471 O 45.9669 0.714478 1.76918 0
M  V30 472 C 43.1069 1.7082 2.99858 0
M  V30 473 C 42.2199 2.9787 3.12885 0
M  V30 474 C 41.3549 2.95017 4.41744 0
M  V30 475 C 40.3939 4.16702 4.48359 0
M  V30 476 N 39.5309 4.11832 5.68629 0
M  V30 477 H 44.3709 2.58909 1.47547 0
M  V30 478 H 41.9079 1.28382 0.71808 0
M  V30 479 H 43.8659 1.72331 3.79944 0
M  V30 480 H 42.4959 0.801181 3.12699 0
M  V30 481 H 41.5479 3.06029 2.25944 0
M  V30 482 H 42.8599 3.8786 3.13633 0
M  V30 483 H 42.0139 2.95021 5.30139 0
M  V30 484 H 40.7529 2.02784 4.43542 0
M  V30 485 H 39.7579 4.16955 3.58369 0
M  V30 486 H 40.9829 5.10113 4.48287 0
M  V30 487 H 38.9289 3.22428 5.71293 0
M  V30 488 H 38.8459 4.95543 5.7094 0
M  V30 489 H 40.1139 4.1592 6.59266 0
M  V30 490 N 44.343 -0.763751 1.37857 0
M  V30 491 C 45.306 -1.85889 1.34081 0
M  V30 492 C 46.306 -1.58949 0.243277 0
M  V30 493 O 47.496 -1.66882 0.499589 0
M  V30 494 C 44.628 -3.23176 1.08489 0
M  V30 495 H 45.821 -1.90648 2.31502 0
M  V30 496 H 43.374 -0.964367 1.23003 0
M  V30 497 H 44.109 -3.24091 0.116318 0
M  V30 498 H 43.894 -3.44124 1.8794 0
M  V30 499 H 45.384 -4.03254 1.08517 0
M  V30 500 N 45.8211 -1.22559 -0.990812 0
M  V30 501 C 46.7311 -1.01394 -2.11557 0
M  V30 502 C 47.7471 0.0383962 -1.73958 0
M  V30 503 O 48.9231 -0.154787 -2.00804 0
M  V30 504 C 45.9881 -0.596569 -3.41529 0
M  V30 505 C 45.0491 -1.72276 -3.93217 0
M  V30 506 C 44.2821 -1.32521 -5.16985 0
M  V30 507 O 44.5051 -0.204909 -5.70032 0
M  V30 508 O 43.4391 -2.14247 -5.62478 0
M  V30 509 H 47.2651 -1.95633 -2.32296 0
M  V30 510 H 44.8501 -1.01172 -1.0993 0
M  V30 511 H 46.7321 -0.374263 -4.19735 0
M  V30 512 H 45.4071 0.316939 -3.22145 0
M  V30 513 H 44.3141 -1.99961 -3.16174 0
M  V30 514 H 45.6471 -2.61421 -4.17037 0
M  V30 515 N 47.2992 1.18797 -1.03562 0
M  V30 516 C 48.2292 2.24472 -0.643019 0
M  V30 517 C 49.2102 1.66433 0.351283 0
M  V30 518 O 50.3952 1.92803 0.232505 0
M  V30 519 C 47.5252 3.473 4.24935e-05 0
M  V30 520 C 46.4792 4.18055 -0.917257 0
M  V30 521 C 45.8052 5.34519 -0.138941 0
M  V30 522 C 47.1052 4.72109 -2.23407 0
M  V30 523 H 48.7992 2.57566 -1.52643 0
M  V30 524 H 46.3452 1.23806 -0.735394 0
M  V30 525 H 48.2982 4.20426 0.286383 0
M  V30 526 H 47.0222 3.13424 0.918299 0
M  V30 527 H 45.6812 3.46821 -1.1879 0
M  V30 528 H 45.3292 4.96891 0.781562 0
M  V30 529 H 45.0292 5.82794 -0.750005 0
M  V30 530 H 46.5532 6.10438 0.1405 0
M  V30 531 H 47.9672 5.36955 -2.00879 0
M  V30 532 H 46.3642 5.30897 -2.79765 0
M  V30 533 H 47.4342 3.89807 -2.88407 0
M  V30 534 N 48.7773 0.814389 1.34928 0
M  V30 535 C 49.7243 0.22822 2.29669 0
M  V30 536 C 50.6943 -0.642164 1.53184 0
M  V30 537 O 51.8793 -0.585605 1.81591 0
M  V30 538 C 49.0193 -0.61089 3.3965 0
M  V30 539 C 48.1323 0.280792 4.31086 0
M  V30 540 C 47.2673 -0.567067 5.28165 0
M  V30 541 C 46.3063 0.324531 6.11239 0
M  V30 542 N 45.4433 -0.483756 7.00431 0
M  V30 543 H 50.2833 1.04153 2.79206 0
M  V30 544 H 47.8203 0.525133 1.37407 0
M  V30 545 H 49.7783 -1.11263 4.0209 0
M  V30 546 H 48.4083 -1.38939 2.91369 0
M  V30 547 H 47.4603 0.900688 3.69583 0
M  V30 548 H 48.7723 0.966723 4.89342 0
M  V30 549 H 47.9263 -1.13363 5.96015 0
M  V30 550 H 46.6653 -1.28654 4.70425 0
M  V30 551 H 45.6703 0.903298 5.42329 0
M  V30 552 H 46.8953 1.04198 6.71059 0
M  V30 553 H 44.8413 -1.18706 6.45171 0
M  V30 554 H 44.7583 0.143965 7.55863 0
M  V30 555 H 46.0263 -1.03334 7.7262 0
M  V30 556 N 50.2554 -1.46986 0.568584 0
M  V30 557 C 51.1654 -2.33942 -0.17555 0
M  V30 558 C 52.1814 -1.48891 -0.90041 0
M  V30 559 O 53.3574 -1.81794 -0.86676 0
M  V30 560 C 50.4224 -3.25811 -1.18524 0
M  V30 561 C 49.4834 -4.26757 -0.466582 0
M  V30 562 C 48.7164 -5.14236 -1.42817 0
M  V30 563 O 48.9394 -5.04379 -2.66379 0
M  V30 564 O 47.8734 -5.94412 -0.946453 0
M  V30 565 H 51.6994 -2.98896 0.538036 0
M  V30 566 H 49.2844 -1.4573 0.329097 0
M  V30 567 H 51.1664 -3.82527 -1.76779 0
M  V30 568 H 49.8414 -2.63471 -1.88055 0
M  V30 569 H 48.7484 -3.73769 0.157451 0
M  V30 570 H 50.0814 -4.91843 0.187485 0
M  V30 571 N 51.7335 -0.305618 -1.54608 0
M  V30 572 C 52.6635 0.561482 -2.26649 0
M  V30 573 C 53.6445 1.13415 -1.26772 0
M  V30 574 O 54.8295 1.16262 -1.55553 0
M  V30 575 C 51.9595 1.73122 -3.01075 0
M  V30 576 C 50.9135 1.2887 -4.08138 0
M  V30 577 C 50.2395 2.54396 -4.70305 0
M  V30 578 C 51.5395 0.416578 -5.20636 0
M  V30 579 H 53.2335 -0.0393902 -2.99374 0
M  V30 580 H 50.7795 -0.020385 -1.43986 0
M  V30 581 H 52.7325 2.34396 -3.50195 0
M  V30 582 H 51.4565 2.3584 -2.25936 0
M  V30 583 H 50.1155 0.698991 -3.59875 0
M  V30 584 H 49.7635 3.15439 -3.918 0
M  V30 585 H 49.4635 2.25486 -5.42614 0
M  V30 586 H 50.9875 3.16464 -5.2219 0
M  V30 587 H 52.4015 0.935116 -5.65622 0
M  V30 588 H 50.7985 0.221046 -5.99693 0
M  V30 589 H 51.8685 -0.557162 -4.81688 0
M  V30 590 N 53.2116 1.57565 -0.0334293 0
M  V30 591 C 54.1416 2.13511 0.945265 0
M  V30 592 C 55.1226 1.05231 1.33643 0
M  V30 593 O 56.3076 1.33084 1.41429 0
M  V30 594 C 53.4376 2.6657 2.22616 0
M  V30 595 C 52.3916 3.79676 1.97561 0
M  V30 596 C 51.7176 4.1918 3.31952 0
M  V30 597 C 53.0176 5.0557 1.31135 0
M  V30 598 H 54.7116 2.95538 0.479325 0
M  V30 599 H 52.2576 1.42166 0.229115 0
M  V30 600 H 54.2106 3.04344 2.91466 0
M  V30 601 H 52.9346 1.8171 2.71384 0
M  V30 602 H 51.5936 3.42347 1.31127 0
M  V30 603 H 51.2416 3.31296 3.78487 0
M  V30 604 H 50.9416 4.95402 3.15992 0
M  V30 605 H 52.4656 4.59541 4.02063 0
M  V30 606 H 53.8796 5.40903 1.89992 0
M  V30 607 H 52.2766 5.86818 1.25559 0
M  V30 608 H 53.3466 4.84062 0.284894 0
M  V30 609 N 54.6897 -0.239769 1.55765 0
M  V30 610 C 55.5997 -1.31831 1.94056 0
M  V30 611 C 56.6157 -1.52275 0.841925 0
M  V30 612 O 57.7917 -1.65759 1.14394 0
M  V30 613 C 54.8567 -2.65156 2.23368 0
M  V30 614 C 53.9177 -2.53173 3.46701 0
M  V30 615 C 53.1507 -3.8014 3.74606 0
M  V30 616 O 53.3737 -4.82343 3.04469 0
M  V30 617 O 52.3077 -3.78344 4.68123 0
M  V30 618 H 56.1337 -1.02347 2.85935 0
M  V30 619 H 53.7187 -0.441123 1.42739 0
M  V30 620 H 55.6007 -3.43929 2.43497 0
M  V30 621 H 54.2757 -2.94358 1.34666 0
M  V30 622 H 53.1827 -1.72662 3.31871 0
M  V30 623 H 54.5157 -2.28915 4.35728 0
M  V30 624 N 56.1678 -1.49265 -0.50573 0
M  V30 625 C 57.1158 -1.66065 -1.62866 0
M  V30 626 C 58.1098 -0.526636 -1.61006 0
M  V30 627 O 59.3158 -0.706126 -1.65571 0
M  V30 628 H 55.6908 -0.52356 -0.539805 0
M  V30 629 H 57.6618 -2.60329 -1.45848 0
M  V30 630 C 56.4108 -1.74008 -3.01026 0
M  V30 631 H 55.7338 -2.6064 -3.03161 0
M  V30 632 H 57.1738 -1.89798 -3.79147 0
M  V30 633 C 55.6328 -0.483868 -3.33407 0
M  V30 634 O 56.1628 0.392548 -3.99777 0
M  V30 635 N 54.3688 -0.348236 -2.88506 0
M  V30 636 H 53.9158 -1.06242 -2.34671 0
M  V30 637 H 53.8738 0.491204 -3.10539 0
M  V30 638 N 57.6459 0.756429 -1.3826 0
M  V30 639 C 58.5559 1.9009 -1.37488 0
M  V30 640 C 59.5719 1.71855 -0.272366 0
M  V30 641 O 60.7479 1.94827 -0.510318 0
M  V30 642 C 57.8129 3.25421 -1.19592 0
M  V30 643 C 56.8739 3.56202 -2.39622 0
M  V30 644 C 56.1069 4.85075 -2.2257 0
M  V30 645 O 56.3299 5.57246 -1.21793 0
M  V30 646 O 55.2639 5.15269 -3.11098 0
M  V30 647 H 59.0899 1.93695 -2.33914 0
M  V30 648 H 56.6749 0.901313 -1.1915 0
M  V30 649 H 58.5569 4.06337 -1.11661 0
M  V30 650 H 57.2319 3.22634 -0.262486 0
M  V30 651 H 56.1389 2.75458 -2.53128 0
M  V30 652 H 57.4719 3.63747 -3.31586 0
M  V30 653 N 59.124 1.23083 0.984299 0
M  V30 654 C 60.371 1.06057 1.72505 0
M  V30 655 C 60.699 -0.403105 1.90277 0
M  V30 656 O 59.954 -1.3149 1.44944 0
M  V30 657 C 60.253 1.72673 3.1292 0
M  V30 658 C 59.919 3.22586 3.15038 0
M  V30 659 C 58.581 3.63489 3.15324 0
M  V30 660 C 60.933 4.185 3.10657 0
M  V30 661 C 58.261 4.98772 3.08939 0
M  V30 662 C 60.613 5.53769 3.05814 0
M  V30 663 C 59.277 5.94041 3.04419 0
M  V30 664 H 58.547 0.388091 0.631242 0
M  V30 665 H 61.194 1.52963 1.15215 0
M  V30 666 H 59.499 1.18116 3.73572 0
M  V30 667 H 61.196 1.56982 3.68996 0
M  V30 668 H 57.786 2.90022 3.15571 0
M  V30 669 H 61.97 3.87911 3.09579 0
M  V30 670 H 57.226 5.29193 3.0621 0
M  V30 671 H 61.4 6.27808 3.0138 0
M  V30 672 H 59.027 6.98833 2.99227 0
M  V30 673 N 60.6021 -1.18246 1.0419 0
M  V30 674 C 61.5521 -2.19843 0.604392 0
M  V30 675 C 62.5361 -1.56962 -0.353814 0
M  V30 676 O 63.7281 -1.76156 -0.17267 0
M  V30 677 C 60.8571 -3.43287 -0.0298975 0
M  V30 678 C 59.9431 -4.13288 0.951531 0
M  V30 679 N 60.3341 -4.59271 2.11906 0
M  V30 680 C 58.6321 -4.39165 0.7778 0
M  V30 681 C 59.3331 -5.13173 2.73912 0
M  V30 682 N 58.3091 -5.04763 2.01779 0
M  V30 683 H 62.1111 -2.53089 1.4941 0
M  V30 684 H 59.6251 -1.34465 0.910658 0
M  V30 685 H 61.6221 -4.15334 -0.361037 0
M  V30 686 H 60.2821 -3.11537 -0.915127 0
M  V30 687 H 61.2931 -4.5368 2.49789 0
M  V30 688 H 57.9701 -4.17461 -0.0572331 0
M  V30 689 H 59.3601 -5.58947 3.72864 0
M  V30 690 N 62.0802 -0.821533 -1.34494 0
M  V30 691 C 63.0122 -0.199946 -2.28326 0
M  V30 692 C 64.0252 0.609377 -1.50965 0
M  V30 693 O 65.2142 0.439285 -1.7301 0
M  V30 694 C 62.3142 0.738431 -3.30757 0
M  V30 695 C 61.4872 -0.0277632 -4.37391 0
M  V30 696 C 60.5462 0.831332 -5.19591 0
M  V30 697 O 59.5722 0.276822 -5.68526 0
M  V30 698 N 60.7742 2.15132 -5.39165 0
M  V30 699 H 63.5392 -1.00609 -2.82308 0
M  V30 700 H 61.1002 -0.678366 -1.47003 0
M  V30 701 H 63.0922 1.31773 -3.82646 0
M  V30 702 H 61.6622 1.44533 -2.7718 0
M  V30 703 H 60.8822 -0.788359 -3.86236 0
M  V30 704 H 62.1702 -0.555251 -5.05761 0
M  V30 705 H 61.5682 2.62559 -5.01078 0
M  V30 706 H 60.1252 2.6795 -5.94177 0
M  V30 707 N 63.5583 1.46682 -0.576371 0
M  V30 708 C 64.8073 2.01619 -0.0572825 0
M  V30 709 C 65.1203 1.45417 1.30818 0
M  V30 710 O 66.3263 1.92133 1.91825 0
M  V30 711 C 64.7823 3.59863 -0.0518371 0
M  V30 712 C 64.3903 4.25059 -1.41523 0
M  V30 713 C 66.1343 4.2248 0.413639 0
M  V30 714 C 64.0413 5.75364 -1.36785 0
M  V30 715 H 62.9713 0.753794 -0.0176448 0
M  V30 716 H 65.6223 1.68481 -0.727076 0
M  V30 717 H 64.0043 3.90048 0.683994 0
M  V30 718 H 65.1783 4.06491 -2.17029 0
M  V30 719 H 63.4933 3.7451 -1.8202 0
M  V30 720 H 66.0903 5.3265 0.467779 0
M  V30 721 H 66.4333 3.90976 1.42982 0
M  V30 722 H 66.9663 3.96897 -0.267929 0
M  V30 723 H 63.7053 6.11518 -2.36063 0
M  V30 724 H 63.2253 5.96214 -0.654895 0
M  V30 725 H 64.9043 6.37955 -1.07805 0
M  V30 726 N 65.0364 0.313813 1.54444 0
M  V30 727 C 65.9664 -0.549454 2.26943 0
M  V30 728 C 66.9474 -1.12741 1.27372 0
M  V30 729 O 68.1324 -1.15436 1.56167 0
M  V30 730 C 65.2624 -1.71523 3.01989 0
M  V30 731 C 64.2164 -1.26703 4.08816 0
M  V30 732 C 63.5424 -2.51898 4.71647 0
M  V30 733 C 64.8424 -0.388962 5.2085 0
M  V30 734 H 66.5364 0.0552661 2.99349 0
M  V30 735 H 64.0824 0.0280207 1.43973 0
M  V30 736 H 66.0354 -2.32535 3.51433 0
M  V30 737 H 64.7594 -2.34639 2.27183 0
M  V30 738 H 63.4184 -0.679896 3.6024 0
M  V30 739 H 63.0664 -3.13356 3.93468 0
M  V30 740 H 62.7664 -2.22605 5.43802 0
M  V30 741 H 64.2904 -3.1369 5.23861 0
M  V30 742 H 65.7044 -0.905107 5.6611 0
M  V30 743 H 64.1014 -0.18924 5.99802 0
M  V30 744 H 65.1714 0.582699 4.81386 0
M  V30 745 N 66.5145 -1.57545 0.0417849 0
M  V30 746 C 67.4615 -2.10977 -0.935805 0
M  V30 747 C 68.4315 -1.01486 -1.31491 0
M  V30 748 O 69.6165 -1.2898 -1.40602 0
M  V30 749 C 66.7565 -2.65169 -2.2086 0
M  V30 750 C 65.8695 -3.88714 -1.88482 0
M  V30 751 C 65.0045 -4.31254 -3.1015 0
M  V30 752 C 64.0435 -5.47524 -2.7365 0
M  V30 753 N 63.1805 -5.85162 -3.87982 0
M  V30 754 H 68.0205 -2.94218 -0.473249 0
M  V30 755 H 65.5575 -1.45415 -0.221981 0
M  V30 756 H 67.5155 -2.94685 -2.95325 0
M  V30 757 H 66.1455 -1.8474 -2.64709 0
M  V30 758 H 65.1975 -3.65849 -1.04205 0
M  V30 759 H 66.5095 -4.73245 -1.57608 0
M  V30 760 H 65.6635 -4.62273 -3.92923 0
M  V30 761 H 64.4025 -3.45516 -3.44195 0
M  V30 762 H 63.4075 -5.16187 -1.89291 0
M  V30 763 H 64.6325 -6.34971 -2.40807 0
M  V30 764 H 62.5785 -5.02377 -4.21846 0
M  V30 765 H 62.4955 -6.64362 -3.60775 0
M  V30 766 H 63.7635 -6.20791 -4.71422 0
M  V30 767 N 67.9926 0.231505 -1.5589 0
M  V30 768 C 68.9406 1.30649 -1.92441 0
M  V30 769 C 69.9346 1.49037 -0.805254 0
M  V30 770 O 71.1406 1.50329 -0.990007 0
M  V30 771 H 67.5156 0.437812 -0.611412 0
M  V30 772 H 69.4866 0.970973 -2.82161 0
M  V30 773 C 68.2356 2.65179 -2.24889 0
M  V30 774 H 67.5586 2.51835 -3.10514 0
M  V30 775 H 68.9986 3.39234 -2.54355 0
M  V30 776 C 67.4576 3.19439 -1.07054 0
M  V30 777 O 67.9876 4.00371 -0.326499 0
M  V30 778 N 66.1936 2.77675 -0.85703 0
M  V30 779 H 65.7406 2.11969 -1.46379 0
M  V30 780 H 65.6986 3.14321 -0.0703223 0
M  V30 781 N 69.4707 1.49531 0.497807 0
M  V30 782 C 70.8817 1.52344 1.07927 0
M  V30 783 C 71.2327 0.311469 1.93712 0
M  V30 784 O 70.3577 -0.578405 2.08527 0
M  V30 785 C 70.9527 2.76062 1.96405 0
M  V30 786 C 69.5117 2.81643 2.49709 0
M  V30 787 C 68.6587 2.46299 1.27404 0
M  V30 788 H 71.6097 1.56182 0.281576 0
M  V30 789 H 71.6307 2.56405 2.81135 0
M  V30 790 H 71.1427 3.64254 1.33943 0
M  V30 791 H 69.2437 1.97739 3.15801 0
M  V30 792 H 69.3567 3.83891 2.86643 0
M  V30 793 H 67.7207 1.98148 1.60029 0
M  V30 794 H 68.5037 3.36769 0.66645 0
M  V30 795 N 70.9488 -0.749086 1.3866 0
M  V30 796 C 71.8968 -1.88428 1.36373 0
M  V30 797 C 72.8908 -1.67561 0.248929 0
M  V30 798 O 74.0968 -1.75074 0.41821 0
M  V30 799 H 70.4718 -0.620023 0.42553 0
M  V30 800 H 72.4428 -1.87473 2.32156 0
M  V30 801 C 71.1918 -3.25961 1.21014 0
M  V30 802 H 70.5148 -3.42607 2.06059 0
M  V30 803 H 71.9548 -4.05625 1.23469 0
M  V30 804 C 70.4138 -3.36799 -0.0825941 0
M  V30 805 O 70.9438 -3.87517 -1.05797 0
M  V30 806 N 69.1498 -2.90258 -0.140939 0
M  V30 807 H 68.6968 -2.49174 0.653477 0
M  V30 808 H 68.6548 -2.97889 -1.00545 0
M  V30 809 N 72.4269 -1.23603 -0.977757 0
M  V30 810 C 73.7039 -0.977897 -1.69401 0
M  V30 811 C 74.0839 0.502738 -2.05026 0
M  V30 812 O 73.4319 1.47459 -1.74551 0
M  V30 813 C 73.6419 -1.89077 -2.93345 0
M  V30 814 C 74.9899 -2.15579 -3.65802 0
M  V30 815 O 76.0139 -1.86648 -3.03383 0
M  V30 816 O 74.8729 -2.64658 -4.78141 0
M  V30 817 H 71.9669 -0.369025 -0.740101 0
M  V30 818 H 74.5129 -1.34657 -1.03274 0
M  V30 819 H 73.2849 -2.89158 -2.63634 0
M  V30 820 H 72.9079 -1.52463 -3.67207 0
M  V30 821 N 73.905 1.17692 -1.04816 0
M  V30 822 C 75.316 1.69501 -0.782698 0
M  V30 823 C 75.667 1.83456 0.695577 0
M  V30 824 O 74.792 1.51942 1.54086 0
M  V30 825 C 75.387 3.07874 -1.41419 0
M  V30 826 C 73.946 3.56864 -1.19686 0
M  V30 827 C 73.093 2.3322 -1.50012 0
M  V30 828 H 76.044 1.02262 -1.2136 0
M  V30 829 H 76.065 3.71528 -0.821428 0
M  V30 830 H 75.577 2.97685 -2.49009 0
M  V30 831 H 73.678 3.72337 -0.140043 0
M  V30 832 H 73.791 4.39851 -1.89916 0
M  V30 833 H 72.155 2.37501 -0.920071 0
M  V30 834 H 72.938 2.25644 -2.58727 0
M  V30 835 N 75.3831 0.828654 1.34056 0
M  V30 836 C 76.6601 0.341809 1.9259 0
M  V30 837 C 77.0401 -1.17158 1.75605 0
M  V30 838 O 76.3881 -1.98132 1.13824 0
M  V30 839 C 76.5981 0.777453 3.4023 0
M  V30 840 C 77.9461 0.779579 4.17382 0
M  V30 841 O 78.9701 0.7204 3.48839 0
M  V30 842 O 77.8291 0.857996 5.39723 0
M  V30 843 H 74.9231 0.0946085 0.821571 0
M  V30 844 H 77.4691 0.913827 1.42994 0
M  V30 845 H 76.2411 1.8196 3.46419 0
M  V30 846 H 75.8641 0.181444 3.97186 0
M  V30 847 N 76.8612 -1.46375 0.584142 0
M  V30 848 C 78.0892 -2.06761 0.0759296 0
M  V30 849 C 78.5042 -1.43266 -1.22965 0
M  V30 850 O 77.8612 -0.538458 -1.74376 0
M  V30 851 C 77.9122 -3.61375 -0.0950384 0
M  V30 852 O 77.6332 -4.22495 1.15887 0
M  V30 853 C 79.1342 -4.38693 -0.637434 0
M  V30 854 H 76.3542 -0.668479 0.0581075 0
M  V30 855 H 78.8982 -1.8798 0.805218 0
M  V30 856 H 77.0532 -3.79578 -0.774554 0
M  V30 857 H 77.4672 -5.15385 0.973598 0
M  V30 858 H 78.9412 -5.47464 -0.706237 0
M  V30 859 H 79.4182 -4.06836 -1.65472 0
M  V30 860 H 80.0242 -4.25299 0.00725967 0
M  V30 861 N 78.3393 -0.321999 -1.54275 0
M  V30 862 C 79.5853 0.281461 -2.00837 0
M  V30 863 C 79.9183 1.51909 -1.20985 0
M  V30 864 O 79.1933 1.923 -0.291733 0
M  V30 865 C 79.4763 0.617162 -3.54772 0
M  V30 866 C 79.3293 -0.631064 -4.45351 0
M  V30 867 C 80.6483 1.43542 -4.16033 0
M  V30 868 H 77.7673 0.100826 -0.730071 0
M  V30 869 H 80.4093 -0.438268 -1.84876 0
M  V30 870 H 78.5593 1.23034 -3.68504 0
M  V30 871 H 80.2313 -1.26934 -4.43492 0
M  V30 872 H 78.4743 -1.26025 -4.15091 0
M  V30 873 H 79.1453 -0.351735 -5.50878 0
M  V30 874 H 81.6213 0.917134 -4.05867 0
M  V30 875 H 80.4973 1.63907 -5.23856 0
M  V30 876 H 80.7583 2.43108 -3.69257 0
M  V30 877 N 79.8174 1.5752 -0.0501392 0
M  V30 878 C 81.0944 1.83996 0.663685 0
M  V30 879 C 81.4744 0.938339 1.89099 0
M  V30 880 O 80.8224 -0.00087759 2.285 0
M  V30 881 C 81.0324 3.33702 1.02196 0
M  V30 882 C 82.3804 4.00691 1.40469 0
M  V30 883 O 83.4044 3.38321 1.11433 0
M  V30 884 O 82.2634 5.10658 1.94654 0
M  V30 885 H 79.3574 0.759385 0.32751 0
M  V30 886 H 81.9034 1.69514 -0.0794238 0
M  V30 887 H 80.6754 3.91015 0.149364 0
M  V30 888 H 80.2984 3.53368 1.82255 0
M  V30 889 N 81.2955 -0.223234 1.56011 0
M  V30 890 C 82.5445 -0.945912 1.78144 0
M  V30 891 C 82.8575 -1.85567 0.618396 0
M  V30 892 O 84.0635 -2.61688 0.723318 0
M  V30 893 C 82.5195 -1.73216 3.15475 0
M  V30 894 C 82.1275 -0.868619 4.39499 0
M  V30 895 C 83.8715 -2.44615 3.46935 0
M  V30 896 C 81.7785 -1.65212 5.67855 0
M  V30 897 H 80.7085 -0.356929 0.664167 0
M  V30 898 H 83.3595 -0.199845 1.82409 0
M  V30 899 H 81.7415 -2.52107 3.05382 0
M  V30 900 H 82.9155 -0.120366 4.60643 0
M  V30 901 H 81.2305 -0.26683 4.15544 0
M  V30 902 H 83.8275 -3.03732 4.40058 0
M  V30 903 H 84.1705 -3.17417 2.69355 0
M  V30 904 H 84.7035 -1.72715 3.58349 0
M  V30 905 H 81.4425 -0.967407 6.48322 0
M  V30 906 H 80.9625 -2.37503 5.50774 0
M  V30 907 H 82.6415 -2.21322 6.07968 0
M  V30 908 N 82.7736 -1.49793 -0.48987 0
M  V30 909 C 84.0226 -1.59085 -1.23995 0
M  V30 910 C 84.3356 -0.287907 -1.9347 0
M  V30 911 O 85.5416 -0.259506 -2.70257 0
M  V30 912 C 83.9976 -2.80736 -2.252 0
M  V30 913 C 83.6056 -4.17833 -1.61614 0
M  V30 914 C 85.3496 -2.99364 -3.00967 0
M  V30 915 C 83.2566 -5.30693 -2.60996 0
M  V30 916 H 82.1866 -0.592372 -0.466488 0
M  V30 917 H 84.8376 -1.76197 -0.51252 0
M  V30 918 H 83.2196 -2.57142 -3.01154 0
M  V30 919 H 84.3936 -4.51608 -0.915774 0
M  V30 920 H 82.7086 -4.04656 -0.981977 0
M  V30 921 H 85.3056 -3.80851 -3.75308 0
M  V30 922 H 85.6486 -2.10356 -3.59244 0
M  V30 923 H 86.1816 -3.2305 -2.32128 0
M  V30 924 H 82.9206 -6.21796 -2.07485 0
M  V30 925 H 82.4406 -5.01359 -3.2924 0
M  V30 926 H 84.1196 -5.6049 -3.23202 0
M  V30 927 N 84.2517 0.741722 -1.39055 0
M  V30 928 C 85.1817 1.869 -1.39966 0
M  V30 929 C 86.1627 1.6804 -0.26392 0
M  V30 930 O 87.3477 1.88458 -0.468755 0
M  V30 931 C 84.4777 3.24572 -1.23574 0
M  V30 932 C 83.4317 3.58056 -2.34477 0
M  V30 933 C 82.7577 4.94593 -2.0318 0
M  V30 934 C 84.0577 3.61716 -3.76774 0
M  V30 935 H 85.7517 1.86395 -2.34302 0
M  V30 936 H 83.2977 0.895361 -1.1278 0
M  V30 937 H 85.2507 4.031 -1.22834 0
M  V30 938 H 83.9747 3.25587 -0.257045 0
M  V30 939 H 82.6337 2.81854 -2.34423 0
M  V30 940 H 82.2817 4.92181 -1.03765 0
M  V30 941 H 81.9817 5.17964 -2.77465 0
M  V30 942 H 83.5057 5.75486 -2.04079 0
M  V30 943 H 84.9197 4.30335 -3.78794 0
M  V30 944 H 83.3167 3.96603 -4.50362 0
M  V30 945 H 84.3867 2.61672 -4.08235 0
M  V30 946 N 85.7298 1.2412 0.971189 0
M  V30 947 C 86.6618 0.988349 2.06795 0
M  V30 948 C 87.6748 -0.0409541 1.62748 0
M  V30 949 O 88.8638 0.195673 1.77424 0
M  V30 950 C 85.9638 0.469023 3.35639 0
M  V30 951 C 85.1368 1.56065 4.08611 0
M  V30 952 C 84.1958 1.04458 5.15728 0
M  V30 953 O 83.2218 1.73553 5.42096 0
M  V30 954 N 84.4238 -0.122817 5.8037 0
M  V30 955 H 87.1888 1.93265 2.29061 0
M  V30 956 H 84.7498 1.15102 1.13856 0
M  V30 957 H 86.7418 0.108613 4.04554 0
M  V30 958 H 85.3118 -0.380919 3.1027 0
M  V30 959 H 84.5318 2.09341 3.34021 0
M  V30 960 H 85.8198 2.29449 4.54126 0
M  V30 961 H 85.2178 -0.700563 5.61345 0
M  V30 962 H 83.7748 -0.424404 6.50417 0
M  V30 963 N 87.2079 -1.17134 1.05439 0
M  V30 964 C 88.4329 -1.91913 0.786396 0
M  V30 965 C 88.8579 -1.7643 -0.652234 0
M  V30 966 O 88.2159 -1.08372 -1.45345 0
M  V30 967 C 88.2639 -3.40921 1.17497 0
M  V30 968 O 87.3679 -4.11244 0.308589 0
M  V30 969 H 86.7089 -0.598215 0.288158 0
M  V30 970 H 89.2389 -1.48457 1.4079 0
M  V30 971 H 89.2489 -3.91668 1.14281 0
M  V30 972 H 87.9239 -3.5151 2.22292 0
M  V30 973 H 86.5009 -3.70731 0.40157 0
M  V30 974 N 88.686 -0.835752 -1.33615 0
M  V30 975 C 89.616 -0.281739 -2.31794 0
M  V30 976 C 90.597 0.608833 -1.58831 0
M  V30 977 O 91.782 0.533035 -1.86741 0
M  V30 978 C 88.912 0.546612 -3.42971 0
M  V30 979 C 87.866 -0.247904 -4.27281 0
M  V30 980 C 87.192 0.704001 -5.30045 0
M  V30 981 C 88.492 -1.46324 -5.01385 0
M  V30 982 H 90.186 -1.10206 -2.78379 0
M  V30 983 H 87.732 -0.531388 -1.33837 0
M  V30 984 H 89.685 0.944467 -4.1068 0
M  V30 985 H 88.409 1.40011 -2.95067 0
M  V30 986 H 87.068 -0.627281 -3.61194 0
M  V30 987 H 86.716 1.55381 -4.78399 0
M  V30 988 H 86.416 0.176524 -5.87335 0
M  V30 989 H 87.94 1.09944 -6.0062 0
M  V30 990 H 89.354 -1.13871 -5.61877 0
M  V30 991 H 87.751 -1.92728 -5.6831 0
M  V30 992 H 88.821 -2.23467 -4.30338 0
M  V30 993 N 90.1641 1.46063 -0.591896 0
M  V30 994 C 91.4411 1.95595 -0.0137119 0
M  V30 995 C 91.8211 1.5345 1.4497 0
M  V30 996 O 91.1691 0.789543 2.14426 0
M  V30 997 C 91.3791 3.48453 -0.195373 0
M  V30 998 C 92.7271 4.24546 -0.0679765 0
M  V30 999 O 93.7511 3.55982 -0.124681 0
M  V30 1000 O 92.6101 5.46467 0.0600579 0
M  V30 1001 H 89.7041 0.825795 0.0446279 0
M  V30 1002 H 92.2501 1.56303 -0.660859 0
M  V30 1003 H 91.0221 3.72045 -1.21235 0
M  V30 1004 H 90.6451 3.94597 0.487775 0
M  V30 1005 N 91.6422 0.330177 1.54103 0
M  V30 1006 C 93.0582 -0.0222371 1.59585 0
M  V30 1007 C 93.2582 -1.49902 1.34654 0
M  V30 1008 O 92.3142 -2.25592 1.13421 0
M  V30 1009 C 93.6272 0.401932 2.98002 0
M  V30 1010 C 95.1752 0.353145 3.11001 0
M  V30 1011 C 95.6502 0.752576 4.51775 0
M  V30 1012 N 97.1412 0.706239 4.57784 0
M  V30 1013 C 97.8762 0.987417 5.64834 0
M  V30 1014 N 97.3722 1.33607 6.79795 0
M  V30 1015 N 99.1652 0.91254 5.54643 0
M  V30 1016 H 91.3162 1.29228 1.68564 0
M  V30 1017 H 93.5792 0.525906 0.78875 0
M  V30 1018 H 93.2852 1.4311 3.21267 0
M  V30 1019 H 93.1592 -0.229699 3.765 0
M  V30 1020 H 95.5462 -0.666822 2.87467 0
M  V30 1021 H 95.6272 1.0198 2.34593 0
M  V30 1022 H 95.2712 1.77049 4.76042 0
M  V30 1023 H 95.2012 0.0635409 5.26562 0
M  V30 1024 H 97.6922 0.44889 3.75224 0
M  V30 1025 H 98.0052 1.53582 7.57385 0
M  V30 1026 H 96.3502 1.37439 6.81275 0
M  V30 1027 H 99.5412 0.639601 4.6371 0
M  V30 1028 H 99.7142 1.13503 6.37982 0
M  V30 1029 N 93.1203 -1.57491 0.0584922 0
M  V30 1030 C 94.3973 -1.84346 -0.653918 0
M  V30 1031 C 94.7773 -0.948355 -1.88599 0
M  V30 1032 O 94.1253 -0.0112403 -2.28497 0
M  V30 1033 C 94.3353 -3.34239 -1.00425 0
M  V30 1034 C 95.6833 -4.01431 -1.38342 0
M  V30 1035 O 96.7073 -3.38907 -1.09637 0
M  V30 1036 O 95.5663 -5.11683 -1.91943 0
M  V30 1037 H 92.6603 -0.761112 -0.323478 0
M  V30 1038 H 95.2063 -1.6947 0.0884125 0
M  V30 1039 H 93.9783 -3.91089 -0.128625 0
M  V30 1040 H 93.6013 -3.54329 -1.80378 0
M  V30 1041 N 94.5984 0.214957 -1.56127 0
M  V30 1042 C 95.5484 1.27006 -1.8935 0
M  V30 1043 C 96.5324 1.41969 -0.757202 0
M  V30 1044 O 97.7244 1.44673 -1.01973 0
M  V30 1045 C 94.8534 2.61911 -2.2194 0
M  V30 1046 C 93.9394 2.50822 -3.41978 0
M  V30 1047 N 94.3304 2.09391 -4.60423 0
M  V30 1048 C 92.6284 2.81765 -3.45723 0
M  V30 1049 C 93.3294 2.09712 -5.42582 0
M  V30 1050 N 92.3054 2.50454 -4.82466 0
M  V30 1051 H 96.1074 0.940734 -2.78437 0
M  V30 1052 H 93.6214 0.423492 -1.56781 0
M  V30 1053 H 95.6184 3.38096 -2.43919 0
M  V30 1054 H 94.2784 2.95684 -1.34169 0
M  V30 1055 H 95.2894 1.80416 -4.85459 0
M  V30 1056 H 91.9664 3.19865 -2.68314 0
M  V30 1057 H 93.3564 1.79748 -6.4741 0
M  V30 1058 N 96.0765 1.50051 0.48192 0
M  V30 1059 C 97.0245 1.68635 1.60203 0
M  V30 1060 C 98.0185 0.552184 1.60148 0
M  V30 1061 O 99.2245 0.732377 1.64427 0
M  V30 1062 H 95.5995 0.532081 0.531407 0
M  V30 1063 H 97.5705 2.62616 1.41688 0
M  V30 1064 C 96.3195 1.78775 2.9822 0
M  V30 1065 H 95.6425 2.6543 2.98976 0
M  V30 1066 H 97.0825 1.95806 3.7608 0
M  V30 1067 C 95.5415 0.536849 3.32595 0
M  V30 1068 O 96.0715 -0.328897 4.00351 0
M  V30 1069 N 94.2775 0.394091 2.87915 0
M  V30 1070 H 93.8245 1.09962 2.32951 0
M  V30 1071 H 93.7825 -0.441737 3.11281 0
M  V30 1072 N 97.5546 -0.734337 1.39446 0
M  V30 1073 C 98.5016 -1.84835 1.38219 0
M  V30 1074 C 99.4716 -1.64331 0.24179 0
M  V30 1075 O 100.657 -1.85728 0.437002 0
M  V30 1076 C 97.7966 -3.22355 1.23212 0
M  V30 1077 C 96.9096 -3.5456 2.46801 0
M  V30 1078 C 96.0446 -4.81485 2.24377 0
M  V30 1079 C 95.0836 -5.06536 3.43639 0
M  V30 1080 N 94.2206 -6.24665 3.20528 0
M  V30 1081 H 99.0606 -1.85219 2.33448 0
M  V30 1082 H 96.5976 -0.905039 1.15963 0
M  V30 1083 H 98.5556 -4.0174 1.12522 0
M  V30 1084 H 97.1856 -3.21248 0.316121 0
M  V30 1085 H 96.2376 -2.69872 2.68092 0
M  V30 1086 H 97.5496 -3.6899 3.3563 0
M  V30 1087 H 96.7036 -5.68852 2.10933 0
M  V30 1088 H 95.4426 -4.6923 1.32944 0
M  V30 1089 H 94.4476 -4.17632 3.5758 0
M  V30 1090 H 95.6726 -5.20676 4.35974 0
M  V30 1091 H 93.6186 -6.13696 2.3176 0
M  V30 1092 H 93.5356 -6.39685 4.02913 0
M  V30 1093 H 94.8036 -7.14868 3.10779 0
M  V30 1094 N 99.0327 -1.24633 -0.964593 0
M  V30 1095 C 99.9797 -1.04144 -2.05968 0
M  V30 1096 C 100.95 0.046262 -1.66036 0
M  V30 1097 O 102.135 -0.108972 -1.90489 0
M  V30 1098 C 99.2747 -0.65563 -3.38815 0
M  V30 1099 C 98.3877 -1.81714 -3.91923 0
M  V30 1100 C 97.5227 -1.37662 -5.13052 0
M  V30 1101 C 96.5617 -2.50788 -5.58365 0
M  V30 1102 N 95.6987 -2.07582 -6.70712 0
M  V30 1103 H 100.539 -1.9787 -2.22827 0
M  V30 1104 H 98.0757 -0.9855 -1.09208 0
M  V30 1105 H 100.034 -0.412954 -4.15151 0
M  V30 1106 H 98.6637 0.244627 -3.21872 0
M  V30 1107 H 97.7157 -2.1734 -3.12198 0
M  V30 1108 H 99.0277 -2.66705 -4.21509 0
M  V30 1109 H 98.1817 -1.093 -5.96773 0
M  V30 1110 H 96.9207 -0.497293 -4.85158 0
M  V30 1111 H 95.9257 -2.79906 -4.73215 0
M  V30 1112 H 97.1507 -3.39283 -5.88272 0
M  V30 1113 H 95.0967 -1.22051 -6.44546 0
M  V30 1114 H 95.0137 -2.86125 -6.99763 0
M  V30 1115 H 96.2817 -1.82369 -7.57867 0
M  V30 1116 N 100.511 1.16574 -1.06058 0
M  V30 1117 C 101.757 1.87324 -0.777022 0
M  V30 1118 C 102.09 1.81351 0.694645 0
M  V30 1119 O 101.365 1.22753 1.50871 0
M  V30 1120 C 101.648 3.36991 -1.26922 0
M  V30 1121 C 101.501 3.51667 -2.80447 0
M  V30 1122 C 102.82 4.3131 -0.87521 0
M  V30 1123 H 99.9388 0.680191 -0.28374 0
M  V30 1124 H 102.581 1.37036 -1.3161 0
M  V30 1125 H 100.731 3.79949 -0.81063 0
M  V30 1126 H 102.403 3.17664 -3.34495 0
M  V30 1127 H 100.646 2.93656 -3.19294 0
M  V30 1128 H 101.317 4.56766 -3.0995 0
M  V30 1129 H 103.793 3.9624 -1.27014 0
M  V30 1130 H 102.669 5.34545 -1.2471 0
M  V30 1131 H 102.93 4.41552 0.220071 0
M  V30 1132 N 101.989 0.842826 1.3317 0
M  V30 1133 C 103.266 0.362216 1.92217 0
M  V30 1134 C 103.646 -1.15289 1.76838 0
M  V30 1135 O 102.994 -1.96914 1.15919 0
M  V30 1136 C 103.204 0.813495 3.39387 0
M  V30 1137 C 104.552 0.823804 4.16532 0
M  V30 1138 O 105.576 0.757358 3.48055 0
M  V30 1139 O 104.435 0.915193 5.38782 0
M  V30 1140 H 101.529 0.103317 0.820521 0
M  V30 1141 H 104.075 0.928942 1.42017 0
M  V30 1142 H 102.847 1.85624 3.4447 0
M  V30 1143 H 102.47 0.223561 3.96971 0
M  V30 1144 N 103.467 -1.45747 0.599634 0
M  V30 1145 C 104.714 -2.02292 0.0917284 0
M  V30 1146 C 105.042 -1.46906 -1.27472 0
M  V30 1147 O 104.297 -0.630652 -1.8526 0
M  V30 1148 C 104.596 -3.57399 -0.00602758 0
M  V30 1149 C 104.262 -4.31902 1.29503 0
M  V30 1150 C 102.924 -4.51974 1.65144 0
M  V30 1151 C 105.276 -4.74551 2.15525 0
M  V30 1152 C 102.604 -5.11949 2.86574 0
M  V30 1153 C 104.956 -5.35868 3.36196 0
M  V30 1154 C 103.62 -5.54165 3.72099 0
M  V30 1155 H 102.89 -0.740239 0.0335658 0
M  V30 1156 H 105.537 -1.7491 0.779661 0
M  V30 1157 H 103.842 -3.84014 -0.777183 0
M  V30 1158 H 105.539 -3.98846 -0.415038 0
M  V30 1159 H 102.129 -4.16588 1.00761 0
M  V30 1160 H 106.313 -4.58784 1.8929 0
M  V30 1161 H 101.569 -5.24305 3.14507 0
M  V30 1162 H 105.743 -5.6787 4.03109 0
M  V30 1163 H 103.37 -6.00406 4.6628 0
M  V30 1164 N 104.945 -0.338344 -1.53925 0
M  V30 1165 C 106.173 0.261298 -2.05243 0
M  V30 1166 C 106.588 1.44625 -1.21363 0
M  V30 1167 O 105.945 1.80811 -0.247736 0
M  V30 1168 C 105.996 0.681412 -3.5502 0
M  V30 1169 O 105.717 -0.456414 -4.35716 0
M  V30 1170 C 107.218 1.34232 -4.22489 0
M  V30 1171 H 104.438 0.0513685 -0.669031 0
M  V30 1172 H 106.982 -0.488822 -1.98572 0
M  V30 1173 H 105.137 1.38148 -3.61931 0
M  V30 1174 H 105.551 -0.122564 -5.24357 0
M  V30 1175 H 107.025 1.58708 -5.28693 0
M  V30 1176 H 107.502 2.29426 -3.74514 0
M  V30 1177 H 108.108 0.684424 -4.19757 0
M  V30 1178 N 106.423 1.57458 -0.0668435 0
M  V30 1179 C 107.333 2.15937 0.916975 0
M  V30 1180 C 108.349 1.12123 1.33058 0
M  V30 1181 O 109.525 1.44366 1.40429 0
M  V30 1182 C 106.59 2.70547 2.16807 0
M  V30 1183 C 105.651 3.89215 1.81135 0
M  V30 1184 C 104.884 4.41211 3.0028 0
M  V30 1185 O 105.107 3.92225 4.14144 0
M  V30 1186 O 104.041 5.32605 2.80384 0
M  V30 1187 H 107.867 3.00354 0.449561 0
M  V30 1188 H 105.452 1.48584 0.155949 0
M  V30 1189 H 107.334 3.0557 2.90181 0
M  V30 1190 H 106.009 1.89192 2.62656 0
M  V30 1191 H 104.916 3.59054 1.05028 0
M  V30 1192 H 106.249 4.71848 1.40073 0
M  V30 1193 N 107.901 -0.206675 1.56239 0
M  V30 1194 C 109.131 -0.943975 1.83773 0
M  V30 1195 C 109.539 -1.77841 0.645703 0
M  V30 1196 O 108.882 -1.79403 -0.395008 0
M  V30 1197 C 108.944 -1.899 3.05251 0
M  V30 1198 C 108.608 -1.24764 4.39639 0
M  V30 1199 C 109.605 -0.630216 5.16066 0
M  V30 1200 C 107.29 -1.25496 4.8637 0
M  V30 1201 C 109.284 -0.0287946 6.37393 0
M  V30 1202 C 106.971 -0.649698 6.07637 0
M  V30 1203 C 107.969 -0.0376845 6.8299 0
M  V30 1204 O 107.657 0.55812 8.0196 0
M  V30 1205 H 107.389 -0.281508 0.614597 0
M  V30 1206 H 109.943 -0.222458 2.04192 0
M  V30 1207 H 108.173 -2.6599 2.80689 0
M  V30 1208 H 109.862 -2.5031 3.1953 0
M  V30 1209 H 110.628 -0.616785 4.81062 0
M  V30 1210 H 106.507 -1.72072 4.27683 0
M  V30 1211 H 110.051 0.449518 6.9615 0
M  V30 1212 H 105.948 -0.660592 6.42111 0
M  V30 1213 H 106.716 0.453891 8.17241 0
M  V30 1214 N 109.379 -1.50304 -0.473955 0
M  V30 1215 C 110.309 -1.71886 -1.58042 0
M  V30 1216 C 111.29 -0.567799 -1.60344 0
M  V30 1217 O 112.475 -0.806623 -1.76656 0
M  V30 1218 C 109.605 -1.81036 -2.96384 0
M  V30 1219 C 108.559 -2.962 -3.08949 0
M  V30 1220 C 107.885 -2.9049 -4.48909 0
M  V30 1221 C 109.185 -4.36752 -2.86434 0
M  V30 1222 H 110.879 -2.64527 -1.40234 0
M  V30 1223 H 108.425 -1.27295 -0.673201 0
M  V30 1224 H 110.378 -1.94719 -3.73714 0
M  V30 1225 H 109.102 -0.850147 -3.15341 0
M  V30 1226 H 107.761 -2.82164 -2.3405 0
M  V30 1227 H 107.409 -1.92321 -4.64781 0
M  V30 1228 H 107.109 -3.67802 -4.58253 0
M  V30 1229 H 108.633 -3.06218 -5.28264 0
M  V30 1230 H 110.047 -4.5133 -3.53517 0
M  V30 1231 H 108.444 -5.15493 -3.07225 0
M  V30 1232 H 109.514 -4.49321 -1.82316 0
M  V30 1233 N 110.857 0.726932 -1.39834 0
M  V30 1234 C 111.787 1.85405 -1.41941 0
M  V30 1235 C 112.768 1.67751 -0.281728 0
M  V30 1236 O 113.953 1.8795 -0.488717 0
M  V30 1237 C 111.083 3.23243 -1.2701 0
M  V30 1238 C 110.037 3.55549 -2.38262 0
M  V30 1239 C 109.363 4.9241 -2.08415 0
M  V30 1240 C 110.663 3.577 -3.80589 0
M  V30 1241 H 112.357 1.83899 -2.36266 0
M  V30 1242 H 109.903 0.883349 -1.13723 0
M  V30 1243 H 111.856 4.01775 -1.27103 0
M  V30 1244 H 110.58 3.25296 -0.291564 0
M  V30 1245 H 109.239 2.79351 -2.37399 0
M  V30 1246 H 108.887 4.91052 -1.0898 0
M  V30 1247 H 108.587 5.14992 -2.82943 0
M  V30 1248 H 110.111 5.73289 -2.10171 0
M  V30 1249 H 111.525 4.26293 -3.83337 0
M  V30 1250 H 109.922 3.91804 -4.54543 0
M  V30 1251 H 110.992 2.57328 -4.10987 0
M  V30 1252 N 112.336 1.25143 0.95797 0
M  V30 1253 C 113.269 0.995565 2.05338 0
M  V30 1254 C 114.247 -0.0740423 1.62431 0
M  V30 1255 O 115.431 0.0649212 1.88388 0
M  V30 1256 C 112.558 0.504298 3.34925 0
M  V30 1257 C 111.604 1.56393 3.96792 0
M  V30 1258 S 112.437 3.14815 4.33188 0
M  V30 1259 C 113.593 2.67415 5.65898 0
M  V30 1260 H 113.826 1.92309 2.26726 0
M  V30 1261 H 111.359 1.08635 1.09716 0
M  V30 1262 H 113.317 0.227497 4.09869 0
M  V30 1263 H 111.978 -0.402671 3.11508 0
M  V30 1264 H 111.171 1.17082 4.90212 0
M  V30 1265 H 110.773 1.79124 3.28315 0
M  V30 1266 H 113.065 2.10833 6.4386 0
M  V30 1267 H 114.008 3.59463 6.10076 0
M  V30 1268 H 114.416 2.07521 5.24972 0
M  V30 1269 N 113.814 -1.1601 1.06675 0
M  V30 1270 C 115.063 -1.85973 0.780818 0
M  V30 1271 C 115.376 -1.82819 -0.695444 0
M  V30 1272 O 116.582 -2.484 -1.09589 0
M  V30 1273 C 115.038 -3.33757 1.34665 0
M  V30 1274 C 114.646 -3.45374 2.85343 0
M  V30 1275 C 116.39 -4.0895 1.13843 0
M  V30 1276 C 114.297 -4.87266 3.35151 0
M  V30 1277 H 113.227 -0.696661 0.288407 0
M  V30 1278 H 115.878 -1.30903 1.28595 0
M  V30 1279 H 114.26 -3.88456 0.769274 0
M  V30 1280 H 115.434 -3.00816 3.49065 0
M  V30 1281 H 113.749 -2.83619 3.04876 0
M  V30 1282 H 116.346 -5.13654 1.4854 0
M  V30 1283 H 116.689 -4.16229 0.0770282 0
M  V30 1284 H 117.222 -3.605 1.68179 0
M  V30 1285 H 113.961 -4.85168 4.40786 0
M  V30 1286 H 113.481 -5.32433 2.76179 0
M  V30 1287 H 115.16 -5.56097 3.30704 0
M  V30 1288 N 115.292 -0.849877 -1.32721 0
M  V30 1289 C 116.539 -0.450923 -1.97416 0
M  V30 1290 C 116.867 0.992376 -1.67279 0
M  V30 1291 O 116.122 1.71048 -0.950845 0
M  V30 1292 C 116.421 -0.631272 -3.51781 0
M  V30 1293 C 116.087 -2.04432 -4.01894 0
M  V30 1294 C 114.749 -2.4308 -4.1529 0
M  V30 1295 C 117.101 -2.96679 -4.28522 0
M  V30 1296 C 114.429 -3.73257 -4.52654 0
M  V30 1297 C 116.781 -4.26349 -4.67343 0
M  V30 1298 C 115.445 -4.64939 -4.78945 0
M  V30 1299 H 114.715 -0.165004 -0.722395 0
M  V30 1300 H 117.362 -1.07901 -1.58207 0
M  V30 1301 H 115.667 0.0800767 -3.91718 0
M  V30 1302 H 117.364 -0.302709 -3.99856 0
M  V30 1303 H 113.954 -1.73419 -3.91949 0
M  V30 1304 H 118.138 -2.68054 -4.17685 0
M  V30 1305 H 113.394 -4.02946 -4.59831 0
M  V30 1306 H 117.568 -4.97895 -4.86902 0
M  V30 1307 H 115.195 -5.65855 -5.07654 0
M  V30 1308 N 116.77 1.45427 -0.607355 0
M  V30 1309 C 117.717 2.3053 0.111625 0
M  V30 1310 C 118.687 1.4209 0.860216 0
M  V30 1311 O 119.872 1.71019 0.845998 0
M  V30 1312 C 117.012 3.26992 1.10319 0
M  V30 1313 C 116.125 4.30535 0.355493 0
M  V30 1314 C 115.26 5.14105 1.33676 0
M  V30 1315 C 114.299 6.09376 0.576862 0
M  V30 1316 N 113.436 6.85727 1.5074 0
M  V30 1317 H 118.276 2.91477 -0.620093 0
M  V30 1318 H 115.813 1.43631 -0.317594 0
M  V30 1319 H 117.771 3.81385 1.6912 0
M  V30 1320 H 116.401 2.67799 1.80232 0
M  V30 1321 H 115.453 3.78805 -0.348023 0
M  V30 1322 H 116.765 4.98235 -0.237423 0
M  V30 1323 H 115.919 5.72897 1.99684 0
M  V30 1324 H 114.658 4.46423 1.9636 0
M  V30 1325 H 113.663 5.49715 -0.0968519 0
M  V30 1326 H 114.888 6.79085 -0.0449341 0
M  V30 1327 H 112.834 6.20735 2.12189 0
M  V30 1328 H 112.751 7.49778 0.967913 0
M  V30 1329 H 114.019 7.4906 2.15706 0
M  V30 1330 N 118.248 0.346503 1.53744 0
M  V30 1331 C 119.178 -0.501193 2.28058 0
M  V30 1332 C 120.159 -1.10014 1.29734 0
M  V30 1333 O 121.344 -1.12097 1.58581 0
M  V30 1334 C 118.474 -1.65078 3.05559 0
M  V30 1335 C 117.428 -1.18003 4.11411 0
M  V30 1336 C 116.754 -2.41837 4.76884 0
M  V30 1337 C 118.054 -0.278394 5.21558 0
M  V30 1338 H 119.748 0.11875 2.99164 0
M  V30 1339 H 117.294 0.0585531 1.43881 0
M  V30 1340 H 119.247 -2.25028 3.56287 0
M  V30 1341 H 117.971 -2.29767 2.32109 0
M  V30 1342 H 116.63 -0.603331 3.61601 0
M  V30 1343 H 116.278 -3.0494 4.00026 0
M  V30 1344 H 115.978 -2.1102 5.48402 0
M  V30 1345 H 117.502 -3.02508 5.30397 0
M  V30 1346 H 118.916 -0.784823 5.67903 0
M  V30 1347 H 117.313 -0.0619707 6.00068 0
M  V30 1348 H 118.383 0.684677 4.80042 0
M  V30 1349 N 119.726 -1.57421 0.075193 0
M  V30 1350 C 120.972 -1.93905 -0.594025 0
M  V30 1351 C 121.305 -0.955701 -1.69056 0
M  V30 1352 O 120.58 0.0145373 -1.94495 0
M  V30 1353 C 120.863 -3.40638 -1.1678 0
M  V30 1354 C 120.716 -4.49733 -0.0776792 0
M  V30 1355 C 122.035 -3.88259 -2.07228 0
M  V30 1356 H 119.154 -0.705105 -0.214466 0
M  V30 1357 H 121.796 -1.8947 0.141854 0
M  V30 1358 H 119.946 -3.44549 -1.79494 0
M  V30 1359 H 121.618 -4.57942 0.555573 0
M  V30 1360 H 119.861 -4.29751 0.591286 0
M  V30 1361 H 120.532 -5.49549 -0.519603 0
M  V30 1362 H 123.008 -3.86376 -1.54445 0
M  V30 1363 H 121.884 -4.91533 -2.44308 0
M  V30 1364 H 122.145 -3.26396 -2.98191 0
M  V30 1365 N 121.204 0.198386 -1.56346 0
M  V30 1366 C 122.136 1.26987 -1.90806 0
M  V30 1367 C 123.149 1.41877 -0.798419 0
M  V30 1368 O 124.338 1.42362 -1.07682 0
M  V30 1369 C 121.438 2.64246 -2.12196 0
M  V30 1370 C 120.611 2.71007 -3.43328 0
M  V30 1371 C 119.67 3.89439 -3.5387 0
M  V30 1372 O 118.696 3.76695 -4.26719 0
M  V30 1373 N 119.898 5.04752 -2.86715 0
M  V30 1374 H 122.663 0.977433 -2.83313 0
M  V30 1375 H 120.224 0.388322 -1.57174 0
M  V30 1376 H 122.216 3.41896 -2.1654 0
M  V30 1377 H 120.786 2.85992 -1.26204 0
M  V30 1378 H 120.006 1.79657 -3.50881 0
M  V30 1379 H 121.294 2.72512 -4.29668 0
M  V30 1380 H 120.692 5.18004 -2.2735 0
M  V30 1381 H 119.249 5.8036 -2.96691 0
M  V30 1382 N 122.682 1.50554 0.465978 0
M  V30 1383 C 123.645 1.69233 1.54574 0
M  V30 1384 C 124.645 0.562901 1.50626 0
M  V30 1385 O 125.835 0.830016 1.53155 0
M  V30 1386 C 122.967 1.7223 2.94193 0
M  V30 1387 H 124.16 2.65571 1.39327 0
M  V30 1388 H 121.713 1.40111 0.692711 0
M  V30 1389 H 122.448 0.77603 3.14878 0
M  V30 1390 H 122.233 2.54285 2.98466 0
M  V30 1391 H 123.723 1.88618 3.72576 0
M  V30 1392 N 124.16 -0.719506 1.40217 0
M  V30 1393 C 125.576 -1.02707 1.22161 0
M  V30 1394 C 125.776 -2.0128 0.0940557 0
M  V30 1395 O 124.832 -2.46452 -0.549318 0
M  V30 1396 C 126.145 -1.57454 2.56181 0
M  V30 1397 C 127.693 -1.69458 2.63159 0
M  V30 1398 C 128.168 -2.27611 3.97438 0
M  V30 1399 N 129.659 -2.35002 3.99159 0
M  V30 1400 C 130.394 -2.80972 4.99842 0
M  V30 1401 N 129.89 -3.26723 6.10921 0
M  V30 1402 N 131.683 -2.80321 4.87213 0
M  V30 1403 H 123.834 -0.0660492 2.12297 0
M  V30 1404 H 126.097 -0.0919077 0.943534 0
M  V30 1405 H 125.803 -0.924873 3.39321 0
M  V30 1406 H 125.677 -2.56036 2.76993 0
M  V30 1407 H 128.064 -2.33543 1.80393 0
M  V30 1408 H 128.145 -0.694867 2.46181 0
M  V30 1409 H 127.789 -1.6415 4.80643 0
M  V30 1410 H 127.719 -3.2829 4.11744 0
M  V30 1411 H 130.21 -2.02685 3.18947 0
M  V30 1412 H 130.523 -3.60355 6.8364 0
M  V30 1413 H 128.868 -3.24692 6.14492 0
M  V30 1414 H 132.059 -2.43912 3.9953 0
M  V30 1415 H 132.232 -3.15831 5.65822 0
M  V30 1416 N 125.638 -1.25649 -0.95132 0
M  V30 1417 C 126.586 -1.06118 -2.06982 0
M  V30 1418 C 127.58 0.00889169 -1.69398 0
M  V30 1419 O 128.786 -0.146988 -1.79399 0
M  V30 1420 H 125.161 -0.326248 -0.677544 0
M  V30 1421 H 127.132 -2.00932 -2.2061 0
M  V30 1422 C 125.881 -0.700145 -3.40578 0
M  V30 1423 H 125.204 -1.51537 -3.69968 0
M  V30 1424 H 126.644 -0.603211 -4.19687 0
M  V30 1425 C 125.103 0.59403 -3.31622 0
M  V30 1426 O 125.633 1.63522 -3.66911 0
M  V30 1427 N 123.839 0.58089 -2.84735 0
M  V30 1428 H 123.386 -0.266783 -2.56215 0
M  V30 1429 H 123.344 1.44695 -2.79125 0
M  V30 1430 N 127.117 1.15442 -1.07289 0
M  V30 1431 C 128.064 2.20161 -0.692653 0
M  V30 1432 C 129.034 1.63073 0.31564 0
M  V30 1433 O 130.219 1.89725 0.202235 0
M  V30 1434 C 127.359 3.44967 -0.0959509 0
M  V30 1435 C 126.472 4.16256 -1.15564 0
M  V30 1436 C 125.607 5.28609 -0.524011 0
M  V30 1437 C 124.646 5.91715 -1.56653 0
M  V30 1438 N 123.783 6.9554 -0.957531 0
M  V30 1439 H 128.623 2.52037 -1.59002 0
M  V30 1440 H 126.16 1.2378 -0.794798 0
M  V30 1441 H 128.118 4.16341 0.267628 0
M  V30 1442 H 126.748 3.1361 0.764772 0
M  V30 1443 H 125.8 3.43385 -1.6368 0
M  V30 1444 H 127.112 4.59268 -1.94613 0
M  V30 1445 H 126.266 6.06604 -0.108032 0
M  V30 1446 H 125.005 4.86787 0.29825 0
M  V30 1447 H 124.01 5.12433 -1.9923 0
M  V30 1448 H 125.235 6.35614 -2.39107 0
M  V30 1449 H 123.181 6.55814 -0.156162 0
M  V30 1450 H 123.098 7.36977 -1.68526 0
M  V30 1451 H 124.366 7.77435 -0.567032 0
M  V30 1452 N 128.595 0.856903 1.32268 0
M  V30 1453 C 129.844 0.457599 1.96441 0
M  V30 1454 C 130.157 -0.992426 1.68553 0
M  V30 1455 O 131.363 -1.49727 2.26482 0
M  V30 1456 C 129.819 0.767358 3.51624 0
M  V30 1457 C 129.427 2.23326 3.88367 0
M  V30 1458 C 131.171 0.435887 4.22256 0
M  V30 1459 C 129.078 2.48613 5.36606 0
M  V30 1460 H 128.008 0.167387 0.735185 0
M  V30 1461 H 130.659 1.048 1.5063 0
M  V30 1462 H 129.041 0.106367 3.95857 0
M  V30 1463 H 130.215 2.93623 3.55137 0
M  V30 1464 H 128.53 2.52948 3.30766 0
M  V30 1465 H 131.127 0.602202 5.31298 0
M  V30 1466 H 131.47 -0.622672 4.11617 0
M  V30 1467 H 132.003 1.05286 3.83614 0
M  V30 1468 H 128.742 3.53101 5.52268 0
M  V30 1469 H 128.262 1.82896 5.71235 0
M  V30 1470 H 129.941 2.32676 6.03714 0
M  V30 1471 N 130.073 -1.45103 0.615059 0
M  V30 1472 C 131.322 -2.01396 0.110718 0
M  V30 1473 C 131.635 -1.48834 -1.26916 0
M  V30 1474 O 132.841 -1.97152 -1.86664 0
M  V30 1475 C 131.297 -3.59599 0.14723 0
M  V30 1476 C 130.905 -4.21158 1.52743 0
M  V30 1477 C 132.649 -4.23428 -0.30148 0
M  V30 1478 C 130.556 -5.71535 1.51992 0
M  V30 1479 H 129.486 -0.753061 0.0376241 0
M  V30 1480 H 132.137 -1.66494 0.77149 0
M  V30 1481 H 130.519 -3.91724 -0.580339 0
M  V30 1482 H 131.693 -4.00594 2.2773 0
M  V30 1483 H 130.008 -3.69552 1.91886 0
M  V30 1484 H 132.605 -5.33703 -0.326392 0
M  V30 1485 H 132.948 -3.94629 -1.32565 0
M  V30 1486 H 133.481 -3.96047 0.373065 0
M  V30 1487 H 130.22 -6.05044 2.52193 0
M  V30 1488 H 129.74 -5.94268 0.81274 0
M  V30 1489 H 131.419 -6.34873 1.24681 0
M  V30 1490 N 131.551 -0.354651 -1.53558 0
M  V30 1491 C 132.799 0.237972 -2.00694 0
M  V30 1492 C 133.12 1.50173 -1.24391 0
M  V30 1493 O 132.39 1.92673 -0.354135 0
M  V30 1494 H 130.97 0.0909256 -0.741446 0
M  V30 1495 H 133.632 -0.478368 -1.88938 0
M  V30 1496 H 132.728 0.47264 -3.085 0
M  V30 1497 N 133.029 1.57378 -0.0835403 0
M  V30 1498 C 133.976 2.13384 0.879539 0
M  V30 1499 C 134.946 1.04936 1.28754 0
M  V30 1500 O 136.131 1.32662 1.37133 0
M  V30 1501 C 133.271 2.70932 2.13752 0
M  V30 1502 C 132.384 3.93575 1.7811 0
M  V30 1503 C 131.519 4.39326 2.98607 0
M  V30 1504 C 130.558 5.54587 2.59037 0
M  V30 1505 N 129.695 5.95243 3.72331 0
M  V30 1506 H 134.535 2.9537 0.395076 0
M  V30 1507 H 132.072 1.45953 0.183349 0
M  V30 1508 H 134.03 3.02411 2.87408 0
M  V30 1509 H 132.66 1.91693 2.59718 0
M  V30 1510 H 131.712 3.68483 0.94469 0
M  V30 1511 H 133.024 4.77258 1.45005 0
M  V30 1512 H 132.178 4.72528 3.80529 0
M  V30 1513 H 130.917 3.5452 3.34913 0
M  V30 1514 H 129.922 5.21024 1.75539 0
M  V30 1515 H 131.147 6.41133 2.23887 0
M  V30 1516 H 129.093 5.13385 4.08378 0
M  V30 1517 H 129.01 6.73694 3.43034 0
M  V30 1518 H 130.278 6.33072 4.54797 0
M  V30 1519 N 134.507 -0.190092 1.56449 0
M  V30 1520 C 135.784 -0.935886 1.71757 0
M  V30 1521 C 136.164 -2.01173 0.639726 0
M  V30 1522 O 135.512 -2.25827 -0.348502 0
M  V30 1523 C 135.722 -1.51775 3.1427 0
M  V30 1524 C 137.07 -1.99794 3.74656 0
M  V30 1525 O 138.094 -1.61607 3.1743 0
M  V30 1526 O 136.953 -2.70079 4.751 0
M  V30 1527 H 134.047 -0.439229 0.700719 0
M  V30 1528 H 136.593 -0.179395 1.68749 0
M  V30 1529 H 135.365 -0.742505 3.84191 0
M  V30 1530 H 134.988 -2.33894 3.21527 0
M  V30 1531 N 135.985 -1.50799 -0.457987 0
M  V30 1532 C 137.215 -1.65977 -1.23025 0
M  V30 1533 C 137.623 -0.347918 -1.85974 0
M  V30 1534 O 136.966 0.68148 -1.70592 0
M  V30 1535 C 137.028 -2.70309 -2.3701 0
M  V30 1536 C 136.692 -4.135 -1.94594 0
M  V30 1537 C 137.689 -4.98949 -1.46101 0
M  V30 1538 C 135.374 -4.5949 -2.02915 0
M  V30 1539 C 137.368 -6.28442 -1.06489 0
M  V30 1540 C 135.055 -5.88984 -1.62914 0
M  V30 1541 C 136.053 -6.73286 -1.1478 0
M  V30 1542 O 135.741 -8.00362 -0.75339 0
M  V30 1543 H 135.473 -0.56064 -0.377702 0
M  V30 1544 H 138.027 -1.97857 -0.551537 0
M  V30 1545 H 136.257 -2.337 -3.08093 0
M  V30 1546 H 137.946 -2.74574 -2.98938 0
M  V30 1547 H 138.712 -4.6463 -1.39084 0
M  V30 1548 H 134.591 -3.94009 -2.39328 0
M  V30 1549 H 138.135 -6.94194 -0.688488 0
M  V30 1550 H 134.032 -6.22822 -1.69595 0
M  V30 1551 H 134.8 -8.13744 -0.88108 0
M  V30 1552 N 137.463 0.71206 -1.40597 0
M  V30 1553 C 138.703 1.48438 -1.40519 0
M  V30 1554 C 139.067 1.91998 -0.00767611 0
M  V30 1555 O 140.268 2.6854 0.118239 0
M  V30 1556 C 138.539 2.67514 -2.37004 0
M  V30 1557 S 140.098 3.56875 -2.55315 0
M  V30 1558 H 136.916 0.507457 -0.498005 0
M  V30 1559 H 139.518 0.832355 -1.76896 0
M  V30 1560 H 138.222 2.33689 -3.37368 0
M  V30 1561 H 137.753 3.37625 -2.01923 0
M  V30 1562 H 139.768 4.62081 -1.8082 0
M  V30 1563 N 138.941 1.26152 0.944643 0
M  V30 1564 C 139.873 1.03199 2.04652 0
M  V30 1565 C 140.886 -0.00642356 1.62799 0
M  V30 1566 O 142.075 0.233263 1.76969 0
M  V30 1567 C 139.175 0.540111 3.34568 0
M  V30 1568 C 138.348 1.64697 4.05208 0
M  V30 1569 C 137.407 1.15374 5.13396 0
M  V30 1570 O 136.433 1.85013 5.38293 0
M  V30 1571 N 137.635 0.00031529 5.805 0
M  V30 1572 H 140.4 1.9808 2.2491 0
M  V30 1573 H 137.961 1.17491 1.11389 0
M  V30 1574 H 139.953 0.194401 4.04233 0
M  V30 1575 H 138.523 -0.315021 3.11009 0
M  V30 1576 H 137.743 2.16379 3.29506 0
M  V30 1577 H 139.031 2.3903 4.49157 0
M  V30 1578 H 138.429 -0.581336 5.62705 0
M  V30 1579 H 136.986 -0.286346 6.51171 0
M  V30 1580 N 140.419 -1.14872 1.07899 0
M  V30 1581 C 141.665 -1.86064 0.806725 0
M  V30 1582 C 141.998 -1.82434 -0.665706 0
M  V30 1583 O 141.273 -1.25138 -1.48899 0
M  V30 1584 C 141.556 -3.34929 1.32267 0
M  V30 1585 C 141.409 -3.47161 2.86006 0
M  V30 1586 C 142.728 -4.29863 0.943717 0
M  V30 1587 H 139.847 -0.675591 0.294526 0
M  V30 1588 H 142.489 -1.34925 1.33773 0
M  V30 1589 H 140.639 -3.78611 0.870974 0
M  V30 1590 H 142.311 -3.12302 3.39507 0
M  V30 1591 H 140.554 -2.88539 3.23925 0
M  V30 1592 H 141.225 -4.51777 3.17177 0
M  V30 1593 H 143.701 -3.9417 1.33302 0
M  V30 1594 H 142.577 -5.32494 1.33198 0
M  V30 1595 H 142.838 -4.41846 -0.149796 0
M  V30 1596 N 141.898 -0.863906 -1.31812 0
M  V30 1597 C 143.123 -0.48527 -2.01643 0
M  V30 1598 C 143.548 0.913058 -1.64453 0
M  V30 1599 O 142.906 1.6014 -0.849985 0
M  V30 1600 C 142.954 -0.642625 -3.54828 0
M  V30 1601 O 142.058 0.320659 -4.11151 0
M  V30 1602 H 141.399 -0.193793 -0.635091 0
M  V30 1603 H 143.929 -1.16565 -1.68148 0
M  V30 1604 H 143.939 -0.533628 -4.04495 0
M  V30 1605 H 142.614 -1.66227 -3.81237 0
M  V30 1606 H 141.191 0.167126 -3.72525 0
M  V30 1607 N 143.376 1.44774 -0.622745 0
M  V30 1608 C 144.624 2.01721 -0.123655 0
M  V30 1609 C 144.945 1.49172 1.25589 0
M  V30 1610 O 144.215 0.691974 1.83272 0
M  V30 1611 H 142.795 0.745777 -0.0427225 0
M  V30 1612 H 145.457 1.77382 -0.807559 0
M  V30 1613 H 144.553 3.11984 -0.0849534 0
M  V30 1614 N 144.854 0.36279 1.53368 0
M  V30 1615 C 146.079 -0.231226 2.06107 0
M  V30 1616 C 146.504 -1.419 1.23474 0
M  V30 1617 O 145.862 -1.79524 0.253128 0
M  V30 1618 C 145.91 -0.605523 3.5548 0
M  V30 1619 O 145.014 -1.70312 3.7559 0
M  V30 1620 H 144.355 -0.034327 0.663112 0
M  V30 1621 H 146.885 0.522584 1.97814 0
M  V30 1622 H 146.895 -0.877314 3.98456 0
M  V30 1623 H 145.57 0.263004 4.15068 0
M  V30 1624 H 144.147 -1.4271 3.44512 0
M  V30 1625 N 146.332 -1.57332 0.0918853 0
M  V30 1626 C 147.279 -2.13847 -0.868211 0
M  V30 1627 C 148.249 -1.05618 -1.28196 0
M  V30 1628 O 149.434 -1.33387 -1.36427 0
M  V30 1629 C 146.574 -2.72062 -2.12312 0
M  V30 1630 C 145.687 -3.94514 -1.7602 0
M  V30 1631 C 144.822 -4.40903 -2.96273 0
M  V30 1632 C 143.861 -5.55953 -2.56092 0
M  V30 1633 N 142.998 -5.97209 -3.69169 0
M  V30 1634 H 147.838 -2.95575 -0.379406 0
M  V30 1635 H 145.375 -1.46048 -0.175606 0
M  V30 1636 H 147.333 -3.03931 -2.858 0
M  V30 1637 H 145.963 -1.93068 -2.58698 0
M  V30 1638 H 145.015 -3.68979 -0.925135 0
M  V30 1639 H 146.327 -4.7802 -1.42472 0
M  V30 1640 H 145.481 -4.74539 -3.78018 0
M  V30 1641 H 144.22 -3.56291 -3.33029 0
M  V30 1642 H 143.225 -5.21948 -1.72773 0
M  V30 1643 H 144.45 -6.42311 -2.20484 0
M  V30 1644 H 142.396 -5.15543 -4.05649 0
M  V30 1645 H 142.313 -6.75504 -3.39456 0
M  V30 1646 H 143.581 -6.35475 -4.51434 0
M  V30 1647 N 147.81 0.181792 -1.56548 0
M  V30 1648 C 148.74 1.22765 -1.98623 0
M  V30 1649 C 149.721 1.46747 -0.860189 0
M  V30 1650 O 150.906 1.58259 -1.12551 0
M  V30 1651 C 148.036 2.56894 -2.33715 0
M  V30 1652 C 146.99 2.475 -3.49182 0
M  V30 1653 C 146.316 3.86023 -3.69986 0
M  V30 1654 C 147.616 1.98866 -4.82959 0
M  V30 1655 H 149.31 0.877942 -2.86239 0
M  V30 1656 H 146.856 0.42088 -1.37712 0
M  V30 1657 H 148.809 3.30253 -2.61746 0
M  V30 1658 H 147.533 2.93632 -1.42997 0
M  V30 1659 H 146.192 1.76596 -3.21262 0
M  V30 1660 H 145.84 4.20136 -2.76576 0
M  V30 1661 H 145.54 3.80609 -4.47672 0
M  V30 1662 H 147.064 4.60984 -4.00407 0
M  V30 1663 H 148.478 2.61992 -5.09934 0
M  V30 1664 H 146.875 2.04424 -5.64208 0
M  V30 1665 H 147.945 0.942465 -4.75653 0
M  V30 1666 N 149.288 1.51039 0.449983 0
M  V30 1667 C 150.704 1.38934 0.785462 0
M  V30 1668 C 150.904 0.461817 1.96136 0
M  V30 1669 O 149.96 -0.0877389 2.52348 0
M  V30 1670 C 151.273 2.80724 1.0777 0
M  V30 1671 C 152.821 2.89787 1.1829 0
M  V30 1672 C 153.296 4.32457 1.50815 0
M  V30 1673 N 154.787 4.35505 1.57764 0
M  V30 1674 C 155.522 5.42914 1.84477 0
M  V30 1675 N 155.018 6.60502 2.09068 0
M  V30 1676 N 156.811 5.3038 1.86155 0
M  V30 1677 H 148.962 2.09904 -0.324647 0
M  V30 1678 H 151.225 0.944378 -0.0827957 0
M  V30 1679 H 150.931 3.50531 0.286498 0
M  V30 1680 H 150.805 3.19273 2.00859 0
M  V30 1681 H 153.192 2.20186 1.96474 0
M  V30 1682 H 153.273 2.54752 0.231314 0
M  V30 1683 H 152.917 5.02603 0.731622 0
M  V30 1684 H 152.847 4.64995 2.47158 0
M  V30 1685 H 155.338 3.50724 1.40715 0
M  V30 1686 H 155.651 7.38158 2.28785 0
M  V30 1687 H 153.996 6.63639 2.06416 0
M  V30 1688 H 157.187 4.37505 1.66454 0
M  V30 1689 H 157.36 6.1417 2.06637 0
M  V30 1690 N 150.766 -0.704594 1.40972 0
M  V30 1691 C 152.043 -1.45847 1.30338 0
M  V30 1692 C 152.423 -2.10973 -0.0732344 0
M  V30 1693 O 151.771 -2.00997 -1.08685 0
M  V30 1694 C 151.981 -2.48525 2.45023 0
M  V30 1695 C 153.329 -3.1404 2.8577 0
M  V30 1696 O 154.353 -2.58848 2.44696 0
M  V30 1697 O 153.212 -4.13981 3.56766 0
M  V30 1698 H 150.306 -0.649092 0.512454 0
M  V30 1699 H 152.852 -0.735836 1.52917 0
M  V30 1700 H 151.624 -1.98994 3.36923 0
M  V30 1701 H 151.247 -3.2831 2.24272 0
M  V30 1702 N 152.244 -1.26651 -0.937939 0
M  V30 1703 C 153.521 -1.0313 -1.66204 0
M  V30 1704 C 153.901 0.437256 -2.06522 0
M  V30 1705 O 153.249 1.41831 -1.79154 0
M  V30 1706 C 153.459 -1.98314 -2.87181 0
M  V30 1707 C 154.807 -2.27107 -3.58758 0
M  V30 1708 O 155.831 -1.96205 -2.97291 0
M  V30 1709 O 154.69 -2.79736 -4.69479 0
M  V30 1710 H 151.784 -0.392384 -0.727986 0
M  V30 1711 H 154.33 -1.37874 -0.989382 0
M  V30 1712 H 153.102 -2.97399 -2.54302 0
M  V30 1713 H 152.725 -1.64068 -3.6217 0
M  V30 1714 N 153.722 1.14298 -1.08507 0
M  V30 1715 C 154.95 1.89219 -0.836876 0
M  V30 1716 C 155.365 1.78638 0.611054 0
M  V30 1717 O 154.722 1.14643 1.41998 0
M  V30 1718 C 154.773 3.39158 -1.25116 0
M  V30 1719 O 154.494 3.49449 -2.64229 0
M  V30 1720 C 155.995 4.31073 -1.03398 0
M  V30 1721 H 153.215 0.599328 -0.301739 0
M  V30 1722 H 155.759 1.44746 -1.44461 0
M  V30 1723 H 153.914 3.81251 -0.687514 0
M  V30 1724 H 154.328 4.42589 -2.81452 0
M  V30 1725 H 155.802 5.34646 -1.37323 0
M  V30 1726 H 156.279 4.3919 0.0289259 0
M  V30 1727 H 156.885 3.94738 -1.58311 0
M  V30 1728 N 155.201 0.870884 1.31352 0
M  V30 1729 C 156.151 0.298889 2.26032 0
M  V30 1730 C 157.135 -0.564595 1.50669 0
M  V30 1731 O 158.327 -0.411323 1.72154 0
M  V30 1732 C 155.456 -0.497842 3.39671 0
M  V30 1733 C 154.542 0.378937 4.22404 0
M  V30 1734 N 154.933 1.47284 4.83881 0
M  V30 1735 C 153.231 0.171535 4.4567 0
M  V30 1736 C 153.932 2.01359 5.45738 0
M  V30 1737 N 152.908 1.31047 5.27568 0
M  V30 1738 H 156.71 1.13494 2.71102 0
M  V30 1739 H 154.224 0.718745 1.45629 0
M  V30 1740 H 156.221 -0.924155 4.06528 0
M  V30 1741 H 154.881 -1.33149 2.96144 0
M  V30 1742 H 155.892 1.85575 4.8351 0
M  V30 1743 H 152.569 -0.626091 4.12779 0
M  V30 1744 H 153.959 2.93143 6.0458 0
M  V30 1745 N 156.679 -1.44442 0.630414 0
M  V30 1746 C 157.611 -2.2892 -0.113347 0
M  V30 1747 C 158.624 -1.41243 -0.80959 0
M  V30 1748 O 159.813 -1.65402 -0.671156 0
M  V30 1749 C 156.913 -3.17594 -1.18266 0
M  V30 1750 C 156.086 -4.33682 -0.569073 0
M  V30 1751 C 155.145 -5.03397 -1.53226 0
M  V30 1752 O 154.171 -5.59438 -1.04967 0
M  V30 1753 N 155.373 -5.04783 -2.86661 0
M  V30 1754 H 158.138 -2.93392 0.611636 0
M  V30 1755 H 155.699 -1.54881 0.471523 0
M  V30 1756 H 157.691 -3.61097 -1.82732 0
M  V30 1757 H 156.261 -2.54876 -1.80988 0
M  V30 1758 H 155.481 -3.9338 0.254187 0
M  V30 1759 H 156.769 -5.08608 -0.139767 0
M  V30 1760 H 156.167 -4.60584 -3.28449 0
M  V30 1761 H 154.724 -5.52077 -3.46489 0
M  V30 1762 N 158.157 -0.370918 -1.53173 0
M  V30 1763 C 159.107 0.489588 -2.22681 0
M  V30 1764 C 160.091 1.04442 -1.22395 0
M  V30 1765 O 161.283 0.973578 -1.47819 0
M  V30 1766 C 158.412 1.626 -3.02351 0
M  V30 1767 C 157.498 1.08379 -4.10018 0
M  V30 1768 N 157.889 0.265004 -5.05105 0
M  V30 1769 C 156.187 1.35809 -4.2482 0
M  V30 1770 C 156.888 -0.0324755 -5.81691 0
M  V30 1771 N 155.864 0.566581 -5.40639 0
M  V30 1772 H 159.666 -0.142729 -2.93553 0
M  V30 1773 H 157.18 -0.179221 -1.61408 0
M  V30 1774 H 159.177 2.2547 -3.50669 0
M  V30 1775 H 157.837 2.26132 -2.33011 0
M  V30 1776 H 158.848 -0.0962352 -5.17811 0
M  V30 1777 H 155.525 1.9958 -3.66707 0
M  V30 1778 H 156.915 -0.69473 -6.68299 0
M  V30 1779 N 159.635 1.57281 -0.100228 0
M  V30 1780 C 160.567 2.11342 0.886972 0
M  V30 1781 C 161.58 1.05182 1.24261 0
M  V30 1782 O 162.769 1.32613 1.19483 0
M  V30 1783 C 159.869 2.5825 2.19454 0
M  V30 1784 C 159.042 3.88302 2.01346 0
M  V30 1785 C 158.101 4.21004 3.15661 0
M  V30 1786 O 157.127 4.9014 2.89398 0
M  V30 1787 N 158.329 3.76818 4.41575 0
M  V30 1788 H 161.094 2.96668 0.425216 0
M  V30 1789 H 158.655 1.61678 0.0847334 0
M  V30 1790 H 160.647 2.7717 2.94888 0
M  V30 1791 H 159.217 1.77907 2.57037 0
M  V30 1792 H 158.437 3.7848 1.10212 0
M  V30 1793 H 159.725 4.73375 1.8653 0
M  V30 1794 H 159.123 3.2102 4.65792 0
M  V30 1795 H 157.68 4.00882 5.13942 0
M  V30 1796 N 161.113 -0.173488 1.56642 0
M  V30 1797 C 162.023 -1.23482 1.99473 0
M  V30 1798 C 163.039 -1.48567 0.905752 0
M  V30 1799 O 164.215 -1.60758 1.21321 0
M  V30 1800 C 161.28 -2.55444 2.34413 0
M  V30 1801 C 160.341 -2.38241 3.57127 0
M  V30 1802 C 159.574 -3.63909 3.90392 0
M  V30 1803 O 159.797 -4.68996 3.24653 0
M  V30 1804 O 158.731 -3.58149 4.83749 0
M  V30 1805 H 162.557 -0.901279 2.90018 0
M  V30 1806 H 160.142 -0.380185 1.44482 0
M  V30 1807 H 162.024 -3.33292 2.57865 0
M  V30 1808 H 160.699 -2.88382 1.4703 0
M  V30 1809 H 159.606 -1.58431 3.38896 0
M  V30 1810 H 160.939 -2.10228 4.45045 0
M  V30 1811 N 162.591 -1.51276 -0.441967 0
M  V30 1812 C 163.501 -1.75092 -1.56141 0
M  V30 1813 C 164.517 -0.634963 -1.62001 0
M  V30 1814 O 165.693 -0.916686 -1.79329 0
M  V30 1815 C 162.758 -1.86666 -2.92158 0
M  V30 1816 C 161.819 -3.10506 -2.96453 0
M  V30 1817 C 161.052 -3.21519 -4.25982 0
M  V30 1818 O 161.275 -2.38586 -5.18105 0
M  V30 1819 O 160.209 -4.14465 -4.36466 0
M  V30 1820 H 164.035 -2.70044 -1.38961 0
M  V30 1821 H 161.62 -1.35722 -0.624499 0
M  V30 1822 H 163.502 -1.96292 -3.72891 0
M  V30 1823 H 162.177 -0.949014 -3.09476 0
M  V30 1824 H 161.084 -3.06363 -2.14692 0
M  V30 1825 H 162.417 -4.01945 -2.84079 0
M  V30 1826 N 164.069 0.697108 -1.41344 0
M  V30 1827 C 165.001 1.8224 -1.39001 0
M  V30 1828 C 166.014 1.60152 -0.292428 0
M  V30 1829 O 167.203 1.69684 -0.554048 0
M  V30 1830 C 164.303 3.18976 -1.14489 0
M  V30 1831 C 163.476 3.68105 -2.36258 0
M  V30 1832 C 162.535 4.83506 -2.07625 0
M  V30 1833 O 161.561 4.95201 -2.8065 0
M  V30 1834 N 162.763 5.70637 -1.06555 0
M  V30 1835 H 165.528 1.84742 -2.35988 0
M  V30 1836 H 163.089 0.87937 -1.35936 0
M  V30 1837 H 165.081 3.93801 -0.932885 0
M  V30 1838 H 163.651 3.11508 -0.261043 0
M  V30 1839 H 162.871 2.84204 -2.7317 0
M  V30 1840 H 164.159 3.97667 -3.17393 0
M  V30 1841 H 163.557 5.63817 -0.461125 0
M  V30 1842 H 162.114 6.45368 -0.913444 0
M  V30 1843 N 165.547 1.27147 0.931209 0
M  V30 1844 C 166.457 1.11372 2.06478 0
M  V30 1845 C 167.473 0.044645 1.73943 0
M  V30 1846 O 168.649 0.250417 1.99837 0
M  V30 1847 C 165.714 0.758838 3.38294 0
M  V30 1848 C 164.775 1.90841 3.84549 0
M  V30 1849 C 164.008 1.57036 5.10074 0
M  V30 1850 O 164.231 0.476645 5.68405 0
M  V30 1851 O 163.165 2.40839 5.51616 0
M  V30 1852 H 166.991 2.06493 2.22698 0
M  V30 1853 H 164.576 1.06301 1.04978 0
M  V30 1854 H 166.458 0.574098 4.17471 0
M  V30 1855 H 165.133 -0.162879 3.2329 0
M  V30 1856 H 164.04 2.14819 3.06274 0
M  V30 1857 H 165.373 2.81021 4.04089 0
M  V30 1858 N 167.025 -1.13721 1.09112 0
M  V30 1859 C 167.935 -2.22638 0.73957 0
M  V30 1860 C 168.951 -1.72091 -0.257068 0
M  V30 1861 O 170.127 -2.01155 -0.0992154 0
M  V30 1862 C 167.192 -3.46322 0.16191 0
M  V30 1863 C 166.253 -4.11775 1.21408 0
M  V30 1864 C 165.486 -5.29555 0.663891 0
M  V30 1865 O 165.709 -5.68077 -0.514274 0
M  V30 1866 O 164.643 -5.84973 1.41738 0
M  V30 1867 H 168.469 -2.55074 1.64836 0
M  V30 1868 H 166.054 -1.21791 0.865289 0
M  V30 1869 H 167.936 -4.21107 -0.157073 0
M  V30 1870 H 166.611 -3.15593 -0.719932 0
M  V30 1871 H 165.518 -3.3883 1.58571 0
M  V30 1872 H 166.851 -4.46627 2.06845 0
M  V30 1873 N 168.503 -0.877838 -1.30888 0
M  V30 1874 C 169.731 -0.507414 -2.00581 0
M  V30 1875 C 170.146 0.902216 -1.65848 0
M  V30 1876 O 169.503 1.59225 -0.891831 0
M  V30 1877 C 169.554 -0.664162 -3.55347 0
M  V30 1878 O 169.275 -2.01829 -3.8884 0
M  V30 1879 C 170.776 -0.295787 -4.42312 0
M  V30 1880 H 167.996 -0.196866 -0.641471 0
M  V30 1881 H 170.54 -1.18117 -1.66939 0
M  V30 1882 H 168.695 -0.0378619 -3.87381 0
M  V30 1883 H 169.109 -2.03174 -4.8355 0
M  V30 1884 H 170.583 -0.456388 -5.5011 0
M  V30 1885 H 171.06 0.765663 -4.32475 0
M  V30 1886 H 171.666 -0.898113 -4.15709 0
M  V30 1887 N 169.982 1.44106 -0.638065 0
M  V30 1888 C 170.892 2.34513 0.0637334 0
M  V30 1889 C 171.908 1.53018 0.828346 0
M  V30 1890 O 173.084 1.85723 0.779036 0
M  V30 1891 C 170.149 3.31095 1.02844 0
M  V30 1892 C 169.21 4.28497 0.26244 0
M  V30 1893 C 168.443 5.20465 1.1812 0
M  V30 1894 O 168.666 5.16514 2.42011 0
M  V30 1895 O 167.6 5.98251 0.661774 0
M  V30 1896 H 171.426 2.95989 -0.68003 0
M  V30 1897 H 169.011 1.43994 -0.398252 0
M  V30 1898 H 170.893 3.90526 1.58327 0
M  V30 1899 H 169.568 2.72144 1.7527 0
M  V30 1900 H 168.475 3.72592 -0.335602 0
M  V30 1901 H 169.808 4.90388 -0.421936 0
M  V30 1902 N 171.46 0.379036 1.52974 0
M  V30 1903 C 172.407 -0.461048 2.26148 0
M  V30 1904 C 173.377 -1.06637 1.27349 0
M  V30 1905 O 174.562 -1.09633 1.56157 0
M  V30 1906 C 171.702 -1.58782 3.06402 0
M  V30 1907 C 170.815 -1.00636 4.20115 0
M  V30 1908 C 169.95 -2.10334 4.87784 0
M  V30 1909 C 168.989 -1.49724 5.93506 0
M  V30 1910 N 168.126 -2.5331 6.54812 0
M  V30 1911 H 172.966 0.169429 2.97518 0
M  V30 1912 H 170.503 0.0953806 1.4679 0
M  V30 1913 H 172.461 -2.25174 3.51215 0
M  V30 1914 H 171.091 -2.18876 2.37261 0
M  V30 1915 H 170.143 -0.232332 3.7969 0
M  V30 1916 H 171.455 -0.523343 4.96047 0
M  V30 1917 H 170.609 -2.84519 5.35849 0
M  V30 1918 H 169.348 -2.61992 4.11353 0
M  V30 1919 H 168.353 -0.740598 5.44789 0
M  V30 1920 H 169.578 -0.988732 6.71864 0
M  V30 1921 H 167.524 -3.04156 5.81227 0
M  V30 1922 H 167.441 -2.09734 7.26325 0
M  V30 1923 H 168.709 -3.27155 7.07524 0
M  V30 1924 N 172.938 -1.57226 0.108567 0
M  V30 1925 C 173.848 -2.18292 -0.859401 0
M  V30 1926 C 174.864 -1.15612 -1.30038 0
M  V30 1927 O 176.04 -1.48039 -1.36552 0
M  V30 1928 C 173.105 -2.762 -2.09558 0
M  V30 1929 C 172.166 -3.93881 -1.70752 0
M  V30 1930 C 171.399 -4.49018 -2.88477 0
M  V30 1931 O 171.622 -4.03068 -4.036 0
M  V30 1932 O 170.556 -5.39852 -2.66164 0
M  V30 1933 H 174.382 -3.01441 -0.369769 0
M  V30 1934 H 171.967 -1.48945 -0.1165 0
M  V30 1935 H 173.849 -3.13156 -2.81978 0
M  V30 1936 H 172.524 -1.96089 -2.57548 0
M  V30 1937 H 171.431 -3.61713 -0.954714 0
M  V30 1938 H 172.764 -4.75396 -1.27513 0
M  V30 1939 N 174.416 0.165178 -1.56732 0
M  V30 1940 C 175.326 1.22423 -2.00125 0
M  V30 1941 C 176.342 1.48084 -0.913619 0
M  V30 1942 O 177.518 1.60112 -1.22172 0
M  V30 1943 C 174.583 2.54197 -2.35764 0
M  V30 1944 C 173.644 2.36343 -3.58386 0
M  V30 1945 C 172.877 3.61834 -3.92316 0
M  V30 1946 O 173.1 4.67267 -3.27135 0
M  V30 1947 O 172.034 3.55579 -4.85641 0
M  V30 1948 H 175.86 0.885886 -2.90492 0
M  V30 1949 H 173.445 0.372518 -1.44681 0
M  V30 1950 H 175.327 3.3192 -2.59629 0
M  V30 1951 H 174.002 2.87598 -1.48557 0
M  V30 1952 H 172.909 1.56632 -3.39731 0
M  V30 1953 H 174.242 2.07865 -4.46154 0
M  V30 1954 N 175.894 1.51508 0.433938 0
M  V30 1955 C 176.842 1.73646 1.54757 0
M  V30 1956 C 177.836 0.602854 1.5831 0
M  V30 1957 O 179.042 0.784318 1.62014 0
M  V30 1958 H 175.417 0.548718 0.51421 0
M  V30 1959 H 177.388 2.66991 1.33261 0
M  V30 1960 C 176.137 1.88172 2.92381 0
M  V30 1961 H 175.46 2.74808 2.90381 0
M  V30 1962 H 176.9 2.07672 3.6966 0
M  V30 1963 C 175.359 0.64239 3.30719 0
M  V30 1964 O 175.889 -0.201362 4.01195 0
M  V30 1965 N 174.095 0.485489 2.86516 0
M  V30 1966 H 173.642 1.17318 2.29334 0
M  V30 1967 H 173.6 -0.342482 3.12529 0
M  V30 1968 N 177.372 -0.689602 1.41712 0
M  V30 1969 C 178.319 -1.80345 1.44029 0
M  V30 1970 C 179.289 -1.63478 0.293948 0
M  V30 1971 O 180.474 -1.84244 0.495869 0
M  V30 1972 C 177.614 -3.18272 1.33405 0
M  V30 1973 C 176.727 -3.46529 2.57956 0
M  V30 1974 C 175.862 -4.74103 2.39582 0
M  V30 1975 C 174.901 -4.95347 3.5958 0
M  V30 1976 N 174.038 -6.14151 3.40239 0
M  V30 1977 H 178.878 -1.77698 2.39222 0
M  V30 1978 H 176.415 -0.867688 1.18784 0
M  V30 1979 H 178.373 -3.97956 1.25246 0
M  V30 1980 H 177.003 -3.2008 0.418164 0
M  V30 1981 H 176.055 -2.61207 2.76542 0
M  V30 1982 H 177.367 -3.58126 3.47199 0
M  V30 1983 H 176.521 -5.61853 2.28924 0
M  V30 1984 H 175.26 -4.64763 1.47805 0
M  V30 1985 H 174.265 -4.06044 3.70686 0
M  V30 1986 H 175.49 -5.06542 4.52318 0
M  V30 1987 H 173.436 -6.06013 2.51167 0
M  V30 1988 H 173.353 -6.26543 4.23061 0
M  V30 1989 H 174.621 -7.04619 3.33365 0
M  V30 1990 N 178.85 -1.27639 -0.924453 0
M  V30 1991 C 180.266 -1.05113 -1.20097 0
M  V30 1992 C 180.466 0.213262 -2.00368 0
M  V30 1993 O 179.522 0.91787 -2.35226 0
M  V30 1994 C 180.835 -2.29244 -1.94596 0
M  V30 1995 C 182.383 -2.34315 -2.07522 0
M  V30 1996 C 182.858 -3.58183 -2.85427 0
M  V30 1997 N 184.349 -3.5876 -2.92994 0
M  V30 1998 C 185.084 -4.51277 -3.53746 0
M  V30 1999 N 184.58 -5.54102 -4.15863 0
M  V30 2000 N 186.373 -4.38894 -3.51181 0
M  V30 2001 H 178.524 -2.08821 -0.388264 0
M  V30 2002 H 180.787 -0.918568 -0.234385 0
M  V30 2003 H 180.493 -3.21301 -1.43034 0
M  V30 2004 H 180.367 -2.34816 -2.95197 0
M  V30 2005 H 182.754 -1.42762 -2.58269 0
M  V30 2006 H 182.835 -2.32744 -1.06131 0
M  V30 2007 H 182.479 -4.50074 -2.35363 0
M  V30 2008 H 182.409 -3.57006 -3.8711 0
M  V30 2009 H 184.9 -2.84398 -2.4885 0
M  V30 2010 H 185.213 -6.20859 -4.60168 0
M  V30 2011 H 183.558 -5.57941 -4.144 0
M  V30 2012 H 186.749 -3.57772 -3.01856 0
M  V30 2013 H 186.922 -5.11186 -3.98237 0
M  V30 2014 N 180.328 1.1314 -1.09713 0
M  V30 2015 C 181.26 2.18343 -0.697056 0
M  V30 2016 C 182.273 1.60669 0.262551 0
M  V30 2017 O 183.462 1.78435 0.0481527 0
M  V30 2018 C 180.562 3.38899 -0.00684728 0
M  V30 2019 C 179.735 4.26078 -0.988741 0
M  V30 2020 C 178.794 5.25155 -0.331394 0
M  V30 2021 O 177.82 5.60701 -0.979926 0
M  V30 2022 N 179.022 5.73271 0.913261 0
M  V30 2023 H 181.787 2.5328 -1.60216 0
M  V30 2024 H 179.348 1.28491 -0.984971 0
M  V30 2025 H 181.34 4.02255 0.444191 0
M  V30 2026 H 179.91 3.02175 0.800551 0
M  V30 2027 H 179.13 3.59453 -1.61826 0
M  V30 2028 H 180.418 4.81178 -1.65364 0
M  V30 2029 H 179.816 5.46544 1.45966 0
M  V30 2030 H 178.373 6.3855 1.30757 0
M  V30 2031 N 181.806 0.884767 1.30421 0
M  V30 2032 C 182.716 0.355398 2.31892 0
M  V30 2033 C 183.732 -0.542261 1.65335 0
M  V30 2034 O 184.908 -0.435432 1.96637 0
M  V30 2035 C 181.973 -0.421661 3.44126 0
M  V30 2036 C 181.034 0.505727 4.26311 0
M  V30 2037 C 180.267 -0.234343 5.33185 0
M  V30 2038 O 180.49 -1.46045 5.51386 0
M  V30 2039 O 179.424 0.415443 6.00465 0
M  V30 2040 H 183.25 1.19685 2.79122 0
M  V30 2041 H 180.835 0.648596 1.34587 0
M  V30 2042 H 182.717 -0.861641 4.12497 0
M  V30 2043 H 181.392 -1.23942 2.99032 0
M  V30 2044 H 180.299 0.994513 3.60639 0
M  V30 2045 H 181.632 1.28948 4.75009 0
M  V30 2046 N 183.284 -1.43765 0.645699 0
M  V30 2047 C 184.509 -2.06767 0.161883 0
M  V30 2048 C 184.934 -1.48034 -1.16049 0
M  V30 2049 O 184.292 -0.587369 -1.71522 0
M  V30 2050 C 184.34 -3.60519 0.0762003 0
M  V30 2051 O 183.444 -4.00982 -0.963721 0
M  V30 2052 H 182.785 -0.657675 0.091429 0
M  V30 2053 H 185.315 -1.84397 0.886499 0
M  V30 2054 H 185.325 -4.07853 -0.109604 0
M  V30 2055 H 184 -4.02646 1.04157 0
M  V30 2056 H 182.577 -3.65253 -0.751312 0
M  V30 2057 N 184.763 -0.387143 -1.52771 0
M  V30 2058 C 185.988 0.198407 -2.06449 0
M  V30 2059 C 186.413 1.39918 -1.25716 0
M  V30 2060 O 185.771 1.79099 -0.281657 0
M  V30 2061 C 185.819 0.548893 -3.56398 0
M  V30 2062 O 184.923 1.64315 -3.78252 0
M  V30 2063 H 184.264 0.0237731 -0.663574 0
M  V30 2064 H 186.794 -0.553989 -1.96957 0
M  V30 2065 H 186.804 0.813812 -3.99801 0
M  V30 2066 H 185.479 -0.329005 -4.14597 0
M  V30 2067 H 184.056 1.37211 -3.46738 0
M  V30 2068 N 186.241 1.57166 -0.116904 0
M  V30 2069 C 187.488 1.95123 0.541603 0
M  V30 2070 C 187.816 1.00006 1.6682 0
M  V30 2071 O 187.071 0.0235658 1.95686 0
M  V30 2072 C 187.37 3.39508 1.11664 0
M  V30 2073 C 187.036 4.50762 0.111606 0
M  V30 2074 C 185.698 4.80918 -0.164758 0
M  V30 2075 C 188.05 5.18036 -0.573438 0
M  V30 2076 C 185.378 5.75666 -1.13249 0
M  V30 2077 C 187.73 6.13824 -1.52978 0
M  V30 2078 C 186.394 6.42374 -1.81415 0
M  V30 2079 H 185.664 0.714005 0.198187 0
M  V30 2080 H 188.311 1.9048 -0.197365 0
M  V30 2081 H 186.616 3.40835 1.93232 0
M  V30 2082 H 188.313 3.66189 1.63422 0
M  V30 2083 H 184.903 4.27272 0.337192 0
M  V30 2084 H 189.087 4.94896 -0.373092 0
M  V30 2085 H 184.343 5.96092 -1.35958 0
M  V30 2086 H 188.517 6.65039 -2.06629 0
M  V30 2087 H 186.144 7.15599 -2.56557 0
M  V30 2088 N 187.719 -0.156864 1.56817 0
M  V30 2089 C 188.944 -0.890331 1.87318 0
M  V30 2090 C 189.369 -1.74394 0.704855 0
M  V30 2091 O 188.727 -1.77972 -0.345786 0
M  V30 2092 C 188.775 -1.73102 3.16336 0
M  V30 2093 O 187.879 -2.83422 2.99576 0
M  V30 2094 H 187.22 -0.24857 0.615718 0
M  V30 2095 H 189.75 -0.150649 2.04045 0
M  V30 2096 H 189.76 -2.12803 3.48107 0
M  V30 2097 H 188.435 -1.10412 4.00976 0
M  V30 2098 H 187.012 -2.47199 2.7919 0
M  V30 2099 N 189.197 -1.51736 -0.425897 0
M  V30 2100 C 190.147 -1.70258 -1.51645 0
M  V30 2101 C 191.131 -0.556488 -1.5097 0
M  V30 2102 O 192.323 -0.812879 -1.5723 0
M  V30 2103 C 189.452 -1.84143 -2.89735 0
M  V30 2104 C 188.538 -3.04572 -2.95122 0
M  V30 2105 N 188.929 -4.2756 -2.70233 0
M  V30 2106 C 187.227 -3.04061 -3.26286 0
M  V30 2107 C 187.928 -5.08908 -2.81757 0
M  V30 2108 N 186.904 -4.43797 -3.13919 0
M  V30 2109 H 190.706 -2.63004 -1.31172 0
M  V30 2110 H 188.22 -1.4954 -0.633375 0
M  V30 2111 H 190.217 -1.95525 -3.68206 0
M  V30 2112 H 188.877 -0.925857 -3.1122 0
M  V30 2113 H 189.888 -4.56315 -2.44943 0
M  V30 2114 H 186.565 -2.22179 -3.53473 0
M  V30 2115 H 187.955 -6.16843 -2.66372 0
M  V30 2116 N 190.675 0.682077 -1.42076 0
M  V30 2117 C 191.9 1.47558 -1.45744 0
M  V30 2118 C 192.325 1.87977 -0.0680981 0
M  V30 2119 O 191.683 1.55522 0.9318 0
M  V30 2120 C 191.731 2.70575 -2.38373 0
M  V30 2121 O 190.835 3.68573 -1.85007 0
M  V30 2122 H 190.176 0.443585 -0.494093 0
M  V30 2123 H 192.706 0.837238 -1.86686 0
M  V30 2124 H 192.716 3.18729 -2.54707 0
M  V30 2125 H 191.391 2.40495 -3.39315 0
M  V30 2126 H 189.968 3.2757 -1.78192 0
M  V30 2127 N 192.153 1.28127 0.917671 0
M  V30 2128 C 193.378 1.18007 1.70555 0
M  V30 2129 C 193.803 -0.258257 1.86319 0
M  V30 2130 O 193.161 -1.1869 1.37049 0
M  V30 2131 C 193.209 1.87948 3.07746 0
M  V30 2132 O 192.313 1.18427 3.9503 0
M  V30 2133 H 191.654 0.409867 0.522403 0
M  V30 2134 H 194.184 1.69379 1.1477 0
M  V30 2135 H 194.194 1.95701 3.58001 0
M  V30 2136 H 192.869 2.92573 2.95591 0
M  V30 2137 H 191.446 1.18811 3.53466 0
M  V30 2138 N 193.631 -1.12557 1.10312 0
M  V30 2139 C 194.877 -1.84515 0.855901 0
M  V30 2140 C 195.232 -1.82409 -0.611936 0
M  V30 2141 O 194.525 -1.25778 -1.44535 0
M  V30 2142 C 194.719 -3.31462 1.33669 0
M  V30 2143 C 194.548 -3.47879 2.84974 0
M  V30 2144 C 193.318 -3.61589 3.52961 0
M  V30 2145 C 195.516 -3.43152 3.83081 0
M  V30 2146 N 193.498 -3.66359 4.926 0
M  V30 2147 C 194.869 -3.54401 5.08724 0
M  V30 2148 C 196.924 -3.2661 3.75807 0
M  V30 2149 C 195.627 -3.50815 6.2795 0
M  V30 2150 C 197.653 -3.24335 4.94531 0
M  V30 2151 C 197.015 -3.36144 6.19021 0
M  V30 2152 H 193.114 -0.690967 0.366182 0
M  V30 2153 H 195.698 -1.34763 1.40524 0
M  V30 2154 H 193.869 -3.7976 0.814686 0
M  V30 2155 H 195.601 -3.91272 1.03385 0
M  V30 2156 H 192.356 -3.63652 3.03404 0
M  V30 2157 H 192.78 -3.72411 5.65366 0
M  V30 2158 H 197.422 -3.16375 2.80476 0
M  V30 2159 H 195.14 -3.5982 7.23571 0
M  V30 2160 H 198.726 -3.12719 4.9061 0
M  V30 2161 H 197.606 -3.34357 7.09348 0
M  V30 2162 N 195.109 -0.891671 -1.2995 0
M  V30 2163 C 196.334 -0.527932 -2.00568 0
M  V30 2164 C 196.759 0.877969 -1.66353 0
M  V30 2165 O 196.117 1.58301 -0.883762 0
M  V30 2166 C 196.165 -0.717745 -3.53385 0
M  V30 2167 O 195.269 0.233376 -4.11739 0
M  V30 2168 H 194.61 -0.20722 -0.630837 0
M  V30 2169 H 197.14 -1.20105 -1.65638 0
M  V30 2170 H 197.15 -0.619307 -4.03272 0
M  V30 2171 H 195.825 -1.74276 -3.77625 0
M  V30 2172 H 194.402 0.0880706 -3.72796 0
M  V30 2173 N 196.587 1.43421 -0.653314 0
M  V30 2174 C 197.55 2.29182 0.0287951 0
M  V30 2175 C 198.55 1.42213 0.750465 0
M  V30 2176 O 199.74 1.63843 0.591701 0
M  V30 2177 C 196.872 3.24278 1.05151 0
M  V30 2178 H 198.065 2.90985 -0.725786 0
M  V30 2179 H 195.618 1.50702 -0.414545 0
M  V30 2180 H 196.353 2.6737 1.83532 0
M  V30 2181 H 196.138 3.88396 0.537687 0
M  V30 2182 H 197.628 3.88647 1.52786 0
M  V30 2183 N 198.065 0.39524 1.52563 0
M  V30 2184 C 199.313 -0.184678 2.01254 0
M  V30 2185 C 199.634 -1.46822 1.28329 0
M  V30 2186 O 198.904 -1.91666 0.405094 0
M  V30 2187 H 197.484 -0.0712355 0.743596 0
M  V30 2188 H 200.146 0.528293 1.87603 0
M  V30 2189 H 199.242 -0.390681 3.09645 0
M  V30 2190 N 199.544 -1.57102 0.125237 0
M  V30 2191 C 200.454 -2.19191 -0.8362 0
M  V30 2192 C 201.47 -1.16985 -1.28805 0
M  V30 2193 O 202.646 -1.49479 -1.34974 0
M  V30 2194 C 199.711 -2.78407 -2.06617 0
M  V30 2195 C 198.772 -3.9567 -1.66565 0
M  V30 2196 C 198.005 -4.52052 -2.83698 0
M  V30 2197 O 198.228 -4.07326 -3.99302 0
M  V30 2198 O 197.162 -5.42645 -2.60423 0
M  V30 2199 H 200.988 -3.01816 -0.337776 0
M  V30 2200 H 198.573 -1.4906 -0.100695 0
M  V30 2201 H 200.455 -3.16129 -2.7864 0
M  V30 2202 H 199.13 -1.9881 -2.55453 0
M  V30 2203 H 198.037 -3.62705 -0.916296 0
M  V30 2204 H 199.37 -4.76722 -1.22464 0
M  V30 2205 N 201.022 0.148545 -1.56898 0
M  V30 2206 C 201.97 1.20265 -1.99096 0
M  V30 2207 C 202.964 1.44559 -0.883123 0
M  V30 2208 O 204.17 1.4487 -1.0683 0
M  V30 2209 H 200.545 0.404786 -0.63376 0
M  V30 2210 H 202.516 0.82004 -2.86911 0
M  V30 2211 C 201.265 2.52886 -2.3863 0
M  V30 2212 H 200.588 2.35021 -3.23427 0
M  V30 2213 H 202.028 3.25274 -2.7198 0
M  V30 2214 C 200.487 3.13315 -1.23837 0
M  V30 2215 O 201.017 3.98077 -0.538268 0
M  V30 2216 N 199.223 2.72742 -1.00301 0
M  V30 2217 H 198.77 2.03912 -1.5741 0
M  V30 2218 H 198.728 3.13507 -0.236838 0
M  V30 2219 N 202.5 1.5196 0.417844 0
M  V30 2220 C 203.777 1.56146 1.17803 0
M  V30 2221 C 204.157 0.337275 2.08388 0
M  V30 2222 O 203.505 -0.676447 2.18258 0
M  V30 2223 C 203.715 2.88566 1.96293 0
M  V30 2224 C 205.063 3.41244 2.52662 0
M  V30 2225 O 206.087 2.90247 2.06483 0
M  V30 2226 O 204.946 4.30273 3.36938 0
M  V30 2227 H 202.04 0.628598 0.537395 0
M  V30 2228 H 204.586 1.64283 0.425331 0
M  V30 2229 H 203.358 3.69116 1.2988 0
M  V30 2230 H 202.981 2.83681 2.78587 0
M  V30 2231 N 203.978 -0.674533 1.42435 0
M  V30 2232 C 205.203 -1.46784 1.46524 0
M  V30 2233 C 205.628 -1.87938 0.078066 0
M  V30 2234 O 204.986 -1.56014 -0.92354 0
M  V30 2235 C 205.034 -2.69307 2.39805 0
M  V30 2236 O 204.138 -3.67587 1.86959 0
M  V30 2237 H 203.479 -0.440959 0.496439 0
M  V30 2238 H 206.009 -0.827326 1.87127 0
M  V30 2239 H 206.019 -3.17374 2.56393 0
M  V30 2240 H 204.694 -2.38692 3.40586 0
M  V30 2241 H 203.271 -3.2662 1.79927 0
M  V30 2242 N 205.456 -1.28612 -0.910864 0
M  V30 2243 C 206.686 -1.1862 -1.69153 0
M  V30 2244 C 207.094 0.257324 -1.87442 0
M  V30 2245 O 206.437 1.18543 -1.40332 0
M  V30 2246 C 206.499 -1.81606 -3.10257 0
M  V30 2247 C 206.163 -3.30864 -3.15243 0
M  V30 2248 C 207.16 -4.27256 -2.96223 0
M  V30 2249 C 204.845 -3.71871 -3.37664 0
M  V30 2250 C 206.839 -5.62631 -2.99541 0
M  V30 2251 C 204.526 -5.07371 -3.40614 0
M  V30 2252 C 205.524 -6.02561 -3.21573 0
M  V30 2253 O 205.212 -7.35589 -3.2429 0
M  V30 2254 H 204.944 -0.412633 -0.535453 0
M  V30 2255 H 207.498 -1.70306 -1.14827 0
M  V30 2256 H 205.728 -1.24418 -3.66138 0
M  V30 2257 H 207.417 -1.66092 -3.70362 0
M  V30 2258 H 208.183 -3.9691 -2.78725 0
M  V30 2259 H 204.062 -2.98241 -3.5153 0
M  V30 2260 H 207.606 -6.36907 -2.84597 0
M  V30 2261 H 203.503 -5.37366 -3.57642 0
M  V30 2262 H 204.271 -7.44252 -3.40633 0
M  V30 2263 N 206.934 1.1197 -1.10907 0
M  V30 2264 C 208.159 1.87942 -0.877064 0
M  V30 2265 C 208.584 1.79341 0.567314 0
M  V30 2266 O 207.942 1.15184 1.40009 0
M  V30 2267 C 207.99 3.34926 -1.33629 0
M  V30 2268 O 207.094 4.09303 -0.504447 0
M  V30 2269 H 206.435 0.583785 -0.316371 0
M  V30 2270 H 208.965 1.4157 -1.47712 0
M  V30 2271 H 208.975 3.8577 -1.32837 0
M  V30 2272 H 207.65 3.40504 -2.3881 0
M  V30 2273 H 206.227 3.68393 -0.577993 0
M  V30 2274 N 208.412 0.89855 1.29475 0
M  V30 2275 C 209.828 0.594483 1.48115 0
M  V30 2276 C 210.028 -0.86431 1.82022 0
M  V30 2277 O 209.084 -1.64457 1.91599 0
M  V30 2278 C 210.397 1.51932 2.59494 0
M  V30 2279 C 211.945 1.5244 2.7337 0
M  V30 2280 C 212.42 2.43548 3.87877 0
M  V30 2281 N 213.911 2.41589 3.95208 0
M  V30 2282 C 214.646 3.08789 4.83153 0
M  V30 2283 N 214.142 3.85265 5.75798 0
M  V30 2284 N 215.935 2.97952 4.76635 0
M  V30 2285 H 208.086 1.84207 1.05742 0
M  V30 2286 H 210.349 0.789251 0.525154 0
M  V30 2287 H 210.055 2.55865 2.41301 0
M  V30 2288 H 209.929 1.23899 3.56271 0
M  V30 2289 H 212.316 0.492518 2.90961 0
M  V30 2290 H 212.397 1.8451 1.77172 0
M  V30 2291 H 212.041 3.46829 3.71041 0
M  V30 2292 H 211.971 2.08788 4.83441 0
M  V30 2293 H 214.462 1.86025 3.28943 0
M  V30 2294 H 214.775 4.33598 6.39697 0
M  V30 2295 H 213.12 3.89371 5.75687 0
M  V30 2296 H 216.311 2.37723 4.03244 0
M  V30 2297 H 216.484 3.50599 5.44962 0
M  V30 2298 N 209.89 -1.43072 0.660911 0
M  V30 2299 C 210.838 -2.32569 -0.0378199 0
M  V30 2300 C 211.832 -1.49046 -0.805092 0
M  V30 2301 O 213.038 -1.65206 -0.714624 0
M  V30 2302 H 209.413 -0.75136 -0.031019 0
M  V30 2303 H 211.384 -2.89216 0.734609 0
M  V30 2304 C 210.133 -3.33453 -0.985124 0
M  V30 2305 H 209.456 -3.97752 -0.404147 0
M  V30 2306 H 210.896 -3.98691 -1.44297 0
M  V30 2307 C 209.355 -2.64642 -2.08486 0
M  V30 2308 O 209.885 -2.46776 -3.16961 0
M  V30 2309 N 208.091 -2.23891 -1.8526 0
M  V30 2310 H 207.638 -2.38621 -0.970449 0
M  V30 2311 H 207.596 -1.78181 -2.59034 0
M  V30 2312 N 211.368 -0.403325 -1.52352 0
M  V30 2313 C 212.614 0.174605 -2.02047 0
M  V30 2314 C 212.947 1.45282 -1.28867 0
M  V30 2315 O 212.222 1.90483 -0.393257 0
M  V30 2316 C 212.505 0.428238 -3.57545 0
M  V30 2317 C 212.358 -0.866248 -4.4138 0
M  V30 2318 C 213.677 1.21287 -4.23057 0
M  V30 2319 H 210.796 0.0619851 -0.734389 0
M  V30 2320 H 213.438 -0.53565 -1.82293 0
M  V30 2321 H 211.588 1.03327 -3.74507 0
M  V30 2322 H 213.26 -1.50265 -4.3614 0
M  V30 2323 H 211.503 -1.47851 -4.07827 0
M  V30 2324 H 212.174 -0.643249 -5.48239 0
M  V30 2325 H 214.65 0.700703 -4.10158 0
M  V30 2326 H 213.526 1.35909 -5.31808 0
M  V30 2327 H 213.787 2.23193 -3.81625 0
M  V30 2328 N 212.846 1.57033 -0.133567 0
M  V30 2329 C 214.262 1.58035 0.222944 0
M  V30 2330 C 214.462 1.14713 1.6566 0
M  V30 2331 O 213.518 0.841218 2.38075 0
M  V30 2332 C 214.831 3.00691 -0.0236116 0
M  V30 2333 C 216.379 3.12973 0.0411512 0
M  V30 2334 C 216.854 4.57654 -0.177899 0
M  V30 2335 N 218.345 4.63033 -0.124365 0
M  V30 2336 C 219.08 5.72771 -0.268553 0
M  V30 2337 N 218.576 6.91206 -0.46972 0
M  V30 2338 N 220.369 5.61718 -0.2071 0
M  V30 2339 H 212.52 1.8349 -1.06981 0
M  V30 2340 H 214.783 0.848677 -0.422436 0
M  V30 2341 H 214.489 3.36726 -1.0153 0
M  V30 2342 H 214.363 3.70614 0.701808 0
M  V30 2343 H 216.75 2.76787 1.02338 0
M  V30 2344 H 216.831 2.45564 -0.716383 0
M  V30 2345 H 216.475 4.94542 -1.15717 0
M  V30 2346 H 216.405 5.23173 0.599797 0
M  V30 2347 H 218.896 3.7789 0.027011 0
M  V30 2348 H 219.209 7.70693 -0.570212 0
M  V30 2349 H 217.554 6.93156 -0.505876 0
M  V30 2350 H 220.745 4.68072 -0.0507986 0
M  V30 2351 H 220.918 6.47195 -0.322909 0
M  V30 2352 N 214.325 -0.140222 1.56975 0
M  V30 2353 C 215.573 -0.850005 1.83356 0
M  V30 2354 C 215.894 -1.81399 0.71551 0
M  V30 2355 O 215.164 -1.94136 -0.262294 0
M  V30 2356 H 213.744 -0.316886 0.676456 0
M  V30 2357 H 216.406 -0.132608 1.94448 0
M  V30 2358 H 215.502 -1.40814 2.78528 0
M  V30 2359 N 215.803 -1.52179 -0.40978 0
M  V30 2360 C 217.028 -1.70347 -1.18308 0
M  V30 2361 C 217.453 -0.411887 -1.83535 0
M  V30 2362 O 216.811 0.630587 -1.6998 0
M  V30 2363 C 216.859 -2.83977 -2.22238 0
M  V30 2364 O 215.963 -2.495 -3.28365 0
M  V30 2365 H 215.304 -0.567103 -0.345384 0
M  V30 2366 H 217.834 -1.98879 -0.480445 0
M  V30 2367 H 217.844 -3.0887 -2.66577 0
M  V30 2368 H 216.519 -3.77685 -1.74146 0
M  V30 2369 H 215.096 -2.35277 -2.89308 0
M  V30 2370 N 217.281 0.66697 -1.42791 0
M  V30 2371 C 218.211 1.79218 -1.49677 0
M  V30 2372 C 219.192 1.66405 -0.352623 0
M  V30 2373 O 220.377 1.85708 -0.567993 0
M  V30 2374 C 217.507 3.17565 -1.40605 0
M  V30 2375 C 216.461 3.45124 -2.53127 0
M  V30 2376 C 215.787 4.83127 -2.29112 0
M  V30 2377 C 217.087 3.41236 -3.95418 0
M  V30 2378 H 218.781 1.73713 -2.43853 0
M  V30 2379 H 216.327 0.83432 -1.17367 0
M  V30 2380 H 218.28 3.96022 -1.44029 0
M  V30 2381 H 217.004 3.23767 -0.429271 0
M  V30 2382 H 215.663 2.69031 -2.49034 0
M  V30 2383 H 215.311 4.85988 -1.29709 0
M  V30 2384 H 215.011 5.02528 -3.04531 0
M  V30 2385 H 216.535 5.63859 -2.34297 0
M  V30 2386 H 217.949 4.09651 -4.01073 0
M  V30 2387 H 216.346 3.72173 -4.70752 0
M  V30 2388 H 217.416 2.39665 -4.21532 0
M  V30 2389 N 218.759 1.29093 0.90403 0
M  V30 2390 C 219.706 1.13853 2.00764 0
M  V30 2391 C 220.676 0.0330084 1.66067 0
M  V30 2392 O 221.861 0.199733 1.89752 0
M  V30 2393 C 219.001 0.816537 3.35301 0
M  V30 2394 C 218.114 2.00206 3.82807 0
M  V30 2395 C 217.249 1.61983 5.059 0
M  V30 2396 C 216.288 2.77143 5.45764 0
M  V30 2397 N 215.425 2.39346 6.60044 0
M  V30 2398 H 220.265 2.08276 2.13132 0
M  V30 2399 H 217.802 1.03648 1.04381 0
M  V30 2400 H 219.76 0.610557 4.12708 0
M  V30 2401 H 218.39 -0.090779 3.22672 0
M  V30 2402 H 217.442 2.31988 3.01473 0
M  V30 2403 H 218.754 2.86512 4.08304 0
M  V30 2404 H 217.908 1.37649 5.90879 0
M  V30 2405 H 216.647 0.728202 4.82233 0
M  V30 2406 H 215.652 3.02165 4.59322 0
M  V30 2407 H 216.877 3.66964 5.71414 0
M  V30 2408 H 214.823 1.52665 6.37989 0
M  V30 2409 H 214.74 3.19185 6.85315 0
M  V30 2410 H 216.008 2.1832 7.48303 0
M  V30 2411 N 220.237 -1.11381 1.11499 0
M  V30 2412 C 221.648 -1.6465 0.880191 0
M  V30 2413 C 221.999 -1.87199 -0.587434 0
M  V30 2414 O 221.124 -1.60667 -1.44966 0
M  V30 2415 C 221.719 -2.99105 1.59128 0
M  V30 2416 C 220.278 -3.49279 1.40289 0
M  V30 2417 C 219.425 -2.24077 1.63354 0
M  V30 2418 H 222.376 -0.950123 1.27116 0
M  V30 2419 H 222.397 -3.66107 1.03664 0
M  V30 2420 H 221.909 -2.82661 2.65941 0
M  V30 2421 H 220.01 -3.70887 0.356888 0
M  V30 2422 H 220.123 -4.2803 2.15238 0
M  V30 2423 H 218.487 -2.31733 1.05698 0
M  V30 2424 H 219.27 -2.10175 2.71443 0
M  V30 2425 N 221.715 -0.905404 -1.28997 0
M  V30 2426 C 222.963 -0.533192 -1.9494 0
M  V30 2427 C 223.284 0.924618 -1.71685 0
M  V30 2428 O 222.554 1.65268 -1.05183 0
M  V30 2429 H 221.134 -0.194194 -0.721317 0
M  V30 2430 H 223.796 -1.15294 -1.57141 0
M  V30 2431 H 222.892 -0.72059 -3.03667 0
M  V30 2432 N 223.193 1.4272 -0.668489 0
M  V30 2433 C 224.421 2.05966 -0.196348 0
M  V30 2434 C 224.836 1.50191 1.14403 0
M  V30 2435 O 224.193 0.639208 1.7094 0
M  V30 2436 C 224.244 3.61314 -0.115815 0
M  V30 2437 O 223.965 4.1502 -1.40322 0
M  V30 2438 C 225.466 4.41663 0.380579 0
M  V30 2439 H 222.686 0.663954 -0.0969829 0
M  V30 2440 H 225.23 1.82966 -0.913446 0
M  V30 2441 H 223.385 3.83448 0.551931 0
M  V30 2442 H 223.799 5.08832 -1.27243 0
M  V30 2443 H 225.273 5.5065 0.385848 0
M  V30 2444 H 225.75 4.15792 1.41471 0
M  V30 2445 H 226.356 4.24534 -0.255209 0
M  V30 2446 N 224.671 0.411399 1.52136 0
M  V30 2447 C 225.581 -0.419774 2.30814 0
M  V30 2448 C 226.597 -1.0515 1.38634 0
M  V30 2449 O 227.773 -1.05252 1.71709 0
M  V30 2450 C 224.838 -1.52019 3.11594 0
M  V30 2451 C 223.899 -0.91129 4.19516 0
M  V30 2452 C 223.132 -1.95927 4.96436 0
M  V30 2453 O 223.355 -3.17775 4.73683 0
M  V30 2454 O 222.289 -1.56423 5.81219 0
M  V30 2455 H 226.115 0.221805 3.02889 0
M  V30 2456 H 223.7 0.174547 1.48377 0
M  V30 2457 H 225.582 -2.15898 3.61892 0
M  V30 2458 H 224.257 -2.14633 2.42311 0
M  V30 2459 H 223.164 -0.235157 3.7336 0
M  V30 2460 H 224.497 -0.32904 4.91099 0
M  V30 2461 N 226.149 -1.5696 0.141893 0
M  V30 2462 C 227.374 -2.00754 -0.520838 0
M  V30 2463 C 227.799 -1.0213 -1.57959 0
M  V30 2464 O 227.157 0.00371324 -1.813 0
M  V30 2465 C 227.205 -3.43318 -1.10294 0
M  V30 2466 O 226.309 -3.47679 -2.21795 0
M  V30 2467 H 225.65 -0.651564 -0.127908 0
M  V30 2468 H 228.18 -2.03221 0.23712 0
M  V30 2469 H 228.19 -3.82012 -1.43287 0
M  V30 2470 H 226.865 -4.14608 -0.327574 0
M  V30 2471 H 225.442 -3.20824 -1.9007 0
M  V30 2472 N 227.627 0.131896 -1.57047 0
M  V30 2473 C 228.876 0.84044 -1.83356 0
M  V30 2474 C 229.189 1.81646 -0.725535 0
M  V30 2475 O 230.395 2.57025 -0.874659 0
M  V30 2476 C 228.851 1.54528 -3.25037 0
M  V30 2477 C 228.459 0.610902 -4.43815 0
M  V30 2478 C 230.203 2.23972 -3.60606 0
M  V30 2479 C 228.11 1.31823 -5.76521 0
M  V30 2480 H 227.04 0.317599 -0.683847 0
M  V30 2481 H 229.691 0.0931561 -1.83263 0
M  V30 2482 H 228.073 2.33873 -3.19561 0
M  V30 2483 H 229.247 -0.148407 -4.60561 0
M  V30 2484 H 227.562 0.0241016 -4.16393 0
M  V30 2485 H 230.159 2.77558 -4.57018 0
M  V30 2486 H 230.502 3.01173 -2.87403 0
M  V30 2487 H 231.035 1.51529 -3.6781 0
M  V30 2488 H 227.774 0.587771 -6.52859 0
M  V30 2489 H 227.294 2.04987 -5.63685 0
M  V30 2490 H 228.973 1.855 -6.19838 0
M  V30 2491 N 229.106 1.52395 0.401703 0
M  V30 2492 C 230.331 1.70972 1.17403 0
M  V30 2493 C 230.756 0.421615 1.83314 0
M  V30 2494 O 230.114 -0.621564 1.70312 0
M  V30 2495 C 230.162 2.85151 2.20728 0
M  V30 2496 O 229.266 2.51238 3.27037 0
M  V30 2497 H 228.607 0.568927 0.342372 0
M  V30 2498 H 231.137 1.99131 0.469891 0
M  V30 2499 H 231.147 3.10279 2.64936 0
M  V30 2500 H 229.822 3.78603 1.7214 0
M  V30 2501 H 228.399 2.36808 2.88057 0
M  V30 2502 N 230.584 -0.659388 1.43143 0
M  V30 2503 C 232 -0.974337 1.26407 0
M  V30 2504 C 232.2 -2.007 0.179341 0
M  V30 2505 O 231.256 -2.4856 -0.444295 0
M  V30 2506 C 232.569 -1.46447 2.62628 0
M  V30 2507 C 234.117 -1.58144 2.7011 0
M  V30 2508 C 234.592 -2.1055 4.06734 0
M  V30 2509 N 236.083 -2.17861 4.08767 0
M  V30 2510 C 236.818 -2.59519 5.1131 0
M  V30 2511 N 236.314 -3.00518 6.24228 0
M  V30 2512 N 238.107 -2.59404 4.98664 0
M  V30 2513 H 230.258 0.0240528 2.12386 0
M  V30 2514 H 232.521 -0.0518065 0.946583 0
M  V30 2515 H 232.227 -0.780123 3.42939 0
M  V30 2516 H 232.101 -2.44058 2.87603 0
M  V30 2517 H 234.488 -2.25682 1.90136 0
M  V30 2518 H 234.569 -0.589828 2.48907 0
M  V30 2519 H 234.213 -1.43616 4.87172 0
M  V30 2520 H 234.143 -3.10531 4.25298 0
M  V30 2521 H 236.634 -1.88975 3.27257 0
M  V30 2522 H 236.947 -3.31036 6.98309 0
M  V30 2523 H 235.292 -2.98337 6.2771 0
M  V30 2524 H 238.483 -2.26747 4.09516 0
M  V30 2525 H 238.656 -2.91548 5.78709 0
M  V30 2526 N 232.062 -1.29571 -0.897171 0
M  V30 2527 C 233.478 -1.07637 -1.17841 0
M  V30 2528 C 233.678 0.170713 -2.00776 0
M  V30 2529 O 232.734 0.867768 -2.3712 0
M  V30 2530 C 234.047 -2.3332 -1.8969 0
M  V30 2531 C 235.595 -2.38664 -2.02505 0
M  V30 2532 C 236.07 -3.64157 -2.77765 0
M  V30 2533 N 237.561 -3.64894 -2.85318 0
M  V30 2534 C 238.296 -4.58679 -3.44094 0
M  V30 2535 N 237.792 -5.62799 -4.04017 0
M  V30 2536 N 239.585 -4.46245 -3.41793 0
M  V30 2537 H 231.736 -2.09598 -0.343883 0
M  V30 2538 H 233.999 -0.923333 -0.214848 0
M  V30 2539 H 233.705 -3.24262 -1.36187 0
M  V30 2540 H 233.579 -2.41025 -2.9015 0
M  V30 2541 H 235.966 -1.48208 -2.55183 0
M  V30 2542 H 236.047 -2.34943 -1.01171 0
M  V30 2543 H 235.691 -4.54965 -2.25763 0
M  V30 2544 H 235.621 -3.65137 -3.7945 0
M  V30 2545 H 238.112 -2.89613 -2.42761 0
M  V30 2546 H 238.425 -6.3048 -4.46895 0
M  V30 2547 H 236.77 -5.66605 -4.02472 0
M  V30 2548 H 239.961 -3.64094 -2.94199 0
M  V30 2549 H 240.134 -5.19518 -3.87304 0
M  V30 2550 N 233.54 1.10788 -1.12088 0
M  V30 2551 C 234.47 2.19083 -0.807755 0
M  V30 2552 C 235.451 1.6858 0.226859 0
M  V30 2553 O 236.636 1.93997 0.0888475 0
M  V30 2554 C 233.766 3.46344 -0.257576 0
M  V30 2555 C 232.72 4.101 -1.22483 0
M  V30 2556 C 232.046 5.32016 -0.535052 0
M  V30 2557 C 233.346 4.54236 -2.57811 0
M  V30 2558 H 235.04 2.45534 -1.71328 0
M  V30 2559 H 232.586 1.1801 -0.825205 0
M  V30 2560 H 234.539 4.21392 -0.0262679 0
M  V30 2561 H 233.263 3.19373 0.683278 0
M  V30 2562 H 231.922 3.37054 -1.44189 0
M  V30 2563 H 231.57 5.01319 0.410827 0
M  V30 2564 H 231.27 5.75625 -1.18024 0
M  V30 2565 H 232.794 6.09799 -0.312695 0
M  V30 2566 H 234.208 5.20575 -2.40155 0
M  V30 2567 H 232.605 5.08682 -3.18375 0
M  V30 2568 H 233.675 3.6734 -3.16528 0
M  V30 2569 N 235.018 0.912232 1.28515 0
M  V30 2570 C 236.243 0.559774 1.99703 0
M  V30 2571 C 236.668 -0.851393 1.67729 0
M  V30 2572 O 236.026 -1.56875 0.908834 0
M  V30 2573 C 236.074 0.773874 3.52198 0
M  V30 2574 O 235.178 -0.167842 4.12058 0
M  V30 2575 H 234.519 0.21723 0.627461 0
M  V30 2576 H 237.049 1.22725 1.63706 0
M  V30 2577 H 237.059 0.683386 4.02236 0
M  V30 2578 H 235.734 1.80261 3.74805 0
M  V30 2579 H 234.311 -0.0287509 3.72889 0
M  V30 2580 N 236.496 -1.42363 0.676048 0
M  V30 2581 C 237.743 -2.01522 0.19883 0
M  V30 2582 C 238.071 -1.53456 -1.19505 0
M  V30 2583 O 237.326 -0.727967 -1.81657 0
M  V30 2584 C 237.625 -3.56929 0.183431 0
M  V30 2585 C 237.291 -4.24431 1.52215 0
M  V30 2586 C 235.953 -4.42585 1.8887 0
M  V30 2587 C 238.305 -4.62459 2.40377 0
M  V30 2588 C 235.633 -4.96039 3.13309 0
M  V30 2589 C 237.985 -5.17294 3.64129 0
M  V30 2590 C 236.649 -5.33661 4.00951 0
M  V30 2591 H 235.919 -0.737419 0.0727571 0
M  V30 2592 H 238.566 -1.70531 0.871281 0
M  V30 2593 H 236.871 -3.87594 -0.572532 0
M  V30 2594 H 238.568 -4.00486 -0.203035 0
M  V30 2595 H 235.158 -4.10661 1.22701 0
M  V30 2596 H 239.342 -4.48105 2.13343 0
M  V30 2597 H 234.598 -5.06896 3.41857 0
M  V30 2598 H 238.772 -5.45704 4.32644 0
M  V30 2599 H 236.399 -5.74845 4.9745 0
M  V30 2600 N 237.974 -0.419461 -1.51915 0
M  V30 2601 C 238.906 0.43646 -2.25006 0
M  V30 2602 C 239.919 1.00149 -1.28351 0
M  V30 2603 O 241.108 0.898674 -1.54227 0
M  V30 2604 C 238.208 1.6206 -2.9764 0
M  V30 2605 C 237.381 1.17763 -4.21249 0
M  V30 2606 C 236.44 2.22985 -4.76617 0
M  V30 2607 O 235.466 1.83151 -5.38929 0
M  V30 2608 N 236.668 3.55271 -4.59089 0
M  V30 2609 H 239.433 -0.18989 -2.99098 0
M  V30 2610 H 236.994 -0.247386 -1.59999 0
M  V30 2611 H 238.986 2.32038 -3.31573 0
M  V30 2612 H 237.556 2.15266 -2.2667 0
M  V30 2613 H 236.776 0.305582 -3.93014 0
M  V30 2614 H 238.064 0.858781 -5.015 0
M  V30 2615 H 237.462 3.90377 -4.09417 0
M  V30 2616 H 236.019 4.21195 -4.97432 0
M  V30 2617 N 239.452 1.56882 -0.150215 0
M  V30 2618 C 240.868 1.58263 0.20617 0
M  V30 2619 C 241.068 1.16464 1.64434 0
M  V30 2620 O 240.124 0.866422 2.3717 0
M  V30 2621 C 241.437 3.00649 -0.0555025 0
M  V30 2622 C 242.985 3.12999 0.00795388 0
M  V30 2623 C 243.46 4.5744 -0.226429 0
M  V30 2624 N 244.951 4.62875 -0.173469 0
M  V30 2625 C 245.686 5.72454 -0.329288 0
M  V30 2626 N 245.182 6.90669 -0.543005 0
M  V30 2627 N 246.975 5.61467 -0.266666 0
M  V30 2628 H 239.126 1.82345 -1.08922 0
M  V30 2629 H 241.389 0.844149 -0.431413 0
M  V30 2630 H 241.095 3.3563 -1.05096 0
M  V30 2631 H 240.969 3.71337 0.66246 0
M  V30 2632 H 243.356 2.77857 0.993966 0
M  V30 2633 H 243.437 2.4479 -0.742388 0
M  V30 2634 H 243.081 4.93287 -1.20956 0
M  V30 2635 H 243.011 5.2378 0.544274 0
M  V30 2636 H 245.502 3.77898 -0.0130709 0
M  V30 2637 H 245.815 7.70045 -0.651922 0
M  V30 2638 H 244.16 6.92581 -0.579366 0
M  V30 2639 H 247.351 4.67992 -0.100441 0
M  V30 2640 H 247.524 6.46816 -0.391535 0
M  V30 2641 N 240.93 -0.123565 1.57115 0
M  V30 2642 C 242.207 -0.862196 1.75572 0
M  V30 2643 C 242.587 -1.98279 0.724475 0
M  V30 2644 O 241.935 -2.27102 -0.252407 0
M  V30 2645 C 242.145 -1.38309 3.20424 0
M  V30 2646 C 243.493 -1.83724 3.82793 0
M  V30 2647 O 244.517 -1.47999 3.23998 0
M  V30 2648 O 243.376 -2.49685 4.86127 0
M  V30 2649 H 240.47 -0.409113 0.718718 0
M  V30 2650 H 243.016 -0.107661 1.69358 0
M  V30 2651 H 241.788 -0.578889 3.86994 0
M  V30 2652 H 241.411 -2.20046 3.31158 0
M  V30 2653 N 242.408 -1.52605 -0.393616 0
M  V30 2654 C 243.655 -1.67424 -1.1391 0
M  V30 2655 C 243.983 -0.411859 -1.90089 0
M  V30 2656 O 243.238 0.605626 -1.86093 0
M  V30 2657 C 243.537 -2.85721 -2.14705 0
M  V30 2658 C 243.203 -4.23342 -1.55218 0
M  V30 2659 C 241.865 -4.60771 -1.3872 0
M  V30 2660 C 244.217 -5.09041 -1.11924 0
M  V30 2661 C 241.545 -5.81563 -0.774689 0
M  V30 2662 C 243.897 -6.30452 -0.520853 0
M  V30 2663 C 242.561 -6.66617 -0.343134 0
M  V30 2664 H 241.831 -0.612648 -0.416826 0
M  V30 2665 H 244.478 -1.8674 -0.424315 0
M  V30 2666 H 242.783 -2.60803 -2.92385 0
M  V30 2667 H 244.48 -2.94382 -2.72288 0
M  V30 2668 H 241.07 -3.93855 -1.69045 0
M  V30 2669 H 245.254 -4.80695 -1.23473 0
M  V30 2670 H 240.51 -6.08196 -0.625154 0
M  V30 2671 H 244.684 -6.96175 -0.177065 0
M  V30 2672 H 242.311 -7.60083 0.133571 0
M  V30 2673 N 243.887 0.651787 -1.4349 0
M  V30 2674 C 245.112 1.44434 -1.48841 0
M  V30 2675 C 245.537 1.8779 -0.107955 0
M  V30 2676 O 244.895 1.57464 0.898602 0
M  V30 2677 C 244.943 2.65458 -2.44059 0
M  V30 2678 O 244.047 3.64566 -1.92784 0
M  V30 2679 H 243.388 0.433005 -0.503391 0
M  V30 2680 H 245.918 0.797451 -1.88419 0
M  V30 2681 H 245.928 3.13255 -2.6141 0
M  V30 2682 H 244.603 2.33244 -3.4434 0
M  V30 2683 H 243.18 3.23716 -1.851 0
M  V30 2684 N 245.365 1.30045 0.890287 0
M  V30 2685 C 246.613 1.18327 1.63839 0
M  V30 2686 C 246.934 -0.263455 1.93212 0
M  V30 2687 O 246.204 -1.17856 1.56482 0
M  V30 2688 H 244.784 0.434933 0.607324 0
M  V30 2689 H 247.446 1.631 1.06698 0
M  V30 2690 H 246.542 1.74024 2.59079 0
M  V30 2691 N 246.843 -1.10192 1.12674 0
M  V30 2692 C 247.775 -2.16418 0.754701 0
M  V30 2693 C 248.788 -1.61309 -0.21986 0
M  V30 2694 O 249.977 -1.785 -0.000826841 0
M  V30 2695 C 247.077 -3.38762 0.096698 0
M  V30 2696 C 246.25 -4.23307 1.10136 0
M  V30 2697 C 245.309 -5.24092 0.470513 0
M  V30 2698 O 244.335 -5.57906 1.12824 0
M  V30 2699 N 245.537 -5.75491 -0.760948 0
M  V30 2700 H 248.302 -2.48943 1.66875 0
M  V30 2701 H 245.863 -1.25834 1.01869 0
M  V30 2702 H 247.855 -4.03291 -0.337384 0
M  V30 2703 H 246.425 -3.04192 -0.720153 0
M  V30 2704 H 245.645 -3.55036 1.71299 0
M  V30 2705 H 246.933 -4.76624 1.78064 0
M  V30 2706 H 246.331 -5.50222 -1.31424 0
M  V30 2707 H 244.888 -6.41792 -1.13781 0
M  V30 2708 N 248.321 -0.919034 -1.28029 0
M  V30 2709 C 249.271 -0.382574 -2.24767 0
M  V30 2710 C 250.255 0.508286 -1.52661 0
M  V30 2711 O 251.447 0.347145 -1.73562 0
M  V30 2712 C 248.576 0.371432 -3.41285 0
M  V30 2713 C 247.662 -0.535449 -4.20706 0
M  V30 2714 N 248.053 -1.65141 -4.78082 0
M  V30 2715 C 246.351 -0.336824 -4.44726 0
M  V30 2716 C 247.052 -2.21475 -5.37888 0
M  V30 2717 N 246.028 -1.50537 -5.22341 0
M  V30 2718 H 249.83 -1.23477 -2.66703 0
M  V30 2719 H 247.344 -0.772299 -1.42861 0
M  V30 2720 H 249.341 0.772638 -4.09678 0
M  V30 2721 H 248.001 1.22066 -3.00882 0
M  V30 2722 H 249.012 -2.03392 -4.7629 0
M  V30 2723 H 245.689 0.47246 -4.14818 0
M  V30 2724 H 247.079 -3.15379 -5.93284 0
M  V30 2725 N 249.799 1.42003 -0.683588 0
M  V30 2726 C 250.747 2.326 0.000815408 0
M  V30 2727 C 251.741 1.50308 0.781278 0
M  V30 2728 O 252.947 1.66322 0.688251 0
M  V30 2729 H 249.322 0.751758 0.0190616 0
M  V30 2730 H 251.293 2.88011 -0.780528 0
M  V30 2731 C 250.042 3.34978 0.93195 0
M  V30 2732 H 249.365 3.98345 0.340817 0
M  V30 2733 H 250.805 4.00936 1.37936 0
M  V30 2734 C 249.264 2.67925 2.04249 0
M  V30 2735 O 249.794 2.51788 3.12995 0
M  V30 2736 N 248 2.2681 1.81675 0
M  V30 2737 H 247.547 2.40135 0.932363 0
M  V30 2738 H 247.505 1.8228 2.56167 0
M  V30 2739 N 251.277 0.427512 1.51691 0
M  V30 2740 C 252.502 -0.143601 2.06902 0
M  V30 2741 C 252.927 -1.36536 1.29382 0
M  V30 2742 O 252.285 -1.78289 0.329043 0
M  V30 2743 C 252.333 -0.454207 3.57728 0
M  V30 2744 O 251.437 -1.54228 3.82475 0
M  V30 2745 H 250.778 -0.00617128 0.663971 0
M  V30 2746 H 253.308 0.606014 1.95419 0
M  V30 2747 H 253.318 -0.707525 4.01818 0
M  V30 2748 H 251.993 0.438812 4.13579 0
M  V30 2749 H 250.57 -1.2797 3.50254 0
M  V30 2750 N 252.755 -1.56801 0.158532 0
M  V30 2751 C 253.985 -2.00568 -0.495583 0
M  V30 2752 C 254.393 -1.03774 -1.58201 0
M  V30 2753 O 253.736 -0.0285797 -1.83678 0
M  V30 2754 C 253.798 -3.40768 -1.14532 0
M  V30 2755 C 253.462 -4.56553 -0.202101 0
M  V30 2756 C 254.459 -5.16714 0.574675 0
M  V30 2757 C 252.144 -5.02197 -0.101648 0
M  V30 2758 C 254.138 -6.20939 1.43924 0
M  V30 2759 C 251.825 -6.06274 0.766508 0
M  V30 2760 C 252.823 -6.65515 1.53555 0
M  V30 2761 O 252.511 -7.67575 2.38922 0
M  V30 2762 H 252.243 -0.662893 -0.13247 0
M  V30 2763 H 254.797 -2.03829 0.253559 0
M  V30 2764 H 253.027 -3.34381 -1.94233 0
M  V30 2765 H 254.716 -3.6857 -1.70033 0
M  V30 2766 H 255.482 -4.82341 0.507167 0
M  V30 2767 H 251.361 -4.55807 -0.689994 0
M  V30 2768 H 254.905 -6.67107 2.03996 0
M  V30 2769 H 250.802 -6.40073 0.835266 0
M  V30 2770 H 251.57 -7.84844 2.32296 0
M  V30 2771 N 254.233 0.115231 -1.57178 0
M  V30 2772 C 255.458 0.840354 -1.89612 0
M  V30 2773 C 255.883 1.72464 -0.750845 0
M  V30 2774 O 255.241 1.78826 0.298478 0
M  V30 2775 C 255.289 1.64654 -3.20814 0
M  V30 2776 O 254.393 2.7538 -3.06985 0
M  V30 2777 H 253.734 0.232158 -0.622092 0
M  V30 2778 H 256.264 0.0964977 -2.04372 0
M  V30 2779 H 256.274 2.03499 -3.53627 0
M  V30 2780 H 254.949 0.997416 -4.03763 0
M  V30 2781 H 253.526 2.3971 -2.85646 0
M  V30 2782 N 255.711 1.52812 0.385517 0
M  V30 2783 C 256.959 1.67694 1.12797 0
M  V30 2784 C 257.28 0.421115 1.90399 0
M  V30 2785 O 256.55 -0.564551 1.87589 0
M  V30 2786 H 255.13 0.618155 0.419396 0
M  V30 2787 H 257.792 1.89938 0.436972 0
M  V30 2788 H 256.888 2.52896 1.82894 0
M  V30 2789 N 257.189 -0.644168 1.43834 0
M  V30 2790 C 258.121 -1.76955 1.45669 0
M  V30 2791 C 259.134 -1.58956 0.351666 0
M  V30 2792 O 260.323 -1.6751 0.616644 0
M  V30 2793 C 257.423 -3.14507 1.26248 0
M  V30 2794 C 256.596 -3.59083 2.49757 0
M  V30 2795 C 255.655 -4.75467 2.25427 0
M  V30 2796 O 254.681 -4.84444 2.98836 0
M  V30 2797 N 255.883 -5.66289 1.27661 0
M  V30 2798 H 258.648 -1.75856 2.42682 0
M  V30 2799 H 256.209 -0.828312 1.39106 0
M  V30 2800 H 258.201 -3.90067 1.0784 0
M  V30 2801 H 256.771 -3.10325 0.376478 0
M  V30 2802 H 255.991 -2.7387 2.8353 0
M  V30 2803 H 257.279 -3.85613 3.31934 0
M  V30 2804 H 256.677 -5.61718 0.670064 0
M  V30 2805 H 255.234 -6.41533 1.15234 0
M  V30 2806 N 258.668 -1.30515 -0.883378 0
M  V30 2807 C 259.893 -1.22487 -1.67367 0
M  V30 2808 C 260.318 0.208767 -1.86938 0
M  V30 2809 O 259.676 1.15015 -1.40148 0
M  V30 2810 C 259.724 -1.96041 -3.02655 0
M  V30 2811 O 258.828 -1.28859 -3.91751 0
M  V30 2812 H 258.169 -0.423573 -0.511353 0
M  V30 2813 H 260.699 -1.72362 -1.10239 0
M  V30 2814 H 260.709 -2.05124 -3.52687 0
M  V30 2815 H 259.384 -3.00307 -2.8773 0
M  V30 2816 H 257.961 -1.28141 -3.50192 0
M  V30 2817 N 260.146 1.09593 -1.13257 0
M  V30 2818 C 261.371 1.8604 -0.916732 0
M  V30 2819 C 261.796 1.80504 0.529146 0
M  V30 2820 O 261.154 1.18127 1.37534 0
M  V30 2821 C 261.202 3.32017 -1.40703 0
M  V30 2822 O 260.306 4.08141 -0.591153 0
M  V30 2823 H 259.647 0.576943 -0.328683 0
M  V30 2824 H 262.177 1.38405 -1.50682 0
M  V30 2825 H 262.187 3.82865 -1.4099 0
M  V30 2826 H 260.862 3.35361 -2.45979 0
M  V30 2827 H 259.439 3.67084 -0.656005 0
M  V30 2828 N 261.624 0.925811 1.2754 0
M  V30 2829 C 262.849 0.580924 1.99098 0
M  V30 2830 C 263.274 -0.833555 1.68622 0
M  V30 2831 O 262.632 -1.55903 0.925422 0
M  V30 2832 C 262.68 0.811186 3.51358 0
M  V30 2833 O 261.784 -0.124129 4.12213 0
M  V30 2834 H 261.125 0.223873 0.625122 0
M  V30 2835 H 263.655 1.24455 1.62395 0
M  V30 2836 H 263.665 0.72601 4.01489 0
M  V30 2837 H 262.34 1.84227 3.72872 0
M  V30 2838 H 260.917 0.0108006 3.72898 0
M  V30 2839 N 263.102 -1.41638 0.69111 0
M  V30 2840 C 264.332 -2.0533 0.228758 0
M  V30 2841 C 264.74 -1.52089 -1.12541 0
M  V30 2842 O 264.083 -0.662145 -1.71351 0
M  V30 2843 C 264.145 -3.59349 0.10407 0
M  V30 2844 C 263.809 -4.35362 1.38956 0
M  V30 2845 C 264.806 -4.64942 2.32648 0
M  V30 2846 C 262.491 -4.74714 1.64169 0
M  V30 2847 C 264.485 -5.32828 3.49818 0
M  V30 2848 C 262.172 -5.42338 2.81625 0
M  V30 2849 C 263.17 -5.71322 3.74273 0
M  V30 2850 O 262.858 -6.37554 4.89673 0
M  V30 2851 H 262.59 -0.667796 0.104997 0
M  V30 2852 H 265.144 -1.82477 0.942938 0
M  V30 2853 H 263.374 -3.80924 -0.665839 0
M  V30 2854 H 265.063 -4.04633 -0.320519 0
M  V30 2855 H 265.829 -4.35025 2.14425 0
M  V30 2856 H 261.708 -4.51538 0.929202 0
M  V30 2857 H 265.252 -5.55368 4.22152 0
M  V30 2858 H 261.149 -5.71673 2.99768 0
M  V30 2859 H 261.917 -6.56049 4.8943 0
M  V30 2860 N 264.58 -0.43555 -1.51462 0
M  V30 2861 C 265.828 0.131254 -2.01673 0
M  V30 2862 C 266.149 1.43368 -1.32177 0
M  V30 2863 O 265.419 1.90524 -0.455769 0
M  V30 2864 H 263.999 0.0514954 -0.745223 0
M  V30 2865 H 266.661 -0.577847 -1.86137 0
M  V30 2866 H 265.757 0.308446 -3.10572 0
M  V30 2867 N 266.058 1.56714 -0.166846 0
M  V30 2868 C 266.968 2.21331 0.777791 0
M  V30 2869 C 267.984 1.20358 1.25658 0
M  V30 2870 O 269.16 1.53005 1.30964 0
M  V30 2871 C 266.225 2.83787 1.99163 0
M  V30 2872 C 265.286 3.99947 1.56016 0
M  V30 2873 C 264.519 4.59415 2.71613 0
M  V30 2874 O 264.742 4.17769 3.88362 0
M  V30 2875 O 263.676 5.49359 2.45945 0
M  V30 2876 H 267.502 3.02605 0.257636 0
M  V30 2877 H 265.087 1.49275 0.0611393 0
M  V30 2878 H 266.969 3.23405 2.70161 0
M  V30 2879 H 265.644 2.05513 2.50092 0
M  V30 2880 H 264.551 3.65007 0.819809 0
M  V30 2881 H 265.884 4.79801 1.09782 0
M  V30 2882 N 267.536 -0.106894 1.57237 0
M  V30 2883 C 268.468 -1.15646 1.97885 0
M  V30 2884 C 269.481 -1.36981 0.879779 0
M  V30 2885 O 270.67 -1.35841 1.15799 0
M  V30 2886 C 267.77 -2.51425 2.27241 0
M  V30 2887 C 266.943 -2.50529 3.58545 0
M  V30 2888 C 266.002 -3.68145 3.75973 0
M  V30 2889 O 265.028 -3.51176 4.47956 0
M  V30 2890 N 266.23 -4.87177 3.15656 0
M  V30 2891 H 268.995 -0.81059 2.8853 0
M  V30 2892 H 266.556 -0.296024 1.59171 0
M  V30 2893 H 268.548 -3.28689 2.36105 0
M  V30 2894 H 267.118 -2.78147 1.42663 0
M  V30 2895 H 266.338 -1.58894 3.60758 0
M  V30 2896 H 267.626 -2.46997 4.44826 0
M  V30 2897 H 267.024 -5.03868 2.57165 0
M  V30 2898 H 265.581 -5.62075 3.30023 0
M  V30 2899 N 269.014 -1.53014 -0.377408 0
M  V30 2900 C 269.962 -1.7927 -1.48206 0
M  V30 2901 C 270.956 -0.661195 -1.55963 0
M  V30 2902 O 272.162 -0.843908 -1.58991 0
M  V30 2903 H 268.537 -0.567425 -0.493491 0
M  V30 2904 H 270.508 -2.71753 -1.2326 0
M  V30 2905 C 269.257 -1.98894 -2.85196 0
M  V30 2906 H 268.58 -2.85395 -2.79981 0
M  V30 2907 H 270.02 -2.21249 -3.61698 0
M  V30 2908 C 268.479 -0.764691 -3.28107 0
M  V30 2909 O 269.009 0.0523226 -4.01666 0
M  V30 2910 N 267.215 -0.591493 -2.84517 0
M  V30 2911 H 266.762 -1.25749 -2.24822 0
M  V30 2912 H 266.72 0.226253 -3.13585 0
M  V30 2913 N 270.492 0.636531 -1.44174 0
M  V30 2914 C 271.717 1.42847 -1.50364 0
M  V30 2915 C 272.142 1.87665 -0.127867 0
M  V30 2916 O 271.5 1.58408 0.88185 0
M  V30 2917 C 271.548 2.62854 -2.4686 0
M  V30 2918 O 270.652 3.62501 -1.9664 0
M  V30 2919 H 269.993 0.427642 -0.507955 0
M  V30 2920 H 272.523 0.777422 -1.89255 0
M  V30 2921 H 272.533 3.10465 -2.64718 0
M  V30 2922 H 271.208 2.29578 -3.46795 0
M  V30 2923 H 269.785 3.21735 -1.88523 0
M  V30 2924 N 271.97 1.30982 0.876444 0
M  V30 2925 C 273.247 1.10942 1.61094 0
M  V30 2926 C 273.627 -0.338223 2.08373 0
M  V30 2927 O 272.975 -1.33122 1.85717 0
M  V30 2928 C 273.185 2.11789 2.77392 0
M  V30 2929 C 274.533 2.43965 3.47514 0
M  V30 2930 O 275.557 2.10166 2.87591 0
M  V30 2931 O 274.416 3.01817 4.55597 0
M  V30 2932 H 271.51 0.42667 0.708436 0
M  V30 2933 H 274.056 1.42438 0.922474 0
M  V30 2934 H 272.828 3.09194 2.39823 0
M  V30 2935 H 272.451 1.81161 3.5393 0
M  V30 2936 N 273.449 -1.08991 1.13837 0
M  V30 2937 C 274.674 -1.85551 0.926585 0
M  V30 2938 C 275.099 -1.80782 -0.519566 0
M  V30 2939 O 274.457 -1.18855 -1.36906 0
M  V30 2940 C 274.505 -3.31266 1.42462 0
M  V30 2941 O 273.609 -4.07822 0.612789 0
M  V30 2942 H 272.95 -0.575192 0.331738 0
M  V30 2943 H 275.48 -1.37604 1.51414 0
M  V30 2944 H 275.49 -3.82112 1.43019 0
M  V30 2945 H 274.165 -3.34052 2.47754 0
M  V30 2946 H 272.742 -3.66731 0.675463 0
M  V30 2947 N 274.927 -0.932562 -1.27047 0
M  V30 2948 C 275.877 -0.406392 -2.24349 0
M  V30 2949 C 276.861 0.492066 -1.53191 0
M  V30 2950 O 278.053 0.328717 -1.73921 0
M  V30 2951 C 275.182 0.335214 -3.41659 0
M  V30 2952 C 274.268 -0.58004 -4.20115 0
M  V30 2953 N 274.659 -1.70203 -4.76303 0
M  V30 2954 C 272.957 -0.383974 -4.44344 0
M  V30 2955 C 273.658 -2.27167 -5.35509 0
M  V30 2956 N 272.634 -1.56068 -5.20715 0
M  V30 2957 H 276.436 -1.26299 -2.65378 0
M  V30 2958 H 273.95 -0.787408 -1.42034 0
M  V30 2959 H 275.947 0.729142 -4.10474 0
M  V30 2960 H 274.607 1.18868 -3.0216 0
M  V30 2961 H 275.618 -2.08433 -4.74106 0
M  V30 2962 H 272.295 0.428436 -4.15296 0
M  V30 2963 H 273.685 -3.21654 -5.89905 0
M  V30 2964 N 276.405 1.4127 -0.698611 0
M  V30 2965 C 277.337 2.292 0.00399731 0
M  V30 2966 C 278.35 1.44944 0.741279 0
M  V30 2967 O 279.539 1.68416 0.591477 0
M  V30 2968 C 276.639 3.22875 1.02979 0
M  V30 2969 C 275.812 4.35904 0.36151 0
M  V30 2970 C 274.871 5.10134 1.29033 0
M  V30 2971 O 273.897 5.63809 0.781562 0
M  V30 2972 N 275.099 5.17885 2.6225 0
M  V30 2973 H 277.864 2.9014 -0.750921 0
M  V30 2974 H 275.425 1.52455 -0.544882 0
M  V30 2975 H 277.417 3.69404 1.65296 0
M  V30 2976 H 275.987 2.63221 1.68622 0
M  V30 2977 H 275.207 3.91719 -0.441584 0
M  V30 2978 H 276.495 5.08696 -0.103055 0
M  V30 2979 H 275.893 4.7573 3.061 0
M  V30 2980 H 274.45 5.6798 3.19754 0
M  V30 2981 N 277.883 0.443576 1.51229 0
M  V30 2982 C 279.108 -0.121648 2.07043 0
M  V30 2983 C 279.533 -1.35156 1.30823 0
M  V30 2984 O 278.891 -1.7793 0.347934 0
M  V30 2985 C 278.939 -0.41624 3.5819 0
M  V30 2986 O 278.043 -1.50163 3.8409 0
M  V30 2987 H 277.384 0.000871367 0.663999 0
M  V30 2988 H 279.914 0.626706 1.94765 0
M  V30 2989 H 279.924 -0.664867 4.02546 0
M  V30 2990 H 278.599 0.482653 4.1309 0
M  V30 2991 H 277.176 -1.24248 3.51592 0
M  V30 2992 N 279.361 -1.56624 0.175154 0
M  V30 2993 C 280.586 -2.01813 -0.478137 0
M  V30 2994 C 281.011 -1.05457 -1.55757 0
M  V30 2995 O 280.369 -0.0347439 -1.81267 0
M  V30 2996 C 280.417 -3.45581 -1.02987 0
M  V30 2997 O 279.521 -3.52305 -2.14371 0
M  V30 2998 H 278.862 -0.65413 -0.114059 0
M  V30 2999 H 281.392 -2.02673 0.280173 0
M  V30 3000 H 281.402 -3.84965 -1.35151 0
M  V30 3001 H 280.077 -4.1521 -0.239556 0
M  V30 3002 H 278.654 -3.24783 -1.83222 0
M  V30 3003 N 280.839 0.0985539 -1.57292 0
M  V30 3004 C 282.087 0.801092 -1.85545 0
M  V30 3005 C 282.408 1.79438 -0.763353 0
M  V30 3006 O 281.678 1.94763 0.21073 0
M  V30 3007 H 280.258 0.29884 -0.684619 0
M  V30 3008 H 282.92 0.0810064 -1.94732 0
M  V30 3009 H 282.016 1.3338 -2.82163 0
M  V30 3010 N 282.317 1.53212 0.369288 0
M  V30 3011 C 283.733 1.42902 0.710712 0
M  V30 3012 C 283.933 0.565135 1.93413 0
M  V30 3013 O 282.989 0.0461484 2.52458 0
M  V30 3014 C 284.302 2.86042 0.927382 0
M  V30 3015 C 285.85 2.9565 1.02762 0
M  V30 3016 C 286.325 4.39843 1.27679 0
M  V30 3017 N 287.816 4.43256 1.34457 0
M  V30 3018 C 288.551 5.51929 1.55439 0
M  V30 3019 N 288.047 6.70655 1.73762 0
M  V30 3020 N 289.84 5.39502 1.57779 0
M  V30 3021 H 281.991 2.07888 -0.435457 0
M  V30 3022 H 284.254 0.938661 -0.132739 0
M  V30 3023 H 283.96 3.51557 0.100287 0
M  V30 3024 H 283.834 3.29472 1.83653 0
M  V30 3025 H 286.221 2.30291 1.84527 0
M  V30 3026 H 286.302 2.5562 0.0959504 0
M  V30 3027 H 285.946 5.05774 0.464175 0
M  V30 3028 H 285.876 4.77443 2.22162 0
M  V30 3029 H 288.367 3.5769 1.21926 0
M  V30 3030 H 288.68 7.49248 1.89335 0
M  V30 3031 H 287.025 6.73648 1.70948 0
M  V30 3032 H 290.216 4.45713 1.43029 0
M  V30 3033 H 290.389 6.2426 1.7379 0
M  V30 3034 N 283.795 -0.628877 1.44509 0
M  V30 3035 C 285.043 -1.38565 1.4712 0
M  V30 3036 C 285.364 -1.94712 0.105899 0
M  V30 3037 O 284.634 -1.75912 -0.862079 0
M  V30 3038 H 283.214 -0.514333 0.541729 0
M  V30 3039 H 285.876 -0.740018 1.80305 0
M  V30 3040 H 284.972 -2.21583 2.19789 0
M  V30 3041 N 285.273 -1.31445 -0.869486 0
M  V30 3042 C 286.205 -1.14955 -1.98287 0
M  V30 3043 C 287.218 -0.0885037 -1.62559 0
M  V30 3044 O 288.407 -0.336044 -1.75308 0
M  V30 3045 C 285.507 -0.734255 -3.3085 0
M  V30 3046 C 284.68 -1.88042 -3.94917 0
M  V30 3047 C 283.739 -1.4511 -5.05796 0
M  V30 3048 O 282.765 -2.16082 -5.2659 0
M  V30 3049 N 283.967 -0.338763 -5.79511 0
M  V30 3050 H 286.732 -2.10856 -2.12979 0
M  V30 3051 H 284.293 -1.23786 -1.04349 0
M  V30 3052 H 286.285 -0.42975 -4.02412 0
M  V30 3053 H 284.855 0.133158 -3.12316 0
M  V30 3054 H 284.075 -2.35222 -3.1633 0
M  V30 3055 H 285.363 -2.6481 -4.34457 0
M  V30 3056 H 284.761 0.252274 -5.65137 0
M  V30 3057 H 283.318 -0.0937925 -6.51733 0
M  V30 3058 N 286.751 1.08385 -1.14413 0
M  V30 3059 C 287.991 1.8238 -0.922868 0
M  V30 3060 C 288.355 1.84225 0.540842 0
M  V30 3061 O 289.556 2.53985 0.880058 0
M  V30 3062 C 287.827 3.24048 -1.50757 0
M  V30 3063 S 289.386 4.14917 -1.4279 0
M  V30 3064 H 286.204 0.628524 -0.332384 0
M  V30 3065 H 288.806 1.30278 -1.45766 0
M  V30 3066 H 287.51 3.20288 -2.56601 0
M  V30 3067 H 287.041 3.81224 -0.971178 0
M  V30 3068 H 289.056 4.94473 -0.413582 0
M  V30 3069 N 288.23 0.939286 1.26551 0
M  V30 3070 C 289.478 0.58469 1.93457 0
M  V30 3071 C 289.799 -0.878774 1.74076 0
M  V30 3072 O 289.069 -1.62421 1.09528 0
M  V30 3073 H 287.649 0.21325 0.715914 0
M  V30 3074 H 290.311 1.1942 1.54029 0
M  V30 3075 H 289.407 0.800849 3.0165 0
M  V30 3076 N 289.708 -1.40897 0.706093 0
M  V30 3077 C 290.933 -2.05895 0.249435 0
M  V30 3078 C 291.358 -1.52823 -1.09666 0
M  V30 3079 O 290.716 -0.659589 -1.68876 0
M  V30 3080 C 290.764 -3.59872 0.22904 0
M  V30 3081 O 289.868 -4.04708 -0.792784 0
M  V30 3082 H 289.209 -0.653206 0.119241 0
M  V30 3083 H 291.739 -1.80471 0.96391 0
M  V30 3084 H 291.749 -4.07951 0.0634791 0
M  V30 3085 H 290.424 -3.97866 1.21141 0
M  V30 3086 H 289.001 -3.68111 -0.59572 0
M  V30 3087 N 291.186 -0.45159 -1.50991 0
M  V30 3088 C 292.434 0.109857 -2.01801 0
M  V30 3089 C 292.755 1.41958 -1.3369 0
M  V30 3090 O 292.025 1.9003 -0.475951 0
M  V30 3091 H 290.605 0.0435884 -0.745727 0
M  V30 3092 H 293.267 -0.597557 -1.85514 0
M  V30 3093 H 292.363 0.275489 -3.10882 0
M  V30 3094 N 292.664 1.56529 -0.183458 0
M  V30 3095 C 293.889 2.02064 0.467428 0
M  V30 3096 C 294.314 1.06282 1.55196 0
M  V30 3097 O 293.672 0.0443565 1.81246 0
M  V30 3098 C 293.72 3.46122 1.01153 0
M  V30 3099 O 292.824 3.53437 2.12499 0
M  V30 3100 H 292.165 0.654726 0.110588 0
M  V30 3101 H 294.695 2.02521 -0.290917 0
M  V30 3102 H 294.705 3.85676 1.33108 0
M  V30 3103 H 293.38 4.15331 0.217533 0
M  V30 3104 H 291.957 3.2575 1.81497 0
M  V30 3105 N 294.142 -0.090211 1.57342 0
M  V30 3106 C 295.39 -0.791241 1.85967 0
M  V30 3107 C 295.711 -1.7903 0.772859 0
M  V30 3108 O 294.981 -1.94872 -0.200398 0
M  V30 3109 H 293.561 -0.295205 0.686195 0
M  V30 3110 H 296.223 -0.0706782 1.94772 0
M  V30 3111 H 295.319 -1.31882 2.82867 0
M  V30 3112 N 295.62 -1.53406 -0.361157 0
M  V30 3113 C 296.552 -1.76446 -1.46286 0
M  V30 3114 C 297.565 -0.645322 -1.49464 0
M  V30 3115 O 298.754 -0.921681 -1.52864 0
M  V30 3116 C 295.854 -1.83332 -2.85031 0
M  V30 3117 C 295.027 -3.13033 -3.05498 0
M  V30 3118 C 294.086 -3.11104 -4.24383 0
M  V30 3119 O 293.112 -3.84888 -4.19344 0
M  V30 3120 N 294.314 -2.32234 -5.32022 0
M  V30 3121 H 297.079 -2.71508 -1.26899 0
M  V30 3122 H 294.64 -1.52238 -0.550915 0
M  V30 3123 H 296.632 -1.79514 -3.62708 0
M  V30 3124 H 295.202 -0.955342 -2.97644 0
M  V30 3125 H 294.422 -3.30119 -2.15442 0
M  V30 3126 H 295.71 -3.9874 -3.16044 0
M  V30 3127 H 295.108 -1.71807 -5.38979 0
M  V30 3128 H 293.665 -2.3423 -6.08259 0
M  V30 3129 N 297.098 0.621204 -1.44841 0
M  V30 3130 C 298.323 1.41244 -1.51871 0
M  V30 3131 C 298.748 1.87519 -0.147764 0
M  V30 3132 O 298.106 1.59334 0.865 0
M  V30 3133 C 298.154 2.60221 -2.49634 0
M  V30 3134 O 297.258 3.60395 -2.00473 0
M  V30 3135 H 296.599 0.42223 -0.512463 0
M  V30 3136 H 299.129 0.757305 -1.90069 0
M  V30 3137 H 299.139 3.0764 -2.67996 0
M  V30 3138 H 297.814 2.25887 -3.4921 0
M  V30 3139 H 296.391 3.19717 -1.91925 0
M  V30 3140 N 298.576 1.31904 0.862503 0
M  V30 3141 C 299.987 1.19803 1.43193 0
M  V30 3142 C 300.338 -0.192567 1.95253 0
M  V30 3143 O 299.463 -1.09081 1.86896 0
M  V30 3144 C 300.058 2.16883 2.60283 0
M  V30 3145 C 298.617 2.08692 3.13248 0
M  V30 3146 C 297.764 2.05691 1.85975 0
M  V30 3147 H 300.715 1.43846 0.670365 0
M  V30 3148 H 300.736 1.76278 3.37204 0
M  V30 3149 H 300.248 3.18083 2.22363 0
M  V30 3150 H 298.349 1.10713 3.55771 0
M  V30 3151 H 298.462 2.9815 3.75025 0
M  V30 3152 H 296.826 1.50814 2.05249 0
M  V30 3153 H 297.609 3.08659 1.50282 0
M  V30 3154 N 300.054 -1.07777 1.14986 0
M  V30 3155 C 301.002 -2.16964 0.838406 0
M  V30 3156 C 301.996 -1.68372 -0.186386 0
M  V30 3157 O 303.202 -1.79951 -0.0418465 0
M  V30 3158 H 299.577 -0.708006 0.253439 0
M  V30 3159 H 301.548 -2.40454 1.76704 0
M  V30 3160 C 300.297 -3.4604 0.339335 0
M  V30 3161 H 299.62 -3.83813 1.11927 0
M  V30 3162 H 301.06 -4.23698 0.160021 0
M  V30 3163 C 299.519 -3.23569 -0.938325 0
M  V30 3164 O 300.049 -3.47752 -2.01077 0
M  V30 3165 N 298.255 -2.77079 -0.876117 0
M  V30 3166 H 297.802 -2.576 -0.00322037 0
M  V30 3167 H 297.76 -2.62422 -1.73153 0
M  V30 3168 N 301.532 -0.945985 -1.26051 0
M  V30 3169 C 302.762 -0.612136 -1.97323 0
M  V30 3170 C 303.17 0.818171 -1.70595 0
M  V30 3171 O 302.513 1.55777 -0.973613 0
M  V30 3172 C 302.575 -0.780347 -3.50929 0
M  V30 3173 C 302.239 -2.18619 -4.01317 0
M  V30 3174 C 303.236 -3.16209 -4.12683 0
M  V30 3175 C 300.921 -2.50805 -4.35203 0
M  V30 3176 C 302.915 -4.44085 -4.57238 0
M  V30 3177 C 300.602 -3.78912 -4.79446 0
M  V30 3178 C 301.6 -4.75365 -4.90425 0
M  V30 3179 O 301.288 -6.01191 -5.3369 0
M  V30 3180 H 301.02 -0.229134 -0.635982 0
M  V30 3181 H 303.574 -1.27036 -1.61404 0
M  V30 3182 H 301.804 -0.0649864 -3.86645 0
M  V30 3183 H 303.493 -0.448842 -4.03411 0
M  V30 3184 H 304.259 -2.92668 -3.86744 0
M  V30 3185 H 300.138 -1.76463 -4.2589 0
M  V30 3186 H 303.682 -5.19373 -4.65723 0
M  V30 3187 H 299.579 -4.02265 -5.0483 0
M  V30 3188 H 300.347 -6.04442 -5.51899 0
M  V30 3189 N 303.011 1.40521 -0.713556 0
M  V30 3190 C 304.259 2.00527 -0.251692 0
M  V30 3191 C 304.58 1.56857 1.15848 0
M  V30 3192 O 303.85 0.807127 1.785 0
M  V30 3193 H 302.43 0.741551 -0.0900646 0
M  V30 3194 H 305.092 1.71887 -0.918733 0
M  V30 3195 H 304.188 3.10813 -0.283192 0
M  V30 3196 N 304.489 0.459591 1.5075 0
M  V30 3197 C 305.421 -0.37665 2.26084 0
M  V30 3198 C 306.434 -0.967109 1.30961 0
M  V30 3199 O 307.623 -0.857468 1.56556 0
M  V30 3200 C 304.723 -1.54112 3.01832 0
M  V30 3201 C 303.896 -1.06553 4.24223 0
M  V30 3202 C 302.955 -2.1027 4.82362 0
M  V30 3203 O 301.981 -1.68798 5.43595 0
M  V30 3204 N 303.183 -3.42974 4.68347 0
M  V30 3205 H 305.948 0.269124 2.98489 0
M  V30 3206 H 303.509 0.28972 1.59287 0
M  V30 3207 H 305.501 -2.23165 3.37608 0
M  V30 3208 H 304.071 -2.0918 2.32298 0
M  V30 3209 H 303.291 -0.201274 3.93686 0
M  V30 3210 H 304.579 -0.725516 5.03601 0
M  V30 3211 H 303.977 -3.79385 4.19623 0
M  V30 3212 H 302.534 -4.07858 5.08424 0
M  V30 3213 N 305.967 -1.56429 0.191757 0
M  V30 3214 C 306.917 -2.15548 -0.743184 0
M  V30 3215 C 307.901 -1.09531 -1.17863 0
M  V30 3216 O 309.093 -1.35602 -1.13759 0
M  V30 3217 C 306.222 -2.81577 -1.96391 0
M  V30 3218 C 305.308 -3.9478 -1.54951 0
M  V30 3219 N 305.699 -4.98677 -0.845876 0
M  V30 3220 C 303.997 -4.06319 -1.83905 0
M  V30 3221 C 304.698 -5.78183 -0.638724 0
M  V30 3222 N 303.674 -5.30495 -1.18643 0
M  V30 3223 H 307.476 -2.9324 -0.196839 0
M  V30 3224 H 304.99 -1.62398 -0.0081603 0
M  V30 3225 H 306.987 -3.22321 -2.64415 0
M  V30 3226 H 305.647 -2.05371 -2.51501 0
M  V30 3227 H 306.658 -5.15464 -0.501704 0
M  V30 3228 H 303.335 -3.41238 -2.40548 0
M  V30 3229 H 304.725 -6.71851 -0.0807929 0
M  V30 3230 N 307.445 0.0818655 -1.57387 0
M  V30 3231 C 308.693 0.781368 -1.86384 0
M  V30 3232 C 309.014 1.78618 -0.782342 0
M  V30 3233 O 308.284 1.94976 0.190061 0
M  V30 3234 H 306.864 0.291562 -0.687751 0
M  V30 3235 H 309.526 0.060348 -1.94807 0
M  V30 3236 H 308.622 1.3038 -2.83562 0
M  V30 3237 N 308.923 1.53595 0.353017 0
M  V30 3238 C 310.148 1.7462 1.11904 0
M  V30 3239 C 310.573 0.479721 1.8188 0
M  V30 3240 O 309.931 -0.567066 1.72204 0
M  V30 3241 C 309.979 2.92029 2.11545 0
M  V30 3242 O 309.083 2.61516 3.18878 0
M  V30 3243 H 308.424 0.579531 0.324099 0
M  V30 3244 H 310.954 2.00525 0.406301 0
M  V30 3245 H 310.964 3.18551 2.5493 0
M  V30 3246 H 309.639 3.83888 1.60008 0
M  V30 3247 H 308.216 2.45852 2.80377 0
M  V30 3248 N 310.401 -0.613514 1.45168 0
M  V30 3249 C 311.649 -1.36997 1.48581 0
M  V30 3250 C 311.97 -1.94589 0.126545 0
M  V30 3251 O 311.24 -1.76816 -0.843372 0
M  V30 3252 H 309.82 -0.508558 0.547154 0
M  V30 3253 H 312.482 -0.720853 1.81079 0
M  V30 3254 H 311.578 -2.1924 2.22127 0
M  V30 3255 N 311.879 -1.3236 -0.855495 0
M  V30 3256 C 313.104 -1.2601 -1.64731 0
M  V30 3257 C 313.529 0.169068 -1.87339 0
M  V30 3258 O 312.887 1.12016 -1.42556 0
M  V30 3259 C 312.935 -2.02417 -2.98429 0
M  V30 3260 O 312.039 -1.3714 -3.8893 0
M  V30 3261 H 311.38 -0.434325 -0.502253 0
M  V30 3262 H 313.91 -1.74661 -1.06558 0
M  V30 3263 H 313.92 -2.12559 -3.48257 0
M  V30 3264 H 312.595 -3.06343 -2.81295 0
M  V30 3265 H 311.172 -1.3554 -3.47395 0
M  V30 3266 N 313.357 1.07166 -1.15556 0
M  V30 3267 C 314.605 1.79443 -0.929764 0
M  V30 3268 C 314.926 1.87246 0.544414 0
M  V30 3269 O 314.196 1.37473 1.39564 0
M  V30 3270 H 312.776 0.664625 -0.341003 0
M  V30 3271 H 315.438 1.29499 -1.45657 0
M  V30 3272 H 314.534 2.81832 -1.34079 0
M  V30 3273 N 314.835 0.952656 1.25548 0
M  V30 3274 C 315.767 0.428609 2.25157 0
M  V30 3275 C 316.78 -0.454428 1.56329 0
M  V30 3276 O 317.969 -0.263023 1.76552 0
M  V30 3277 C 315.069 -0.401972 3.36508 0
M  V30 3278 C 314.242 0.467601 4.34893 0
M  V30 3279 C 313.301 -0.30445 5.25319 0
M  V30 3280 O 312.327 0.296473 5.68427 0
M  V30 3281 N 313.529 -1.59805 5.5807 0
M  V30 3282 H 316.294 1.28497 2.70756 0
M  V30 3283 H 313.855 0.822798 1.39433 0
M  V30 3284 H 315.847 -0.926134 3.9396 0
M  V30 3285 H 314.417 -1.15918 2.90313 0
M  V30 3286 H 313.637 1.17288 3.76347 0
M  V30 3287 H 314.925 1.06119 4.97611 0
M  V30 3288 H 314.323 -2.10823 5.24948 0
M  V30 3289 H 312.88 -2.06822 6.18116 0
M  V30 3290 N 316.313 -1.40141 0.720998 0
M  V30 3291 C 317.538 -2.05618 0.271258 0
M  V30 3292 C 317.963 -1.53978 -1.08039 0
M  V30 3293 O 317.321 -0.677463 -1.68167 0
M  V30 3294 C 317.369 -3.59609 0.267197 0
M  V30 3295 O 316.473 -4.05526 -0.749814 0
M  V30 3296 H 315.814 -0.651904 0.126162 0
M  V30 3297 H 318.344 -1.79439 0.982997 0
M  V30 3298 H 318.354 -4.0786 0.106744 0
M  V30 3299 H 317.029 -3.96559 1.25354 0
M  V30 3300 H 315.606 -3.68722 -0.556644 0
M  V30 3301 N 317.792 -0.46758 -1.50504 0
M  V30 3302 C 319.017 0.0886943 -2.0721 0
M  V30 3303 C 319.442 1.33057 -1.32956 0
M  V30 3304 O 318.8 1.77354 -0.376197 0
M  V30 3305 C 318.848 0.359202 -3.58806 0
M  V30 3306 O 317.952 1.44034 -3.8643 0
M  V30 3307 H 317.293 -0.0114349 -0.663902 0
M  V30 3308 H 319.823 -0.657613 -1.93744 0
M  V30 3309 H 319.833 0.600742 -4.03553 0
M  V30 3310 H 318.508 -0.548311 -4.1227 0
M  V30 3311 H 317.085 1.18638 -3.53524 0
M  V30 3312 N 319.27 1.56325 -0.20005 0
M  V30 3313 C 320.495 2.02548 0.44597 0
M  V30 3314 C 320.92 1.07922 1.5406 0
M  V30 3315 O 320.278 0.0635775 1.81188 0
M  V30 3316 C 320.326 3.47175 0.974761 0
M  V30 3317 O 319.43 3.55671 2.08739 0
M  V30 3318 H 318.771 0.655862 0.103638 0
M  V30 3319 H 321.301 2.02201 -0.312381 0
M  V30 3320 H 321.311 3.87067 1.2901 0
M  V30 3321 H 319.986 4.15538 0.17347 0
M  V30 3322 H 318.563 3.27657 1.78032 0
M  V30 3323 N 320.748 -0.0735177 1.57428 0
M  V30 3324 C 321.696 -1.10628 2.04607 0
M  V30 3325 C 322.69 -1.40181 0.951088 0
M  V30 3326 O 323.896 -1.39608 1.1362 0
M  V30 3327 H 320.271 -0.374088 0.652351 0
M  V30 3328 H 322.242 -0.682218 2.90497 0
M  V30 3329 C 320.991 -2.41212 2.50423 0
M  V30 3330 H 320.314 -2.19322 3.34272 0
M  V30 3331 H 321.754 -3.11927 2.87189 0
M  V30 3332 C 320.213 -3.0705 1.38644 0
M  V30 3333 O 320.743 -3.95056 0.727582 0
M  V30 3334 N 318.949 -2.67645 1.132 0
M  V30 3335 H 318.496 -1.96169 1.66959 0
M  V30 3336 H 318.454 -3.1202 0.386147 0
M  V30 3337 N 322.226 -1.5378 -0.344866 0
M  V30 3338 C 323.503 -1.61589 -1.10219 0
M  V30 3339 C 323.883 -0.436316 -2.06542 0
M  V30 3340 O 323.231 0.571543 -2.21237 0
M  V30 3341 C 323.441 -2.97602 -1.82301 0
M  V30 3342 C 324.789 -3.5291 -2.36093 0
M  V30 3343 O 325.813 -2.99768 -1.924 0
M  V30 3344 O 324.672 -4.45859 -3.16026 0
M  V30 3345 H 321.766 -0.653522 -0.506792 0
M  V30 3346 H 324.312 -1.66126 -0.346465 0
M  V30 3347 H 323.084 -3.74893 -1.12121 0
M  V30 3348 H 322.707 -2.9665 -2.64735 0
M  V30 3349 N 323.704 0.605807 -1.45491 0
M  V30 3350 C 324.932 1.39136 -1.5313 0
M  V30 3351 C 325.347 1.88082 -0.164507 0
M  V30 3352 O 324.704 1.62316 0.834247 0
M  V30 3353 C 324.755 2.59463 -2.51716 0
M  V30 3354 O 324.476 2.12551 -3.83084 0
M  V30 3355 C 325.977 3.52301 -2.6907 0
M  V30 3356 H 323.197 0.425849 -0.51855 0
M  V30 3357 H 325.741 0.73865 -1.90694 0
M  V30 3358 H 323.896 3.20772 -2.17219 0
M  V30 3359 H 324.31 2.90744 -4.36541 0
M  V30 3360 H 325.784 4.33271 -3.42024 0
M  V30 3361 H 326.261 4.02757 -1.75167 0
M  V30 3362 H 326.867 2.96845 -3.04571 0
M  V30 3363 N 325.182 1.32811 0.848464 0
M  V30 3364 C 326.132 1.18842 1.94578 0
M  V30 3365 C 327.116 0.0937517 1.60627 0
M  V30 3366 O 328.308 0.320887 1.74067 0
M  V30 3367 C 325.437 0.91999 3.30743 0
M  V30 3368 C 324.523 2.05665 3.70894 0
M  V30 3369 N 324.914 3.30579 3.8282 0
M  V30 3370 C 323.212 1.9612 4.00566 0
M  V30 3371 C 323.913 4.05067 4.17487 0
M  V30 3372 N 322.889 3.33419 4.2934 0
M  V30 3373 H 326.691 2.13536 2.0194 0
M  V30 3374 H 324.205 1.2468 1.0406 0
M  V30 3375 H 326.202 0.800859 4.09136 0
M  V30 3376 H 324.862 -0.0185076 3.24695 0
M  V30 3377 H 325.873 3.65441 3.66978 0
M  V30 3378 H 322.55 1.09871 4.02784 0
M  V30 3379 H 323.94 5.12815 4.34131 0
M  V30 3380 N 326.66 -1.06551 1.16123 0
M  V30 3381 C 327.908 -1.78947 0.939267 0
M  V30 3382 C 328.229 -1.87532 -0.534476 0
M  V30 3383 O 327.499 -1.38211 -1.38833 0
M  V30 3384 H 326.079 -0.662807 0.344523 0
M  V30 3385 H 328.741 -1.28725 1.46342 0
M  V30 3386 H 327.837 -2.81117 1.35572 0
M  V30 3387 N 328.138 -0.959301 -1.25041 0
M  V30 3388 C 329.363 -0.633507 -1.97488 0
M  V30 3389 C 329.788 0.788555 -1.70773 0
M  V30 3390 O 329.146 1.53394 -0.966431 0
M  V30 3391 C 329.194 -0.904057 -3.49083 0
M  V30 3392 O 328.298 0.0147939 -4.12397 0
M  V30 3393 H 327.639 -0.240368 -0.618966 0
M  V30 3394 H 330.169 -1.28717 -1.59038 0
M  V30 3395 H 330.179 -0.832203 -3.99423 0
M  V30 3396 H 328.854 -1.94048 -3.67856 0
M  V30 3397 H 327.431 -0.109664 -3.72739 0
M  V30 3398 N 329.616 1.39756 -0.72842 0
M  V30 3399 C 330.864 2.00248 -0.272946 0
M  V30 3400 C 331.185 1.58077 1.14178 0
M  V30 3401 O 330.455 0.826014 1.77634 0
M  V30 3402 H 329.035 0.740554 -0.0979247 0
M  V30 3403 H 331.697 1.70903 -0.936912 0
M  V30 3404 H 330.793 3.10495 -0.316142 0
M  V30 3405 N 331.094 0.475555 1.50254 0
M  V30 3406 C 332.319 -0.0777042 2.07254 0
M  V30 3407 C 332.744 -1.3235 1.3366 0
M  V30 3408 O 332.102 -1.77152 0.385597 0
M  V30 3409 C 332.15 -0.340169 3.58992 0
M  V30 3410 O 331.254 -1.41982 3.87188 0
M  V30 3411 H 330.595 0.0149556 0.663832 0
M  V30 3412 H 333.125 0.667878 1.93392 0
M  V30 3413 H 333.135 -0.579332 4.03866 0
M  V30 3414 H 331.81 0.570167 4.11973 0
M  V30 3415 H 330.387 -1.16762 3.54148 0
M  V30 3416 N 332.573 -1.56217 0.208337 0
M  V30 3417 C 333.821 -1.97558 -0.426076 0
M  V30 3418 C 334.142 -1.09683 -1.61229 0
M  V30 3419 O 333.412 -0.170956 -1.95153 0
M  V30 3420 H 331.992 -0.729575 -0.160405 0
M  V30 3421 H 334.654 -1.92606 0.298155 0
M  V30 3422 H 333.75 -3.02672 -0.761312 0
M  V30 3423 N 334.051 0.0651679 -1.57465 0
M  V30 3424 C 334.983 1.10359 -2.00882 0
M  V30 3425 C 335.996 1.346 -0.915788 0
M  V30 3426 O 337.185 1.32723 -1.1936 0
M  V30 3427 C 334.285 2.45312 -2.33828 0
M  V30 3428 C 333.458 2.40934 -3.65061 0
M  V30 3429 C 332.517 3.58047 -3.85602 0
M  V30 3430 O 331.543 3.39175 -4.57109 0
M  V30 3431 N 332.745 4.78637 -3.28462 0
M  V30 3432 H 335.51 0.733807 -2.90578 0
M  V30 3433 H 333.071 0.253719 -1.599 0
M  V30 3434 H 335.063 3.22314 -2.44737 0
M  V30 3435 H 333.633 2.74267 -1.49988 0
M  V30 3436 H 332.853 1.49273 -3.64844 0
M  V30 3437 H 334.141 2.35117 -4.51218 0
M  V30 3438 H 333.539 4.96872 -2.70433 0
M  V30 3439 H 332.096 5.53127 -3.44809 0
M  V30 3440 N 335.529 1.53961 0.336706 0
M  V30 3441 C 336.754 1.75797 1.10046 0
M  V30 3442 C 337.179 0.498985 1.81361 0
M  V30 3443 O 336.537 -0.548769 1.72795 0
M  V30 3444 C 336.585 2.94257 2.08436 0
M  V30 3445 O 335.689 2.64883 3.16087 0
M  V30 3446 H 335.03 0.582936 0.317934 0
M  V30 3447 H 337.56 2.00945 0.38501 0
M  V30 3448 H 337.57 3.21237 2.51537 0
M  V30 3449 H 336.245 3.85564 1.55927 0
M  V30 3450 H 334.822 2.48812 2.77753 0
M  V30 3451 N 337.007 -0.598083 1.45811 0
M  V30 3452 C 338.232 -1.3881 1.54099 0
M  V30 3453 C 338.657 -1.8726 0.177578 0
M  V30 3454 O 338.015 -1.6069 -0.839541 0
M  V30 3455 C 338.063 -2.56217 2.53743 0
M  V30 3456 O 337.167 -3.5716 2.06182 0
M  V30 3457 H 336.508 -0.414024 0.519115 0
M  V30 3458 H 339.038 -0.726971 1.91249 0
M  V30 3459 H 339.048 -3.03337 2.72856 0
M  V30 3460 H 337.723 -2.20303 3.5276 0
M  V30 3461 H 336.3 -3.16624 1.96987 0
M  V30 3462 N 338.485 -1.33259 -0.841409 0
M  V30 3463 C 339.733 -1.24326 -1.59334 0
M  V30 3464 C 340.054 0.191564 -1.94057 0
M  V30 3465 O 339.324 1.11967 -1.60749 0
M  V30 3466 H 337.904 -0.457174 -0.590763 0
M  V30 3467 H 340.566 -1.66947 -1.00571 0
M  V30 3468 H 339.662 -1.8352 -2.52442 0
M  V30 3469 N 339.963 1.05934 -1.16686 0
M  V30 3470 C 341.21 1.788 -0.950622 0
M  V30 3471 C 341.538 1.87384 0.521305 0
M  V30 3472 O 340.793 1.36438 1.40297 0
M  V30 3473 C 341.092 3.23105 -1.52767 0
M  V30 3474 C 340.758 3.34594 -3.02254 0
M  V30 3475 C 339.42 3.37437 -3.43059 0
M  V30 3476 C 341.772 3.36219 -3.98254 0
M  V30 3477 C 339.1 3.39525 -4.78477 0
M  V30 3478 C 341.452 3.39845 -5.33562 0
M  V30 3479 C 340.116 3.40971 -5.73842 0
M  V30 3480 H 339.386 0.654275 -0.347857 0
M  V30 3481 H 342.033 1.24555 -1.45459 0
M  V30 3482 H 340.338 3.80227 -0.94524 0
M  V30 3483 H 342.035 3.7809 -1.336 0
M  V30 3484 H 338.625 3.3309 -2.6972 0
M  V30 3485 H 342.809 3.33231 -3.67792 0
M  V30 3486 H 338.065 3.38703 -5.09009 0
M  V30 3487 H 342.239 3.4005 -6.07733 0
M  V30 3488 H 339.866 3.42342 -6.78753 0
M  V30 3489 N 341.441 0.965919 1.2453 0
M  V30 3490 C 342.666 0.643971 1.97149 0
M  V30 3491 C 343.091 -0.779487 1.71189 0
M  V30 3492 O 342.449 -1.5288 0.974553 0
M  V30 3493 C 342.497 0.922557 3.48599 0
M  V30 3494 O 341.601 0.00707672 4.12399 0
M  V30 3495 H 340.942 0.243647 0.617683 0
M  V30 3496 H 343.472 1.29558 1.58353 0
M  V30 3497 H 343.482 0.853373 3.98976 0
M  V30 3498 H 342.157 1.95996 3.66822 0
M  V30 3499 H 340.734 0.12943 3.72675 0
M  V30 3500 N 342.919 -1.39368 0.735821 0
M  V30 3501 C 343.851 -2.2913 0.0567723 0
M  V30 3502 C 344.864 -1.46859 -0.702589 0
M  V30 3503 O 346.053 -1.69925 -0.546616 0
M  V30 3504 C 343.153 -3.25492 -0.943823 0
M  V30 3505 C 342.326 -4.36709 -0.24581 0
M  V30 3506 C 341.385 -5.13376 -1.15463 0
M  V30 3507 O 340.411 -5.65683 -0.631803 0
M  V30 3508 N 341.613 -5.24656 -2.48427 0
M  V30 3509 H 344.378 -2.88047 0.827582 0
M  V30 3510 H 341.939 -1.50957 0.585112 0
M  V30 3511 H 343.931 -3.73657 -1.55443 0
M  V30 3512 H 342.501 -2.676 -1.61583 0
M  V30 3513 H 341.721 -3.9041 0.545286 0
M  V30 3514 H 343.009 -5.08244 0.237891 0
M  V30 3515 H 342.407 -4.83679 -2.93379 0
M  V30 3516 H 340.964 -5.76258 -3.04582 0
M  V30 3517 N 344.397 -0.483516 -1.5 0
M  V30 3518 C 345.347 0.32306 -2.257 0
M  V30 3519 C 346.331 0.950755 -1.29805 0
M  V30 3520 O 347.523 0.861247 -1.54634 0
M  V30 3521 C 344.652 1.39724 -3.13579 0
M  V30 3522 C 343.738 0.776663 -4.16928 0
M  V30 3523 N 344.129 -0.1104 -5.0568 0
M  V30 3524 C 342.427 1.03922 -4.33724 0
M  V30 3525 C 343.128 -0.46387 -5.79848 0
M  V30 3526 N 342.104 0.163987 -5.43353 0
M  V30 3527 H 345.906 -0.360086 -2.91686 0
M  V30 3528 H 343.42 -0.298456 -1.59634 0
M  V30 3529 H 345.417 1.98837 -3.66428 0
M  V30 3530 H 344.077 2.08225 -2.49143 0
M  V30 3531 H 345.088 -0.480069 -5.1567 0
M  V30 3532 H 341.765 1.71829 -3.80501 0
M  V30 3533 H 343.155 -1.18854 -6.61304 0
M  V30 3534 N 345.875 1.56104 -0.216619 0
M  V30 3535 C 346.822 2.2007 0.695531 0
M  V30 3536 C 347.792 1.15471 1.19397 0
M  V30 3537 O 348.977 1.43807 1.25396 0
M  V30 3538 C 346.117 2.88073 1.90021 0
M  V30 3539 C 345.23 4.07253 1.44113 0
M  V30 3540 C 344.365 4.63052 2.603 0
M  V30 3541 C 343.404 5.74545 2.11103 0
M  V30 3542 N 342.541 6.24656 3.20545 0
M  V30 3543 H 347.381 2.97655 0.143327 0
M  V30 3544 H 344.918 1.46982 0.0589934 0
M  V30 3545 H 346.876 3.25681 2.60745 0
M  V30 3546 H 345.506 2.13015 2.42538 0
M  V30 3547 H 344.558 3.75164 0.628999 0
M  V30 3548 H 345.87 4.8783 1.04036 0
M  V30 3549 H 345.024 5.03078 3.39113 0
M  V30 3550 H 343.763 3.81628 3.03663 0
M  V30 3551 H 342.768 5.34027 1.3075 0
M  V30 3552 H 343.993 6.57801 1.68746 0
M  V30 3553 H 341.939 5.46148 3.63399 0
M  V30 3554 H 341.856 7.00343 2.84704 0
M  V30 3555 H 343.124 6.69338 3.99508 0
M  V30 3556 N 347.353 -0.0568162 1.57498 0
M  V30 3557 C 348.578 -0.769402 1.92601 0
M  V30 3558 C 349.003 -1.69559 0.814336 0
M  V30 3559 O 348.361 -1.79811 -0.231903 0
M  V30 3560 C 348.409 -1.52634 3.26704 0
M  V30 3561 O 347.513 -2.63797 3.16994 0
M  V30 3562 H 346.854 -0.208909 0.63028 0
M  V30 3563 H 349.384 -0.0205798 2.0459 0
M  V30 3564 H 349.394 -1.90234 3.60936 0
M  V30 3565 H 348.069 -0.846875 4.07186 0
M  V30 3566 H 346.646 -2.28943 2.94346 0
M  V30 3567 N 348.832 -1.54138 -0.328536 0
M  V30 3568 C 350.057 -1.76378 -1.09112 0
M  V30 3569 C 350.482 -0.508596 -1.81094 0
M  V30 3570 O 349.84 0.539598 -1.73084 0
M  V30 3571 C 349.888 -2.95358 -2.06872 0
M  V30 3572 O 348.992 -2.66556 -3.14677 0
M  V30 3573 H 348.333 -0.584614 -0.314838 0
M  V30 3574 H 350.863 -2.01146 -0.374348 0
M  V30 3575 H 350.873 -3.22566 -2.4983 0
M  V30 3576 H 349.548 -3.86385 -1.5388 0
M  V30 3577 H 348.125 -2.50282 -2.7643 0
M  V30 3578 N 350.31 0.590341 -1.46126 0
M  V30 3579 C 351.535 1.37991 -1.54833 0
M  V30 3580 C 351.96 1.87163 -0.187506 0
M  V30 3581 O 351.318 1.61133 0.831008 0
M  V30 3582 C 351.366 2.54867 -2.55098 0
M  V30 3583 O 350.47 3.56061 -2.08073 0
M  V30 3584 H 349.811 0.411265 -0.521303 0
M  V30 3585 H 352.341 0.716819 -1.91632 0
M  V30 3586 H 352.351 3.01886 -2.74461 0
M  V30 3587 H 351.026 2.18429 -3.53923 0
M  V30 3588 H 349.603 3.15574 -1.98664 0
M  V30 3589 N 351.788 1.33704 0.83433 0
M  V30 3590 C 353.036 1.25169 1.58673 0
M  V30 3591 C 353.357 -0.18127 1.94156 0
M  V30 3592 O 352.627 -1.11113 1.6134 0
M  V30 3593 H 351.207 0.4603 0.58833 0
M  V30 3594 H 353.869 1.67478 0.996847 0
M  V30 3595 H 352.965 1.84856 2.51465 0
M  V30 3596 N 353.266 -1.05314 1.17247 0
M  V30 3597 C 354.198 -2.13023 0.845812 0
M  V30 3598 C 355.211 -1.62096 -0.151246 0
M  V30 3599 O 356.4 -1.78343 0.0748818 0
M  V30 3600 C 353.5 -3.38047 0.240292 0
M  V30 3601 C 352.673 -4.18255 1.27991 0
M  V30 3602 C 351.732 -5.21625 0.692375 0
M  V30 3603 O 350.758 -5.52619 1.36385 0
M  V30 3604 N 351.96 -5.78201 -0.516178 0
M  V30 3605 H 354.725 -2.41642 1.77283 0
M  V30 3606 H 352.286 -1.21401 1.07115 0
M  V30 3607 H 354.278 -4.04359 -0.16603 0
M  V30 3608 H 352.848 -3.06972 -0.590487 0
M  V30 3609 H 352.068 -3.47451 1.86203 0
M  V30 3610 H 353.356 -4.68643 1.98119 0
M  V30 3611 H 352.754 -5.55301 -1.07969 0
M  V30 3612 H 351.311 -6.4604 -0.86458 0
M  V30 3613 N 354.744 -0.972509 -1.24016 0
M  V30 3614 C 355.969 -0.654417 -1.96805 0
M  V30 3615 C 356.394 0.770398 -1.716 0
M  V30 3616 O 355.752 1.52361 -0.982647 0
M  V30 3617 C 355.8 -0.941031 -3.48105 0
M  V30 3618 O 354.904 -0.0289472 -4.1239 0
M  V30 3619 H 354.245 -0.24692 -0.616382 0
M  V30 3620 H 356.775 -1.30396 -1.57664 0
M  V30 3621 H 356.785 -0.87452 -3.98517 0
M  V30 3622 H 355.46 -1.97939 -3.65777 0
M  V30 3623 H 354.037 -0.149192 -3.72601 0
M  V30 3624 N 356.222 1.38976 -0.743202 0
M  V30 3625 C 357.447 2.05161 -0.303936 0
M  V30 3626 C 357.872 1.55677 1.05576 0
M  V30 3627 O 357.23 0.704131 1.67068 0
M  V30 3628 C 357.278 3.59138 -0.324373 0
M  V30 3629 O 356.382 4.06668 0.685204 0
M  V30 3630 H 355.723 0.649815 -0.136518 0
M  V30 3631 H 358.253 1.77852 -1.01142 0
M  V30 3632 H 358.263 4.07639 -0.171618 0
M  V30 3633 H 356.938 3.94515 -1.31647 0
M  V30 3634 H 355.515 3.69561 0.497913 0
M  V30 3635 N 357.7 0.491464 1.49741 0
M  V30 3636 C 358.948 -0.0563141 2.02022 0
M  V30 3637 C 359.269 -1.38363 1.37407 0
M  V30 3638 O 358.539 -1.88702 0.526166 0
M  V30 3639 H 357.119 -0.0238014 0.746621 0
M  V30 3640 H 359.781 0.646533 1.83864 0
M  V30 3641 H 358.877 -0.192967 3.11503 0
M  V30 3642 N 359.178 -1.55987 0.224894 0
M  V30 3643 C 360.408 -2.02489 -0.41007 0
M  V30 3644 C 360.816 -1.10391 -1.53657 0
M  V30 3645 O 360.159 -0.106458 -1.83391 0
M  V30 3646 C 360.221 -3.45319 -0.999757 0
M  V30 3647 C 359.885 -4.56999 -0.00827976 0
M  V30 3648 C 360.882 -5.13812 0.793314 0
M  V30 3649 C 358.567 -5.02176 0.111442 0
M  V30 3650 C 360.561 -6.14276 1.7013 0
M  V30 3651 C 358.248 -6.02477 1.02296 0
M  V30 3652 C 359.246 -6.58403 1.81643 0
M  V30 3653 O 358.934 -7.56751 2.71262 0
M  V30 3654 H 358.666 -0.667915 -0.104235 0
M  V30 3655 H 361.22 -2.0257 0.339782 0
M  V30 3656 H 359.45 -3.42318 -1.79876 0
M  V30 3657 H 361.139 -3.7545 -1.54248 0
M  V30 3658 H 361.905 -4.79756 0.711288 0
M  V30 3659 H 357.784 -4.58323 -0.49605 0
M  V30 3660 H 361.328 -6.57854 2.32107 0
M  V30 3661 H 357.225 -6.35954 1.10599 0
M  V30 3662 H 357.993 -7.74286 2.65375 0
M  V30 3663 N 360.656 0.0484629 -1.57525 0
M  V30 3664 C 361.881 0.759177 -1.93006 0
M  V30 3665 C 362.306 1.69125 -0.823317 0
M  V30 3666 O 361.664 1.79931 0.222364 0
M  V30 3667 C 361.712 1.50899 -3.27509 0
M  V30 3668 O 360.816 2.62112 -3.18388 0
M  V30 3669 H 360.157 0.205564 -0.631379 0
M  V30 3670 H 362.687 0.00972959 -2.04598 0
M  V30 3671 H 362.697 1.88317 -3.6194 0
M  V30 3672 H 361.372 0.825269 -4.0763 0
M  V30 3673 H 359.949 2.27379 -2.95556 0
M  V30 3674 N 362.134 1.5431 0.320358 0
M  V30 3675 C 363.066 1.80262 1.41556 0
M  V30 3676 C 364.079 0.684723 1.477 0
M  V30 3677 O 365.268 0.961886 1.50366 0
M  V30 3678 C 362.368 1.90825 2.8007 0
M  V30 3679 C 361.541 3.21023 2.97091 0
M  V30 3680 C 360.6 3.22247 4.15985 0
M  V30 3681 O 359.626 3.95871 4.08992 0
M  V30 3682 N 360.828 2.46258 5.25678 0
M  V30 3683 H 363.593 2.74778 1.19655 0
M  V30 3684 H 361.154 1.53646 0.510358 0
M  V30 3685 H 363.146 1.89067 3.57821 0
M  V30 3686 H 361.716 1.03392 2.95006 0
M  V30 3687 H 360.936 3.35715 2.06614 0
M  V30 3688 H 362.224 4.0698 3.05361 0
M  V30 3689 H 361.622 1.86037 5.34235 0
M  V30 3690 H 360.179 2.50275 6.01835 0
M  V30 3691 N 363.613 -0.582584 1.46437 0
M  V30 3692 C 364.563 -1.68654 1.53426 0
M  V30 3693 C 365.547 -1.55971 0.395194 0
M  V30 3694 O 366.739 -1.64884 0.643612 0
M  V30 3695 C 363.868 -3.07439 1.52762 0
M  V30 3696 C 362.954 -3.25418 2.71963 0
M  V30 3697 N 363.345 -3.13556 3.96883 0
M  V30 3698 C 361.643 -3.56357 2.68189 0
M  V30 3699 C 362.344 -3.33543 4.76575 0
M  V30 3700 N 361.32 -3.58704 4.08451 0
M  V30 3701 H 365.122 -1.58014 2.47808 0
M  V30 3702 H 362.636 -0.786617 1.42078 0
M  V30 3703 H 364.633 -3.86671 1.55857 0
M  V30 3704 H 363.293 -3.1921 0.594573 0
M  V30 3705 H 364.304 -2.9142 4.28129 0
M  V30 3706 H 360.981 -3.74812 1.83908 0
M  V30 3707 H 362.371 -3.29555 5.85528 0
M  V30 3708 N 365.091 -1.34144 -0.827227 0
M  V30 3709 C 366.339 -1.26009 -1.58007 0
M  V30 3710 C 366.66 0.170971 -1.94249 0
M  V30 3711 O 365.93 1.10256 -1.61927 0
M  V30 3712 H 364.51 -0.463414 -0.585881 0
M  V30 3713 H 367.172 -1.68005 -0.987951 0
M  V30 3714 H 366.268 -1.86187 -2.50481 0
M  V30 3715 N 366.569 1.04691 -1.17803 0
M  V30 3716 C 367.794 1.81984 -0.994813 0
M  V30 3717 C 368.219 1.82586 0.452112 0
M  V30 3718 O 367.577 1.23854 1.324 0
M  V30 3719 C 367.625 3.2575 -1.54659 0
M  V30 3720 O 366.729 4.05267 -0.763728 0
M  V30 3721 H 366.07 0.562483 -0.352857 0
M  V30 3722 H 368.6 1.3189 -1.56417 0
M  V30 3723 H 368.61 3.76541 -1.57102 0
M  V30 3724 H 367.285 3.24627 -2.59981 0
M  V30 3725 H 365.862 3.63972 -0.811108 0
M  V30 3726 N 368.047 0.979072 1.23499 0
M  V30 3727 C 369.295 0.645941 1.91499 0
M  V30 3728 C 369.616 -0.822948 1.76784 0
M  V30 3729 O 368.886 -1.58854 1.14639 0
M  V30 3730 H 367.466 0.235919 0.708767 0
M  V30 3731 H 370.128 1.2426 1.50152 0
M  V30 3732 H 369.224 0.896411 2.9895 0
M  V30 3733 N 369.525 -1.3858 0.750561 0
M  V30 3734 C 370.75 -2.04997 0.314812 0
M  V30 3735 C 371.175 -1.56235 -1.04749 0
M  V30 3736 O 370.533 -0.712981 -1.66692 0
M  V30 3737 C 370.581 -3.58961 0.343415 0
M  V30 3738 O 369.685 -4.07025 -0.663628 0
M  V30 3739 H 369.026 -0.649081 0.139962 0
M  V30 3740 H 371.556 -1.77313 1.02084 0
M  V30 3741 H 371.566 -4.07542 0.193233 0
M  V30 3742 H 370.241 -3.93811 1.33738 0
M  V30 3743 H 368.818 -3.6982 -0.478307 0
M  V30 3744 N 371.003 -0.499398 -1.49478 0
M  V30 3745 C 372.251 0.0455996 -2.02049 0
M  V30 3746 C 372.572 1.37633 -1.38138 0
M  V30 3747 O 371.842 1.8842 -0.536166 0
M  V30 3748 H 370.422 0.0198416 -0.746736 0
M  V30 3749 H 373.084 -0.656274 -1.83519 0
M  V30 3750 H 372.18 0.176445 -3.11601 0
M  V30 3751 N 372.481 1.55866 -0.233164 0
M  V30 3752 C 373.431 2.17442 0.685774 0
M  V30 3753 C 374.415 1.12617 1.14918 0
M  V30 3754 O 375.607 1.3857 1.10124 0
M  V30 3755 C 372.736 2.86685 1.88856 0
M  V30 3756 C 371.822 3.98749 1.4443 0
M  V30 3757 N 372.213 5.00744 0.713364 0
M  V30 3758 C 370.511 4.11052 1.73068 0
M  V30 3759 C 371.212 5.79673 0.485205 0
M  V30 3760 N 370.188 5.33454 1.04536 0
M  V30 3761 H 373.99 2.93659 0.119022 0
M  V30 3762 H 371.504 1.62362 -0.0348995 0
M  V30 3763 H 373.501 3.29218 2.55776 0
M  V30 3764 H 372.161 2.11967 2.45967 0
M  V30 3765 H 373.172 5.16613 0.364861 0
M  V30 3766 H 369.849 3.47495 2.31416 0
M  V30 3767 H 371.239 6.71829 -0.097365 0
M  V30 3768 N 373.959 -0.0401083 1.57549 0
M  V30 3769 C 375.184 -0.748931 1.93406 0
M  V30 3770 C 375.609 -1.68686 0.832274 0
M  V30 3771 O 374.967 -1.80047 -0.212818 0
M  V30 3772 C 375.015 -1.4916 3.28304 0
M  V30 3773 O 374.119 -2.6042 3.19774 0
M  V30 3774 H 373.46 -0.202212 0.63246 0
M  V30 3775 H 375.99 0.00112086 2.046 0
M  V30 3776 H 376 -1.86395 3.62934 0
M  V30 3777 H 374.675 -0.80364 4.08062 0
M  V30 3778 H 373.252 -2.25808 2.96758 0
M  V30 3779 N 375.437 -1.54477 -0.31217 0
M  V30 3780 C 376.662 -1.77526 -1.07235 0
M  V30 3781 C 377.087 -0.527775 -1.80544 0
M  V30 3782 O 376.445 0.52121 -1.73646 0
M  V30 3783 C 376.493 -2.97535 -2.03728 0
M  V30 3784 O 375.597 -2.69878 -3.11833 0
M  V30 3785 H 374.938 -0.58792 -0.30862 0
M  V30 3786 H 377.468 -2.01532 -0.352993 0
M  V30 3787 H 377.478 -3.25198 -2.46395 0
M  V30 3788 H 376.153 -3.87996 -1.49774 0
M  V30 3789 H 374.73 -2.53199 -2.7376 0
M  V30 3790 N 376.915 0.57481 -1.46744 0
M  V30 3791 C 378.163 1.33009 -1.52161 0
M  V30 3792 C 378.484 1.94185 -0.178092 0
M  V30 3793 O 377.754 1.7899 0.796196 0
M  V30 3794 H 376.334 0.493873 -0.560445 0
M  V30 3795 H 378.996 0.672589 -1.82927 0
M  V30 3796 H 378.092 2.13273 -2.27862 0
M  V30 3797 N 378.394 1.34581 0.820102 0
M  V30 3798 C 379.624 1.29991 1.6058 0
M  V30 3799 C 380.032 -0.127588 1.88769 0
M  V30 3800 O 379.375 -1.08595 1.48165 0
M  V30 3801 C 379.437 2.02548 2.9701 0
M  V30 3802 C 379.101 3.51794 2.91701 0
M  V30 3803 C 380.098 4.46647 2.66087 0
M  V30 3804 C 377.783 3.94249 3.11245 0
M  V30 3805 C 379.777 5.81929 2.60071 0
M  V30 3806 C 377.464 5.2963 3.04853 0
M  V30 3807 C 378.462 6.23282 2.793 0
M  V30 3808 O 378.15 7.56181 2.72847 0
M  V30 3809 H 377.882 0.448539 0.505756 0
M  V30 3810 H 380.436 1.77811 1.02822 0
M  V30 3811 H 378.666 1.49345 3.56697 0
M  V30 3812 H 380.355 1.91211 3.58041 0
M  V30 3813 H 381.121 4.15168 2.5072 0
M  V30 3814 H 377 3.21749 3.30149 0
M  V30 3815 H 380.544 6.54999 2.40046 0
M  V30 3816 H 376.441 5.60727 3.19774 0
M  V30 3817 H 377.209 7.6595 2.88553 0
M  V30 3818 N 379.872 -1.04064 1.18357 0
M  V30 3819 C 381.12 -1.76915 0.977013 0
M  V30 3820 C 381.441 -1.88624 -0.494577 0
M  V30 3821 O 380.711 -1.41125 -1.3587 0
M  V30 3822 H 379.291 -0.65535 0.358504 0
M  V30 3823 H 381.953 -1.25592 1.49039 0
M  V30 3824 H 381.049 -2.78178 1.41504 0
M  V30 3825 N 381.35 -0.985608 -1.22978 0
M  V30 3826 C 382.282 -0.488154 -2.23941 0
M  V30 3827 C 383.295 0.41282 -1.57479 0
M  V30 3828 O 384.484 0.216121 -1.77187 0
M  V30 3829 C 381.584 0.312611 -3.37455 0
M  V30 3830 C 380.757 -0.582741 -4.33501 0
M  V30 3831 C 379.816 0.165064 -5.25941 0
M  V30 3832 O 378.842 -0.447077 -5.67442 0
M  V30 3833 N 380.044 1.44953 -5.62111 0
M  V30 3834 H 382.809 -1.3563 -2.67254 0
M  V30 3835 H 380.37 -0.859477 -1.37203 0
M  V30 3836 H 382.362 0.821357 -3.96277 0
M  V30 3837 H 380.932 1.0818 -2.93285 0
M  V30 3838 H 380.152 -1.27225 -3.73105 0
M  V30 3839 H 381.44 -1.19275 -4.94622 0
M  V30 3840 H 380.838 1.9683 -5.30353 0
M  V30 3841 H 379.395 1.90361 -6.23383 0
M  V30 3842 N 382.828 1.3818 -0.7579 0
M  V30 3843 C 383.778 2.27741 -0.108674 0
M  V30 3844 C 384.762 1.45415 0.688709 0
M  V30 3845 O 385.954 1.68108 0.553956 0
M  V30 3846 C 383.083 3.34313 0.780367 0
M  V30 3847 C 382.169 4.24093 -0.0240977 0
M  V30 3848 N 382.56 4.9451 -1.06271 0
M  V30 3849 C 380.858 4.45542 0.202049 0
M  V30 3850 C 381.559 5.60675 -1.54979 0
M  V30 3851 N 380.535 5.36684 -0.864348 0
M  V30 3852 H 384.337 2.79649 -0.904071 0
M  V30 3853 H 381.851 1.51133 -0.594346 0
M  V30 3854 H 383.848 3.97368 1.26114 0
M  V30 3855 H 382.508 2.83962 1.57467 0
M  V30 3856 H 383.519 4.97345 -1.44459 0
M  V30 3857 H 380.196 4.06091 0.96935 0
M  V30 3858 H 381.586 6.26992 -2.41517 0
M  V30 3859 N 384.306 0.507319 1.49211 0
M  V30 3860 C 385.554 -0.0348839 2.0207 0
M  V30 3861 C 385.875 -1.36898 1.38866 0
M  V30 3862 O 385.145 -1.88133 0.546151 0
M  V30 3863 H 383.725 -0.0158812 0.746831 0
M  V30 3864 H 386.387 0.665998 1.83168 0
M  V30 3865 H 385.483 -0.159917 3.1169 0
M  V30 3866 N 385.784 -1.5574 0.241426 0
M  V30 3867 C 387.009 -2.0366 -0.392111 0
M  V30 3868 C 387.434 -1.11969 -1.51144 0
M  V30 3869 O 386.792 -0.111594 -1.80956 0
M  V30 3870 C 386.84 -3.49638 -0.882371 0
M  V30 3871 O 385.944 -3.6108 -1.99235 0
M  V30 3872 H 385.285 -0.658379 -0.0862122 0
M  V30 3873 H 387.815 -2.01302 0.365881 0
M  V30 3874 H 387.825 -3.90351 -1.18702 0
M  V30 3875 H 386.5 -4.15852 -0.0632361 0
M  V30 3876 H 385.077 -3.32262 -1.69282 0
M  V30 3877 N 387.262 0.0317525 -1.57568 0
M  V30 3878 C 388.678 0.38735 -1.54828 0
M  V30 3879 C 388.878 1.7677 -0.967187 0
M  V30 3880 O 387.934 2.45581 -0.587063 0
M  V30 3881 C 389.247 0.291667 -2.99282 0
M  V30 3882 C 390.795 0.368946 -3.10818 0
M  V30 3883 C 391.27 0.302741 -4.56998 0
M  V30 3884 N 392.761 0.361617 -4.61786 0
M  V30 3885 C 393.496 0.333238 -5.72431 0
M  V30 3886 N 392.992 0.257308 -6.92322 0
M  V30 3887 N 394.785 0.382769 -5.60795 0
M  V30 3888 H 386.936 -0.871609 -1.93692 0
M  V30 3889 H 389.199 -0.331161 -0.888277 0
M  V30 3890 H 388.905 -0.656794 -3.45513 0
M  V30 3891 H 388.779 1.08638 -3.61217 0
M  V30 3892 H 391.166 1.30784 -2.64536 0
M  V30 3893 H 391.247 -0.455066 -2.5172 0
M  V30 3894 H 390.891 -0.632473 -5.03947 0
M  V30 3895 H 390.821 1.14482 -5.14005 0
M  V30 3896 H 393.312 0.422923 -3.75526 0
M  V30 3897 H 393.625 0.24068 -7.72425 0
M  V30 3898 H 391.97 0.223396 -6.94641 0
M  V30 3899 H 395.161 0.44006 -4.66027 0
M  V30 3900 H 395.334 0.357184 -6.47015 0
M  V30 3901 N 388.74 1.54641 0.303973 0
M  V30 3902 C 389.965 1.78092 1.06292 0
M  V30 3903 C 390.39 0.537342 1.80262 0
M  V30 3904 O 389.748 -0.511993 1.7392 0
M  V30 3905 C 389.796 2.98612 2.02147 0
M  V30 3906 O 388.9 2.71528 3.10397 0
M  V30 3907 H 388.241 0.589548 0.305497 0
M  V30 3908 H 390.771 2.01716 0.3423 0
M  V30 3909 H 390.781 3.265 2.44667 0
M  V30 3910 H 389.456 3.88785 1.47714 0
M  V30 3911 H 388.033 2.54648 2.72413 0
M  V30 3912 N 390.218 -0.567019 1.47046 0
M  V30 3913 C 391.466 -1.322 1.52864 0
M  V30 3914 C 391.787 -1.94088 0.188388 0
M  V30 3915 O 391.057 -1.7941 -0.786693 0
M  V30 3916 H 389.637 -0.490894 0.563056 0
M  V30 3917 H 392.299 -0.662879 1.83281 0
M  V30 3918 H 391.395 -2.12062 2.2899 0
M  V30 3919 N 391.696 -1.35014 -0.812953 0
M  V30 3920 C 392.628 -1.23262 -1.93233 0
M  V30 3921 C 393.641 -0.157371 -1.62038 0
M  V30 3922 O 394.83 -0.410096 -1.73725 0
M  V30 3923 C 391.93 -0.87392 -3.27438 0
M  V30 3924 C 391.103 -2.04622 -3.86586 0
M  V30 3925 C 390.162 -1.66432 -4.99186 0
M  V30 3926 O 389.188 -2.38222 -5.16951 0
M  V30 3927 N 390.39 -0.584248 -5.77552 0
M  V30 3928 H 393.155 -2.19699 -2.03844 0
M  V30 3929 H 390.716 -1.281 -0.99005 0
M  V30 3930 H 392.708 -0.600039 -4.00227 0
M  V30 3931 H 391.278 0.00057392 -3.126 0
M  V30 3932 H 390.498 -2.48427 -3.06068 0
M  V30 3933 H 391.786 -2.82999 -4.22835 0
M  V30 3934 H 391.184 0.0123526 -5.65699 0
M  V30 3935 H 389.741 -0.37013 -6.50748 0
M  V30 3936 N 393.175 1.03435 -1.18907 0
M  V30 3937 C 394.4 1.80919 -1.01406 0
M  V30 3938 C 394.825 1.83055 0.432721 0
M  V30 3939 O 394.183 1.25252 1.31079 0
M  V30 3940 C 394.231 3.24091 -1.58105 0
M  V30 3941 O 393.335 4.04434 -0.806669 0
M  V30 3942 H 392.676 0.558709 -0.358803 0
M  V30 3943 H 395.206 1.30223 -1.57807 0
M  V30 3944 H 395.216 3.74853 -1.61087 0
M  V30 3945 H 393.891 3.21851 -2.6341 0
M  V30 3946 H 392.468 3.63091 -0.849666 0
M  V30 3947 N 394.653 0.992116 1.22453 0
M  V30 3948 C 395.878 0.685644 1.95739 0
M  V30 3949 C 396.303 -0.743 1.72804 0
M  V30 3950 O 395.661 -1.50778 1.00676 0
M  V30 3951 C 395.709 0.996293 3.46564 0
M  V30 3952 O 394.813 0.0945512 4.12292 0
M  V30 3953 H 394.154 0.256694 0.612376 0
M  V30 3954 H 396.684 1.32888 1.5557 0
M  V30 3955 H 396.694 0.93781 3.97076 0
M  V30 3956 H 395.369 2.03733 3.62582 0
M  V30 3957 H 393.946 0.208451 3.72317 0
M  V30 3958 N 396.131 -1.37776 0.765217 0
M  V30 3959 C 397.547 -1.53297 0.444108 0
M  V30 3960 C 397.747 -1.72515 -1.04119 0
M  V30 3961 O 396.803 -1.74278 -1.82711 0
M  V30 3962 C 398.116 -2.73328 1.25349 0
M  V30 3963 C 399.664 -2.87185 1.24473 0
M  V30 3964 C 400.139 -4.10191 2.03733 0
M  V30 3965 N 401.63 -4.17291 2.01053 0
M  V30 3966 C 402.365 -5.11488 2.59166 0
M  V30 3967 N 401.861 -6.11285 3.26041 0
M  V30 3968 N 403.654 -5.03924 2.49032 0
M  V30 3969 H 395.805 -1.23552 1.72768 0
M  V30 3970 H 398.068 -0.601103 0.733062 0
M  V30 3971 H 397.774 -2.6557 2.30577 0
M  V30 3972 H 397.648 -3.66834 0.87823 0
M  V30 3973 H 400.035 -2.94418 0.20047 0
M  V30 3974 H 400.116 -1.94657 1.65959 0
M  V30 3975 H 399.76 -4.0372 3.08176 0
M  V30 3976 H 399.69 -5.01821 1.59633 0
M  V30 3977 H 402.181 -3.45825 1.5236 0
M  V30 3978 H 402.494 -6.79678 3.67774 0
M  V30 3979 H 400.839 -6.11583 3.30138 0
M  V30 3980 H 404.03 -4.24902 1.96407 0
M  V30 3981 H 404.203 -5.77152 2.94617 0
M  V30 3982 N 397.609 -0.515225 -1.4894 0
M  V30 3983 C 398.857 0.0241671 -2.02086 0
M  V30 3984 C 399.178 1.3616 -1.3959 0
M  V30 3985 O 398.448 1.87841 -0.556121 0
M  V30 3986 H 397.028 0.0119203 -0.746905 0
M  V30 3987 H 399.69 -0.675702 -1.82812 0
M  V30 3988 H 398.786 0.143385 -3.1177 0
M  V30 3989 N 399.087 1.5561 -0.249682 0
M  V30 3990 C 399.997 2.25143 0.659375 0
M  V30 3991 C 401.013 1.2685 1.19101 0
M  V30 3992 O 402.189 1.59732 1.22669 0
M  V30 3993 C 399.254 2.93945 1.8384 0
M  V30 3994 C 398.315 4.07655 1.34596 0
M  V30 3995 C 397.548 4.73167 2.46878 0
M  V30 3996 O 397.771 4.37768 3.65671 0
M  V30 3997 O 396.705 5.61623 2.16478 0
M  V30 3998 H 400.531 3.03545 0.0968698 0
M  V30 3999 H 398.116 1.49389 -0.018074 0
M  V30 4000 H 399.998 3.37271 2.52638 0
M  V30 4001 H 398.673 2.18481 2.38847 0
M  V30 4002 H 397.58 3.68839 0.625174 0
M  V30 4003 H 398.913 4.84946 0.841941 0
M  V30 4004 N 400.565 -0.0233959 1.57583 0
M  V30 4005 C 401.981 -0.379134 1.55031 0
M  V30 4006 C 402.181 -1.76255 0.976548 0
M  V30 4007 O 401.237 -2.45266 0.600078 0
M  V30 4008 C 402.55 -0.275792 2.99433 0
M  V30 4009 C 404.098 -0.352458 3.11009 0
M  V30 4010 C 404.573 -0.278501 4.57152 0
M  V30 4011 N 406.064 -0.337123 4.61972 0
M  V30 4012 C 406.799 -0.302876 5.726 0
M  V30 4013 N 406.295 -0.220589 6.92449 0
M  V30 4014 N 408.088 -0.353023 5.6099 0
M  V30 4015 H 400.239 0.881869 1.93227 0
M  V30 4016 H 402.502 0.335867 0.886509 0
M  V30 4017 H 402.208 0.675108 3.4516 0
M  V30 4018 H 402.082 -1.06721 3.61788 0
M  V30 4019 H 404.469 -1.29379 2.65226 0
M  V30 4020 H 404.55 0.468409 2.51475 0
M  V30 4021 H 404.194 0.659189 5.03604 0
M  V30 4022 H 404.124 -1.11755 5.14605 0
M  V30 4023 H 406.615 -0.403002 3.75745 0
M  V30 4024 H 406.928 -0.199713 7.72542 0
M  V30 4025 H 405.273 -0.186555 6.9475 0
M  V30 4026 H 408.464 -0.415339 4.66254 0
M  V30 4027 H 408.637 -0.322866 6.47195 0
M  V30 4028 N 402.043 -1.548 -0.295768 0
M  V30 4029 C 402.993 -1.82497 -1.3667 0
M  V30 4030 C 403.977 -0.682434 -1.45711 0
M  V30 4031 O 405.169 -0.943207 -1.49775 0
M  V30 4032 C 402.298 -2.08036 -2.73086 0
M  V30 4033 C 401.384 -3.28488 -2.68247 0
M  V30 4034 N 401.775 -4.48924 -2.33025 0
M  V30 4035 C 400.073 -3.3062 -2.99343 0
M  V30 4036 C 400.774 -5.30956 -2.37613 0
M  V30 4037 N 399.75 -4.68805 -2.75178 0
M  V30 4038 H 403.552 -2.73175 -1.0841 0
M  V30 4039 H 401.066 -1.5437 -0.504361 0
M  V30 4040 H 403.063 -2.26027 -3.5031 0
M  V30 4041 H 401.723 -1.18629 -3.02254 0
M  V30 4042 H 402.734 -4.75432 -2.05389 0
M  V30 4043 H 399.411 -2.51336 -3.33371 0
M  V30 4044 H 400.801 -6.37199 -2.13135 0
M  V30 4045 N 403.521 0.559213 -1.47345 0
M  V30 4046 C 404.937 0.884943 -1.32819 0
M  V30 4047 C 405.137 1.98988 -0.317173 0
M  V30 4048 O 404.193 2.51031 0.272011 0
M  V30 4049 C 405.506 1.28007 -2.72093 0
M  V30 4050 C 407.054 1.39161 -2.80363 0
M  V30 4051 C 407.529 1.82031 -4.20272 0
M  V30 4052 N 409.02 1.89185 -4.22804 0
M  V30 4053 C 409.755 2.2368 -5.27973 0
M  V30 4054 N 409.251 2.56802 -6.43447 0
M  V30 4055 N 411.044 2.24436 -5.15349 0
M  V30 4056 H 403.195 -0.170304 -2.11716 0
M  V30 4057 H 405.458 -0.0135247 -0.947904 0
M  V30 4058 H 405.164 0.542027 -3.47498 0
M  V30 4059 H 405.038 2.23665 -3.03733 0
M  V30 4060 H 407.425 2.12048 -2.05231 0
M  V30 4061 H 407.506 0.41696 -2.52379 0
M  V30 4062 H 407.15 1.09715 -4.95908 0
M  V30 4063 H 407.08 2.80495 -4.45679 0
M  V30 4064 H 409.571 1.65982 -3.39497 0
M  V30 4065 H 409.884 2.82144 -7.19454 0
M  V30 4066 H 408.229 2.54387 -6.46771 0
M  V30 4067 H 411.42 1.97998 -4.24163 0
M  V30 4068 H 411.593 2.50989 -5.97418 0
M  V30 4069 N 404.999 1.35443 0.805782 0
M  V30 4070 C 406.224 1.32037 1.59941 0
M  V30 4071 C 406.649 -0.0994215 1.87837 0
M  V30 4072 O 406.007 -1.06648 1.46615 0
M  V30 4073 C 406.055 2.13354 2.90711 0
M  V30 4074 O 405.159 1.5148 3.83572 0
M  V30 4075 H 404.5 0.452666 0.485787 0
M  V30 4076 H 407.03 1.78496 1.00002 0
M  V30 4077 H 407.04 2.25338 3.40128 0
M  V30 4078 H 405.715 3.16572 2.69732 0
M  V30 4079 H 404.292 1.4834 3.42125 0
M  V30 4080 N 406.477 -1.02803 1.19454 0
M  V30 4081 C 407.702 -1.80378 1.02364 0
M  V30 4082 C 408.127 -1.83282 -0.423007 0
M  V30 4083 O 407.485 -1.25945 -1.30413 0
M  V30 4084 C 407.533 -3.23248 1.59821 0
M  V30 4085 O 406.637 -4.04 0.828105 0
M  V30 4086 H 405.978 -0.556799 0.361761 0
M  V30 4087 H 408.508 -1.29385 1.58495 0
M  V30 4088 H 408.518 -3.73994 1.63073 0
M  V30 4089 H 407.193 -3.2045 2.65113 0
M  V30 4090 H 405.77 -3.62635 0.86891 0
M  V30 4091 N 407.956 -0.998596 -1.21925 0
M  V30 4092 C 409.181 -0.696015 -1.95372 0
M  V30 4093 C 409.606 0.733826 -1.73195 0
M  V30 4094 O 408.964 1.50242 -1.01474 0
M  V30 4095 C 409.012 -1.01466 -3.4603 0
M  V30 4096 O 408.116 -0.116415 -4.12236 0
M  V30 4097 H 407.457 -0.259938 -0.611006 0
M  V30 4098 H 409.987 -1.33711 -1.54863 0
M  V30 4099 H 409.997 -0.958855 -3.96573 0
M  V30 4100 H 408.672 -2.05653 -3.61497 0
M  V30 4101 H 407.249 -0.228193 -3.72201 0
M  V30 4102 N 409.434 1.37368 -0.772513 0
M  V30 4103 C 410.682 1.99279 -0.336516 0
M  V30 4104 C 411.003 1.6163 1.09091 0
M  V30 4105 O 410.273 0.882109 1.74916 0
M  V30 4106 H 408.853 0.737063 -0.121435 0
M  V30 4107 H 411.515 1.67836 -0.990809 0
M  V30 4108 H 410.611 3.09332 -0.414763 0
M  V30 4109 N 410.912 0.523116 1.48665 0
M  V30 4110 C 412.137 -0.0117284 2.07397 0
M  V30 4111 C 412.562 -1.28031 1.37803 0
M  V30 4112 O 411.92 -1.75836 0.441762 0
M  V30 4113 C 411.968 -0.225786 3.59892 0
M  V30 4114 O 411.072 -1.29592 3.91509 0
M  V30 4115 H 410.413 0.0360673 0.66302 0
M  V30 4116 H 412.943 0.729066 1.9117 0
M  V30 4117 H 412.953 -0.450552 4.05505 0
M  V30 4118 H 411.628 0.700944 4.09951 0
M  V30 4119 H 410.205 -1.05436 3.57684 0
M  V30 4120 N 412.39 -1.55475 0.257931 0
M  V30 4121 C 413.615 -2.04064 -0.370488 0
M  V30 4122 C 414.04 -1.13565 -1.49948 0
M  V30 4123 O 413.398 -0.130781 -1.80828 0
M  V30 4124 C 413.446 -3.50554 -0.845237 0
M  V30 4125 O 412.55 -3.63173 -1.95394 0
M  V30 4126 H 411.891 -0.659257 -0.0792243 0
M  V30 4127 H 414.421 -2.00903 0.387212 0
M  V30 4128 H 414.431 -3.91588 -1.14555 0
M  V30 4129 H 413.106 -4.15896 -0.0191259 0
M  V30 4130 H 411.683 -3.34039 -1.65748 0
M  V30 4131 N 413.868 0.0150385 -1.57593 0
M  V30 4132 C 415.093 0.718067 -1.94573 0
M  V30 4133 C 415.518 1.6734 -0.859005 0
M  V30 4134 O 414.876 1.80362 0.184147 0
M  V30 4135 C 414.924 1.43918 -3.30636 0
M  V30 4136 O 414.028 2.55299 -3.23876 0
M  V30 4137 H 413.369 0.192125 -0.635597 0
M  V30 4138 H 415.899 -0.0336708 -2.04572 0
M  V30 4139 H 415.909 1.80598 -3.65853 0
M  V30 4140 H 414.584 0.738619 -4.09289 0
M  V30 4141 H 413.161 2.21058 -3.00312 0
M  V30 4142 N 415.346 1.54954 0.287554 0
M  V30 4143 C 416.571 1.79209 1.04397 0
M  V30 4144 C 416.996 0.556431 1.79682 0
M  V30 4145 O 416.354 -0.493518 1.74454 0
M  V30 4146 C 416.402 3.00739 1.98969 0
M  V30 4147 O 415.506 2.74805 3.075 0
M  V30 4148 H 414.847 0.592755 0.299227 0
M  V30 4149 H 417.377 2.02068 0.320886 0
M  V30 4150 H 417.387 3.29077 2.4119 0
M  V30 4151 H 416.062 3.90329 1.43582 0
M  V30 4152 H 414.639 2.57523 2.69697 0
M  V30 4153 N 416.824 -0.551391 1.4764 0
M  V30 4154 C 418.054 -1.33163 1.57959 0
M  V30 4155 C 418.462 -1.87785 0.23094 0
M  V30 4156 O 417.805 -1.65996 -0.786825 0
M  V30 4157 C 417.867 -2.53449 2.54958 0
M  V30 4158 C 417.531 -2.20071 4.00522 0
M  V30 4159 C 418.528 -1.77017 4.88836 0
M  V30 4160 C 416.213 -2.31252 4.45901 0
M  V30 4161 C 418.207 -1.4558 6.20552 0
M  V30 4162 C 415.894 -1.99427 5.77644 0
M  V30 4163 C 416.892 -1.56659 6.64791 0
M  V30 4164 O 416.58 -1.25242 7.94084 0
M  V30 4165 H 416.312 -0.412022 0.535923 0
M  V30 4166 H 418.866 -0.674186 1.9402 0
M  V30 4167 H 417.096 -3.22104 2.13976 0
M  V30 4168 H 418.785 -3.15523 2.55343 0
M  V30 4169 H 419.551 -1.67867 4.55023 0
M  V30 4170 H 415.43 -2.63498 3.78272 0
M  V30 4171 H 418.974 -1.12125 6.8853 0
M  V30 4172 H 414.871 -2.08211 6.10998 0
M  V30 4173 H 415.639 -1.38822 8.06642 0
M  V30 4174 N 418.302 -1.35869 -0.798587 0
M  V30 4175 C 419.55 -1.29332 -1.55298 0
M  V30 4176 C 419.871 0.129729 -1.94568 0
M  V30 4177 O 419.141 1.06796 -1.6423 0
M  V30 4178 H 417.721 -0.475737 -0.57592 0
M  V30 4179 H 420.383 -1.70062 -0.952093 0
M  V30 4180 H 419.479 -1.91458 -2.46476 0
M  V30 4181 N 419.78 1.02168 -1.19998 0
M  V30 4182 C 420.712 2.10705 -0.901994 0
M  V30 4183 C 421.725 1.6244 0.108216 0
M  V30 4184 O 422.914 1.78082 -0.12214 0
M  V30 4185 C 420.014 3.37291 -0.329834 0
M  V30 4186 C 419.187 4.14714 -1.39035 0
M  V30 4187 C 418.246 5.19606 -0.830432 0
M  V30 4188 O 417.272 5.48809 -1.50989 0
M  V30 4189 N 418.474 5.79366 0.362696 0
M  V30 4190 H 421.239 2.36856 -1.83628 0
M  V30 4191 H 418.8 1.18518 -1.10296 0
M  V30 4192 H 420.792 4.04657 0.0587633 0
M  V30 4193 H 419.362 3.0843 0.508891 0
M  V30 4194 H 418.582 3.42392 -1.9535 0
M  V30 4195 H 419.87 4.63226 -2.10474 0
M  V30 4196 H 419.268 5.57968 0.932081 0
M  V30 4197 H 417.825 6.48106 0.69299 0
M  V30 4198 N 421.258 1.00505 1.21394 0
M  V30 4199 C 422.208 0.536503 2.21598 0
M  V30 4200 C 423.192 -0.401914 1.55799 0
M  V30 4201 O 424.384 -0.226757 1.75541 0
M  V30 4202 C 421.513 -0.135446 3.43033 0
M  V30 4203 C 420.599 0.823992 4.16018 0
M  V30 4204 N 420.99 1.97683 4.6557 0
M  V30 4205 C 419.288 0.642387 4.4135 0
M  V30 4206 C 419.989 2.58003 5.21354 0
M  V30 4207 N 418.965 1.86162 5.1073 0
M  V30 4208 H 422.767 1.41557 2.57563 0
M  V30 4209 H 420.281 0.868878 1.37202 0
M  V30 4210 H 422.278 -0.488584 4.14027 0
M  V30 4211 H 420.938 -1.01049 3.08576 0
M  V30 4212 H 421.949 2.3572 4.61147 0
M  V30 4213 H 418.626 -0.185578 4.17087 0
M  V30 4214 H 420.016 3.555 5.70149 0
M  V30 4215 N 422.737 -1.36956 0.779787 0
M  V30 4216 C 423.985 -1.99097 0.347079 0
M  V30 4217 C 424.306 -1.62206 -1.08232 0
M  V30 4218 O 423.576 -0.891373 -1.74446 0
M  V30 4219 H 422.156 -0.736409 0.125342 0
M  V30 4220 H 424.818 -1.67308 0.999696 0
M  V30 4221 H 423.914 -3.09107 0.431162 0
M  V30 4222 N 424.215 -0.530993 -1.48385 0
M  V30 4223 C 425.44 0.000729535 -2.074 0
M  V30 4224 C 425.865 1.27298 -1.3848 0
M  V30 4225 O 425.223 1.75599 -0.451081 0
M  V30 4226 C 425.271 0.206697 -3.60007 0
M  V30 4227 O 424.375 1.27514 -3.92191 0
M  V30 4228 H 423.716 -0.039583 -0.662819 0
M  V30 4229 H 426.246 -0.739194 -1.9078 0
M  V30 4230 H 426.256 0.42904 -4.05738 0
M  V30 4231 H 424.931 -0.722675 -4.09573 0
M  V30 4232 H 423.508 1.03537 -3.58238 0
M  V30 4233 N 425.693 1.55336 -0.266172 0
M  V30 4234 C 426.941 1.99003 0.35246 0
M  V30 4235 C 427.262 1.15591 1.57047 0
M  V30 4236 O 426.532 0.243268 1.94384 0
M  V30 4237 H 425.112 0.735025 0.133217 0
M  V30 4238 H 427.774 1.91367 -0.369434 0
M  V30 4239 H 426.87 3.05289 0.648453 0
M  V30 4240 N 427.171 -0.0066808 1.57599 0
M  V30 4241 C 428.396 -0.707738 1.94951 0
M  V30 4242 C 428.821 -1.66882 0.867868 0
M  V30 4243 O 428.179 -1.80457 -0.17458 0
M  V30 4244 C 428.227 -1.42162 3.31394 0
M  V30 4245 O 427.331 -2.53578 3.25226 0
M  V30 4246 H 426.672 -0.188752 0.636607 0
M  V30 4247 H 429.202 0.0445193 2.04552 0
M  V30 4248 H 429.212 -1.78655 3.66806 0
M  V30 4249 H 427.887 -0.716903 4.09675 0
M  V30 4250 H 426.464 -2.19463 3.01481 0
M  V30 4251 N 428.649 -1.55105 -0.279332 0
M  V30 4252 C 430.065 -1.46803 -0.626187 0
M  V30 4253 C 430.265 -0.676939 -1.89789 0
M  V30 4254 O 429.321 -0.19326 -2.51759 0
M  V30 4255 C 430.634 -2.90962 -0.759034 0
M  V30 4256 C 432.182 -3.01138 -0.853504 0
M  V30 4257 C 432.657 -4.46539 -1.01818 0
M  V30 4258 N 434.148 -4.50341 -1.08386 0
M  V30 4259 C 434.883 -5.60053 -1.22996 0
M  V30 4260 N 434.379 -6.79645 -1.34366 0
M  V30 4261 N 436.172 -5.47783 -1.26056 0
M  V30 4262 H 428.323 -2.04996 0.555921 0
M  V30 4263 H 430.586 -0.929325 0.187239 0
M  V30 4264 H 430.292 -3.51544 0.104852 0
M  V30 4265 H 430.166 -3.39619 -1.64131 0
M  V30 4266 H 432.553 -2.40658 -1.70786 0
M  V30 4267 H 432.634 -2.55745 0.0532466 0
M  V30 4268 H 432.278 -5.0762 -0.168504 0
M  V30 4269 H 432.208 -4.89583 -1.93948 0
M  V30 4270 H 434.699 -3.64191 -1.00864 0
M  V30 4271 H 435.012 -7.59012 -1.4533 0
M  V30 4272 H 433.357 -6.82469 -1.31382 0
M  V30 4273 H 436.548 -4.53294 -1.168 0
M  V30 4274 H 436.721 -6.33331 -1.37098 0
M  V30 4275 N 430.127 0.543554 -1.4793 0
M  V30 4276 C 431.059 1.665 -1.57513 0
M  V30 4277 C 432.072 1.56156 -0.460333 0
M  V30 4278 O 433.261 1.62865 -0.730573 0
M  V30 4279 C 430.361 3.05063 -1.47614 0
M  V30 4280 C 429.534 3.41024 -2.739 0
M  V30 4281 C 428.593 4.58809 -2.57645 0
M  V30 4282 O 427.619 4.62707 -3.31498 0
M  V30 4283 N 428.821 5.56149 -1.66368 0
M  V30 4284 H 431.586 1.5872 -2.5422 0
M  V30 4285 H 429.147 0.730517 -1.44482 0
M  V30 4286 H 431.139 3.81712 -1.34455 0
M  V30 4287 H 429.709 3.06994 -0.589359 0
M  V30 4288 H 428.929 2.53687 -3.01723 0
M  V30 4289 H 430.217 3.61831 -3.57709 0
M  V30 4290 H 429.615 5.55767 -1.05543 0
M  V30 4291 H 428.172 6.32071 -1.59154 0
M  V30 4292 N 431.605 1.3629 0.791371 0
M  V30 4293 C 432.83 1.33726 1.58531 0
M  V30 4294 C 433.255 -0.0794933 1.87932 0
M  V30 4295 O 432.613 -1.05087 1.47738 0
M  V30 4296 C 432.661 2.16425 2.88431 0
M  V30 4297 O 431.765 1.5554 3.81944 0
M  V30 4298 H 431.106 0.457793 0.480959 0
M  V30 4299 H 433.636 1.79547 0.981031 0
M  V30 4300 H 433.646 2.28933 3.37718 0
M  V30 4301 H 432.321 3.19415 2.66359 0
M  V30 4302 H 430.898 1.51961 3.40532 0
M  V30 4303 N 433.083 -1.0153 1.20538 0
M  V30 4304 C 434.013 -2.11972 0.979295 0
M  V30 4305 C 434.994 -1.6985 -0.0921787 0
M  V30 4306 O 436.179 -1.94089 0.0655932 0
M  V30 4307 C 433.309 -3.43201 0.531984 0
M  V30 4308 C 432.263 -3.9907 1.54685 0
M  V30 4309 C 431.589 -5.26082 0.956127 0
M  V30 4310 C 432.889 -4.32313 2.93092 0
M  V30 4311 H 434.583 -2.31143 1.90298 0
M  V30 4312 H 432.129 -1.11079 0.916372 0
M  V30 4313 H 434.082 -4.1985 0.361044 0
M  V30 4314 H 432.806 -3.23792 -0.427327 0
M  V30 4315 H 431.465 -3.2453 1.70517 0
M  V30 4316 H 431.113 -5.02999 -0.0111538 0
M  V30 4317 H 430.813 -5.64426 1.63393 0
M  V30 4318 H 432.337 -6.05386 0.796284 0
M  V30 4319 H 433.751 -4.99845 2.80763 0
M  V30 4320 H 432.148 -4.81774 3.57791 0
M  V30 4321 H 433.218 -3.41025 3.44717 0
M  V30 4322 N 434.561 -1.01147 -1.20859 0
M  V30 4323 C 435.809 -0.696486 -1.89719 0
M  V30 4324 C 436.13 0.775788 -1.78904 0
M  V30 4325 O 435.4 1.55759 -1.18811 0
M  V30 4326 H 433.98 -0.254628 -0.702263 0
M  V30 4327 H 436.642 -1.28197 -1.46804 0
M  V30 4328 H 435.738 -0.975357 -2.96468 0
M  V30 4329 N 436.039 1.36541 -0.78704 0
M  V30 4330 C 436.989 2.27459 -0.156957 0
M  V30 4331 C 437.973 1.46843 0.657709 0
M  V30 4332 O 439.165 1.69245 0.518173 0
M  V30 4333 C 436.294 3.35893 0.709278 0
M  V30 4334 C 435.38 4.23947 -0.114049 0
M  V30 4335 N 435.771 4.92145 -1.16736 0
M  V30 4336 C 434.069 4.4587 0.107497 0
M  V30 4337 C 434.77 5.57261 -1.66837 0
M  V30 4338 N 433.746 5.3473 -0.977992 0
M  V30 4339 H 437.548 2.77669 -0.963185 0
M  V30 4340 H 435.062 1.49839 -0.62627 0
M  V30 4341 H 437.059 3.99953 1.17656 0
M  V30 4342 H 435.719 2.87238 1.51408 0
M  V30 4343 H 436.73 4.94169 -1.54976 0
M  V30 4344 H 433.407 4.08056 0.882994 0
M  V30 4345 H 434.797 6.21728 -2.54762 0
M  V30 4346 N 437.518 0.538854 1.48102 0
M  V30 4347 C 438.766 0.00798599 2.02098 0
M  V30 4348 C 439.087 -1.33922 1.41739 0
M  V30 4349 O 438.357 -1.86932 0.585934 0
M  V30 4350 H 436.937 -3.62179e-05 0.747 0
M  V30 4351 H 439.599 0.7047 1.81714 0
M  V30 4352 H 438.695 -0.0937672 3.11959 0
M  V30 4353 N 438.996 -1.55193 0.274407 0
M  V30 4354 C 440.412 -1.59401 -0.0797543 0
M  V30 4355 C 440.612 -1.29162 -1.54659 0
M  V30 4356 O 439.668 -1.05215 -2.29534 0
M  V30 4357 C 440.981 -2.99257 0.294238 0
M  V30 4358 C 442.529 -3.12072 0.240796 0
M  V30 4359 C 443.004 -4.54194 0.589218 0
M  V30 4360 N 444.495 -4.60033 0.540744 0
M  V30 4361 C 445.23 -5.68027 0.783147 0
M  V30 4362 N 444.726 -6.8417 1.09013 0
M  V30 4363 N 446.519 -5.57572 0.711993 0
M  V30 4364 H 438.67 -1.73113 1.23067 0
M  V30 4365 H 440.933 -0.807197 0.497129 0
M  V30 4366 H 440.639 -3.26217 1.31435 0
M  V30 4367 H 440.513 -3.75427 -0.365281 0
M  V30 4368 H 442.9 -2.84877 -0.770024 0
M  V30 4369 H 442.981 -2.38117 0.934563 0
M  V30 4370 H 442.625 -4.82115 1.59772 0
M  V30 4371 H 442.555 -5.26448 -0.126331 0
M  V30 4372 H 445.046 -3.76599 0.313327 0
M  V30 4373 H 445.359 -7.6243 1.26178 0
M  V30 4374 H 443.704 -6.85787 1.12789 0
M  V30 4375 H 446.895 -4.65714 0.472014 0
M  V30 4376 H 447.068 -6.41659 0.90429 0
M  V30 4377 N 440.474 -0.00167713 -1.576 0
M  V30 4378 C 441.406 1.0174 -2.05382 0
M  V30 4379 C 442.419 1.30595 -0.972052 0
M  V30 4380 O 443.608 1.27542 -1.24882 0
M  V30 4381 C 440.708 2.35174 -2.44022 0
M  V30 4382 C 439.881 2.25234 -3.74951 0
M  V30 4383 C 438.94 3.4137 -4.00441 0
M  V30 4384 O 437.966 3.19483 -4.71083 0
M  V30 4385 N 439.168 4.64275 -3.48467 0
M  V30 4386 H 441.933 0.609902 -2.93428 0
M  V30 4387 H 439.494 0.185672 -1.60832 0
M  V30 4388 H 441.486 3.11643 -2.58187 0
M  V30 4389 H 440.056 2.67659 -1.61485 0
M  V30 4390 H 439.276 1.33664 -3.70847 0
M  V30 4391 H 440.564 2.15767 -4.60784 0
M  V30 4392 H 439.962 4.84955 -2.91264 0
M  V30 4393 H 438.519 5.38005 -3.67959 0
M  V30 4394 N 441.952 1.55251 0.271103 0
M  V30 4395 C 443.2 1.75599 1.00047 0
M  V30 4396 C 443.521 0.561188 1.8675 0
M  V30 4397 O 442.791 -0.423846 1.9126 0
M  V30 4398 H 441.371 0.647562 0.372387 0
M  V30 4399 H 444.033 1.92656 0.294876 0
M  V30 4400 H 443.129 2.65766 1.6363 0
M  V30 4401 N 443.43 -0.535701 1.48216 0
M  V30 4402 C 444.655 -1.32149 1.59848 0
M  V30 4403 C 445.08 -1.86338 0.256842 0
M  V30 4404 O 444.438 -1.64107 -0.770632 0
M  V30 4405 C 444.486 -2.45224 2.64381 0
M  V30 4406 O 443.59 -3.48093 2.21144 0
M  V30 4407 H 442.931 -0.391634 0.536208 0
M  V30 4408 H 445.461 -0.645202 1.94161 0
M  V30 4409 H 445.471 -2.91491 2.85476 0
M  V30 4410 H 444.146 -2.05143 3.61786 0
M  V30 4411 H 442.723 -3.07984 2.10239 0
M  V30 4412 N 444.908 -1.36708 -0.784132 0
M  V30 4413 C 446.156 -1.30972 -1.53918 0
M  V30 4414 C 446.477 0.109086 -1.94695 0
M  V30 4415 O 445.747 1.05048 -1.65353 0
M  V30 4416 H 444.327 -0.481819 -0.570841 0
M  V30 4417 H 446.989 -1.71063 -0.934002 0
M  V30 4418 H 446.085 -1.94061 -2.44431 0
M  V30 4419 N 446.386 1.0089 -1.21074 0
M  V30 4420 C 447.611 1.78727 -1.05221 0
M  V30 4421 C 448.036 1.83932 0.393795 0
M  V30 4422 O 447.394 1.28004 1.28393 0
M  V30 4423 C 447.442 3.20665 -1.64944 0
M  V30 4424 O 446.546 4.02632 -0.892273 0
M  V30 4425 H 445.887 0.550973 -0.370574 0
M  V30 4426 H 448.417 1.26847 -1.60534 0
M  V30 4427 H 448.427 3.71352 -1.69002 0
M  V30 4428 H 447.102 3.16191 -2.70177 0
M  V30 4429 H 445.679 3.61207 -0.926492 0
M  V30 4430 N 447.864 1.01787 1.20321 0
M  V30 4431 C 449.28 0.732951 1.41774 0
M  V30 4432 C 449.48 -0.686883 1.89431 0
M  V30 4433 O 448.536 -1.45446 2.06402 0
M  V30 4434 C 449.849 1.75973 2.43832 0
M  V30 4435 C 451.397 1.77802 2.57596 0
M  V30 4436 C 451.872 2.7941 3.62897 0
M  V30 4437 N 453.363 2.78157 3.70382 0
M  V30 4438 C 454.098 3.53434 4.51521 0
M  V30 4439 N 453.594 4.38392 5.36455 0
M  V30 4440 N 455.387 3.42026 4.46066 0
M  V30 4441 H 447.538 1.93447 0.877035 0
M  V30 4442 H 449.801 0.835712 0.447536 0
M  V30 4443 H 449.507 2.77699 2.15815 0
M  V30 4444 H 449.381 1.57292 3.4284 0
M  V30 4445 H 451.768 0.767602 2.84942 0
M  V30 4446 H 451.849 2.00557 1.58779 0
M  V30 4447 H 451.493 3.80616 3.36295 0
M  V30 4448 H 451.423 2.53916 4.61339 0
M  V30 4449 H 453.914 2.16531 3.09714 0
M  V30 4450 H 454.227 4.92596 5.95457 0
M  V30 4451 H 452.572 4.4247 5.35953 0
M  V30 4452 H 455.763 2.75075 3.78749 0
M  V30 4453 H 455.936 4.00946 5.09064 0
M  V30 4454 N 449.342 -1.36122 0.79427 0
M  V30 4455 C 450.274 -2.28683 0.153903 0
M  V30 4456 C 451.287 -1.49707 -0.639669 0
M  V30 4457 O 452.476 -1.7209 -0.474054 0
M  V30 4458 C 449.576 -3.29202 -0.804921 0
M  V30 4459 C 448.749 -4.37358 -0.060366 0
M  V30 4460 C 447.808 -5.17811 -0.935849 0
M  V30 4461 O 446.834 -5.67853 -0.391309 0
M  V30 4462 N 448.036 -5.34721 -2.25951 0
M  V30 4463 H 450.801 -2.84278 0.949008 0
M  V30 4464 H 448.362 -1.4834 0.648611 0
M  V30 4465 H 450.354 -3.79914 -1.39455 0
M  V30 4466 H 448.924 -2.74212 -1.50088 0
M  V30 4467 H 448.144 -3.87746 0.710382 0
M  V30 4468 H 449.432 -5.06777 0.45324 0
M  V30 4469 H 448.83 -4.95687 -2.72601 0
M  V30 4470 H 447.387 -5.88657 -2.79867 0
M  V30 4471 N 450.82 -0.546701 -1.47814 0
M  V30 4472 C 452.045 -0.021268 -2.07389 0
M  V30 4473 C 452.47 1.25822 -1.39822 0
M  V30 4474 O 451.828 1.75111 -0.46968 0
M  V30 4475 C 451.876 0.168502 -3.60206 0
M  V30 4476 O 450.98 1.23347 -3.93522 0
M  V30 4477 H 450.321 -0.0466108 -0.662362 0
M  V30 4478 H 452.851 -0.759387 -1.89985 0
M  V30 4479 H 452.861 0.385982 -4.0617 0
M  V30 4480 H 451.536 -0.766075 -4.08784 0
M  V30 4481 H 450.113 0.997319 -3.59316 0
M  V30 4482 N 452.299 1.55045 -0.282633 0
M  V30 4483 C 453.71 1.85473 0.213655 0
M  V30 4484 C 454.061 1.20465 1.54863 0
M  V30 4485 O 453.186 0.495676 2.10647 0
M  V30 4486 C 453.781 3.36496 0.394445 0
M  V30 4487 C 452.34 3.67022 0.834961 0
M  V30 4488 C 451.487 2.77218 -0.0674081 0
M  V30 4489 H 454.438 1.50478 -0.504202 0
M  V30 4490 H 454.459 3.60007 1.23186 0
M  V30 4491 H 453.971 3.83782 -0.577326 0
M  V30 4492 H 452.072 3.25241 1.81794 0
M  V30 4493 H 452.185 4.74433 0.667075 0
M  V30 4494 H 450.549 2.5069 0.450196 0
M  V30 4495 H 451.332 3.2732 -1.0352 0
M  V30 4496 N 453.777 0.010035 1.57597 0
M  V30 4497 C 455.002 -0.687021 1.95691 0
M  V30 4498 C 455.427 -1.65952 0.885519 0
M  V30 4499 O 454.785 -1.80633 -0.15543 0
M  V30 4500 C 454.833 -1.3864 3.32884 0
M  V30 4501 O 453.937 -2.50115 3.27897 0
M  V30 4502 H 453.278 -0.181989 0.638573 0
M  V30 4503 H 455.808 0.0662122 2.04493 0
M  V30 4504 H 455.818 -1.74754 3.6868 0
M  V30 4505 H 454.493 -0.673411 4.10412 0
M  V30 4506 H 453.07 -2.16253 3.03791 0
M  V30 4507 N 455.255 -1.55392 -0.262866 0
M  V30 4508 C 456.205 -1.85355 -1.32768 0
M  V30 4509 C 457.189 -0.713188 -1.44231 0
M  V30 4510 O 458.381 -0.974765 -1.47741 0
M  V30 4511 C 455.51 -2.13781 -2.68612 0
M  V30 4512 C 454.596 -3.34104 -2.61219 0
M  V30 4513 N 454.987 -4.53766 -2.2345 0
M  V30 4514 C 453.285 -3.36895 -2.92263 0
M  V30 4515 C 453.986 -5.35877 -2.26298 0
M  V30 4516 N 452.962 -4.74536 -2.65172 0
M  V30 4517 H 456.764 -2.75413 -1.02591 0
M  V30 4518 H 454.278 -1.55405 -0.471503 0
M  V30 4519 H 456.275 -2.33407 -3.45437 0
M  V30 4520 H 454.935 -1.25013 -2.99669 0
M  V30 4521 H 455.946 -4.79682 -1.95258 0
M  V30 4522 H 452.623 -2.58351 -3.27965 0
M  V30 4523 H 454.013 -6.41577 -1.99572 0
M  V30 4524 N 456.733 0.527833 -1.48498 0
M  V30 4525 C 457.979 1.28545 -1.56857 0
M  V30 4526 C 458.312 1.92678 -0.242651 0
M  V30 4527 O 457.587 1.79394 0.751545 0
M  V30 4528 C 457.87 2.37314 -2.70839 0
M  V30 4529 C 457.723 1.77858 -4.13142 0
M  V30 4530 C 459.042 3.39068 -2.80573 0
M  V30 4531 H 456.161 0.466006 -0.570971 0
M  V30 4532 H 458.803 0.587784 -1.8068 0
M  V30 4533 H 456.953 2.96821 -2.50658 0
M  V30 4534 H 458.625 1.22385 -4.44769 0
M  V30 4535 H 456.868 1.08383 -4.20042 0
M  V30 4536 H 457.539 2.56624 -4.88721 0
M  V30 4537 H 460.015 2.89518 -2.98862 0
M  V30 4538 H 458.891 4.12566 -3.6205 0
M  V30 4539 H 459.152 3.9975 -1.88818 0
M  V30 4540 N 458.211 1.37122 0.776871 0
M  V30 4541 C 459.627 1.1781 1.07671 0
M  V30 4542 C 459.827 0.0107454 2.01497 0
M  V30 4543 O 458.883 -0.650756 2.4397 0
M  V30 4544 C 460.196 2.49451 1.67913 0
M  V30 4545 C 461.744 2.55927 1.80195 0
M  V30 4546 C 462.219 3.87686 2.43851 0
M  V30 4547 N 463.71 3.891 2.51307 0
M  V30 4548 C 464.445 4.87797 3.014 0
M  V30 4549 N 463.941 5.96888 3.51705 0
M  V30 4550 N 465.734 4.75205 3.00227 0
M  V30 4551 H 457.885 2.11843 0.153778 0
M  V30 4552 H 460.148 0.938927 0.130844 0
M  V30 4553 H 459.854 3.35207 1.06439 0
M  V30 4554 H 459.728 2.66169 2.67271 0
M  V30 4555 H 462.115 1.70582 2.40803 0
M  V30 4556 H 462.196 2.43097 0.796069 0
M  V30 4557 H 461.84 4.73444 1.83884 0
M  V30 4558 H 461.77 3.97817 3.45035 0
M  V30 4559 H 464.261 3.10293 2.157 0
M  V30 4560 H 464.574 6.68155 3.88316 0
M  V30 4561 H 462.919 6.0054 3.49824 0
M  V30 4562 H 466.11 3.89103 2.60224 0
M  V30 4563 H 466.283 5.52279 3.38957 0
M  V30 4564 N 459.689 -1.00246 1.21608 0
M  V30 4565 C 460.639 -2.07492 0.945051 0
M  V30 4566 C 461.623 -1.60585 -0.100675 0
M  V30 4567 O 462.815 -1.76667 0.10859 0
M  V30 4568 C 459.944 -3.39425 0.514342 0
M  V30 4569 C 459.03 -3.92993 1.59428 0
M  V30 4570 N 459.421 -4.19898 2.81991 0
M  V30 4571 C 457.719 -4.21297 1.46374 0
M  V30 4572 C 458.42 -4.63297 3.51754 0
M  V30 4573 N 457.396 -4.66421 2.79199 0
M  V30 4574 H 461.198 -2.26222 1.87619 0
M  V30 4575 H 458.712 -1.18339 1.11219 0
M  V30 4576 H 460.709 -4.15808 0.301527 0
M  V30 4577 H 459.369 -3.22101 -0.410008 0
M  V30 4578 H 460.38 -4.08377 3.1851 0
M  V30 4579 H 457.057 -4.13095 0.604863 0
M  V30 4580 H 458.447 -4.92816 4.56708 0
M  V30 4581 N 461.167 -1.02423 -1.1978 0
M  V30 4582 C 462.415 -0.716569 -1.8897 0
M  V30 4583 C 462.736 0.756769 -1.79716 0
M  V30 4584 O 462.006 1.5449 -1.20456 0
M  V30 4585 H 460.586 -0.262062 -0.699523 0
M  V30 4586 H 463.248 -1.29747 -1.45436 0
M  V30 4587 H 462.344 -1.00675 -2.95417 0
M  V30 4588 N 462.645 1.35699 -0.801477 0
M  V30 4589 C 463.87 2.03687 -0.390678 0
M  V30 4590 C 464.295 1.60015 0.988778 0
M  V30 4591 O 463.653 0.774357 1.63931 0
M  V30 4592 C 463.701 3.57439 -0.476404 0
M  V30 4593 O 462.805 4.09208 0.512106 0
M  V30 4594 H 462.146 0.64344 -0.163956 0
M  V30 4595 H 464.676 1.73403 -1.08594 0
M  V30 4596 H 464.686 4.06544 -0.344357 0
M  V30 4597 H 463.361 3.88576 -1.48262 0
M  V30 4598 H 461.938 3.7134 0.340721 0
M  V30 4599 N 464.123 0.554532 1.47522 0
M  V30 4600 C 465.371 0.0294208 2.02079 0
M  V30 4601 C 465.692 -1.32411 1.43151 0
M  V30 4602 O 464.962 -1.863 0.605728 0
M  V30 4603 H 463.542 0.00788672 0.746958 0
M  V30 4604 H 466.204 0.723934 1.80956 0
M  V30 4605 H 465.3 -0.0606745 3.12041 0
M  V30 4606 N 465.601 -1.54893 0.290851 0
M  V30 4607 C 466.826 -2.04804 -0.32712 0
M  V30 4608 C 467.251 -1.16721 -1.47506 0
M  V30 4609 O 466.609 -0.169107 -1.8051 0
M  V30 4610 C 466.657 -3.52268 -0.770689 0
M  V30 4611 O 465.761 -3.67236 -1.87647 0
M  V30 4612 H 465.102 -0.660789 -0.0652227 0
M  V30 4613 H 467.632 -2.00036 0.429739 0
M  V30 4614 H 467.642 -3.9393 -1.06223 0
M  V30 4615 H 466.317 -4.15843 0.069096 0
M  V30 4616 H 464.894 -3.37479 -1.58626 0
M  V30 4617 N 467.08 -0.0183926 -1.57589 0
M  V30 4618 C 468.328 0.661253 -1.90976 0
M  V30 4619 C 468.649 1.73281 -0.894353 0
M  V30 4620 O 467.919 1.9579 0.0656788 0
M  V30 4621 H 466.499 0.247233 -0.704901 0
M  V30 4622 H 469.161 -0.0636639 -1.94796 0
M  V30 4623 H 468.257 1.12083 -2.9128 0
M  V30 4624 N 468.558 1.5553 0.254621 0
M  V30 4625 C 469.508 1.86057 1.31783 0
M  V30 4626 C 470.492 0.720827 1.4385 0
M  V30 4627 O 471.684 0.982586 1.47222 0
M  V30 4628 C 468.813 2.15203 2.67475 0
M  V30 4629 C 467.899 3.35484 2.59444 0
M  V30 4630 N 468.29 4.54945 2.2104 0
M  V30 4631 C 466.588 3.38441 2.90472 0
M  V30 4632 C 467.289 5.3707 2.23453 0
M  V30 4633 N 466.265 4.75936 2.62652 0
M  V30 4634 H 470.067 2.75953 1.01129 0
M  V30 4635 H 467.581 1.55653 0.463255 0
M  V30 4636 H 469.578 2.35235 3.44195 0
M  V30 4637 H 468.238 1.26601 2.99002 0
M  V30 4638 H 469.249 4.8071 1.92712 0
M  V30 4639 H 465.926 2.60087 3.2659 0
M  V30 4640 H 467.316 6.42626 1.96166 0
M  V30 4641 N 470.036 -0.519951 1.48776 0
M  V30 4642 C 471.261 -1.30447 1.6124 0
M  V30 4643 C 471.686 -1.86055 0.276591 0
M  V30 4644 O 471.044 -1.64915 -0.753183 0
M  V30 4645 C 471.092 -2.42406 2.66967 0
M  V30 4646 O 470.196 -3.45728 2.24824 0
M  V30 4647 H 469.537 -0.385924 0.540332 0
M  V30 4648 H 472.067 -0.624572 1.94834 0
M  V30 4649 H 472.077 -2.88447 2.88552 0
M  V30 4650 H 470.752 -2.01294 3.63941 0
M  V30 4651 H 469.329 -3.05737 2.13494 0
M  V30 4652 N 471.514 -1.37532 -0.769588 0
M  V30 4653 C 472.739 -1.36231 -1.56384 0
M  V30 4654 C 473.164 0.0495849 -1.88035 0
M  V30 4655 O 472.522 1.02723 -1.49391 0
M  V30 4656 C 472.57 -2.20986 -2.84952 0
M  V30 4657 O 471.674 -1.61597 -3.79421 0
M  V30 4658 H 471.015 -0.465387 -0.473615 0
M  V30 4659 H 473.545 -1.81085 -0.952342 0
M  V30 4660 H 473.555 -2.34277 -3.34034 0
M  V30 4661 H 472.23 -3.23612 -2.61243 0
M  V30 4662 H 470.807 -1.57359 -3.38072 0
M  V30 4663 N 472.992 0.995999 -1.22138 0
M  V30 4664 C 474.217 1.77601 -1.0711 0
M  V30 4665 C 474.642 1.84339 0.374264 0
M  V30 4666 O 474 1.29359 1.27028 0
M  V30 4667 C 474.048 3.18897 -1.68336 0
M  V30 4668 O 473.152 4.01663 -0.934928 0
M  V30 4669 H 472.493 0.547011 -0.376397 0
M  V30 4670 H 475.023 1.25137 -1.6187 0
M  V30 4671 H 475.033 3.69539 -1.72931 0
M  V30 4672 H 473.708 3.13308 -2.73516 0
M  V30 4673 H 472.285 3.60204 -0.964751 0
M  V30 4674 N 474.47 1.03057 1.19235 0
M  V30 4675 C 475.42 0.583386 2.2041 0
M  V30 4676 C 476.404 -0.368776 1.56617 0
M  V30 4677 O 477.596 -0.189471 1.75983 0
M  V30 4678 C 474.725 -0.0626534 3.43243 0
M  V30 4679 C 473.811 0.91205 4.14177 0
M  V30 4680 N 474.202 2.07514 4.61272 0
M  V30 4681 C 472.5 0.735859 4.39888 0
M  V30 4682 C 473.201 2.69003 5.15764 0
M  V30 4683 N 472.177 1.96954 5.06666 0
M  V30 4684 H 475.979 1.46988 2.54503 0
M  V30 4685 H 473.493 0.897785 1.35328 0
M  V30 4686 H 475.49 -0.400653 4.1497 0
M  V30 4687 H 474.15 -0.944813 3.1065 0
M  V30 4688 H 475.161 2.45448 4.56043 0
M  V30 4689 H 471.838 -0.0970656 4.17387 0
M  V30 4690 H 473.228 3.67514 5.6248 0
M  V30 4691 N 475.948 -1.35272 0.808662 0
M  V30 4692 C 477.196 -1.98316 0.389233 0
M  V30 4693 C 477.517 -1.64465 -1.04767 0
M  V30 4694 O 476.787 -0.928175 -1.72516 0
M  V30 4695 H 475.367 -0.733585 0.140935 0
M  V30 4696 H 478.029 -1.6515 1.03496 0
M  V30 4697 H 477.125 -3.08123 0.496631 0
M  V30 4698 N 477.426 -0.562348 -1.47226 0
M  V30 4699 C 478.358 0.220011 -2.28142 0
M  V30 4700 C 479.371 0.874596 -1.37312 0
M  V30 4701 O 480.56 0.747583 -1.62091 0
M  V30 4702 C 477.66 1.32953 -3.11732 0
M  V30 4703 C 476.833 0.770759 -4.30556 0
M  V30 4704 C 475.892 1.76541 -4.95701 0
M  V30 4705 O 474.918 1.3095 -5.53932 0
M  V30 4706 N 476.12 3.09896 -4.90861 0
M  V30 4707 H 478.885 -0.474107 -2.95926 0
M  V30 4708 H 476.446 -0.398761 -1.56912 0
M  V30 4709 H 478.438 1.99378 -3.5218 0
M  V30 4710 H 477.008 1.92681 -2.46156 0
M  V30 4711 H 476.228 -0.0704056 -3.94137 0
M  V30 4712 H 477.516 0.376872 -5.07402 0
M  V30 4713 H 476.914 3.49577 -4.44761 0
M  V30 4714 H 475.471 3.71865 -5.35313 0
M  V30 4715 N 478.904 1.54736 -0.299062 0
M  V30 4716 C 479.854 2.20155 0.592932 0
M  V30 4717 C 480.838 1.1739 1.10038 0
M  V30 4718 O 482.03 1.43116 1.04147 0
M  V30 4719 C 479.159 2.94437 1.76527 0
M  V30 4720 C 478.245 4.04516 1.27388 0
M  V30 4721 N 478.636 5.03319 0.500339 0
M  V30 4722 C 476.934 4.18022 1.55478 0
M  V30 4723 C 477.635 5.81209 0.238909 0
M  V30 4724 N 476.611 5.37408 0.818163 0
M  V30 4725 H 480.413 2.93899 -0.00563596 0
M  V30 4726 H 477.927 1.62068 -0.103732 0
M  V30 4727 H 479.924 3.3977 2.41582 0
M  V30 4728 H 478.584 2.22209 2.36756 0
M  V30 4729 H 479.595 5.17696 0.145419 0
M  V30 4730 H 476.272 3.56998 2.16469 0
M  V30 4731 H 477.662 6.70812 -0.382223 0
M  V30 4732 N 480.382 0.0267497 1.57577 0
M  V30 4733 C 481.63 -0.651116 1.91324 0
M  V30 4734 C 481.951 -1.72804 0.90353 0
M  V30 4735 O 481.221 -1.95822 -0.0552946 0
M  V30 4736 H 479.801 -0.243491 0.706202 0
M  V30 4737 H 482.463 0.0739935 1.94759 0
M  V30 4738 H 481.559 -1.10536 2.9187 0
M  V30 4739 N 481.861 -1.55662 -0.24637 0
M  V30 4740 C 483.086 -1.81914 -0.996093 0
M  V30 4741 C 483.511 -0.603875 -1.78143 0
M  V30 4742 O 482.869 0.447091 -1.75701 0
M  V30 4743 C 482.917 -3.05908 -1.90925 0
M  V30 4744 O 482.021 -2.82861 -3.00105 0
M  V30 4745 H 481.362 -0.600481 -0.283406 0
M  V30 4746 H 483.892 -2.02848 -0.267199 0
M  V30 4747 H 483.902 -3.35356 -2.3238 0
M  V30 4748 H 482.577 -3.93999 -1.33183 0
M  V30 4749 H 481.154 -2.64583 -2.62775 0
M  V30 4750 N 483.339 0.512053 -1.4905 0
M  V30 4751 C 484.587 1.26436 -1.57665 0
M  V30 4752 C 484.908 1.93255 -0.260293 0
M  V30 4753 O 484.178 1.82206 0.719564 0
M  V30 4754 H 482.758 0.469658 -0.580888 0
M  V30 4755 H 485.42 0.594398 -1.85615 0
M  V30 4756 H 484.516 2.03417 -2.36702 0
M  V30 4757 N 484.817 1.37938 0.762283 0
M  V30 4758 C 486.042 1.37059 1.55659 0
M  V30 4759 C 486.467 -0.0396123 1.88058 0
M  V30 4760 O 485.825 -1.01929 1.49934 0
M  V30 4761 C 485.873 2.22494 2.83776 0
M  V30 4762 O 484.977 1.63607 3.78559 0
M  V30 4763 H 484.318 0.467892 0.47114 0
M  V30 4764 H 486.848 1.81587 0.942725 0
M  V30 4765 H 486.858 2.36045 3.32786 0
M  V30 4766 H 485.533 3.24993 2.59524 0
M  V30 4767 H 484.11 1.5915 3.37233 0
M  V30 4768 N 486.295 -0.989507 1.22664 0
M  V30 4769 C 487.52 -1.77031 1.08051 0
M  V30 4770 C 487.945 -1.84535 -0.364483 0
M  V30 4771 O 487.303 -1.3003 -1.2634 0
M  V30 4772 C 487.351 -3.18 1.70024 0
M  V30 4773 O 486.455 -4.01161 0.956216 0
M  V30 4774 H 485.796 -0.545008 0.379292 0
M  V30 4775 H 488.326 -1.24277 1.62531 0
M  V30 4776 H 488.336 -3.68616 1.74888 0
M  V30 4777 H 487.011 -3.11853 2.75174 0
M  V30 4778 H 485.588 -3.59687 0.98384 0
M  V30 4779 N 487.773 -1.03688 -1.18687 0
M  V30 4780 C 489.003 -0.756819 -1.92239 0
M  V30 4781 C 489.411 0.689374 -1.76194 0
M  V30 4782 O 488.754 1.48126 -1.08648 0
M  V30 4783 C 488.816 -1.03851 -3.44173 0
M  V30 4784 C 488.48 -2.47785 -3.83994 0
M  V30 4785 C 489.477 -3.4595 -3.88091 0
M  V30 4786 C 487.162 -2.82397 -4.154 0
M  V30 4787 C 489.156 -4.76779 -4.23038 0
M  V30 4788 C 486.843 -4.13433 -4.50018 0
M  V30 4789 C 487.841 -5.10434 -4.53813 0
M  V30 4790 O 487.529 -6.39122 -4.87625 0
M  V30 4791 H 487.261 -0.275678 -0.617234 0
M  V30 4792 H 489.815 -1.38658 -1.51536 0
M  V30 4793 H 488.045 -0.351612 -3.85098 0
M  V30 4794 H 489.734 -0.746846 -3.9897 0
M  V30 4795 H 490.5 -3.20549 -3.63969 0
M  V30 4796 H 486.379 -2.07568 -4.11627 0
M  V30 4797 H 489.923 -5.52488 -4.25914 0
M  V30 4798 H 485.82 -4.38604 -4.736 0
M  V30 4799 H 486.588 -6.43715 -5.05542 0
M  V30 4800 N 489.251 1.34841 -0.815825 0
M  V30 4801 C 490.476 2.03261 -0.41226 0
M  V30 4802 C 490.901 1.61055 0.971751 0
M  V30 4803 O 490.259 0.7917 1.63101 0
M  V30 4804 C 490.307 3.56914 -0.514289 0
M  V30 4805 O 489.411 4.09728 0.468675 0
M  V30 4806 H 488.752 0.641664 -0.170771 0
M  V30 4807 H 491.282 1.72241 -1.10427 0
M  V30 4808 H 491.292 4.06156 -0.387457 0
M  V30 4809 H 489.967 3.86982 -1.52375 0
M  V30 4810 H 488.544 3.71681 0.301316 0
M  V30 4811 N 490.729 0.570148 1.46925 0
M  V30 4812 C 491.959 0.0561151 2.06524 0
M  V30 4813 C 492.367 -1.24874 1.42137 0
M  V30 4814 O 491.71 -1.76292 0.516417 0
M  V30 4815 C 491.772 -0.197035 3.5896 0
M  V30 4816 C 491.436 1.02033 4.45464 0
M  V30 4817 C 492.433 1.92921 4.82781 0
M  V30 4818 C 490.118 1.23864 4.86788 0
M  V30 4819 C 492.112 3.03999 5.60235 0
M  V30 4820 C 489.799 2.35249 5.64004 0
M  V30 4821 C 490.797 3.25146 6.0064 0
M  V30 4822 O 490.485 4.34598 6.76299 0
M  V30 4823 H 490.217 0.0487409 0.674241 0
M  V30 4824 H 492.771 0.786915 1.89728 0
M  V30 4825 H 491.001 -0.982299 3.74016 0
M  V30 4826 H 492.69 -0.658032 4.00531 0
M  V30 4827 H 493.456 1.77265 4.51444 0
M  V30 4828 H 489.335 0.54805 4.57731 0
M  V30 4829 H 492.879 3.74192 5.8875 0
M  V30 4830 H 488.776 2.50873 5.94755 0
M  V30 4831 H 489.544 4.32808 6.94708 0
M  V30 4832 N 492.207 -1.54576 0.307264 0
M  V30 4833 C 493.432 -2.05139 -0.305379 0
M  V30 4834 C 493.857 -1.18278 -1.46259 0
M  V30 4835 O 493.215 -0.188243 -1.8032 0
M  V30 4836 C 493.263 -3.53066 -0.733283 0
M  V30 4837 O 492.367 -3.69206 -1.83741 0
M  V30 4838 H 491.708 -0.661444 -0.0582105 0
M  V30 4839 H 494.238 -1.99569 0.450931 0
M  V30 4840 H 494.248 -3.95034 -1.02039 0
M  V30 4841 H 492.923 -4.15746 0.113198 0
M  V30 4842 H 491.5 -3.39143 -1.55037 0
M  V30 4843 N 493.685 -0.035106 -1.57561 0
M  V30 4844 C 495.101 0.321334 -1.56332 0
M  V30 4845 C 495.301 1.72509 -1.04129 0
M  V30 4846 O 494.357 2.4287 -0.690694 0
M  V30 4847 C 495.67 0.164469 -3.0025 0
M  V30 4848 C 497.218 0.236786 -3.12103 0
M  V30 4849 C 497.693 0.10864 -4.57871 0
M  V30 4850 N 499.184 0.165433 -4.62904 0
M  V30 4851 C 499.919 0.0901506 -5.73329 0
M  V30 4852 N 499.415 -0.0365606 -6.9279 0
M  V30 4853 N 501.208 0.144572 -5.61914 0
M  V30 4854 H 493.359 -0.952976 -1.89821 0
M  V30 4855 H 495.622 -0.368537 -0.873432 0
M  V30 4856 H 495.328 -0.802746 -3.42416 0
M  V30 4857 H 495.202 0.932194 -3.655 0
M  V30 4858 H 497.589 1.19446 -2.69845 0
M  V30 4859 H 497.67 -0.561419 -2.49563 0
M  V30 4860 H 497.314 -0.845644 -5.00811 0
M  V30 4861 H 497.244 0.925786 -5.18398 0
M  V30 4862 H 499.735 0.263269 -3.76982 0
M  V30 4863 H 500.048 -0.0871487 -7.72751 0
M  V30 4864 H 498.393 -0.0714256 -6.94963 0
M  V30 4865 H 501.584 0.242006 -4.67474 0
M  V30 4866 H 501.757 0.0824413 -6.47948 0
M  V30 4867 N 495.163 1.55791 0.238111 0
M  V30 4868 C 496.411 1.77681 0.963001 0
M  V30 4869 C 496.732 0.600674 1.85518 0
M  V30 4870 O 496.002 -0.383182 1.92116 0
M  V30 4871 H 494.582 0.655315 0.358568 0
M  V30 4872 H 497.244 1.93239 0.253945 0
M  V30 4873 H 496.34 2.69177 1.57956 0
M  V30 4874 N 496.642 -0.504142 1.49319 0
M  V30 4875 C 497.592 -1.60284 1.62151 0
M  V30 4876 C 498.576 -1.53657 0.477315 0
M  V30 4877 O 499.768 -1.6124 0.730108 0
M  V30 4878 C 496.897 -2.98909 1.68844 0
M  V30 4879 C 495.983 -3.10544 2.8883 0
M  V30 4880 N 496.374 -2.92078 4.12946 0
M  V30 4881 C 494.672 -3.4164 2.86702 0
M  V30 4882 C 495.373 -3.07812 4.93585 0
M  V30 4883 N 494.349 -3.36549 4.26891 0
M  V30 4884 H 498.151 -1.44656 2.55835 0
M  V30 4885 H 495.665 -0.710198 1.46048 0
M  V30 4886 H 497.662 -3.77865 1.76134 0
M  V30 4887 H 496.322 -3.15609 0.762943 0
M  V30 4888 H 497.333 -2.68316 4.42975 0
M  V30 4889 H 494.01 -3.64537 2.03517 0
M  V30 4890 H 495.4 -2.98054 6.02174 0
M  V30 4891 N 498.12 -1.38341 -0.754957 0
M  V30 4892 C 499.35 -1.37504 -1.54195 0
M  V30 4893 C 499.758 0.0373787 -1.89163 0
M  V30 4894 O 499.101 1.01402 -1.53178 0
M  V30 4895 C 499.163 -2.16488 -2.87008 0
M  V30 4896 C 498.827 -3.65311 -2.74585 0
M  V30 4897 C 499.824 -4.58834 -2.44474 0
M  V30 4898 C 497.509 -4.08649 -2.9208 0
M  V30 4899 C 499.503 -5.93675 -2.32011 0
M  V30 4900 C 497.19 -5.43571 -2.79237 0
M  V30 4901 C 498.188 -6.35898 -2.49245 0
M  V30 4902 O 497.876 -7.68338 -2.36458 0
M  V30 4903 H 497.608 -0.472159 -0.483779 0
M  V30 4904 H 500.162 -1.82515 -0.94221 0
M  V30 4905 H 498.392 -1.66194 -3.49166 0
M  V30 4906 H 500.081 -2.08076 -3.4851 0
M  V30 4907 H 500.847 -4.26657 -2.30627 0
M  V30 4908 H 496.726 -3.37134 -3.14422 0
M  V30 4909 H 500.27 -6.65706 -2.08522 0
M  V30 4910 H 496.167 -5.75345 -2.92657 0
M  V30 4911 H 496.935 -7.78845 -2.5168 0
M  V30 4912 N 499.598 0.982988 -1.23187 0
M  V30 4913 C 500.508 2.10907 -1.02739 0
M  V30 4914 C 501.524 1.73979 0.0273188 0
M  V30 4915 O 502.7 2.00702 -0.16757 0
M  V30 4916 C 499.765 3.41142 -0.618304 0
M  V30 4917 C 498.826 3.92112 -1.74777 0
M  V30 4918 C 498.059 5.16131 -1.3581 0
M  V30 4919 O 498.282 5.6989 -0.241201 0
M  V30 4920 O 497.216 5.61103 -2.17824 0
M  V30 4921 H 501.042 2.31046 -1.97108 0
M  V30 4922 H 498.627 1.09284 -1.01869 0
M  V30 4923 H 500.509 4.19488 -0.400982 0
M  V30 4924 H 499.184 3.2234 0.296421 0
M  V30 4925 H 498.091 3.14895 -2.0197 0
M  V30 4926 H 499.424 4.15364 -2.64071 0
M  V30 4927 N 501.076 1.04316 1.18135 0
M  V30 4928 C 502.301 0.768047 1.92655 0
M  V30 4929 C 502.726 -0.66904 1.758 0
M  V30 4930 O 502.084 -1.46372 1.06981 0
M  V30 4931 C 502.132 1.14239 3.42026 0
M  V30 4932 O 501.236 0.269333 4.1152 0
M  V30 4933 H 500.577 0.282436 0.600937 0
M  V30 4934 H 503.107 1.39367 1.49793 0
M  V30 4935 H 503.117 1.10538 3.92741 0
M  V30 4936 H 501.792 2.18928 3.53615 0
M  V30 4937 H 500.369 0.366175 3.71098 0
M  V30 4938 N 502.554 -1.34406 0.822964 0
M  V30 4939 C 503.802 -1.97892 0.410245 0
M  V30 4940 C 504.123 -1.65567 -1.03017 0
M  V30 4941 O 503.393 -0.94642 -1.71522 0
M  V30 4942 H 501.973 -0.732049 0.148707 0
M  V30 4943 H 504.635 -1.64043 1.05242 0
M  V30 4944 H 503.731 -3.07579 0.529284 0
M  V30 4945 N 504.032 -0.577932 -1.46621 0
M  V30 4946 C 505.257 -0.0652536 -2.07297 0
M  V30 4947 C 505.682 1.22828 -1.4246 0
M  V30 4948 O 505.04 1.74075 -0.506718 0
M  V30 4949 C 505.088 0.0920589 -3.60482 0
M  V30 4950 O 504.192 1.14972 -3.96049 0
M  V30 4951 H 503.533 -0.06065 -0.661224 0
M  V30 4952 H 506.063 -0.799515 -1.88332 0
M  V30 4953 H 506.073 0.299741 -4.06897 0
M  V30 4954 H 504.748 -0.852612 -4.07067 0
M  V30 4955 H 503.325 0.920879 -3.61351 0
M  V30 4956 N 505.51 1.54411 -0.315457 0
M  V30 4957 C 506.758 2.00023 0.288971 0
M  V30 4958 C 507.079 1.20529 1.5329 0
M  V30 4959 O 506.349 0.304986 1.93511 0
M  V30 4960 H 504.929 0.738891 0.109766 0
M  V30 4961 H 507.591 1.90094 -0.430129 0
M  V30 4962 H 506.687 3.07198 0.550999 0
M  V30 4963 N 506.988 0.0434614 1.5754 0
M  V30 4964 C 507.92 -0.962586 2.08007 0
M  V30 4965 C 508.933 -1.27972 1.00634 0
M  V30 4966 O 510.122 -1.24186 1.28219 0
M  V30 4967 C 507.222 -2.28621 2.50171 0
M  V30 4968 C 506.395 -2.15214 3.80791 0
M  V30 4969 C 505.454 -3.30633 4.09351 0
M  V30 4970 O 504.48 -3.0688 4.79388 0
M  V30 4971 N 505.682 -4.54873 3.60654 0
M  V30 4972 H 508.447 -0.531891 2.94942 0
M  V30 4973 H 506.008 -0.142965 1.61268 0
M  V30 4974 H 508 -3.04689 2.66359 0
M  V30 4975 H 506.57 -2.63283 1.68525 0
M  V30 4976 H 505.79 -1.23785 3.74261 0
M  V30 4977 H 507.078 -2.03475 4.66343 0
M  V30 4978 H 506.476 -4.77063 3.04019 0
M  V30 4979 H 505.033 -5.2806 3.82094 0
M  V30 4980 N 508.466 -1.55915 -0.229846 0
M  V30 4981 C 509.694 -1.82617 -0.972562 0
M  V30 4982 C 510.109 -0.621488 -1.78278 0
M  V30 4983 O 509.466 0.409956 -1.77836 0
M  V30 4984 C 509.517 -3.0774 -1.89679 0
M  V30 4985 O 509.238 -4.23559 -1.11934 0
M  V30 4986 C 510.739 -3.47368 -2.75409 0
M  V30 4987 H 507.959 -0.60727 -0.285419 0
M  V30 4988 H 510.503 -2.02996 -0.247579 0
M  V30 4989 H 508.658 -2.89361 -2.57583 0
M  V30 4990 H 509.072 -4.94586 -1.74599 0
M  V30 4991 H 510.546 -4.37977 -3.35977 0
M  V30 4992 H 511.023 -2.68737 -3.47386 0
M  V30 4993 H 511.629 -3.68158 -2.12931 0
M  V30 4994 N 509.944 0.496216 -1.49584 0
M  V30 4995 C 511.169 1.27865 -1.63295 0
M  V30 4996 C 511.594 1.85592 -0.306156 0
M  V30 4997 O 510.952 1.66092 0.726851 0
M  V30 4998 C 511 2.38128 -2.7079 0
M  V30 4999 O 510.104 3.42108 -2.30296 0
M  V30 5000 H 509.445 0.377279 -0.546403 0
M  V30 5001 H 511.975 0.593497 -1.95803 0
M  V30 5002 H 511.985 2.8382 -2.93104 0
M  V30 5003 H 510.66 1.95479 -3.67098 0
M  V30 5004 H 509.237 3.02301 -2.18331 0
M  V30 5005 N 511.423 1.38739 0.74761 0
M  V30 5006 C 512.671 1.35007 1.50391 0
M  V30 5007 C 512.992 -0.0574274 1.94915 0
M  V30 5008 O 512.262 -1.00628 1.6808 0
M  V30 5009 H 510.842 0.496784 0.557866 0
M  V30 5010 H 513.504 1.73479 0.888319 0
M  V30 5011 H 512.6 2.00474 2.392 0
M  V30 5012 N 512.901 -0.976442 1.23707 0
M  V30 5013 C 514.148 -1.71827 1.07153 0
M  V30 5014 C 514.476 -1.9053 -0.390982 0
M  V30 5015 O 513.731 -1.45779 -1.30564 0
M  V30 5016 C 514.03 -3.11814 1.74662 0
M  V30 5017 C 513.696 -3.12978 3.24585 0
M  V30 5018 C 512.358 -3.13003 3.6549 0
M  V30 5019 C 514.71 -3.07986 4.20469 0
M  V30 5020 C 512.038 -3.05757 5.00729 0
M  V30 5021 C 514.39 -3.02282 5.55705 0
M  V30 5022 C 513.054 -3.00631 5.95968 0
M  V30 5023 H 512.324 -0.628758 0.392102 0
M  V30 5024 H 514.971 -1.14239 1.53693 0
M  V30 5025 H 513.276 -3.72812 1.20492 0
M  V30 5026 H 514.973 -3.67989 1.59328 0
M  V30 5027 H 511.563 -3.13718 2.92026 0
M  V30 5028 H 515.747 -3.07103 3.89874 0
M  V30 5029 H 511.003 -3.02834 5.31132 0
M  V30 5030 H 515.177 -2.97376 6.29714 0
M  V30 5031 H 512.804 -2.94771 7.00724 0
M  V30 5032 N 514.379 -1.04941 -1.1758 0
M  V30 5033 C 515.627 -0.756492 -1.87408 0
M  V30 5034 C 515.948 0.718478 -1.81281 0
M  V30 5035 O 515.218 1.519 -1.23706 0
M  V30 5036 H 513.798 -0.276841 -0.693807 0
M  V30 5037 H 516.46 -1.32803 -1.42652 0
M  V30 5038 H 515.556 -1.06918 -2.93215 0
M  V30 5039 N 515.857 1.33968 -0.830081 0
M  V30 5040 C 516.789 2.28194 -0.21448 0
M  V30 5041 C 517.802 1.5135 0.599752 0
M  V30 5042 O 518.991 1.73286 0.42826 0
M  V30 5043 C 516.091 3.31221 0.717356 0
M  V30 5044 C 515.264 4.37365 -0.055613 0
M  V30 5045 C 514.323 5.2011 0.798231 0
M  V30 5046 O 513.349 5.68691 0.240616 0
M  V30 5047 N 514.551 5.40523 2.11695 0
M  V30 5048 H 517.316 2.81662 -1.02405 0
M  V30 5049 H 514.877 1.46568 -0.687713 0
M  V30 5050 H 516.869 3.83477 1.29334 0
M  V30 5051 H 515.439 2.78095 1.42765 0
M  V30 5052 H 514.659 3.85727 -0.812936 0
M  V30 5053 H 515.947 5.05397 -0.587444 0
M  V30 5054 H 515.345 5.0274 2.59363 0
M  V30 5055 H 513.902 5.95871 2.64162 0
M  V30 5056 N 517.335 0.585699 1.46312 0
M  V30 5057 C 518.285 -0.166813 2.27389 0
M  V30 5058 C 519.269 -0.859076 1.36047 0
M  V30 5059 O 520.461 -0.752678 1.60199 0
M  V30 5060 C 517.59 -1.17791 3.2246 0
M  V30 5061 C 516.676 -0.487605 4.21288 0
M  V30 5062 N 517.067 0.45849 5.03718 0
M  V30 5063 C 515.365 -0.737971 4.39852 0
M  V30 5064 C 516.066 0.862213 5.75275 0
M  V30 5065 N 515.042 0.210707 5.43191 0
M  V30 5066 H 518.844 0.560167 2.88512 0
M  V30 5067 H 516.358 0.407715 1.57199 0
M  V30 5068 H 518.355 -1.73122 3.79255 0
M  V30 5069 H 517.015 -1.90568 2.62896 0
M  V30 5070 H 518.026 0.834163 5.11138 0
M  V30 5071 H 514.703 -1.45209 3.91434 0
M  V30 5072 H 516.093 1.64128 6.51546 0
M  V30 5073 N 518.813 -1.54241 0.323641 0
M  V30 5074 C 519.723 -2.28033 -0.551205 0
M  V30 5075 C 520.739 -1.32388 -1.12913 0
M  V30 5076 O 521.915 -1.65403 -1.14908 0
M  V30 5077 C 518.98 -3.02382 -1.69606 0
M  V30 5078 C 518.041 -4.13612 -1.14993 0
M  V30 5079 C 517.274 -4.84407 -2.24022 0
M  V30 5080 O 517.497 -4.54716 -3.44368 0
M  V30 5081 O 516.431 -5.71312 -1.89436 0
M  V30 5082 H 520.257 -3.03662 0.048066 0
M  V30 5083 H 517.842 -1.49133 0.0893289 0
M  V30 5084 H 519.724 -3.48941 -2.36259 0
M  V30 5085 H 518.399 -2.29628 -2.28151 0
M  V30 5086 H 517.306 -3.71402 -0.448484 0
M  V30 5087 H 518.639 -4.8841 -0.609608 0
M  V30 5088 N 520.291 -0.0518155 -1.57515 0
M  V30 5089 C 521.516 0.634896 -1.97443 0
M  V30 5090 C 521.941 1.63546 -0.929207 0
M  V30 5091 O 521.299 1.80981 0.107484 0
M  V30 5092 C 521.347 1.29765 -3.36442 0
M  V30 5093 O 520.451 2.41333 -3.34413 0
M  V30 5094 H 519.792 0.164994 -0.643174 0
M  V30 5095 H 522.322 -0.120407 -2.04245 0
M  V30 5096 H 522.332 1.64918 -3.73184 0
M  V30 5097 H 521.007 0.564361 -4.12053 0
M  V30 5098 H 519.584 2.08122 -3.09418 0
M  V30 5099 N 521.769 1.56035 0.221574 0
M  V30 5100 C 523.017 1.78693 0.944102 0
M  V30 5101 C 523.338 0.620317 1.8487 0
M  V30 5102 O 522.608 -0.362784 1.92512 0
M  V30 5103 H 521.188 0.659082 0.351597 0
M  V30 5104 H 523.85 1.93497 0.233435 0
M  V30 5105 H 522.946 2.70837 1.55093 0
M  V30 5106 N 523.247 -0.488276 1.49845 0
M  V30 5107 C 524.472 -1.26997 1.63971 0
M  V30 5108 C 524.897 -1.85427 0.315994 0
M  V30 5109 O 524.255 -1.66475 -0.718032 0
M  V30 5110 C 524.303 -2.36689 2.72049 0
M  V30 5111 O 523.407 -3.40882 2.32107 0
M  V30 5112 H 522.748 -0.374376 0.548396 0
M  V30 5113 H 525.278 -0.583104 1.96115 0
M  V30 5114 H 525.288 -2.82262 2.94605 0
M  V30 5115 H 523.963 -1.93529 3.68129 0
M  V30 5116 H 522.54 -3.01139 2.19931 0
M  V30 5117 N 524.725 -1.39134 -0.740242 0
M  V30 5118 C 525.973 -1.35803 -1.49673 0
M  V30 5119 C 526.294 0.0470897 -1.94943 0
M  V30 5120 O 525.564 0.997347 -1.68611 0
M  V30 5121 H 524.144 -0.499736 -0.555224 0
M  V30 5122 H 526.806 -1.73947 -0.879107 0
M  V30 5123 H 525.902 -2.0174 -2.38133 0
M  V30 5124 N 526.204 0.969867 -1.24223 0
M  V30 5125 C 527.136 2.0669 -0.99055 0
M  V30 5126 C 528.149 1.62753 0.0392222 0
M  V30 5127 O 529.338 1.77403 -0.197561 0
M  V30 5128 C 526.438 3.35589 -0.472594 0
M  V30 5129 C 525.611 4.08444 -1.56499 0
M  V30 5130 C 524.67 5.15616 -1.05007 0
M  V30 5131 O 523.696 5.41911 -1.7413 0
M  V30 5132 N 524.898 5.80383 0.116641 0
M  V30 5133 H 527.663 2.28855 -1.93508 0
M  V30 5134 H 525.224 1.13733 -1.15223 0
M  V30 5135 H 527.216 4.04542 -0.112919 0
M  V30 5136 H 525.786 3.10311 0.377617 0
M  V30 5137 H 525.006 3.33798 -2.09696 0
M  V30 5138 H 526.294 4.53882 -2.29932 0
M  V30 5139 H 525.692 5.6142 0.694589 0
M  V30 5140 H 524.249 6.50462 0.417483 0
M  V30 5141 N 527.682 1.05563 1.17022 0
M  V30 5142 C 528.907 0.788437 1.91829 0
M  V30 5143 C 529.332 -0.650356 1.76499 0
M  V30 5144 O 528.69 -1.45229 1.08527 0
M  V30 5145 C 528.738 1.1786 3.40795 0
M  V30 5146 O 527.842 0.312965 4.11211 0
M  V30 5147 H 527.183 0.288794 0.597908 0
M  V30 5148 H 529.713 1.40948 1.48307 0
M  V30 5149 H 529.723 1.14697 3.91546 0
M  V30 5150 H 528.398 2.22666 3.51273 0
M  V30 5151 H 526.975 0.405515 3.70689 0
M  V30 5152 N 529.16 -1.33526 0.837174 0
M  V30 5153 C 530.385 -2.0258 0.444545 0
M  V30 5154 C 530.81 -1.6258 -0.946006 0
M  V30 5155 O 530.168 -0.817548 -1.6182 0
M  V30 5156 C 530.216 -3.5605 0.571006 0
M  V30 5157 O 529.32 -4.10422 -0.403431 0
M  V30 5158 H 528.661 -0.638866 0.180958 0
M  V30 5159 H 531.191 -1.70462 1.13154 0
M  V30 5160 H 531.201 -4.05488 0.452024 0
M  V30 5161 H 529.876 -3.84509 1.58512 0
M  V30 5162 H 528.453 -3.72113 -0.242147 0
M  V30 5163 N 530.638 -0.59345 -1.46 0
M  V30 5164 C 531.886 -0.082988 -2.0193 0
M  V30 5165 C 532.207 1.28569 -1.46612 0
M  V30 5166 O 531.477 1.84629 -0.654909 0
M  V30 5167 H 530.057 -0.0276882 -0.746487 0
M  V30 5168 H 532.719 -0.771657 -1.78973 0
M  V30 5169 H 531.815 -0.022079 -3.12092 0
M  V30 5170 N 532.116 1.54067 -0.331816 0
M  V30 5171 C 533.346 2.04833 0.269605 0
M  V30 5172 C 533.754 1.20714 1.45687 0
M  V30 5173 O 533.097 0.232539 1.82222 0
M  V30 5174 C 533.159 3.51386 0.759499 0
M  V30 5175 C 532.823 4.55971 -0.306557 0
M  V30 5176 C 533.82 5.07126 -1.14538 0
M  V30 5177 C 531.505 5.00216 -0.457116 0
M  V30 5178 C 533.499 6.01096 -2.12042 0
M  V30 5179 C 531.186 5.93999 -1.43556 0
M  V30 5180 C 532.184 6.44326 -2.26568 0
M  V30 5181 O 531.872 7.36267 -3.22749 0
M  V30 5182 H 531.604 0.673509 0.0579763 0
M  V30 5183 H 534.158 1.99748 -0.478521 0
M  V30 5184 H 532.388 3.53896 1.55867 0
M  V30 5185 H 534.077 3.85184 1.28017 0
M  V30 5186 H 534.843 4.73716 -1.04009 0
M  V30 5187 H 530.722 4.60652 0.179142 0
M  V30 5188 H 534.266 6.40302 -2.76873 0
M  V30 5189 H 530.163 6.26825 -1.54146 0
M  V30 5190 H 530.931 7.54165 -3.18083 0
M  V30 5191 N 533.594 0.0601682 1.57485 0
M  V30 5192 C 534.819 -0.624416 1.97777 0
M  V30 5193 C 535.244 -1.63051 0.937867 0
M  V30 5194 O 534.602 -1.81036 -0.0978845 0
M  V30 5195 C 534.65 -1.27979 3.37126 0
M  V30 5196 O 533.754 -2.39556 3.35688 0
M  V30 5197 H 533.095 -0.161581 0.64404 0
M  V30 5198 H 535.625 0.131237 2.04179 0
M  V30 5199 H 535.635 -1.62937 3.74053 0
M  V30 5200 H 534.31 -0.542501 4.12347 0
M  V30 5201 H 532.887 -2.06478 3.10517 0
M  V30 5202 N 535.072 -1.5615 -0.213296 0
M  V30 5203 C 536.019 -1.93086 -1.26437 0
M  V30 5204 C 536.989 -0.789086 -1.4616 0
M  V30 5205 O 538.174 -1.04569 -1.59593 0
M  V30 5206 C 535.314 -2.26003 -2.608 0
M  V30 5207 C 534.427 -3.53156 -2.48807 0
M  V30 5208 C 533.562 -3.7548 -3.7575 0
M  V30 5209 C 532.601 -4.96119 -3.58514 0
M  V30 5210 N 531.738 -5.14791 -4.77425 0
M  V30 5211 H 536.578 -2.82707 -0.942376 0
M  V30 5212 H 534.115 -1.39919 -0.454001 0
M  V30 5213 H 536.073 -2.431 -3.39055 0
M  V30 5214 H 534.703 -1.39546 -2.91079 0
M  V30 5215 H 533.755 -3.44207 -1.61944 0
M  V30 5216 H 535.067 -4.41565 -2.31996 0
M  V30 5217 H 534.221 -3.92718 -4.62447 0
M  V30 5218 H 532.96 -2.85368 -3.95495 0
M  V30 5219 H 531.965 -4.78823 -2.70201 0
M  V30 5220 H 533.19 -5.87724 -3.40231 0
M  V30 5221 H 531.136 -4.27623 -4.97468 0
M  V30 5222 H 531.053 -5.97347 -4.63371 0
M  V30 5223 H 532.321 -5.36471 -5.65525 0
M  V30 5224 N 536.55 0.480323 -1.50102 0
M  V30 5225 C 537.5 1.57685 -1.6468 0
M  V30 5226 C 538.484 1.52878 -0.5017 0
M  V30 5227 O 539.676 1.60058 -0.755668 0
M  V30 5228 C 536.805 2.96185 -1.73578 0
M  V30 5229 C 535.891 3.0591 -2.93734 0
M  V30 5230 N 536.282 2.85471 -4.1754 0
M  V30 5231 C 534.58 3.37036 -2.92101 0
M  V30 5232 C 535.281 2.99921 -4.9842 0
M  V30 5233 N 534.257 3.29715 -4.32191 0
M  V30 5234 H 538.059 1.40568 -2.58104 0
M  V30 5235 H 535.573 0.686874 -1.47159 0
M  V30 5236 H 537.57 3.75015 -1.82124 0
M  V30 5237 H 536.23 3.14356 -0.813057 0
M  V30 5238 H 537.241 2.61235 -4.47188 0
M  V30 5239 H 533.918 3.61253 -2.09291 0
M  V30 5240 H 535.308 2.88436 -6.06839 0
M  V30 5241 N 538.028 1.39524 0.732853 0
M  V30 5242 C 539.276 1.36594 1.48951 0
M  V30 5243 C 539.597 -0.0367507 1.94965 0
M  V30 5244 O 538.867 -0.988391 1.69138 0
M  V30 5245 H 537.447 0.502673 0.552566 0
M  V30 5246 H 540.109 1.74411 0.869869 0
M  V30 5247 H 539.205 2.03 2.3706 0
M  V30 5248 N 539.506 -0.963266 1.24736 0
M  V30 5249 C 540.731 -1.74699 1.11781 0
M  V30 5250 C 541.156 -1.85267 -0.325258 0
M  V30 5251 O 540.514 -1.32681 -1.23553 0
M  V30 5252 C 540.562 -3.14322 1.76731 0
M  V30 5253 O 539.666 -3.99043 1.04109 0
M  V30 5254 H 539.007 -0.53684 0.390767 0
M  V30 5255 H 541.537 -1.20801 1.65131 0
M  V30 5256 H 541.547 -3.64824 1.82668 0
M  V30 5257 H 540.222 -3.05946 2.81726 0
M  V30 5258 H 538.799 -3.5752 1.05991 0
M  V30 5259 N 540.985 -1.06182 -1.16461 0
M  V30 5260 C 542.233 -0.776326 -1.86595 0
M  V30 5261 C 542.554 0.69921 -1.82033 0
M  V30 5262 O 541.824 1.50579 -1.2531 0
M  V30 5263 H 540.404 -0.284184 -0.690832 0
M  V30 5264 H 543.066 -1.34308 -1.41235 0
M  V30 5265 H 542.162 -1.10022 -2.92064 0
M  V30 5266 N 542.463 1.3308 -0.844243 0
M  V30 5267 C 543.688 2.02341 -0.455282 0
M  V30 5268 C 544.113 1.6308 0.93737 0
M  V30 5269 O 543.471 0.826118 1.61385 0
M  V30 5270 C 543.519 3.55743 -0.58988 0
M  V30 5271 O 542.623 4.1063 0.38166 0
M  V30 5272 H 541.964 0.637898 -0.184343 0
M  V30 5273 H 544.494 1.6986 -1.14056 0
M  V30 5274 H 544.504 4.05243 -0.473522 0
M  V30 5275 H 543.179 3.83662 -1.60549 0
M  V30 5276 H 541.756 3.72236 0.22241 0
M  V30 5277 N 543.941 0.601185 1.45683 0
M  V30 5278 C 545.189 0.0936957 2.01883 0
M  V30 5279 C 545.51 -1.2779 1.47291 0
M  V30 5280 O 544.78 -1.84279 0.664691 0
M  V30 5281 H 543.36 0.0316466 0.746329 0
M  V30 5282 H 546.022 0.781137 1.78562 0
M  V30 5283 H 545.118 0.0386297 3.12076 0
M  V30 5284 N 545.419 -1.53889 0.339982 0
M  V30 5285 C 546.369 -2.2165 -0.534354 0
M  V30 5286 C 547.353 -1.20266 -1.06887 0
M  V30 5287 O 548.545 -1.45827 -1.00316 0
M  V30 5288 C 545.674 -2.99014 -1.68659 0
M  V30 5289 C 544.76 -4.07751 -1.16618 0
M  V30 5290 N 545.151 -5.04469 -0.366717 0
M  V30 5291 C 543.449 -4.21998 -1.4434 0
M  V30 5292 C 544.15 -5.81638 -0.0847275 0
M  V30 5293 N 543.126 -5.39388 -0.675391 0
M  V30 5294 H 546.928 -2.93781 0.0835562 0
M  V30 5295 H 544.442 -1.61736 0.146665 0
M  V30 5296 H 546.439 -3.46056 -2.32489 0
M  V30 5297 H 545.099 -2.28408 -2.30781 0
M  V30 5298 H 546.11 -5.17899 -0.00811038 0
M  V30 5299 H 542.787 -3.62612 -2.06928 0
M  V30 5300 H 544.177 -6.69563 0.559943 0
M  V30 5301 N 546.897 -0.0685191 -1.57451 0
M  V30 5302 C 548.122 0.613919 -1.98106 0
M  V30 5303 C 548.547 1.62551 -0.946501 0
M  V30 5304 O 547.905 1.81085 0.0882824 0
M  V30 5305 C 547.953 1.26189 -3.378 0
M  V30 5306 O 547.057 2.37773 -3.36954 0
M  V30 5307 H 546.398 0.158163 -0.644888 0
M  V30 5308 H 548.928 -0.142063 -2.04106 0
M  V30 5309 H 548.938 1.60951 -3.74912 0
M  V30 5310 H 547.613 0.520625 -4.12629 0
M  V30 5311 H 546.19 2.04829 -3.11608 0
M  V30 5312 N 548.375 1.56261 0.205012 0
M  V30 5313 C 549.6 1.84491 0.947512 0
M  V30 5314 C 550.025 0.650894 1.76479 0
M  V30 5315 O 549.383 -0.40035 1.76824 0
M  V30 5316 C 549.431 3.10863 1.82747 0
M  V30 5317 O 548.535 2.90719 2.925 0
M  V30 5318 H 547.876 0.607783 0.267386 0
M  V30 5319 H 550.406 2.03485 0.213323 0
M  V30 5320 H 550.416 3.41399 2.23407 0
M  V30 5321 H 549.091 3.97392 1.2269 0
M  V30 5322 H 547.668 2.71457 2.55667 0
M  V30 5323 N 549.853 -0.472356 1.50355 0
M  V30 5324 C 551.078 -1.25251 1.65309 0
M  V30 5325 C 551.503 -1.85081 0.335643 0
M  V30 5326 O 550.861 -1.67227 -0.700335 0
M  V30 5327 C 550.909 -2.3379 2.74544 0
M  V30 5328 O 550.013 -3.38401 2.35709 0
M  V30 5329 H 549.354 -0.368539 0.552336 0
M  V30 5330 H 551.884 -0.562271 1.96722 0
M  V30 5331 H 551.894 -2.79121 2.97583 0
M  V30 5332 H 550.569 -1.89614 3.70161 0
M  V30 5333 H 549.146 -2.9879 2.23112 0
M  V30 5334 N 551.331 -1.39911 -0.725443 0
M  V30 5335 C 552.263 -1.35301 -1.85003 0
M  V30 5336 C 553.276 -0.260102 -1.60709 0
M  V30 5337 O 554.465 -0.519749 -1.70766 0
M  V30 5338 C 551.565 -1.08039 -3.21218 0
M  V30 5339 C 550.738 -2.28793 -3.7279 0
M  V30 5340 C 549.797 -1.97841 -4.87591 0
M  V30 5341 O 548.823 -2.70616 -5.00755 0
M  V30 5342 N 550.025 -0.950367 -5.72668 0
M  V30 5343 H 552.79 -2.32218 -1.89459 0
M  V30 5344 H 550.351 -1.34137 -0.90658 0
M  V30 5345 H 552.343 -0.853354 -3.95601 0
M  V30 5346 H 550.913 -0.198229 -3.11971 0
M  V30 5347 H 550.133 -2.67388 -2.8965 0
M  V30 5348 H 551.421 -3.09317 -4.03981 0
M  V30 5349 H 550.819 -0.347436 -5.64632 0
M  V30 5350 H 549.376 -0.783232 -6.47077 0
M  V30 5351 N 552.809 0.956637 -1.25245 0
M  V30 5352 C 554.057 1.69764 -1.09657 0
M  V30 5353 C 554.378 1.91583 0.363464 0
M  V30 5354 O 553.648 1.50149 1.25825 0
M  V30 5355 H 552.228 0.629097 -0.402798 0
M  V30 5356 H 554.89 1.15026 -1.57337 0
M  V30 5357 H 553.986 2.67769 -1.60331 0
M  V30 5358 N 554.287 1.06798 1.15896 0
M  V30 5359 C 555.219 0.641263 2.20046 0
M  V30 5360 C 556.232 -0.303355 1.59949 0
M  V30 5361 O 557.421 -0.0935478 1.78255 0
M  V30 5362 C 554.521 -0.0794029 3.38807 0
M  V30 5363 C 553.694 0.879986 4.28457 0
M  V30 5364 C 552.753 0.197638 5.25829 0
M  V30 5365 O 551.779 0.836913 5.63014 0
M  V30 5366 N 552.981 -1.05886 5.70761 0
M  V30 5367 H 555.746 1.53718 2.57276 0
M  V30 5368 H 553.307 0.951951 1.30956 0
M  V30 5369 H 555.299 -0.546418 4.00994 0
M  V30 5370 H 553.869 -0.877193 3.0004 0
M  V30 5371 H 553.089 1.52625 3.63454 0
M  V30 5372 H 554.377 1.53065 4.8523 0
M  V30 5373 H 553.775 -1.59828 5.42652 0
M  V30 5374 H 552.332 -1.46965 6.35015 0
M  V30 5375 N 555.766 -1.3263 0.851289 0
M  V30 5376 C 556.716 -2.26451 0.265302 0
M  V30 5377 C 557.7 -1.49814 -0.586899 0
M  V30 5378 O 558.892 -1.71525 -0.436834 0
M  V30 5379 C 556.021 -3.38895 -0.548212 0
M  V30 5380 C 555.107 -4.2292 0.316189 0
M  V30 5381 N 555.498 -4.86014 1.40084 0
M  V30 5382 C 553.796 -4.45876 0.105356 0
M  V30 5383 C 554.497 -5.48667 1.93235 0
M  V30 5384 N 553.473 -5.29455 1.232 0
M  V30 5385 H 557.275 -2.72757 1.09457 0
M  V30 5386 H 554.789 -1.4668 0.697047 0
M  V30 5387 H 556.786 -4.05111 -0.984402 0
M  V30 5388 H 555.446 -2.94135 -1.37531 0
M  V30 5389 H 556.457 -4.86212 1.78377 0
M  V30 5390 H 553.134 -4.11804 -0.687299 0
M  V30 5391 H 554.524 -6.08865 2.84135 0
M  V30 5392 N 557.244 -0.608902 -1.45362 0
M  V30 5393 C 558.492 -0.104401 -2.0183 0
M  V30 5394 C 558.813 1.27007 -1.47967 0
M  V30 5395 O 558.083 1.83924 -0.674455 0
M  V30 5396 H 556.663 -0.0356042 -0.746151 0
M  V30 5397 H 559.325 -0.790596 -1.78145 0
M  V30 5398 H 558.421 -0.0551793 -3.12051 0
M  V30 5399 N 558.722 1.53707 -0.348139 0
M  V30 5400 C 559.947 2.05877 0.250883 0
M  V30 5401 C 560.372 1.22115 1.43072 0
M  V30 5402 O 559.73 0.235986 1.79758 0
M  V30 5403 C 559.778 3.54886 0.639416 0
M  V30 5404 O 558.882 3.73948 1.73888 0
M  V30 5405 H 558.223 0.662754 0.040653 0
M  V30 5406 H 560.753 1.98303 -0.503685 0
M  V30 5407 H 560.763 3.97601 0.915295 0
M  V30 5408 H 559.438 4.153 -0.223386 0
M  V30 5409 H 558.015 3.43134 1.45991 0
M  V30 5410 N 560.2 0.0768682 1.57412 0
M  V30 5411 C 561.428 -0.59997 1.9801 0
M  V30 5412 C 561.843 -1.62842 0.955408 0
M  V30 5413 O 561.2 -1.8241 -0.057314 0
M  V30 5414 C 561.251 -1.26401 3.38681 0
M  V30 5415 O 560.972 -0.276723 4.37225 0
M  V30 5416 C 562.473 -2.0282 3.94182 0
M  V30 5417 H 559.693 -0.162239 0.651091 0
M  V30 5418 H 562.237 0.150771 2.03943 0
M  V30 5419 H 560.392 -1.96581 3.33819 0
M  V30 5420 H 560.806 -0.753744 5.19056 0
M  V30 5421 H 562.28 -2.44667 4.94815 0
M  V30 5422 H 562.757 -2.88678 3.31001 0
M  V30 5423 H 563.363 -1.37496 4.02461 0
M  V30 5424 N 561.678 -1.56367 -0.196722 0
M  V30 5425 C 562.903 -1.84991 -0.937714 0
M  V30 5426 C 563.328 -0.660244 -1.76132 0
M  V30 5427 O 562.686 0.390967 -1.77034 0
M  V30 5428 C 562.734 -3.11828 -1.81096 0
M  V30 5429 O 561.838 -2.92266 -2.90955 0
M  V30 5430 H 561.179 -0.609193 -0.264159 0
M  V30 5431 H 563.709 -2.03595 -0.202529 0
M  V30 5432 H 563.719 -3.42579 -2.21594 0
M  V30 5433 H 562.394 -3.98037 -1.2058 0
M  V30 5434 H 560.971 -2.72809 -2.54224 0
M  V30 5435 N 563.156 0.464375 -1.50603 0
M  V30 5436 C 564.404 1.21356 -1.61608 0
M  V30 5437 C 564.725 1.92329 -0.321643 0
M  V30 5438 O 563.995 1.84403 0.661232 0
M  V30 5439 H 562.575 0.45094 -0.595535 0
M  V30 5440 H 565.237 0.535046 -1.87412 0
M  V30 5441 H 564.333 1.95783 -2.43054 0
M  V30 5442 N 564.634 1.40294 0.718013 0
M  V30 5443 C 565.566 1.36281 1.84283 0
M  V30 5444 C 566.579 0.268621 1.60569 0
M  V30 5445 O 567.768 0.528798 1.70487 0
M  V30 5446 C 564.868 1.09741 3.2064 0
M  V30 5447 C 564.041 2.30767 3.71571 0
M  V30 5448 C 563.1 2.00424 4.86535 0
M  V30 5449 O 562.126 2.73268 4.99313 0
M  V30 5450 N 563.328 0.980724 5.72156 0
M  V30 5451 H 566.093 2.3322 1.88225 0
M  V30 5452 H 563.654 1.34616 0.899453 0
M  V30 5453 H 565.646 0.874322 3.95143 0
M  V30 5454 H 564.216 0.214771 3.11861 0
M  V30 5455 H 563.436 2.68921 2.88228 0
M  V30 5456 H 564.724 3.11455 4.02335 0
M  V30 5457 H 564.122 0.377375 5.6444 0
M  V30 5458 H 562.679 0.817538 6.46653 0
M  V30 5459 N 566.112 -0.949982 1.2575 0
M  V30 5460 C 567.075 -2.02894 1.06615 0
M  V30 5461 C 568.075 -1.60791 0.0173905 0
M  V30 5462 O 569.265 -1.72249 0.260003 0
M  V30 5463 C 566.397 -3.35219 0.619751 0
M  V30 5464 H 567.59 -2.21302 2.02399 0
M  V30 5465 H 565.143 -1.12772 1.08223 0
M  V30 5466 H 565.878 -3.22508 -0.340486 0
M  V30 5467 H 565.663 -3.67129 1.37692 0
M  V30 5468 H 567.153 -4.14505 0.507443 0
M  V30 5469 N 567.59 -1.07411 -1.15328 0
M  V30 5470 C 568.815 -0.818856 -1.90551 0
M  V30 5471 C 569.24 0.622194 -1.77512 0
M  V30 5472 O 568.598 1.43484 -1.10824 0
M  V30 5473 C 568.646 -1.23267 -3.38877 0
M  V30 5474 O 567.75 -0.378345 -4.10661 0
M  V30 5475 H 567.091 -0.29827 -0.593238 0
M  V30 5476 H 569.621 -1.43289 -1.46046 0
M  V30 5477 H 569.631 -1.20912 -3.89672 0
M  V30 5478 H 568.306 -2.28226 -3.47686 0
M  V30 5479 H 566.883 -0.464437 -3.69996 0
M  V30 5480 N 569.068 1.32177 -0.85831 0
M  V30 5481 C 570.293 2.01847 -0.476718 0
M  V30 5482 C 570.718 1.64065 0.920021 0
M  V30 5483 O 570.076 0.843189 1.60499 0
M  V30 5484 C 570.124 3.55097 -0.627578 0
M  V30 5485 O 569.228 4.11012 0.338086 0
M  V30 5486 H 568.569 0.635907 -0.191099 0
M  V30 5487 H 571.099 1.68641 -1.15851 0
M  V30 5488 H 571.109 4.04718 -0.516476 0
M  V30 5489 H 569.784 3.81938 -1.64609 0
M  V30 5490 H 568.361 3.72451 0.182917 0
M  V30 5491 N 570.547 0.616602 1.45037 0
M  V30 5492 C 571.772 0.120192 2.07051 0
M  V30 5493 C 572.197 -1.19008 1.45666 0
M  V30 5494 O 571.555 -1.7267 0.552692 0
M  V30 5495 C 571.603 0.00354901 3.606 0
M  V30 5496 O 570.707 -1.04431 3.98958 0
M  V30 5497 H 570.048 0.0781599 0.659384 0
M  V30 5498 H 572.578 0.849167 1.86146 0
M  V30 5499 H 572.588 -0.191754 4.07549 0
M  V30 5500 H 571.263 0.960239 4.04663 0
M  V30 5501 H 569.84 -0.824749 3.63665 0
M  V30 5502 N 572.025 -1.5352 0.356285 0
M  V30 5503 C 573.273 -2.00719 -0.235837 0
M  V30 5504 C 573.594 -1.24551 -1.5004 0
M  V30 5505 O 572.864 -0.356185 -1.92635 0
M  V30 5506 H 571.444 -0.741542 -0.0901366 0
M  V30 5507 H 574.106 -1.88887 0.480378 0
M  V30 5508 H 573.202 -3.08551 -0.469357 0
M  V30 5509 N 573.503 -0.0852151 -1.57369 0
M  V30 5510 C 574.435 0.907099 -2.10486 0
M  V30 5511 C 575.448 1.25259 -1.03991 0
M  V30 5512 O 576.637 1.20743 -1.31467 0
M  V30 5513 C 573.737 2.21908 -2.56145 0
M  V30 5514 C 572.91 2.05042 -3.86363 0
M  V30 5515 C 571.969 3.19664 -4.17973 0
M  V30 5516 O 570.995 2.94062 -4.87356 0
M  V30 5517 N 572.197 4.45151 -3.72587 0
M  V30 5518 H 574.962 0.453505 -2.96249 0
M  V30 5519 H 572.523 0.100157 -1.6159 0
M  V30 5520 H 574.515 2.97519 -2.74343 0
M  V30 5521 H 573.085 2.58723 -1.75446 0
M  V30 5522 H 572.305 1.13819 -3.77411 0
M  V30 5523 H 573.593 1.91039 -4.71574 0
M  V30 5524 H 572.991 4.68834 -3.16561 0
M  V30 5525 H 571.548 5.17744 -3.9596 0
M  V30 5526 N 574.981 1.5647 0.188427 0
M  V30 5527 C 575.931 1.91479 1.23774 0
M  V30 5528 C 576.915 0.78119 1.40664 0
M  V30 5529 O 578.107 1.04414 1.42922 0
M  V30 5530 C 575.236 2.26354 2.58106 0
M  V30 5531 C 574.322 3.46186 2.44981 0
M  V30 5532 N 574.713 4.63911 2.01546 0
M  V30 5533 C 573.011 3.50456 2.75856 0
M  V30 5534 C 573.712 5.46064 2.00472 0
M  V30 5535 N 572.688 4.86648 2.42229 0
M  V30 5536 H 576.49 2.79994 0.893339 0
M  V30 5537 H 574.004 1.57477 0.39682 0
M  V30 5538 H 576.001 2.49622 3.33908 0
M  V30 5539 H 574.661 1.39168 2.93364 0
M  V30 5540 H 575.672 4.88451 1.7215 0
M  V30 5541 H 572.349 2.73704 3.15265 0
M  V30 5542 H 573.739 6.50368 1.68734 0
M  V30 5543 N 576.459 -0.456382 1.50847 0
M  V30 5544 C 577.707 -1.20497 1.62249 0
M  V30 5545 C 578.028 -1.92156 0.331839 0
M  V30 5546 O 577.298 -1.84751 -0.651443 0
M  V30 5547 H 575.878 -0.447775 0.597918 0
M  V30 5548 H 578.54 -0.525099 1.87693 0
M  V30 5549 H 577.636 -1.94492 2.44089 0
M  V30 5550 N 577.937 -1.40673 -0.710563 0
M  V30 5551 C 579.162 -1.42741 -1.50465 0
M  V30 5552 C 579.587 -0.0302116 -1.88076 0
M  V30 5553 O 578.945 0.962945 -1.53613 0
M  V30 5554 C 578.993 -2.32873 -2.75322 0
M  V30 5555 O 578.097 -1.77544 -3.72226 0
M  V30 5556 H 577.438 -0.485056 -0.45345 0
M  V30 5557 H 579.968 -1.84961 -0.874681 0
M  V30 5558 H 579.978 -2.48233 -3.23797 0
M  V30 5559 H 578.653 -3.34401 -2.47283 0
M  V30 5560 H 577.23 -1.71556 -3.31093 0
M  V30 5561 N 579.415 0.9433 -1.26252 0
M  V30 5562 C 580.64 1.72898 -1.14547 0
M  V30 5563 C 581.065 1.85761 0.295743 0
M  V30 5564 O 580.423 1.3463 1.21427 0
M  V30 5565 C 580.471 3.11471 -1.8171 0
M  V30 5566 O 579.575 3.97336 -1.10445 0
M  V30 5567 H 578.916 0.530555 -0.399259 0
M  V30 5568 H 581.446 1.18159 -1.67032 0
M  V30 5569 H 581.456 3.61872 -1.88449 0
M  V30 5570 H 580.131 3.01425 -2.86558 0
M  V30 5571 H 578.708 3.55788 -1.11666 0
M  V30 5572 N 580.893 1.08022 1.14757 0
M  V30 5573 C 582.118 0.82895 1.90114 0
M  V30 5574 C 582.543 -0.612772 1.77839 0
M  V30 5575 O 581.901 -1.42895 1.11583 0
M  V30 5576 C 581.949 1.25062 3.38219 0
M  V30 5577 O 581.053 0.400119 4.10454 0
M  V30 5578 H 580.394 0.301412 0.591648 0
M  V30 5579 H 582.924 1.44062 1.45284 0
M  V30 5580 H 582.934 1.22977 3.89025 0
M  V30 5581 H 581.609 2.30067 3.46471 0
M  V30 5582 H 580.186 0.484052 3.69745 0
M  V30 5583 N 582.371 -1.3172 0.865308 0
M  V30 5584 C 583.787 -1.4958 0.556596 0
M  V30 5585 C 583.987 -1.79763 -0.910353 0
M  V30 5586 O 583.043 -1.87351 -1.6928 0
M  V30 5587 C 584.356 -2.63277 1.45279 0
M  V30 5588 C 585.904 -2.77161 1.45433 0
M  V30 5589 C 586.379 -3.93949 2.33598 0
M  V30 5590 N 587.87 -4.01228 2.31453 0
M  V30 5591 C 588.605 -4.90855 2.96393 0
M  V30 5592 N 588.101 -5.85416 3.70486 0
M  V30 5593 N 589.894 -4.84063 2.85726 0
M  V30 5594 H 582.045 -1.10396 1.81456 0
M  V30 5595 H 584.308 -0.54507 0.775631 0
M  V30 5596 H 584.014 -2.47734 2.49641 0
M  V30 5597 H 583.888 -3.59309 1.14792 0
M  V30 5598 H 586.275 -2.9212 0.41831 0
M  V30 5599 H 586.356 -1.8181 1.79941 0
M  V30 5600 H 586 -3.79748 3.37274 0
M  V30 5601 H 585.93 -4.88598 1.96417 0
M  V30 5602 H 588.421 -3.3357 1.77593 0
M  V30 5603 H 588.734 -6.50525 4.17178 0
M  V30 5604 H 587.079 -5.85409 3.74594 0
M  V30 5605 H 590.27 -4.09163 2.27384 0
M  V30 5606 H 590.443 -5.53708 3.36617 0
M  V30 5607 N 583.85 -0.624285 -1.44708 0
M  V30 5608 C 584.782 0.12305 -2.28869 0
M  V30 5609 C 585.795 0.81557 -1.40898 0
M  V30 5610 O 586.984 0.678162 -1.65116 0
M  V30 5611 C 584.084 1.19612 -3.1709 0
M  V30 5612 C 583.257 0.587452 -4.33437 0
M  V30 5613 C 582.316 1.55358 -5.02743 0
M  V30 5614 O 581.341 1.07338 -5.58988 0
M  V30 5615 N 582.543 2.88798 -5.03563 0
M  V30 5616 H 585.308 -0.599193 -2.93649 0
M  V30 5617 H 582.87 -0.464954 -1.5508 0
M  V30 5618 H 584.861 1.84261 -3.60319 0
M  V30 5619 H 583.432 1.82067 -2.54107 0
M  V30 5620 H 582.652 -0.237509 -3.93484 0
M  V30 5621 H 583.94 0.161326 -5.08544 0
M  V30 5622 H 583.338 3.30399 -4.59188 0
M  V30 5623 H 581.894 3.48826 -5.50603 0
M  V30 5624 N 585.328 1.53329 -0.364422 0
M  V30 5625 C 586.553 2.06132 0.229033 0
M  V30 5626 C 586.978 1.23625 1.41769 0
M  V30 5627 O 586.336 0.255038 1.79497 0
M  V30 5628 C 586.384 3.55544 0.60174 0
M  V30 5629 O 585.488 3.75771 1.69912 0
M  V30 5630 H 584.829 0.663148 0.0336213 0
M  V30 5631 H 587.359 1.97758 -0.524689 0
M  V30 5632 H 587.369 3.98549 0.873073 0
M  V30 5633 H 586.044 4.15039 -0.267421 0
M  V30 5634 H 584.621 3.44663 1.42343 0
M  V30 5635 N 586.806 0.0935595 1.57322 0
M  V30 5636 C 588.031 -0.582324 1.99057 0
M  V30 5637 C 588.456 -1.61025 0.972242 0
M  V30 5638 O 587.814 -1.81202 -0.0594622 0
M  V30 5639 C 587.862 -1.20799 3.39765 0
M  V30 5640 O 586.966 -2.32382 3.40694 0
M  V30 5641 H 586.307 -0.147884 0.647323 0
M  V30 5642 H 588.837 0.174516 2.03854 0
M  V30 5643 H 588.847 -1.54966 3.77425 0
M  V30 5644 H 587.522 -0.454914 4.13405 0
M  V30 5645 H 586.099 -1.99845 3.14827 0
M  V30 5646 N 588.284 -1.56567 -0.180126 0
M  V30 5647 C 589.509 -1.85975 -0.918041 0
M  V30 5648 C 589.934 -0.678888 -1.75422 0
M  V30 5649 O 589.292 0.372168 -1.77439 0
M  V30 5650 C 589.34 -3.13731 -1.77779 0
M  V30 5651 O 588.444 -2.95335 -2.87838 0
M  V30 5652 H 587.785 -0.61196 -0.257683 0
M  V30 5653 H 590.315 -2.03798 -0.180923 0
M  V30 5654 H 590.325 -3.4491 -2.17948 0
M  V30 5655 H 589 -3.99293 -1.16352 0
M  V30 5656 H 587.577 -2.7549 -2.51316 0
M  V30 5657 N 589.762 0.448376 -1.51087 0
M  V30 5658 C 590.992 1.21965 -1.66757 0
M  V30 5659 C 591.4 1.85748 -0.359753 0
M  V30 5660 O 590.743 1.71022 0.670604 0
M  V30 5661 C 590.805 2.35284 -2.71812 0
M  V30 5662 C 590.469 1.91957 -4.1473 0
M  V30 5663 C 591.466 1.42921 -4.9987 0
M  V30 5664 C 589.151 1.99985 -4.60772 0
M  V30 5665 C 591.145 1.02485 -6.29107 0
M  V30 5666 C 588.832 1.5916 -5.90009 0
M  V30 5667 C 589.83 1.10491 -6.74004 0
M  V30 5668 O 589.518 0.702413 -8.00825 0
M  V30 5669 H 589.25 0.374125 -0.563034 0
M  V30 5670 H 591.804 0.538927 -1.98204 0
M  V30 5671 H 590.034 3.06599 -2.35657 0
M  V30 5672 H 591.723 2.97184 -2.76472 0
M  V30 5673 H 592.489 1.36123 -4.65506 0
M  V30 5674 H 588.368 2.36814 -3.95525 0
M  V30 5675 H 591.912 0.644271 -6.94619 0
M  V30 5676 H 587.809 1.65626 -6.2389 0
M  V30 5677 H 588.577 0.829248 -8.14288 0
M  V30 5678 N 591.24 1.41047 0.703093 0
M  V30 5679 C 592.488 1.39723 1.4602 0
M  V30 5680 C 592.809 0.00461257 1.94999 0
M  V30 5681 O 592.079 -0.952292 1.71196 0
M  V30 5682 H 590.659 0.514281 0.541779 0
M  V30 5683 H 593.321 1.76217 0.832678 0
M  V30 5684 H 592.417 2.07982 2.32701 0
M  V30 5685 N 592.718 -0.936591 1.26751 0
M  V30 5686 C 593.65 -2.03991 1.045 0
M  V30 5687 C 594.663 -1.628 0.00394261 0
M  V30 5688 O 595.852 -1.76817 0.244526 0
M  V30 5689 C 592.952 -3.34218 0.561403 0
M  V30 5690 C 592.125 -4.04151 1.67274 0
M  V30 5691 C 591.184 -5.12651 1.1864 0
M  V30 5692 O 590.21 -5.37104 1.88437 0
M  V30 5693 N 591.412 -5.80488 0.037278 0
M  V30 5694 H 594.177 -2.23644 1.99508 0
M  V30 5695 H 591.738 -1.10638 1.18198 0
M  V30 5696 H 593.73 -4.04101 0.220136 0
M  V30 5697 H 592.3 -3.11203 -0.295211 0
M  V30 5698 H 591.52 -3.28121 2.18472 0
M  V30 5699 H 592.808 -4.47626 2.41885 0
M  V30 5700 H 592.206 -5.63064 -0.545494 0
M  V30 5701 H 590.763 -6.5134 -0.244877 0
M  V30 5702 N 594.196 -1.08629 -1.14182 0
M  V30 5703 C 595.146 -0.687882 -2.17376 0
M  V30 5704 C 596.13 0.293632 -1.58198 0
M  V30 5705 O 597.322 0.105292 -1.76687 0
M  V30 5706 C 594.451 -0.101184 -3.43151 0
M  V30 5707 C 593.537 -1.10862 -4.09354 0
M  V30 5708 N 593.928 -2.29285 -4.50846 0
M  V30 5709 C 592.226 -0.944897 -4.35876 0
M  V30 5710 C 592.927 -2.93305 -5.02342 0
M  V30 5711 N 591.903 -2.20903 -4.96692 0
M  V30 5712 H 595.705 -1.58963 -2.472 0
M  V30 5713 H 593.219 -0.961329 -1.3089 0
M  V30 5714 H 595.216 0.202209 -4.16409 0
M  V30 5715 H 593.876 0.795522 -3.14804 0
M  V30 5716 H 594.887 -2.66927 -4.43813 0
M  V30 5717 H 591.564 -0.102186 -4.17375 0
M  V30 5718 H 592.954 -3.93932 -5.44304 0
M  V30 5719 N 595.674 1.31259 -0.872281 0
M  V30 5720 C 596.584 2.32221 -0.333255 0
M  V30 5721 C 597.6 1.6481 0.558013 0
M  V30 5722 O 598.776 1.96212 0.454175 0
M  V30 5723 C 595.841 3.43708 0.454479 0
M  V30 5724 C 594.902 4.26774 -0.465024 0
M  V30 5725 C 594.135 5.32937 0.28521 0
M  V30 5726 O 594.358 5.49968 1.513 0
M  V30 5727 O 593.292 6.00834 -0.358126 0
M  V30 5728 H 597.118 2.80252 -1.17016 0
M  V30 5729 H 594.703 1.352 -0.635724 0
M  V30 5730 H 596.585 4.11656 0.900963 0
M  V30 5731 H 595.26 2.97836 1.26789 0
M  V30 5732 H 594.167 3.61571 -0.960055 0
M  V30 5733 H 595.5 4.76217 -1.2441 0
M  V30 5734 N 597.152 0.631951 1.44375 0
M  V30 5735 C 598.377 0.142146 2.06912 0
M  V30 5736 C 598.802 -1.17456 1.4692 0
M  V30 5737 O 598.16 -1.72074 0.570975 0
M  V30 5738 C 598.208 0.0417952 3.60576 0
M  V30 5739 O 597.312 -1.00194 4.00044 0
M  V30 5740 H 596.653 0.0851491 0.658518 0
M  V30 5741 H 599.183 0.868863 1.85235 0
M  V30 5742 H 599.193 -0.148517 4.0773 0
M  V30 5743 H 597.868 1.0031 4.03622 0
M  V30 5744 H 596.445 -0.786131 3.64519 0
M  V30 5745 N 598.631 -1.53133 0.372548 0
M  V30 5746 C 599.594 -2.24569 -0.458389 0
M  V30 5747 C 600.594 -1.25603 -1.00402 0
M  V30 5748 O 601.784 -1.49827 -0.888672 0
M  V30 5749 C 598.916 -2.98783 -1.6414 0
M  V30 5750 H 600.109 -2.99436 0.166799 0
M  V30 5751 H 597.662 -1.55805 0.124357 0
M  V30 5752 H 598.397 -2.28176 -2.30448 0
M  V30 5753 H 598.182 -3.71404 -1.25704 0
M  V30 5754 H 599.672 -3.53068 -2.23008 0
M  V30 5755 N 600.109 -0.101901 -1.5727 0
M  V30 5756 C 601.334 0.571759 -1.99363 0
M  V30 5757 C 601.759 1.60507 -0.980768 0
M  V30 5758 O 601.117 1.81231 0.0498517 0
M  V30 5759 C 601.165 1.18996 -3.404 0
M  V30 5760 O 600.269 2.30572 -3.41922 0
M  V30 5761 H 599.61 0.144449 -0.648098 0
M  V30 5762 H 602.14 -0.185325 -2.03759 0
M  V30 5763 H 602.15 1.52962 -3.78241 0
M  V30 5764 H 600.825 0.432984 -4.1364 0
M  V30 5765 H 599.402 1.98173 -3.15883 0
M  V30 5766 N 601.587 1.56661 0.17182 0
M  V30 5767 C 603.003 1.50768 0.52357 0
M  V30 5768 C 603.203 0.806072 1.84675 0
M  V30 5769 O 602.259 0.366233 2.4983 0
M  V30 5770 C 603.572 2.955 0.556793 0
M  V30 5771 C 605.12 3.06303 0.644029 0
M  V30 5772 C 605.595 4.52492 0.708148 0
M  V30 5773 N 607.086 4.56737 0.771051 0
M  V30 5774 C 607.821 5.67196 0.841229 0
M  V30 5775 N 607.317 6.87287 0.872272 0
M  V30 5776 N 609.11 5.55165 0.88021 0
M  V30 5777 H 601.261 2.00679 -0.695817 0
M  V30 5778 H 603.524 0.914219 -0.250814 0
M  V30 5779 H 603.23 3.49986 -0.346774 0
M  V30 5780 H 603.104 3.50119 1.40346 0
M  V30 5781 H 605.491 2.51851 1.53802 0
M  V30 5782 H 605.572 2.5477 -0.229297 0
M  V30 5783 H 605.216 5.07575 -0.181585 0
M  V30 5784 H 605.146 5.01781 1.59761 0
M  V30 5785 H 607.637 3.70274 0.755364 0
M  V30 5786 H 607.95 7.6722 0.92698 0
M  V30 5787 H 606.295 6.89898 0.840557 0
M  V30 5788 H 609.486 4.60263 0.852956 0
M  V30 5789 H 609.659 6.41271 0.931439 0
M  V30 5790 N 603.065 -0.440357 1.51323 0
M  V30 5791 C 604.015 -1.53263 1.68803 0
M  V30 5792 C 604.999 -1.51494 0.542057 0
M  V30 5793 O 606.191 -1.57999 0.797839 0
M  V30 5794 C 603.32 -2.91479 1.8137 0
M  V30 5795 C 602.406 -2.98015 3.01742 0
M  V30 5796 N 602.797 -2.743 4.24962 0
M  V30 5797 C 601.095 -3.29173 3.00934 0
M  V30 5798 C 601.796 -2.86601 5.06197 0
M  V30 5799 N 600.772 -3.1814 4.40781 0
M  V30 5800 H 604.574 -1.33675 2.61741 0
M  V30 5801 H 602.088 -0.647616 1.48929 0
M  V30 5802 H 604.085 -3.70055 1.92002 0
M  V30 5803 H 602.745 -3.12089 0.896117 0
M  V30 5804 H 603.756 -2.49287 4.53957 0
M  V30 5805 H 600.433 -3.55577 2.18796 0
M  V30 5806 H 601.823 -2.72246 6.14274 0
M  V30 5807 N 604.543 -1.41418 -0.695603 0
M  V30 5808 C 605.768 -1.44329 -1.48942 0
M  V30 5809 C 606.193 -0.0501579 -1.88033 0
M  V30 5810 O 605.551 0.946598 -1.54626 0
M  V30 5811 C 605.599 -2.3578 -2.72837 0
M  V30 5812 O 604.703 -1.81482 -3.70322 0
M  V30 5813 H 604.044 -0.489838 -0.44828 0
M  V30 5814 H 606.574 -1.85878 -0.855014 0
M  V30 5815 H 606.584 -2.51654 -3.21145 0
M  V30 5816 H 605.259 -3.37005 -2.43722 0
M  V30 5817 H 603.836 -1.75058 -3.29255 0
M  V30 5818 N 606.021 0.929856 -1.27246 0
M  V30 5819 C 607.246 1.71674 -1.16374 0
M  V30 5820 C 607.671 1.86064 0.276024 0
M  V30 5821 O 607.029 1.3591 1.19992 0
M  V30 5822 C 607.077 3.09526 -1.85003 0
M  V30 5823 O 606.181 3.96142 -1.14653 0
M  V30 5824 H 605.522 0.52629 -0.404863 0
M  V30 5825 H 608.052 1.16381 -1.68276 0
M  V30 5826 H 608.062 3.59852 -1.92276 0
M  V30 5827 H 606.737 2.98369 -2.89739 0
M  V30 5828 H 605.314 3.54584 -1.15433 0
M  V30 5829 N 607.499 1.09233 1.13605 0
M  V30 5830 C 608.747 0.825525 1.84471 0
M  V30 5831 C 609.068 -0.650702 1.83823 0
M  V30 5832 O 608.338 -1.47204 1.29259 0
M  V30 5833 H 606.918 0.3024 0.683054 0
M  V30 5834 H 609.58 1.38006 1.37624 0
M  V30 5835 H 608.676 1.17727 2.89045 0
M  V30 5836 N 608.977 -1.30795 0.87923 0
M  V30 5837 C 610.393 -1.48981 0.57243 0
M  V30 5838 C 610.593 -1.80719 -0.891236 0
M  V30 5839 O 609.649 -1.89136 -1.67283 0
M  V30 5840 C 610.962 -2.61721 1.48063 0
M  V30 5841 C 612.51 -2.75603 1.48365 0
M  V30 5842 C 612.985 -3.91449 2.37763 0
M  V30 5843 N 614.476 -3.98751 2.35695 0
M  V30 5844 C 615.211 -4.87684 3.01583 0
M  V30 5845 N 614.707 -5.81454 3.76674 0
M  V30 5846 N 616.5 -4.81005 2.90844 0
M  V30 5847 H 608.651 -1.08465 1.82617 0
M  V30 5848 H 610.914 -0.536813 0.781368 0
M  V30 5849 H 610.62 -2.45073 2.52254 0
M  V30 5850 H 610.494 -3.58071 1.18596 0
M  V30 5851 H 612.881 -2.9166 0.44927 0
M  V30 5852 H 612.962 -1.79891 1.81859 0
M  V30 5853 H 612.606 -3.76149 3.41283 0
M  V30 5854 H 612.536 -4.86487 2.01589 0
M  V30 5855 H 615.027 -3.31668 1.81121 0
M  V30 5856 H 615.34 -6.46063 4.24054 0
M  V30 5857 H 613.685 -5.81403 3.80782 0
M  V30 5858 H 616.876 -4.06728 2.31711 0
M  V30 5859 H 617.049 -5.50107 3.42471 0
M  V30 5860 N 610.455 -0.639598 -1.44038 0
M  V30 5861 C 611.703 -0.147188 -2.01563 0
M  V30 5862 C 612.024 1.2384 -1.50628 0
M  V30 5863 O 611.294 1.82452 -0.713316 0
M  V30 5864 H 609.874 -0.0514231 -0.745228 0
M  V30 5865 H 612.536 -0.828205 -1.76428 0
M  V30 5866 H 611.632 -0.121358 -3.11864 0
M  V30 5867 N 611.933 1.52934 -0.380664 0
M  V30 5868 C 612.865 2.23822 0.493581 0
M  V30 5869 C 613.878 1.25761 1.03383 0
M  V30 5870 O 615.067 1.5189 0.937633 0
M  V30 5871 C 612.167 2.9342 1.69582 0
M  V30 5872 C 611.34 4.18115 1.28445 0
M  V30 5873 C 610.399 4.70788 2.35042 0
M  V30 5874 O 609.425 5.34093 1.96807 0
M  V30 5875 N 610.627 4.49899 3.66839 0
M  V30 5876 H 613.392 2.99484 -0.11371 0
M  V30 5877 H 610.953 1.60577 -0.206587 0
M  V30 5878 H 612.945 3.2556 2.40401 0
M  V30 5879 H 611.515 2.21119 2.20965 0
M  V30 5880 H 610.735 3.92109 0.405503 0
M  V30 5881 H 612.023 4.99152 0.986132 0
M  V30 5882 H 611.421 3.99349 4.0067 0
M  V30 5883 H 609.978 4.86551 4.33718 0
M  V30 5884 N 613.412 0.11024 1.57214 0
M  V30 5885 C 614.362 -0.854147 2.11396 0
M  V30 5886 C 615.346 -1.23394 1.03261 0
M  V30 5887 O 616.538 -1.20649 1.2951 0
M  V30 5888 C 613.667 -2.10752 2.70995 0
M  V30 5889 C 612.753 -1.75249 3.86198 0
M  V30 5890 N 613.144 -1.10377 4.9361 0
M  V30 5891 C 611.442 -2.04763 3.96217 0
M  V30 5892 C 612.143 -0.938199 5.74084 0
M  V30 5893 N 611.119 -1.46039 5.23616 0
M  V30 5894 H 614.921 -0.348897 2.91822 0
M  V30 5895 H 612.435 -0.0925071 1.62136 0
M  V30 5896 H 614.432 -2.80801 3.0815 0
M  V30 5897 H 613.092 -2.61829 1.9203 0
M  V30 5898 H 614.103 -0.768785 5.12162 0
M  V30 5899 H 610.78 -2.57948 3.28282 0
M  V30 5900 H 612.17 -0.429678 6.70525 0
M  V30 5901 N 614.89 -1.56749 -0.16351 0
M  V30 5902 C 616.115 -1.86938 -0.898264 0
M  V30 5903 C 616.54 -0.697456 -1.74692 0
M  V30 5904 O 615.898 0.353327 -1.77824 0
M  V30 5905 C 615.946 -3.15599 -1.74441 0
M  V30 5906 O 615.05 -2.98371 -2.8469 0
M  V30 5907 H 614.391 -0.614659 -0.251178 0
M  V30 5908 H 616.921 -2.03979 -0.159298 0
M  V30 5909 H 616.931 -3.47202 -2.14277 0
M  V30 5910 H 615.606 -4.00505 -1.1211 0
M  V30 5911 H 614.183 -2.7814 -2.4838 0
M  V30 5912 N 616.368 0.432326 -1.51554 0
M  V30 5913 C 617.593 1.20824 -1.68571 0
M  V30 5914 C 618.018 1.84126 -0.384596 0
M  V30 5915 O 617.376 1.69025 0.655751 0
M  V30 5916 C 617.424 2.26429 -2.80646 0
M  V30 5917 O 616.528 3.32032 -2.44598 0
M  V30 5918 H 615.869 0.353765 -0.561913 0
M  V30 5919 H 618.399 0.509916 -1.98144 0
M  V30 5920 H 618.409 2.71133 -3.04878 0
M  V30 5921 H 617.084 1.79733 -3.75058 0
M  V30 5922 H 615.661 2.92769 -2.30956 0
M  V30 5923 N 617.846 1.41785 0.688094 0
M  V30 5924 C 619.094 1.41264 1.4453 0
M  V30 5925 C 619.415 0.0252946 1.94984 0
M  V30 5926 O 618.685 -0.934081 1.72197 0
M  V30 5927 H 617.265 0.519998 0.536294 0
M  V30 5928 H 619.927 1.7709 0.813941 0
M  V30 5929 H 619.023 2.10439 2.30482 0
M  V30 5930 N 619.324 -0.923095 1.27737 0
M  V30 5931 C 620.549 -1.71054 1.17283 0
M  V30 5932 C 620.974 -1.86208 -0.266153 0
M  V30 5933 O 620.332 -1.36545 -1.1927 0
M  V30 5934 C 620.38 -3.0854 1.86642 0
M  V30 5935 O 619.484 -3.95528 1.16752 0
M  V30 5936 H 618.825 -0.524136 0.407649 0
M  V30 5937 H 621.355 -1.15487 1.6889 0
M  V30 5938 H 621.365 -3.58828 1.94182 0
M  V30 5939 H 620.04 -2.96828 2.91317 0
M  V30 5940 H 618.617 -3.53967 1.17312 0
M  V30 5941 N 620.802 -1.09834 -1.13024 0
M  V30 5942 C 622.05 -0.835297 -1.8403 0
M  V30 5943 C 622.371 0.640944 -1.84165 0
M  V30 5944 O 621.641 1.46517 -1.30037 0
M  V30 5945 H 620.221 -0.306018 -0.681441 0
M  V30 5946 H 622.883 -1.38734 -1.36891 0
M  V30 5947 H 621.979 -1.19258 -2.88416 0
M  V30 5948 N 622.28 1.30327 -0.886154 0
M  V30 5949 C 623.212 2.27079 -0.311072 0
M  V30 5950 C 624.225 1.53758 0.53502 0
M  V30 5951 O 625.414 1.74947 0.354378 0
M  V30 5952 C 622.514 3.33965 0.576228 0
M  V30 5953 C 621.687 4.36735 -0.241064 0
M  V30 5954 C 620.746 5.23028 0.576916 0
M  V30 5955 O 619.772 5.692 -0.000802231 0
M  V30 5956 N 620.974 5.49016 1.88579 0
M  V30 5957 H 623.739 2.77065 -1.14259 0
M  V30 5958 H 621.3 1.43519 -0.749258 0
M  V30 5959 H 623.292 3.88618 1.12953 0
M  V30 5960 H 621.862 2.839 1.30842 0
M  V30 5961 H 621.082 3.81932 -0.975805 0
M  V30 5962 H 622.37 5.02451 -0.801272 0
M  V30 5963 H 621.768 5.13288 2.37806 0
M  V30 5964 H 620.325 6.06539 2.38651 0
M  V30 5965 N 623.758 0.647228 1.43697 0
M  V30 5966 C 624.983 0.164083 2.0675 0
M  V30 5967 C 625.408 -1.15892 1.48158 0
M  V30 5968 O 624.766 -1.71459 0.589194 0
M  V30 5969 C 624.814 0.0800368 3.60511 0
M  V30 5970 O 623.918 -0.959453 4.01084 0
M  V30 5971 H 623.259 0.0921288 0.657578 0
M  V30 5972 H 625.789 0.88846 1.84303 0
M  V30 5973 H 625.799 -0.105263 4.07864 0
M  V30 5974 H 624.474 1.04586 4.02535 0
M  V30 5975 H 623.051 -0.747425 3.65333 0
M  V30 5976 N 625.236 -1.5273 0.388769 0
M  V30 5977 C 626.647 -1.86505 -0.0853788 0
M  V30 5978 C 626.998 -1.30847 -1.46197 0
M  V30 5979 O 626.123 -0.639609 -2.06732 0
M  V30 5980 C 626.718 -3.38414 -0.161703 0
M  V30 5981 C 625.277 -3.71902 -0.580144 0
M  V30 5982 C 624.424 -2.76095 0.258218 0
M  V30 5983 H 627.375 -1.46647 0.606665 0
M  V30 5984 H 627.396 -3.67638 -0.980936 0
M  V30 5985 H 626.908 -3.78893 0.840333 0
M  V30 5986 H 625.009 -3.36992 -1.58957 0
M  V30 5987 H 625.122 -4.77902 -0.338663 0
M  V30 5988 H 623.486 -2.53195 -0.276432 0
M  V30 5989 H 624.269 -3.19411 1.25822 0
M  V30 5990 N 626.714 -0.118576 -1.57153 0
M  V30 5991 C 627.962 0.538461 -1.94795 0
M  V30 5992 C 628.283 1.67243 -1.00274 0
M  V30 5993 O 627.553 1.95811 -0.0589692 0
M  V30 5994 H 626.133 0.201904 -0.719197 0
M  V30 5995 H 628.795 -0.187418 -1.93997 0
M  V30 5996 H 627.891 0.933315 -2.97818 0
M  V30 5997 N 628.193 1.56834 0.155195 0
M  V30 5998 C 629.143 1.94061 1.19684 0
M  V30 5999 C 630.127 0.810851 1.38975 0
M  V30 6000 O 631.319 1.07422 1.40675 0
M  V30 6001 C 628.448 2.31778 2.53247 0
M  V30 6002 C 627.534 3.51305 2.37583 0
M  V30 6003 N 627.925 4.68081 1.9166 0
M  V30 6004 C 626.223 3.56228 2.6836 0
M  V30 6005 C 626.924 5.50193 1.88845 0
M  V30 6006 N 625.9 4.91676 2.31852 0
M  V30 6007 H 629.702 2.81826 0.833747 0
M  V30 6008 H 627.216 1.58284 0.363328 0
M  V30 6009 H 629.213 2.56649 3.28538 0
M  V30 6010 H 627.873 1.4536 2.90346 0
M  V30 6011 H 628.884 4.91993 1.6175 0
M  V30 6012 H 625.561 2.8033 3.09389 0
M  V30 6013 H 626.951 6.53801 1.54901 0
M  V30 6014 N 629.671 -0.424282 1.51781 0
M  V30 6015 C 630.919 -1.17028 1.64769 0
M  V30 6016 C 631.24 -1.91409 0.372523 0
M  V30 6017 O 630.51 -1.86091 -0.612108 0
M  V30 6018 H 629.09 -0.434992 0.607282 0
M  V30 6019 H 631.752 -0.485169 1.88765 0
M  V30 6020 H 630.848 -1.8927 2.4816 0
M  V30 6021 N 631.149 -1.42148 -0.680565 0
M  V30 6022 C 632.081 -1.41119 -1.80605 0
M  V30 6023 C 633.094 -0.311099 -1.598 0
M  V30 6024 O 634.283 -0.573813 -1.69026 0
M  V30 6025 C 631.383 -1.18204 -3.17618 0
M  V30 6026 C 630.556 -2.40537 -3.65322 0
M  V30 6027 C 629.615 -2.13254 -4.8105 0
M  V30 6028 O 628.641 -2.8641 -4.91892 0
M  V30 6029 N 629.843 -1.13208 -5.69354 0
M  V30 6030 H 632.608 -2.38128 -1.81975 0
M  V30 6031 H 630.169 -1.36953 -0.863446 0
M  V30 6032 H 632.161 -0.97878 -3.92686 0
M  V30 6033 H 630.731 -0.29738 -3.11182 0
M  V30 6034 H 629.951 -2.76468 -2.80996 0
M  V30 6035 H 631.239 -3.22012 -3.93936 0
M  V30 6036 H 630.637 -0.526893 -5.63241 0
M  V30 6037 H 629.194 -0.988699 -6.44258 0
M  V30 6038 N 632.627 0.916307 -1.28225 0
M  V30 6039 C 634.043 1.19425 -1.05876 0
M  V30 6040 C 634.243 2.005 0.2005 0
M  V30 6041 O 633.299 2.35806 0.902873 0
M  V30 6042 C 634.612 1.93133 -2.30478 0
M  V30 6043 C 636.16 2.06026 -2.35632 0
M  V30 6044 C 636.635 2.83141 -3.59994 0
M  V30 6045 N 638.126 2.90704 -3.60618 0
M  V30 6046 C 638.861 3.50865 -4.53521 0
M  V30 6047 N 638.357 4.12327 -5.56739 0
M  V30 6048 N 640.15 3.48379 -4.41122 0
M  V30 6049 H 632.301 0.37496 -2.09064 0
M  V30 6050 H 634.564 0.228531 -0.920042 0
M  V30 6051 H 634.27 1.40985 -3.22205 0
M  V30 6052 H 634.144 2.93696 -2.36691 0
M  V30 6053 H 636.531 2.57355 -1.44404 0
M  V30 6054 H 636.612 1.04647 -2.33415 0
M  V30 6055 H 636.256 2.32492 -4.51564 0
M  V30 6056 H 636.186 3.84829 -3.59464 0
M  V30 6057 H 638.677 2.47034 -2.85977 0
M  V30 6058 H 638.99 4.56205 -6.23776 0
M  V30 6059 H 637.335 4.10839 -5.60568 0
M  V30 6060 H 640.526 2.99572 -3.59686 0
M  V30 6061 H 640.699 3.94974 -5.13712 0
M  V30 6062 N 634.105 1.10431 1.1244 0
M  V30 6063 C 635.353 0.845045 1.83585 0
M  V30 6064 C 635.674 -0.631168 1.84503 0
M  V30 6065 O 634.944 -1.45825 1.30813 0
M  V30 6066 H 633.524 0.309628 0.679809 0
M  V30 6067 H 636.186 1.39458 1.36153 0
M  V30 6068 H 635.282 1.20786 2.8778 0
M  V30 6069 N 635.583 -1.29855 0.893053 0
M  V30 6070 C 636.808 -2.00512 0.530066 0
M  V30 6071 C 637.233 -1.66446 -0.876199 0
M  V30 6072 O 636.591 -0.885446 -1.58207 0
M  V30 6073 C 636.639 -3.53308 0.721505 0
M  V30 6074 O 635.743 -4.11764 -0.228994 0
M  V30 6075 H 635.084 -0.630617 0.207891 0
M  V30 6076 H 637.614 -1.6551 1.20282 0
M  V30 6077 H 637.624 -4.03206 0.623599 0
M  V30 6078 H 636.299 -3.77439 1.74678 0
M  V30 6079 H 634.876 -3.72805 -0.0841034 0
M  V30 6080 N 637.061 -0.65484 -1.43351 0
M  V30 6081 C 638.309 -0.168559 -2.01396 0
M  V30 6082 C 638.63 1.22235 -1.51933 0
M  V30 6083 O 637.9 1.81685 -0.732627 0
M  V30 6084 H 636.48 -0.0593244 -0.744641 0
M  V30 6085 H 639.142 -0.846871 -1.75539 0
M  V30 6086 H 638.238 -0.154428 -3.11718 0
M  V30 6087 N 638.539 1.52521 -0.396863 0
M  V30 6088 C 639.764 2.06571 0.185258 0
M  V30 6089 C 640.189 1.26605 1.39115 0
M  V30 6090 O 639.547 0.293055 1.78916 0
M  V30 6091 C 639.595 3.5674 0.526189 0
M  V30 6092 O 638.699 3.7929 1.61903 0
M  V30 6093 H 638.04 0.663712 0.0195474 0
M  V30 6094 H 640.57 1.966 -0.566519 0
M  V30 6095 H 640.58 4.00311 0.788338 0
M  V30 6096 H 639.255 4.14379 -0.355397 0
M  V30 6097 H 637.832 3.47605 1.35 0
M  V30 6098 N 640.017 0.126909 1.57088 0
M  V30 6099 C 641.265 -0.528123 1.95078 0
M  V30 6100 C 641.586 -1.66708 1.0116 0
M  V30 6101 O 640.856 -1.95777 0.0693527 0
M  V30 6102 H 639.436 -0.198087 0.720257 0
M  V30 6103 H 642.098 0.197703 1.93895 0
M  V30 6104 H 641.194 -0.917507 2.98309 0
M  V30 6105 N 641.495 -1.56914 -0.146875 0
M  V30 6106 C 642.427 -1.94878 -1.20645 0
M  V30 6107 C 643.44 -0.844633 -1.39175 0
M  V30 6108 O 644.629 -1.12304 -1.38744 0
M  V30 6109 C 641.729 -2.20769 -2.57127 0
M  V30 6110 C 640.902 -3.52053 -2.59572 0
M  V30 6111 C 639.961 -3.66482 -3.77594 0
M  V30 6112 O 638.987 -4.38873 -3.62462 0
M  V30 6113 N 640.189 -3.03156 -4.95052 0
M  V30 6114 H 642.954 -2.86374 -0.883757 0
M  V30 6115 H 640.515 -1.58366 -0.336436 0
M  V30 6116 H 642.507 -2.27664 -3.34591 0
M  V30 6117 H 641.077 -1.35538 -2.81688 0
M  V30 6118 H 640.297 -3.56598 -1.68023 0
M  V30 6119 H 641.585 -4.38396 -2.58238 0
M  V30 6120 H 640.983 -2.44258 -5.10249 0
M  V30 6121 H 639.54 -3.15611 -5.70292 0
M  V30 6122 N 642.974 0.416227 -1.52004 0
M  V30 6123 C 644.199 1.19029 -1.69843 0
M  V30 6124 C 644.624 1.83708 -0.404103 0
M  V30 6125 O 643.982 1.69711 0.637787 0
M  V30 6126 C 644.03 2.23439 -2.83032 0
M  V30 6127 O 643.134 3.29419 -2.48106 0
M  V30 6128 H 642.475 0.347785 -0.565634 0
M  V30 6129 H 645.005 0.488871 -1.98674 0
M  V30 6130 H 645.015 2.67884 -3.07737 0
M  V30 6131 H 643.69 1.75745 -3.76944 0
M  V30 6132 H 642.267 2.90303 -2.34048 0
M  V30 6133 N 644.452 1.42507 0.673017 0
M  V30 6134 C 645.863 1.38347 1.25367 0
M  V30 6135 C 646.214 0.0776327 1.96046 0
M  V30 6136 O 645.339 -0.823571 2.00116 0
M  V30 6137 C 645.934 2.506 2.28002 0
M  V30 6138 C 644.493 2.49767 2.81591 0
M  V30 6139 C 643.64 2.293 1.55938 0
M  V30 6140 H 646.591 1.51695 0.466288 0
M  V30 6141 H 646.612 2.20953 3.09774 0
M  V30 6142 H 646.124 3.45627 1.76532 0
M  V30 6143 H 644.225 1.58563 3.37177 0
M  V30 6144 H 644.338 3.46867 3.30485 0
M  V30 6145 H 642.702 1.77594 1.82572 0
M  V30 6146 H 643.485 3.26385 1.06431 0
M  V30 6147 N 645.93 -0.909495 1.28709 0
M  V30 6148 C 647.155 -1.69801 1.1909 0
M  V30 6149 C 647.58 -1.86479 -0.246388 0
M  V30 6150 O 646.938 -1.37802 -1.17815 0
M  V30 6151 C 646.986 -3.06543 1.89904 0
M  V30 6152 O 646.09 -3.94268 1.2094 0
M  V30 6153 H 645.431 -0.519783 0.413185 0
M  V30 6154 H 647.961 -1.13689 1.70106 0
M  V30 6155 H 647.971 -3.56748 1.97977 0
M  V30 6156 H 646.646 -2.93722 2.94449 0
M  V30 6157 H 645.223 -3.52702 1.2106 0
M  V30 6158 N 647.408 -1.11026 -1.11852 0
M  V30 6159 C 648.633 -0.879064 -1.87849 0
M  V30 6160 C 649.058 0.565406 -1.79401 0
M  V30 6161 O 648.416 1.39886 -1.15333 0
M  V30 6162 C 648.464 -1.33985 -3.34784 0
M  V30 6163 O 647.568 -0.508803 -4.09249 0
M  V30 6164 H 646.909 -0.316992 -0.583448 0
M  V30 6165 H 649.439 -1.47863 -1.41413 0
M  V30 6166 H 649.449 -1.33248 -3.85628 0
M  V30 6167 H 648.124 -2.39172 -3.40249 0
M  V30 6168 H 646.701 -0.581913 -3.68332 0
M  V30 6169 N 648.886 1.2938 -0.899927 0
M  V30 6170 C 650.134 1.95164 -0.524924 0
M  V30 6171 C 650.455 1.71292 0.931888 0
M  V30 6172 O 649.725 1.04481 1.65712 0
M  V30 6173 H 648.305 0.722133 -0.191135 0
M  V30 6174 H 650.967 1.57628 -1.14627 0
M  V30 6175 H 650.063 3.0397 -0.707711 0
M  V30 6176 N 650.364 0.662433 1.43002 0
M  V30 6177 C 651.296 -0.062326 2.29115 0
M  V30 6178 C 652.309 -0.777926 1.43011 0
M  V30 6179 O 653.498 -0.634146 1.66856 0
M  V30 6180 C 650.598 -1.11163 3.2015 0
M  V30 6181 C 649.771 -0.472327 4.34842 0
M  V30 6182 C 648.83 -1.41974 5.06685 0
M  V30 6183 O 647.856 -0.924795 5.61637 0
M  V30 6184 N 649.058 -2.75345 5.11043 0
M  V30 6185 H 651.823 0.676838 2.91957 0
M  V30 6186 H 649.384 0.505907 1.53793 0
M  V30 6187 H 651.376 -1.74643 3.65078 0
M  V30 6188 H 649.946 -1.75266 2.58845 0
M  V30 6189 H 649.166 0.341751 3.92716 0
M  V30 6190 H 650.454 -0.0264381 5.08793 0
M  V30 6191 H 649.852 -3.18108 4.67786 0
M  V30 6192 H 648.409 -3.34105 5.59658 0
M  V30 6193 N 651.842 -1.52309 0.404946 0
M  V30 6194 C 652.792 -2.23717 -0.439864 0
M  V30 6195 C 653.776 -1.24692 -1.0169 0
M  V30 6196 O 654.968 -1.49951 -0.940409 0
M  V30 6197 C 652.097 -3.05898 -1.55825 0
M  V30 6198 C 651.183 -4.12331 -0.992188 0
M  V30 6199 N 651.574 -5.0557 -0.152424 0
M  V30 6200 C 649.872 -4.2774 -1.26312 0
M  V30 6201 C 650.573 -5.81474 0.162041 0
M  V30 6202 N 649.549 -5.41767 -0.44601 0
M  V30 6203 H 653.351 -2.93162 0.208084 0
M  V30 6204 H 650.865 -1.60969 0.215131 0
M  V30 6205 H 652.862 -3.55605 -2.17603 0
M  V30 6206 H 651.522 -2.37991 -2.20886 0
M  V30 6207 H 652.533 -5.17468 0.211556 0
M  V30 6208 H 649.21 -3.71062 -1.91362 0
M  V30 6209 H 650.6 -6.66585 0.843423 0
M  V30 6210 N 653.32 -0.135238 -1.57019 0
M  V30 6211 C 654.568 0.51777 -1.95355 0
M  V30 6212 C 654.889 1.6617 -1.02042 0
M  V30 6213 O 654.159 1.95738 -0.0797343 0
M  V30 6214 H 652.739 0.194264 -0.721298 0
M  V30 6215 H 655.401 -0.207983 -1.93787 0
M  V30 6216 H 654.497 0.901675 -2.98791 0
M  V30 6217 N 654.798 1.5699 0.138552 0
M  V30 6218 C 656.026 1.87976 0.864437 0
M  V30 6219 C 656.441 0.724372 1.74351 0
M  V30 6220 O 655.798 -0.305575 1.79924 0
M  V30 6221 C 655.849 3.18276 1.71414 0
M  V30 6222 O 655.57 4.29365 0.870487 0
M  V30 6223 C 657.071 3.62834 2.54688 0
M  V30 6224 H 654.291 0.622878 0.249528 0
M  V30 6225 H 656.835 2.04094 0.128805 0
M  V30 6226 H 654.99 3.03886 2.40274 0
M  V30 6227 H 655.404 5.03924 1.45466 0
M  V30 6228 H 656.878 4.5682 3.0987 0
M  V30 6229 H 657.355 2.88533 3.31127 0
M  V30 6230 H 657.961 3.79946 1.91105 0
M  V30 6231 N 656.276 -0.40816 1.52223 0
M  V30 6232 C 657.524 -1.15274 1.66001 0
M  V30 6233 C 657.845 -1.91003 0.392803 0
M  V30 6234 O 657.115 -1.8673 -0.592336 0
M  V30 6235 H 655.695 -0.428526 0.611861 0
M  V30 6236 H 658.357 -0.46512 1.89269 0
M  V30 6237 H 657.453 -1.86628 2.50153 0
M  V30 6238 N 657.755 -1.42862 -0.66545 0
M  V30 6239 C 659.002 -1.4383 -1.42546 0
M  V30 6240 C 659.33 -0.0581114 -1.94413 0
M  V30 6241 O 658.585 0.935002 -1.71919 0
M  V30 6242 C 658.884 -2.4175 -2.63233 0
M  V30 6243 C 658.55 -3.87915 -2.29854 0
M  V30 6244 C 657.212 -4.27726 -2.20463 0
M  V30 6245 C 659.564 -4.80074 -2.02924 0
M  V30 6246 C 656.892 -5.57666 -1.82279 0
M  V30 6247 C 659.244 -6.10366 -1.66242 0
M  V30 6248 C 657.908 -6.49167 -1.55367 0
M  V30 6249 H 657.178 -0.52631 -0.521612 0
M  V30 6250 H 659.825 -1.75863 -0.757914 0
M  V30 6251 H 658.13 -2.03077 -3.35063 0
M  V30 6252 H 659.827 -2.39759 -3.21429 0
M  V30 6253 H 656.417 -3.564 -2.3807 0
M  V30 6254 H 660.601 -4.50097 -2.09108 0
M  V30 6255 H 655.857 -5.8658 -1.72436 0
M  V30 6256 H 660.031 -6.81258 -1.44432 0
M  V30 6257 H 657.658 -7.49761 -1.2555 0
M  V30 6258 N 659.233 0.902656 -1.29189 0
M  V30 6259 C 660.481 1.6496 -1.16758 0
M  V30 6260 C 660.802 1.92952 0.28188 0
M  V30 6261 O 660.072 1.55351 1.19344 0
M  V30 6262 H 658.652 0.611447 -0.429118 0
M  V30 6263 H 661.314 1.0825 -1.62074 0
M  V30 6264 H 660.41 2.60728 -1.71544 0
M  V30 6265 N 660.711 1.11618 1.11262 0
M  V30 6266 C 662.127 0.850468 1.35053 0
M  V30 6267 C 662.327 -0.523868 1.94571 0
M  V30 6268 O 661.383 -1.2743 2.17986 0
M  V30 6269 C 662.696 1.96005 2.28041 0
M  V30 6270 C 664.244 1.98993 2.416 0
M  V30 6271 C 664.719 3.0916 3.37911 0
M  V30 6272 N 666.21 3.08547 3.45475 0
M  V30 6273 C 666.945 3.9043 4.19943 0
M  V30 6274 N 666.441 4.8228 4.97371 0
M  V30 6275 N 668.234 3.786 4.15474 0
M  V30 6276 H 660.385 2.00184 0.709932 0
M  V30 6277 H 662.648 0.870635 0.375099 0
M  V30 6278 H 662.354 2.9499 1.91503 0
M  V30 6279 H 662.228 1.85782 3.28275 0
M  V30 6280 H 664.615 1.00633 2.77411 0
M  V30 6281 H 664.696 2.13292 1.4121 0
M  V30 6282 H 664.34 4.07748 3.02827 0
M  V30 6283 H 664.27 2.92102 4.3816 0
M  V30 6284 H 666.761 2.42 2.90249 0
M  V30 6285 H 667.074 5.41289 5.51567 0
M  V30 6286 H 665.419 4.863 4.96525 0
M  V30 6287 H 668.61 3.06185 3.54074 0
M  V30 6288 H 668.783 4.42647 4.73253 0
M  V30 6289 N 662.189 -1.289 0.906776 0
M  V30 6290 C 663.414 -1.99939 0.551303 0
M  V30 6291 C 663.839 -1.67366 -0.858496 0
M  V30 6292 O 663.197 -0.902176 -1.57259 0
M  V30 6293 C 663.245 -3.52523 0.758937 0
M  V30 6294 O 662.349 -4.11983 -0.185308 0
M  V30 6295 H 661.69 -0.628376 0.214568 0
M  V30 6296 H 664.22 -1.64225 1.2203 0
M  V30 6297 H 664.23 -4.02522 0.666329 0
M  V30 6298 H 662.905 -3.75566 1.78671 0
M  V30 6299 H 661.482 -3.72873 -0.0445577 0
M  V30 6300 N 663.667 -0.670007 -1.42649 0
M  V30 6301 C 664.892 -0.196955 -2.06463 0
M  V30 6302 C 665.317 1.1352 -1.49983 0
M  V30 6303 O 664.675 1.705 -0.616397 0
M  V30 6304 C 664.723 -0.137381 -3.60338 0
M  V30 6305 O 663.827 0.895523 -4.02559 0
M  V30 6306 H 663.168 -0.102579 -0.656029 0
M  V30 6307 H 665.698 -0.917669 -1.82866 0
M  V30 6308 H 665.708 0.0403625 -4.0798 0
M  V30 6309 H 664.383 -1.10977 -4.0082 0
M  V30 6310 H 662.96 0.689209 -3.66476 0
M  V30 6311 N 665.145 1.52092 -0.413018 0
M  V30 6312 C 666.37 2.06756 0.163338 0
M  V30 6313 C 666.795 1.28073 1.37764 0
M  V30 6314 O 666.153 0.312015 1.78595 0
M  V30 6315 C 666.201 3.57278 0.488322 0
M  V30 6316 O 665.305 3.80986 1.57871 0
M  V30 6317 H 664.646 0.663882 0.0125068 0
M  V30 6318 H 667.176 1.95988 -0.587339 0
M  V30 6319 H 667.186 4.01125 0.745836 0
M  V30 6320 H 665.861 4.13978 -0.399327 0
M  V30 6321 H 664.438 3.49017 1.31306 0
M  V30 6322 N 666.623 0.143563 1.56945 0
M  V30 6323 C 667.848 -0.518701 2.00809 0
M  V30 6324 C 668.273 -1.5785 1.02298 0
M  V30 6325 O 667.631 -1.813 -0.0017839 0
M  V30 6326 C 667.679 -1.09929 3.43436 0
M  V30 6327 O 666.783 -2.21425 3.47915 0
M  V30 6328 H 666.124 -0.127215 0.6517 0
M  V30 6329 H 668.654 0.239283 2.03196 0
M  V30 6330 H 668.664 -1.4288 3.82164 0
M  V30 6331 H 667.339 -0.323162 4.14643 0
M  V30 6332 H 665.916 -1.89728 3.21026 0
M  V30 6333 N 668.101 -1.57061 -0.130224 0
M  V30 6334 C 669.349 -1.83893 -0.838313 0
M  V30 6335 C 669.67 -0.727046 -1.80939 0
M  V30 6336 O 668.94 0.249927 -1.94299 0
M  V30 6337 H 667.52 -0.67846 -0.312573 0
M  V30 6338 H 670.182 -1.94529 -0.120224 0
M  V30 6339 H 669.278 -2.79419 -1.39038 0
M  V30 6340 N 669.579 0.400081 -1.52437 0
M  V30 6341 C 670.99 0.97851 -1.59003 0
M  V30 6342 C 671.341 1.91293 -0.436068 0
M  V30 6343 O 670.466 2.1183 0.442365 0
M  V30 6344 C 671.061 1.78145 -2.88184 0
M  V30 6345 C 669.62 2.30976 -2.97199 0
M  V30 6346 C 668.767 1.11212 -2.54022 0
M  V30 6347 H 671.718 0.180002 -1.57676 0
M  V30 6348 H 671.739 2.63968 -2.74046 0
M  V30 6349 H 671.251 1.1011 -3.72152 0
M  V30 6350 H 669.352 3.02355 -2.17744 0
M  V30 6351 H 669.465 2.61221 -4.01622 0
M  V30 6352 H 667.829 1.46882 -2.08081 0
M  V30 6353 H 668.612 0.447307 -3.40373 0
M  V30 6354 N 671.057 1.43213 0.657864 0
M  V30 6355 C 672.287 1.478 1.44356 0
M  V30 6356 C 672.695 0.0930206 1.88971 0
M  V30 6357 O 672.038 -0.906089 1.59799 0
M  V30 6358 C 672.1 2.35745 2.71412 0
M  V30 6359 C 671.764 3.83359 2.48767 0
M  V30 6360 C 672.761 4.74585 2.12285 0
M  V30 6361 C 670.446 4.27799 2.63235 0
M  V30 6362 C 672.44 6.08247 1.90562 0
M  V30 6363 C 670.127 5.61516 2.41128 0
M  V30 6364 C 671.125 6.51557 2.04847 0
M  V30 6365 O 670.813 7.82802 1.82967 0
M  V30 6366 H 670.545 0.504363 0.450104 0
M  V30 6367 H 673.099 1.88572 0.814241 0
M  V30 6368 H 671.329 1.89852 3.36887 0
M  V30 6369 H 673.018 2.31589 3.33348 0
M  V30 6370 H 673.784 4.41531 2.00687 0
M  V30 6371 H 669.663 3.57993 2.90451 0
M  V30 6372 H 673.207 6.78489 1.62168 0
M  V30 6373 H 669.104 5.94139 2.52327 0
M  V30 6374 H 669.872 7.94332 1.97429 0
M  V30 6375 N 672.536 -0.895792 1.29666 0
M  V30 6376 C 673.782 -1.64908 1.18039 0
M  V30 6377 C 674.115 -1.9236 -0.266682 0
M  V30 6378 O 673.39 -1.53682 -1.19214 0
M  V30 6379 C 673.673 -2.99574 1.99819 0
M  V30 6380 C 673.526 -2.79163 3.52687 0
M  V30 6381 C 674.845 -4.00358 1.82761 0
M  V30 6382 H 671.964 -0.598437 0.430165 0
M  V30 6383 H 674.606 -1.03736 1.59182 0
M  V30 6384 H 672.756 -3.51786 1.64859 0
M  V30 6385 H 674.428 -2.33821 3.9765 0
M  V30 6386 H 672.671 -2.13871 3.77414 0
M  V30 6387 H 673.342 -3.74871 4.05186 0
M  V30 6388 H 675.818 -3.57268 2.13304 0
M  V30 6389 H 674.694 -4.92514 2.42325 0
M  V30 6390 H 674.955 -4.35096 0.783839 0
M  V30 6391 N 674.014 -1.12206 -1.10668 0
M  V30 6392 C 675.239 -0.898938 -1.86906 0
M  V30 6393 C 675.664 0.546346 -1.79991 0
M  V30 6394 O 675.022 1.38655 -1.1681 0
M  V30 6395 C 675.07 -1.37529 -3.33344 0
M  V30 6396 O 674.174 -0.55218 -4.08687 0
M  V30 6397 H 673.515 -0.323163 -0.580053 0
M  V30 6398 H 676.045 -1.49355 -1.39837 0
M  V30 6399 H 676.055 -1.3733 -3.84193 0
M  V30 6400 H 674.73 -2.42767 -3.37693 0
M  V30 6401 H 673.307 -0.620947 -3.67694 0
M  V30 6402 N 675.492 1.28418 -0.913599 0
M  V30 6403 C 676.74 1.94596 -0.545594 0
M  V30 6404 C 677.061 1.7227 0.913668 0
M  V30 6405 O 676.331 1.06233 1.64595 0
M  V30 6406 H 674.911 0.720065 -0.198783 0
M  V30 6407 H 677.573 1.56404 -1.16292 0
M  V30 6408 H 676.669 3.03202 -0.739911 0
M  V30 6409 N 676.97 0.677563 1.42291 0
M  V30 6410 C 678.195 0.207901 2.06355 0
M  V30 6411 C 678.62 -1.12723 1.50583 0
M  V30 6412 O 677.978 -1.70171 0.62543 0
M  V30 6413 C 678.026 0.156489 3.6026 0
M  V30 6414 O 677.13 -0.874162 4.03029 0
M  V30 6415 H 676.471 0.106056 0.655475 0
M  V30 6416 H 679.001 0.927354 1.82377 0
M  V30 6417 H 679.011 -0.0187258 4.07996 0
M  V30 6418 H 677.686 1.13101 4.00226 0
M  V30 6419 H 676.263 -0.669764 3.66836 0
M  V30 6420 N 678.448 -1.51871 0.421078 0
M  V30 6421 C 679.696 -2.01539 -0.150492 0
M  V30 6422 C 680.017 -1.30803 -1.44623 0
M  V30 6423 O 679.287 -0.437568 -1.90951 0
M  V30 6424 H 677.867 -0.744698 -0.0586041 0
M  V30 6425 H 680.529 -1.8668 0.560059 0
M  V30 6426 H 679.625 -3.10264 -0.338068 0
M  V30 6427 N 679.926 -0.151884 -1.56866 0
M  V30 6428 C 681.156 0.504081 -2.00356 0
M  V30 6429 C 681.564 1.58639 -1.03103 0
M  V30 6430 O 680.907 1.83688 -0.0207931 0
M  V30 6431 C 680.969 1.15975 -3.40279 0
M  V30 6432 C 680.633 0.221453 -4.56463 0
M  V30 6433 C 681.63 -0.552766 -5.16953 0
M  V30 6434 C 679.315 0.122936 -5.0215 0
M  V30 6435 C 681.309 -1.4129 -6.21543 0
M  V30 6436 C 678.996 -0.740801 -6.06593 0
M  V30 6437 C 679.994 -1.50732 -6.6616 0
M  V30 6438 O 679.682 -2.35666 -7.68581 0
M  V30 6439 H 679.414 0.135279 -0.662326 0
M  V30 6440 H 681.968 -0.244916 -2.03935 0
M  V30 6441 H 680.198 1.95649 -3.33554 0
M  V30 6442 H 681.887 1.71594 -3.67846 0
M  V30 6443 H 682.653 -0.486716 -4.82552 0
M  V30 6444 H 678.532 0.70931 -4.5551 0
M  V30 6445 H 682.076 -2.01166 -6.67966 0
M  V30 6446 H 677.973 -0.808125 -6.40421 0
M  V30 6447 H 678.741 -2.28967 -7.85822 0
M  V30 6448 N 681.404 1.57128 0.121893 0
M  V30 6449 C 682.629 1.89254 0.848385 0
M  V30 6450 C 683.054 0.743527 1.72781 0
M  V30 6451 O 682.412 -0.306056 1.78698 0
M  V30 6452 C 682.46 3.20113 1.66012 0
M  V30 6453 O 681.564 3.05815 2.76679 0
M  V30 6454 H 680.905 0.621103 0.234793 0
M  V30 6455 H 683.435 2.0433 0.10516 0
M  V30 6456 H 683.445 3.52761 2.04996 0
M  V30 6457 H 682.12 4.03336 1.01452 0
M  V30 6458 H 680.697 2.84627 2.40918 0
M  V30 6459 N 682.882 -0.391992 1.52647 0
M  V30 6460 C 684.107 -1.16312 1.71716 0
M  V30 6461 C 684.532 -1.83042 0.433279 0
M  V30 6462 O 683.89 -1.70705 -0.610707 0
M  V30 6463 C 683.938 -2.18908 2.86551 0
M  V30 6464 O 683.042 -3.2543 2.53316 0
M  V30 6465 H 682.383 -0.338743 0.571095 0
M  V30 6466 H 684.913 -0.457202 1.99426 0
M  V30 6467 H 684.923 -2.62954 3.1196 0
M  V30 6468 H 683.598 -1.69726 3.79692 0
M  V30 6469 H 682.175 -2.86543 2.38637 0
M  V30 6470 N 684.36 -1.4356 -0.65026 0
M  V30 6471 C 685.608 -1.45046 -1.40734 0
M  V30 6472 C 685.929 -0.0769822 -1.94848 0
M  V30 6473 O 685.199 0.888098 -1.74613 0
M  V30 6474 H 683.779 -0.534034 -0.522318 0
M  V30 6475 H 686.441 -1.79186 -0.766703 0
M  V30 6476 H 685.537 -2.16476 -2.24822 0
M  V30 6477 N 685.838 0.888903 -1.30139 0
M  V30 6478 C 687.085 1.64037 -1.18736 0
M  V30 6479 C 687.413 1.92771 0.258801 0
M  V30 6480 O 686.668 1.54427 1.20212 0
M  V30 6481 C 686.967 2.99041 -1.95728 0
M  V30 6482 C 686.633 2.89874 -3.45375 0
M  V30 6483 C 685.295 2.87082 -3.86183 0
M  V30 6484 C 687.647 2.78289 -4.40687 0
M  V30 6485 C 684.975 2.70536 -5.20603 0
M  V30 6486 C 687.327 2.63282 -5.75209 0
M  V30 6487 C 685.991 2.58861 -6.15262 0
M  V30 6488 H 685.261 0.600253 -0.434485 0
M  V30 6489 H 687.908 1.0338 -1.61198 0
M  V30 6490 H 686.213 3.63626 -1.45888 0
M  V30 6491 H 687.91 3.56139 -1.843 0
M  V30 6492 H 684.5 2.92856 -3.12943 0
M  V30 6493 H 688.684 2.79516 -4.10103 0
M  V30 6494 H 683.94 2.65526 -5.50732 0
M  V30 6495 H 688.114 2.5329 -6.48704 0
M  V30 6496 H 685.741 2.45799 -7.19366 0
M  V30 6497 N 687.317 1.12792 1.10072 0
M  V30 6498 C 688.565 0.883796 1.81751 0
M  V30 6499 C 688.886 -0.591891 1.858 0
M  V30 6500 O 688.156 -1.43017 1.33876 0
M  V30 6501 H 686.736 0.323978 0.673088 0
M  V30 6502 H 689.398 1.42314 1.33164 0
M  V30 6503 H 688.494 1.26863 2.85153 0
M  V30 6504 N 688.795 -1.27931 0.920396 0
M  V30 6505 C 689.745 -2.24727 0.384966 0
M  V30 6506 C 690.729 -1.52715 -0.506661 0
M  V30 6507 O 691.921 -1.73599 -0.345298 0
M  V30 6508 C 689.05 -3.41324 -0.3678 0
M  V30 6509 C 688.136 -4.20649 0.539925 0
M  V30 6510 N 688.527 -4.77906 1.6565 0
M  V30 6511 C 686.825 -4.4469 0.341557 0
M  V30 6512 C 687.526 -5.37652 2.22047 0
M  V30 6513 N 686.502 -5.2218 1.51093 0
M  V30 6514 H 690.304 -2.66572 1.23761 0
M  V30 6515 H 687.818 -1.42779 0.773819 0
M  V30 6516 H 689.815 -4.0976 -0.768277 0
M  V30 6517 H 688.475 -3.01012 -1.21746 0
M  V30 6518 H 689.486 -4.76073 2.03899 0
M  V30 6519 H 686.163 -4.14868 -0.468045 0
M  V30 6520 H 687.553 -5.92948 3.1601 0
M  V30 6521 N 690.273 -0.685099 -1.4193 0
M  V30 6522 C 691.223 0.00977295 -2.27998 0
M  V30 6523 C 692.207 0.763315 -1.41641 0
M  V30 6524 O 693.399 0.640532 -1.65004 0
M  V30 6525 C 690.528 0.952972 -3.29808 0
M  V30 6526 C 689.614 0.196231 -4.23646 0
M  V30 6527 N 690.005 -0.804401 -4.99363 0
M  V30 6528 C 688.303 0.433213 -4.43891 0
M  V30 6529 C 689.004 -1.25646 -5.67968 0
M  V30 6530 N 687.98 -0.5844 -5.4045 0
M  V30 6531 H 691.782 -0.757586 -2.83968 0
M  V30 6532 H 689.296 -0.515037 -1.54017 0
M  V30 6533 H 691.293 1.46585 -3.9028 0
M  V30 6534 H 689.953 1.72004 -2.75399 0
M  V30 6535 H 690.964 -1.18429 -5.04177 0
M  V30 6536 H 687.641 1.17899 -4.00507 0
M  V30 6537 H 689.031 -2.08622 -6.38691 0
M  V30 6538 N 691.751 1.51645 -0.429126 0
M  V30 6539 C 692.661 2.31288 0.392809 0
M  V30 6540 C 693.677 1.39852 1.03525 0
M  V30 6541 O 694.853 1.72926 1.03241 0
M  V30 6542 C 691.918 3.13347 1.48372 0
M  V30 6543 C 690.979 4.20551 0.862268 0
M  V30 6544 C 690.212 4.98688 1.9012 0
M  V30 6545 O 690.435 4.77359 3.12225 0
M  V30 6546 O 689.369 5.83005 1.4963 0
M  V30 6547 H 693.195 3.02609 -0.257138 0
M  V30 6548 H 690.78 1.48163 -0.191851 0
M  V30 6549 H 692.662 3.64387 2.1166 0
M  V30 6550 H 691.337 2.44799 2.1179 0
M  V30 6551 H 690.244 3.73609 0.191568 0
M  V30 6552 H 691.577 4.91449 0.271704 0
M  V30 6553 N 693.229 0.160201 1.56784 0
M  V30 6554 C 694.454 -0.497373 2.01348 0
M  V30 6555 C 694.879 -1.56757 1.03966 0
M  V30 6556 O 694.237 -1.81292 0.0174455 0
M  V30 6557 C 694.285 -1.0628 3.44582 0
M  V30 6558 O 693.389 -2.17723 3.50244 0
M  V30 6559 H 692.73 -0.120295 0.653012 0
M  V30 6560 H 695.26 0.260821 2.02931 0
M  V30 6561 H 695.27 -1.38819 3.83658 0
M  V30 6562 H 693.945 -0.279166 4.14962 0
M  V30 6563 H 692.522 -1.86313 3.2302 0
M  V30 6564 N 694.707 -1.5719 -0.113559 0
M  V30 6565 C 695.932 -1.89702 -0.838336 0
M  V30 6566 C 696.357 -0.752679 -1.72384 0
M  V30 6567 O 695.715 0.296575 -1.78858 0
M  V30 6568 C 695.763 -3.20989 -1.64312 0
M  V30 6569 O 694.867 -3.07278 -2.75053 0
M  V30 6570 H 694.208 -0.622339 -0.231496 0
M  V30 6571 H 696.738 -2.04382 -0.0943228 0
M  V30 6572 H 696.748 -3.53843 -2.03123 0
M  V30 6573 H 695.423 -4.03869 -0.993119 0
M  V30 6574 H 694 -2.85901 -2.39406 0
M  V30 6575 N 696.185 0.383891 -1.52853 0
M  V30 6576 C 697.41 1.154 -1.7233 0
M  V30 6577 C 697.835 1.82809 -0.44298 0
M  V30 6578 O 697.193 1.71026 0.601645 0
M  V30 6579 C 697.241 2.17386 -2.87708 0
M  V30 6580 O 696.345 3.24082 -2.55038 0
M  V30 6581 H 695.686 0.335709 -0.572883 0
M  V30 6582 H 698.216 0.44662 -1.99666 0
M  V30 6583 H 698.226 2.61296 -3.1335 0
M  V30 6584 H 696.901 1.6771 -3.80587 0
M  V30 6585 H 695.478 2.85273 -2.40153 0
M  V30 6586 N 697.663 1.43903 0.642637 0
M  V30 6587 C 698.573 1.52349 1.78401 0
M  V30 6588 C 699.589 0.409869 1.69104 0
M  V30 6589 O 700.765 0.665548 1.90085 0
M  V30 6590 C 697.83 1.45408 3.14734 0
M  V30 6591 C 696.891 2.67528 3.35749 0
M  V30 6592 C 696.124 2.60909 4.65577 0
M  V30 6593 O 696.347 1.6627 5.45628 0
M  V30 6594 O 695.281 3.5158 4.88544 0
M  V30 6595 H 699.107 2.48752 1.7423 0
M  V30 6596 H 696.692 1.26021 0.802439 0
M  V30 6597 H 698.574 1.44019 3.96026 0
M  V30 6598 H 697.249 0.521437 3.19473 0
M  V30 6599 H 696.156 2.74487 2.5418 0
M  V30 6600 H 697.489 3.598 3.35864 0
M  V30 6601 N 699.141 -0.881989 1.30609 0
M  V30 6602 C 700.091 -1.97539 1.13852 0
M  V30 6603 C 701.075 -1.60813 0.0528428 0
M  V30 6604 O 702.267 -1.74827 0.276484 0
M  V30 6605 C 699.396 -3.32977 0.835519 0
M  V30 6606 C 698.482 -3.76008 1.96159 0
M  V30 6607 N 698.873 -3.91109 3.20729 0
M  V30 6608 C 697.171 -4.05427 1.85863 0
M  V30 6609 C 697.872 -4.27661 3.94311 0
M  V30 6610 N 696.848 -4.37686 3.22385 0
M  V30 6611 H 700.65 -2.07309 2.08327 0
M  V30 6612 H 698.164 -1.072 1.21992 0
M  V30 6613 H 700.161 -4.11041 0.696477 0
M  V30 6614 H 698.821 -3.24542 -0.101135 0
M  V30 6615 H 699.832 -3.7616 3.55984 0
M  V30 6616 H 696.509 -4.05449 0.995847 0
M  V30 6617 H 697.899 -4.47042 5.01601 0
M  V30 6618 N 700.619 -1.13374 -1.09472 0
M  V30 6619 C 701.844 -0.918711 -1.85942 0
M  V30 6620 C 702.269 0.527225 -1.8056 0
M  V30 6621 O 701.627 1.37408 -1.18274 0
M  V30 6622 C 701.675 -1.41056 -3.31867 0
M  V30 6623 O 700.779 -0.595496 -4.08078 0
M  V30 6624 H 700.12 -0.329297 -0.576593 0
M  V30 6625 H 702.65 -1.50829 -1.38245 0
M  V30 6626 H 702.66 -1.41398 -3.82715 0
M  V30 6627 H 701.335 -2.46335 -3.35099 0
M  V30 6628 H 699.912 -0.659911 -3.67014 0
M  V30 6629 N 702.098 1.27442 -0.927168 0
M  V30 6630 C 703.323 1.99036 -0.583042 0
M  V30 6631 C 703.748 1.68711 0.83176 0
M  V30 6632 O 703.106 0.927081 1.55804 0
M  V30 6633 C 703.154 3.51271 -0.814925 0
M  V30 6634 O 702.258 4.12226 0.119742 0
M  V30 6635 H 701.599 0.624883 -0.224538 0
M  V30 6636 H 704.129 1.62263 -1.24628 0
M  V30 6637 H 704.139 4.01411 -0.730282 0
M  V30 6638 H 702.814 3.72676 -1.84623 0
M  V30 6639 H 701.391 3.72897 -0.0147688 0
M  V30 6640 N 703.576 0.692616 1.41565 0
M  V30 6641 C 704.824 0.221896 2.00878 0
M  V30 6642 C 705.145 -1.18164 1.5512 0
M  V30 6643 O 704.415 -1.79679 0.78054 0
M  V30 6644 H 702.995 0.0790463 0.742806 0
M  V30 6645 H 705.657 0.893115 1.73232 0
M  V30 6646 H 704.753 0.23702 3.11199 0
M  V30 6647 N 705.054 -1.51416 0.437162 0
M  V30 6648 C 706.284 -2.06204 -0.127859 0
M  V30 6649 C 706.692 -1.30463 -1.37026 0
M  V30 6650 O 706.035 -0.357516 -1.80187 0
M  V30 6651 C 706.097 -3.55783 -0.515632 0
M  V30 6652 C 705.761 -4.52776 0.619937 0
M  V30 6653 C 706.758 -4.98031 1.49201 0
M  V30 6654 C 704.443 -4.95878 0.800618 0
M  V30 6655 C 706.437 -5.85061 2.52947 0
M  V30 6656 C 704.124 -5.82699 1.84135 0
M  V30 6657 C 705.122 -6.27188 2.70416 0
M  V30 6658 O 704.81 -7.12284 3.72702 0
M  V30 6659 H 704.542 -0.675903 -0.011442 0
M  V30 6660 H 707.096 -1.95977 0.614986 0
M  V30 6661 H 705.326 -3.63793 -1.31118 0
M  V30 6662 H 707.015 -3.93087 -1.01179 0
M  V30 6663 H 707.781 -4.65426 1.36395 0
M  V30 6664 H 703.66 -4.60792 0.138617 0
M  V30 6665 H 707.204 -6.19708 3.20325 0
M  V30 6666 H 703.101 -6.14717 1.9696 0
M  V30 6667 H 703.869 -7.30462 3.69281 0
M  V30 6668 N 706.532 -0.168513 -1.56696 0
M  V30 6669 C 707.76 0.483503 -2.01171 0
M  V30 6670 C 708.175 1.56994 -1.04872 0
M  V30 6671 O 707.532 1.82434 -0.0491337 0
M  V30 6672 C 707.583 1.0644 -3.45475 0
M  V30 6673 O 707.304 0.0213375 -4.38095 0
M  V30 6674 C 708.805 1.79493 -4.05336 0
M  V30 6675 H 706.025 0.124002 -0.659443 0
M  V30 6676 H 708.569 -0.269419 -2.02717 0
M  V30 6677 H 706.724 1.76784 -3.44712 0
M  V30 6678 H 707.138 0.449837 -5.22567 0
M  V30 6679 H 708.612 2.15401 -5.08238 0
M  V30 6680 H 709.089 2.68889 -3.47269 0
M  V30 6681 H 709.695 1.13798 -4.09793 0
M  V30 6682 N 708.01 1.57248 0.105221 0
M  V30 6683 C 708.942 1.98008 1.15436 0
M  V30 6684 C 709.955 0.881236 1.36887 0
M  V30 6685 O 711.144 1.15943 1.35718 0
M  V30 6686 C 708.244 2.27509 2.51183 0
M  V30 6687 C 707.417 3.58811 2.50147 0
M  V30 6688 C 706.476 3.76365 3.67745 0
M  V30 6689 O 705.502 4.48329 3.50699 0
M  V30 6690 N 706.704 3.16174 4.86841 0
M  V30 6691 H 709.469 2.88616 0.807519 0
M  V30 6692 H 707.03 1.59202 0.29433 0
M  V30 6693 H 709.022 2.36455 3.28438 0
M  V30 6694 H 707.592 1.42959 2.77995 0
M  V30 6695 H 706.812 3.60927 1.5851 0
M  V30 6696 H 708.1 4.45088 2.46524 0
M  V30 6697 H 707.498 2.57701 5.03594 0
M  V30 6698 H 706.055 3.30621 5.61723 0
M  V30 6699 N 709.488 -0.375779 1.53054 0
M  V30 6700 C 710.438 -1.45965 1.75152 0
M  V30 6701 C 711.422 -1.49059 0.605823 0
M  V30 6702 O 712.614 -1.54472 0.864133 0
M  V30 6703 C 709.743 -2.83524 1.93569 0
M  V30 6704 C 708.829 -2.84949 3.1411 0
M  V30 6705 N 709.22 -2.56029 4.36214 0
M  V30 6706 C 707.518 -3.16113 3.14625 0
M  V30 6707 C 708.219 -2.64873 5.17897 0
M  V30 6708 N 707.195 -2.99159 4.53878 0
M  V30 6709 H 710.997 -1.22454 2.67175 0
M  V30 6710 H 708.511 -0.583867 1.51541 0
M  V30 6711 H 710.508 -3.61578 2.07525 0
M  V30 6712 H 709.168 -3.08008 1.02768 0
M  V30 6713 H 710.179 -2.29808 4.64121 0
M  V30 6714 H 706.856 -3.45977 2.3368 0
M  V30 6715 H 708.246 -2.45947 6.25268 0
M  V30 6716 N 710.966 -1.44241 -0.634997 0
M  V30 6717 C 712.214 -1.46531 -1.39187 0
M  V30 6718 C 712.535 -0.0976441 -1.94755 0
M  V30 6719 O 711.805 0.869528 -1.75545 0
M  V30 6720 H 710.385 -0.539544 -0.516625 0
M  V30 6721 H 713.047 -1.79989 -0.747655 0
M  V30 6722 H 712.143 -2.18848 -2.22513 0
M  V30 6723 N 712.444 0.87505 -1.31075 0
M  V30 6724 C 713.669 1.66583 -1.23551 0
M  V30 6725 C 714.094 1.87067 0.19686 0
M  V30 6726 O 713.452 1.40877 1.1412 0
M  V30 6727 C 713.5 3.01401 -1.97965 0
M  V30 6728 O 712.604 3.90923 -1.31351 0
M  V30 6729 H 711.945 0.508645 -0.426821 0
M  V30 6730 H 714.475 1.09139 -1.7306 0
M  V30 6731 H 714.485 3.51374 -2.07366 0
M  V30 6732 H 713.16 2.85812 -3.02133 0
M  V30 6733 H 711.737 3.49369 -1.30368 0
M  V30 6734 N 713.922 1.13953 1.08869 0
M  V30 6735 C 715.17 0.903023 1.80803 0
M  V30 6736 C 715.491 -0.572151 1.86417 0
M  V30 6737 O 714.761 -1.41589 1.35386 0
M  V30 6738 H 713.341 0.331099 0.669614 0
M  V30 6739 H 716.003 1.43719 1.31647 0
M  V30 6740 H 715.099 1.29881 2.83791 0
M  V30 6741 N 715.4 -1.26948 0.933913 0
M  V30 6742 C 716.625 -1.98724 0.593589 0
M  V30 6743 C 717.05 -1.6915 -0.822801 0
M  V30 6744 O 716.408 -0.93533 -1.5531 0
M  V30 6745 C 716.456 -3.50834 0.833542 0
M  V30 6746 O 715.56 -4.12284 -0.0978788 0
M  V30 6747 H 714.901 -0.623683 0.227849 0
M  V30 6748 H 717.431 -1.61599 1.25486 0
M  V30 6749 H 717.441 -4.01018 0.75156 0
M  V30 6750 H 716.116 -3.71691 1.86597 0
M  V30 6751 H 714.693 -3.72884 0.0345443 0
M  V30 6752 N 716.879 -0.700114 -1.41195 0
M  V30 6753 C 718.127 -0.232546 -2.00758 0
M  V30 6754 C 718.448 1.1734 -1.55745 0
M  V30 6755 O 717.718 1.79262 -0.790058 0
M  V30 6756 H 716.298 -0.0829845 -0.742376 0
M  V30 6757 H 718.96 -0.902289 -1.72756 0
M  V30 6758 H 718.056 -0.253521 -3.11069 0
M  V30 6759 N 718.357 1.51182 -0.445186 0
M  V30 6760 C 719.307 2.24804 0.380394 0
M  V30 6761 C 720.291 1.27344 0.983482 0
M  V30 6762 O 721.483 1.52392 0.900322 0
M  V30 6763 C 718.612 3.09922 1.4766 0
M  V30 6764 C 717.698 4.14816 0.882517 0
M  V30 6765 N 718.089 5.05797 0.0183278 0
M  V30 6766 C 716.387 4.30938 1.14927 0
M  V30 6767 C 717.088 5.8084 -0.316152 0
M  V30 6768 N 716.064 5.42759 0.302214 0
M  V30 6769 H 719.866 2.92508 -0.285737 0
M  V30 6770 H 717.38 1.60342 -0.257733 0
M  V30 6771 H 719.377 3.61249 2.08098 0
M  V30 6772 H 718.037 2.43763 2.14498 0
M  V30 6773 H 719.048 5.16725 -0.348679 0
M  V30 6774 H 715.725 3.76005 1.81457 0
M  V30 6775 H 717.115 6.64115 -1.01986 0
M  V30 6776 N 719.835 0.176821 1.56605 0
M  V30 6777 C 721.06 -0.47599 2.01864 0
M  V30 6778 C 721.485 -1.55645 1.05623 0
M  V30 6779 O 720.843 -1.81263 0.0366729 0
M  V30 6780 C 720.891 -1.02619 3.4569 0
M  V30 6781 O 719.995 -2.13996 3.52533 0
M  V30 6782 H 719.336 -0.113363 0.654251 0
M  V30 6783 H 721.866 0.28233 2.02643 0
M  V30 6784 H 721.876 -1.34742 3.85109 0
M  V30 6785 H 720.551 -0.235138 4.15235 0
M  V30 6786 H 719.128 -1.82876 3.24978 0
M  V30 6787 N 721.313 -1.57302 -0.09688 0
M  V30 6788 C 722.538 -1.9058 -0.818169 0
M  V30 6789 C 722.963 -0.770921 -1.71576 0
M  V30 6790 O 722.321 0.277588 -1.79162 0
M  V30 6791 C 722.369 -3.22714 -1.60898 0
M  V30 6792 O 721.473 -3.10178 -2.71779 0
M  V30 6793 H 720.814 -0.624759 -0.224882 0
M  V30 6794 H 723.344 -2.04471 -0.07264 0
M  V30 6795 H 723.354 -3.55978 -1.99358 0
M  V30 6796 H 722.029 -4.04899 -0.950227 0
M  V30 6797 H 720.606 -2.88424 -2.3636 0
M  V30 6798 N 722.791 0.367657 -1.53252 0
M  V30 6799 C 724.039 1.10832 -1.68999 0
M  V30 6800 C 724.36 1.89894 -0.443306 0
M  V30 6801 O 723.63 1.88235 0.54262 0
M  V30 6802 H 722.21 0.412153 -0.623008 0
M  V30 6803 H 724.872 0.414775 -1.90435 0
M  V30 6804 H 723.968 1.7993 -2.55013 0
M  V30 6805 N 724.269 1.44576 0.627338 0
M  V30 6806 C 725.219 1.48168 1.73293 0
M  V30 6807 C 726.203 0.347045 1.57113 0
M  V30 6808 O 727.395 0.592605 1.66785 0
M  V30 6809 C 724.524 1.43236 3.11991 0
M  V30 6810 C 723.61 2.61828 3.33627 0
M  V30 6811 N 724.001 3.87053 3.25612 0
M  V30 6812 C 722.299 2.57104 3.64436 0
M  V30 6813 C 723 4.66093 3.48041 0
M  V30 6814 N 721.976 3.97228 3.71095 0
M  V30 6815 H 725.778 2.42832 1.6556 0
M  V30 6816 H 723.292 1.39592 0.829934 0
M  V30 6817 H 725.289 1.43893 3.91281 0
M  V30 6818 H 723.949 0.496133 3.20887 0
M  V30 6819 H 724.96 4.18966 3.04447 0
M  V30 6820 H 721.637 1.72295 3.8029 0
M  V30 6821 H 723.027 5.75117 3.47404 0
M  V30 6822 N 725.747 -0.868086 1.31537 0
M  V30 6823 C 726.995 -1.61807 1.21091 0
M  V30 6824 C 727.316 -1.93631 -0.230623 0
M  V30 6825 O 726.586 -1.5846 -1.15183 0
M  V30 6826 H 725.166 -0.599854 0.445178 0
M  V30 6827 H 727.828 -1.03915 1.64887 0
M  V30 6828 H 726.924 -2.56088 1.78396 0
M  V30 6829 N 727.225 -1.14528 -1.08264 0
M  V30 6830 C 728.157 -0.791325 -2.15106 0
M  V30 6831 C 729.17 0.192449 -1.61659 0
M  V30 6832 O 730.359 -0.0294704 -1.78476 0
M  V30 6833 C 727.459 -0.154183 -3.38549 0
M  V30 6834 C 726.632 -1.17305 -4.21377 0
M  V30 6835 C 725.691 -0.559401 -5.23218 0
M  V30 6836 O 724.717 -1.22277 -5.55911 0
M  V30 6837 N 725.919 0.663159 -5.767 0
M  V30 6838 H 728.684 -1.71076 -2.46075 0
M  V30 6839 H 726.245 -1.0399 -1.24087 0
M  V30 6840 H 728.237 0.268884 -4.03806 0
M  V30 6841 H 726.807 0.668418 -3.0537 0
M  V30 6842 H 726.027 -1.773 -3.52077 0
M  V30 6843 H 727.315 -1.86128 -4.73533 0
M  V30 6844 H 726.713 1.22066 -5.52373 0
M  V30 6845 H 725.27 1.02871 -6.43631 0
M  V30 6846 N 728.703 1.26451 -0.940633 0
M  V30 6847 C 729.653 2.24086 -0.420669 0
M  V30 6848 C 730.637 1.53501 0.482301 0
M  V30 6849 O 731.829 1.74127 0.317636 0
M  V30 6850 C 728.958 3.41866 0.313452 0
M  V30 6851 C 728.044 4.19737 -0.606779 0
M  V30 6852 N 728.435 4.7521 -1.73232 0
M  V30 6853 C 726.733 4.44091 -0.41226 0
M  V30 6854 C 727.434 5.34052 -2.30572 0
M  V30 6855 N 726.41 5.1971 -1.59381 0
M  V30 6856 H 730.212 2.64569 -1.27986 0
M  V30 6857 H 727.726 1.4153 -0.796436 0
M  V30 6858 H 729.723 4.1093 0.702991 0
M  V30 6859 H 728.383 3.0291 1.16942 0
M  V30 6860 H 729.394 4.72769 -2.11447 0
M  V30 6861 H 726.071 4.1556 0.401984 0
M  V30 6862 H 727.461 5.87845 -3.25404 0
M  V30 6863 N 730.181 0.707592 1.40822 0
M  V30 6864 C 731.429 0.243189 2.00632 0
M  V30 6865 C 731.75 -1.16512 1.56365 0
M  V30 6866 O 731.02 -1.78841 0.799553 0
M  V30 6867 H 729.6 0.0869203 0.741926 0
M  V30 6868 H 732.262 0.911438 1.72275 0
M  V30 6869 H 731.358 0.270014 3.1093 0
M  V30 6870 N 731.66 -1.50943 0.453197 0
M  V30 6871 C 732.885 -2.07116 -0.108463 0
M  V30 6872 C 733.31 -1.31681 -1.3432 0
M  V30 6873 O 732.668 -0.359256 -1.77705 0
M  V30 6874 C 732.716 -3.58447 -0.393424 0
M  V30 6875 O 731.82 -3.85038 -1.47714 0
M  V30 6876 H 731.161 -0.66398 0.0050993 0
M  V30 6877 H 733.691 -1.94362 0.639095 0
M  V30 6878 H 733.701 -4.02961 -0.639222 0
M  V30 6879 H 732.376 -4.12774 0.508946 0
M  V30 6880 H 730.953 -3.52376 -1.22006 0
M  V30 6881 N 733.138 -0.185124 -1.56509 0
M  V30 6882 C 734.554 0.170865 -1.58683 0
M  V30 6883 C 734.754 1.61799 -1.20098 0
M  V30 6884 O 733.81 2.35181 -0.919038 0
M  V30 6885 C 735.123 -0.122459 -3.00451 0
M  V30 6886 C 736.671 -0.0617699 -3.12939 0
M  V30 6887 C 737.146 -0.328269 -4.56822 0
M  V30 6888 N 738.637 -0.276533 -4.62374 0
M  V30 6889 C 739.372 -0.456722 -5.71578 0
M  V30 6890 N 738.868 -0.69672 -6.89288 0
M  V30 6891 N 740.661 -0.391669 -5.60734 0
M  V30 6892 H 732.812 -1.12956 -1.79874 0
M  V30 6893 H 735.075 -0.45011 -0.834329 0
M  V30 6894 H 734.781 -1.12546 -3.33206 0
M  V30 6895 H 734.655 0.579578 -3.72721 0
M  V30 6896 H 737.042 0.931826 -2.80002 0
M  V30 6897 H 737.123 -0.796732 -2.43076 0
M  V30 6898 H 736.767 -1.31914 -4.9047 0
M  V30 6899 H 736.697 0.427465 -5.24862 0
M  V30 6900 H 739.188 -0.0972458 -3.77775 0
M  V30 6901 H 739.501 -0.823291 -7.68402 0
M  V30 6902 H 737.846 -0.733497 -6.91119 0
M  V30 6903 H 741.037 -0.204663 -4.67652 0
M  V30 6904 H 741.21 -0.535518 -6.45783 0
M  V30 6905 N 734.616 1.57351 0.0885366 0
M  V30 6906 C 735.841 1.91011 0.80805 0
M  V30 6907 C 736.266 0.780009 1.71165 0
M  V30 6908 O 735.624 -0.268083 1.79307 0
M  V30 6909 C 735.672 3.23562 1.59185 0
M  V30 6910 O 734.776 3.11615 2.7013 0
M  V30 6911 H 734.117 0.625943 0.221565 0
M  V30 6912 H 736.647 2.04507 0.0617954 0
M  V30 6913 H 736.657 3.5703 1.97468 0
M  V30 6914 H 735.332 4.05398 0.928741 0
M  V30 6915 H 733.909 2.89673 2.34827 0
M  V30 6916 N 736.094 -0.359525 1.53444 0
M  V30 6917 C 737.342 -1.09935 1.69584 0
M  V30 6918 C 737.663 -1.89656 0.453371 0
M  V30 6919 O 736.933 -1.8852 -0.53263 0
M  V30 6920 H 735.513 -0.408843 0.625185 0
M  V30 6921 H 738.175 -0.40467 1.90653 0
M  V30 6922 H 737.271 -1.78575 2.55964 0
M  V30 6923 N 737.572 -1.44907 -0.619662 0
M  V30 6924 C 738.504 -1.48652 -1.74457 0
M  V30 6925 C 739.517 -0.378596 -1.58337 0
M  V30 6926 O 740.706 -0.644987 -1.6644 0
M  V30 6927 C 737.806 -1.31568 -3.12319 0
M  V30 6928 C 736.979 -2.55816 -3.54792 0
M  V30 6929 C 736.038 -2.33465 -4.71573 0
M  V30 6930 O 735.064 -3.07015 -4.79302 0
M  V30 6931 N 736.266 -1.37254 -5.6404 0
M  V30 6932 H 739.031 -2.45632 -1.71712 0
M  V30 6933 H 736.592 -1.40492 -0.804582 0
M  V30 6934 H 738.584 -1.14445 -3.88181 0
M  V30 6935 H 737.154 -0.429095 -3.09641 0
M  V30 6936 H 736.374 -2.88137 -2.69018 0
M  V30 6937 H 737.662 -3.38431 -3.79924 0
M  V30 6938 H 737.06 -0.765309 -5.60499 0
M  V30 6939 H 735.617 -1.26106 -6.39485 0
M  V30 6940 N 739.05 0.861098 -1.31996 0
M  V30 6941 C 740.275 1.65264 -1.2531 0
M  V30 6942 C 740.7 1.87265 0.177007 0
M  V30 6943 O 740.058 1.4208 1.12619 0
M  V30 6944 C 740.106 2.99284 -2.0115 0
M  V30 6945 O 739.21 3.89508 -1.3549 0
M  V30 6946 H 738.551 0.50409 -0.432192 0
M  V30 6947 H 741.081 1.07297 -1.74208 0
M  V30 6948 H 741.091 3.49154 -2.11081 0
M  V30 6949 H 739.766 2.82591 -3.05148 0
M  V30 6950 H 738.343 3.47966 -1.34066 0
M  V30 6951 N 740.528 1.15101 1.07655 0
M  V30 6952 C 741.753 0.948177 1.84457 0
M  V30 6953 C 742.178 -0.498432 1.81376 0
M  V30 6954 O 741.536 -1.35509 1.20445 0
M  V30 6955 C 741.584 1.46318 3.29581 0
M  V30 6956 O 740.688 0.660342 4.07079 0
M  V30 6957 H 740.029 0.338428 0.571281 0
M  V30 6958 H 742.559 1.5301 1.35828 0
M  V30 6959 H 742.569 1.47468 3.80417 0
M  V30 6960 H 741.244 2.51635 3.31138 0
M  V30 6961 H 739.821 0.718216 3.65918 0
M  V30 6962 N 742.006 -1.2595 0.947325 0
M  V30 6963 C 743.422 -1.45737 0.650597 0
M  V30 6964 C 743.622 -1.85189 -0.794188 0
M  V30 6965 O 742.678 -1.97738 -1.57022 0
M  V30 6966 C 743.991 -2.53505 1.61728 0
M  V30 6967 C 745.539 -2.67351 1.62765 0
M  V30 6968 C 746.014 -3.78296 2.58179 0
M  V30 6969 N 747.505 -3.85696 2.56501 0
M  V30 6970 C 748.24 -4.71012 3.2701 0
M  V30 6971 N 747.736 -5.60669 4.06966 0
M  V30 6972 N 749.529 -4.64912 3.15932 0
M  V30 6973 H 741.68 -0.986327 1.8811 0
M  V30 6974 H 743.943 -0.494639 0.808725 0
M  V30 6975 H 743.649 -2.31357 2.6489 0
M  V30 6976 H 743.523 -3.51281 1.3741 0
M  V30 6977 H 745.91 -2.88869 0.603241 0
M  V30 6978 H 745.991 -1.69998 1.91139 0
M  V30 6979 H 745.635 -3.5753 3.60742 0
M  V30 6980 H 745.565 -4.75117 2.27093 0
M  V30 6981 H 748.056 -3.21601 1.98447 0
M  V30 6982 H 748.369 -6.22677 4.57704 0
M  V30 6983 H 746.714 -5.60402 4.11066 0
M  V30 6984 H 749.905 -3.93874 2.52945 0
M  V30 6985 H 750.078 -5.3118 3.71149 0
M  V30 6986 N 743.484 -0.715051 -1.40445 0
M  V30 6987 C 744.732 -0.253826 -2.005 0
M  V30 6988 C 745.053 1.15681 -1.5698 0
M  V30 6989 O 744.323 1.78414 -0.809027 0
M  V30 6990 H 742.903 -0.0908537 -0.741454 0
M  V30 6991 H 745.565 -0.920561 -1.7179 0
M  V30 6992 H 744.661 -0.286499 -3.10782 0
M  V30 6993 N 744.962 1.50701 -0.461195 0
M  V30 6994 C 745.872 2.32069 0.343661 0
M  V30 6995 C 746.888 1.42016 1.00535 0
M  V30 6996 O 748.064 1.75077 0.995498 0
M  V30 6997 C 745.129 3.16424 1.41692 0
M  V30 6998 C 744.19 4.22286 0.772869 0
M  V30 6999 C 743.423 5.02609 1.79499 0
M  V30 7000 O 743.646 4.83874 3.0203 0
M  V30 7001 O 742.58 5.86047 1.3723 0
M  V30 7002 H 746.406 3.01996 -0.321268 0
M  V30 7003 H 743.991 1.47723 -0.223235 0
M  V30 7004 H 745.873 3.68795 2.03883 0
M  V30 7005 H 744.548 2.49236 2.0655 0
M  V30 7006 H 743.455 3.73931 0.112277 0
M  V30 7007 H 744.788 4.91915 0.167399 0
M  V30 7008 N 746.441 0.193421 1.56409 0
M  V30 7009 C 747.857 -0.162447 1.58771 0
M  V30 7010 C 748.057 -1.6116 1.20954 0
M  V30 7011 O 747.113 -2.3469 0.931497 0
M  V30 7012 C 748.426 0.138391 3.00381 0
M  V30 7013 C 749.974 0.0783649 3.12902 0
M  V30 7014 C 750.449 0.352491 4.56642 0
M  V30 7015 N 751.94 0.30105 4.62221 0
M  V30 7016 C 752.675 0.487028 5.71328 0
M  V30 7017 N 752.171 0.733265 6.88909 0
M  V30 7018 N 753.964 0.4214 5.60518 0
M  V30 7019 H 746.115 1.13909 1.79272 0
M  V30 7020 H 748.378 0.454528 0.83193 0
M  V30 7021 H 748.084 1.14312 3.32604 0
M  V30 7022 H 747.958 -0.559804 3.73023 0
M  V30 7023 H 750.345 -0.916963 2.80492 0
M  V30 7024 H 750.426 0.809611 2.4265 0
M  V30 7025 H 750.07 1.34513 4.89764 0
M  V30 7026 H 750 -0.399624 5.25081 0
M  V30 7027 H 752.491 0.117279 3.77718 0
M  V30 7028 H 752.804 0.86403 7.67955 0
M  V30 7029 H 751.149 0.770138 6.9072 0
M  V30 7030 H 754.34 0.229461 4.67537 0
M  V30 7031 H 754.513 0.569758 6.4549 0
M  V30 7032 N 747.919 -1.57396 -0.0801906 0
M  V30 7033 C 748.851 -1.9982 -1.12271 0
M  V30 7034 C 749.864 -0.902902 -1.35468 0
M  V30 7035 O 751.053 -1.18088 -1.33856 0
M  V30 7036 C 748.153 -2.31476 -2.47532 0
M  V30 7037 C 747.326 -3.62745 -2.44407 0
M  V30 7038 C 746.385 -3.82168 -3.6171 0
M  V30 7039 O 745.411 -4.53852 -3.43522 0
M  V30 7040 N 746.613 -3.2388 -4.81749 0
M  V30 7041 H 749.378 -2.89864 -0.761501 0
M  V30 7042 H 746.939 -1.5965 -0.268965 0
M  V30 7043 H 748.931 -2.4165 -3.24634 0
M  V30 7044 H 747.501 -1.47364 -2.75686 0
M  V30 7045 H 746.721 -3.63403 -1.52747 0
M  V30 7046 H 748.009 -4.48954 -2.39412 0
M  V30 7047 H 747.407 -2.6568 -4.9943 0
M  V30 7048 H 745.964 -3.39515 -5.56392 0
M  V30 7049 N 749.397 0.351382 -1.53633 0
M  V30 7050 C 750.645 1.09034 -1.70165 0
M  V30 7051 C 750.966 1.89413 -0.463422 0
M  V30 7052 O 750.236 1.888 0.522624 0
M  V30 7053 H 748.816 0.405522 -0.627344 0
M  V30 7054 H 751.478 0.394554 -1.90865 0
M  V30 7055 H 750.574 1.77215 -2.56907 0
M  V30 7056 N 750.875 1.45233 0.611969 0
M  V30 7057 C 752.1 1.52767 1.40274 0
M  V30 7058 C 752.525 0.159701 1.87421 0
M  V30 7059 O 751.883 -0.854837 1.59882 0
M  V30 7060 C 751.931 2.51286 2.58626 0
M  V30 7061 O 751.035 2.02764 3.59111 0
M  V30 7062 H 750.376 0.515141 0.418958 0
M  V30 7063 H 752.906 1.90547 0.745188 0
M  V30 7064 H 752.916 2.69949 3.05927 0
M  V30 7065 H 751.591 3.50641 2.23659 0
M  V30 7066 H 750.168 1.93957 3.18489 0
M  V30 7067 N 752.353 -0.854086 1.3245 0
M  V30 7068 C 753.578 -1.64597 1.26185 0
M  V30 7069 C 754.003 -1.87357 -0.167074 0
M  V30 7070 O 753.361 -1.42675 -1.11864 0
M  V30 7071 C 753.409 -2.98213 2.02734 0
M  V30 7072 O 752.513 -3.88784 1.37554 0
M  V30 7073 H 751.854 -0.50179 0.434859 0
M  V30 7074 H 754.384 -1.06372 1.74775 0
M  V30 7075 H 754.394 -3.4803 2.1293 0
M  V30 7076 H 753.069 -2.80969 3.06642 0
M  V30 7077 H 751.646 -3.4725 1.3591 0
M  V30 7078 N 753.831 -1.1567 -1.07043 0
M  V30 7079 C 754.794 -0.858906 -2.12498 0
M  V30 7080 C 755.794 0.142735 -1.60165 0
M  V30 7081 O 756.984 -0.0872678 -1.73981 0
M  V30 7082 C 754.116 -0.283021 -3.39723 0
M  V30 7083 H 755.309 -1.79368 -2.40348 0
M  V30 7084 H 752.862 -0.964608 -1.22984 0
M  V30 7085 H 753.597 0.659796 -3.17517 0
M  V30 7086 H 753.382 -1.00467 -3.7901 0
M  V30 7087 H 754.872 -0.0923543 -4.17498 0
M  V30 7088 N 755.309 1.25446 -0.953992 0
M  V30 7089 C 756.557 1.92762 -0.607227 0
M  V30 7090 C 756.878 1.7509 0.858399 0
M  V30 7091 O 756.148 1.11416 1.61132 0
M  V30 7092 H 754.728 0.713377 -0.221591 0
M  V30 7093 H 757.39 1.52625 -1.21209 0
M  V30 7094 H 756.486 3.00695 -0.835998 0
M  V30 7095 N 756.787 0.722489 1.40064 0
M  V30 7096 C 758.012 0.273446 2.05589 0
M  V30 7097 C 758.437 -1.07875 1.54093 0
M  V30 7098 O 757.795 -1.68095 0.679252 0
M  V30 7099 C 757.843 0.271023 3.5958 0
M  V30 7100 O 756.947 -0.745499 4.05606 0
M  V30 7101 H 756.288 0.126856 0.65177 0
M  V30 7102 H 758.818 0.984906 1.79334 0
M  V30 7103 H 758.828 0.111084 4.07849 0
M  V30 7104 H 757.503 1.25776 3.96425 0
M  V30 7105 H 756.08 -0.552719 3.68781 0
M  V30 7106 N 758.265 -1.50454 0.469181 0
M  V30 7107 C 759.49 -2.0722 -0.0864892 0
M  V30 7108 C 759.915 -1.33098 -1.32916 0
M  V30 7109 O 759.273 -0.378084 -1.77314 0
M  V30 7110 C 759.321 -3.58845 -0.355384 0
M  V30 7111 O 758.425 -3.86583 -1.43622 0
M  V30 7112 H 757.766 -0.663889 0.0121414 0
M  V30 7113 H 760.296 -1.93674 0.659674 0
M  V30 7114 H 760.306 -4.03617 -0.596447 0
M  V30 7115 H 758.981 -4.12211 0.552698 0
M  V30 7116 H 757.558 -3.5365 -1.18262 0
M  V30 7117 N 759.743 -0.201713 -1.56304 0
M  V30 7118 C 760.968 0.443815 -2.02596 0
M  V30 7119 C 761.393 1.53945 -1.08086 0
M  V30 7120 O 760.751 1.81182 -0.0655056 0
M  V30 7121 C 760.799 0.971066 -3.47279 0
M  V30 7122 O 759.903 2.0836 -3.55893 0
M  V30 7123 H 759.244 0.10294 -0.655972 0
M  V30 7124 H 761.774 -0.314533 -2.02168 0
M  V30 7125 H 761.784 1.28598 -3.87204 0
M  V30 7126 H 760.459 0.169048 -4.15556 0
M  V30 7127 H 759.036 1.77683 -3.27846 0
M  V30 7128 N 761.222 1.57436 0.0718424 0
M  V30 7129 C 762.447 1.91858 0.787745 0
M  V30 7130 C 762.872 0.798119 1.70328 0
M  V30 7131 O 762.23 -0.24905 1.79581 0
M  V30 7132 C 762.278 3.25232 1.55744 0
M  V30 7133 O 761.382 3.14462 2.6681 0
M  V30 7134 H 760.723 0.628258 0.214914 0
M  V30 7135 H 763.253 2.04561 0.0401012 0
M  V30 7136 H 763.263 3.59105 1.9367 0
M  V30 7137 H 761.938 4.0636 0.885691 0
M  V30 7138 H 760.515 2.92148 2.31741 0
M  V30 7139 N 762.7 -0.34323 1.53817 0
M  V30 7140 C 763.93 -1.10188 1.74763 0
M  V30 7141 C 764.338 -1.82829 0.486856 0
M  V30 7142 O 763.681 -1.75236 -0.551198 0
M  V30 7143 C 763.743 -2.16 2.87375 0
M  V30 7144 C 763.407 -1.62931 4.26969 0
M  V30 7145 C 764.404 -1.08147 5.08528 0
M  V30 7146 C 762.089 -1.67769 4.73454 0
M  V30 7147 C 764.083 -0.589039 6.34672 0
M  V30 7148 C 761.77 -1.18138 5.99572 0
M  V30 7149 C 762.768 -0.637979 6.80014 0
M  V30 7150 O 762.456 -0.149073 8.03762 0
M  V30 7151 H 762.188 -0.33445 0.587469 0
M  V30 7152 H 764.742 -0.401109 2.01445 0
M  V30 7153 H 762.972 -2.89637 2.56218 0
M  V30 7154 H 764.661 -2.77432 2.96287 0
M  V30 7155 H 765.427 -1.03732 4.73777 0
M  V30 7156 H 761.306 -2.09004 4.10899 0
M  V30 7157 H 764.85 -0.164233 6.97407 0
M  V30 7158 H 760.747 -1.22254 6.33817 0
M  V30 7159 H 761.515 -0.266332 8.18067 0
M  V30 7160 N 764.178 -1.45556 -0.604258 0
M  V30 7161 C 765.426 -1.4945 -1.36048 0
M  V30 7162 C 765.747 -0.138933 -1.94504 0
M  V30 7163 O 765.017 0.832097 -1.7735 0
M  V30 7164 H 763.597 -0.550381 -0.505064 0
M  V30 7165 H 766.259 -1.81535 -0.709308 0
M  V30 7166 H 765.355 -2.23519 -2.17821 0
M  V30 7167 N 765.656 0.84705 -1.32902 0
M  V30 7168 C 766.588 1.96308 -1.18304 0
M  V30 7169 C 767.601 1.62386 -0.116082 0
M  V30 7170 O 768.79 1.74713 -0.365751 0
M  V30 7171 C 765.89 3.29556 -0.790305 0
M  V30 7172 C 765.063 3.91668 -1.94717 0
M  V30 7173 C 764.122 5.0326 -1.53674 0
M  V30 7174 O 763.148 5.22847 -2.24989 0
M  V30 7175 N 764.35 5.78852 -0.437075 0
M  V30 7176 H 767.115 2.09369 -2.14441 0
M  V30 7177 H 764.676 1.02233 -1.25539 0
M  V30 7178 H 766.668 4.01624 -0.49799 0
M  V30 7179 H 765.238 3.12497 0.0801286 0
M  V30 7180 H 764.458 3.12292 -2.40557 0
M  V30 7181 H 765.746 4.299 -2.72146 0
M  V30 7182 H 765.144 5.65484 0.156316 0
M  V30 7183 H 763.701 6.51479 -0.204399 0
M  V30 7184 N 767.134 1.16236 1.06428 0
M  V30 7185 C 768.084 0.835994 2.12121 0
M  V30 7186 C 769.068 -0.183955 1.59845 0
M  V30 7187 O 770.26 0.0166741 1.76992 0
M  V30 7188 C 767.389 0.337333 3.41639 0
M  V30 7189 C 766.475 1.38798 4.00744 0
M  V30 7190 N 766.866 2.59799 4.3398 0
M  V30 7191 C 765.164 1.24292 4.28331 0
M  V30 7192 C 765.865 3.27213 4.80943 0
M  V30 7193 N 764.841 2.54594 4.80294 0
M  V30 7194 H 768.643 1.75615 2.35662 0
M  V30 7195 H 766.157 1.04921 1.23957 0
M  V30 7196 H 768.154 0.0851274 4.16813 0
M  V30 7197 H 766.814 -0.57677 3.19536 0
M  V30 7198 H 767.825 2.96867 4.24371 0
M  V30 7199 H 764.502 0.389464 4.15679 0
M  V30 7200 H 765.892 4.30492 5.15874 0
M  V30 7201 N 768.612 -1.24939 0.960631 0
M  V30 7202 C 769.86 -1.92437 0.617441 0
M  V30 7203 C 770.181 -1.75543 -0.849101 0
M  V30 7204 O 769.451 -1.12269 -1.60538 0
M  V30 7205 H 768.031 -0.712192 0.225371 0
M  V30 7206 H 770.693 -1.5198 1.22017 0
M  V30 7207 H 769.789 -3.00247 0.851933 0
M  V30 7208 N 770.09 -0.729906 -1.39679 0
M  V30 7209 C 771.315 -0.284345 -2.05442 0
M  V30 7210 C 771.74 1.07056 -1.54663 0
M  V30 7211 O 771.098 1.67732 -0.688157 0
M  V30 7212 C 771.146 -0.290089 -3.59431 0
M  V30 7213 O 770.25 0.723978 -4.05995 0
M  V30 7214 H 769.591 -0.130311 -0.651088 0
M  V30 7215 H 772.121 -0.994403 -1.78809 0
M  V30 7216 H 772.131 -0.132712 -4.07784 0
M  V30 7217 H 770.806 -1.27877 -3.95753 0
M  V30 7218 H 769.383 0.533154 -3.69069 0
M  V30 7219 N 771.568 1.50203 -0.477153 0
M  V30 7220 C 772.816 2.01959 0.0755889 0
M  V30 7221 C 773.137 1.3608 1.39668 0
M  V30 7222 O 772.407 0.508136 1.89195 0
M  V30 7223 H 770.987 0.74636 0.0309248 0
M  V30 7224 H 773.649 1.84473 -0.628959 0
M  V30 7225 H 772.745 3.11305 0.222683 0
M  V30 7226 N 773.046 0.209999 1.56195 0
M  V30 7227 C 774.271 -0.433064 2.02828 0
M  V30 7228 C 774.696 -1.5337 1.08901 0
M  V30 7229 O 774.054 -1.81144 0.0751132 0
M  V30 7230 C 774.102 -0.952635 3.47789 0
M  V30 7231 O 773.206 -2.0647 3.56993 0
M  V30 7232 H 772.547 -0.0994594 0.656509 0
M  V30 7233 H 775.077 0.32525 2.01998 0
M  V30 7234 H 775.087 -1.26542 3.8788 0
M  V30 7235 H 773.762 -0.147007 4.1564 0
M  V30 7236 H 772.339 -1.75942 3.28784 0
M  V30 7237 N 774.524 -1.57472 -0.0634922 0
M  V30 7238 C 775.94 -1.54016 -0.418466 0
M  V30 7239 C 776.14 -0.931376 -1.78683 0
M  V30 7240 O 775.196 -0.537465 -2.46714 0
M  V30 7241 C 776.509 -2.98634 -0.351906 0
M  V30 7242 C 778.057 -3.10012 -0.431494 0
M  V30 7243 C 778.532 -4.56296 -0.394754 0
M  V30 7244 N 780.023 -4.60964 -0.454583 0
M  V30 7245 C 780.758 -5.71643 -0.448501 0
M  V30 7246 N 780.254 -6.91663 -0.396742 0
M  V30 7247 N 782.047 -5.5991 -0.495677 0
M  V30 7248 H 774.198 -1.95409 0.832408 0
M  V30 7249 H 776.461 -0.894769 0.313197 0
M  V30 7250 H 776.167 -3.46766 0.587048 0
M  V30 7251 H 776.041 -3.58955 -1.15893 0
M  V30 7252 H 778.428 -2.61848 -1.36087 0
M  V30 7253 H 778.509 -2.52585 0.404258 0
M  V30 7254 H 778.153 -5.05119 0.530811 0
M  V30 7255 H 778.083 -5.11594 -1.24815 0
M  V30 7256 H 780.574 -3.74598 -0.498496 0
M  V30 7257 H 780.887 -7.71783 -0.396256 0
M  V30 7258 H 779.232 -6.9405 -0.363304 0
M  V30 7259 H 782.423 -4.65046 -0.533864 0
M  V30 7260 H 782.596 -6.46164 -0.487469 0
M  V30 7261 N 776.003 0.335068 -1.53997 0
M  V30 7262 C 776.935 1.4327 -1.78903 0
M  V30 7263 C 777.948 1.48347 -0.670598 0
M  V30 7264 O 779.137 1.51277 -0.947494 0
M  V30 7265 C 776.237 2.81878 -1.88144 0
M  V30 7266 C 775.41 3.00141 -3.18174 0
M  V30 7267 C 774.469 4.19041 -3.18263 0
M  V30 7268 O 773.495 4.12751 -3.9195 0
M  V30 7269 N 774.697 5.28004 -2.41231 0
M  V30 7270 H 777.462 1.22272 -2.73623 0
M  V30 7271 H 775.023 0.524996 -1.53152 0
M  V30 7272 H 777.015 3.59609 -1.85644 0
M  V30 7273 H 775.585 2.9598 -1.00572 0
M  V30 7274 H 774.805 2.09808 -3.33728 0
M  V30 7275 H 776.093 3.0923 -4.04047 0
M  V30 7276 H 775.491 5.35986 -1.8093 0
M  V30 7277 H 774.048 6.04196 -2.44521 0
M  V30 7278 N 777.481 1.45874 0.596531 0
M  V30 7279 C 778.706 1.54247 1.38646 0
M  V30 7280 C 779.131 0.179571 1.87241 0
M  V30 7281 O 778.489 -0.837831 1.6078 0
M  V30 7282 C 778.537 2.54015 2.55946 0
M  V30 7283 O 777.641 2.06561 3.5694 0
M  V30 7284 H 776.982 0.519555 0.413471 0
M  V30 7285 H 779.512 1.91327 0.724936 0
M  V30 7286 H 779.522 2.73179 3.03047 0
M  V30 7287 H 778.197 3.52994 2.19928 0
M  V30 7288 H 776.774 1.97324 3.16414 0
M  V30 7289 N 778.959 -0.83999 1.33349 0
M  V30 7290 C 779.889 -1.965 1.26135 0
M  V30 7291 C 780.87 -1.69505 0.142152 0
M  V30 7292 O 782.055 -1.91346 0.331743 0
M  V30 7293 C 779.185 -3.32632 0.99866 0
M  V30 7294 C 778.139 -3.74021 2.08068 0
M  V30 7295 C 777.465 -5.07947 1.67014 0
M  V30 7296 C 778.765 -3.87925 3.49731 0
M  V30 7297 H 780.459 -2.02793 2.20262 0
M  V30 7298 H 778.005 -0.974297 1.06035 0
M  V30 7299 H 779.958 -4.10903 0.934696 0
M  V30 7300 H 778.682 -3.26593 0.0217759 0
M  V30 7301 H 777.341 -2.98012 2.13505 0
M  V30 7302 H 776.989 -4.98378 0.680316 0
M  V30 7303 H 776.689 -5.36611 2.39422 0
M  V30 7304 H 778.213 -5.88695 1.62082 0
M  V30 7305 H 779.627 -4.5651 3.46802 0
M  V30 7306 H 778.024 -4.28023 4.20614 0
M  V30 7307 H 779.094 -2.90407 3.88319 0
M  V30 7308 N 780.437 -1.16799 -1.0581 0
M  V30 7309 C 781.685 -0.950642 -1.78346 0
M  V30 7310 C 782.006 0.522524 -1.87869 0
M  V30 7311 O 781.276 1.3795 -1.39092 0
M  V30 7312 H 779.856 -0.348736 -0.6606 0
M  V30 7313 H 782.518 -1.47158 -1.27791 0
M  V30 7314 H 781.614 -1.37359 -2.80248 0
M  V30 7315 N 781.915 1.24427 -0.967243 0
M  V30 7316 C 782.865 2.23143 -0.468106 0
M  V30 7317 C 783.849 1.5449 0.449633 0
M  V30 7318 O 785.041 1.74761 0.28063 0
M  V30 7319 C 782.17 3.42454 0.240867 0
M  V30 7320 C 781.256 4.18355 -0.695674 0
M  V30 7321 N 781.647 4.71428 -1.83273 0
M  V30 7322 C 779.945 4.43116 -0.506365 0
M  V30 7323 C 780.646 5.29041 -2.41849 0
M  V30 7324 N 779.622 5.16213 -1.70369 0
M  V30 7325 H 783.424 2.61795 -1.3357 0
M  V30 7326 H 780.938 1.39809 -0.826277 0
M  V30 7327 H 782.935 4.12329 0.615668 0
M  V30 7328 H 781.595 3.05323 1.10491 0
M  V30 7329 H 782.606 4.68177 -2.21428 0
M  V30 7330 H 779.283 4.16319 0.313747 0
M  V30 7331 H 780.673 5.80811 -3.37799 0
M  V30 7332 N 783.393 0.737304 1.3929 0
M  V30 7333 C 784.618 0.295237 2.05288 0
M  V30 7334 C 785.043 -1.06235 1.55228 0
M  V30 7335 O 784.401 -1.67365 0.697043 0
M  V30 7336 C 784.449 0.309146 3.59272 0
M  V30 7337 O 783.553 -0.702437 4.06374 0
M  V30 7338 H 782.894 0.133762 0.650387 0
M  V30 7339 H 785.424 1.00387 1.78279 0
M  V30 7340 H 785.434 0.154336 4.07708 0
M  V30 7341 H 784.109 1.29974 3.95069 0
M  V30 7342 H 782.686 -0.513574 3.69346 0
M  V30 7343 N 784.871 -1.49948 0.485112 0
M  V30 7344 C 786.287 -1.58984 0.140096 0
M  V30 7345 C 786.487 -1.49194 -1.35438 0
M  V30 7346 O 785.543 -1.35765 -2.12894 0
M  V30 7347 C 786.856 -2.92372 0.702769 0
M  V30 7348 C 788.404 -3.05801 0.66745 0
M  V30 7349 C 788.879 -4.41785 1.20791 0
M  V30 7350 N 790.37 -4.48234 1.16792 0
M  V30 7351 C 791.105 -5.51871 1.55646 0
M  V30 7352 N 790.601 -6.62692 2.02016 0
M  V30 7353 N 792.394 -5.42494 1.47161 0
M  V30 7354 H 784.545 -1.54555 1.45693 0
M  V30 7355 H 786.808 -0.731206 0.603359 0
M  V30 7356 H 786.514 -3.05056 1.75025 0
M  V30 7357 H 786.388 -3.76885 0.154205 0
M  V30 7358 H 788.775 -2.92757 -0.371157 0
M  V30 7359 H 788.856 -2.23011 1.25298 0
M  V30 7360 H 788.5 -4.55579 2.24522 0
M  V30 7361 H 788.43 -5.23188 0.598464 0
M  V30 7362 H 790.921 -3.68718 0.827982 0
M  V30 7363 H 791.234 -7.3785 2.29775 0
M  V30 7364 H 789.579 -6.63775 2.05979 0
M  V30 7365 H 792.77 -4.54806 1.10765 0
M  V30 7366 H 792.943 -6.2314 1.77766 0
M  V30 7367 N 786.349 -0.21828 -1.56081 0
M  V30 7368 C 787.299 0.706492 -2.16778 0
M  V30 7369 C 788.283 1.15987 -1.11516 0
M  V30 7370 O 789.475 1.11441 -1.37513 0
M  V30 7371 C 786.604 1.91583 -2.8487 0
M  V30 7372 C 785.69 1.48228 -3.97353 0
M  V30 7373 N 786.081 0.761113 -5.00041 0
M  V30 7374 C 784.379 1.76982 -4.09382 0
M  V30 7375 C 785.08 0.540496 -5.79184 0
M  V30 7376 N 784.056 1.09622 -5.32432 0
M  V30 7377 H 787.858 0.147038 -2.93532 0
M  V30 7378 H 785.372 -0.0194049 -1.62388 0
M  V30 7379 H 787.369 2.58906 -3.26762 0
M  V30 7380 H 786.029 2.47979 -2.09611 0
M  V30 7381 H 787.04 0.414141 -5.16241 0
M  V30 7382 H 783.717 2.34721 -3.45271 0
M  V30 7383 H 785.107 -0.0332531 -6.71892 0
M  V30 7384 N 787.827 1.57504 0.0551401 0
M  V30 7385 C 789.075 1.87684 0.74962 0
M  V30 7386 C 789.396 0.812547 1.77264 0
M  V30 7387 O 788.666 -0.15694 1.9527 0
M  V30 7388 H 787.246 0.6926 0.279846 0
M  V30 7389 H 789.908 1.94881 0.0272745 0
M  V30 7390 H 789.004 2.85734 1.25548 0
M  V30 7391 N 789.305 -0.326896 1.54172 0
M  V30 7392 C 790.53 -1.08924 1.76494 0
M  V30 7393 C 790.955 -1.81039 0.510523 0
M  V30 7394 O 790.313 -1.73141 -0.537756 0
M  V30 7395 C 790.361 -2.06558 2.95578 0
M  V30 7396 O 789.465 -3.14394 2.6689 0
M  V30 7397 H 788.806 -0.314216 0.584948 0
M  V30 7398 H 791.336 -0.372207 2.01186 0
M  V30 7399 H 791.346 -2.49487 3.22832 0
M  V30 7400 H 790.021 -1.53469 3.86549 0
M  V30 7401 H 788.598 -2.76164 2.50576 0
M  V30 7402 N 790.784 -1.46188 -0.588786 0
M  V30 7403 C 792.032 -1.50885 -1.34455 0
M  V30 7404 C 792.353 -0.159555 -1.94346 0
M  V30 7405 O 791.623 0.813239 -1.78222 0
M  V30 7406 H 790.203 -0.555707 -0.499198 0
M  V30 7407 H 792.865 -1.82277 -0.690014 0
M  V30 7408 H 791.961 -2.25816 -2.15438 0
M  V30 7409 N 792.262 0.832906 -1.33792 0
M  V30 7410 C 793.487 1.62568 -1.28788 0
M  V30 7411 C 793.912 1.87599 0.137246 0
M  V30 7412 O 793.27 1.44436 1.0958 0
M  V30 7413 C 793.318 2.9495 -2.07453 0
M  V30 7414 O 792.422 3.86546 -1.43722 0
M  V30 7415 H 791.763 0.494809 -0.442787 0
M  V30 7416 H 794.293 1.03578 -1.76445 0
M  V30 7417 H 794.303 3.44599 -2.1844 0
M  V30 7418 H 792.978 2.76055 -3.11073 0
M  V30 7419 H 791.555 3.45044 -1.41417 0
M  V30 7420 N 793.74 1.17359 1.05189 0
M  V30 7421 C 794.988 0.960087 1.77839 0
M  V30 7422 C 795.309 -0.512554 1.88143 0
M  V30 7423 O 794.579 -1.3721 1.39822 0
M  V30 7424 H 793.159 0.352234 0.658741 0
M  V30 7425 H 795.821 1.47834 1.27008 0
M  V30 7426 H 794.917 1.38843 2.79516 0
M  V30 7427 N 795.218 -1.23913 0.973828 0
M  V30 7428 C 796.15 -2.24397 0.466763 0
M  V30 7429 C 797.163 -1.57078 -0.427828 0
M  V30 7430 O 798.352 -1.76973 -0.233019 0
M  V30 7431 C 795.452 -3.37141 -0.344798 0
M  V30 7432 C 794.625 -4.34037 0.541349 0
M  V30 7433 C 793.684 -5.2576 -0.215243 0
M  V30 7434 O 792.71 -5.67842 0.39291 0
M  V30 7435 N 793.912 -5.60702 -1.5031 0
M  V30 7436 H 796.677 -2.68536 1.33074 0
M  V30 7437 H 794.238 -1.38017 0.846346 0
M  V30 7438 H 796.23 -3.95476 -0.859133 0
M  V30 7439 H 794.8 -2.92239 -1.10974 0
M  V30 7440 H 794.02 -3.74302 1.23659 0
M  V30 7441 H 795.308 -4.95738 1.1455 0
M  V30 7442 H 794.706 -5.28451 -2.01882 0
M  V30 7443 H 793.263 -6.21538 -1.96301 0
M  V30 7444 N 796.696 -0.74468 -1.38897 0
M  V30 7445 C 797.921 -0.306119 -2.05128 0
M  V30 7446 C 798.346 1.0541 -1.55789 0
M  V30 7447 O 797.704 1.66993 -0.705909 0
M  V30 7448 C 797.752 -0.328195 -3.59103 0
M  V30 7449 O 796.856 0.680876 -4.06741 0
M  V30 7450 H 796.197 -0.137209 -0.649669 0
M  V30 7451 H 798.727 -1.01331 -1.77745 0
M  V30 7452 H 798.737 -0.175956 -4.0762 0
M  V30 7453 H 797.412 -1.32067 -3.94374 0
M  V30 7454 H 795.989 0.49398 -3.69614 0
M  V30 7455 N 798.174 1.49689 -0.493057 0
M  V30 7456 C 799.585 1.8665 -0.0433032 0
M  V30 7457 C 799.936 1.40607 1.36836 0
M  V30 7458 O 799.061 0.780503 2.01834 0
M  V30 7459 C 799.656 3.38724 -0.0718069 0
M  V30 7460 C 798.215 3.75015 0.32257 0
M  V30 7461 C 797.362 2.7366 -0.4478 0
M  V30 7462 H 800.313 1.42119 -0.706246 0
M  V30 7463 H 800.334 3.73522 0.725347 0
M  V30 7464 H 799.846 3.72204 -1.09935 0
M  V30 7465 H 797.947 3.47142 1.35364 0
M  V30 7466 H 798.06 4.79099 0.00864259 0
M  V30 7467 H 796.424 2.54498 0.101354 0
M  V30 7468 H 797.207 3.09985 -1.47527 0
M  V30 7469 N 799.652 0.226554 1.55963 0
M  V30 7470 C 800.877 -0.411527 2.03276 0
M  V30 7471 C 801.302 -1.52206 1.10521 0
M  V30 7472 O 800.66 -1.81054 0.0943217 0
M  V30 7473 C 800.708 -0.915694 3.4878 0
M  V30 7474 O 799.812 -2.02672 3.59163 0
M  V30 7475 H 799.153 -0.0924907 0.657527 0
M  V30 7476 H 801.683 0.346656 2.01642 0
M  V30 7477 H 801.693 -1.22421 3.892 0
M  V30 7478 H 800.368 -0.102915 4.15773 0
M  V30 7479 H 798.945 -1.72445 3.30632 0
M  V30 7480 N 801.13 -1.57531 -0.0467866 0
M  V30 7481 C 802.541 -1.76945 -0.595603 0
M  V30 7482 C 802.892 -0.855354 -1.76573 0
M  V30 7483 O 802.017 -0.045668 -2.16352 0
M  V30 7484 C 802.612 -3.20881 -1.08725 0
M  V30 7485 C 801.171 -3.41553 -1.58172 0
M  V30 7486 C 800.318 -2.72533 -0.511968 0
M  V30 7487 H 803.269 -1.57682 0.179436 0
M  V30 7488 H 803.29 -3.26419 -1.95528 0
M  V30 7489 H 802.802 -3.87385 -0.235398 0
M  V30 7490 H 800.903 -2.80199 -2.456 0
M  V30 7491 H 801.016 -4.50104 -1.64143 0
M  V30 7492 H 799.38 -2.35797 -0.962899 0
M  V30 7493 H 800.163 -3.41709 0.330117 0
M  V30 7494 N 802.608 0.318715 -1.54344 0
M  V30 7495 C 803.833 1.07987 -1.77069 0
M  V30 7496 C 804.258 1.80766 -0.520117 0
M  V30 7497 O 803.616 1.73424 0.528566 0
M  V30 7498 C 803.664 2.04987 -2.96669 0
M  V30 7499 O 802.768 3.12974 -2.68554 0
M  V30 7500 H 802.109 0.311109 -0.586606 0
M  V30 7501 H 804.639 0.361533 -2.0138 0
M  V30 7502 H 804.649 2.47771 -3.2415 0
M  V30 7503 H 803.324 1.51417 -3.87357 0
M  V30 7504 H 801.901 2.74831 -2.52037 0
M  V30 7505 N 804.086 1.46499 0.581025 0
M  V30 7506 C 805.502 1.31491 0.904563 0
M  V30 7507 C 805.702 0.287598 1.99437 0
M  V30 7508 O 804.758 -0.309247 2.50599 0
M  V30 7509 C 806.071 2.70163 1.32032 0
M  V30 7510 C 807.619 2.78266 1.43308 0
M  V30 7511 C 808.094 4.17524 1.8825 0
M  V30 7512 N 809.585 4.19949 1.9544 0
M  V30 7513 C 810.32 5.24594 2.31493 0
M  V30 7514 N 809.816 6.39564 2.66326 0
M  V30 7515 N 811.609 5.11961 2.32062 0
M  V30 7516 H 803.76 2.11946 -0.138856 0
M  V30 7517 H 806.023 0.948 0.000548528 0
M  V30 7518 H 805.729 3.46655 0.593554 0
M  V30 7519 H 805.603 3.00379 2.2815 0
M  V30 7520 H 807.99 2.02061 2.15071 0
M  V30 7521 H 808.071 2.51732 0.45438 0
M  V30 7522 H 807.715 4.94225 1.17065 0
M  V30 7523 H 807.645 4.41466 2.87081 0
M  V30 7524 H 810.136 3.36996 1.71004 0
M  V30 7525 H 810.449 7.15187 2.92793 0
M  V30 7526 H 808.794 6.42923 2.6396 0
M  V30 7527 H 811.985 4.21177 2.04272 0
M  V30 7528 H 812.158 5.93626 2.5983 0
M  V30 7529 N 805.565 -0.825799 1.34232 0
M  V30 7530 C 806.813 -1.57873 1.26177 0
M  V30 7531 C 807.134 -1.94267 -0.168904 0
M  V30 7532 O 806.404 -1.62045 -1.10084 0
M  V30 7533 H 804.984 -0.585388 0.464037 0
M  V30 7534 H 807.646 -0.986163 1.6811 0
M  V30 7535 H 806.742 -2.50283 1.86453 0
M  V30 7536 N 807.043 -1.17915 -1.04565 0
M  V30 7537 C 808.459 -0.927761 -1.29864 0
M  V30 7538 C 808.659 0.409536 -1.97294 0
M  V30 7539 O 807.715 1.14505 -2.25044 0
M  V30 7540 C 809.028 -2.08967 -2.16225 0
M  V30 7541 C 810.576 -2.12741 -2.29587 0
M  V30 7542 C 811.051 -3.28335 -3.19312 0
M  V30 7543 N 812.542 -3.28164 -3.26898 0
M  V30 7544 C 813.277 -4.14249 -3.96466 0
M  V30 7545 N 812.773 -5.10457 -4.68407 0
M  V30 7546 N 814.566 -4.02179 -3.92694 0
M  V30 7547 H 806.717 -2.03983 -0.592011 0
M  V30 7548 H 808.98 -0.891023 -0.323701 0
M  V30 7549 H 808.686 -3.05654 -1.73979 0
M  V30 7550 H 808.56 -2.04606 -3.16885 0
M  V30 7551 H 810.947 -1.16636 -2.71072 0
M  V30 7552 H 811.028 -2.21162 -1.28535 0
M  V30 7553 H 810.672 -4.2471 -2.78539 0
M  V30 7554 H 810.602 -3.17151 -4.20384 0
M  V30 7555 H 813.093 -2.58511 -2.75646 0
M  V30 7556 H 813.406 -5.72526 -5.1907 0
M  V30 7557 H 811.751 -5.14422 -4.67328 0
M  V30 7558 H 814.942 -3.26308 -3.3562 0
M  V30 7559 H 815.115 -4.69486 -4.4664 0
M  V30 7560 N 808.521 1.23394 -0.980386 0
M  V30 7561 C 809.471 2.22634 -0.491747 0
M  V30 7562 C 810.455 1.54958 0.433222 0
M  V30 7563 O 811.647 1.75049 0.262078 0
M  V30 7564 C 808.776 3.4269 0.204531 0
M  V30 7565 C 807.862 4.17594 -0.740007 0
M  V30 7566 N 808.253 4.69458 -1.88263 0
M  V30 7567 C 806.551 4.42554 -0.553335 0
M  V30 7568 C 807.252 5.26446 -2.47446 0
M  V30 7569 N 806.228 5.14377 -1.75834 0
M  V30 7570 H 810.03 2.60363 -1.36339 0
M  V30 7571 H 807.544 1.38924 -0.841059 0
M  V30 7572 H 809.541 4.12959 0.571901 0
M  V30 7573 H 808.201 3.06477 1.07246 0
M  V30 7574 H 809.212 4.65803 -2.26381 0
M  V30 7575 H 805.889 4.16629 0.269573 0
M  V30 7576 H 807.279 5.77195 -3.43941 0
M  V30 7577 N 809.999 0.752036 1.385 0
M  V30 7578 C 810.909 0.125318 2.34265 0
M  V30 7579 C 811.925 -0.702437 1.59191 0
M  V30 7580 O 813.101 -0.626951 1.91393 0
M  V30 7581 C 810.166 -0.758486 3.38301 0
M  V30 7582 C 809.227 0.0834636 4.29219 0
M  V30 7583 C 808.46 -0.758252 5.28286 0
M  V30 7584 O 808.683 -1.99632 5.34325 0
M  V30 7585 O 807.617 -0.177878 6.01637 0
M  V30 7586 H 811.443 0.91617 2.89551 0
M  V30 7587 H 809.028 0.512911 1.4032 0
M  V30 7588 H 810.91 -1.26365 4.02007 0
M  V30 7589 H 809.585 -1.52786 2.85374 0
M  V30 7590 H 808.492 0.634545 3.68679 0
M  V30 7591 H 809.825 0.815455 4.85398 0
M  V30 7592 N 811.477 -1.49425 0.500989 0
M  V30 7593 C 812.702 -2.07356 -0.0425154 0
M  V30 7594 C 813.127 -1.35887 -1.30063 0
M  V30 7595 O 812.485 -0.41561 -1.76472 0
M  V30 7596 C 812.533 -3.59518 -0.279188 0
M  V30 7597 O 811.637 -3.89542 -1.3539 0
M  V30 7598 H 810.978 -0.663482 0.0262207 0
M  V30 7599 H 813.508 -1.92231 0.700607 0
M  V30 7600 H 813.518 -4.04791 -0.5107 0
M  V30 7601 H 812.193 -4.10946 0.640009 0
M  V30 7602 H 810.77 -3.56079 -1.10734 0
M  V30 7603 N 812.955 -0.234822 -1.55841 0
M  V30 7604 C 814.203 0.392483 -1.98252 0
M  V30 7605 C 814.524 1.59344 -1.12404 0
M  V30 7606 O 813.794 1.94834 -0.204055 0
M  V30 7607 H 812.374 0.147999 -0.732192 0
M  V30 7608 H 815.036 -0.330804 -1.92072 0
M  V30 7609 H 814.132 0.709829 -3.03921 0
M  V30 7610 N 814.433 1.57553 0.0384317 0
M  V30 7611 C 815.658 1.93485 0.746872 0
M  V30 7612 C 816.083 0.834069 1.68597 0
M  V30 7613 O 815.441 -0.210902 1.80069 0
M  V30 7614 C 815.489 3.28463 1.4881 0
M  V30 7615 O 814.593 3.20051 2.60079 0
M  V30 7616 H 813.934 0.632675 0.201539 0
M  V30 7617 H 816.464 2.046 -0.00329815 0
M  V30 7618 H 816.474 3.63132 1.86009 0
M  V30 7619 H 815.149 4.08147 0.799297 0
M  V30 7620 H 813.726 2.96998 2.25492 0
M  V30 7621 N 815.911 -0.310526 1.54511 0
M  V30 7622 C 817.327 -0.655637 1.45511 0
M  V30 7623 C 817.527 -1.91114 0.638564 0
M  V30 7624 O 816.583 -2.52098 0.142497 0
M  V30 7625 C 817.896 -0.817501 2.89374 0
M  V30 7626 C 819.444 -0.914003 2.99358 0
M  V30 7627 C 819.919 -1.10794 4.44397 0
M  V30 7628 N 821.41 -1.17437 4.48066 0
M  V30 7629 C 822.145 -1.34255 5.57461 0
M  V30 7630 N 821.641 -1.48032 6.768 0
M  V30 7631 N 823.434 -1.37067 5.45132 0
M  V30 7632 H 815.585 0.514506 2.06074 0
M  V30 7633 H 817.848 0.168478 0.932909 0
M  V30 7634 H 817.554 0.034003 3.51684 0
M  V30 7635 H 817.428 -1.7094 3.36243 0
M  V30 7636 H 819.815 -1.756 2.37168 0
M  V30 7637 H 819.896 0.00170958 2.558 0
M  V30 7638 H 819.54 -0.270743 5.07178 0
M  V30 7639 H 819.47 -2.03773 4.85576 0
M  V30 7640 H 821.961 -1.08181 3.62084 0
M  V30 7641 H 822.274 -1.60593 7.5593 0
M  V30 7642 H 820.619 -1.45105 6.79683 0
M  V30 7643 H 823.81 -1.25909 4.50849 0
M  V30 7644 H 823.983 -1.49831 6.3044 0
M  V30 7645 N 817.389 -1.46805 -0.573248 0
M  V30 7646 C 818.321 -1.54127 -1.6964 0
M  V30 7647 C 819.334 -0.428778 -1.57052 0
M  V30 7648 O 820.523 -0.697612 -1.64303 0
M  V30 7649 C 817.623 -1.41438 -3.07975 0
M  V30 7650 C 816.796 -2.66974 -3.46474 0
M  V30 7651 C 815.855 -2.48349 -4.63906 0
M  V30 7652 O 814.881 -3.22109 -4.69292 0
M  V30 7653 N 816.083 -1.55129 -5.59388 0
M  V30 7654 H 818.848 -2.50971 -1.6381 0
M  V30 7655 H 816.409 -1.42981 -0.759479 0
M  V30 7656 H 818.401 -1.26737 -3.84343 0
M  V30 7657 H 816.971 -0.527388 -3.08119 0
M  V30 7658 H 816.191 -2.9655 -2.59715 0
M  V30 7659 H 817.479 -3.50347 -3.68964 0
M  V30 7660 H 816.877 -0.94324 -5.57781 0
M  V30 7661 H 815.434 -1.46387 -6.35149 0
M  V30 7662 N 818.867 0.818669 -1.34668 0
M  V30 7663 C 820.092 1.61193 -1.30505 0
M  V30 7664 C 820.517 1.87734 0.117341 0
M  V30 7665 O 819.875 1.45591 1.08042 0
M  V30 7666 C 819.923 2.92733 -2.1057 0
M  V30 7667 O 819.027 3.85 -1.47813 0
M  V30 7668 H 818.368 0.490085 -0.44801 0
M  V30 7669 H 820.898 1.01701 -1.77534 0
M  V30 7670 H 820.908 3.42262 -2.22082 0
M  V30 7671 H 819.583 2.7274 -3.13984 0
M  V30 7672 H 818.16 3.43525 -1.45069 0
M  V30 7673 N 820.346 1.18468 1.03938 0
M  V30 7674 C 821.571 1.00638 1.81347 0
M  V30 7675 C 821.996 -0.440477 1.8287 0
M  V30 7676 O 821.354 -1.31609 1.24695 0
M  V30 7677 C 821.402 1.5673 3.24759 0
M  V30 7678 O 820.506 0.789517 4.04772 0
M  V30 7679 H 819.847 0.356432 0.560225 0
M  V30 7680 H 822.377 1.57253 1.30891 0
M  V30 7681 H 822.387 1.59496 3.75533 0
M  V30 7682 H 821.062 2.62043 3.22965 0
M  V30 7683 H 819.639 0.834267 3.63448 0
M  V30 7684 N 821.824 -1.22873 0.986916 0
M  V30 7685 C 823.049 -1.96028 0.677341 0
M  V30 7686 C 823.474 -1.72487 -0.750319 0
M  V30 7687 O 822.832 -1.00036 -1.51203 0
M  V30 7688 C 822.88 -3.46983 0.981593 0
M  V30 7689 O 821.984 -4.12328 0.0770729 0
M  V30 7690 H 821.325 -0.613458 0.254096 0
M  V30 7691 H 823.855 -1.56132 1.32227 0
M  V30 7692 H 823.865 -3.9747 0.920969 0
M  V30 7693 H 822.54 -3.63442 2.02194 0
M  V30 7694 H 821.117 -3.72402 0.192666 0
M  V30 7695 N 823.302 -0.75937 -1.38099 0
M  V30 7696 C 824.532 -0.328634 -2.0397 0
M  V30 7697 C 824.94 1.04989 -1.57398 0
M  V30 7698 O 824.283 1.67918 -0.744932 0
M  V30 7699 C 824.345 -0.279216 -3.58414 0
M  V30 7700 C 824.009 -1.60025 -4.28067 0
M  V30 7701 C 825.006 -2.55048 -4.53041 0
M  V30 7702 C 822.691 -1.87128 -4.66142 0
M  V30 7703 C 824.685 -3.7539 -5.15132 0
M  V30 7704 C 822.372 -3.07742 -5.27956 0
M  V30 7705 C 823.37 -4.01694 -5.52387 0
M  V30 7706 O 823.058 -5.20186 -6.12912 0
M  V30 7707 H 822.79 -0.137443 -0.66188 0
M  V30 7708 H 825.344 -1.03082 -1.77661 0
M  V30 7709 H 823.574 0.479254 -3.83719 0
M  V30 7710 H 825.263 0.122781 -4.05714 0
M  V30 7711 H 826.029 -2.35387 -4.24049 0
M  V30 7712 H 821.908 -1.14833 -4.46469 0
M  V30 7713 H 825.452 -4.48737 -5.34117 0
M  V30 7714 H 821.349 -3.27294 -5.56371 0
M  V30 7715 H 822.117 -5.20846 -6.31397 0
M  V30 7716 N 824.78 1.49157 -0.508906 0
M  V30 7717 C 826.028 2.02073 0.0327335 0
M  V30 7718 C 826.349 1.39012 1.3675 0
M  V30 7719 O 825.619 0.548153 1.88075 0
M  V30 7720 H 824.199 0.746848 0.0150864 0
M  V30 7721 H 826.861 1.83097 -0.667946 0
M  V30 7722 H 825.957 3.11707 0.1566 0
M  V30 7723 N 826.258 0.243083 1.55714 0
M  V30 7724 C 827.669 -0.260788 1.8487 0
M  V30 7725 C 828.02 -1.57879 1.16485 0
M  V30 7726 O 827.145 -2.1184 0.441908 0
M  V30 7727 C 827.74 -0.479954 3.35383 0
M  V30 7728 C 826.299 -0.928096 3.64778 0
M  V30 7729 C 825.446 -0.00316416 2.773 0
M  V30 7730 H 828.397 0.465743 1.51712 0
M  V30 7731 H 828.418 -1.32308 3.56756 0
M  V30 7732 H 827.93 0.479468 3.85127 0
M  V30 7733 H 826.031 -1.90012 3.20509 0
M  V30 7734 H 826.144 -0.7876 4.72582 0
M  V30 7735 H 824.508 -0.513849 2.49463 0
M  V30 7736 H 825.291 0.951562 3.29849 0
M  V30 7737 N 827.736 -1.57571 -0.0300757 0
M  V30 7738 C 828.686 -2.02958 -1.03885 0
M  V30 7739 C 829.67 -0.918723 -1.32092 0
M  V30 7740 O 830.862 -1.18262 -1.31694 0
M  V30 7741 C 827.991 -2.51169 -2.34028 0
M  V30 7742 C 827.077 -3.69073 -2.08915 0
M  V30 7743 N 827.468 -4.81831 -1.53858 0
M  V30 7744 C 825.766 -3.76427 -2.39204 0
M  V30 7745 C 826.467 -5.6346 -1.44526 0
M  V30 7746 N 825.443 -5.08545 -1.92048 0
M  V30 7747 H 829.245 -2.8756 -0.607157 0
M  V30 7748 H 826.759 -1.6067 -0.236399 0
M  V30 7749 H 828.756 -2.81944 -3.07104 0
M  V30 7750 H 827.416 -1.67972 -2.77876 0
M  V30 7751 H 828.427 -5.03291 -1.22142 0
M  V30 7752 H 825.104 -3.04029 -2.86134 0
M  V30 7753 H 826.494 -6.64042 -1.02456 0
M  V30 7754 N 829.214 0.302327 -1.54673 0
M  V30 7755 C 830.462 1.03565 -1.73547 0
M  V30 7756 C 830.783 1.87843 -0.523448 0
M  V30 7757 O 830.053 1.90367 0.462295 0
M  V30 7758 H 828.633 0.385358 -0.639928 0
M  V30 7759 H 831.295 0.333632 -1.92023 0
M  V30 7760 H 830.391 1.68952 -2.62415 0
M  V30 7761 N 830.692 1.47107 0.565454 0
M  V30 7762 C 831.922 1.56681 1.34664 0
M  V30 7763 C 832.33 0.213011 1.87997 0
M  V30 7764 O 831.673 -0.802629 1.65238 0
M  V30 7765 C 831.735 2.52528 2.55871 0
M  V30 7766 C 831.399 3.98403 2.23883 0
M  V30 7767 C 832.396 4.87125 1.81673 0
M  V30 7768 C 830.081 4.43674 2.35496 0
M  V30 7769 C 832.075 6.19135 1.51494 0
M  V30 7770 C 829.762 5.75714 2.0493 0
M  V30 7771 C 830.76 6.63266 1.62996 0
M  V30 7772 O 830.448 7.92853 1.32813 0
M  V30 7773 H 830.18 0.531967 0.417117 0
M  V30 7774 H 832.734 1.93368 0.692669 0
M  V30 7775 H 830.964 2.10893 3.24131 0
M  V30 7776 H 832.653 2.5232 3.17945 0
M  V30 7777 H 833.419 4.534 1.72201 0
M  V30 7778 H 829.298 3.7574 2.67096 0
M  V30 7779 H 832.842 6.87429 1.1869 0
M  V30 7780 H 828.739 6.08983 2.14031 0
M  V30 7781 H 829.507 8.0528 1.46513 0
M  V30 7782 N 832.17 -0.811516 1.35101 0
M  V30 7783 C 833.418 -1.56525 1.27845 0
M  V30 7784 C 833.739 -1.94435 -0.14829 0
M  V30 7785 O 833.009 -1.63203 -1.08359 0
M  V30 7786 H 831.589 -0.580433 0.47022 0
M  V30 7787 H 834.251 -0.968277 1.69146 0
M  V30 7788 H 833.347 -2.48291 1.89097 0
M  V30 7789 N 833.648 -1.19017 -1.03309 0
M  V30 7790 C 834.873 -1.01598 -1.80811 0
M  V30 7791 C 835.298 0.430773 -1.83101 0
M  V30 7792 O 834.656 1.30946 -1.25391 0
M  V30 7793 C 834.704 -1.5845 -3.23923 0
M  V30 7794 O 833.808 -0.810972 -4.04348 0
M  V30 7795 H 833.149 -0.359398 -0.558327 0
M  V30 7796 H 835.679 -1.57945 -1.30055 0
M  V30 7797 H 835.689 -1.61486 -3.74682 0
M  V30 7798 H 834.364 -2.63752 -3.21571 0
M  V30 7799 H 832.941 -0.85353 -3.63 0
M  V30 7800 N 835.127 1.22348 -0.993418 0
M  V30 7801 C 836.375 1.90733 -0.668246 0
M  V30 7802 C 836.696 1.77732 0.802261 0
M  V30 7803 O 835.966 1.16486 1.57505 0
M  V30 7804 H 834.546 0.705966 -0.244174 0
M  V30 7805 H 837.208 1.48691 -1.26004 0
M  V30 7806 H 836.304 2.97883 -0.931239 0
M  V30 7807 N 836.605 0.766683 1.37694 0
M  V30 7808 C 838.021 0.445739 1.53249 0
M  V30 7809 C 838.221 -1.03935 1.72626 0
M  V30 7810 O 837.277 -1.82525 1.74473 0
M  V30 7811 C 838.59 1.2564 2.73194 0
M  V30 7812 C 840.138 1.24779 2.87053 0
M  V30 7813 C 840.613 2.04169 4.09974 0
M  V30 7814 N 842.104 2.01497 4.17077 0
M  V30 7815 C 842.839 2.5971 5.11212 0
M  V30 7816 N 842.335 3.26691 6.10938 0
M  V30 7817 N 844.128 2.49568 5.03659 0
M  V30 7818 H 836.279 1.72899 1.23368 0
M  V30 7819 H 838.542 0.733701 0.600322 0
M  V30 7820 H 838.248 2.30859 2.65324 0
M  V30 7821 H 838.122 0.882133 3.6674 0
M  V30 7822 H 840.509 0.203603 2.94397 0
M  V30 7823 H 840.59 1.66166 1.9448 0
M  V30 7824 H 840.234 3.08606 4.03392 0
M  V30 7825 H 840.164 1.60167 5.01651 0
M  V30 7826 H 842.655 1.52728 3.45662 0
M  V30 7827 H 842.968 3.68497 6.79286 0
M  V30 7828 H 841.313 3.30789 6.11231 0
M  V30 7829 H 844.504 1.96859 4.24693 0
M  V30 7830 H 844.677 2.95231 5.76839 0
M  V30 7831 N 838.083 -1.48885 0.516809 0
M  V30 7832 C 839.308 -2.0739 -0.0205201 0
M  V30 7833 C 839.733 -1.37259 -1.28614 0
M  V30 7834 O 839.091 -0.434304 -1.76021 0
M  V30 7835 C 839.139 -3.59793 -0.24104 0
M  V30 7836 O 838.243 -3.90957 -1.31251 0
M  V30 7837 H 837.584 -0.663167 0.0332564 0
M  V30 7838 H 840.114 -1.91477 0.720956 0
M  V30 7839 H 840.124 -4.0531 -0.467737 0
M  V30 7840 H 838.799 -4.10244 0.68356 0
M  V30 7841 H 837.376 -3.57234 -1.06951 0
M  V30 7842 N 839.561 -0.251338 -1.55583 0
M  V30 7843 C 840.786 0.379136 -2.03905 0
M  V30 7844 C 841.211 1.50428 -1.12929 0
M  V30 7845 O 840.569 1.80882 -0.123114 0
M  V30 7846 C 840.617 0.86009 -3.50193 0
M  V30 7847 O 839.721 1.96932 -3.62342 0
M  V30 7848 H 839.062 0.0820183 -0.658915 0
M  V30 7849 H 841.592 -0.378692 -2.01065 0
M  V30 7850 H 841.602 1.16214 -3.91099 0
M  V30 7851 H 840.277 0.0367559 -4.15884 0
M  V30 7852 H 838.854 1.67163 -3.33333 0
M  V30 7853 N 841.039 1.57585 0.0217189 0
M  V30 7854 C 842.264 1.94267 0.726309 0
M  V30 7855 C 842.689 0.851904 1.67703 0
M  V30 7856 O 842.047 -0.191792 1.80283 0
M  V30 7857 C 842.095 3.30023 1.45318 0
M  V30 7858 O 841.199 3.22791 2.5667 0
M  V30 7859 H 840.54 0.634777 0.194818 0
M  V30 7860 H 843.07 2.04585 -0.0249985 0
M  V30 7861 H 843.08 3.65084 1.82147 0
M  V30 7862 H 841.755 4.08972 0.755962 0
M  V30 7863 H 840.332 2.99373 2.2233 0
M  V30 7864 N 842.517 -0.29412 1.54831 0
M  V30 7865 C 843.933 -0.640167 1.46199 0
M  V30 7866 C 844.133 -1.90426 0.658798 0
M  V30 7867 O 843.189 -2.51932 0.169228 0
M  V30 7868 C 844.502 -0.786763 2.90225 0
M  V30 7869 C 846.05 -0.882201 3.0031 0
M  V30 7870 C 846.525 -1.06074 4.45547 0
M  V30 7871 N 848.016 -1.12678 4.49286 0
M  V30 7872 C 848.751 -1.28334 5.58854 0
M  V30 7873 N 848.247 -1.40845 6.78332 0
M  V30 7874 N 850.04 -1.31277 5.46555 0
M  V30 7875 H 842.191 0.536334 2.05517 0
M  V30 7876 H 844.454 0.178363 0.93107 0
M  V30 7877 H 844.16 0.0713018 3.51628 0
M  V30 7878 H 844.034 -1.67364 3.38037 0
M  V30 7879 H 846.421 -1.73075 2.39017 0
M  V30 7880 H 846.502 0.0288405 2.55784 0
M  V30 7881 H 846.146 -0.216935 5.07437 0
M  V30 7882 H 846.076 -1.98611 4.8771 0
M  V30 7883 H 848.567 -1.04335 3.63212 0
M  V30 7884 H 848.88 -1.52566 7.57591 0
M  V30 7885 H 847.225 -1.37888 6.81184 0
M  V30 7886 H 850.416 -1.2112 4.52159 0
M  V30 7887 H 850.589 -1.43136 6.31994 0
M  V30 7888 N 843.995 -1.47404 -0.557645 0
M  V30 7889 C 845.243 -1.53703 -1.31224 0
M  V30 7890 C 845.564 -0.200742 -1.93964 0
M  V30 7891 O 844.834 0.775253 -1.79907 0
M  V30 7892 H 843.414 -0.566171 -0.487299 0
M  V30 7893 H 846.076 -1.83699 -0.651195 0
M  V30 7894 H 845.172 -2.30335 -2.10599 0
M  V30 7895 N 845.473 0.80434 -1.35529 0
M  V30 7896 C 846.884 1.37849 -1.25915 0
M  V30 7897 C 847.235 1.95905 0.107495 0
M  V30 7898 O 846.36 1.91462 1.00852 0
M  V30 7899 C 846.955 2.50608 -2.27994 0
M  V30 7900 C 845.514 3.03879 -2.22114 0
M  V30 7901 C 844.661 1.76856 -2.13582 0
M  V30 7902 H 847.612 0.607192 -1.46625 0
M  V30 7903 H 847.633 3.29221 -1.90772 0
M  V30 7904 H 847.145 2.08323 -3.27449 0
M  V30 7905 H 845.246 3.50622 -1.26077 0
M  V30 7906 H 845.359 3.61707 -3.14173 0
M  V30 7907 H 843.723 1.98498 -1.59595 0
M  V30 7908 H 844.506 1.36721 -3.14901 0
M  V30 7909 N 846.951 1.19563 1.02676 0
M  V30 7910 C 848.181 1.0234 1.79472 0
M  V30 7911 C 848.589 -0.430891 1.84228 0
M  V30 7912 O 847.932 -1.31106 1.28674 0
M  V30 7913 C 847.994 1.51901 3.25832 0
M  V30 7914 C 847.658 3.00045 3.44706 0
M  V30 7915 C 848.655 3.9779 3.34752 0
M  V30 7916 C 846.34 3.38784 3.70851 0
M  V30 7917 C 848.334 5.32267 3.50672 0
M  V30 7918 C 846.021 4.73419 3.86416 0
M  V30 7919 C 847.019 5.69969 3.7633 0
M  V30 7920 O 846.707 7.02165 3.91432 0
M  V30 7921 H 846.439 0.360936 0.571578 0
M  V30 7922 H 848.993 1.58863 1.30198 0
M  V30 7923 H 847.223 0.897546 3.7614 0
M  V30 7924 H 848.912 1.30853 3.84229 0
M  V30 7925 H 849.678 3.69207 3.14502 0
M  V30 7926 H 845.557 2.64183 3.77794 0
M  V30 7927 H 849.101 6.07612 3.42715 0
M  V30 7928 H 844.998 5.01697 4.06165 0
M  V30 7929 H 845.766 7.09268 4.08511 0
M  V30 7930 N 848.429 -1.21819 0.999893 0
M  V30 7931 C 849.339 -2.27691 0.565159 0
M  V30 7932 C 850.355 -1.69587 -0.389398 0
M  V30 7933 O 851.531 -1.99786 -0.254499 0
M  V30 7934 C 848.596 -3.46537 -0.106432 0
M  V30 7935 C 847.657 -4.19932 0.891964 0
M  V30 7936 C 846.89 -5.33103 0.252327 0
M  V30 7937 O 847.113 -5.62398 -0.952103 0
M  V30 7938 O 846.047 -5.94184 0.960698 0
M  V30 7939 H 849.873 -2.67059 1.44613 0
M  V30 7940 H 847.458 -1.28119 0.768499 0
M  V30 7941 H 849.34 -4.18631 -0.482301 0
M  V30 7942 H 848.015 -3.09079 -0.961865 0
M  V30 7943 H 846.922 -3.5008 1.3189 0
M  V30 7944 H 848.255 -4.61287 1.71682 0
M  V30 7945 N 849.908 -0.773975 -1.37286 0
M  V30 7946 C 851.133 -0.349561 -2.04433 0
M  V30 7947 C 851.558 1.02082 -1.5799 0
M  V30 7948 O 850.916 1.65458 -0.741172 0
M  V30 7949 C 850.964 -0.404292 -3.58326 0
M  V30 7950 O 850.068 0.594447 -4.08093 0
M  V30 7951 H 849.409 -0.150959 -0.646612 0
M  V30 7952 H 851.939 -1.05079 -1.75555 0
M  V30 7953 H 851.949 -0.262378 -4.07155 0
M  V30 7954 H 850.624 -1.40403 -3.91484 0
M  V30 7955 H 849.201 0.415468 -3.70578 0
M  V30 7956 N 851.386 1.48609 -0.524698 0
M  V30 7957 C 852.634 2.02097 0.0112991 0
M  V30 7958 C 852.955 1.40455 1.35268 0
M  V30 7959 O 852.225 0.56807 1.87483 0
M  V30 7960 H 850.805 0.746966 0.00716426 0
M  V30 7961 H 853.467 1.82378 -0.687329 0
M  V30 7962 H 852.563 3.11855 0.123531 0
M  V30 7963 N 852.864 0.259585 1.55447 0
M  V30 7964 C 854.089 -0.368317 2.04103 0
M  V30 7965 C 854.514 -1.49827 1.13725 0
M  V30 7966 O 853.872 -1.80814 0.132705 0
M  V30 7967 C 853.92 -0.841506 3.50644 0
M  V30 7968 O 853.024 -1.95008 3.63381 0
M  V30 7969 H 852.365 -0.0785227 0.659341 0
M  V30 7970 H 854.895 0.389349 2.00861 0
M  V30 7971 H 854.905 -1.14138 3.9171 0
M  V30 7972 H 853.58 -0.0147001 4.15897 0
M  V30 7973 H 852.157 -1.65393 3.34215 0
M  V30 7974 N 854.342 -1.57594 -0.0133615 0
M  V30 7975 C 855.59 -1.89605 -0.699596 0
M  V30 7976 C 855.911 -0.85926 -1.75048 0
M  V30 7977 O 855.181 0.105112 -1.95618 0
M  V30 7978 H 853.761 -0.699776 -0.261385 0
M  V30 7979 H 856.423 -1.94885 0.0244044 0
M  V30 7980 H 855.519 -2.88962 -1.17928 0
M  V30 7981 N 855.82 0.285905 -1.54985 0
M  V30 7982 C 856.77 1.35505 -1.83364 0
M  V30 7983 C 857.754 1.45273 -0.691698 0
M  V30 7984 O 858.946 1.49172 -0.952725 0
M  V30 7985 C 856.075 2.71756 -2.0977 0
M  V30 7986 C 855.161 2.6615 -3.30189 0
M  V30 7987 N 855.552 2.30161 -4.50399 0
M  V30 7988 C 853.85 2.97232 -3.3252 0
M  V30 7989 C 854.551 2.34228 -5.32459 0
M  V30 7990 N 853.527 2.72187 -4.70548 0
M  V30 7991 H 857.329 1.06668 -2.7386 0
M  V30 7992 H 854.843 0.494521 -1.54688 0
M  V30 7993 H 856.84 3.48864 -2.28253 0
M  V30 7994 H 855.5 3.01492 -1.20551 0
M  V30 7995 H 856.511 2.02358 -4.7673 0
M  V30 7996 H 853.188 3.31764 -2.53454 0
M  V30 7997 H 854.578 2.09074 -6.38543 0
M  V30 7998 N 857.298 1.47698 0.54982 0
M  V30 7999 C 858.523 1.58579 1.33669 0
M  V30 8000 C 858.948 0.239049 1.86575 0
M  V30 8001 O 858.306 -0.786256 1.63364 0
M  V30 8002 C 858.354 2.62029 2.47736 0
M  V30 8003 O 857.458 2.17813 3.50188 0
M  V30 8004 H 856.799 0.532447 0.396732 0
M  V30 8005 H 859.329 1.93536 0.6637 0
M  V30 8006 H 859.339 2.82682 2.94202 0
M  V30 8007 H 858.014 3.59812 2.08586 0
M  V30 8008 H 856.591 2.07291 3.09976 0
M  V30 8009 N 858.776 -0.797141 1.35954 0
M  V30 8010 C 860.001 -1.59097 1.33053 0
M  V30 8011 C 860.426 -1.87897 -0.0874592 0
M  V30 8012 O 859.784 -1.47291 -1.05712 0
M  V30 8013 C 859.832 -2.89346 2.152 0
M  V30 8014 O 858.936 -3.826 1.5392 0
M  V30 8015 H 858.277 -0.482895 0.45575 0
M  V30 8016 H 860.807 -0.988633 1.79129 0
M  V30 8017 H 860.817 -3.38686 2.27499 0
M  V30 8018 H 859.492 -2.6771 3.18283 0
M  V30 8019 H 858.069 -3.41174 1.50516 0
M  V30 8020 N 860.254 -1.20106 -1.0204 0
M  V30 8021 C 861.502 -1.0069 -1.75231 0
M  V30 8022 C 861.823 0.462491 -1.89436 0
M  V30 8023 O 861.093 1.33455 -1.4341 0
M  V30 8024 H 859.673 -0.369576 -0.649171 0
M  V30 8025 H 862.335 -1.51149 -1.23044 0
M  V30 8026 H 861.431 -1.46205 -2.75736 0
M  V30 8027 N 861.732 1.21287 -1.00634 0
M  V30 8028 C 862.662 2.25973 -0.588089 0
M  V30 8029 C 863.643 1.65527 0.391764 0
M  V30 8030 O 864.828 1.92179 0.279452 0
M  V30 8031 C 861.958 3.47197 0.0847336 0
M  V30 8032 C 860.912 4.20168 -0.815039 0
M  V30 8033 C 860.238 5.34699 -0.00855393 0
M  V30 8034 C 861.538 4.77416 -2.11828 0
M  V30 8035 H 863.232 2.61212 -1.46317 0
M  V30 8036 H 860.778 1.25563 -0.704985 0
M  V30 8037 H 862.731 4.19602 0.388821 0
M  V30 8038 H 861.455 3.11092 0.994456 0
M  V30 8039 H 860.114 3.49614 -1.10297 0
M  V30 8040 H 859.762 4.94837 0.902499 0
M  V30 8041 H 859.462 5.84449 -0.607664 0
M  V30 8042 H 860.986 6.09914 0.289317 0
M  V30 8043 H 862.4 5.41694 -1.87725 0
M  V30 8044 H 860.797 5.37561 -2.66736 0
M  V30 8045 H 861.867 3.96724 -2.78816 0
M  V30 8046 N 863.21 0.781244 1.36873 0
M  V30 8047 C 864.458 0.349198 1.9906 0
M  V30 8048 C 864.779 -1.0806 1.62321 0
M  V30 8049 O 864.049 -1.74351 0.893229 0
M  V30 8050 H 862.629 0.126126 0.736275 0
M  V30 8051 H 865.291 1.00148 1.67202 0
M  V30 8052 H 864.387 0.434451 3.09061 0
M  V30 8053 N 864.689 -1.48329 0.532571 0
M  V30 8054 C 865.639 -2.2664 -0.24868 0
M  V30 8055 C 866.623 -1.32861 -0.907563 0
M  V30 8056 O 867.815 -1.57382 -0.809942 0
M  V30 8057 C 864.944 -3.18004 -1.29339 0
M  V30 8058 C 864.03 -4.19256 -0.639166 0
M  V30 8059 N 864.421 -5.05043 0.276597 0
M  V30 8060 C 862.719 -4.36906 -0.896062 0
M  V30 8061 C 863.42 -5.78009 0.654261 0
M  V30 8062 N 862.396 -5.43598 0.0147447 0
M  V30 8063 H 866.198 -2.90344 0.455792 0
M  V30 8064 H 863.712 -1.58566 0.350778 0
M  V30 8065 H 865.709 -3.72767 -1.86682 0
M  V30 8066 H 864.369 -2.55855 -1.99921 0
M  V30 8067 H 865.38 -5.13813 0.649351 0
M  V30 8068 H 862.057 -3.85945 -1.59226 0
M  V30 8069 H 863.447 -6.57039 1.40532 0
M  V30 8070 N 866.167 -0.267825 -1.55308 0
M  V30 8071 C 867.099 0.65591 -2.19614 0
M  V30 8072 C 868.112 1.12302 -1.17865 0
M  V30 8073 O 869.301 1.04618 -1.44628 0
M  V30 8074 C 866.401 1.90582 -2.80235 0
M  V30 8075 C 865.574 1.58673 -4.07605 0
M  V30 8076 C 864.633 2.68836 -4.52343 0
M  V30 8077 O 863.659 2.35331 -5.18274 0
M  V30 8078 N 864.861 3.98752 -4.21873 0
M  V30 8079 H 867.626 0.105566 -2.99514 0
M  V30 8080 H 865.187 -0.0886263 -1.61657 0
M  V30 8081 H 867.179 2.63561 -3.07112 0
M  V30 8082 H 865.749 2.3654 -2.04371 0
M  V30 8083 H 864.969 0.691113 -3.88094 0
M  V30 8084 H 866.257 1.34845 -4.90606 0
M  V30 8085 H 865.655 4.28797 -3.68985 0
M  V30 8086 H 864.212 4.68131 -4.53537 0
M  V30 8087 N 867.645 1.57599 0.00500368 0
M  V30 8088 C 868.555 2.11532 1.01446 0
M  V30 8089 C 869.571 1.05941 1.3803 0
M  V30 8090 O 870.747 1.37815 1.46864 0
M  V30 8091 C 867.812 2.60382 2.28915 0
M  V30 8092 C 866.873 3.80554 1.98689 0
M  V30 8093 C 866.106 4.27064 3.20081 0
M  V30 8094 O 866.329 3.72939 4.31593 0
M  V30 8095 O 865.263 5.1927 3.04371 0
M  V30 8096 H 869.089 2.97993 0.586011 0
M  V30 8097 H 866.674 1.47718 0.223519 0
M  V30 8098 H 868.556 2.92024 3.03809 0
M  V30 8099 H 867.231 1.77022 2.71007 0
M  V30 8100 H 866.138 3.53893 1.21286 0
M  V30 8101 H 867.471 4.64972 1.61437 0
M  V30 8102 N 869.123 -0.277682 1.55134 0
M  V30 8103 C 870.348 -1.03254 1.7987 0
M  V30 8104 C 870.773 -1.79324 0.567861 0
M  V30 8105 O 870.131 -1.74764 -0.4824 0
M  V30 8106 C 870.179 -1.9705 3.02 0
M  V30 8107 O 869.283 -3.05744 2.76757 0
M  V30 8108 H 868.624 -0.295447 0.594649 0
M  V30 8109 H 871.154 -0.308013 2.02268 0
M  V30 8110 H 871.164 -2.3909 3.30606 0
M  V30 8111 H 869.839 -1.41094 3.91236 0
M  V30 8112 H 868.416 -2.68052 2.59235 0
M  V30 8113 N 870.601 -1.47988 -0.541979 0
M  V30 8114 C 872.017 -1.33843 -0.869383 0
M  V30 8115 C 872.217 -0.340374 -1.98604 0
M  V30 8116 O 871.273 0.242696 -2.51331 0
M  V30 8117 C 872.586 -2.73568 -1.24823 0
M  V30 8118 C 874.134 -2.81967 -1.3588 0
M  V30 8119 C 874.609 -4.22368 -1.77114 0
M  V30 8120 N 876.1 -4.24983 -1.84237 0
M  V30 8121 C 876.835 -5.30547 -2.17503 0
M  V30 8122 N 876.331 -6.46401 -2.49275 0
M  V30 8123 N 878.124 -5.17933 -2.18406 0
M  V30 8124 H 870.275 -2.11503 0.195001 0
M  V30 8125 H 872.538 -0.947681 0.0245862 0
M  V30 8126 H 872.244 -3.48107 -0.501435 0
M  V30 8127 H 872.118 -3.06322 -2.20106 0
M  V30 8128 H 874.505 -2.07692 -2.09638 0
M  V30 8129 H 874.586 -2.52848 -0.387478 0
M  V30 8130 H 874.23 -4.97155 -1.0392 0
M  V30 8131 H 874.16 -4.48922 -2.75275 0
M  V30 8132 H 876.651 -3.41411 -1.62009 0
M  V30 8133 H 876.964 -7.22698 -2.73729 0
M  V30 8134 H 875.309 -6.49696 -2.46821 0
M  V30 8135 H 878.5 -4.26445 -1.93034 0
M  V30 8136 H 878.673 -6.00307 -2.44 0
M  V30 8137 N 872.079 0.78992 -1.36375 0
M  V30 8138 C 873.304 1.58389 -1.33895 0
M  V30 8139 C 873.729 1.8794 0.0774934 0
M  V30 8140 O 873.087 1.4785 1.0493 0
M  V30 8141 C 873.135 2.88201 -2.16732 0
M  V30 8142 O 872.239 3.81778 -1.55946 0
M  V30 8143 H 871.58 0.480471 -0.458305 0
M  V30 8144 H 874.11 0.979119 -1.79651 0
M  V30 8145 H 874.12 3.37475 -2.29292 0
M  V30 8146 H 872.795 2.66019 -3.19698 0
M  V30 8147 H 871.372 3.40371 -1.52323 0
M  V30 8148 N 873.557 1.20646 1.01402 0
M  V30 8149 C 874.805 1.01618 1.74695 0
M  V30 8150 C 875.126 -0.452438 1.89679 0
M  V30 8151 O 874.396 -1.32693 1.44116 0
M  V30 8152 H 872.976 0.373013 0.647202 0
M  V30 8153 H 875.638 1.518 1.22241 0
M  V30 8154 H 874.734 1.47666 2.74957 0
M  V30 8155 N 875.035 -1.20752 1.01276 0
M  V30 8156 C 875.967 -2.22798 0.537917 0
M  V30 8157 C 876.98 -1.5836 -0.377638 0
M  V30 8158 O 878.169 -1.77624 -0.176599 0
M  V30 8159 C 875.269 -3.38068 -0.237364 0
M  V30 8160 C 874.442 -4.32095 0.679161 0
M  V30 8161 C 873.501 -5.26178 -0.0478676 0
M  V30 8162 O 872.527 -5.66305 0.573366 0
M  V30 8163 N 873.729 -5.65201 -1.32396 0
M  V30 8164 H 876.494 -2.64166 1.4155 0
M  V30 8165 H 874.055 -1.35254 0.889826 0
M  V30 8166 H 876.047 -3.98009 -0.73288 0
M  V30 8167 H 874.617 -2.95622 -1.0162 0
M  V30 8168 H 873.837 -3.70179 1.35505 0
M  V30 8169 H 875.125 -4.91842 1.30263 0
M  V30 8170 H 874.523 -5.34606 -1.84968 0
M  V30 8171 H 873.08 -6.27468 -1.76428 0
M  V30 8172 N 876.513 -0.788492 -1.36457 0
M  V30 8173 C 877.738 -0.371224 -2.04051 0
M  V30 8174 C 878.163 1.004 -1.59064 0
M  V30 8175 O 877.521 1.64663 -0.758679 0
M  V30 8176 C 877.569 -0.442275 -3.57877 0
M  V30 8177 O 876.673 0.55113 -4.08701 0
M  V30 8178 H 876.014 -0.157808 -0.644975 0
M  V30 8179 H 878.544 -1.06935 -1.74431 0
M  V30 8180 H 878.554 -0.305548 -4.06854 0
M  V30 8181 H 877.229 -1.44547 -3.89973 0
M  V30 8182 H 875.806 0.37614 -3.70998 0
M  V30 8183 N 877.991 1.48044 -0.54043 0
M  V30 8184 C 879.216 2.07396 -0.0124765 0
M  V30 8185 C 879.641 1.39288 1.26414 0
M  V30 8186 O 878.999 0.462252 1.75308 0
M  V30 8187 C 879.047 3.60131 0.18377 0
M  V30 8188 O 878.151 3.92995 1.25014 0
M  V30 8189 H 877.492 0.662554 -0.0438026 0
M  V30 8190 H 880.022 1.90306 -0.751327 0
M  V30 8191 H 880.032 4.06003 0.403197 0
M  V30 8192 H 878.707 4.09105 -0.74874 0
M  V30 8193 H 877.284 3.5889 1.01254 0
M  V30 8194 N 879.47 0.276058 1.55163 0
M  V30 8195 C 880.718 -0.339782 1.99223 0
M  V30 8196 C 881.039 -1.56307 1.16589 0
M  V30 8197 O 880.309 -1.94225 0.25564 0
M  V30 8198 H 878.889 -0.128534 0.735859 0
M  V30 8199 H 881.551 0.381612 1.91128 0
M  V30 8200 H 880.647 -0.629 3.05696 0
M  V30 8201 N 880.948 -1.576 0.00335426 0
M  V30 8202 C 882.178 -1.94713 -0.690682 0
M  V30 8203 C 882.586 -0.876915 -1.67651 0
M  V30 8204 O 881.929 0.152434 -1.83066 0
M  V30 8205 C 881.991 -3.27833 -1.47532 0
M  V30 8206 C 881.655 -4.52344 -0.650704 0
M  V30 8207 C 882.652 -5.19862 0.0630537 0
M  V30 8208 C 880.337 -4.98755 -0.595687 0
M  V30 8209 C 882.331 -6.32093 0.820779 0
M  V30 8210 C 880.018 -6.10875 0.165761 0
M  V30 8211 C 881.016 -6.77401 0.872724 0
M  V30 8212 O 880.704 -7.87372 1.62174 0
M  V30 8213 H 880.436 -0.646627 -0.197104 0
M  V30 8214 H 882.99 -2.05335 0.0516082 0
M  V30 8215 H 881.22 -3.13628 -2.26217 0
M  V30 8216 H 882.909 -3.50034 -2.05501 0
M  V30 8217 H 883.675 -4.84991 0.0297223 0
M  V30 8218 H 879.554 -4.46797 -1.13549 0
M  V30 8219 H 883.098 -6.83953 1.37312 0
M  V30 8220 H 878.995 -6.45187 0.200901 0
M  V30 8221 H 879.763 -8.03905 1.5388 0
M  V30 8222 N 882.426 0.269451 -1.5528 0
M  V30 8223 C 883.674 0.998604 -1.75705 0
M  V30 8224 C 883.995 1.86691 -0.563175 0
M  V30 8225 O 883.265 1.91305 0.421811 0
M  V30 8226 H 881.845 0.371698 -0.647958 0
M  V30 8227 H 884.507 0.292826 -1.92688 0
M  V30 8228 H 883.603 1.63348 -2.6594 0
M  V30 8229 N 883.904 1.48273 0.534124 0
M  V30 8230 C 884.836 1.5857 1.65494 0
M  V30 8231 C 885.849 0.470266 1.5586 0
M  V30 8232 O 887.038 0.740928 1.62396 0
M  V30 8233 C 884.138 1.49554 3.04117 0
M  V30 8234 C 883.311 2.76066 3.39273 0
M  V30 8235 C 882.37 2.60562 4.57159 0
M  V30 8236 O 881.396 3.34438 4.60587 0
M  V30 8237 N 882.598 1.69906 5.55079 0
M  V30 8238 H 885.363 2.55226 1.57099 0
M  V30 8239 H 882.924 1.44944 0.721303 0
M  V30 8240 H 884.916 1.36882 3.80848 0
M  V30 8241 H 883.486 0.608895 3.06613 0
M  V30 8242 H 882.706 3.03332 2.51761 0
M  V30 8243 H 883.994 3.60006 3.59546 0
M  V30 8244 H 883.392 1.09079 5.55084 0
M  V30 8245 H 881.949 1.63175 6.31044 0
M  V30 8246 N 885.382 -0.782676 1.36792 0
M  V30 8247 C 886.332 -1.8855 1.28191 0
M  V30 8248 C 887.316 -1.59978 0.171984 0
M  V30 8249 O 888.508 -1.72295 0.405405 0
M  V30 8250 C 885.637 -3.25862 1.08021 0
M  V30 8251 C 884.723 -3.60422 2.2351 0
M  V30 8252 N 885.114 -3.66241 3.48857 0
M  V30 8253 C 883.412 -3.90523 2.15424 0
M  V30 8254 C 884.113 -3.97233 4.24948 0
M  V30 8255 N 883.089 -4.12567 3.53963 0
M  V30 8256 H 886.891 -1.91285 2.23131 0
M  V30 8257 H 884.405 -0.978554 1.29607 0
M  V30 8258 H 886.402 -4.04742 0.999458 0
M  V30 8259 H 885.062 -3.24399 0.139882 0
M  V30 8260 H 886.073 -3.48717 3.82906 0
M  V30 8261 H 882.75 -3.96945 1.29386 0
M  V30 8262 H 884.14 -4.08602 5.33379 0
M  V30 8263 N 886.86 -1.21182 -1.00761 0
M  V30 8264 C 888.108 -1.02543 -1.74153 0
M  V30 8265 C 888.429 0.442372 -1.89916 0
M  V30 8266 O 887.699 1.31927 -1.44818 0
M  V30 8267 H 886.279 -0.37644 -0.645214 0
M  V30 8268 H 888.941 -1.52446 -1.21434 0
M  V30 8269 H 888.037 -1.49122 -2.7417 0
M  V30 8270 N 888.338 1.20213 -1.01915 0
M  V30 8271 C 889.563 1.94163 -0.729076 0
M  V30 8272 C 889.988 1.74416 0.704323 0
M  V30 8273 O 889.346 1.0401 1.48498 0
M  V30 8274 C 889.394 3.44258 -1.07324 0
M  V30 8275 O 888.498 4.11979 -0.186367 0
M  V30 8276 H 887.839 0.606506 -0.270272 0
M  V30 8277 H 890.369 1.52571 -1.3632 0
M  V30 8278 H 890.379 3.94888 -1.02603 0
M  V30 8279 H 889.054 3.57954 -2.11759 0
M  V30 8280 H 887.631 3.7176 -0.291334 0
M  V30 8281 N 889.816 0.795718 1.36037 0
M  V30 8282 C 891.041 0.38204 2.03851 0
M  V30 8283 C 891.466 -0.995553 1.59594 0
M  V30 8284 O 890.824 -1.64258 0.767401 0
M  V30 8285 C 890.872 0.461248 3.57638 0
M  V30 8286 O 889.976 -0.529448 4.08987 0
M  V30 8287 H 889.317 0.161227 0.644129 0
M  V30 8288 H 891.847 1.07858 1.73861 0
M  V30 8289 H 891.857 0.32712 4.06687 0
M  V30 8290 H 890.532 1.46613 3.89201 0
M  V30 8291 H 889.109 -0.35646 3.71192 0
M  V30 8292 N 891.294 -1.47756 0.548274 0
M  V30 8293 C 892.519 -2.07387 0.023475 0
M  V30 8294 C 892.944 -1.39956 -1.25674 0
M  V30 8295 O 892.302 -0.471543 -1.7506 0
M  V30 8296 C 892.35 -3.60224 -0.164669 0
M  V30 8297 O 891.454 -3.93653 -1.22928 0
M  V30 8298 H 890.795 -0.662312 0.0473156 0
M  V30 8299 H 893.325 -1.89905 0.761409 0
M  V30 8300 H 893.335 -4.06211 -0.38166 0
M  V30 8301 H 892.01 -4.08702 0.770425 0
M  V30 8302 H 890.587 -3.59422 -0.993495 0
M  V30 8303 N 892.772 -0.284283 -1.55015 0
M  V30 8304 C 894.02 0.329212 -1.99401 0
M  V30 8305 C 894.341 1.55687 -1.17416 0
M  V30 8306 O 893.611 1.94087 -0.265937 0
M  V30 8307 H 892.191 0.12463 -0.73653 0
M  V30 8308 H 894.853 -0.391743 -1.90922 0
M  V30 8309 H 893.949 0.61278 -3.06025 0
M  V30 8310 N 894.251 1.57596 -0.0117121 0
M  V30 8311 C 895.201 2.05641 0.98467 0
M  V30 8312 C 896.185 0.953422 1.2961 0
M  V30 8313 O 897.377 1.21712 1.28512 0
M  V30 8314 C 894.506 2.57285 2.27286 0
M  V30 8315 C 893.592 3.74483 1.99057 0
M  V30 8316 N 893.983 4.85741 1.41029 0
M  V30 8317 C 892.281 3.82637 2.2914 0
M  V30 8318 C 892.982 5.67094 1.29536 0
M  V30 8319 N 891.958 5.13459 1.78497 0
M  V30 8320 H 895.76 2.89069 0.530702 0
M  V30 8321 H 893.274 1.6124 0.193717 0
M  V30 8322 H 895.271 2.89988 2.99521 0
M  V30 8323 H 893.931 1.75281 2.73325 0
M  V30 8324 H 894.942 5.06352 1.08756 0
M  V30 8325 H 891.619 3.11509 2.77972 0
M  V30 8326 H 893.009 6.66525 0.848144 0
M  V30 8327 N 895.729 -0.261212 1.5542 0
M  V30 8328 C 896.954 -1.01341 1.80955 0
M  V30 8329 C 897.379 -1.78711 0.586849 0
M  V30 8330 O 896.737 -1.75266 -0.463837 0
M  V30 8331 C 896.785 -1.93835 3.04073 0
M  V30 8332 O 895.889 -3.02791 2.79985 0
M  V30 8333 H 895.23 -0.289123 0.597749 0
M  V30 8334 H 897.76 -0.286543 2.02584 0
M  V30 8335 H 897.77 -2.3557 3.33123 0
M  V30 8336 H 896.445 -1.36936 3.9271 0
M  V30 8337 H 895.022 -2.65287 2.62063 0
M  V30 8338 N 897.207 -1.48554 -0.526253 0
M  V30 8339 C 898.432 -1.60686 -1.31129 0
M  V30 8340 C 898.857 -0.268701 -1.86171 0
M  V30 8341 O 898.215 0.760167 -1.64594 0
M  V30 8342 C 898.263 -2.65938 -2.43536 0
M  V30 8343 O 897.367 -2.23356 -3.46678 0
M  V30 8344 H 896.708 -0.538691 -0.388211 0
M  V30 8345 H 899.238 -1.94567 -0.632826 0
M  V30 8346 H 899.248 -2.87327 -2.89668 0
M  V30 8347 H 897.923 -3.63085 -2.02835 0
M  V30 8348 H 896.5 -2.12196 -3.06639 0
M  V30 8349 N 898.685 0.775411 -1.37205 0
M  V30 8350 C 899.913 1.56446 -1.35397 0
M  V30 8351 C 900.328 1.887 0.0615437 0
M  V30 8352 O 899.685 1.51178 1.02233 0
M  V30 8353 C 899.736 2.87697 -2.18889 0
M  V30 8354 O 899.457 2.56828 -3.54924 0
M  V30 8355 C 900.958 3.81944 -2.25019 0
M  V30 8356 H 898.178 0.484792 -0.463916 0
M  V30 8357 H 900.722 0.961346 -1.80495 0
M  V30 8358 H 898.877 3.44442 -1.7731 0
M  V30 8359 H 899.291 3.40851 -3.98649 0
M  V30 8360 H 900.765 4.71055 -2.87769 0
M  V30 8361 H 901.242 4.20811 -1.25757 0
M  V30 8362 H 901.848 3.3113 -2.66895 0
M  V30 8363 N 900.163 1.21714 1.00117 0
M  V30 8364 C 901.113 0.947259 2.07391 0
M  V30 8365 C 902.097 -0.0989662 1.60595 0
M  V30 8366 O 903.289 0.11047 1.76655 0
M  V30 8367 C 900.418 0.517954 3.3937 0
M  V30 8368 C 899.504 1.59846 3.92823 0
M  V30 8369 N 899.895 2.82438 4.19598 0
M  V30 8370 C 898.193 1.46822 4.2114 0
M  V30 8371 C 898.894 3.52247 4.62922 0
M  V30 8372 N 897.87 2.79696 4.66124 0
M  V30 8373 H 901.672 1.8786 2.26022 0
M  V30 8374 H 899.186 1.11344 1.18221 0
M  V30 8375 H 901.183 0.305951 4.15776 0
M  V30 8376 H 899.843 -0.40658 3.22144 0
M  V30 8377 H 900.854 3.18944 4.08038 0
M  V30 8378 H 897.531 0.609259 4.13031 0
M  V30 8379 H 898.921 4.57232 4.9233 0
M  V30 8380 N 901.641 -1.19671 1.02551 0
M  V30 8381 C 902.889 -1.88894 0.71858 0
M  V30 8382 C 903.21 -1.79797 -0.754856 0
M  V30 8383 O 902.48 -1.20621 -1.54362 0
M  V30 8384 H 901.06 -0.699244 0.262806 0
M  V30 8385 H 903.722 -1.45298 1.29902 0
M  V30 8386 H 902.818 -2.95309 1.00989 0
M  V30 8387 N 903.119 -0.802921 -1.35613 0
M  V30 8388 C 904.051 -0.168461 -2.2858 0
M  V30 8389 C 905.064 0.630123 -1.50111 0
M  V30 8390 O 906.253 0.463086 -1.72388 0
M  V30 8391 C 903.353 0.783943 -3.29708 0
M  V30 8392 C 902.526 0.0325165 -4.37388 0
M  V30 8393 C 901.585 0.902859 -5.18396 0
M  V30 8394 O 900.611 0.355144 -5.68091 0
M  V30 8395 N 901.813 2.22542 -5.36149 0
M  V30 8396 H 904.578 -0.96709 -2.83668 0
M  V30 8397 H 902.139 -0.658043 -1.47924 0
M  V30 8398 H 904.131 1.37034 -3.80794 0
M  V30 8399 H 902.701 1.48339 -2.75162 0
M  V30 8400 H 901.921 -0.735057 -3.87286 0
M  V30 8401 H 903.209 -0.485499 -5.06478 0
M  V30 8402 H 902.607 2.69439 -4.97412 0
M  V30 8403 H 901.164 2.76113 -5.90428 0
M  V30 8404 N 904.597 1.47463 -0.556102 0
M  V30 8405 C 905.547 2.27007 0.212592 0
M  V30 8406 C 906.531 1.34288 0.886312 0
M  V30 8407 O 907.723 1.5865 0.784801 0
M  V30 8408 C 904.852 3.20021 1.24263 0
M  V30 8409 C 903.938 4.2022 0.572385 0
M  V30 8410 N 904.329 5.04539 -0.35691 0
M  V30 8411 C 902.627 4.38276 0.826441 0
M  V30 8412 C 903.328 5.76895 -0.746134 0
M  V30 8413 N 902.304 5.43506 -0.101225 0
M  V30 8414 H 906.106 2.89582 -0.501925 0
M  V30 8415 H 903.62 1.57988 -0.375961 0
M  V30 8416 H 905.617 3.7569 1.80728 0
M  V30 8417 H 904.277 2.59003 1.95826 0
M  V30 8418 H 905.288 5.12715 -0.731012 0
M  V30 8419 H 901.965 3.88429 1.53066 0
M  V30 8420 H 903.355 6.5472 -1.50967 0
M  V30 8421 N 906.075 0.2925 1.54862 0
M  V30 8422 C 907.323 -0.318633 1.99572 0
M  V30 8423 C 907.644 -1.55062 1.1824 0
M  V30 8424 O 906.914 -1.93943 0.276226 0
M  V30 8425 H 905.494 -0.120722 0.737181 0
M  V30 8426 H 908.156 0.401862 1.90712 0
M  V30 8427 H 907.252 -0.596542 3.06346 0
M  V30 8428 N 907.553 -1.57587 0.0200696 0
M  V30 8429 C 908.778 -1.96124 -0.674547 0
M  V30 8430 C 909.203 -0.896068 -1.65385 0
M  V30 8431 O 908.561 0.143925 -1.80728 0
M  V30 8432 C 908.609 -3.3376 -1.36517 0
M  V30 8433 O 907.713 -3.29483 -2.48022 0
M  V30 8434 H 907.054 -0.639719 -0.177919 0
M  V30 8435 H 909.584 -2.04447 0.0792317 0
M  V30 8436 H 909.594 -3.69785 -1.72403 0
M  V30 8437 H 908.269 -4.10832 -0.647265 0
M  V30 8438 H 906.846 -3.05162 -2.14314 0
M  V30 8439 N 909.032 0.252966 -1.55557 0
M  V30 8440 C 910.26 0.999565 -1.81153 0
M  V30 8441 C 910.675 1.79181 -0.594955 0
M  V30 8442 O 910.032 1.77208 0.436311 0
M  V30 8443 C 910.083 1.94227 -3.04891 0
M  V30 8444 O 909.804 1.18209 -4.21851 0
M  V30 8445 C 911.305 2.80536 -3.43241 0
M  V30 8446 H 908.525 0.294402 -0.602966 0
M  V30 8447 H 911.069 0.277686 -2.02606 0
M  V30 8448 H 909.224 2.6185 -2.85505 0
M  V30 8449 H 909.638 1.81922 -4.9194 0
M  V30 8450 H 911.112 3.42442 -4.32941 0
M  V30 8451 H 911.589 3.51337 -2.6355 0
M  V30 8452 H 912.195 2.18373 -3.64956 0
M  V30 8453 N 910.51 1.48831 0.518367 0
M  V30 8454 C 911.735 1.61379 1.30275 0
M  V30 8455 C 912.16 0.278571 1.86026 0
M  V30 8456 O 911.518 -0.751427 1.64995 0
M  V30 8457 C 911.566 2.67225 2.42122 0
M  V30 8458 O 910.67 2.25192 3.45489 0
M  V30 8459 H 910.011 0.540742 0.385349 0
M  V30 8460 H 912.541 1.949 0.622498 0
M  V30 8461 H 912.551 2.88859 2.8814 0
M  V30 8462 H 911.226 3.64155 2.00907 0
M  V30 8463 H 909.803 2.13819 3.05509 0
M  V30 8464 N 911.988 -0.768124 1.37614 0
M  V30 8465 C 913.236 -1.52379 1.3276 0
M  V30 8466 C 913.557 -1.94809 -0.0863564 0
M  V30 8467 O 912.827 -1.66568 -1.03112 0
M  V30 8468 H 911.407 -0.565179 0.488448 0
M  V30 8469 H 914.069 -0.913974 1.72141 0
M  V30 8470 H 913.165 -2.4215 1.96901 0
M  V30 8471 N 913.466 -1.22244 -0.994698 0
M  V30 8472 C 914.398 -0.948706 -2.08644 0
M  V30 8473 C 915.411 0.0720049 -1.62641 0
M  V30 8474 O 916.6 -0.161778 -1.77765 0
M  V30 8475 C 913.7 -0.404885 -3.36473 0
M  V30 8476 C 912.873 -1.48239 -4.11514 0
M  V30 8477 C 911.932 -0.94597 -5.17627 0
M  V30 8478 O 910.958 -1.63177 -5.45309 0
M  V30 8479 N 912.16 0.23355 -5.8003 0
M  V30 8480 H 914.925 -1.88858 -2.32707 0
M  V30 8481 H 912.486 -1.12908 -1.16032 0
M  V30 8482 H 914.478 -0.0313903 -4.04688 0
M  V30 8483 H 913.048 0.440061 -3.09487 0
M  V30 8484 H 912.268 -2.02928 -3.37955 0
M  V30 8485 H 913.556 -2.20741 -4.58422 0
M  V30 8486 H 912.954 0.80756 -5.59906 0
M  V30 8487 H 911.511 0.54845 -6.49488 0
M  V30 8488 N 914.944 1.19125 -1.03184 0
M  V30 8489 C 916.169 1.93379 -0.749628 0
M  V30 8490 C 916.594 1.75153 0.685785 0
M  V30 8491 O 915.952 1.05579 1.47386 0
M  V30 8492 C 916 3.43101 -1.1097 0
M  V30 8493 O 915.104 4.11758 -0.230053 0
M  V30 8494 H 914.445 0.603605 -0.276689 0
M  V30 8495 H 916.975 1.51116 -1.37931 0
M  V30 8496 H 916.985 3.93778 -1.06785 0
M  V30 8497 H 915.66 3.55688 -2.15544 0
M  V30 8498 H 914.237 3.7143 -0.330748 0
M  V30 8499 N 916.422 0.810101 1.35185 0
M  V30 8500 C 917.647 0.40364 2.03434 0
M  V30 8501 C 918.072 -0.97857 1.60641 0
M  V30 8502 O 917.43 -1.63435 0.784779 0
M  V30 8503 C 917.478 0.499154 3.57129 0
M  V30 8504 O 916.582 -0.486039 4.09526 0
M  V30 8505 H 915.923 0.168049 0.642383 0
M  V30 8506 H 918.453 1.09696 1.72708 0
M  V30 8507 H 918.463 0.370236 4.06317 0
M  V30 8508 H 917.138 1.50733 3.87624 0
M  V30 8509 H 915.715 -0.31707 3.7155 0
M  V30 8510 N 917.9 -1.47166 0.563914 0
M  V30 8511 C 919.125 -2.0735 0.0454698 0
M  V30 8512 C 919.55 -1.41281 -1.24182 0
M  V30 8513 O 918.908 -0.490084 -1.7455 0
M  V30 8514 C 918.956 -3.60378 -0.126453 0
M  V30 8515 O 918.06 -3.94934 -1.18746 0
M  V30 8516 H 917.401 -0.661773 0.0543377 0
M  V30 8517 H 919.931 -1.89086 0.781508 0
M  V30 8518 H 919.941 -4.06593 -0.338554 0
M  V30 8519 H 918.616 -4.07862 0.81373 0
M  V30 8520 H 917.193 -3.60455 -0.955318 0
M  V30 8521 N 919.378 -0.300708 -1.54705 0
M  V30 8522 C 920.618 0.30953 -2.02043 0
M  V30 8523 C 920.982 1.51114 -1.18442 0
M  V30 8524 O 922.183 2.19273 -1.55477 0
M  V30 8525 C 920.454 0.657489 -3.513 0
M  V30 8526 S 922.013 1.25063 -4.206 0
M  V30 8527 H 918.831 0.0950019 -0.704624 0
M  V30 8528 H 921.433 -0.428512 -1.90746 0
M  V30 8529 H 920.137 -0.225532 -4.0978 0
M  V30 8530 H 919.668 1.42633 -3.66633 0
M  V30 8531 H 921.683 2.53844 -4.26354 0
M  V30 8532 N 920.856 1.57574 -0.0284266 0
M  V30 8533 C 922.104 1.91393 0.649079 0
M  V30 8534 C 922.425 0.905368 1.72708 0
M  V30 8535 O 921.695 -0.0532107 1.95828 0
M  V30 8536 H 920.275 0.70646 0.24274 0
M  V30 8537 H 922.937 1.94752 -0.076066 0
M  V30 8538 H 922.033 2.91988 1.10226 0
M  V30 8539 N 922.334 -0.244713 1.55689 0
M  V30 8540 C 923.266 -1.32595 1.86952 0
M  V30 8541 C 924.279 -1.44185 0.755948 0
M  V30 8542 O 925.468 -1.45496 1.03408 0
M  V30 8543 C 922.568 -2.70429 2.04258 0
M  V30 8544 C 921.741 -2.8108 3.35131 0
M  V30 8545 C 920.8 -3.99773 3.42152 0
M  V30 8546 O 919.826 -3.89197 4.15348 0
M  V30 8547 N 921.028 -5.13041 2.71604 0
M  V30 8548 H 923.793 -1.06111 2.80287 0
M  V30 8549 H 921.354 -0.434811 1.55952 0
M  V30 8550 H 923.346 -3.48173 2.06295 0
M  V30 8551 H 921.916 -2.89612 1.17658 0
M  V30 8552 H 921.136 -1.89994 3.45392 0
M  V30 8553 H 922.424 -2.85147 4.21389 0
M  V30 8554 H 921.822 -5.24525 2.11872 0
M  V30 8555 H 920.379 -5.88912 2.79331 0
M  V30 8556 N 923.813 -1.49104 -0.510467 0
M  V30 8557 C 924.763 -1.6147 -1.6097 0
M  V30 8558 C 925.747 -0.470797 -1.53858 0
M  V30 8559 O 926.939 -0.723266 -1.61548 0
M  V30 8560 C 924.068 -1.67575 -2.99622 0
M  V30 8561 C 923.154 -2.87511 -3.11766 0
M  V30 8562 N 923.545 -4.11704 -2.93826 0
M  V30 8563 C 921.843 -2.85251 -3.42852 0
M  V30 8564 C 922.544 -4.92276 -3.09902 0
M  V30 8565 N 921.52 -4.2546 -3.38355 0
M  V30 8566 H 925.322 -2.5522 -1.45739 0
M  V30 8567 H 922.836 -1.45745 -0.716383 0
M  V30 8568 H 924.833 -1.74531 -3.78609 0
M  V30 8569 H 923.493 -0.749557 -3.1593 0
M  V30 8570 H 924.504 -4.41834 -2.70191 0
M  V30 8571 H 921.181 -2.0197 -3.65396 0
M  V30 8572 H 922.571 -6.00905 -3.00604 0
M  V30 8573 N 925.291 0.760815 -1.38019 0
M  V30 8574 C 926.539 1.51673 -1.33566 0
M  V30 8575 C 926.86 1.94852 0.076024 0
M  V30 8576 O 926.13 1.67112 1.02227 0
M  V30 8577 H 924.71 0.562581 -0.491438 0
M  V30 8578 H 927.372 0.904832 -1.72623 0
M  V30 8579 H 926.468 2.41102 -1.98182 0
M  V30 8580 N 926.769 1.22769 0.988202 0
M  V30 8581 C 927.732 1.00325 2.06076 0
M  V30 8582 C 928.732 -0.0320618 1.60768 0
M  V30 8583 O 929.922 0.206912 1.72967 0
M  V30 8584 C 927.054 0.516376 3.36966 0
M  V30 8585 H 928.247 1.95499 2.27421 0
M  V30 8586 H 925.8 1.04704 1.16047 0
M  V30 8587 H 926.535 -0.439498 3.21308 0
M  V30 8588 H 926.32 1.26337 3.71189 0
M  V30 8589 H 927.81 0.37974 4.1587 0
M  V30 8590 N 928.247 -1.18576 1.03814 0
M  V30 8591 C 929.475 -1.92437 0.759966 0
M  V30 8592 C 929.89 -1.76031 -0.682526 0
M  V30 8593 O 929.247 -1.08829 -1.46501 0
M  V30 8594 C 929.298 -3.43923 1.11351 0
M  V30 8595 O 929.019 -3.5981 2.49937 0
M  V30 8596 C 930.52 -4.34888 0.859472 0
M  V30 8597 H 927.74 -0.610998 0.277349 0
M  V30 8598 H 930.284 -1.50448 1.38512 0
M  V30 8599 H 928.439 -3.83711 0.533362 0
M  V30 8600 H 928.853 -4.53569 2.63393 0
M  V30 8601 H 930.327 -5.39744 1.15672 0
M  V30 8602 H 930.804 -4.38717 -0.205839 0
M  V30 8603 H 931.41 -4.00795 1.42279 0
M  V30 8604 N 929.725 -0.817259 -1.34754 0
M  V30 8605 C 930.95 -0.414423 -2.03217 0
M  V30 8606 C 931.375 0.970037 -1.61158 0
M  V30 8607 O 930.733 1.63016 -0.793436 0
M  V30 8608 C 930.781 -0.518087 -3.56859 0
M  V30 8609 O 929.885 0.464314 -4.09778 0
M  V30 8610 H 929.226 -0.171454 -0.641482 0
M  V30 8611 H 931.756 -1.10611 -1.72123 0
M  V30 8612 H 931.766 -0.391779 -4.06115 0
M  V30 8613 H 930.441 -1.52786 -3.86819 0
M  V30 8614 H 929.018 0.297361 -3.71712 0
M  V30 8615 N 931.203 1.46865 -0.571711 0
M  V30 8616 C 932.451 2.0203 -0.0530022 0
M  V30 8617 C 932.772 1.44687 1.30731 0
M  V30 8618 O 932.042 0.627429 1.85581 0
M  V30 8619 H 930.622 0.746815 -0.0166035 0
M  V30 8620 H 933.284 1.80099 -0.745003 0
M  V30 8621 H 932.38 3.12091 0.0242538 0
M  V30 8622 N 932.681 0.308908 1.54543 0
M  V30 8623 C 933.613 -0.597453 2.21276 0
M  V30 8624 C 934.626 -1.09137 1.20801 0
M  V30 8625 O 935.815 -1.00747 1.47351 0
M  V30 8626 C 932.915 -1.83085 2.85189 0
M  V30 8627 C 932.088 -1.4781 4.11669 0
M  V30 8628 C 931.147 -2.56748 4.59311 0
M  V30 8629 O 930.173 -2.21507 5.24331 0
M  V30 8630 N 931.375 -3.87427 4.32297 0
M  V30 8631 H 934.14 -0.0261183 2.99689 0
M  V30 8632 H 931.701 0.131456 1.61365 0
M  V30 8633 H 933.693 -2.55326 3.13992 0
M  V30 8634 H 932.263 -2.31039 2.1057 0
M  V30 8635 H 931.483 -0.587974 3.8979 0
M  V30 8636 H 932.771 -1.2179 4.94009 0
M  V30 8637 H 932.169 -4.18863 3.80224 0
M  V30 8638 H 930.726 -4.55942 4.6579 0
M  V30 8639 N 934.159 -1.57557 0.0367827 0
M  V30 8640 C 935.384 -1.96828 -0.653707 0
M  V30 8641 C 935.809 -0.913559 -1.64425 0
M  V30 8642 O 935.167 0.124749 -1.8087 0
M  V30 8643 C 935.215 -3.35189 -1.32969 0
M  V30 8644 O 934.319 -3.32095 -2.44513 0
M  V30 8645 H 933.66 -0.64157 -0.171124 0
M  V30 8646 H 936.19 -2.04351 0.100912 0
M  V30 8647 H 936.2 -3.71593 -1.68472 0
M  V30 8648 H 934.875 -4.11496 -0.603654 0
M  V30 8649 H 933.452 -3.07418 -2.11065 0
M  V30 8650 N 935.637 0.236453 -1.55816 0
M  V30 8651 C 936.862 0.98449 -1.82545 0
M  V30 8652 C 937.287 1.77755 -0.615206 0
M  V30 8653 O 936.645 1.75982 0.435895 0
M  V30 8654 C 936.693 1.88973 -3.07118 0
M  V30 8655 O 935.797 2.98298 -2.84766 0
M  V30 8656 H 935.138 0.279577 -0.602273 0
M  V30 8657 H 937.668 0.254277 -2.03014 0
M  V30 8658 H 937.678 2.3024 -3.36829 0
M  V30 8659 H 936.353 1.30671 -3.94839 0
M  V30 8660 H 934.93 2.61085 -2.6625 0
M  V30 8661 N 937.115 1.49373 0.502552 0
M  V30 8662 C 938.34 1.62752 1.28556 0
M  V30 8663 C 938.765 0.298285 1.8572 0
M  V30 8664 O 938.123 -0.733885 1.65782 0
M  V30 8665 C 938.171 2.69778 2.39274 0
M  V30 8666 O 937.275 2.28843 3.43081 0
M  V30 8667 H 936.616 0.544799 0.379592 0
M  V30 8668 H 939.146 1.9555 0.601792 0
M  V30 8669 H 939.156 2.91899 2.8506 0
M  V30 8670 H 937.831 3.66266 1.97033 0
M  V30 8671 H 936.408 2.17047 3.03224 0
M  V30 8672 N 938.594 -0.753485 1.38421 0
M  V30 8673 C 939.544 -1.85788 1.32162 0
M  V30 8674 C 940.528 -1.59577 0.20588 0
M  V30 8675 O 941.72 -1.71396 0.44186 0
M  V30 8676 C 938.849 -3.23498 1.14909 0
M  V30 8677 C 937.935 -3.556 2.31105 0
M  V30 8678 N 938.326 -3.58759 3.56547 0
M  V30 8679 C 936.624 -3.85866 2.23659 0
M  V30 8680 C 937.325 -3.8813 4.33278 0
M  V30 8681 N 936.301 -4.04966 3.62635 0
M  V30 8682 H 940.103 -1.86509 2.27138 0
M  V30 8683 H 937.617 -0.950843 1.31654 0
M  V30 8684 H 939.614 -4.02531 1.08509 0
M  V30 8685 H 938.274 -3.24029 0.20866 0
M  V30 8686 H 939.285 -3.40517 3.90216 0
M  V30 8687 H 935.962 -3.94112 1.37776 0
M  V30 8688 H 937.352 -3.97197 5.41926 0
M  V30 8689 N 940.072 -1.23292 -0.981677 0
M  V30 8690 C 941.32 -1.06214 -1.71939 0
M  V30 8691 C 941.641 0.401989 -1.90812 0
M  V30 8692 O 940.911 1.28825 -1.47584 0
M  V30 8693 H 939.491 -0.390042 -0.637084 0
M  V30 8694 H 942.153 -1.54988 -1.18173 0
M  V30 8695 H 941.249 -1.54904 -2.70945 0
M  V30 8696 N 941.55 1.18024 -1.04442 0
M  V30 8697 C 942.482 2.21294 -0.596799 0
M  V30 8698 C 943.495 1.59305 0.33552 0
M  V30 8699 O 944.684 1.7803 0.129443 0
M  V30 8700 C 941.784 3.38578 0.147648 0
M  V30 8701 C 940.957 4.30143 -0.793484 0
M  V30 8702 C 940.016 5.2612 -0.0916561 0
M  V30 8703 O 939.042 5.64586 -0.72331 0
M  V30 8704 N 940.244 5.68512 1.17364 0
M  V30 8705 H 943.009 2.6032 -1.48504 0
M  V30 8706 H 940.57 1.32847 -0.925374 0
M  V30 8707 H 942.562 3.99812 0.627098 0
M  V30 8708 H 941.132 2.98212 0.937466 0
M  V30 8709 H 940.352 3.66456 -1.45272 0
M  V30 8710 H 941.64 4.88216 -1.43258 0
M  V30 8711 H 941.038 5.39322 1.70729 0
M  V30 8712 H 939.595 6.31925 1.5973 0
M  V30 8713 N 943.028 0.824394 1.34319 0
M  V30 8714 C 943.978 0.219624 2.2694 0
M  V30 8715 C 944.962 -0.616964 1.48601 0
M  V30 8716 O 946.154 -0.471303 1.7061 0
M  V30 8717 C 943.283 -0.616379 3.37721 0
M  V30 8718 C 942.369 0.230917 4.23471 0
M  V30 8719 N 942.76 1.30264 4.88738 0
M  V30 8720 C 941.058 0.0155016 4.45997 0
M  V30 8721 C 941.759 1.82141 5.52449 0
M  V30 8722 N 940.735 1.12508 5.3183 0
M  V30 8723 H 944.537 1.03939 2.74907 0
M  V30 8724 H 942.051 0.667353 1.48055 0
M  V30 8725 H 944.048 -1.06582 4.03046 0
M  V30 8726 H 942.708 -1.43429 2.91304 0
M  V30 8727 H 943.719 1.68545 4.89707 0
M  V30 8728 H 940.396 -0.770128 4.10336 0
M  V30 8729 H 941.786 2.7181 6.14466 0
M  V30 8730 N 944.506 -1.46559 0.579492 0
M  V30 8731 C 945.754 -2.02 0.0637157 0
M  V30 8732 C 946.075 -1.45378 -1.29962 0
M  V30 8733 O 945.345 -0.637262 -1.85245 0
M  V30 8734 H 943.925 -0.746717 0.0205638 0
M  V30 8735 H 946.587 -1.79702 0.754544 0
M  V30 8736 H 945.683 -3.12099 -0.00770254 0
M  V30 8737 N 945.984 -0.3171 -1.54377 0
M  V30 8738 C 947.209 0.292311 -2.0533 0
M  V30 8739 C 947.634 1.45503 -1.19207 0
M  V30 8740 O 946.992 1.80197 -0.199721 0
M  V30 8741 C 947.04 0.710787 -3.53525 0
M  V30 8742 O 946.144 1.81387 -3.70368 0
M  V30 8743 H 945.485 0.0539976 -0.661801 0
M  V30 8744 H 948.015 -0.463629 -1.99278 0
M  V30 8745 H 948.025 0.995216 -3.95676 0
M  V30 8746 H 946.7 -0.139668 -4.15665 0
M  V30 8747 H 945.277 1.52875 -3.40123 0
M  V30 8748 N 947.462 1.57535 -0.0451378 0
M  V30 8749 C 948.71 1.92071 0.628743 0
M  V30 8750 C 949.031 0.923635 1.71738 0
M  V30 8751 O 948.301 -0.0324376 1.95873 0
M  V30 8752 H 946.881 0.708995 0.235233 0
M  V30 8753 H 949.543 1.9466 -0.0967177 0
M  V30 8754 H 948.639 2.9314 1.07123 0
M  V30 8755 N 948.94 -0.228186 1.55939 0
M  V30 8756 C 950.165 -0.974795 1.83064 0
M  V30 8757 C 950.59 -1.77426 0.624624 0
M  V30 8758 O 949.948 -1.76211 -0.426556 0
M  V30 8759 C 949.996 -1.87342 3.08116 0
M  V30 8760 O 949.1 -2.96784 2.86344 0
M  V30 8761 H 948.441 -0.276379 0.603747 0
M  V30 8762 H 950.971 -0.243507 2.03146 0
M  V30 8763 H 950.981 -2.28451 3.38045 0
M  V30 8764 H 949.656 -1.28575 3.95526 0
M  V30 8765 H 948.233 -2.59669 2.67631 0
M  V30 8766 N 950.418 -1.49637 -0.494624 0
M  V30 8767 C 951.643 -1.63431 -1.27691 0
M  V30 8768 C 952.068 -0.30813 -1.85559 0
M  V30 8769 O 951.426 0.725083 -1.66169 0
M  V30 8770 C 951.474 -2.71043 -2.3784 0
M  V30 8771 O 950.578 -2.3066 -3.41862 0
M  V30 8772 H 949.919 -0.546804 -0.376698 0
M  V30 8773 H 952.449 -1.95866 -0.591413 0
M  V30 8774 H 952.459 -2.93406 -2.83508 0
M  V30 8775 H 951.134 -3.67306 -1.95088 0
M  V30 8776 H 949.711 -2.18652 -3.02069 0
M  V30 8777 N 951.896 0.746133 -1.38819 0
M  V30 8778 C 952.828 1.86991 -1.3254 0
M  V30 8779 C 953.841 1.61077 -0.236216 0
M  V30 8780 O 955.03 1.71518 -0.494341 0
M  V30 8781 C 952.13 3.22786 -1.03258 0
M  V30 8782 C 951.303 3.76145 -2.23234 0
M  V30 8783 C 950.362 4.90474 -1.90581 0
M  V30 8784 O 949.388 5.04717 -2.63153 0
M  V30 8785 N 950.59 5.74015 -0.86525 0
M  V30 8786 H 953.355 1.92885 -2.2938 0
M  V30 8787 H 950.916 0.926392 -1.32776 0
M  V30 8788 H 952.908 3.96824 -0.794533 0
M  V30 8789 H 951.478 3.12231 -0.151895 0
M  V30 8790 H 950.698 2.93587 -2.63059 0
M  V30 8791 H 951.986 4.08528 -3.03285 0
M  V30 8792 H 951.384 5.65086 -0.263577 0
M  V30 8793 H 949.941 6.48168 -0.687087 0
M  V30 8794 N 953.375 1.23811 0.975125 0
M  V30 8795 C 954.6 1.10109 1.75757 0
M  V30 8796 C 955.025 -0.342922 1.84948 0
M  V30 8797 O 954.383 -1.24814 1.31496 0
M  V30 8798 C 954.431 1.73724 3.15994 0
M  V30 8799 O 953.535 1.00297 4.00018 0
M  V30 8800 H 952.876 0.385627 0.540544 0
M  V30 8801 H 955.406 1.63971 1.22372 0
M  V30 8802 H 955.416 1.79178 3.6655 0
M  V30 8803 H 954.091 2.78794 3.0862 0
M  V30 8804 H 952.668 1.02575 3.58515 0
M  V30 8805 N 954.853 -1.17469 1.05066 0
M  V30 8806 C 956.078 -1.92162 0.780298 0
M  V30 8807 C 956.503 -1.76222 -0.657832 0
M  V30 8808 O 955.861 -1.0791 -1.45688 0
M  V30 8809 C 955.909 -3.41292 1.16414 0
M  V30 8810 O 955.013 -4.1134 0.295531 0
M  V30 8811 H 954.354 -0.599127 0.286257 0
M  V30 8812 H 956.884 -1.48903 1.40318 0
M  V30 8813 H 956.894 -3.92029 1.13036 0
M  V30 8814 H 955.569 -3.52214 2.21175 0
M  V30 8815 H 954.146 -3.70857 0.389797 0
M  V30 8816 N 956.331 -0.831506 -1.3388 0
M  V30 8817 C 957.747 -0.518349 -1.50948 0
M  V30 8818 C 957.947 0.955807 -1.77388 0
M  V30 8819 O 957.003 1.73993 -1.82983 0
M  V30 8820 C 958.316 -1.38531 -2.66889 0
M  V30 8821 C 959.864 -1.38332 -2.80772 0
M  V30 8822 C 960.339 -2.23497 -3.99766 0
M  V30 8823 N 961.83 -2.21167 -4.06988 0
M  V30 8824 C 962.565 -2.83805 -4.98239 0
M  V30 8825 N 962.061 -3.55468 -5.94655 0
M  V30 8826 N 963.854 -2.73314 -4.91178 0
M  V30 8827 H 956.005 -1.78588 -1.14978 0
M  V30 8828 H 958.268 -0.761508 -0.564633 0
M  V30 8829 H 957.974 -2.43255 -2.54007 0
M  V30 8830 H 957.848 -1.05611 -3.62114 0
M  V30 8831 H 960.235 -0.343832 -2.9309 0
M  V30 8832 H 960.316 -1.75256 -1.86331 0
M  V30 8833 H 959.96 -3.27501 -3.88208 0
M  V30 8834 H 959.89 -1.83919 -4.93438 0
M  V30 8835 H 962.381 -1.69046 -3.37982 0
M  V30 8836 H 962.694 -4.00487 -6.60931 0
M  V30 8837 H 961.039 -3.59575 -5.94753 0
M  V30 8838 H 964.23 -2.16897 -4.14817 0
M  V30 8839 H 964.403 -3.22416 -5.62096 0
M  V30 8840 N 957.809 1.4625 -0.587256 0
M  V30 8841 C 959.039 2.06444 -0.0802135 0
M  V30 8842 C 959.447 1.43585 1.23207 0
M  V30 8843 O 958.79 0.536956 1.75677 0
M  V30 8844 C 958.852 3.59165 0.155129 0
M  V30 8845 C 958.516 4.44243 -1.07225 0
M  V30 8846 C 959.513 4.80497 -1.98542 0
M  V30 8847 C 957.198 4.8531 -1.29537 0
M  V30 8848 C 959.192 5.56649 -3.10516 0
M  V30 8849 C 956.879 5.61221 -2.41815 0
M  V30 8850 C 957.877 5.96805 -3.32134 0
M  V30 8851 O 957.565 6.71181 -4.42461 0
M  V30 8852 H 957.297 0.673626 -0.0566063 0
M  V30 8853 H 959.851 1.88797 -0.809004 0
M  V30 8854 H 958.081 3.75137 0.938583 0
M  V30 8855 H 959.77 4.01271 0.611243 0
M  V30 8856 H 960.536 4.49345 -1.82522 0
M  V30 8857 H 956.415 4.5706 -0.601431 0
M  V30 8858 H 959.959 5.84343 -3.81037 0
M  V30 8859 H 955.856 5.91786 -2.57797 0
M  V30 8860 H 956.624 6.8961 -4.40886 0
M  V30 8861 N 959.287 0.325282 1.54207 0
M  V30 8862 C 960.535 -0.276229 2.00203 0
M  V30 8863 C 960.856 -1.52519 1.21503 0
M  V30 8864 O 960.126 -1.93313 0.317302 0
M  V30 8865 H 958.706 -0.105059 0.739575 0
M  V30 8866 H 961.368 0.442225 1.89817 0
M  V30 8867 H 960.464 -0.531427 3.07542 0
M  V30 8868 N 960.765 -1.57509 0.0534917 0
M  V30 8869 C 961.697 -2.08616 -0.949322 0
M  V30 8870 C 962.71 -1.01446 -1.27328 0
M  V30 8871 O 963.899 -1.29007 -1.23367 0
M  V30 8872 C 960.999 -2.51622 -2.27024 0
M  V30 8873 C 960.172 -3.82154 -2.12785 0
M  V30 8874 C 959.231 -4.11448 -3.2802 0
M  V30 8875 O 958.257 -4.81333 -3.03822 0
M  V30 8876 N 959.459 -3.63543 -4.52567 0
M  V30 8877 H 962.224 -2.95275 -0.5131 0
M  V30 8878 H 959.785 -1.61355 -0.132693 0
M  V30 8879 H 961.777 -2.68293 -3.02986 0
M  V30 8880 H 960.347 -1.70198 -2.62205 0
M  V30 8881 H 959.567 -3.75041 -1.21399 0
M  V30 8882 H 960.855 -4.67629 -2.00501 0
M  V30 8883 H 960.253 -3.07051 -4.75117 0
M  V30 8884 H 958.81 -3.85448 -5.25617 0
M  V30 8885 N 962.243 0.219913 -1.56058 0
M  V30 8886 C 963.175 1.29604 -1.89038 0
M  V30 8887 C 964.188 1.42964 -0.778791 0
M  V30 8888 O 965.377 1.43832 -1.0571 0
M  V30 8889 C 962.477 2.67145 -2.08534 0
M  V30 8890 C 961.65 2.75712 -3.39561 0
M  V30 8891 C 960.709 3.94279 -3.48469 0
M  V30 8892 O 959.735 3.8254 -4.21487 0
M  V30 8893 N 960.937 5.08655 -2.79732 0
M  V30 8894 H 963.702 1.01638 -2.81939 0
M  V30 8895 H 961.263 0.409945 -1.56624 0
M  V30 8896 H 963.255 3.44847 -2.11808 0
M  V30 8897 H 961.825 2.87704 -1.2225 0
M  V30 8898 H 961.045 1.84475 -3.48371 0
M  V30 8899 H 962.333 2.78407 -4.25872 0
M  V30 8900 H 961.731 5.21088 -2.2019 0
M  V30 8901 H 960.288 5.84394 -2.88665 0
M  V30 8902 N 963.721 1.49897 0.486681 0
M  V30 8903 C 964.969 1.59789 1.23742 0
M  V30 8904 C 965.29 0.293056 1.92785 0
M  V30 8905 O 964.56 -0.688534 1.83401 0
M  V30 8906 H 963.14 0.588775 0.459731 0
M  V30 8907 H 965.802 1.86597 0.562808 0
M  V30 8908 H 964.898 2.40121 1.9937 0
M  V30 8909 N 965.199 -0.738761 1.39212 0
M  V30 8910 C 966.424 -1.5331 1.39681 0
M  V30 8911 C 966.849 -1.88098 -0.00768715 0
M  V30 8912 O 966.207 -1.51642 -0.993699 0
M  V30 8913 C 966.255 -2.79958 2.27279 0
M  V30 8914 O 965.359 -3.75727 1.70008 0
M  V30 8915 H 964.7 -0.463131 0.475821 0
M  V30 8916 H 967.23 -0.911768 1.83161 0
M  V30 8917 H 967.24 -3.28732 2.41659 0
M  V30 8918 H 965.915 -2.5397 3.29351 0
M  V30 8919 H 964.492 -3.34483 1.64851 0
M  V30 8920 N 966.677 -1.24326 -0.968545 0
M  V30 8921 C 967.925 -1.08032 -1.70803 0
M  V30 8922 C 968.246 0.381728 -1.91227 0
M  V30 8923 O 967.516 1.27253 -1.48942 0
M  V30 8924 H 966.096 -0.396777 -0.632912 0
M  V30 8925 H 968.758 -1.56232 -1.16523 0
M  V30 8926 H 967.854 -1.57769 -2.69287 0
M  V30 8927 N 968.156 1.1691 -1.05688 0
M  V30 8928 C 969.381 1.91745 -0.790478 0
M  V30 8929 C 969.806 1.76568 0.648478 0
M  V30 8930 O 969.164 1.08682 1.45114 0
M  V30 8931 C 969.212 3.4067 -1.18222 0
M  V30 8932 O 968.316 4.11177 -0.317341 0
M  V30 8933 H 967.657 0.5976 -0.28943 0
M  V30 8934 H 970.187 1.48157 -1.41105 0
M  V30 8935 H 970.197 3.91424 -1.15114 0
M  V30 8936 H 968.872 3.51036 -2.2304 0
M  V30 8937 H 967.449 3.70645 -0.409459 0
M  V30 8938 N 969.634 0.838594 1.33437 0
M  V30 8939 C 970.882 0.433312 1.974 0
M  V30 8940 C 971.203 -1.01078 1.66758 0
M  V30 8941 O 970.473 -1.70406 0.966373 0
M  V30 8942 H 969.053 0.15724 0.730263 0
M  V30 8943 H 971.715 1.07149 1.62804 0
M  V30 8944 H 970.811 0.565144 3.06941 0
M  V30 8945 N 971.112 -1.45937 0.595003 0
M  V30 8946 C 972.044 -2.28575 -0.169137 0
M  V30 8947 C 973.057 -1.39226 -0.843792 0
M  V30 8948 O 974.246 -1.63716 -0.711291 0
M  V30 8949 C 971.346 -3.14616 -1.25976 0
M  V30 8950 C 970.519 -4.32166 -0.67466 0
M  V30 8951 C 969.578 -4.99511 -1.65456 0
M  V30 8952 O 968.604 -5.56712 -1.18578 0
M  V30 8953 N 969.806 -4.97643 -2.98885 0
M  V30 8954 H 972.571 -2.94797 0.539908 0
M  V30 8955 H 970.132 -1.55985 0.433614 0
M  V30 8956 H 972.124 -3.56534 -1.91483 0
M  V30 8957 H 970.694 -2.50387 -1.8715 0
M  V30 8958 H 969.914 -3.93882 0.158184 0
M  V30 8959 H 971.202 -5.08116 -0.263753 0
M  V30 8960 H 970.6 -4.52438 -3.39583 0
M  V30 8961 H 969.157 -5.43463 -3.59848 0
M  V30 8962 N 972.59 -0.333456 -1.54032 0
M  V30 8963 C 973.815 0.270517 -2.05628 0
M  V30 8964 C 974.24 1.44231 -1.20744 0
M  V30 8965 O 973.598 1.79975 -0.218822 0
M  V30 8966 C 973.646 0.673251 -3.54259 0
M  V30 8967 O 972.75 1.77448 -3.72271 0
M  V30 8968 H 972.091 0.0469753 -0.662336 0
M  V30 8969 H 974.621 -0.484739 -1.98775 0
M  V30 8970 H 974.631 0.953194 -3.96709 0
M  V30 8971 H 973.306 -0.183747 -4.15494 0
M  V30 8972 H 971.883 1.49259 -3.41725 0
M  V30 8973 N 974.068 1.57479 -0.061844 0
M  V30 8974 C 975.479 1.80627 0.472295 0
M  V30 8975 C 975.83 0.97496 1.70261 0
M  V30 8976 O 974.955 0.1946 2.15523 0
M  V30 8977 C 975.55 3.27608 0.863616 0
M  V30 8978 C 974.109 3.51638 1.34267 0
M  V30 8979 C 973.256 2.75412 0.323009 0
M  V30 8980 H 976.207 1.56072 -0.287634 0
M  V30 8981 H 976.228 3.39113 1.72577 0
M  V30 8982 H 975.74 3.88087 -0.0320226 0
M  V30 8983 H 973.841 2.96452 2.25714 0
M  V30 8984 H 973.954 4.60342 1.32747 0
M  V30 8985 H 972.318 2.4187 0.798175 0
M  V30 8986 H 973.101 3.38623 -0.564729 0
M  V30 8987 N 975.546 -0.211634 1.56173 0
M  V30 8988 C 976.771 -0.955324 1.84088 0
M  V30 8989 C 977.196 -1.76754 0.643407 0
M  V30 8990 O 976.554 -1.76653 -0.407842 0
M  V30 8991 C 976.602 -1.84063 3.10085 0
M  V30 8992 O 975.706 -2.9373 2.89476 0
M  V30 8993 H 975.047 -0.26996 0.606645 0
M  V30 8994 H 977.577 -0.221947 2.03393 0
M  V30 8995 H 977.587 -2.24852 3.40449 0
M  V30 8996 H 976.262 -1.24373 3.96868 0
M  V30 8997 H 974.839 -2.56816 2.7037 0
M  V30 8998 N 977.024 -1.50153 -0.478725 0
M  V30 8999 C 978.44 -1.3741 -0.811833 0
M  V30 9000 C 978.64 -0.424303 -1.96982 0
M  V30 9001 O 977.696 0.13588 -2.52134 0
M  V30 9002 C 979.009 -2.78616 -1.13108 0
M  V30 9003 C 980.557 -2.87477 -1.23798 0
M  V30 9004 C 981.032 -4.295 -1.5904 0
M  V30 9005 N 982.523 -4.32415 -1.66047 0
M  V30 9006 C 983.258 -5.39295 -1.94805 0
M  V30 9007 N 982.754 -6.56392 -2.21635 0
M  V30 9008 N 984.547 -5.26731 -1.96243 0
M  V30 9009 H 976.698 -2.10486 0.284531 0
M  V30 9010 H 978.961 -0.945786 0.0647585 0
M  V30 9011 H 978.667 -3.49921 -0.35334 0
M  V30 9012 H 978.541 -3.15382 -2.06915 0
M  V30 9013 H 980.928 -2.16396 -2.00641 0
M  V30 9014 H 981.009 -2.54264 -0.279888 0
M  V30 9015 H 980.653 -5.01115 -0.827404 0
M  V30 9016 H 980.583 -4.60194 -2.55987 0
M  V30 9017 H 983.074 -3.47975 -1.47383 0
M  V30 9018 H 983.387 -7.33658 -2.4283 0
M  V30 9019 H 981.732 -6.59579 -2.19043 0
M  V30 9020 H 984.923 -4.34249 -1.74773 0
M  V30 9021 H 985.096 -6.10115 -2.1832 0
M  V30 9022 N 978.502 0.731368 -1.39602 0
M  V30 9023 C 979.75 1.48805 -1.36753 0
M  V30 9024 C 980.071 1.94969 0.034676 0
M  V30 9025 O 979.341 1.69243 0.986591 0
M  V30 9026 H 977.921 0.55203 -0.503261 0
M  V30 9027 H 980.583 0.868013 -1.74504 0
M  V30 9028 H 979.679 2.36844 -2.03252 0
M  V30 9029 N 979.98 1.24838 0.961938 0
M  V30 9030 C 981.396 1.01502 1.23165 0
M  V30 9031 C 981.596 -0.272651 1.99647 0
M  V30 9032 O 980.652 -0.987297 2.32398 0
M  V30 9033 C 981.965 2.23366 2.01316 0
M  V30 9034 C 983.513 2.28051 2.14387 0
M  V30 9035 C 983.988 3.49552 2.95935 0
M  V30 9036 N 985.479 3.49904 3.03515 0
M  V30 9037 C 986.214 4.40577 3.66987 0
M  V30 9038 N 985.71 5.41512 4.3213 0
M  V30 9039 N 987.503 4.28275 3.64056 0
M  V30 9040 H 979.654 2.07576 0.450086 0
M  V30 9041 H 981.917 0.911205 0.261551 0
M  V30 9042 H 981.623 3.16913 1.5251 0
M  V30 9043 H 981.497 2.25949 3.02038 0
M  V30 9044 H 983.884 1.35032 2.62393 0
M  V30 9045 H 983.965 2.29491 1.12994 0
M  V30 9046 H 983.609 4.42889 2.4862 0
M  V30 9047 H 983.539 3.45357 3.97538 0
M  V30 9048 H 986.03 2.76885 2.57183 0
M  V30 9049 H 986.343 6.06924 4.78396 0
M  V30 9050 H 984.688 5.45393 4.3078 0
M  V30 9051 H 987.879 3.48653 3.12344 0
M  V30 9052 H 988.052 4.99138 4.13237 0
M  V30 9053 N 981.458 -1.16348 1.06306 0
M  V30 9054 C 982.408 -2.18717 0.643947 0
M  V30 9055 C 983.392 -1.57574 -0.325445 0
M  V30 9056 O 984.584 -1.76439 -0.140868 0
M  V30 9057 C 981.713 -3.43285 0.0320266 0
M  V30 9058 C 980.799 -4.11504 1.02592 0
M  V30 9059 N 981.19 -4.55374 2.20155 0
M  V30 9060 C 979.488 -4.37691 0.856887 0
M  V30 9061 C 980.189 -5.08149 2.83124 0
M  V30 9062 N 979.165 -5.01042 2.10851 0
M  V30 9063 H 982.967 -2.50353 1.53951 0
M  V30 9064 H 980.481 -1.328 0.934763 0
M  V30 9065 H 982.478 -4.15917 -0.286064 0
M  V30 9066 H 981.138 -3.13137 -0.858786 0
M  V30 9067 H 982.149 -4.49101 2.57931 0
M  V30 9068 H 978.826 -4.17496 0.0180742 0
M  V30 9069 H 980.216 -5.52131 3.82885 0
M  V30 9070 N 982.937 -0.845659 -1.3299 0
M  V30 9071 C 984.185 -0.443774 -1.97168 0
M  V30 9072 C 984.506 1.00192 -1.67292 0
M  V30 9073 O 983.776 1.69891 -0.975397 0
M  V30 9074 H 982.356 -0.161111 -0.729419 0
M  V30 9075 H 985.018 -1.08011 -1.62233 0
M  V30 9076 H 984.114 -0.581414 -3.06637 0
M  V30 9077 N 984.415 1.45619 -0.602734 0
M  V30 9078 C 985.64 2.07157 -0.100429 0
M  V30 9079 C 986.065 1.44524 1.20393 0
M  V30 9080 O 985.423 0.536191 1.7319 0
M  V30 9081 C 985.471 3.60587 0.0308604 0
M  V30 9082 O 984.575 3.97944 1.08234 0
M  V30 9083 H 983.916 0.6601 -0.0718643 0
M  V30 9084 H 986.446 1.86948 -0.831366 0
M  V30 9085 H 986.456 4.07348 0.230634 0
M  V30 9086 H 985.131 4.05561 -0.921581 0
M  V30 9087 H 983.708 3.62862 0.859414 0
M  V30 9088 N 985.893 0.34162 1.53853 0
M  V30 9089 C 987.17 -0.310664 1.93117 0
M  V30 9090 C 987.55 -1.68398 1.273 0
M  V30 9091 O 986.898 -2.24546 0.423225 0
M  V30 9092 C 987.108 -0.384867 3.46871 0
M  V30 9093 C 988.456 -0.636621 4.198 0
M  V30 9094 O 989.48 -0.467061 3.53125 0
M  V30 9095 O 988.339 -0.964962 5.37913 0
M  V30 9096 H 985.433 -0.180881 0.806977 0
M  V30 9097 H 987.979 0.392656 1.65095 0
M  V30 9098 H 986.751 0.57894 3.86994 0
M  V30 9099 H 986.374 -1.13505 3.81054 0
M  V30 9100 N 987.371 -1.57444 0.0701946 0
M  V30 9101 C 988.618 -1.93429 -0.59929 0
M  V30 9102 C 988.946 -0.9501 -1.69715 0
M  V30 9103 O 988.201 0.0345377 -1.9567 0
M  V30 9104 C 988.5 -3.36044 -1.21694 0
M  V30 9105 C 988.166 -4.50232 -0.245374 0
M  V30 9106 C 986.828 -4.81195 0.0219161 0
M  V30 9107 C 989.18 -5.1951 0.419396 0
M  V30 9108 C 986.508 -5.78775 0.96109 0
M  V30 9109 C 988.86 -6.18095 1.34688 0
M  V30 9110 C 987.524 -6.47477 1.62265 0
M  V30 9111 H 986.794 -0.707807 -0.219296 0
M  V30 9112 H 989.441 -1.90982 0.14073 0
M  V30 9113 H 987.746 -3.34948 -2.03265 0
M  V30 9114 H 989.443 -3.61176 -1.74221 0
M  V30 9115 H 986.033 -4.26082 -0.463887 0
M  V30 9116 H 990.217 -4.95785 0.226009 0
M  V30 9117 H 985.473 -5.99865 1.18202 0
M  V30 9118 H 989.647 -6.7088 1.86795 0
M  V30 9119 H 987.274 -7.229 2.352 0
M  V30 9120 N 988.849 0.203349 -1.56283 0
M  V30 9121 C 990.097 0.923183 -1.79782 0
M  V30 9122 C 990.418 1.84134 -0.64185 0
M  V30 9123 O 989.688 1.92922 0.340292 0
M  V30 9124 H 988.268 0.343881 -0.66314 0
M  V30 9125 H 990.93 0.210837 -1.93756 0
M  V30 9126 H 990.026 1.51921 -2.72629 0
M  V30 9127 N 990.327 1.50405 0.470755 0
M  V30 9128 C 991.277 1.65681 1.56633 0
M  V30 9129 C 992.261 0.511424 1.52556 0
M  V30 9130 O 993.453 0.765844 1.59574 0
M  V30 9131 C 990.582 1.7546 2.95074 0
M  V30 9132 C 989.668 2.95676 3.04034 0
M  V30 9133 N 990.059 4.1935 2.82807 0
M  V30 9134 C 988.357 2.94241 3.35169 0
M  V30 9135 C 989.058 5.0032 2.96741 0
M  V30 9136 N 988.034 4.34282 3.26956 0
M  V30 9137 H 991.836 2.58994 1.38922 0
M  V30 9138 H 989.35 1.47593 0.67749 0
M  V30 9139 H 991.347 1.84508 3.73848 0
M  V30 9140 H 990.007 0.833057 3.13832 0
M  V30 9141 H 991.018 4.48842 2.58382 0
M  V30 9142 H 987.695 2.11587 3.59913 0
M  V30 9143 H 989.085 6.08664 2.84566 0
M  V30 9144 N 991.805 -0.723954 1.39988 0
M  V30 9145 C 993.03 -1.5182 1.41299 0
M  V30 9146 C 993.455 -1.88096 0.0122636 0
M  V30 9147 O 992.813 -1.52687 -0.977559 0
M  V30 9148 C 992.861 -2.77532 2.30235 0
M  V30 9149 O 991.965 -3.73903 1.73984 0
M  V30 9150 H 991.306 -0.458058 0.480707 0
M  V30 9151 H 993.836 -0.892291 1.84118 0
M  V30 9152 H 993.846 -3.2615 2.45132 0
M  V30 9153 H 992.521 -2.50462 3.32026 0
M  V30 9154 H 991.098 -3.32715 1.68389 0
M  V30 9155 N 993.283 -1.25346 -0.955304 0
M  V30 9156 C 994.508 -1.12892 -1.73983 0
M  V30 9157 C 994.933 0.313455 -1.8547 0
M  V30 9158 O 994.291 1.22706 -1.33465 0
M  V30 9159 C 994.339 -1.78729 -3.1319 0
M  V30 9160 O 993.443 -1.06648 -3.98372 0
M  V30 9161 H 992.784 -0.394178 -0.534341 0
M  V30 9162 H 995.314 -1.65897 -1.19747 0
M  V30 9163 H 995.324 -1.84987 -3.63653 0
M  V30 9164 H 993.999 -2.83669 -3.04146 0
M  V30 9165 H 992.576 -1.08266 -3.56837 0
M  V30 9166 N 994.761 1.15782 -1.06922 0
M  V30 9167 C 995.986 1.90896 -0.810771 0
M  V30 9168 C 996.411 1.77246 0.629714 0
M  V30 9169 O 995.769 1.10215 1.43953 0
M  V30 9170 C 995.817 3.39397 -1.21829 0
M  V30 9171 O 994.921 4.10818 -0.360934 0
M  V30 9172 H 994.262 0.594497 -0.295752 0
M  V30 9173 H 996.792 1.46652 -1.42669 0
M  V30 9174 H 996.802 3.90181 -1.19259 0
M  V30 9175 H 995.477 3.4865 -2.2675 0
M  V30 9176 H 994.054 3.7019 -0.448748 0
M  V30 9177 N 996.239 0.8527 1.3254 0
M  V30 9178 C 997.469 0.468363 2.01221 0
M  V30 9179 C 997.877 -0.938966 1.64256 0
M  V30 9180 O 997.22 -1.62387 0.858837 0
M  V30 9181 C 997.282 0.525457 3.55639 0
M  V30 9182 C 996.946 1.89133 4.16026 0
M  V30 9183 C 997.943 2.85652 4.34395 0
M  V30 9184 C 995.628 2.18795 4.52144 0
M  V30 9185 C 997.622 4.09985 4.88048 0
M  V30 9186 C 995.309 3.43381 5.05502 0
M  V30 9187 C 996.307 4.38792 5.23403 0
M  V30 9188 O 995.995 5.61173 5.75622 0
M  V30 9189 H 995.727 0.182712 0.65084 0
M  V30 9190 H 998.281 1.15076 1.70138 0
M  V30 9191 H 996.511 -0.213779 3.86109 0
M  V30 9192 H 998.2 0.156999 4.05596 0
M  V30 9193 H 998.966 2.6404 4.06827 0
M  V30 9194 H 994.845 1.45317 4.37498 0
M  V30 9195 H 998.389 4.84465 5.01936 0
M  V30 9196 H 994.286 3.64844 5.32503 0
M  V30 9197 H 995.054 5.63104 5.94017 0
M  V30 9198 N 997.718 -1.45297 0.610449 0
M  V30 9199 C 998.966 -2.01819 0.106548 0
M  V30 9200 C 999.287 -1.48102 -1.26849 0
M  V30 9201 O 998.557 -0.676411 -1.83852 0
M  V30 9202 H 997.137 -0.746113 0.0363982 0
M  V30 9203 H 999.799 -1.78061 0.792491 0
M  V30 9204 H 998.895 -3.12045 0.0585 0
M  V30 9205 N 999.196 -0.349774 -1.5367 0
M  V30 9206 C 1000.13 0.538575 -2.22782 0
M  V30 9207 C 1001.14 1.05896 -1.23652 0
M  V30 9208 O 1002.33 0.968045 -1.4997 0
M  V30 9209 C 999.43 1.7546 -2.89943 0
M  V30 9210 C 998.603 1.36843 -4.15443 0
M  V30 9211 C 997.662 2.4448 -4.65957 0
M  V30 9212 O 996.688 2.07528 -5.3002 0
M  V30 9213 N 997.89 3.75829 -4.42417 0
M  V30 9214 H 1000.65 -0.053348 -2.99653 0
M  V30 9215 H 998.216 -0.174193 -1.6096 0
M  V30 9216 H 1000.21 2.46911 -3.20651 0
M  V30 9217 H 998.778 2.25375 -2.16622 0
M  V30 9218 H 997.998 0.484421 -3.91212 0
M  V30 9219 H 999.286 1.0865 -4.97064 0
M  V30 9220 H 998.684 4.08635 -3.91196 0
M  V30 9221 H 997.241 4.43432 -4.77714 0
M  V30 9222 N 1000.67 1.57404 -0.0785433 0
M  V30 9223 C 1001.62 2.09632 0.896565 0
M  V30 9224 C 1002.61 1.00754 1.25449 0
M  V30 9225 O 1003.8 1.27053 1.23234 0
M  V30 9226 C 1000.93 2.66694 2.16169 0
M  V30 9227 C 1000.01 3.82588 1.82994 0
M  V30 9228 N 1000.41 4.91286 1.203 0
M  V30 9229 C 998.704 3.92011 2.12704 0
M  V30 9230 C 999.405 5.72077 1.05367 0
M  V30 9231 N 998.381 5.20567 1.56559 0
M  V30 9232 H 1002.18 2.9106 0.407621 0
M  V30 9233 H 999.697 1.61917 0.125155 0
M  V30 9234 H 1001.69 3.0243 2.86952 0
M  V30 9235 H 1000.35 1.86716 2.65645 0
M  V30 9236 H 1001.36 5.10509 0.871817 0
M  V30 9237 H 998.042 3.23018 2.6451 0
M  V30 9238 H 999.432 6.69523 0.564685 0
M  V30 9239 N 1002.15 -0.195058 1.56388 0
M  V30 9240 C 1003.4 -0.913636 1.8027 0
M  V30 9241 C 1003.72 -1.83791 0.651606 0
M  V30 9242 O 1002.99 -1.931 -0.330057 0
M  V30 9243 H 1001.57 -0.34036 0.664954 0
M  V30 9244 H 1004.23 -0.200559 1.93865 0
M  V30 9245 H 1003.33 -1.50473 2.7343 0
M  V30 9246 N 1003.63 -1.50653 -0.462772 0
M  V30 9247 C 1004.85 -1.66103 -1.24196 0
M  V30 9248 C 1005.28 -0.347421 -1.84864 0
M  V30 9249 O 1004.64 0.689673 -1.6767 0
M  V30 9250 C 1004.69 -2.76027 -2.32037 0
M  V30 9251 O 1003.79 -2.37859 -3.36893 0
M  V30 9252 H 1003.13 -0.554672 -0.365014 0
M  V30 9253 H 1005.66 -1.97076 -0.549734 0
M  V30 9254 H 1005.67 -2.99354 -2.77221 0
M  V30 9255 H 1004.35 -3.71361 -1.87253 0
M  V30 9256 H 1002.92 -2.2501 -2.97363 0
M  V30 9257 N 1005.11 0.71652 -1.4037 0
M  V30 9258 C 1006.36 1.47347 -1.38324 0
M  V30 9259 C 1006.68 1.94995 0.0139949 0
M  V30 9260 O 1005.95 1.7028 0.968585 0
M  V30 9261 H 1004.53 0.546662 -0.509087 0
M  V30 9262 H 1007.19 0.849455 -1.75415 0
M  V30 9263 H 1006.29 2.34675 -2.05752 0
M  V30 9264 N 1006.59 1.25851 0.948643 0
M  V30 9265 C 1007.81 1.13813 1.73382 0
M  V30 9266 C 1008.24 -0.303615 1.85633 0
M  V30 9267 O 1007.59 -1.21997 1.34114 0
M  V30 9268 C 1007.64 1.80388 3.12238 0
M  V30 9269 O 1006.75 1.08759 3.978 0
M  V30 9270 H 1006.09 0.397006 0.532243 0
M  V30 9271 H 1008.62 1.66529 1.18866 0
M  V30 9272 H 1008.63 1.86913 3.62667 0
M  V30 9273 H 1007.3 2.85278 3.02637 0
M  V30 9274 H 1005.88 1.10157 3.56258 0
M  V30 9275 N 1008.06 -1.15214 1.07534 0
M  V30 9276 C 1009.31 -1.85676 0.79805 0
M  V30 9277 C 1009.63 -1.82837 -0.677919 0
M  V30 9278 O 1008.9 -1.27059 -1.49107 0
M  V30 9279 H 1007.48 -0.687468 0.292227 0
M  V30 9280 H 1010.15 -1.39658 1.35947 0
M  V30 9281 H 1009.24 -2.9076 1.13423 0
M  V30 9282 N 1009.54 -0.859717 -1.32086 0
M  V30 9283 C 1010.79 -0.475565 -1.97762 0
M  V30 9284 C 1011.14 0.959348 -1.66776 0
M  V30 9285 O 1010.44 1.66484 -0.948343 0
M  V30 9286 C 1010.63 -0.657397 -3.51302 0
M  V30 9287 C 1010.46 -2.10843 -3.97209 0
M  V30 9288 C 1009.23 -2.74796 -4.24046 0
M  V30 9289 C 1011.43 -3.07959 -4.11905 0
M  V30 9290 N 1009.41 -4.10758 -4.56236 0
M  V30 9291 C 1010.78 -4.28922 -4.4769 0
M  V30 9292 C 1012.84 -3.04086 -3.94254 0
M  V30 9293 C 1011.54 -5.46518 -4.67665 0
M  V30 9294 C 1013.56 -4.20931 -4.15416 0
M  V30 9295 C 1012.93 -5.40654 -4.51522 0
M  V30 9296 H 1009.03 -0.222859 -0.749572 0
M  V30 9297 H 1011.61 -1.11217 -1.59809 0
M  V30 9298 H 1009.78 -0.0504597 -3.88367 0
M  V30 9299 H 1011.51 -0.242642 -4.03972 0
M  V30 9300 H 1008.27 -2.25805 -4.16304 0
M  V30 9301 H 1008.69 -4.80905 -4.76507 0
M  V30 9302 H 1013.33 -2.12641 -3.65436 0
M  V30 9303 H 1011.05 -6.3849 -4.95335 0
M  V30 9304 H 1014.64 -4.19376 -4.03255 0
M  V30 9305 H 1013.52 -6.29563 -4.67568 0
M  V30 9306 N 1011.02 1.44971 -0.618145 0
M  V30 9307 C 1012.25 2.07039 -0.122395 0
M  V30 9308 C 1012.67 1.45793 1.18853 0
M  V30 9309 O 1012.03 0.55453 1.72611 0
M  V30 9310 C 1012.08 3.60599 -0.0073864 0
M  V30 9311 O 1011.18 3.99069 1.04007 0
M  V30 9312 H 1010.52 0.6593 -0.0788615 0
M  V30 9313 H 1013.05 1.86055 -0.851147 0
M  V30 9314 H 1013.06 4.07569 0.187417 0
M  V30 9315 H 1011.74 4.04561 -0.964544 0
M  V30 9316 H 1010.31 3.63753 0.820879 0
M  V30 9317 N 1012.5 0.357919 1.53482 0
M  V30 9318 C 1013.72 -0.237769 2.06033 0
M  V30 9319 C 1014.15 -1.42292 1.23023 0
M  V30 9320 O 1013.51 -1.79604 0.247427 0
M  V30 9321 C 1013.55 -0.616806 3.55286 0
M  V30 9322 O 1012.66 -1.71503 3.75047 0
M  V30 9323 H 1012 -0.0364322 0.663 0
M  V30 9324 H 1014.53 0.516301 1.97979 0
M  V30 9325 H 1014.54 -0.88996 3.98175 0
M  V30 9326 H 1013.21 0.249825 4.15149 0
M  V30 9327 H 1011.79 -1.43803 3.44057 0
M  V30 9328 N 1013.98 -1.5736 0.0868897 0
M  V30 9329 C 1015.2 -1.98809 -0.590757 0
M  V30 9330 C 1015.63 -0.965407 -1.61436 0
M  V30 9331 O 1014.98 0.067143 -1.81176 0
M  V30 9332 C 1015.03 -3.39249 -1.22238 0
M  V30 9333 O 1014.14 -3.39706 -2.33824 0
M  V30 9334 H 1013.48 -0.64669 -0.150626 0
M  V30 9335 H 1016.01 -2.03927 0.165873 0
M  V30 9336 H 1016.02 -3.76765 -1.56564 0
M  V30 9337 H 1014.69 -4.13208 -0.472434 0
M  V30 9338 H 1013.27 -3.13977 -2.01178 0
M  V30 9339 N 1015.45 0.186762 -1.56489 0
M  V30 9340 C 1016.4 1.25084 -1.96104 0
M  V30 9341 C 1017.4 1.4667 -0.847609 0
M  V30 9342 O 1018.6 1.47432 -1.03266 0
M  V30 9343 H 1014.98 0.420121 -0.623701 0
M  V30 9344 H 1016.95 0.889761 -2.84826 0
M  V30 9345 C 1015.7 2.5863 -2.32392 0
M  V30 9346 H 1015.02 2.42838 -3.176 0
M  V30 9347 H 1016.46 3.3181 -2.63967 0
M  V30 9348 C 1014.92 3.16241 -1.16159 0
M  V30 9349 O 1015.45 3.99272 -0.441034 0
M  V30 9350 N 1013.66 2.75106 -0.936206 0
M  V30 9351 H 1013.2 2.0769 -1.5239 0
M  V30 9352 H 1013.16 3.13991 -0.160317 0
M  V30 9353 N 1016.93 1.50896 0.454776 0
M  V30 9354 C 1018.18 1.62378 1.20324 0
M  V30 9355 C 1018.5 0.333883 1.9212 0
M  V30 9356 O 1017.77 -0.649477 1.8482 0
M  V30 9357 H 1016.35 0.598395 0.447139 0
M  V30 9358 H 1019.01 1.87749 0.523102 0
M  V30 9359 H 1018.11 2.44296 1.94232 0
M  V30 9360 N 1018.41 -0.709066 1.40748 0
M  V30 9361 C 1019.82 -1.28847 1.35112 0
M  V30 9362 C 1020.17 -1.9618 0.0277149 0
M  V30 9363 O 1019.3 -1.97955 -0.874233 0
M  V30 9364 C 1019.89 -2.34306 2.44716 0
M  V30 9365 C 1018.45 -2.87856 2.4252 0
M  V30 9366 C 1017.6 -1.61723 2.25257 0
M  V30 9367 H 1020.55 -0.504742 1.50459 0
M  V30 9368 H 1020.57 -3.15297 2.12998 0
M  V30 9369 H 1020.08 -1.85271 3.41022 0
M  V30 9370 H 1018.18 -3.41103 1.49931 0
M  V30 9371 H 1018.3 -3.39205 3.38344 0
M  V30 9372 H 1016.66 -1.87032 1.7289 0
M  V30 9373 H 1017.44 -1.14703 3.23571 0
M  V30 9374 N 1019.89 -1.26353 -0.941956 0
M  V30 9375 C 1020.84 -1.04513 -2.02635 0
M  V30 9376 C 1021.82 0.0222314 -1.60885 0
M  V30 9377 O 1023.02 -0.194629 -1.75927 0
M  V30 9378 C 1020.14 -0.679282 -3.36512 0
M  V30 9379 C 1019.23 -1.78406 -3.8475 0
M  V30 9380 N 1019.62 -3.02136 -4.05645 0
M  V30 9381 C 1017.92 -1.66748 -4.13656 0
M  V30 9382 C 1018.62 -3.73932 -4.45589 0
M  V30 9383 N 1017.6 -3.01616 -4.52248 0
M  V30 9384 H 1021.4 -1.9843 -2.16801 0
M  V30 9385 H 1018.91 -1.16858 -1.12774 0
M  V30 9386 H 1020.91 -0.503975 -4.13843 0
M  V30 9387 H 1019.57 0.252418 -3.23717 0
M  V30 9388 H 1020.58 -3.38049 -3.92356 0
M  V30 9389 H 1017.26 -0.805627 -4.09653 0
M  V30 9390 H 1018.65 -4.80201 -4.69954 0
M  V30 9391 N 1021.37 1.14642 -1.08144 0
M  V30 9392 C 1022.62 1.8525 -0.807885 0
M  V30 9393 C 1022.94 1.83194 0.668213 0
M  V30 9394 O 1022.21 1.27848 1.48431 0
M  V30 9395 H 1020.79 0.685909 -0.295868 0
M  V30 9396 H 1023.45 1.38935 -1.36686 0
M  V30 9397 H 1022.54 2.90155 -1.14964 0
M  V30 9398 N 1022.85 0.866709 1.31628 0
M  V30 9399 C 1024.07 0.48956 2.01539 0
M  V30 9400 C 1024.5 -0.909556 1.64647 0
M  V30 9401 O 1023.85 -1.59959 0.853391 0
M  V30 9402 C 1023.9 0.650176 3.5469 0
M  V30 9403 O 1023.01 -0.311908 4.11219 0
M  V30 9404 H 1022.35 0.195144 0.634677 0
M  V30 9405 H 1024.88 1.16923 1.679 0
M  V30 9406 H 1024.89 0.542236 4.04381 0
M  V30 9407 H 1023.56 1.67038 3.80882 0
M  V30 9408 H 1022.14 -0.159197 3.7256 0
M  V30 9409 N 1024.32 -1.44642 0.625825 0
M  V30 9410 C 1025.57 -2.02393 0.128391 0
M  V30 9411 C 1025.9 -1.49075 -1.2446 0
M  V30 9412 O 1025.18 -0.672684 -1.82497 0
M  V30 9413 C 1025.46 -3.59934 0.109279 0
M  V30 9414 C 1025.31 -4.23546 1.51423 0
M  V30 9415 C 1026.63 -4.36406 -0.568985 0
M  V30 9416 H 1023.75 -0.735427 0.0481299 0
M  V30 9417 H 1026.39 -1.72277 0.801286 0
M  V30 9418 H 1024.54 -3.85722 -0.463726 0
M  V30 9419 H 1026.22 -4.08882 2.13572 0
M  V30 9420 H 1024.46 -3.81245 2.06966 0
M  V30 9421 H 1025.13 -5.32535 1.45294 0
M  V30 9422 H 1027.61 -4.1602 -0.0817516 0
M  V30 9423 H 1026.48 -5.46122 -0.551527 0
M  V30 9424 H 1026.74 -4.1062 -1.6384 0
M  V30 9425 N 1025.8 -0.366053 -1.5329 0
M  V30 9426 C 1027.03 0.226839 -2.06156 0
M  V30 9427 C 1027.45 1.41637 -1.23776 0
M  V30 9428 O 1026.81 1.7947 -0.256948 0
M  V30 9429 C 1026.86 0.597956 -3.55608 0
M  V30 9430 O 1025.96 1.69512 -3.75951 0
M  V30 9431 H 1025.3 0.0329156 -0.663184 0
M  V30 9432 H 1027.83 -0.526793 -1.97702 0
M  V30 9433 H 1027.84 0.868831 -3.98642 0
M  V30 9434 H 1026.52 -0.271838 -4.15011 0
M  V30 9435 H 1025.09 1.41976 -3.44815 0
M  V30 9436 N 1027.28 1.57312 -0.0952337 0
M  V30 9437 C 1028.53 1.93974 0.567319 0
M  V30 9438 C 1028.85 0.977805 1.68713 0
M  V30 9439 O 1028.12 0.0298944 1.95877 0
M  V30 9440 H 1026.7 0.71612 0.212558 0
M  V30 9441 H 1029.36 1.94254 -0.158598 0
M  V30 9442 H 1028.46 2.964 0.977423 0
M  V30 9443 N 1028.76 -0.17846 1.56586 0
M  V30 9444 C 1029.69 -1.24547 1.92408 0
M  V30 9445 C 1030.7 -1.40849 0.816421 0
M  V30 9446 O 1031.89 -1.40979 1.09486 0
M  V30 9447 C 1028.99 -2.61523 2.15544 0
M  V30 9448 C 1028.16 -2.66613 3.46751 0
M  V30 9449 C 1027.22 -3.84901 3.588 0
M  V30 9450 O 1026.25 -3.71231 4.31482 0
M  V30 9451 N 1027.45 -5.0106 2.9312 0
M  V30 9452 H 1030.22 -0.941275 2.84535 0
M  V30 9453 H 1027.78 -0.368275 1.57656 0
M  V30 9454 H 1029.77 -3.3911 2.20876 0
M  V30 9455 H 1028.34 -2.84362 1.29835 0
M  V30 9456 H 1027.56 -1.75174 3.5314 0
M  V30 9457 H 1028.85 -2.67018 4.33104 0
M  V30 9458 H 1028.25 -5.15067 2.33928 0
M  V30 9459 H 1026.8 -5.76535 3.04057 0
M  V30 9460 N 1030.24 -1.51135 -0.446768 0
M  V30 9461 C 1031.46 -1.67411 -1.22427 0
M  V30 9462 C 1031.89 -0.367009 -1.84485 0
M  V30 9463 O 1031.24 0.67185 -1.68392 0
M  V30 9464 C 1031.29 -2.78473 -2.29096 0
M  V30 9465 O 1030.4 -2.41419 -3.34351 0
M  V30 9466 H 1029.74 -0.558512 -0.359111 0
M  V30 9467 H 1032.27 -1.97648 -0.5288 0
M  V30 9468 H 1032.28 -3.02277 -2.7403 0
M  V30 9469 H 1030.95 -3.73326 -1.83304 0
M  V30 9470 H 1029.53 -2.28152 -2.9496 0
M  V30 9471 N 1031.71 0.701592 -1.41122 0
M  V30 9472 C 1032.94 1.49553 -1.43696 0
M  V30 9473 C 1033.36 1.88053 -0.0421865 0
M  V30 9474 O 1032.72 1.54223 0.953144 0
M  V30 9475 C 1032.77 2.73834 -2.34622 0
M  V30 9476 O 1031.87 3.71088 -1.7991 0
M  V30 9477 H 1031.21 0.450352 -0.487933 0
M  V30 9478 H 1033.74 0.862886 -1.85514 0
M  V30 9479 H 1033.75 3.22209 -2.5029 0
M  V30 9480 H 1032.43 2.45149 -3.35969 0
M  V30 9481 H 1031.01 3.29994 -1.73661 0
M  V30 9482 N 1033.19 1.2685 0.935242 0
M  V30 9483 C 1034.44 1.12522 1.67878 0
M  V30 9484 C 1034.76 -0.330894 1.92172 0
M  V30 9485 O 1034.03 -1.23259 1.52263 0
M  V30 9486 H 1032.61 0.413418 0.622169 0
M  V30 9487 H 1035.27 1.59267 1.12339 0
M  V30 9488 H 1034.37 1.64853 2.65009 0
M  V30 9489 N 1034.67 -1.14067 1.0875 0
M  V30 9490 C 1035.92 -1.85185 0.819317 0
M  V30 9491 C 1036.25 -1.8314 -0.654969 0
M  V30 9492 O 1035.5 -1.25974 -1.49763 0
M  V30 9493 C 1035.8 -3.33273 1.29089 0
M  V30 9494 C 1035.47 -3.55504 2.77359 0
M  V30 9495 C 1034.13 -3.61279 3.17853 0
M  V30 9496 C 1036.48 -3.64041 3.72992 0
M  V30 9497 C 1033.81 -3.73119 4.52768 0
M  V30 9498 C 1036.16 -3.77407 5.07687 0
M  V30 9499 C 1034.82 -3.81433 5.47782 0
M  V30 9500 H 1034.09 -0.67764 0.299809 0
M  V30 9501 H 1036.74 -1.34713 1.36106 0
M  V30 9502 H 1035.05 -3.86049 0.668811 0
M  V30 9503 H 1036.74 -3.86734 1.06009 0
M  V30 9504 H 1033.33 -3.51659 2.45019 0
M  V30 9505 H 1037.52 -3.58866 3.42825 0
M  V30 9506 H 1032.77 -3.74499 4.83281 0
M  V30 9507 H 1036.95 -3.82956 5.81651 0
M  V30 9508 H 1034.57 -3.9036 6.52321 0
M  V30 9509 N 1036.15 -0.873678 -1.31166 0
M  V30 9510 C 1037.4 -0.485497 -1.96182 0
M  V30 9511 C 1037.72 0.96621 -1.69379 0
M  V30 9512 O 1036.99 1.67783 -1.01121 0
M  V30 9513 H 1035.57 -0.176547 -0.725838 0
M  V30 9514 H 1038.23 -1.11428 -1.59906 0
M  V30 9515 H 1037.33 -0.646325 -3.05334 0
M  V30 9516 N 1037.63 1.44308 -0.633487 0
M  V30 9517 C 1038.58 2.27814 0.0919619 0
M  V30 9518 C 1039.56 1.38798 0.813882 0
M  V30 9519 O 1040.75 1.62587 0.699601 0
M  V30 9520 C 1037.88 3.26158 1.07125 0
M  V30 9521 C 1036.97 4.22663 0.348831 0
M  V30 9522 N 1037.36 5.01938 -0.623854 0
M  V30 9523 C 1035.66 4.42041 0.592958 0
M  V30 9524 C 1036.36 5.72129 -1.05088 0
M  V30 9525 N 1035.33 5.42205 -0.389183 0
M  V30 9526 H 1039.14 2.86515 -0.654721 0
M  V30 9527 H 1036.65 1.55773 -0.459178 0
M  V30 9528 H 1038.65 3.84742 1.60559 0
M  V30 9529 H 1037.31 2.69019 1.81821 0
M  V30 9530 H 1038.32 5.08119 -1.00176 0
M  V30 9531 H 1034.99 3.95997 1.32261 0
M  V30 9532 H 1036.38 6.45797 -1.85461 0
M  V30 9533 N 1039.1 0.374177 1.53094 0
M  V30 9534 C 1040.05 -0.468226 2.26001 0
M  V30 9535 C 1041.02 -1.07041 1.27009 0
M  V30 9536 O 1042.21 -1.10129 1.55809 0
M  V30 9537 C 1039.35 -1.59754 3.05896 0
M  V30 9538 C 1038.46 -1.01969 4.19793 0
M  V30 9539 C 1037.59 -2.11882 4.87113 0
M  V30 9540 C 1036.63 -1.51607 5.93028 0
M  V30 9541 N 1035.77 -2.55388 6.54004 0
M  V30 9542 H 1040.61 0.159983 2.9757 0
M  V30 9543 H 1038.15 0.0907196 1.4682 0
M  V30 9544 H 1040.11 -2.26288 3.50499 0
M  V30 9545 H 1038.74 -2.19628 2.36565 0
M  V30 9546 H 1037.79 -0.244386 3.79614 0
M  V30 9547 H 1039.1 -0.539089 4.95878 0
M  V30 9548 H 1038.25 -2.86218 5.34943 0
M  V30 9549 H 1036.99 -2.63297 4.10519 0
M  V30 9550 H 1036 -0.757891 5.44551 0
M  V30 9551 H 1037.22 -1.01006 6.71546 0
M  V30 9552 H 1035.17 -3.06 5.80258 0
M  V30 9553 H 1035.09 -2.12039 7.25655 0
M  V30 9554 H 1036.35 -3.294 7.06481 0
M  V30 9555 N 1040.58 -1.57259 0.103575 0
M  V30 9556 C 1041.81 -1.99424 -0.569638 0
M  V30 9557 C 1042.23 -0.982475 -1.60403 0
M  V30 9558 O 1041.59 0.0479231 -1.81237 0
M  V30 9559 C 1041.64 -3.40527 -1.18633 0
M  V30 9560 O 1040.74 -3.42167 -2.30208 0
M  V30 9561 H 1040.08 -0.648251 -0.143759 0
M  V30 9562 H 1042.61 -2.03739 0.187493 0
M  V30 9563 H 1042.62 -3.78404 -1.5256 0
M  V30 9564 H 1041.3 -4.13686 -0.428582 0
M  V30 9565 H 1039.88 -3.16093 -1.97837 0
M  V30 9566 N 1042.06 0.170153 -1.56679 0
M  V30 9567 C 1043.31 0.884841 -1.817 0
M  V30 9568 C 1043.63 1.82731 -0.680763 0
M  V30 9569 O 1042.9 1.936 0.299294 0
M  V30 9570 H 1041.48 0.329738 -0.670285 0
M  V30 9571 H 1044.14 0.169691 -1.9416 0
M  V30 9572 H 1043.24 1.46104 -2.7579 0
M  V30 9573 N 1043.54 1.5137 0.438746 0
M  V30 9574 C 1044.76 1.68058 1.21537 0
M  V30 9575 C 1045.19 0.376787 1.84288 0
M  V30 9576 O 1044.55 -0.662911 1.68746 0
M  V30 9577 C 1044.59 2.79684 2.27616 0
M  V30 9578 O 1043.7 2.43189 3.33066 0
M  V30 9579 H 1043.04 0.560408 0.356144 0
M  V30 9580 H 1045.57 1.97926 0.518311 0
M  V30 9581 H 1045.58 3.03726 2.72423 0
M  V30 9582 H 1044.25 3.74293 1.81321 0
M  V30 9583 H 1042.83 2.29713 2.93746 0
M  V30 9584 N 1045.02 -0.694098 1.41492 0
M  V30 9585 C 1046.26 -1.45127 1.4065 0
M  V30 9586 C 1046.59 -1.94993 0.0170289 0
M  V30 9587 O 1045.86 -1.71799 -0.941372 0
M  V30 9588 H 1044.44 -0.538493 0.51772 0
M  V30 9589 H 1047.1 -0.821441 1.76744 0
M  V30 9590 H 1046.19 -2.31372 2.0946 0
M  V30 9591 N 1046.49 -1.27344 -0.928501 0
M  V30 9592 C 1047.43 -1.05797 -2.03322 0
M  V30 9593 C 1048.44 -0.0143086 -1.62794 0
M  V30 9594 O 1049.63 -0.25578 -1.76658 0
M  V30 9595 C 1046.73 -0.582673 -3.33853 0
M  V30 9596 C 1045.9 -1.69844 -4.03078 0
M  V30 9597 C 1044.96 -1.21902 -5.11885 0
M  V30 9598 O 1043.99 -1.91853 -5.35893 0
M  V30 9599 N 1045.19 -0.0742392 -5.80453 0
M  V30 9600 H 1047.95 -2.00928 -2.22369 0
M  V30 9601 H 1045.51 -1.189 -1.09883 0
M  V30 9602 H 1047.51 -0.245862 -4.03952 0
M  V30 9603 H 1046.08 0.27539 -3.11385 0
M  V30 9604 H 1045.3 -2.20557 -3.26723 0
M  V30 9605 H 1046.58 -2.4473 -4.46077 0
M  V30 9606 H 1045.98 0.509631 -5.634 0
M  V30 9607 H 1044.54 0.203399 -6.51483 0
M  V30 9608 N 1047.97 1.13488 -1.09353 0
M  V30 9609 C 1049.2 1.89133 -0.85108 0
M  V30 9610 C 1049.62 1.78542 0.591976 0
M  V30 9611 O 1048.98 1.13243 1.41583 0
M  V30 9612 C 1049.03 3.36736 -1.29001 0
M  V30 9613 O 1048.13 4.09959 -0.447993 0
M  V30 9614 H 1047.47 0.58809 -0.308296 0
M  V30 9615 H 1050 1.43593 -1.45747 0
M  V30 9616 H 1050.01 3.87564 -1.27508 0
M  V30 9617 H 1048.69 3.43762 -2.34095 0
M  V30 9618 H 1047.27 3.69155 -0.52717 0
M  V30 9619 N 1049.45 0.880621 1.30701 0
M  V30 9620 C 1050.68 0.510909 2.01009 0
M  V30 9621 C 1051.1 -0.892041 1.65603 0
M  V30 9622 O 1050.46 -1.59045 0.870309 0
M  V30 9623 C 1050.51 0.687759 3.53981 0
M  V30 9624 O 1049.61 -0.268275 4.11526 0
M  V30 9625 H 1048.95 0.201864 0.632572 0
M  V30 9626 H 1051.48 1.18697 1.6665 0
M  V30 9627 H 1051.49 0.585095 4.03783 0
M  V30 9628 H 1050.17 1.71068 3.79089 0
M  V30 9629 H 1048.74 -0.119673 3.72708 0
M  V30 9630 N 1050.93 -1.4397 0.641131 0
M  V30 9631 C 1052.18 -2.01548 0.149333 0
M  V30 9632 C 1052.5 -1.50759 -1.23679 0
M  V30 9633 O 1051.77 -0.715257 -1.82376 0
M  V30 9634 H 1050.35 -0.745173 0.0522161 0
M  V30 9635 H 1053.01 -1.7634 0.830082 0
M  V30 9636 H 1052.11 -3.11851 0.124676 0
M  V30 9637 N 1052.41 -0.382291 -1.52893 0
M  V30 9638 C 1053.64 0.202114 -2.05609 0
M  V30 9639 C 1054.05 1.4164 -1.25438 0
M  V30 9640 O 1053.39 1.81359 -0.292324 0
M  V30 9641 C 1053.45 0.64356 -3.53693 0
M  V30 9642 C 1053.11 -0.456305 -4.54716 0
M  V30 9643 C 1054.11 -1.3115 -5.03086 0
M  V30 9644 C 1051.8 -0.621329 -4.98442 0
M  V30 9645 C 1053.79 -2.3169 -5.938 0
M  V30 9646 C 1051.48 -1.63008 -5.88958 0
M  V30 9647 C 1052.48 -2.47629 -6.36529 0
M  V30 9648 O 1052.16 -3.46781 -7.25257 0
M  V30 9649 H 1051.9 0.0358014 -0.675051 0
M  V30 9650 H 1054.45 -0.543935 -1.98067 0
M  V30 9651 H 1052.68 1.44148 -3.58829 0
M  V30 9652 H 1054.37 1.15284 -3.89184 0
M  V30 9653 H 1055.13 -1.19528 -4.70041 0
M  V30 9654 H 1051.01 0.027593 -4.60992 0
M  V30 9655 H 1054.56 -2.97776 -6.30853 0
M  V30 9656 H 1050.45 -1.74671 -6.21418 0
M  V30 9657 H 1051.22 -3.42707 -7.433 0
M  V30 9658 N 1053.89 1.57202 -0.111913 0
M  V30 9659 C 1055.11 1.99723 0.559054 0
M  V30 9660 C 1055.54 0.990968 1.59879 0
M  V30 9661 O 1054.89 -0.038311 1.8126 0
M  V30 9662 C 1054.94 3.41151 1.16826 0
M  V30 9663 O 1054.05 3.43383 2.2839 0
M  V30 9664 H 1053.39 0.649004 0.140319 0
M  V30 9665 H 1055.92 2.03637 -0.198295 0
M  V30 9666 H 1055.93 3.79208 1.50551 0
M  V30 9667 H 1054.6 4.13907 0.406637 0
M  V30 9668 H 1053.18 3.17138 1.96158 0
M  V30 9669 N 1055.36 -0.161842 1.56767 0
M  V30 9670 C 1056.3 -1.22499 1.93718 0
M  V30 9671 C 1057.31 -1.39975 0.831314 0
M  V30 9672 O 1058.5 -1.3981 1.10975 0
M  V30 9673 C 1055.6 -2.59222 2.18306 0
M  V30 9674 C 1054.77 -2.6292 3.4956 0
M  V30 9675 C 1053.83 -3.81074 3.62863 0
M  V30 9676 O 1052.86 -3.66633 4.35395 0
M  V30 9677 N 1054.06 -4.97923 2.98418 0
M  V30 9678 H 1056.82 -0.911043 2.85517 0
M  V30 9679 H 1054.38 -0.351533 1.58038 0
M  V30 9680 H 1056.38 -3.36749 2.24461 0
M  V30 9681 H 1054.95 -2.82969 1.32844 0
M  V30 9682 H 1054.17 -1.71418 3.54978 0
M  V30 9683 H 1055.45 -2.62409 4.35911 0
M  V30 9684 H 1054.85 -5.12557 2.39378 0
M  V30 9685 H 1053.41 -5.73277 3.10155 0
M  V30 9686 N 1056.84 -1.516 -0.430713 0
M  V30 9687 C 1057.79 -1.69776 -1.52185 0
M  V30 9688 C 1058.78 -0.551692 -1.51146 0
M  V30 9689 O 1059.97 -0.807883 -1.57487 0
M  V30 9690 C 1057.1 -1.83222 -2.90318 0
M  V30 9691 C 1056.18 -3.03633 -2.96087 0
M  V30 9692 N 1056.57 -4.267 -2.71589 0
M  V30 9693 C 1054.87 -3.03024 -3.2725 0
M  V30 9694 C 1055.57 -5.08011 -2.83372 0
M  V30 9695 N 1054.55 -4.42798 -3.15327 0
M  V30 9696 H 1058.35 -2.62586 -1.32006 0
M  V30 9697 H 1055.86 -1.49338 -0.63812 0
M  V30 9698 H 1057.86 -1.94355 -3.68825 0
M  V30 9699 H 1056.52 -0.915971 -3.11513 0
M  V30 9700 H 1057.53 -4.55535 -2.46391 0
M  V30 9701 H 1054.21 -2.21055 -3.54176 0
M  V30 9702 H 1055.6 -6.15995 -2.68329 0
M  V30 9703 N 1058.32 0.686584 -1.41858 0
M  V30 9704 C 1059.57 1.44379 -1.41418 0
M  V30 9705 C 1059.89 1.94981 -0.0273696 0
M  V30 9706 O 1059.16 1.72296 0.932248 0
M  V30 9707 H 1057.74 0.53574 -0.520568 0
M  V30 9708 H 1060.4 0.812056 -1.77177 0
M  V30 9709 H 1059.5 2.30258 -2.10684 0
M  V30 9710 N 1059.8 1.27835 0.921735 0
M  V30 9711 C 1061.02 1.17465 1.70929 0
M  V30 9712 C 1061.45 -0.264171 1.86236 0
M  V30 9713 O 1060.81 -1.19124 1.36671 0
M  V30 9714 C 1060.85 1.8697 3.08342 0
M  V30 9715 O 1059.96 1.17173 3.95404 0
M  V30 9716 H 1059.3 0.408206 0.523702 0
M  V30 9717 H 1061.83 1.69013 1.15307 0
M  V30 9718 H 1061.84 1.94564 3.58621 0
M  V30 9719 H 1060.51 2.91633 2.96518 0
M  V30 9720 H 1059.09 1.17688 3.53842 0
M  V30 9721 N 1061.28 -1.12907 1.09954 0
M  V30 9722 C 1062.52 -1.83941 0.837255 0
M  V30 9723 C 1062.84 -1.84234 -0.638984 0
M  V30 9724 O 1062.11 -1.30193 -1.46378 0
M  V30 9725 H 1060.69 -0.681115 0.306743 0
M  V30 9726 H 1063.36 -1.36743 1.38879 0
M  V30 9727 H 1062.45 -2.88289 1.19565 0
M  V30 9728 N 1062.75 -0.88754 -1.30232 0
M  V30 9729 C 1063.98 -0.521562 -2.00735 0
M  V30 9730 C 1064.4 0.883247 -1.66073 0
M  V30 9731 O 1063.76 1.58581 -0.878731 0
M  V30 9732 C 1063.81 -0.706521 -3.53611 0
M  V30 9733 O 1062.91 0.246447 -4.11663 0
M  V30 9734 H 1062.25 -0.205216 -0.631492 0
M  V30 9735 H 1064.78 -1.19579 -1.66018 0
M  V30 9736 H 1064.79 -0.606501 -4.03467 0
M  V30 9737 H 1063.47 -1.73076 -3.78177 0
M  V30 9738 H 1062.05 0.0999062 -3.72766 0
M  V30 9739 N 1064.23 1.43628 -0.648757 0
M  V30 9740 C 1065.46 2.06732 -0.166284 0
M  V30 9741 C 1065.88 1.48281 1.15734 0
M  V30 9742 O 1065.24 0.591018 1.71396 0
M  V30 9743 C 1065.29 3.60502 -0.0838732 0
M  V30 9744 O 1064.39 4.01186 0.955185 0
M  V30 9745 H 1063.73 0.657479 -0.0928285 0
M  V30 9746 H 1066.26 1.84208 -0.890421 0
M  V30 9747 H 1066.27 4.07875 0.100923 0
M  V30 9748 H 1064.95 4.02424 -1.05014 0
M  V30 9749 H 1063.53 3.65412 0.743537 0
M  V30 9750 N 1065.71 0.390394 1.52688 0
M  V30 9751 C 1066.66 -0.461191 2.23287 0
M  V30 9752 C 1067.64 -1.02875 1.23716 0
M  V30 9753 O 1068.84 -0.954675 1.49047 0
M  V30 9754 C 1065.97 -1.58736 3.04397 0
M  V30 9755 C 1065.05 -1.03149 4.11365 0
M  V30 9756 N 1065.44 -0.20066 5.05402 0
M  V30 9757 C 1063.74 -1.30388 4.26515 0
M  V30 9758 C 1064.44 0.106548 5.81602 0
M  V30 9759 N 1063.42 -0.497687 5.41317 0
M  V30 9760 H 1067.22 0.1801 2.93348 0
M  V30 9761 H 1064.73 0.199761 1.61167 0
M  V30 9762 H 1066.73 -2.20986 3.53512 0
M  V30 9763 H 1065.39 -2.23147 2.35872 0
M  V30 9764 H 1066.4 0.162168 5.17646 0
M  V30 9765 H 1063.08 -1.94894 3.69219 0
M  V30 9766 H 1064.47 0.779778 6.6736 0
M  V30 9767 N 1067.19 -1.57141 0.120249 0
M  V30 9768 C 1068.41 -2.00017 -0.548454 0
M  V30 9769 C 1068.84 -0.999433 -1.59352 0
M  V30 9770 O 1068.2 0.0286978 -1.81277 0
M  V30 9771 C 1068.24 -3.41766 -1.15015 0
M  V30 9772 O 1067.35 -3.44589 -2.26566 0
M  V30 9773 H 1066.69 -0.649739 -0.136875 0
M  V30 9774 H 1069.22 -2.03529 0.209092 0
M  V30 9775 H 1069.23 -3.80001 -1.48537 0
M  V30 9776 H 1067.9 -4.14117 -0.384681 0
M  V30 9777 H 1066.48 -3.18174 -1.94473 0
M  V30 9778 N 1068.67 0.153526 -1.5685 0
M  V30 9779 C 1069.89 0.886343 -1.87507 0
M  V30 9780 C 1070.32 1.74244 -0.708565 0
M  V30 9781 O 1069.67 1.78045 0.341997 0
M  V30 9782 C 1069.72 1.72428 -3.16703 0
M  V30 9783 O 1068.83 2.82784 -3.00178 0
M  V30 9784 H 1068.17 0.247259 -0.616246 0
M  V30 9785 H 1070.7 0.146306 -2.04076 0
M  V30 9786 H 1070.71 2.12062 -3.4856 0
M  V30 9787 H 1069.38 1.09558 -4.01211 0
M  V30 9788 H 1067.96 2.46604 -2.79716 0
M  V30 9789 N 1070.14 1.51827 0.422667 0
M  V30 9790 C 1071.39 1.64893 1.16853 0
M  V30 9791 C 1071.71 0.37456 1.91369 0
M  V30 9792 O 1070.98 -0.610128 1.86157 0
M  V30 9793 H 1069.56 0.607744 0.434345 0
M  V30 9794 H 1072.23 1.88816 0.483159 0
M  V30 9795 H 1071.32 2.48361 1.89006 0
M  V30 9796 N 1071.62 -0.679052 1.4222 0
M  V30 9797 C 1072.85 -1.46534 1.45641 0
M  V30 9798 C 1073.26 -1.89088 0.0649574 0
M  V30 9799 O 1072.6 -1.58436 -0.929712 0
M  V30 9800 C 1072.67 -2.74882 2.3169 0
M  V30 9801 C 1072.33 -2.5443 3.79624 0
M  V30 9802 C 1073.33 -2.19307 4.71382 0
M  V30 9803 C 1071.01 -2.69557 4.23845 0
M  V30 9804 C 1073.01 -1.99571 6.05351 0
M  V30 9805 C 1070.69 -2.49437 5.57875 0
M  V30 9806 C 1071.69 -2.14497 6.48444 0
M  V30 9807 O 1071.38 -1.94567 7.79999 0
M  V30 9808 H 1071.11 -0.457542 0.497626 0
M  V30 9809 H 1073.66 -0.842145 1.87342 0
M  V30 9810 H 1071.89 -3.39669 1.8483 0
M  V30 9811 H 1073.58 -3.3675 2.26615 0
M  V30 9812 H 1074.35 -2.0722 4.38503 0
M  V30 9813 H 1070.23 -2.95733 3.53642 0
M  V30 9814 H 1073.77 -1.72222 6.76007 0
M  V30 9815 H 1069.67 -2.61119 5.90328 0
M  V30 9816 H 1070.44 -2.092 7.91314 0
M  V30 9817 N 1073.1 -1.28322 -0.914942 0
M  V30 9818 C 1074.52 -1.06003 -1.19313 0
M  V30 9819 C 1074.72 0.198366 -2.00521 0
M  V30 9820 O 1073.77 0.900364 -2.35902 0
M  V30 9821 C 1075.09 -2.30684 -1.92887 0
M  V30 9822 C 1076.63 -2.35851 -2.05775 0
M  V30 9823 C 1077.11 -3.60295 -2.82757 0
M  V30 9824 N 1078.6 -3.60928 -2.9032 0
M  V30 9825 C 1079.33 -4.53894 -3.50383 0
M  V30 9826 N 1078.83 -5.57178 -4.11734 0
M  V30 9827 N 1080.62 -4.41492 -3.4791 0
M  V30 9828 H 1072.77 -2.09104 -0.372735 0
M  V30 9829 H 1075.04 -0.920285 -0.227552 0
M  V30 9830 H 1074.74 -3.22355 -1.40643 0
M  V30 9831 H 1074.62 -2.37003 -2.93444 0
M  V30 9832 H 1077 -1.44678 -2.57201 0
M  V30 9833 H 1077.09 -2.33526 -1.04399 0
M  V30 9834 H 1076.73 -4.51811 -2.32011 0
M  V30 9835 H 1076.66 -3.59873 -3.84446 0
M  V30 9836 H 1079.15 -2.8624 -2.46729 0
M  V30 9837 H 1079.46 -6.24261 -4.55541 0
M  V30 9838 H 1077.81 -5.61005 -4.10242 0
M  V30 9839 H 1081 -3.60005 -2.99189 0
M  V30 9840 H 1081.17 -5.14132 -3.94427 0
M  V30 9841 N 1074.58 1.12322 -1.10551 0
M  V30 9842 C 1075.53 2.18087 -0.755424 0
M  V30 9843 C 1076.5 1.6391 0.268805 0
M  V30 9844 O 1077.68 1.90227 0.147813 0
M  V30 9845 C 1074.82 3.4455 -0.194713 0
M  V30 9846 C 1073.93 4.12775 -1.27439 0
M  V30 9847 C 1073.07 5.26891 -0.675194 0
M  V30 9848 C 1072.11 5.86985 -1.73536 0
M  V30 9849 N 1071.24 6.92512 -1.15635 0
M  V30 9850 H 1076.08 2.47379 -1.66155 0
M  V30 9851 H 1073.62 1.21452 -0.829924 0
M  V30 9852 H 1075.58 4.16936 0.148275 0
M  V30 9853 H 1074.21 3.15671 0.674638 0
M  V30 9854 H 1073.26 3.38556 -1.73448 0
M  V30 9855 H 1074.57 4.53506 -2.07687 0
M  V30 9856 H 1073.73 6.06046 -0.281723 0
M  V30 9857 H 1072.47 4.87442 0.158708 0
M  V30 9858 H 1071.47 5.06517 -2.13825 0
M  V30 9859 H 1072.7 6.28505 -2.57213 0
M  V30 9860 H 1070.64 6.55098 -0.343928 0
M  V30 9861 H 1070.56 7.31848 -1.89565 0
M  V30 9862 H 1071.83 7.75492 -0.789463 0
M  V30 9863 N 1076.06 0.894434 1.2976 0
M  V30 9864 C 1077.01 0.339611 2.25457 0
M  V30 9865 C 1077.99 -0.537326 1.51663 0
M  V30 9866 O 1079.18 -0.380204 1.72868 0
M  V30 9867 C 1076.31 -0.436494 3.40514 0
M  V30 9868 C 1075.4 0.455065 4.21651 0
M  V30 9869 N 1075.79 1.55988 4.81146 0
M  V30 9870 C 1074.09 0.251893 4.45288 0
M  V30 9871 C 1074.79 2.1117 5.42017 0
M  V30 9872 N 1073.76 1.40541 5.25118 0
M  V30 9873 H 1077.57 1.18365 2.69011 0
M  V30 9874 H 1075.08 0.744895 1.44309 0
M  V30 9875 H 1077.08 -0.850678 4.08129 0
M  V30 9876 H 1075.74 -1.27786 2.98498 0
M  V30 9877 H 1076.75 1.94266 4.80084 0
M  V30 9878 H 1073.42 -0.551536 4.13841 0
M  V30 9879 H 1074.81 3.04 5.99194 0
M  V30 9880 N 1077.53 -1.43282 0.656365 0
M  V30 9881 C 1078.78 -2.01378 0.170702 0
M  V30 9882 C 1079.1 -1.52063 -1.22073 0
M  V30 9883 O 1078.37 -0.73456 -1.81607 0
M  V30 9884 H 1076.95 -0.744577 0.0601168 0
M  V30 9885 H 1079.62 -1.75449 0.848739 0
M  V30 9886 H 1078.71 -3.11701 0.157745 0
M  V30 9887 N 1079.01 -0.398486 -1.52479 0
M  V30 9888 C 1080.24 0.183059 -2.06591 0
M  V30 9889 C 1080.66 1.3898 -1.26753 0
M  V30 9890 O 1080.02 1.78885 -0.294959 0
M  V30 9891 C 1080.07 0.522392 -3.56796 0
M  V30 9892 O 1079.17 1.61499 -3.79462 0
M  V30 9893 H 1078.51 0.0188411 -0.663733 0
M  V30 9894 H 1081.04 -0.56861 -1.9654 0
M  V30 9895 H 1081.05 0.784078 -4.00395 0
M  V30 9896 H 1079.73 -0.359807 -4.14341 0
M  V30 9897 H 1078.31 1.3463 -3.47749 0
M  V30 9898 N 1080.49 1.57075 -0.12858 0
M  V30 9899 C 1081.91 1.57964 0.227961 0
M  V30 9900 C 1082.11 1.14186 1.66023 0
M  V30 9901 O 1081.16 0.833655 2.38341 0
M  V30 9902 C 1082.48 3.00697 -0.0140648 0
M  V30 9903 C 1084.02 3.12958 0.0510876 0
M  V30 9904 C 1084.5 4.57709 -0.163368 0
M  V30 9905 N 1085.99 4.6307 -0.109663 0
M  V30 9906 C 1086.73 5.72853 -0.250366 0
M  V30 9907 N 1086.22 6.91351 -0.447772 0
M  V30 9908 N 1088.01 5.61781 -0.189265 0
M  V30 9909 H 1080.17 1.83829 -1.06398 0
M  V30 9910 H 1082.43 0.850014 -0.419739 0
M  V30 9911 H 1082.13 3.37047 -1.00461 0
M  V30 9912 H 1082.01 3.70389 0.713571 0
M  V30 9913 H 1084.4 2.7646 1.03216 0
M  V30 9914 H 1084.48 2.4579 -0.708583 0
M  V30 9915 H 1084.12 4.94907 -1.14146 0
M  V30 9916 H 1084.05 5.2298 0.616405 0
M  V30 9917 H 1086.54 3.7788 0.0390086 0
M  V30 9918 H 1086.85 7.70871 -0.54574 0
M  V30 9919 H 1085.2 6.93314 -0.483866 0
M  V30 9920 H 1088.39 4.68086 -0.0359374 0
M  V30 9921 H 1088.56 6.47294 -0.302359 0
M  V30 9922 N 1081.97 -0.145205 1.5693 0
M  V30 9923 C 1083.19 -0.876386 1.87974 0
M  V30 9924 C 1083.62 -1.73866 0.717795 0
M  V30 9925 O 1082.98 -1.78224 -0.332551 0
M  V30 9926 C 1083.03 -1.70746 3.17613 0
M  V30 9927 O 1082.13 -2.81188 3.01674 0
M  V30 9928 H 1081.47 -0.243987 0.617549 0
M  V30 9929 H 1084 -0.135482 2.04151 0
M  V30 9930 H 1084.01 -2.1021 3.49679 0
M  V30 9931 H 1082.69 -1.07429 4.01786 0
M  V30 9932 H 1081.26 -2.45117 2.81019 0
M  V30 9933 N 1083.45 -1.52049 -0.414609 0
M  V30 9934 C 1084.7 -1.65511 -1.15977 0
M  V30 9935 C 1085.02 -0.384703 -1.91168 0
M  V30 9936 O 1084.29 0.600247 -1.86477 0
M  V30 9937 H 1082.87 -0.610039 -0.431116 0
M  V30 9938 H 1085.53 -1.8907 -0.473139 0
M  V30 9939 H 1084.62 -2.4936 -1.87686 0
M  V30 9940 N 1084.93 0.6715 -1.42579 0
M  V30 9941 C 1085.86 1.79703 -1.42266 0
M  V30 9942 C 1086.87 1.59599 -0.321268 0
M  V30 9943 O 1088.06 1.68657 -0.584564 0
M  V30 9944 C 1085.16 3.16859 -1.20224 0
M  V30 9945 C 1084.33 3.63783 -2.42859 0
M  V30 9946 C 1083.39 4.79683 -2.16312 0
M  V30 9947 O 1082.42 4.90058 -2.89537 0
M  V30 9948 N 1083.62 5.68622 -1.16831 0
M  V30 9949 H 1086.38 1.80455 -2.39282 0
M  V30 9950 H 1083.95 0.854708 -1.375 0
M  V30 9951 H 1085.94 3.92054 -1.00376 0
M  V30 9952 H 1084.51 3.10987 -0.317188 0
M  V30 9953 H 1083.73 2.7923 -2.78252 0
M  V30 9954 H 1085.02 3.91877 -3.24514 0
M  V30 9955 H 1084.41 5.62894 -0.562746 0
M  V30 9956 H 1082.97 6.43615 -1.0297 0
M  V30 9957 N 1086.4 1.28806 0.908124 0
M  V30 9958 C 1087.63 1.19271 1.69674 0
M  V30 9959 C 1088.05 -0.244403 1.86505 0
M  V30 9960 O 1087.41 -1.17668 1.37927 0
M  V30 9961 C 1087.46 1.9023 3.06341 0
M  V30 9962 O 1086.56 1.2136 3.94139 0
M  V30 9963 H 1085.9 0.413738 0.519343 0
M  V30 9964 H 1088.43 1.70227 1.13508 0
M  V30 9965 H 1088.44 1.98356 3.56537 0
M  V30 9966 H 1087.12 2.94762 2.93408 0
M  V30 9967 H 1085.7 1.21435 3.52573 0
M  V30 9968 N 1087.88 -1.11734 1.11145 0
M  V30 9969 C 1089.11 -1.87755 0.881062 0
M  V30 9970 C 1089.53 -1.79461 -0.563496 0
M  V30 9971 O 1088.89 -1.15481 -1.39763 0
M  V30 9972 C 1088.94 -3.34641 1.34342 0
M  V30 9973 O 1088.04 -4.09195 0.513157 0
M  V30 9974 H 1087.38 -0.583111 0.317613 0
M  V30 9975 H 1089.91 -1.41256 1.48013 0
M  V30 9976 H 1089.92 -3.85486 1.33658 0
M  V30 9977 H 1088.6 -3.39994 2.39534 0
M  V30 9978 H 1087.17 -3.68269 0.585833 0
M  V30 9979 N 1089.36 -0.901303 -1.29284 0
M  V30 9980 C 1090.78 -0.597634 -1.47988 0
M  V30 9981 C 1090.98 0.860434 -1.82205 0
M  V30 9982 O 1090.03 1.64049 -1.91948 0
M  V30 9983 C 1091.34 -1.52484 -2.5917 0
M  V30 9984 C 1092.89 -1.53021 -2.73045 0
M  V30 9985 C 1093.37 -2.44373 -3.87357 0
M  V30 9986 N 1094.86 -2.42429 -3.94693 0
M  V30 9987 C 1095.59 -3.09817 -4.82495 0
M  V30 9988 N 1095.09 -3.86489 -5.74976 0
M  V30 9989 N 1096.88 -2.98966 -4.76 0
M  V30 9990 H 1089.03 -1.84432 -1.0535 0
M  V30 9991 H 1091.3 -0.790367 -0.523473 0
M  V30 9992 H 1091 -2.56378 -2.40756 0
M  V30 9993 H 1090.88 -1.24657 -3.56006 0
M  V30 9994 H 1093.26 -0.498709 -2.90855 0
M  V30 9995 H 1093.34 -1.84886 -1.76779 0
M  V30 9996 H 1092.99 -3.47618 -3.70302 0
M  V30 9997 H 1092.92 -2.09817 -4.82995 0
M  V30 9998 H 1095.41 -1.86724 -3.28546 0
M  V30 9999 H 1095.72 -4.34959 -6.38773 0
M  V30 10000 H 1094.07 -3.90596 -5.74857 0
M  V30 10001 H 1097.26 -2.38581 -4.02737 0
M  V30 10002 H 1097.43 -3.51758 -5.44215 0
M  V30 10003 N 1090.84 1.42931 -0.663954 0
M  V30 10004 C 1092.06 2.06544 -0.188201 0
M  V30 10005 C 1092.49 1.495 1.14155 0
M  V30 10006 O 1091.85 0.609164 1.7076 0
M  V30 10007 C 1091.89 3.60393 -0.122105 0
M  V30 10008 O 1091 4.02176 0.91258 0
M  V30 10009 H 1090.34 0.656458 -0.0997967 0
M  V30 10010 H 1092.87 1.83253 -0.909909 0
M  V30 10011 H 1092.88 4.07959 0.0576568 0
M  V30 10012 H 1091.55 4.01287 -1.09276 0
M  V30 10013 H 1090.13 3.6618 0.704738 0
M  V30 10014 N 1092.32 0.406567 1.52266 0
M  V30 10015 C 1093.23 -0.4271 2.30679 0
M  V30 10016 C 1094.24 -1.0559 1.383 0
M  V30 10017 O 1095.42 -1.05797 1.71374 0
M  V30 10018 C 1092.48 -1.53008 3.1111 0
M  V30 10019 C 1091.54 -0.924604 4.19225 0
M  V30 10020 C 1090.78 -1.97502 4.95811 0
M  V30 10021 O 1091 -3.19277 4.72671 0
M  V30 10022 O 1089.93 -1.58268 5.80719 0
M  V30 10023 H 1093.76 0.212187 3.02958 0
M  V30 10024 H 1091.34 0.169835 1.48432 0
M  V30 10025 H 1093.23 -2.17046 3.61205 0
M  V30 10026 H 1091.9 -2.15401 2.41628 0
M  V30 10027 H 1090.81 -0.247009 3.73284 0
M  V30 10028 H 1092.14 -0.34463 4.90992 0
M  V30 10029 N 1093.79 -1.57004 0.136909 0
M  V30 10030 C 1094.73 -2.13355 -0.837405 0
M  V30 10031 C 1095.74 -1.08053 -1.21772 0
M  V30 10032 O 1096.93 -1.35365 -1.16355 0
M  V30 10033 C 1094.03 -2.63302 -2.13366 0
M  V30 10034 C 1093.2 -3.92896 -1.92228 0
M  V30 10035 C 1092.26 -4.28257 -3.05749 0
M  V30 10036 O 1091.29 -4.96761 -2.7788 0
M  V30 10037 N 1092.49 -3.87021 -4.3266 0
M  V30 10038 H 1095.25 -2.9758 -0.35586 0
M  V30 10039 H 1092.81 -1.61832 -0.0469758 0
M  V30 10040 H 1094.81 -2.83977 -2.88339 0
M  V30 10041 H 1093.38 -1.83858 -2.52814 0
M  V30 10042 H 1092.6 -3.80949 -1.01349 0
M  V30 10043 H 1093.88 -4.776 -1.75431 0
M  V30 10044 H 1093.28 -3.31804 -4.58173 0
M  V30 10045 H 1091.84 -4.12768 -5.04446 0
M  V30 10046 N 1095.27 0.136881 -1.57004 0
M  V30 10047 C 1096.22 1.17411 -1.95445 0
M  V30 10048 C 1097.21 1.38019 -0.827015 0
M  V30 10049 O 1098.4 1.39412 -1.09057 0
M  V30 10050 C 1095.53 2.50525 -2.34717 0
M  V30 10051 C 1094.61 2.33467 -3.54054 0
M  V30 10052 N 1095 1.86184 -4.70286 0
M  V30 10053 C 1093.3 2.64185 -3.59336 0
M  V30 10054 C 1094 1.82411 -5.5236 0
M  V30 10055 N 1092.98 2.26098 -4.94349 0
M  V30 10056 H 1096.78 0.8008 -2.8278 0
M  V30 10057 H 1094.3 0.344831 -1.58697 0
M  V30 10058 H 1096.29 3.2552 -2.60465 0
M  V30 10059 H 1094.95 2.8863 -1.48738 0
M  V30 10060 H 1095.96 1.55998 -4.93847 0
M  V30 10061 H 1092.64 3.06096 -2.83922 0
M  V30 10062 H 1094.03 1.4726 -6.55564 0
M  V30 10063 N 1096.75 1.52266 0.40654 0
M  V30 10064 C 1098 1.66123 1.15097 0
M  V30 10065 C 1098.32 0.394836 1.90961 0
M  V30 10066 O 1097.59 -0.590349 1.86793 0
M  V30 10067 H 1096.17 0.612317 0.427875 0
M  V30 10068 H 1098.83 1.89318 0.463106 0
M  V30 10069 H 1097.93 2.50351 1.86361 0
M  V30 10070 N 1098.23 -0.663929 1.42933 0
M  V30 10071 C 1099.45 -1.45691 1.47611 0
M  V30 10072 C 1099.88 -1.87875 0.0920305 0
M  V30 10073 O 1099.24 -1.56696 -0.91192 0
M  V30 10074 C 1099.28 -2.67517 2.41799 0
M  V30 10075 O 1098.39 -3.66187 1.89686 0
M  V30 10076 H 1097.73 -0.437257 0.499702 0
M  V30 10077 H 1100.26 -0.813397 1.87737 0
M  V30 10078 H 1100.27 -3.1546 2.58745 0
M  V30 10079 H 1098.94 -2.36155 3.4235 0
M  V30 10080 H 1097.52 -3.25274 1.82349 0
M  V30 10081 N 1099.71 -1.29285 -0.901281 0
M  V30 10082 C 1100.93 -1.20169 -1.69039 0
M  V30 10083 C 1101.36 0.234509 -1.86632 0
M  V30 10084 O 1100.71 1.16935 -1.38549 0
M  V30 10085 C 1100.76 -1.91852 -3.05328 0
M  V30 10086 O 1099.87 -1.23448 -3.9349 0
M  V30 10087 H 1099.21 -0.416486 -0.517141 0
M  V30 10088 H 1101.74 -1.70826 -1.12603 0
M  V30 10089 H 1101.75 -2.00244 -3.5548 0
M  V30 10090 H 1100.42 -2.96313 -2.91841 0
M  V30 10091 H 1099 -1.23303 -3.51924 0
M  V30 10092 N 1101.18 1.11143 -1.11736 0
M  V30 10093 C 1102.41 1.87285 -0.891007 0
M  V30 10094 C 1102.83 1.79758 0.553971 0
M  V30 10095 O 1102.19 1.16221 1.39149 0
M  V30 10096 C 1102.24 3.33924 -1.36114 0
M  V30 10097 O 1101.34 4.08917 -0.534851 0
M  V30 10098 H 1100.69 0.581418 -0.320701 0
M  V30 10099 H 1103.22 1.40469 -1.4876 0
M  V30 10100 H 1103.23 3.84772 -1.35701 0
M  V30 10101 H 1101.9 3.38719 -2.41334 0
M  V30 10102 H 1100.48 3.67954 -0.605355 0
M  V30 10103 N 1102.66 0.908147 1.28804 0
M  V30 10104 C 1103.91 0.53734 1.94826 0
M  V30 10105 C 1104.23 -0.920962 1.71882 0
M  V30 10106 O 1103.5 -1.65043 1.05534 0
M  V30 10107 H 1102.08 0.195729 0.720902 0
M  V30 10108 H 1104.74 1.15628 1.56895 0
M  V30 10109 H 1103.84 0.727052 3.03513 0
M  V30 10110 N 1104.14 -1.42577 0.671525 0
M  V30 10111 C 1105.07 -2.33499 0.00506984 0
M  V30 10112 C 1106.05 -1.50497 -0.792763 0
M  V30 10113 O 1107.24 -1.79109 -0.750574 0
M  V30 10114 C 1104.37 -3.34077 -0.949194 0
M  V30 10115 C 1103.32 -4.27208 -0.260187 0
M  V30 10116 C 1102.65 -5.17968 -1.32716 0
M  V30 10117 C 1103.95 -5.15192 0.858772 0
M  V30 10118 H 1105.64 -2.89477 0.764407 0
M  V30 10119 H 1103.19 -1.39191 0.369043 0
M  V30 10120 H 1105.14 -3.96594 -1.42448 0
M  V30 10121 H 1103.86 -2.76396 -1.73991 0
M  V30 10122 H 1102.52 -3.66082 0.194834 0
M  V30 10123 H 1102.17 -4.56615 -2.10979 0
M  V30 10124 H 1101.87 -5.81104 -0.871293 0
M  V30 10125 H 1103.39 -5.83359 -1.80345 0
M  V30 10126 H 1104.81 -5.71412 0.464844 0
M  V30 10127 H 1103.21 -5.87144 1.24023 0
M  V30 10128 H 1104.28 -4.53787 1.70895 0
M  V30 10129 N 1105.62 -0.414636 -1.52048 0
M  V30 10130 C 1106.84 0.161137 -2.06773 0
M  V30 10131 C 1107.27 1.37628 -1.2822 0
M  V30 10132 O 1106.63 1.78562 -0.313915 0
M  V30 10133 C 1106.67 0.48452 -3.5733 0
M  V30 10134 O 1105.78 1.57466 -3.81154 0
M  V30 10135 H 1105.12 0.0118003 -0.663895 0
M  V30 10136 H 1107.65 -0.589424 -1.95926 0
M  V30 10137 H 1107.66 0.741567 -4.01204 0
M  V30 10138 H 1106.33 -0.403733 -4.13936 0
M  V30 10139 H 1104.91 1.30935 -3.49157 0
M  V30 10140 N 1107.1 1.56929 -0.145233 0
M  V30 10141 C 1108.32 2.00864 0.516564 0
M  V30 10142 C 1108.75 1.02466 1.57741 0
M  V30 10143 O 1108.1 0.000145439 1.813 0
M  V30 10144 C 1108.15 3.43552 1.09563 0
M  V30 10145 O 1107.26 3.4815 2.21055 0
M  V30 10146 H 1106.6 0.651835 0.126521 0
M  V30 10147 H 1109.13 2.0317 -0.241445 0
M  V30 10148 H 1109.14 3.82316 1.42473 0
M  V30 10149 H 1107.81 4.14677 0.318749 0
M  V30 10150 H 1106.39 3.21228 1.89387 0
M  V30 10151 N 1108.58 -0.128553 1.57075 0
M  V30 10152 C 1109.8 -0.8564 1.88893 0
M  V30 10153 C 1110.23 -1.73095 0.736196 0
M  V30 10154 O 1109.58 -1.78567 -0.313629 0
M  V30 10155 C 1109.63 -1.67368 3.19406 0
M  V30 10156 O 1108.74 -2.77973 3.04639 0
M  V30 10157 H 1108.08 -0.237424 0.620102 0
M  V30 10158 H 1110.61 -0.113821 2.04283 0
M  V30 10159 H 1110.62 -2.0649 3.51889 0
M  V30 10160 H 1109.29 -1.03161 4.02903 0
M  V30 10161 H 1107.87 -2.42123 2.83603 0
M  V30 10162 N 1110.05 -1.5248 -0.398459 0
M  V30 10163 C 1111.28 -1.70677 -1.16417 0
M  V30 10164 C 1111.69 -0.420629 -1.84465 0
M  V30 10165 O 1111.03 0.614013 -1.73135 0
M  V30 10166 C 1111.1 -2.79401 -2.2622 0
M  V30 10167 C 1110.76 -4.20817 -1.78218 0
M  V30 10168 C 1111.76 -5.04298 -1.26409 0
M  V30 10169 C 1109.44 -4.67098 -1.84728 0
M  V30 10170 C 1111.44 -6.32136 -0.817461 0
M  V30 10171 C 1109.12 -5.94923 -1.39676 0
M  V30 10172 C 1110.12 -6.77272 -0.882716 0
M  V30 10173 O 1109.81 -8.02702 -0.438739 0
M  V30 10174 H 1109.54 -0.57503 -0.355411 0
M  V30 10175 H 1112.1 -1.99868 -0.473471 0
M  V30 10176 H 1110.33 -2.4561 -2.98685 0
M  V30 10177 H 1112.01 -2.86093 -2.87933 0
M  V30 10178 H 1112.78 -4.6973 -1.20744 0
M  V30 10179 H 1108.66 -4.03097 -2.23682 0
M  V30 10180 H 1112.2 -6.96361 -0.415548 0
M  V30 10181 H 1108.1 -6.28998 -1.45024 0
M  V30 10182 H 1108.87 -8.16575 -0.561079 0
M  V30 10183 N 1111.53 0.65634 -1.43283 0
M  V30 10184 C 1112.78 1.41347 -1.44449 0
M  V30 10185 C 1113.1 1.94879 -0.0687217 0
M  V30 10186 O 1112.37 1.74235 0.895492 0
M  V30 10187 H 1110.95 0.524578 -0.531815 0
M  V30 10188 H 1113.61 0.774292 -1.7886 0
M  V30 10189 H 1112.71 2.25737 -2.15521 0
M  V30 10190 N 1113.01 1.29761 0.894412 0
M  V30 10191 C 1113.94 1.1115 2.00445 0
M  V30 10192 C 1114.95 0.0574655 1.62699 0
M  V30 10193 O 1116.14 0.302528 1.75918 0
M  V30 10194 C 1113.24 0.670984 3.32191 0
M  V30 10195 C 1112.42 1.80471 3.98433 0
M  V30 10196 C 1111.48 1.35431 5.08473 0
M  V30 10197 O 1110.5 2.05994 5.30618 0
M  V30 10198 N 1111.7 0.22811 5.80052 0
M  V30 10199 H 1114.47 2.06753 2.16964 0
M  V30 10200 H 1112.03 1.21772 1.06692 0
M  V30 10201 H 1114.02 0.352877 4.03159 0
M  V30 10202 H 1112.59 -0.192735 3.12005 0
M  V30 10203 H 1111.81 2.29142 3.20761 0
M  V30 10204 H 1113.1 2.56471 4.39431 0
M  V30 10205 H 1112.5 -0.360076 5.64553 0
M  V30 10206 H 1111.05 -0.0305985 6.51793 0
M  V30 10207 N 1114.49 -1.10549 1.12324 0
M  V30 10208 C 1115.44 -2.14997 0.758979 0
M  V30 10209 C 1116.42 -1.59078 -0.241461 0
M  V30 10210 O 1117.61 -1.76937 -0.0471439 0
M  V30 10211 C 1114.74 -3.42633 0.21395 0
M  V30 10212 C 1113.83 -4.05487 1.24261 0
M  V30 10213 N 1114.22 -4.43064 2.43984 0
M  V30 10214 C 1112.52 -4.32534 1.08769 0
M  V30 10215 C 1113.22 -4.92427 3.09662 0
M  V30 10216 N 1112.19 -4.89161 2.37114 0
M  V30 10217 H 1116 -2.4184 1.67005 0
M  V30 10218 H 1113.51 -1.27659 1.00384 0
M  V30 10219 H 1115.51 -4.16849 -0.0651928 0
M  V30 10220 H 1114.17 -3.17249 -0.691591 0
M  V30 10221 H 1115.18 -4.34797 2.81375 0
M  V30 10222 H 1111.86 -4.16813 0.239354 0
M  V30 10223 H 1113.25 -5.31059 4.11614 0
M  V30 10224 N 1115.97 -0.914965 -1.28321 0
M  V30 10225 C 1117.21 -0.547665 -1.94538 0
M  V30 10226 C 1117.53 0.911834 -1.72368 0
M  V30 10227 O 1116.8 1.64481 -1.06408 0
M  V30 10228 H 1115.38 -0.199549 -0.719853 0
M  V30 10229 H 1118.05 -1.16459 -1.5628 0
M  V30 10230 H 1117.14 -0.743138 -3.03124 0
M  V30 10231 N 1117.44 1.42219 -0.679077 0
M  V30 10232 C 1118.67 2.06333 -0.210097 0
M  V30 10233 C 1119.09 1.50703 1.12562 0
M  V30 10234 O 1118.45 0.627241 1.70104 0
M  V30 10235 C 1118.5 3.60243 -0.160322 0
M  V30 10236 O 1117.6 4.03122 0.869872 0
M  V30 10237 H 1116.94 0.655362 -0.106754 0
M  V30 10238 H 1119.47 1.82278 -0.929294 0
M  V30 10239 H 1119.48 4.07997 0.014384 0
M  V30 10240 H 1118.16 4.00106 -1.13526 0
M  V30 10241 H 1116.74 3.66907 0.66586 0
M  V30 10242 N 1118.92 0.422693 1.51826 0
M  V30 10243 C 1120.17 -0.148348 2.01555 0
M  V30 10244 C 1120.49 -1.44483 1.30956 0
M  V30 10245 O 1119.76 -1.90904 0.439599 0
M  V30 10246 H 1118.34 -0.0578116 0.74476 0
M  V30 10247 H 1121 0.562046 1.8662 0
M  V30 10248 H 1120.1 -0.334766 3.10299 0
M  V30 10249 N 1120.4 -1.5685 0.153553 0
M  V30 10250 C 1121.62 -2.01135 -0.505904 0
M  V30 10251 C 1122.05 -1.03301 -1.57196 0
M  V30 10252 O 1121.41 -0.00976022 -1.81297 0
M  V30 10253 C 1121.46 -3.44129 -1.0774 0
M  V30 10254 O 1120.56 -3.49318 -2.19205 0
M  V30 10255 H 1119.9 -0.652496 -0.123062 0
M  V30 10256 H 1122.43 -2.03039 0.252216 0
M  V30 10257 H 1122.44 -3.83066 -1.40444 0
M  V30 10258 H 1121.12 -4.1484 -0.296754 0
M  V30 10259 H 1119.69 -3.22227 -1.8768 0
M  V30 10260 N 1121.88 0.120221 -1.57141 0
M  V30 10261 C 1122.83 1.15332 -1.96679 0
M  V30 10262 C 1123.81 1.37134 -0.841607 0
M  V30 10263 O 1125 1.38247 -1.10529 0
M  V30 10264 C 1122.13 2.48021 -2.37361 0
M  V30 10265 C 1121.22 2.29699 -3.5651 0
M  V30 10266 N 1121.61 1.81186 -4.72234 0
M  V30 10267 C 1119.91 2.60359 -3.62118 0
M  V30 10268 C 1120.61 1.76542 -5.54263 0
M  V30 10269 N 1119.58 2.20843 -4.96719 0
M  V30 10270 H 1123.39 0.770763 -2.83613 0
M  V30 10271 H 1120.9 0.327979 -1.59054 0
M  V30 10272 H 1122.9 3.22739 -2.63903 0
M  V30 10273 H 1121.56 2.87036 -1.51791 0
M  V30 10274 H 1122.57 1.50751 -4.95474 0
M  V30 10275 H 1119.25 3.03067 -2.87152 0
M  V30 10276 H 1120.64 1.40298 -6.57089 0
M  V30 10277 N 1123.36 1.52689 0.390367 0
M  V30 10278 C 1124.29 1.73622 1.49626 0
M  V30 10279 C 1125.3 0.616682 1.50668 0
M  V30 10280 O 1126.49 0.892341 1.54595 0
M  V30 10281 C 1123.59 1.77859 2.88477 0
M  V30 10282 C 1122.76 3.07146 3.11416 0
M  V30 10283 C 1121.82 3.02949 4.30242 0
M  V30 10284 O 1120.85 3.76816 4.26613 0
M  V30 10285 N 1122.05 2.22039 5.36357 0
M  V30 10286 H 1124.82 2.69037 1.32057 0
M  V30 10287 H 1122.38 1.51159 0.579867 0
M  V30 10288 H 1124.37 1.72559 3.66067 0
M  V30 10289 H 1122.94 0.898367 2.99413 0
M  V30 10290 H 1122.16 3.25947 2.21703 0
M  V30 10291 H 1123.45 3.92637 3.23595 0
M  V30 10292 H 1122.84 1.6149 5.4216 0
M  V30 10293 H 1121.4 2.2258 6.12619 0
M  V30 10294 N 1124.83 -0.648732 1.43629 0
M  V30 10295 C 1126.06 -1.44117 1.49148 0
M  V30 10296 C 1126.48 -1.87767 0.111952 0
M  V30 10297 O 1125.84 -1.57655 -0.895249 0
M  V30 10298 C 1125.89 -2.64938 2.44623 0
M  V30 10299 O 1124.99 -3.64155 1.93559 0
M  V30 10300 H 1124.34 -0.431933 0.504312 0
M  V30 10301 H 1126.87 -0.793439 1.88589 0
M  V30 10302 H 1126.88 -3.12698 2.62076 0
M  V30 10303 H 1125.55 -2.3251 3.44836 0
M  V30 10304 H 1124.13 -3.23322 1.85789 0
M  V30 10305 N 1126.31 -1.30234 -0.887518 0
M  V30 10306 C 1127.54 -1.21955 -1.67755 0
M  V30 10307 C 1127.96 0.214701 -1.86871 0
M  V30 10308 O 1127.32 1.15459 -1.39782 0
M  V30 10309 C 1127.37 -1.95079 -3.03276 0
M  V30 10310 O 1126.47 -1.27615 -3.92158 0
M  V30 10311 H 1125.81 -0.421948 -0.512695 0
M  V30 10312 H 1128.34 -1.72011 -1.10785 0
M  V30 10313 H 1128.35 -2.04004 -3.53336 0
M  V30 10314 H 1127.03 -2.99392 -2.88682 0
M  V30 10315 H 1125.61 -1.27029 -3.50597 0
M  V30 10316 N 1127.79 1.09952 -1.12909 0
M  V30 10317 C 1129.04 1.81657 -0.885729 0
M  V30 10318 C 1129.36 1.85863 0.589913 0
M  V30 10319 O 1128.63 1.34028 1.42875 0
M  V30 10320 H 1127.21 0.672743 -0.324694 0
M  V30 10321 H 1129.87 1.33013 -1.42456 0
M  V30 10322 H 1128.97 2.85018 -1.27167 0
M  V30 10323 N 1129.27 0.921757 1.27833 0
M  V30 10324 C 1130.22 0.387357 2.24685 0
M  V30 10325 C 1131.2 -0.505036 1.52768 0
M  V30 10326 O 1132.39 -0.34345 1.73636 0
M  V30 10327 C 1129.52 -0.364168 3.41363 0
M  V30 10328 C 1128.61 0.544401 4.20591 0
M  V30 10329 N 1129 1.66158 4.77729 0
M  V30 10330 C 1127.3 0.346289 4.44654 0
M  V30 10331 C 1128 2.22619 5.37416 0
M  V30 10332 N 1126.98 1.51648 5.22019 0
M  V30 10333 H 1130.78 1.24045 2.6644 0
M  V30 10334 H 1128.29 0.775338 1.42696 0
M  V30 10335 H 1130.29 -0.763917 4.09841 0
M  V30 10336 H 1128.95 -1.21426 3.01141 0
M  V30 10337 H 1129.96 2.04406 4.75856 0
M  V30 10338 H 1126.64 -0.46363 4.14918 0
M  V30 10339 H 1128.03 3.16641 5.92611 0
M  V30 10340 N 1130.75 -1.41857 0.686609 0
M  V30 10341 C 1131.99 -2.0097 0.213378 0
M  V30 10342 C 1132.32 -1.54618 -1.1882 0
M  V30 10343 O 1131.59 -0.772916 -1.80008 0
M  V30 10344 H 1130.17 -0.743134 0.0758968 0
M  V30 10345 H 1132.83 -1.73609 0.885763 0
M  V30 10346 H 1131.92 -3.11296 0.223826 0
M  V30 10347 N 1132.22 -0.430739 -1.51599 0
M  V30 10348 C 1133.64 -0.0826902 -1.59386 0
M  V30 10349 C 1133.84 1.40729 -1.44214 0
M  V30 10350 O 1132.9 2.1765 -1.28002 0
M  V30 10351 C 1134.21 -0.59691 -2.94716 0
M  V30 10352 C 1135.76 -0.556772 -3.08008 0
M  V30 10353 C 1136.23 -1.04786 -4.45852 0
M  V30 10354 N 1137.72 -1.00557 -4.52153 0
M  V30 10355 C 1138.46 -1.35649 -5.57124 0
M  V30 10356 N 1137.95 -1.77994 -6.69545 0
M  V30 10357 N 1139.75 -1.27508 -5.47447 0
M  V30 10358 H 1131.9 -1.40027 -1.59707 0
M  V30 10359 H 1134.16 -0.576606 -0.752482 0
M  V30 10360 H 1133.87 -1.63914 -3.11167 0
M  V30 10361 H 1133.74 -0.0182342 -3.77196 0
M  V30 10362 H 1136.13 0.476457 -2.91228 0
M  V30 10363 H 1136.21 -1.17177 -2.27383 0
M  V30 10364 H 1135.85 -2.07952 -4.63377 0
M  V30 10365 H 1135.78 -0.409461 -5.25006 0
M  V30 10366 H 1138.27 -0.694518 -3.71463 0
M  V30 10367 H 1138.59 -2.03026 -7.45654 0
M  V30 10368 H 1136.93 -1.81916 -6.70769 0
M  V30 10369 H 1140.12 -0.942969 -4.58504 0
M  V30 10370 H 1140.3 -1.55185 -6.29143 0
M  V30 10371 N 1133.7 1.56767 -0.161869 0
M  V30 10372 C 1134.63 2.1466 0.803356 0
M  V30 10373 C 1135.65 1.09977 1.20037 0
M  V30 10374 O 1136.84 1.37199 1.14187 0
M  V30 10375 C 1133.94 2.66663 2.09151 0
M  V30 10376 C 1133.11 3.95904 1.85953 0
M  V30 10377 C 1132.17 4.33067 2.98897 0
M  V30 10378 O 1131.19 5.01119 2.69942 0
M  V30 10379 N 1132.4 3.93856 4.26448 0
M  V30 10380 H 1135.16 2.98108 0.308472 0
M  V30 10381 H 1132.72 1.61886 0.0212238 0
M  V30 10382 H 1134.71 2.88528 2.83784 0
M  V30 10383 H 1133.28 1.87856 2.49857 0
M  V30 10384 H 1132.5 3.82513 0.952751 0
M  V30 10385 H 1133.79 4.8033 1.67811 0
M  V30 10386 H 1133.19 3.39051 4.52836 0
M  V30 10387 H 1131.75 4.20741 4.97815 0
M  V30 10388 N 1135.18 -0.111886 1.57202 0
M  V30 10389 C 1136.43 -0.816794 1.84859 0
M  V30 10390 C 1136.75 -1.80079 0.748113 0
M  V30 10391 O 1136.02 -1.94578 -0.227235 0
M  V30 10392 H 1134.6 -0.304633 0.682061 0
M  V30 10393 H 1137.26 -0.097513 1.94656 0
M  V30 10394 H 1136.36 -1.35768 2.81022 0
M  V30 10395 N 1136.66 -1.52894 -0.382264 0
M  V30 10396 C 1137.88 -1.72453 -1.15216 0
M  V30 10397 C 1138.31 -0.444925 -1.82762 0
M  V30 10398 O 1137.67 0.599825 -1.7109 0
M  V30 10399 C 1137.71 -2.87939 -2.17079 0
M  V30 10400 O 1136.82 -2.55383 -3.23811 0
M  V30 10401 H 1136.16 -0.57324 -0.335099 0
M  V30 10402 H 1138.69 -1.99713 -0.444495 0
M  V30 10403 H 1138.7 -3.13628 -2.60963 0
M  V30 10404 H 1137.37 -3.80765 -1.67305 0
M  V30 10405 H 1135.95 -2.40457 -2.85018 0
M  V30 10406 N 1138.14 0.641106 -1.43971 0
M  V30 10407 C 1139.39 1.39807 -1.4594 0
M  V30 10408 C 1139.71 1.94795 -0.0893874 0
M  V30 10409 O 1138.98 1.75175 0.876962 0
M  V30 10410 H 1137.56 0.518908 -0.537349 0
M  V30 10411 H 1140.22 0.755278 -1.79671 0
M  V30 10412 H 1139.31 2.23439 -2.17903 0
M  V30 10413 N 1139.62 1.30703 0.880598 0
M  V30 10414 C 1140.84 1.22843 1.67106 0
M  V30 10415 C 1141.27 -0.204788 1.86982 0
M  V30 10416 O 1140.62 -1.14716 1.40392 0
M  V30 10417 C 1140.67 1.96685 3.02237 0
M  V30 10418 O 1139.78 1.29693 3.91476 0
M  V30 10419 H 1139.12 0.424661 0.51045 0
M  V30 10420 H 1141.65 1.72596 1.09871 0
M  V30 10421 H 1141.66 2.05874 3.52249 0
M  V30 10422 H 1140.33 3.00919 2.8709 0
M  V30 10423 H 1138.91 1.28886 3.49918 0
M  V30 10424 N 1141.09 -1.09351 1.1349 0
M  V30 10425 C 1142.34 -1.81185 0.89535 0
M  V30 10426 C 1142.66 -1.86173 -0.580048 0
M  V30 10427 O 1141.93 -1.34784 -1.42162 0
M  V30 10428 H 1140.51 -0.671011 0.328257 0
M  V30 10429 H 1143.17 -1.32255 1.43159 0
M  V30 10430 H 1142.27 -2.84339 1.28676 0
M  V30 10431 N 1142.57 -0.928524 -1.27343 0
M  V30 10432 C 1143.52 -0.399267 -2.24477 0
M  V30 10433 C 1144.51 0.496927 -1.53034 0
M  V30 10434 O 1145.7 0.334237 -1.73816 0
M  V30 10435 C 1142.83 0.346059 -3.41551 0
M  V30 10436 C 1141.91 -0.566699 -4.20297 0
M  V30 10437 N 1142.3 -1.6869 -4.76841 0
M  V30 10438 C 1140.6 -0.369865 -4.44464 0
M  V30 10439 C 1141.3 -2.25466 -5.36228 0
M  V30 10440 N 1140.28 -1.54414 -5.21207 0
M  V30 10441 H 1144.08 -1.25456 -2.65778 0
M  V30 10442 H 1141.59 -0.782894 -1.42283 0
M  V30 10443 H 1143.59 0.742171 -4.10241 0
M  V30 10444 H 1142.25 1.19827 -3.01781 0
M  V30 10445 H 1143.26 -2.06926 -4.74765 0
M  V30 10446 H 1139.94 0.441619 -4.15158 0
M  V30 10447 H 1141.33 -3.19779 -5.90924 0
M  V30 10448 N 1144.05 1.41491 -0.694123 0
M  V30 10449 C 1145.27 2.06099 -0.23197 0
M  V30 10450 C 1145.7 1.51888 1.10958 0
M  V30 10451 O 1145.06 0.645247 1.69429 0
M  V30 10452 C 1145.11 3.60053 -0.198522 0
M  V30 10453 O 1144.21 4.04021 0.827067 0
M  V30 10454 H 1143.55 0.654193 -0.113699 0
M  V30 10455 H 1146.08 1.81282 -0.948575 0
M  V30 10456 H 1146.09 4.0799 -0.0288904 0
M  V30 10457 H 1144.77 3.98879 -1.17764 0
M  V30 10458 H 1143.34 3.67593 0.626908 0
M  V30 10459 N 1145.53 0.438773 1.51369 0
M  V30 10460 C 1146.94 -0.0240139 1.86685 0
M  V30 10461 C 1147.29 -1.41816 1.35583 0
M  V30 10462 O 1146.41 -2.04517 0.707232 0
M  V30 10463 C 1147.01 -0.0503527 3.38763 0
M  V30 10464 C 1145.57 -0.457556 3.73609 0
M  V30 10465 C 1144.72 0.348852 2.75097 0
M  V30 10466 H 1147.67 0.654552 1.44573 0
M  V30 10467 H 1147.69 -0.859534 3.70665 0
M  V30 10468 H 1147.2 0.964451 3.75925 0
M  V30 10469 H 1145.3 -1.47791 3.42036 0
M  V30 10470 H 1145.41 -0.181357 4.78757 0
M  V30 10471 H 1143.78 -0.193037 2.53967 0
M  V30 10472 H 1144.56 1.36256 3.15102 0
M  V30 10473 N 1147.01 -1.56678 0.170181 0
M  V30 10474 C 1148.23 -2.0166 -0.484543 0
M  V30 10475 C 1148.66 -1.04962 -1.56091 0
M  V30 10476 O 1148.01 -0.0289887 -1.81277 0
M  V30 10477 C 1148.06 -3.45252 -1.04084 0
M  V30 10478 O 1147.17 -3.51623 -2.15488 0
M  V30 10479 H 1146.51 -0.653765 -0.116135 0
M  V30 10480 H 1149.04 -2.02761 0.273737 0
M  V30 10481 H 1149.05 -3.84534 -1.36373 0
M  V30 10482 H 1147.72 -4.15131 -0.252738 0
M  V30 10483 H 1146.3 -3.242 -1.84252 0
M  V30 10484 N 1148.48 0.103547 -1.57259 0
M  V30 10485 C 1149.9 0.457527 -1.52901 0
M  V30 10486 C 1150.1 1.80995 -0.8856 0
M  V30 10487 O 1149.16 2.48001 -0.474504 0
M  V30 10488 C 1150.47 0.427793 -2.97641 0
M  V30 10489 C 1152.02 0.51025 -3.08813 0
M  V30 10490 C 1152.49 0.51075 -4.55143 0
M  V30 10491 N 1153.98 0.571748 -4.59658 0
M  V30 10492 C 1154.72 0.593836 -5.70317 0
M  V30 10493 N 1154.21 0.572638 -6.90429 0
M  V30 10494 N 1156.01 0.638011 -5.58467 0
M  V30 10495 H 1148.16 -0.782408 -1.97464 0
M  V30 10496 H 1150.42 -0.290324 -0.90245 0
M  V30 10497 H 1150.13 -0.498608 -3.48148 0
M  V30 10498 H 1150 1.24991 -3.55889 0
M  V30 10499 H 1152.39 1.42707 -2.583 0
M  V30 10500 H 1152.47 -0.339846 -2.53532 0
M  V30 10501 H 1152.11 -0.40209 -5.06306 0
M  V30 10502 H 1152.04 1.37794 -5.08252 0
M  V30 10503 H 1154.53 0.593668 -3.73208 0
M  V30 10504 H 1154.85 0.592542 -7.70525 0
M  V30 10505 H 1153.19 0.539818 -6.929 0
M  V30 10506 H 1156.38 0.652042 -4.63536 0
M  V30 10507 H 1156.56 0.651756 -6.44714 0
M  V30 10508 N 1149.96 1.53094 0.37415 0
M  V30 10509 C 1151.21 1.69111 1.11934 0
M  V30 10510 C 1151.54 0.437252 1.89213 0
M  V30 10511 O 1150.82 -0.565298 1.86104 0
M  V30 10512 C 1151.1 2.93559 2.08554 0
M  V30 10513 C 1150.95 4.29082 1.3494 0
M  V30 10514 C 1152.27 3.13586 3.08791 0
M  V30 10515 H 1149.39 0.615383 0.405553 0
M  V30 10516 H 1152.03 1.85719 0.401078 0
M  V30 10517 H 1150.18 2.79531 2.69805 0
M  V30 10518 H 1151.85 4.54906 0.765402 0
M  V30 10519 H 1150.1 4.28884 0.651238 0
M  V30 10520 H 1150.77 5.12275 2.05616 0
M  V30 10521 H 1153.24 3.26743 2.57639 0
M  V30 10522 H 1152.12 4.02112 3.73627 0
M  V30 10523 H 1152.38 2.28475 3.78486 0
M  V30 10524 N 1151.44 -0.633461 1.44309 0
M  V30 10525 C 1152.86 -0.951379 1.28144 0
M  V30 10526 C 1153.06 -2.00344 0.215512 0
M  V30 10527 O 1152.11 -2.49321 -0.399389 0
M  V30 10528 C 1153.42 -1.41686 2.65227 0
M  V30 10529 C 1154.97 -1.53247 2.72918 0
M  V30 10530 C 1155.45 -2.03179 4.10466 0
M  V30 10531 N 1156.94 -2.10453 4.1263 0
M  V30 10532 C 1157.67 -2.50254 5.15907 0
M  V30 10533 N 1157.17 -2.89209 6.29547 0
M  V30 10534 N 1158.96 -2.50368 5.03262 0
M  V30 10535 H 1151.11 0.0623574 2.12308 0
M  V30 10536 H 1153.38 -0.0347244 0.947364 0
M  V30 10537 H 1153.08 -0.71814 3.4429 0
M  V30 10538 H 1152.96 -2.3883 2.91959 0
M  V30 10539 H 1155.34 -2.22216 1.94176 0
M  V30 10540 H 1155.42 -0.544836 2.4993 0
M  V30 10541 H 1155.07 -1.34806 4.89683 0
M  V30 10542 H 1155 -3.02809 4.3083 0
M  V30 10543 H 1157.49 -1.83042 3.30612 0
M  V30 10544 H 1157.8 -3.18386 7.04166 0
M  V30 10545 H 1156.15 -2.86966 6.32989 0
M  V30 10546 H 1159.34 -2.19324 4.13539 0
M  V30 10547 H 1159.51 -2.81062 5.83873 0
M  V30 10548 N 1152.92 -1.31168 -0.873655 0
M  V30 10549 C 1153.87 -1.15107 -1.9681 0
M  V30 10550 C 1154.85 -0.0630813 -1.60776 0
M  V30 10551 O 1156.04 -0.28761 -1.74648 0
M  V30 10552 C 1153.17 -0.856705 -3.32439 0
M  V30 10553 C 1152.26 -1.9855 -3.74752 0
M  V30 10554 N 1152.65 -3.23213 -3.89059 0
M  V30 10555 C 1150.95 -1.8844 -4.04235 0
M  V30 10556 C 1151.65 -3.97026 -4.25141 0
M  V30 10557 N 1150.63 -3.25165 -4.35624 0
M  V30 10558 H 1154.43 -2.09643 -2.05978 0
M  V30 10559 H 1151.94 -1.22672 -1.06421 0
M  V30 10560 H 1153.94 -0.722635 -4.10589 0
M  V30 10561 H 1152.6 0.0804676 -3.246 0
M  V30 10562 H 1153.61 -3.58372 -3.73885 0
M  V30 10563 H 1150.29 -1.02164 -4.04807 0
M  V30 10564 H 1151.68 -5.04437 -4.43839 0
M  V30 10565 N 1154.4 1.08748 -1.14068 0
M  V30 10566 C 1155.64 1.80707 -0.904947 0
M  V30 10567 C 1155.97 1.86478 0.570167 0
M  V30 10568 O 1155.24 1.35536 1.41445 0
M  V30 10569 H 1153.82 0.669261 -0.331811 0
M  V30 10570 H 1156.48 1.31494 -1.43859 0
M  V30 10571 H 1155.57 2.83653 -1.30182 0
M  V30 10572 N 1155.87 0.935264 1.26849 0
M  V30 10573 C 1157.1 0.595704 1.98661 0
M  V30 10574 C 1157.52 -0.821001 1.69237 0
M  V30 10575 O 1156.88 -1.55211 0.936982 0
M  V30 10576 C 1156.93 0.837275 3.50745 0
M  V30 10577 O 1156.03 -0.0934914 4.12294 0
M  V30 10578 H 1155.38 0.228512 0.623441 0
M  V30 10579 H 1157.91 1.25658 1.61466 0
M  V30 10580 H 1157.92 0.755827 4.00938 0
M  V30 10581 H 1156.59 1.86993 3.71492 0
M  V30 10582 H 1155.17 0.0385124 3.7288 0
M  V30 10583 N 1157.35 -1.41121 0.701616 0
M  V30 10584 C 1158.58 -2.05973 0.242896 0
M  V30 10585 C 1159 -1.52474 -1.10151 0
M  V30 10586 O 1158.36 -0.654224 -1.69085 0
M  V30 10587 C 1158.41 -3.59943 0.217614 0
M  V30 10588 O 1157.51 -4.04454 -0.805629 0
M  V30 10589 H 1156.85 -0.653581 0.117166 0
M  V30 10590 H 1159.38 -1.80777 0.958175 0
M  V30 10591 H 1159.39 -4.07969 0.0505267 0
M  V30 10592 H 1158.07 -3.98249 1.19877 0
M  V30 10593 H 1156.65 -3.6792 -0.607404 0
M  V30 10594 N 1158.83 -0.446794 -1.51134 0
M  V30 10595 C 1160.06 0.117242 -2.07068 0
M  V30 10596 C 1160.48 1.34877 -1.3111 0
M  V30 10597 O 1159.84 1.77856 -0.35172 0
M  V30 10598 C 1159.89 0.408616 -3.58277 0
M  V30 10599 O 1158.99 1.49345 -3.84408 0
M  V30 10600 H 1158.33 -0.00228458 -0.663996 0
M  V30 10601 H 1160.86 -0.63085 -1.94632 0
M  V30 10602 H 1160.87 0.656298 -4.02687 0
M  V30 10603 H 1159.55 -0.491444 -4.12986 0
M  V30 10604 H 1158.12 1.23499 -3.51856 0
M  V30 10605 N 1160.31 1.56586 -0.178487 0
M  V30 10606 C 1161.56 1.96709 0.4637 0
M  V30 10607 C 1161.88 1.06586 1.63292 0
M  V30 10608 O 1161.15 0.133683 1.95443 0
M  V30 10609 H 1159.73 0.726381 0.174299 0
M  V30 10610 H 1162.39 1.9314 -0.261345 0
M  V30 10611 H 1161.49 3.01164 0.818934 0
M  V30 10612 N 1161.79 -0.095206 1.57312 0
M  V30 10613 C 1162.74 -1.12188 1.98489 0
M  V30 10614 C 1163.72 -1.35778 0.863317 0
M  V30 10615 O 1164.91 -1.36471 1.12715 0
M  V30 10616 C 1162.04 -2.44214 2.41277 0
M  V30 10617 C 1161.13 -2.23998 3.60119 0
M  V30 10618 N 1161.52 -1.7365 4.75057 0
M  V30 10619 C 1159.82 -2.54565 3.66214 0
M  V30 10620 C 1160.52 -1.67702 5.57002 0
M  V30 10621 N 1159.49 -2.12912 5.00169 0
M  V30 10622 H 1163.3 -0.725545 2.84804 0
M  V30 10623 H 1160.81 -0.302634 1.59555 0
M  V30 10624 H 1162.81 -3.185 2.69004 0
M  V30 10625 H 1161.47 -2.84585 1.56339 0
M  V30 10626 H 1162.48 -1.42849 4.9781 0
M  V30 10627 H 1159.15 -2.98461 2.91937 0
M  V30 10628 H 1160.54 -1.29827 6.59238 0
M  V30 10629 N 1163.26 -1.53291 -0.366026 0
M  V30 10630 C 1164.49 -1.73665 -1.13381 0
M  V30 10631 C 1164.91 -0.464284 -1.8228 0
M  V30 10632 O 1164.27 0.581645 -1.71717 0
M  V30 10633 C 1164.32 -2.90225 -2.14013 0
M  V30 10634 O 1163.42 -2.58803 -3.21084 0
M  V30 10635 H 1162.77 -0.576762 -0.329 0
M  V30 10636 H 1165.3 -2.00174 -0.423287 0
M  V30 10637 H 1165.31 -3.16378 -2.57622 0
M  V30 10638 H 1163.98 -3.82518 -1.63257 0
M  V30 10639 H 1162.56 -2.43466 -2.82451 0
M  V30 10640 N 1164.74 0.6258 -1.44643 0
M  V30 10641 C 1165.97 1.41726 -1.51422 0
M  V30 10642 C 1166.39 1.87565 -0.14181 0
M  V30 10643 O 1165.75 1.59059 0.870054 0
M  V30 10644 C 1165.8 2.61012 -2.48807 0
M  V30 10645 O 1164.9 3.61029 -1.99328 0
M  V30 10646 H 1164.24 0.423855 -0.511119 0
M  V30 10647 H 1166.77 0.763336 -1.89827 0
M  V30 10648 H 1166.78 3.08489 -2.67018 0
M  V30 10649 H 1165.46 2.26995 -3.48491 0
M  V30 10650 H 1164.04 3.20325 -1.90909 0
M  V30 10651 N 1166.22 1.31629 0.866686 0
M  V30 10652 C 1167.45 1.24609 1.65793 0
M  V30 10653 C 1167.87 -0.184944 1.87189 0
M  V30 10654 O 1167.23 -1.1322 1.41601 0
M  V30 10655 C 1167.28 1.9988 3.00134 0
M  V30 10656 O 1166.38 1.33838 3.90079 0
M  V30 10657 H 1165.72 0.430051 0.505917 0
M  V30 10658 H 1168.25 1.73752 1.08035 0
M  V30 10659 H 1168.26 2.09599 3.50046 0
M  V30 10660 H 1166.94 3.03947 2.83882 0
M  V30 10661 H 1165.51 1.3259 3.48532 0
M  V30 10662 N 1167.7 -1.08142 1.14644 0
M  V30 10663 C 1168.65 -2.13338 0.804412 0
M  V30 10664 C 1169.63 -1.59554 -0.207664 0
M  V30 10665 O 1170.83 -1.76997 -0.00960233 0
M  V30 10666 C 1167.95 -3.42102 0.286579 0
M  V30 10667 C 1167.04 -4.0276 1.32834 0
M  V30 10668 N 1167.43 -4.37789 2.53327 0
M  V30 10669 C 1165.73 -4.30129 1.17919 0
M  V30 10670 C 1166.43 -4.85748 3.20037 0
M  V30 10671 N 1165.41 -4.84021 2.47436 0
M  V30 10672 H 1169.21 -2.38243 1.72097 0
M  V30 10673 H 1166.72 -1.25501 1.0307 0
M  V30 10674 H 1168.72 -4.16894 0.0232417 0
M  V30 10675 H 1167.38 -3.18645 -0.624142 0
M  V30 10676 H 1168.39 -4.28731 2.90534 0
M  V30 10677 H 1165.07 -4.16212 0.327713 0
M  V30 10678 H 1166.46 -5.22208 4.22786 0
M  V30 10679 N 1169.18 -0.941978 -1.26351 0
M  V30 10680 C 1170.43 -0.588806 -1.93333 0
M  V30 10681 C 1170.75 0.875067 -1.74263 0
M  V30 10682 O 1170.02 1.62187 -1.09873 0
M  V30 10683 H 1168.6 -0.214774 -0.715459 0
M  V30 10684 H 1171.26 -1.19747 -1.53774 0
M  V30 10685 H 1170.35 -0.807267 -3.01479 0
M  V30 10686 N 1170.66 1.40747 -0.709091 0
M  V30 10687 C 1171.59 2.29196 -0.0130359 0
M  V30 10688 C 1172.6 1.45491 0.730487 0
M  V30 10689 O 1173.79 1.6885 0.578944 0
M  V30 10690 C 1170.89 3.23632 1.00577 0
M  V30 10691 C 1170.06 4.3616 0.329105 0
M  V30 10692 C 1169.12 5.11079 1.25239 0
M  V30 10693 O 1168.15 5.64374 0.739641 0
M  V30 10694 N 1169.35 5.1982 2.58394 0
M  V30 10695 H 1172.11 2.89574 -0.772462 0
M  V30 10696 H 1169.68 1.52046 -0.556197 0
M  V30 10697 H 1171.67 3.70622 1.62546 0
M  V30 10698 H 1170.24 2.64467 1.66661 0
M  V30 10699 H 1169.46 3.9138 -0.470683 0
M  V30 10700 H 1170.75 5.08605 -0.140856 0
M  V30 10701 H 1170.14 4.77992 3.02556 0
M  V30 10702 H 1168.7 5.7034 3.15524 0
M  V30 10703 N 1172.13 0.454803 1.50895 0
M  V30 10704 C 1173.08 -0.366073 2.25042 0
M  V30 10705 C 1174.07 -0.975353 1.27967 0
M  V30 10706 O 1175.26 -0.8906 1.52962 0
M  V30 10707 C 1172.39 -1.45683 3.10856 0
M  V30 10708 C 1171.47 -0.856086 4.1537 0
M  V30 10709 N 1171.87 0.0138787 5.05798 0
M  V30 10710 C 1170.16 -1.1218 4.31661 0
M  V30 10711 C 1170.86 0.35313 5.80627 0
M  V30 10712 N 1169.84 -0.267648 5.42941 0
M  V30 10713 H 1173.64 0.304357 2.9232 0
M  V30 10714 H 1171.16 0.267937 1.60174 0
M  V30 10715 H 1173.15 -2.05793 3.62567 0
M  V30 10716 H 1171.81 -2.12942 2.45124 0
M  V30 10717 H 1172.82 0.381574 5.16492 0
M  V30 10718 H 1169.5 -1.79059 3.77153 0
M  V30 10719 H 1170.89 1.06213 6.63452 0
M  V30 10720 N 1173.61 -1.56489 0.186789 0
M  V30 10721 C 1174.86 -1.96952 -0.453261 0
M  V30 10722 C 1175.18 -1.07451 -1.62725 0
M  V30 10723 O 1174.45 -0.144046 -1.9537 0
M  V30 10724 H 1173.03 -0.727295 -0.170445 0
M  V30 10725 H 1175.69 -1.92999 0.271584 0
M  V30 10726 H 1174.79 -3.01594 -0.802951 0
M  V30 10727 N 1175.09 0.086862 -1.5736 0
M  V30 10728 C 1176.31 0.806017 -1.91097 0
M  V30 10729 C 1176.74 1.71082 -0.78183 0
M  V30 10730 O 1176.1 1.79335 0.266175 0
M  V30 10731 C 1176.15 1.5884 -3.23732 0
M  V30 10732 O 1175.25 2.69798 -3.11902 0
M  V30 10733 H 1174.59 0.220899 -0.626179 0
M  V30 10734 H 1177.12 0.059619 -2.04513 0
M  V30 10735 H 1177.13 1.97088 -3.5724 0
M  V30 10736 H 1175.81 0.924426 -4.05496 0
M  V30 10737 H 1174.38 2.34519 -2.89923 0
M  V30 10738 N 1176.57 1.53483 0.357892 0
M  V30 10739 C 1177.82 1.69701 1.09754 0
M  V30 10740 C 1178.14 0.455389 1.89608 0
M  V30 10741 O 1177.41 -0.530623 1.88577 0
M  V30 10742 H 1175.99 0.62562 0.408178 0
M  V30 10743 H 1178.65 1.90696 0.402641 0
M  V30 10744 H 1177.74 2.56154 1.78302 0
M  V30 10745 N 1178.05 -0.61812 1.44973 0
M  V30 10746 C 1179.27 -1.40429 1.51945 0
M  V30 10747 C 1179.69 -1.88215 0.148556 0
M  V30 10748 O 1179.05 -1.61603 -0.847978 0
M  V30 10749 C 1179.1 -2.61588 2.49507 0
M  V30 10750 O 1178.82 -2.15791 3.81269 0
M  V30 10751 C 1180.32 -3.5457 2.66074 0
M  V30 10752 H 1177.54 -0.43023 0.514921 0
M  V30 10753 H 1180.08 -0.754791 1.90061 0
M  V30 10754 H 1178.24 -3.22602 2.14492 0
M  V30 10755 H 1178.65 -2.94434 4.34061 0
M  V30 10756 H 1180.13 -4.36155 3.38338 0
M  V30 10757 H 1180.6 -4.04227 1.71746 0
M  V30 10758 H 1181.21 -2.99416 3.02043 0
M  V30 10759 N 1179.52 -1.32087 -0.859693 0
M  V30 10760 C 1180.75 -1.25486 -1.6513 0
M  V30 10761 C 1181.17 0.175015 -1.87284 0
M  V30 10762 O 1180.53 1.12468 -1.42199 0
M  V30 10763 C 1180.58 -2.01469 -2.9907 0
M  V30 10764 O 1179.68 -1.35904 -3.89363 0
M  V30 10765 H 1179.02 -0.432728 -0.503629 0
M  V30 10766 H 1181.55 -1.74322 -1.07112 0
M  V30 10767 H 1181.56 -2.11452 -3.4893 0
M  V30 10768 H 1180.24 -3.05448 -2.82266 0
M  V30 10769 H 1178.82 -1.34437 -3.47823 0
M  V30 10770 N 1181 1.07532 -1.15215 0
M  V30 10771 C 1182.24 1.81689 -0.936396 0
M  V30 10772 C 1182.61 1.84622 0.527136 0
M  V30 10773 O 1183.81 2.54632 0.861159 0
M  V30 10774 C 1182.08 3.22919 -1.53161 0
M  V30 10775 S 1183.64 4.13845 -1.4587 0
M  V30 10776 H 1180.45 0.626036 -0.337045 0
M  V30 10777 H 1183.06 1.29191 -1.4673 0
M  V30 10778 H 1181.76 3.18372 -2.58974 0
M  V30 10779 H 1181.29 3.80492 -0.999482 0
M  V30 10780 H 1183.31 4.94152 -0.450317 0
M  V30 10781 N 1182.48 0.948665 1.2585 0
M  V30 10782 C 1183.71 0.616741 1.98018 0
M  V30 10783 C 1184.13 -0.803005 1.70098 0
M  V30 10784 O 1183.49 -1.54208 0.953392 0
M  V30 10785 C 1183.54 0.874429 3.49837 0
M  V30 10786 O 1182.64 -0.0497568 4.1237 0
M  V30 10787 H 1181.98 0.235112 0.620982 0
M  V30 10788 H 1184.51 1.27364 1.60124 0
M  V30 10789 H 1184.52 0.798309 4.00114 0
M  V30 10790 H 1183.2 1.90922 3.69488 0
M  V30 10791 H 1181.77 0.0780591 3.72818 0
M  V30 10792 N 1183.96 -1.40369 0.716545 0
M  V30 10793 C 1185.18 -2.05704 0.264729 0
M  V30 10794 C 1185.61 -1.53634 -1.08527 0
M  V30 10795 O 1184.97 -0.67212 -1.68381 0
M  V30 10796 C 1185.01 -3.59692 0.255778 0
M  V30 10797 O 1184.12 -4.05286 -0.762686 0
M  V30 10798 H 1183.46 -0.652301 0.124092 0
M  V30 10799 H 1185.99 -1.7975 0.977295 0
M  V30 10800 H 1186 -4.07892 0.0937944 0
M  V30 10801 H 1184.67 -3.96955 1.24095 0
M  V30 10802 H 1183.25 -3.68543 -0.568347 0
M  V30 10803 N 1185.44 -0.462799 -1.50652 0
M  V30 10804 C 1186.66 0.0952726 -2.07181 0
M  V30 10805 C 1187.09 1.33479 -1.32533 0
M  V30 10806 O 1186.44 1.77473 -0.370564 0
M  V30 10807 C 1186.49 0.370592 -3.58691 0
M  V30 10808 O 1185.6 1.4526 -3.85971 0
M  V30 10809 H 1184.94 -0.00932702 -0.663934 0
M  V30 10810 H 1187.47 -0.651458 -1.93951 0
M  V30 10811 H 1187.48 0.613551 -4.0336 0
M  V30 10812 H 1186.15 -0.535219 -4.12442 0
M  V30 10813 H 1184.73 1.1976 -3.53146 0
M  V30 10814 N 1186.91 1.56388 -0.195085 0
M  V30 10815 C 1188.15 1.99478 0.445855 0
M  V30 10816 C 1188.52 1.0792 1.588 0
M  V30 10817 O 1189.72 1.40246 2.29313 0
M  V30 10818 C 1187.99 3.46032 0.894248 0
M  V30 10819 S 1189.55 4.11149 1.53303 0
M  V30 10820 H 1186.37 0.696558 0.142575 0
M  V30 10821 H 1188.97 1.93213 -0.298149 0
M  V30 10822 H 1187.67 4.10366 0.0529258 0
M  V30 10823 H 1187.2 3.56114 1.67172 0
M  V30 10824 H 1189.22 4.08155 2.82177 0
M  V30 10825 N 1188.39 -0.0785156 1.57404 0
M  V30 10826 C 1189.64 -0.777399 1.8655 0
M  V30 10827 C 1189.96 -1.78451 0.786142 0
M  V30 10828 O 1189.23 -1.95016 -0.185911 0
M  V30 10829 H 1187.81 -0.290097 0.688369 0
M  V30 10830 H 1190.47 -0.0562017 1.94819 0
M  V30 10831 H 1189.57 -1.29776 2.83839 0
M  V30 10832 N 1189.87 -1.5367 -0.349747 0
M  V30 10833 C 1190.82 -1.77604 -1.42972 0
M  V30 10834 C 1191.8 -0.631036 -1.48009 0
M  V30 10835 O 1193 -0.890228 -1.52983 0
M  V30 10836 C 1190.13 -1.98354 -2.80198 0
M  V30 10837 C 1189.21 -3.18901 -2.79576 0
M  V30 10838 N 1189.6 -4.40497 -2.48589 0
M  V30 10839 C 1187.9 -3.19945 -3.10727 0
M  V30 10840 C 1188.6 -5.22318 -2.56045 0
M  V30 10841 N 1187.58 -4.5889 -2.91412 0
M  V30 10842 H 1191.38 -2.69215 -1.17901 0
M  V30 10843 H 1188.89 -1.5251 -0.558062 0
M  V30 10844 H 1190.89 -2.13632 -3.58004 0
M  V30 10845 H 1189.55 -1.07981 -3.06219 0
M  V30 10846 H 1190.56 -4.67955 -2.21898 0
M  V30 10847 H 1187.24 -2.39519 -3.41961 0
M  V30 10848 H 1188.63 -6.29352 -2.35299 0
M  V30 10849 N 1191.35 0.610423 -1.45298 0
M  V30 10850 C 1192.58 1.39419 -1.52466 0
M  V30 10851 C 1192.99 1.88563 -0.1551 0
M  V30 10852 O 1192.33 1.62692 0.853061 0
M  V30 10853 C 1192.39 2.63515 -2.44541 0
M  V30 10854 C 1192.06 2.36028 -3.91331 0
M  V30 10855 C 1193.05 1.96567 -4.81308 0
M  V30 10856 C 1190.74 2.49028 -4.36223 0
M  V30 10857 C 1192.73 1.70461 -6.14184 0
M  V30 10858 C 1190.42 2.22536 -5.6914 0
M  V30 10859 C 1191.42 1.83314 -6.5794 0
M  V30 10860 O 1191.1 1.57131 -7.88394 0
M  V30 10861 H 1190.84 0.433278 -0.518889 0
M  V30 10862 H 1193.39 0.751803 -1.91147 0
M  V30 10863 H 1191.62 3.30463 -2.00826 0
M  V30 10864 H 1193.31 3.25554 -2.42424 0
M  V30 10865 H 1194.08 1.86062 -4.4789 0
M  V30 10866 H 1189.95 2.78524 -3.67349 0
M  V30 10867 H 1193.5 1.39773 -6.83454 0
M  V30 10868 H 1189.4 2.32657 -6.02114 0
M  V30 10869 H 1190.16 1.71207 -8.00394 0
M  V30 10870 N 1192.83 1.32541 0.852676 0
M  V30 10871 C 1193.74 1.23646 1.99371 0
M  V30 10872 C 1194.75 0.149673 1.73355 0
M  V30 10873 O 1195.93 0.370716 1.97959 0
M  V30 10874 C 1192.99 0.961873 3.3309 0
M  V30 10875 C 1192.05 2.1373 3.72315 0
M  V30 10876 C 1191.29 1.87572 4.99652 0
M  V30 10877 O 1191.51 0.819247 5.64486 0
M  V30 10878 O 1190.44 2.73732 5.36054 0
M  V30 10879 H 1194.27 2.19573 2.09813 0
M  V30 10880 H 1191.86 1.12451 0.983627 0
M  V30 10881 H 1193.74 0.825316 4.13239 0
M  V30 10882 H 1192.41 0.0327745 3.23683 0
M  V30 10883 H 1191.32 2.32933 2.92733 0
M  V30 10884 H 1192.65 3.04925 3.86369 0
M  V30 10885 N 1194.3 -1.0692 1.15784 0
M  V30 10886 C 1195.53 -1.83849 0.959903 0
M  V30 10887 C 1195.95 -1.8169 -0.486873 0
M  V30 10888 O 1195.31 -1.21305 -1.34739 0
M  V30 10889 C 1195.36 -3.28642 1.48414 0
M  V30 10890 O 1194.46 -4.0665 0.686249 0
M  V30 10891 H 1193.81 -0.569115 0.342059 0
M  V30 10892 H 1196.34 -1.34851 1.53871 0
M  V30 10893 H 1196.35 -3.7947 1.49888 0
M  V30 10894 H 1195.02 -3.29529 2.53739 0
M  V30 10895 H 1193.6 -3.65453 0.741501 0
M  V30 10896 N 1195.78 -0.955326 -1.25345 0
M  V30 10897 C 1197.03 -0.609278 -1.92697 0
M  V30 10898 C 1197.35 0.856535 -1.75181 0
M  V30 10899 O 1196.62 1.61013 -1.11587 0
M  V30 10900 H 1195.2 -0.22235 -0.713141 0
M  V30 10901 H 1197.86 -1.21372 -1.52496 0
M  V30 10902 H 1196.96 -0.839198 -3.00606 0
M  V30 10903 N 1197.26 1.39987 -0.723979 0
M  V30 10904 C 1198.49 2.0556 -0.275634 0
M  V30 10905 C 1198.91 1.54207 1.07711 0
M  V30 10906 O 1198.27 0.681041 1.68022 0
M  V30 10907 C 1198.32 3.59551 -0.27485 0
M  V30 10908 O 1197.42 4.05685 0.741182 0
M  V30 10909 H 1196.76 0.651634 -0.12755 0
M  V30 10910 H 1199.29 1.79229 -0.986814 0
M  V30 10911 H 1199.3 4.07837 -0.115425 0
M  V30 10912 H 1197.98 3.96291 -1.26198 0
M  V30 10913 H 1196.55 3.6884 0.548795 0
M  V30 10914 N 1198.74 0.470782 1.50404 0
M  V30 10915 C 1199.99 -0.0841494 2.01925 0
M  V30 10916 C 1200.31 -1.40244 1.35487 0
M  V30 10917 O 1199.58 -1.89409 0.500111 0
M  V30 10918 H 1198.16 -0.0340884 0.746222 0
M  V30 10919 H 1200.82 0.621133 1.84738 0
M  V30 10920 H 1199.92 -0.235877 3.11207 0
M  V30 10921 N 1200.22 -1.56282 0.203376 0
M  V30 10922 C 1201.15 -2.16714 -0.74616 0
M  V30 10923 C 1202.16 -1.13121 -1.17079 0
M  V30 10924 O 1203.35 -1.40179 -1.10509 0
M  V30 10925 C 1200.45 -2.72115 -2.02007 0
M  V30 10926 C 1199.62 -4.00695 -1.75391 0
M  V30 10927 C 1198.68 -4.40839 -2.8731 0
M  V30 10928 O 1197.71 -5.081 -2.56561 0
M  V30 10929 N 1198.91 -4.05024 -4.15856 0
M  V30 10930 H 1201.68 -2.98821 -0.229326 0
M  V30 10931 H 1199.24 -1.61885 0.0217049 0
M  V30 10932 H 1201.23 -2.95951 -2.76035 0
M  V30 10933 H 1199.8 -1.94415 -2.44789 0
M  V30 10934 H 1199.02 -3.84905 -0.851 0
M  V30 10935 H 1200.31 -4.8461 -1.55017 0
M  V30 10936 H 1199.71 -3.50938 -4.43688 0
M  V30 10937 H 1198.26 -4.33792 -4.86485 0
M  V30 10938 N 1201.7 0.070167 -1.57444 0
M  V30 10939 C 1202.66 1.06761 -2.02817 0
M  V30 10940 C 1203.66 1.31498 -0.925462 0
M  V30 10941 O 1204.85 1.27192 -1.19029 0
M  V30 10942 C 1201.98 2.41086 -2.41019 0
M  V30 10943 H 1203.17 0.67651 -2.9217 0
M  V30 10944 H 1200.73 0.315936 -1.53074 0
M  V30 10945 H 1201.46 2.85025 -1.54697 0
M  V30 10946 H 1201.25 2.24472 -3.21488 0
M  V30 10947 H 1202.74 3.12778 -2.76694 0
M  V30 10948 N 1203.17 1.53854 0.341593 0
M  V30 10949 C 1204.4 1.75447 1.10604 0
M  V30 10950 C 1204.82 0.493225 1.81518 0
M  V30 10951 O 1204.18 -0.554253 1.7262 0
M  V30 10952 C 1204.23 2.93593 2.09369 0
M  V30 10953 O 1203.33 2.63878 3.16926 0
M  V30 10954 H 1202.67 0.581923 0.319783 0
M  V30 10955 H 1205.2 2.00822 0.391388 0
M  V30 10956 H 1205.21 3.20437 2.52556 0
M  V30 10957 H 1203.89 3.85067 1.57151 0
M  V30 10958 H 1202.47 2.47929 2.78542 0
M  V30 10959 N 1204.65 -0.602709 1.4562 0
M  V30 10960 C 1205.9 -1.35889 1.49595 0
M  V30 10961 C 1206.22 -1.9449 0.141002 0
M  V30 10962 O 1205.49 -1.77438 -0.830209 0
M  V30 10963 H 1204.07 -0.504478 0.550918 0
M  V30 10964 H 1206.73 -0.707376 1.8161 0
M  V30 10965 H 1205.83 -2.17583 2.2375 0
M  V30 10966 N 1206.13 -1.32992 -0.845635 0
M  V30 10967 C 1207.38 -1.24065 -1.60044 0
M  V30 10968 C 1207.7 0.195282 -1.93517 0
M  V30 10969 O 1206.96 1.1507 -1.58296 0
M  V30 10970 C 1207.26 -2.05454 -2.92444 0
M  V30 10971 C 1206.92 -3.54718 -2.78362 0
M  V30 10972 C 1205.59 -3.95413 -2.74229 0
M  V30 10973 C 1207.94 -4.49598 -2.63649 0
M  V30 10974 C 1205.27 -5.29216 -2.53274 0
M  V30 10975 C 1207.62 -5.83554 -2.44228 0
M  V30 10976 C 1206.28 -6.2344 -2.38493 0
M  V30 10977 H 1205.55 -0.453985 -0.585644 0
M  V30 10978 H 1208.2 -1.6451 -0.980244 0
M  V30 10979 H 1206.5 -1.57765 -3.58633 0
M  V30 10980 H 1208.2 -1.95909 -3.49887 0
M  V30 10981 H 1204.79 -3.22403 -2.82409 0
M  V30 10982 H 1208.98 -4.19072 -2.65881 0
M  V30 10983 H 1204.23 -5.59164 -2.47275 0
M  V30 10984 H 1208.41 -6.56681 -2.31825 0
M  V30 10985 H 1206.03 -7.27058 -2.22015 0
M  V30 10986 N 1207.61 1.06304 -1.1635 0
M  V30 10987 C 1208.86 1.78747 -0.943074 0
M  V30 10988 C 1209.18 1.87646 0.530483 0
M  V30 10989 O 1208.45 1.38506 1.38538 0
M  V30 10990 H 1207.03 0.662072 -0.345932 0
M  V30 10991 H 1209.69 1.28413 -1.46615 0
M  V30 10992 H 1208.78 2.80828 -1.3617 0
M  V30 10993 N 1209.09 0.96196 1.24836 0
M  V30 10994 C 1210.02 0.445329 2.24832 0
M  V30 10995 C 1211.03 -0.442797 1.56663 0
M  V30 10996 O 1212.22 -0.249896 1.76742 0
M  V30 10997 C 1209.32 -0.376953 3.36797 0
M  V30 10998 C 1208.49 0.499908 4.34534 0
M  V30 10999 C 1207.55 -0.265402 5.2553 0
M  V30 11000 O 1206.58 0.338707 5.68191 0
M  V30 11001 N 1207.78 -1.55654 5.59243 0
M  V30 11002 H 1210.54 1.30505 2.69793 0
M  V30 11003 H 1208.11 0.833137 1.38818 0
M  V30 11004 H 1210.1 -0.896831 3.94638 0
M  V30 11005 H 1208.67 -1.13757 2.91167 0
M  V30 11006 H 1207.89 1.20082 3.75465 0
M  V30 11007 H 1209.18 1.09814 4.96808 0
M  V30 11008 H 1208.57 -2.06916 5.265 0
M  V30 11009 H 1207.13 -2.02223 6.19636 0
M  V30 11010 N 1210.56 -1.39601 0.731392 0
M  V30 11011 C 1211.51 -2.27907 0.0651931 0
M  V30 11012 C 1212.5 -1.44075 -0.716334 0
M  V30 11013 O 1213.69 -1.6702 -0.585936 0
M  V30 11014 C 1210.82 -3.32763 -0.844023 0
M  V30 11015 C 1209.9 -4.24062 -0.0568388 0
M  V30 11016 N 1210.3 -4.96448 0.968146 0
M  V30 11017 C 1208.59 -4.45075 -0.287037 0
M  V30 11018 C 1209.29 -5.6353 1.44252 0
M  V30 11019 N 1208.27 -5.38236 0.761772 0
M  V30 11020 H 1212.07 -2.81324 0.850539 0
M  V30 11021 H 1209.59 -1.5224 0.565396 0
M  V30 11022 H 1211.58 -3.94888 -1.33674 0
M  V30 11023 H 1210.24 -2.80905 -1.62857 0
M  V30 11024 H 1211.25 -5.00011 1.34942 0
M  V30 11025 H 1207.93 -4.04167 -1.04667 0
M  V30 11026 H 1209.32 -6.31487 2.29508 0
M  V30 11027 N 1212.04 -0.478751 -1.50152 0
M  V30 11028 C 1212.95 0.316554 -2.32455 0
M  V30 11029 C 1213.97 0.98871 -1.4318 0
M  V30 11030 O 1215.14 0.974998 -1.76226 0
M  V30 11031 C 1212.21 1.3799 -3.18056 0
M  V30 11032 C 1211.27 0.723534 -4.23159 0
M  V30 11033 C 1210.5 1.73621 -5.0467 0
M  V30 11034 O 1210.73 2.96362 -4.87366 0
M  V30 11035 O 1209.66 1.30381 -5.87609 0
M  V30 11036 H 1213.49 -0.356491 -3.016 0
M  V30 11037 H 1211.07 -0.24046 -1.47452 0
M  V30 11038 H 1212.95 1.99565 -3.71149 0
M  V30 11039 H 1211.63 2.03627 -2.5163 0
M  V30 11040 H 1210.54 0.0686296 -3.74037 0
M  V30 11041 H 1211.87 0.109979 -4.92077 0
M  V30 11042 N 1213.52 1.56172 -0.211661 0
M  V30 11043 C 1214.75 2.02874 0.430905 0
M  V30 11044 C 1215.17 1.09064 1.53254 0
M  V30 11045 O 1214.53 0.0770408 1.81136 0
M  V30 11046 C 1214.58 3.4789 0.948933 0
M  V30 11047 O 1213.68 3.57213 2.0609 0
M  V30 11048 H 1213.02 0.656614 0.0987607 0
M  V30 11049 H 1215.55 2.01964 -0.327399 0
M  V30 11050 H 1215.56 3.88015 1.2613 0
M  V30 11051 H 1214.24 4.15656 0.142584 0
M  V30 11052 H 1212.81 3.28971 1.75592 0
M  V30 11053 N 1215 -0.0618163 1.57479 0
M  V30 11054 C 1216.25 -0.757569 1.87364 0
M  V30 11055 C 1216.57 -1.77607 0.805025 0
M  V30 11056 O 1215.84 -1.95202 -0.165216 0
M  V30 11057 H 1214.42 -0.28278 0.691408 0
M  V30 11058 H 1217.08 -0.0355354 1.94868 0
M  V30 11059 H 1216.18 -1.26758 2.85199 0
M  V30 11060 N 1216.48 -1.54033 -0.333429 0
M  V30 11061 C 1217.7 -1.76031 -1.09672 0
M  V30 11062 C 1218.13 -0.502844 -1.81254 0
M  V30 11063 O 1217.48 0.54509 -1.72912 0
M  V30 11064 C 1217.53 -2.947 -2.07809 0
M  V30 11065 O 1216.64 -2.65555 -3.15522 0
M  V30 11066 H 1215.98 -0.583611 -0.316692 0
M  V30 11067 H 1218.51 -2.01026 -0.380732 0
M  V30 11068 H 1218.52 -3.21771 -2.50853 0
M  V30 11069 H 1217.19 -3.85895 -1.55106 0
M  V30 11070 H 1215.77 -2.49403 -2.77223 0
M  V30 11071 N 1217.95 0.594978 -1.45938 0
M  V30 11072 C 1219.2 1.35093 -1.50314 0
M  V30 11073 C 1219.52 1.94412 -0.151315 0
M  V30 11074 O 1218.79 1.77876 0.820787 0
M  V30 11075 H 1217.37 0.501549 -0.553586 0
M  V30 11076 H 1220.04 0.697735 -1.81983 0
M  V30 11077 H 1219.13 2.16393 -2.24901 0
M  V30 11078 N 1219.43 1.33438 0.838571 0
M  V30 11079 C 1220.36 1.19552 1.9555 0
M  V30 11080 C 1221.38 0.12642 1.62308 0
M  V30 11081 O 1222.57 0.376868 1.74476 0
M  V30 11082 C 1219.67 0.811273 3.29046 0
M  V30 11083 C 1218.84 1.97207 3.9042 0
M  V30 11084 C 1217.9 1.56875 5.02271 0
M  V30 11085 O 1216.92 2.28314 5.21403 0
M  V30 11086 N 1218.13 0.473924 5.78562 0
M  V30 11087 H 1220.89 2.15769 2.07999 0
M  V30 11088 H 1218.45 1.26187 1.01432 0
M  V30 11089 H 1220.44 0.523553 4.01299 0
M  V30 11090 H 1219.01 -0.0602291 3.12542 0
M  V30 11091 H 1218.23 2.4254 3.10754 0
M  V30 11092 H 1219.52 2.74878 4.28158 0
M  V30 11093 H 1218.92 -0.120306 5.65572 0
M  V30 11094 H 1217.48 0.245877 6.51336 0
M  V30 11095 N 1220.91 -1.05686 1.16912 0
M  V30 11096 C 1222.16 -1.78244 0.95254 0
M  V30 11097 C 1222.48 -1.87924 -0.520525 0
M  V30 11098 O 1221.75 -1.39239 -1.37802 0
M  V30 11099 H 1220.33 -0.660228 0.349439 0
M  V30 11100 H 1222.99 -1.27634 1.47294 0
M  V30 11101 H 1222.09 -2.80102 1.37657 0
M  V30 11102 N 1222.39 -0.968567 -1.24324 0
M  V30 11103 C 1223.62 -0.647628 -1.96187 0
M  V30 11104 C 1224.03 0.787267 -1.72043 0
M  V30 11105 O 1223.37 1.53996 -1.00155 0
M  V30 11106 C 1223.43 -0.843517 -3.49464 0
M  V30 11107 C 1223.1 -2.25822 -3.97308 0
M  V30 11108 C 1224.09 -3.23602 -4.06913 0
M  V30 11109 C 1221.78 -2.58614 -4.30609 0
M  V30 11110 C 1223.77 -4.5226 -4.49154 0
M  V30 11111 C 1221.46 -3.87499 -4.72534 0
M  V30 11112 C 1222.46 -4.84134 -4.81771 0
M  V30 11113 O 1222.14 -6.10719 -5.2276 0
M  V30 11114 H 1221.88 -0.240568 -0.631746 0
M  V30 11115 H 1224.43 -1.29926 -1.59086 0
M  V30 11116 H 1222.66 -0.134716 -3.86465 0
M  V30 11117 H 1224.35 -0.521533 -4.02536 0
M  V30 11118 H 1225.12 -2.99596 -3.81402 0
M  V30 11119 H 1220.99 -1.84116 -4.22637 0
M  V30 11120 H 1224.54 -5.27689 -4.56279 0
M  V30 11121 H 1220.44 -4.11305 -4.97492 0
M  V30 11122 H 1221.2 -6.14298 -5.40906 0
M  V30 11123 N 1223.87 1.39211 -0.738786 0
M  V30 11124 C 1225.09 2.05256 -0.297421 0
M  V30 11125 C 1225.52 1.55341 1.06069 0
M  V30 11126 O 1224.87 0.698823 1.67291 0
M  V30 11127 C 1224.92 3.59239 -0.312969 0
M  V30 11128 O 1224.03 4.06448 0.698112 0
M  V30 11129 H 1223.37 0.650245 -0.134454 0
M  V30 11130 H 1225.9 1.78173 -1.00577 0
M  V30 11131 H 1225.91 4.07691 -0.158675 0
M  V30 11132 H 1224.58 3.94931 -1.30394 0
M  V30 11133 H 1223.16 3.69401 0.509643 0
M  V30 11134 N 1225.34 0.486708 1.49896 0
M  V30 11135 C 1226.28 -0.335809 2.26727 0
M  V30 11136 C 1227.29 -0.94333 1.32684 0
M  V30 11137 O 1228.48 -0.82909 1.58077 0
M  V30 11138 C 1225.58 -1.48642 3.04563 0
M  V30 11139 C 1224.75 -0.988837 4.26076 0
M  V30 11140 C 1223.81 -2.01535 4.86076 0
M  V30 11141 O 1222.84 -1.58966 5.46552 0
M  V30 11142 N 1224.04 -3.34471 4.74457 0
M  V30 11143 H 1226.8 0.322919 2.97955 0
M  V30 11144 H 1224.36 0.318403 1.58738 0
M  V30 11145 H 1226.36 -2.17039 3.41579 0
M  V30 11146 H 1224.93 -2.04956 2.36033 0
M  V30 11147 H 1224.15 -0.130232 3.93985 0
M  V30 11148 H 1225.43 -0.634562 5.04827 0
M  V30 11149 H 1224.83 -3.71755 4.26398 0
M  V30 11150 H 1223.39 -3.98621 5.15698 0
M  V30 11151 N 1226.82 -1.56058 0.219941 0
M  V30 11152 C 1227.77 -2.16853 -0.704185 0
M  V30 11153 C 1228.76 -1.11639 -1.15869 0
M  V30 11154 O 1229.95 -1.37632 -1.11295 0
M  V30 11155 C 1227.08 -2.85073 -1.9128 0
M  V30 11156 C 1226.16 -3.9751 -1.47805 0
M  V30 11157 N 1226.56 -5.00121 -0.755792 0
M  V30 11158 C 1224.85 -4.0957 -1.76546 0
M  V30 11159 C 1225.55 -5.79241 -0.534332 0
M  V30 11160 N 1224.53 -5.32549 -1.09055 0
M  V30 11161 H 1228.33 -2.93547 -0.143914 0
M  V30 11162 H 1225.85 -1.62386 0.021133 0
M  V30 11163 H 1227.84 -3.27037 -2.58558 0
M  V30 11164 H 1226.5 -2.09874 -2.47756 0
M  V30 11165 H 1227.51 -5.16285 -0.408647 0
M  V30 11166 H 1224.19 -3.45521 -2.34353 0
M  V30 11167 H 1225.58 -6.71888 0.0404032 0
M  V30 11168 N 1228.3 0.053464 -1.57509 0
M  V30 11169 C 1229.55 0.747622 -1.87763 0
M  V30 11170 C 1229.87 1.77178 -0.814433 0
M  V30 11171 O 1229.14 1.95287 0.154862 0
M  V30 11172 H 1227.72 0.279109 -0.692898 0
M  V30 11173 H 1230.38 0.0252006 -1.94884 0
M  V30 11174 H 1229.48 1.25244 -2.85868 0
M  V30 11175 N 1229.78 1.54207 0.325255 0
M  V30 11176 C 1231 1.7661 1.08736 0
M  V30 11177 C 1231.43 0.512449 1.80985 0
M  V30 11178 O 1230.79 -0.535913 1.73198 0
M  V30 11179 C 1230.84 2.95797 2.06243 0
M  V30 11180 O 1229.94 2.67225 3.14109 0
M  V30 11181 H 1229.28 0.585282 0.313593 0
M  V30 11182 H 1231.81 2.01225 0.370066 0
M  V30 11183 H 1231.82 3.23097 2.49143 0
M  V30 11184 H 1230.5 3.86712 1.53058 0
M  V30 11185 H 1229.07 2.50869 2.75897 0
M  V30 11186 N 1231.26 -0.58723 1.46251 0
M  V30 11187 C 1232.22 -1.67863 1.5606 0
M  V30 11188 C 1233.22 -1.54715 0.438162 0
M  V30 11189 O 1234.41 -1.59415 0.702323 0
M  V30 11190 C 1231.54 -3.07262 1.47659 0
M  V30 11191 H 1232.74 -1.60525 2.53321 0
M  V30 11192 H 1230.29 -0.804691 1.33994 0
M  V30 11193 H 1231.02 -3.20159 0.5166 0
M  V30 11194 H 1230.81 -3.18213 2.29092 0
M  V30 11195 H 1232.3 -3.8672 1.57599 0
M  V30 11196 N 1232.74 -1.33881 -0.831482 0
M  V30 11197 C 1233.96 -1.28961 -1.62431 0
M  V30 11198 C 1234.39 0.135249 -1.87613 0
M  V30 11199 O 1233.74 1.09426 -1.44553 0
M  V30 11200 C 1233.79 -2.07767 -2.94729 0
M  V30 11201 O 1232.9 -1.44133 -3.86393 0
M  V30 11202 H 1232.24 -0.443313 -0.494337 0
M  V30 11203 H 1234.77 -1.76555 -1.0339 0
M  V30 11204 H 1234.78 -2.18806 -3.44366 0
M  V30 11205 H 1233.45 -3.11367 -2.75724 0
M  V30 11206 H 1232.03 -1.41784 -3.44894 0
M  V30 11207 N 1234.21 1.05064 -1.1747 0
M  V30 11208 C 1235.46 1.77737 -0.961979 0
M  V30 11209 C 1235.78 1.88198 0.510551 0
M  V30 11210 O 1235.05 1.39968 1.37062 0
M  V30 11211 H 1233.63 0.658366 -0.352935 0
M  V30 11212 H 1236.29 1.26851 -1.47969 0
M  V30 11213 H 1235.39 2.79368 -1.39141 0
M  V30 11214 N 1235.69 0.975146 1.23809 0
M  V30 11215 C 1236.64 0.482305 2.2284 0
M  V30 11216 C 1237.63 -0.439787 1.54773 0
M  V30 11217 O 1238.82 -0.269496 1.74936 0
M  V30 11218 C 1235.95 -0.219056 3.426 0
M  V30 11219 C 1235.03 0.722299 4.17904 0
M  V30 11220 N 1235.42 1.86271 4.70252 0
M  V30 11221 C 1233.72 0.53457 4.42785 0
M  V30 11222 C 1234.42 2.45212 5.2749 0
M  V30 11223 N 1233.4 1.73652 5.15117 0
M  V30 11224 H 1237.2 1.35234 2.60939 0
M  V30 11225 H 1234.71 0.835162 1.3928 0
M  V30 11226 H 1236.71 -0.589401 4.12713 0
M  V30 11227 H 1235.37 -1.08544 3.0602 0
M  V30 11228 H 1236.38 2.24404 4.66758 0
M  V30 11229 H 1233.06 -0.287232 4.16511 0
M  V30 11230 H 1234.45 3.41491 5.78648 0
M  V30 11231 N 1237.17 -1.38817 0.746158 0
M  V30 11232 C 1238.42 -2.0028 0.299016 0
M  V30 11233 C 1238.74 -1.59221 -1.11709 0
M  V30 11234 O 1238 -0.817595 -1.77803 0
M  V30 11235 C 1238.3 -3.55571 0.361086 0
M  V30 11236 C 1237.96 -4.16317 1.73179 0
M  V30 11237 C 1236.63 -4.32622 2.10693 0
M  V30 11238 C 1238.98 -4.49905 2.63126 0
M  V30 11239 C 1236.31 -4.79808 3.3764 0
M  V30 11240 C 1238.66 -4.98504 3.89457 0
M  V30 11241 C 1237.32 -5.13016 4.27049 0
M  V30 11242 H 1236.59 -0.732877 0.109418 0
M  V30 11243 H 1239.24 -1.65977 0.955186 0
M  V30 11244 H 1237.54 -3.89966 -0.378655 0
M  V30 11245 H 1239.24 -4.01 -0.00319228 0
M  V30 11246 H 1235.83 -4.04035 1.43015 0
M  V30 11247 H 1240.02 -4.36916 2.3541 0
M  V30 11248 H 1235.27 -4.89229 3.66695 0
M  V30 11249 H 1239.45 -5.23464 4.59302 0
M  V30 11250 H 1237.07 -5.4934 5.25481 0
M  V30 11251 N 1238.65 -0.49465 -1.49636 0
M  V30 11252 C 1239.87 0.051305 -2.07337 0
M  V30 11253 C 1240.3 1.30637 -1.35335 0
M  V30 11254 O 1239.66 1.76647 -0.408126 0
M  V30 11255 C 1239.7 0.294425 -3.59396 0
M  V30 11256 O 1238.81 1.3704 -3.88965 0
M  V30 11257 H 1238.15 -0.023408 -0.663587 0
M  V30 11258 H 1240.68 -0.692451 -1.92526 0
M  V30 11259 H 1240.69 0.527854 -4.04571 0
M  V30 11260 H 1239.36 -0.622583 -4.11214 0
M  V30 11261 H 1237.94 1.12242 -3.55607 0
M  V30 11262 N 1240.13 1.55939 -0.228214 0
M  V30 11263 C 1241.35 2.0332 0.409364 0
M  V30 11264 C 1241.78 1.10683 1.52088 0
M  V30 11265 O 1241.13 0.0962484 1.81044 0
M  V30 11266 C 1241.18 3.48877 0.911981 0
M  V30 11267 O 1240.29 3.59378 2.02289 0
M  V30 11268 H 1239.63 0.657625 0.0917909 0
M  V30 11269 H 1242.16 2.01605 -0.348802 0
M  V30 11270 H 1242.17 3.89331 1.22007 0
M  V30 11271 H 1240.84 4.15783 0.0984902 0
M  V30 11272 H 1239.42 3.30815 1.72093 0
M  V30 11273 N 1241.6 -0.0451101 1.57535 0
M  V30 11274 C 1242.54 -1.07792 2.02271 0
M  V30 11275 C 1243.55 -1.33423 0.932854 0
M  V30 11276 O 1244.74 -1.31193 1.2104 0
M  V30 11277 C 1241.84 -2.42314 2.36933 0
M  V30 11278 C 1241.01 -2.36266 3.68099 0
M  V30 11279 C 1240.07 -3.53108 3.9013 0
M  V30 11280 O 1239.1 -3.33327 4.61391 0
M  V30 11281 N 1240.3 -4.74415 3.3453 0
M  V30 11282 H 1243.06 -0.696744 2.91489 0
M  V30 11283 H 1240.62 -0.233336 1.6021 0
M  V30 11284 H 1242.62 -3.19171 2.48821 0
M  V30 11285 H 1241.19 -2.72335 1.53468 0
M  V30 11286 H 1240.41 -1.44615 3.66715 0
M  V30 11287 H 1241.69 -2.29351 4.54175 0
M  V30 11288 H 1241.09 -4.93388 2.76739 0
M  V30 11289 H 1239.65 -5.48692 3.51825 0
M  V30 11290 N 1243.08 -1.54377 -0.317073 0
M  V30 11291 C 1244.33 -1.72551 -1.05216 0
M  V30 11292 C 1244.65 -0.5055 -1.88334 0
M  V30 11293 O 1243.92 0.480439 -1.89917 0
M  V30 11294 H 1242.5 -0.636222 -0.391447 0
M  V30 11295 H 1245.16 -1.91696 -0.35194 0
M  V30 11296 H 1244.26 -2.60791 -1.71448 0
M  V30 11297 N 1244.56 0.579466 -1.4656 0
M  V30 11298 C 1245.98 0.903163 -1.31587 0
M  V30 11299 C 1246.18 1.99406 -0.28972 0
M  V30 11300 O 1245.23 2.50632 0.30658 0
M  V30 11301 C 1246.55 1.31745 -2.70303 0
M  V30 11302 C 1248.09 1.43012 -2.78418 0
M  V30 11303 C 1248.57 1.87805 -4.17724 0
M  V30 11304 N 1250.06 1.94993 -4.20157 0
M  V30 11305 C 1250.79 2.30934 -5.2484 0
M  V30 11306 N 1250.29 2.65645 -6.39847 0
M  V30 11307 N 1252.08 2.31517 -5.12207 0
M  V30 11308 H 1244.23 -0.141111 -2.11931 0
M  V30 11309 H 1246.5 -0.000460304 -0.948 0
M  V30 11310 H 1246.2 0.589864 -3.46718 0
M  V30 11311 H 1246.08 2.2783 -3.00622 0
M  V30 11312 H 1248.46 2.14856 -2.02289 0
M  V30 11313 H 1248.55 0.451701 -2.5178 0
M  V30 11314 H 1248.19 1.16539 -4.94349 0
M  V30 11315 H 1248.12 2.86611 -4.41771 0
M  V30 11316 H 1250.61 1.70645 -3.37178 0
M  V30 11317 H 1250.92 2.92032 -7.15498 0
M  V30 11318 H 1249.27 2.63276 -6.43204 0
M  V30 11319 H 1252.46 2.03824 -4.21394 0
M  V30 11320 H 1252.63 2.59199 -5.93902 0
M  V30 11321 N 1246.04 1.3432 0.824371 0
M  V30 11322 C 1246.99 1.22332 1.92403 0
M  V30 11323 C 1247.97 0.122709 1.60431 0
M  V30 11324 O 1249.16 0.352231 1.7346 0
M  V30 11325 C 1246.29 0.979497 3.2903 0
M  V30 11326 C 1245.38 2.12322 3.67124 0
M  V30 11327 N 1245.77 3.3743 3.76795 0
M  V30 11328 C 1244.07 2.03314 3.96963 0
M  V30 11329 C 1244.77 4.12532 4.10113 0
M  V30 11330 N 1243.75 3.41109 4.23256 0
M  V30 11331 H 1247.55 2.17143 1.98056 0
M  V30 11332 H 1245.06 1.26537 1.01795 0
M  V30 11333 H 1247.06 0.874525 4.07624 0
M  V30 11334 H 1245.72 0.0400611 3.24675 0
M  V30 11335 H 1246.73 3.72001 3.60327 0
M  V30 11336 H 1243.41 1.17118 4.00736 0
M  V30 11337 H 1244.8 5.20562 4.24811 0
M  V30 11338 N 1247.52 -1.0444 1.18026 0
M  V30 11339 C 1248.76 -1.77224 0.971391 0
M  V30 11340 C 1249.09 -1.88466 -0.500564 0
M  V30 11341 O 1248.36 -1.40692 -1.36317 0
M  V30 11342 H 1246.94 -0.656485 0.356422 0
M  V30 11343 H 1249.6 -1.26064 1.4864 0
M  V30 11344 H 1248.69 -2.78626 1.4062 0
M  V30 11345 N 1248.99 -0.981699 -1.2329 0
M  V30 11346 C 1250.22 -0.669025 -1.96313 0
M  V30 11347 C 1250.64 0.757624 -1.72168 0
M  V30 11348 O 1250 1.51626 -0.993942 0
M  V30 11349 C 1250.05 -0.966875 -3.47396 0
M  V30 11350 O 1249.15 -0.0595933 -4.12357 0
M  V30 11351 H 1248.5 -0.251493 -0.61453 0
M  V30 11352 H 1251.03 -1.31564 -1.56691 0
M  V30 11353 H 1251.04 -0.904112 -3.97857 0
M  V30 11354 H 1249.71 -2.00651 -3.64296 0
M  V30 11355 H 1248.29 -0.176878 -3.7248 0
M  V30 11356 N 1250.47 1.3842 -0.753509 0
M  V30 11357 C 1251.7 2.04403 -0.320449 0
M  V30 11358 C 1252.12 1.5683 1.05118 0
M  V30 11359 O 1251.47 0.741335 1.66765 0
M  V30 11360 C 1251.52 3.59954 -0.333937 0
M  V30 11361 O 1251.24 4.05782 -1.65144 0
M  V30 11362 C 1252.75 4.43156 0.112997 0
M  V30 11363 H 1249.97 0.656881 -0.136927 0
M  V30 11364 H 1252.51 1.77112 -1.02234 0
M  V30 11365 H 1250.66 3.86083 0.319215 0
M  V30 11366 H 1251.08 5.00213 -1.57757 0
M  V30 11367 H 1252.55 5.51975 0.0523995 0
M  V30 11368 H 1253.03 4.23581 1.16087 0
M  V30 11369 H 1253.64 4.22216 -0.511278 0
M  V30 11370 N 1251.95 0.502579 1.49372 0
M  V30 11371 C 1253.18 -0.0403087 2.07361 0
M  V30 11372 C 1253.6 -1.29918 1.36026 0
M  V30 11373 O 1252.96 -1.76428 0.417488 0
M  V30 11374 C 1253.01 -0.275362 3.59547 0
M  V30 11375 O 1252.11 -1.34975 3.89686 0
M  V30 11376 H 1251.45 0.0269268 0.663454 0
M  V30 11377 H 1253.98 0.702652 1.92156 0
M  V30 11378 H 1253.99 -0.506392 4.04845 0
M  V30 11379 H 1252.67 0.644382 4.10878 0
M  V30 11380 H 1251.24 -1.10355 3.56197 0
M  V30 11381 N 1253.43 -1.55816 0.23648 0
M  V30 11382 C 1254.68 -1.98294 -0.390373 0
M  V30 11383 C 1255 -1.12573 -1.59224 0
M  V30 11384 O 1254.27 -0.206128 -1.94813 0
M  V30 11385 H 1252.85 -0.732349 -0.14722 0
M  V30 11386 H 1255.51 -1.92037 0.332848 0
M  V30 11387 H 1254.61 -3.03996 -0.706595 0
M  V30 11388 N 1254.91 0.036755 -1.57557 0
M  V30 11389 C 1255.84 1.06718 -2.0284 0
M  V30 11390 C 1256.85 1.32926 -0.939917 0
M  V30 11391 O 1258.04 1.30549 -1.21734 0
M  V30 11392 C 1255.14 2.41054 -2.38214 0
M  V30 11393 C 1254.31 2.3431 -3.69347 0
M  V30 11394 C 1253.37 3.51034 -3.91997 0
M  V30 11395 O 1252.4 3.30875 -4.63152 0
M  V30 11396 N 1253.6 4.72634 -3.37042 0
M  V30 11397 H 1256.37 0.681275 -2.91854 0
M  V30 11398 H 1253.93 0.224836 -1.60331 0
M  V30 11399 H 1255.92 3.17847 -2.5051 0
M  V30 11400 H 1254.49 2.71517 -1.5491 0
M  V30 11401 H 1253.71 1.42668 -3.67477 0
M  V30 11402 H 1255 2.2694 -4.55385 0
M  V30 11403 H 1254.39 4.91914 -2.79352 0
M  V30 11404 H 1252.95 5.46818 -3.5473 0
M  V30 11405 N 1256.39 1.54543 0.308881 0
M  V30 11406 C 1257.61 1.77753 1.06857 0
M  V30 11407 C 1258.04 0.531616 1.80431 0
M  V30 11408 O 1257.39 -0.517513 1.73757 0
M  V30 11409 C 1257.44 2.97968 2.03094 0
M  V30 11410 O 1256.55 2.70541 3.11257 0
M  V30 11411 H 1255.89 0.588576 0.307368 0
M  V30 11412 H 1258.42 2.01607 0.348703 0
M  V30 11413 H 1258.43 3.25722 2.45702 0
M  V30 11414 H 1257.1 3.88314 1.48948 0
M  V30 11415 H 1255.68 2.53781 2.7322 0
M  V30 11416 N 1257.86 -0.571685 1.46866 0
M  V30 11417 C 1259.09 -1.36008 1.56578 0
M  V30 11418 C 1259.51 -1.86909 0.211326 0
M  V30 11419 O 1258.87 -1.62179 -0.810421 0
M  V30 11420 C 1258.92 -2.51598 2.58323 0
M  V30 11421 O 1258.02 -3.53383 2.1259 0
M  V30 11422 H 1257.36 -0.404593 0.526498 0
M  V30 11423 H 1259.89 -0.692357 1.92529 0
M  V30 11424 H 1259.9 -2.98366 2.78283 0
M  V30 11425 H 1258.58 -2.13904 3.56676 0
M  V30 11426 H 1257.16 -3.13019 2.02666 0
M  V30 11427 N 1259.34 -1.34755 -0.817236 0
M  V30 11428 C 1260.57 -1.30676 -1.61054 0
M  V30 11429 C 1260.99 0.115343 -1.87746 0
M  V30 11430 O 1260.35 1.07887 -1.45705 0
M  V30 11431 C 1260.4 -2.10881 -2.92509 0
M  V30 11432 O 1259.5 -1.48223 -3.84842 0
M  V30 11433 H 1258.84 -0.448531 -0.489608 0
M  V30 11434 H 1261.37 -1.77642 -1.01512 0
M  V30 11435 H 1261.38 -2.22446 -3.42026 0
M  V30 11436 H 1260.06 -3.14274 -2.72406 0
M  V30 11437 H 1258.63 -1.45434 -3.4337 0
M  V30 11438 N 1260.82 1.03812 -1.18578 0
M  V30 11439 C 1262.04 1.8124 -1.00831 0
M  V30 11440 C 1262.47 1.82917 0.43853 0
M  V30 11441 O 1261.83 1.24835 1.31476 0
M  V30 11442 C 1261.88 3.24592 -1.57075 0
M  V30 11443 O 1260.98 4.04688 -0.793824 0
M  V30 11444 H 1260.32 0.559846 -0.357028 0
M  V30 11445 H 1262.85 1.30724 -1.57393 0
M  V30 11446 H 1262.86 3.75363 -1.59896 0
M  V30 11447 H 1261.54 3.22686 -2.62387 0
M  V30 11448 H 1260.11 3.63359 -0.838134 0
M  V30 11449 N 1262.3 0.988223 1.22768 0
M  V30 11450 C 1263.55 0.660154 1.91014 0
M  V30 11451 C 1263.87 -0.809788 1.77391 0
M  V30 11452 O 1263.14 -1.57998 1.15817 0
M  V30 11453 H 1261.72 0.24118 0.706995 0
M  V30 11454 H 1264.38 1.25372 1.49224 0
M  V30 11455 H 1263.47 0.918603 2.98275 0
M  V30 11456 N 1263.78 -1.38018 0.760839 0
M  V30 11457 C 1264.71 -2.2899 0.0980916 0
M  V30 11458 C 1265.72 -1.48102 -0.675985 0
M  V30 11459 O 1266.91 -1.70883 -0.515878 0
M  V30 11460 C 1264.01 -3.27142 -0.884959 0
M  V30 11461 C 1263.18 -4.37081 -0.167 0
M  V30 11462 C 1262.24 -5.15375 -1.06184 0
M  V30 11463 O 1261.27 -5.6673 -0.529667 0
M  V30 11464 N 1262.47 -5.29052 -2.38924 0
M  V30 11465 H 1265.23 -2.86508 0.879403 0
M  V30 11466 H 1262.8 -1.49877 0.612245 0
M  V30 11467 H 1264.79 -3.764 -1.48678 0
M  V30 11468 H 1263.36 -2.70471 -1.5673 0
M  V30 11469 H 1262.58 -3.89363 0.615617 0
M  V30 11470 H 1263.87 -5.07732 0.329525 0
M  V30 11471 H 1263.26 -4.88892 -2.84607 0
M  V30 11472 H 1261.82 -5.81658 -2.94139 0
M  V30 11473 N 1265.25 -0.510493 -1.49103 0
M  V30 11474 C 1266.2 0.282297 -2.26246 0
M  V30 11475 C 1267.19 0.927187 -1.31499 0
M  V30 11476 O 1268.38 0.833216 -1.56162 0
M  V30 11477 C 1265.51 1.34046 -3.16049 0
M  V30 11478 C 1264.59 0.701334 -4.18261 0
M  V30 11479 N 1264.99 -0.201593 -5.05398 0
M  V30 11480 C 1263.28 0.960822 -4.35527 0
M  V30 11481 C 1263.98 -0.568383 -5.78916 0
M  V30 11482 N 1262.96 0.0659546 -5.4356 0
M  V30 11483 H 1266.76 -0.41264 -2.90989 0
M  V30 11484 H 1264.28 -0.327201 -1.5907 0
M  V30 11485 H 1266.27 1.92195 -3.69955 0
M  V30 11486 H 1264.93 2.03697 -2.52859 0
M  V30 11487 H 1265.94 -0.573004 -5.1472 0
M  V30 11488 H 1262.62 1.64938 -3.83539 0
M  V30 11489 H 1264.01 -1.30763 -6.59053 0
M  V30 11490 N 1266.73 1.55688 -0.24474 0
M  V30 11491 C 1268.01 1.90796 0.430821 0
M  V30 11492 C 1268.39 1.1652 1.76029 0
M  V30 11493 O 1267.74 0.281978 2.26753 0
M  V30 11494 C 1267.95 3.43786 0.601027 0
M  V30 11495 C 1269.29 4.14998 0.897894 0
M  V30 11496 O 1270.32 3.49513 0.68697 0
M  V30 11497 O 1269.18 5.30826 1.29945 0
M  V30 11498 H 1266.27 0.794086 0.230991 0
M  V30 11499 H 1268.82 1.67227 -0.288646 0
M  V30 11500 H 1267.59 3.89856 -0.335804 0
M  V30 11501 H 1267.21 3.73211 1.37112 0
M  V30 11502 N 1268.21 -0.0283989 1.57574 0
M  V30 11503 C 1269.43 -0.734537 1.93957 0
M  V30 11504 C 1269.86 -1.68062 0.844787 0
M  V30 11505 O 1269.22 -1.802 -0.199432 0
M  V30 11506 C 1269.27 -1.46716 3.29404 0
M  V30 11507 O 1268.37 -2.58036 3.217 0
M  V30 11508 H 1267.71 -0.197507 0.633946 0
M  V30 11509 H 1270.24 0.0163258 2.04593 0
M  V30 11510 H 1270.25 -1.83693 3.64309 0
M  V30 11511 H 1268.93 -0.773292 4.08648 0
M  V30 11512 H 1267.5 -2.23597 2.98427 0
M  V30 11513 N 1269.69 -1.54705 -0.300681 0
M  V30 11514 C 1270.91 -1.78318 -1.05913 0
M  V30 11515 C 1271.34 -0.541177 -1.80147 0
M  V30 11516 O 1270.7 0.508291 -1.74029 0
M  V30 11517 C 1270.74 -2.99041 -2.01511 0
M  V30 11518 O 1269.85 -2.72188 -3.09818 0
M  V30 11519 H 1269.19 -0.590197 -0.304242 0
M  V30 11520 H 1271.72 -2.01789 -0.338006 0
M  V30 11521 H 1271.73 -3.2702 -2.43971 0
M  V30 11522 H 1270.4 -3.89098 -1.46886 0
M  V30 11523 H 1268.98 -2.55227 -2.71871 0
M  V30 11524 N 1271.17 0.563888 -1.47167 0
M  V30 11525 C 1272.39 1.35176 -1.57297 0
M  V30 11526 C 1272.82 1.86794 -0.221235 0
M  V30 11527 O 1272.17 1.62606 0.801809 0
M  V30 11528 C 1272.22 2.50225 -2.59654 0
M  V30 11529 O 1271.33 3.5225 -2.14461 0
M  V30 11530 H 1270.67 0.401795 -0.528637 0
M  V30 11531 H 1273.2 0.682137 -1.92894 0
M  V30 11532 H 1273.21 2.96886 -2.79862 0
M  V30 11533 H 1271.88 2.1201 -3.57805 0
M  V30 11534 H 1270.46 3.1194 -2.04323 0
M  V30 11535 N 1272.64 1.35187 0.810078 0
M  V30 11536 C 1273.89 1.28011 1.56389 0
M  V30 11537 C 1274.21 -0.14622 1.94451 0
M  V30 11538 O 1273.48 -1.08185 1.63318 0
M  V30 11539 H 1272.06 0.470837 0.579932 0
M  V30 11540 H 1274.73 1.69249 0.966476 0
M  V30 11541 H 1273.82 1.89362 2.4809 0
M  V30 11542 N 1274.12 -1.03182 1.19127 0
M  V30 11543 C 1275.05 -2.11462 0.884098 0
M  V30 11544 C 1276.07 -1.62342 -0.121984 0
M  V30 11545 O 1277.26 -1.78179 0.107038 0
M  V30 11546 C 1274.36 -3.37559 0.301227 0
M  V30 11547 C 1273.53 -4.15878 1.35514 0
M  V30 11548 C 1272.59 -5.20291 0.786349 0
M  V30 11549 O 1271.61 -5.50069 1.46331 0
M  V30 11550 N 1272.82 -5.79038 -0.411803 0
M  V30 11551 H 1275.58 -2.38405 1.81613 0
M  V30 11552 H 1273.14 -1.19449 1.09287 0
M  V30 11553 H 1275.13 -4.04593 -0.0930685 0
M  V30 11554 H 1273.7 -3.07987 -0.535022 0
M  V30 11555 H 1272.92 -3.44036 1.9244 0
M  V30 11556 H 1274.21 -4.64993 2.06539 0
M  V30 11557 H 1273.61 -5.57158 -0.979353 0
M  V30 11558 H 1272.17 -6.47495 -0.747912 0
M  V30 11559 N 1275.6 -0.99472 -1.22242 0
M  V30 11560 C 1276.83 -0.689809 -1.95592 0
M  V30 11561 C 1277.25 0.739321 -1.72961 0
M  V30 11562 O 1276.61 1.50563 -1.00997 0
M  V30 11563 C 1276.66 -1.00367 -3.46351 0
M  V30 11564 O 1275.76 -0.103326 -4.12271 0
M  V30 11565 H 1275.1 -0.257997 -0.611828 0
M  V30 11566 H 1277.63 -1.33219 -1.55286 0
M  V30 11567 H 1277.64 -0.946259 -3.96875 0
M  V30 11568 H 1276.32 -2.04504 -3.62148 0
M  V30 11569 H 1274.89 -0.216374 -3.72272 0
M  V30 11570 N 1277.08 1.37613 -0.768148 0
M  V30 11571 C 1278.3 2.04579 -0.340892 0
M  V30 11572 C 1278.73 1.57556 1.02751 0
M  V30 11573 O 1278.09 0.734151 1.65771 0
M  V30 11574 C 1278.13 3.58495 -0.389099 0
M  V30 11575 O 1277.24 4.07838 0.611741 0
M  V30 11576 H 1276.58 0.647246 -0.148216 0
M  V30 11577 H 1279.11 1.75999 -1.04333 0
M  V30 11578 H 1279.12 4.07263 -0.245116 0
M  V30 11579 H 1277.79 3.92076 -1.38742 0
M  V30 11580 H 1276.37 3.70399 0.431173 0
M  V30 11581 N 1278.56 0.518393 1.4883 0
M  V30 11582 C 1279.78 -0.0183131 2.07392 0
M  V30 11583 C 1280.21 -1.28468 1.37396 0
M  V30 11584 O 1279.56 -1.75975 0.436177 0
M  V30 11585 C 1279.61 -0.237211 3.59819 0
M  V30 11586 O 1278.72 -1.30835 3.91096 0
M  V30 11587 H 1278.06 0.0339621 0.663131 0
M  V30 11588 H 1280.59 0.722993 1.914 0
M  V30 11589 H 1280.6 -0.463424 4.0536 0
M  V30 11590 H 1279.27 0.687925 4.10171 0
M  V30 11591 H 1277.85 -1.06571 3.57347 0
M  V30 11592 N 1280.03 -1.55556 0.252993 0
M  V30 11593 C 1281.26 -2.03196 -0.37348 0
M  V30 11594 C 1281.67 -1.13145 -1.51641 0
M  V30 11595 O 1281.02 -0.139519 -1.83169 0
M  V30 11596 C 1281.08 -3.47066 -0.937308 0
M  V30 11597 C 1280.74 -4.5694 0.0741513 0
M  V30 11598 C 1281.74 -5.12297 0.885862 0
M  V30 11599 C 1279.42 -5.01894 0.202003 0
M  V30 11600 C 1281.42 -6.11107 1.81182 0
M  V30 11601 C 1279.1 -6.00534 1.13146 0
M  V30 11602 C 1280.1 -6.5502 1.93489 0
M  V30 11603 O 1279.79 -7.51735 2.84868 0
M  V30 11604 H 1279.52 -0.669687 -0.092171 0
M  V30 11605 H 1282.08 -2.01924 0.376264 0
M  V30 11606 H 1280.31 -3.45507 -1.73672 0
M  V30 11607 H 1282 -3.78171 -1.47451 0
M  V30 11608 H 1282.76 -4.78395 0.797707 0
M  V30 11609 H 1278.64 -4.59144 -0.413301 0
M  V30 11610 H 1282.18 -6.53561 2.43935 0
M  V30 11611 H 1278.08 -6.33856 1.22052 0
M  V30 11612 H 1278.85 -7.69373 2.79298 0
M  V30 11613 N 1281.51 0.0200419 -1.57587 0
M  V30 11614 C 1282.76 0.707627 -1.89307 0
M  V30 11615 C 1283.08 1.7541 -0.851831 0
M  V30 11616 O 1282.35 1.95571 0.113404 0
M  V30 11617 H 1280.93 0.264349 -0.698662 0
M  V30 11618 H 1283.59 -0.0161428 -1.94893 0
M  V30 11619 H 1282.69 1.19152 -2.8846 0
M  V30 11620 N 1282.99 1.54862 0.292472 0
M  V30 11621 C 1283.92 1.82786 1.38282 0
M  V30 11622 C 1284.94 0.711253 1.46441 0
M  V30 11623 O 1286.12 0.988851 1.48607 0
M  V30 11624 C 1283.22 1.95845 2.76582 0
M  V30 11625 C 1282.4 3.2633 2.91252 0
M  V30 11626 C 1281.46 3.29697 4.10105 0
M  V30 11627 O 1280.48 4.03184 4.01785 0
M  V30 11628 N 1281.68 2.557 5.21151 0
M  V30 11629 H 1284.45 2.76891 1.1468 0
M  V30 11630 H 1282.01 1.54541 0.482561 0
M  V30 11631 H 1284 1.95491 3.54352 0
M  V30 11632 H 1282.57 1.08696 2.93094 0
M  V30 11633 H 1281.79 3.39387 2.00525 0
M  V30 11634 H 1283.08 4.12421 2.9797 0
M  V30 11635 H 1282.48 1.95642 5.30792 0
M  V30 11636 H 1281.04 2.61089 5.97223 0
M  V30 11637 N 1284.47 -0.556076 1.47464 0
M  V30 11638 C 1285.42 -1.6586 1.56444 0
M  V30 11639 C 1286.4 -1.55233 0.423262 0
M  V30 11640 O 1287.59 -1.63696 0.673247 0
M  V30 11641 C 1284.72 -3.04633 1.58283 0
M  V30 11642 C 1283.81 -3.2046 2.77788 0
M  V30 11643 N 1284.2 -3.06347 4.02474 0
M  V30 11644 C 1282.5 -3.51462 2.74573 0
M  V30 11645 C 1283.2 -3.24893 4.82514 0
M  V30 11646 N 1282.18 -3.51278 4.14855 0
M  V30 11647 H 1285.98 -1.53519 2.50618 0
M  V30 11648 H 1283.49 -0.760862 1.43474 0
M  V30 11649 H 1285.49 -3.83797 1.62806 0
M  V30 11650 H 1284.15 -3.18085 0.652052 0
M  V30 11651 H 1285.16 -2.8365 4.33316 0
M  V30 11652 H 1281.84 -3.71434 1.90639 0
M  V30 11653 H 1283.23 -3.1894 5.91377 0
M  V30 11654 N 1285.95 -1.35615 -0.802897 0
M  V30 11655 C 1286.86 -1.3096 -1.94645 0
M  V30 11656 C 1287.87 -0.213909 -1.7268 0
M  V30 11657 O 1289.05 -0.443932 -1.96446 0
M  V30 11658 C 1286.11 -1.08483 -3.2929 0
M  V30 11659 C 1285.18 -2.27401 -3.64126 0
M  V30 11660 C 1284.41 -2.05987 -4.92347 0
M  V30 11661 O 1284.63 -1.02819 -5.61057 0
M  V30 11662 O 1283.57 -2.93439 -5.25526 0
M  V30 11663 H 1287.39 -2.27209 -2.01519 0
M  V30 11664 H 1284.98 -1.16024 -0.941214 0
M  V30 11665 H 1286.86 -0.978118 -4.09891 0
M  V30 11666 H 1285.53 -0.152885 -3.23339 0
M  V30 11667 H 1284.44 -2.43638 -2.83886 0
M  V30 11668 H 1285.77 -3.19055 -3.74786 0
M  V30 11669 N 1287.43 1.02549 -1.19673 0
M  V30 11670 C 1288.65 1.8016 -1.02748 0
M  V30 11671 C 1289.08 1.83372 0.419105 0
M  V30 11672 O 1288.43 1.26222 1.30144 0
M  V30 11673 C 1288.48 3.22907 -1.60509 0
M  V30 11674 O 1287.59 4.03823 -0.836702 0
M  V30 11675 H 1286.93 0.556027 -0.362946 0
M  V30 11676 H 1289.46 1.29047 -1.5877 0
M  V30 11677 H 1289.47 3.73646 -1.63868 0
M  V30 11678 H 1288.14 3.19885 -2.65794 0
M  V30 11679 H 1286.72 3.6245 -0.876626 0
M  V30 11680 N 1288.9 1.00119 1.21713 0
M  V30 11681 C 1289.87 0.563409 2.22167 0
M  V30 11682 C 1290.87 -0.35819 1.5676 0
M  V30 11683 O 1292.06 -0.149001 1.73562 0
M  V30 11684 C 1289.19 -0.179365 3.40428 0
M  V30 11685 H 1290.38 1.45189 2.62412 0
M  V30 11686 H 1287.93 0.789286 1.34907 0
M  V30 11687 H 1288.67 -1.08345 3.05666 0
M  V30 11688 H 1288.45 0.482471 3.8912 0
M  V30 11689 H 1289.94 -0.473537 4.14906 0
M  V30 11690 N 1290.38 -1.37203 0.775435 0
M  V30 11691 C 1291.61 -2.04396 0.351737 0
M  V30 11692 C 1292.03 -1.58099 -1.01913 0
M  V30 11693 O 1291.39 -0.742932 -1.65379 0
M  V30 11694 C 1291.44 -3.58283 0.408105 0
M  V30 11695 O 1290.54 -4.08156 -0.590104 0
M  V30 11696 H 1289.88 -0.646451 0.151647 0
M  V30 11697 H 1292.41 -1.75443 1.05265 0
M  V30 11698 H 1292.42 -4.07127 0.266711 0
M  V30 11699 H 1291.1 -3.91335 1.40819 0
M  V30 11700 H 1289.67 -3.70622 -0.411524 0
M  V30 11701 N 1291.86 -0.526279 -1.48553 0
M  V30 11702 C 1292.81 0.258285 -2.26532 0
M  V30 11703 C 1293.79 0.913187 -1.32475 0
M  V30 11704 O 1294.99 0.816606 -1.57037 0
M  V30 11705 C 1292.11 1.30686 -3.17452 0
M  V30 11706 C 1291.2 0.656933 -4.18981 0
M  V30 11707 N 1291.59 -0.255186 -5.05156 0
M  V30 11708 C 1289.89 0.914575 -4.36522 0
M  V30 11709 C 1290.59 -0.629753 -5.78281 0
M  V30 11710 N 1289.57 0.00829904 -5.43599 0
M  V30 11711 H 1293.37 -0.44348 -2.90535 0
M  V30 11712 H 1290.88 -0.344054 -1.58714 0
M  V30 11713 H 1292.88 1.8826 -3.71973 0
M  V30 11714 H 1291.54 2.01004 -2.55005 0
M  V30 11715 H 1292.55 -0.627564 -5.14084 0
M  V30 11716 H 1289.23 1.6086 -3.85266 0
M  V30 11717 H 1290.62 -1.37746 -6.57629 0
M  V30 11718 N 1293.34 1.5542 -0.261239 0
M  V30 11719 C 1294.29 2.18644 0.646442 0
M  V30 11720 C 1295.27 1.14672 1.12868 0
M  V30 11721 O 1296.46 1.40534 1.07606 0
M  V30 11722 C 1293.59 2.90045 1.83655 0
M  V30 11723 C 1292.68 4.01289 1.37214 0
M  V30 11724 N 1293.07 5.01949 0.622927 0
M  V30 11725 C 1291.37 4.14107 1.65625 0
M  V30 11726 C 1292.07 5.80454 0.380569 0
M  V30 11727 N 1291.04 5.35253 0.94897 0
M  V30 11728 H 1294.85 2.93826 0.0660348 0
M  V30 11729 H 1292.36 1.62273 -0.0641794 0
M  V30 11730 H 1294.36 3.33778 2.49796 0
M  V30 11731 H 1293.02 2.16369 2.42104 0
M  V30 11732 H 1294.03 5.17187 0.271619 0
M  V30 11733 H 1290.71 3.51613 2.2511 0
M  V30 11734 H 1292.1 6.71545 -0.218528 0
M  V30 11735 N 1294.82 -0.0116844 1.57596 0
M  V30 11736 C 1295.78 -0.991601 2.0664 0
M  V30 11737 C 1296.78 -1.27973 0.973629 0
M  V30 11738 O 1297.97 -1.22686 1.23668 0
M  V30 11739 C 1295.1 -2.31975 2.49801 0
M  V30 11740 H 1296.29 -0.567607 2.9448 0
M  V30 11741 H 1293.85 -0.258906 1.54141 0
M  V30 11742 H 1294.58 -2.79087 1.65169 0
M  V30 11743 H 1294.37 -2.12386 3.29598 0
M  V30 11744 H 1295.86 -3.02294 2.88112 0
M  V30 11745 N 1296.29 -1.55015 -0.284256 0
M  V30 11746 C 1297.52 -1.79431 -1.04016 0
M  V30 11747 C 1297.94 -0.560254 -1.79563 0
M  V30 11748 O 1297.3 0.489804 -1.74558 0
M  V30 11749 C 1297.35 -3.01162 -1.98328 0
M  V30 11750 O 1296.45 -2.75459 -3.06914 0
M  V30 11751 H 1295.79 -0.593391 -0.297965 0
M  V30 11752 H 1298.32 -2.02136 -0.316585 0
M  V30 11753 H 1298.33 -3.29589 -2.40489 0
M  V30 11754 H 1297.01 -3.90634 -1.42751 0
M  V30 11755 H 1295.59 -2.58096 -2.69148 0
M  V30 11756 N 1297.77 0.548248 -1.47757 0
M  V30 11757 C 1299.02 1.30243 -1.54535 0
M  V30 11758 C 1299.34 1.93832 -0.213089 0
M  V30 11759 O 1298.61 1.80397 0.763782 0
M  V30 11760 H 1297.19 0.483684 -0.569262 0
M  V30 11761 H 1299.85 0.639485 -1.8411 0
M  V30 11762 H 1298.95 2.09128 -2.31672 0
M  V30 11763 N 1299.25 1.36039 0.795694 0
M  V30 11764 C 1300.67 1.16315 1.09284 0
M  V30 11765 C 1300.87 -0.017024 2.01493 0
M  V30 11766 O 1299.92 -0.684316 2.4305 0
M  V30 11767 C 1301.23 2.47113 1.71335 0
M  V30 11768 C 1302.78 2.5342 1.83705 0
M  V30 11769 C 1303.26 3.84289 2.49171 0
M  V30 11770 N 1304.75 3.856 2.56645 0
M  V30 11771 C 1305.48 4.83597 3.08094 0
M  V30 11772 N 1304.98 5.91985 3.59897 0
M  V30 11773 N 1306.77 4.71023 3.06748 0
M  V30 11774 H 1298.92 2.11611 0.182957 0
M  V30 11775 H 1301.19 0.937035 0.143771 0
M  V30 11776 H 1300.89 3.33708 1.11049 0
M  V30 11777 H 1300.77 2.62461 2.70914 0
M  V30 11778 H 1303.15 1.67247 2.43131 0
M  V30 11779 H 1303.23 2.41977 0.829495 0
M  V30 11780 H 1302.88 4.70865 1.90391 0
M  V30 11781 H 1302.81 3.93025 3.50484 0
M  V30 11782 H 1305.3 3.07291 2.19956 0
M  V30 11783 H 1305.61 6.6274 3.97487 0
M  V30 11784 H 1303.96 5.95662 3.58066 0
M  V30 11785 H 1307.15 3.8548 2.65561 0
M  V30 11786 H 1307.32 5.47555 3.46536 0
M  V30 11787 N 1300.73 -1.01913 1.20215 0
M  V30 11788 C 1301.98 -1.75124 1.00876 0
M  V30 11789 C 1302.3 -1.89485 -0.460475 0
M  V30 11790 O 1301.57 -1.43552 -1.33302 0
M  V30 11791 H 1300.15 -0.648777 0.370266 0
M  V30 11792 H 1302.81 -1.22883 1.5128 0
M  V30 11793 H 1301.91 -2.7558 1.46499 0
M  V30 11794 N 1302.21 -1.00763 -1.2118 0
M  V30 11795 C 1303.62 -0.720905 -1.42391 0
M  V30 11796 C 1303.82 0.702918 -1.88842 0
M  V30 11797 O 1302.88 1.47191 -2.05161 0
M  V30 11798 C 1304.19 -1.739 -2.45315 0
M  V30 11799 C 1305.74 -1.75611 -2.59094 0
M  V30 11800 C 1306.21 -2.76323 -3.65253 0
M  V30 11801 N 1307.71 -2.75007 -3.72727 0
M  V30 11802 C 1308.44 -3.49594 -4.54502 0
M  V30 11803 N 1307.94 -4.33828 -5.40153 0
M  V30 11804 N 1309.73 -3.38232 -4.4895 0
M  V30 11805 H 1301.88 -1.92697 -0.893404 0
M  V30 11806 H 1304.14 -0.831888 -0.454606 0
M  V30 11807 H 1303.85 -2.75859 -2.18162 0
M  V30 11808 H 1303.72 -1.5438 -3.44161 0
M  V30 11809 H 1306.11 -0.743416 -2.85582 0
M  V30 11810 H 1306.19 -1.99203 -1.60474 0
M  V30 11811 H 1305.84 -3.77751 -3.39509 0
M  V30 11812 H 1305.77 -2.49996 -4.63476 0
M  V30 11813 H 1308.26 -2.13897 -3.11539 0
M  V30 11814 H 1308.57 -4.8753 -5.99612 0
M  V30 11815 H 1306.91 -4.3791 -5.39685 0
M  V30 11816 H 1310.11 -2.71855 -3.81068 0
M  V30 11817 H 1310.28 -3.96615 -5.12445 0
M  V30 11818 N 1303.68 1.3679 -0.7827 0
M  V30 11819 C 1304.63 2.27508 -0.149734 0
M  V30 11820 C 1305.62 1.46634 0.662368 0
M  V30 11821 O 1306.81 1.6908 0.523544 0
M  V30 11822 C 1303.94 3.35666 0.719939 0
M  V30 11823 C 1303.03 4.23981 -0.100588 0
M  V30 11824 N 1303.42 4.92513 -1.15173 0
M  V30 11825 C 1301.71 4.45834 0.121653 0
M  V30 11826 C 1302.42 5.57788 -1.65067 0
M  V30 11827 N 1301.39 5.35038 -0.96101 0
M  V30 11828 H 1305.19 2.77973 -0.954365 0
M  V30 11829 H 1302.71 1.50037 -0.62151 0
M  V30 11830 H 1304.7 3.99578 1.18926 0
M  V30 11831 H 1303.36 2.86756 1.52319 0
M  V30 11832 H 1304.38 4.94658 -1.53406 0
M  V30 11833 H 1301.05 4.07773 0.895945 0
M  V30 11834 H 1302.44 6.22534 -2.52787 0
M  V30 11835 N 1305.16 0.53415 1.48272 0
M  V30 11836 C 1306.41 0.00156948 2.021 0
M  V30 11837 C 1306.73 -1.34371 1.41313 0
M  V30 11838 O 1306 -1.87117 0.579996 0
M  V30 11839 H 1304.58 -0.00240789 0.746996 0
M  V30 11840 H 1307.24 0.698928 1.81937 0
M  V30 11841 H 1306.34 -0.103671 3.11928 0
M  V30 11842 N 1306.64 -1.55279 0.269478 0
M  V30 11843 C 1307.87 -2.04334 -0.355313 0
M  V30 11844 C 1308.29 -1.14677 -1.491 0
M  V30 11845 O 1307.65 -0.144215 -1.80726 0
M  V30 11846 C 1307.7 -3.51172 -0.819162 0
M  V30 11847 O 1306.8 -3.64615 -1.9269 0
M  V30 11848 H 1306.14 -0.659827 -0.0743229 0
M  V30 11849 H 1308.67 -2.00609 0.402131 0
M  V30 11850 H 1308.68 -3.92428 -1.11642 0
M  V30 11851 H 1307.36 -4.15898 0.0117821 0
M  V30 11852 H 1305.93 -3.35261 -1.63261 0
M  V30 11853 N 1308.12 0.00332656 -1.576 0
M  V30 11854 C 1309.37 0.687508 -1.90047 0
M  V30 11855 C 1309.69 1.74497 -0.870388 0
M  V30 11856 O 1308.96 1.95681 0.0926544 0
M  V30 11857 H 1307.54 0.256924 -0.701426 0
M  V30 11858 H 1310.2 -0.0368129 -1.94865 0
M  V30 11859 H 1309.3 1.16086 -2.89707 0
M  V30 11860 N 1309.6 1.55164 0.276031 0
M  V30 11861 C 1310.82 1.7998 1.03063 0
M  V30 11862 C 1311.25 0.569769 1.79263 0
M  V30 11863 O 1310.6 -0.48054 1.74816 0
M  V30 11864 C 1310.65 3.02209 1.96728 0
M  V30 11865 O 1309.76 2.77083 3.05449 0
M  V30 11866 H 1309.1 0.594963 0.294814 0
M  V30 11867 H 1311.63 2.02301 0.305861 0
M  V30 11868 H 1311.64 3.3086 2.38738 0
M  V30 11869 H 1310.31 3.91386 1.40677 0
M  V30 11870 H 1308.89 2.5952 2.67776 0
M  V30 11871 N 1311.07 -0.540404 1.48045 0
M  V30 11872 C 1312.32 -1.29422 1.55224 0
M  V30 11873 C 1312.64 -1.93716 0.223365 0
M  V30 11874 O 1311.91 -1.808 -0.754204 0
M  V30 11875 H 1310.49 -0.480658 0.571819 0
M  V30 11876 H 1313.16 -0.629712 1.84447 0
M  V30 11877 H 1312.25 -2.07897 2.32777 0
M  V30 11878 N 1312.55 -1.36459 -0.788468 0
M  V30 11879 C 1313.48 -1.26727 -1.90979 0
M  V30 11880 C 1314.5 -0.186572 -1.61727 0
M  V30 11881 O 1315.69 -0.441364 -1.72957 0
M  V30 11882 C 1312.79 -0.932838 -3.25809 0
M  V30 11883 C 1311.96 -2.11562 -3.82832 0
M  V30 11884 C 1311.02 -1.75409 -4.96103 0
M  V30 11885 O 1310.04 -2.47508 -5.1257 0
M  V30 11886 N 1311.25 -0.688327 -5.76405 0
M  V30 11887 H 1314.01 -2.2334 -1.99848 0
M  V30 11888 H 1311.57 -1.29865 -0.966784 0
M  V30 11889 H 1313.56 -0.672131 -3.9908 0
M  V30 11890 H 1312.13 -0.0558103 -3.1255 0
M  V30 11891 H 1311.35 -2.53907 -3.01538 0
M  V30 11892 H 1312.64 -2.9058 -4.17661 0
M  V30 11893 H 1312.04 -0.0896854 -5.65629 0
M  V30 11894 H 1310.6 -0.487446 -6.49975 0
M  V30 11895 N 1314.03 1.01274 -1.20754 0
M  V30 11896 C 1315.26 1.7906 -1.04653 0
M  V30 11897 C 1315.68 1.83806 0.399632 0
M  V30 11898 O 1315.04 1.27596 1.28798 0
M  V30 11899 C 1315.09 3.21187 -1.63925 0
M  V30 11900 O 1314.19 4.02913 -0.879486 0
M  V30 11901 H 1313.53 0.552147 -0.368823 0
M  V30 11902 H 1316.06 1.27356 -1.6013 0
M  V30 11903 H 1316.07 3.71887 -1.67822 0
M  V30 11904 H 1314.75 3.17048 -2.69172 0
M  V30 11905 H 1313.32 3.61499 -0.915019 0
M  V30 11906 N 1315.51 1.01404 1.20644 0
M  V30 11907 C 1316.92 0.73386 1.71672 0
M  V30 11908 C 1317.27 -0.747803 1.8139 0
M  V30 11909 O 1316.4 -1.58372 1.47469 0
M  V30 11910 C 1316.99 1.32549 3.11795 0
M  V30 11911 C 1315.55 1.09423 3.60144 0
M  V30 11912 C 1314.7 1.43275 2.37419 0
M  V30 11913 H 1317.65 1.18383 1.05694 0
M  V30 11914 H 1317.67 0.714749 3.73727 0
M  V30 11915 H 1317.18 2.40386 3.0469 0
M  V30 11916 H 1315.28 0.0334113 3.72585 0
M  V30 11917 H 1315.4 1.77248 4.45107 0
M  V30 11918 H 1313.76 0.851714 2.40037 0
M  V30 11919 H 1314.54 2.52163 2.32957 0
M  V30 11920 N 1316.99 -1.36373 0.789944 0
M  V30 11921 C 1318.24 -1.98834 0.361866 0
M  V30 11922 C 1318.56 -1.63006 -1.07024 0
M  V30 11923 O 1317.83 -0.904312 -1.73779 0
M  V30 11924 H 1316.41 -0.735457 0.130812 0
M  V30 11925 H 1319.07 -1.66561 1.0121 0
M  V30 11926 H 1318.16 -3.08778 0.454122 0
M  V30 11927 N 1318.47 -0.542005 -1.47987 0
M  V30 11928 C 1319.42 0.234244 -2.26794 0
M  V30 11929 C 1320.4 0.899085 -1.33436 0
M  V30 11930 O 1321.59 0.799904 -1.57894 0
M  V30 11931 C 1318.72 1.27312 -3.18821 0
M  V30 11932 C 1317.81 0.612457 -4.19654 0
M  V30 11933 N 1318.2 -0.30875 -5.04857 0
M  V30 11934 C 1316.5 0.868224 -4.37468 0
M  V30 11935 C 1317.2 -0.691052 -5.77581 0
M  V30 11936 N 1316.17 -0.0493574 -5.43578 0
M  V30 11937 H 1319.97 -0.47427 -2.90048 0
M  V30 11938 H 1317.49 -0.360868 -1.5834 0
M  V30 11939 H 1319.49 1.84305 -3.73948 0
M  V30 11940 H 1318.15 1.98288 -2.57122 0
M  V30 11941 H 1319.16 -0.682054 -5.13389 0
M  V30 11942 H 1315.83 1.56765 -3.86951 0
M  V30 11943 H 1317.22 -1.44713 -6.56131 0
M  V30 11944 N 1319.94 1.55134 -0.277709 0
M  V30 11945 C 1321.19 1.99259 0.337662 0
M  V30 11946 C 1321.51 1.16755 1.56183 0
M  V30 11947 O 1320.78 0.257707 1.94198 0
M  V30 11948 H 1319.36 0.735995 0.127751 0
M  V30 11949 H 1322.02 1.91087 -0.383646 0
M  V30 11950 H 1321.12 3.05763 0.625747 0
M  V30 11951 N 1321.42 0.00503138 1.57599 0
M  V30 11952 C 1322.35 -1.01302 2.05598 0
M  V30 11953 C 1323.37 -1.30388 0.974829 0
M  V30 11954 O 1324.56 -1.27275 1.25153 0
M  V30 11955 C 1321.66 -2.34654 2.44522 0
M  V30 11956 C 1320.83 -2.24436 3.7543 0
M  V30 11957 C 1319.89 -3.40517 4.01166 0
M  V30 11958 O 1318.91 -3.18479 4.71762 0
M  V30 11959 N 1320.12 -4.63532 3.49454 0
M  V30 11960 H 1322.88 -0.603656 2.93558 0
M  V30 11961 H 1320.44 -0.182248 1.60871 0
M  V30 11962 H 1322.43 -3.11093 2.5885 0
M  V30 11963 H 1321 -2.67315 1.62055 0
M  V30 11964 H 1320.22 -1.32875 3.71131 0
M  V30 11965 H 1321.51 -2.14786 4.61242 0
M  V30 11966 H 1320.91 -4.84334 2.92296 0
M  V30 11967 H 1319.47 -5.37221 3.69103 0
M  V30 11968 N 1322.9 -1.55308 -0.267798 0
M  V30 11969 C 1324.32 -1.47264 -0.61526 0
M  V30 11970 C 1324.52 -0.691025 -1.8928 0
M  V30 11971 O 1323.57 -0.211964 -2.51609 0
M  V30 11972 C 1324.88 -2.91519 -0.73739 0
M  V30 11973 C 1326.43 -3.01764 -0.831102 0
M  V30 11974 C 1326.91 -4.47283 -0.984965 0
M  V30 11975 N 1328.4 -4.51134 -1.05036 0
M  V30 11976 C 1329.13 -5.60952 -1.1883 0
M  V30 11977 N 1328.63 -6.80625 -1.29311 0
M  V30 11978 N 1330.42 -5.48705 -1.21982 0
M  V30 11979 H 1322.57 -2.04577 0.57114 0
M  V30 11980 H 1324.84 -0.927908 0.194141 0
M  V30 11981 H 1324.54 -3.51456 0.130974 0
M  V30 11982 H 1324.42 -3.40829 -1.61603 0
M  V30 11983 H 1326.8 -2.4192 -1.68993 0
M  V30 11984 H 1326.88 -2.55698 0.0722509 0
M  V30 11985 H 1326.53 -5.07732 -0.130776 0
M  V30 11986 H 1326.46 -4.91011 -1.90305 0
M  V30 11987 H 1328.95 -3.6493 -0.981551 0
M  V30 11988 H 1329.26 -7.60071 -1.39685 0
M  V30 11989 H 1327.61 -6.83426 -1.26306 0
M  V30 11990 H 1330.8 -4.5415 -1.13428 0
M  V30 11991 H 1330.97 -6.34332 -1.32388 0
M  V30 11992 N 1324.38 0.532545 -1.4833 0
M  V30 11993 C 1325.63 1.28597 -1.55908 0
M  V30 11994 C 1325.95 1.93595 -0.233635 0
M  V30 11995 O 1325.22 1.81197 0.744605 0
M  V30 11996 H 1323.8 0.477619 -0.57436 0
M  V30 11997 H 1326.46 0.619922 -1.84778 0
M  V30 11998 H 1325.55 2.0666 -2.33877 0
M  V30 11999 N 1325.86 1.36875 0.78122 0
M  V30 12000 C 1327.08 1.349 1.57533 0
M  V30 12001 C 1327.51 -0.0655249 1.87986 0
M  V30 12002 O 1326.86 -1.03986 1.48515 0
M  V30 12003 C 1326.91 2.18562 2.86815 0
M  V30 12004 O 1326.02 1.58374 3.80777 0
M  V30 12005 H 1325.36 0.461355 0.477543 0
M  V30 12006 H 1327.89 1.80271 0.96766 0
M  V30 12007 H 1327.9 2.31436 3.36008 0
M  V30 12008 H 1326.57 3.21385 2.63978 0
M  V30 12009 H 1325.15 1.54487 3.39394 0
M  V30 12010 N 1327.33 -1.00632 1.21289 0
M  V30 12011 C 1328.58 -1.74044 1.02728 0
M  V30 12012 C 1328.9 -1.89963 -0.440351 0
M  V30 12013 O 1328.17 -1.44958 -1.31772 0
M  V30 12014 H 1326.75 -0.644813 0.377127 0
M  V30 12015 H 1329.41 -1.21272 1.52575 0
M  V30 12016 H 1328.51 -2.74011 1.49413 0
M  V30 12017 N 1328.81 -1.02043 -1.20104 0
M  V30 12018 C 1330.04 -0.731142 -1.94085 0
M  V30 12019 C 1330.46 0.702467 -1.74491 0
M  V30 12020 O 1329.82 1.48387 -1.04168 0
M  V30 12021 C 1329.87 -1.07691 -3.44144 0
M  V30 12022 O 1328.97 -0.190751 -4.11959 0
M  V30 12023 H 1328.31 -0.270917 -0.606218 0
M  V30 12024 H 1330.84 -1.36483 -1.52426 0
M  V30 12025 H 1330.85 -1.03023 -3.94779 0
M  V30 12026 H 1329.53 -2.1214 -3.57728 0
M  V30 12027 H 1328.1 -0.29529 -3.71729 0
M  V30 12028 N 1330.29 1.35952 -0.797165 0
M  V30 12029 C 1331.54 1.98639 -0.372405 0
M  V30 12030 C 1331.86 1.63571 1.06158 0
M  V30 12031 O 1331.13 0.913516 1.73297 0
M  V30 12032 H 1329.71 0.734753 -0.13471 0
M  V30 12033 H 1332.37 1.66022 -1.02092 0
M  V30 12034 H 1331.47 3.08533 -0.47049 0
M  V30 12035 N 1331.77 0.549846 1.47697 0
M  V30 12036 C 1332.7 -0.239345 2.27947 0
M  V30 12037 C 1333.71 -0.886206 1.36566 0
M  V30 12038 O 1334.9 -0.761298 1.61451 0
M  V30 12039 C 1332 -1.35591 3.10593 0
M  V30 12040 C 1331.18 -0.807234 4.29887 0
M  V30 12041 C 1330.23 -1.80738 4.94187 0
M  V30 12042 O 1329.26 -1.35641 5.52802 0
M  V30 12043 N 1330.46 -3.14046 4.88216 0
M  V30 12044 H 1333.23 0.449001 2.96318 0
M  V30 12045 H 1330.79 0.385443 1.57245 0
M  V30 12046 H 1332.78 -2.02356 3.50477 0
M  V30 12047 H 1331.35 -1.94761 2.44514 0
M  V30 12048 H 1330.57 0.0369877 3.94183 0
M  V30 12049 H 1331.86 -0.419877 5.07065 0
M  V30 12050 H 1331.26 -3.53335 4.41781 0
M  V30 12051 H 1329.81 -3.7639 5.32141 0
M  V30 12052 N 1333.25 -1.54984 0.285932 0
M  V30 12053 C 1334.47 -2.04699 -0.333621 0
M  V30 12054 C 1334.9 -1.16252 -1.47875 0
M  V30 12055 O 1334.25 -0.163376 -1.80562 0
M  V30 12056 C 1334.3 -3.52022 -0.78187 0
M  V30 12057 O 1333.41 -3.66639 -1.88812 0
M  V30 12058 H 1332.75 -0.660579 -0.0673203 0
M  V30 12059 H 1335.28 -2.00171 0.423386 0
M  V30 12060 H 1335.29 -3.93591 -1.07473 0
M  V30 12061 H 1333.96 -4.15862 0.055893 0
M  V30 12062 H 1332.54 -3.36974 -1.59696 0
M  V30 12063 N 1334.72 -0.0133892 -1.57594 0
M  V30 12064 C 1336.14 0.527615 -1.7909 0
M  V30 12065 C 1336.49 1.73179 -0.922142 0
M  V30 12066 O 1335.61 2.1602 -0.128233 0
M  V30 12067 C 1336.21 0.963949 -3.24798 0
M  V30 12068 C 1334.77 1.45017 -3.47343 0
M  V30 12069 C 1333.91 0.407548 -2.74289 0
M  V30 12070 H 1336.86 -0.239505 -1.56882 0
M  V30 12071 H 1336.88 1.82924 -3.33645 0
M  V30 12072 H 1336.4 0.0873315 -3.88002 0
M  V30 12073 H 1334.5 2.34724 -2.89371 0
M  V30 12074 H 1334.61 1.4684 -4.56043 0
M  V30 12075 H 1332.97 0.872174 -2.39301 0
M  V30 12076 H 1333.76 -0.460333 -3.402 0
M  V30 12077 N 1336.2 1.55448 0.259558 0
M  V30 12078 C 1337.43 1.81063 1.01148 0
M  V30 12079 C 1337.85 0.58875 1.78649 0
M  V30 12080 O 1337.21 -0.461971 1.75315 0
M  V30 12081 C 1337.26 3.04279 1.93512 0
M  V30 12082 O 1336.36 2.80307 3.02493 0
M  V30 12083 H 1335.7 0.598056 0.288487 0
M  V30 12084 H 1338.23 2.02614 0.284387 0
M  V30 12085 H 1338.24 3.33373 2.35215 0
M  V30 12086 H 1336.92 3.92856 1.36518 0
M  V30 12087 H 1335.5 2.62345 2.65008 0
M  V30 12088 N 1337.68 -0.524672 1.4861 0
M  V30 12089 C 1338.91 -1.30292 1.60335 0
M  V30 12090 C 1339.32 -1.87338 0.264774 0
M  V30 12091 O 1338.66 -1.67388 -0.756756 0
M  V30 12092 C 1338.72 -2.48809 2.59488 0
M  V30 12093 C 1338.39 -2.12811 4.04426 0
M  V30 12094 C 1339.38 -1.68171 4.9195 0
M  V30 12095 C 1337.07 -2.23171 4.5 0
M  V30 12096 C 1339.06 -1.34363 6.23077 0
M  V30 12097 C 1336.75 -1.88975 5.81147 0
M  V30 12098 C 1337.75 -1.44643 6.67508 0
M  V30 12099 O 1337.44 -1.10898 7.96214 0
M  V30 12100 H 1337.17 -0.402288 0.543268 0
M  V30 12101 H 1339.72 -0.63908 1.95205 0
M  V30 12102 H 1337.95 -3.18192 2.19751 0
M  V30 12103 H 1339.64 -3.10866 2.60992 0
M  V30 12104 H 1340.41 -1.59632 4.57977 0
M  V30 12105 H 1336.29 -2.56632 3.82963 0
M  V30 12106 H 1339.83 -0.996875 6.90441 0
M  V30 12107 H 1335.73 -1.97156 6.14654 0
M  V30 12108 H 1336.5 -1.2425 8.09014 0
M  V30 12109 N 1339.16 -1.37287 -0.77395 0
M  V30 12110 C 1340.41 -1.32112 -1.5294 0
M  V30 12111 C 1340.73 0.0946137 -1.9477 0
M  V30 12112 O 1340 1.03817 -1.66129 0
M  V30 12113 H 1338.58 -0.486047 -0.567245 0
M  V30 12114 H 1341.24 -1.71752 -0.921263 0
M  V30 12115 H 1340.34 -1.95873 -2.42982 0
M  V30 12116 N 1340.64 0.999871 -1.21821 0
M  V30 12117 C 1342.05 1.26228 -0.976664 0
M  V30 12118 C 1342.25 1.98714 0.333915 0
M  V30 12119 O 1341.31 2.29252 1.05829 0
M  V30 12120 C 1342.62 2.08089 -2.1707 0
M  V30 12121 C 1344.17 2.21298 -2.21351 0
M  V30 12122 C 1344.64 3.06544 -3.40287 0
M  V30 12123 N 1346.14 3.14131 -3.40405 0
M  V30 12124 C 1346.87 3.80362 -4.29083 0
M  V30 12125 N 1346.37 4.48577 -5.27968 0
M  V30 12126 N 1348.16 3.77053 -4.16878 0
M  V30 12127 H 1340.31 0.513704 -2.06094 0
M  V30 12128 H 1342.57 0.289447 -0.902732 0
M  V30 12129 H 1342.28 1.62183 -3.12073 0
M  V30 12130 H 1342.15 3.08843 -2.16554 0
M  V30 12131 H 1344.54 2.66422 -1.269 0
M  V30 12132 H 1344.62 1.19997 -2.25908 0
M  V30 12133 H 1344.27 2.62122 -4.35034 0
M  V30 12134 H 1344.2 4.0797 -3.32969 0
M  V30 12135 H 1346.69 2.65576 -2.68846 0
M  V30 12136 H 1347 4.96833 -5.91926 0
M  V30 12137 H 1345.34 4.47348 -5.31888 0
M  V30 12138 H 1348.54 3.22918 -3.38883 0
M  V30 12139 H 1348.71 4.2839 -4.86195 0
M  V30 12140 N 1342.11 1.02678 1.19562 0
M  V30 12141 C 1343.06 0.576385 2.20594 0
M  V30 12142 C 1344.05 -0.373747 1.56499 0
M  V30 12143 O 1345.24 -0.195058 1.75922 0
M  V30 12144 C 1342.37 -0.0735507 3.43221 0
M  V30 12145 C 1341.46 0.898896 4.14464 0
M  V30 12146 N 1341.85 2.06048 4.61928 0
M  V30 12147 C 1340.14 0.721889 4.40119 0
M  V30 12148 C 1340.85 2.67364 5.16615 0
M  V30 12149 N 1339.82 1.95344 5.07289 0
M  V30 12150 H 1343.62 1.46179 2.54968 0
M  V30 12151 H 1341.14 0.893484 1.35612 0
M  V30 12152 H 1343.13 -0.413825 4.14841 0
M  V30 12153 H 1341.79 -0.954671 3.10348 0
M  V30 12154 H 1342.81 2.43999 4.5682 0
M  V30 12155 H 1339.48 -0.110317 4.17354 0
M  V30 12156 H 1340.87 3.65726 5.63644 0
M  V30 12157 N 1343.59 -1.35528 0.804364 0
M  V30 12158 C 1344.84 -1.98439 0.382934 0
M  V30 12159 C 1345.16 -1.64132 -1.05289 0
M  V30 12160 O 1344.43 -0.922693 -1.7281 0
M  V30 12161 H 1343.01 -0.734028 0.138605 0
M  V30 12162 H 1345.67 -1.65478 1.02971 0
M  V30 12163 H 1344.77 -3.08279 0.486846 0
M  V30 12164 N 1345.07 -0.557671 -1.47404 0
M  V30 12165 C 1346.3 -0.0366797 -2.07368 0
M  V30 12166 C 1346.72 1.2478 -1.40754 0
M  V30 12167 O 1346.08 1.74757 -0.48268 0
M  V30 12168 C 1346.13 0.141728 -3.60321 0
M  V30 12169 O 1345.23 1.20419 -3.94427 0
M  V30 12170 H 1344.57 -0.0515319 -0.661997 0
M  V30 12171 H 1347.1 -0.773485 -1.89416 0
M  V30 12172 H 1347.11 0.355787 -4.06446 0
M  V30 12173 H 1345.79 -0.796433 -4.08203 0
M  V30 12174 H 1344.36 0.970589 -3.60047 0
M  V30 12175 N 1346.55 1.54831 -0.294147 0
M  V30 12176 C 1347.8 1.99606 0.316509 0
M  V30 12177 C 1348.12 1.18405 1.54936 0
M  V30 12178 O 1347.39 0.278289 1.93913 0
M  V30 12179 H 1345.97 0.737309 0.119938 0
M  V30 12180 H 1348.63 1.90669 -0.403891 0
M  V30 12181 H 1347.73 3.06409 0.593282 0
M  V30 12182 N 1348.03 0.0217466 1.57585 0
M  V30 12183 C 1349.25 -0.67246 1.96196 0
M  V30 12184 C 1349.68 -1.6529 0.897827 0
M  V30 12185 O 1349.04 -1.80743 -0.142002 0
M  V30 12186 C 1349.08 -1.36162 3.33905 0
M  V30 12187 O 1348.19 -2.47671 3.29747 0
M  V30 12188 H 1347.53 -0.177238 0.639908 0
M  V30 12189 H 1350.06 0.0814073 2.04438 0
M  V30 12190 H 1350.07 -1.7201 3.69968 0
M  V30 12191 H 1348.74 -0.642893 4.10901 0
M  V30 12192 H 1347.32 -2.13989 3.0539 0
M  V30 12193 N 1349.51 -1.55583 -0.251311 0
M  V30 12194 C 1350.75 -1.76859 -0.978031 0
M  V30 12195 C 1351.07 -0.584924 -1.86021 0
M  V30 12196 O 1350.34 0.399456 -1.91784 0
M  V30 12197 H 1348.92 -0.652252 -0.364111 0
M  V30 12198 H 1351.59 -1.93016 -0.270319 0
M  V30 12199 H 1350.68 -2.67828 -1.60233 0
M  V30 12200 N 1350.98 0.516783 -1.48886 0
M  V30 12201 C 1352.4 0.84654 -1.35299 0
M  V30 12202 C 1352.6 1.97998 -0.374035 0
M  V30 12203 O 1351.66 2.51707 0.200003 0
M  V30 12204 C 1352.97 1.20162 -2.75648 0
M  V30 12205 C 1354.52 1.31074 -2.84233 0
M  V30 12206 C 1354.99 1.69919 -4.25313 0
M  V30 12207 N 1356.48 1.76998 -4.28049 0
M  V30 12208 C 1357.22 2.08466 -5.34162 0
M  V30 12209 N 1356.71 2.38268 -6.50538 0
M  V30 12210 N 1358.51 2.09584 -5.21566 0
M  V30 12211 H 1350.66 -0.230871 -2.11142 0
M  V30 12212 H 1352.92 -0.0406678 -0.947127 0
M  V30 12213 H 1352.63 0.442278 -3.48908 0
M  V30 12214 H 1352.5 2.14875 -3.10014 0
M  V30 12215 H 1354.89 2.06083 -2.1122 0
M  V30 12216 H 1354.97 0.344506 -2.5347 0
M  V30 12217 H 1354.61 0.954667 -4.98847 0
M  V30 12218 H 1354.54 2.67616 -4.5353 0
M  V30 12219 H 1357.03 1.56191 -3.44112 0
M  V30 12220 H 1357.35 2.61423 -7.2724 0
M  V30 12221 H 1355.69 2.35758 -6.53791 0
M  V30 12222 H 1358.88 1.85768 -4.2966 0
M  V30 12223 H 1359.06 2.33776 -6.04362 0
M  V30 12224 N 1352.46 1.37696 0.766659 0
M  V30 12225 C 1353.69 1.36564 1.56093 0
M  V30 12226 C 1354.11 -0.0455828 1.88045 0
M  V30 12227 O 1353.47 -1.02405 1.49609 0
M  V30 12228 C 1353.52 2.21592 2.84481 0
M  V30 12229 O 1352.62 1.62404 3.79076 0
M  V30 12230 H 1351.96 0.466394 0.472623 0
M  V30 12231 H 1354.49 1.81287 0.948486 0
M  V30 12232 H 1354.5 2.34987 3.33534 0
M  V30 12233 H 1353.18 3.24167 2.60554 0
M  V30 12234 H 1351.75 1.58078 3.37736 0
M  V30 12235 N 1353.94 -0.993397 1.22349 0
M  V30 12236 C 1355.16 -1.77373 1.07488 0
M  V30 12237 C 1355.59 -1.84418 -0.37034 0
M  V30 12238 O 1354.95 -1.29629 -1.26752 0
M  V30 12239 C 1355 -3.18538 1.69014 0
M  V30 12240 O 1354.1 -4.01463 0.943474 0
M  V30 12241 H 1353.44 -0.546209 0.37756 0
M  V30 12242 H 1355.97 -1.24792 1.62136 0
M  V30 12243 H 1355.98 -3.6917 1.73717 0
M  V30 12244 H 1354.66 -3.12725 2.74182 0
M  V30 12245 H 1353.23 -3.59998 0.972415 0
M  V30 12246 N 1355.42 -1.03311 -1.19015 0
M  V30 12247 C 1356.64 -0.751686 -1.93299 0
M  V30 12248 C 1357.07 0.68392 -1.75226 0
M  V30 12249 O 1356.43 1.47274 -1.05736 0
M  V30 12250 C 1356.47 -1.11335 -3.42982 0
M  V30 12251 O 1355.58 -0.234434 -4.11733 0
M  V30 12252 H 1354.92 -0.277331 -0.60331 0
M  V30 12253 H 1357.45 -1.38092 -1.5097 0
M  V30 12254 H 1357.46 -1.07204 -3.93664 0
M  V30 12255 H 1356.13 -2.15922 -3.55458 0
M  V30 12256 H 1354.71 -0.3347 -3.71395 0
M  V30 12257 N 1356.9 1.35099 -0.81154 0
M  V30 12258 C 1358.12 2.03391 -0.405805 0
M  V30 12259 C 1358.55 1.60745 0.97686 0
M  V30 12260 O 1357.9 0.786518 1.63351 0
M  V30 12261 C 1357.95 3.57075 -0.502954 0
M  V30 12262 O 1357.06 4.09577 0.481681 0
M  V30 12263 H 1356.4 0.642203 -0.168733 0
M  V30 12264 H 1358.93 1.72591 -1.0988 0
M  V30 12265 H 1358.94 4.06277 -0.37456 0
M  V30 12266 H 1357.61 3.87463 -1.51145 0
M  V30 12267 H 1356.19 3.71583 0.313115 0
M  V30 12268 N 1358.37 0.56548 1.47106 0
M  V30 12269 C 1359.62 0.0444375 2.02051 0
M  V30 12270 C 1359.94 -1.31344 1.44131 0
M  V30 12271 O 1359.21 -1.85845 0.619556 0
M  V30 12272 H 1357.79 0.0134375 0.746879 0
M  V30 12273 H 1360.45 0.737362 1.80413 0
M  V30 12274 H 1359.55 -0.0374834 3.12077 0
M  V30 12275 N 1359.85 -1.54672 0.302354 0
M  V30 12276 C 1361.27 -1.59519 -0.0509899 0
M  V30 12277 C 1361.47 -1.31931 -1.52304 0
M  V30 12278 O 1360.52 -1.09338 -2.27599 0
M  V30 12279 C 1361.84 -2.98678 0.348168 0
M  V30 12280 C 1363.39 -3.11587 0.297046 0
M  V30 12281 C 1363.86 -4.53057 0.671046 0
M  V30 12282 N 1365.35 -4.58983 0.623633 0
M  V30 12283 C 1366.09 -5.66522 0.885476 0
M  V30 12284 N 1365.58 -6.82092 1.21336 0
M  V30 12285 N 1367.38 -5.56198 0.812448 0
M  V30 12286 H 1359.53 -1.70865 1.2617 0
M  V30 12287 H 1361.79 -0.798099 0.511608 0
M  V30 12288 H 1361.5 -3.23794 1.37297 0
M  V30 12289 H 1361.37 -3.76025 -0.297505 0
M  V30 12290 H 1363.76 -2.86219 -0.718515 0
M  V30 12291 H 1363.84 -2.36392 0.977361 0
M  V30 12292 H 1363.48 -4.79155 1.68442 0
M  V30 12293 H 1363.41 -5.26591 -0.0313537 0
M  V30 12294 H 1365.9 -3.75972 0.381203 0
M  V30 12295 H 1366.22 -7.6003 1.39909 0
M  V30 12296 H 1364.56 -6.83641 1.25141 0
M  V30 12297 H 1367.75 -4.64787 0.555939 0
M  V30 12298 H 1367.92 -6.39924 1.01988 0
M  V30 12299 N 1361.33 -0.0301034 -1.57571 0
M  V30 12300 C 1362.28 0.960604 -2.06776 0
M  V30 12301 C 1363.26 1.28488 -0.968483 0
M  V30 12302 O 1364.46 1.27083 -1.23203 0
M  V30 12303 C 1361.59 2.24268 -2.59921 0
M  V30 12304 C 1360.67 1.94673 -3.7678 0
M  V30 12305 N 1361.06 1.3535 -4.87354 0
M  V30 12306 C 1359.36 2.24658 -3.85285 0
M  V30 12307 C 1360.06 1.22909 -5.68567 0
M  V30 12308 N 1359.04 1.72493 -5.15507 0
M  V30 12309 H 1362.84 0.496931 -2.89668 0
M  V30 12310 H 1360.35 0.174886 -1.61456 0
M  V30 12311 H 1362.35 2.96116 -2.93463 0
M  V30 12312 H 1361.01 2.71261 -1.78459 0
M  V30 12313 H 1362.02 1.02839 -5.07587 0
M  V30 12314 H 1358.7 2.74318 -3.14731 0
M  V30 12315 H 1360.09 0.7703 -6.6747 0
M  V30 12316 N 1362.81 1.55714 0.243056 0
M  V30 12317 C 1364.06 1.77375 0.968638 0
M  V30 12318 C 1364.38 0.594781 1.85708 0
M  V30 12319 O 1363.65 -0.38928 1.91993 0
M  V30 12320 H 1362.23 0.654174 0.360646 0
M  V30 12321 H 1364.89 1.93157 0.260079 0
M  V30 12322 H 1363.99 2.68674 1.5881 0
M  V30 12323 N 1364.29 -0.50888 1.49158 0
M  V30 12324 C 1365.51 -1.29245 1.62205 0
M  V30 12325 C 1365.94 -1.85845 0.29041 0
M  V30 12326 O 1365.29 -1.6547 -0.740906 0
M  V30 12327 C 1365.34 -2.40415 2.68762 0
M  V30 12328 O 1364.45 -3.44048 2.27387 0
M  V30 12329 H 1363.79 -0.381898 0.543185 0
M  V30 12330 H 1366.32 -0.610076 1.95293 0
M  V30 12331 H 1366.33 -2.86295 2.90688 0
M  V30 12332 H 1365 -1.98584 3.65427 0
M  V30 12333 H 1363.58 -3.04141 2.1576 0
M  V30 12334 N 1365.76 -1.381 -0.759346 0
M  V30 12335 C 1367.01 -1.33727 -1.5153 0
M  V30 12336 C 1367.33 0.0739504 -1.9486 0
M  V30 12337 O 1366.6 1.02049 -1.67221 0
M  V30 12338 H 1365.18 -0.492037 -0.562058 0
M  V30 12339 H 1367.85 -1.72719 -0.902995 0
M  V30 12340 H 1366.94 -1.98439 -2.40891 0
M  V30 12341 N 1367.24 0.986894 -1.22875 0
M  V30 12342 C 1368.47 1.768 -1.08427 0
M  V30 12343 C 1368.89 1.84612 0.360555 0
M  V30 12344 O 1368.25 1.30299 1.26063 0
M  V30 12345 C 1368.3 3.17638 -1.70701 0
M  V30 12346 O 1367.4 4.00957 -0.964752 0
M  V30 12347 H 1366.74 0.544199 -0.380451 0
M  V30 12348 H 1369.27 1.23931 -1.62795 0
M  V30 12349 H 1369.28 3.68243 -1.75672 0
M  V30 12350 H 1367.96 3.11267 -2.75837 0
M  V30 12351 H 1366.54 3.59477 -0.991493 0
M  V30 12352 N 1368.72 1.0394 1.18466 0
M  V30 12353 C 1369.97 0.740576 1.88042 0
M  V30 12354 C 1370.29 -0.733822 1.80666 0
M  V30 12355 O 1369.56 -1.52943 1.22414 0
M  V30 12356 H 1368.14 0.270949 0.696129 0
M  V30 12357 H 1370.8 1.31588 1.43772 0
M  V30 12358 H 1369.9 1.04429 2.94111 0
M  V30 12359 N 1370.2 -1.34667 0.818693 0
M  V30 12360 C 1371.13 -2.28368 0.195126 0
M  V30 12361 C 1372.14 -1.50836 -0.612562 0
M  V30 12362 O 1373.33 -1.72917 -0.442936 0
M  V30 12363 C 1370.43 -3.30601 -0.745411 0
M  V30 12364 C 1369.61 -4.37396 0.0185308 0
M  V30 12365 C 1368.66 -5.19415 -0.842298 0
M  V30 12366 O 1367.69 -5.68467 -0.288821 0
M  V30 12367 N 1368.89 -5.38709 -2.1627 0
M  V30 12368 H 1371.66 -2.8252 1.00013 0
M  V30 12369 H 1369.22 -1.47146 0.675262 0
M  V30 12370 H 1371.21 -3.82367 -1.3258 0
M  V30 12371 H 1369.78 -2.76875 -1.45118 0
M  V30 12372 H 1369 -3.86402 0.780205 0
M  V30 12373 H 1370.29 -5.05877 0.544575 0
M  V30 12374 H 1369.69 -5.00523 -2.63616 0
M  V30 12375 H 1368.24 -5.9361 -2.69204 0
M  V30 12376 N 1371.68 -0.573274 -1.46804 0
M  V30 12377 C 1372.9 -0.0586717 -2.07317 0
M  V30 12378 C 1373.33 1.2328 -1.42069 0
M  V30 12379 O 1372.68 1.74235 -0.501188 0
M  V30 12380 C 1372.73 0.103503 -3.60451 0
M  V30 12381 O 1371.84 1.16229 -3.95682 0
M  V30 12382 H 1371.18 -0.0585504 -0.661414 0
M  V30 12383 H 1373.71 -0.793532 -1.88585 0
M  V30 12384 H 1373.72 0.312658 -4.068 0
M  V30 12385 H 1372.39 -0.839684 -4.07335 0
M  V30 12386 H 1370.97 0.932347 -3.61056 0
M  V30 12387 N 1373.15 1.5451 -0.310553 0
M  V30 12388 C 1374.38 2.05204 0.301013 0
M  V30 12389 C 1374.8 1.1859 1.46007 0
M  V30 12390 O 1374.16 0.192081 1.8028 0
M  V30 12391 C 1374.21 3.53221 0.725767 0
M  V30 12392 O 1373.31 3.69596 1.82955 0
M  V30 12393 H 1372.66 0.661566 0.0568026 0
M  V30 12394 H 1375.19 1.99473 -0.455178 0
M  V30 12395 H 1375.2 3.9525 1.01198 0
M  V30 12396 H 1373.87 4.15721 -0.122046 0
M  V30 12397 H 1372.45 3.39472 1.54315 0
M  V30 12398 N 1374.63 0.0384594 1.57553 0
M  V30 12399 C 1375.88 -0.636879 1.91803 0
M  V30 12400 C 1376.2 -1.72128 0.916347 0
M  V30 12401 O 1375.47 -1.95858 -0.0407405 0
M  V30 12402 H 1374.05 -0.238237 0.707992 0
M  V30 12403 H 1376.71 0.0884651 1.94699 0
M  V30 12404 H 1375.81 -1.08364 2.92683 0
M  V30 12405 N 1376.11 -1.55841 -0.234795 0
M  V30 12406 C 1377.36 -1.78238 -0.961116 0
M  V30 12407 C 1377.69 -0.604919 -1.84854 0
M  V30 12408 O 1376.94 0.411289 -1.91329 0
M  V30 12409 C 1377.24 -3.06262 -1.84223 0
M  V30 12410 C 1376.91 -4.37045 -1.10916 0
M  V30 12411 C 1375.57 -4.72582 -0.906606 0
M  V30 12412 C 1377.92 -5.17844 -0.59049 0
M  V30 12413 C 1375.25 -5.86444 -0.173275 0
M  V30 12414 C 1377.6 -6.32468 0.129433 0
M  V30 12415 C 1376.26 -6.66616 0.343357 0
M  V30 12416 H 1375.53 -0.652219 -0.351697 0
M  V30 12417 H 1378.18 -1.9011 -0.230272 0
M  V30 12418 H 1376.49 -2.89454 -2.64052 0
M  V30 12419 H 1378.18 -3.20791 -2.40612 0
M  V30 12420 H 1374.77 -4.09134 -1.27699 0
M  V30 12421 H 1378.96 -4.90835 -0.734487 0
M  V30 12422 H 1374.21 -6.114 0.00282409 0
M  V30 12423 H 1378.39 -6.94312 0.538905 0
M  V30 12424 H 1376.01 -7.54691 0.913538 0
M  V30 12425 N 1377.59 0.500963 -1.49426 0
M  V30 12426 C 1378.84 1.25261 -1.58601 0
M  V30 12427 C 1379.16 1.93056 -0.274647 0
M  V30 12428 O 1378.43 1.82736 0.706003 0
M  V30 12429 H 1377.01 0.465328 -0.584362 0
M  V30 12430 H 1379.67 0.580588 -1.86052 0
M  V30 12431 H 1378.77 2.01652 -2.38208 0
M  V30 12432 N 1379.07 1.38501 0.752011 0
M  V30 12433 C 1380.02 1.32359 1.85648 0
M  V30 12434 C 1381 0.207578 1.59555 0
M  V30 12435 O 1382.19 0.443683 1.71349 0
M  V30 12436 C 1379.32 1.15253 3.23375 0
M  V30 12437 C 1378.41 2.31483 3.55354 0
M  V30 12438 N 1378.8 3.56929 3.58379 0
M  V30 12439 C 1377.1 2.2407 3.85628 0
M  V30 12440 C 1377.8 4.33691 3.87669 0
M  V30 12441 N 1376.77 3.63065 4.04579 0
M  V30 12442 H 1380.58 2.27336 1.86267 0
M  V30 12443 H 1378.09 1.31755 0.949441 0
M  V30 12444 H 1380.09 1.08937 4.02416 0
M  V30 12445 H 1378.75 0.212108 3.24006 0
M  V30 12446 H 1379.76 3.90578 3.40101 0
M  V30 12447 H 1376.44 1.38196 3.93965 0
M  V30 12448 H 1377.83 5.42349 3.9662 0
M  V30 12449 N 1380.55 -0.980364 1.23396 0
M  V30 12450 C 1381.49 -2.07275 1.01516 0
M  V30 12451 C 1382.46 -1.65963 -0.0673729 0
M  V30 12452 O 1383.65 -1.90612 0.0847392 0
M  V30 12453 C 1380.79 -3.39621 0.61249 0
M  V30 12454 C 1379.9 -3.94203 1.76715 0
M  V30 12455 C 1379.04 -5.14761 1.31126 0
M  V30 12456 C 1378.07 -5.61509 2.43667 0
M  V30 12457 N 1377.21 -6.73297 1.99035 0
M  V30 12458 H 1382.05 -2.25325 1.9502 0
M  V30 12459 H 1379.59 -1.10452 0.971532 0
M  V30 12460 H 1381.55 -4.15643 0.360126 0
M  V30 12461 H 1380.18 -3.21535 -0.285539 0
M  V30 12462 H 1379.23 -3.14937 2.13352 0
M  V30 12463 H 1380.54 -4.24867 2.61323 0
M  V30 12464 H 1379.69 -5.98115 1.01702 0
M  V30 12465 H 1378.43 -4.85751 0.435555 0
M  V30 12466 H 1377.44 -4.76737 2.73865 0
M  V30 12467 H 1378.66 -5.92539 3.31774 0
M  V30 12468 H 1376.61 -6.46046 1.13845 0
M  V30 12469 H 1376.53 -7.03345 2.77203 0
M  V30 12470 H 1377.79 -7.60125 1.72716 0
M  V30 12471 N 1382.02 -1.04567 -1.17913 0
M  V30 12472 C 1383.25 -0.772146 -1.92491 0
M  V30 12473 C 1383.67 0.665297 -1.75942 0
M  V30 12474 O 1383.03 1.46144 -1.07292 0
M  V30 12475 C 1383.08 -1.14966 -3.41782 0
M  V30 12476 O 1382.18 -0.278091 -4.11461 0
M  V30 12477 H 1381.52 -0.283715 -0.600335 0
M  V30 12478 H 1384.05 -1.39685 -1.49496 0
M  V30 12479 H 1384.06 -1.11374 -3.92505 0
M  V30 12480 H 1382.74 -2.1968 -3.53148 0
M  V30 12481 H 1381.32 -0.374073 -3.71019 0
M  V30 12482 N 1383.5 1.34231 -0.825823 0
M  V30 12483 C 1384.73 2.02949 -0.427354 0
M  V30 12484 C 1385.15 1.61772 0.959755 0
M  V30 12485 O 1384.51 0.803799 1.62508 0
M  V30 12486 C 1384.56 3.56522 -0.540799 0
M  V30 12487 O 1383.66 4.10065 0.438213 0
M  V30 12488 H 1383 0.640378 -0.175535 0
M  V30 12489 H 1385.53 1.71416 -1.11704 0
M  V30 12490 H 1385.54 4.05857 -0.41763 0
M  V30 12491 H 1384.22 3.85839 -1.55246 0
M  V30 12492 H 1382.79 3.71894 0.273687 0
M  V30 12493 N 1384.98 0.581051 1.46498 0
M  V30 12494 C 1386.2 0.0696654 2.07283 0
M  V30 12495 C 1386.63 -1.22525 1.42721 0
M  V30 12496 O 1385.99 -1.73967 0.510421 0
M  V30 12497 C 1386.04 -0.0843864 3.60501 0
M  V30 12498 O 1385.14 -1.14129 3.96293 0
M  V30 12499 H 1384.48 0.0620572 0.661094 0
M  V30 12500 H 1387.01 0.803522 1.88161 0
M  V30 12501 H 1387.02 -0.29108 4.0696 0
M  V30 12502 H 1385.7 0.861274 4.06884 0
M  V30 12503 H 1384.27 -0.913186 3.61546 0
M  V30 12504 N 1386.46 -1.54343 0.318742 0
M  V30 12505 C 1387.71 -2.00084 -0.284713 0
M  V30 12506 C 1388.03 -1.20855 -1.53033 0
M  V30 12507 O 1387.3 -0.309104 -1.93446 0
M  V30 12508 H 1385.88 -0.739123 -0.108193 0
M  V30 12509 H 1388.54 -1.90002 0.434174 0
M  V30 12510 H 1387.63 -3.07314 -0.544459 0
M  V30 12511 N 1387.94 -0.0468143 -1.5753 0
M  V30 12512 C 1388.87 0.958157 -2.08211 0
M  V30 12513 C 1389.88 1.27757 -1.00906 0
M  V30 12514 O 1391.07 1.23913 -1.28483 0
M  V30 12515 C 1388.17 2.28088 -2.50657 0
M  V30 12516 C 1387.34 2.14403 -3.81248 0
M  V30 12517 C 1386.4 3.29761 -4.10054 0
M  V30 12518 O 1385.43 3.05859 -4.8004 0
M  V30 12519 N 1386.63 4.54104 -3.61621 0
M  V30 12520 H 1389.39 0.525612 -2.95055 0
M  V30 12521 H 1386.96 0.139532 -1.61298 0
M  V30 12522 H 1388.95 3.04121 -2.67007 0
M  V30 12523 H 1387.52 2.62924 -1.69085 0
M  V30 12524 H 1386.74 1.22988 -3.74523 0
M  V30 12525 H 1388.03 2.02482 -4.66775 0
M  V30 12526 H 1387.42 4.76414 -3.05034 0
M  V30 12527 H 1385.98 5.27246 -3.83217 0
M  V30 12528 N 1389.41 1.55964 0.226527 0
M  V30 12529 C 1390.64 1.83168 0.972846 0
M  V30 12530 C 1391.06 0.626512 1.7736 0
M  V30 12531 O 1390.42 -0.42468 1.76256 0
M  V30 12532 C 1390.47 3.08315 1.87014 0
M  V30 12533 O 1389.57 2.8666 2.96479 0
M  V30 12534 H 1388.92 0.604041 0.275736 0
M  V30 12535 H 1391.45 2.03172 0.241345 0
M  V30 12536 H 1391.46 3.38288 2.28091 0
M  V30 12537 H 1390.13 3.95663 1.28154 0
M  V30 12538 H 1388.71 2.67907 2.59384 0
M  V30 12539 N 1390.89 -0.493031 1.4969 0
M  V30 12540 C 1392.12 -1.27517 1.63567 0
M  V30 12541 C 1392.54 -1.85526 0.310105 0
M  V30 12542 O 1391.9 -1.66246 -0.723314 0
M  V30 12543 C 1391.95 -2.37551 2.71296 0
M  V30 12544 O 1391.05 -3.41617 2.31023 0
M  V30 12545 H 1390.39 -0.376116 0.547205 0
M  V30 12546 H 1392.92 -0.589328 1.95929 0
M  V30 12547 H 1392.93 -2.83196 2.93708 0
M  V30 12548 H 1391.61 -1.94697 3.67513 0
M  V30 12549 H 1390.19 -3.01836 2.18974 0
M  V30 12550 N 1392.37 -1.38898 -0.744656 0
M  V30 12551 C 1393.62 -1.35327 -1.50104 0
M  V30 12552 C 1393.94 0.0532788 -1.94927 0
M  V30 12553 O 1393.21 1.0027 -1.68294 0
M  V30 12554 H 1391.79 -0.49797 -0.556808 0
M  V30 12555 H 1394.45 -1.73667 -0.884625 0
M  V30 12556 H 1393.55 -2.00983 -2.38773 0
M  V30 12557 N 1393.85 0.973806 -1.23914 0
M  V30 12558 C 1395.08 1.74853 -1.10046 0
M  V30 12559 C 1395.49 1.85927 0.350388 0
M  V30 12560 O 1394.83 1.34252 1.25388 0
M  V30 12561 C 1394.89 3.18919 -1.65924 0
M  V30 12562 C 1394.56 3.31335 -3.14748 0
M  V30 12563 C 1395.55 3.17141 -4.11968 0
M  V30 12564 C 1393.24 3.55772 -3.54587 0
M  V30 12565 C 1395.23 3.27199 -5.47009 0
M  V30 12566 C 1392.92 3.65468 -4.89771 0
M  V30 12567 C 1393.92 3.51193 -5.85792 0
M  V30 12568 O 1393.6 3.60534 -7.18519 0
M  V30 12569 H 1393.34 0.555345 -0.385445 0
M  V30 12570 H 1395.89 1.23168 -1.64374 0
M  V30 12571 H 1394.12 3.71882 -1.06023 0
M  V30 12572 H 1395.81 3.78177 -1.47434 0
M  V30 12573 H 1396.58 2.98153 -3.82531 0
M  V30 12574 H 1392.45 3.65951 -2.80358 0
M  V30 12575 H 1396 3.15974 -6.21937 0
M  V30 12576 H 1391.9 3.83969 -5.18882 0
M  V30 12577 H 1392.66 3.77288 -7.26358 0
M  V30 12578 N 1395.33 1.05191 1.17357 0
M  V30 12579 C 1396.55 0.782373 1.91537 0
M  V30 12580 C 1396.97 -0.661935 1.76816 0
M  V30 12581 O 1396.33 -1.45221 1.10531 0
M  V30 12582 C 1396.38 1.15357 3.426 0
M  V30 12583 O 1396.1 2.54119 3.56869 0
M  V30 12584 C 1397.6 0.910167 4.33856 0
M  V30 12585 H 1394.82 0.284461 0.607719 0
M  V30 12586 H 1397.36 1.40259 1.48821 0
M  V30 12587 H 1395.52 0.578107 3.83062 0
M  V30 12588 H 1395.93 2.68668 4.50464 0
M  V30 12589 H 1397.41 1.21964 5.38358 0
M  V30 12590 H 1397.88 -0.154624 4.38928 0
M  V30 12591 H 1398.49 1.46947 3.99107 0
M  V30 12592 N 1396.8 -1.33791 0.83293 0
M  V30 12593 C 1397.74 -2.28148 0.219336 0
M  V30 12594 C 1398.75 -1.51477 -0.596529 0
M  V30 12595 O 1399.94 -1.73377 -0.424571 0
M  V30 12596 C 1397.04 -3.31373 -0.710305 0
M  V30 12597 C 1396.21 -4.37352 0.0649215 0
M  V30 12598 C 1395.27 -5.20279 -0.78716 0
M  V30 12599 O 1394.3 -5.68741 -0.228511 0
M  V30 12600 N 1395.5 -5.40973 -2.10544 0
M  V30 12601 H 1398.26 -2.81443 1.03004 0
M  V30 12602 H 1395.82 -1.46421 0.690831 0
M  V30 12603 H 1397.82 -3.83752 -1.28517 0
M  V30 12604 H 1396.39 -2.78398 -1.42173 0
M  V30 12605 H 1395.61 -3.85553 0.821144 0
M  V30 12606 H 1396.89 -5.05271 0.598199 0
M  V30 12607 H 1396.29 -5.03291 -2.58292 0
M  V30 12608 H 1394.85 -5.96432 -2.62893 0
M  V30 12609 N 1398.28 -0.588812 -1.46187 0
M  V30 12610 C 1399.23 0.161973 -2.27424 0
M  V30 12611 C 1400.22 0.856178 -1.36229 0
M  V30 12612 O 1401.41 0.749266 -1.60359 0
M  V30 12613 C 1398.54 1.17104 -3.2271 0
M  V30 12614 C 1397.62 0.478637 -4.2139 0
M  V30 12615 N 1398.01 -0.46921 -5.03619 0
M  V30 12616 C 1396.31 0.728608 -4.40008 0
M  V30 12617 C 1397.01 -0.874455 -5.7509 0
M  V30 12618 N 1395.99 -0.222267 -5.43145 0
M  V30 12619 H 1399.79 -0.566306 -2.88392 0
M  V30 12620 H 1397.31 -0.41106 -1.57112 0
M  V30 12621 H 1399.3 1.72314 -3.79623 0
M  V30 12622 H 1397.96 1.90008 -2.63301 0
M  V30 12623 H 1398.97 -0.84504 -5.10959 0
M  V30 12624 H 1395.65 1.44375 -3.91742 0
M  V30 12625 H 1397.04 -1.65514 -6.51195 0
M  V30 12626 N 1399.76 1.54172 -0.326923 0
M  V30 12627 C 1401.01 2.00233 0.274098 0
M  V30 12628 C 1401.33 1.21665 1.5239 0
M  V30 12629 O 1400.6 0.319359 1.93279 0
M  V30 12630 H 1399.18 0.739687 0.104271 0
M  V30 12631 H 1401.84 1.8977 -0.444244 0
M  V30 12632 H 1400.94 3.07599 0.528154 0
M  V30 12633 N 1401.24 0.0551678 1.57503 0
M  V30 12634 C 1402.46 -0.630692 1.97578 0
M  V30 12635 C 1402.89 -1.63348 0.932686 0
M  V30 12636 O 1402.25 -1.81004 -0.103632 0
M  V30 12637 C 1402.29 -1.29049 3.36718 0
M  V30 12638 O 1401.4 -2.40621 3.34926 0
M  V30 12639 H 1400.74 -0.163625 0.643524 0
M  V30 12640 H 1403.27 0.124753 2.04219 0
M  V30 12641 H 1403.28 -1.64124 3.73534 0
M  V30 12642 H 1401.95 -0.55559 4.12172 0
M  V30 12643 H 1400.53 -2.07463 3.0986 0
M  V30 12644 N 1402.72 -1.56081 -0.218252 0
M  V30 12645 C 1403.96 -1.78893 -0.940296 0
M  V30 12646 C 1404.29 -0.62425 -1.84738 0
M  V30 12647 O 1403.56 0.358686 -1.92588 0
M  V30 12648 H 1402.14 -0.659828 -0.350193 0
M  V30 12649 H 1404.8 -1.93546 -0.229316 0
M  V30 12650 H 1403.89 -2.71167 -1.54516 0
M  V30 12651 N 1404.2 0.485086 -1.49949 0
M  V30 12652 C 1405.42 1.26648 -1.64241 0
M  V30 12653 C 1405.85 1.85359 -0.319939 0
M  V30 12654 O 1405.2 1.66628 0.714487 0
M  V30 12655 C 1405.25 2.36109 -2.72552 0
M  V30 12656 O 1404.36 3.40387 -2.32832 0
M  V30 12657 H 1403.7 0.373208 -0.549192 0
M  V30 12658 H 1406.23 0.578929 -1.96239 0
M  V30 12659 H 1406.24 2.81634 -2.95205 0
M  V30 12660 H 1404.91 1.92745 -3.6854 0
M  V30 12661 H 1403.49 3.0067 -2.20571 0
M  V30 12662 N 1405.67 1.39291 0.737279 0
M  V30 12663 C 1406.92 1.36121 1.49384 0
M  V30 12664 C 1407.24 -0.0429406 1.94953 0
M  V30 12665 O 1406.51 -0.993756 1.68823 0
M  V30 12666 H 1405.09 0.500916 0.554159 0
M  V30 12667 H 1407.75 1.74134 0.875402 0
M  V30 12668 H 1406.85 2.02246 2.37704 0
M  V30 12669 N 1407.15 -0.967221 1.24429 0
M  V30 12670 C 1408.1 -2.047 1.00409 0
M  V30 12671 C 1409.09 -1.60807 -0.0546412 0
M  V30 12672 O 1410.28 -1.76283 0.159145 0
M  V30 12673 C 1407.41 -3.37813 0.611345 0
M  V30 12674 C 1406.49 -3.88266 1.70618 0
M  V30 12675 N 1406.88 -4.1165 2.93901 0
M  V30 12676 C 1405.18 -4.16931 1.5838 0
M  V30 12677 C 1405.88 -4.53032 3.64879 0
M  V30 12678 N 1404.86 -4.58233 2.92444 0
M  V30 12679 H 1408.66 -2.20755 1.94021 0
M  V30 12680 H 1406.17 -1.15105 1.14562 0
M  V30 12681 H 1408.17 -4.14774 0.420493 0
M  V30 12682 H 1406.83 -3.23143 -0.317588 0
M  V30 12683 H 1407.84 -3.99087 3.30075 0
M  V30 12684 H 1404.52 -4.11193 0.722929 0
M  V30 12685 H 1405.91 -4.79533 4.70635 0
M  V30 12686 N 1408.63 -1.05812 -1.16797 0
M  V30 12687 C 1409.85 -0.792518 -1.91661 0
M  V30 12688 C 1410.28 0.646598 -1.76637 0
M  V30 12689 O 1409.64 1.44998 -1.08836 0
M  V30 12690 C 1409.69 -1.18585 -3.40544 0
M  V30 12691 O 1408.79 -0.321716 -4.11143 0
M  V30 12692 H 1408.13 -0.290066 -0.597292 0
M  V30 12693 H 1410.66 -1.41263 -1.48007 0
M  V30 12694 H 1410.67 -1.1553 -3.91301 0
M  V30 12695 H 1409.35 -2.23413 -3.50798 0
M  V30 12696 H 1407.92 -0.413403 -3.70601 0
M  V30 12697 N 1410.11 1.33347 -0.840014 0
M  V30 12698 C 1411.33 2.02485 -0.448856 0
M  V30 12699 C 1411.76 1.62781 0.942543 0
M  V30 12700 O 1411.12 0.82099 1.61646 0
M  V30 12701 C 1411.16 3.55928 -0.578582 0
M  V30 12702 O 1410.27 4.10507 0.394695 0
M  V30 12703 H 1409.61 0.63848 -0.182317 0
M  V30 12704 H 1412.14 1.70221 -1.13516 0
M  V30 12705 H 1412.15 4.05391 -0.460653 0
M  V30 12706 H 1410.82 3.8417 -1.5933 0
M  V30 12707 H 1409.4 3.72164 0.234227 0
M  V30 12708 N 1411.59 0.596556 1.45873 0
M  V30 12709 C 1412.81 0.0916466 2.07197 0
M  V30 12710 C 1413.24 -1.21004 1.44012 0
M  V30 12711 O 1412.59 -1.73415 0.528844 0
M  V30 12712 C 1412.64 -0.0461457 3.6057 0
M  V30 12713 O 1411.75 -1.09919 3.97481 0
M  V30 12714 H 1411.09 0.0690655 0.660398 0
M  V30 12715 H 1413.62 0.823434 1.87299 0
M  V30 12716 H 1413.63 -0.2479 4.07246 0
M  V30 12717 H 1412.3 0.904381 4.05948 0
M  V30 12718 H 1410.88 -0.874788 3.62494 0
M  V30 12719 N 1413.06 -1.53996 0.335095 0
M  V30 12720 C 1414.29 -2.0489 -0.265245 0
M  V30 12721 C 1414.7 -1.21024 -1.4543 0
M  V30 12722 O 1414.04 -0.236417 -1.82172 0
M  V30 12723 C 1414.11 -3.51546 -0.752018 0
M  V30 12724 C 1413.77 -4.55904 0.316261 0
M  V30 12725 C 1414.77 -5.06881 1.15617 0
M  V30 12726 C 1412.45 -5.00117 0.467762 0
M  V30 12727 C 1414.45 -6.00644 2.13321 0
M  V30 12728 C 1412.13 -5.93692 1.4482 0
M  V30 12729 C 1413.13 -6.43842 2.27938 0
M  V30 12730 O 1412.82 -7.35578 3.24315 0
M  V30 12731 H 1412.55 -0.673631 -0.0565427 0
M  V30 12732 H 1415.11 -1.99646 0.482771 0
M  V30 12733 H 1413.34 -3.54227 -1.55114 0
M  V30 12734 H 1415.02 -3.85455 -1.27197 0
M  V30 12735 H 1415.79 -4.73494 1.05017 0
M  V30 12736 H 1411.67 -4.60689 -0.169338 0
M  V30 12737 H 1415.21 -6.39711 2.78236 0
M  V30 12738 H 1411.11 -6.26495 1.5548 0
M  V30 12739 H 1411.88 -7.53487 3.19688 0
M  V30 12740 N 1414.54 -0.0635198 -1.57472 0
M  V30 12741 C 1415.45 0.921531 -2.15743 0
M  V30 12742 C 1416.47 1.33294 -1.11842 0
M  V30 12743 O 1417.64 1.40733 -1.4407 0
M  V30 12744 C 1414.71 2.17378 -2.70088 0
M  V30 12745 C 1413.77 1.81956 -3.88832 0
M  V30 12746 C 1413 3.01211 -4.40577 0
M  V30 12747 O 1413.23 4.14971 -3.9135 0
M  V30 12748 O 1412.16 2.81507 -5.32012 0
M  V30 12749 H 1415.99 0.455899 -3.00259 0
M  V30 12750 H 1413.57 0.159085 -1.48551 0
M  V30 12751 H 1415.45 2.90826 -3.04956 0
M  V30 12752 H 1414.13 2.63055 -1.88637 0
M  V30 12753 H 1413.03 1.05786 -3.58832 0
M  V30 12754 H 1414.37 1.41069 -4.71551 0
M  V30 12755 N 1416.02 1.56195 0.209972 0
M  V30 12756 C 1416.95 1.89859 1.28398 0
M  V30 12757 C 1417.96 0.787878 1.42465 0
M  V30 12758 O 1419.15 1.06623 1.43156 0
M  V30 12759 C 1416.25 2.10231 2.65812 0
M  V30 12760 C 1415.43 3.41309 2.73545 0
M  V30 12761 C 1414.49 3.50973 3.92052 0
M  V30 12762 O 1413.51 4.23915 3.79849 0
M  V30 12763 N 1414.71 2.82965 5.06864 0
M  V30 12764 H 1417.48 2.82581 0.998411 0
M  V30 12765 H 1415.04 1.56882 0.399964 0
M  V30 12766 H 1417.03 2.13999 3.43492 0
M  V30 12767 H 1415.6 1.2408 2.8692 0
M  V30 12768 H 1414.82 3.49539 1.82253 0
M  V30 12769 H 1416.11 4.27636 2.7569 0
M  V30 12770 H 1415.51 2.23504 5.19676 0
M  V30 12771 H 1414.06 2.9238 5.82544 0
M  V30 12772 N 1417.5 -0.477127 1.50204 0
M  V30 12773 C 1418.45 -1.57334 1.65015 0
M  V30 12774 C 1419.43 -1.52771 0.504953 0
M  V30 12775 O 1420.62 -1.59897 0.759072 0
M  V30 12776 C 1417.75 -2.95815 1.74208 0
M  V30 12777 C 1416.84 -3.05284 2.94385 0
M  V30 12778 N 1417.23 -2.84582 4.18147 0
M  V30 12779 C 1415.53 -3.36413 2.92817 0
M  V30 12780 C 1416.23 -2.98859 4.99057 0
M  V30 12781 N 1415.2 -3.28794 4.32892 0
M  V30 12782 H 1419.01 -1.40018 2.58403 0
M  V30 12783 H 1416.52 -0.68374 1.47305 0
M  V30 12784 H 1418.52 -3.74627 1.82921 0
M  V30 12785 H 1417.18 -3.14182 0.819746 0
M  V30 12786 H 1418.19 -2.60282 4.47743 0
M  V30 12787 H 1414.87 -3.60806 2.1006 0
M  V30 12788 H 1416.26 -2.87144 6.07452 0
M  V30 12789 N 1418.98 -1.3968 -0.729882 0
M  V30 12790 C 1420.22 -1.36911 -1.4866 0
M  V30 12791 C 1420.55 0.0326011 -1.94973 0
M  V30 12792 O 1419.82 0.984789 -1.69348 0
M  V30 12793 H 1418.4 -0.503848 -0.551495 0
M  V30 12794 H 1421.06 -1.74596 -0.866155 0
M  V30 12795 H 1420.15 -2.03504 -2.36628 0
M  V30 12796 N 1420.45 0.960609 -1.2494 0
M  V30 12797 C 1421.68 1.7446 -1.12153 0
M  V30 12798 C 1422.1 1.85335 0.321315 0
M  V30 12799 O 1421.46 1.32944 1.23271 0
M  V30 12800 C 1421.51 3.13945 -1.774 0
M  V30 12801 O 1420.61 3.9882 -1.04958 0
M  V30 12802 H 1419.96 0.536007 -0.391909 0
M  V30 12803 H 1422.49 1.2045 -1.65388 0
M  V30 12804 H 1422.5 3.64434 -1.83444 0
M  V30 12805 H 1421.17 3.05346 -2.82377 0
M  V30 12806 H 1419.75 3.57293 -1.06752 0
M  V30 12807 N 1421.93 1.0643 1.16234 0
M  V30 12808 C 1423.35 0.78802 1.38789 0
M  V30 12809 C 1423.55 -0.612019 1.91981 0
M  V30 12810 O 1422.6 -1.37235 2.1195 0
M  V30 12811 C 1423.92 1.85406 2.36738 0
M  V30 12812 C 1425.47 1.87773 2.5042 0
M  V30 12813 C 1425.94 2.93435 3.51653 0
M  V30 12814 N 1427.43 2.92477 3.59181 0
M  V30 12815 C 1428.17 3.7088 4.37305 0
M  V30 12816 N 1427.66 4.59106 5.18839 0
M  V30 12817 N 1429.46 3.59267 4.32301 0
M  V30 12818 H 1421.61 1.9674 0.800449 0
M  V30 12819 H 1423.87 0.852631 0.414397 0
M  V30 12820 H 1423.58 2.85954 2.04751 0
M  V30 12821 H 1423.45 1.70625 3.36403 0
M  V30 12822 H 1425.84 0.878825 2.8171 0
M  V30 12823 H 1425.92 2.06633 1.50787 0
M  V30 12824 H 1425.56 3.93519 3.211 0
M  V30 12825 H 1425.49 2.71824 4.5102 0
M  V30 12826 H 1427.98 2.28517 3.00979 0
M  V30 12827 H 1428.3 5.15583 5.75668 0
M  V30 12828 H 1426.64 4.6316 5.18177 0
M  V30 12829 H 1429.83 2.89726 3.67663 0
M  V30 12830 H 1430 4.20613 4.92939 0
M  V30 12831 N 1423.41 -1.329 0.847073 0
M  V30 12832 C 1424.64 -2.02244 0.459588 0
M  V30 12833 C 1425.06 -1.63279 -0.933897 0
M  V30 12834 O 1424.42 -0.829551 -1.61208 0
M  V30 12835 C 1424.47 -3.55616 0.59745 0
M  V30 12836 O 1423.57 -4.1071 -0.372919 0
M  V30 12837 H 1422.91 -0.637504 0.1857 0
M  V30 12838 H 1425.44 -1.69617 1.14417 0
M  V30 12839 H 1425.45 -4.05141 0.482145 0
M  V30 12840 H 1424.13 -3.8332 1.61365 0
M  V30 12841 H 1422.7 -3.72283 -0.214487 0
M  V30 12842 N 1424.89 -0.604284 -1.45555 0
M  V30 12843 C 1426.14 -0.0979922 -2.01862 0
M  V30 12844 C 1426.46 1.27476 -1.47563 0
M  V30 12845 O 1425.73 1.84137 -0.668612 0
M  V30 12846 H 1424.31 -0.033235 -0.74626 0
M  V30 12847 H 1426.97 -0.784936 -1.78395 0
M  V30 12848 H 1426.07 -0.0452716 -3.12067 0
M  V30 12849 N 1426.37 1.53816 -0.343257 0
M  V30 12850 C 1427.3 2.22552 0.548015 0
M  V30 12851 C 1428.31 1.23202 1.06419 0
M  V30 12852 O 1429.5 1.49559 0.974394 0
M  V30 12853 C 1426.6 2.89197 1.76687 0
M  V30 12854 C 1425.77 4.14859 1.38603 0
M  V30 12855 C 1424.83 4.64917 2.46453 0
M  V30 12856 O 1423.86 5.29135 2.09773 0
M  V30 12857 N 1425.06 4.4082 3.77701 0
M  V30 12858 H 1427.83 2.99672 -0.040645 0
M  V30 12859 H 1425.39 1.61033 -0.167368 0
M  V30 12860 H 1427.38 3.19601 2.48268 0
M  V30 12861 H 1425.95 2.15664 2.26291 0
M  V30 12862 H 1425.17 3.91003 0.501001 0
M  V30 12863 H 1426.46 4.96599 1.10756 0
M  V30 12864 H 1425.85 3.8946 4.1029 0
M  V30 12865 H 1424.41 4.7583 4.45453 0
M  V30 12866 N 1427.84 0.0718701 1.57436 0
M  V30 12867 C 1429.07 -0.609701 1.98236 0
M  V30 12868 C 1429.49 -1.6235 0.949959 0
M  V30 12869 O 1428.85 -1.81103 -0.0844281 0
M  V30 12870 C 1428.9 -1.2547 3.38068 0
M  V30 12871 O 1428 -2.37055 3.37459 0
M  V30 12872 H 1427.35 -0.15679 0.645223 0
M  V30 12873 H 1429.88 0.146407 2.04076 0
M  V30 12874 H 1429.89 -1.60152 3.75254 0
M  V30 12875 H 1428.56 -0.511842 4.12738 0
M  V30 12876 H 1427.14 -2.04165 3.12043 0
M  V30 12877 N 1429.32 -1.56304 -0.201686 0
M  V30 12878 C 1430.55 -1.84692 -0.943583 0
M  V30 12879 C 1430.97 -0.654649 -1.7634 0
M  V30 12880 O 1430.33 0.396586 -1.76909 0
M  V30 12881 C 1430.38 -3.11251 -1.82085 0
M  V30 12882 O 1429.48 -2.9134 -2.91881 0
M  V30 12883 H 1428.82 -0.608351 -0.266092 0
M  V30 12884 H 1431.35 -2.0353 -0.208992 0
M  V30 12885 H 1431.36 -3.41874 -2.2268 0
M  V30 12886 H 1430.04 -3.97652 -1.21844 0
M  V30 12887 H 1428.62 -2.72 -2.55089 0
M  V30 12888 N 1430.8 0.469154 -1.50455 0
M  V30 12889 C 1432.22 0.803067 -1.37924 0
M  V30 12890 C 1432.42 1.96708 -0.436837 0
M  V30 12891 O 1431.47 2.52216 0.119823 0
M  V30 12892 C 1432.79 1.11332 -2.79331 0
M  V30 12893 C 1434.33 1.21965 -2.88259 0
M  V30 12894 C 1434.81 1.56302 -4.30504 0
M  V30 12895 N 1436.3 1.6329 -4.33464 0
M  V30 12896 C 1437.03 1.91367 -5.40524 0
M  V30 12897 N 1436.53 2.17451 -6.57789 0
M  V30 12898 N 1438.32 1.92885 -5.2797 0
M  V30 12899 H 1430.47 -0.297928 -2.103 0
M  V30 12900 H 1432.74 -0.0707794 -0.945354 0
M  V30 12901 H 1432.44 0.331052 -3.50138 0
M  V30 12902 H 1432.32 2.04903 -3.16693 0
M  V30 12903 H 1434.7 1.99259 -2.17669 0
M  V30 12904 H 1434.79 0.263692 -2.54437 0
M  V30 12905 H 1434.43 0.795479 -5.01632 0
M  V30 12906 H 1434.36 2.53052 -4.61814 0
M  V30 12907 H 1436.85 1.45164 -3.48907 0
M  V30 12908 H 1437.16 2.38154 -7.35189 0
M  V30 12909 H 1435.51 2.14839 -6.60961 0
M  V30 12910 H 1438.7 1.72005 -4.35353 0
M  V30 12911 H 1438.87 2.1443 -6.11493 0
M  V30 12912 N 1432.28 1.40065 0.722464 0
M  V30 12913 C 1433.5 1.4146 1.5167 0
M  V30 12914 C 1433.93 0.0142653 1.88095 0
M  V30 12915 O 1433.29 -0.975934 1.52791 0
M  V30 12916 C 1433.33 2.30531 2.77287 0
M  V30 12917 O 1432.44 1.74382 3.73717 0
M  V30 12918 H 1431.78 0.481194 0.457546 0
M  V30 12919 H 1434.31 1.84213 0.890331 0
M  V30 12920 H 1434.32 2.45479 3.25889 0
M  V30 12921 H 1432.99 3.32292 2.50109 0
M  V30 12922 H 1431.57 1.68743 3.32536 0
M  V30 12923 N 1433.76 -0.95397 1.25448 0
M  V30 12924 C 1434.67 -2.08452 1.07634 0
M  V30 12925 C 1435.68 -1.73995 0.013294 0
M  V30 12926 O 1436.86 -2.00256 0.214367 0
M  V30 12927 C 1433.92 -3.39606 0.697756 0
M  V30 12928 C 1432.99 -3.87926 1.83881 0
M  V30 12929 C 1432.22 -5.12821 1.47819 0
M  V30 12930 O 1432.44 -5.69172 0.374143 0
M  V30 12931 O 1431.38 -5.55866 2.3086 0
M  V30 12932 H 1435.2 -2.26382 2.02447 0
M  V30 12933 H 1432.79 -1.06877 1.04392 0
M  V30 12934 H 1434.67 -4.18438 0.498778 0
M  V30 12935 H 1433.34 -3.22944 -0.221108 0
M  V30 12936 H 1432.25 -3.10095 2.09265 0
M  V30 12937 H 1433.58 -4.09087 2.73694 0
M  V30 12938 N 1435.24 -1.07045 -1.15668 0
M  V30 12939 C 1436.17 -0.645945 -2.1991 0
M  V30 12940 C 1437.18 0.29995 -1.60013 0
M  V30 12941 O 1438.37 0.0897537 -1.78274 0
M  V30 12942 C 1435.47 0.0721917 -3.38823 0
M  V30 12943 C 1434.64 -0.889103 -4.28268 0
M  V30 12944 C 1433.7 -0.208829 -5.25785 0
M  V30 12945 O 1432.73 -0.848894 -5.62834 0
M  V30 12946 N 1433.93 1.04671 -5.70985 0
M  V30 12947 H 1436.69 -1.54266 -2.56948 0
M  V30 12948 H 1434.26 -0.954736 -1.30753 0
M  V30 12949 H 1436.25 0.537882 -4.0111 0
M  V30 12950 H 1434.82 0.870805 -3.00226 0
M  V30 12951 H 1434.04 -1.53399 -3.63129 0
M  V30 12952 H 1435.33 -1.54097 -4.84904 0
M  V30 12953 H 1434.72 1.58673 -5.42991 0
M  V30 12954 H 1433.28 1.45613 -6.35327 0
M  V30 12955 N 1436.71 1.32449 -0.85411 0
M  V30 12956 C 1437.66 2.26394 -0.270121 0
M  V30 12957 C 1438.65 1.49939 0.58371 0
M  V30 12958 O 1439.84 1.71617 0.433182 0
M  V30 12959 C 1436.97 3.3901 0.540998 0
M  V30 12960 C 1436.05 4.22851 -0.32519 0
M  V30 12961 N 1436.45 4.85715 -1.41118 0
M  V30 12962 C 1434.74 4.45852 -0.114845 0
M  V30 12963 C 1435.44 5.48254 -1.94402 0
M  V30 12964 N 1434.42 5.29192 -1.24327 0
M  V30 12965 H 1438.22 2.72523 -1.10037 0
M  V30 12966 H 1435.74 1.46531 -0.700167 0
M  V30 12967 H 1437.73 4.0532 0.975778 0
M  V30 12968 H 1436.39 2.94427 1.36905 0
M  V30 12969 H 1437.4 4.85831 -1.79411 0
M  V30 12970 H 1434.08 4.11949 0.678533 0
M  V30 12971 H 1435.47 6.08259 -2.8543 0
M  V30 12972 N 1438.19 0.611994 1.45232 0
M  V30 12973 C 1439.44 0.108696 2.01807 0
M  V30 12974 C 1439.76 -1.26692 1.48237 0
M  V30 12975 O 1439.03 -1.8378 0.678368 0
M  V30 12976 H 1437.61 0.0371921 0.746074 0
M  V30 12977 H 1440.27 0.794386 1.77976 0
M  V30 12978 H 1439.37 0.0618207 3.12039 0
M  V30 12979 N 1439.67 -1.53632 0.351409 0
M  V30 12980 C 1440.89 -2.0593 -0.246501 0
M  V30 12981 C 1441.32 -1.22419 -1.42812 0
M  V30 12982 O 1440.68 -0.239811 -1.79707 0
M  V30 12983 C 1440.73 -3.55021 -0.631862 0
M  V30 12984 O 1439.83 -3.74317 -1.73092 0
M  V30 12985 H 1439.17 -0.662839 -0.0392424 0
M  V30 12986 H 1441.7 -1.98196 0.507904 0
M  V30 12987 H 1441.71 -3.97795 -0.906831 0
M  V30 12988 H 1440.39 -4.15251 0.232224 0
M  V30 12989 H 1438.96 -3.43444 -1.4526 0
M  V30 12990 N 1441.15 -0.0802183 -1.57396 0
M  V30 12991 C 1442.37 0.599179 -1.98556 0
M  V30 12992 C 1442.8 1.61844 -0.958555 0
M  V30 12993 O 1442.16 1.81146 0.0748226 0
M  V30 12994 C 1442.2 1.23675 -3.38728 0
M  V30 12995 O 1441.31 2.35262 -3.38712 0
M  V30 12996 H 1440.65 0.153366 -0.646045 0
M  V30 12997 H 1443.18 -0.157227 -2.03995 0
M  V30 12998 H 1443.19 1.5816 -3.76098 0
M  V30 12999 H 1441.86 0.489946 -4.13004 0
M  V30 13000 H 1440.44 2.02507 -3.13122 0
M  V30 13001 N 1442.63 1.56409 0.193394 0
M  V30 13002 C 1443.85 1.8519 0.933775 0
M  V30 13003 C 1444.28 0.663991 1.75991 0
M  V30 13004 O 1443.63 -0.387198 1.77117 0
M  V30 13005 C 1443.68 3.12212 1.80432 0
M  V30 13006 O 1442.79 2.92884 2.90332 0
M  V30 13007 H 1442.13 0.609754 0.262862 0
M  V30 13008 H 1444.66 2.03638 0.198195 0
M  V30 13009 H 1444.67 3.4305 2.20864 0
M  V30 13010 H 1443.34 3.98292 1.19733 0
M  V30 13011 H 1441.92 2.73349 2.53643 0
M  V30 13012 N 1444.1 -0.461169 1.50702 0
M  V30 13013 C 1445.35 -1.21012 1.61866 0
M  V30 13014 C 1445.67 -1.9226 0.325736 0
M  V30 13015 O 1444.94 -1.84543 -0.657306 0
M  V30 13016 H 1443.52 -0.449671 0.596494 0
M  V30 13017 H 1446.18 -0.531056 1.87525 0
M  V30 13018 H 1445.28 -1.95266 2.4347 0
M  V30 13019 N 1445.58 -1.40446 -0.715026 0
M  V30 13020 C 1446.81 -1.42263 -1.50917 0
M  V30 13021 C 1447.23 -0.0242402 -1.88084 0
M  V30 13022 O 1446.59 0.967817 -1.53307 0
M  V30 13023 C 1446.64 -2.31998 -2.7606 0
M  V30 13024 O 1445.74 -1.76361 -3.72787 0
M  V30 13025 H 1445.08 -0.483614 -0.454988 0
M  V30 13026 H 1447.61 -1.84682 -0.880549 0
M  V30 13027 H 1447.62 -2.47204 -3.24583 0
M  V30 13028 H 1446.3 -3.33614 -2.48343 0
M  V30 13029 H 1444.87 -1.70504 -3.31636 0
M  V30 13030 N 1447.06 0.947303 -1.25952 0
M  V30 13031 C 1448.28 1.73261 -1.13997 0
M  V30 13032 C 1448.71 1.85666 0.301639 0
M  V30 13033 O 1448.07 1.34244 1.21854 0
M  V30 13034 C 1448.12 3.12046 -1.8072 0
M  V30 13035 O 1447.22 3.97684 -1.09182 0
M  V30 13036 H 1446.56 0.53182 -0.397572 0
M  V30 13037 H 1449.09 1.18689 -1.66656 0
M  V30 13038 H 1449.1 3.62468 -1.87299 0
M  V30 13039 H 1447.78 3.02334 -2.856 0
M  V30 13040 H 1446.35 3.56141 -1.10536 0
M  V30 13041 N 1448.54 1.07657 1.15099 0
M  V30 13042 C 1449.76 0.82291 1.90376 0
M  V30 13043 C 1450.19 -0.618415 1.77644 0
M  V30 13044 O 1449.55 -1.43248 1.11129 0
M  V30 13045 C 1449.59 1.23988 3.38614 0
M  V30 13046 O 1448.7 0.387085 4.10579 0
M  V30 13047 H 1448.04 0.299532 0.592602 0
M  V30 13048 H 1450.57 1.436 1.4574 0
M  V30 13049 H 1450.58 1.21741 3.89414 0
M  V30 13050 H 1449.25 2.28966 3.472 0
M  V30 13051 H 1447.83 0.472311 3.69897 0
M  V30 13052 N 1450.02 -1.31994 0.861122 0
M  V30 13053 C 1451.24 -2.01745 0.481013 0
M  V30 13054 C 1451.67 -1.6426 -0.916527 0
M  V30 13055 O 1451.02 -0.846603 -1.60319 0
M  V30 13056 C 1451.07 -3.54963 0.635134 0
M  V30 13057 O 1450.18 -4.11083 -0.329337 0
M  V30 13058 H 1449.52 -0.635499 0.192452 0
M  V30 13059 H 1452.05 -1.68394 1.1621 0
M  V30 13060 H 1452.06 -4.04607 0.525089 0
M  V30 13061 H 1450.73 -3.81587 1.65422 0
M  V30 13062 H 1449.31 -3.72489 -0.174989 0
M  V30 13063 N 1451.49 -0.619688 -1.44906 0
M  V30 13064 C 1452.72 -0.12618 -2.06214 0
M  V30 13065 C 1453.13 1.19978 -1.46294 0
M  V30 13066 O 1452.48 1.74437 -0.575956 0
M  V30 13067 C 1452.54 0.075085 -3.59422 0
M  V30 13068 C 1452.2 -1.17094 -4.41744 0
M  V30 13069 C 1453.2 -2.09196 -4.75955 0
M  V30 13070 C 1450.88 -1.40315 -4.82304 0
M  V30 13071 C 1452.88 -3.22839 -5.49594 0
M  V30 13072 C 1450.56 -2.54257 -5.55695 0
M  V30 13073 C 1451.56 -3.45346 -5.89258 0
M  V30 13074 O 1451.25 -4.57302 -6.61158 0
M  V30 13075 H 1450.98 -0.0715975 -0.672198 0
M  V30 13076 H 1453.54 -0.850858 -1.86948 0
M  V30 13077 H 1451.77 0.854787 -3.77134 0
M  V30 13078 H 1453.46 0.521707 -4.02533 0
M  V30 13079 H 1454.22 -1.92486 -4.45168 0
M  V30 13080 H 1450.1 -0.703094 -4.55607 0
M  V30 13081 H 1453.64 -3.93959 -5.7571 0
M  V30 13082 H 1449.54 -2.70915 -5.85897 0
M  V30 13083 H 1450.31 -4.56138 -6.79618 0
M  V30 13084 N 1452.97 1.53444 -0.359552 0
M  V30 13085 C 1454.22 2.00769 0.231564 0
M  V30 13086 C 1454.54 1.2487 1.49775 0
M  V30 13087 O 1453.81 0.360284 1.92558 0
M  V30 13088 H 1452.39 0.741732 0.0885581 0
M  V30 13089 H 1455.05 1.88785 -0.484397 0
M  V30 13090 H 1454.15 3.0865 0.462789 0
M  V30 13091 N 1454.45 0.0885642 1.57351 0
M  V30 13092 C 1455.38 -0.902617 2.10679 0
M  V30 13093 C 1456.4 -1.25037 1.04257 0
M  V30 13094 O 1457.58 -1.20462 1.31723 0
M  V30 13095 C 1454.68 -2.21362 2.56616 0
M  V30 13096 C 1453.86 -2.04219 3.86799 0
M  V30 13097 C 1452.92 -3.18774 4.18652 0
M  V30 13098 O 1451.94 -2.93024 4.87981 0
M  V30 13099 N 1453.14 -4.44357 3.73534 0
M  V30 13100 H 1455.91 -0.447199 2.96345 0
M  V30 13101 H 1453.47 -0.0967178 1.61611 0
M  V30 13102 H 1455.46 -2.96935 2.74976 0
M  V30 13103 H 1454.03 -2.58349 1.75996 0
M  V30 13104 H 1453.25 -1.13015 3.77652 0
M  V30 13105 H 1454.54 -1.90035 4.71979 0
M  V30 13106 H 1453.94 -4.68159 3.17558 0
M  V30 13107 H 1452.5 -5.169 3.97061 0
M  V30 13108 N 1455.93 -1.56509 -0.185096 0
M  V30 13109 C 1456.88 -1.91742 -1.23366 0
M  V30 13110 C 1457.86 -0.784182 -1.40497 0
M  V30 13111 O 1459.05 -1.04718 -1.42699 0
M  V30 13112 C 1456.18 -2.26903 -2.57624 0
M  V30 13113 C 1455.27 -3.46707 -2.44244 0
M  V30 13114 N 1455.66 -4.64338 -2.00558 0
M  V30 13115 C 1453.96 -3.51042 -2.7511 0
M  V30 13116 C 1454.66 -5.46489 -1.9931 0
M  V30 13117 N 1453.64 -4.87162 -2.41193 0
M  V30 13118 H 1457.44 -2.80184 -0.887378 0
M  V30 13119 H 1454.95 -1.57561 -0.393468 0
M  V30 13120 H 1456.95 -2.50332 -3.33376 0
M  V30 13121 H 1455.61 -1.39792 -2.93067 0
M  V30 13122 H 1456.62 -4.88817 -1.7111 0
M  V30 13123 H 1453.3 -2.74375 -3.14682 0
M  V30 13124 H 1454.69 -6.50726 -1.67349 0
M  V30 13125 N 1457.41 0.45317 -1.50944 0
M  V30 13126 C 1458.65 1.20151 -1.62506 0
M  V30 13127 C 1458.98 1.92085 -0.335927 0
M  V30 13128 O 1458.25 1.84889 0.64751 0
M  V30 13129 H 1456.83 0.446502 -0.59887 0
M  V30 13130 H 1459.49 0.521103 -1.87804 0
M  V30 13131 H 1458.58 1.93972 -2.44502 0
M  V30 13132 N 1458.88 1.40823 0.707568 0
M  V30 13133 C 1460.11 1.43061 1.50161 0
M  V30 13134 C 1460.53 0.0342144 1.88069 0
M  V30 13135 O 1459.89 -0.959674 1.53818 0
M  V30 13136 C 1459.94 2.33459 2.74826 0
M  V30 13137 O 1459.04 1.78336 3.71847 0
M  V30 13138 H 1458.39 0.48602 0.452417 0
M  V30 13139 H 1460.92 1.85147 0.870742 0
M  V30 13140 H 1460.93 2.48922 3.23267 0
M  V30 13141 H 1459.6 3.34927 2.46571 0
M  V30 13142 H 1458.18 1.7226 3.30728 0
M  V30 13143 N 1460.36 -0.94061 1.26453 0
M  V30 13144 C 1461.61 -1.68354 1.11809 0
M  V30 13145 C 1461.93 -1.9203 -0.339037 0
M  V30 13146 O 1461.2 -1.51739 -1.23903 0
M  V30 13147 H 1459.78 -0.623916 0.410777 0
M  V30 13148 H 1462.44 -1.13014 1.58789 0
M  V30 13149 H 1461.54 -2.65706 1.63728 0
M  V30 13150 N 1461.84 -1.08266 -1.14527 0
M  V30 13151 C 1463.07 -0.832994 -1.89937 0
M  V30 13152 C 1463.49 0.608985 -1.77969 0
M  V30 13153 O 1462.85 1.42657 -1.11887 0
M  V30 13154 C 1462.9 -1.25782 -3.37952 0
M  V30 13155 O 1462 -0.408853 -4.10368 0
M  V30 13156 H 1461.34 -0.30267 -0.591005 0
M  V30 13157 H 1463.87 -1.44371 -1.44977 0
M  V30 13158 H 1463.88 -1.23804 -3.88763 0
M  V30 13159 H 1462.56 -2.30804 -3.4598 0
M  V30 13160 H 1461.13 -0.49192 -3.69641 0
M  V30 13161 N 1463.32 1.31536 -0.86811 0
M  V30 13162 C 1464.74 1.49461 -0.559778 0
M  V30 13163 C 1464.94 1.79957 0.906525 0
M  V30 13164 O 1463.99 1.87711 1.68881 0
M  V30 13165 C 1465.3 2.62967 -1.45839 0
M  V30 13166 C 1466.85 2.76851 -1.46023 0
M  V30 13167 C 1467.33 3.93451 -2.34436 0
M  V30 13168 N 1468.82 4.00735 -2.32306 0
M  V30 13169 C 1469.55 4.90223 -2.97437 0
M  V30 13170 N 1469.05 5.84626 -3.71731 0
M  V30 13171 N 1470.84 4.83454 -2.86755 0
M  V30 13172 H 1462.99 1.1001 -1.81691 0
M  V30 13173 H 1465.26 0.543418 -0.776789 0
M  V30 13174 H 1464.96 2.47203 -2.50168 0
M  V30 13175 H 1464.84 3.59063 -1.15556 0
M  V30 13176 H 1467.22 2.9203 -0.424527 0
M  V30 13177 H 1467.3 1.81427 -1.80327 0
M  V30 13178 H 1466.95 3.79029 -3.38082 0
M  V30 13179 H 1466.88 4.88179 -1.97457 0
M  V30 13180 H 1469.37 3.33191 -1.78303 0
M  V30 13181 H 1469.68 6.49635 -4.18562 0
M  V30 13182 H 1468.03 5.84611 -3.75839 0
M  V30 13183 H 1471.22 4.08678 -2.28254 0
M  V30 13184 H 1471.39 5.52991 -3.37795 0
M  V30 13185 N 1464.8 0.627364 1.44575 0
M  V30 13186 C 1465.73 -0.118179 2.28895 0
M  V30 13187 C 1466.74 -0.812569 1.41071 0
M  V30 13188 O 1467.93 -0.674646 1.6526 0
M  V30 13189 C 1465.03 -1.18937 3.17344 0
M  V30 13190 C 1464.2 -0.578226 4.33561 0
M  V30 13191 C 1463.26 -1.54288 5.03072 0
M  V30 13192 O 1462.29 -1.06148 5.59215 0
M  V30 13193 N 1463.49 -2.87725 5.04177 0
M  V30 13194 H 1466.26 0.605442 2.93521 0
M  V30 13195 H 1463.82 0.468253 1.54981 0
M  V30 13196 H 1465.81 -1.83494 3.60711 0
M  V30 13197 H 1464.38 -1.81526 2.54494 0
M  V30 13198 H 1463.6 0.245883 3.93432 0
M  V30 13199 H 1464.89 -0.150502 5.08577 0
M  V30 13200 H 1464.29 -3.29421 4.5989 0
M  V30 13201 H 1462.84 -3.47653 5.51344 0
M  V30 13202 N 1466.28 -1.53251 0.367684 0
M  V30 13203 C 1467.5 -2.0618 -0.224645 0
M  V30 13204 C 1467.93 -1.23927 -1.41505 0
M  V30 13205 O 1467.28 -0.258858 -1.79443 0
M  V30 13206 C 1467.33 -3.55671 -0.594171 0
M  V30 13207 O 1466.44 -3.76132 -1.69112 0
M  V30 13208 H 1465.78 -0.663218 -0.0322099 0
M  V30 13209 H 1468.31 -1.97646 0.528897 0
M  V30 13210 H 1468.32 -3.98734 -0.864589 0
M  V30 13211 H 1466.99 -4.14982 0.276254 0
M  V30 13212 H 1465.57 -3.44965 -1.41609 0
M  V30 13213 N 1467.75 -0.0969077 -1.57302 0
M  V30 13214 C 1468.68 0.858443 -2.17147 0
M  V30 13215 C 1469.66 1.29294 -1.10531 0
M  V30 13216 O 1470.85 1.3595 -1.38676 0
M  V30 13217 C 1467.98 2.11691 -2.75326 0
M  V30 13218 C 1466.93 1.82097 -3.8733 0
M  V30 13219 C 1466.26 3.14787 -4.32219 0
M  V30 13220 C 1467.56 1.10651 -5.10444 0
M  V30 13221 H 1469.25 0.35982 -2.9723 0
M  V30 13222 H 1466.8 0.17163 -1.42974 0
M  V30 13223 H 1468.75 2.78963 -3.15844 0
M  V30 13224 H 1467.48 2.63839 -1.925 0
M  V30 13225 H 1466.14 1.17222 -3.47354 0
M  V30 13226 H 1465.78 3.64826 -3.46281 0
M  V30 13227 H 1465.48 2.95769 -5.07735 0
M  V30 13228 H 1467.01 3.83215 -4.75372 0
M  V30 13229 H 1468.42 1.68036 -5.48121 0
M  V30 13230 H 1466.82 1.01805 -5.91401 0
M  V30 13231 H 1467.89 0.0895634 -4.84817 0
M  V30 13232 N 1469.23 1.56605 0.176793 0
M  V30 13233 C 1470.48 1.81324 0.892535 0
M  V30 13234 C 1470.8 0.67301 1.83018 0
M  V30 13235 O 1470.07 -0.307498 1.93472 0
M  V30 13236 H 1468.65 0.668881 0.332576 0
M  V30 13237 H 1471.31 1.94086 0.17792 0
M  V30 13238 H 1470.41 2.75168 1.47272 0
M  V30 13239 N 1470.71 -0.445159 1.51182 0
M  V30 13240 C 1471.66 -1.53798 1.68316 0
M  V30 13241 C 1472.64 -1.51666 0.537244 0
M  V30 13242 O 1473.84 -1.58251 0.792818 0
M  V30 13243 C 1470.96 -2.92053 1.80444 0
M  V30 13244 C 1470.05 -2.98971 3.00794 0
M  V30 13245 N 1470.44 -2.75648 4.24089 0
M  V30 13246 C 1468.74 -3.30127 2.99887 0
M  V30 13247 C 1469.44 -2.88206 5.05284 0
M  V30 13248 N 1468.42 -3.19538 4.39769 0
M  V30 13249 H 1472.22 -1.34506 2.61315 0
M  V30 13250 H 1469.73 -0.652341 1.48722 0
M  V30 13251 H 1471.73 -3.70663 1.90827 0
M  V30 13252 H 1470.39 -3.12372 0.886204 0
M  V30 13253 H 1471.4 -2.50727 4.53163 0
M  V30 13254 H 1468.08 -3.5627 2.17665 0
M  V30 13255 H 1469.47 -2.74194 6.13406 0
M  V30 13256 N 1472.19 -1.41197 -0.700089 0
M  V30 13257 C 1473.44 -1.40034 -1.45722 0
M  V30 13258 C 1473.76 -0.00876281 -1.94998 0
M  V30 13259 O 1473.03 0.948647 -1.71399 0
M  V30 13260 H 1471.61 -0.515433 -0.540683 0
M  V30 13261 H 1474.27 -1.76394 -0.828926 0
M  V30 13262 H 1473.36 -2.08477 -2.32258 0
M  V30 13263 N 1473.67 0.933891 -1.2695 0
M  V30 13264 C 1474.6 2.03768 -1.04934 0
M  V30 13265 C 1475.61 1.62798 -0.00740752 0
M  V30 13266 O 1476.8 1.76765 -0.248289 0
M  V30 13267 C 1473.9 3.34097 -0.568515 0
M  V30 13268 C 1473.07 4.03794 -1.68133 0
M  V30 13269 C 1472.13 5.12397 -1.19731 0
M  V30 13270 O 1471.16 5.36701 -1.89579 0
M  V30 13271 N 1472.36 5.80479 -0.0496327 0
M  V30 13272 H 1475.12 2.23219 -1.99984 0
M  V30 13273 H 1472.69 1.10386 -1.18433 0
M  V30 13274 H 1474.68 4.04053 -0.228736 0
M  V30 13275 H 1473.25 3.11265 0.288587 0
M  V30 13276 H 1472.47 3.27655 -2.1917 0
M  V30 13277 H 1473.76 4.4711 -2.42837 0
M  V30 13278 H 1473.15 5.63179 0.533509 0
M  V30 13279 H 1471.71 6.5139 0.231014 0
M  V30 13280 N 1475.14 1.08871 1.13951 0
M  V30 13281 C 1476.09 0.692507 2.17229 0
M  V30 13282 C 1477.08 -0.290264 1.5826 0
M  V30 13283 O 1478.27 -0.101531 1.76709 0
M  V30 13284 C 1475.4 0.108487 3.43129 0
M  V30 13285 C 1474.48 1.11733 4.09117 0
M  V30 13286 N 1474.88 2.30244 4.50357 0
M  V30 13287 C 1473.17 0.954172 4.35674 0
M  V30 13288 C 1473.87 2.94373 5.01716 0
M  V30 13289 N 1472.85 2.2196 4.96221 0
M  V30 13290 H 1476.65 1.59489 2.46861 0
M  V30 13291 H 1474.17 0.964113 1.30685 0
M  V30 13292 H 1476.16 -0.193345 4.16451 0
M  V30 13293 H 1474.82 -0.78882 3.14973 0
M  V30 13294 H 1475.83 2.67871 4.43244 0
M  V30 13295 H 1472.51 0.111069 4.17352 0
M  V30 13296 H 1473.9 3.95089 5.43465 0
M  V30 13297 N 1476.62 -1.31073 0.875073 0
M  V30 13298 C 1477.87 -1.9613 0.487584 0
M  V30 13299 C 1478.19 -1.69482 -0.964407 0
M  V30 13300 O 1477.46 -1.013 -1.67676 0
M  V30 13301 H 1476.04 -0.725649 0.177319 0
M  V30 13302 H 1478.7 -1.59787 1.11598 0
M  V30 13303 H 1477.8 -3.05265 0.649574 0
M  V30 13304 N 1478.1 -0.635022 -1.4424 0
M  V30 13305 C 1479.33 -0.146549 -2.06882 0
M  V30 13306 C 1479.75 1.17143 -1.4717 0
M  V30 13307 O 1479.11 1.71952 -0.574636 0
M  V30 13308 C 1479.16 -0.0494694 -3.60566 0
M  V30 13309 O 1478.26 0.993423 -4.00256 0
M  V30 13310 H 1477.6 -0.0865505 -0.658335 0
M  V30 13311 H 1480.13 -0.872803 -1.85049 0
M  V30 13312 H 1480.14 0.139839 -4.0776 0
M  V30 13313 H 1478.82 -1.01169 -4.03407 0
M  V30 13314 H 1477.39 0.778372 -3.64686 0
M  V30 13315 N 1479.58 1.53054 -0.375806 0
M  V30 13316 C 1480.83 2.01003 0.210257 0
M  V30 13317 C 1481.15 1.26451 1.48442 0
M  V30 13318 O 1480.42 0.380687 1.92166 0
M  V30 13319 H 1479 0.74263 0.0806861 0
M  V30 13320 H 1481.66 1.8826 -0.504393 0
M  V30 13321 H 1480.76 3.09123 0.430027 0
M  V30 13322 N 1481.06 0.105248 1.57248 0
M  V30 13323 C 1482.28 -0.567515 1.99484 0
M  V30 13324 C 1482.71 -1.60298 0.984182 0
M  V30 13325 O 1482.06 -1.81242 -0.0459944 0
M  V30 13326 C 1482.11 -1.18271 3.40653 0
M  V30 13327 O 1481.22 -2.29843 3.42412 0
M  V30 13328 H 1480.56 -0.143069 0.648404 0
M  V30 13329 H 1483.09 0.189661 2.03719 0
M  V30 13330 H 1483.1 -1.52157 3.78566 0
M  V30 13331 H 1481.77 -0.424179 4.13731 0
M  V30 13332 H 1480.35 -1.975 3.16304 0
M  V30 13333 N 1482.53 -1.56697 -0.168486 0
M  V30 13334 C 1483.78 -1.81794 -0.882907 0
M  V30 13335 C 1484.1 -0.682707 -1.82658 0
M  V30 13336 O 1483.37 0.297234 -1.93632 0
M  V30 13337 H 1481.95 -0.670636 -0.329024 0
M  V30 13338 H 1484.62 -1.94178 -0.167625 0
M  V30 13339 H 1483.71 -2.75945 -1.45811 0
M  V30 13340 N 1484.01 0.437135 -1.51416 0
M  V30 13341 C 1484.94 1.54894 -1.68939 0
M  V30 13342 C 1485.96 1.52493 -0.570059 0
M  V30 13343 O 1487.15 1.57266 -0.844381 0
M  V30 13344 C 1484.25 2.9381 -1.68904 0
M  V30 13345 C 1483.42 3.20714 -2.97425 0
M  V30 13346 C 1482.48 4.39355 -2.89575 0
M  V30 13347 O 1481.5 4.37999 -3.63519 0
M  V30 13348 N 1482.71 5.42931 -2.05441 0
M  V30 13349 H 1485.47 1.40267 -2.64849 0
M  V30 13350 H 1483.03 0.626075 -1.49305 0
M  V30 13351 H 1485.02 3.71201 -1.61221 0
M  V30 13352 H 1483.59 3.02034 -0.805871 0
M  V30 13353 H 1482.81 2.31621 -3.18975 0
M  V30 13354 H 1484.1 3.35516 -3.825 0
M  V30 13355 H 1483.5 5.4687 -1.44742 0
M  V30 13356 H 1482.06 6.19173 -2.03636 0
M  V30 13357 N 1485.49 1.41566 0.692592 0
M  V30 13358 C 1486.72 1.44646 1.48635 0
M  V30 13359 C 1487.14 0.0541597 1.88022 0
M  V30 13360 O 1486.5 -0.943305 1.54827 0
M  V30 13361 C 1486.55 2.3636 2.72335 0
M  V30 13362 O 1485.65 1.8227 3.69934 0
M  V30 13363 H 1484.99 0.490791 0.447236 0
M  V30 13364 H 1487.52 1.8606 0.851056 0
M  V30 13365 H 1487.53 2.52337 3.20609 0
M  V30 13366 H 1486.21 3.37523 2.43004 0
M  V30 13367 H 1484.78 1.75759 3.28882 0
M  V30 13368 N 1486.97 -0.927146 1.27443 0
M  V30 13369 C 1488.38 -1.48984 1.1252 0
M  V30 13370 C 1488.73 -1.94051 -0.289602 0
M  V30 13371 O 1487.86 -1.8123 -1.18257 0
M  V30 13372 C 1488.45 -2.70765 2.03646 0
M  V30 13373 C 1487.01 -3.23256 1.92827 0
M  V30 13374 C 1486.16 -1.95991 1.9617 0
M  V30 13375 H 1489.11 -0.741196 1.40328 0
M  V30 13376 H 1489.13 -3.45567 1.5926 0
M  V30 13377 H 1488.64 -2.37933 3.0661 0
M  V30 13378 H 1486.74 -3.60845 0.928516 0
M  V30 13379 H 1486.85 -3.89413 2.79096 0
M  V30 13380 H 1485.22 -2.12508 1.40402 0
M  V30 13381 H 1486 -1.65473 3.00788 0
M  V30 13382 N 1488.45 -1.09474 -1.13372 0
M  V30 13383 C 1489.67 -0.853093 -1.89043 0
M  V30 13384 C 1490.1 0.590075 -1.78605 0
M  V30 13385 O 1489.45 1.41462 -1.13394 0
M  V30 13386 C 1489.5 -1.29359 -3.36599 0
M  V30 13387 O 1488.61 -0.452355 -4.09912 0
M  V30 13388 H 1487.95 -0.308922 -0.587761 0
M  V30 13389 H 1490.48 -1.459 -1.43437 0
M  V30 13390 H 1490.49 -1.27921 -3.87428 0
M  V30 13391 H 1489.16 -2.3446 -3.43513 0
M  V30 13392 H 1487.74 -0.531098 -3.69099 0
M  V30 13393 N 1489.92 1.30607 -0.882012 0
M  V30 13394 C 1491.34 1.78418 -0.549892 0
M  V30 13395 C 1491.69 1.72553 0.933797 0
M  V30 13396 O 1490.81 1.30058 1.72956 0
M  V30 13397 C 1491.41 3.2397 -0.991398 0
M  V30 13398 C 1489.97 3.69629 -0.710739 0
M  V30 13399 C 1489.11 2.51127 -1.17602 0
M  V30 13400 H 1492.06 1.17519 -1.06653 0
M  V30 13401 H 1492.08 3.79159 -0.319115 0
M  V30 13402 H 1491.6 3.28207 -2.07128 0
M  V30 13403 H 1489.7 3.70883 0.357273 0
M  V30 13404 H 1489.81 4.61232 -1.29621 0
M  V30 13405 H 1488.17 2.47642 -0.595444 0
M  V30 13406 H 1488.96 2.58103 -2.26358 0
M  V30 13407 N 1491.4 0.642663 1.43901 0
M  V30 13408 C 1492.63 0.157518 2.06801 0
M  V30 13409 C 1493.05 -1.16361 1.47789 0
M  V30 13410 O 1492.41 -1.71645 0.583747 0
M  V30 13411 C 1492.46 0.0685904 3.60535 0
M  V30 13412 O 1491.56 -0.972183 4.00777 0
M  V30 13413 H 1490.9 0.0900406 0.657867 0
M  V30 13414 H 1493.43 0.882604 1.84584 0
M  V30 13415 H 1493.44 -0.118212 4.07829 0
M  V30 13416 H 1492.12 1.03307 4.02865 0
M  V30 13417 H 1490.7 -0.75902 3.65094 0
M  V30 13418 N 1492.88 -1.52852 0.383918 0
M  V30 13419 C 1494.3 -1.59565 0.0336391 0
M  V30 13420 C 1494.5 -1.39819 -1.45097 0
M  V30 13421 O 1493.55 -1.21249 -2.21484 0
M  V30 13422 C 1494.87 -2.96412 0.506001 0
M  V30 13423 C 1496.41 -3.09575 0.461794 0
M  V30 13424 C 1496.89 -4.48863 0.910259 0
M  V30 13425 N 1498.38 -4.55032 0.866053 0
M  V30 13426 C 1499.12 -5.61032 1.18453 0
M  V30 13427 N 1498.61 -6.74701 1.57321 0
M  V30 13428 N 1500.4 -5.51109 1.10613 0
M  V30 13429 H 1492.56 -1.63937 1.3505 0
M  V30 13430 H 1494.82 -0.769857 0.553194 0
M  V30 13431 H 1494.52 -3.16061 1.54268 0
M  V30 13432 H 1494.4 -3.77073 -0.0977643 0
M  V30 13433 H 1496.79 -2.89625 -0.565786 0
M  V30 13434 H 1496.87 -2.30879 1.10129 0
M  V30 13435 H 1496.51 -4.69553 1.93604 0
M  V30 13436 H 1496.44 -5.26017 0.247825 0
M  V30 13437 H 1498.93 -3.73423 0.579962 0
M  V30 13438 H 1499.24 -7.51545 1.8 0
M  V30 13439 H 1497.59 -6.76046 1.61203 0
M  V30 13440 H 1500.78 -4.61187 0.801531 0
M  V30 13441 H 1500.95 -6.33618 1.35766 0
M  V30 13442 N 1494.36 -0.113586 -1.5719 0
M  V30 13443 C 1495.61 0.544642 -1.94623 0
M  V30 13444 C 1495.93 1.6756 -0.997428 0
M  V30 13445 O 1495.2 1.95829 -0.0527521 0
M  V30 13446 H 1493.78 0.204186 -0.718552 0
M  V30 13447 H 1496.44 -0.181258 -1.94055 0
M  V30 13448 H 1495.54 0.942765 -2.9752 0
M  V30 13449 N 1495.84 1.56784 0.160173 0
M  V30 13450 C 1497.25 1.51153 0.512352 0
M  V30 13451 C 1497.45 0.819774 1.84071 0
M  V30 13452 O 1496.51 0.384789 2.49551 0
M  V30 13453 C 1497.82 2.95906 0.534817 0
M  V30 13454 C 1499.37 3.06773 0.621248 0
M  V30 13455 C 1499.85 4.53006 0.674501 0
M  V30 13456 N 1501.34 4.57298 0.737087 0
M  V30 13457 C 1502.07 5.67805 0.799054 0
M  V30 13458 N 1501.57 6.87916 0.821171 0
M  V30 13459 N 1503.36 5.55804 0.838928 0
M  V30 13460 H 1495.51 2.00157 -0.710712 0
M  V30 13461 H 1497.77 0.91233 -0.257601 0
M  V30 13462 H 1497.48 3.49719 -0.372773 0
M  V30 13463 H 1497.35 3.51152 1.3774 0
M  V30 13464 H 1499.74 2.52987 1.51926 0
M  V30 13465 H 1499.82 2.54593 -0.248224 0
M  V30 13466 H 1499.47 5.07426 -0.219301 0
M  V30 13467 H 1499.4 5.02954 1.56028 0
M  V30 13468 H 1501.89 3.70825 0.727827 0
M  V30 13469 H 1502.2 7.67888 0.869938 0
M  V30 13470 H 1500.55 6.90504 0.789264 0
M  V30 13471 H 1503.74 4.60884 0.818728 0
M  V30 13472 H 1503.91 6.41945 0.883757 0
M  V30 13473 N 1497.32 -0.429099 1.51646 0
M  V30 13474 C 1498.27 -1.52004 1.69937 0
M  V30 13475 C 1499.25 -1.51087 0.5533 0
M  V30 13476 O 1500.44 -1.57401 0.809558 0
M  V30 13477 C 1497.57 -2.90123 1.83531 0
M  V30 13478 C 1496.66 -2.95764 3.03948 0
M  V30 13479 N 1497.05 -2.71135 4.26989 0
M  V30 13480 C 1495.35 -3.26927 3.03372 0
M  V30 13481 C 1496.05 -2.82831 5.08312 0
M  V30 13482 N 1495.02 -3.14856 4.43133 0
M  V30 13483 H 1498.82 -1.31726 2.62727 0
M  V30 13484 H 1496.34 -0.63653 1.49406 0
M  V30 13485 H 1498.34 -3.68618 1.94747 0
M  V30 13486 H 1497 -3.11415 0.919285 0
M  V30 13487 H 1498.01 -2.45906 4.55797 0
M  V30 13488 H 1494.68 -3.53941 2.21432 0
M  V30 13489 H 1496.07 -2.67673 6.1628 0
M  V30 13490 N 1498.79 -1.41931 -0.685074 0
M  V30 13491 C 1500.04 -1.41571 -1.44229 0
M  V30 13492 C 1500.36 -0.0294445 -1.94978 0
M  V30 13493 O 1499.63 0.930414 -1.72395 0
M  V30 13494 H 1498.21 -0.521138 -0.535186 0
M  V30 13495 H 1500.87 -1.77263 -0.81017 0
M  V30 13496 H 1499.97 -2.10929 -2.30034 0
M  V30 13497 N 1500.27 0.920374 -1.27933 0
M  V30 13498 C 1501.5 1.70804 -1.17647 0
M  V30 13499 C 1501.92 1.86264 0.262189 0
M  V30 13500 O 1501.28 1.36798 1.18979 0
M  V30 13501 C 1501.33 3.08142 -1.87298 0
M  V30 13502 O 1500.43 3.95279 -1.17593 0
M  V30 13503 H 1499.77 0.523267 -0.408763 0
M  V30 13504 H 1502.3 1.15127 -1.69136 0
M  V30 13505 H 1502.31 3.58414 -1.94945 0
M  V30 13506 H 1500.99 2.96208 -2.91948 0
M  V30 13507 H 1499.56 3.53716 -1.18065 0
M  V30 13508 N 1501.75 1.10074 1.1279 0
M  V30 13509 C 1503 0.839212 1.83852 0
M  V30 13510 C 1503.32 -0.637023 1.84301 0
M  V30 13511 O 1502.59 -1.46239 1.30349 0
M  V30 13512 H 1501.17 0.307468 0.680788 0
M  V30 13513 H 1503.83 1.39025 1.36595 0
M  V30 13514 H 1502.93 1.19872 2.88162 0
M  V30 13515 N 1503.23 -1.30138 0.888926 0
M  V30 13516 C 1504.45 -2.00679 0.523697 0
M  V30 13517 C 1504.88 -1.66167 -0.881479 0
M  V30 13518 O 1504.24 -0.880418 -1.58488 0
M  V30 13519 C 1504.28 -3.53535 0.710284 0
M  V30 13520 O 1503.39 -4.11689 -0.242066 0
M  V30 13521 H 1502.73 -0.631273 0.205888 0
M  V30 13522 H 1505.26 -1.65891 1.19756 0
M  V30 13523 H 1505.27 -4.03402 0.610794 0
M  V30 13524 H 1503.94 -3.77992 1.73478 0
M  V30 13525 H 1502.52 -3.72777 -0.0959393 0
M  V30 13526 N 1504.71 -0.650285 -1.43559 0
M  V30 13527 C 1505.95 -0.162164 -2.01448 0
M  V30 13528 C 1506.27 1.22717 -1.51544 0
M  V30 13529 O 1505.54 1.81917 -0.726855 0
M  V30 13530 H 1504.12 -0.0569599 -0.744825 0
M  V30 13531 H 1506.79 -0.841294 -1.75807 0
M  V30 13532 H 1505.88 -0.144531 -3.11765 0
M  V30 13533 N 1506.18 1.52647 -0.392018 0
M  V30 13534 C 1507.12 2.24183 0.476934 0
M  V30 13535 C 1508.13 1.26526 1.02446 0
M  V30 13536 O 1509.32 1.52583 0.92632 0
M  V30 13537 C 1506.42 2.94672 1.67397 0
M  V30 13538 C 1505.59 4.19058 1.25335 0
M  V30 13539 C 1504.65 4.72522 2.31537 0
M  V30 13540 O 1503.68 5.35541 1.92833 0
M  V30 13541 N 1504.88 4.52613 3.63486 0
M  V30 13542 H 1507.64 2.99391 -0.135963 0
M  V30 13543 H 1505.2 1.60419 -0.218514 0
M  V30 13544 H 1507.2 3.27338 2.37975 0
M  V30 13545 H 1505.77 2.22755 2.19315 0
M  V30 13546 H 1504.99 3.92399 0.376352 0
M  V30 13547 H 1506.27 4.99871 0.94901 0
M  V30 13548 H 1505.67 4.02316 3.97692 0
M  V30 13549 H 1504.23 4.89761 4.3009 0
M  V30 13550 N 1507.66 0.121921 1.57128 0
M  V30 13551 C 1508.89 -0.546325 2.00075 0
M  V30 13552 C 1509.31 -1.59245 1.00113 0
M  V30 13553 O 1508.67 -1.8128 -0.0267687 0
M  V30 13554 C 1508.72 -1.14651 3.41888 0
M  V30 13555 O 1507.82 -2.26199 3.4483 0
M  V30 13556 H 1507.16 -0.136184 0.649885 0
M  V30 13557 H 1509.69 0.211257 2.03506 0
M  V30 13558 H 1509.7 -1.48133 3.80159 0
M  V30 13559 H 1508.38 -0.380273 4.14158 0
M  V30 13560 H 1506.96 -1.94134 3.18381 0
M  V30 13561 N 1509.14 -1.56867 -0.151857 0
M  V30 13562 C 1510.37 -1.87601 -0.884347 0
M  V30 13563 C 1510.79 -0.710419 -1.74168 0
M  V30 13564 O 1510.15 0.340103 -1.78081 0
M  V30 13565 C 1510.2 -3.16887 -1.72091 0
M  V30 13566 O 1509.3 -3.00479 -2.82464 0
M  V30 13567 H 1508.64 -0.616509 -0.246603 0
M  V30 13568 H 1511.17 -2.04092 -0.144135 0
M  V30 13569 H 1511.18 -3.48785 -2.11691 0
M  V30 13570 H 1509.86 -4.01327 -1.09131 0
M  V30 13571 H 1508.43 -2.79978 -2.46306 0
M  V30 13572 N 1510.62 0.421051 -1.51871 0
M  V30 13573 C 1511.84 1.19568 -1.69465 0
M  V30 13574 C 1512.27 1.83835 -0.398269 0
M  V30 13575 O 1511.63 1.69508 0.643172 0
M  V30 13576 C 1511.67 2.24337 -2.82321 0
M  V30 13577 O 1510.78 3.30205 -2.47059 0
M  V30 13578 H 1510.12 0.349579 -0.564527 0
M  V30 13579 H 1512.65 0.495177 -1.98517 0
M  V30 13580 H 1512.66 2.6886 -3.06885 0
M  V30 13581 H 1511.33 1.76941 -3.76384 0
M  V30 13582 H 1509.91 2.91045 -2.33125 0
M  V30 13583 N 1512.1 1.42293 0.677538 0
M  V30 13584 C 1513.33 1.45797 1.46379 0
M  V30 13585 C 1513.73 0.0669696 1.89081 0
M  V30 13586 O 1513.08 -0.928025 1.58535 0
M  V30 13587 C 1513.14 2.31982 2.74635 0
M  V30 13588 C 1512.8 3.79894 2.54026 0
M  V30 13589 C 1513.8 4.71615 2.18805 0
M  V30 13590 C 1511.49 4.24131 2.69106 0
M  V30 13591 C 1513.48 6.05563 1.98927 0
M  V30 13592 C 1511.17 5.5814 2.48844 0
M  V30 13593 C 1512.16 6.48672 2.13807 0
M  V30 13594 O 1511.85 7.80206 1.93737 0
M  V30 13595 H 1511.58 0.498113 0.457012 0
M  V30 13596 H 1514.14 1.87432 0.840151 0
M  V30 13597 H 1512.37 1.85191 3.39472 0
M  V30 13598 H 1514.06 2.26974 3.36508 0
M  V30 13599 H 1514.82 4.38723 2.06753 0
M  V30 13600 H 1510.7 3.53957 2.95357 0
M  V30 13601 H 1514.25 6.7619 1.71502 0
M  V30 13602 H 1510.14 5.90605 2.60491 0
M  V30 13603 H 1510.91 7.91536 2.08357 0
M  V30 13604 N 1513.57 -0.913576 1.28419 0
M  V30 13605 C 1514.82 -1.65944 1.15355 0
M  V30 13606 C 1515.14 -1.92706 -0.298228 0
M  V30 13607 O 1514.41 -1.54333 -1.20657 0
M  V30 13608 H 1512.99 -0.615063 0.423919 0
M  V30 13609 H 1515.66 -1.0962 1.6115 0
M  V30 13610 H 1514.75 -2.62173 1.69327 0
M  V30 13611 N 1515.05 -1.1067 -1.12204 0
M  V30 13612 C 1516.46 -0.867959 -1.65298 0
M  V30 13613 C 1516.81 0.601297 -1.86759 0
M  V30 13614 O 1515.94 1.46153 -1.59588 0
M  V30 13615 C 1516.53 -1.56906 -3.00276 0
M  V30 13616 C 1515.09 -1.37696 -3.5031 0
M  V30 13617 C 1514.24 -1.61688 -2.25282 0
M  V30 13618 H 1517.19 -1.26408 -0.959521 0
M  V30 13619 H 1517.21 -1.00947 -3.66865 0
M  V30 13620 H 1516.72 -2.63838 -2.84625 0
M  V30 13621 H 1514.83 -0.329381 -3.71141 0
M  V30 13622 H 1514.94 -2.12058 -4.29614 0
M  V30 13623 H 1513.3 -1.03977 -2.3251 0
M  V30 13624 H 1514.09 -2.69877 -2.12182 0
M  V30 13625 N 1516.53 1.29665 -0.895815 0
M  V30 13626 C 1517.76 1.99572 -0.534267 0
M  V30 13627 C 1518.17 1.67254 0.884455 0
M  V30 13628 O 1517.51 0.911762 1.59476 0
M  V30 13629 C 1517.57 3.53719 -0.642099 0
M  V30 13630 C 1517.24 4.09583 -2.02709 0
M  V30 13631 C 1518.23 4.24769 -2.99779 0
M  V30 13632 C 1515.92 4.44706 -2.33542 0
M  V30 13633 C 1517.91 4.74305 -4.25809 0
M  V30 13634 C 1515.6 4.93939 -3.59815 0
M  V30 13635 C 1516.6 5.08693 -4.55763 0
M  V30 13636 O 1516.29 5.5686 -5.79795 0
M  V30 13637 H 1516.02 0.644481 -0.204012 0
M  V30 13638 H 1518.57 1.66262 -1.20607 0
M  V30 13639 H 1516.8 3.86603 0.0867197 0
M  V30 13640 H 1518.49 4.04861 -0.290265 0
M  V30 13641 H 1519.26 3.97925 -2.77273 0
M  V30 13642 H 1515.14 4.32483 -1.59622 0
M  V30 13643 H 1518.68 4.85736 -5.00706 0
M  V30 13644 H 1514.58 5.2022 -3.82154 0
M  V30 13645 H 1515.35 5.75182 -5.82329 0
M  V30 13646 N 1518.01 0.657889 1.43212 0
M  V30 13647 C 1519.42 0.325876 1.56238 0
M  V30 13648 C 1519.62 -1.16975 1.6407 0
M  V30 13649 O 1518.68 -1.95473 1.59833 0
M  V30 13650 C 1519.99 1.04134 2.82093 0
M  V30 13651 C 1521.54 1.02204 2.95844 0
M  V30 13652 C 1522.02 1.71849 4.24537 0
M  V30 13653 N 1523.51 1.68635 4.31412 0
M  V30 13654 C 1524.24 2.19393 5.29768 0
M  V30 13655 N 1523.74 2.7846 6.34375 0
M  V30 13656 N 1525.53 2.09866 5.21452 0
M  V30 13657 H 1517.68 1.62839 1.36371 0
M  V30 13658 H 1519.95 0.685072 0.655271 0
M  V30 13659 H 1519.65 2.09647 2.82385 0
M  V30 13660 H 1519.53 0.595842 3.72464 0
M  V30 13661 H 1521.91 -0.0247029 2.9509 0
M  V30 13662 H 1521.99 1.50627 2.06749 0
M  V30 13663 H 1521.64 2.76482 4.26052 0
M  V30 13664 H 1521.57 1.20888 5.12536 0
M  V30 13665 H 1524.06 1.25536 3.56439 0
M  V30 13666 H 1524.37 3.14855 7.05752 0
M  V30 13667 H 1522.72 2.82523 6.34985 0
M  V30 13668 H 1525.91 1.63422 4.38647 0
M  V30 13669 H 1526.08 2.49732 5.97945 0
M  V30 13670 N 1519.49 -1.52437 0.400108 0
M  V30 13671 C 1520.71 -2.0661 -0.180861 0
M  V30 13672 C 1521.14 -1.269 -1.38845 0
M  V30 13673 O 1520.49 -0.296862 -1.78853 0
M  V30 13674 C 1520.54 -3.56851 -0.518595 0
M  V30 13675 O 1519.65 -3.79634 -1.61095 0
M  V30 13676 H 1518.99 -0.663752 -0.0181348 0
M  V30 13677 H 1521.52 -1.96479 0.570702 0
M  V30 13678 H 1521.53 -4.00478 -0.779817 0
M  V30 13679 H 1520.2 -4.14302 0.364216 0
M  V30 13680 H 1518.78 -3.47892 -1.3426 0
M  V30 13681 N 1520.96 -0.130252 -1.57061 0
M  V30 13682 C 1522.21 0.523969 -1.9519 0
M  V30 13683 C 1522.53 1.66493 -1.01514 0
M  V30 13684 O 1521.8 1.95762 -0.0735194 0
M  V30 13685 H 1520.38 0.196553 -0.720677 0
M  V30 13686 H 1523.05 -0.20183 -1.93852 0
M  V30 13687 H 1522.14 0.911156 -2.98504 0
M  V30 13688 N 1522.44 1.56945 0.143535 0
M  V30 13689 C 1523.67 1.88067 0.874385 0
M  V30 13690 C 1524.09 0.719645 1.73789 0
M  V30 13691 O 1523.45 -0.330654 1.78259 0
M  V30 13692 C 1523.5 3.17795 1.70408 0
M  V30 13693 O 1522.6 3.01973 2.80867 0
M  V30 13694 H 1521.94 0.617808 0.24333 0
M  V30 13695 H 1524.47 2.04165 0.133309 0
M  V30 13696 H 1524.48 3.49903 2.09838 0
M  V30 13697 H 1523.16 4.019 1.07001 0
M  V30 13698 H 1521.74 2.8128 2.44818 0
M  V30 13699 N 1523.92 -0.412991 1.52093 0
M  V30 13700 C 1525.17 -1.15801 1.65634 0
M  V30 13701 C 1525.49 -1.91127 0.386737 0
M  V30 13702 O 1524.76 -1.86541 -0.598262 0
M  V30 13703 H 1523.34 -0.430467 0.610498 0
M  V30 13704 H 1526 -0.471127 1.8912 0
M  V30 13705 H 1525.1 -1.87421 2.49559 0
M  V30 13706 N 1525.4 -1.4265 -0.669982 0
M  V30 13707 C 1526.65 -1.44587 -1.4306 0
M  V30 13708 C 1527 -0.0629167 -1.92297 0
M  V30 13709 O 1526.29 0.915708 -1.68301 0
M  V30 13710 C 1526.49 -2.40913 -2.63999 0
M  V30 13711 C 1526.32 -3.88438 -2.26597 0
M  V30 13712 C 1525.09 -4.56936 -2.15725 0
M  V30 13713 C 1527.28 -4.78731 -1.87938 0
M  V30 13714 N 1525.27 -5.89465 -1.71477 0
M  V30 13715 C 1526.64 -6.00404 -1.54645 0
M  V30 13716 C 1528.69 -4.66143 -1.74973 0
M  V30 13717 C 1527.4 -7.10888 -1.09688 0
M  V30 13718 C 1529.42 -5.76613 -1.3142 0
M  V30 13719 C 1528.78 -6.97401 -0.99054 0
M  V30 13720 H 1524.88 -0.584242 -0.519794 0
M  V30 13721 H 1527.47 -1.78711 -0.772679 0
M  V30 13722 H 1525.64 -2.08843 -3.27474 0
M  V30 13723 H 1527.37 -2.33398 -3.30617 0
M  V30 13724 H 1524.12 -4.11213 -2.34948 0
M  V30 13725 H 1524.55 -6.59771 -1.51762 0
M  V30 13726 H 1529.19 -3.73231 -1.98641 0
M  V30 13727 H 1526.91 -8.03642 -0.847666 0
M  V30 13728 H 1530.49 -5.68886 -1.21902 0
M  V30 13729 H 1529.37 -7.81429 -0.658653 0
M  V30 13730 N 1526.88 0.906753 -1.28902 0
M  V30 13731 C 1528.1 1.69547 -1.19452 0
M  V30 13732 C 1528.53 1.86531 0.242418 0
M  V30 13733 O 1527.89 1.38052 1.17521 0
M  V30 13734 C 1527.93 3.06139 -1.90556 0
M  V30 13735 O 1527.04 3.9401 -1.21779 0
M  V30 13736 H 1526.38 0.518902 -0.41429 0
M  V30 13737 H 1528.91 1.13327 -1.70347 0
M  V30 13738 H 1528.92 3.56326 -1.98736 0
M  V30 13739 H 1527.59 2.93094 -2.95074 0
M  V30 13740 H 1526.17 3.52444 -1.2181 0
M  V30 13741 N 1528.36 1.11264 1.11616 0
M  V30 13742 C 1529.58 0.88306 1.87661 0
M  V30 13743 C 1530.01 -0.561586 1.79521 0
M  V30 13744 O 1529.36 -1.3964 1.1563 0
M  V30 13745 C 1529.41 1.34698 3.34498 0
M  V30 13746 O 1528.52 0.517512 4.0914 0
M  V30 13747 H 1527.86 0.318233 0.582772 0
M  V30 13748 H 1530.39 1.48164 1.41098 0
M  V30 13749 H 1530.4 1.34068 3.85344 0
M  V30 13750 H 1529.07 2.39896 3.39739 0
M  V30 13751 H 1527.65 0.589751 3.68207 0
M  V30 13752 N 1529.83 -1.29188 0.902679 0
M  V30 13753 C 1531.06 -2.00113 0.544953 0
M  V30 13754 C 1531.48 -1.67093 -0.863805 0
M  V30 13755 O 1530.84 -0.897179 -1.57545 0
M  V30 13756 C 1530.89 -3.52762 0.747741 0
M  V30 13757 O 1529.99 -4.11923 -0.198388 0
M  V30 13758 H 1529.33 -0.629054 0.212572 0
M  V30 13759 H 1531.86 -1.64611 1.21508 0
M  V30 13760 H 1531.87 -4.02732 0.653546 0
M  V30 13761 H 1530.55 -3.76131 1.77478 0
M  V30 13762 H 1529.13 -3.72857 -0.0563959 0
M  V30 13763 N 1531.31 -0.665475 -1.42861 0
M  V30 13764 C 1532.73 -0.334157 -1.56063 0
M  V30 13765 C 1532.93 1.16104 -1.64688 0
M  V30 13766 O 1531.98 1.94622 -1.60867 0
M  V30 13767 C 1533.3 -1.05628 -2.81537 0
M  V30 13768 C 1534.84 -1.03771 -2.95297 0
M  V30 13769 C 1535.32 -1.74098 -4.2362 0
M  V30 13770 N 1536.81 -1.7092 -4.30512 0
M  V30 13771 C 1537.55 -2.222 -5.28597 0
M  V30 13772 N 1537.04 -2.81821 -6.32889 0
M  V30 13773 N 1538.83 -2.12628 -5.20332 0
M  V30 13774 H 1530.99 -1.6356 -1.35506 0
M  V30 13775 H 1533.25 -0.688538 -0.651628 0
M  V30 13776 H 1532.95 -2.11141 -2.81269 0
M  V30 13777 H 1532.83 -0.615586 -3.72143 0
M  V30 13778 H 1535.22 0.00905324 -2.95099 0
M  V30 13779 H 1535.3 -1.51721 -2.05948 0
M  V30 13780 H 1534.94 -2.78737 -4.2458 0
M  V30 13781 H 1534.87 -1.23604 -5.11888 0
M  V30 13782 H 1537.36 -1.27425 -3.55769 0
M  V30 13783 H 1537.67 -3.18594 -7.04072 0
M  V30 13784 H 1536.02 -2.85887 -6.33478 0
M  V30 13785 H 1539.21 -1.65746 -4.37774 0
M  V30 13786 H 1539.38 -2.52899 -5.96612 0
M  V30 13787 N 1532.79 1.52222 -0.408187 0
M  V30 13788 C 1534.04 2.01404 0.167574 0
M  V30 13789 C 1534.36 1.29572 1.45726 0
M  V30 13790 O 1533.63 0.421363 1.91315 0
M  V30 13791 H 1532.21 0.744174 0.0649156 0
M  V30 13792 H 1534.87 1.87148 -0.544212 0
M  V30 13793 H 1533.97 3.09966 0.36436 0
M  V30 13794 N 1534.27 0.138579 1.5699 0
M  V30 13795 C 1535.68 -0.383633 1.82716 0
M  V30 13796 C 1536.03 -1.65304 1.05684 0
M  V30 13797 O 1535.15 -2.14318 0.299488 0
M  V30 13798 C 1535.75 -0.7028 3.3143 0
M  V30 13799 C 1534.31 -1.16957 3.57768 0
M  V30 13800 C 1533.46 -0.188295 2.7666 0
M  V30 13801 H 1536.41 0.363415 1.54483 0
M  V30 13802 H 1536.43 -1.55832 3.47126 0
M  V30 13803 H 1535.94 0.221271 3.87469 0
M  V30 13804 H 1534.04 -2.10987 3.07108 0
M  V30 13805 H 1534.15 -1.10136 4.66269 0
M  V30 13806 H 1532.52 -0.679255 2.45475 0
M  V30 13807 H 1533.3 0.729218 3.35466 0
M  V30 13808 N 1535.75 -1.57019 -0.13521 0
M  V30 13809 C 1536.98 -1.87887 -0.859187 0
M  V30 13810 C 1537.38 -0.726131 -1.74711 0
M  V30 13811 O 1536.73 0.312784 -1.81018 0
M  V30 13812 C 1536.79 -3.13594 -1.75782 0
M  V30 13813 C 1536.45 -4.44872 -1.04586 0
M  V30 13814 C 1537.45 -5.18403 -0.39422 0
M  V30 13815 C 1535.13 -4.91587 -1.03185 0
M  V30 13816 C 1537.13 -6.36862 0.261905 0
M  V30 13817 C 1534.82 -6.09967 -0.371923 0
M  V30 13818 C 1535.81 -6.82451 0.273817 0
M  V30 13819 O 1535.5 -7.98581 0.923256 0
M  V30 13820 H 1535.23 -0.626795 -0.253188 0
M  V30 13821 H 1537.79 -2.04994 -0.129109 0
M  V30 13822 H 1536.02 -2.92527 -2.52913 0
M  V30 13823 H 1537.71 -3.30613 -2.35478 0
M  V30 13824 H 1538.47 -4.83374 -0.396766 0
M  V30 13825 H 1534.35 -4.35085 -1.52389 0
M  V30 13826 H 1537.9 -6.93376 0.766515 0
M  V30 13827 H 1533.79 -6.44455 -0.367084 0
M  V30 13828 H 1534.56 -8.1432 0.826104 0
M  V30 13829 N 1537.22 0.404919 -1.52309 0
M  V30 13830 C 1538.13 1.51822 -1.7885 0
M  V30 13831 C 1539.15 1.60403 -0.674307 0
M  V30 13832 O 1540.33 1.77038 -0.960175 0
M  V30 13833 C 1537.39 2.87516 -1.9374 0
M  V30 13834 C 1536.45 2.88787 -3.17648 0
M  V30 13835 C 1535.69 4.18009 -3.31819 0
M  V30 13836 O 1535.91 5.12129 -2.51158 0
M  V30 13837 O 1534.84 4.26222 -4.24992 0
M  V30 13838 H 1538.67 1.32329 -2.73354 0
M  V30 13839 H 1536.25 0.591193 -1.37205 0
M  V30 13840 H 1538.14 3.6799 -2.05333 0
M  V30 13841 H 1536.81 3.07068 -1.02425 0
M  V30 13842 H 1535.72 2.07152 -3.11511 0
M  V30 13843 H 1537.05 2.74185 -4.08758 0
M  V30 13844 N 1538.7 1.43003 0.662408 0
M  V30 13845 C 1539.93 1.47766 1.45533 0
M  V30 13846 C 1540.35 0.0940298 1.87865 0
M  V30 13847 O 1539.71 -0.910252 1.56793 0
M  V30 13848 C 1539.76 2.42084 2.6726 0
M  V30 13849 O 1538.86 1.90076 3.65985 0
M  V30 13850 H 1538.2 0.500167 0.436725 0
M  V30 13851 H 1540.73 1.87823 0.811399 0
M  V30 13852 H 1540.74 2.5908 3.15185 0
M  V30 13853 H 1539.42 3.42601 2.3579 0
M  V30 13854 H 1538 1.82695 3.2508 0
M  V30 13855 N 1540.18 -0.899904 1.29381 0
M  V30 13856 C 1541.43 -1.64712 1.17109 0
M  V30 13857 C 1541.75 -1.93011 -0.277772 0
M  V30 13858 O 1541.02 -1.55604 -1.19013 0
M  V30 13859 H 1539.6 -0.610532 0.430418 0
M  V30 13860 H 1542.26 -1.07905 1.62304 0
M  V30 13861 H 1541.36 -2.60362 1.72098 0
M  V30 13862 N 1541.66 -1.11854 -1.11024 0
M  V30 13863 C 1542.88 -0.892999 -1.8719 0
M  V30 13864 C 1543.31 0.552058 -1.79816 0
M  V30 13865 O 1542.67 1.39025 -1.16369 0
M  V30 13866 C 1542.71 -1.3647 -3.33779 0
M  V30 13867 O 1541.82 -0.539202 -4.0886 0
M  V30 13868 H 1541.16 -0.321319 -0.581076 0
M  V30 13869 H 1543.69 -1.4891 -1.4031 0
M  V30 13870 H 1543.7 -1.3611 -3.84627 0
M  V30 13871 H 1542.37 -2.41694 -3.38462 0
M  V30 13872 H 1540.95 -0.60927 -3.67889 0
M  V30 13873 N 1543.14 1.28707 -0.909517 0
M  V30 13874 C 1544.38 1.94768 -0.539413 0
M  V30 13875 C 1544.71 1.7198 0.919133 0
M  V30 13876 O 1543.98 1.0571 1.64931 0
M  V30 13877 H 1542.56 0.720693 -0.196496 0
M  V30 13878 H 1545.22 1.56772 -1.15795 0
M  V30 13879 H 1544.31 3.03436 -0.730281 0
M  V30 13880 N 1544.61 0.673042 1.42506 0
M  V30 13881 C 1545.56 -0.0291025 2.27981 0
M  V30 13882 C 1546.55 -0.775296 1.40989 0
M  V30 13883 O 1547.74 -0.654498 1.64455 0
M  V30 13884 C 1544.87 -0.9809 3.28988 0
M  V30 13885 C 1543.96 -0.232141 4.23464 0
M  V30 13886 N 1544.35 0.762036 5.00027 0
M  V30 13887 C 1542.64 -0.470831 4.43508 0
M  V30 13888 C 1543.35 1.20826 5.69013 0
M  V30 13889 N 1542.32 0.538559 5.40926 0
M  V30 13890 H 1546.12 0.733484 2.846 0
M  V30 13891 H 1543.64 0.501961 1.54448 0
M  V30 13892 H 1545.63 -1.49888 3.89023 0
M  V30 13893 H 1544.29 -1.74333 2.73931 0
M  V30 13894 H 1545.31 1.14151 5.05163 0
M  V30 13895 H 1541.98 -1.2129 3.99493 0
M  V30 13896 H 1543.37 2.03199 6.40437 0
M  V30 13897 N 1546.09 -1.52004 0.416254 0
M  V30 13898 C 1547.32 -2.0679 -0.158937 0
M  V30 13899 C 1547.74 -1.28366 -1.37491 0
M  V30 13900 O 1547.1 -0.315815 -1.78528 0
M  V30 13901 C 1547.15 -3.57381 -0.480717 0
M  V30 13902 O 1546.25 -3.81321 -1.5706 0
M  V30 13903 H 1545.59 -0.663907 -0.0110938 0
M  V30 13904 H 1548.12 -1.95863 0.591509 0
M  V30 13905 H 1548.13 -4.01283 -0.737297 0
M  V30 13906 H 1546.81 -4.13893 0.408137 0
M  V30 13907 H 1545.39 -3.49296 -1.30563 0
M  V30 13908 N 1547.57 -0.146903 -1.56914 0
M  V30 13909 C 1548.8 0.514426 -2.00919 0
M  V30 13910 C 1549.22 1.57632 -1.02634 0
M  V30 13911 O 1548.58 1.813 -0.00207478 0
M  V30 13912 C 1548.63 1.09197 -3.43669 0
M  V30 13913 O 1547.73 2.20684 -3.48385 0
M  V30 13914 H 1547.07 0.125827 -0.651969 0
M  V30 13915 H 1549.6 -0.243607 -2.03145 0
M  V30 13916 H 1549.61 1.42066 -3.82467 0
M  V30 13917 H 1548.29 0.314336 -4.1471 0
M  V30 13918 H 1546.86 1.89045 -3.21429 0
M  V30 13919 N 1549.05 1.57088 0.126881 0
M  V30 13920 C 1550.3 1.84071 0.834397 0
M  V30 13921 C 1550.62 0.730896 1.80784 0
M  V30 13922 O 1549.89 -0.245791 1.94352 0
M  V30 13923 H 1548.47 0.679123 0.311128 0
M  V30 13924 H 1551.13 1.94554 0.116083 0
M  V30 13925 H 1550.23 2.79714 1.38443 0
M  V30 13926 N 1550.53 -0.396836 1.52522 0
M  V30 13927 C 1551.46 -1.49088 1.79708 0
M  V30 13928 C 1552.44 -1.57246 0.648678 0
M  V30 13929 O 1553.62 -1.72321 0.895495 0
M  V30 13930 C 1550.75 -2.86785 1.95887 0
M  V30 13931 C 1549.71 -2.93472 3.11542 0
M  V30 13932 C 1549.03 -4.33542 3.12963 0
M  V30 13933 C 1550.33 -2.63832 4.50766 0
M  V30 13934 H 1552.03 -1.26588 2.71322 0
M  V30 13935 H 1549.57 -0.607535 1.30557 0
M  V30 13936 H 1551.53 -3.63319 2.13489 0
M  V30 13937 H 1550.25 -3.10605 1.00955 0
M  V30 13938 H 1548.91 -2.19384 2.93711 0
M  V30 13939 H 1548.56 -4.5439 2.15729 0
M  V30 13940 H 1548.26 -4.38938 3.9065 0
M  V30 13941 H 1549.78 -5.11993 3.32709 0
M  V30 13942 H 1551.19 -3.30086 4.68739 0
M  V30 13943 H 1549.59 -2.80589 5.30462 0
M  V30 13944 H 1550.66 -1.59209 4.58018 0
M  V30 13945 N 1552.01 -1.43353 -0.654814 0
M  V30 13946 C 1553.25 -1.44599 -1.41193 0
M  V30 13947 C 1553.57 -0.0707955 -1.94871 0
M  V30 13948 O 1552.84 0.893637 -1.7433 0
M  V30 13949 H 1551.42 -0.532373 -0.524011 0
M  V30 13950 H 1554.09 -1.78942 -0.772388 0
M  V30 13951 H 1553.18 -2.15761 -2.25508 0
M  V30 13952 N 1553.48 0.89303 -1.29857 0
M  V30 13953 C 1554.43 1.98497 -1.12173 0
M  V30 13954 C 1555.42 1.60852 -0.039207 0
M  V30 13955 O 1556.61 1.75055 -0.261652 0
M  V30 13956 C 1553.74 3.33674 -0.807259 0
M  V30 13957 C 1552.82 3.77658 -1.92965 0
M  V30 13958 N 1553.22 3.93814 -3.17402 0
M  V30 13959 C 1551.51 4.06988 -1.82419 0
M  V30 13960 C 1552.21 4.30988 -3.90671 0
M  V30 13961 N 1551.19 4.40403 -3.18662 0
M  V30 13962 H 1554.99 2.09068 -2.06562 0
M  V30 13963 H 1552.51 1.0823 -1.21078 0
M  V30 13964 H 1554.5 4.11617 -0.661603 0
M  V30 13965 H 1553.16 3.24445 0.128646 0
M  V30 13966 H 1554.17 3.79164 -3.52782 0
M  V30 13967 H 1550.85 4.06279 -0.961436 0
M  V30 13968 H 1552.24 4.51278 -4.97793 0
M  V30 13969 N 1554.96 1.12442 1.10429 0
M  V30 13970 C 1556.38 0.860481 1.34417 0
M  V30 13971 C 1556.58 -0.509394 1.94955 0
M  V30 13972 O 1555.63 -1.25807 2.18927 0
M  V30 13973 C 1556.95 1.97694 2.26578 0
M  V30 13974 C 1558.49 2.00783 2.40115 0
M  V30 13975 C 1558.97 3.11663 3.35604 0
M  V30 13976 N 1560.46 3.11106 3.43173 0
M  V30 13977 C 1561.2 3.9354 4.1703 0
M  V30 13978 N 1560.69 4.85963 4.93773 0
M  V30 13979 N 1562.48 3.81677 4.12649 0
M  V30 13980 H 1554.64 2.00706 0.695036 0
M  V30 13981 H 1556.9 0.873398 0.368619 0
M  V30 13982 H 1556.6 2.96405 1.89306 0
M  V30 13983 H 1556.48 1.88217 3.26886 0
M  V30 13984 H 1558.87 1.02692 2.76656 0
M  V30 13985 H 1558.95 2.14335 1.39621 0
M  V30 13986 H 1558.59 4.09987 2.99789 0
M  V30 13987 H 1558.52 2.9535 4.35977 0
M  V30 13988 H 1561.01 2.4415 2.88442 0
M  V30 13989 H 1561.32 5.45373 5.47529 0
M  V30 13990 H 1559.67 4.89976 4.92898 0
M  V30 13991 H 1562.86 3.08808 3.51789 0
M  V30 13992 H 1563.03 4.46151 4.6995 0
M  V30 13993 N 1556.44 -1.28223 0.91633 0
M  V30 13994 C 1557.35 -2.30956 0.411882 0
M  V30 13995 C 1558.37 -1.66609 -0.501753 0
M  V30 13996 O 1559.54 -1.97641 -0.387317 0
M  V30 13997 C 1556.61 -3.45053 -0.337558 0
M  V30 13998 C 1555.67 -4.2495 0.609609 0
M  V30 13999 C 1554.9 -5.33598 -0.104159 0
M  V30 14000 O 1555.12 -5.54786 -1.32546 0
M  V30 14001 O 1554.06 -5.99272 0.561851 0
M  V30 14002 H 1557.88 -2.76118 1.26461 0
M  V30 14003 H 1555.47 -1.32964 0.681246 0
M  V30 14004 H 1557.35 -4.14477 -0.760722 0
M  V30 14005 H 1556.03 -3.01968 -1.16607 0
M  V30 14006 H 1554.93 -3.58104 1.08222 0
M  V30 14007 H 1556.27 -4.7172 1.40502 0
M  V30 14008 N 1557.92 -0.68059 -1.42147 0
M  V30 14009 C 1559.14 -0.212293 -2.06311 0
M  V30 14010 C 1559.57 1.12402 -1.50822 0
M  V30 14011 O 1558.93 1.70037 -0.629051 0
M  V30 14012 C 1558.97 -0.164156 -3.60226 0
M  V30 14013 O 1558.08 0.865582 -4.03214 0
M  V30 14014 H 1557.42 -0.107451 -0.655248 0
M  V30 14015 H 1559.95 -0.931233 -1.82179 0
M  V30 14016 H 1559.96 0.0100422 -4.07999 0
M  V30 14017 H 1558.63 -1.13952 -3.99985 0
M  V30 14018 H 1557.21 0.661955 -3.66978 0
M  V30 14019 N 1559.4 1.51781 -0.424309 0
M  V30 14020 C 1560.81 1.59419 -0.0759329 0
M  V30 14021 C 1561.01 1.43616 1.41339 0
M  V30 14022 O 1560.07 1.27078 2.18191 0
M  V30 14023 C 1561.38 2.94966 -0.584411 0
M  V30 14024 C 1562.93 3.08241 -0.54371 0
M  V30 14025 C 1563.4 4.46292 -1.02895 0
M  V30 14026 N 1564.89 4.52575 -0.986392 0
M  V30 14027 C 1565.63 5.57694 -1.33286 0
M  V30 14028 N 1565.13 6.70293 -1.75154 0
M  V30 14029 N 1566.92 5.47983 -1.25186 0
M  V30 14030 H 1559.07 1.60299 -1.39349 0
M  V30 14031 H 1561.33 0.75492 -0.573411 0
M  V30 14032 H 1561.04 3.11859 -1.62593 0
M  V30 14033 H 1560.91 3.772 -0.00224435 0
M  V30 14034 H 1563.3 2.91024 0.488798 0
M  V30 14035 H 1563.38 2.27878 -1.16212 0
M  V30 14036 H 1563.02 4.64255 -2.05986 0
M  V30 14037 H 1562.95 5.25175 -0.387202 0
M  V30 14038 H 1565.45 3.71754 -0.678765 0
M  V30 14039 H 1565.76 7.46508 -1.99863 0
M  V30 14040 H 1564.1 6.71535 -1.79071 0
M  V30 14041 H 1567.29 4.58899 -0.923525 0
M  V30 14042 H 1567.47 6.29796 -1.52517 0
M  V30 14043 N 1560.87 0.155222 1.56834 0
M  V30 14044 C 1562.1 -0.503763 2.01189 0
M  V30 14045 C 1562.52 -1.57086 1.03468 0
M  V30 14046 O 1561.88 -1.81296 0.0116895 0
M  V30 14047 C 1561.93 -1.07373 3.44243 0
M  V30 14048 O 1561.03 -2.18834 3.49551 0
M  V30 14049 H 1560.37 -0.122368 0.652627 0
M  V30 14050 H 1562.9 0.254377 2.03013 0
M  V30 14051 H 1562.91 -1.40036 3.83215 0
M  V30 14052 H 1561.59 -0.292339 4.14871 0
M  V30 14053 H 1560.17 -1.87337 3.22427 0
M  V30 14054 N 1562.35 -1.57153 -0.118549 0
M  V30 14055 C 1563.6 -1.84511 -0.824623 0
M  V30 14056 C 1563.92 -0.740473 -1.80394 0
M  V30 14057 O 1563.19 0.235481 -1.9448 0
M  V30 14058 H 1561.77 -0.680764 -0.307522 0
M  V30 14059 H 1564.43 -1.94613 -0.105764 0
M  V30 14060 H 1563.53 -2.80444 -1.36958 0
M  V30 14061 N 1563.83 0.388742 -1.5273 0
M  V30 14062 C 1564.76 1.49441 -1.73781 0
M  V30 14063 C 1565.77 1.50602 -0.618285 0
M  V30 14064 O 1566.96 1.545 -0.893986 0
M  V30 14065 C 1564.06 2.88288 -1.78166 0
M  V30 14066 C 1563.24 3.11089 -3.07478 0
M  V30 14067 C 1562.3 4.2992 -3.03407 0
M  V30 14068 O 1561.32 4.26212 -3.77269 0
M  V30 14069 N 1562.52 5.36121 -2.2261 0
M  V30 14070 H 1565.29 1.3177 -2.69178 0
M  V30 14071 H 1562.85 0.578258 -1.51221 0
M  V30 14072 H 1564.84 3.65884 -1.72949 0
M  V30 14073 H 1563.41 2.99317 -0.901553 0
M  V30 14074 H 1562.63 2.21356 -3.26183 0
M  V30 14075 H 1563.92 3.23177 -3.92981 0
M  V30 14076 H 1563.32 5.41988 -1.62067 0
M  V30 14077 H 1561.87 6.12381 -2.23232 0
M  V30 14078 N 1565.31 1.43698 0.647203 0
M  V30 14079 C 1566.53 1.49301 1.43958 0
M  V30 14080 C 1566.96 0.11395 1.87755 0
M  V30 14081 O 1566.32 -0.893571 1.5775 0
M  V30 14082 C 1566.36 2.44905 2.64677 0
M  V30 14083 O 1565.47 1.93947 3.63948 0
M  V30 14084 H 1564.81 0.504771 0.431396 0
M  V30 14085 H 1567.34 1.88673 0.791432 0
M  V30 14086 H 1567.35 2.62409 3.12419 0
M  V30 14087 H 1566.02 3.45083 2.32143 0
M  V30 14088 H 1564.6 1.86133 3.23124 0
M  V30 14089 N 1566.79 -0.886131 1.30328 0
M  V30 14090 C 1568.01 -1.67625 1.22134 0
M  V30 14091 C 1568.44 -1.86893 -0.212712 0
M  V30 14092 O 1567.79 -1.39905 -1.1531 0
M  V30 14093 C 1567.84 -3.03068 1.95402 0
M  V30 14094 O 1566.95 -3.92022 1.28032 0
M  V30 14095 H 1566.29 -0.512246 0.422493 0
M  V30 14096 H 1568.82 -1.10602 1.72129 0
M  V30 14097 H 1568.83 -3.53119 2.04379 0
M  V30 14098 H 1567.5 -2.88363 2.99699 0
M  V30 14099 H 1566.08 -3.50461 1.27402 0
M  V30 14100 N 1568.26 -1.13026 -1.09832 0
M  V30 14101 C 1569.51 -0.887662 -1.81563 0
M  V30 14102 C 1569.83 0.587935 -1.85926 0
M  V30 14103 O 1569.1 1.42732 -1.3418 0
M  V30 14104 H 1567.68 -0.32541 -0.672397 0
M  V30 14105 H 1570.35 -1.42597 -1.32861 0
M  V30 14106 H 1569.44 -1.2747 -2.84882 0
M  V30 14107 N 1569.74 1.27735 -0.923117 0
M  V30 14108 C 1570.97 1.98394 -0.57648 0
M  V30 14109 C 1571.38 1.69093 0.848778 0
M  V30 14110 O 1570.72 0.945385 1.57506 0
M  V30 14111 C 1570.79 3.52278 -0.716984 0
M  V30 14112 C 1570.45 4.05191 -2.11351 0
M  V30 14113 C 1571.45 4.18314 -3.08722 0
M  V30 14114 C 1569.13 4.39652 -2.42922 0
M  V30 14115 C 1571.13 4.65166 -4.35774 0
M  V30 14116 C 1568.81 4.86196 -3.70211 0
M  V30 14117 C 1569.81 4.98911 -4.66451 0
M  V30 14118 O 1569.5 5.44437 -5.91476 0
M  V30 14119 H 1569.23 0.640008 -0.217636 0
M  V30 14120 H 1571.78 1.63666 -1.24107 0
M  V30 14121 H 1570.01 3.867 0.00469601 0
M  V30 14122 H 1571.7 4.04154 -0.376077 0
M  V30 14123 H 1572.47 3.91955 -2.85651 0
M  V30 14124 H 1568.35 4.29 -1.6876 0
M  V30 14125 H 1571.89 4.75006 -5.10896 0
M  V30 14126 H 1567.79 5.11997 -3.93103 0
M  V30 14127 H 1568.56 5.62701 -5.94399 0
M  V30 14128 N 1571.22 0.688118 1.41784 0
M  V30 14129 C 1572.47 0.215517 2.00948 0
M  V30 14130 C 1572.79 -1.18656 1.54744 0
M  V30 14131 O 1572.06 -1.79925 0.774831 0
M  V30 14132 H 1570.64 0.0766876 0.743053 0
M  V30 14133 H 1573.3 0.88761 1.73515 0
M  V30 14134 H 1572.4 0.227139 3.11272 0
M  V30 14135 N 1572.7 -1.51554 0.432352 0
M  V30 14136 C 1573.63 -2.25369 -0.417328 0
M  V30 14137 C 1574.64 -1.29197 -0.990551 0
M  V30 14138 O 1575.83 -1.54985 -0.885539 0
M  V30 14139 C 1572.93 -2.99006 -1.59526 0
M  V30 14140 C 1572.11 -4.22234 -1.1418 0
M  V30 14141 C 1571.16 -4.78495 -2.18928 0
M  V30 14142 O 1570.19 -5.40465 -1.78566 0
M  V30 14143 N 1571.39 -4.62091 -3.51358 0
M  V30 14144 H 1574.16 -2.98926 0.215294 0
M  V30 14145 H 1571.72 -1.59783 0.26097 0
M  V30 14146 H 1573.71 -3.33532 -2.29212 0
M  V30 14147 H 1572.28 -2.28491 -2.13332 0
M  V30 14148 H 1571.5 -3.93259 -0.272182 0
M  V30 14149 H 1572.79 -5.02212 -0.816145 0
M  V30 14150 H 1572.19 -4.12718 -3.86885 0
M  V30 14151 H 1570.74 -5.00992 -4.16953 0
M  V30 14152 N 1574.18 -0.163538 -1.56749 0
M  V30 14153 C 1575.13 0.781904 -2.14173 0
M  V30 14154 C 1576.11 1.19818 -1.07389 0
M  V30 14155 O 1577.3 1.16184 -1.3353 0
M  V30 14156 C 1574.43 2.01433 -2.77992 0
M  V30 14157 C 1573.52 1.6204 -3.91923 0
M  V30 14158 N 1573.91 0.935598 -4.97072 0
M  V30 14159 C 1572.21 1.91197 -4.02939 0
M  V30 14160 C 1572.91 0.742806 -5.76938 0
M  V30 14161 N 1571.88 1.28183 -5.28271 0
M  V30 14162 H 1575.69 0.249647 -2.92838 0
M  V30 14163 H 1573.2 0.0374224 -1.62357 0
M  V30 14164 H 1575.2 2.7018 -3.17504 0
M  V30 14165 H 1573.86 2.55161 -2.00806 0
M  V30 14166 H 1574.87 0.594507 -5.14476 0
M  V30 14167 H 1571.54 2.46657 -3.36848 0
M  V30 14168 H 1572.93 0.201845 -6.71597 0
M  V30 14169 N 1575.65 1.57214 0.110213 0
M  V30 14170 C 1576.9 1.84946 0.814827 0
M  V30 14171 C 1577.22 0.750029 1.79999 0
M  V30 14172 O 1576.49 -0.225164 1.94602 0
M  V30 14173 H 1575.07 0.682385 0.303907 0
M  V30 14174 H 1577.74 1.94666 0.0954415 0
M  V30 14175 H 1576.83 2.81167 1.35469 0
M  V30 14176 N 1577.13 -0.380637 1.52934 0
M  V30 14177 C 1578.36 -1.15033 1.72575 0
M  V30 14178 C 1578.78 -1.82715 0.446869 0
M  V30 14179 O 1578.14 -1.71154 -0.598004 0
M  V30 14180 C 1578.19 -2.16773 2.8817 0
M  V30 14181 O 1577.29 -3.23539 2.55727 0
M  V30 14182 H 1576.63 -0.334489 0.573597 0
M  V30 14183 H 1579.16 -0.442369 1.9976 0
M  V30 14184 H 1579.17 -2.60629 3.13905 0
M  V30 14185 H 1577.85 -1.669 3.80943 0
M  V30 14186 H 1576.43 -2.84761 2.4076 0
M  V30 14187 N 1578.61 -1.44039 -0.639573 0
M  V30 14188 C 1579.84 -1.50063 -1.43164 0
M  V30 14189 C 1580.26 -0.123906 -1.87691 0
M  V30 14190 O 1579.62 0.885192 -1.58221 0
M  V30 14191 C 1579.67 -2.46305 -2.63375 0
M  V30 14192 O 1578.77 -1.95874 -3.62915 0
M  V30 14193 H 1578.11 -0.507052 -0.428713 0
M  V30 14194 H 1580.64 -1.8909 -0.781415 0
M  V30 14195 H 1580.65 -2.64062 -3.11023 0
M  V30 14196 H 1579.33 -3.46309 -2.3031 0
M  V30 14197 H 1577.9 -1.87844 -3.22132 0
M  V30 14198 N 1580.09 0.879207 -1.30796 0
M  V30 14199 C 1581.31 1.66975 -1.23021 0
M  V30 14200 C 1581.74 1.87004 0.202798 0
M  V30 14201 O 1581.1 1.40514 1.14566 0
M  V30 14202 C 1581.14 3.02028 -1.97007 0
M  V30 14203 O 1580.25 3.91338 -1.30109 0
M  V30 14204 H 1579.59 0.509998 -0.425204 0
M  V30 14205 H 1582.12 1.09688 -1.72713 0
M  V30 14206 H 1582.13 3.5203 -2.06249 0
M  V30 14207 H 1580.8 2.8677 -3.01224 0
M  V30 14208 H 1579.38 3.49781 -1.29258 0
M  V30 14209 N 1581.57 1.13606 1.09231 0
M  V30 14210 C 1582.82 0.897278 1.81089 0
M  V30 14211 C 1583.14 -0.578066 1.86235 0
M  V30 14212 O 1582.41 -1.42018 1.34935 0
M  V30 14213 H 1580.99 0.328971 0.670662 0
M  V30 14214 H 1583.65 1.433 1.32103 0
M  V30 14215 H 1582.74 1.28979 2.84202 0
M  V30 14216 N 1583.05 -1.27244 0.929878 0
M  V30 14217 C 1584 -2.24434 0.401656 0
M  V30 14218 C 1584.98 -1.53087 -0.495298 0
M  V30 14219 O 1586.17 -1.73851 -0.332387 0
M  V30 14220 C 1583.3 -3.41588 -0.342424 0
M  V30 14221 C 1582.39 -4.20236 0.571171 0
M  V30 14222 N 1582.78 -4.76661 1.69197 0
M  V30 14223 C 1581.08 -4.44424 0.374595 0
M  V30 14224 C 1581.78 -5.35987 2.26036 0
M  V30 14225 N 1580.75 -5.21043 1.54969 0
M  V30 14226 H 1584.55 -2.65644 1.25739 0
M  V30 14227 H 1582.07 -1.422 0.784408 0
M  V30 14228 H 1584.07 -4.10319 -0.737805 0
M  V30 14229 H 1582.73 -3.01908 -1.19506 0
M  V30 14230 H 1583.74 -4.74545 2.07431 0
M  V30 14231 H 1580.41 -4.15205 -0.437201 0
M  V30 14232 H 1581.8 -5.90583 3.20408 0
M  V30 14233 N 1584.52 -0.695628 -1.41417 0
M  V30 14234 C 1585.75 -0.234163 -2.06074 0
M  V30 14235 C 1586.17 1.10796 -1.52006 0
M  V30 14236 O 1585.53 1.6936 -0.64705 0
M  V30 14237 C 1585.58 -0.202353 -3.60032 0
M  V30 14238 O 1584.68 0.822767 -4.04109 0
M  V30 14239 H 1584.02 -0.114395 -0.654072 0
M  V30 14240 H 1586.55 -0.950503 -1.81181 0
M  V30 14241 H 1586.56 -0.0332321 -4.07986 0
M  V30 14242 H 1585.24 -1.18188 -3.98754 0
M  V30 14243 H 1583.82 0.622995 -3.67659 0
M  V30 14244 N 1586 1.51322 -0.440383 0
M  V30 14245 C 1587.23 2.07017 0.126018 0
M  V30 14246 C 1587.65 1.30537 1.35431 0
M  V30 14247 O 1587.01 0.344178 1.78003 0
M  V30 14248 C 1587.06 3.58101 0.4238 0
M  V30 14249 O 1586.16 3.83772 1.50973 0
M  V30 14250 H 1585.5 0.664 0.000530178 0
M  V30 14251 H 1588.03 1.94897 -0.622594 0
M  V30 14252 H 1588.04 4.02405 0.673363 0
M  V30 14253 H 1586.72 4.13191 -0.473932 0
M  V30 14254 H 1585.29 3.51329 1.24989 0
M  V30 14255 N 1587.48 0.171848 1.5666 0
M  V30 14256 C 1588.71 -0.479221 2.01274 0
M  V30 14257 C 1589.12 -1.56771 1.05206 0
M  V30 14258 O 1588.48 -1.82423 0.0530164 0
M  V30 14259 C 1588.53 -1.05705 3.457 0
M  V30 14260 O 1588.25 -0.0120133 4.38098 0
M  V30 14261 C 1589.75 -1.78629 4.05717 0
M  V30 14262 H 1586.97 -0.122598 0.659705 0
M  V30 14263 H 1589.52 0.273733 2.0266 0
M  V30 14264 H 1587.67 -1.7605 3.45087 0
M  V30 14265 H 1588.09 -0.438714 5.22662 0
M  V30 14266 H 1589.56 -2.14319 5.08696 0
M  V30 14267 H 1590.04 -2.68149 3.4784 0
M  V30 14268 H 1590.64 -1.12925 4.10034 0
M  V30 14269 N 1588.96 -1.5727 -0.101874 0
M  V30 14270 C 1589.91 -1.98011 -1.13029 0
M  V30 14271 C 1590.89 -0.857554 -1.36143 0
M  V30 14272 O 1592.08 -1.12135 -1.36948 0
M  V30 14273 C 1589.21 -2.4024 -2.45234 0
M  V30 14274 C 1588.3 -3.59166 -2.25522 0
M  V30 14275 N 1588.69 -4.74317 -1.75662 0
M  V30 14276 C 1586.99 -3.65132 -2.56115 0
M  V30 14277 C 1587.69 -5.56286 -1.70061 0
M  V30 14278 N 1586.66 -4.99262 -2.15031 0
M  V30 14279 H 1590.47 -2.84493 -0.737611 0
M  V30 14280 H 1587.98 -1.59426 -0.309395 0
M  V30 14281 H 1589.98 -2.67652 -3.19637 0
M  V30 14282 H 1588.64 -1.55131 -2.85245 0
M  V30 14283 H 1589.65 -4.972 -1.44958 0
M  V30 14284 H 1586.33 -2.9067 -2.99696 0
M  V30 14285 H 1587.72 -6.58682 -1.3262 0
M  V30 14286 N 1590.44 0.372521 -1.53134 0
M  V30 14287 C 1591.68 1.11368 -1.68646 0
M  V30 14288 C 1592 1.90034 -0.437275 0
M  V30 14289 O 1591.27 1.88062 0.548593 0
M  V30 14290 H 1589.85 0.414129 -0.621696 0
M  V30 14291 H 1592.52 0.42082 -1.90303 0
M  V30 14292 H 1591.61 1.80738 -2.54441 0
M  V30 14293 N 1591.91 1.44376 0.631925 0
M  V30 14294 C 1592.85 1.47167 1.75711 0
M  V30 14295 C 1593.86 0.365158 1.58652 0
M  V30 14296 O 1595.05 0.630852 1.66981 0
M  V30 14297 C 1592.15 1.28916 3.13423 0
M  V30 14298 C 1591.32 2.52798 3.56948 0
M  V30 14299 C 1590.38 2.29458 4.73535 0
M  V30 14300 O 1589.41 3.02941 4.81887 0
M  V30 14301 N 1590.61 1.32467 5.65184 0
M  V30 14302 H 1593.37 2.44168 1.73788 0
M  V30 14303 H 1590.93 1.39805 0.816465 0
M  V30 14304 H 1592.93 1.1115 3.89137 0
M  V30 14305 H 1591.5 0.402828 3.09994 0
M  V30 14306 H 1590.72 2.85846 2.71451 0
M  V30 14307 H 1592 3.35198 3.82779 0
M  V30 14308 H 1591.4 0.717762 5.61128 0
M  V30 14309 H 1589.96 1.2068 6.40531 0
M  V30 14310 N 1593.39 -0.872258 1.31261 0
M  V30 14311 C 1594.34 -1.96688 1.15317 0
M  V30 14312 C 1595.33 -1.60769 0.0647922 0
M  V30 14313 O 1596.52 -1.74617 0.289469 0
M  V30 14314 C 1593.65 -3.32347 0.860242 0
M  V30 14315 C 1592.73 -3.7454 1.98948 0
M  V30 14316 N 1593.12 -3.88715 3.23627 0
M  V30 14317 C 1591.42 -4.04035 1.88871 0
M  V30 14318 C 1592.12 -4.24718 3.97478 0
M  V30 14319 N 1591.1 -4.35278 3.25629 0
M  V30 14320 H 1594.9 -2.05755 2.09862 0
M  V30 14321 H 1592.41 -1.0629 1.22785 0
M  V30 14322 H 1594.41 -4.10512 0.727004 0
M  V30 14323 H 1593.07 -3.24609 -0.0770132 0
M  V30 14324 H 1594.08 -3.73504 3.58769 0
M  V30 14325 H 1590.76 -4.04698 1.02595 0
M  V30 14326 H 1592.15 -4.43302 5.04909 0
M  V30 14327 N 1594.87 -1.14184 -1.08627 0
M  V30 14328 C 1596.12 -0.906869 -1.80611 0
M  V30 14329 C 1596.44 0.568182 -1.86539 0
M  V30 14330 O 1595.71 1.41301 -1.35687 0
M  V30 14331 H 1594.29 -0.332523 -0.668908 0
M  V30 14332 H 1596.95 -1.43998 -1.31341 0
M  V30 14333 H 1596.05 -1.30484 -2.83514 0
M  V30 14334 N 1596.35 1.26749 -0.936613 0
M  V30 14335 C 1597.57 1.98597 -0.597817 0
M  V30 14336 C 1598 1.69324 0.8192 0
M  V30 14337 O 1597.36 0.938634 1.55111 0
M  V30 14338 C 1597.4 3.50656 -0.841007 0
M  V30 14339 O 1596.51 4.12304 0.0891038 0
M  V30 14340 H 1595.85 0.623197 -0.229176 0
M  V30 14341 H 1598.38 1.61332 -1.2583 0
M  V30 14342 H 1598.39 4.00857 -0.760093 0
M  V30 14343 H 1597.06 3.71293 -1.87388 0
M  V30 14344 H 1595.64 3.72876 -0.0424804 0
M  V30 14345 N 1597.83 0.703118 1.41046 0
M  V30 14346 C 1599.05 0.246552 2.05426 0
M  V30 14347 C 1599.47 -1.10704 1.52938 0
M  V30 14348 O 1598.83 -1.69329 0.680733 0
M  V30 14349 C 1598.88 0.203953 3.60924 0
M  V30 14350 O 1598.6 1.50408 4.11472 0
M  V30 14351 C 1600.1 -0.272686 4.42461 0
M  V30 14352 H 1597.32 0.113157 0.66139 0
M  V30 14353 H 1599.86 0.957823 1.80682 0
M  V30 14354 H 1598.02 -0.458194 3.84681 0
M  V30 14355 H 1598.43 1.39622 5.05575 0
M  V30 14356 H 1599.91 -0.251357 5.51427 0
M  V30 14357 H 1600.38 -1.31282 4.1912 0
M  V30 14358 H 1600.99 0.358733 4.23784 0
M  V30 14359 N 1599.3 -1.51086 0.448402 0
M  V30 14360 C 1600.53 -2.07081 -0.115038 0
M  V30 14361 C 1600.95 -1.31253 -1.34737 0
M  V30 14362 O 1600.31 -0.353613 -1.77818 0
M  V30 14363 C 1600.36 -3.58321 -0.404803 0
M  V30 14364 O 1599.46 -3.84567 -1.48936 0
M  V30 14365 H 1598.81 -0.663993 0.00299118 0
M  V30 14366 H 1601.34 -1.94564 0.632921 0
M  V30 14367 H 1601.35 -4.02756 -0.652013 0
M  V30 14368 H 1600.02 -4.12934 0.495838 0
M  V30 14369 H 1598.6 -3.51987 -1.23124 0
M  V30 14370 N 1600.78 -0.180154 -1.56567 0
M  V30 14371 C 1602.03 0.461606 -1.96758 0
M  V30 14372 C 1602.35 1.63179 -1.0676 0
M  V30 14373 O 1601.62 1.95429 -0.135762 0
M  V30 14374 H 1600.2 0.173526 -0.726566 0
M  V30 14375 H 1602.86 -0.2634 -1.93112 0
M  V30 14376 H 1601.96 0.815729 -3.01251 0
M  V30 14377 N 1602.26 1.57322 0.0935319 0
M  V30 14378 C 1603.19 1.98861 1.13961 0
M  V30 14379 C 1604.21 0.891385 1.36228 0
M  V30 14380 O 1605.39 1.16949 1.34853 0
M  V30 14381 C 1602.49 2.29369 2.49485 0
M  V30 14382 C 1601.67 3.6066 2.47473 0
M  V30 14383 C 1600.73 3.79087 3.64937 0
M  V30 14384 O 1599.75 4.50923 3.47357 0
M  V30 14385 N 1600.95 3.19784 4.84478 0
M  V30 14386 H 1603.72 2.89208 0.786048 0
M  V30 14387 H 1601.28 1.59416 0.282491 0
M  V30 14388 H 1603.27 2.38889 3.26671 0
M  V30 14389 H 1601.84 1.45021 2.76925 0
M  V30 14390 H 1601.06 3.62095 1.55823 0
M  V30 14391 H 1602.35 4.46908 2.43209 0
M  V30 14392 H 1601.75 2.61436 5.01665 0
M  V30 14393 H 1600.31 3.34786 5.59251 0
M  V30 14394 N 1603.74 -0.364395 1.53329 0
M  V30 14395 C 1604.96 -1.13196 1.73786 0
M  V30 14396 C 1605.39 -1.82231 0.466224 0
M  V30 14397 O 1604.75 -1.71778 -0.579817 0
M  V30 14398 C 1604.79 -2.13704 2.90453 0
M  V30 14399 O 1603.9 -3.20808 2.59144 0
M  V30 14400 H 1603.24 -0.328387 0.577112 0
M  V30 14401 H 1605.77 -0.421157 2.00218 0
M  V30 14402 H 1605.78 -2.57285 3.16652 0
M  V30 14403 H 1604.45 -1.6285 3.82691 0
M  V30 14404 H 1603.03 -2.82192 2.43767 0
M  V30 14405 N 1605.22 -1.44709 -0.62426 0
M  V30 14406 C 1606.44 -1.51573 -1.41564 0
M  V30 14407 C 1606.87 -0.143806 -1.87549 0
M  V30 14408 O 1606.22 0.868361 -1.59151 0
M  V30 14409 C 1606.27 -2.49085 -2.60747 0
M  V30 14410 O 1605.38 -1.99712 -3.60817 0
M  V30 14411 H 1604.72 -0.51157 -0.423311 0
M  V30 14412 H 1607.25 -1.89908 -0.761316 0
M  V30 14413 H 1607.26 -2.67346 -3.08205 0
M  V30 14414 H 1605.93 -3.48733 -2.26624 0
M  V30 14415 H 1604.51 -1.9125 -3.20122 0
M  V30 14416 N 1606.69 0.865285 -1.31722 0
M  V30 14417 C 1607.92 1.65661 -1.24785 0
M  V30 14418 C 1608.34 1.87208 0.182952 0
M  V30 14419 O 1607.7 1.41721 1.1307 0
M  V30 14420 C 1607.75 2.99921 -2.00199 0
M  V30 14421 O 1606.85 3.89936 -1.34253 0
M  V30 14422 H 1606.2 0.505459 -0.430589 0
M  V30 14423 H 1608.73 1.0785 -1.73867 0
M  V30 14424 H 1608.74 3.49823 -2.09971 0
M  V30 14425 H 1607.41 2.83559 -3.04249 0
M  V30 14426 H 1605.99 3.4839 -1.32961 0
M  V30 14427 N 1608.17 1.14759 1.0802 0
M  V30 14428 C 1609.41 0.928685 1.82085 0
M  V30 14429 C 1609.78 -0.534958 1.84397 0
M  V30 14430 O 1610.98 -0.871945 2.54265 0
M  V30 14431 C 1609.25 1.51791 3.23565 0
M  V30 14432 S 1610.81 1.44114 4.14459 0
M  V30 14433 H 1607.63 0.334389 0.627459 0
M  V30 14434 H 1610.23 1.46182 1.29812 0
M  V30 14435 H 1608.93 2.57622 3.19467 0
M  V30 14436 H 1608.46 0.983343 3.80912 0
M  V30 14437 H 1610.48 0.429366 4.94339 0
M  V30 14438 N 1609.65 -1.26251 0.943322 0
M  V30 14439 C 1610.9 -1.9327 0.590863 0
M  V30 14440 C 1611.22 -1.74356 -0.873212 0
M  V30 14441 O 1610.49 -1.10046 -1.6207 0
M  V30 14442 H 1609.07 -0.71523 0.215535 0
M  V30 14443 H 1611.73 -1.53647 1.19911 0
M  V30 14444 H 1610.83 -3.01393 0.810475 0
M  V30 14445 N 1611.13 -0.710588 -1.40671 0
M  V30 14446 C 1612.06 -0.0154749 -2.29195 0
M  V30 14447 C 1613.07 0.728938 -1.45569 0
M  V30 14448 O 1614.26 0.577147 -1.68912 0
M  V30 14449 C 1611.36 1.00232 -3.23739 0
M  V30 14450 C 1610.54 0.324464 -4.36195 0
M  V30 14451 C 1609.6 1.24695 -5.11212 0
M  V30 14452 O 1608.62 0.733634 -5.64452 0
M  V30 14453 N 1609.82 2.57841 -5.20094 0
M  V30 14454 H 1612.59 -0.775543 -2.89492 0
M  V30 14455 H 1610.15 -0.557815 -1.51987 0
M  V30 14456 H 1612.14 1.62151 -3.70795 0
M  V30 14457 H 1610.71 1.66379 -2.64644 0
M  V30 14458 H 1609.93 -0.474847 -3.9133 0
M  V30 14459 H 1611.22 -0.146269 -5.0859 0
M  V30 14460 H 1610.62 3.02047 -4.78314 0
M  V30 14461 H 1609.17 3.14917 -5.70676 0
M  V30 14462 N 1612.61 1.50847 -0.456408 0
M  V30 14463 C 1613.56 2.25081 0.363678 0
M  V30 14464 C 1614.54 1.28071 0.973991 0
M  V30 14465 O 1615.73 1.53056 0.888972 0
M  V30 14466 C 1612.86 3.11011 1.45352 0
M  V30 14467 C 1611.95 4.15461 0.851665 0
M  V30 14468 N 1612.34 5.05796 -0.0192612 0
M  V30 14469 C 1610.64 4.31781 1.11721 0
M  V30 14470 C 1611.34 5.80589 -0.359309 0
M  V30 14471 N 1610.31 5.42969 0.26187 0
M  V30 14472 H 1614.12 2.92287 -0.307467 0
M  V30 14473 H 1611.63 1.60146 -0.269642 0
M  V30 14474 H 1613.63 3.62786 2.05407 0
M  V30 14475 H 1612.29 2.45351 2.12681 0
M  V30 14476 H 1613.3 5.16452 -0.38707 0
M  V30 14477 H 1609.98 3.77343 1.78657 0
M  V30 14478 H 1611.37 6.63339 -1.06919 0
M  V30 14479 N 1614.09 0.188454 1.56469 0
M  V30 14480 C 1615.33 -0.451165 1.97 0
M  V30 14481 C 1615.65 -1.6261 1.07624 0
M  V30 14482 O 1614.92 -1.95354 0.146125 0
M  V30 14483 H 1613.5 -0.16967 0.727476 0
M  V30 14484 H 1616.17 0.273638 1.9297 0
M  V30 14485 H 1615.26 -0.799741 3.0168 0
M  V30 14486 N 1615.56 -1.5737 -0.0851874 0
M  V30 14487 C 1616.53 -2.01789 -1.08692 0
M  V30 14488 C 1617.53 -0.912872 -1.32376 0
M  V30 14489 O 1618.72 -1.1781 -1.28322 0
M  V30 14490 C 1615.85 -2.38708 -2.43375 0
M  V30 14491 H 1617.04 -2.91511 -0.704359 0
M  V30 14492 H 1614.59 -1.52765 -0.330528 0
M  V30 14493 H 1615.33 -1.5197 -2.86488 0
M  V30 14494 H 1615.11 -3.19331 -2.2753 0
M  V30 14495 H 1616.6 -2.73697 -3.15404 0
M  V30 14496 N 1617.04 0.356258 -1.53521 0
M  V30 14497 C 1618.27 1.12273 -1.74383 0
M  V30 14498 C 1618.69 1.81981 -0.475881 0
M  V30 14499 O 1618.05 1.72083 0.570699 0
M  V30 14500 C 1618.1 2.12161 -2.91582 0
M  V30 14501 O 1617.2 3.1943 -2.60842 0
M  V30 14502 H 1616.54 0.325321 -0.578845 0
M  V30 14503 H 1619.07 0.410533 -2.00439 0
M  V30 14504 H 1619.08 2.55602 -3.18012 0
M  V30 14505 H 1617.76 1.60818 -3.8355 0
M  V30 14506 H 1616.33 2.80895 -2.4526 0
M  V30 14507 N 1618.52 1.45038 0.616577 0
M  V30 14508 C 1619.74 1.52321 1.40759 0
M  V30 14509 C 1620.17 0.15375 1.87471 0
M  V30 14510 O 1619.53 -0.859908 1.5961 0
M  V30 14511 C 1619.58 2.50464 2.59423 0
M  V30 14512 O 1618.68 2.01623 3.59753 0
M  V30 14513 H 1618.02 0.513808 0.420592 0
M  V30 14514 H 1620.55 1.90309 0.751234 0
M  V30 14515 H 1620.56 2.68977 3.06783 0
M  V30 14516 H 1619.24 3.4993 2.24771 0
M  V30 14517 H 1617.81 1.92945 3.19103 0
M  V30 14518 N 1620 -0.858287 1.32179 0
M  V30 14519 C 1621.25 -1.60902 1.2229 0
M  V30 14520 C 1621.57 -1.93797 -0.216227 0
M  V30 14521 O 1620.84 -1.59312 -1.14002 0
M  V30 14522 H 1619.42 -0.596529 0.449624 0
M  V30 14523 H 1622.08 -1.02686 1.65655 0
M  V30 14524 H 1621.17 -2.54755 1.80295 0
M  V30 14525 N 1621.48 -1.1533 -1.07409 0
M  V30 14526 C 1622.41 -0.807289 -2.14512 0
M  V30 14527 C 1623.42 0.18043 -1.61797 0
M  V30 14528 O 1624.61 -0.042733 -1.78449 0
M  V30 14529 C 1621.71 -0.179338 -3.38425 0
M  V30 14530 C 1620.88 -1.20433 -4.20493 0
M  V30 14531 C 1619.94 -0.598268 -5.22788 0
M  V30 14532 O 1618.97 -1.26405 -5.54987 0
M  V30 14533 N 1620.17 0.620283 -5.77177 0
M  V30 14534 H 1622.93 -1.729 -2.44797 0
M  V30 14535 H 1620.5 -1.0491 -1.23311 0
M  V30 14536 H 1622.49 0.238867 -4.03994 0
M  V30 14537 H 1621.06 0.645706 -3.05858 0
M  V30 14538 H 1620.28 -1.79912 -3.5075 0
M  V30 14539 H 1621.57 -1.89642 -4.72137 0
M  V30 14540 H 1620.96 1.17958 -5.53265 0
M  V30 14541 H 1619.52 0.980853 -6.44378 0
M  V30 14542 N 1622.95 1.25748 -0.950004 0
M  V30 14543 C 1624.18 1.97952 -0.618848 0
M  V30 14544 C 1624.6 1.70184 0.801194 0
M  V30 14545 O 1623.96 0.955032 1.54107 0
M  V30 14546 C 1624.01 3.49744 -0.878151 0
M  V30 14547 O 1623.11 4.12375 0.0453685 0
M  V30 14548 H 1622.45 0.620731 -0.235773 0
M  V30 14549 H 1624.98 1.59988 -1.27534 0
M  V30 14550 H 1624.99 4.00029 -0.802567 0
M  V30 14551 H 1623.67 3.69285 -1.91315 0
M  V30 14552 H 1622.25 3.7281 -0.0820265 0
M  V30 14553 N 1624.43 0.718038 1.40292 0
M  V30 14554 C 1625.66 0.266918 2.05675 0
M  V30 14555 C 1626.08 -1.08364 1.53749 0
M  V30 14556 O 1625.44 -1.6831 0.673912 0
M  V30 14557 C 1625.49 0.259606 3.59664 0
M  V30 14558 O 1624.59 -0.758372 4.05367 0
M  V30 14559 H 1623.93 0.124786 0.652169 0
M  V30 14560 H 1626.46 0.979207 1.79646 0
M  V30 14561 H 1626.47 0.098135 4.07882 0
M  V30 14562 H 1625.15 1.24517 3.96823 0
M  V30 14563 H 1623.72 -0.564425 3.68604 0
M  V30 14564 N 1625.91 -1.50602 0.464402 0
M  V30 14565 C 1627.14 -2.07191 -0.0930678 0
M  V30 14566 C 1627.56 -1.32675 -1.33338 0
M  V30 14567 O 1626.92 -0.372453 -1.77433 0
M  V30 14568 C 1626.97 -3.5873 -0.366775 0
M  V30 14569 O 1626.07 -3.86125 -1.44849 0
M  V30 14570 H 1625.41 -0.663924 0.0100336 0
M  V30 14571 H 1627.94 -1.93882 0.653522 0
M  V30 14572 H 1627.95 -4.03425 -0.609258 0
M  V30 14573 H 1626.63 -4.12385 0.539608 0
M  V30 14574 H 1625.2 -3.53273 -1.19384 0
M  V30 14575 N 1627.39 -0.19675 -1.56367 0
M  V30 14576 C 1628.34 0.736299 -2.15784 0
M  V30 14577 C 1629.32 1.17513 -1.09907 0
M  V30 14578 O 1630.51 1.13325 -1.35965 0
M  V30 14579 C 1627.64 1.95491 -2.82202 0
M  V30 14580 C 1626.73 1.5369 -3.95272 0
M  V30 14581 N 1627.12 0.829952 -4.98944 0
M  V30 14582 C 1625.42 1.82607 -4.06904 0
M  V30 14583 C 1626.12 0.620262 -5.78384 0
M  V30 14584 N 1625.1 1.16949 -5.30871 0
M  V30 14585 H 1628.9 0.187476 -2.93301 0
M  V30 14586 H 1626.41 0.0029757 -1.624 0
M  V30 14587 H 1628.41 2.63384 -3.23163 0
M  V30 14588 H 1627.07 2.50844 -2.06173 0
M  V30 14589 H 1628.08 0.485245 -5.15622 0
M  V30 14590 H 1624.76 2.39457 -3.42004 0
M  V30 14591 H 1626.15 0.0593437 -6.71874 0
M  V30 14592 N 1628.87 1.57413 0.0768405 0
M  V30 14593 C 1630.11 1.86633 0.775414 0
M  V30 14594 C 1630.44 0.788041 1.78367 0
M  V30 14595 O 1629.71 -0.183835 1.95036 0
M  V30 14596 H 1628.29 0.688678 0.289365 0
M  V30 14597 H 1630.95 1.94825 0.0541285 0
M  V30 14598 H 1630.04 2.83977 1.29474 0
M  V30 14599 N 1630.34 -0.348112 1.53707 0
M  V30 14600 C 1631.28 -1.44781 1.77682 0
M  V30 14601 C 1632.29 -1.4891 0.657997 0
M  V30 14602 O 1633.48 -1.52075 0.934635 0
M  V30 14603 C 1630.58 -2.83463 1.85747 0
M  V30 14604 C 1629.75 -3.02827 3.15618 0
M  V30 14605 C 1628.81 -4.21724 3.14698 0
M  V30 14606 O 1627.84 -4.16059 3.88437 0
M  V30 14607 N 1629.04 -5.3003 2.36746 0
M  V30 14608 H 1631.8 -1.24587 2.72577 0
M  V30 14609 H 1629.36 -0.537961 1.52701 0
M  V30 14610 H 1631.36 -3.6117 1.82589 0
M  V30 14611 H 1629.93 -2.96822 0.980595 0
M  V30 14612 H 1629.15 -2.1263 3.31937 0
M  V30 14613 H 1630.43 -3.12645 4.01411 0
M  V30 14614 H 1629.83 -5.375 1.7638 0
M  V30 14615 H 1628.39 -6.06247 2.39389 0
M  V30 14616 N 1631.82 -1.45363 -0.608876 0
M  V30 14617 C 1632.77 -1.50362 -1.71392 0
M  V30 14618 C 1633.76 -0.367024 -1.56658 0
M  V30 14619 O 1634.95 -0.613796 -1.66017 0
M  V30 14620 C 1632.08 -1.47197 -3.10142 0
M  V30 14621 C 1631.16 -2.66055 -3.30266 0
M  V30 14622 N 1631.55 -3.91168 -3.20657 0
M  V30 14623 C 1629.85 -2.61724 -3.61132 0
M  V30 14624 C 1630.55 -4.70487 -3.42077 0
M  V30 14625 N 1629.53 -4.01921 -3.66006 0
M  V30 14626 H 1633.33 -2.4492 -1.62454 0
M  V30 14627 H 1630.85 -1.40637 -0.812091 0
M  V30 14628 H 1632.84 -1.48864 -3.89416 0
M  V30 14629 H 1631.5 -0.536956 -3.20229 0
M  V30 14630 H 1632.51 -4.22809 -2.99087 0
M  V30 14631 H 1629.19 -1.77124 -3.78065 0
M  V30 14632 H 1630.58 -5.79495 -3.40052 0
M  V30 14633 N 1633.3 0.851265 -1.32632 0
M  V30 14634 C 1634.55 1.60252 -1.23141 0
M  V30 14635 C 1634.87 1.93909 0.205946 0
M  V30 14636 O 1634.14 1.59914 1.13156 0
M  V30 14637 H 1632.72 0.594137 -0.452781 0
M  V30 14638 H 1635.38 1.01806 -1.66197 0
M  V30 14639 H 1634.48 2.53796 -1.81643 0
M  V30 14640 N 1634.78 1.15898 1.06796 0
M  V30 14641 C 1636 0.961859 1.83747 0
M  V30 14642 C 1636.43 -0.48494 1.81741 0
M  V30 14643 O 1635.79 -1.3461 1.21449 0
M  V30 14644 C 1635.83 1.48764 3.28484 0
M  V30 14645 O 1634.94 0.690576 4.06577 0
M  V30 14646 H 1634.28 0.342664 0.568751 0
M  V30 14647 H 1636.81 1.54015 1.34687 0
M  V30 14648 H 1636.82 1.50291 3.79311 0
M  V30 14649 H 1635.49 2.54089 3.29259 0
M  V30 14650 H 1634.07 0.74539 3.65374 0
M  V30 14651 N 1636.26 -1.25243 0.956659 0
M  V30 14652 C 1637.5 -1.92632 0.611328 0
M  V30 14653 C 1637.83 -1.75272 -0.85467 0
M  V30 14654 O 1637.1 -1.11758 -1.60894 0
M  V30 14655 H 1635.68 -0.712904 0.223109 0
M  V30 14656 H 1638.34 -1.52366 1.21534 0
M  V30 14657 H 1637.43 -3.00516 0.842396 0
M  V30 14658 N 1637.73 -0.725468 -1.3991 0
M  V30 14659 C 1638.96 -0.277821 -2.05531 0
M  V30 14660 C 1639.38 1.07547 -1.54322 0
M  V30 14661 O 1638.74 1.6795 -0.682828 0
M  V30 14662 C 1638.79 -0.278676 -3.59522 0
M  V30 14663 O 1637.89 0.736864 -4.05764 0
M  V30 14664 H 1637.24 -0.128243 -0.651498 0
M  V30 14665 H 1639.77 -0.988721 -1.79124 0
M  V30 14666 H 1639.78 -0.119765 -4.07824 0
M  V30 14667 H 1638.45 -1.2662 -3.96157 0
M  V30 14668 H 1637.03 0.544869 -3.68898 0
M  V30 14669 N 1639.21 1.50354 -0.472382 0
M  V30 14670 C 1640.44 2.07238 0.0820787 0
M  V30 14671 C 1640.86 1.3338 1.32632 0
M  V30 14672 O 1640.22 0.381857 1.77233 0
M  V30 14673 C 1640.27 3.58919 0.347746 0
M  V30 14674 O 1639.37 3.86888 1.42799 0
M  V30 14675 H 1638.71 0.663862 -0.0135544 0
M  V30 14676 H 1641.24 1.93533 -0.663795 0
M  V30 14677 H 1641.25 4.03743 0.587855 0
M  V30 14678 H 1639.93 4.12093 -0.56147 0
M  V30 14679 H 1638.51 3.53901 1.17509 0
M  V30 14680 N 1640.69 0.205039 1.56261 0
M  V30 14681 C 1641.62 -0.743854 2.16794 0
M  V30 14682 C 1642.64 -1.16959 1.13245 0
M  V30 14683 O 1643.83 -1.1036 1.40296 0
M  V30 14684 C 1640.93 -2.01717 2.7233 0
M  V30 14685 C 1640.1 -1.74965 4.00882 0
M  V30 14686 C 1639.16 -2.86841 4.41145 0
M  V30 14687 O 1638.18 -2.5602 5.08372 0
M  V30 14688 N 1639.39 -4.15425 4.05466 0
M  V30 14689 H 1642.15 -0.226145 2.98846 0
M  V30 14690 H 1639.71 0.0234276 1.61883 0
M  V30 14691 H 1641.7 -2.7572 2.96244 0
M  V30 14692 H 1640.27 -2.44582 1.94675 0
M  V30 14693 H 1639.49 -0.846903 3.84995 0
M  V30 14694 H 1640.78 -1.54501 4.84775 0
M  V30 14695 H 1640.18 -4.43314 3.5141 0
M  V30 14696 H 1638.74 -4.86023 4.3431 0
M  V30 14697 N 1642.17 -1.57451 -0.0684915 0
M  V30 14698 C 1643.39 -1.92025 -0.78366 0
M  V30 14699 C 1643.82 -0.801743 -1.70158 0
M  V30 14700 O 1643.18 0.245227 -1.79634 0
M  V30 14701 C 1643.23 -3.25563 -1.55051 0
M  V30 14702 O 1642.33 -3.15029 -2.6614 0
M  V30 14703 H 1641.67 -0.628714 -0.213576 0
M  V30 14704 H 1644.2 -2.04569 -0.0357474 0
M  V30 14705 H 1644.21 -3.59516 -1.92905 0
M  V30 14706 H 1642.89 -4.06547 -0.87704 0
M  V30 14707 H 1641.46 -2.9264 -2.31119 0
M  V30 14708 N 1643.65 0.339955 -1.5389 0
M  V30 14709 C 1644.87 1.10417 -1.75564 0
M  V30 14710 C 1645.3 1.81466 -0.495156 0
M  V30 14711 O 1644.66 1.72679 0.552415 0
M  V30 14712 C 1644.7 2.09056 -2.93816 0
M  V30 14713 O 1643.81 3.16645 -2.64215 0
M  V30 14714 H 1643.15 0.319164 -0.582263 0
M  V30 14715 H 1645.68 0.389251 -2.00863 0
M  V30 14716 H 1645.69 2.52215 -3.20705 0
M  V30 14717 H 1644.36 1.56741 -3.85234 0
M  V30 14718 H 1642.94 2.78278 -2.48225 0
M  V30 14719 N 1645.13 1.45684 0.601159 0
M  V30 14720 C 1646.37 1.4974 1.35729 0
M  V30 14721 C 1646.69 0.143072 1.94474 0
M  V30 14722 O 1645.96 -0.82832 1.77527 0
M  V30 14723 H 1644.54 0.551455 0.503892 0
M  V30 14724 H 1647.21 1.81685 0.705443 0
M  V30 14725 H 1646.3 2.23982 2.17344 0
M  V30 14726 N 1646.6 -0.84422 1.33082 0
M  V30 14727 C 1647.83 -1.62896 1.27076 0
M  V30 14728 C 1648.24 -1.88509 -0.161583 0
M  V30 14729 O 1647.58 -1.46184 -1.11247 0
M  V30 14730 C 1647.65 -3.00611 1.97163 0
M  V30 14731 C 1647.31 -2.97993 3.46481 0
M  V30 14732 C 1648.31 -2.74092 4.4178 0
M  V30 14733 C 1645.99 -3.18299 3.88576 0
M  V30 14734 C 1647.99 -2.70515 5.77148 0
M  V30 14735 C 1645.67 -3.14348 5.2405 0
M  V30 14736 C 1646.67 -2.90486 6.18148 0
M  V30 14737 O 1646.36 -2.86429 7.51142 0
M  V30 14738 H 1646.09 -0.513756 0.439353 0
M  V30 14739 H 1648.65 -1.06009 1.7593 0
M  V30 14740 H 1646.88 -3.5933 1.42893 0
M  V30 14741 H 1648.56 -3.61428 1.84728 0
M  V30 14742 H 1649.33 -2.58161 4.10582 0
M  V30 14743 H 1645.21 -3.35893 3.15748 0
M  V30 14744 H 1648.75 -2.5181 6.50567 0
M  V30 14745 H 1644.65 -3.29826 5.54874 0
M  V30 14746 H 1645.42 -3.02309 7.60626 0
M  V30 14747 N 1648.08 -1.16463 -1.0618 0
M  V30 14748 C 1649.33 -0.944975 -1.78647 0
M  V30 14749 C 1649.65 0.528486 -1.87702 0
M  V30 14750 O 1648.92 1.38391 -1.38653 0
M  V30 14751 H 1647.5 -0.346637 -0.661704 0
M  V30 14752 H 1650.16 -1.46752 -1.28257 0
M  V30 14753 H 1649.26 -1.36469 -2.80683 0
M  V30 14754 N 1649.56 1.24734 -0.963288 0
M  V30 14755 C 1650.98 1.44897 -0.669103 0
M  V30 14756 C 1651.18 1.86185 0.770541 0
M  V30 14757 O 1650.23 1.99721 1.54492 0
M  V30 14758 C 1651.54 2.51425 -1.64943 0
M  V30 14759 C 1653.09 2.65256 -1.66157 0
M  V30 14760 C 1653.57 3.74977 -2.62976 0
M  V30 14761 N 1655.06 3.82399 -2.61391 0
M  V30 14762 C 1655.79 4.66809 -3.32981 0
M  V30 14763 N 1655.29 5.55441 -4.14073 0
M  V30 14764 N 1657.08 4.60851 -3.21827 0
M  V30 14765 H 1649.23 0.962292 -1.89351 0
M  V30 14766 H 1651.5 0.4843 -0.814958 0
M  V30 14767 H 1651.2 2.27965 -2.67815 0
M  V30 14768 H 1651.08 3.49503 -1.41872 0
M  V30 14769 H 1653.46 2.88077 -0.639978 0
M  V30 14770 H 1653.54 1.67551 -1.93288 0
M  V30 14771 H 1653.19 3.52907 -3.65266 0
M  V30 14772 H 1653.12 4.72187 -2.33125 0
M  V30 14773 H 1655.61 3.19048 -2.02527 0
M  V30 14774 H 1655.92 6.16798 -4.65597 0
M  V30 14775 H 1654.27 5.55121 -4.18169 0
M  V30 14776 H 1657.46 3.90621 -2.5794 0
M  V30 14777 H 1657.63 5.26411 -3.77883 0
M  V30 14778 N 1651.04 0.732878 1.39523 0
M  V30 14779 C 1651.97 0.0519358 2.29141 0
M  V30 14780 C 1652.98 -0.705687 1.4671 0
M  V30 14781 O 1654.17 -0.550202 1.69809 0
M  V30 14782 C 1651.27 -0.950691 3.25292 0
M  V30 14783 C 1650.44 -0.255028 4.36656 0
M  V30 14784 C 1649.5 -1.16546 5.13131 0
M  V30 14785 O 1648.53 -0.643742 5.65548 0
M  V30 14786 N 1649.73 -2.49534 5.24131 0
M  V30 14787 H 1652.5 0.8215 2.88221 0
M  V30 14788 H 1650.06 0.581924 1.5108 0
M  V30 14789 H 1652.05 -1.56232 3.73328 0
M  V30 14790 H 1650.62 -1.62148 2.67258 0
M  V30 14791 H 1649.84 0.537045 3.90525 0
M  V30 14792 H 1651.13 0.227162 5.08293 0
M  V30 14793 H 1650.53 -2.944 4.83058 0
M  V30 14794 H 1649.08 -3.05798 5.75613 0
M  V30 14795 N 1652.52 -1.50101 0.480349 0
M  V30 14796 C 1653.76 -2.01974 -0.0712904 0
M  V30 14797 C 1654.08 -1.36377 -1.39378 0
M  V30 14798 O 1653.35 -0.512162 -1.89087 0
M  V30 14799 H 1651.93 -0.746424 -0.0293362 0
M  V30 14800 H 1654.6 -1.84338 0.632883 0
M  V30 14801 H 1653.69 -3.11351 -0.216057 0
M  V30 14802 N 1653.99 -0.213323 -1.5615 0
M  V30 14803 C 1655.22 0.428746 -2.0292 0
M  V30 14804 C 1655.64 1.53137 -1.09227 0
M  V30 14805 O 1655 1.81128 -0.0789684 0
M  V30 14806 C 1655.05 0.945231 -3.47991 0
M  V30 14807 O 1654.15 2.05709 -3.57432 0
M  V30 14808 H 1653.49 0.0980619 -0.656719 0
M  V30 14809 H 1656.02 -0.329548 -2.01929 0
M  V30 14810 H 1656.03 1.25717 -3.88149 0
M  V30 14811 H 1654.71 0.138161 -4.1567 0
M  V30 14812 H 1653.29 1.75242 -3.29158 0
M  V30 14813 N 1655.47 1.57485 0.0601405 0
M  V30 14814 C 1656.72 1.87445 0.755575 0
M  V30 14815 C 1657.04 0.806915 1.77522 0
M  V30 14816 O 1656.31 -0.163139 1.9522 0
M  V30 14817 H 1654.89 0.691708 0.282044 0
M  V30 14818 H 1657.55 1.94871 0.0334616 0
M  V30 14819 H 1656.65 2.85334 1.26455 0
M  V30 14820 N 1656.95 -0.331789 1.54068 0
M  V30 14821 C 1658.18 -1.09484 1.76148 0
M  V30 14822 C 1658.6 -1.81201 0.504772 0
M  V30 14823 O 1657.96 -1.7297 -0.54325 0
M  V30 14824 C 1658.01 -2.07495 2.94921 0
M  V30 14825 O 1657.11 -3.15239 2.65891 0
M  V30 14826 H 1656.45 -0.316071 0.583948 0
M  V30 14827 H 1658.98 -0.378593 2.01067 0
M  V30 14828 H 1658.99 -2.5051 3.22038 0
M  V30 14829 H 1657.67 -1.54696 3.8606 0
M  V30 14830 H 1656.24 -2.76958 2.49697 0
M  V30 14831 N 1658.43 -1.46001 -0.593424 0
M  V30 14832 C 1659.68 -1.50457 -1.34933 0
M  V30 14833 C 1660 -0.153383 -1.94396 0
M  V30 14834 O 1659.27 0.818894 -1.77963 0
M  V30 14835 H 1657.85 -0.554119 -0.50096 0
M  V30 14836 H 1660.51 -1.82057 -0.695798 0
M  V30 14837 H 1659.61 -2.25131 -2.16154 0
M  V30 14838 N 1659.91 0.83715 -1.33527 0
M  V30 14839 C 1660.84 1.95423 -1.1976 0
M  V30 14840 C 1661.85 1.62295 -0.128147 0
M  V30 14841 O 1663.04 1.74436 -0.378725 0
M  V30 14842 C 1660.14 3.2896 -0.814775 0
M  V30 14843 C 1659.31 3.9021 -1.97623 0
M  V30 14844 C 1658.37 5.02104 -1.5741 0
M  V30 14845 O 1657.4 5.2116 -2.28868 0
M  V30 14846 N 1658.6 5.78511 -0.480081 0
M  V30 14847 H 1661.37 2.0777 -2.15991 0
M  V30 14848 H 1658.93 1.01297 -1.26295 0
M  V30 14849 H 1660.92 4.01243 -0.527823 0
M  V30 14850 H 1659.49 3.12548 0.0569031 0
M  V30 14851 H 1658.71 3.10495 -2.42871 0
M  V30 14852 H 1660 4.27865 -2.75334 0
M  V30 14853 H 1659.39 5.65585 0.114287 0
M  V30 14854 H 1657.95 6.5131 -0.252808 0
M  V30 14855 N 1661.38 1.17024 1.05561 0
M  V30 14856 C 1662.61 0.981293 1.82717 0
M  V30 14857 C 1663.03 -0.465636 1.82246 0
M  V30 14858 O 1662.39 -1.33315 1.22869 0
M  V30 14859 C 1662.44 1.52239 3.26888 0
M  V30 14860 O 1661.54 0.73366 4.05822 0
M  V30 14861 H 1660.89 0.348677 0.565084 0
M  V30 14862 H 1663.42 1.55435 1.33046 0
M  V30 14863 H 1663.43 1.54306 3.77695 0
M  V30 14864 H 1662.1 2.57567 3.26545 0
M  V30 14865 H 1660.68 0.784101 3.64563 0
M  V30 14866 N 1662.86 -1.24221 0.969889 0
M  V30 14867 C 1664.27 -1.74206 0.671494 0
M  V30 14868 C 1664.62 -1.78576 -0.81271 0
M  V30 14869 O 1663.75 -1.41664 -1.63586 0
M  V30 14870 C 1664.34 -3.16371 1.21222 0
M  V30 14871 C 1662.9 -3.63855 0.96368 0
M  V30 14872 C 1662.05 -2.42429 1.34623 0
M  V30 14873 H 1665 -1.09893 1.14496 0
M  V30 14874 H 1665.02 -3.7606 0.579552 0
M  V30 14875 H 1664.53 -3.13159 2.29245 0
M  V30 14876 H 1662.64 -3.72463 -0.100931 0
M  V30 14877 H 1662.75 -4.51207 1.61087 0
M  V30 14878 H 1661.11 -2.42952 0.764624 0
M  V30 14879 H 1661.9 -2.41896 2.436 0
M  V30 14880 N 1664.34 -0.740267 -1.39132 0
M  V30 14881 C 1665.59 -0.289949 -2.00009 0
M  V30 14882 C 1665.91 1.12831 -1.59042 0
M  V30 14883 O 1665.18 1.76926 -0.841076 0
M  V30 14884 H 1663.76 -0.104213 -0.739695 0
M  V30 14885 H 1666.42 -0.951398 -1.70101 0
M  V30 14886 H 1665.52 -0.342509 -3.10215 0
M  V30 14887 N 1665.82 1.49844 -0.488302 0
M  V30 14888 C 1666.77 2.25802 0.315853 0
M  V30 14889 C 1667.75 1.30108 0.946606 0
M  V30 14890 O 1668.94 1.54908 0.856306 0
M  V30 14891 C 1666.07 3.14024 1.38723 0
M  V30 14892 C 1665.16 4.17174 0.763348 0
M  V30 14893 N 1665.55 5.05642 -0.126544 0
M  V30 14894 C 1663.85 4.34053 1.02537 0
M  V30 14895 C 1664.55 5.79696 -0.482379 0
M  V30 14896 N 1663.53 5.43402 0.146639 0
M  V30 14897 H 1667.33 2.91569 -0.369397 0
M  V30 14898 H 1664.84 1.59538 -0.30355 0
M  V30 14899 H 1666.84 3.67061 1.97666 0
M  V30 14900 H 1665.5 2.49807 2.07429 0
M  V30 14901 H 1666.51 5.15514 -0.49653 0
M  V30 14902 H 1663.19 3.81048 1.70613 0
M  V30 14903 H 1664.58 6.60921 -1.20965 0
M  V30 14904 N 1667.3 0.221601 1.56034 0
M  V30 14905 C 1668.54 -0.409277 1.97912 0
M  V30 14906 C 1668.87 -1.60291 1.11049 0
M  V30 14907 O 1668.14 -1.95 0.187529 0
M  V30 14908 H 1666.72 -0.154201 0.730911 0
M  V30 14909 H 1669.38 0.314508 1.92346 0
M  V30 14910 H 1668.47 -0.73557 3.03308 0
M  V30 14911 N 1668.77 -1.57515 -0.0517878 0
M  V30 14912 C 1669.71 -2.01812 -1.08649 0
M  V30 14913 C 1670.72 -0.92719 -1.33817 0
M  V30 14914 O 1671.91 -1.20483 -1.31705 0
M  V30 14915 C 1669.01 -2.35903 -2.43316 0
M  V30 14916 C 1668.18 -3.67095 -2.37824 0
M  V30 14917 C 1667.24 -3.8863 -3.54758 0
M  V30 14918 O 1666.27 -4.59974 -3.3528 0
M  V30 14919 N 1667.47 -3.32516 -4.75829 0
M  V30 14920 H 1670.23 -2.91191 -0.709094 0
M  V30 14921 H 1667.79 -1.60109 -0.240125 0
M  V30 14922 H 1669.79 -2.47466 -3.20223 0
M  V30 14923 H 1668.36 -1.52312 -2.72983 0
M  V30 14924 H 1667.58 -3.66099 -1.46168 0
M  V30 14925 H 1668.86 -4.53199 -2.31275 0
M  V30 14926 H 1668.26 -2.74645 -4.94557 0
M  V30 14927 H 1666.82 -3.49496 -5.50178 0
M  V30 14928 N 1670.25 0.323614 -1.54242 0
M  V30 14929 C 1671.67 0.66795 -1.4495 0
M  V30 14930 C 1671.87 1.91649 -0.622338 0
M  V30 14931 O 1670.93 2.52209 -0.121119 0
M  V30 14932 C 1672.24 0.842006 -2.88671 0
M  V30 14933 C 1673.79 0.93935 -2.98572 0
M  V30 14934 C 1674.26 1.14557 -4.43442 0
M  V30 14935 N 1675.75 1.21231 -4.47054 0
M  V30 14936 C 1676.49 1.38976 -5.56303 0
M  V30 14937 N 1675.98 1.53764 -6.75521 0
M  V30 14938 N 1677.78 1.41684 -5.4395 0
M  V30 14939 H 1669.93 -0.497017 -2.06503 0
M  V30 14940 H 1672.19 -0.160563 -0.934304 0
M  V30 14941 H 1671.9 -0.00418568 -3.517 0
M  V30 14942 H 1671.77 1.73785 -3.34782 0
M  V30 14943 H 1674.16 1.77605 -2.35671 0
M  V30 14944 H 1674.24 0.0199775 -2.55792 0
M  V30 14945 H 1673.88 0.313732 -5.0693 0
M  V30 14946 H 1673.81 2.07882 -4.83831 0
M  V30 14947 H 1676.3 1.11247 -3.61154 0
M  V30 14948 H 1676.62 1.66996 -7.54541 0
M  V30 14949 H 1674.96 1.50862 -6.78429 0
M  V30 14950 H 1678.15 1.29726 -4.49765 0
M  V30 14951 H 1678.33 1.5517 -6.29147 0
M  V30 14952 N 1671.73 1.46313 0.585673 0
M  V30 14953 C 1672.98 1.51171 1.34134 0
M  V30 14954 C 1673.3 0.163691 1.94312 0
M  V30 14955 O 1672.57 -0.809444 1.78395 0
M  V30 14956 H 1671.15 0.556768 0.498014 0
M  V30 14957 H 1673.81 1.82423 0.686133 0
M  V30 14958 H 1672.91 2.26274 2.14957 0
M  V30 14959 N 1673.21 -0.830057 1.33969 0
M  V30 14960 C 1674.43 -1.62294 1.29133 0
M  V30 14961 C 1674.86 -1.87627 -0.133253 0
M  V30 14962 O 1674.22 -1.44669 -1.09272 0
M  V30 14963 C 1674.27 -2.94508 2.0808 0
M  V30 14964 O 1673.37 -3.86239 1.44544 0
M  V30 14965 H 1672.71 -0.493865 0.443839 0
M  V30 14966 H 1675.24 -1.03202 1.76665 0
M  V30 14967 H 1675.25 -3.44133 2.19173 0
M  V30 14968 H 1673.93 -2.75392 3.1166 0
M  V30 14969 H 1672.5 -3.44743 1.42151 0
M  V30 14970 N 1674.69 -1.17582 -1.04939 0
M  V30 14971 C 1675.94 -0.96387 -1.77634 0
M  V30 14972 C 1676.26 0.508548 -1.88252 0
M  V30 14973 O 1675.53 1.36913 -1.40113 0
M  V30 14974 H 1674.11 -0.353636 -0.65799 0
M  V30 14975 H 1676.77 -1.48104 -1.26693 0
M  V30 14976 H 1675.86 -1.39438 -2.79219 0
M  V30 14977 N 1676.17 1.23705 -0.976463 0
M  V30 14978 C 1677.39 1.96595 -0.660697 0
M  V30 14979 C 1677.82 1.71845 0.764916 0
M  V30 14980 O 1677.17 0.987506 1.52046 0
M  V30 14981 C 1677.22 3.47803 -0.95214 0
M  V30 14982 O 1676.33 4.12378 -0.0421126 0
M  V30 14983 H 1675.67 0.615591 -0.248886 0
M  V30 14984 H 1678.2 1.57247 -1.30899 0
M  V30 14985 H 1678.21 3.98236 -0.887238 0
M  V30 14986 H 1676.88 3.65144 -1.99105 0
M  V30 14987 H 1675.46 3.72552 -0.161087 0
M  V30 14988 N 1677.64 0.747635 1.38738 0
M  V30 14989 C 1679.06 0.424577 1.53849 0
M  V30 14990 C 1679.26 -1.06304 1.71177 0
M  V30 14991 O 1678.32 -1.84912 1.71941 0
M  V30 14992 C 1679.63 1.21863 2.749 0
M  V30 14993 C 1681.18 1.20811 2.88745 0
M  V30 14994 C 1681.65 1.985 4.12749 0
M  V30 14995 N 1683.14 1.9573 4.19814 0
M  V30 14996 C 1683.88 2.52641 5.14743 0
M  V30 14997 N 1683.37 3.18241 6.15382 0
M  V30 14998 N 1685.17 2.42604 5.0705 0
M  V30 14999 H 1677.32 1.71182 1.25739 0
M  V30 15000 H 1679.58 0.725358 0.610376 0
M  V30 15001 H 1679.29 2.27181 2.6848 0
M  V30 15002 H 1679.16 0.831509 3.67921 0
M  V30 15003 H 1681.55 0.163013 2.94649 0
M  V30 15004 H 1681.63 1.6347 1.96752 0
M  V30 15005 H 1681.27 3.03017 4.07606 0
M  V30 15006 H 1681.2 1.53239 5.03811 0
M  V30 15007 H 1683.69 1.4795 3.47734 0
M  V30 15008 H 1684.01 3.59101 6.843 0
M  V30 15009 H 1682.35 3.22334 6.15732 0
M  V30 15010 H 1685.54 1.90987 4.27366 0
M  V30 15011 H 1685.72 2.87253 5.80852 0
M  V30 15012 N 1679.12 -1.49583 0.496242 0
M  V30 15013 C 1680.05 -2.26936 -0.321366 0
M  V30 15014 C 1681.07 -1.33282 -0.934863 0
M  V30 15015 O 1682.26 -1.58602 -0.819008 0
M  V30 15016 C 1679.36 -3.05503 -1.467 0
M  V30 15017 C 1678.53 -4.26697 -0.961687 0
M  V30 15018 C 1677.59 -4.8735 -1.98436 0
M  V30 15019 O 1676.61 -5.47553 -1.55482 0
M  V30 15020 N 1677.82 -4.76577 -3.31443 0
M  V30 15021 H 1680.58 -2.97744 0.341884 0
M  V30 15022 H 1678.14 -1.58532 0.328504 0
M  V30 15023 H 1680.13 -3.42954 -2.1486 0
M  V30 15024 H 1678.7 -2.37334 -2.03449 0
M  V30 15025 H 1677.92 -3.9406 -0.105143 0
M  V30 15026 H 1679.21 -5.05221 -0.602405 0
M  V30 15027 H 1678.61 -4.28756 -3.69032 0
M  V30 15028 H 1677.17 -5.18226 -3.95329 0
M  V30 15029 N 1680.6 -0.229873 -1.55915 0
M  V30 15030 C 1681.82 0.4072 -2.03363 0
M  V30 15031 C 1682.25 1.5197 -1.10845 0
M  V30 15032 O 1681.61 1.81034 -0.098175 0
M  V30 15033 C 1681.66 0.908268 -3.48974 0
M  V30 15034 O 1680.76 2.01907 -3.59593 0
M  V30 15035 H 1680.1 0.091091 -0.657722 0
M  V30 15036 H 1682.63 -0.350947 -2.01568 0
M  V30 15037 H 1682.64 1.21593 -3.8946 0
M  V30 15038 H 1681.32 0.0940655 -4.15794 0
M  V30 15039 H 1679.89 1.71741 -3.30998 0
M  V30 15040 N 1682.08 1.5754 0.0434337 0
M  V30 15041 C 1683.49 1.77071 0.591836 0
M  V30 15042 C 1683.84 0.85911 1.76391 0
M  V30 15043 O 1682.96 0.0502725 2.16342 0
M  V30 15044 C 1683.56 3.21111 1.08041 0
M  V30 15045 C 1682.12 3.41889 1.57445 0
M  V30 15046 C 1681.27 2.72641 0.506166 0
M  V30 15047 H 1684.22 1.57644 -0.182792 0
M  V30 15048 H 1684.24 3.26834 1.94833 0
M  V30 15049 H 1683.75 3.87435 0.227153 0
M  V30 15050 H 1681.85 2.80721 2.45003 0
M  V30 15051 H 1681.96 4.50452 1.63185 0
M  V30 15052 H 1680.33 2.36002 0.957878 0
M  V30 15053 H 1681.11 3.41638 -0.337389 0
M  V30 15054 N 1683.56 -0.31543 1.54411 0
M  V30 15055 C 1684.78 -1.0761 1.77299 0
M  V30 15056 C 1685.21 -1.80655 0.523963 0
M  V30 15057 O 1684.56 -1.73536 -0.524874 0
M  V30 15058 C 1684.61 -2.04355 2.97105 0
M  V30 15059 O 1683.72 -3.12401 2.69219 0
M  V30 15060 H 1683.06 -0.30986 0.587267 0
M  V30 15061 H 1685.59 -0.357246 2.01457 0
M  V30 15062 H 1685.6 -2.47081 3.24677 0
M  V30 15063 H 1684.27 -1.50592 3.87679 0
M  V30 15064 H 1682.85 -2.74294 2.52621 0
M  V30 15065 N 1685.03 -1.46622 -0.577906 0
M  V30 15066 C 1686.26 -1.55534 -1.35988 0
M  V30 15067 C 1686.67 -0.197065 -1.88171 0
M  V30 15068 O 1686.02 0.816609 -1.64551 0
M  V30 15069 C 1686.08 -2.5035 -2.58002 0
M  V30 15070 C 1685.74 -3.96491 -2.27253 0
M  V30 15071 C 1686.74 -4.85567 -1.85797 0
M  V30 15072 C 1684.42 -4.41662 -2.39249 0
M  V30 15073 C 1686.42 -6.17828 -1.56738 0
M  V30 15074 C 1684.1 -5.73956 -2.09803 0
M  V30 15075 C 1685.1 -6.6186 -1.68613 0
M  V30 15076 O 1684.79 -7.91698 -1.3953 0
M  V30 15077 H 1684.52 -0.528412 -0.421612 0
M  V30 15078 H 1687.08 -1.92774 -0.709038 0
M  V30 15079 H 1685.31 -2.08137 -3.25908 0
M  V30 15080 H 1687 -2.49616 -3.20073 0
M  V30 15081 H 1687.76 -4.51924 -1.76039 0
M  V30 15082 H 1683.64 -3.73462 -2.70272 0
M  V30 15083 H 1687.18 -6.86398 -1.24514 0
M  V30 15084 H 1683.08 -6.07147 -2.19187 0
M  V30 15085 H 1683.85 -8.04009 -1.53335 0
M  V30 15086 N 1686.51 0.822941 -1.34408 0
M  V30 15087 C 1687.76 1.57604 -1.26513 0
M  V30 15088 C 1688.08 1.94303 0.164769 0
M  V30 15089 O 1687.35 1.62278 1.09738 0
M  V30 15090 H 1685.93 0.584399 -0.465282 0
M  V30 15091 H 1688.59 0.982582 -1.68319 0
M  V30 15092 H 1687.69 2.49886 -1.86986 0
M  V30 15093 N 1687.99 1.18137 1.04314 0
M  V30 15094 C 1689.41 0.930523 1.29667 0
M  V30 15095 C 1689.61 -0.405336 1.97381 0
M  V30 15096 O 1688.66 -1.14025 2.25288 0
M  V30 15097 C 1689.98 2.09427 2.1578 0
M  V30 15098 C 1691.52 2.13229 2.29134 0
M  V30 15099 C 1692 3.29014 3.18612 0
M  V30 15100 N 1693.49 3.28859 3.26199 0
M  V30 15101 C 1694.22 4.15092 3.95583 0
M  V30 15102 N 1693.72 5.11453 4.67319 0
M  V30 15103 N 1695.51 4.03014 3.91837 0
M  V30 15104 H 1687.66 2.04108 0.587669 0
M  V30 15105 H 1689.93 0.89171 0.321804 0
M  V30 15106 H 1689.63 3.06023 1.73328 0
M  V30 15107 H 1689.51 2.0528 3.16449 0
M  V30 15108 H 1691.89 1.17212 2.70823 0
M  V30 15109 H 1691.98 2.21435 1.28064 0
M  V30 15110 H 1691.62 4.25302 2.77635 0
M  V30 15111 H 1691.55 3.18045 4.19708 0
M  V30 15112 H 1694.04 2.59097 2.75095 0
M  V30 15113 H 1694.35 5.7363 5.1785 0
M  V30 15114 H 1692.7 5.15415 4.66232 0
M  V30 15115 H 1695.89 3.27021 3.34925 0
M  V30 15116 H 1696.06 4.70435 4.4564 0
M  V30 15117 N 1689.47 -1.23186 0.98301 0
M  V30 15118 C 1690.42 -2.22529 0.496484 0
M  V30 15119 C 1691.4 -1.5505 -0.429923 0
M  V30 15120 O 1692.59 -1.75104 -0.258352 0
M  V30 15121 C 1689.72 -3.42733 -0.197237 0
M  V30 15122 C 1688.81 -4.17435 0.748894 0
M  V30 15123 N 1689.2 -4.69056 1.89261 0
M  V30 15124 C 1687.5 -4.42435 0.562753 0
M  V30 15125 C 1688.2 -5.25918 2.48566 0
M  V30 15126 N 1687.18 -5.14001 1.76929 0
M  V30 15127 H 1690.98 -2.60072 1.36893 0
M  V30 15128 H 1688.49 -1.38745 0.844014 0
M  V30 15129 H 1690.49 -4.1308 -0.56311 0
M  V30 15130 H 1689.15 -3.06705 -1.06593 0
M  V30 15131 H 1690.16 -4.6532 2.27372 0
M  V30 15132 H 1686.84 -4.16685 -0.260705 0
M  V30 15133 H 1688.23 -5.76462 3.45168 0
M  V30 15134 N 1690.95 -0.754982 -1.38339 0
M  V30 15135 C 1692.19 -0.311146 -1.9969 0
M  V30 15136 C 1692.52 1.11138 -1.60229 0
M  V30 15137 O 1691.79 1.76024 -0.859794 0
M  V30 15138 H 1690.37 -0.112052 -0.738548 0
M  V30 15139 H 1693.03 -0.969386 -1.69083 0
M  V30 15140 H 1692.12 -0.375392 -3.09834 0
M  V30 15141 N 1692.42 1.49318 -0.504168 0
M  V30 15142 C 1693.65 2.07365 0.038102 0
M  V30 15143 C 1694.07 1.36164 1.29773 0
M  V30 15144 O 1693.43 0.419365 1.76383 0
M  V30 15145 C 1693.48 3.59576 0.271535 0
M  V30 15146 O 1692.58 3.8983 1.34561 0
M  V30 15147 H 1691.93 0.663425 -0.0276328 0
M  V30 15148 H 1694.46 1.92081 -0.704696 0
M  V30 15149 H 1694.47 4.04899 0.502083 0
M  V30 15150 H 1693.14 4.10809 -0.648754 0
M  V30 15151 H 1691.72 3.56314 1.09976 0
M  V30 15152 N 1693.9 0.238138 1.5579 0
M  V30 15153 C 1695.15 -0.388263 1.98335 0
M  V30 15154 C 1695.47 -1.59104 1.12743 0
M  V30 15155 O 1694.74 -1.9479 0.208201 0
M  V30 15156 H 1693.32 -0.14644 0.732505 0
M  V30 15157 H 1695.98 0.334891 1.92001 0
M  V30 15158 H 1695.08 -0.703359 3.04071 0
M  V30 15159 N 1695.38 -1.57561 -0.0350783 0
M  V30 15160 C 1696.61 -1.93644 -0.742753 0
M  V30 15161 C 1697.03 -0.837655 -1.68419 0
M  V30 15162 O 1696.39 0.207069 -1.80114 0
M  V30 15163 C 1696.44 -3.28779 -1.48111 0
M  V30 15164 O 1695.54 -3.20604 -2.59398 0
M  V30 15165 H 1694.88 -0.633103 -0.200192 0
M  V30 15166 H 1697.41 -2.04599 0.00765271 0
M  V30 15167 H 1697.42 -3.63527 -1.85236 0
M  V30 15168 H 1696.1 -4.08316 -0.790608 0
M  V30 15169 H 1694.67 -2.97477 -2.2486 0
M  V30 15170 N 1696.86 0.307236 -1.54576 0
M  V30 15171 C 1698.11 1.04115 -1.73218 0
M  V30 15172 C 1698.43 1.88008 -0.517482 0
M  V30 15173 O 1697.7 1.90219 0.468336 0
M  V30 15174 H 1696.28 0.387388 -0.638701 0
M  V30 15175 H 1698.94 0.339727 -1.91916 0
M  V30 15176 H 1698.04 1.69784 -2.61877 0
M  V30 15177 N 1698.34 1.46926 0.570122 0
M  V30 15178 C 1699.75 1.32159 0.894766 0
M  V30 15179 C 1699.95 0.302411 1.99218 0
M  V30 15180 O 1699.01 -0.290615 2.50822 0
M  V30 15181 C 1700.32 2.71136 1.30021 0
M  V30 15182 C 1701.87 2.79323 1.41236 0
M  V30 15183 C 1702.34 4.18911 1.85142 0
M  V30 15184 N 1703.84 4.2139 1.92314 0
M  V30 15185 C 1704.57 5.263 2.27588 0
M  V30 15186 N 1704.07 6.41526 2.61565 0
M  V30 15187 N 1705.86 5.13671 2.28251 0
M  V30 15188 H 1698.01 2.11837 -0.154603 0
M  V30 15189 H 1700.27 0.947978 -0.00649658 0
M  V30 15190 H 1699.98 3.47087 0.567775 0
M  V30 15191 H 1699.85 3.02066 2.25911 0
M  V30 15192 H 1702.24 2.03653 2.13564 0
M  V30 15193 H 1702.32 2.52063 0.43566 0
M  V30 15194 H 1701.97 4.95081 1.13389 0
M  V30 15195 H 1701.9 4.43587 2.83792 0
M  V30 15196 H 1704.39 3.38257 1.68495 0
M  V30 15197 H 1704.7 7.17343 2.8747 0
M  V30 15198 H 1703.04 6.44867 2.59175 0
M  V30 15199 H 1706.24 4.22684 2.01137 0
M  V30 15200 H 1706.41 5.95541 2.55412 0
M  V30 15201 N 1699.82 -0.815801 1.34842 0
M  V30 15202 C 1701.04 -1.60915 1.30848 0
M  V30 15203 C 1701.47 -1.87758 -0.113345 0
M  V30 15204 O 1700.82 -1.4582 -1.07732 0
M  V30 15205 C 1700.87 -2.92284 2.11192 0
M  V30 15206 O 1699.98 -3.84685 1.48632 0
M  V30 15207 H 1699.32 -0.48913 0.449052 0
M  V30 15208 H 1701.85 -1.01322 1.7775 0
M  V30 15209 H 1701.86 -3.41789 2.2281 0
M  V30 15210 H 1700.53 -2.72071 3.14563 0
M  V30 15211 H 1699.11 -3.43215 1.458 0
M  V30 15212 N 1701.29 -1.18689 -1.03686 0
M  V30 15213 C 1702.52 -1.01024 -1.81132 0
M  V30 15214 C 1702.94 0.436584 -1.82963 0
M  V30 15215 O 1702.3 1.31343 -1.24975 0
M  V30 15216 C 1702.35 -1.5742 -3.24424 0
M  V30 15217 O 1701.45 -0.79813 -4.04603 0
M  V30 15218 H 1700.79 -0.357623 -0.559465 0
M  V30 15219 H 1703.32 -1.57532 -1.30556 0
M  V30 15220 H 1703.33 -1.60295 -3.75193 0
M  V30 15221 H 1702.01 -2.6273 -3.22406 0
M  V30 15222 H 1700.59 -0.842 -3.6327 0
M  V30 15223 N 1702.77 1.22662 -0.989529 0
M  V30 15224 C 1704 1.95883 -0.681511 0
M  V30 15225 C 1704.42 1.72646 0.746646 0
M  V30 15226 O 1703.78 1.00358 1.5099 0
M  V30 15227 C 1703.83 3.46773 -0.988975 0
M  V30 15228 O 1702.93 4.12311 -0.0858485 0
M  V30 15229 H 1702.27 0.612916 -0.255401 0
M  V30 15230 H 1704.8 1.5585 -1.32559 0
M  V30 15231 H 1704.81 3.97273 -0.929426 0
M  V30 15232 H 1703.49 3.63011 -2.02967 0
M  V30 15233 H 1702.06 3.7236 -0.200592 0
M  V30 15234 N 1704.25 0.762308 1.37937 0
M  V30 15235 C 1705.47 0.332217 2.04722 0
M  V30 15236 C 1705.9 -1.03417 1.57119 0
M  V30 15237 O 1705.26 -1.6608 0.727117 0
M  V30 15238 C 1705.31 0.373899 3.58656 0
M  V30 15239 O 1704.41 -0.629024 4.07575 0
M  V30 15240 H 1703.75 0.145471 0.647869 0
M  V30 15241 H 1706.28 1.03586 1.7644 0
M  V30 15242 H 1706.29 0.22785 4.07363 0
M  V30 15243 H 1704.97 1.37079 3.92661 0
M  V30 15244 H 1703.54 -0.446871 3.70213 0
M  V30 15245 N 1705.73 -1.49049 0.51208 0
M  V30 15246 C 1706.98 -2.0208 -0.0284326 0
M  V30 15247 C 1707.3 -1.39303 -1.36454 0
M  V30 15248 O 1706.57 -0.552155 -1.87958 0
M  V30 15249 H 1705.15 -0.746878 -0.0134968 0
M  V30 15250 H 1707.81 -1.82954 0.671842 0
M  V30 15251 H 1706.9 -3.11739 -0.149966 0
M  V30 15252 N 1707.21 -0.246397 -1.55662 0
M  V30 15253 C 1708.14 0.686113 -2.1869 0
M  V30 15254 C 1709.15 1.13915 -1.16306 0
M  V30 15255 O 1710.34 1.06601 -1.43173 0
M  V30 15256 C 1707.44 1.94426 -2.77582 0
M  V30 15257 C 1706.61 1.64275 -4.0538 0
M  V30 15258 C 1705.67 2.75044 -4.48595 0
M  V30 15259 O 1704.7 2.42451 -5.14982 0
M  V30 15260 N 1705.9 4.04528 -4.16338 0
M  V30 15261 H 1708.66 0.146832 -2.9934 0
M  V30 15262 H 1706.23 -0.0663398 -1.61764 0
M  V30 15263 H 1708.22 2.67768 -3.0345 0
M  V30 15264 H 1706.79 2.39334 -2.01091 0
M  V30 15265 H 1706.01 0.744531 -3.87105 0
M  V30 15266 H 1707.3 1.41594 -4.88701 0
M  V30 15267 H 1706.69 4.33841 -3.6304 0
M  V30 15268 H 1705.25 4.74337 -4.47043 0
M  V30 15269 N 1708.68 1.57577 0.026722 0
M  V30 15270 C 1709.63 2.03179 1.03452 0
M  V30 15271 C 1710.62 0.921533 1.31896 0
M  V30 15272 O 1711.81 1.18542 1.31442 0
M  V30 15273 C 1708.94 2.51666 2.33493 0
M  V30 15274 C 1708.02 3.69517 2.08129 0
M  V30 15275 N 1708.42 4.82158 1.52832 0
M  V30 15276 C 1706.71 3.76936 2.38402 0
M  V30 15277 C 1707.41 5.63766 1.43327 0
M  V30 15278 N 1706.39 5.08953 1.90965 0
M  V30 15279 H 1710.19 2.87689 0.601036 0
M  V30 15280 H 1707.71 1.6072 0.232979 0
M  V30 15281 H 1709.7 2.82597 3.06503 0
M  V30 15282 H 1708.36 1.68564 2.77518 0
M  V30 15283 H 1709.37 5.0355 1.21071 0
M  V30 15284 H 1706.05 3.04637 2.85486 0
M  V30 15285 H 1707.44 6.64259 1.01043 0
M  V30 15286 N 1710.16 -0.299034 1.54737 0
M  V30 15287 C 1711.41 -1.03195 1.73767 0
M  V30 15288 C 1711.73 -1.87731 0.527445 0
M  V30 15289 O 1711 -1.90465 -0.458242 0
M  V30 15290 H 1709.58 -0.383996 0.640747 0
M  V30 15291 H 1712.24 -0.329544 1.92094 0
M  V30 15292 H 1711.34 -1.68393 2.62774 0
M  V30 15293 N 1711.64 -1.47227 -0.562322 0
M  V30 15294 C 1712.86 -1.5744 -1.35008 0
M  V30 15295 C 1713.29 -0.223223 -1.86771 0
M  V30 15296 O 1712.65 0.800078 -1.62691 0
M  V30 15297 C 1712.7 -2.5992 -2.49948 0
M  V30 15298 O 1711.8 -2.14836 -3.52022 0
M  V30 15299 H 1711.14 -0.529064 -0.401232 0
M  V30 15300 H 1713.67 -1.92966 -0.680084 0
M  V30 15301 H 1713.68 -2.80177 -2.96588 0
M  V30 15302 H 1712.36 -3.58031 -2.11629 0
M  V30 15303 H 1710.93 -2.04655 -3.11722 0
M  V30 15304 N 1713.12 0.808639 -1.35273 0
M  V30 15305 C 1714.37 1.56253 -1.28177 0
M  V30 15306 C 1714.69 1.94466 0.144151 0
M  V30 15307 O 1713.96 1.63433 1.08011 0
M  V30 15308 H 1712.54 0.579431 -0.471454 0
M  V30 15309 H 1715.2 0.964675 -1.69352 0
M  V30 15310 H 1714.29 2.47888 -1.89625 0
M  V30 15311 N 1714.6 1.19237 1.03055 0
M  V30 15312 C 1715.53 0.95226 2.132 0
M  V30 15313 C 1716.51 -0.113771 1.69719 0
M  V30 15314 O 1717.69 0.0409057 1.94157 0
M  V30 15315 C 1714.82 0.488296 3.4385 0
M  V30 15316 C 1713.78 1.49597 4.01005 0
M  V30 15317 C 1713.1 0.889148 5.27255 0
M  V30 15318 C 1714.4 2.87571 4.36005 0
M  V30 15319 H 1716.1 1.87343 2.33544 0
M  V30 15320 H 1713.64 0.902172 1.12236 0
M  V30 15321 H 1715.6 0.307623 4.20276 0
M  V30 15322 H 1714.32 -0.468469 3.23223 0
M  V30 15323 H 1712.98 1.66376 3.26672 0
M  V30 15324 H 1712.63 -0.0751191 5.02944 0
M  V30 15325 H 1712.33 1.56202 5.66458 0
M  V30 15326 H 1713.85 0.719233 6.06349 0
M  V30 15327 H 1715.26 2.74384 5.03375 0
M  V30 15328 H 1713.66 3.51635 4.86285 0
M  V30 15329 H 1714.73 3.40353 3.45381 0
M  V30 15330 N 1716.07 -1.22136 0.99602 0
M  V30 15331 C 1717.32 -1.9059 0.672303 0
M  V30 15332 C 1717.64 -1.77903 -0.798476 0
M  V30 15333 O 1716.91 -1.1682 -1.57257 0
M  V30 15334 H 1715.49 -0.705445 0.245676 0
M  V30 15335 H 1718.16 -1.48423 1.2632 0
M  V30 15336 H 1717.25 -2.97684 0.937577 0
M  V30 15337 N 1717.55 -0.769612 -1.37531 0
M  V30 15338 C 1718.46 -0.15514 -2.34086 0
M  V30 15339 C 1719.48 0.682108 -1.60073 0
M  V30 15340 O 1720.65 0.602527 -1.92176 0
M  V30 15341 C 1717.72 0.715344 -3.3924 0
M  V30 15342 C 1716.78 -0.138116 -4.29078 0
M  V30 15343 C 1716.01 0.690916 -5.29209 0
M  V30 15344 O 1716.24 1.92812 -5.36824 0
M  V30 15345 O 1715.17 0.101247 -6.01815 0
M  V30 15346 H 1719 -0.952968 -2.88361 0
M  V30 15347 H 1716.58 -0.530738 -1.39655 0
M  V30 15348 H 1718.46 1.21236 -4.03584 0
M  V30 15349 H 1717.14 1.4914 -2.87296 0
M  V30 15350 H 1716.05 -0.681443 -3.67841 0
M  V30 15351 H 1717.38 -0.877202 -4.8432 0
M  V30 15352 N 1719.03 1.48775 -0.519977 0
M  V30 15353 C 1720.26 2.07394 0.0161061 0
M  V30 15354 C 1720.68 1.37532 1.28322 0
M  V30 15355 O 1720.04 0.438049 1.75928 0
M  V30 15356 C 1720.09 3.59844 0.233382 0
M  V30 15357 O 1719.19 3.91235 1.30418 0
M  V30 15358 H 1718.53 0.663094 -0.0346678 0
M  V30 15359 H 1721.06 1.91323 -0.725029 0
M  V30 15360 H 1721.07 4.05409 0.45911 0
M  V30 15361 H 1719.75 4.10098 -0.69229 0
M  V30 15362 H 1718.32 3.5746 1.0619 0
M  V30 15363 N 1720.51 0.254649 1.55529 0
M  V30 15364 C 1721.73 -0.374795 2.03985 0
M  V30 15365 C 1722.16 -1.50188 1.13249 0
M  V30 15366 O 1721.52 -1.80855 0.126963 0
M  V30 15367 C 1721.56 -0.852635 3.50375 0
M  V30 15368 O 1720.67 -1.9616 3.6276 0
M  V30 15369 H 1720.01 -0.0806157 0.659088 0
M  V30 15370 H 1722.54 0.38297 2.00984 0
M  V30 15371 H 1722.55 -1.15381 3.91345 0
M  V30 15372 H 1721.22 -0.0279044 4.15891 0
M  V30 15373 H 1719.8 -1.66453 3.33688 0
M  V30 15374 N 1721.99 -1.57589 -0.0183649 0
M  V30 15375 C 1723.23 -1.89382 -0.705612 0
M  V30 15376 C 1723.56 -0.853698 -1.7532 0
M  V30 15377 O 1722.83 0.111322 -1.95583 0
M  V30 15378 H 1721.41 -0.698943 -0.263605 0
M  V30 15379 H 1724.07 -1.94891 0.0182168 0
M  V30 15380 H 1723.16 -2.88587 -1.18845 0
M  V30 15381 N 1723.46 0.290824 -1.54893 0
M  V30 15382 C 1724.71 1.02475 -1.74657 0
M  V30 15383 C 1725.04 1.86915 -0.537885 0
M  V30 15384 O 1724.29 1.89722 0.479998 0
M  V30 15385 C 1724.59 1.95145 -2.99422 0
M  V30 15386 C 1724.26 1.26599 -4.32763 0
M  V30 15387 C 1722.92 1.07639 -4.69007 0
M  V30 15388 C 1725.27 0.776794 -5.15379 0
M  V30 15389 C 1722.6 0.38458 -5.85438 0
M  V30 15390 C 1724.95 0.0986614 -6.32523 0
M  V30 15391 C 1723.62 -0.102812 -6.67421 0
M  V30 15392 H 1722.89 0.374982 -0.639116 0
M  V30 15393 H 1725.53 0.298659 -1.89157 0
M  V30 15394 H 1723.84 2.74316 -2.79746 0
M  V30 15395 H 1725.54 2.5202 -3.11908 0
M  V30 15396 H 1722.13 1.42365 -4.04265 0
M  V30 15397 H 1726.31 0.91096 -4.87868 0
M  V30 15398 H 1721.57 0.217593 -6.11013 0
M  V30 15399 H 1725.74 -0.28825 -6.95803 0
M  V30 15400 H 1723.37 -0.640872 -7.57494 0
M  V30 15401 N 1724.94 1.47523 0.554506 0
M  V30 15402 C 1726.19 1.53982 1.30897 0
M  V30 15403 C 1726.51 0.20487 1.93921 0
M  V30 15404 O 1725.78 -0.771422 1.80072 0
M  V30 15405 H 1724.36 0.567206 0.486092 0
M  V30 15406 H 1727.02 1.83838 0.647284 0
M  V30 15407 H 1726.12 2.30783 2.10109 0
M  V30 15408 N 1726.42 -0.801453 1.357 0
M  V30 15409 C 1727.37 -1.90299 1.2558 0
M  V30 15410 C 1728.35 -1.602 0.149922 0
M  V30 15411 O 1729.55 -1.72837 0.381622 0
M  V30 15412 C 1726.68 -3.2732 1.0352 0
M  V30 15413 C 1725.76 -3.63468 2.18522 0
M  V30 15414 N 1726.15 -3.71014 3.43777 0
M  V30 15415 C 1724.45 -3.93455 2.10022 0
M  V30 15416 C 1725.15 -4.03052 4.19433 0
M  V30 15417 N 1724.13 -4.17405 3.48244 0
M  V30 15418 H 1727.93 -1.94341 2.20474 0
M  V30 15419 H 1725.44 -0.996323 1.28247 0
M  V30 15420 H 1727.44 -4.06081 0.943586 0
M  V30 15421 H 1726.1 -3.24561 0.095163 0
M  V30 15422 H 1727.11 -3.53961 3.78064 0
M  V30 15423 H 1723.79 -3.98691 1.23903 0
M  V30 15424 H 1725.18 -4.15914 5.27698 0
M  V30 15425 N 1727.9 -1.19782 -1.02421 0
M  V30 15426 C 1728.85 -0.907509 -2.09161 0
M  V30 15427 C 1729.83 0.129596 -1.60377 0
M  V30 15428 O 1731.02 -0.0767382 -1.76834 0
M  V30 15429 C 1728.15 -0.453095 -3.40297 0
M  V30 15430 C 1727.24 -1.5232 -3.95802 0
M  V30 15431 N 1727.63 -2.74379 -4.24912 0
M  V30 15432 C 1725.93 -1.38758 -4.23866 0
M  V30 15433 C 1726.63 -3.43348 -4.6956 0
M  V30 15434 N 1725.61 -2.70749 -4.71376 0
M  V30 15435 H 1729.41 -1.83512 -2.29566 0
M  V30 15436 H 1726.92 -1.09068 -1.20324 0
M  V30 15437 H 1728.92 -0.226551 -4.16284 0
M  V30 15438 H 1727.58 0.467983 -3.2131 0
M  V30 15439 H 1728.59 -3.11099 -4.1405 0
M  V30 15440 H 1725.27 -0.530327 -4.14118 0
M  V30 15441 H 1726.66 -4.47753 -5.00966 0
M  V30 15442 N 1729.38 1.21606 -1.00248 0
M  V30 15443 C 1730.29 2.2757 -0.570004 0
M  V30 15444 C 1731.3 1.69669 0.385788 0
M  V30 15445 O 1732.48 1.99839 0.250246 0
M  V30 15446 C 1729.54 3.46558 0.0990566 0
M  V30 15447 C 1728.61 4.19741 -0.9009 0
M  V30 15448 C 1727.84 5.33048 -0.263673 0
M  V30 15449 O 1728.06 5.62599 0.940131 0
M  V30 15450 O 1727 5.93978 -0.973342 0
M  V30 15451 H 1730.82 2.66751 -1.45182 0
M  V30 15452 H 1728.41 1.27955 -0.771224 0
M  V30 15453 H 1730.29 4.18733 0.47339 0
M  V30 15454 H 1728.96 3.09283 0.955285 0
M  V30 15455 H 1727.87 3.49798 -1.32634 0
M  V30 15456 H 1729.2 4.60921 -1.72664 0
M  V30 15457 N 1730.86 0.776895 1.37121 0
M  V30 15458 C 1732.08 0.353911 2.04358 0
M  V30 15459 C 1732.51 -1.01745 1.58207 0
M  V30 15460 O 1731.86 -1.653 0.744691 0
M  V30 15461 C 1731.91 0.411918 3.5824 0
M  V30 15462 O 1731.02 -0.58576 4.08219 0
M  V30 15463 H 1730.36 0.152335 0.64629 0
M  V30 15464 H 1732.89 1.05452 1.75331 0
M  V30 15465 H 1732.9 0.271043 4.07099 0
M  V30 15466 H 1731.57 1.41236 3.91185 0
M  V30 15467 H 1730.15 -0.40758 3.70666 0
M  V30 15468 N 1732.33 -1.48497 0.527859 0
M  V30 15469 C 1733.56 -2.07399 -0.00510725 0
M  V30 15470 C 1733.98 -1.38211 -1.2759 0
M  V30 15471 O 1733.34 -0.447373 -1.75694 0
M  V30 15472 C 1733.39 -3.59963 -0.214295 0
M  V30 15473 O 1732.49 -3.91921 -1.28342 0
M  V30 15474 H 1731.83 -0.662901 0.0381838 0
M  V30 15475 H 1734.36 -1.90936 0.735166 0
M  V30 15476 H 1734.37 -4.05646 -0.437604 0
M  V30 15477 H 1733.05 -4.09725 0.714028 0
M  V30 15478 H 1731.63 -3.58019 -1.04293 0
M  V30 15479 N 1733.81 -0.262893 -1.55392 0
M  V30 15480 C 1735.04 0.363972 -2.04181 0
M  V30 15481 C 1735.46 1.49585 -1.14044 0
M  V30 15482 O 1734.82 1.80785 -0.136553 0
M  V30 15483 C 1734.87 0.834041 -3.50822 0
M  V30 15484 O 1733.97 1.94234 -3.63795 0
M  V30 15485 H 1733.31 0.0771193 -0.659506 0
M  V30 15486 H 1735.84 -0.393623 -2.00778 0
M  V30 15487 H 1735.85 1.13304 -3.91952 0
M  V30 15488 H 1734.53 0.00584833 -4.159 0
M  V30 15489 H 1733.1 1.64681 -3.34566 0
M  V30 15490 N 1735.29 1.57597 0.0100073 0
M  V30 15491 C 1736.54 1.89754 0.695559 0
M  V30 15492 C 1736.86 0.862983 1.74865 0
M  V30 15493 O 1736.13 -0.100949 1.9564 0
M  V30 15494 H 1734.71 0.700331 0.259895 0
M  V30 15495 H 1737.37 1.94879 -0.0285521 0
M  V30 15496 H 1736.47 2.89213 1.17313 0
M  V30 15497 N 1736.77 -0.282606 1.55045 0
M  V30 15498 C 1737.7 -1.37115 1.83663 0
M  V30 15499 C 1738.71 -1.45985 0.720563 0
M  V30 15500 O 1739.9 -1.47974 0.998294 0
M  V30 15501 C 1737 -2.7533 1.97603 0
M  V30 15502 C 1736.17 -2.89168 3.28177 0
M  V30 15503 C 1735.23 -4.07997 3.32302 0
M  V30 15504 O 1734.26 -3.9921 4.05734 0
M  V30 15505 N 1735.46 -5.19512 2.59013 0
M  V30 15506 H 1738.23 -1.12914 2.77616 0
M  V30 15507 H 1735.79 -0.472711 1.54845 0
M  V30 15508 H 1737.78 -3.531 1.97743 0
M  V30 15509 H 1736.35 -2.92396 1.1056 0
M  V30 15510 H 1735.57 -1.9836 3.40657 0
M  V30 15511 H 1736.86 -2.95338 4.1431 0
M  V30 15512 H 1736.26 -5.29536 1.99018 0
M  V30 15513 H 1734.81 -5.95549 2.64887 0
M  V30 15514 N 1738.25 -1.47815 -0.546675 0
M  V30 15515 C 1739.47 -1.58864 -1.33331 0
M  V30 15516 C 1739.9 -0.24302 -1.86524 0
M  V30 15517 O 1739.25 0.782777 -1.63531 0
M  V30 15518 C 1739.3 -2.62556 -2.47177 0
M  V30 15519 O 1738.41 -2.18558 -3.49723 0
M  V30 15520 H 1737.75 -0.53329 -0.395598 0
M  V30 15521 H 1740.28 -1.93677 -0.659579 0
M  V30 15522 H 1740.29 -2.83307 -2.936 0
M  V30 15523 H 1738.96 -3.60255 -2.0782 0
M  V30 15524 H 1737.54 -2.0795 -3.09534 0
M  V30 15525 N 1739.72 0.794246 -1.36123 0
M  V30 15526 C 1740.95 1.58813 -1.33391 0
M  V30 15527 C 1741.37 1.87915 0.0834599 0
M  V30 15528 O 1740.73 1.47516 1.05398 0
M  V30 15529 C 1740.78 2.88887 -2.15816 0
M  V30 15530 O 1739.88 3.82271 -1.54734 0
M  V30 15531 H 1739.22 0.481924 -0.456777 0
M  V30 15532 H 1741.75 0.984818 -1.79339 0
M  V30 15533 H 1741.76 3.38201 -2.2822 0
M  V30 15534 H 1740.44 2.67032 -3.18852 0
M  V30 15535 H 1739.02 3.40852 -1.51242 0
M  V30 15536 N 1741.2 1.20323 1.01785 0
M  V30 15537 C 1742.43 1.03893 1.79502 0
M  V30 15538 C 1742.85 -0.407421 1.83635 0
M  V30 15539 O 1742.21 -1.29338 1.27049 0
M  V30 15540 C 1742.26 1.62562 3.21879 0
M  V30 15541 O 1741.36 0.862398 4.03282 0
M  V30 15542 H 1740.7 0.366479 0.553705 0
M  V30 15543 H 1743.23 1.59589 1.28034 0
M  V30 15544 H 1743.24 1.66244 3.72595 0
M  V30 15545 H 1741.92 2.67826 3.18186 0
M  V30 15546 H 1740.49 0.899687 3.61884 0
M  V30 15547 N 1742.68 -1.21073 1.00892 0
M  V30 15548 C 1743.91 -1.93952 0.71178 0
M  V30 15549 C 1744.32 -1.74538 -0.730278 0
M  V30 15550 O 1743.66 -1.05164 -1.50619 0
M  V30 15551 C 1743.72 -3.46502 0.957957 0
M  V30 15552 C 1743.39 -3.89669 2.38762 0
M  V30 15553 C 1744.38 -3.96053 3.36805 0
M  V30 15554 C 1742.07 -4.21873 2.72632 0
M  V30 15555 C 1744.06 -4.34042 4.66783 0
M  V30 15556 C 1741.75 -4.59538 4.02825 0
M  V30 15557 C 1742.75 -4.65593 4.99712 0
M  V30 15558 O 1742.44 -5.02398 6.27576 0
M  V30 15559 H 1742.17 -0.623495 0.261208 0
M  V30 15560 H 1744.72 -1.54728 1.35086 0
M  V30 15561 H 1742.95 -3.85813 0.261704 0
M  V30 15562 H 1744.64 -4.00603 0.653596 0
M  V30 15563 H 1745.41 -3.71346 3.11974 0
M  V30 15564 H 1741.29 -4.16356 1.97912 0
M  V30 15565 H 1744.83 -4.38683 5.42405 0
M  V30 15566 H 1740.73 -4.837 4.27439 0
M  V30 15567 H 1741.49 -5.20417 6.3175 0
M  V30 15568 N 1744.16 -0.784156 -1.36707 0
M  V30 15569 C 1745.38 -0.364744 -2.04168 0
M  V30 15570 C 1745.81 1.00905 -1.58745 0
M  V30 15571 O 1745.17 1.64903 -0.753447 0
M  V30 15572 C 1745.21 -0.43091 -3.58016 0
M  V30 15573 O 1744.32 0.564103 -4.08524 0
M  V30 15574 H 1743.66 -0.15576 -0.645473 0
M  V30 15575 H 1746.19 -1.0638 -1.74769 0
M  V30 15576 H 1746.2 -0.292629 -4.06949 0
M  V30 15577 H 1744.87 -1.43308 -3.9043 0
M  V30 15578 H 1743.45 0.387917 -3.70877 0
M  V30 15579 N 1745.64 1.48215 -0.535727 0
M  V30 15580 C 1746.57 2.27708 0.261085 0
M  V30 15581 C 1747.58 1.35714 0.899197 0
M  V30 15582 O 1748.77 1.60717 0.776669 0
M  V30 15583 C 1745.87 3.09285 1.38549 0
M  V30 15584 C 1745.04 4.29097 0.848218 0
M  V30 15585 C 1744.1 4.92439 1.85445 0
M  V30 15586 O 1743.13 5.51483 1.4091 0
M  V30 15587 N 1744.33 4.85197 3.18691 0
M  V30 15588 H 1747.1 2.96732 -0.420706 0
M  V30 15589 H 1744.66 1.57606 -0.370421 0
M  V30 15590 H 1746.65 3.4853 2.05691 0
M  V30 15591 H 1745.22 2.42644 1.97085 0
M  V30 15592 H 1744.44 3.942 0.000627744 0
M  V30 15593 H 1745.73 5.06641 0.468243 0
M  V30 15594 H 1745.12 4.3839 3.57535 0
M  V30 15595 H 1743.68 5.28525 3.81451 0
M  V30 15596 N 1747.11 0.27113 1.5525 0
M  V30 15597 C 1748.06 -0.632507 2.19051 0
M  V30 15598 C 1749.05 -1.12135 1.15388 0
M  V30 15599 O 1750.24 -1.06709 1.41217 0
M  V30 15600 C 1747.37 -1.81804 2.91208 0
M  V30 15601 C 1746.46 -1.34656 4.02155 0
M  V30 15602 N 1746.85 -0.590954 5.02336 0
M  V30 15603 C 1745.14 -1.62985 4.15153 0
M  V30 15604 C 1745.85 -0.343602 5.80684 0
M  V30 15605 N 1744.82 -0.914869 5.35846 0
M  V30 15606 H 1748.62 -0.0473244 2.93862 0
M  V30 15607 H 1746.14 0.0745107 1.62229 0
M  V30 15608 H 1748.13 -2.47666 3.35361 0
M  V30 15609 H 1746.79 -2.40721 2.17907 0
M  V30 15610 H 1747.81 -0.238682 5.1735 0
M  V30 15611 H 1744.48 -2.22867 3.53039 0
M  V30 15612 H 1745.87 0.261284 6.71392 0
M  V30 15613 N 1748.59 -1.576 -0.00164943 0
M  V30 15614 C 1749.84 -1.9012 -0.685486 0
M  V30 15615 C 1750.16 -0.872245 -1.74404 0
M  V30 15616 O 1749.43 0.090572 -1.95691 0
M  V30 15617 H 1748.01 -0.701699 -0.256177 0
M  V30 15618 H 1750.67 -1.94861 0.0388866 0
M  V30 15619 H 1749.77 -2.89831 -1.15778 0
M  V30 15620 N 1750.07 0.274379 -1.55193 0
M  V30 15621 C 1751.3 1.02871 -1.8009 0
M  V30 15622 C 1751.72 1.79202 -0.571676 0
M  V30 15623 O 1751.08 1.74867 0.478679 0
M  V30 15624 C 1751.13 1.96406 -3.02418 0
M  V30 15625 O 1750.23 3.05154 -2.77408 0
M  V30 15626 H 1749.57 0.294181 -0.595276 0
M  V30 15627 H 1752.1 0.303708 -2.02333 0
M  V30 15628 H 1752.11 2.38385 -3.31114 0
M  V30 15629 H 1750.79 1.40261 -3.91535 0
M  V30 15630 H 1749.36 2.675 -2.59805 0
M  V30 15631 N 1751.55 1.48103 0.538828 0
M  V30 15632 C 1752.8 1.55362 1.29256 0
M  V30 15633 C 1753.12 0.225427 1.93693 0
M  V30 15634 O 1752.39 -0.75228 1.8088 0
M  V30 15635 H 1750.97 0.57233 0.480049 0
M  V30 15636 H 1753.63 1.84514 0.627749 0
M  V30 15637 H 1752.73 2.32998 2.07649 0
M  V30 15638 N 1753.03 -0.787016 1.36542 0
M  V30 15639 C 1754.25 -1.58103 1.34231 0
M  V30 15640 C 1754.68 -1.87956 -0.0734932 0
M  V30 15641 O 1754.03 -1.48073 -1.04615 0
M  V30 15642 C 1754.08 -2.87739 2.17345 0
M  V30 15643 O 1753.19 -3.81445 1.56759 0
M  V30 15644 H 1752.53 -0.479495 0.459326 0
M  V30 15645 H 1755.06 -0.975294 1.79859 0
M  V30 15646 H 1755.07 -3.36986 2.3001 0
M  V30 15647 H 1753.74 -2.65338 3.20264 0
M  V30 15648 H 1752.32 -3.40046 1.53047 0
M  V30 15649 N 1754.5 -1.20861 -1.01145 0
M  V30 15650 C 1755.75 -1.0199 -1.74478 0
M  V30 15651 C 1756.07 0.4484 -1.89775 0
M  V30 15652 O 1755.34 1.32386 -1.44398 0
M  V30 15653 H 1753.92 -0.37439 -0.646406 0
M  V30 15654 H 1756.59 -1.5206 -1.21917 0
M  V30 15655 H 1755.68 -1.48251 -2.74642 0
M  V30 15656 N 1755.98 1.20536 -1.01532 0
M  V30 15657 C 1756.93 2.21134 -0.555309 0
M  V30 15658 C 1757.92 1.56135 0.388663 0
M  V30 15659 O 1759.11 1.75728 0.211835 0
M  V30 15660 C 1756.24 3.43135 0.106298 0
M  V30 15661 C 1755.32 4.15303 -0.859306 0
M  V30 15662 N 1755.71 4.63873 -2.01631 0
M  V30 15663 C 1754.01 4.40788 -0.679859 0
M  V30 15664 C 1754.71 5.19143 -2.62422 0
M  V30 15665 N 1753.69 5.0913 -1.90494 0
M  V30 15666 H 1757.49 2.56351 -1.4374 0
M  V30 15667 H 1755.01 1.36458 -0.880503 0
M  V30 15668 H 1757 4.14427 0.453392 0
M  V30 15669 H 1755.66 3.09423 0.984242 0
M  V30 15670 H 1756.67 4.59128 -2.39629 0
M  V30 15671 H 1753.35 4.1723 0.150137 0
M  V30 15672 H 1754.74 5.67108 -3.60331 0
M  V30 15673 N 1757.46 0.791395 1.36289 0
M  V30 15674 C 1758.69 0.375566 2.03971 0
M  V30 15675 C 1759.11 -1.00061 1.59277 0
M  V30 15676 O 1758.47 -1.64501 0.762182 0
M  V30 15677 C 1758.52 0.449891 3.57783 0
M  V30 15678 O 1757.62 -0.54243 4.08817 0
M  V30 15679 H 1756.96 0.159181 0.644637 0
M  V30 15680 H 1759.49 1.07306 1.74203 0
M  V30 15681 H 1759.5 0.314206 4.06788 0
M  V30 15682 H 1758.18 1.45377 3.89665 0
M  V30 15683 H 1756.75 -0.368243 3.71077 0
M  V30 15684 N 1758.94 -1.47929 0.54358 0
M  V30 15685 C 1760.16 -2.07393 0.0168905 0
M  V30 15686 C 1760.59 -1.39557 -1.26117 0
M  V30 15687 O 1759.95 -0.465983 -1.75209 0
M  V30 15688 C 1760 -3.6017 -0.176105 0
M  V30 15689 O 1759.1 -3.9326 -1.24178 0
M  V30 15690 H 1758.44 -0.662459 0.0452126 0
M  V30 15691 H 1760.97 -1.90145 0.755376 0
M  V30 15692 H 1760.98 -4.06088 -0.394555 0
M  V30 15693 H 1759.66 -4.08944 0.757445 0
M  V30 15694 H 1758.23 -3.59105 -1.0049 0
M  V30 15695 N 1760.42 -0.27936 -1.55104 0
M  V30 15696 C 1761.67 0.335541 -1.99295 0
M  V30 15697 C 1761.99 1.56059 -1.16921 0
M  V30 15698 O 1761.26 1.9417 -0.259773 0
M  V30 15699 H 1759.84 0.126968 -0.736131 0
M  V30 15700 H 1762.5 -0.385679 -1.91046 0
M  V30 15701 H 1761.59 0.622493 -3.05829 0
M  V30 15702 N 1761.9 1.57599 -0.0067085 0
M  V30 15703 C 1763.13 1.9486 0.686536 0
M  V30 15704 C 1763.53 0.880481 1.67464 0
M  V30 15705 O 1762.88 -0.148537 1.83098 0
M  V30 15706 C 1762.94 3.28146 1.46834 0
M  V30 15707 C 1762.6 4.52481 0.641076 0
M  V30 15708 C 1763.6 5.19847 -0.0741179 0
M  V30 15709 C 1761.28 4.98881 0.585071 0
M  V30 15710 C 1763.28 6.31917 -0.83423 0
M  V30 15711 C 1760.97 6.10838 -0.178762 0
M  V30 15712 C 1761.96 6.77214 -0.887139 0
M  V30 15713 O 1761.65 7.87025 -1.6385 0
M  V30 15714 H 1761.38 0.647045 0.195727 0
M  V30 15715 H 1763.94 2.05324 -0.0559783 0
M  V30 15716 H 1762.17 3.14109 2.25549 0
M  V30 15717 H 1763.86 3.50471 2.04756 0
M  V30 15718 H 1764.62 4.84983 -0.0400444 0
M  V30 15719 H 1760.5 4.47038 1.12598 0
M  V30 15720 H 1764.05 6.83659 -1.38767 0
M  V30 15721 H 1759.94 6.45143 -0.214632 0
M  V30 15722 H 1760.71 8.03576 -1.55591 0
M  V30 15723 N 1763.37 -0.266145 1.55336 0
M  V30 15724 C 1764.62 -0.994862 1.75917 0
M  V30 15725 C 1764.94 -1.8657 0.567147 0
M  V30 15726 O 1764.21 -1.91394 -0.417738 0
M  V30 15727 H 1762.79 -0.370318 0.648748 0
M  V30 15728 H 1765.45 -0.288724 1.9275 0
M  V30 15729 H 1764.55 -1.62781 2.66287 0
M  V30 15730 N 1764.85 -1.48386 -0.530967 0
M  V30 15731 C 1765.78 -1.58922 -1.65156 0
M  V30 15732 C 1766.8 -0.473583 -1.5576 0
M  V30 15733 O 1767.99 -0.744383 -1.62238 0
M  V30 15734 C 1765.09 -1.50201 -3.03798 0
M  V30 15735 C 1764.26 -2.76787 -3.38685 0
M  V30 15736 C 1763.32 -2.61534 -4.56603 0
M  V30 15737 O 1762.34 -3.35417 -4.59874 0
M  V30 15738 N 1763.55 -1.71087 -5.54716 0
M  V30 15739 H 1766.31 -2.55559 -1.56555 0
M  V30 15740 H 1763.87 -1.45097 -0.718216 0
M  V30 15741 H 1765.86 -1.37693 -3.80556 0
M  V30 15742 H 1764.43 -0.615419 -3.06482 0
M  V30 15743 H 1763.65 -3.03867 -2.51115 0
M  V30 15744 H 1764.94 -3.6077 -3.58779 0
M  V30 15745 H 1764.34 -1.10261 -5.54851 0
M  V30 15746 H 1762.9 -1.64518 -6.30696 0
M  V30 15747 N 1766.33 0.779763 -1.36958 0
M  V30 15748 C 1767.28 1.88277 -1.28592 0
M  V30 15749 C 1768.26 1.59941 -0.175389 0
M  V30 15750 O 1769.46 1.72208 -0.409071 0
M  V30 15751 C 1766.58 3.25632 -1.08715 0
M  V30 15752 C 1765.67 3.59945 -2.24277 0
M  V30 15753 N 1766.06 3.65497 -3.49636 0
M  V30 15754 C 1764.36 3.90064 -2.16255 0
M  V30 15755 C 1765.06 3.96328 -4.25792 0
M  V30 15756 N 1764.04 4.11812 -3.5484 0
M  V30 15757 H 1767.84 1.90809 -2.23538 0
M  V30 15758 H 1765.35 0.975794 -1.29815 0
M  V30 15759 H 1767.35 4.04529 -1.00807 0
M  V30 15760 H 1766.01 3.24368 -0.146786 0
M  V30 15761 H 1767.02 3.47902 -3.83647 0
M  V30 15762 H 1763.7 3.96669 -1.3023 0
M  V30 15763 H 1765.09 4.07466 -5.34248 0
M  V30 15764 N 1767.81 1.21396 1.00503 0
M  V30 15765 C 1769.06 1.02913 1.73935 0
M  V30 15766 C 1769.38 -0.438329 1.9001 0
M  V30 15767 O 1768.65 -1.31618 1.45098 0
M  V30 15768 H 1767.23 0.377813 0.644412 0
M  V30 15769 H 1769.89 1.52704 1.21109 0
M  V30 15770 H 1768.98 1.49705 2.73852 0
M  V30 15771 N 1769.29 -1.19996 1.0217 0
M  V30 15772 C 1770.51 -1.94007 0.733207 0
M  V30 15773 C 1770.94 -1.74565 -0.70061 0
M  V30 15774 O 1770.29 -1.04326 -1.48276 0
M  V30 15775 C 1770.34 -3.44029 1.08057 0
M  V30 15776 O 1769.45 -4.11938 0.195135 0
M  V30 15777 H 1768.79 -0.605929 0.271562 0
M  V30 15778 H 1771.32 -1.5228 1.36645 0
M  V30 15779 H 1771.33 -3.94669 1.03443 0
M  V30 15780 H 1770 -3.57502 2.1252 0
M  V30 15781 H 1768.58 -3.71697 0.299246 0
M  V30 15782 N 1770.76 -0.798611 -1.35867 0
M  V30 15783 C 1772.18 -0.481385 -1.52167 0
M  V30 15784 C 1772.38 0.99878 -1.75005 0
M  V30 15785 O 1771.44 1.78404 -1.78685 0
M  V30 15786 C 1772.75 -1.31982 -2.70188 0
M  V30 15787 C 1774.3 -1.31445 -2.84062 0
M  V30 15788 C 1774.77 -2.13682 -4.05098 0
M  V30 15789 N 1776.26 -2.11176 -4.12261 0
M  V30 15790 C 1777 -2.71571 -5.05012 0
M  V30 15791 N 1776.49 -3.40861 -6.03147 0
M  V30 15792 N 1778.29 -2.61255 -4.97697 0
M  V30 15793 H 1770.44 -1.75731 -1.19299 0
M  V30 15794 H 1772.7 -0.747512 -0.583034 0
M  V30 15795 H 1772.41 -2.36989 -2.59864 0
M  V30 15796 H 1772.28 -0.967488 -3.64581 0
M  V30 15797 H 1774.67 -0.272258 -2.93841 0
M  V30 15798 H 1774.75 -1.7066 -1.90549 0
M  V30 15799 H 1774.39 -3.17937 -3.96079 0
M  V30 15800 H 1774.32 -1.71832 -4.97776 0
M  V30 15801 H 1776.81 -1.60754 -3.42004 0
M  V30 15802 H 1777.13 -3.84251 -6.705 0
M  V30 15803 H 1775.47 -3.44964 -6.03345 0
M  V30 15804 H 1778.66 -2.06717 -4.19983 0
M  V30 15805 H 1778.84 -3.08613 -5.69791 0
M  V30 15806 N 1772.24 1.47639 -0.551417 0
M  V30 15807 C 1773.47 2.07381 -0.0278888 0
M  V30 15808 C 1773.89 1.40223 1.25375 0
M  V30 15809 O 1773.25 0.475268 1.7496 0
M  V30 15810 C 1773.3 3.60258 0.157001 0
M  V30 15811 O 1772.4 3.93913 1.2209 0
M  V30 15812 H 1771.74 0.66221 -0.0487252 0
M  V30 15813 H 1774.27 1.89742 -0.765449 0
M  V30 15814 H 1774.28 4.06291 0.373013 0
M  V30 15815 H 1772.96 4.08537 -0.779122 0
M  V30 15816 H 1771.53 3.59633 0.985843 0
M  V30 15817 N 1773.72 0.287581 1.54954 0
M  V30 15818 C 1774.97 -0.324967 1.9947 0
M  V30 15819 C 1775.29 -1.55437 1.17747 0
M  V30 15820 O 1774.56 -1.9403 0.270067 0
M  V30 15821 H 1773.14 -0.123062 0.736794 0
M  V30 15822 H 1775.8 0.395805 1.90839 0
M  V30 15823 H 1774.9 -0.606265 3.06155 0
M  V30 15824 N 1775.2 -1.57593 0.0150662 0
M  V30 15825 C 1776.13 -2.06239 -0.999912 0
M  V30 15826 C 1777.14 -0.983112 -1.29764 0
M  V30 15827 O 1778.33 -1.25961 -1.26476 0
M  V30 15828 C 1775.43 -2.46011 -2.33092 0
M  V30 15829 C 1774.61 -3.76851 -2.2204 0
M  V30 15830 C 1773.66 -4.03326 -3.37956 0
M  V30 15831 O 1772.69 -4.73781 -3.15469 0
M  V30 15832 N 1773.89 -3.52399 -4.61298 0
M  V30 15833 H 1776.66 -2.93936 -0.584952 0
M  V30 15834 H 1774.22 -1.60984 -0.172001 0
M  V30 15835 H 1776.21 -2.60825 -3.09439 0
M  V30 15836 H 1774.78 -1.63753 -2.66277 0
M  V30 15837 H 1774 -3.71969 -1.30509 0
M  V30 15838 H 1775.29 -4.626 -2.11845 0
M  V30 15839 H 1774.69 -2.95374 -4.82463 0
M  V30 15840 H 1773.24 -3.72516 -5.3486 0
M  V30 15841 N 1776.68 0.257904 -1.55475 0
M  V30 15842 C 1777.9 1.00955 -1.81171 0
M  V30 15843 C 1778.33 1.78586 -0.590651 0
M  V30 15844 O 1777.68 1.75365 0.460105 0
M  V30 15845 C 1777.73 1.93188 -3.04485 0
M  V30 15846 O 1776.84 3.02194 -2.80628 0
M  V30 15847 H 1776.18 0.28785 -0.598363 0
M  V30 15848 H 1778.71 0.28223 -2.02644 0
M  V30 15849 H 1778.72 2.3486 -3.33624 0
M  V30 15850 H 1777.39 1.361 -3.93001 0
M  V30 15851 H 1775.97 2.64729 -2.62627 0
M  V30 15852 N 1778.15 1.48666 0.52309 0
M  V30 15853 C 1779.38 1.60965 1.30787 0
M  V30 15854 C 1779.8 0.272663 1.86113 0
M  V30 15855 O 1779.16 -0.756662 1.64755 0
M  V30 15856 C 1779.21 2.66455 2.42969 0
M  V30 15857 O 1778.31 2.24094 3.46202 0
M  V30 15858 H 1777.66 0.539516 0.387064 0
M  V30 15859 H 1780.19 1.94702 0.628683 0
M  V30 15860 H 1780.2 2.87942 2.89056 0
M  V30 15861 H 1778.87 3.63516 2.02062 0
M  V30 15862 H 1777.45 2.12848 3.06186 0
M  V30 15863 N 1779.63 -0.772489 1.37369 0
M  V30 15864 C 1781.05 -1.07294 1.18153 0
M  V30 15865 C 1781.25 -2.01493 0.0171782 0
M  V30 15866 O 1780.3 -2.44177 -0.642964 0
M  V30 15867 C 1781.62 -1.67116 2.49986 0
M  V30 15868 C 1783.17 -1.79377 2.56501 0
M  V30 15869 C 1783.64 -2.42612 3.88463 0
M  V30 15870 N 1785.13 -2.50063 3.89901 0
M  V30 15871 C 1785.87 -2.99841 4.88756 0
M  V30 15872 N 1785.36 -3.49798 5.98008 0
M  V30 15873 N 1787.16 -2.98709 4.76161 0
M  V30 15874 H 1779.31 -0.147014 2.11891 0
M  V30 15875 H 1781.57 -0.127846 0.93934 0
M  V30 15876 H 1781.28 -1.05369 3.35545 0
M  V30 15877 H 1781.15 -2.6642 2.67021 0
M  V30 15878 H 1783.54 -2.40257 1.71349 0
M  V30 15879 H 1783.62 -0.788304 2.4335 0
M  V30 15880 H 1783.26 -1.82372 4.74029 0
M  V30 15881 H 1783.19 -3.43763 3.98917 0
M  V30 15882 H 1785.68 -2.14709 3.1098 0
M  V30 15883 H 1786 -3.86181 6.69391 0
M  V30 15884 H 1784.34 -3.47905 6.01654 0
M  V30 15885 H 1787.53 -2.5898 3.89932 0
M  V30 15886 H 1787.7 -3.37193 5.53358 0
M  V30 15887 N 1781.11 -1.21927 -0.998575 0
M  V30 15888 C 1782.36 -1.03834 -1.73386 0
M  V30 15889 C 1782.68 0.428247 -1.90239 0
M  V30 15890 O 1781.95 1.30847 -1.45794 0
M  V30 15891 H 1780.53 -0.381225 -0.642399 0
M  V30 15892 H 1783.19 -1.53344 -1.20298 0
M  V30 15893 H 1782.29 -1.51155 -2.73054 0
M  V30 15894 N 1782.59 1.19452 -1.02805 0
M  V30 15895 C 1783.5 2.2631 -0.618147 0
M  V30 15896 C 1784.51 1.70449 0.349712 0
M  V30 15897 O 1785.69 2.00325 0.207801 0
M  V30 15898 C 1782.76 3.46691 0.0255242 0
M  V30 15899 C 1781.82 4.17735 -0.98973 0
M  V30 15900 C 1781.05 5.32369 -0.376681 0
M  V30 15901 O 1781.27 5.64467 0.820584 0
M  V30 15902 O 1780.21 5.9178 -1.09911 0
M  V30 15903 H 1784.03 2.63611 -1.50807 0
M  V30 15904 H 1781.62 1.2629 -0.798192 0
M  V30 15905 H 1783.5 4.19643 0.384464 0
M  V30 15906 H 1782.17 3.1124 0.889467 0
M  V30 15907 H 1781.08 3.46906 -1.40024 0
M  V30 15908 H 1782.41 4.57155 -1.82402 0
M  V30 15909 N 1784.07 0.805805 1.35442 0
M  V30 15910 C 1785.48 0.489448 1.5191 0
M  V30 15911 C 1785.68 -0.989485 1.75532 0
M  V30 15912 O 1784.74 -1.77453 1.79629 0
M  V30 15913 C 1786.05 1.33413 2.69484 0
M  V30 15914 C 1787.6 1.32949 2.83361 0
M  V30 15915 C 1788.07 2.15827 4.03959 0
M  V30 15916 N 1789.57 2.13359 4.11135 0
M  V30 15917 C 1790.3 2.74245 5.03564 0
M  V30 15918 N 1789.8 3.44055 6.0133 0
M  V30 15919 N 1791.59 2.63891 4.96304 0
M  V30 15920 H 1783.74 1.76361 1.18366 0
M  V30 15921 H 1786 0.750594 0.579062 0
M  V30 15922 H 1785.71 2.38364 2.58603 0
M  V30 15923 H 1785.58 0.986809 3.64063 0
M  V30 15924 H 1787.97 0.287837 2.93693 0
M  V30 15925 H 1788.05 1.71668 1.89641 0
M  V30 15926 H 1787.7 3.20033 3.94388 0
M  V30 15927 H 1787.63 1.74469 4.96858 0
M  V30 15928 H 1790.12 1.62566 3.41146 0
M  V30 15929 H 1790.43 3.87802 6.68453 0
M  V30 15930 H 1788.77 3.48159 6.01507 0
M  V30 15931 H 1791.97 2.08941 4.18881 0
M  V30 15932 H 1792.14 3.11631 5.68146 0
M  V30 15933 N 1785.54 -1.47344 0.559239 0
M  V30 15934 C 1786.49 -2.27051 -0.20776 0
M  V30 15935 C 1787.48 -1.34477 -0.883451 0
M  V30 15936 O 1788.67 -1.58817 -0.781423 0
M  V30 15937 C 1785.8 -3.20285 -1.23582 0
M  V30 15938 C 1784.89 -4.20341 -0.56344 0
M  V30 15939 N 1785.28 -5.04462 0.367648 0
M  V30 15940 C 1783.57 -4.38451 -0.817111 0
M  V30 15941 C 1784.28 -5.76735 0.758411 0
M  V30 15942 N 1783.25 -5.43483 0.112792 0
M  V30 15943 H 1787.05 -2.89475 0.508087 0
M  V30 15944 H 1784.57 -1.57908 0.379322 0
M  V30 15945 H 1786.56 -3.76074 -1.79928 0
M  V30 15946 H 1785.22 -2.59419 -1.95274 0
M  V30 15947 H 1786.24 -5.12558 0.741923 0
M  V30 15948 H 1782.91 -3.88754 -1.52238 0
M  V30 15949 H 1784.3 -6.54397 1.52361 0
M  V30 15950 N 1787.02 -0.295795 -1.54799 0
M  V30 15951 C 1788.27 0.314384 -1.9964 0
M  V30 15952 C 1788.59 1.5481 -1.1857 0
M  V30 15953 O 1787.86 1.93884 -0.280353 0
M  V30 15954 H 1786.44 0.119153 -0.737436 0
M  V30 15955 H 1789.1 -0.40592 -1.90626 0
M  V30 15956 H 1788.2 0.59002 -3.06472 0
M  V30 15957 N 1788.5 1.57583 -0.0234236 0
M  V30 15958 C 1789.73 1.96267 0.670371 0
M  V30 15959 C 1790.15 0.899586 1.65194 0
M  V30 15960 O 1789.51 -0.140079 1.80758 0
M  V30 15961 C 1789.56 3.34049 1.35806 0
M  V30 15962 O 1788.66 3.3001 2.4732 0
M  V30 15963 H 1788 0.640097 0.176557 0
M  V30 15964 H 1790.53 2.04429 -0.0835829 0
M  V30 15965 H 1790.54 3.70151 1.71616 0
M  V30 15966 H 1789.22 4.10969 0.63852 0
M  V30 15967 H 1787.79 3.05618 2.13664 0
M  V30 15968 N 1789.98 -0.249655 1.5561 0
M  V30 15969 C 1791.2 -0.999931 1.81703 0
M  V30 15970 C 1791.63 -1.7827 0.600113 0
M  V30 15971 O 1790.99 -1.75606 -0.450799 0
M  V30 15972 C 1791.04 -1.9157 3.05505 0
M  V30 15973 O 1790.14 -3.00702 2.82227 0
M  V30 15974 H 1789.48 -0.284673 0.599881 0
M  V30 15975 H 1792.01 -0.27148 2.02791 0
M  V30 15976 H 1792.02 -2.33088 3.34864 0
M  V30 15977 H 1790.7 -1.34014 3.93717 0
M  V30 15978 H 1789.27 -2.63332 2.64027 0
M  V30 15979 N 1791.46 -1.48941 -0.515198 0
M  V30 15980 C 1792.68 -1.61656 -1.29931 0
M  V30 15981 C 1793.11 -0.282529 -1.85966 0
M  V30 15982 O 1792.47 0.747914 -1.65154 0
M  V30 15983 C 1792.51 -2.6774 -2.41553 0
M  V30 15984 O 1791.62 -2.25926 -3.45009 0
M  V30 15985 H 1790.96 -0.541561 -0.384197 0
M  V30 15986 H 1793.49 -1.95032 -0.618349 0
M  V30 15987 H 1793.5 -2.89471 -2.87525 0
M  V30 15988 H 1792.17 -3.64582 -2.00131 0
M  V30 15989 H 1790.75 -2.14469 -3.05053 0
M  V30 15990 N 1792.94 0.765193 -1.37777 0
M  V30 15991 C 1794.18 1.52096 -1.33084 0
M  V30 15992 C 1794.5 1.94827 0.08221 0
M  V30 15993 O 1793.77 1.66787 1.02757 0
M  V30 15994 H 1792.35 0.564139 -0.489649 0
M  V30 15995 H 1795.02 0.910308 -1.72335 0
M  V30 15996 H 1794.11 2.4173 -1.97416 0
M  V30 15997 N 1794.41 1.22455 0.992094 0
M  V30 15998 C 1795.64 1.07677 1.77258 0
M  V30 15999 C 1796.06 -0.368377 1.84458 0
M  V30 16000 O 1795.42 -1.26614 1.29763 0
M  V30 16001 C 1795.47 1.69353 3.18358 0
M  V30 16002 O 1794.57 0.947746 4.01362 0
M  V30 16003 H 1793.91 0.378141 0.545807 0
M  V30 16004 H 1796.44 1.62269 1.2462 0
M  V30 16005 H 1796.45 1.7411 3.68985 0
M  V30 16006 H 1795.13 2.74515 3.12433 0
M  V30 16007 H 1793.71 0.976245 3.59894 0
M  V30 16008 N 1795.89 -1.18905 1.03437 0
M  V30 16009 C 1797.12 -1.93219 0.753743 0
M  V30 16010 C 1797.54 -1.75299 -0.682055 0
M  V30 16011 O 1796.9 -1.05892 -1.47161 0
M  V30 16012 C 1796.95 -3.42864 1.117 0
M  V30 16013 O 1796.05 -4.11708 0.238816 0
M  V30 16014 H 1795.39 -0.603015 0.277973 0
M  V30 16015 H 1797.92 -1.50823 1.38252 0
M  V30 16016 H 1797.93 -3.9355 1.07623 0
M  V30 16017 H 1796.61 -3.55228 2.163 0
M  V30 16018 H 1795.18 -3.71359 0.338652 0
M  V30 16019 N 1797.37 -0.812977 -1.35013 0
M  V30 16020 C 1798.59 -0.407969 -2.03348 0
M  V30 16021 C 1799.02 0.975148 -1.60849 0
M  V30 16022 O 1798.38 1.63267 -0.788256 0
M  V30 16023 C 1798.43 -0.506754 -3.57022 0
M  V30 16024 O 1797.53 0.477322 -4.09628 0
M  V30 16025 H 1796.87 -0.169416 -0.642023 0
M  V30 16026 H 1799.4 -1.10064 -1.72474 0
M  V30 16027 H 1799.41 -0.378883 -4.06237 0
M  V30 16028 H 1798.09 -1.51557 -3.87302 0
M  V30 16029 H 1796.66 0.309161 -3.71616 0
M  V30 16030 N 1798.85 1.47045 -0.567045 0
M  V30 16031 C 1799.8 2.27158 0.195716 0
M  V30 16032 C 1800.78 1.34943 0.876307 0
M  V30 16033 O 1801.97 1.59229 0.772989 0
M  V30 16034 C 1799.1 3.20936 1.21882 0
M  V30 16035 C 1798.19 4.20633 0.54114 0
M  V30 16036 N 1798.58 5.0426 -0.394396 0
M  V30 16037 C 1796.88 4.38878 0.793847 0
M  V30 16038 C 1797.58 5.76324 -0.788986 0
M  V30 16039 N 1796.55 5.43416 -0.141613 0
M  V30 16040 H 1800.36 2.89201 -0.523432 0
M  V30 16041 H 1797.87 1.57705 -0.387691 0
M  V30 16042 H 1799.87 3.77023 1.77931 0
M  V30 16043 H 1798.53 2.60451 1.93895 0
M  V30 16044 H 1799.54 5.12158 -0.769095 0
M  V30 16045 H 1796.22 3.89556 1.50175 0
M  V30 16046 H 1797.61 6.5358 -1.55829 0
M  V30 16047 N 1800.33 0.304 1.5464 0
M  V30 16048 C 1801.56 -0.306471 2.04314 0
M  V30 16049 C 1801.96 -1.47839 1.18069 0
M  V30 16050 O 1801.31 -1.82612 0.199666 0
M  V30 16051 C 1801.37 -0.822694 3.4996 0
M  V30 16052 C 1801.03 0.224343 4.56449 0
M  V30 16053 C 1802.03 1.05382 5.09108 0
M  V30 16054 C 1799.71 0.366905 5.00958 0
M  V30 16055 C 1801.71 2.01176 6.0482 0
M  V30 16056 C 1799.4 1.32829 5.96489 0
M  V30 16057 C 1800.39 2.1492 6.48304 0
M  V30 16058 O 1800.08 3.09429 7.41963 0
M  V30 16059 H 1799.81 -0.0701033 0.672355 0
M  V30 16060 H 1802.37 0.442449 2.00578 0
M  V30 16061 H 1800.6 -1.62219 3.5103 0
M  V30 16062 H 1802.29 -1.34938 3.82814 0
M  V30 16063 H 1803.05 0.954561 4.75514 0
M  V30 16064 H 1798.93 -0.262121 4.60254 0
M  V30 16065 H 1802.48 2.65291 6.45187 0
M  V30 16066 H 1798.37 1.42826 6.29501 0
M  V30 16067 H 1799.14 3.04442 7.59774 0
M  V30 16068 N 1801.8 -1.57568 0.0317802 0
M  V30 16069 C 1803.05 -1.91531 -0.645004 0
M  V30 16070 C 1803.37 -0.909042 -1.72515 0
M  V30 16071 O 1802.64 0.0490427 -1.95839 0
M  V30 16072 H 1801.22 -0.706976 -0.241236 0
M  V30 16073 H 1803.88 -1.94735 0.0802108 0
M  V30 16074 H 1802.98 -2.92221 -1.09604 0
M  V30 16075 N 1803.28 0.241399 -1.5574 0
M  V30 16076 C 1804.21 1.32197 -1.87234 0
M  V30 16077 C 1805.23 1.44024 -0.759015 0
M  V30 16078 O 1806.42 1.45275 -1.03718 0
M  V30 16079 C 1803.52 2.69994 -2.04833 0
M  V30 16080 C 1802.69 2.80366 -3.35729 0
M  V30 16081 C 1801.75 3.99043 -3.43003 0
M  V30 16082 O 1800.77 3.88312 -4.16176 0
M  V30 16083 N 1801.98 5.12462 -2.72696 0
M  V30 16084 H 1804.74 1.05514 -2.80512 0
M  V30 16085 H 1802.3 0.431491 -1.56044 0
M  V30 16086 H 1804.29 3.47733 -2.07035 0
M  V30 16087 H 1802.86 2.89361 -1.18274 0
M  V30 16088 H 1802.08 1.89258 -3.45796 0
M  V30 16089 H 1803.37 2.8425 -4.21995 0
M  V30 16090 H 1802.77 5.24073 -2.12988 0
M  V30 16091 H 1801.33 5.88316 -2.80584 0
M  V30 16092 N 1804.76 1.49212 0.507292 0
M  V30 16093 C 1805.71 1.61812 1.60626 0
M  V30 16094 C 1806.69 0.474071 1.53758 0
M  V30 16095 O 1807.89 0.726703 1.61394 0
M  V30 16096 C 1805.02 1.68213 2.99265 0
M  V30 16097 C 1804.1 2.88174 3.11153 0
M  V30 16098 N 1804.49 4.12328 2.92949 0
M  V30 16099 C 1802.79 2.8598 3.42245 0
M  V30 16100 C 1803.49 4.92935 3.08853 0
M  V30 16101 N 1802.47 4.2618 3.37449 0
M  V30 16102 H 1806.27 2.5553 1.45196 0
M  V30 16103 H 1803.78 1.45898 0.71328 0
M  V30 16104 H 1805.78 1.75336 3.78236 0
M  V30 16105 H 1804.44 0.756279 3.1577 0
M  V30 16106 H 1805.45 4.42408 2.6925 0
M  V30 16107 H 1802.13 2.02748 3.64965 0
M  V30 16108 H 1803.52 6.01543 2.99324 0
M  V30 16109 N 1806.24 -0.757876 1.38181 0
M  V30 16110 C 1807.49 -1.51388 1.33888 0
M  V30 16111 C 1807.81 -1.94867 -0.0718767 0
M  V30 16112 O 1807.08 -1.67329 -1.01871 0
M  V30 16113 H 1805.66 -0.561534 0.492634 0
M  V30 16114 H 1808.32 -0.901156 1.72815 0
M  V30 16115 H 1807.42 -2.4068 1.98695 0
M  V30 16116 N 1807.72 -1.22979 -0.985586 0
M  V30 16117 C 1808.94 -1.08615 -1.76685 0
M  V30 16118 C 1809.37 0.35859 -1.8465 0
M  V30 16119 O 1808.72 1.25924 -1.30433 0
M  V30 16120 C 1808.77 -1.71039 -3.17456 0
M  V30 16121 O 1807.88 -0.969018 -4.00854 0
M  V30 16122 H 1807.22 -0.38103 -0.543794 0
M  V30 16123 H 1809.75 -1.62927 -1.23757 0
M  V30 16124 H 1809.76 -1.76064 -3.68056 0
M  V30 16125 H 1808.43 -2.76168 -3.10973 0
M  V30 16126 H 1807.01 -0.995318 -3.59371 0
M  V30 16127 N 1809.19 1.18355 -1.04066 0
M  V30 16128 C 1810.44 1.87963 -0.742576 0
M  V30 16129 C 1810.76 1.80744 0.731899 0
M  V30 16130 O 1810.03 1.22576 1.52813 0
M  V30 16131 H 1808.61 0.69584 -0.271689 0
M  V30 16132 H 1811.28 1.43632 -1.31741 0
M  V30 16133 H 1810.37 2.93999 -1.04741 0
M  V30 16134 N 1810.67 0.820125 1.3458 0
M  V30 16135 C 1811.9 0.418747 2.03129 0
M  V30 16136 C 1812.32 -0.966605 1.61364 0
M  V30 16137 O 1811.68 -1.62847 0.796903 0
M  V30 16138 C 1811.73 0.525681 3.56748 0
M  V30 16139 O 1810.83 -0.455592 4.09876 0
M  V30 16140 H 1810.17 0.172819 0.641116 0
M  V30 16141 H 1812.7 1.10977 1.71888 0
M  V30 16142 H 1812.71 0.400422 4.0603 0
M  V30 16143 H 1811.39 1.53609 3.86493 0
M  V30 16144 H 1809.97 -0.289449 3.71775 0
M  V30 16145 N 1812.15 -1.46743 0.574835 0
M  V30 16146 C 1813.57 -1.57847 0.23591 0
M  V30 16147 C 1813.77 -1.57105 -1.26175 0
M  V30 16148 O 1812.82 -1.48382 -2.04301 0
M  V30 16149 C 1814.14 -2.87591 0.878158 0
M  V30 16150 C 1815.68 -3.01209 0.851018 0
M  V30 16151 C 1816.16 -4.33678 1.47266 0
M  V30 16152 N 1817.65 -4.40358 1.43664 0
M  V30 16153 C 1818.38 -5.41458 1.8871 0
M  V30 16154 N 1817.88 -6.49274 2.41692 0
M  V30 16155 N 1819.67 -5.3261 1.79674 0
M  V30 16156 H 1811.82 -1.45469 1.54766 0
M  V30 16157 H 1814.09 -0.69341 0.646441 0
M  V30 16158 H 1813.79 -2.93922 1.93139 0
M  V30 16159 H 1813.67 -3.75264 0.381665 0
M  V30 16160 H 1816.05 -2.94464 -0.193573 0
M  V30 16161 H 1816.14 -2.15032 1.38545 0
M  V30 16162 H 1815.78 -4.41179 2.51641 0
M  V30 16163 H 1815.71 -5.18616 0.913519 0
M  V30 16164 H 1818.2 -3.63041 1.04928 0
M  V30 16165 H 1818.51 -7.22617 2.73942 0
M  V30 16166 H 1816.86 -6.50115 2.45713 0
M  V30 16167 H 1820.05 -4.47282 1.38045 0
M  V30 16168 H 1820.22 -6.11259 2.15096 0
M  V30 16169 N 1813.63 -0.312197 -1.54477 0
M  V30 16170 C 1814.56 0.592742 -2.21403 0
M  V30 16171 C 1815.57 1.0888 -1.21033 0
M  V30 16172 O 1816.76 1.00433 -1.47565 0
M  V30 16173 C 1813.86 1.82478 -2.85578 0
M  V30 16174 C 1813.04 1.46933 -4.11982 0
M  V30 16175 C 1812.09 2.5577 -4.59857 0
M  V30 16176 O 1811.12 2.20391 -5.24801 0
M  V30 16177 N 1812.32 3.86506 -4.3312 0
M  V30 16178 H 1815.09 0.0197398 -2.99693 0
M  V30 16179 H 1812.65 -0.13489 -1.61337 0
M  V30 16180 H 1814.64 2.54657 -3.14534 0
M  V30 16181 H 1813.21 2.3059 -2.11062 0
M  V30 16182 H 1812.43 0.579677 -3.89915 0
M  V30 16183 H 1813.72 1.20739 -4.94267 0
M  V30 16184 H 1813.12 4.18053 -3.81114 0
M  V30 16185 H 1811.67 4.5495 -4.66759 0
M  V30 16186 N 1815.11 1.57549 -0.040136 0
M  V30 16187 C 1816.33 1.96967 0.649517 0
M  V30 16188 C 1816.76 0.917056 1.64231 0
M  V30 16189 O 1816.11 -0.120899 1.80896 0
M  V30 16190 C 1816.16 3.35471 1.32256 0
M  V30 16191 O 1815.27 3.32615 2.43806 0
M  V30 16192 H 1814.61 0.641933 0.169758 0
M  V30 16193 H 1817.14 2.04329 -0.105261 0
M  V30 16194 H 1817.15 3.71951 1.6768 0
M  V30 16195 H 1815.82 4.11623 0.594895 0
M  V30 16196 H 1814.4 3.07867 2.10411 0
M  V30 16197 N 1816.58 -0.233136 1.55866 0
M  V30 16198 C 1817.81 -0.980602 1.82754 0
M  V30 16199 C 1818.23 -1.77624 0.618988 0
M  V30 16200 O 1817.59 -1.76074 -0.432148 0
M  V30 16201 C 1817.64 -1.88319 3.07519 0
M  V30 16202 O 1816.74 -2.97692 2.85401 0
M  V30 16203 H 1816.09 -0.278295 0.602867 0
M  V30 16204 H 1818.62 -0.249956 2.03067 0
M  V30 16205 H 1818.63 -2.29523 3.37318 0
M  V30 16206 H 1817.3 -1.29831 3.95116 0
M  V30 16207 H 1815.88 -2.60517 2.66805 0
M  V30 16208 N 1818.06 -1.49479 -0.499372 0
M  V30 16209 C 1819.31 -1.58734 -1.25092 0
M  V30 16210 C 1819.63 -0.276701 -1.93027 0
M  V30 16211 O 1818.9 0.704058 -1.82811 0
M  V30 16212 H 1817.48 -0.584857 -0.464706 0
M  V30 16213 H 1820.14 -1.86113 -0.578608 0
M  V30 16214 H 1819.24 -2.38422 -2.01399 0
M  V30 16215 N 1819.54 0.750537 -1.38581 0
M  V30 16216 C 1820.49 1.85507 -1.32557 0
M  V30 16217 C 1821.48 1.59533 -0.209275 0
M  V30 16218 O 1822.67 1.71302 -0.445507 0
M  V30 16219 C 1819.8 3.23253 -1.15597 0
M  V30 16220 C 1818.88 3.55107 -2.31862 0
M  V30 16221 N 1819.27 3.57999 -3.5731 0
M  V30 16222 C 1817.57 3.85389 -2.2448 0
M  V30 16223 C 1818.27 3.87207 -4.34103 0
M  V30 16224 N 1817.25 4.04193 -3.63496 0
M  V30 16225 H 1821.05 1.86025 -2.27535 0
M  V30 16226 H 1818.56 0.948038 -1.31856 0
M  V30 16227 H 1820.56 4.023 -1.09365 0
M  V30 16228 H 1819.22 3.23984 -0.215556 0
M  V30 16229 H 1820.23 3.39686 -3.9094 0
M  V30 16230 H 1816.91 3.93817 -1.38615 0
M  V30 16231 H 1818.3 3.96042 -5.42771 0
M  V30 16232 N 1821.02 1.235 0.979051 0
M  V30 16233 C 1822.27 1.0658 1.71713 0
M  V30 16234 C 1822.59 -0.397927 1.90897 0
M  V30 16235 O 1821.86 -1.28511 1.47857 0
M  V30 16236 H 1820.44 0.391397 0.636253 0
M  V30 16237 H 1823.1 1.55239 1.17843 0
M  V30 16238 H 1822.2 1.5548 2.70615 0
M  V30 16239 N 1822.5 -1.17802 1.04693 0
M  V30 16240 C 1823.91 -1.39944 0.76733 0
M  V30 16241 C 1824.11 -1.91051 -0.640451 0
M  V30 16242 O 1823.17 -2.09889 -1.40366 0
M  V30 16243 C 1824.48 -2.39465 1.81871 0
M  V30 16244 C 1826.03 -2.5318 1.84035 0
M  V30 16245 C 1826.51 -3.55971 2.88182 0
M  V30 16246 N 1828 -3.63484 2.87113 0
M  V30 16247 C 1828.73 -4.42762 3.64348 0
M  V30 16248 N 1828.23 -5.25597 4.51353 0
M  V30 16249 N 1830.02 -4.37586 3.52809 0
M  V30 16250 H 1822.17 -0.829567 1.9553 0
M  V30 16251 H 1824.43 -0.427009 0.846385 0
M  V30 16252 H 1824.14 -2.08974 2.82883 0
M  V30 16253 H 1824.01 -3.38899 1.65612 0
M  V30 16254 H 1826.4 -2.82984 0.836908 0
M  V30 16255 H 1826.48 -1.53837 2.04371 0
M  V30 16256 H 1826.13 -3.26906 3.88709 0
M  V30 16257 H 1826.06 -4.55006 2.65099 0
M  V30 16258 H 1828.55 -3.04338 2.24024 0
M  V30 16259 H 1828.86 -5.83258 5.06981 0
M  V30 16260 H 1827.21 -5.24996 4.55417 0
M  V30 16261 H 1830.4 -3.71924 2.84236 0
M  V30 16262 H 1830.57 -4.99128 4.13249 0
M  V30 16263 N 1823.98 -0.827251 -1.34143 0
M  V30 16264 C 1824.91 -0.209663 -2.28239 0
M  V30 16265 C 1825.92 0.602945 -1.51223 0
M  V30 16266 O 1827.11 0.431917 -1.73196 0
M  V30 16267 C 1824.21 0.724345 -3.31069 0
M  V30 16268 C 1823.38 -0.0463812 -4.37375 0
M  V30 16269 C 1822.44 0.809208 -5.19941 0
M  V30 16270 O 1821.47 0.252619 -5.68639 0
M  V30 16271 N 1822.67 2.12835 -5.40075 0
M  V30 16272 H 1825.43 -1.0181 -2.81877 0
M  V30 16273 H 1823 -0.684618 -1.46713 0
M  V30 16274 H 1824.99 1.30143 -3.83204 0
M  V30 16275 H 1823.56 1.43352 -2.77793 0
M  V30 16276 H 1822.78 -0.804793 -3.85897 0
M  V30 16277 H 1824.07 -0.576775 -5.0552 0
M  V30 16278 H 1823.46 2.60423 -5.02191 0
M  V30 16279 H 1822.02 2.65419 -5.95312 0
M  V30 16280 N 1825.45 1.46436 -0.582609 0
M  V30 16281 C 1826.7 2.01986 -0.0680147 0
M  V30 16282 C 1827.02 1.45654 1.29653 0
M  V30 16283 O 1826.29 0.641203 1.85109 0
M  V30 16284 H 1824.87 0.746671 -0.022153 0
M  V30 16285 H 1827.53 1.79541 -0.758367 0
M  V30 16286 H 1826.63 3.121 0.00106001 0
M  V30 16287 N 1826.93 0.320385 1.54309 0
M  V30 16288 C 1828.16 -0.28794 2.05391 0
M  V30 16289 C 1828.58 -1.45249 1.19517 0
M  V30 16290 O 1827.94 -1.80154 0.203556 0
M  V30 16291 C 1827.99 -0.703261 3.53676 0
M  V30 16292 O 1827.09 -1.80598 3.70753 0
M  V30 16293 H 1826.43 -0.052589 0.661914 0
M  V30 16294 H 1828.96 0.46787 1.99179 0
M  V30 16295 H 1828.97 -0.986793 3.95887 0
M  V30 16296 H 1827.65 0.148514 4.15635 0
M  V30 16297 H 1826.22 -1.5215 3.40448 0
M  V30 16298 N 1828.41 -1.57525 0.0484906 0
M  V30 16299 C 1829.66 -1.92204 -0.624654 0
M  V30 16300 C 1829.98 -0.927289 -1.71541 0
M  V30 16301 O 1829.25 0.0282687 -1.9588 0
M  V30 16302 H 1827.83 -0.709494 -0.233724 0
M  V30 16303 H 1830.49 -1.94639 0.100861 0
M  V30 16304 H 1829.59 -2.93368 -1.06498 0
M  V30 16305 N 1829.89 0.224867 -1.55988 0
M  V30 16306 C 1831.11 0.970897 -1.83271 0
M  V30 16307 C 1831.54 1.77293 -0.628399 0
M  V30 16308 O 1830.9 1.76301 0.422804 0
M  V30 16309 C 1830.94 1.86686 -3.08514 0
M  V30 16310 O 1830.05 2.96174 -2.86975 0
M  V30 16311 H 1829.39 0.275093 -0.604334 0
M  V30 16312 H 1831.92 0.239183 -2.03197 0
M  V30 16313 H 1831.93 2.27731 -3.3853 0
M  V30 16314 H 1830.6 1.27733 -3.95799 0
M  V30 16315 H 1829.18 2.59099 -2.68183 0
M  V30 16316 N 1831.37 1.49742 0.491438 0
M  V30 16317 C 1832.61 1.59395 1.24248 0
M  V30 16318 C 1832.93 0.286934 1.92877 0
M  V30 16319 O 1832.2 -0.694353 1.83182 0
M  V30 16320 H 1830.78 0.587313 0.461598 0
M  V30 16321 H 1833.45 1.86417 0.56873 0
M  V30 16322 H 1832.54 2.39487 2.00131 0
M  V30 16323 N 1832.84 -0.743177 1.38977 0
M  V30 16324 C 1833.79 -1.84801 1.33539 0
M  V30 16325 C 1834.78 -1.5942 0.217733 0
M  V30 16326 O 1835.97 -1.71063 0.454585 0
M  V30 16327 C 1833.1 -3.22635 1.1731 0
M  V30 16328 C 1832.19 -3.53872 2.33741 0
M  V30 16329 N 1832.58 -3.56099 3.59204 0
M  V30 16330 C 1830.87 -3.84193 2.26521 0
M  V30 16331 C 1831.58 -3.849 4.3615 0
M  V30 16332 N 1830.55 -4.02259 3.65634 0
M  V30 16333 H 1834.35 -1.84816 2.28518 0
M  V30 16334 H 1831.87 -0.941033 1.32357 0
M  V30 16335 H 1833.86 -4.01714 1.11497 0
M  V30 16336 H 1832.52 -3.23865 0.232735 0
M  V30 16337 H 1833.54 -3.37607 3.92736 0
M  V30 16338 H 1830.21 -3.93077 1.40701 0
M  V30 16339 H 1831.6 -3.93158 5.44863 0
M  V30 16340 N 1834.32 -1.24018 -0.972487 0
M  V30 16341 C 1835.55 -1.10483 -1.75523 0
M  V30 16342 C 1835.97 0.338985 -1.8502 0
M  V30 16343 O 1835.33 1.24534 -1.31761 0
M  V30 16344 C 1835.38 -1.74396 -3.15624 0
M  V30 16345 O 1834.48 -1.01148 -3.99804 0
M  V30 16346 H 1833.82 -0.386777 -0.539722 0
M  V30 16347 H 1836.35 -1.64231 -1.22022 0
M  V30 16348 H 1836.36 -1.79958 -3.66168 0
M  V30 16349 H 1835.04 -2.7945 -3.08026 0
M  V30 16350 H 1833.62 -1.03338 -3.58296 0
M  V30 16351 N 1835.8 1.17245 -1.05316 0
M  V30 16352 C 1837.21 1.69167 -0.789906 0
M  V30 16353 C 1837.56 1.83751 0.687762 0
M  V30 16354 O 1836.69 1.52596 1.53438 0
M  V30 16355 C 1837.28 3.07269 -1.42728 0
M  V30 16356 C 1835.84 3.56352 -1.21204 0
M  V30 16357 C 1834.99 2.3258 -1.51003 0
M  V30 16358 H 1837.94 1.01744 -1.21794 0
M  V30 16359 H 1837.96 3.71175 -0.837236 0
M  V30 16360 H 1837.47 2.96622 -2.50273 0
M  V30 16361 H 1835.57 3.72274 -0.155891 0
M  V30 16362 H 1835.69 4.39038 -1.91787 0
M  V30 16363 H 1834.05 2.37107 -0.930172 0
M  V30 16364 H 1834.83 2.2454 -2.59685 0
M  V30 16365 N 1837.28 0.834353 1.33702 0
M  V30 16366 C 1838.5 0.440268 2.02673 0
M  V30 16367 C 1838.93 -0.949435 1.6238 0
M  V30 16368 O 1838.29 -1.61993 0.814131 0
M  V30 16369 C 1838.33 0.563489 3.5617 0
M  V30 16370 O 1837.44 -0.412093 4.10336 0
M  V30 16371 H 1836.78 0.179609 0.639247 0
M  V30 16372 H 1839.31 1.12794 1.70701 0
M  V30 16373 H 1839.32 0.443464 4.05583 0
M  V30 16374 H 1837.99 1.577 3.84842 0
M  V30 16375 H 1836.57 -0.250001 3.72061 0
M  V30 16376 N 1838.76 -1.46125 0.590367 0
M  V30 16377 C 1840.17 -1.57588 0.252639 0
M  V30 16378 C 1840.37 -1.58435 -1.24502 0
M  V30 16379 O 1839.43 -1.50541 -2.02716 0
M  V30 16380 C 1840.74 -2.86644 0.908612 0
M  V30 16381 C 1842.29 -3.00289 0.882917 0
M  V30 16382 C 1842.76 -4.32092 1.51858 0
M  V30 16383 N 1844.26 -4.38809 1.48327 0
M  V30 16384 C 1844.99 -5.39426 1.94442 0
M  V30 16385 N 1844.49 -6.46674 2.48565 0
M  V30 16386 N 1846.28 -5.30675 1.85313 0
M  V30 16387 H 1838.43 -1.43819 1.56301 0
M  V30 16388 H 1840.69 -0.686515 0.653759 0
M  V30 16389 H 1840.4 -2.91857 1.96246 0
M  V30 16390 H 1840.27 -3.74838 0.421445 0
M  V30 16391 H 1842.66 -2.94653 -0.16233 0
M  V30 16392 H 1842.74 -2.13551 1.40818 0
M  V30 16393 H 1842.39 -4.38486 2.56306 0
M  V30 16394 H 1842.32 -5.17618 0.968474 0
M  V30 16395 H 1844.81 -3.61907 1.08772 0
M  V30 16396 H 1845.12 -7.19671 2.8159 0
M  V30 16397 H 1843.46 -6.47473 2.52595 0
M  V30 16398 H 1846.66 -4.45793 1.42782 0
M  V30 16399 H 1846.83 -6.08943 2.21567 0
M  V30 16400 N 1840.23 -0.328564 -1.54137 0
M  V30 16401 C 1841.48 0.271967 -2.00262 0
M  V30 16402 C 1841.8 1.5226 -1.21827 0
M  V30 16403 O 1841.07 1.93245 -0.321415 0
M  V30 16404 H 1839.65 0.103484 -0.739797 0
M  V30 16405 H 1842.32 -0.446264 -1.89722 0
M  V30 16406 H 1841.41 0.52488 -3.07655 0
M  V30 16407 N 1841.71 1.57497 -0.0568439 0
M  V30 16408 C 1843.13 1.5676 0.299732 0
M  V30 16409 C 1843.33 1.065 1.71056 0
M  V30 16410 O 1842.38 0.72414 2.41893 0
M  V30 16411 C 1843.7 3.00448 0.123023 0
M  V30 16412 C 1845.25 3.124 0.193697 0
M  V30 16413 C 1845.72 4.57977 0.0454499 0
M  V30 16414 N 1847.21 4.63089 0.101543 0
M  V30 16415 C 1847.95 5.73399 0.0110306 0
M  V30 16416 N 1847.44 6.92674 -0.132152 0
M  V30 16417 N 1849.24 5.6206 0.0670216 0
M  V30 16418 H 1841.39 1.88488 -0.979078 0
M  V30 16419 H 1843.65 0.868264 -0.380554 0
M  V30 16420 H 1843.36 3.41276 -0.849919 0
M  V30 16421 H 1843.23 3.66751 0.881672 0
M  V30 16422 H 1845.62 2.71468 1.15712 0
M  V30 16423 H 1845.7 2.48765 -0.595802 0
M  V30 16424 H 1845.34 4.99596 -0.914669 0
M  V30 16425 H 1845.27 5.19626 0.854166 0
M  V30 16426 H 1847.76 3.77309 0.211226 0
M  V30 16427 H 1848.08 7.72557 -0.193769 0
M  V30 16428 H 1846.42 6.94799 -0.167314 0
M  V30 16429 H 1849.61 4.67763 0.177478 0
M  V30 16430 H 1849.78 6.48 -0.00697432 0
M  V30 16431 N 1843.19 -0.216591 1.56105 0
M  V30 16432 C 1844.14 -1.27204 1.89217 0
M  V30 16433 C 1845.12 -1.42048 0.755716 0
M  V30 16434 O 1846.32 -1.4478 1.01822 0
M  V30 16435 C 1843.45 -2.62143 2.21666 0
M  V30 16436 C 1842.53 -2.5118 3.41716 0
M  V30 16437 N 1842.92 -2.09872 4.60203 0
M  V30 16438 C 1841.22 -2.82126 3.45428 0
M  V30 16439 C 1841.92 -2.1028 5.42363 0
M  V30 16440 N 1840.9 -2.50959 4.82204 0
M  V30 16441 H 1844.7 -0.943648 2.78339 0
M  V30 16442 H 1842.21 -0.425133 1.56737 0
M  V30 16443 H 1844.21 -3.38352 2.43565 0
M  V30 16444 H 1842.87 -2.95824 1.3386 0
M  V30 16445 H 1843.88 -1.80924 4.8527 0
M  V30 16446 H 1840.56 -3.20146 2.67979 0
M  V30 16447 H 1841.95 -1.80426 6.47222 0
M  V30 16448 N 1844.67 -1.5 -0.48349 0
M  V30 16449 C 1845.92 -1.60052 -1.23401 0
M  V30 16450 C 1846.24 -0.297159 -1.92723 0
M  V30 16451 O 1845.51 0.684629 -1.83547 0
M  V30 16452 H 1844.09 -0.589753 -0.458477 0
M  V30 16453 H 1846.75 -1.86716 -0.558835 0
M  V30 16454 H 1845.85 -2.40545 -1.98858 0
M  V30 16455 N 1846.15 0.735796 -1.39369 0
M  V30 16456 C 1847.37 1.53013 -1.40007 0
M  V30 16457 C 1847.8 1.881 0.00368376 0
M  V30 16458 O 1847.15 1.51853 0.990469 0
M  V30 16459 C 1847.2 2.79474 -2.27874 0
M  V30 16460 O 1846.31 3.75364 -1.70808 0
M  V30 16461 H 1845.65 0.462117 -0.476806 0
M  V30 16462 H 1848.18 0.907868 -1.83355 0
M  V30 16463 H 1848.19 3.28217 -2.42358 0
M  V30 16464 H 1846.86 2.53268 -3.29891 0
M  V30 16465 H 1845.44 3.34131 -1.65562 0
M  V30 16466 N 1847.63 1.24532 0.965897 0
M  V30 16467 C 1848.87 1.08395 1.70572 0
M  V30 16468 C 1849.19 -0.377657 1.91308 0
M  V30 16469 O 1848.46 -1.26935 1.49212 0
M  V30 16470 H 1847.04 0.398123 0.632066 0
M  V30 16471 H 1849.71 1.5648 1.1619 0
M  V30 16472 H 1848.8 1.58342 2.6895 0
M  V30 16473 N 1849.1 -1.16685 1.05936 0
M  V30 16474 C 1850.03 -2.23129 0.688153 0
M  V30 16475 C 1851.01 -1.67108 -0.31765 0
M  V30 16476 O 1852.2 -1.93233 -0.193578 0
M  V30 16477 C 1849.33 -3.47229 0.069991 0
M  V30 16478 C 1848.28 -4.16121 1.00137 0
M  V30 16479 C 1847.61 -5.34131 0.246699 0
M  V30 16480 C 1848.91 -4.67508 2.32882 0
M  V30 16481 H 1850.6 -2.54436 1.57806 0
M  V30 16482 H 1848.15 -1.22298 0.76021 0
M  V30 16483 H 1850.1 -4.20918 -0.201545 0
M  V30 16484 H 1848.83 -3.15212 -0.854909 0
M  V30 16485 H 1847.49 -3.44355 1.25759 0
M  V30 16486 H 1847.13 -4.98366 -0.681204 0
M  V30 16487 H 1846.83 -5.81163 0.867373 0
M  V30 16488 H 1848.36 -6.10598 -0.0173762 0
M  V30 16489 H 1849.77 -5.32795 2.11666 0
M  V30 16490 H 1848.17 -5.25147 2.90414 0
M  V30 16491 H 1849.24 -3.83912 2.96209 0
M  V30 16492 N 1850.58 -0.841432 -1.33258 0
M  V30 16493 C 1851.83 -0.437512 -1.97307 0
M  V30 16494 C 1852.15 1.00723 -1.66973 0
M  V30 16495 O 1851.42 1.70199 -0.969998 0
M  V30 16496 H 1850 -0.158794 -0.729927 0
M  V30 16497 H 1852.66 -1.07495 -1.62575 0
M  V30 16498 H 1851.76 -0.571675 -3.0682 0
M  V30 16499 N 1852.06 1.4581 -0.598108 0
M  V30 16500 C 1853.01 2.27522 0.147488 0
M  V30 16501 C 1853.99 1.36772 0.847487 0
M  V30 16502 O 1855.19 1.60833 0.739041 0
M  V30 16503 C 1852.31 3.23449 1.15047 0
M  V30 16504 C 1851.4 4.21687 0.451796 0
M  V30 16505 N 1851.79 5.0331 -0.501268 0
M  V30 16506 C 1850.09 4.40463 0.700576 0
M  V30 16507 C 1850.79 5.74521 -0.911055 0
M  V30 16508 N 1849.77 5.42993 -0.256847 0
M  V30 16509 H 1853.57 2.88026 -0.584658 0
M  V30 16510 H 1851.08 1.56847 -0.421055 0
M  V30 16511 H 1853.08 3.80712 1.69894 0
M  V30 16512 H 1851.74 2.64505 1.88327 0
M  V30 16513 H 1852.75 5.10411 -0.877558 0
M  V30 16514 H 1849.43 3.92654 1.41878 0
M  V30 16515 H 1850.82 6.50128 -1.69657 0
M  V30 16516 N 1853.54 0.336733 1.53961 0
M  V30 16517 C 1854.76 -0.26614 2.05685 0
M  V30 16518 C 1855.19 -1.43973 1.21051 0
M  V30 16519 O 1854.55 -1.79928 0.222652 0
M  V30 16520 C 1854.59 -0.66571 3.54402 0
M  V30 16521 O 1853.7 -1.76656 3.72648 0
M  V30 16522 H 1853.04 -0.0455655 0.662435 0
M  V30 16523 H 1855.57 0.488969 1.98671 0
M  V30 16524 H 1855.58 -0.944748 3.96911 0
M  V30 16525 H 1854.25 0.192589 4.15454 0
M  V30 16526 H 1852.83 -1.48531 3.42042 0
M  V30 16527 N 1855.02 -1.57465 0.0651956 0
M  V30 16528 C 1856.24 -1.97975 -0.618099 0
M  V30 16529 C 1856.67 -0.943068 -1.62751 0
M  V30 16530 O 1856.02 0.0921045 -1.81066 0
M  V30 16531 C 1856.07 -3.37533 -1.26902 0
M  V30 16532 O 1855.18 -3.36451 -2.38483 0
M  V30 16533 H 1854.52 -0.644553 -0.159524 0
M  V30 16534 H 1857.05 -2.04136 0.137754 0
M  V30 16535 H 1857.06 -3.74571 -1.61742 0
M  V30 16536 H 1855.73 -4.12518 -0.529334 0
M  V30 16537 H 1854.31 -3.11175 -2.05486 0
M  V30 16538 N 1856.49 0.20831 -1.56217 0
M  V30 16539 C 1857.72 0.951404 -1.84291 0
M  V30 16540 C 1858.14 1.76616 -0.647168 0
M  V30 16541 O 1857.5 1.7674 0.404081 0
M  V30 16542 C 1857.55 1.83403 -3.10477 0
M  V30 16543 O 1856.65 2.93113 -2.90101 0
M  V30 16544 H 1855.99 0.268668 -0.607218 0
M  V30 16545 H 1858.52 0.217618 -2.03439 0
M  V30 16546 H 1858.53 2.24127 -3.40927 0
M  V30 16547 H 1857.21 1.23528 -3.97132 0
M  V30 16548 H 1855.79 2.5624 -2.70916 0
M  V30 16549 N 1857.97 1.50255 0.475528 0
M  V30 16550 C 1858.92 1.65183 1.57158 0
M  V30 16551 C 1859.91 0.506578 1.52717 0
M  V30 16552 O 1861.1 0.760774 1.59816 0
M  V30 16553 C 1858.23 1.74523 2.95629 0
M  V30 16554 C 1857.31 2.94709 3.04971 0
M  V30 16555 N 1857.7 4.1845 2.84137 0
M  V30 16556 C 1856 2.93175 3.36102 0
M  V30 16557 C 1856.7 4.99375 2.98328 0
M  V30 16558 N 1855.68 4.33242 3.28333 0
M  V30 16559 H 1859.48 2.58552 1.39743 0
M  V30 16560 H 1856.99 1.47378 0.682172 0
M  V30 16561 H 1858.99 1.8332 3.74432 0
M  V30 16562 H 1857.65 0.823089 3.14094 0
M  V30 16563 H 1858.66 4.48019 2.59806 0
M  V30 16564 H 1855.34 2.10443 3.60583 0
M  V30 16565 H 1856.73 6.07757 2.86497 0
M  V30 16566 N 1859.45 -0.728395 1.39758 0
M  V30 16567 C 1860.7 -1.48514 1.37069 0
M  V30 16568 C 1861.02 -1.94976 -0.0305263 0
M  V30 16569 O 1860.29 -1.69453 -0.982987 0
M  V30 16570 H 1858.87 -0.550958 0.504434 0
M  V30 16571 H 1861.53 -0.864297 1.74688 0
M  V30 16572 H 1860.63 -2.36411 2.03755 0
M  V30 16573 N 1860.93 -1.25042 -0.959279 0
M  V30 16574 C 1861.86 -1.00807 -2.05841 0
M  V30 16575 C 1862.87 0.0253938 -1.6278 0
M  V30 16576 O 1864.06 -0.212625 -1.77229 0
M  V30 16577 C 1861.16 -0.501088 -3.35175 0
M  V30 16578 C 1860.33 -1.59964 -4.071 0
M  V30 16579 C 1859.39 -1.09383 -5.14705 0
M  V30 16580 O 1858.42 -1.78728 -5.40412 0
M  V30 16581 N 1859.62 0.0673296 -5.80461 0
M  V30 16582 H 1862.39 -1.95446 -2.27203 0
M  V30 16583 H 1859.95 -1.16185 -1.1275 0
M  V30 16584 H 1861.94 -0.147283 -4.04432 0
M  V30 16585 H 1860.51 0.351241 -3.1062 0
M  V30 16586 H 1859.73 -2.12524 -3.32005 0
M  V30 16587 H 1861.02 -2.3378 -4.51912 0
M  V30 16588 H 1860.42 0.646867 -5.61989 0
M  V30 16589 H 1858.97 0.362206 -6.50793 0
M  V30 16590 N 1862.41 1.16121 -1.06553 0
M  V30 16591 C 1863.36 2.1858 -0.6486 0
M  V30 16592 C 1864.34 1.57643 0.322091 0
M  V30 16593 O 1865.53 1.76468 0.137113 0
M  V30 16594 C 1862.66 3.43277 -0.0393328 0
M  V30 16595 C 1861.75 4.11285 -1.03468 0
M  V30 16596 N 1862.14 4.54904 -2.21124 0
M  V30 16597 C 1860.44 4.37508 -0.8662 0
M  V30 16598 C 1861.14 5.07546 -2.84205 0
M  V30 16599 N 1860.11 5.00592 -2.11917 0
M  V30 16600 H 1863.92 2.50024 -1.54483 0
M  V30 16601 H 1861.43 1.32601 -0.937587 0
M  V30 16602 H 1863.43 4.15977 0.277211 0
M  V30 16603 H 1862.09 3.13319 0.852119 0
M  V30 16604 H 1863.1 4.48551 -2.58887 0
M  V30 16605 H 1859.77 4.17491 -0.0269599 0
M  V30 16606 H 1861.16 5.51315 -3.8406 0
M  V30 16607 N 1863.88 0.848487 1.3281 0
M  V30 16608 C 1865.13 0.44797 1.97073 0
M  V30 16609 C 1865.45 -0.998358 1.67505 0
M  V30 16610 O 1864.72 -1.69683 0.97901 0
M  V30 16611 H 1863.3 0.162663 0.729075 0
M  V30 16612 H 1865.97 1.08356 1.62003 0
M  V30 16613 H 1865.06 0.587939 3.06512 0
M  V30 16614 N 1865.36 -1.4549 0.605832 0
M  V30 16615 C 1866.59 -2.07135 0.104838 0
M  V30 16616 C 1867.01 -1.4478 -1.20085 0
M  V30 16617 O 1866.37 -0.539875 -1.73075 0
M  V30 16618 C 1866.42 -3.60593 -0.0231858 0
M  V30 16619 O 1865.52 -3.98173 -1.07386 0
M  V30 16620 H 1864.86 -0.659945 0.0732691 0
M  V30 16621 H 1867.39 -1.8677 0.835343 0
M  V30 16622 H 1867.4 -4.07396 -0.221964 0
M  V30 16623 H 1866.08 -4.05364 0.930211 0
M  V30 16624 H 1864.66 -3.63044 -0.851689 0
M  V30 16625 N 1866.84 -0.344893 -1.5378 0
M  V30 16626 C 1868.09 0.250711 -2.00539 0
M  V30 16627 C 1868.41 1.5096 -1.23435 0
M  V30 16628 O 1867.68 1.92893 -0.341893 0
M  V30 16629 H 1866.26 0.0956318 -0.740853 0
M  V30 16630 H 1868.92 -0.466361 -1.89238 0
M  V30 16631 H 1868.02 0.49222 -3.08194 0
M  V30 16632 N 1868.32 1.57428 -0.0735454 0
M  V30 16633 C 1869.54 1.98301 0.607591 0
M  V30 16634 C 1869.97 0.951686 1.62248 0
M  V30 16635 O 1869.33 -0.0825008 1.81112 0
M  V30 16636 C 1869.37 3.38201 1.2511 0
M  V30 16637 O 1868.48 3.37711 2.36696 0
M  V30 16638 H 1867.82 0.64539 0.156104 0
M  V30 16639 H 1870.35 2.0406 -0.148578 0
M  V30 16640 H 1870.36 3.75424 1.59753 0
M  V30 16641 H 1869.03 4.12793 0.50745 0
M  V30 16642 H 1867.61 3.1226 2.03833 0
M  V30 16643 N 1869.8 -0.200022 1.56326 0
M  V30 16644 C 1871.04 -0.919355 1.79979 0
M  V30 16645 C 1871.37 -1.83997 0.645767 0
M  V30 16646 O 1870.64 -1.92994 -0.336186 0
M  V30 16647 H 1869.22 -0.342469 0.66387 0
M  V30 16648 H 1871.88 -0.206713 1.93801 0
M  V30 16649 H 1870.97 -1.51341 2.72951 0
M  V30 16650 N 1871.27 -1.50505 -0.467553 0
M  V30 16651 C 1872.69 -1.38009 -0.801599 0
M  V30 16652 C 1872.89 -0.43893 -1.96661 0
M  V30 16653 O 1871.95 0.117139 -2.52228 0
M  V30 16654 C 1873.26 -2.79449 -1.11034 0
M  V30 16655 C 1874.81 -2.88389 -1.21659 0
M  V30 16656 C 1875.28 -4.3067 -1.55844 0
M  V30 16657 N 1876.77 -4.33637 -1.62829 0
M  V30 16658 C 1877.51 -5.40727 -1.90791 0
M  V30 16659 N 1877 -6.58021 -2.16751 0
M  V30 16660 N 1878.8 -5.28175 -1.92323 0
M  V30 16661 H 1870.95 -2.10268 0.300165 0
M  V30 16662 H 1873.21 -0.945278 0.0717853 0
M  V30 16663 H 1872.92 -3.50173 -0.327326 0
M  V30 16664 H 1872.79 -3.16911 -2.04566 0
M  V30 16665 H 1875.18 -2.17881 -1.99027 0
M  V30 16666 H 1875.26 -2.54465 -0.260984 0
M  V30 16667 H 1874.9 -5.01716 -0.79014 0
M  V30 16668 H 1874.83 -4.62083 -2.5256 0
M  V30 16669 H 1877.32 -3.49061 -1.44793 0
M  V30 16670 H 1877.64 -7.35442 -2.37371 0
M  V30 16671 H 1875.98 -6.61189 -2.14136 0
M  V30 16672 H 1879.17 -4.35536 -1.71541 0
M  V30 16673 H 1879.35 -6.11721 -2.13779 0
M  V30 16674 N 1872.75 0.720973 -1.40142 0
M  V30 16675 C 1873.98 1.51519 -1.41622 0
M  V30 16676 C 1874.4 1.88093 -0.0162669 0
M  V30 16677 O 1873.76 1.52895 0.974307 0
M  V30 16678 C 1873.81 2.77041 -2.30826 0
M  V30 16679 O 1872.91 3.73532 -1.74779 0
M  V30 16680 H 1872.25 0.457034 -0.481681 0
M  V30 16681 H 1874.78 0.88837 -1.84307 0
M  V30 16682 H 1874.79 3.25628 -2.45826 0
M  V30 16683 H 1873.47 2.49755 -3.32558 0
M  V30 16684 H 1872.05 3.32356 -1.69097 0
M  V30 16685 N 1874.23 1.25549 0.952634 0
M  V30 16686 C 1875.46 1.13262 1.73743 0
M  V30 16687 C 1875.88 -0.309507 1.85536 0
M  V30 16688 O 1875.24 -1.22422 1.33726 0
M  V30 16689 C 1875.29 1.79395 3.12809 0
M  V30 16690 O 1874.39 1.07496 3.98144 0
M  V30 16691 H 1873.73 0.395314 0.5335 0
M  V30 16692 H 1876.26 1.66151 1.19394 0
M  V30 16693 H 1876.27 1.85761 3.63259 0
M  V30 16694 H 1874.95 2.84316 3.03542 0
M  V30 16695 H 1873.52 1.09025 3.56606 0
M  V30 16696 N 1875.71 -1.15554 1.07168 0
M  V30 16697 C 1876.93 -1.90723 0.814832 0
M  V30 16698 C 1877.36 -1.7738 -0.62594 0
M  V30 16699 O 1876.72 -1.10521 -1.43718 0
M  V30 16700 C 1876.76 -3.39137 1.22551 0
M  V30 16701 O 1875.87 -4.1074 0.369677 0
M  V30 16702 H 1875.21 -0.593866 0.297017 0
M  V30 16703 H 1877.74 -1.46348 1.42981 0
M  V30 16704 H 1877.75 -3.89926 1.20089 0
M  V30 16705 H 1876.42 -3.48167 2.27492 0
M  V30 16706 H 1875 -3.70094 0.456626 0
M  V30 16707 N 1877.19 -0.855519 -1.32358 0
M  V30 16708 C 1878.6 -0.545491 -1.49989 0
M  V30 16709 C 1878.8 0.923656 -1.79083 0
M  V30 16710 O 1877.86 1.70664 -1.86091 0
M  V30 16711 C 1879.17 -1.43323 -2.64347 0
M  V30 16712 C 1880.72 -1.43374 -2.78232 0
M  V30 16713 C 1881.2 -2.30671 -3.9567 0
M  V30 16714 N 1882.69 -2.28471 -4.02933 0
M  V30 16715 C 1883.42 -2.92746 -4.93039 0
M  V30 16716 N 1882.92 -3.66136 -5.88147 0
M  V30 16717 N 1884.71 -2.82129 -4.86168 0
M  V30 16718 H 1876.86 -1.80633 -1.11738 0
M  V30 16719 H 1879.12 -0.771568 -0.550805 0
M  V30 16720 H 1878.83 -2.47797 -2.49578 0
M  V30 16721 H 1878.7 -1.12125 -3.6015 0
M  V30 16722 H 1881.09 -0.396641 -2.92422 0
M  V30 16723 H 1881.17 -1.78588 -1.83139 0
M  V30 16724 H 1880.82 -3.3445 -3.82238 0
M  V30 16725 H 1880.75 -1.92789 -4.90041 0
M  V30 16726 H 1883.24 -1.75115 -3.34878 0
M  V30 16727 H 1883.55 -4.12344 -6.536 0
M  V30 16728 H 1881.9 -3.70244 -5.88171 0
M  V30 16729 H 1885.09 -2.24344 -4.10837 0
M  V30 16730 H 1885.26 -3.32502 -5.56189 0
M  V30 16731 N 1878.67 1.45167 -0.61354 0
M  V30 16732 C 1879.91 2.01796 -0.110844 0
M  V30 16733 C 1880.23 1.48372 1.26534 0
M  V30 16734 O 1879.5 0.680323 1.83707 0
M  V30 16735 H 1878.08 0.746034 -0.0379861 0
M  V30 16736 H 1880.75 1.77892 -0.796279 0
M  V30 16737 H 1879.84 3.12032 -0.0651413 0
M  V30 16738 N 1880.14 0.353044 1.53595 0
M  V30 16739 C 1881.55 -0.128852 1.86255 0
M  V30 16740 C 1881.91 -1.49209 1.27402 0
M  V30 16741 O 1881.03 -2.08167 0.591222 0
M  V30 16742 C 1881.63 -0.240583 3.37945 0
M  V30 16743 C 1880.18 -0.66672 3.70448 0
M  V30 16744 C 1879.33 0.193757 2.76622 0
M  V30 16745 H 1882.28 0.5723 1.48022 0
M  V30 16746 H 1882.3 -1.06641 3.65251 0
M  V30 16747 H 1881.82 0.75174 3.8075 0
M  V30 16748 H 1879.92 -1.66773 3.33193 0
M  V30 16749 H 1880.03 -0.450026 4.76982 0
M  V30 16750 H 1878.39 -0.335406 2.52482 0
M  V30 16751 H 1879.18 1.18339 3.22259 0
M  V30 16752 N 1881.62 -1.57387 0.0818932 0
M  V30 16753 C 1882.85 -1.97913 -0.592784 0
M  V30 16754 C 1883.26 -0.959377 -1.63072 0
M  V30 16755 O 1882.6 0.0610095 -1.83599 0
M  V30 16756 C 1882.66 -3.34778 -1.3101 0
M  V30 16757 C 1882.33 -4.55025 -0.424461 0
M  V30 16758 C 1883.33 -5.18902 0.322059 0
M  V30 16759 C 1881.01 -5.01104 -0.346382 0
M  V30 16760 C 1883 -6.27217 1.13478 0
M  V30 16761 C 1880.69 -6.0929 0.469997 0
M  V30 16762 C 1881.69 -6.7221 1.20924 0
M  V30 16763 O 1881.38 -7.78311 2.01213 0
M  V30 16764 H 1881.11 -0.655646 -0.164633 0
M  V30 16765 H 1883.66 -2.04823 0.153877 0
M  V30 16766 H 1881.89 -3.24513 -2.10305 0
M  V30 16767 H 1883.58 -3.59841 -1.87801 0
M  V30 16768 H 1884.35 -4.8424 0.271391 0
M  V30 16769 H 1880.23 -4.51901 -0.91141 0
M  V30 16770 H 1883.77 -6.7626 1.71227 0
M  V30 16771 H 1879.67 -6.43384 0.522194 0
M  V30 16772 H 1880.44 -7.95237 1.93753 0
M  V30 16773 N 1883.1 0.191729 -1.56429 0
M  V30 16774 C 1884.01 1.25798 -1.9802 0
M  V30 16775 C 1885.03 1.49612 -0.888379 0
M  V30 16776 O 1886.2 1.62161 -1.1944 0
M  V30 16777 C 1883.27 2.58158 -2.3142 0
M  V30 16778 C 1882.33 2.42386 -3.54327 0
M  V30 16779 C 1881.56 3.68434 -3.86124 0
M  V30 16780 O 1881.78 4.72747 -3.19165 0
M  V30 16781 O 1880.72 3.63762 -4.79542 0
M  V30 16782 H 1884.54 0.935013 -2.88948 0
M  V30 16783 H 1882.13 0.396996 -1.44029 0
M  V30 16784 H 1884.01 3.36274 -2.53964 0
M  V30 16785 H 1882.69 2.90075 -1.43659 0
M  V30 16786 H 1881.59 1.62369 -3.37027 0
M  V30 16787 H 1882.93 2.154 -4.42565 0
M  V30 16788 N 1884.58 1.50751 0.459565 0
M  V30 16789 C 1885.8 1.66367 1.23842 0
M  V30 16790 C 1886.23 0.351355 1.84789 0
M  V30 16791 O 1885.59 -0.686103 1.67816 0
M  V30 16792 C 1885.63 2.76521 2.31449 0
M  V30 16793 O 1884.74 2.38576 3.36386 0
M  V30 16794 H 1884.08 0.555447 0.363833 0
M  V30 16795 H 1886.61 1.97193 0.545538 0
M  V30 16796 H 1886.62 2.99943 2.76583 0
M  V30 16797 H 1885.29 3.71759 1.86462 0
M  V30 16798 H 1883.87 2.25643 2.96883 0
M  V30 16799 N 1886.06 -0.713531 1.40522 0
M  V30 16800 C 1887.47 -1.02187 1.22597 0
M  V30 16801 C 1887.67 -2.01239 0.102623 0
M  V30 16802 O 1886.73 -2.46684 -0.538822 0
M  V30 16803 C 1888.04 -1.56362 2.56849 0
M  V30 16804 C 1889.59 -1.68337 2.63878 0
M  V30 16805 C 1890.06 -2.25918 3.98403 0
M  V30 16806 N 1891.55 -2.33301 4.00156 0
M  V30 16807 C 1892.29 -2.78842 5.01034 0
M  V30 16808 N 1891.79 -3.24119 6.12306 0
M  V30 16809 N 1893.58 -2.78244 4.88402 0
M  V30 16810 H 1885.73 -0.0570118 2.12323 0
M  V30 16811 H 1887.99 -0.0878906 0.943917 0
M  V30 16812 H 1887.7 -0.910421 3.39712 0
M  V30 16813 H 1887.57 -2.54855 2.78081 0
M  V30 16814 H 1889.96 -2.32773 1.81385 0
M  V30 16815 H 1890.04 -0.684382 2.46475 0
M  V30 16816 H 1889.68 -1.62102 4.81337 0
M  V30 16817 H 1889.61 -3.26534 4.13138 0
M  V30 16818 H 1892.11 -2.01326 3.19807 0
M  V30 16819 H 1892.42 -3.57442 6.85168 0
M  V30 16820 H 1890.76 -3.22073 6.15868 0
M  V30 16821 H 1893.95 -2.42209 4.00565 0
M  V30 16822 H 1894.13 -3.13419 5.67162 0
M  V30 16823 N 1887.53 -1.26053 -0.945962 0
M  V30 16824 C 1888.76 -1.14181 -1.7314 0
M  V30 16825 C 1889.18 0.299663 -1.85698 0
M  V30 16826 O 1888.54 1.21711 -1.34373 0
M  V30 16827 C 1888.59 -1.81052 -3.11854 0
M  V30 16828 O 1887.69 -1.09606 -3.97568 0
M  V30 16829 H 1887.03 -0.398138 -0.531397 0
M  V30 16830 H 1889.56 -1.66782 -1.18511 0
M  V30 16831 H 1889.57 -1.87685 -3.62269 0
M  V30 16832 H 1888.25 -2.85921 -3.0203 0
M  V30 16833 H 1886.83 -1.10915 -3.56023 0
M  V30 16834 N 1889.01 1.14984 -1.07779 0
M  V30 16835 C 1890.26 1.85506 -0.802 0
M  V30 16836 C 1890.58 1.82981 0.674026 0
M  V30 16837 O 1889.85 1.27376 1.48836 0
M  V30 16838 H 1888.43 0.686845 -0.293689 0
M  V30 16839 H 1891.09 1.39368 -1.36244 0
M  V30 16840 H 1890.19 2.90518 -1.14042 0
M  V30 16841 N 1890.49 0.862526 1.31902 0
M  V30 16842 C 1891.44 0.284531 2.26218 0
M  V30 16843 C 1892.42 -0.57415 1.50307 0
M  V30 16844 O 1893.62 -0.422246 1.7189 0
M  V30 16845 C 1890.74 -0.5194 3.39348 0
M  V30 16846 C 1889.83 0.352108 4.22636 0
M  V30 16847 N 1890.22 1.44208 4.84807 0
M  V30 16848 C 1888.52 0.143232 4.4577 0
M  V30 16849 C 1889.22 1.97889 5.47005 0
M  V30 16850 N 1888.2 1.27694 5.28389 0
M  V30 16851 H 1892 1.1177 2.71817 0
M  V30 16852 H 1889.51 0.709483 1.46083 0
M  V30 16853 H 1891.51 -0.94995 4.05933 0
M  V30 16854 H 1890.17 -1.35027 2.95293 0
M  V30 16855 H 1891.18 1.82501 4.84679 0
M  V30 16856 H 1887.86 -0.652289 4.12373 0
M  V30 16857 H 1889.25 2.89298 6.06429 0
M  V30 16858 N 1891.97 -1.4484 0.62123 0
M  V30 16859 C 1893.19 -2.07012 0.126801 0
M  V30 16860 C 1893.62 -1.46046 -1.18542 0
M  V30 16861 O 1892.98 -0.558202 -1.72493 0
M  V30 16862 C 1893.02 -3.60597 0.0150611 0
M  V30 16863 O 1892.13 -3.9929 -1.03157 0
M  V30 16864 H 1891.47 -0.659131 0.0802646 0
M  V30 16865 H 1894 -1.85874 0.855105 0
M  V30 16866 H 1894.01 -4.07608 -0.178742 0
M  V30 16867 H 1892.68 -4.04354 0.973153 0
M  V30 16868 H 1891.26 -3.63927 -0.813135 0
M  V30 16869 N 1893.45 -0.361184 -1.53405 0
M  V30 16870 C 1894.67 0.233383 -2.06083 0
M  V30 16871 C 1895.1 1.42029 -1.23326 0
M  V30 16872 O 1894.45 1.79551 -0.251249 0
M  V30 16873 C 1894.5 0.609243 -3.55416 0
M  V30 16874 O 1893.61 1.70705 -3.75411 0
M  V30 16875 H 1892.95 0.035021 -0.663076 0
M  V30 16876 H 1895.48 -0.520514 -1.97868 0
M  V30 16877 H 1895.49 0.881483 -3.98364 0
M  V30 16878 H 1894.16 -0.25866 -4.15095 0
M  V30 16879 H 1892.74 1.4307 -3.44362 0
M  V30 16880 N 1894.92 1.57341 -0.0902386 0
M  V30 16881 C 1896.17 1.94464 0.575461 0
M  V30 16882 C 1896.5 0.971819 1.68135 0
M  V30 16883 O 1895.78 0.00405665 1.945 0
M  V30 16884 C 1896.06 3.41739 1.13518 0
M  V30 16885 C 1895.91 4.49787 0.0346821 0
M  V30 16886 C 1897.23 3.90222 2.03506 0
M  V30 16887 H 1894.35 0.707123 0.207716 0
M  V30 16888 H 1896.99 1.89325 -0.15996 0
M  V30 16889 H 1895.14 3.46249 1.76192 0
M  V30 16890 H 1896.82 4.5739 -0.599326 0
M  V30 16891 H 1895.06 4.29166 -0.632342 0
M  V30 16892 H 1895.73 5.50021 0.467044 0
M  V30 16893 H 1898.21 3.87834 1.50744 0
M  V30 16894 H 1897.08 4.93846 2.39598 0
M  V30 16895 H 1897.34 3.29232 2.95057 0
M  V30 16896 N 1896.4 -0.183431 1.56529 0
M  V30 16897 C 1897.65 -0.901995 1.81302 0
M  V30 16898 C 1897.98 -1.82765 0.665368 0
M  V30 16899 O 1897.23 -1.92578 -0.348162 0
M  V30 16900 C 1897.53 -1.74055 3.12153 0
M  V30 16901 C 1897.2 -0.964866 4.40456 0
M  V30 16902 C 1895.86 -0.750741 4.75308 0
M  V30 16903 C 1898.21 -0.419915 5.19506 0
M  V30 16904 C 1895.54 0.0196291 5.86697 0
M  V30 16905 C 1897.89 0.337305 6.317 0
M  V30 16906 C 1896.56 0.56234 6.65127 0
M  V30 16907 H 1895.83 -0.330064 0.66343 0
M  V30 16908 H 1898.47 -0.167643 1.90765 0
M  V30 16909 H 1896.78 -2.54393 2.97979 0
M  V30 16910 H 1898.47 -2.29935 3.28528 0
M  V30 16911 H 1895.06 -1.14178 4.13112 0
M  V30 16912 H 1899.25 -0.572714 4.92984 0
M  V30 16913 H 1894.5 0.203838 6.1106 0
M  V30 16914 H 1898.68 0.766889 6.92165 0
M  V30 16915 H 1896.31 1.16117 7.51279 0
M  V30 16916 N 1897.88 -1.50992 -0.451564 0
M  V30 16917 C 1899.13 -1.62633 -1.19978 0
M  V30 16918 C 1899.45 -0.337971 -1.92049 0
M  V30 16919 O 1898.72 0.645542 -1.84958 0
M  V30 16920 H 1897.3 -0.599345 -0.445864 0
M  V30 16921 H 1899.96 -1.8786 -0.519104 0
M  V30 16922 H 1899.06 -2.44709 -1.93711 0
M  V30 16923 N 1899.36 0.706069 -1.40899 0
M  V30 16924 C 1900.29 1.83119 -1.37841 0
M  V30 16925 C 1901.3 1.60335 -0.282253 0
M  V30 16926 O 1902.49 1.70032 -0.543263 0
M  V30 16927 C 1899.59 3.19696 -1.12461 0
M  V30 16928 C 1898.77 3.69598 -2.33915 0
M  V30 16929 C 1897.82 4.84815 -2.04551 0
M  V30 16930 O 1896.85 4.96973 -2.775 0
M  V30 16931 N 1898.05 5.71302 -1.0293 0
M  V30 16932 H 1900.82 1.86237 -2.34811 0
M  V30 16933 H 1898.38 0.887984 -1.35375 0
M  V30 16934 H 1900.37 3.94386 -0.90786 0
M  V30 16935 H 1898.94 3.11668 -0.241258 0
M  V30 16936 H 1898.16 2.85933 -2.7136 0
M  V30 16937 H 1899.45 3.99674 -3.14862 0
M  V30 16938 H 1898.85 5.64099 -0.425314 0
M  V30 16939 H 1897.4 6.45935 -0.872446 0
M  V30 16940 N 1900.84 1.26553 0.939264 0
M  V30 16941 C 1901.79 1.04944 2.02412 0
M  V30 16942 C 1902.77 -0.0188072 1.60889 0
M  V30 16943 O 1903.96 0.198373 1.75885 0
M  V30 16944 C 1901.09 0.686442 3.36367 0
M  V30 16945 C 1900.18 1.79224 3.84369 0
M  V30 16946 N 1900.57 3.02998 4.05001 0
M  V30 16947 C 1898.87 1.67628 4.133 0
M  V30 16948 C 1899.57 3.7488 4.44792 0
M  V30 16949 N 1898.54 3.02578 4.51605 0
M  V30 16950 H 1902.35 1.98891 2.16379 0
M  V30 16951 H 1899.86 1.17098 1.12525 0
M  V30 16952 H 1901.86 0.512782 4.13734 0
M  V30 16953 H 1900.52 -0.245528 3.2377 0
M  V30 16954 H 1901.53 3.38883 3.91636 0
M  V30 16955 H 1898.2 0.814344 4.09481 0
M  V30 16956 H 1899.59 4.812 4.68931 0
M  V30 16957 N 1902.31 -1.14411 1.08387 0
M  V30 16958 C 1903.22 -2.23103 0.725418 0
M  V30 16959 C 1904.24 -1.71924 -0.26799 0
M  V30 16960 O 1905.42 -2.01088 -0.111986 0
M  V30 16961 C 1902.48 -3.46418 0.139915 0
M  V30 16962 C 1901.54 -4.12537 1.18791 0
M  V30 16963 C 1900.78 -5.29966 0.630252 0
M  V30 16964 O 1901 -5.67739 -0.550335 0
M  V30 16965 O 1899.93 -5.85862 1.38021 0
M  V30 16966 H 1903.76 -2.56116 1.63213 0
M  V30 16967 H 1901.34 -1.22338 0.857538 0
M  V30 16968 H 1903.23 -4.20999 -0.18381 0
M  V30 16969 H 1901.9 -3.15129 -0.739957 0
M  V30 16970 H 1900.81 -3.39831 1.56416 0
M  V30 16971 H 1902.14 -4.47932 2.04005 0
M  V30 16972 N 1903.79 -0.869509 -1.31443 0
M  V30 16973 C 1905.02 -0.493849 -2.01435 0
M  V30 16974 C 1905.44 0.906049 -1.6484 0
M  V30 16975 O 1904.8 1.59777 -0.856794 0
M  V30 16976 C 1904.85 -0.657723 -3.54551 0
M  V30 16977 O 1903.95 0.303155 -4.11284 0
M  V30 16978 H 1903.29 -0.196494 -0.63426 0
M  V30 16979 H 1905.82 -1.1728 -1.6765 0
M  V30 16980 H 1905.83 -0.550841 -4.04264 0
M  V30 16981 H 1904.51 -1.67848 -3.80526 0
M  V30 16982 H 1903.09 0.151268 -3.72593 0
M  V30 16983 N 1905.27 1.44508 -0.628902 0
M  V30 16984 C 1906.52 2.01667 -0.13224 0
M  V30 16985 C 1906.84 1.49706 1.24953 0
M  V30 16986 O 1906.11 0.699769 1.82976 0
M  V30 16987 H 1904.69 0.745589 -0.0458966 0
M  V30 16988 H 1907.35 1.77037 -0.815102 0
M  V30 16989 H 1906.45 3.11945 -0.0982328 0
M  V30 16990 N 1906.75 0.369315 1.53212 0
M  V30 16991 C 1907.97 -0.222451 2.06204 0
M  V30 16992 C 1908.4 -1.41373 1.24077 0
M  V30 16993 O 1907.76 -1.79415 0.260767 0
M  V30 16994 C 1907.81 -0.590386 3.55734 0
M  V30 16995 O 1906.91 -1.68711 3.76311 0
M  V30 16996 H 1906.25 -0.0315041 0.663252 0
M  V30 16997 H 1908.78 0.531 1.97589 0
M  V30 16998 H 1908.79 -0.860345 3.98826 0
M  V30 16999 H 1907.47 0.28067 4.14952 0
M  V30 17000 H 1906.04 -1.41242 3.45116 0
M  V30 17001 N 1908.23 -1.57291 0.0985816 0
M  V30 17002 C 1909.48 -1.94094 -0.563189 0
M  V30 17003 C 1909.8 -0.981394 -1.68504 0
M  V30 17004 O 1909.07 -0.0340632 -1.9587 0
M  V30 17005 H 1907.65 -0.716571 -0.211033 0
M  V30 17006 H 1910.31 -1.94219 0.162732 0
M  V30 17007 H 1909.4 -2.96607 -0.971113 0
M  V30 17008 N 1909.71 0.175127 -1.56624 0
M  V30 17009 C 1910.66 1.22142 -1.92523 0
M  V30 17010 C 1911.64 1.39995 -0.793112 0
M  V30 17011 O 1912.83 1.4203 -1.05625 0
M  V30 17012 C 1909.96 2.56174 -2.28538 0
M  V30 17013 C 1909.05 2.42031 -3.48255 0
M  V30 17014 N 1909.44 1.97597 -4.65606 0
M  V30 17015 C 1907.74 2.72869 -3.52787 0
M  V30 17016 C 1908.44 1.95826 -5.47747 0
M  V30 17017 N 1907.41 2.38086 -4.88688 0
M  V30 17018 H 1911.21 0.869519 -2.80743 0
M  V30 17019 H 1908.73 0.383427 -1.57809 0
M  V30 17020 H 1910.73 3.31775 -2.5245 0
M  V30 17021 H 1909.39 2.92171 -1.41656 0
M  V30 17022 H 1910.4 1.67994 -4.89896 0
M  V30 17023 H 1907.07 3.12929 -2.76373 0
M  V30 17024 H 1908.46 1.63202 -6.51778 0
M  V30 17025 N 1911.18 1.5123 0.44355 0
M  V30 17026 C 1912.41 1.67671 1.2207 0
M  V30 17027 C 1912.83 0.370934 1.84406 0
M  V30 17028 O 1912.19 -0.668265 1.68535 0
M  V30 17029 C 1912.24 2.7896 2.28503 0
M  V30 17030 O 1911.34 2.4213 3.33837 0
M  V30 17031 H 1910.68 0.559275 0.357921 0
M  V30 17032 H 1913.21 1.9776 0.524592 0
M  V30 17033 H 1913.22 3.0286 2.73386 0
M  V30 17034 H 1911.9 3.73716 1.82509 0
M  V30 17035 H 1910.48 2.28779 2.94473 0
M  V30 17036 N 1912.66 -0.698586 1.41271 0
M  V30 17037 C 1913.89 -1.49247 1.44014 0
M  V30 17038 C 1914.31 -1.88043 0.0461888 0
M  V30 17039 O 1913.67 -1.54426 -0.94986 0
M  V30 17040 C 1913.72 -2.73334 2.35204 0
M  V30 17041 O 1912.82 -3.70704 1.807 0
M  V30 17042 H 1912.16 -0.449313 0.488891 0
M  V30 17043 H 1914.69 -0.858936 1.85697 0
M  V30 17044 H 1914.7 -3.21676 2.50975 0
M  V30 17045 H 1913.38 -2.44433 3.3649 0
M  V30 17046 H 1911.95 -3.29624 1.74363 0
M  V30 17047 N 1914.14 -1.27049 -0.93254 0
M  V30 17048 C 1915.1 -1.09404 -2.01404 0
M  V30 17049 C 1916.1 -0.0395757 -1.60751 0
M  V30 17050 O 1917.29 -0.283746 -1.71874 0
M  V30 17051 C 1914.42 -0.665948 -3.34332 0
M  V30 17052 H 1915.62 -2.05434 -2.18488 0
M  V30 17053 H 1913.17 -1.09768 -1.11268 0
M  V30 17054 H 1913.91 0.295952 -3.22947 0
M  V30 17055 H 1913.69 -1.42745 -3.65194 0
M  V30 17056 H 1915.18 -0.564591 -4.13766 0
M  V30 17057 N 1915.62 1.13835 -1.08993 0
M  V30 17058 C 1916.85 1.88588 -0.843698 0
M  V30 17059 C 1917.26 1.79154 0.608307 0
M  V30 17060 O 1916.6 1.1529 1.43017 0
M  V30 17061 C 1916.66 3.39079 -1.19438 0
M  V30 17062 C 1916.32 3.72295 -2.65038 0
M  V30 17063 C 1917.32 3.71911 -3.63288 0
M  V30 17064 C 1915.01 4.0209 -3.01046 0
M  V30 17065 C 1917 4.00855 -4.95574 0
M  V30 17066 C 1914.69 4.30697 -4.33525 0
M  V30 17067 C 1915.69 4.30063 -5.30598 0
M  V30 17068 O 1915.37 4.57972 -6.60694 0
M  V30 17069 H 1915.11 0.60402 -0.303539 0
M  V30 17070 H 1917.66 1.45055 -1.45424 0
M  V30 17071 H 1915.89 3.83094 -0.526861 0
M  V30 17072 H 1917.58 3.95149 -0.928011 0
M  V30 17073 H 1918.34 3.48972 -3.36814 0
M  V30 17074 H 1914.22 4.01733 -2.26123 0
M  V30 17075 H 1917.77 4.00276 -5.71336 0
M  V30 17076 H 1913.66 4.53106 -4.59745 0
M  V30 17077 H 1914.43 4.75661 -6.661 0
M  V30 17078 N 1917.1 0.876467 1.3098 0
M  V30 17079 C 1918.32 0.504524 2.0117 0
M  V30 17080 C 1918.75 -0.897295 1.65319 0
M  V30 17081 O 1918.1 -1.59321 0.865255 0
M  V30 17082 C 1918.15 0.676516 3.54197 0
M  V30 17083 O 1917.26 -0.28134 4.11439 0
M  V30 17084 H 1916.6 0.199855 0.633209 0
M  V30 17085 H 1919.13 1.18167 1.67026 0
M  V30 17086 H 1919.14 0.572273 4.03967 0
M  V30 17087 H 1917.81 1.69864 3.7963 0
M  V30 17088 H 1916.39 -0.131506 3.72668 0
M  V30 17089 N 1918.57 -1.44173 0.636557 0
M  V30 17090 C 1919.51 -2.28966 -0.103602 0
M  V30 17091 C 1920.52 -1.41586 -0.80357 0
M  V30 17092 O 1921.71 -1.65686 -0.66411 0
M  V30 17093 C 1918.81 -3.18095 -1.16913 0
M  V30 17094 C 1917.98 -4.33921 -0.550607 0
M  V30 17095 C 1917.04 -5.04044 -1.51081 0
M  V30 17096 O 1916.07 -5.59879 -1.02585 0
M  V30 17097 N 1917.27 -5.05999 -2.84509 0
M  V30 17098 H 1920.03 -2.93129 0.624119 0
M  V30 17099 H 1917.59 -1.54679 0.478112 0
M  V30 17100 H 1919.59 -3.61872 -1.81193 0
M  V30 17101 H 1918.16 -2.55645 -1.79902 0
M  V30 17102 H 1917.38 -3.93268 0.27093 0
M  V30 17103 H 1918.66 -5.08663 -0.118116 0
M  V30 17104 H 1918.06 -4.61978 -3.26486 0
M  V30 17105 H 1916.62 -5.53547 -3.44135 0
M  V30 17106 N 1920.05 -0.377435 -1.53014 0
M  V30 17107 C 1921 0.480105 -2.22888 0
M  V30 17108 C 1921.99 1.0392 -1.22839 0
M  V30 17109 O 1923.18 0.967277 -1.48232 0
M  V30 17110 C 1920.31 1.61312 -3.0304 0
M  V30 17111 C 1919.39 1.06633 -4.10476 0
M  V30 17112 N 1919.78 0.243501 -5.05214 0
M  V30 17113 C 1918.08 1.33999 -4.25394 0
M  V30 17114 C 1918.78 -0.0572358 -5.81672 0
M  V30 17115 N 1917.76 0.543562 -5.40876 0
M  V30 17116 H 1921.56 -0.155223 -2.9349 0
M  V30 17117 H 1919.07 -0.18609 -1.6133 0
M  V30 17118 H 1921.07 2.23975 -3.51626 0
M  V30 17119 H 1919.73 2.25138 -2.33972 0
M  V30 17120 H 1920.74 -0.118276 -5.17765 0
M  V30 17121 H 1917.42 1.98017 -3.67553 0
M  V30 17122 H 1918.81 -0.72317 -6.67997 0
M  V30 17123 N 1921.53 1.57237 -0.106922 0
M  V30 17124 C 1922.78 1.9439 0.552888 0
M  V30 17125 C 1923.1 0.990316 1.67981 0
M  V30 17126 O 1922.37 0.0444502 1.9585 0
M  V30 17127 H 1920.95 0.71768 0.20723 0
M  V30 17128 H 1923.61 1.9413 -0.17303 0
M  V30 17129 H 1922.71 2.97118 0.955369 0
M  V30 17130 N 1923.01 -0.166818 1.56715 0
M  V30 17131 C 1924.23 -0.902208 1.86748 0
M  V30 17132 C 1924.66 -1.74838 0.693767 0
M  V30 17133 O 1924.02 -1.77749 -0.35708 0
M  V30 17134 C 1924.06 -1.75107 3.1523 0
M  V30 17135 O 1923.17 -2.85319 2.9777 0
M  V30 17136 H 1922.51 -0.252474 0.614128 0
M  V30 17137 H 1925.04 -0.163603 2.03945 0
M  V30 17138 H 1925.05 -2.15009 3.46749 0
M  V30 17139 H 1923.72 -1.12955 4.00267 0
M  V30 17140 H 1922.3 -2.48967 2.77615 0
M  V30 17141 N 1924.49 -1.51463 -0.435524 0
M  V30 17142 C 1925.73 -1.63897 -1.18247 0
M  V30 17143 C 1926.06 -0.358322 -1.9168 0
M  V30 17144 O 1925.33 0.625888 -1.85633 0
M  V30 17145 H 1923.91 -0.60404 -0.439482 0
M  V30 17146 H 1926.57 -1.884 -0.49915 0
M  V30 17147 H 1925.66 -2.46749 -1.91105 0
M  V30 17148 N 1925.96 0.691085 -1.4164 0
M  V30 17149 C 1927.19 1.48481 -1.44804 0
M  V30 17150 C 1927.61 1.88016 -0.0561606 0
M  V30 17151 O 1926.97 1.54927 0.941657 0
M  V30 17152 C 1927.02 2.72083 -2.3665 0
M  V30 17153 O 1926.12 3.6974 -1.82663 0
M  V30 17154 H 1925.47 0.446714 -0.491267 0
M  V30 17155 H 1928 0.849076 -1.8615 0
M  V30 17156 H 1928.01 3.2034 -2.52678 0
M  V30 17157 H 1926.68 2.42645 -3.37781 0
M  V30 17158 H 1925.26 3.28695 -1.76108 0
M  V30 17159 N 1927.44 1.27542 0.925789 0
M  V30 17160 C 1928.69 1.13767 1.67038 0
M  V30 17161 C 1929.01 -0.316603 1.92413 0
M  V30 17162 O 1928.28 -1.22124 1.53175 0
M  V30 17163 H 1926.86 0.41803 0.61908 0
M  V30 17164 H 1929.52 1.60097 1.11153 0
M  V30 17165 H 1928.62 1.66818 2.63777 0
M  V30 17166 N 1928.92 -1.13255 1.09595 0
M  V30 17167 C 1929.87 -2.16783 0.706325 0
M  V30 17168 C 1930.85 -1.58442 -0.280181 0
M  V30 17169 O 1932.05 -1.7677 -0.0902771 0
M  V30 17170 C 1929.18 -3.43053 0.130333 0
M  V30 17171 C 1928.26 -4.08397 1.14336 0
M  V30 17172 N 1928.65 -4.48881 2.33107 0
M  V30 17173 C 1926.95 -4.35057 0.981893 0
M  V30 17174 C 1927.65 -4.99832 2.97562 0
M  V30 17175 N 1926.63 -4.94797 2.25115 0
M  V30 17176 H 1930.43 -2.45841 1.61058 0
M  V30 17177 H 1927.94 -1.30069 0.972415 0
M  V30 17178 H 1929.94 -4.16566 -0.166824 0
M  V30 17179 H 1928.6 -3.15468 -0.768749 0
M  V30 17180 H 1929.61 -4.4153 2.70688 0
M  V30 17181 H 1926.29 -4.17273 0.137641 0
M  V30 17182 H 1927.68 -5.40938 3.98542 0
M  V30 17183 N 1930.4 -0.883401 -1.30514 0
M  V30 17184 C 1931.65 -0.501052 -1.96203 0
M  V30 17185 C 1931.97 0.949454 -1.69752 0
M  V30 17186 O 1931.23 1.68571 -0.994097 0
M  V30 17187 C 1931.53 -0.720655 -3.50059 0
M  V30 17188 C 1931.19 -2.146 -3.96557 0
M  V30 17189 C 1929.86 -2.53577 -4.08964 0
M  V30 17190 C 1932.21 -3.07496 -4.20827 0
M  V30 17191 C 1929.54 -3.84664 -4.43002 0
M  V30 17192 C 1931.89 -4.38113 -4.56333 0
M  V30 17193 C 1930.55 -4.76985 -4.66949 0
M  V30 17194 H 1929.82 -0.183348 -0.717959 0
M  V30 17195 H 1932.47 -1.11895 -1.55408 0
M  V30 17196 H 1930.77 -0.0197082 -3.91795 0
M  V30 17197 H 1932.47 -0.404442 -3.98955 0
M  V30 17198 H 1929.06 -1.83345 -3.87405 0
M  V30 17199 H 1933.24 -2.78604 -4.10723 0
M  V30 17200 H 1928.5 -4.14526 -4.4942 0
M  V30 17201 H 1932.67 -5.10133 -4.74064 0
M  V30 17202 H 1930.3 -5.786 -4.93079 0
M  V30 17203 N 1931.88 1.43833 -0.644194 0
M  V30 17204 C 1933.12 2.03793 -0.157409 0
M  V30 17205 C 1933.48 1.49666 1.20267 0
M  V30 17206 O 1934.68 2.01212 1.78233 0
M  V30 17207 C 1932.95 3.57053 -0.157514 0
M  V30 17208 S 1934.51 4.38013 0.262743 0
M  V30 17209 H 1931.33 0.707788 -0.0675047 0
M  V30 17210 H 1933.93 1.7603 -0.85051 0
M  V30 17211 H 1932.64 3.9395 -1.15027 0
M  V30 17212 H 1932.17 3.89445 0.556416 0
M  V30 17213 H 1934.18 4.72863 1.50384 0
M  V30 17214 N 1933.35 0.385544 1.52811 0
M  V30 17215 C 1934.58 -0.200568 2.06428 0
M  V30 17216 C 1935 -1.40049 1.2557 0
M  V30 17217 O 1934.36 -1.79128 0.279782 0
M  V30 17218 C 1934.41 -0.552623 3.5634 0
M  V30 17219 O 1933.51 -1.64711 3.7808 0
M  V30 17220 H 1932.86 -0.0244676 0.663549 0
M  V30 17221 H 1935.39 0.551927 1.97015 0
M  V30 17222 H 1935.4 -0.817996 3.99716 0
M  V30 17223 H 1934.07 0.324665 4.14631 0
M  V30 17224 H 1932.65 -1.37574 3.46595 0
M  V30 17225 N 1934.83 -1.57178 0.115259 0
M  V30 17226 C 1935.76 -2.1218 -0.866728 0
M  V30 17227 C 1936.78 -1.06365 -1.23249 0
M  V30 17228 O 1937.97 -1.33749 -1.18209 0
M  V30 17229 C 1935.07 -2.60337 -2.16975 0
M  V30 17230 C 1934.24 -3.90209 -1.97625 0
M  V30 17231 C 1933.3 -4.24003 -3.11622 0
M  V30 17232 O 1932.32 -4.92884 -2.847 0
M  V30 17233 N 1933.53 -3.81022 -4.37953 0
M  V30 17234 H 1936.29 -2.97061 -0.396835 0
M  V30 17235 H 1933.85 -1.61752 -0.0692734 0
M  V30 17236 H 1935.84 -2.79976 -2.92225 0
M  V30 17237 H 1934.41 -1.80356 -2.55324 0
M  V30 17238 H 1933.63 -3.79516 -1.06589 0
M  V30 17239 H 1934.92 -4.75137 -1.81996 0
M  V30 17240 H 1934.32 -3.25459 -4.62702 0
M  V30 17241 H 1932.88 -4.05777 -5.10086 0
M  V30 17242 N 1936.31 0.158505 -1.56801 0
M  V30 17243 C 1937.56 0.871313 -1.82353 0
M  V30 17244 C 1937.88 1.8222 -0.694324 0
M  V30 17245 O 1937.15 1.93817 0.284899 0
M  V30 17246 H 1935.73 0.324747 -0.672717 0
M  V30 17247 H 1938.39 0.155257 -1.94281 0
M  V30 17248 H 1937.49 1.44051 -2.76868 0
M  V30 17249 N 1937.79 1.51692 0.427485 0
M  V30 17250 C 1938.72 1.69922 1.53816 0
M  V30 17251 C 1939.73 0.579757 1.52127 0
M  V30 17252 O 1940.92 0.854377 1.56725 0
M  V30 17253 C 1938.02 1.70772 2.92729 0
M  V30 17254 C 1937.2 2.99461 3.18813 0
M  V30 17255 C 1936.26 2.92367 4.37502 0
M  V30 17256 O 1935.28 3.663 4.35675 0
M  V30 17257 N 1936.48 2.08893 5.41612 0
M  V30 17258 H 1939.25 2.65737 1.38578 0
M  V30 17259 H 1936.81 1.497 0.616555 0
M  V30 17260 H 1938.8 1.63581 3.70167 0
M  V30 17261 H 1937.37 0.825087 3.01515 0
M  V30 17262 H 1936.59 3.20444 2.29585 0
M  V30 17263 H 1937.88 3.84629 3.33074 0
M  V30 17264 H 1937.28 1.48221 5.45937 0
M  V30 17265 H 1935.83 2.07575 6.17864 0
M  V30 17266 N 1939.27 -0.683564 1.42004 0
M  V30 17267 C 1940.22 -1.78971 1.41257 0
M  V30 17268 C 1941.2 -1.58353 0.285152 0
M  V30 17269 O 1942.39 -1.68981 0.52673 0
M  V30 17270 C 1939.52 -3.17369 1.30888 0
M  V30 17271 C 1938.61 -3.4364 2.4854 0
M  V30 17272 N 1939 -3.40543 3.73984 0
M  V30 17273 C 1937.3 -3.7424 2.42612 0
M  V30 17274 C 1938 -3.66055 4.52083 0
M  V30 17275 N 1936.97 -3.8639 3.82366 0
M  V30 17276 H 1940.78 -1.74957 2.36151 0
M  V30 17277 H 1938.29 -0.884049 1.36229 0
M  V30 17278 H 1940.29 -3.96623 1.28435 0
M  V30 17279 H 1938.95 -3.22586 0.369887 0
M  V30 17280 H 1939.96 -3.20646 4.06702 0
M  V30 17281 H 1936.64 -3.86755 1.57246 0
M  V30 17282 H 1938.03 -3.69695 5.61048 0
M  V30 17283 N 1940.75 -1.28031 -0.919012 0
M  V30 17284 C 1941.99 -1.14651 -1.66432 0
M  V30 17285 C 1942.31 0.306395 -1.92578 0
M  V30 17286 O 1941.58 1.2131 -1.5382 0
M  V30 17287 H 1940.16 -0.421307 -0.616854 0
M  V30 17288 H 1942.83 -1.60684 -1.10302 0
M  V30 17289 H 1941.92 -1.68214 -2.62888 0
M  V30 17290 N 1942.22 1.12672 -1.10194 0
M  V30 17291 C 1943.45 1.88496 -0.865112 0
M  V30 17292 C 1943.87 1.78977 0.578691 0
M  V30 17293 O 1943.23 1.14292 1.40737 0
M  V30 17294 C 1943.28 3.35768 -1.315 0
M  V30 17295 O 1942.38 4.09615 -0.478447 0
M  V30 17296 H 1941.72 0.585782 -0.312658 0
M  V30 17297 H 1944.25 1.42506 -1.46811 0
M  V30 17298 H 1944.26 3.86605 -1.30385 0
M  V30 17299 H 1942.94 3.42013 -2.36643 0
M  V30 17300 H 1941.52 3.68753 -0.554589 0
M  V30 17301 N 1943.7 0.89031 1.30043 0
M  V30 17302 C 1944.93 0.526566 2.00087 0
M  V30 17303 C 1945.34 -0.88632 1.66703 0
M  V30 17304 O 1944.7 -1.58365 0.907012 0
M  V30 17305 C 1944.75 0.698102 3.54695 0
M  V30 17306 O 1944.47 2.05537 3.86893 0
M  V30 17307 C 1945.97 0.338058 4.42009 0
M  V30 17308 H 1943.19 0.20299 0.639559 0
M  V30 17309 H 1945.74 1.19708 1.65802 0
M  V30 17310 H 1943.89 0.0748931 3.87328 0
M  V30 17311 H 1944.31 2.07787 4.81586 0
M  V30 17312 H 1945.78 0.508957 5.49649 0
M  V30 17313 H 1946.26 -0.724284 4.33187 0
M  V30 17314 H 1946.86 0.937813 4.14831 0
M  V30 17315 N 1945.18 -1.43489 0.651812 0
M  V30 17316 C 1946.4 -2.06696 0.170683 0
M  V30 17317 C 1946.83 -1.48527 -1.15418 0
M  V30 17318 O 1946.19 -0.594665 -1.7127 0
M  V30 17319 C 1946.24 -3.60484 0.0915457 0
M  V30 17320 O 1945.34 -4.01388 -0.946644 0
M  V30 17321 H 1944.68 -0.65728 0.0942276 0
M  V30 17322 H 1947.21 -1.84018 0.89434 0
M  V30 17323 H 1947.22 -4.07896 -0.0922419 0
M  V30 17324 H 1945.9 -4.02199 1.0587 0
M  V30 17325 H 1944.47 -3.65569 -0.735758 0
M  V30 17326 N 1946.66 -0.393643 -1.52605 0
M  V30 17327 C 1947.91 0.186784 -2.01235 0
M  V30 17328 C 1948.23 1.46956 -1.28175 0
M  V30 17329 O 1947.5 1.91708 -0.403088 0
M  V30 17330 H 1946.08 0.0720137 -0.743521 0
M  V30 17331 H 1948.74 -0.52633 -1.87659 0
M  V30 17332 H 1947.83 0.393921 -3.09604 0
M  V30 17333 N 1948.14 1.57115 -0.123593 0
M  V30 17334 C 1949.07 2.12637 0.855463 0
M  V30 17335 C 1950.08 1.07017 1.22683 0
M  V30 17336 O 1951.27 1.34374 1.17498 0
M  V30 17337 C 1948.37 2.61484 2.15591 0
M  V30 17338 C 1947.54 3.91252 1.95553 0
M  V30 17339 C 1946.6 4.25649 3.09369 0
M  V30 17340 O 1945.63 4.94387 2.82082 0
M  V30 17341 N 1946.83 3.83339 4.35926 0
M  V30 17342 H 1949.59 2.97267 0.381076 0
M  V30 17343 H 1947.16 1.61786 0.0606943 0
M  V30 17344 H 1949.15 2.81522 2.90736 0
M  V30 17345 H 1947.72 1.81708 2.54364 0
M  V30 17346 H 1946.94 3.80076 1.04575 0
M  V30 17347 H 1948.23 4.76095 1.79474 0
M  V30 17348 H 1947.62 3.27908 4.6097 0
M  V30 17349 H 1946.18 4.08477 5.07927 0
M  V30 17350 N 1949.61 -0.150187 1.56883 0
M  V30 17351 C 1950.84 -0.88235 1.87695 0
M  V30 17352 C 1951.26 -1.74093 0.712272 0
M  V30 17353 O 1950.62 -1.78118 -0.338207 0
M  V30 17354 C 1950.67 -1.71754 3.1707 0
M  V30 17355 O 1949.77 -2.82145 3.00779 0
M  V30 17356 H 1949.11 -0.245947 0.616771 0
M  V30 17357 H 1951.64 -0.141963 2.04107 0
M  V30 17358 H 1951.65 -2.1132 3.4901 0
M  V30 17359 H 1950.33 -1.08704 4.01443 0
M  V30 17360 H 1948.91 -2.46008 2.8024 0
M  V30 17361 N 1951.09 -1.51916 -0.419434 0
M  V30 17362 C 1952.32 -1.69592 -1.19387 0
M  V30 17363 C 1952.74 -0.400225 -1.83793 0
M  V30 17364 O 1952.1 0.641368 -1.69576 0
M  V30 17365 C 1952.15 -2.8256 -2.24036 0
M  V30 17366 O 1951.25 -2.4741 -3.29942 0
M  V30 17367 H 1950.59 -0.564898 -0.348978 0
M  V30 17368 H 1953.12 -1.9857 -0.493064 0
M  V30 17369 H 1953.13 -3.07171 -2.68533 0
M  V30 17370 H 1951.81 -3.76572 -1.7654 0
M  V30 17371 H 1950.39 -2.33435 -2.90796 0
M  V30 17372 N 1952.57 0.676023 -1.42365 0
M  V30 17373 C 1953.8 1.46436 -1.46164 0
M  V30 17374 C 1954.21 1.8866 -0.0726092 0
M  V30 17375 O 1953.57 1.58056 0.912395 0
M  V30 17376 C 1953.62 2.71428 -2.38766 0
M  V30 17377 O 1953.34 2.30976 -3.72266 0
M  V30 17378 C 1954.84 3.65001 -2.51573 0
M  V30 17379 H 1952.06 0.450625 -0.49717 0
M  V30 17380 H 1954.61 0.830748 -1.86866 0
M  V30 17381 H 1952.76 3.30981 -2.01321 0
M  V30 17382 H 1953.18 3.11682 -4.21846 0
M  V30 17383 H 1954.65 4.49432 -3.20492 0
M  V30 17384 H 1955.13 4.10818 -1.55322 0
M  V30 17385 H 1955.73 3.11342 -2.89735 0
M  V30 17386 N 1954.05 1.28517 0.912209 0
M  V30 17387 C 1955.3 1.15761 1.6615 0
M  V30 17388 C 1955.62 -0.293495 1.92273 0
M  V30 17389 O 1954.88 -1.22975 1.52235 0
M  V30 17390 C 1955.18 1.90307 3.02519 0
M  V30 17391 C 1954.84 3.40095 2.96051 0
M  V30 17392 C 1953.51 3.80948 2.93994 0
M  V30 17393 C 1955.86 4.35601 2.86185 0
M  V30 17394 C 1953.19 5.15643 2.79873 0
M  V30 17395 C 1955.54 5.70371 2.73604 0
M  V30 17396 C 1954.2 6.10497 2.69906 0
M  V30 17397 H 1953.47 0.423598 0.607985 0
M  V30 17398 H 1956.12 1.59309 1.06268 0
M  V30 17399 H 1954.42 1.39312 3.66196 0
M  V30 17400 H 1956.12 1.77852 3.59402 0
M  V30 17401 H 1952.71 3.07615 2.98447 0
M  V30 17402 H 1956.89 4.05 2.8686 0
M  V30 17403 H 1952.15 5.45858 2.75407 0
M  V30 17404 H 1956.32 6.44035 2.64939 0
M  V30 17405 H 1953.95 7.1482 2.58722 0
M  V30 17406 N 1955.53 -1.12086 1.1079 0
M  V30 17407 C 1956.8 -1.80039 0.764549 0
M  V30 17408 C 1957.18 -1.97387 -0.748429 0
M  V30 17409 O 1956.53 -1.55315 -1.67599 0
M  V30 17410 C 1956.74 -3.14168 1.51985 0
M  V30 17411 C 1958.09 -3.89311 1.69476 0
M  V30 17412 O 1959.11 -3.23836 1.48354 0
M  V30 17413 O 1957.97 -5.06786 2.04524 0
M  V30 17414 H 1955.07 -0.779498 0.276246 0
M  V30 17415 H 1957.61 -1.18889 1.21093 0
M  V30 17416 H 1956.38 -2.96854 2.54938 0
M  V30 17417 H 1956.01 -3.83027 1.06658 0
M  V30 17418 N 1957 -0.897194 -1.29569 0
M  V30 17419 C 1957.94 -0.330353 -2.26807 0
M  V30 17420 C 1958.95 0.521937 -1.54207 0
M  V30 17421 O 1960.14 0.339502 -1.75242 0
M  V30 17422 C 1957.24 0.547835 -3.34443 0
M  V30 17423 C 1956.41 -0.278159 -4.36515 0
M  V30 17424 C 1955.47 0.532461 -5.23499 0
M  V30 17425 O 1954.5 -0.0491596 -5.69179 0
M  V30 17426 N 1955.7 1.83908 -5.50598 0
M  V30 17427 H 1958.46 -1.16608 -2.76084 0
M  V30 17428 H 1956.02 -0.761424 -1.42877 0
M  V30 17429 H 1958.02 1.09647 -3.89563 0
M  V30 17430 H 1956.59 1.28425 -2.85001 0
M  V30 17431 H 1955.81 -1.00822 -3.81089 0
M  V30 17432 H 1957.09 -0.843929 -5.01752 0
M  V30 17433 H 1956.49 2.33437 -5.1529 0
M  V30 17434 H 1955.05 2.33489 -6.08544 0
M  V30 17435 N 1958.48 1.43142 -0.659413 0
M  V30 17436 C 1959.39 2.34582 0.0288714 0
M  V30 17437 C 1960.41 1.54232 0.805512 0
M  V30 17438 O 1961.58 1.8686 0.751347 0
M  V30 17439 C 1958.65 3.32587 0.97912 0
M  V30 17440 C 1957.71 4.2884 0.198725 0
M  V30 17441 C 1956.94 5.22163 1.10371 0
M  V30 17442 O 1957.17 5.20054 2.34308 0
M  V30 17443 O 1956.1 5.99168 0.572785 0
M  V30 17444 H 1959.93 2.94945 -0.723947 0
M  V30 17445 H 1957.51 1.43386 -0.419609 0
M  V30 17446 H 1959.39 3.92836 1.52505 0
M  V30 17447 H 1958.07 2.74719 1.71206 0
M  V30 17448 H 1956.98 3.72052 -0.390942 0
M  V30 17449 H 1958.31 4.89707 -0.494774 0
M  V30 17450 N 1959.96 0.40173 1.52394 0
M  V30 17451 C 1961.21 -0.17611 2.01331 0
M  V30 17452 C 1961.53 -1.46274 1.28953 0
M  V30 17453 O 1960.8 -1.91492 0.413249 0
M  V30 17454 H 1959.38 -0.0680697 0.743892 0
M  V30 17455 H 1962.04 0.536274 1.87377 0
M  V30 17456 H 1961.14 -0.377497 3.09809 0
M  V30 17457 N 1961.44 -1.57047 0.131923 0
M  V30 17458 C 1962.66 -2.00419 -0.533574 0
M  V30 17459 C 1963.09 -1.01125 -1.58605 0
M  V30 17460 O 1962.45 0.0152254 -1.81294 0
M  V30 17461 C 1962.49 -3.42611 -1.12472 0
M  V30 17462 O 1961.6 -3.46263 -2.23999 0
M  V30 17463 H 1960.94 -0.650739 -0.132043 0
M  V30 17464 H 1963.47 -2.03368 0.224211 0
M  V30 17465 H 1963.48 -3.81094 -1.45709 0
M  V30 17466 H 1962.15 -4.14392 -0.353895 0
M  V30 17467 H 1960.73 -3.1961 -1.92103 0
M  V30 17468 N 1962.92 0.141865 -1.5696 0
M  V30 17469 C 1964.14 0.872384 -1.8816 0
M  V30 17470 C 1964.57 1.73713 -0.721494 0
M  V30 17471 O 1963.92 1.78294 0.328757 0
M  V30 17472 C 1963.97 1.7007 -3.17976 0
M  V30 17473 O 1963.08 2.80545 -3.02271 0
M  V30 17474 H 1962.42 0.242672 -0.618066 0
M  V30 17475 H 1964.95 0.131136 -2.04179 0
M  V30 17476 H 1964.96 2.09466 -3.50126 0
M  V30 17477 H 1963.63 1.06573 -4.02014 0
M  V30 17478 H 1962.21 2.44519 -2.81541 0
M  V30 17479 N 1964.39 1.52136 0.411372 0
M  V30 17480 C 1965.62 1.6993 1.18031 0
M  V30 17481 C 1966.04 0.407806 1.84343 0
M  V30 17482 O 1965.39 -0.615981 1.7179 0
M  V30 17483 C 1965.45 2.83333 2.2451 0
M  V30 17484 O 1965.17 4.07482 1.60905 0
M  V30 17485 C 1966.67 3.12618 3.143 0
M  V30 17486 H 1963.89 0.569546 0.354765 0
M  V30 17487 H 1966.43 1.98683 0.484277 0
M  V30 17488 H 1964.59 2.57106 2.89785 0
M  V30 17489 H 1965 4.70657 2.31478 0
M  V30 17490 H 1966.47 3.95486 3.85091 0
M  V30 17491 H 1966.95 2.26078 3.76544 0
M  V30 17492 H 1967.56 3.40602 2.54697 0
M  V30 17493 N 1965.87 -0.668464 1.42721 0
M  V30 17494 C 1967.12 -1.42567 1.43245 0
M  V30 17495 C 1967.44 -1.9493 0.0521972 0
M  V30 17496 O 1966.71 -1.73469 -0.910231 0
M  V30 17497 H 1965.29 -0.529068 0.527349 0
M  V30 17498 H 1967.95 -0.789428 1.78197 0
M  V30 17499 H 1967.05 -2.27556 2.13599 0
M  V30 17500 N 1967.35 -1.28999 -0.905381 0
M  V30 17501 C 1968.28 -1.09447 -2.0138 0
M  V30 17502 C 1969.3 -0.0436697 -1.62741 0
M  V30 17503 O 1970.49 -0.287603 -1.76168 0
M  V30 17504 C 1967.59 -0.642796 -3.32748 0
M  V30 17505 C 1966.76 -1.77086 -3.99949 0
M  V30 17506 C 1965.82 -1.31115 -5.09603 0
M  V30 17507 O 1964.84 -2.01488 -5.32345 0
M  V30 17508 N 1966.05 -0.178924 -5.80224 0
M  V30 17509 H 1968.81 -2.04906 -2.18709 0
M  V30 17510 H 1966.37 -1.20863 -1.07721 0
M  V30 17511 H 1968.36 -0.318684 -4.03443 0
M  V30 17512 H 1966.93 0.21918 -3.11831 0
M  V30 17513 H 1966.15 -2.26414 -3.22692 0
M  V30 17514 H 1967.44 -2.52736 -4.4159 0
M  V30 17515 H 1966.84 0.407926 -5.64227 0
M  V30 17516 H 1965.4 0.085857 -6.51743 0
M  V30 17517 N 1968.83 1.11497 -1.11383 0
M  V30 17518 C 1970.05 1.87567 -0.885056 0
M  V30 17519 C 1970.48 1.79581 0.559675 0
M  V30 17520 O 1969.84 1.15779 1.39517 0
M  V30 17521 C 1969.89 3.34354 -1.35053 0
M  V30 17522 O 1968.99 4.09085 -0.521865 0
M  V30 17523 H 1968.33 0.582433 -0.318853 0
M  V30 17524 H 1970.86 1.4094 -1.48314 0
M  V30 17525 H 1970.87 3.85201 -1.34478 0
M  V30 17526 H 1969.55 3.39484 -2.40257 0
M  V30 17527 H 1968.12 3.68144 -0.593669 0
M  V30 17528 N 1970.31 0.904053 1.29092 0
M  V30 17529 C 1971.53 0.547082 2.00054 0
M  V30 17530 C 1971.96 -0.862026 1.67185 0
M  V30 17531 O 1971.32 -1.57449 0.898855 0
M  V30 17532 C 1971.36 0.751495 3.52682 0
M  V30 17533 O 1970.47 -0.194004 4.11943 0
M  V30 17534 H 1969.81 0.213241 0.628828 0
M  V30 17535 H 1972.34 1.21683 1.64482 0
M  V30 17536 H 1972.35 0.657831 4.02662 0
M  V30 17537 H 1971.02 1.77878 3.75942 0
M  V30 17538 H 1969.6 -0.0524281 3.72863 0
M  V30 17539 N 1971.79 -1.4279 0.666995 0
M  V30 17540 C 1973.01 -2.06504 0.192596 0
M  V30 17541 C 1973.44 -1.49743 -1.13836 0
M  V30 17542 O 1972.79 -0.612797 -1.7063 0
M  V30 17543 C 1972.84 -3.60366 0.129775 0
M  V30 17544 O 1971.95 -4.0237 -0.904018 0
M  V30 17545 H 1971.29 -0.656244 0.101194 0
M  V30 17546 H 1973.82 -1.83059 0.913807 0
M  V30 17547 H 1973.83 -4.07971 -0.0489739 0
M  V30 17548 H 1972.5 -4.01054 1.1013 0
M  V30 17549 H 1971.08 -3.66329 -0.696943 0
M  V30 17550 N 1973.26 -0.409806 -1.52179 0
M  V30 17551 C 1974.49 0.164995 -2.0594 0
M  V30 17552 C 1974.9 1.39354 -1.27973 0
M  V30 17553 O 1974.24 1.80802 -0.324989 0
M  V30 17554 C 1974.31 0.579659 -3.54796 0
M  V30 17555 C 1973.97 -0.538248 -4.53819 0
M  V30 17556 C 1974.97 -1.40203 -5.00639 0
M  V30 17557 C 1972.65 -0.711133 -4.97241 0
M  V30 17558 C 1974.65 -2.42363 -5.89524 0
M  V30 17559 C 1972.33 -1.73605 -5.85922 0
M  V30 17560 C 1973.33 -2.5907 -6.31959 0
M  V30 17561 O 1973.02 -3.59806 -7.18884 0
M  V30 17562 H 1972.75 0.0236196 -0.675587 0
M  V30 17563 H 1975.31 -0.579572 -1.97054 0
M  V30 17564 H 1973.54 1.37652 -3.61371 0
M  V30 17565 H 1975.22 1.08246 -3.912 0
M  V30 17566 H 1975.99 -1.27987 -4.67808 0
M  V30 17567 H 1971.87 -0.0555613 -4.60967 0
M  V30 17568 H 1975.41 -3.09106 -6.25379 0
M  V30 17569 H 1971.31 -1.85851 -6.18166 0
M  V30 17570 H 1972.08 -3.56058 -7.36997 0
M  V30 17571 N 1974.74 1.56975 -0.14025 0
M  V30 17572 C 1975.99 1.95519 0.51153 0
M  V30 17573 C 1976.31 1.02572 1.65843 0
M  V30 17574 O 1975.58 0.0859828 1.95711 0
M  V30 17575 H 1974.16 0.721914 0.191961 0
M  V30 17576 H 1976.82 1.9372 -0.214169 0
M  V30 17577 H 1975.92 2.99078 0.892131 0
M  V30 17578 N 1976.22 -0.133539 1.57033 0
M  V30 17579 C 1977.17 -1.16995 1.95694 0
M  V30 17580 C 1978.15 -1.37843 0.82995 0
M  V30 17581 O 1979.35 -1.39179 1.09353 0
M  V30 17582 C 1976.47 -2.50025 2.3525 0
M  V30 17583 C 1975.56 -2.32713 3.5455 0
M  V30 17584 N 1975.95 -1.85183 4.70681 0
M  V30 17585 C 1974.25 -2.63419 3.59898 0
M  V30 17586 C 1974.95 -1.81235 5.52747 0
M  V30 17587 N 1973.93 -2.25046 4.94829 0
M  V30 17588 H 1977.73 -0.79478 2.8295 0
M  V30 17589 H 1975.24 -0.341452 1.5877 0
M  V30 17590 H 1977.24 -3.24965 2.61158 0
M  V30 17591 H 1975.9 -2.88312 1.49352 0
M  V30 17592 H 1976.91 -1.54946 4.94178 0
M  V30 17593 H 1973.59 -3.05491 2.84572 0
M  V30 17594 H 1974.98 -1.45864 6.55876 0
M  V30 17595 N 1977.7 -1.52352 -0.403298 0
M  V30 17596 C 1979.11 -1.41285 -0.742343 0
M  V30 17597 C 1979.31 -0.521946 -1.94623 0
M  V30 17598 O 1978.37 0.0100547 -2.52498 0
M  V30 17599 C 1979.68 -2.83907 -0.990819 0
M  V30 17600 C 1981.23 -2.93289 -1.09318 0
M  V30 17601 C 1981.71 -4.36892 -1.37437 0
M  V30 17602 N 1983.2 -4.40153 -1.4429 0
M  V30 17603 C 1983.93 -5.48333 -1.67686 0
M  V30 17604 N 1983.43 -6.66622 -1.88647 0
M  V30 17605 N 1985.22 -5.35856 -1.69748 0
M  V30 17606 H 1977.37 -2.08806 0.389077 0
M  V30 17607 H 1979.63 -0.941383 0.111813 0
M  V30 17608 H 1979.34 -3.51247 -0.178511 0
M  V30 17609 H 1979.21 -3.25302 -1.9094 0
M  V30 17610 H 1981.6 -2.26127 -1.89607 0
M  V30 17611 H 1981.68 -2.55343 -0.152822 0
M  V30 17612 H 1981.33 -5.04616 -0.576634 0
M  V30 17613 H 1981.26 -4.72379 -2.32734 0
M  V30 17614 H 1983.75 -3.54888 -1.29857 0
M  V30 17615 H 1984.06 -7.44848 -2.05965 0
M  V30 17616 H 1982.41 -6.69676 -1.859 0
M  V30 17617 H 1985.6 -4.42419 -1.52914 0
M  V30 17618 H 1985.77 -6.20237 -1.87642 0
M  V30 17619 N 1979.18 0.660885 -1.43074 0
M  V30 17620 C 1980.42 1.41805 -1.43999 0
M  V30 17621 C 1980.74 1.949 -0.0625341 0
M  V30 17622 O 1980.01 1.7395 0.901019 0
M  V30 17623 H 1978.59 0.526263 -0.530147 0
M  V30 17624 H 1981.26 0.779967 -1.78613 0
M  V30 17625 H 1980.35 2.2642 -2.14803 0
M  V30 17626 N 1980.65 1.29477 0.898527 0
M  V30 17627 C 1981.88 1.20529 1.68783 0
M  V30 17628 C 1982.3 -0.230536 1.86682 0
M  V30 17629 O 1981.66 -1.1664 1.38798 0
M  V30 17630 C 1981.71 1.92501 3.04919 0
M  V30 17631 O 1980.81 1.24286 3.93226 0
M  V30 17632 H 1980.16 0.417586 0.516254 0
M  V30 17633 H 1982.69 1.71066 1.1224 0
M  V30 17634 H 1982.7 2.01001 3.55053 0
M  V30 17635 H 1981.37 2.96934 2.9121 0
M  V30 17636 H 1979.95 1.24052 3.51661 0
M  V30 17637 N 1982.13 -1.10905 1.11972 0
M  V30 17638 C 1983.38 -1.82401 0.870296 0
M  V30 17639 C 1983.7 -1.85356 -0.605649 0
M  V30 17640 O 1982.97 -1.32812 -1.44006 0
M  V30 17641 H 1981.55 -0.675471 0.318979 0
M  V30 17642 H 1984.21 -1.34216 1.41323 0
M  V30 17643 H 1983.31 -2.86086 1.24746 0
M  V30 17644 N 1983.61 -0.910886 -1.2861 0
M  V30 17645 C 1984.84 -0.557684 -1.99761 0
M  V30 17646 C 1985.26 0.853148 -1.67639 0
M  V30 17647 O 1984.62 1.5697 -0.907192 0
M  V30 17648 C 1984.67 -0.770188 -3.52279 0
M  V30 17649 O 1983.77 0.172155 -4.12041 0
M  V30 17650 H 1983.11 -0.216573 -0.627688 0
M  V30 17651 H 1985.64 -1.22554 -1.63834 0
M  V30 17652 H 1985.65 -0.679176 -4.02307 0
M  V30 17653 H 1984.33 -1.79869 -3.74993 0
M  V30 17654 H 1982.9 0.0326535 -3.72886 0
M  V30 17655 N 1985.09 1.42434 -0.674558 0
M  V30 17656 C 1986.31 2.06399 -0.203545 0
M  V30 17657 C 1986.74 1.50345 1.1304 0
M  V30 17658 O 1986.1 0.621837 1.70302 0
M  V30 17659 C 1986.14 3.60293 -0.148884 0
M  V30 17660 O 1985.25 4.02843 0.882667 0
M  V30 17661 H 1984.59 0.655698 -0.104672 0
M  V30 17662 H 1987.12 1.82572 -0.923502 0
M  V30 17663 H 1987.13 4.07991 0.0273375 0
M  V30 17664 H 1985.8 4.00464 -1.12256 0
M  V30 17665 H 1984.38 3.66694 0.677506 0
M  V30 17666 N 1986.57 0.417871 1.51959 0
M  V30 17667 C 1987.5 -0.438814 2.2496 0
M  V30 17668 C 1988.51 -1.00283 1.28246 0
M  V30 17669 O 1989.7 -0.900288 1.54133 0
M  V30 17670 C 1986.8 -1.62371 2.97471 0
M  V30 17671 C 1985.97 -1.18204 4.21125 0
M  V30 17672 C 1985.03 -2.23484 4.76384 0
M  V30 17673 O 1984.06 -1.83715 5.38737 0
M  V30 17674 N 1985.26 -3.55751 4.58717 0
M  V30 17675 H 1988.03 0.18676 2.99118 0
M  V30 17676 H 1985.59 0.245711 1.60025 0
M  V30 17677 H 1987.58 -2.32385 3.3133 0
M  V30 17678 H 1986.15 -2.15503 2.26445 0
M  V30 17679 H 1985.37 -0.309696 3.92982 0
M  V30 17680 H 1986.66 -0.86403 5.0141 0
M  V30 17681 H 1986.05 -3.90806 4.09008 0
M  V30 17682 H 1984.61 -4.21715 4.96991 0
M  V30 17683 N 1988.04 -1.56898 0.148573 0
M  V30 17684 C 1989.27 -2.00974 -0.512287 0
M  V30 17685 C 1989.69 -1.02801 -1.57523 0
M  V30 17686 O 1989.05 -0.00400411 -1.813 0
M  V30 17687 C 1989.1 -3.43785 -1.08832 0
M  V30 17688 O 1988.2 -3.4862 -2.20313 0
M  V30 17689 H 1987.55 -0.652102 -0.125133 0
M  V30 17690 H 1990.08 -2.03119 0.245769 0
M  V30 17691 H 1990.09 -3.82618 -1.41659 0
M  V30 17692 H 1988.76 -4.14744 -0.309923 0
M  V30 17693 H 1987.34 -3.2163 -1.88702 0
M  V30 17694 N 1989.52 0.125209 -1.57102 0
M  V30 17695 C 1990.75 0.852378 -1.89075 0
M  V30 17696 C 1991.17 1.72938 -0.739878 0
M  V30 17697 O 1990.53 1.78633 0.309828 0
M  V30 17698 C 1990.58 1.66688 -3.19762 0
M  V30 17699 O 1989.68 2.77324 -3.0523 0
M  V30 17700 H 1989.02 0.236103 -0.620606 0
M  V30 17701 H 1991.55 0.109473 -2.04307 0
M  V30 17702 H 1991.56 2.0574 -3.52328 0
M  V30 17703 H 1990.24 1.02303 -4.03121 0
M  V30 17704 H 1988.82 2.41519 -2.84118 0
M  V30 17705 N 1991 1.52564 0.395213 0
M  V30 17706 C 1992.25 1.66974 1.1386 0
M  V30 17707 C 1992.57 0.409016 1.90662 0
M  V30 17708 O 1991.84 -0.576451 1.87227 0
M  V30 17709 H 1990.42 0.61548 0.423313 0
M  V30 17710 H 1993.08 1.89657 0.449024 0
M  V30 17711 H 1992.18 2.5173 1.84496 0
M  V30 17712 N 1992.48 -0.653289 1.43422 0
M  V30 17713 C 1993.71 -1.43884 1.4826 0
M  V30 17714 C 1994.12 -1.88941 0.099053 0
M  V30 17715 O 1993.46 -1.60087 -0.900983 0
M  V30 17716 C 1993.52 -2.70658 2.3661 0
M  V30 17717 C 1993.19 -2.47542 3.84151 0
M  V30 17718 C 1994.18 -2.10769 4.75261 0
M  V30 17719 C 1991.87 -2.61868 4.28638 0
M  V30 17720 C 1993.86 -1.8862 6.08853 0
M  V30 17721 C 1991.55 -2.39334 5.62283 0
M  V30 17722 C 1992.55 -2.02766 6.52208 0
M  V30 17723 O 1992.23 -1.80467 7.83382 0
M  V30 17724 H 1991.97 -0.448491 0.505798 0
M  V30 17725 H 1994.52 -0.808217 1.88831 0
M  V30 17726 H 1992.75 -3.3628 1.90927 0
M  V30 17727 H 1994.44 -3.32607 2.32652 0
M  V30 17728 H 1995.21 -1.99277 4.42169 0
M  V30 17729 H 1991.08 -2.89306 3.58919 0
M  V30 17730 H 1994.63 -1.60001 6.79003 0
M  V30 17731 H 1990.53 -2.50429 5.94942 0
M  V30 17732 H 1991.29 -1.94893 7.94959 0
M  V30 17733 N 1993.96 -1.29952 -0.891648 0
M  V30 17734 C 1995.2 -1.18155 -1.63963 0
M  V30 17735 C 1995.53 0.265477 -1.93184 0
M  V30 17736 O 1994.8 1.1802 -1.56359 0
M  V30 17737 H 1993.38 -0.434297 -0.607779 0
M  V30 17738 H 1996.04 -1.62988 -1.06869 0
M  V30 17739 H 1995.13 -1.73753 -2.59261 0
M  V30 17740 N 1995.44 1.1031 -1.12559 0
M  V30 17741 C 1996.85 1.34325 -0.861911 0
M  V30 17742 C 1997.05 1.95009 0.507319 0
M  V30 17743 O 1996.11 2.1906 1.25574 0
M  V30 17744 C 1997.42 2.26367 -1.97935 0
M  V30 17745 C 1998.97 2.39901 -2.01039 0
M  V30 17746 C 1999.44 3.35273 -3.1202 0
M  V30 17747 N 2000.93 3.42841 -3.11471 0
M  V30 17748 C 2001.67 4.16611 -3.93983 0
M  V30 17749 N 2001.17 4.93256 -4.86488 0
M  V30 17750 N 2002.96 4.12243 -3.82116 0
M  V30 17751 H 1995.11 0.692899 -2.0078 0
M  V30 17752 H 1997.37 0.367689 -0.87379 0
M  V30 17753 H 1997.08 1.8899 -2.96607 0
M  V30 17754 H 1996.95 3.26685 -1.88565 0
M  V30 17755 H 1999.34 2.76546 -1.02986 0
M  V30 17756 H 1999.42 1.39393 -2.14484 0
M  V30 17757 H 1999.06 2.99352 -4.10306 0
M  V30 17758 H 1998.99 4.35663 -2.95813 0
M  V30 17759 H 2001.49 2.88182 -2.44457 0
M  V30 17760 H 2001.8 5.46948 -5.45956 0
M  V30 17761 H 2000.14 4.92376 -4.90501 0
M  V30 17762 H 2003.33 3.5146 -3.09182 0
M  V30 17763 H 2003.51 4.69475 -4.46651 0
M  V30 17764 N 1996.91 0.917694 1.28125 0
M  V30 17765 C 1997.86 0.380221 2.24807 0
M  V30 17766 C 1998.85 -0.509883 1.52607 0
M  V30 17767 O 2000.04 -0.348962 1.73526 0
M  V30 17768 C 1997.17 -0.375004 3.41246 0
M  V30 17769 C 1996.25 0.531045 4.20762 0
M  V30 17770 N 1996.65 1.64641 4.78254 0
M  V30 17771 C 1994.94 0.33217 4.44761 0
M  V30 17772 C 1995.64 2.20912 5.3812 0
M  V30 17773 N 1994.62 1.4999 5.22498 0
M  V30 17774 H 1998.42 1.23198 2.66832 0
M  V30 17775 H 1995.94 0.770803 1.42942 0
M  V30 17776 H 1997.93 -0.776925 4.09597 0
M  V30 17777 H 1996.59 -1.22381 3.00754 0
M  V30 17778 H 1997.6 2.02894 4.76502 0
M  V30 17779 H 1994.28 -0.476801 4.14768 0
M  V30 17780 H 1995.67 3.14758 5.93613 0
M  V30 17781 N 1998.39 -1.42074 0.682102 0
M  V30 17782 C 1999.64 -2.01037 0.206997 0
M  V30 17783 C 1999.96 -1.5424 -1.19311 0
M  V30 17784 O 1999.23 -0.767197 -1.80252 0
M  V30 17785 H 1997.81 -0.743372 0.073537 0
M  V30 17786 H 2000.47 -1.7389 0.880247 0
M  V30 17787 H 1999.57 -3.11366 0.213942 0
M  V30 17788 N 1999.87 -0.425924 -1.51735 0
M  V30 17789 C 2000.83 0.379497 -2.26036 0
M  V30 17790 C 2001.83 0.95944 -1.2904 0
M  V30 17791 O 2003.02 0.83568 -1.52846 0
M  V30 17792 C 2000.15 1.5358 -3.04345 0
M  V30 17793 H 2001.35 -0.271515 -2.98668 0
M  V30 17794 H 1998.9 -0.17882 -1.55274 0
M  V30 17795 H 1999.64 2.2232 -2.36103 0
M  V30 17796 H 1999.42 1.12626 -3.75577 0
M  V30 17797 H 2000.91 2.10513 -3.60658 0
M  V30 17798 N 2001.35 1.56817 -0.156891 0
M  V30 17799 C 2002.6 1.96051 0.490764 0
M  V30 17800 C 2002.92 1.04326 1.64746 0
M  V30 17801 O 2002.19 0.106736 1.95609 0
M  V30 17802 H 2000.77 0.72391 0.184293 0
M  V30 17803 H 2003.43 1.93482 -0.234704 0
M  V30 17804 H 2002.52 3.00007 0.86036 0
M  V30 17805 N 2002.83 -0.116876 1.57166 0
M  V30 17806 C 2004.05 -0.842338 1.89524 0
M  V30 17807 C 2004.48 -1.72543 0.749039 0
M  V30 17808 O 2003.83 -1.78795 -0.30035 0
M  V30 17809 C 2003.88 -1.64989 3.20641 0
M  V30 17810 O 2002.99 -2.75701 3.06696 0
M  V30 17811 H 2002.33 -0.232809 0.621849 0
M  V30 17812 H 2004.86 -0.0986366 2.04362 0
M  V30 17813 H 2004.87 -2.03869 3.53414 0
M  V30 17814 H 2003.54 -1.00164 4.03658 0
M  V30 17815 H 2002.12 -2.40009 2.85395 0
M  V30 17816 N 2004.3 -1.52772 -0.387116 0
M  V30 17817 C 2005.55 -1.67576 -1.12973 0
M  V30 17818 C 2005.87 -0.419122 -1.90443 0
M  V30 17819 O 2005.14 0.566514 -1.8753 0
M  V30 17820 H 2003.72 -0.617716 -0.420043 0
M  V30 17821 H 2006.38 -1.89892 -0.43896 0
M  V30 17822 H 2005.48 -2.52704 -1.83158 0
M  V30 17823 N 2005.78 0.645673 -1.43767 0
M  V30 17824 C 2006.71 1.77107 -1.45484 0
M  V30 17825 C 2007.73 1.58993 -0.350002 0
M  V30 17826 O 2008.92 1.67575 -0.61489 0
M  V30 17827 C 2006.02 3.14639 -1.25919 0
M  V30 17828 C 2005.19 3.59344 -2.49381 0
M  V30 17829 C 2004.25 4.75703 -2.24929 0
M  V30 17830 O 2003.27 4.84756 -2.98329 0
M  V30 17831 N 2004.48 5.66422 -1.27068 0
M  V30 17832 H 2007.24 1.7611 -2.42498 0
M  V30 17833 H 2004.8 0.829768 -1.3902 0
M  V30 17834 H 2006.79 3.9018 -1.07432 0
M  V30 17835 H 2005.36 3.10364 -0.37323 0
M  V30 17836 H 2004.58 2.74166 -2.83243 0
M  V30 17837 H 2005.87 3.8596 -3.3153 0
M  V30 17838 H 2005.27 5.61787 -0.664185 0
M  V30 17839 H 2003.83 6.41653 -1.14562 0
M  V30 17840 N 2007.26 1.30423 0.884744 0
M  V30 17841 C 2008.48 1.22312 1.67495 0
M  V30 17842 C 2008.91 -0.210723 1.86916 0
M  V30 17843 O 2008.27 -1.15161 1.40027 0
M  V30 17844 C 2008.32 1.95725 3.0286 0
M  V30 17845 O 2007.42 1.28449 3.91886 0
M  V30 17846 H 2006.76 0.423038 0.511796 0
M  V30 17847 H 2009.29 1.72246 1.10419 0
M  V30 17848 H 2009.3 2.04755 3.52901 0
M  V30 17849 H 2007.98 3.00006 2.88044 0
M  V30 17850 H 2006.55 1.27775 3.50326 0
M  V30 17851 N 2008.74 -1.09711 1.13142 0
M  V30 17852 C 2010.15 -1.63323 0.904565 0
M  V30 17853 C 2010.5 -1.88052 -0.559546 0
M  V30 17854 O 2009.62 -1.62804 -1.42562 0
M  V30 17855 C 2010.22 -2.96707 1.63556 0
M  V30 17856 C 2008.78 -3.47156 1.45465 0
M  V30 17857 C 2007.93 -2.21625 1.66667 0
M  V30 17858 H 2010.88 -0.931125 1.28514 0
M  V30 17859 H 2010.9 -3.64525 1.09094 0
M  V30 17860 H 2010.41 -2.78677 2.70113 0
M  V30 17861 H 2008.51 -3.70315 0.411972 0
M  V30 17862 H 2008.62 -4.24784 2.21576 0
M  V30 17863 H 2006.99 -2.30136 1.0913 0
M  V30 17864 H 2007.77 -2.06118 2.74537 0
M  V30 17865 N 2010.22 -0.924476 -1.27637 0
M  V30 17866 C 2011.44 -0.57884 -1.99159 0
M  V30 17867 C 2011.87 0.83532 -1.68535 0
M  V30 17868 O 2011.22 1.55999 -0.92379 0
M  V30 17869 C 2011.27 -0.807508 -3.51442 0
M  V30 17870 O 2010.38 0.128443 -4.122 0
M  V30 17871 H 2009.72 -0.223218 -0.625356 0
M  V30 17872 H 2012.25 -1.24285 -1.62525 0
M  V30 17873 H 2012.26 -0.721808 -4.01564 0
M  V30 17874 H 2010.93 -1.83836 -3.73064 0
M  V30 17875 H 2009.51 -0.00689785 -3.72899 0
M  V30 17876 N 2011.69 1.41711 -0.689627 0
M  V30 17877 C 2013.11 1.55473 -0.360597 0
M  V30 17878 C 2013.31 1.66635 1.13292 0
M  V30 17879 O 2012.37 1.64148 1.91864 0
M  V30 17880 C 2013.68 2.79704 -1.10392 0
M  V30 17881 C 2015.23 2.93494 -1.08768 0
M  V30 17882 C 2015.7 4.20604 -1.81263 0
M  V30 17883 N 2017.19 4.27549 -1.78203 0
M  V30 17884 C 2017.93 5.24749 -2.3114 0
M  V30 17885 N 2017.42 6.28015 -2.92522 0
M  V30 17886 N 2019.22 5.16648 -2.21429 0
M  V30 17887 H 2011.37 1.3271 -1.65837 0
M  V30 17888 H 2013.63 0.639848 -0.699499 0
M  V30 17889 H 2013.34 2.77645 -2.15885 0
M  V30 17890 H 2013.21 3.71044 -0.678662 0
M  V30 17891 H 2015.6 2.95071 -0.0410356 0
M  V30 17892 H 2015.68 2.03343 -1.55195 0
M  V30 17893 H 2015.32 4.19788 -2.85904 0
M  V30 17894 H 2015.25 5.09716 -1.32275 0
M  V30 17895 H 2017.74 3.53555 -1.33445 0
M  V30 17896 H 2018.06 6.98563 -3.30498 0
M  V30 17897 H 2016.4 6.28534 -2.96598 0
M  V30 17898 H 2019.59 4.34898 -1.73152 0
M  V30 17899 H 2019.77 5.92234 -2.62989 0
M  V30 17900 N 2013.17 0.433965 1.51507 0
M  V30 17901 C 2014.42 -0.133365 2.01659 0
M  V30 17902 C 2014.74 -1.43506 1.32026 0
M  V30 17903 O 2014.01 -1.90572 0.453774 0
M  V30 17904 H 2012.59 -0.0522753 0.745169 0
M  V30 17905 H 2015.25 0.575899 1.86197 0
M  V30 17906 H 2014.35 -0.311697 3.1054 0
M  V30 17907 N 2014.65 -1.56732 0.165206 0
M  V30 17908 C 2016.07 -1.58453 -0.191031 0
M  V30 17909 C 2016.27 -1.1803 -1.63313 0
M  V30 17910 O 2015.32 -0.889055 -2.3633 0
M  V30 17911 C 2016.64 -3.00582 0.0842414 0
M  V30 17912 C 2018.18 -3.12992 0.0219686 0
M  V30 17913 C 2018.66 -4.57203 0.270149 0
M  V30 17914 N 2020.15 -4.62688 0.217711 0
M  V30 17915 C 2020.88 -5.72113 0.383998 0
M  V30 17916 N 2020.38 -6.90118 0.609007 0
M  V30 17917 N 2022.17 -5.61187 0.320329 0
M  V30 17918 H 2014.32 -1.81296 1.1066 0
M  V30 17919 H 2016.59 -0.839986 0.439463 0
M  V30 17920 H 2016.29 -3.3461 1.083 0
M  V30 17921 H 2016.17 -3.71954 -0.62693 0
M  V30 17922 H 2018.55 -2.78794 -0.967358 0
M  V30 17923 H 2018.64 -2.44069 0.765755 0
M  V30 17924 H 2018.28 -4.92108 1.25666 0
M  V30 17925 H 2018.21 -5.24276 -0.494177 0
M  V30 17926 H 2020.7 -3.77868 0.0491965 0
M  V30 17927 H 2021.01 -7.69387 0.725507 0
M  V30 17928 H 2019.36 -6.91995 0.645549 0
M  V30 17929 H 2022.55 -4.67875 0.145176 0
M  V30 17930 H 2022.72 -6.46412 0.453351 0
M  V30 17931 N 2016.13 0.10854 -1.57226 0
M  V30 17932 C 2017.08 1.13867 -1.97531 0
M  V30 17933 C 2018.06 1.36505 -0.851775 0
M  V30 17934 O 2019.25 1.37422 -1.11554 0
M  V30 17935 C 2016.38 2.4625 -2.39198 0
M  V30 17936 C 2015.47 2.27043 -3.58207 0
M  V30 17937 N 2015.86 1.77671 -4.73568 0
M  V30 17938 C 2014.16 2.5766 -3.64043 0
M  V30 17939 C 2014.86 1.72418 -5.5556 0
M  V30 17940 N 2013.84 2.17145 -4.98346 0
M  V30 17941 H 2017.64 0.749664 -2.84178 0
M  V30 17942 H 2015.15 0.31615 -1.59293 0
M  V30 17943 H 2017.15 3.20769 -2.66295 0
M  V30 17944 H 2015.81 2.859 -1.5392 0
M  V30 17945 H 2016.82 1.47065 -4.96581 0
M  V30 17946 H 2013.5 3.00925 -2.89397 0
M  V30 17947 H 2014.89 1.35411 -6.58113 0
M  V30 17948 N 2017.61 1.52975 0.379009 0
M  V30 17949 C 2018.85 1.68172 1.12082 0
M  V30 17950 C 2019.18 0.429215 1.90218 0
M  V30 17951 O 2018.45 -0.556561 1.87828 0
M  V30 17952 H 2017.03 0.619935 0.416761 0
M  V30 17953 H 2019.69 1.90123 0.428883 0
M  V30 17954 H 2018.78 2.53672 1.81815 0
M  V30 17955 N 2019.08 -0.63804 1.44107 0
M  V30 17956 C 2020.31 -1.43004 1.50215 0
M  V30 17957 C 2020.73 -1.87678 0.125903 0
M  V30 17958 O 2020.09 -1.58316 -0.883508 0
M  V30 17959 C 2020.14 -2.63112 2.46585 0
M  V30 17960 O 2019.24 -3.62706 1.9626 0
M  V30 17961 H 2018.59 -0.428173 0.507508 0
M  V30 17962 H 2021.12 -0.779402 1.89173 0
M  V30 17963 H 2021.13 -3.10742 2.64393 0
M  V30 17964 H 2019.8 -2.29941 3.46554 0
M  V30 17965 H 2018.38 -3.21932 1.88186 0
M  V30 17966 N 2020.56 -1.3089 -0.877815 0
M  V30 17967 C 2021.81 -1.19888 -1.627 0
M  V30 17968 C 2022.13 0.244972 -1.93455 0
M  V30 17969 O 2021.4 1.16355 -1.57602 0
M  V30 17970 H 2019.98 -0.440719 -0.603138 0
M  V30 17971 H 2022.64 -1.64112 -1.05134 0
M  V30 17972 H 2021.74 -1.76493 -2.57404 0
M  V30 17973 N 2022.04 1.0911 -1.13723 0
M  V30 17974 C 2023.27 1.85648 -0.924643 0
M  V30 17975 C 2023.69 1.80727 0.521458 0
M  V30 17976 O 2023.05 1.18712 1.3703 0
M  V30 17977 C 2023.1 3.31415 -1.42115 0
M  V30 17978 O 2022.2 4.07886 -0.608521 0
M  V30 17979 H 2021.54 0.575539 -0.331136 0
M  V30 17980 H 2024.07 1.37763 -1.5127 0
M  V30 17981 H 2024.08 3.82262 -1.42619 0
M  V30 17982 H 2022.76 3.34311 -2.47404 0
M  V30 17983 H 2021.33 3.66802 -0.671625 0
M  V30 17984 N 2023.52 0.931232 1.27145 0
M  V30 17985 C 2024.77 0.572394 1.93825 0
M  V30 17986 C 2025.09 -0.88981 1.73515 0
M  V30 17987 O 2024.36 -1.63113 1.08494 0
M  V30 17988 H 2022.94 0.2087 0.717254 0
M  V30 17989 H 2025.6 1.18439 1.54784 0
M  V30 17990 H 2024.7 0.781679 3.02153 0
M  V30 17991 N 2025 -1.41343 0.697132 0
M  V30 17992 C 2025.95 -2.27998 0.00959736 0
M  V30 17993 C 2026.93 -1.42285 -0.751254 0
M  V30 17994 O 2028.12 -1.65542 -0.626491 0
M  V30 17995 C 2025.25 -3.30606 -0.924919 0
M  V30 17996 C 2024.34 -4.23797 -0.160232 0
M  V30 17997 N 2024.73 -4.98661 0.846797 0
M  V30 17998 C 2023.03 -4.44243 -0.395486 0
M  V30 17999 C 2023.73 -5.6688 1.30467 0
M  V30 18000 N 2022.7 -5.39934 0.630293 0
M  V30 18001 H 2026.51 -2.83314 0.781684 0
M  V30 18002 H 2024.02 -1.53574 0.528104 0
M  V30 18003 H 2026.02 -3.91511 -1.43264 0
M  V30 18004 H 2024.68 -2.7685 -1.69659 0
M  V30 18005 H 2025.69 -5.03153 1.22708 0
M  V30 18006 H 2022.37 -4.01495 -1.14492 0
M  V30 18007 H 2023.76 -6.36896 2.1404 0
M  V30 18008 N 2026.48 -0.441993 -1.51275 0
M  V30 18009 C 2027.7 0.123815 -2.0703 0
M  V30 18010 C 2028.13 1.35293 -1.30681 0
M  V30 18011 O 2027.48 1.77966 -0.346072 0
M  V30 18012 C 2027.53 0.419988 -3.58146 0
M  V30 18013 O 2026.64 1.50565 -3.83932 0
M  V30 18014 H 2025.98 -0.00017643 -0.664 0
M  V30 18015 H 2028.51 -0.624668 -1.94831 0
M  V30 18016 H 2028.52 0.66908 -4.02476 0
M  V30 18017 H 2027.19 -0.478329 -4.1314 0
M  V30 18018 H 2025.77 1.24615 -3.51462 0
M  V30 18019 N 2027.95 1.56642 -0.173515 0
M  V30 18020 C 2029.18 2.01763 0.480249 0
M  V30 18021 C 2029.6 1.05294 1.55868 0
M  V30 18022 O 2028.96 0.0328468 1.8127 0
M  V30 18023 C 2029.01 3.45473 1.03349 0
M  V30 18024 O 2028.11 3.52081 2.14739 0
M  V30 18025 H 2027.45 0.654011 0.114743 0
M  V30 18026 H 2029.98 2.02702 -0.278052 0
M  V30 18027 H 2029.99 3.84823 1.35554 0
M  V30 18028 H 2028.67 4.15184 0.243902 0
M  V30 18029 H 2027.25 3.24591 1.83562 0
M  V30 18030 N 2029.43 -0.1002 1.57281 0
M  V30 18031 C 2030.66 -0.82219 1.90407 0
M  V30 18032 C 2031.08 -1.71739 0.767297 0
M  V30 18033 O 2030.44 -1.79103 -0.281369 0
M  V30 18034 C 2030.49 -1.61579 3.22373 0
M  V30 18035 O 2029.59 -2.72433 3.09603 0
M  V30 18036 H 2028.93 -0.2262 0.624283 0
M  V30 18037 H 2031.46 -0.0769557 2.04455 0
M  V30 18038 H 2031.47 -2.00109 3.55556 0
M  V30 18039 H 2030.15 -0.958772 4.04698 0
M  V30 18040 H 2028.72 -2.36968 2.87925 0
M  V30 18041 N 2030.91 -1.53174 -0.370891 0
M  V30 18042 C 2032.14 -1.72749 -1.13319 0
M  V30 18043 C 2032.55 -0.453832 -1.83676 0
M  V30 18044 O 2031.89 0.582685 -1.74214 0
M  V30 18045 C 2031.95 -2.83436 -2.21143 0
M  V30 18046 C 2031.62 -4.23963 -1.70599 0
M  V30 18047 C 2032.61 -5.06496 -1.17293 0
M  V30 18048 C 2030.3 -4.70354 -1.76273 0
M  V30 18049 C 2032.29 -6.33508 -0.703308 0
M  V30 18050 C 2029.98 -5.97346 -1.28923 0
M  V30 18051 C 2030.98 -6.78754 -0.760411 0
M  V30 18052 O 2030.67 -8.03363 -0.293883 0
M  V30 18053 H 2030.4 -0.581347 -0.344981 0
M  V30 18054 H 2032.95 -2.0069 -0.437343 0
M  V30 18055 H 2031.18 -2.50957 -2.94206 0
M  V30 18056 H 2032.87 -2.9124 -2.82726 0
M  V30 18057 H 2033.64 -4.71831 -1.12252 0
M  V30 18058 H 2029.52 -4.07066 -2.16375 0
M  V30 18059 H 2033.06 -6.96997 -0.289876 0
M  V30 18060 H 2028.96 -6.31511 -1.33655 0
M  V30 18061 H 2029.72 -8.17454 -0.413701 0
M  V30 18062 N 2032.39 0.630389 -1.44443 0
M  V30 18063 C 2033.64 1.38719 -1.46975 0
M  V30 18064 C 2033.96 1.94723 -0.103861 0
M  V30 18065 O 2033.23 1.75822 0.863919 0
M  V30 18066 H 2031.81 0.5149 -0.54119 0
M  V30 18067 H 2034.47 0.741905 -1.80227 0
M  V30 18068 H 2033.56 2.21813 -2.19557 0
M  V30 18069 N 2033.87 1.31354 0.870861 0
M  V30 18070 C 2034.8 1.14748 1.98408 0
M  V30 18071 C 2035.81 0.0868023 1.62568 0
M  V30 18072 O 2037 0.334209 1.75343 0
M  V30 18073 C 2034.1 0.730792 3.30927 0
M  V30 18074 C 2033.27 1.87628 3.95113 0
M  V30 18075 C 2032.33 1.44581 5.05948 0
M  V30 18076 O 2031.36 2.15531 5.26816 0
M  V30 18077 N 2032.56 0.332698 5.79546 0
M  V30 18078 H 2035.32 2.10633 2.13199 0
M  V30 18079 H 2032.89 1.23676 1.04479 0
M  V30 18080 H 2034.88 0.425538 4.02457 0
M  V30 18081 H 2033.45 -0.136426 3.12302 0
M  V30 18082 H 2032.67 2.3489 3.16576 0
M  V30 18083 H 2033.96 2.64356 4.34734 0
M  V30 18084 H 2033.35 -0.258188 5.65111 0
M  V30 18085 H 2031.91 0.0869715 6.51742 0
M  V30 18086 N 2035.34 -1.08505 1.143 0
M  V30 18087 C 2036.29 -2.13593 0.797635 0
M  V30 18088 C 2037.28 -1.59488 -0.212729 0
M  V30 18089 O 2038.47 -1.76993 -0.0152218 0
M  V30 18090 C 2035.6 -3.42191 0.275716 0
M  V30 18091 C 2034.68 -4.0318 1.31554 0
M  V30 18092 N 2035.08 -4.38591 2.51936 0
M  V30 18093 C 2033.37 -4.30501 1.16553 0
M  V30 18094 C 2034.07 -4.86762 3.18494 0
M  V30 18095 N 2033.05 -4.84804 2.45898 0
M  V30 18096 H 2036.85 -2.38788 1.7134 0
M  V30 18097 H 2034.37 -1.25827 1.02671 0
M  V30 18098 H 2036.36 -4.16899 0.0100056 0
M  V30 18099 H 2035.02 -3.18445 -0.634256 0
M  V30 18100 H 2036.03 -4.29651 2.89171 0
M  V30 18101 H 2032.71 -4.16314 0.314497 0
M  V30 18102 H 2034.1 -5.23548 4.21126 0
M  V30 18103 N 2036.82 -0.937962 -1.26649 0
M  V30 18104 C 2038.07 -0.582665 -1.93519 0
M  V30 18105 C 2038.39 0.880595 -1.73984 0
M  V30 18106 O 2037.66 1.62535 -1.09358 0
M  V30 18107 H 2036.24 -0.212501 -0.716137 0
M  V30 18108 H 2038.9 -1.19259 -1.54154 0
M  V30 18109 H 2038 -0.797692 -3.01734 0
M  V30 18110 N 2038.3 1.40971 -0.704618 0
M  V30 18111 C 2039.52 2.05921 -0.24728 0
M  V30 18112 C 2039.95 1.52708 1.09826 0
M  V30 18113 O 2039.31 0.657821 1.68945 0
M  V30 18114 C 2039.36 3.59896 -0.225274 0
M  V30 18115 O 2038.46 4.04625 0.797019 0
M  V30 18116 H 2037.8 0.65333 -0.118557 0
M  V30 18117 H 2040.33 1.80572 -0.962021 0
M  V30 18118 H 2040.34 4.07957 -0.0592095 0
M  V30 18119 H 2039.02 3.97993 -1.20725 0
M  V30 18120 H 2037.59 3.68048 0.599572 0
M  V30 18121 N 2039.78 0.45001 1.51039 0
M  V30 18122 C 2041.03 -0.111969 2.0179 0
M  V30 18123 C 2041.35 -1.42098 1.33541 0
M  V30 18124 O 2040.62 -1.9008 0.473962 0
M  V30 18125 H 2039.2 -0.0443688 0.745681 0
M  V30 18126 H 2041.86 0.595615 1.85576 0
M  V30 18127 H 2040.96 -0.278742 3.10853 0
M  V30 18128 N 2041.26 -1.56548 0.18182 0
M  V30 18129 C 2042.48 -2.02015 -0.469543 0
M  V30 18130 C 2042.91 -1.06119 -1.55307 0
M  V30 18131 O 2042.26 -0.0424595 -1.8125 0
M  V30 18132 C 2042.31 -3.46016 -1.01515 0
M  V30 18133 O 2041.42 -3.53215 -2.12869 0
M  V30 18134 H 2040.76 -0.65461 -0.111273 0
M  V30 18135 H 2043.29 -2.02552 0.288798 0
M  V30 18136 H 2043.3 -3.85537 -1.33511 0
M  V30 18137 H 2041.97 -4.15308 -0.22188 0
M  V30 18138 H 2040.55 -3.2556 -1.81838 0
M  V30 18139 N 2042.73 0.0918577 -1.57332 0
M  V30 18140 C 2043.98 0.793187 -1.85884 0
M  V30 18141 C 2044.3 1.79111 -0.770985 0
M  V30 18142 O 2043.57 1.94851 0.202438 0
M  V30 18143 H 2042.15 0.295923 -0.685885 0
M  V30 18144 H 2044.82 0.0727166 -1.94764 0
M  V30 18145 H 2043.91 1.32178 -2.82728 0
M  V30 18146 N 2044.21 1.53368 0.362763 0
M  V30 18147 C 2045.46 1.70884 1.10319 0
M  V30 18148 C 2045.81 0.456469 1.86907 0
M  V30 18149 O 2045.11 -0.550575 1.83519 0
M  V30 18150 C 2045.3 2.89992 2.089 0
M  V30 18151 C 2045.13 4.26692 1.41999 0
M  V30 18152 C 2043.9 4.91498 1.17293 0
M  V30 18153 C 2046.1 5.07123 0.856223 0
M  V30 18154 N 2044.08 6.12116 0.467719 0
M  V30 18155 C 2045.45 6.19365 0.280529 0
M  V30 18156 C 2047.51 4.9214 0.755187 0
M  V30 18157 C 2046.21 7.18262 -0.386351 0
M  V30 18158 C 2048.23 5.91312 0.102083 0
M  V30 18159 C 2047.6 7.02879 -0.462725 0
M  V30 18160 H 2043.7 0.678533 0.388738 0
M  V30 18161 H 2046.28 1.9077 0.389217 0
M  V30 18162 H 2044.45 2.7164 2.77608 0
M  V30 18163 H 2046.18 2.96318 2.75641 0
M  V30 18164 H 2042.94 4.50697 1.45496 0
M  V30 18165 H 2043.36 6.76874 0.130396 0
M  V30 18166 H 2048 4.06069 1.17762 0
M  V30 18167 H 2045.72 8.03921 -0.820727 0
M  V30 18168 H 2049.31 5.81795 0.0247965 0
M  V30 18169 H 2048.19 7.78301 -0.960096 0
M  V30 18170 N 2045.69 -0.62272 1.44776 0
M  V30 18171 C 2046.92 -1.41403 1.51723 0
M  V30 18172 C 2047.34 -1.87534 0.145802 0
M  V30 18173 O 2046.7 -1.59244 -0.866667 0
M  V30 18174 C 2046.75 -2.60482 2.49362 0
M  V30 18175 O 2045.85 -3.60604 2.00096 0
M  V30 18176 H 2045.19 -0.422766 0.51202 0
M  V30 18177 H 2047.72 -0.759294 1.89989 0
M  V30 18178 H 2047.73 -3.0792 2.67674 0
M  V30 18179 H 2046.41 -2.26253 3.48974 0
M  V30 18180 H 2044.98 -3.19918 1.9159 0
M  V30 18181 N 2047.17 -1.31814 -0.863883 0
M  V30 18182 C 2048.39 -1.24961 -1.65528 0
M  V30 18183 C 2048.82 0.18096 -1.87228 0
M  V30 18184 O 2048.18 1.12919 -1.41842 0
M  V30 18185 C 2048.22 -2.00518 -2.99708 0
M  V30 18186 O 2047.33 -1.34668 -3.89793 0
M  V30 18187 H 2046.67 -0.431127 -0.505001 0
M  V30 18188 H 2049.2 -1.73981 -1.07665 0
M  V30 18189 H 2049.21 -2.10344 -3.49599 0
M  V30 18190 H 2047.88 -3.0455 -2.83235 0
M  V30 18191 H 2046.46 -1.33332 -3.48249 0
M  V30 18192 N 2048.65 1.07897 -1.14873 0
M  V30 18193 C 2049.87 1.84657 -0.944281 0
M  V30 18194 C 2050.3 1.8127 0.50226 0
M  V30 18195 O 2049.65 1.20159 1.35763 0
M  V30 18196 C 2049.7 3.29889 -1.45622 0
M  V30 18197 O 2048.81 4.07217 -0.651748 0
M  V30 18198 H 2048.15 0.571994 -0.337222 0
M  V30 18199 H 2050.68 1.36151 -1.52723 0
M  V30 18200 H 2050.69 3.80727 -1.46665 0
M  V30 18201 H 2049.36 3.31668 -2.50936 0
M  V30 18202 H 2047.94 3.66069 -0.710491 0
M  V30 18203 N 2050.12 0.944665 1.2615 0
M  V30 18204 C 2051.35 0.610451 1.98213 0
M  V30 18205 C 2051.77 -0.808401 1.69843 0
M  V30 18206 O 2051.13 -1.5451 0.948491 0
M  V30 18207 C 2051.18 0.863318 3.50113 0
M  V30 18208 O 2050.28 -0.062849 4.12352 0
M  V30 18209 H 2049.63 0.233139 0.621725 0
M  V30 18210 H 2052.16 1.26855 1.60527 0
M  V30 18211 H 2052.17 0.785602 4.00365 0
M  V30 18212 H 2050.84 1.89748 3.70092 0
M  V30 18213 H 2049.42 0.066222 3.72841 0
M  V30 18214 N 2051.6 -1.40596 0.712085 0
M  V30 18215 C 2052.85 -2.00553 0.249593 0
M  V30 18216 C 2053.17 -1.56736 -1.16012 0
M  V30 18217 O 2052.44 -0.805259 -1.78584 0
M  V30 18218 H 2051.02 -0.741644 0.0892885 0
M  V30 18219 H 2053.68 -1.71984 0.916933 0
M  V30 18220 H 2052.78 -3.10842 0.279939 0
M  V30 18221 N 2053.08 -0.458013 -1.50798 0
M  V30 18222 C 2054.5 -0.111425 -1.59211 0
M  V30 18223 C 2054.7 1.38104 -1.46729 0
M  V30 18224 O 2053.75 2.15306 -1.31907 0
M  V30 18225 C 2055.07 -0.649971 -2.93591 0
M  V30 18226 C 2056.61 -0.612237 -3.06954 0
M  V30 18227 C 2057.09 -1.1281 -4.43889 0
M  V30 18228 N 2058.58 -1.08696 -4.50266 0
M  V30 18229 C 2059.31 -1.45676 -5.54586 0
M  V30 18230 N 2058.81 -1.90042 -6.66225 0
M  V30 18231 N 2060.6 -1.37362 -5.45058 0
M  V30 18232 H 2052.75 -1.42885 -1.57155 0
M  V30 18233 H 2055.02 -0.590085 -0.741959 0
M  V30 18234 H 2054.72 -1.695 -3.0816 0
M  V30 18235 H 2054.6 -0.0862666 -3.77101 0
M  V30 18236 H 2056.98 0.42385 -2.9204 0
M  V30 18237 H 2057.07 -1.21259 -2.25233 0
M  V30 18238 H 2056.71 -2.16276 -4.59551 0
M  V30 18239 H 2056.64 -0.50409 -5.24182 0
M  V30 18240 H 2059.13 -0.761406 -3.7015 0
M  V30 18241 H 2059.44 -2.16442 -7.41871 0
M  V30 18242 H 2057.79 -1.93985 -6.67379 0
M  V30 18243 H 2060.98 -1.02552 -4.56728 0
M  V30 18244 H 2061.15 -1.66508 -6.26242 0
M  V30 18245 N 2054.56 1.56449 -0.190119 0
M  V30 18246 C 2055.51 2.1547 0.74544 0
M  V30 18247 C 2056.49 1.09408 1.17978 0
M  V30 18248 O 2057.69 1.35483 1.13901 0
M  V30 18249 C 2054.81 2.81371 1.96685 0
M  V30 18250 C 2053.9 3.94617 1.55364 0
M  V30 18251 N 2054.29 4.98588 0.851095 0
M  V30 18252 C 2052.59 4.06126 1.8433 0
M  V30 18253 C 2053.29 5.78116 0.644775 0
M  V30 18254 N 2052.27 5.3037 1.19198 0
M  V30 18255 H 2056.07 2.93219 0.199907 0
M  V30 18256 H 2053.58 1.62397 0.00985994 0
M  V30 18257 H 2055.58 3.22044 2.64752 0
M  V30 18258 H 2054.24 2.05108 2.51716 0
M  V30 18259 H 2055.25 5.15411 0.507098 0
M  V30 18260 H 2051.93 3.40986 2.40905 0
M  V30 18261 H 2053.32 6.71843 0.0878244 0
M  V30 18262 N 2056.04 -0.0835127 1.57379 0
M  V30 18263 C 2057.29 -0.783318 1.86302 0
M  V30 18264 C 2057.61 -1.787 0.780472 0
M  V30 18265 O 2056.88 -1.94956 -0.192101 0
M  V30 18266 H 2055.46 -0.292281 0.687445 0
M  V30 18267 H 2058.12 -0.0623868 1.948 0
M  V30 18268 H 2057.21 -1.30677 2.83425 0
M  V30 18269 N 2057.52 -1.53558 -0.354624 0
M  V30 18270 C 2058.74 -1.74503 -1.12087 0
M  V30 18271 C 2059.17 -0.477817 -1.8193 0
M  V30 18272 O 2058.52 0.568868 -1.72144 0
M  V30 18273 C 2058.57 -2.91808 -2.1185 0
M  V30 18274 O 2057.68 -2.61182 -3.19152 0
M  V30 18275 H 2057.02 -0.579191 -0.324705 0
M  V30 18276 H 2059.55 -2.00483 -0.4084 0
M  V30 18277 H 2059.56 -3.18284 -2.55263 0
M  V30 18278 H 2058.23 -3.83721 -1.6041 0
M  V30 18279 H 2056.81 -2.45558 -2.80634 0
M  V30 18280 N 2058.99 0.615033 -1.45104 0
M  V30 18281 C 2060.24 1.37152 -1.48438 0
M  V30 18282 C 2060.56 1.94602 -0.124508 0
M  V30 18283 O 2059.83 1.76728 0.845222 0
M  V30 18284 H 2058.41 0.509131 -0.546621 0
M  V30 18285 H 2061.07 0.722747 -1.81004 0
M  V30 18286 H 2060.17 2.19472 -2.21898 0
M  V30 18287 N 2060.47 1.3227 0.85688 0
M  V30 18288 C 2061.7 1.25837 1.64863 0
M  V30 18289 C 2062.12 -0.171028 1.87321 0
M  V30 18290 O 2061.48 -1.12165 1.42438 0
M  V30 18291 C 2061.53 2.02105 2.9864 0
M  V30 18292 O 2060.63 1.36733 3.89073 0
M  V30 18293 H 2059.97 0.433799 0.502707 0
M  V30 18294 H 2062.5 1.7455 1.0674 0
M  V30 18295 H 2062.51 2.12195 3.48479 0
M  V30 18296 H 2061.19 3.06048 2.81616 0
M  V30 18297 H 2059.76 1.35177 3.47537 0
M  V30 18298 N 2061.95 -1.07287 1.15444 0
M  V30 18299 C 2063.2 -1.7954 0.927885 0
M  V30 18300 C 2063.52 -1.87189 -0.546373 0
M  V30 18301 O 2062.79 -1.37326 -1.39708 0
M  V30 18302 H 2061.37 -0.664981 0.340307 0
M  V30 18303 H 2064.03 -1.29652 1.45521 0
M  V30 18304 H 2063.13 -2.81972 1.33784 0
M  V30 18305 N 2063.43 -0.951342 -1.25647 0
M  V30 18306 C 2064.36 -0.426252 -2.25202 0
M  V30 18307 C 2065.37 0.456064 -1.56281 0
M  V30 18308 O 2066.56 0.264871 -1.76524 0
M  V30 18309 C 2063.66 0.405493 -3.36465 0
M  V30 18310 C 2062.83 -0.46305 -4.34942 0
M  V30 18311 C 2061.89 0.309948 -5.25286 0
M  V30 18312 O 2060.92 -0.290524 -5.68458 0
M  V30 18313 N 2062.12 1.60389 -5.57903 0
M  V30 18314 H 2064.89 -1.28213 -2.7089 0
M  V30 18315 H 2062.45 -0.821338 -1.39519 0
M  V30 18316 H 2064.44 0.930256 -3.93863 0
M  V30 18317 H 2063.01 1.16222 -2.90192 0
M  V30 18318 H 2062.23 -1.16894 -3.7647 0
M  V30 18319 H 2063.52 -1.05598 -4.97721 0
M  V30 18320 H 2062.92 2.11372 -5.24727 0
M  V30 18321 H 2061.47 2.07469 -6.179 0
M  V30 18322 N 2064.91 1.40216 -0.719531 0
M  V30 18323 C 2066.13 2.05647 -0.269106 0
M  V30 18324 C 2066.56 1.53865 1.082 0
M  V30 18325 O 2065.91 0.675703 1.68238 0
M  V30 18326 C 2065.96 3.59636 -0.263433 0
M  V30 18327 O 2065.07 4.05448 0.754058 0
M  V30 18328 H 2064.41 0.652036 -0.12548 0
M  V30 18329 H 2066.94 1.79542 -0.981119 0
M  V30 18330 H 2066.95 4.07871 -0.102475 0
M  V30 18331 H 2065.62 3.9669 -1.24939 0
M  V30 18332 H 2064.2 3.68664 0.560502 0
M  V30 18333 N 2066.38 0.466004 1.50553 0
M  V30 18334 C 2067.61 -0.0908629 2.07201 0
M  V30 18335 C 2068.03 -1.33196 1.32817 0
M  V30 18336 O 2067.39 -1.77393 0.374341 0
M  V30 18337 C 2067.44 -0.362957 3.58769 0
M  V30 18338 O 2066.54 -1.44438 3.86279 0
M  V30 18339 H 2065.88 0.0107401 0.663913 0
M  V30 18340 H 2068.41 0.655585 1.93812 0
M  V30 18341 H 2068.42 -0.604965 4.0349 0
M  V30 18342 H 2067.1 0.543996 4.12327 0
M  V30 18343 H 2065.68 -1.19008 3.534 0
M  V30 18344 N 2067.86 -1.56346 0.198413 0
M  V30 18345 C 2069.11 -1.97283 -0.438612 0
M  V30 18346 C 2069.43 -1.08657 -1.61922 0
M  V30 18347 O 2068.7 -0.158561 -1.95257 0
M  V30 18348 H 2067.28 -0.728541 -0.165035 0
M  V30 18349 H 2069.94 -1.92791 0.285919 0
M  V30 18350 H 2069.04 -3.02183 -0.780516 0
M  V30 18351 N 2069.34 0.0751653 -1.57421 0
M  V30 18352 C 2070.59 0.774958 -1.87085 0
M  V30 18353 C 2070.92 1.77747 -0.789691 0
M  V30 18354 O 2070.17 1.94519 0.214672 0
M  V30 18355 C 2070.47 1.52138 -3.23402 0
M  V30 18356 C 2070.14 0.659153 -4.46056 0
M  V30 18357 C 2068.8 0.421528 -4.7935 0
M  V30 18358 C 2071.15 0.0610407 -5.21164 0
M  V30 18359 C 2068.48 -0.423745 -5.85168 0
M  V30 18360 C 2070.83 -0.771668 -6.27876 0
M  V30 18361 C 2069.49 -1.0192 -6.59673 0
M  V30 18362 H 2068.76 0.283577 -0.684591 0
M  V30 18363 H 2071.41 0.0358311 -1.91466 0
M  V30 18364 H 2069.72 2.33261 -3.14796 0
M  V30 18365 H 2071.41 2.06757 -3.43588 0
M  V30 18366 H 2068 0.854487 -4.19996 0
M  V30 18367 H 2072.19 0.231747 -4.95759 0
M  V30 18368 H 2067.44 -0.6243 -6.08204 0
M  V30 18369 H 2071.62 -1.24188 -6.85237 0
M  V30 18370 H 2069.24 -1.67595 -7.41496 0
M  V30 18371 N 2070.82 1.53744 0.346476 0
M  V30 18372 C 2072.07 1.70512 1.0849 0
M  V30 18373 C 2072.39 0.469467 1.89264 0
M  V30 18374 O 2071.66 -0.516594 1.88966 0
M  V30 18375 H 2070.24 0.628636 0.403517 0
M  V30 18376 H 2072.9 1.9099 0.388459 0
M  V30 18377 H 2072 2.57472 1.76394 0
M  V30 18378 N 2072.3 -0.607329 1.45428 0
M  V30 18379 C 2073.25 -1.71232 1.50545 0
M  V30 18380 C 2074.23 -1.56619 0.368691 0
M  V30 18381 O 2075.42 -1.65951 0.615562 0
M  V30 18382 C 2072.55 -3.09985 1.47527 0
M  V30 18383 C 2071.64 -3.29983 2.66406 0
M  V30 18384 N 2072.03 -3.20241 3.91509 0
M  V30 18385 C 2070.33 -3.60853 2.62108 0
M  V30 18386 C 2071.03 -3.41576 4.70851 0
M  V30 18387 N 2070 -3.65578 4.0231 0
M  V30 18388 H 2073.81 -1.62193 2.45093 0
M  V30 18389 H 2071.32 -0.810594 1.40724 0
M  V30 18390 H 2073.32 -3.89258 1.49278 0
M  V30 18391 H 2071.98 -3.20172 0.540363 0
M  V30 18392 H 2072.99 -2.98637 4.23127 0
M  V30 18393 H 2069.66 -3.77876 1.77526 0
M  V30 18394 H 2071.05 -3.39435 5.79856 0
M  V30 18395 N 2073.77 -1.32722 -0.849853 0
M  V30 18396 C 2074.72 -1.18638 -1.94702 0
M  V30 18397 C 2075.71 -0.0920705 -1.60636 0
M  V30 18398 O 2076.9 -0.319065 -1.741 0
M  V30 18399 C 2074.03 -0.916528 -3.30839 0
M  V30 18400 C 2073.12 -2.05277 -3.71109 0
M  V30 18401 N 2073.51 -3.30178 -3.83166 0
M  V30 18402 C 2071.8 -1.95701 -4.00771 0
M  V30 18403 C 2072.51 -4.0463 -4.17911 0
M  V30 18404 N 2071.48 -3.3297 -4.29688 0
M  V30 18405 H 2075.28 -2.13324 -2.02163 0
M  V30 18406 H 2072.8 -1.24571 -1.04191 0
M  V30 18407 H 2074.79 -0.796576 -4.09219 0
M  V30 18408 H 2073.45 0.0219058 -3.24693 0
M  V30 18409 H 2074.47 -3.65057 -3.6736 0
M  V30 18410 H 2071.14 -1.09449 -4.02898 0
M  V30 18411 H 2072.53 -5.12361 -4.34668 0
M  V30 18412 N 2075.25 1.06673 -1.16011 0
M  V30 18413 C 2076.16 2.17576 -0.877386 0
M  V30 18414 C 2077.18 1.73362 0.148919 0
M  V30 18415 O 2078.35 2.01382 -0.0268051 0
M  V30 18416 C 2075.42 3.44631 -0.378223 0
M  V30 18417 C 2074.48 4.03374 -1.46928 0
M  V30 18418 C 2073.71 5.24365 -0.993837 0
M  V30 18419 O 2073.94 5.70181 0.157925 0
M  V30 18420 O 2072.87 5.74962 -1.78052 0
M  V30 18421 H 2076.7 2.44264 -1.80468 0
M  V30 18422 H 2074.28 1.1614 -0.939777 0
M  V30 18423 H 2076.16 4.21265 -0.106644 0
M  V30 18424 H 2074.84 3.19478 0.521114 0
M  V30 18425 H 2073.75 3.28248 -1.79455 0
M  V30 18426 H 2075.08 4.32814 -2.34378 0
M  V30 18427 N 2076.73 0.957992 1.25141 0
M  V30 18428 C 2077.96 0.631439 1.97554 0
M  V30 18429 C 2078.38 -0.790342 1.7069 0
M  V30 18430 O 2077.74 -1.53495 0.964826 0
M  V30 18431 C 2077.79 0.900403 3.49178 0
M  V30 18432 O 2076.89 -0.01911 4.12396 0
M  V30 18433 H 2076.23 0.23972 0.619217 0
M  V30 18434 H 2078.76 1.2855 1.59173 0
M  V30 18435 H 2078.77 0.828022 3.99509 0
M  V30 18436 H 2077.45 1.93663 3.68059 0
M  V30 18437 H 2076.02 0.105763 3.7275 0
M  V30 18438 N 2078.21 -1.39832 0.726957 0
M  V30 18439 C 2079.43 -2.05501 0.280008 0
M  V30 18440 C 2079.86 -1.54436 -1.07383 0
M  V30 18441 O 2079.22 -0.684615 -1.67877 0
M  V30 18442 C 2079.26 -3.59492 0.282502 0
M  V30 18443 O 2078.37 -4.05842 -0.732546 0
M  V30 18444 H 2077.71 -0.651361 0.128936 0
M  V30 18445 H 2080.24 -1.79019 0.990626 0
M  V30 18446 H 2080.25 -4.07811 0.124104 0
M  V30 18447 H 2078.92 -3.96022 1.27041 0
M  V30 18448 H 2077.5 -3.68956 -0.540943 0
M  V30 18449 N 2079.69 -0.473982 -1.50304 0
M  V30 18450 C 2080.91 0.0798733 -2.07246 0
M  V30 18451 C 2081.34 1.3249 -1.33521 0
M  V30 18452 O 2080.69 1.77192 -0.383743 0
M  V30 18453 C 2080.74 0.343926 -3.58956 0
M  V30 18454 O 2079.85 1.42387 -3.8704 0
M  V30 18455 H 2079.19 -0.0142608 -0.663847 0
M  V30 18456 H 2081.72 -0.665854 -1.93462 0
M  V30 18457 H 2081.73 0.583558 -4.03805 0
M  V30 18458 H 2080.4 -0.565855 -4.12033 0
M  V30 18459 H 2078.98 1.17132 -3.54026 0
M  V30 18460 N 2081.16 1.56239 -0.206702 0
M  V30 18461 C 2082.41 1.98954 0.422943 0
M  V30 18462 C 2082.77 1.09166 1.58432 0
M  V30 18463 O 2082.06 0.138466 1.91099 0
M  V30 18464 C 2082.25 3.45345 0.920411 0
M  V30 18465 C 2082.08 4.49293 -0.191223 0
M  V30 18466 C 2080.85 5.01067 -0.652712 0
M  V30 18467 C 2083.05 5.04399 -1.00429 0
M  V30 18468 N 2081.03 5.88697 -1.74096 0
M  V30 18469 C 2082.4 5.88811 -1.94169 0
M  V30 18470 C 2084.46 4.86802 -1.0454 0
M  V30 18471 C 2083.16 6.57506 -2.91682 0
M  V30 18472 C 2085.19 5.56244 -2.00864 0
M  V30 18473 C 2084.55 6.40412 -2.93346 0
M  V30 18474 H 2080.65 0.772447 0.121857 0
M  V30 18475 H 2083.23 1.92134 -0.315064 0
M  V30 18476 H 2081.4 3.52642 1.62782 0
M  V30 18477 H 2083.13 3.75005 1.52163 0
M  V30 18478 H 2079.89 4.72971 -0.243962 0
M  V30 18479 H 2080.31 6.37214 -2.28663 0
M  V30 18480 H 2084.96 4.21395 -0.344349 0
M  V30 18481 H 2082.67 7.22103 -3.62757 0
M  V30 18482 H 2086.26 5.446 -2.047 0
M  V30 18483 H 2085.14 6.932 -3.66665 0
M  V30 18484 N 2082.64 -0.0668159 1.57458 0
M  V30 18485 C 2083.57 -1.10569 2.00766 0
M  V30 18486 C 2084.59 -1.34696 0.914378 0
M  V30 18487 O 2085.78 -1.32848 1.19221 0
M  V30 18488 C 2082.88 -2.45556 2.33571 0
M  V30 18489 C 2082.05 -2.41316 3.64808 0
M  V30 18490 C 2081.11 -3.58451 3.85227 0
M  V30 18491 O 2080.13 -3.39654 4.56754 0
M  V30 18492 N 2081.34 -4.7898 3.27961 0
M  V30 18493 H 2084.1 -0.736847 2.90501 0
M  V30 18494 H 2081.66 -0.255392 1.59873 0
M  V30 18495 H 2083.65 -3.2257 2.44399 0
M  V30 18496 H 2082.22 -2.74424 1.497 0
M  V30 18497 H 2081.44 -1.49655 3.64688 0
M  V30 18498 H 2082.73 -2.35589 4.50972 0
M  V30 18499 H 2082.13 -4.97155 2.69913 0
M  V30 18500 H 2080.69 -5.53488 3.4423 0
M  V30 18501 N 2084.12 -1.53926 -0.338317 0
M  V30 18502 C 2085.35 -1.75682 -1.1023 0
M  V30 18503 C 2085.77 -0.497087 -1.81413 0
M  V30 18504 O 2085.13 0.550577 -1.72738 0
M  V30 18505 C 2085.18 -2.94038 -2.08743 0
M  V30 18506 O 2084.28 -2.64552 -3.16364 0
M  V30 18507 H 2083.62 -0.582603 -0.318544 0
M  V30 18508 H 2086.15 -2.00904 -0.387113 0
M  V30 18509 H 2086.16 -3.20973 -2.51873 0
M  V30 18510 H 2084.84 -3.854 -1.56331 0
M  V30 18511 H 2083.41 -2.48521 -2.78014 0
M  V30 18512 N 2085.6 0.599608 -1.45748 0
M  V30 18513 C 2086.82 1.38971 -1.53954 0
M  V30 18514 C 2087.25 1.87278 -0.175618 0
M  V30 18515 O 2086.61 1.60602 0.841223 0
M  V30 18516 C 2086.66 2.56482 -2.53474 0
M  V30 18517 O 2085.76 3.57375 -2.05808 0
M  V30 18518 H 2085.1 0.414567 -0.518681 0
M  V30 18519 H 2087.63 0.728972 -1.91173 0
M  V30 18520 H 2087.64 3.03623 -2.72539 0
M  V30 18521 H 2086.32 2.20672 -3.52529 0
M  V30 18522 H 2084.89 3.1683 -1.96656 0
M  V30 18523 N 2087.08 1.33171 0.842803 0
M  V30 18524 C 2088.33 1.24159 1.59464 0
M  V30 18525 C 2088.65 -0.193595 1.94037 0
M  V30 18526 O 2087.92 -1.12135 1.60632 0
M  V30 18527 H 2086.5 0.456555 0.591241 0
M  V30 18528 H 2089.16 1.66842 1.00746 0
M  V30 18529 H 2088.25 1.83255 2.52634 0
M  V30 18530 N 2088.56 -1.06056 1.16576 0
M  V30 18531 C 2089.8 -1.80482 0.959457 0
M  V30 18532 C 2090.16 -1.85278 -0.503583 0
M  V30 18533 O 2091.36 -2.55708 -0.828663 0
M  V30 18534 C 2089.63 -3.20942 1.57261 0
M  V30 18535 S 2091.19 -4.11954 1.51128 0
M  V30 18536 H 2088.01 -0.621693 0.34499 0
M  V30 18537 H 2090.61 -1.27312 1.48364 0
M  V30 18538 H 2089.31 -3.15048 2.63007 0
M  V30 18539 H 2088.85 -3.79188 1.04785 0
M  V30 18540 H 2090.86 -4.93539 0.513209 0
M  V30 18541 N 2090.03 -0.964615 -1.24631 0
M  V30 18542 C 2091.26 -0.642327 -1.96677 0
M  V30 18543 C 2091.68 0.787619 -1.71587 0
M  V30 18544 O 2091.03 1.52808 -0.9978 0
M  V30 18545 C 2091.08 -0.903712 -3.50022 0
M  V30 18546 O 2090.81 -2.27744 -3.74252 0
M  V30 18547 C 2092.31 -0.595187 -4.39286 0
M  V30 18548 H 2089.53 -0.239932 -0.626637 0
M  V30 18549 H 2092.07 -1.29171 -1.58541 0
M  V30 18550 H 2090.23 -0.300589 -3.86232 0
M  V30 18551 H 2090.64 -2.35512 -4.68652 0
M  V30 18552 H 2092.11 -0.828552 -5.45746 0
M  V30 18553 H 2092.59 0.470491 -4.36673 0
M  V30 18554 H 2093.2 -1.17808 -4.08658 0
M  V30 18555 N 2091.51 1.39445 -0.734362 0
M  V30 18556 C 2092.44 2.29135 -0.0543743 0
M  V30 18557 C 2093.46 1.46785 0.704126 0
M  V30 18558 O 2094.65 1.69867 0.548394 0
M  V30 18559 C 2091.75 3.25393 0.947229 0
M  V30 18560 C 2090.92 4.36683 0.250381 0
M  V30 18561 C 2089.98 5.13255 1.16 0
M  V30 18562 O 2089 5.65616 0.637723 0
M  V30 18563 N 2090.21 5.24396 2.48976 0
M  V30 18564 H 2092.97 2.88134 -0.824567 0
M  V30 18565 H 2090.53 1.51018 -0.583531 0
M  V30 18566 H 2092.52 3.73494 1.55834 0
M  V30 18567 H 2091.09 2.6743 1.61863 0
M  V30 18568 H 2090.31 3.90467 -0.5412 0
M  V30 18569 H 2091.6 5.08268 -0.232571 0
M  V30 18570 H 2091 4.83371 2.93885 0
M  V30 18571 H 2089.56 5.75939 3.05185 0
M  V30 18572 N 2092.99 0.481946 1.5005 0
M  V30 18573 C 2093.94 -0.325422 2.25666 0
M  V30 18574 C 2094.92 -0.952113 1.29706 0
M  V30 18575 O 2096.12 -0.862865 1.54543 0
M  V30 18576 C 2093.24 -1.40052 3.13433 0
M  V30 18577 C 2092.33 -0.781026 4.16846 0
M  V30 18578 N 2092.72 0.105108 5.05691 0
M  V30 18579 C 2091.02 -1.04376 4.33615 0
M  V30 18580 C 2091.72 0.457801 5.79896 0
M  V30 18581 N 2090.7 -0.169673 5.43335 0
M  V30 18582 H 2094.5 0.357033 2.91723 0
M  V30 18583 H 2092.01 0.296785 1.59665 0
M  V30 18584 H 2094.01 -1.9922 3.6622 0
M  V30 18585 H 2092.67 -2.08486 2.48925 0
M  V30 18586 H 2093.68 0.474672 5.1572 0
M  V30 18587 H 2090.36 -1.72227 3.80321 0
M  V30 18588 H 2091.75 1.18162 6.61428 0
M  V30 18589 N 2094.47 -1.56127 0.214985 0
M  V30 18590 C 2095.72 -1.97737 -0.417663 0
M  V30 18591 C 2096.04 -1.10368 -1.6076 0
M  V30 18592 O 2095.31 -0.179261 -1.95078 0
M  V30 18593 H 2093.89 -0.730251 -0.157298 0
M  V30 18594 H 2096.55 -1.92477 0.306351 0
M  V30 18595 H 2095.64 -3.02994 -0.748421 0
M  V30 18596 N 2095.95 0.0584645 -1.57492 0
M  V30 18597 C 2097.17 0.771417 -1.9252 0
M  V30 18598 C 2097.6 1.69644 -0.812561 0
M  V30 18599 O 2096.95 1.79786 0.233784 0
M  V30 18600 C 2097 1.52975 -3.26544 0
M  V30 18601 O 2096.11 2.64128 -3.16718 0
M  V30 18602 H 2095.45 0.209569 -0.630061 0
M  V30 18603 H 2097.98 0.022721 -2.04587 0
M  V30 18604 H 2097.99 1.90612 -3.60737 0
M  V30 18605 H 2096.66 0.851136 -4.07098 0
M  V30 18606 H 2095.24 2.29251 -2.94106 0
M  V30 18607 N 2097.42 1.54103 0.330149 0
M  V30 18608 C 2098.67 1.71653 1.06675 0
M  V30 18609 C 2098.99 0.489514 1.88756 0
M  V30 18610 O 2098.26 -0.496523 1.89503 0
M  V30 18611 H 2096.84 0.63288 0.396827 0
M  V30 18612 H 2099.5 1.91391 0.36818 0
M  V30 18613 H 2098.6 2.59328 1.73653 0
M  V30 18614 N 2098.9 -0.59187 1.46064 0
M  V30 18615 C 2100.13 -1.38153 1.54688 0
M  V30 18616 C 2100.55 -1.87183 0.185547 0
M  V30 18617 O 2099.91 -1.61046 -0.832694 0
M  V30 18618 C 2099.96 -2.55134 2.54831 0
M  V30 18619 O 2099.06 -3.56279 2.077 0
M  V30 18620 H 2098.4 -0.41181 0.520873 0
M  V30 18621 H 2100.93 -0.718824 1.91557 0
M  V30 18622 H 2100.94 -3.02173 2.74145 0
M  V30 18623 H 2099.62 -2.188 3.53694 0
M  V30 18624 H 2098.2 -3.15782 1.98333 0
M  V30 18625 N 2100.38 -1.33616 -0.835729 0
M  V30 18626 C 2101.63 -1.25003 -1.58804 0
M  V30 18627 C 2101.95 0.183302 -1.94137 0
M  V30 18628 O 2101.22 1.11282 -1.61224 0
M  V30 18629 H 2099.8 -0.459684 -0.588812 0
M  V30 18630 H 2102.46 -1.67374 -0.998599 0
M  V30 18631 H 2101.56 -1.84593 -2.51658 0
M  V30 18632 N 2101.86 1.05436 -1.17136 0
M  V30 18633 C 2102.81 2.11403 -0.853984 0
M  V30 18634 C 2103.79 1.59995 0.170369 0
M  V30 18635 O 2104.98 1.76972 -0.0317102 0
M  V30 18636 C 2102.11 3.4134 -0.366345 0
M  V30 18637 C 2101.2 3.9955 -1.42198 0
M  V30 18638 N 2101.59 4.31757 -2.63476 0
M  V30 18639 C 2099.89 4.2726 -1.27926 0
M  V30 18640 C 2100.59 4.78146 -3.31287 0
M  V30 18641 N 2099.57 4.78114 -2.58665 0
M  V30 18642 H 2103.37 2.34162 -1.77611 0
M  V30 18643 H 2100.88 1.23061 -1.05971 0
M  V30 18644 H 2102.88 4.16726 -0.120535 0
M  V30 18645 H 2101.54 3.20015 0.549603 0
M  V30 18646 H 2102.55 4.21833 -3.00461 0
M  V30 18647 H 2099.23 4.15334 -0.424764 0
M  V30 18648 H 2100.62 5.12198 -4.34859 0
M  V30 18649 N 2103.34 0.971211 1.24118 0
M  V30 18650 C 2104.56 0.652357 1.96873 0
M  V30 18651 C 2104.99 -0.772193 1.71519 0
M  V30 18652 O 2104.34 -1.52463 0.981051 0
M  V30 18653 C 2104.39 0.937388 3.48203 0
M  V30 18654 O 2103.5 0.0246311 4.12393 0
M  V30 18655 H 2102.84 0.246274 0.61664 0
M  V30 18656 H 2105.37 1.30231 1.578 0
M  V30 18657 H 2105.38 0.870349 3.98609 0
M  V30 18658 H 2104.05 1.97556 3.65984 0
M  V30 18659 H 2102.63 0.145292 3.72617 0
M  V30 18660 N 2104.81 -1.39054 0.741747 0
M  V30 18661 C 2106.04 -2.05193 0.301789 0
M  V30 18662 C 2106.46 -1.55567 -1.05739 0
M  V30 18663 O 2105.82 -0.702382 -1.67141 0
M  V30 18664 C 2105.87 -3.59172 0.320615 0
M  V30 18665 O 2104.97 -4.06596 -0.68946 0
M  V30 18666 H 2104.32 -0.649957 0.135837 0
M  V30 18667 H 2106.85 -1.77958 1.00956 0
M  V30 18668 H 2106.86 -4.07657 0.167351 0
M  V30 18669 H 2105.53 -3.94652 1.31234 0
M  V30 18670 H 2104.11 -3.69509 -0.50178 0
M  V30 18671 N 2106.29 -0.489897 -1.49792 0
M  V30 18672 C 2107.52 0.0578875 -2.07319 0
M  V30 18673 C 2107.94 1.31067 -1.34919 0
M  V30 18674 O 2107.3 1.76775 -0.402515 0
M  V30 18675 C 2107.35 0.305835 -3.59301 0
M  V30 18676 O 2106.45 1.38274 -3.88528 0
M  V30 18677 H 2105.79 -0.021301 -0.663658 0
M  V30 18678 H 2108.32 -0.686335 -1.92745 0
M  V30 18679 H 2108.33 0.540697 -4.04401 0
M  V30 18680 H 2107.01 -0.609525 -4.11409 0
M  V30 18681 H 2105.59 1.13371 -3.55248 0
M  V30 18682 N 2107.77 1.56011 -0.223262 0
M  V30 18683 C 2109 2.02446 0.412189 0
M  V30 18684 C 2109.41 1.1023 1.53772 0
M  V30 18685 O 2108.75 0.104539 1.83402 0
M  V30 18686 C 2108.81 3.45214 1.00337 0
M  V30 18687 C 2108.48 4.56998 0.0130627 0
M  V30 18688 C 2109.47 5.13895 -0.787936 0
M  V30 18689 C 2107.16 5.02188 -0.106187 0
M  V30 18690 C 2109.15 6.14453 -1.69487 0
M  V30 18691 C 2106.84 6.02584 -1.01665 0
M  V30 18692 C 2107.84 6.58593 -1.80954 0
M  V30 18693 O 2107.53 7.57034 -2.7047 0
M  V30 18694 H 2107.26 0.667806 0.104934 0
M  V30 18695 H 2109.81 2.02606 -0.337661 0
M  V30 18696 H 2108.04 3.42129 1.80234 0
M  V30 18697 H 2109.73 3.75288 1.54641 0
M  V30 18698 H 2110.5 4.7983 -0.706267 0
M  V30 18699 H 2106.38 4.58271 0.500846 0
M  V30 18700 H 2109.92 6.58097 -2.31418 0
M  V30 18701 H 2105.82 6.3607 -1.09933 0
M  V30 18702 H 2106.59 7.74563 -2.64564 0
M  V30 18703 N 2109.25 -0.0501116 1.5752 0
M  V30 18704 C 2110.16 -1.07459 2.08542 0
M  V30 18705 C 2111.17 -1.41006 1.01947 0
M  V30 18706 O 2112.35 -1.50749 1.33555 0
M  V30 18707 C 2109.42 -2.36274 2.53723 0
M  V30 18708 C 2108.48 -2.095 3.74711 0
M  V30 18709 C 2107.71 -3.32174 4.17728 0
M  V30 18710 O 2107.93 -4.42091 3.60432 0
M  V30 18711 O 2106.87 -3.1911 5.10346 0
M  V30 18712 H 2110.69 -0.671065 2.96193 0
M  V30 18713 H 2108.28 -0.265709 1.47018 0
M  V30 18714 H 2110.16 -3.12043 2.83208 0
M  V30 18715 H 2108.83 -2.75963 1.69192 0
M  V30 18716 H 2107.74 -1.31366 3.50277 0
M  V30 18717 H 2109.07 -1.74679 4.60161 0
M  V30 18718 N 2110.73 -1.54276 -0.321972 0
M  V30 18719 C 2111.66 -1.80114 -1.41745 0
M  V30 18720 C 2112.67 -0.683177 -1.47772 0
M  V30 18721 O 2113.86 -0.960312 -1.50467 0
M  V30 18722 C 2110.96 -1.90532 -2.80269 0
M  V30 18723 C 2110.13 -3.20712 -2.97427 0
M  V30 18724 C 2109.19 -3.21811 -4.16322 0
M  V30 18725 O 2108.22 -3.95443 -4.09406 0
M  V30 18726 N 2109.42 -2.45708 -5.25935 0
M  V30 18727 H 2112.19 -2.74652 -1.19943 0
M  V30 18728 H 2109.75 -1.53592 -0.511965 0
M  V30 18729 H 2111.74 -1.88693 -3.58018 0
M  V30 18730 H 2110.31 -1.03083 -2.95115 0
M  V30 18731 H 2109.53 -3.35498 -2.06965 0
M  V30 18732 H 2110.82 -4.0666 -3.05786 0
M  V30 18733 H 2110.21 -1.85477 -5.34429 0
M  V30 18734 H 2108.77 -2.49645 -6.02097 0
M  V30 18735 N 2112.2 0.584116 -1.46376 0
M  V30 18736 C 2113.15 1.68815 -1.5325 0
M  V30 18737 C 2114.14 1.56013 -0.393561 0
M  V30 18738 O 2115.33 1.64951 -0.641886 0
M  V30 18739 C 2112.46 3.07599 -1.5244 0
M  V30 18740 C 2111.55 3.25703 -2.71622 0
M  V30 18741 N 2111.94 3.13972 -3.96555 0
M  V30 18742 C 2110.23 3.56638 -2.67816 0
M  V30 18743 C 2110.94 3.34042 -4.76226 0
M  V30 18744 N 2109.91 3.59131 -4.08075 0
M  V30 18745 H 2113.71 1.58273 -2.47642 0
M  V30 18746 H 2111.23 0.788103 -1.41995 0
M  V30 18747 H 2113.22 3.86834 -1.55452 0
M  V30 18748 H 2111.88 3.19272 -0.591231 0
M  V30 18749 H 2112.9 2.91868 -4.27824 0
M  V30 18750 H 2109.57 3.75004 -1.83516 0
M  V30 18751 H 2110.96 3.30167 -5.85183 0
M  V30 18752 N 2113.68 1.34058 0.828631 0
M  V30 18753 C 2114.93 1.25844 1.58138 0
M  V30 18754 C 2115.25 -0.173004 1.94231 0
M  V30 18755 O 2114.52 -1.10425 1.61812 0
M  V30 18756 H 2113.1 0.4628 0.586366 0
M  V30 18757 H 2115.76 1.67901 0.989709 0
M  V30 18758 H 2114.86 1.85925 2.50676 0
M  V30 18759 N 2115.16 -1.04814 1.17694 0
M  V30 18760 C 2116.39 -1.82088 0.992908 0
M  V30 18761 C 2116.81 -1.82538 -0.454023 0
M  V30 18762 O 2116.17 -1.23716 -1.3253 0
M  V30 18763 C 2116.22 -3.25912 1.54318 0
M  V30 18764 O 2115.32 -4.05346 0.759486 0
M  V30 18765 H 2114.66 -0.562852 0.352268 0
M  V30 18766 H 2117.19 -1.32054 1.56279 0
M  V30 18767 H 2117.2 -3.76705 1.56708 0
M  V30 18768 H 2115.88 -3.24899 2.59641 0
M  V30 18769 H 2114.45 -3.64056 0.807298 0
M  V30 18770 N 2116.64 -0.977779 -1.23601 0
M  V30 18771 C 2118.06 -0.685968 -1.44106 0
M  V30 18772 C 2118.26 0.748759 -1.87072 0
M  V30 18773 O 2117.31 1.5215 -2.01511 0
M  V30 18774 C 2118.62 -1.67866 -2.49482 0
M  V30 18775 C 2120.17 -1.69241 -2.63299 0
M  V30 18776 C 2120.65 -2.67334 -3.71883 0
M  V30 18777 N 2122.14 -2.65836 -3.79322 0
M  V30 18778 C 2122.87 -3.38406 -4.62892 0
M  V30 18779 N 2122.37 -4.20527 -5.50571 0
M  V30 18780 N 2124.16 -3.27183 -4.57064 0
M  V30 18781 H 2116.31 -1.90461 -0.940129 0
M  V30 18782 H 2118.58 -0.820555 -0.474756 0
M  V30 18783 H 2118.28 -2.70457 -2.24824 0
M  V30 18784 H 2118.16 -1.45942 -3.47823 0
M  V30 18785 H 2120.54 -0.673554 -2.8731 0
M  V30 18786 H 2120.62 -1.95231 -1.65283 0
M  V30 18787 H 2120.27 -3.6936 -3.4862 0
M  V30 18788 H 2120.2 -2.38619 -4.69434 0
M  V30 18789 H 2122.69 -2.06236 -3.16662 0
M  V30 18790 H 2123 -4.72763 -6.11322 0
M  V30 18791 H 2121.35 -4.24619 -5.50203 0
M  V30 18792 H 2124.54 -2.62481 -3.87584 0
M  V30 18793 H 2124.71 -3.84001 -5.21965 0
M  V30 18794 N 2118.12 1.38658 -0.749111 0
M  V30 18795 C 2119.34 2.0503 -0.312666 0
M  V30 18796 C 2119.77 1.56125 1.04912 0
M  V30 18797 O 2119.13 0.711236 1.66767 0
M  V30 18798 C 2119.17 3.58997 -0.339658 0
M  V30 18799 O 2118.28 4.06956 0.667887 0
M  V30 18800 H 2117.62 0.649228 -0.139282 0
M  V30 18801 H 2120.15 1.7742 -1.01898 0
M  V30 18802 H 2120.16 4.07562 -0.188968 0
M  V30 18803 H 2118.83 3.93951 -1.33325 0
M  V30 18804 H 2117.41 3.69769 0.482177 0
M  V30 18805 N 2119.6 0.497834 1.49531 0
M  V30 18806 C 2120.84 -0.0477142 2.02044 0
M  V30 18807 C 2121.16 -1.37777 1.37994 0
M  V30 18808 O 2120.43 -1.88476 0.534194 0
M  V30 18809 H 2119.01 -0.0206231 0.746715 0
M  V30 18810 H 2121.68 0.654353 1.83587 0
M  V30 18811 H 2120.77 -0.179706 3.11582 0
M  V30 18812 N 2121.07 -1.5589 0.231532 0
M  V30 18813 C 2122.01 -2.18025 -0.70695 0
M  V30 18814 C 2123.02 -1.15214 -1.1502 0
M  V30 18815 O 2124.21 -1.42149 -1.07963 0
M  V30 18816 C 2121.31 -2.75714 -1.97066 0
M  V30 18817 C 2120.48 -4.03794 -1.68135 0
M  V30 18818 C 2119.54 -4.4595 -2.79312 0
M  V30 18819 O 2118.57 -5.12645 -2.47354 0
M  V30 18820 N 2119.77 -4.12459 -4.08483 0
M  V30 18821 H 2122.53 -2.99186 -0.175389 0
M  V30 18822 H 2120.09 -1.6182 0.0509009 0
M  V30 18823 H 2122.09 -3.00882 -2.70652 0
M  V30 18824 H 2120.66 -1.98799 -2.41242 0
M  V30 18825 H 2119.88 -3.86377 -0.781436 0
M  V30 18826 H 2121.16 -4.87328 -1.46251 0
M  V30 18827 H 2120.56 -3.58884 -4.37286 0
M  V30 18828 H 2119.12 -4.42496 -4.78581 0
M  V30 18829 N 2122.55 0.0417572 -1.57545 0
M  V30 18830 C 2123.78 0.750955 -1.93327 0
M  V30 18831 C 2124.2 1.68773 -0.830508 0
M  V30 18832 O 2123.56 1.80024 0.214702 0
M  V30 18833 C 2123.61 1.49503 -3.28148 0
M  V30 18834 O 2122.71 2.60754 -3.19501 0
M  V30 18835 H 2122.05 0.202874 -0.632248 0
M  V30 18836 H 2124.58 0.00102047 -2.046 0
M  V30 18837 H 2124.59 1.86775 -3.62738 0
M  V30 18838 H 2123.27 0.80791 -4.07977 0
M  V30 18839 H 2121.84 2.26119 -2.96521 0
M  V30 18840 N 2124.03 1.54445 0.313786 0
M  V30 18841 C 2125.25 1.77413 1.07421 0
M  V30 18842 C 2125.68 0.525885 1.80599 0
M  V30 18843 O 2125.04 -0.523027 1.73592 0
M  V30 18844 C 2125.09 2.97322 2.04039 0
M  V30 18845 O 2124.19 2.69552 3.12115 0
M  V30 18846 H 2123.53 0.587597 0.309235 0
M  V30 18847 H 2126.06 2.01495 0.355102 0
M  V30 18848 H 2126.07 3.2494 2.46735 0
M  V30 18849 H 2124.75 3.87839 1.5018 0
M  V30 18850 H 2123.32 2.52913 2.74025 0
M  V30 18851 N 2125.51 -0.576345 1.46683 0
M  V30 18852 C 2126.92 -0.900361 1.31779 0
M  V30 18853 C 2127.12 -1.99344 0.293964 0
M  V30 18854 O 2126.18 -2.50697 -0.301245 0
M  V30 18855 C 2127.49 -1.31169 2.70583 0
M  V30 18856 C 2129.04 -1.42419 2.78722 0
M  V30 18857 C 2129.52 -1.86916 4.18123 0
M  V30 18858 N 2131.01 -1.94099 4.20571 0
M  V30 18859 C 2131.74 -2.29817 5.2533 0
M  V30 18860 N 2131.24 -2.64282 6.40411 0
M  V30 18861 N 2133.03 -2.30426 5.12699 0
M  V30 18862 H 2125.18 0.145622 2.119 0
M  V30 18863 H 2127.44 0.00247797 0.947997 0
M  V30 18864 H 2127.15 -0.582484 3.46843 0
M  V30 18865 H 2127.02 -2.2719 3.01106 0
M  V30 18866 H 2129.41 -2.14425 2.02746 0
M  V30 18867 H 2129.49 -0.446341 2.51876 0
M  V30 18868 H 2129.14 -1.15486 4.94596 0
M  V30 18869 H 2129.07 -2.8567 4.4238 0
M  V30 18870 H 2131.56 -1.69927 3.3754 0
M  V30 18871 H 2131.87 -2.90509 7.16118 0
M  V30 18872 H 2130.22 -2.61906 6.43762 0
M  V30 18873 H 2133.41 -2.02927 4.21827 0
M  V30 18874 H 2133.58 -2.57934 5.94453 0
M  V30 18875 N 2126.99 -1.34495 -0.82151 0
M  V30 18876 C 2128.23 -1.26681 -1.57469 0
M  V30 18877 C 2128.55 0.162701 -1.9432 0
M  V30 18878 O 2127.82 1.09566 -1.62395 0
M  V30 18879 H 2126.4 -0.465903 -0.583903 0
M  V30 18880 H 2129.07 -1.68424 -0.980791 0
M  V30 18881 H 2128.16 -1.87251 -2.49686 0
M  V30 18882 N 2128.46 1.04188 -1.18248 0
M  V30 18883 C 2129.37 2.15666 -0.923339 0
M  V30 18884 C 2130.39 1.73638 0.112112 0
M  V30 18885 O 2131.57 2.0128 -0.0695153 0
M  V30 18886 C 2128.63 3.43751 -0.451239 0
M  V30 18887 C 2127.69 4.00167 -1.55451 0
M  V30 18888 C 2126.93 5.22139 -1.10484 0
M  V30 18889 O 2127.15 5.70388 0.0369453 0
M  V30 18890 O 2126.08 5.71056 -1.90207 0
M  V30 18891 H 2129.91 2.40381 -1.85609 0
M  V30 18892 H 2127.49 1.14121 -0.9642 0
M  V30 18893 H 2129.38 4.20944 -0.195977 0
M  V30 18894 H 2128.05 3.20511 0.45323 0
M  V30 18895 H 2126.96 3.24368 -1.86377 0
M  V30 18896 H 2128.29 4.27745 -2.43506 0
M  V30 18897 N 2129.94 0.98432 1.23081 0
M  V30 18898 C 2131.36 0.6936 1.43741 0
M  V30 18899 C 2131.56 -0.738828 1.87466 0
M  V30 18900 O 2130.61 -1.51079 2.02315 0
M  V30 18901 C 2131.93 1.69187 2.48589 0
M  V30 18902 C 2133.48 1.70635 2.62398 0
M  V30 18903 C 2133.95 2.69302 3.7046 0
M  V30 18904 N 2135.44 2.67844 3.77907 0
M  V30 18905 C 2136.18 3.40857 4.6109 0
M  V30 18906 N 2135.67 4.23441 5.48333 0
M  V30 18907 N 2137.47 3.29603 4.55322 0
M  V30 18908 H 2129.62 1.90957 0.930015 0
M  V30 18909 H 2131.88 0.823061 0.470398 0
M  V30 18910 H 2131.59 2.71646 2.23386 0
M  V30 18911 H 2131.46 1.47784 3.47044 0
M  V30 18912 H 2133.85 0.688782 2.86949 0
M  V30 18913 H 2133.93 1.96104 1.64246 0
M  V30 18914 H 2133.57 3.71203 3.46656 0
M  V30 18915 H 2133.5 2.41106 4.68162 0
M  V30 18916 H 2135.99 2.07913 3.15564 0
M  V30 18917 H 2136.31 4.75999 6.08806 0
M  V30 18918 H 2134.65 4.27531 5.47944 0
M  V30 18919 H 2137.84 2.64533 3.86186 0
M  V30 18920 H 2138.01 3.86764 5.19921 0
M  V30 18921 N 2131.42 -1.38259 0.756453 0
M  V30 18922 C 2132.37 -2.27752 0.10629 0
M  V30 18923 C 2133.35 -1.45343 -0.690231 0
M  V30 18924 O 2134.55 -1.6805 -0.555715 0
M  V30 18925 C 2131.68 -3.34231 -0.783865 0
M  V30 18926 C 2130.76 -4.24095 0.0196592 0
M  V30 18927 N 2131.15 -4.94621 1.05753 0
M  V30 18928 C 2129.45 -4.45521 -0.206711 0
M  V30 18929 C 2130.15 -5.60837 1.54393 0
M  V30 18930 N 2129.13 -5.36774 0.85873 0
M  V30 18931 H 2132.93 -2.79744 0.901144 0
M  V30 18932 H 2130.44 -1.51195 0.592764 0
M  V30 18933 H 2132.44 -3.97235 -1.26529 0
M  V30 18934 H 2131.1 -2.83797 -1.57764 0
M  V30 18935 H 2132.11 -4.97496 1.43938 0
M  V30 18936 H 2128.79 -4.05989 -0.973599 0
M  V30 18937 H 2130.18 -6.27245 2.4086 0
M  V30 18938 N 2132.9 -0.505757 -1.49264 0
M  V30 18939 C 2134.15 0.0369987 -2.02066 0
M  V30 18940 C 2134.47 1.37044 -1.38723 0
M  V30 18941 O 2133.74 1.8819 -0.544182 0
M  V30 18942 H 2132.32 0.0166628 -0.746814 0
M  V30 18943 H 2134.98 -0.66408 -1.83238 0
M  V30 18944 H 2134.08 0.163179 -3.11673 0
M  V30 18945 N 2134.38 1.55765 -0.239796 0
M  V30 18946 C 2135.6 2.03618 0.394243 0
M  V30 18947 C 2136.03 1.1181 1.51261 0
M  V30 18948 O 2135.38 0.1097 1.80968 0
M  V30 18949 C 2135.43 3.49545 0.886029 0
M  V30 18950 O 2134.54 3.60872 1.99613 0
M  V30 18951 H 2133.88 0.658289 0.0869012 0
M  V30 18952 H 2136.41 2.0134 -0.363774 0
M  V30 18953 H 2136.42 3.90226 1.1911 0
M  V30 18954 H 2135.09 4.15845 0.0675883 0
M  V30 18955 H 2133.67 3.32085 1.6963 0
M  V30 18956 N 2135.85 -0.0334016 1.57565 0
M  V30 18957 C 2137.08 -0.740692 1.93723 0
M  V30 18958 C 2137.5 -1.6833 0.839447 0
M  V30 18959 O 2136.86 -1.80136 -0.205152 0
M  V30 18960 C 2136.91 -1.47761 3.28936 0
M  V30 18961 O 2136.01 -2.59056 3.2088 0
M  V30 18962 H 2135.36 -0.199518 0.633315 0
M  V30 18963 H 2137.89 0.00982998 2.04598 0
M  V30 18964 H 2137.9 -1.84849 3.63724 0
M  V30 18965 H 2136.57 -0.786263 4.084 0
M  V30 18966 H 2135.15 -2.24543 2.97716 0
M  V30 18967 N 2137.33 -1.54609 -0.305591 0
M  V30 18968 C 2138.56 -1.77981 -1.06479 0
M  V30 18969 C 2138.98 -0.535455 -1.80318 0
M  V30 18970 O 2138.34 0.513813 -1.73867 0
M  V30 18971 C 2138.39 -2.984 -2.0246 0
M  V30 18972 O 2137.49 -2.71203 -3.10681 0
M  V30 18973 H 2136.83 -0.589228 -0.306114 0
M  V30 18974 H 2139.36 -2.0168 -0.344411 0
M  V30 18975 H 2139.37 -3.26244 -2.45008 0
M  V30 18976 H 2138.05 -3.8863 -1.48121 0
M  V30 18977 H 2136.63 -2.54362 -2.7268 0
M  V30 18978 N 2138.81 0.568558 -1.46987 0
M  V30 18979 C 2140.06 1.3236 -1.52726 0
M  V30 18980 C 2140.38 1.94107 -0.186356 0
M  V30 18981 O 2139.65 1.79328 0.78857 0
M  V30 18982 H 2138.23 0.491483 -0.562542 0
M  V30 18983 H 2140.89 0.664797 -1.83212 0
M  V30 18984 H 2139.99 2.12301 -2.28768 0
M  V30 18985 N 2140.29 1.34929 0.814366 0
M  V30 18986 C 2141.51 1.31019 1.60776 0
M  V30 18987 C 2141.94 -0.111347 1.8777 0
M  V30 18988 O 2141.3 -1.07577 1.45935 0
M  V30 18989 C 2141.34 2.11503 2.92059 0
M  V30 18990 O 2140.45 1.49042 3.84526 0
M  V30 18991 H 2139.79 0.449572 0.488652 0
M  V30 18992 H 2142.32 1.77857 1.01133 0
M  V30 18993 H 2142.33 2.23174 3.41552 0
M  V30 18994 H 2141 3.14853 2.71736 0
M  V30 18995 H 2139.58 1.46165 3.4306 0
M  V30 18996 N 2141.77 -1.0356 1.18799 0
M  V30 18997 C 2142.99 -1.81025 1.01216 0
M  V30 18998 C 2143.42 -1.8301 -0.434636 0
M  V30 18999 O 2142.77 -1.25115 -1.3121 0
M  V30 19000 C 2142.82 -3.24257 1.57766 0
M  V30 19001 O 2141.93 -4.04518 0.802435 0
M  V30 19002 H 2141.27 -0.559085 0.358218 0
M  V30 19003 H 2143.8 -1.30389 1.57671 0
M  V30 19004 H 2143.81 -3.75022 1.60694 0
M  V30 19005 H 2142.48 -3.22127 2.63073 0
M  V30 19006 H 2141.06 -3.6318 0.845866 0
M  V30 19007 N 2143.25 -0.990834 -1.22557 0
M  V30 19008 C 2144.47 -0.683595 -1.9581 0
M  V30 19009 C 2144.9 0.744808 -1.72726 0
M  V30 19010 O 2144.25 1.50883 -1.00518 0
M  V30 19011 C 2144.3 -0.992665 -3.46668 0
M  V30 19012 O 2143.41 -0.0902361 -4.12301 0
M  V30 19013 H 2142.75 -0.256053 -0.612644 0
M  V30 19014 H 2145.28 -1.32725 -1.55709 0
M  V30 19015 H 2145.29 -0.933654 -3.97174 0
M  V30 19016 H 2143.96 -2.03353 -3.62795 0
M  V30 19017 H 2142.54 -0.204554 -3.72339 0
M  V30 19018 N 2144.72 1.37856 -0.763775 0
M  V30 19019 C 2145.95 2.04686 -0.334395 0
M  V30 19020 C 2146.37 1.57229 1.0325 0
M  V30 19021 O 2145.73 0.728884 1.66003 0
M  V30 19022 C 2145.78 3.58616 -0.377715 0
M  V30 19023 O 2144.88 4.07641 0.624687 0
M  V30 19024 H 2144.22 0.647714 -0.146161 0
M  V30 19025 H 2146.75 1.76329 -1.03774 0
M  V30 19026 H 2146.76 4.07339 -0.232185 0
M  V30 19027 H 2145.44 3.92514 -1.37496 0
M  V30 19028 H 2144.02 3.7026 0.442931 0
M  V30 19029 N 2146.2 0.513665 1.48994 0
M  V30 19030 C 2147.43 -0.0227356 2.06587 0
M  V30 19031 C 2147.84 -1.30207 1.37269 0
M  V30 19032 O 2147.18 -1.78134 0.448768 0
M  V30 19033 C 2147.24 -0.333871 3.57946 0
M  V30 19034 C 2146.91 0.849596 4.49033 0
M  V30 19035 C 2147.91 1.74357 4.89791 0
M  V30 19036 C 2145.59 1.05198 4.9116 0
M  V30 19037 C 2147.58 2.82398 5.71428 0
M  V30 19038 C 2145.27 2.13555 5.72571 0
M  V30 19039 C 2146.27 3.01989 6.12611 0
M  V30 19040 O 2145.96 4.08474 6.9239 0
M  V30 19041 H 2145.69 0.0229763 0.675609 0
M  V30 19042 H 2148.24 0.713941 1.92593 0
M  V30 19043 H 2146.47 -1.12431 3.69995 0
M  V30 19044 H 2148.16 -0.810396 3.97728 0
M  V30 19045 H 2148.93 1.59909 4.5788 0
M  V30 19046 H 2144.81 0.372979 4.59489 0
M  V30 19047 H 2148.35 3.51453 6.026 0
M  V30 19048 H 2144.25 2.27994 6.03895 0
M  V30 19049 H 2145.02 4.05982 7.10718 0
M  V30 19050 N 2147.68 -1.55636 0.248053 0
M  V30 19051 C 2148.93 -1.98579 -0.375626 0
M  V30 19052 C 2149.25 -1.13753 -1.58383 0
M  V30 19053 O 2148.52 -0.2206 -1.94654 0
M  V30 19054 H 2147.1 -0.733423 -0.141773 0
M  V30 19055 H 2149.76 -1.91784 0.34711 0
M  V30 19056 H 2148.86 -3.04513 -0.683983 0
M  V30 19057 N 2149.16 0.0250451 -1.5758 0
M  V30 19058 C 2150.09 1.05207 -2.03627 0
M  V30 19059 C 2151.1 1.32224 -0.949769 0
M  V30 19060 O 2152.29 1.29641 -1.22701 0
M  V30 19061 C 2149.39 2.39277 -2.39999 0
M  V30 19062 C 2148.56 2.31559 -3.71078 0
M  V30 19063 C 2147.62 3.48111 -3.94595 0
M  V30 19064 O 2146.65 3.27424 -4.65599 0
M  V30 19065 N 2147.85 4.70117 -3.40545 0
M  V30 19066 H 2150.62 0.659567 -2.92352 0
M  V30 19067 H 2148.18 0.212915 -1.60494 0
M  V30 19068 H 2150.17 3.15976 -2.52866 0
M  V30 19069 H 2148.74 2.70358 -1.56924 0
M  V30 19070 H 2147.96 1.39933 -3.68527 0
M  V30 19071 H 2149.25 2.23549 -4.57059 0
M  V30 19072 H 2148.65 4.89824 -2.83 0
M  V30 19073 H 2147.2 5.44167 -3.58784 0
M  V30 19074 N 2150.64 1.54769 0.297388 0
M  V30 19075 C 2151.59 1.82354 1.36861 0
M  V30 19076 C 2152.57 0.680909 1.45782 0
M  V30 19077 O 2153.76 0.941639 1.49874 0
M  V30 19078 C 2150.89 2.0775 2.73304 0
M  V30 19079 C 2149.98 3.28207 2.68591 0
M  V30 19080 N 2150.37 4.4868 2.33494 0
M  V30 19081 C 2148.67 3.30307 2.99689 0
M  V30 19082 C 2149.37 5.30707 2.38169 0
M  V30 19083 N 2148.34 4.68517 2.75669 0
M  V30 19084 H 2152.14 2.73061 1.08696 0
M  V30 19085 H 2149.66 1.54317 0.505976 0
M  V30 19086 H 2151.66 2.2566 3.50547 0
M  V30 19087 H 2150.32 1.18312 3.02378 0
M  V30 19088 H 2151.33 4.75217 2.05887 0
M  V30 19089 H 2148 2.50987 3.33634 0
M  V30 19090 H 2149.39 6.36976 2.13802 0
M  V30 19091 N 2152.11 -0.560755 1.47286 0
M  V30 19092 C 2153.36 -1.31548 1.53426 0
M  V30 19093 C 2153.68 -1.94006 0.196648 0
M  V30 19094 O 2152.95 -1.79743 -0.779049 0
M  V30 19095 H 2151.53 -0.488493 0.565141 0
M  V30 19096 H 2154.19 -0.655071 1.83562 0
M  V30 19097 H 2153.29 -2.11085 2.2989 0
M  V30 19098 N 2153.59 -1.35359 -0.807199 0
M  V30 19099 C 2154.82 -1.31869 -1.60079 0
M  V30 19100 C 2155.24 0.101387 -1.87827 0
M  V30 19101 O 2154.6 1.06801 -1.46503 0
M  V30 19102 C 2154.65 -2.13049 -2.90934 0
M  V30 19103 O 2153.75 -1.51079 -3.8373 0
M  V30 19104 H 2153.09 -0.452158 -0.486261 0
M  V30 19105 H 2155.62 -1.78391 -1.00189 0
M  V30 19106 H 2155.63 -2.24982 -3.40363 0
M  V30 19107 H 2154.31 -3.16289 -2.70063 0
M  V30 19108 H 2152.88 -1.47982 -3.4228 0
M  V30 19109 N 2155.07 1.02928 -1.19346 0
M  V30 19110 C 2156.32 1.75973 -0.993881 0
M  V30 19111 C 2156.64 1.89088 0.476523 0
M  V30 19112 O 2155.91 1.42417 1.34515 0
M  V30 19113 H 2154.49 0.651893 -0.364753 0
M  V30 19114 H 2157.15 1.24161 -1.50233 0
M  V30 19115 H 2156.25 2.76812 -1.44157 0
M  V30 19116 N 2156.55 0.997319 1.2203 0
M  V30 19117 C 2157.77 0.69397 1.95445 0
M  V30 19118 C 2158.2 -0.735638 1.73118 0
M  V30 19119 O 2157.56 -1.50348 1.01317 0
M  V30 19120 C 2157.6 1.01104 3.46136 0
M  V30 19121 O 2156.71 0.1121 4.12248 0
M  V30 19122 H 2156.05 0.259299 0.611277 0
M  V30 19123 H 2158.58 1.33549 1.55003 0
M  V30 19124 H 2158.59 0.954704 3.96673 0
M  V30 19125 H 2157.26 2.05274 3.61712 0
M  V30 19126 H 2155.84 0.224297 3.72225 0
M  V30 19127 N 2158.03 -1.37449 0.771075 0
M  V30 19128 C 2159.44 -1.53106 0.450629 0
M  V30 19129 C 2159.64 -1.72957 -1.03384 0
M  V30 19130 O 2158.7 -1.75055 -1.81967 0
M  V30 19131 C 2160.01 -2.72792 1.26511 0
M  V30 19132 C 2161.56 -2.86653 1.25695 0
M  V30 19133 C 2162.03 -4.09321 2.05477 0
M  V30 19134 N 2163.53 -4.16432 2.02827 0
M  V30 19135 C 2164.26 -5.10381 2.61341 0
M  V30 19136 N 2163.76 -6.09892 3.2864 0
M  V30 19137 N 2165.55 -5.02859 2.51175 0
M  V30 19138 H 2157.7 -1.22815 1.73292 0
M  V30 19139 H 2159.96 -0.597977 0.735614 0
M  V30 19140 H 2159.67 -2.64586 2.31705 0
M  V30 19141 H 2159.54 -3.66457 0.893837 0
M  V30 19142 H 2161.93 -2.9433 0.213001 0
M  V30 19143 H 2162.01 -1.93949 1.66786 0
M  V30 19144 H 2161.66 -4.02404 3.09892 0
M  V30 19145 H 2161.59 -5.01137 1.61768 0
M  V30 19146 H 2164.08 -3.45173 1.53831 0
M  V30 19147 H 2164.39 -6.78106 3.70664 0
M  V30 19148 H 2162.73 -6.10172 3.32738 0
M  V30 19149 H 2165.93 -4.24063 1.98213 0
M  V30 19150 H 2166.1 -5.75893 2.97071 0
M  V30 19151 N 2159.5 -0.52156 -1.4872 0
M  V30 19152 C 2160.44 0.282802 -2.27449 0
M  V30 19153 C 2161.45 0.912106 -1.3485 0
M  V30 19154 O 2162.64 0.79197 -1.59969 0
M  V30 19155 C 2159.74 1.41494 -3.07949 0
M  V30 19156 C 2158.91 0.889125 -4.28268 0
M  V30 19157 C 2157.97 1.90136 -4.90647 0
M  V30 19158 O 2157 1.46166 -5.50113 0
M  V30 19159 N 2158.2 3.23306 -4.82134 0
M  V30 19160 H 2160.96 -0.392372 -2.9712 0
M  V30 19161 H 2158.52 -0.355365 -1.57952 0
M  V30 19162 H 2160.52 2.09008 -3.46551 0
M  V30 19163 H 2159.09 1.99391 -2.40753 0
M  V30 19164 H 2158.31 0.0382432 -3.94181 0
M  V30 19165 H 2159.59 0.516566 -5.06171 0
M  V30 19166 H 2158.99 3.61702 -4.34958 0
M  V30 19167 H 2157.55 3.86477 -5.24861 0
M  V30 19168 N 2160.98 1.55502 -0.256304 0
M  V30 19169 C 2162.21 2.04025 0.372624 0
M  V30 19170 C 2162.63 1.13408 1.50067 0
M  V30 19171 O 2161.99 0.128888 1.80841 0
M  V30 19172 C 2162.04 3.50465 0.848906 0
M  V30 19173 O 2161.14 3.62969 1.95774 0
M  V30 19174 H 2160.48 0.659174 0.0799143 0
M  V30 19175 H 2163.01 2.00943 -0.385109 0
M  V30 19176 H 2163.02 3.91468 1.14965 0
M  V30 19177 H 2161.7 4.15893 0.0234786 0
M  V30 19178 H 2160.28 3.33865 1.66098 0
M  V30 19179 N 2162.46 -0.0166879 1.57591 0
M  V30 19180 C 2163.39 -1.01268 2.10398 0
M  V30 19181 C 2164.37 -1.36922 1.00928 0
M  V30 19182 O 2165.56 -1.45589 1.2852 0
M  V30 19183 C 2162.69 -2.30979 2.59357 0
M  V30 19184 C 2161.64 -2.09533 3.73202 0
M  V30 19185 C 2160.97 -3.45113 4.08413 0
M  V30 19186 C 2162.27 -1.47144 5.01145 0
M  V30 19187 H 2163.96 -0.573053 2.93865 0
M  V30 19188 H 2161.51 -0.274203 1.41365 0
M  V30 19189 H 2163.46 -3.00996 2.94923 0
M  V30 19190 H 2162.18 -2.77024 1.72989 0
M  V30 19191 H 2160.84 -1.41946 3.38004 0
M  V30 19192 H 2160.49 -3.88829 3.19094 0
M  V30 19193 H 2160.19 -3.31585 4.85104 0
M  V30 19194 H 2161.71 -4.16472 4.46524 0
M  V30 19195 H 2163.13 -2.07094 5.34588 0
M  V30 19196 H 2161.53 -1.44154 5.82529 0
M  V30 19197 H 2162.6 -0.438665 4.82912 0
M  V30 19198 N 2163.94 -1.54924 -0.289176 0
M  V30 19199 C 2165.19 -1.74421 -1.02087 0
M  V30 19200 C 2165.51 -0.539388 -1.87392 0
M  V30 19201 O 2164.78 0.446105 -1.90753 0
M  V30 19202 H 2163.36 -0.643179 -0.379908 0
M  V30 19203 H 2166.02 -1.923 -0.317306 0
M  V30 19204 H 2165.12 -2.63841 -1.66716 0
M  V30 19205 N 2165.42 0.552936 -1.47582 0
M  V30 19206 C 2166.37 1.65526 -1.56796 0
M  V30 19207 C 2167.35 1.55143 -0.426565 0
M  V30 19208 O 2168.54 1.63552 -0.67673 0
M  V30 19209 C 2165.67 3.04296 -1.58931 0
M  V30 19210 C 2164.76 3.19868 -2.7847 0
M  V30 19211 N 2165.15 3.05489 -4.03125 0
M  V30 19212 C 2163.45 3.50877 -2.75321 0
M  V30 19213 C 2164.15 3.23865 -4.83204 0
M  V30 19214 N 2163.12 3.50395 -4.15601 0
M  V30 19215 H 2166.93 1.52985 -2.50944 0
M  V30 19216 H 2164.44 0.757807 -1.43635 0
M  V30 19217 H 2166.44 3.83449 -1.63622 0
M  V30 19218 H 2165.1 3.17946 -0.658821 0
M  V30 19219 H 2166.11 2.82727 -4.33919 0
M  V30 19220 H 2162.78 3.71027 -1.91429 0
M  V30 19221 H 2164.17 3.17681 -5.92055 0
M  V30 19222 N 2166.89 1.35785 0.800009 0
M  V30 19223 C 2168.14 1.2917 1.55434 0
M  V30 19224 C 2168.46 -0.131766 1.94554 0
M  V30 19225 O 2167.73 -1.06968 1.64118 0
M  V30 19226 H 2166.31 0.475134 0.576417 0
M  V30 19227 H 2168.98 1.69963 0.953872 0
M  V30 19228 H 2168.07 1.912 2.46676 0
M  V30 19229 N 2168.37 -1.02294 1.19891 0
M  V30 19230 C 2169.3 -2.108 0.899788 0
M  V30 19231 C 2170.32 -1.62429 -0.109916 0
M  V30 19232 O 2171.51 -1.78094 0.120276 0
M  V30 19233 C 2168.61 -3.37325 0.326304 0
M  V30 19234 C 2167.78 -4.1486 1.38601 0
M  V30 19235 C 2166.84 -5.19693 0.824993 0
M  V30 19236 O 2165.86 -5.48966 1.50415 0
M  V30 19237 N 2167.07 -5.79328 -0.36876 0
M  V30 19238 H 2169.83 -2.37048 1.8338 0
M  V30 19239 H 2167.39 -1.18633 1.10172 0
M  V30 19240 H 2169.38 -4.04651 -0.0629984 0
M  V30 19241 H 2167.95 -3.08377 -0.512119 0
M  V30 19242 H 2167.17 -3.42596 1.94991 0
M  V30 19243 H 2168.46 -4.63446 2.09989 0
M  V30 19244 H 2167.86 -5.57871 -0.93792 0
M  V30 19245 H 2166.42 -6.48033 -0.699773 0
M  V30 19246 N 2169.85 -1.00378 -1.21499 0
M  V30 19247 C 2170.8 -0.534183 -2.21654 0
M  V30 19248 C 2171.78 0.403544 -1.55757 0
M  V30 19249 O 2172.98 0.228594 -1.75518 0
M  V30 19250 C 2170.11 0.139036 -3.43018 0
M  V30 19251 C 2169.19 -0.819638 -4.16104 0
M  V30 19252 N 2169.58 -1.97196 -4.65776 0
M  V30 19253 C 2167.88 -0.637767 -4.41417 0
M  V30 19254 C 2168.58 -2.57457 -5.21623 0
M  V30 19255 N 2167.56 -1.85627 -5.10924 0
M  V30 19256 H 2171.36 -1.41287 -2.57711 0
M  V30 19257 H 2168.87 -0.867442 -1.37292 0
M  V30 19258 H 2170.87 0.492917 -4.13976 0
M  V30 19259 H 2169.53 1.01372 -3.0847 0
M  V30 19260 H 2170.54 -2.35237 -4.61393 0
M  V30 19261 H 2167.22 0.189943 -4.17068 0
M  V30 19262 H 2168.61 -3.54903 -5.7052 0
M  V30 19263 N 2171.33 1.37038 -0.778354 0
M  V30 19264 C 2172.58 1.99134 -0.344995 0
M  V30 19265 C 2172.9 1.62093 1.08402 0
M  V30 19266 O 2172.17 0.889547 1.74539 0
M  V30 19267 H 2170.75 0.73654 -0.124572 0
M  V30 19268 H 2173.41 1.67413 -0.997945 0
M  V30 19269 H 2172.51 3.09152 -0.427927 0
M  V30 19270 N 2172.81 0.529439 1.48441 0
M  V30 19271 C 2174.03 -0.00290016 2.074 0
M  V30 19272 C 2174.46 -1.27443 1.38347 0
M  V30 19273 O 2173.82 -1.75646 0.449242 0
M  V30 19274 C 2173.86 -0.210465 3.59985 0
M  V30 19275 O 2172.97 -1.27924 3.92057 0
M  V30 19276 H 2172.31 0.0388892 0.66286 0
M  V30 19277 H 2174.84 0.737197 1.90857 0
M  V30 19278 H 2174.85 -0.433287 4.05693 0
M  V30 19279 H 2173.52 0.718388 4.09649 0
M  V30 19280 H 2172.1 -1.03912 3.58129 0
M  V30 19281 N 2174.29 -1.55364 0.264547 0
M  V30 19282 C 2175.53 -1.98966 -0.354543 0
M  V30 19283 C 2175.85 -1.15427 -1.57168 0
M  V30 19284 O 2175.12 -0.241233 -1.94409 0
M  V30 19285 H 2173.7 -0.734885 -0.133986 0
M  V30 19286 H 2176.37 -1.91405 0.367431 0
M  V30 19287 H 2175.46 -3.05221 -0.651647 0
M  V30 19288 N 2175.76 0.00833021 -1.57598 0
M  V30 19289 C 2176.99 0.709778 -1.94877 0
M  V30 19290 C 2177.41 1.66973 -0.866121 0
M  V30 19291 O 2176.77 1.80439 0.176468 0
M  V30 19292 C 2176.82 1.42509 -3.31245 0
M  V30 19293 O 2175.92 2.53918 -3.2496 0
M  V30 19294 H 2175.26 0.189418 -0.636409 0
M  V30 19295 H 2177.79 -0.0423784 -2.04556 0
M  V30 19296 H 2177.8 1.79039 -3.66618 0
M  V30 19297 H 2176.48 0.72119 -4.09599 0
M  V30 19298 H 2175.06 2.19778 -3.01251 0
M  V30 19299 N 2177.24 1.55075 0.280956 0
M  V30 19300 C 2178.49 1.7496 1.0116 0
M  V30 19301 C 2178.81 0.549318 1.87103 0
M  V30 19302 O 2178.08 -0.435983 1.90987 0
M  V30 19303 H 2176.66 0.645185 0.376492 0
M  V30 19304 H 2179.32 1.92465 0.307104 0
M  V30 19305 H 2178.42 2.64721 1.65315 0
M  V30 19306 N 2178.72 -0.545102 1.47873 0
M  V30 19307 C 2179.65 -1.66665 1.57339 0
M  V30 19308 C 2180.66 -1.56204 0.458698 0
M  V30 19309 O 2181.85 -1.62941 0.728868 0
M  V30 19310 C 2178.95 -3.05217 1.47295 0
M  V30 19311 C 2178.13 -3.41311 2.73543 0
M  V30 19312 C 2177.19 -4.59078 2.57165 0
M  V30 19313 O 2176.21 -4.63053 3.31014 0
M  V30 19314 N 2177.41 -5.56323 1.65786 0
M  V30 19315 H 2180.18 -1.58986 2.54054 0
M  V30 19316 H 2177.74 -0.732029 1.44405 0
M  V30 19317 H 2179.73 -3.81853 1.34055 0
M  V30 19318 H 2178.3 -3.07056 0.586146 0
M  V30 19319 H 2177.52 -2.54003 3.01457 0
M  V30 19320 H 2178.81 -3.62205 3.5733 0
M  V30 19321 H 2178.21 -5.55877 1.04961 0
M  V30 19322 H 2176.76 -6.32237 1.58492 0
M  V30 19323 N 2180.2 -1.36208 -0.792797 0
M  V30 19324 C 2181.42 -1.3356 -1.58671 0
M  V30 19325 C 2181.85 0.0814602 -1.87924 0
M  V30 19326 O 2181.21 1.05241 -1.47628 0
M  V30 19327 C 2181.25 -2.16123 -2.88658 0
M  V30 19328 O 2180.36 -1.5514 -3.82106 0
M  V30 19329 H 2179.7 -0.45729 -0.481438 0
M  V30 19330 H 2182.23 -1.79444 -0.982909 0
M  V30 19331 H 2182.24 -2.28579 -3.37958 0
M  V30 19332 H 2180.91 -3.19136 -2.66693 0
M  V30 19333 H 2179.49 -1.51604 -3.40691 0
M  V30 19334 N 2181.68 1.01656 -1.20431 0
M  V30 19335 C 2183.09 1.56704 -1.01493 0
M  V30 19336 C 2183.44 1.9146 0.428672 0
M  V30 19337 O 2182.56 1.72238 1.31008 0
M  V30 19338 C 2183.16 2.84735 -1.83607 0
M  V30 19339 C 2181.72 3.3631 -1.69034 0
M  V30 19340 C 2180.86 2.09617 -1.81538 0
M  V30 19341 H 2183.81 0.840383 -1.34623 0
M  V30 19342 H 2183.84 3.56144 -1.33946 0
M  V30 19343 H 2183.35 2.59407 -2.88668 0
M  V30 19344 H 2181.45 3.66598 -0.666096 0
M  V30 19345 H 2181.56 4.08511 -2.50312 0
M  V30 19346 H 2179.93 2.22072 -1.24724 0
M  V30 19347 H 2180.71 1.86716 -2.88083 0
M  V30 19348 N 2183.15 1.01021 1.20965 0
M  V30 19349 C 2184.38 0.714661 1.94698 0
M  V30 19350 C 2184.8 -0.717235 1.73889 0
M  V30 19351 O 2184.16 -1.49265 1.02906 0
M  V30 19352 C 2184.21 1.04769 3.45045 0
M  V30 19353 O 2183.31 0.155818 4.12106 0
M  V30 19354 H 2182.65 0.265768 0.608493 0
M  V30 19355 H 2185.18 1.35186 1.53577 0
M  V30 19356 H 2185.19 0.996722 3.95638 0
M  V30 19357 H 2183.87 2.09099 3.59514 0
M  V30 19358 H 2182.45 0.263764 3.71966 0
M  V30 19359 N 2184.63 -1.36623 0.78561 0
M  V30 19360 C 2186.04 -1.81917 0.419903 0
M  V30 19361 C 2186.39 -1.65376 -1.0557 0
M  V30 19362 O 2185.52 -1.17258 -1.81878 0
M  V30 19363 C 2186.11 -3.30272 0.755384 0
M  V30 19364 C 2184.67 -3.73789 0.442556 0
M  V30 19365 C 2183.82 -2.58948 0.992018 0
M  V30 19366 H 2186.77 -1.24899 0.979084 0
M  V30 19367 H 2186.79 -3.80473 0.0450829 0
M  V30 19368 H 2186.3 -3.42278 1.8294 0
M  V30 19369 H 2184.4 -3.67345 -0.623584 0
M  V30 19370 H 2184.52 -4.69373 0.960503 0
M  V30 19371 H 2182.88 -2.51289 0.415458 0
M  V30 19372 H 2183.66 -2.73742 2.07172 0
M  V30 19373 N 2186.11 -0.537304 -1.48158 0
M  V30 19374 C 2187.33 -0.00809879 -2.07398 0
M  V30 19375 C 2187.76 1.26708 -1.39021 0
M  V30 19376 O 2187.12 1.75405 -0.458551 0
M  V30 19377 C 2187.17 0.191371 -3.60092 0
M  V30 19378 O 2186.27 1.25844 -3.9273 0
M  V30 19379 H 2185.61 -0.042404 -0.662645 0
M  V30 19380 H 2188.14 -0.747308 -1.90464 0
M  V30 19381 H 2188.15 0.411766 -4.05917 0
M  V30 19382 H 2186.83 -0.740103 -4.09262 0
M  V30 19383 H 2185.4 1.02012 -3.58675 0
M  V30 19384 N 2187.59 1.55221 -0.272782 0
M  V30 19385 C 2189 1.59392 0.0814225 0
M  V30 19386 C 2189.2 1.29 1.54794 0
M  V30 19387 O 2188.26 1.04975 2.29644 0
M  V30 19388 C 2189.57 2.99288 -0.291106 0
M  V30 19389 C 2191.12 3.12097 -0.23753 0
M  V30 19390 C 2191.6 4.54255 -0.584464 0
M  V30 19391 N 2193.09 4.60089 -0.53593 0
M  V30 19392 C 2193.82 5.68108 -0.777202 0
M  V30 19393 N 2193.32 6.84283 -1.08297 0
M  V30 19394 N 2195.11 5.57647 -0.706157 0
M  V30 19395 H 2187.26 1.73242 -1.22886 0
M  V30 19396 H 2189.53 0.807717 -0.496284 0
M  V30 19397 H 2189.23 3.26355 -1.31093 0
M  V30 19398 H 2189.11 3.75389 0.36921 0
M  V30 19399 H 2191.49 2.84796 0.773005 0
M  V30 19400 H 2191.57 2.38214 -0.93207 0
M  V30 19401 H 2191.22 4.82282 -1.59267 0
M  V30 19402 H 2191.15 5.26435 0.13184 0
M  V30 19403 H 2193.64 3.76631 -0.309385 0
M  V30 19404 H 2193.95 7.62561 -1.2538 0
M  V30 19405 H 2192.3 6.85904 -1.12072 0
M  V30 19406 H 2195.49 4.65763 -0.46714 0
M  V30 19407 H 2195.66 6.41754 -0.897574 0
M  V30 19408 N 2189.07 2.77022e-05 1.576 0
M  V30 19409 C 2190.31 -0.683462 1.90193 0
M  V30 19410 C 2190.64 -1.74311 0.8741 0
M  V30 19411 O 2189.91 -1.957 -0.0884894 0
M  V30 19412 H 2188.49 -0.25543 0.701972 0
M  V30 19413 H 2191.15 0.0409602 1.94857 0
M  V30 19414 H 2190.24 -1.15469 2.89954 0
M  V30 19415 N 2190.54 -1.55222 -0.272728 0
M  V30 19416 C 2191.96 -1.47068 -0.619933 0
M  V30 19417 C 2192.16 -0.685012 -1.89499 0
M  V30 19418 O 2191.22 -0.203975 -2.51675 0
M  V30 19419 C 2192.53 -2.91283 -0.746642 0
M  V30 19420 C 2194.08 -3.01499 -0.840678 0
M  V30 19421 C 2194.55 -4.46968 -0.999161 0
M  V30 19422 N 2196.04 -4.50798 -1.06468 0
M  V30 19423 C 2196.78 -5.60572 -1.20611 0
M  V30 19424 N 2196.27 -6.80211 -1.31471 0
M  V30 19425 N 2198.07 -5.48315 -1.23723 0
M  V30 19426 H 2190.22 -2.04757 0.564642 0
M  V30 19427 H 2192.48 -0.92852 0.191194 0
M  V30 19428 H 2192.19 -3.51496 0.119815 0
M  V30 19429 H 2192.06 -3.40314 -1.62684 0
M  V30 19430 H 2194.45 -2.41382 -1.6976 0
M  V30 19431 H 2194.53 -2.5572 0.0641323 0
M  V30 19432 H 2194.17 -5.07688 -0.146895 0
M  V30 19433 H 2194.1 -4.90404 -1.91862 0
M  V30 19434 H 2196.59 -3.64617 -0.993132 0
M  V30 19435 H 2196.91 -7.59624 -1.42098 0
M  V30 19436 H 2195.25 -6.83022 -1.28475 0
M  V30 19437 H 2198.44 -4.53787 -1.14869 0
M  V30 19438 H 2198.62 -6.33909 -1.34401 0
M  V30 19439 N 2192.02 0.537252 -1.4816 0
M  V30 19440 C 2192.97 1.63854 -1.58543 0
M  V30 19441 C 2193.96 1.54681 -0.442996 0
M  V30 19442 O 2195.15 1.62825 -0.694039 0
M  V30 19443 C 2192.28 3.02593 -1.62149 0
M  V30 19444 C 2191.36 3.16896 -2.81847 0
M  V30 19445 N 2191.75 3.01197 -4.06343 0
M  V30 19446 C 2190.05 3.47937 -2.79027 0
M  V30 19447 C 2190.75 3.18722 -4.86612 0
M  V30 19448 N 2189.73 3.45967 -4.19294 0
M  V30 19449 H 2193.53 1.50315 -2.52552 0
M  V30 19450 H 2191.05 0.74253 -1.44431 0
M  V30 19451 H 2193.04 3.81692 -1.6768 0
M  V30 19452 H 2191.7 3.17229 -0.692506 0
M  V30 19453 H 2192.71 2.78109 -4.36893 0
M  V30 19454 H 2189.39 3.68976 -1.95353 0
M  V30 19455 H 2190.78 3.11383 -5.95391 0
M  V30 19456 N 2193.5 1.36626 0.785562 0
M  V30 19457 C 2194.75 1.30811 1.54055 0
M  V30 19458 C 2195.07 -0.111123 1.94683 0
M  V30 19459 O 2194.34 -1.05221 1.65243 0
M  V30 19460 H 2192.92 0.481221 0.571345 0
M  V30 19461 H 2195.58 1.70965 0.935791 0
M  V30 19462 H 2194.68 1.93806 2.44634 0
M  V30 19463 N 2194.98 -1.01016 1.20969 0
M  V30 19464 C 2196.2 -1.78837 1.05034 0
M  V30 19465 C 2196.63 -1.8389 -0.39572 0
M  V30 19466 O 2195.99 -1.2787 -1.28527 0
M  V30 19467 C 2196.03 -3.20837 1.64608 0
M  V30 19468 O 2195.14 -4.02725 0.888059 0
M  V30 19469 H 2194.48 -0.55136 0.369997 0
M  V30 19470 H 2197.01 -1.27015 1.60401 0
M  V30 19471 H 2197.02 -3.71529 1.68613 0
M  V30 19472 H 2195.69 -3.16474 2.69846 0
M  V30 19473 H 2194.27 -3.61304 0.922711 0
M  V30 19474 N 2196.46 -1.01661 -1.20428 0
M  V30 19475 C 2197.7 -0.704556 -1.89421 0
M  V30 19476 C 2198.03 0.768165 -1.79232 0
M  V30 19477 O 2197.3 1.55252 -1.19473 0
M  V30 19478 H 2195.88 -0.257615 -0.701173 0
M  V30 19479 H 2198.54 -1.28821 -1.46257 0
M  V30 19480 H 2197.63 -0.987968 -2.9605 0
M  V30 19481 N 2197.93 1.36205 -0.792844 0
M  V30 19482 C 2199.16 2.03931 -0.377737 0
M  V30 19483 C 2199.58 1.59384 0.998919 0
M  V30 19484 O 2198.94 0.763932 1.64419 0
M  V30 19485 C 2198.99 3.57734 -0.453698 0
M  V30 19486 O 2198.09 4.08875 0.538079 0
M  V30 19487 H 2197.44 0.644468 -0.159867 0
M  V30 19488 H 2199.97 1.74089 -1.07491 0
M  V30 19489 H 2199.98 4.06755 -0.318535 0
M  V30 19490 H 2198.65 3.8951 -1.45791 0
M  V30 19491 H 2197.23 3.71116 0.364294 0
M  V30 19492 N 2199.41 0.545154 1.47871 0
M  V30 19493 C 2200.66 0.0165886 2.02093 0
M  V30 19494 C 2200.98 -1.33317 1.42308 0
M  V30 19495 O 2200.25 -1.86681 0.593886 0
M  V30 19496 H 2198.83 0.00314351 0.746993 0
M  V30 19497 H 2201.49 0.712429 1.81412 0
M  V30 19498 H 2200.59 -0.0804873 3.11996 0
M  V30 19499 N 2200.89 -1.55074 0.28101 0
M  V30 19500 C 2201.82 -2.20164 -0.637229 0
M  V30 19501 C 2202.84 -1.18815 -1.11296 0
M  V30 19502 O 2204.02 -1.45512 -1.03386 0
M  V30 19503 C 2201.12 -2.81844 -1.88195 0
M  V30 19504 C 2200.3 -4.08938 -1.55204 0
M  V30 19505 C 2199.36 -4.5461 -2.64983 0
M  V30 19506 O 2198.38 -5.20254 -2.3092 0
M  V30 19507 N 2199.58 -4.25245 -3.95154 0
M  V30 19508 H 2202.35 -2.99593 -0.0801167 0
M  V30 19509 H 2199.91 -1.61576 0.102357 0
M  V30 19510 H 2201.9 -3.0934 -2.60942 0
M  V30 19511 H 2200.47 -2.06373 -2.34796 0
M  V30 19512 H 2199.69 -3.88668 -0.658117 0
M  V30 19513 H 2200.98 -4.91734 -1.30673 0
M  V30 19514 H 2200.38 -3.72614 -4.25647 0
M  V30 19515 H 2198.94 -4.57498 -4.64261 0
M  V30 19516 N 2202.37 -0.00838561 -1.57598 0
M  V30 19517 C 2203.59 0.689069 -1.95619 0
M  V30 19518 C 2204.02 1.66045 -0.883782 0
M  V30 19519 O 2203.38 1.80616 0.15732 0
M  V30 19520 C 2203.43 1.38988 -3.32738 0
M  V30 19521 O 2202.53 2.50458 -3.27635 0
M  V30 19522 H 2201.87 0.182657 -0.638383 0
M  V30 19523 H 2204.4 -0.064072 -2.045 0
M  V30 19524 H 2204.41 1.7514 -3.68497 0
M  V30 19525 H 2203.09 0.677706 -4.10341 0
M  V30 19526 H 2201.66 2.16571 -3.03565 0
M  V30 19527 N 2203.85 1.55365 0.264492 0
M  V30 19528 C 2205.07 1.80741 1.01722 0
M  V30 19529 C 2205.5 0.583075 1.78835 0
M  V30 19530 O 2204.86 -0.467535 1.75168 0
M  V30 19531 C 2204.9 3.03663 1.94477 0
M  V30 19532 O 2204.01 2.79345 3.03381 0
M  V30 19533 H 2203.35 0.597137 0.290384 0
M  V30 19534 H 2205.88 2.02523 0.290818 0
M  V30 19535 H 2205.89 3.32625 2.36272 0
M  V30 19536 H 2204.56 3.9242 1.37765 0
M  V30 19537 H 2203.14 2.61503 2.6584 0
M  V30 19538 N 2205.33 -0.529387 1.48443 0
M  V30 19539 C 2206.55 -1.31468 1.60409 0
M  V30 19540 C 2206.98 -1.86227 0.264771 0
M  V30 19541 O 2206.33 -1.64433 -0.763639 0
M  V30 19542 C 2206.38 -2.44096 2.65423 0
M  V30 19543 O 2205.49 -3.47149 2.22624 0
M  V30 19544 H 2204.83 -0.389348 0.53787 0
M  V30 19545 H 2207.36 -0.636931 1.94433 0
M  V30 19546 H 2207.37 -2.90274 2.86715 0
M  V30 19547 H 2206.04 -2.03601 3.62656 0
M  V30 19548 H 2204.62 -3.07086 2.11548 0
M  V30 19549 N 2206.8 -1.37041 -0.778305 0
M  V30 19550 C 2208.03 -1.3487 -1.56504 0
M  V30 19551 C 2208.44 0.069447 -1.89073 0
M  V30 19552 O 2207.78 1.03985 -1.51436 0
M  V30 19553 C 2207.85 -2.1159 -2.90637 0
M  V30 19554 C 2207.51 -3.60603 -2.80739 0
M  V30 19555 C 2208.51 -4.54623 -2.52218 0
M  V30 19556 C 2206.19 -4.03638 -2.98967 0
M  V30 19557 C 2208.19 -5.89656 -2.42043 0
M  V30 19558 C 2205.87 -5.38759 -2.88413 0
M  V30 19559 C 2206.87 -6.3158 -2.59991 0
M  V30 19560 O 2206.56 -7.64218 -2.49451 0
M  V30 19561 H 2206.29 -0.463888 -0.491715 0
M  V30 19562 H 2208.85 -1.80891 -0.973021 0
M  V30 19563 H 2207.08 -1.60249 -3.51933 0
M  V30 19564 H 2208.76 -2.02137 -3.51988 0
M  V30 19565 H 2209.53 -4.22685 -2.37828 0
M  V30 19566 H 2205.41 -3.31755 -3.20093 0
M  V30 19567 H 2208.95 -6.62075 -2.19779 0
M  V30 19568 H 2204.85 -5.703 -3.0237 0
M  V30 19569 H 2205.62 -7.74465 -2.6485 0
M  V30 19570 N 2208.28 1.00373 -1.21503 0
M  V30 19571 C 2209.51 1.78278 -1.0598 0
M  V30 19572 C 2209.93 1.84098 0.385962 0
M  V30 19573 O 2209.29 1.28549 1.27847 0
M  V30 19574 C 2209.34 3.1996 -1.66307 0
M  V30 19575 O 2208.44 4.02248 -0.909404 0
M  V30 19576 H 2207.78 0.54939 -0.372916 0
M  V30 19577 H 2210.31 1.26162 -1.61072 0
M  V30 19578 H 2210.32 3.70629 -1.70581 0
M  V30 19579 H 2209 3.15038 -2.71521 0
M  V30 19580 H 2207.57 3.60809 -0.941859 0
M  V30 19581 N 2209.76 1.02298 1.19887 0
M  V30 19582 C 2211.17 0.746598 1.71122 0
M  V30 19583 C 2211.52 -0.734303 1.81941 0
M  V30 19584 O 2210.65 -1.57272 1.48642 0
M  V30 19585 C 2211.24 1.34862 3.10802 0
M  V30 19586 C 2209.8 1.12096 3.59321 0
M  V30 19587 C 2208.95 1.45035 2.36347 0
M  V30 19588 H 2211.9 1.19165 1.04811 0
M  V30 19589 H 2211.92 0.742503 3.73185 0
M  V30 19590 H 2211.43 2.42643 3.02896 0
M  V30 19591 H 2209.53 0.0610992 3.7255 0
M  V30 19592 H 2209.65 1.80551 4.43777 0
M  V30 19593 H 2208.01 0.869529 2.39398 0
M  V30 19594 H 2208.79 2.53887 2.31076 0
M  V30 19595 N 2211.24 -1.35782 0.800057 0
M  V30 19596 C 2212.47 -2.02903 0.389077 0
M  V30 19597 C 2212.88 -1.60447 -1.00267 0
M  V30 19598 O 2212.22 -0.794482 -1.65631 0
M  V30 19599 C 2212.28 -3.57426 0.385558 0
M  V30 19600 C 2211.94 -4.23124 1.7267 0
M  V30 19601 C 2212.94 -4.45265 2.68393 0
M  V30 19602 C 2210.63 -4.60378 2.00892 0
M  V30 19603 C 2212.62 -5.03754 3.90526 0
M  V30 19604 C 2210.31 -5.18582 3.23289 0
M  V30 19605 C 2211.31 -5.40211 4.17925 0
M  V30 19606 O 2210.99 -5.9719 5.38163 0
M  V30 19607 H 2210.73 -0.657505 0.157044 0
M  V30 19608 H 2213.28 -1.7452 1.08314 0
M  V30 19609 H 2211.51 -3.84973 -0.365061 0
M  V30 19610 H 2213.2 -4.059 -0.00221161 0
M  V30 19611 H 2213.96 -4.1687 2.4788 0
M  V30 19612 H 2209.84 -4.42861 1.28045 0
M  V30 19613 H 2213.39 -5.20552 4.64405 0
M  V30 19614 H 2209.28 -5.46404 3.43676 0
M  V30 19615 H 2210.05 -6.15647 5.39371 0
M  V30 19616 N 2212.72 -0.552988 -1.4758 0
M  V30 19617 C 2213.96 -0.0273058 -2.02082 0
M  V30 19618 C 2214.28 1.32561 -1.43013 0
M  V30 19619 O 2213.55 1.86363 -0.603778 0
M  V30 19620 H 2212.13 -0.00710495 -0.746966 0
M  V30 19621 H 2214.8 -0.72204 -1.81032 0
M  V30 19622 H 2213.89 0.0639403 -3.12034 0
M  V30 19623 N 2214.19 1.54923 -0.28923 0
M  V30 19624 C 2215.42 2.0477 0.329263 0
M  V30 19625 C 2215.84 1.16566 1.47628 0
M  V30 19626 O 2215.2 0.167218 1.80527 0
M  V30 19627 C 2215.25 3.52187 0.774376 0
M  V30 19628 O 2214.35 3.6704 1.88031 0
M  V30 19629 H 2213.69 0.66072 0.0659143 0
M  V30 19630 H 2216.22 2.00081 -0.427645 0
M  V30 19631 H 2216.23 3.93818 1.06635 0
M  V30 19632 H 2214.91 4.1585 -0.0647438 0
M  V30 19633 H 2213.49 3.37313 1.58979 0
M  V30 19634 N 2215.67 0.0167433 1.57591 0
M  V30 19635 C 2216.92 -0.663251 1.90907 0
M  V30 19636 C 2217.24 -1.73375 0.892539 0
M  V30 19637 O 2216.51 -1.95783 -0.0677279 0
M  V30 19638 H 2215.09 -0.247971 0.704641 0
M  V30 19639 H 2217.75 0.0616251 1.94803 0
M  V30 19640 H 2216.85 -1.12387 2.91162 0
M  V30 19641 N 2217.15 -1.55503 -0.256249 0
M  V30 19642 C 2218.38 -1.81278 -1.00762 0
M  V30 19643 C 2218.8 -0.592551 -1.78523 0
M  V30 19644 O 2218.16 0.458239 -1.75413 0
M  V30 19645 C 2218.21 -3.0469 -1.92864 0
M  V30 19646 O 2217.31 -2.8095 -3.01896 0
M  V30 19647 H 2216.65 -0.598669 -0.287213 0
M  V30 19648 H 2219.18 -2.02674 -0.280074 0
M  V30 19649 H 2219.19 -3.33873 -2.34505 0
M  V30 19650 H 2217.87 -3.93145 -1.35682 0
M  V30 19651 H 2216.44 -2.62909 -2.64449 0
M  V30 19652 N 2218.63 0.521507 -1.48721 0
M  V30 19653 C 2219.88 1.27434 -1.56859 0
M  V30 19654 C 2220.2 1.93416 -0.248016 0
M  V30 19655 O 2219.47 1.81746 0.731119 0
M  V30 19656 H 2218.05 0.473337 -0.577894 0
M  V30 19657 H 2220.71 0.606173 -1.85234 0
M  V30 19658 H 2219.81 2.04916 -2.35406 0
M  V30 19659 N 2220.11 1.37452 0.771027 0
M  V30 19660 C 2221.35 1.33903 1.53106 0
M  V30 19661 C 2221.71 -0.0758063 1.92251 0
M  V30 19662 O 2221 -1.0346 1.61266 0
M  V30 19663 C 2221.19 2.21264 2.80672 0
M  V30 19664 C 2221.02 3.71101 2.53997 0
M  V30 19665 C 2219.79 4.40204 2.48089 0
M  V30 19666 C 2221.99 4.63945 2.21945 0
M  V30 19667 N 2219.97 5.75577 2.13505 0
M  V30 19668 C 2221.34 5.877 1.97505 0
M  V30 19669 C 2223.4 4.52323 2.08106 0
M  V30 19670 C 2222.1 7.01136 1.60625 0
M  V30 19671 C 2224.13 5.65645 1.72626 0
M  V30 19672 C 2223.49 6.88451 1.49048 0
M  V30 19673 H 2219.59 0.545269 0.56054 0
M  V30 19674 H 2222.17 1.72679 0.899441 0
M  V30 19675 H 2220.34 1.84704 3.41671 0
M  V30 19676 H 2222.08 2.08969 3.46575 0
M  V30 19677 H 2218.83 3.93215 2.63967 0
M  V30 19678 H 2219.26 6.47121 1.98907 0
M  V30 19679 H 2223.9 3.57948 2.25018 0
M  V30 19680 H 2221.62 7.95445 1.42453 0
M  V30 19681 H 2225.2 5.58624 1.62576 0
M  V30 19682 H 2224.08 7.74652 1.22 0
M  V30 19683 N 2221.58 -0.997276 1.22033 0
M  V30 19684 C 2222.81 -1.77713 1.06924 0
M  V30 19685 C 2223.23 -1.843 -0.376193 0
M  V30 19686 O 2222.59 -1.29226 -1.27163 0
M  V30 19687 C 2222.64 -3.19073 1.68002 0
M  V30 19688 O 2221.74 -4.0176 0.930723 0
M  V30 19689 H 2221.09 -0.547405 0.375824 0
M  V30 19690 H 2223.62 -1.25306 1.61739 0
M  V30 19691 H 2223.63 -3.6972 1.72544 0
M  V30 19692 H 2222.3 -3.13594 2.73188 0
M  V30 19693 H 2220.88 -3.60305 0.96098 0
M  V30 19694 N 2223.06 -1.02932 -1.19343 0
M  V30 19695 C 2224.29 -0.745545 -1.93537 0
M  V30 19696 C 2224.71 0.68948 -1.75008 0
M  V30 19697 O 2224.07 1.47609 -1.05268 0
M  V30 19698 C 2224.12 -1.10245 -3.43334 0
M  V30 19699 O 2223.22 -0.221361 -4.11805 0
M  V30 19700 H 2222.56 -0.275415 -0.604188 0
M  V30 19701 H 2225.09 -1.37612 -1.51407 0
M  V30 19702 H 2225.1 -1.05954 -3.94002 0
M  V30 19703 H 2223.78 -2.14792 -3.56142 0
M  V30 19704 H 2222.36 -0.322907 -3.71499 0
M  V30 19705 N 2224.54 1.35356 -0.807246 0
M  V30 19706 C 2225.77 2.03519 -0.399345 0
M  V30 19707 C 2226.19 1.60434 0.981958 0
M  V30 19708 O 2225.55 0.781328 1.636 0
M  V30 19709 C 2225.6 3.57233 -0.491615 0
M  V30 19710 O 2224.7 4.09422 0.494682 0
M  V30 19711 H 2224.04 0.642736 -0.166693 0
M  V30 19712 H 2226.57 1.72939 -1.09331 0
M  V30 19713 H 2226.58 4.06394 -0.361659 0
M  V30 19714 H 2225.26 3.87941 -1.49914 0
M  V30 19715 H 2223.83 3.71482 0.324911 0
M  V30 19716 N 2226.02 0.560807 1.47284 0
M  V30 19717 C 2227.43 0.220837 1.58065 0
M  V30 19718 C 2227.63 -1.27668 1.55894 0
M  V30 19719 O 2226.69 -2.05708 1.46426 0
M  V30 19720 C 2228 0.850676 2.88416 0
M  V30 19721 C 2229.55 0.822237 3.02007 0
M  V30 19722 C 2230.03 1.43121 4.35064 0
M  V30 19723 N 2231.52 1.39456 4.41708 0
M  V30 19724 C 2232.25 1.83534 5.43234 0
M  V30 19725 N 2231.75 2.35485 6.51551 0
M  V30 19726 N 2233.54 1.74583 5.34301 0
M  V30 19727 H 2225.69 1.53371 1.46939 0
M  V30 19728 H 2227.96 0.639795 0.699547 0
M  V30 19729 H 2227.66 1.90326 2.95752 0
M  V30 19730 H 2227.54 0.345839 3.75611 0
M  V30 19731 H 2229.92 -0.221663 2.94266 0
M  V30 19732 H 2230 1.36487 2.16345 0
M  V30 19733 H 2229.65 2.4742 4.43561 0
M  V30 19734 H 2229.58 0.86399 5.19464 0
M  V30 19735 H 2232.07 1.01459 3.64026 0
M  V30 19736 H 2232.38 2.67034 7.25198 0
M  V30 19737 H 2230.73 2.39498 6.5243 0
M  V30 19738 H 2233.92 1.33771 4.48579 0
M  V30 19739 H 2234.09 2.09253 6.13284 0
M  V30 19740 N 2227.5 -1.54768 0.297442 0
M  V30 19741 C 2228.74 -1.99673 -0.31226 0
M  V30 19742 C 2229.07 -1.18735 -1.54684 0
M  V30 19743 O 2228.34 -0.282416 -1.93854 0
M  V30 19744 H 2226.92 -0.737562 -0.118368 0
M  V30 19745 H 2229.58 -1.90583 0.407949 0
M  V30 19746 H 2228.67 -3.06535 -0.586759 0
M  V30 19747 N 2228.97 -0.0251005 -1.5758 0
M  V30 19748 C 2230.39 0.514292 -1.79477 0
M  V30 19749 C 2230.74 1.72489 -0.934987 0
M  V30 19750 O 2229.86 2.15918 -0.144283 0
M  V30 19751 C 2230.46 0.939785 -3.25505 0
M  V30 19752 C 2229.02 1.42432 -3.48411 0
M  V30 19753 C 2228.16 0.387152 -2.74584 0
M  V30 19754 H 2231.11 -0.251157 -1.567 0
M  V30 19755 H 2231.13 1.80439 -3.34996 0
M  V30 19756 H 2230.65 0.0584946 -3.88056 0
M  V30 19757 H 2228.75 2.32567 -2.91107 0
M  V30 19758 H 2228.86 1.43447 -4.57121 0
M  V30 19759 H 2227.22 0.854367 -2.39943 0
M  V30 19760 H 2228.01 -0.485603 -3.39848 0
M  V30 19761 N 2230.45 1.55637 0.247999 0
M  V30 19762 C 2231.68 1.81208 0.992335 0
M  V30 19763 C 2232.09 0.598356 1.79489 0
M  V30 19764 O 2231.43 -0.442403 1.78293 0
M  V30 19765 C 2231.5 3.00113 1.97921 0
M  V30 19766 C 2231.16 4.36179 1.36369 0
M  V30 19767 C 2232.16 5.14215 0.76673 0
M  V30 19768 C 2229.84 4.82874 1.38339 0
M  V30 19769 C 2231.84 6.37093 0.197666 0
M  V30 19770 C 2229.52 6.05702 0.810468 0
M  V30 19771 C 2230.52 6.8265 0.218634 0
M  V30 19772 O 2230.21 8.03157 -0.34544 0
M  V30 19773 H 2229.94 0.606922 0.297693 0
M  V30 19774 H 2232.49 2.03531 0.276482 0
M  V30 19775 H 2230.72 2.73543 2.73334 0
M  V30 19776 H 2232.41 3.12786 2.58688 0
M  V30 19777 H 2233.18 4.79259 0.744029 0
M  V30 19778 H 2229.06 4.22973 1.83343 0
M  V30 19779 H 2232.6 6.97097 -0.264911 0
M  V30 19780 H 2228.5 6.40135 0.830492 0
M  V30 19781 H 2229.27 8.18156 -0.237198 0
M  V30 19782 N 2231.93 -0.513613 1.48996 0
M  V30 19783 C 2232.84 -1.64314 1.67446 0
M  V30 19784 C 2233.86 -1.64845 0.556976 0
M  V30 19785 O 2235.03 -1.83497 0.830114 0
M  V30 19786 C 2232.1 -3.00729 1.7252 0
M  V30 19787 C 2231.16 -3.10925 2.96014 0
M  V30 19788 C 2230.39 -4.40832 3.00837 0
M  V30 19789 O 2230.62 -5.28895 2.13604 0
M  V30 19790 O 2229.55 -4.55737 3.93176 0
M  V30 19791 H 2233.38 -1.51682 2.63109 0
M  V30 19792 H 2230.96 -0.688519 1.32589 0
M  V30 19793 H 2232.84 -3.81828 1.78284 0
M  V30 19794 H 2231.52 -3.1365 0.800333 0
M  V30 19795 H 2230.42 -2.2906 2.95774 0
M  V30 19796 H 2231.76 -3.02926 3.87939 0
M  V30 19797 N 2233.41 -1.37859 -0.763727 0
M  V30 19798 C 2234.63 -1.36896 -1.55802 0
M  V30 19799 C 2235.06 0.0415805 -1.88054 0
M  V30 19800 O 2234.42 1.02086 -1.49827 0
M  V30 19801 C 2234.47 -2.22197 -2.84008 0
M  V30 19802 O 2233.57 -1.6321 -3.7873 0
M  V30 19803 H 2232.91 -0.467399 -0.47163 0
M  V30 19804 H 2235.44 -1.81488 -0.944625 0
M  V30 19805 H 2235.45 -2.35696 -3.33033 0
M  V30 19806 H 2234.13 -3.24721 -2.59864 0
M  V30 19807 H 2232.7 -1.58797 -3.37399 0
M  V30 19808 N 2234.89 0.990791 -1.22561 0
M  V30 19809 C 2236.14 1.72722 -1.04936 0
M  V30 19810 C 2236.46 1.90508 0.416125 0
M  V30 19811 O 2235.73 1.46624 1.29916 0
M  V30 19812 H 2234.31 0.639959 -0.385308 0
M  V30 19813 H 2236.97 1.19319 -1.54107 0
M  V30 19814 H 2236.06 2.72086 -1.52891 0
M  V30 19815 N 2236.37 1.03564 1.18795 0
M  V30 19816 C 2237.59 0.755798 1.93138 0
M  V30 19817 C 2238.02 -0.680189 1.75371 0
M  V30 19818 O 2237.37 -1.47049 1.06049 0
M  V30 19819 C 2237.42 1.12064 3.42745 0
M  V30 19820 O 2236.53 0.243197 4.11682 0
M  V30 19821 H 2235.87 0.278615 0.602719 0
M  V30 19822 H 2238.4 1.38413 1.50675 0
M  V30 19823 H 2238.41 1.08042 3.93435 0
M  V30 19824 H 2237.08 2.16678 3.54998 0
M  V30 19825 H 2235.66 0.342604 3.71323 0
M  V30 19826 N 2237.84 -1.34926 0.814413 0
M  V30 19827 C 2239.07 -2.03304 0.410133 0
M  V30 19828 C 2239.49 -1.60953 -0.973436 0
M  V30 19829 O 2238.85 -0.789993 -1.63183 0
M  V30 19830 C 2238.9 -3.56967 0.510553 0
M  V30 19831 O 2238 -4.09679 -0.472963 0
M  V30 19832 H 2237.34 -0.641843 0.170099 0
M  V30 19833 H 2239.87 -1.72356 1.10247 0
M  V30 19834 H 2239.88 -4.06196 0.383206 0
M  V30 19835 H 2238.56 -3.87141 1.5197 0
M  V30 19836 H 2237.14 -3.71649 -0.305206 0
M  V30 19837 N 2239.32 -0.56861 -1.46985 0
M  V30 19838 C 2240.27 0.193299 -2.27179 0
M  V30 19839 C 2241.26 0.874871 -1.35036 0
M  V30 19840 O 2242.45 0.771294 -1.59311 0
M  V30 19841 C 2239.58 1.2154 -3.21065 0
M  V30 19842 C 2238.66 0.536664 -4.20691 0
M  V30 19843 N 2239.05 -0.399761 -5.04218 0
M  V30 19844 C 2237.35 0.789176 -4.38962 0
M  V30 19845 C 2238.05 -0.795118 -5.7624 0
M  V30 19846 N 2237.03 -0.147395 -5.434 0
M  V30 19847 H 2240.83 -0.526509 -2.89145 0
M  V30 19848 H 2238.34 -0.389369 -1.57663 0
M  V30 19849 H 2240.34 1.7753 -3.77212 0
M  V30 19850 H 2239 1.93618 -2.60657 0
M  V30 19851 H 2240.01 -0.774544 -5.12075 0
M  V30 19852 H 2236.69 1.4976 -3.89716 0
M  V30 19853 H 2238.08 -1.56524 -6.53414 0
M  V30 19854 N 2240.8 1.54608 -0.305646 0
M  V30 19855 C 2242.02 2.05107 0.307526 0
M  V30 19856 C 2242.45 1.18125 1.46383 0
M  V30 19857 O 2241.81 0.186356 1.8034 0
M  V30 19858 C 2241.86 3.52989 0.736978 0
M  V30 19859 O 2240.96 3.69013 1.84128 0
M  V30 19860 H 2240.3 0.661382 0.0589027 0
M  V30 19861 H 2242.83 1.99616 -0.448842 0
M  V30 19862 H 2242.84 3.94927 1.02452 0
M  V30 19863 H 2241.52 4.15758 -0.108847 0
M  V30 19864 H 2240.09 3.3898 1.55392 0
M  V30 19865 N 2242.28 0.033457 1.57564 0
M  V30 19866 C 2243.5 -0.657861 1.9669 0
M  V30 19867 C 2243.93 -1.64618 0.910086 0
M  V30 19868 O 2243.29 -1.80844 -0.128566 0
M  V30 19869 C 2243.33 -1.33677 3.34907 0
M  V30 19870 O 2242.44 -2.45213 3.31578 0
M  V30 19871 H 2241.78 -0.172478 0.641208 0
M  V30 19872 H 2244.31 0.096598 2.04372 0
M  V30 19873 H 2244.32 -1.69256 3.71236 0
M  V30 19874 H 2242.99 -0.612339 4.11368 0
M  V30 19875 H 2241.57 -2.11714 3.06972 0
M  V30 19876 N 2243.76 -1.55766 -0.239741 0
M  V30 19877 C 2245 -1.77581 -0.96486 0
M  V30 19878 C 2245.32 -0.598732 -1.85581 0
M  V30 19879 O 2244.59 0.385193 -1.92076 0
M  V30 19880 H 2243.17 -0.65494 -0.359253 0
M  V30 19881 H 2245.84 -1.93212 -0.255967 0
M  V30 19882 H 2244.93 -2.69011 -1.58238 0
M  V30 19883 N 2245.23 0.505704 -1.49266 0
M  V30 19884 C 2246.16 1.6165 -1.68498 0
M  V30 19885 C 2247.14 1.61511 -0.533688 0
M  V30 19886 O 2248.33 1.78326 -0.769002 0
M  V30 19887 C 2245.46 3.00154 -1.74714 0
M  V30 19888 C 2244.41 3.15157 -2.89586 0
M  V30 19889 C 2243.74 4.54965 -2.80911 0
M  V30 19890 C 2245.04 2.95627 -4.30584 0
M  V30 19891 H 2246.73 1.45809 -2.61496 0
M  V30 19892 H 2244.28 0.700028 -1.2584 0
M  V30 19893 H 2246.23 3.77757 -1.86755 0
M  V30 19894 H 2244.96 3.17072 -0.783123 0
M  V30 19895 H 2243.62 2.39977 -2.7714 0
M  V30 19896 H 2243.26 4.68753 -1.82427 0
M  V30 19897 H 2242.96 4.65945 -3.58007 0
M  V30 19898 H 2244.49 5.34636 -2.94953 0
M  V30 19899 H 2245.9 3.63003 -4.43736 0
M  V30 19900 H 2244.3 3.18082 -5.08866 0
M  V30 19901 H 2245.37 1.91798 -4.45356 0
M  V30 19902 N 2246.71 1.38262 0.756405 0
M  V30 19903 C 2247.96 1.34049 1.51245 0
M  V30 19904 C 2248.28 -0.069803 1.94875 0
M  V30 19905 O 2247.55 -1.01693 1.67438 0
M  V30 19906 H 2246.13 0.493232 0.561009 0
M  V30 19907 H 2248.79 1.72911 0.899317 0
M  V30 19908 H 2247.89 1.98951 2.40468 0
M  V30 19909 N 2248.19 -0.984277 1.23084 0
M  V30 19910 C 2249.14 -2.06064 0.975786 0
M  V30 19911 C 2250.12 -1.60717 -0.0767969 0
M  V30 19912 O 2251.32 -1.76486 0.134836 0
M  V30 19913 C 2248.45 -3.38623 0.564733 0
M  V30 19914 C 2247.53 -3.9058 1.65251 0
M  V30 19915 N 2247.92 -4.15661 2.88201 0
M  V30 19916 C 2246.22 -4.19074 1.52619 0
M  V30 19917 C 2246.92 -4.58018 3.58601 0
M  V30 19918 N 2245.9 -4.6222 2.86101 0
M  V30 19919 H 2249.7 -2.23408 1.90961 0
M  V30 19920 H 2247.21 -1.16673 1.12965 0
M  V30 19921 H 2249.21 -4.15314 0.363293 0
M  V30 19922 H 2247.87 -3.22675 -0.36209 0
M  V30 19923 H 2248.88 -4.03598 3.24544 0
M  V30 19924 H 2245.56 -4.12151 0.666193 0
M  V30 19925 H 2246.95 -4.85974 4.63982 0
M  V30 19926 N 2249.67 -1.04192 -1.18244 0
M  V30 19927 C 2251.08 -0.761391 -1.40268 0
M  V30 19928 C 2251.28 0.648544 -1.90778 0
M  V30 19929 O 2250.34 1.41255 -2.09293 0
M  V30 19930 C 2251.65 -1.80855 -2.40233 0
M  V30 19931 C 2253.2 -1.8296 -2.53958 0
M  V30 19932 C 2253.68 -2.86671 -3.57189 0
M  V30 19933 N 2255.17 -2.8557 -3.64697 0
M  V30 19934 C 2255.9 -3.62468 -4.44303 0
M  V30 19935 N 2255.4 -4.49121 -5.27506 0
M  V30 19936 N 2257.19 -3.50951 -4.39078 0
M  V30 19937 H 2249.34 -1.95177 -0.837848 0
M  V30 19938 H 2251.61 -0.844567 -0.430593 0
M  V30 19939 H 2251.31 -2.81995 -2.10171 0
M  V30 19940 H 2251.19 -1.64174 -3.39598 0
M  V30 19941 H 2253.57 -0.824905 -2.83336 0
M  V30 19942 H 2253.65 -2.03718 -1.54702 0
M  V30 19943 H 2253.3 -3.8732 -3.28551 0
M  V30 19944 H 2253.23 -2.63168 -4.56125 0
M  V30 19945 H 2255.72 -2.22732 -3.05285 0
M  V30 19946 H 2256.03 -5.04504 -5.85402 0
M  V30 19947 H 2254.38 -4.53187 -5.26922 0
M  V30 19948 H 2257.57 -2.82657 -3.73125 0
M  V30 19949 H 2257.74 -4.1113 -5.00876 0
M  V30 19950 N 2251.15 1.34492 -0.821557 0
M  V30 19951 C 2252.06 2.33324 -0.244396 0
M  V30 19952 C 2253.07 1.6256 0.620499 0
M  V30 19953 O 2254.25 1.94336 0.52872 0
M  V30 19954 C 2251.31 3.41724 0.585308 0
M  V30 19955 C 2250.37 4.28238 -0.301827 0
M  V30 19956 C 2249.61 5.31461 0.488372 0
M  V30 19957 O 2249.83 5.43794 1.72177 0
M  V30 19958 O 2248.76 6.01763 -0.128586 0
M  V30 19959 H 2252.59 2.84513 -1.06236 0
M  V30 19960 H 2250.18 1.37527 -0.583669 0
M  V30 19961 H 2252.06 4.07918 1.0574 0
M  V30 19962 H 2250.73 2.9278 1.38063 0
M  V30 19963 H 2249.64 3.64971 -0.821379 0
M  V30 19964 H 2250.97 4.80618 -1.06147 0
M  V30 19965 N 2252.62 0.576397 1.46681 0
M  V30 19966 C 2253.85 0.063084 2.07304 0
M  V30 19967 C 2254.27 -1.22977 1.42331 0
M  V30 19968 O 2253.63 -1.74128 0.504895 0
M  V30 19969 C 2253.68 -0.0958316 3.60473 0
M  V30 19970 O 2252.78 -1.15387 3.95929 0
M  V30 19971 H 2252.13 0.0599579 0.661287 0
M  V30 19972 H 2254.66 0.797544 1.88415 0
M  V30 19973 H 2254.67 -0.303999 4.06866 0
M  V30 19974 H 2253.34 0.848351 4.07156 0
M  V30 19975 H 2251.92 -0.92466 3.61254 0
M  V30 19976 N 2254.1 -1.54444 0.313841 0
M  V30 19977 C 2255.52 -1.59552 -0.0391338 0
M  V30 19978 C 2255.72 -1.33059 -1.51319 0
M  V30 19979 O 2254.77 -1.11026 -2.26781 0
M  V30 19980 C 2256.09 -2.98411 0.370354 0
M  V30 19981 C 2257.64 -3.11358 0.320194 0
M  V30 19982 C 2258.11 -4.52546 0.704697 0
M  V30 19983 N 2259.6 -4.58506 0.657726 0
M  V30 19984 C 2260.34 -5.65848 0.927553 0
M  V30 19985 N 2259.83 -6.81171 1.26401 0
M  V30 19986 N 2261.63 -5.55578 0.853759 0
M  V30 19987 H 2253.78 -1.69923 1.27436 0
M  V30 19988 H 2256.04 -0.794275 0.517525 0
M  V30 19989 H 2255.75 -3.22764 1.397 0
M  V30 19990 H 2255.62 -3.76236 -0.269553 0
M  V30 19991 H 2258.01 -2.86745 -0.697224 0
M  V30 19992 H 2258.09 -2.35659 0.994901 0
M  V30 19993 H 2257.73 -4.7789 1.71998 0
M  V30 19994 H 2257.66 -5.26599 0.00778099 0
M  V30 19995 H 2260.15 -3.75679 0.409133 0
M  V30 19996 H 2260.47 -7.58969 1.45554 0
M  V30 19997 H 2258.81 -6.82692 1.30218 0
M  V30 19998 H 2262 -4.64361 0.590464 0
M  V30 19999 H 2262.17 -6.39148 1.06741 0
M  V30 20000 N 2255.58 -0.0418125 -1.57545 0
M  V30 20001 C 2256.81 0.64742 -1.97036 0
M  V30 20002 C 2257.23 1.64133 -0.918803 0
M  V30 20003 O 2256.59 1.80909 0.118974 0
M  V30 20004 C 2256.64 1.31899 -3.35612 0
M  V30 20005 O 2255.74 2.43452 -3.32874 0
M  V30 20006 H 2255.08 0.169075 -0.642113 0
M  V30 20007 H 2257.61 -0.107435 -2.04318 0
M  V30 20008 H 2257.62 1.67284 -3.72129 0
M  V30 20009 H 2256.3 0.590514 -4.11686 0
M  V30 20010 H 2254.87 2.10083 -3.0809 0
M  V30 20011 N 2257.06 1.55891 0.231477 0
M  V30 20012 C 2258.31 1.7809 0.955429 0
M  V30 20013 C 2258.63 0.608565 1.85261 0
M  V30 20014 O 2257.9 -0.375001 1.92277 0
M  V30 20015 H 2256.48 0.656836 0.355775 0
M  V30 20016 H 2259.14 1.93345 0.245717 0
M  V30 20017 H 2258.24 2.69847 1.56809 0
M  V30 20018 N 2258.54 -0.497781 1.49532 0
M  V30 20019 C 2259.47 -1.61575 1.62562 0
M  V30 20020 C 2260.48 -1.54666 0.508161 0
M  V30 20021 O 2261.67 -1.6054 0.780338 0
M  V30 20022 C 2258.77 -3.00376 1.56931 0
M  V30 20023 C 2257.94 -3.32435 2.84263 0
M  V30 20024 C 2257 -4.50664 2.7164 0
M  V30 20025 O 2256.03 -4.52288 3.45578 0
M  V30 20026 N 2257.23 -5.50767 1.83401 0
M  V30 20027 H 2260 -1.50823 2.58983 0
M  V30 20028 H 2257.56 -0.685717 1.46661 0
M  V30 20029 H 2259.55 -3.77394 1.46136 0
M  V30 20030 H 2258.12 -3.05035 0.683537 0
M  V30 20031 H 2257.34 -2.44284 3.09385 0
M  V30 20032 H 2258.63 -3.50654 3.68673 0
M  V30 20033 H 2258.02 -5.52257 1.22593 0
M  V30 20034 H 2256.58 -6.26874 1.78526 0
M  V30 20035 N 2260.01 -1.38661 -0.749062 0
M  V30 20036 C 2261.24 -1.3854 -1.54342 0
M  V30 20037 C 2261.66 0.0216325 -1.88088 0
M  V30 20038 O 2261.02 1.00491 -1.50901 0
M  V30 20039 C 2261.07 -2.25197 -2.81636 0
M  V30 20040 O 2260.17 -1.67218 -3.76977 0
M  V30 20041 H 2259.52 -0.472375 -0.466646 0
M  V30 20042 H 2262.05 -1.8248 -0.925323 0
M  V30 20043 H 2262.06 -2.39215 -3.30515 0
M  V30 20044 H 2260.73 -3.27459 -2.56405 0
M  V30 20045 H 2259.31 -1.62366 -3.35696 0
M  V30 20046 N 2261.49 0.977736 -1.23605 0
M  V30 20047 C 2262.72 1.75989 -1.09738 0
M  V30 20048 C 2263.14 1.84875 0.346825 0
M  V30 20049 O 2262.5 1.31232 1.25091 0
M  V30 20050 C 2262.55 3.1636 -1.73057 0
M  V30 20051 O 2261.65 4.00229 -0.994522 0
M  V30 20052 H 2260.99 0.541357 -0.384485 0
M  V30 20053 H 2263.52 1.22717 -1.63712 0
M  V30 20054 H 2263.53 3.66928 -1.78404 0
M  V30 20055 H 2262.21 3.09208 -2.78142 0
M  V30 20056 H 2260.79 3.5873 -1.01818 0
M  V30 20057 N 2262.97 1.04818 1.1769 0
M  V30 20058 C 2264.22 0.75453 1.87487 0
M  V30 20059 C 2264.54 -0.720375 1.81206 0
M  V30 20060 O 2263.81 -1.52029 1.23547 0
M  V30 20061 H 2262.39 0.276114 0.694096 0
M  V30 20062 H 2265.05 1.32653 1.4279 0
M  V30 20063 H 2264.15 1.06611 2.93326 0
M  V30 20064 N 2264.45 -1.34055 0.828678 0
M  V30 20065 C 2265.68 -2.02032 0.432028 0
M  V30 20066 C 2266.09 -1.62537 -0.968412 0
M  V30 20067 O 2265.43 -0.829436 -1.63909 0
M  V30 20068 C 2265.49 -3.56528 0.461287 0
M  V30 20069 C 2265.16 -4.19366 1.81606 0
M  V30 20070 C 2266.15 -4.39472 2.77778 0
M  V30 20071 C 2263.84 -4.56013 2.10612 0
M  V30 20072 C 2265.83 -4.95357 4.01124 0
M  V30 20073 C 2263.52 -5.11608 3.34216 0
M  V30 20074 C 2264.52 -5.31225 4.29289 0
M  V30 20075 O 2264.21 -5.8564 5.50709 0
M  V30 20076 H 2263.94 -0.654026 0.170955 0
M  V30 20077 H 2266.49 -1.72184 1.11991 0
M  V30 20078 H 2264.72 -3.85661 -0.28332 0
M  V30 20079 H 2266.41 -4.05813 0.0838863 0
M  V30 20080 H 2267.18 -4.11518 2.56666 0
M  V30 20081 H 2263.06 -4.40045 1.37409 0
M  V30 20082 H 2266.6 -5.10584 4.75342 0
M  V30 20083 H 2262.5 -5.38991 3.55189 0
M  V30 20084 H 2263.26 -6.04068 5.52308 0
M  V30 20085 N 2265.93 -0.584167 -1.46374 0
M  V30 20086 C 2267.18 -0.0701642 -2.01978 0
M  V30 20087 C 2267.5 1.29497 -1.45792 0
M  V30 20088 O 2266.77 1.85041 -0.643172 0
M  V30 20089 H 2265.35 -0.0229476 -0.746647 0
M  V30 20090 H 2268.01 -0.760277 -1.7946 0
M  V30 20091 H 2267.1 -0.00226126 -3.121 0
M  V30 20092 N 2267.41 1.54275 -0.322027 0
M  V30 20093 C 2268.34 2.21776 0.578632 0
M  V30 20094 C 2269.35 1.21724 1.08107 0
M  V30 20095 O 2270.54 1.48202 0.994912 0
M  V30 20096 C 2267.64 2.86735 1.80656 0
M  V30 20097 C 2266.81 4.12909 1.44307 0
M  V30 20098 C 2265.87 4.61476 2.52837 0
M  V30 20099 O 2264.9 5.26194 2.17045 0
M  V30 20100 N 2266.1 4.35573 3.8374 0
M  V30 20101 H 2268.86 2.997 0.000656767 0
M  V30 20102 H 2266.43 1.61248 -0.14516 0
M  V30 20103 H 2268.42 3.16149 2.52649 0
M  V30 20104 H 2266.99 2.12525 2.29242 0
M  V30 20105 H 2266.21 3.90276 0.554837 0
M  V30 20106 H 2267.5 4.95025 1.17589 0
M  V30 20107 H 2266.89 3.83769 4.15618 0
M  V30 20108 H 2265.45 4.69646 4.51969 0
M  V30 20109 N 2268.88 0.0501669 1.5752 0
M  V30 20110 C 2269.83 -0.934194 2.07983 0
M  V30 20111 C 2270.82 -1.27244 0.984767 0
M  V30 20112 O 2272.01 -1.25503 1.24811 0
M  V30 20113 C 2269.14 -2.2094 2.62755 0
M  V30 20114 C 2268.22 -1.89859 3.79229 0
M  V30 20115 N 2268.62 -1.29133 4.89038 0
M  V30 20116 C 2266.91 -2.19734 3.88115 0
M  V30 20117 C 2267.61 -1.15659 5.70086 0
M  V30 20118 N 2266.59 -1.65914 5.17662 0
M  V30 20119 H 2270.39 -0.460002 2.90278 0
M  V30 20120 H 2267.91 -0.154311 1.61665 0
M  V30 20121 H 2269.9 -2.92355 2.97211 0
M  V30 20122 H 2268.56 -2.68966 1.81899 0
M  V30 20123 H 2269.57 -0.963667 5.08855 0
M  V30 20124 H 2266.25 -2.70288 3.18199 0
M  V30 20125 H 2267.64 -0.685238 6.68397 0
M  V30 20126 N 2270.36 -1.56011 -0.223207 0
M  V30 20127 C 2271.61 -1.78594 -0.945971 0
M  V30 20128 C 2271.93 -0.618381 -1.84935 0
M  V30 20129 O 2271.2 0.364799 -1.92473 0
M  V30 20130 H 2269.78 -0.658713 -0.352287 0
M  V30 20131 H 2272.44 -1.93472 -0.23546 0
M  V30 20132 H 2271.54 -2.70675 -1.55376 0
M  V30 20133 N 2271.84 0.489844 -1.49794 0
M  V30 20134 C 2273.06 1.27169 -1.63838 0
M  V30 20135 C 2273.49 1.8546 -0.314053 0
M  V30 20136 O 2272.85 1.664 0.719774 0
M  V30 20137 C 2272.9 2.36973 -2.71801 0
M  V30 20138 O 2272 3.41124 -2.3175 0
M  V30 20139 H 2271.34 0.37495 -0.548004 0
M  V30 20140 H 2273.87 0.585157 -1.96054 0
M  V30 20141 H 2273.88 2.8257 -2.9431 0
M  V30 20142 H 2272.56 1.93915 -3.67927 0
M  V30 20143 H 2271.13 3.01369 -2.19616 0
M  V30 20144 N 2273.32 1.39056 0.741698 0
M  V30 20145 C 2274.54 1.39357 1.53605 0
M  V30 20146 C 2274.97 -0.0116574 1.88096 0
M  V30 20147 O 2274.33 -0.996898 1.51432 0
M  V30 20148 C 2274.37 2.26687 2.80438 0
M  V30 20149 O 2273.48 1.69215 3.76085 0
M  V30 20150 H 2272.82 0.474843 0.464134 0
M  V30 20151 H 2275.35 1.82968 0.915633 0
M  V30 20152 H 2275.36 2.40965 3.29241 0
M  V30 20153 H 2274.03 3.28814 2.54665 0
M  V30 20154 H 2272.61 1.64144 3.3483 0
M  V30 20155 N 2274.8 -0.971167 1.24121 0
M  V30 20156 C 2276.02 -1.75405 1.1067 0
M  V30 20157 C 2276.45 -1.85056 -0.337016 0
M  V30 20158 O 2275.8 -1.31894 -1.24393 0
M  V30 20159 C 2275.85 -3.15438 1.74732 0
M  V30 20160 O 2274.96 -3.99696 1.01573 0
M  V30 20161 H 2274.3 -0.53931 0.387351 0
M  V30 20162 H 2276.83 -1.21847 1.6436 0
M  V30 20163 H 2276.84 -3.65976 1.80348 0
M  V30 20164 H 2275.51 -3.07729 2.79778 0
M  V30 20165 H 2274.09 -3.58185 1.03719 0
M  V30 20166 N 2276.27 -1.05441 -1.17133 0
M  V30 20167 C 2277.52 -0.764462 -1.87084 0
M  V30 20168 C 2277.84 0.710755 -1.81585 0
M  V30 20169 O 2277.11 1.51372 -1.24352 0
M  V30 20170 H 2275.69 -0.279791 -0.692622 0
M  V30 20171 H 2278.36 -1.33409 -1.42085 0
M  V30 20172 H 2277.45 -1.08165 -2.92757 0
M  V30 20173 N 2277.75 1.33613 -0.835776 0
M  V30 20174 C 2278.7 2.26745 -0.238896 0
M  V30 20175 C 2279.69 1.4912 0.604317 0
M  V30 20176 O 2280.88 1.71004 0.456792 0
M  V30 20177 C 2278.01 3.38233 0.587665 0
M  V30 20178 C 2277.09 4.23259 -0.266886 0
M  V30 20179 N 2277.48 4.87614 -1.34411 0
M  V30 20180 C 2275.78 4.45968 -0.0533915 0
M  V30 20181 C 2276.48 5.50881 -1.86828 0
M  V30 20182 N 2275.46 5.30855 -1.17022 0
M  V30 20183 H 2279.26 2.74014 -1.06271 0
M  V30 20184 H 2276.78 1.47482 -0.679907 0
M  V30 20185 H 2278.77 4.03937 1.03154 0
M  V30 20186 H 2277.43 2.92512 1.40949 0
M  V30 20187 H 2278.44 4.88258 -1.72699 0
M  V30 20188 H 2275.12 4.10975 0.73524 0
M  V30 20189 H 2276.51 6.12135 -2.77021 0
M  V30 20190 N 2279.23 0.591922 1.46062 0
M  V30 20191 C 2280.46 0.0850678 2.07225 0
M  V30 20192 C 2280.88 -1.21461 1.43628 0
M  V30 20193 O 2280.24 -1.73583 0.523336 0
M  V30 20194 C 2280.29 -0.0575933 3.60554 0
M  V30 20195 O 2279.39 -1.11181 3.9713 0
M  V30 20196 H 2278.73 0.0669684 0.660614 0
M  V30 20197 H 2281.26 0.817483 1.87559 0
M  V30 20198 H 2281.27 -0.260829 4.07165 0
M  V30 20199 H 2279.95 0.891488 4.06233 0
M  V30 20200 H 2278.52 -0.886292 3.62214 0
M  V30 20201 N 2280.71 -1.54102 0.330204 0
M  V30 20202 C 2281.93 -2.05571 -0.274857 0
M  V30 20203 C 2282.36 -1.20439 -1.44485 0
M  V30 20204 O 2281.72 -0.215023 -1.8002 0
M  V30 20205 C 2281.76 -3.54116 -0.680727 0
M  V30 20206 O 2280.87 -3.71896 -1.78234 0
M  V30 20207 H 2280.21 -0.662236 -0.0483732 0
M  V30 20208 H 2282.74 -1.98877 0.480543 0
M  V30 20209 H 2282.75 -3.96507 -0.961565 0
M  V30 20210 H 2281.42 -4.15532 0.174976 0
M  V30 20211 H 2280 -3.4141 -1.49979 0
M  V30 20212 N 2282.19 -0.0585199 -1.57491 0
M  V30 20213 C 2283.41 0.623003 -1.97297 0
M  V30 20214 C 2283.83 1.63944 -0.936367 0
M  V30 20215 O 2283.19 1.82331 0.0785661 0
M  V30 20216 C 2283.24 1.3034 -3.37185 0
M  V30 20217 O 2282.96 0.327653 -4.36873 0
M  V30 20218 C 2284.46 2.07399 -3.91791 0
M  V30 20219 H 2281.68 0.169815 -0.649156 0
M  V30 20220 H 2284.22 -0.126995 -2.04105 0
M  V30 20221 H 2282.38 2.00457 -3.31505 0
M  V30 20222 H 2282.79 0.814178 -5.18142 0
M  V30 20223 H 2284.27 2.50416 -4.91931 0
M  V30 20224 H 2284.74 2.92516 -3.27614 0
M  V30 20225 H 2285.35 1.42177 -4.00831 0
M  V30 20226 N 2283.66 1.56128 0.21493 0
M  V30 20227 C 2284.61 1.89353 1.27002 0
M  V30 20228 C 2285.6 0.757227 1.41968 0
M  V30 20229 O 2286.79 1.01976 1.44672 0
M  V30 20230 C 2283.92 2.21945 2.61907 0
M  V30 20231 C 2283.01 3.41983 2.50816 0
M  V30 20232 N 2283.4 4.60427 2.09382 0
M  V30 20233 C 2281.69 3.45728 2.81759 0
M  V30 20234 C 2282.4 5.42586 2.09702 0
M  V30 20235 N 2281.37 4.82471 2.50446 0
M  V30 20236 H 2285.17 2.78439 0.940685 0
M  V30 20237 H 2282.69 1.56782 0.423465 0
M  V30 20238 H 2284.68 2.43925 3.38092 0
M  V30 20239 H 2283.34 1.34174 2.95681 0
M  V30 20240 H 2284.36 4.85462 1.80407 0
M  V30 20241 H 2281.03 2.68319 3.19861 0
M  V30 20242 H 2282.42 6.47414 1.79737 0
M  V30 20243 N 2285.14 -0.481893 1.50052 0
M  V30 20244 C 2286.39 -1.23231 1.60183 0
M  V30 20245 C 2286.71 -1.92691 0.29921 0
M  V30 20246 O 2285.98 -1.8362 -0.682675 0
M  V30 20247 H 2284.56 -0.457849 0.59024 0
M  V30 20248 H 2287.22 -0.556848 1.86776 0
M  V30 20249 H 2286.32 -1.98602 2.40756 0
M  V30 20250 N 2286.62 -1.39448 -0.734313 0
M  V30 20251 C 2287.55 -1.34124 -1.85859 0
M  V30 20252 C 2288.57 -0.249892 -1.60871 0
M  V30 20253 O 2289.75 -0.508895 -1.71092 0
M  V30 20254 C 2286.85 -1.05997 -3.21897 0
M  V30 20255 C 2286.03 -2.26422 -3.74235 0
M  V30 20256 C 2285.09 -1.94741 -4.88838 0
M  V30 20257 O 2284.11 -2.67431 -5.02463 0
M  V30 20258 N 2285.31 -0.913985 -5.7326 0
M  V30 20259 H 2288.08 -2.31011 -1.9093 0
M  V30 20260 H 2285.64 -1.33559 -0.915079 0
M  V30 20261 H 2287.63 -0.828217 -3.96135 0
M  V30 20262 H 2286.2 -0.178416 -3.1209 0
M  V30 20263 H 2285.42 -2.65544 -2.91342 0
M  V30 20264 H 2286.71 -3.06745 -4.05937 0
M  V30 20265 H 2286.11 -0.311576 -5.64841 0
M  V30 20266 H 2284.67 -0.742128 -6.47561 0
M  V30 20267 N 2288.1 0.964571 -1.24635 0
M  V30 20268 C 2289.05 2.04486 -1.00845 0
M  V30 20269 C 2290.03 1.60818 0.0512185 0
M  V30 20270 O 2291.22 1.76249 -0.162896 0
M  V30 20271 C 2288.35 3.37682 -0.618533 0
M  V30 20272 C 2287.44 3.87902 -1.71444 0
M  V30 20273 N 2287.83 4.11023 -2.94777 0
M  V30 20274 C 2286.13 4.16593 -1.59267 0
M  V30 20275 C 2286.83 4.52255 -3.65842 0
M  V30 20276 N 2285.81 4.5761 -2.93418 0
M  V30 20277 H 2289.61 2.20342 -1.94491 0
M  V30 20278 H 2287.12 1.14861 -1.14807 0
M  V30 20279 H 2289.12 4.14684 -0.42932 0
M  V30 20280 H 2287.78 3.2321 0.31071 0
M  V30 20281 H 2288.79 3.98384 -3.30924 0
M  V30 20282 H 2285.47 4.11039 -0.731679 0
M  V30 20283 H 2286.86 4.7853 -4.71655 0
M  V30 20284 N 2289.58 1.0606 1.16572 0
M  V30 20285 C 2290.82 0.774373 1.86676 0
M  V30 20286 C 2291.15 -0.701115 1.8196 0
M  V30 20287 O 2290.42 -1.5071 1.25153 0
M  V30 20288 H 2289 0.283461 0.691129 0
M  V30 20289 H 2291.66 1.3416 1.41375 0
M  V30 20290 H 2290.75 1.09716 2.92179 0
M  V30 20291 N 2291.06 -1.33168 0.84285 0
M  V30 20292 C 2292.28 -2.02389 0.453164 0
M  V30 20293 C 2292.71 -1.62981 -0.939077 0
M  V30 20294 O 2292.06 -0.824429 -1.61471 0
M  V30 20295 C 2292.11 -3.55804 0.586156 0
M  V30 20296 O 2291.22 -4.1059 -0.385957 0
M  V30 20297 H 2290.56 -0.63809 0.183675 0
M  V30 20298 H 2293.09 -1.69979 1.13878 0
M  V30 20299 H 2293.1 -4.05292 0.46928 0
M  V30 20300 H 2291.77 -3.8383 1.60147 0
M  V30 20301 H 2290.35 -3.72213 -0.226305 0
M  V30 20302 N 2292.53 -0.599659 -1.45746 0
M  V30 20303 C 2293.76 -0.0978914 -2.06668 0
M  V30 20304 C 2294.18 1.21436 -1.44564 0
M  V30 20305 O 2293.53 1.73794 -0.556953 0
M  V30 20306 C 2293.58 0.0566409 -3.61456 0
M  V30 20307 O 2293.31 -1.20369 -4.2124 0
M  V30 20308 C 2294.81 0.590791 -4.39346 0
M  V30 20309 H 2292.03 -0.0652061 -0.667824 0
M  V30 20310 H 2294.57 -0.825143 -1.87114 0
M  V30 20311 H 2292.73 0.734184 -3.80379 0
M  V30 20312 H 2293.14 -1.0283 -5.14321 0
M  V30 20313 H 2294.61 0.648035 -5.48183 0
M  V30 20314 H 2295.09 1.6114 -4.08571 0
M  V30 20315 H 2295.7 -0.0524427 -4.25268 0
M  V30 20316 N 2294.01 1.53925 -0.338371 0
M  V30 20317 C 2295.24 2.05714 0.263951 0
M  V30 20318 C 2295.66 1.21204 1.43845 0
M  V30 20319 O 2295.02 0.224567 1.79904 0
M  V30 20320 C 2295.07 3.54472 0.661938 0
M  V30 20321 O 2294.17 3.72836 1.76259 0
M  V30 20322 H 2293.51 0.662483 0.0448606 0
M  V30 20323 H 2296.04 1.98619 -0.491083 0
M  V30 20324 H 2296.05 3.97012 0.940524 0
M  V30 20325 H 2294.73 4.15433 -0.19701 0
M  V30 20326 H 2293.3 3.422 1.48167 0
M  V30 20327 N 2295.49 0.0668712 1.57458 0
M  V30 20328 C 2296.74 -0.60218 1.9292 0
M  V30 20329 C 2297.06 -1.70447 0.947245 0
M  V30 20330 O 2296.33 -1.95899 -0.00540674 0
M  V30 20331 H 2294.91 -0.225428 0.712174 0
M  V30 20332 H 2297.57 0.123569 1.94508 0
M  V30 20333 H 2296.67 -1.03067 2.9459 0
M  V30 20334 N 2296.97 -1.56239 -0.206647 0
M  V30 20335 C 2297.9 -1.90132 -1.27994 0
M  V30 20336 C 2298.91 -0.790908 -1.42297 0
M  V30 20337 O 2300.1 -1.06928 -1.42929 0
M  V30 20338 C 2297.2 -2.10796 -2.65364 0
M  V30 20339 C 2296.37 -3.41891 -2.72818 0
M  V30 20340 C 2295.43 -3.51806 -3.91304 0
M  V30 20341 O 2294.46 -4.24722 -3.78946 0
M  V30 20342 N 2295.66 -2.84043 -5.0626 0
M  V30 20343 H 2298.43 -2.82793 -0.992394 0
M  V30 20344 H 2295.99 -1.56967 -0.396624 0
M  V30 20345 H 2297.98 -2.1473 -3.43035 0
M  V30 20346 H 2296.55 -1.2469 -2.86655 0
M  V30 20347 H 2295.77 -3.49926 -1.81509 0
M  V30 20348 H 2297.06 -4.28222 -2.74779 0
M  V30 20349 H 2296.46 -2.24609 -5.19199 0
M  V30 20350 H 2295.01 -2.93619 -5.8192 0
M  V30 20351 N 2298.45 0.473929 -1.50305 0
M  V30 20352 C 2299.67 1.25424 -1.65178 0
M  V30 20353 C 2300.1 1.85116 -0.333706 0
M  V30 20354 O 2299.45 1.67154 0.702085 0
M  V30 20355 C 2299.5 2.34077 -2.74299 0
M  V30 20356 O 2298.61 3.38647 -2.35355 0
M  V30 20357 H 2297.95 0.369117 -0.55195 0
M  V30 20358 H 2300.48 0.56433 -1.96663 0
M  V30 20359 H 2300.49 2.79432 -2.9729 0
M  V30 20360 H 2299.16 1.90001 -3.69963 0
M  V30 20361 H 2297.74 2.99023 -2.228 0
M  V30 20362 N 2299.92 1.39835 0.726907 0
M  V30 20363 C 2301.15 1.40978 1.52118 0
M  V30 20364 C 2301.57 0.00829336 1.88098 0
M  V30 20365 O 2300.93 -0.98078 1.52481 0
M  V30 20366 C 2300.98 2.29649 2.78017 0
M  V30 20367 O 2300.08 1.73194 3.74269 0
M  V30 20368 H 2299.42 0.479739 0.459071 0
M  V30 20369 H 2301.95 1.83929 0.896175 0
M  V30 20370 H 2301.96 2.44443 3.26667 0
M  V30 20371 H 2300.64 3.31497 2.51163 0
M  V30 20372 H 2299.22 1.67686 3.3307 0
M  V30 20373 N 2301.4 -0.957948 1.25144 0
M  V30 20374 C 2302.63 -1.74221 1.12524 0
M  V30 20375 C 2303.05 -1.85403 -0.317369 0
M  V30 20376 O 2302.41 -1.33206 -1.22988 0
M  V30 20377 C 2302.46 -3.13567 1.78068 0
M  V30 20378 O 2301.56 -3.98596 1.05807 0
M  V30 20379 H 2300.9 -0.535171 0.393049 0
M  V30 20380 H 2303.43 -1.20097 1.65644 0
M  V30 20381 H 2303.44 -3.64043 1.84219 0
M  V30 20382 H 2302.12 -3.04744 2.83026 0
M  V30 20383 H 2300.69 -3.57065 1.07512 0
M  V30 20384 N 2302.88 -1.06677 -1.16008 0
M  V30 20385 C 2304.12 -0.79507 -1.88303 0
M  V30 20386 C 2304.48 0.666434 -1.80063 0
M  V30 20387 O 2305.68 1.05289 -2.47321 0
M  V30 20388 C 2303.96 -1.28082 -3.33661 0
M  V30 20389 S 2305.51 -1.13876 -4.23766 0
M  V30 20390 H 2302.33 -0.288308 -0.649923 0
M  V30 20391 H 2304.93 -1.36448 -1.40008 0
M  V30 20392 H 2303.64 -2.33933 -3.37199 0
M  V30 20393 H 2303.17 -0.706321 -3.87007 0
M  V30 20394 H 2305.18 -0.0720541 -4.96148 0
M  V30 20395 N 2304.36 1.32719 -0.8499 0
M  V30 20396 C 2305.61 1.97025 -0.450067 0
M  V30 20397 C 2305.93 1.67611 0.996574 0
M  V30 20398 O 2305.2 0.980815 1.69578 0
M  V30 20399 H 2303.78 0.728901 -0.163439 0
M  V30 20400 H 2306.44 1.61888 -1.08528 0
M  V30 20401 H 2305.53 3.06449 -0.5912 0
M  V30 20402 N 2305.84 0.60738 1.45426 0
M  V30 20403 C 2306.77 -0.149711 2.28711 0
M  V30 20404 C 2307.78 -0.831933 1.39938 0
M  V30 20405 O 2308.97 -0.697356 1.64314 0
M  V30 20406 C 2306.07 -1.23299 3.15675 0
M  V30 20407 C 2305.24 -0.63792 4.32723 0
M  V30 20408 C 2304.3 -1.61206 5.00898 0
M  V30 20409 O 2303.33 -1.13844 5.57699 0
M  V30 20410 N 2304.53 -2.94646 5.00164 0
M  V30 20411 H 2307.3 0.564934 2.94327 0
M  V30 20412 H 2304.86 0.446851 1.55611 0
M  V30 20413 H 2306.85 -1.88447 3.58148 0
M  V30 20414 H 2305.42 -1.85016 2.51968 0
M  V30 20415 H 2304.64 0.191641 3.93734 0
M  V30 20416 H 2305.93 -0.220575 5.08322 0
M  V30 20417 H 2305.32 -3.35727 4.55306 0
M  V30 20418 H 2303.88 -3.55218 5.46501 0
M  V30 20419 N 2307.31 -1.53743 0.34653 0
M  V30 20420 C 2308.26 -2.21875 -0.524914 0
M  V30 20421 C 2309.25 -1.2072 -1.06374 0
M  V30 20422 O 2310.44 -1.46253 -0.996946 0
M  V30 20423 C 2307.57 -2.99729 -1.67384 0
M  V30 20424 C 2306.66 -4.08244 -1.14881 0
M  V30 20425 N 2307.05 -5.0462 -0.34524 0
M  V30 20426 C 2305.34 -4.22608 -1.42542 0
M  V30 20427 C 2306.05 -5.81669 -0.0599684 0
M  V30 20428 N 2305.02 -5.39671 -0.652425 0
M  V30 20429 H 2308.82 -2.93743 0.0960607 0
M  V30 20430 H 2306.34 -1.61672 0.153548 0
M  V30 20431 H 2308.33 -3.47042 -2.31014 0
M  V30 20432 H 2306.99 -2.29388 -2.29807 0
M  V30 20433 H 2308.01 -5.17898 0.0139349 0
M  V30 20434 H 2304.68 -3.63489 -2.05382 0
M  V30 20435 H 2306.07 -6.69318 0.588439 0
M  V30 20436 N 2308.79 -0.0752207 -1.5742 0
M  V30 20437 C 2310.04 0.59194 -1.93237 0
M  V30 20438 C 2310.36 1.69943 -0.956271 0
M  V30 20439 O 2309.63 1.95899 -0.00498235 0
M  V30 20440 H 2308.21 0.221648 -0.713359 0
M  V30 20441 H 2310.87 -0.133882 -1.9444 0
M  V30 20442 H 2309.97 1.01504 -2.95133 0
M  V30 20443 N 2310.27 1.56347 0.198358 0
M  V30 20444 C 2311.23 1.93433 1.22949 0
M  V30 20445 C 2312.23 0.815116 1.38609 0
M  V30 20446 O 2313.42 1.08258 1.36477 0
M  V30 20447 C 2310.56 2.20551 2.59942 0
M  V30 20448 H 2311.75 2.85678 0.912576 0
M  V30 20449 H 2309.3 1.49986 0.439744 0
M  V30 20450 H 2310.04 1.30932 2.96694 0
M  V30 20451 H 2309.82 3.02107 2.49948 0
M  V30 20452 H 2311.31 2.50259 3.34306 0
M  V30 20453 N 2311.75 -0.465951 1.50554 0
M  V30 20454 C 2312.97 -1.24546 1.6584 0
M  V30 20455 C 2313.4 -1.84937 0.343518 0
M  V30 20456 O 2312.76 -1.67524 -0.69321 0
M  V30 20457 C 2312.8 -2.32619 2.75537 0
M  V30 20458 O 2311.91 -3.37394 2.37147 0
M  V30 20459 H 2311.25 -0.366184 0.5539 0
M  V30 20460 H 2313.78 -0.553892 1.9696 0
M  V30 20461 H 2313.79 -2.77852 2.98768 0
M  V30 20462 H 2312.46 -1.88037 3.70965 0
M  V30 20463 H 2311.04 -2.97837 2.24382 0
M  V30 20464 N 2313.23 -1.40218 -0.719481 0
M  V30 20465 C 2314.45 -1.41783 -1.51368 0
M  V30 20466 C 2314.88 -0.0182685 -1.88091 0
M  V30 20467 O 2314.23 0.97268 -1.52999 0
M  V30 20468 C 2314.28 -2.3112 -2.76796 0
M  V30 20469 O 2313.39 -1.75177 -3.73345 0
M  V30 20470 H 2312.73 -0.482167 -0.456521 0
M  V30 20471 H 2315.26 -1.84402 -0.886408 0
M  V30 20472 H 2315.27 -2.46172 -3.25366 0
M  V30 20473 H 2313.94 -3.32824 -2.49401 0
M  V30 20474 H 2312.52 -1.6945 -3.32176 0
M  V30 20475 N 2314.7 0.951297 -1.25651 0
M  V30 20476 C 2315.95 1.69296 -1.10378 0
M  V30 20477 C 2316.27 1.91736 0.355305 0
M  V30 20478 O 2315.54 1.50683 1.25185 0
M  V30 20479 H 2314.12 0.627376 -0.405472 0
M  V30 20480 H 2316.79 1.14356 -1.57825 0
M  V30 20481 H 2315.88 2.67084 -1.6147 0
M  V30 20482 N 2316.18 1.07291 1.1544 0
M  V30 20483 C 2317.11 0.650624 2.19772 0
M  V30 20484 C 2318.13 -0.296544 1.60076 0
M  V30 20485 O 2319.32 -0.0859592 1.78293 0
M  V30 20486 C 2316.42 -0.0649803 3.38838 0
M  V30 20487 C 2315.59 0.898216 4.28078 0
M  V30 20488 C 2314.65 0.220019 5.2574 0
M  V30 20489 O 2313.67 0.860871 5.62652 0
M  V30 20490 N 2314.88 -1.03455 5.71207 0
M  V30 20491 H 2317.64 1.54812 2.56619 0
M  V30 20492 H 2315.2 0.957517 1.3055 0
M  V30 20493 H 2317.19 -0.529344 4.01223 0
M  V30 20494 H 2315.76 -0.864414 3.00411 0
M  V30 20495 H 2314.98 1.54171 3.62801 0
M  V30 20496 H 2316.27 1.55129 4.84574 0
M  V30 20497 H 2315.67 -1.57517 5.43328 0
M  V30 20498 H 2314.23 -1.44261 6.35635 0
M  V30 20499 N 2317.66 -1.32267 0.856927 0
M  V30 20500 C 2318.89 -2.01897 0.474605 0
M  V30 20501 C 2319.31 -1.63968 -0.921738 0
M  V30 20502 O 2318.67 -0.841509 -1.60587 0
M  V30 20503 C 2318.72 -3.55162 0.623861 0
M  V30 20504 O 2317.82 -4.10976 -0.342387 0
M  V30 20505 H 2317.16 -0.636106 0.190433 0
M  V30 20506 H 2319.69 -1.68762 1.15675 0
M  V30 20507 H 2319.7 -4.04772 0.51224 0
M  V30 20508 H 2318.38 -3.8211 1.64209 0
M  V30 20509 H 2316.95 -3.72432 -0.186814 0
M  V30 20510 N 2319.14 -0.615084 -1.45102 0
M  V30 20511 C 2320.36 -0.118025 -2.07064 0
M  V30 20512 C 2320.79 1.1916 -1.45542 0
M  V30 20513 O 2320.15 1.72728 -0.550885 0
M  V30 20514 C 2320.19 0.000225002 -3.606 0
M  V30 20515 O 2319.3 1.04849 -3.98849 0
M  V30 20516 H 2318.64 -0.0774697 -0.659465 0
M  V30 20517 H 2321.17 -0.847218 -1.86235 0
M  V30 20518 H 2321.18 0.196019 -4.07529 0
M  V30 20519 H 2319.85 -0.956003 -4.04763 0
M  V30 20520 H 2318.43 0.828555 -3.63579 0
M  V30 20521 N 2320.62 1.53557 -0.354678 0
M  V30 20522 C 2321.84 2.05982 0.242117 0
M  V30 20523 C 2322.27 1.22723 1.42551 0
M  V30 20524 O 2321.63 0.243635 1.79656 0
M  V30 20525 C 2321.67 3.55155 0.624304 0
M  V30 20526 O 2320.78 3.74684 1.72295 0
M  V30 20527 H 2320.12 0.662921 0.0378315 0
M  V30 20528 H 2322.65 1.98087 -0.512121 0
M  V30 20529 H 2322.66 3.97987 0.898363 0
M  V30 20530 H 2321.33 4.15201 -0.241062 0
M  V30 20531 H 2319.91 3.43753 1.44529 0
M  V30 20532 N 2322.1 0.083568 1.57378 0
M  V30 20533 C 2323.05 -0.889868 2.09917 0
M  V30 20534 C 2324.03 -1.25127 1.01154 0
M  V30 20535 O 2325.22 -1.22828 1.27445 0
M  V30 20536 C 2322.35 -2.15317 2.67383 0
M  V30 20537 C 2321.44 -1.81772 3.83171 0
M  V30 20538 N 2321.83 -1.18731 4.91667 0
M  V30 20539 C 2320.13 -2.11452 3.92688 0
M  V30 20540 C 2320.83 -1.0354 5.72411 0
M  V30 20541 N 2319.8 -1.54896 5.21064 0
M  V30 20542 H 2323.6 -0.398327 2.91188 0
M  V30 20543 H 2321.12 -0.119985 1.61956 0
M  V30 20544 H 2323.12 -2.85985 3.03345 0
M  V30 20545 H 2321.78 -2.65048 1.87563 0
M  V30 20546 H 2322.79 -0.855514 5.10785 0
M  V30 20547 H 2319.46 -2.63478 3.23861 0
M  V30 20548 H 2320.85 -0.543307 6.697 0
M  V30 20549 N 2323.57 -1.5645 -0.190064 0
M  V30 20550 C 2324.82 -1.8056 -0.907876 0
M  V30 20551 C 2325.14 -0.65747 -1.83582 0
M  V30 20552 O 2324.41 0.32389 -1.93204 0
M  V30 20553 H 2322.99 -0.666038 -0.338235 0
M  V30 20554 H 2325.65 -1.93928 -0.194369 0
M  V30 20555 H 2324.75 -2.73909 -1.496 0
M  V30 20556 N 2325.05 0.45796 -1.50799 0
M  V30 20557 C 2325.98 1.57208 -1.66788 0
M  V30 20558 C 2327 1.53264 -0.548989 0
M  V30 20559 O 2328.19 1.58414 -0.822628 0
M  V30 20560 C 2325.29 2.9611 -1.64839 0
M  V30 20561 C 2324.46 3.24782 -2.92977 0
M  V30 20562 C 2323.52 4.43304 -2.83493 0
M  V30 20563 O 2322.54 4.42967 -3.57448 0
M  V30 20564 N 2323.75 5.45711 -1.97939 0
M  V30 20565 H 2326.51 1.43904 -2.62891 0
M  V30 20566 H 2324.07 0.646591 -1.48428 0
M  V30 20567 H 2326.06 3.73387 -1.5609 0
M  V30 20568 H 2324.63 3.03116 -0.764171 0
M  V30 20569 H 2323.85 2.35995 -3.15753 0
M  V30 20570 H 2325.14 3.40756 -3.7784 0
M  V30 20571 H 2324.54 5.48812 -1.37192 0
M  V30 20572 H 2323.1 6.21921 -1.95084 0
M  V30 20573 N 2326.53 1.40598 0.712035 0
M  V30 20574 C 2327.48 1.37622 1.81781 0
M  V30 20575 C 2328.46 0.25319 1.58895 0
M  V30 20576 O 2329.66 0.492577 1.70008 0
M  V30 20577 C 2326.78 1.24468 3.19942 0
M  V30 20578 C 2325.87 2.41566 3.48578 0
M  V30 20579 N 2326.26 3.67047 3.48009 0
M  V30 20580 C 2324.56 2.35023 3.79052 0
M  V30 20581 C 2325.26 4.44616 3.75089 0
M  V30 20582 N 2324.24 3.74504 3.94015 0
M  V30 20583 H 2328.04 2.32578 1.79679 0
M  V30 20584 H 2325.55 1.3442 0.911316 0
M  V30 20585 H 2327.55 1.20418 3.99131 0
M  V30 20586 H 2326.21 0.304819 3.23266 0
M  V30 20587 H 2327.22 4.00159 3.28775 0
M  V30 20588 H 2323.9 1.49422 3.89845 0
M  V30 20589 H 2325.29 5.53486 3.80924 0
M  V30 20590 N 2328.01 -0.94462 1.26153 0
M  V30 20591 C 2329.26 -1.68708 1.11274 0
M  V30 20592 C 2329.58 -1.91921 -0.345132 0
M  V30 20593 O 2328.85 -1.51345 -1.24384 0
M  V30 20594 H 2327.43 -0.625217 0.408794 0
M  V30 20595 H 2330.09 -1.13517 1.58429 0
M  V30 20596 H 2329.18 -2.66224 1.62884 0
M  V30 20597 N 2329.49 -1.07901 -1.1487 0
M  V30 20598 C 2330.71 -0.82696 -1.902 0
M  V30 20599 C 2331.14 0.614633 -1.77775 0
M  V30 20600 O 2330.49 1.43011 -1.11434 0
M  V30 20601 C 2330.54 -1.24708 -3.38349 0
M  V30 20602 O 2329.65 -0.395823 -4.10496 0
M  V30 20603 H 2328.99 -0.300792 -0.591963 0
M  V30 20604 H 2331.52 -1.4391 -1.45434 0
M  V30 20605 H 2331.53 -1.2257 -3.89154 0
M  V30 20606 H 2330.2 -2.29704 -3.46711 0
M  V30 20607 H 2328.78 -0.480182 -3.69795 0
M  V30 20608 N 2330.96 1.31811 -0.863929 0
M  V30 20609 C 2332.21 1.96536 -0.470938 0
M  V30 20610 C 2332.53 1.68658 0.978741 0
M  V30 20611 O 2331.8 0.998746 1.68529 0
M  V30 20612 H 2330.38 0.727127 -0.171161 0
M  V30 20613 H 2333.04 1.60727 -1.10239 0
M  V30 20614 H 2332.14 3.05805 -0.62367 0
M  V30 20615 N 2332.44 0.62277 1.44773 0
M  V30 20616 C 2333.67 0.129004 2.06998 0
M  V30 20617 C 2334.09 -1.18387 1.46172 0
M  V30 20618 O 2333.45 -1.72433 0.560037 0
M  V30 20619 C 2333.5 0.0188985 3.60595 0
M  V30 20620 O 2332.6 -1.02732 3.99399 0
M  V30 20621 H 2331.94 0.0809659 0.659045 0
M  V30 20622 H 2334.47 0.857083 1.85783 0
M  V30 20623 H 2334.48 -0.174404 4.07627 0
M  V30 20624 H 2333.16 0.977455 4.04251 0
M  V30 20625 H 2331.73 -0.809262 3.64013 0
M  V30 20626 N 2333.92 -1.53367 0.362817 0
M  V30 20627 C 2335.14 -2.06107 -0.23119 0
M  V30 20628 C 2335.57 -1.23477 -1.41898 0
M  V30 20629 O 2334.93 -0.25316 -1.79524 0
M  V30 20630 C 2334.98 -3.55481 -0.605461 0
M  V30 20631 O 2334.08 -3.75593 -1.70305 0
M  V30 20632 H 2333.42 -0.663113 -0.0343154 0
M  V30 20633 H 2335.95 -1.97813 0.522619 0
M  V30 20634 H 2335.96 -3.98458 -0.877244 0
M  V30 20635 H 2334.64 -4.15067 0.263077 0
M  V30 20636 H 2333.21 -3.44514 -1.42704 0
M  V30 20637 N 2335.4 -0.091913 -1.57332 0
M  V30 20638 C 2336.33 0.898131 -2.1087 0
M  V30 20639 C 2337.34 1.24815 -1.04523 0
M  V30 20640 O 2338.53 1.20182 -1.31979 0
M  V30 20641 C 2335.63 2.20816 -2.57087 0
M  V30 20642 C 2334.81 2.03396 -3.87232 0
M  V30 20643 C 2333.86 3.17882 -4.1933 0
M  V30 20644 O 2332.89 2.91985 -4.88603 0
M  V30 20645 N 2334.09 4.43561 -3.74479 0
M  V30 20646 H 2336.86 0.440891 -2.96439 0
M  V30 20647 H 2334.42 0.093278 -1.61631 0
M  V30 20648 H 2336.41 2.96349 -2.75607 0
M  V30 20649 H 2334.98 2.57973 -1.76546 0
M  V30 20650 H 2334.2 1.12211 -3.77892 0
M  V30 20651 H 2335.49 1.8903 -4.72382 0
M  V30 20652 H 2334.89 4.67483 -3.18554 0
M  V30 20653 H 2333.44 5.16054 -3.9816 0
M  V30 20654 N 2336.88 1.56548 0.181765 0
M  V30 20655 C 2338.1 1.85879 0.919987 0
M  V30 20656 C 2338.53 0.677052 1.75493 0
M  V30 20657 O 2337.88 -0.374025 1.774 0
M  V30 20658 C 2337.93 3.13545 1.78107 0
M  V30 20659 O 2337.04 2.95034 2.88147 0
M  V30 20660 H 2336.38 0.61169 0.258323 0
M  V30 20661 H 2338.91 2.03779 0.183056 0
M  V30 20662 H 2338.92 3.44682 2.18308 0
M  V30 20663 H 2337.59 3.99171 1.1677 0
M  V30 20664 H 2336.17 2.75226 2.51604 0
M  V30 20665 N 2338.35 -0.449957 1.5104 0
M  V30 20666 C 2339.58 -1.2278 1.67152 0
M  V30 20667 C 2340 -1.84562 0.363114 0
M  V30 20668 O 2339.36 -1.6825 -0.675403 0
M  V30 20669 C 2339.41 -2.29684 2.77989 0
M  V30 20670 O 2338.51 -3.3486 2.40713 0
M  V30 20671 H 2337.86 -0.360289 0.557753 0
M  V30 20672 H 2340.39 -0.532971 1.97536 0
M  V30 20673 H 2340.4 -2.74667 3.01698 0
M  V30 20674 H 2339.07 -1.84091 3.72939 0
M  V30 20675 H 2337.65 -2.95441 2.27529 0
M  V30 20676 N 2339.83 -1.40974 -0.704569 0
M  V30 20677 C 2341.08 -1.3957 -1.46166 0
M  V30 20678 C 2341.4 -0.00257172 -1.95 0
M  V30 20679 O 2340.67 0.954084 -1.71097 0
M  V30 20680 H 2339.25 -0.513713 -0.542317 0
M  V30 20681 H 2341.91 -1.7613 -0.834522 0
M  V30 20682 H 2341.01 -2.07739 -2.32919 0
M  V30 20683 N 2341.31 0.937917 -1.26653 0
M  V30 20684 C 2342.54 1.71629 -1.15009 0
M  V30 20685 C 2342.95 1.86854 0.296993 0
M  V30 20686 O 2342.29 1.37788 1.21491 0
M  V30 20687 C 2342.35 3.14036 -1.7499 0
M  V30 20688 C 2342.02 3.22184 -3.24108 0
M  V30 20689 C 2343.01 3.05212 -4.20882 0
M  V30 20690 C 2340.7 3.4547 -3.64631 0
M  V30 20691 C 2342.69 3.11398 -5.56156 0
M  V30 20692 C 2340.38 3.51291 -5.00038 0
M  V30 20693 C 2341.38 3.34272 -5.9561 0
M  V30 20694 O 2341.07 3.39808 -7.28551 0
M  V30 20695 H 2340.8 0.544078 -0.401192 0
M  V30 20696 H 2343.35 1.1841 -1.67834 0
M  V30 20697 H 2341.58 3.68693 -1.1663 0
M  V30 20698 H 2343.27 3.73799 -1.58205 0
M  V30 20699 H 2344.04 2.87074 -3.90914 0
M  V30 20700 H 2339.92 3.57772 -2.90724 0
M  V30 20701 H 2343.46 2.98032 -6.30732 0
M  V30 20702 H 2339.36 3.6895 -5.29666 0
M  V30 20703 H 2340.13 3.5633 -7.36866 0
M  V30 20704 N 2342.79 1.08509 1.14296 0
M  V30 20705 C 2344.04 0.813795 1.84991 0
M  V30 20706 C 2344.36 -0.662361 1.83406 0
M  V30 20707 O 2343.63 -1.48022 1.28321 0
M  V30 20708 H 2342.21 0.298057 0.684961 0
M  V30 20709 H 2344.87 1.37129 1.38498 0
M  V30 20710 H 2343.97 1.15889 2.89786 0
M  V30 20711 N 2344.27 -1.31351 0.870907 0
M  V30 20712 C 2345.68 -1.49342 0.562958 0
M  V30 20713 C 2345.88 -1.80149 -0.902693 0
M  V30 20714 O 2344.94 -1.8807 -1.68481 0
M  V30 20715 C 2346.25 -2.62656 1.46398 0
M  V30 20716 C 2347.8 -2.76539 1.46612 0
M  V30 20717 C 2348.27 -3.92951 2.35273 0
M  V30 20718 N 2349.77 -4.00239 2.33158 0
M  V30 20719 C 2350.5 -4.89589 2.9848 0
M  V30 20720 N 2350 -5.83834 3.72975 0
M  V30 20721 N 2351.79 -4.82843 2.87784 0
M  V30 20722 H 2343.94 -1.09623 1.81925 0
M  V30 20723 H 2346.2 -0.541763 0.777944 0
M  V30 20724 H 2345.91 -2.4667 2.50693 0
M  V30 20725 H 2345.78 -3.58817 1.1632 0
M  V30 20726 H 2348.17 -2.91939 0.430741 0
M  V30 20727 H 2348.25 -1.81043 1.80713 0
M  V30 20728 H 2347.9 -3.78309 3.38888 0
M  V30 20729 H 2347.83 -4.87757 1.98495 0
M  V30 20730 H 2350.32 -3.32811 1.79011 0
M  V30 20731 H 2350.63 -6.48743 4.19943 0
M  V30 20732 H 2348.97 -5.8381 3.77083 0
M  V30 20733 H 2352.17 -4.08191 2.29123 0
M  V30 20734 H 2352.34 -5.52271 3.38971 0
M  V30 20735 N 2345.74 -0.630439 -1.44441 0
M  V30 20736 C 2346.68 0.113307 -2.2892 0
M  V30 20737 C 2347.69 0.809565 -1.41244 0
M  V30 20738 O 2348.88 0.671127 -1.65403 0
M  V30 20739 C 2345.98 1.18261 -3.17597 0
M  V30 20740 C 2345.15 0.568997 -4.33683 0
M  V30 20741 C 2344.21 1.53217 -5.03399 0
M  V30 20742 O 2343.24 1.04957 -5.5944 0
M  V30 20743 N 2344.44 2.86652 -5.04788 0
M  V30 20744 H 2347.2 -0.611687 -2.93391 0
M  V30 20745 H 2344.76 -0.471551 -1.54881 0
M  V30 20746 H 2346.76 1.82726 -3.611 0
M  V30 20747 H 2345.33 1.80984 -2.5488 0
M  V30 20748 H 2344.55 -0.254256 -3.93379 0
M  V30 20749 H 2345.83 0.139678 -5.08608 0
M  V30 20750 H 2345.23 3.28441 -4.6059 0
M  V30 20751 H 2343.79 3.46479 -5.52083 0
M  V30 20752 N 2347.22 1.53172 -0.370945 0
M  V30 20753 C 2348.47 2.00936 0.216637 0
M  V30 20754 C 2348.79 1.2598 1.48843 0
M  V30 20755 O 2348.06 0.374584 1.92285 0
M  V30 20756 H 2346.64 0.74237 0.0830434 0
M  V30 20757 H 2349.3 1.88419 -0.498413 0
M  V30 20758 H 2348.4 3.08985 0.439839 0
M  V30 20759 N 2348.7 0.100255 1.57281 0
M  V30 20760 C 2349.93 -0.573846 1.99303 0
M  V30 20761 C 2350.35 -1.6061 0.979087 0
M  V30 20762 O 2349.71 -1.81226 -0.0517485 0
M  V30 20763 C 2349.76 -1.19352 3.40276 0
M  V30 20764 O 2348.86 -2.30929 3.4168 0
M  V30 20765 H 2348.2 -0.145127 0.647946 0
M  V30 20766 H 2350.73 0.183192 2.03778 0
M  V30 20767 H 2350.74 -1.53358 3.78081 0
M  V30 20768 H 2349.42 -0.437313 4.13594 0
M  V30 20769 H 2347.99 -1.98504 3.15675 0
M  V30 20770 N 2350.18 -1.56643 -0.17346 0
M  V30 20771 C 2351.43 -1.81513 -0.888674 0
M  V30 20772 C 2351.75 -0.676904 -1.82874 0
M  V30 20773 O 2351.02 0.30338 -1.93537 0
M  V30 20774 H 2349.6 -0.669588 -0.331152 0
M  V30 20775 H 2352.26 -1.94124 -0.173789 0
M  V30 20776 H 2351.36 -2.75481 -1.46686 0
M  V30 20777 N 2351.66 0.44194 -1.51277 0
M  V30 20778 C 2352.88 1.21892 -1.67801 0
M  V30 20779 C 2353.31 1.84367 -0.372896 0
M  V30 20780 O 2352.67 1.68606 0.666471 0
M  V30 20781 C 2352.71 2.28206 -2.79203 0
M  V30 20782 O 2351.82 3.33579 -2.42485 0
M  V30 20783 H 2351.16 0.357326 -0.559655 0
M  V30 20784 H 2353.69 0.522487 -1.97816 0
M  V30 20785 H 2353.7 2.73064 -3.03151 0
M  V30 20786 H 2352.37 1.82111 -3.7391 0
M  V30 20787 H 2350.95 2.9423 -2.29092 0
M  V30 20788 N 2353.14 1.41345 0.697083 0
M  V30 20789 C 2354.38 1.40344 1.45424 0
M  V30 20790 C 2354.7 0.012913 1.94996 0
M  V30 20791 O 2353.97 -0.944996 1.716 0
M  V30 20792 H 2352.55 0.516582 0.539585 0
M  V30 20793 H 2355.22 1.7657 0.82517 0
M  V30 20794 H 2354.31 2.08971 2.31814 0
M  V30 20795 N 2354.61 -0.931187 1.27148 0
M  V30 20796 C 2355.55 -2.03544 1.05368 0
M  V30 20797 C 2356.56 -1.62796 0.0108724 0
M  V30 20798 O 2357.75 -1.76711 0.252051 0
M  V30 20799 C 2354.85 -3.33976 0.575625 0
M  V30 20800 C 2354.02 -4.03436 1.68992 0
M  V30 20801 C 2353.08 -5.12141 1.20822 0
M  V30 20802 O 2352.11 -5.36297 1.90721 0
M  V30 20803 N 2353.31 -5.80467 0.0619871 0
M  V30 20804 H 2356.07 -2.22793 2.00458 0
M  V30 20805 H 2353.63 -1.10134 1.18668 0
M  V30 20806 H 2355.63 -4.04003 0.237335 0
M  V30 20807 H 2354.2 -3.11326 -0.281961 0
M  V30 20808 H 2353.42 -3.27188 2.19867 0
M  V30 20809 H 2354.7 -4.46592 2.43788 0
M  V30 20810 H 2354.1 -5.63291 -0.521522 0
M  V30 20811 H 2352.66 -6.51438 -0.21715 0
M  V30 20812 N 2356.09 -1.09114 -1.13719 0
M  V30 20813 C 2357.32 -0.847086 -1.89312 0
M  V30 20814 C 2357.74 0.595743 -1.78417 0
M  V30 20815 O 2357.1 1.41821 -1.12944 0
M  V30 20816 C 2357.15 -1.2829 -3.37008 0
M  V30 20817 O 2356.25 -0.439339 -4.10053 0
M  V30 20818 H 2355.59 -0.307054 -0.588739 0
M  V30 20819 H 2358.12 -1.45444 -1.439 0
M  V30 20820 H 2358.13 -1.2669 -3.87832 0
M  V30 20821 H 2356.81 -2.33369 -3.44256 0
M  V30 20822 H 2355.38 -0.519377 -3.69265 0
M  V30 20823 N 2357.57 1.30887 -0.877861 0
M  V30 20824 C 2358.98 1.78592 -0.544224 0
M  V30 20825 C 2359.33 1.72256 0.939271 0
M  V30 20826 O 2358.46 1.29508 1.73368 0
M  V30 20827 C 2359.05 3.24283 -0.981107 0
M  V30 20828 C 2357.61 3.69853 -0.699 0
M  V30 20829 C 2356.76 2.51499 -1.16805 0
M  V30 20830 H 2359.71 1.17857 -1.0628 0
M  V30 20831 H 2359.73 3.79259 -0.307076 0
M  V30 20832 H 2359.24 3.28863 -2.06085 0
M  V30 20833 H 2357.34 3.70768 0.369046 0
M  V30 20834 H 2357.46 4.61641 -1.28156 0
M  V30 20835 H 2355.82 2.4783 -0.587578 0
M  V30 20836 H 2356.6 2.5882 -2.25537 0
M  V30 20837 N 2359.05 0.638091 1.44105 0
M  V30 20838 C 2360.3 0.145079 2.01579 0
M  V30 20839 C 2360.62 -1.23997 1.50498 0
M  V30 20840 O 2359.89 -1.82526 0.711406 0
M  V30 20841 H 2358.47 0.0506431 0.745281 0
M  V30 20842 H 2361.13 0.826358 1.76514 0
M  V30 20843 H 2360.22 0.118094 3.11876 0
M  V30 20844 N 2360.53 -1.52973 0.379063 0
M  V30 20845 C 2361.48 -2.22939 -0.477733 0
M  V30 20846 C 2362.46 -1.22949 -1.03789 0
M  V30 20847 O 2363.65 -1.48335 -0.965699 0
M  V30 20848 C 2360.78 -3.03212 -1.60989 0
M  V30 20849 C 2359.87 -4.10589 -1.06196 0
M  V30 20850 N 2360.26 -5.05239 -0.238125 0
M  V30 20851 C 2358.56 -4.25537 -1.33546 0
M  V30 20852 C 2359.26 -5.81665 0.0634258 0
M  V30 20853 N 2358.23 -5.40933 -0.537806 0
M  V30 20854 H 2362.03 -2.93473 0.158346 0
M  V30 20855 H 2359.55 -1.6131 0.187807 0
M  V30 20856 H 2361.55 -3.51864 -2.23601 0
M  V30 20857 H 2360.21 -2.34211 -2.24889 0
M  V30 20858 H 2361.22 -5.17752 0.123786 0
M  V30 20859 H 2357.89 -3.67764 -1.97626 0
M  V30 20860 H 2359.28 -6.6792 0.730279 0
M  V30 20861 N 2362 -0.108595 -1.57225 0
M  V30 20862 C 2363.25 0.550819 -1.94449 0
M  V30 20863 C 2363.57 1.67876 -0.992103 0
M  V30 20864 O 2362.84 1.95845 -0.0465344 0
M  V30 20865 H 2361.42 0.206466 -0.7179 0
M  V30 20866 H 2364.08 -0.175096 -1.94112 0
M  V30 20867 H 2363.18 0.952207 -2.9722 0
M  V30 20868 N 2363.48 1.56732 0.16515 0
M  V30 20869 C 2364.41 1.93459 1.22908 0
M  V30 20870 C 2365.43 0.828358 1.4015 0
M  V30 20871 O 2366.62 1.1068 1.40044 0
M  V30 20872 C 2363.72 2.17758 2.59682 0
M  V30 20873 C 2362.89 3.49004 2.63657 0
M  V30 20874 C 2361.95 3.62057 3.81839 0
M  V30 20875 O 2360.97 4.3462 3.67552 0
M  V30 20876 N 2362.18 2.97366 4.98552 0
M  V30 20877 H 2364.94 2.85324 0.917068 0
M  V30 20878 H 2362.5 1.57963 0.354868 0
M  V30 20879 H 2364.49 2.23749 3.37222 0
M  V30 20880 H 2363.06 1.32247 2.83248 0
M  V30 20881 H 2362.28 3.54615 1.72167 0
M  V30 20882 H 2363.57 4.35357 2.63329 0
M  V30 20883 H 2362.97 2.38296 5.13061 0
M  V30 20884 H 2361.53 3.08944 5.73931 0
M  V30 20885 N 2364.96 -0.433911 1.51509 0
M  V30 20886 C 2366.38 -0.770658 1.39761 0
M  V30 20887 C 2366.58 -1.95635 0.482628 0
M  V30 20888 O 2365.63 -2.52426 -0.0609248 0
M  V30 20889 C 2366.95 -1.04782 2.81853 0
M  V30 20890 C 2368.49 -1.15204 2.91027 0
M  V30 20891 C 2368.97 -1.46212 4.34035 0
M  V30 20892 N 2370.46 -1.53129 4.37157 0
M  V30 20893 C 2371.19 -1.78699 5.44843 0
M  V30 20894 N 2370.69 -2.02039 6.62685 0
M  V30 20895 N 2372.48 -1.8051 5.32328 0
M  V30 20896 H 2364.63 0.346929 2.09548 0
M  V30 20897 H 2366.9 0.092824 0.943445 0
M  V30 20898 H 2366.6 -0.249242 3.50816 0
M  V30 20899 H 2366.48 -1.97456 3.21389 0
M  V30 20900 H 2368.86 -1.94124 2.22261 0
M  V30 20901 H 2368.95 -0.204236 2.54983 0
M  V30 20902 H 2368.59 -0.678185 5.03352 0
M  V30 20903 H 2368.52 -2.42204 4.67595 0
M  V30 20904 H 2371.01 -1.36981 3.522 0
M  V30 20905 H 2371.32 -2.2093 7.40547 0
M  V30 20906 H 2369.67 -1.99354 6.65795 0
M  V30 20907 H 2372.86 -1.61797 4.39249 0
M  V30 20908 H 2373.03 -2.001 6.16331 0
M  V30 20909 N 2366.44 -1.41713 -0.689577 0
M  V30 20910 C 2367.69 -1.41113 -1.44678 0
M  V30 20911 C 2368.01 -0.0232539 -1.94986 0
M  V30 20912 O 2367.28 0.935883 -1.72099 0
M  V30 20913 H 2365.86 -0.519436 -0.536838 0
M  V30 20914 H 2368.52 -1.77005 -0.815794 0
M  V30 20915 H 2367.62 -2.10197 -2.30702 0
M  V30 20916 N 2367.92 0.924431 -1.2764 0
M  V30 20917 C 2369.14 1.71177 -1.17104 0
M  V30 20918 C 2369.57 1.8618 0.268101 0
M  V30 20919 O 2368.92 1.3642 1.19413 0
M  V30 20920 C 2368.97 3.08736 -1.86319 0
M  V30 20921 O 2368.08 3.9565 -1.16338 0
M  V30 20922 H 2367.42 0.524562 -0.4071 0
M  V30 20923 H 2369.95 1.15663 -1.68769 0
M  V30 20924 H 2369.96 3.59031 -1.93806 0
M  V30 20925 H 2368.63 2.97133 -2.91006 0
M  V30 20926 H 2367.21 3.54089 -1.16941 0
M  V30 20927 N 2369.39 1.09715 1.13139 0
M  V30 20928 C 2370.64 0.83337 1.84118 0
M  V30 20929 C 2370.96 -0.642871 1.84098 0
M  V30 20930 O 2370.23 -1.46653 1.29884 0
M  V30 20931 H 2368.81 0.305305 0.681761 0
M  V30 20932 H 2371.48 1.3859 1.37036 0
M  V30 20933 H 2370.57 1.18956 2.88541 0
M  V30 20934 N 2370.87 -1.30419 0.88479 0
M  V30 20935 C 2372.1 -2.00845 0.517323 0
M  V30 20936 C 2372.52 -1.65887 -0.88675 0
M  V30 20937 O 2371.88 -0.875382 -1.58766 0
M  V30 20938 C 2371.93 -3.53759 0.699056 0
M  V30 20939 O 2371.03 -4.1161 -0.255136 0
M  V30 20940 H 2370.37 -0.631924 0.203883 0
M  V30 20941 H 2372.9 -1.6627 1.19228 0
M  V30 20942 H 2372.91 -4.03594 0.597983 0
M  V30 20943 H 2371.59 -3.78541 1.72277 0
M  V30 20944 H 2370.17 -3.72744 -0.107774 0
M  V30 20945 N 2372.35 -0.645724 -1.43764 0
M  V30 20946 C 2373.77 -0.312618 -1.56508 0
M  V30 20947 C 2373.97 1.18362 -1.63072 0
M  V30 20948 O 2373.02 1.96821 -1.5817 0
M  V30 20949 C 2374.34 -1.01738 -2.82966 0
M  V30 20950 C 2375.88 -0.996917 -2.96699 0
M  V30 20951 C 2376.36 -1.68243 -4.25979 0
M  V30 20952 N 2377.85 -1.64971 -4.32826 0
M  V30 20953 C 2378.58 -2.14894 -5.31609 0
M  V30 20954 N 2378.08 -2.73072 -6.36713 0
M  V30 20955 N 2379.87 -2.05437 -5.23213 0
M  V30 20956 H 2372.02 -1.61677 -1.37747 0
M  V30 20957 H 2374.29 -0.679492 -0.661055 0
M  V30 20958 H 2373.99 -2.07245 -2.84152 0
M  V30 20959 H 2373.87 -0.564243 -3.72956 0
M  V30 20960 H 2376.25 0.04972 -2.95058 0
M  V30 20961 H 2376.34 -1.48868 -2.08019 0
M  V30 20962 H 2375.98 -2.7286 -4.28381 0
M  V30 20963 H 2375.91 -1.16538 -5.13543 0
M  V30 20964 H 2378.4 -1.2251 -3.57491 0
M  V30 20965 H 2378.71 -3.08861 -7.08396 0
M  V30 20966 H 2377.06 -2.7713 -6.37357 0
M  V30 20967 H 2380.25 -1.59697 -4.40016 0
M  V30 20968 H 2380.42 -2.44653 -6.00041 0
M  V30 20969 N 2373.83 1.5277 -0.38717 0
M  V30 20970 C 2374.76 2.2403 0.484049 0
M  V30 20971 C 2375.77 1.262 1.02847 0
M  V30 20972 O 2376.96 1.52288 0.931159 0
M  V30 20973 C 2374.06 2.94139 1.68332 0
M  V30 20974 C 2373.24 4.18658 1.26664 0
M  V30 20975 C 2372.29 4.71784 2.33036 0
M  V30 20976 O 2371.32 5.34926 1.94532 0
M  V30 20977 N 2372.52 4.51457 3.64921 0
M  V30 20978 H 2375.29 2.99433 -0.126457 0
M  V30 20979 H 2372.85 1.60487 -0.21342 0
M  V30 20980 H 2374.84 3.26581 2.39013 0
M  V30 20981 H 2373.41 2.22057 2.20021 0
M  V30 20982 H 2372.63 3.92278 0.388809 0
M  V30 20983 H 2373.92 4.99567 0.964876 0
M  V30 20984 H 2373.32 4.01051 3.98967 0
M  V30 20985 H 2371.87 4.88393 4.31643 0
M  V30 20986 N 2375.31 0.116931 1.57166 0
M  V30 20987 C 2376.53 -0.552675 1.99901 0
M  V30 20988 C 2376.96 -1.59562 0.996067 0
M  V30 20989 O 2376.31 -1.81271 -0.0325241 0
M  V30 20990 C 2376.36 -1.15736 3.41522 0
M  V30 20991 O 2375.47 -2.27292 3.4411 0
M  V30 20992 H 2374.81 -0.138246 0.649449 0
M  V30 20993 H 2377.34 0.204795 2.03572 0
M  V30 20994 H 2377.35 -1.49339 3.79686 0
M  V30 20995 H 2376.02 -0.393421 4.14035 0
M  V30 20996 H 2374.6 -1.95144 3.17763 0
M  V30 20997 N 2376.78 -1.56818 -0.156836 0
M  V30 20998 C 2378.2 -1.72346 -0.717886 0
M  V30 20999 C 2378.55 -0.729779 -1.82123 0
M  V30 21000 O 2377.67 0.105743 -2.16141 0
M  V30 21001 C 2378.27 -3.12492 -1.30898 0
M  V30 21002 C 2376.83 -3.29656 -1.8167 0
M  V30 21003 C 2375.97 -2.68285 -0.701302 0
M  V30 21004 H 2378.92 -1.58551 0.0687268 0
M  V30 21005 H 2378.94 -3.11946 -2.17876 0
M  V30 21006 H 2378.46 -3.84791 -0.505728 0
M  V30 21007 H 2376.56 -2.62337 -2.64594 0
M  V30 21008 H 2376.67 -4.37523 -1.95218 0
M  V30 21009 H 2375.03 -2.28486 -1.12544 0
M  V30 21010 H 2375.82 -3.43181 0.0903449 0
M  V30 21011 N 2378.26 0.425871 -1.51737 0
M  V30 21012 C 2379.49 1.20105 -1.69084 0
M  V30 21013 C 2379.91 1.83961 -0.39243 0
M  V30 21014 O 2379.27 1.69303 0.648551 0
M  V30 21015 C 2379.32 2.25232 -2.81608 0
M  V30 21016 O 2378.42 3.30988 -2.4601 0
M  V30 21017 H 2377.76 0.35137 -0.563414 0
M  V30 21018 H 2380.29 0.501477 -1.98359 0
M  V30 21019 H 2380.3 2.69833 -3.0603 0
M  V30 21020 H 2378.98 1.78135 -3.7582 0
M  V30 21021 H 2377.56 2.91783 -2.322 0
M  V30 21022 N 2379.74 1.42077 0.682052 0
M  V30 21023 C 2380.97 1.45331 1.46842 0
M  V30 21024 C 2381.38 0.060966 1.89102 0
M  V30 21025 O 2380.72 -0.933054 1.5824 0
M  V30 21026 C 2380.78 2.31109 2.75371 0
M  V30 21027 C 2380.45 3.79086 2.55231 0
M  V30 21028 C 2381.44 4.70918 2.20301 0
M  V30 21029 C 2379.13 4.23275 2.70451 0
M  V30 21030 C 2381.12 6.04929 2.00848 0
M  V30 21031 C 2378.81 5.57347 2.50614 0
M  V30 21032 C 2379.81 6.4799 2.15865 0
M  V30 21033 O 2379.5 7.79587 1.96213 0
M  V30 21034 H 2379.23 0.496659 0.458591 0
M  V30 21035 H 2381.78 1.87164 0.846098 0
M  V30 21036 H 2380.01 1.84113 3.40058 0
M  V30 21037 H 2381.7 2.25904 3.37227 0
M  V30 21038 H 2382.47 4.38065 2.08145 0
M  V30 21039 H 2378.35 3.53017 2.96479 0
M  V30 21040 H 2381.89 6.75642 1.73648 0
M  V30 21041 H 2377.79 5.89775 2.62365 0
M  V30 21042 H 2378.56 7.90871 2.10869 0
M  V30 21043 N 2381.22 -0.917649 1.28129 0
M  V30 21044 C 2382.47 -1.6631 1.14828 0
M  V30 21045 C 2382.79 -1.9261 -0.304345 0
M  V30 21046 O 2382.06 -1.53949 -1.21146 0
M  V30 21047 H 2380.64 -0.616405 0.421964 0
M  V30 21048 H 2383.3 -1.10131 1.60802 0
M  V30 21049 H 2382.4 -2.62709 1.68494 0
M  V30 21050 N 2382.7 -1.10314 -1.12555 0
M  V30 21051 C 2384.11 -0.834673 -1.36034 0
M  V30 21052 C 2384.31 0.546505 -1.93947 0
M  V30 21053 O 2383.37 1.29962 -2.16486 0
M  V30 21054 C 2384.68 -1.93335 -2.30309 0
M  V30 21055 C 2386.23 -1.96164 -2.43903 0
M  V30 21056 C 2386.71 -3.05201 -3.41491 0
M  V30 21057 N 2388.2 -3.045 -3.49047 0
M  V30 21058 C 2388.93 -3.8551 -4.24464 0
M  V30 21059 N 2388.43 -4.76451 -5.02957 0
M  V30 21060 N 2390.22 -3.73732 -4.19858 0
M  V30 21061 H 2382.37 -1.99343 -0.733211 0
M  V30 21062 H 2384.63 -0.866204 -0.385219 0
M  V30 21063 H 2384.34 -2.92739 -1.94928 0
M  V30 21064 H 2384.21 -1.81944 -3.30418 0
M  V30 21065 H 2386.6 -0.973935 -2.78565 0
M  V30 21066 H 2386.68 -2.11632 -1.43686 0
M  V30 21067 H 2386.33 -4.04191 -3.07558 0
M  V30 21068 H 2386.26 -2.86976 -4.41534 0
M  V30 21069 H 2388.75 -2.38601 -2.93049 0
M  V30 21070 H 2389.06 -5.34825 -5.57837 0
M  V30 21071 H 2387.41 -4.80481 -5.02158 0
M  V30 21072 H 2390.6 -3.02038 -3.57618 0
M  V30 21073 H 2390.77 -4.37102 -4.78378 0
M  V30 21074 N 2384.18 1.29948 -0.891694 0
M  V30 21075 C 2385.13 2.25528 -0.334851 0
M  V30 21076 C 2386.11 1.51549 0.540526 0
M  V30 21077 O 2387.3 1.72788 0.383852 0
M  V30 21078 C 2384.43 3.40421 0.44368 0
M  V30 21079 C 2383.52 4.21747 -0.446164 0
M  V30 21080 N 2383.91 4.81474 -1.54972 0
M  V30 21081 C 2382.21 4.4534 -0.242494 0
M  V30 21082 C 2382.91 5.42461 -2.10025 0
M  V30 21083 N 2381.88 5.25414 -1.39433 0
M  V30 21084 H 2385.68 2.6926 -1.17797 0
M  V30 21085 H 2383.2 1.44466 -0.741848 0
M  V30 21086 H 2385.2 4.07948 0.859291 0
M  V30 21087 H 2383.86 2.98227 1.28416 0
M  V30 21088 H 2384.87 4.80493 -1.93252 0
M  V30 21089 H 2381.54 4.13724 0.56027 0
M  V30 21090 H 2382.93 5.99835 -3.02734 0
M  V30 21091 N 2385.65 0.653339 1.4342 0
M  V30 21092 C 2386.9 0.166451 2.01413 0
M  V30 21093 C 2387.22 -1.22394 1.51805 0
M  V30 21094 O 2386.49 -1.81761 0.730725 0
M  V30 21095 H 2385.07 0.058545 0.744702 0
M  V30 21096 H 2387.73 0.845034 1.75628 0
M  V30 21097 H 2386.83 0.151166 3.11734 0
M  V30 21098 N 2387.13 -1.52563 0.395266 0
M  V30 21099 C 2388.36 -2.06551 -0.18742 0
M  V30 21100 C 2388.78 -1.26459 -1.39247 0
M  V30 21101 O 2388.14 -0.291182 -1.78946 0
M  V30 21102 C 2388.19 -3.56685 -0.529922 0
M  V30 21103 O 2387.29 -3.79121 -1.623 0
M  V30 21104 H 2386.63 -0.663691 -0.020242 0
M  V30 21105 H 2389.16 -1.9666 0.564461 0
M  V30 21106 H 2389.17 -4.00229 -0.792528 0
M  V30 21107 H 2387.85 -4.14416 0.35106 0
M  V30 21108 H 2386.42 -3.47464 -1.35364 0
M  V30 21109 N 2388.61 -0.125265 -1.57101 0
M  V30 21110 C 2389.86 0.530164 -1.95022 0
M  V30 21111 C 2390.18 1.66814 -1.00985 0
M  V30 21112 O 2389.45 1.95784 -0.0673037 0
M  V30 21113 H 2388.03 0.19884 -0.72005 0
M  V30 21114 H 2390.69 -0.195674 -1.93915 0
M  V30 21115 H 2389.79 0.920629 -2.98213 0
M  V30 21116 N 2390.09 1.56899 0.148518 0
M  V30 21117 C 2391.31 1.87789 0.880352 0
M  V30 21118 C 2391.74 0.714124 1.74017 0
M  V30 21119 O 2391.1 -0.336312 1.78153 0
M  V30 21120 C 2391.14 3.17252 1.71416 0
M  V30 21121 O 2390.25 3.01079 2.81824 0
M  V30 21122 H 2389.59 0.617032 0.24529 0
M  V30 21123 H 2392.12 2.04122 0.139791 0
M  V30 21124 H 2392.13 3.49235 2.10948 0
M  V30 21125 H 2390.8 4.01558 1.08277 0
M  V30 21126 H 2389.38 2.80501 2.4571 0
M  V30 21127 N 2391.57 -0.417818 1.51961 0
M  V30 21128 C 2392.81 -1.16326 1.65265 0
M  V30 21129 C 2393.13 -1.91248 0.380667 0
M  V30 21130 O 2392.4 -1.8635 -0.604181 0
M  V30 21131 H 2390.98 -0.432403 0.609128 0
M  V30 21132 H 2393.65 -0.477129 1.8897 0
M  V30 21133 H 2392.74 -1.88212 2.48963 0
M  V30 21134 N 2393.04 -1.42436 -0.674508 0
M  V30 21135 C 2394.46 -1.25369 -0.987668 0
M  V30 21136 C 2394.66 -0.158079 -2.00879 0
M  V30 21137 O 2393.72 0.470589 -2.48076 0
M  V30 21138 C 2395.03 -2.61063 -1.4922 0
M  V30 21139 C 2396.58 -2.6842 -1.60996 0
M  V30 21140 C 2397.05 -4.04482 -2.14845 0
M  V30 21141 N 2398.54 -4.06438 -2.22177 0
M  V30 21142 C 2399.28 -5.08533 -2.64919 0
M  V30 21143 N 2398.77 -6.21011 -3.07111 0
M  V30 21144 N 2400.57 -4.95889 -2.6467 0
M  V30 21145 H 2392.72 -2.124 0.00156237 0
M  V30 21146 H 2394.98 -0.945982 -0.0618268 0
M  V30 21147 H 2394.69 -3.42093 -0.816393 0
M  V30 21148 H 2394.56 -2.85003 -2.47089 0
M  V30 21149 H 2396.95 -1.87736 -2.27683 0
M  V30 21150 H 2397.03 -2.48268 -0.616151 0
M  V30 21151 H 2396.67 -4.85624 -1.48767 0
M  V30 21152 H 2396.6 -4.21986 -3.15017 0
M  V30 21153 H 2399.09 -3.25237 -1.9243 0
M  V30 21154 H 2399.41 -6.94765 -3.38411 0
M  V30 21155 H 2397.75 -6.24516 -3.04967 0
M  V30 21156 H 2400.94 -4.07092 -2.3107 0
M  V30 21157 H 2401.12 -5.75589 -2.97659 0
M  V30 21158 N 2394.52 0.910841 -1.28614 0
M  V30 21159 C 2395.75 1.69925 -1.18913 0
M  V30 21160 C 2396.17 1.86453 0.248339 0
M  V30 21161 O 2395.53 1.37679 1.17959 0
M  V30 21162 C 2395.58 3.06742 -1.89583 0
M  V30 21163 O 2394.68 3.94394 -1.20528 0
M  V30 21164 H 2394.02 0.520215 -0.412641 0
M  V30 21165 H 2396.55 1.13867 -1.69987 0
M  V30 21166 H 2396.56 3.56955 -1.97603 0
M  V30 21167 H 2395.24 2.9403 -2.94142 0
M  V30 21168 H 2393.81 3.52829 -1.2069 0
M  V30 21169 N 2396 1.10909 1.11969 0
M  V30 21170 C 2397.23 0.877097 1.87941 0
M  V30 21171 C 2397.65 -0.567283 1.79342 0
M  V30 21172 O 2397.01 -1.40007 1.15186 0
M  V30 21173 C 2397.06 1.33635 3.34924 0
M  V30 21174 O 2396.16 0.504519 4.09302 0
M  V30 21175 H 2395.5 0.316382 0.58378 0
M  V30 21176 H 2398.03 1.47715 1.41568 0
M  V30 21177 H 2398.04 1.32844 3.85767 0
M  V30 21178 H 2396.72 2.38816 3.40499 0
M  V30 21179 H 2395.29 0.578058 3.68392 0
M  V30 21180 N 2397.48 -1.29474 0.898573 0
M  V30 21181 C 2398.7 -2.00285 0.538596 0
M  V30 21182 C 2399.13 -1.66818 -0.869106 0
M  V30 21183 O 2398.49 -0.892172 -1.57829 0
M  V30 21184 C 2398.53 -3.52998 0.736537 0
M  V30 21185 O 2397.64 -4.11857 -0.211465 0
M  V30 21186 H 2396.98 -0.629726 0.210574 0
M  V30 21187 H 2399.51 -1.64996 1.20985 0
M  V30 21188 H 2399.52 -4.02937 0.640756 0
M  V30 21189 H 2398.19 -3.76693 1.76283 0
M  V30 21190 H 2396.77 -3.72838 -0.0682336 0
M  V30 21191 N 2398.96 -0.660936 -1.43071 0
M  V30 21192 C 2400.18 -0.183841 -2.06584 0
M  V30 21193 C 2400.61 1.1447 -1.49259 0
M  V30 21194 O 2399.96 1.70888 -0.605558 0
M  V30 21195 C 2400.01 -0.114497 -3.60418 0
M  V30 21196 O 2399.12 0.921067 -4.01983 0
M  V30 21197 H 2398.46 -0.0984109 -0.656667 0
M  V30 21198 H 2400.99 -0.906039 -1.83445 0
M  V30 21199 H 2401 0.0662677 -4.07946 0
M  V30 21200 H 2399.67 -1.08429 -4.01517 0
M  V30 21201 H 2398.25 0.712466 -3.66031 0
M  V30 21202 N 2400.43 1.52351 -0.403352 0
M  V30 21203 C 2401.68 2.0135 0.173967 0
M  V30 21204 C 2402 1.29108 1.46137 0
M  V30 21205 O 2401.27 0.415287 1.91448 0
M  V30 21206 H 2399.85 0.743964 0.067278 0
M  V30 21207 H 2402.52 1.8732 -0.538268 0
M  V30 21208 H 2401.61 3.09849 0.3742 0
M  V30 21209 N 2401.91 0.133594 1.57033 0
M  V30 21210 C 2402.84 -0.841906 2.13177 0
M  V30 21211 C 2403.86 -1.22 1.07796 0
M  V30 21212 O 2405.05 -1.1664 1.35119 0
M  V30 21213 C 2402.15 -2.13922 2.62851 0
M  V30 21214 C 2401.32 -1.93057 3.92489 0
M  V30 21215 C 2400.38 -3.06652 4.27611 0
M  V30 21216 O 2399.4 -2.78928 4.96173 0
M  V30 21217 N 2400.61 -4.33476 3.86107 0
M  V30 21218 H 2403.37 -0.36214 2.97504 0
M  V30 21219 H 2400.93 -0.0503915 1.61822 0
M  V30 21220 H 2402.92 -2.88937 2.83368 0
M  V30 21221 H 2401.49 -2.53202 1.83324 0
M  V30 21222 H 2400.71 -1.02152 3.80734 0
M  V30 21223 H 2402 -1.76439 4.77228 0
M  V30 21224 H 2401.4 -4.58872 3.30836 0
M  V30 21225 H 2399.96 -5.05316 4.11703 0
M  V30 21226 N 2403.39 -1.56975 -0.140195 0
M  V30 21227 C 2404.34 -1.95196 -1.17824 0
M  V30 21228 C 2405.32 -0.8241 -1.38193 0
M  V30 21229 O 2406.52 -1.08762 -1.39641 0
M  V30 21230 C 2403.65 -2.34188 -2.5102 0
M  V30 21231 C 2402.73 -3.5356 -2.34214 0
M  V30 21232 N 2403.12 -4.69892 -1.87176 0
M  V30 21233 C 2401.42 -3.58778 -2.64943 0
M  V30 21234 C 2402.12 -5.51973 -1.83576 0
M  V30 21235 N 2401.1 -4.9387 -2.27141 0
M  V30 21236 H 2404.9 -2.8261 -0.806767 0
M  V30 21237 H 2402.41 -1.58624 -0.34818 0
M  V30 21238 H 2404.41 -2.59778 -3.26069 0
M  V30 21239 H 2403.07 -1.48129 -2.88943 0
M  V30 21240 H 2404.08 -4.93517 -1.5704 0
M  V30 21241 H 2400.76 -2.83275 -3.06695 0
M  V30 21242 H 2402.15 -6.55252 -1.48643 0
M  V30 21243 N 2404.87 0.409753 -1.5218 0
M  V30 21244 C 2406.12 1.15448 -1.6588 0
M  V30 21245 C 2406.44 1.91044 -0.390804 0
M  V30 21246 O 2405.71 1.86668 0.59429 0
M  V30 21247 H 2404.29 0.429166 -0.611412 0
M  V30 21248 H 2406.95 0.467101 -1.8922 0
M  V30 21249 H 2406.05 1.86889 -2.49958 0
M  V30 21250 N 2406.35 1.42792 0.666944 0
M  V30 21251 C 2407.57 1.47303 1.46002 0
M  V30 21252 C 2408 0.0880648 1.87894 0
M  V30 21253 O 2407.35 -0.915225 1.56503 0
M  V30 21254 C 2407.4 2.41234 2.68027 0
M  V30 21255 O 2406.51 1.88913 3.66587 0
M  V30 21256 H 2405.85 0.498778 0.438311 0
M  V30 21257 H 2408.38 1.87564 0.817358 0
M  V30 21258 H 2408.39 2.58079 3.16006 0
M  V30 21259 H 2407.06 3.41851 2.36877 0
M  V30 21260 H 2405.64 1.81662 3.25658 0
M  V30 21261 N 2407.82 -0.904008 1.29095 0
M  V30 21262 C 2409.07 -1.65083 1.16585 0
M  V30 21263 C 2409.39 -1.92922 -0.283899 0
M  V30 21264 O 2408.66 -1.55226 -1.19506 0
M  V30 21265 H 2407.24 -0.611895 0.428478 0
M  V30 21266 H 2409.91 -1.08419 1.61961 0
M  V30 21267 H 2409 -2.60907 1.71271 0
M  V30 21268 N 2409.3 -1.11501 -1.11379 0
M  V30 21269 C 2410.23 -0.796163 -2.19507 0
M  V30 21270 C 2411.21 0.235766 -1.68458 0
M  V30 21271 O 2412.4 0.0991003 -1.93947 0
M  V30 21272 C 2409.53 -0.239266 -3.46475 0
M  V30 21273 C 2408.48 -1.20314 -4.10741 0
M  V30 21274 C 2407.81 -0.506924 -5.32292 0
M  V30 21275 C 2409.11 -2.55407 -4.55593 0
M  V30 21276 H 2410.8 -1.70028 -2.46436 0
M  V30 21277 H 2408.35 -0.818956 -1.18445 0
M  V30 21278 H 2410.3 -0.00399414 -4.214 0
M  V30 21279 H 2409.03 0.70015 -3.19007 0
M  V30 21280 H 2407.68 -1.42405 -3.37811 0
M  V30 21281 H 2407.33 0.43732 -5.01095 0
M  V30 21282 H 2407.03 -1.1498 -5.76241 0
M  V30 21283 H 2408.56 -0.280459 -6.09956 0
M  V30 21284 H 2409.97 -2.374 -5.21837 0
M  V30 21285 H 2408.37 -3.15682 -5.10358 0
M  V30 21286 H 2409.44 -3.14581 -3.69007 0
M  V30 21287 N 2410.78 1.28995 -0.905426 0
M  V30 21288 C 2412.03 1.94939 -0.533227 0
M  V30 21289 C 2412.35 1.71687 0.924588 0
M  V30 21290 O 2411.62 1.05186 1.65266 0
M  V30 21291 H 2410.2 0.721313 -0.194207 0
M  V30 21292 H 2412.86 1.57139 -1.15297 0
M  V30 21293 H 2411.96 3.03666 -0.720644 0
M  V30 21294 N 2412.26 0.668514 1.42719 0
M  V30 21295 C 2413.17 -0.013934 2.34596 0
M  V30 21296 C 2414.19 -0.795675 1.54742 0
M  V30 21297 O 2415.36 -0.739433 1.87335 0
M  V30 21298 C 2412.43 -0.957924 3.33204 0
M  V30 21299 C 2411.49 -0.171415 4.28958 0
M  V30 21300 C 2410.72 -1.07044 5.22855 0
M  V30 21301 O 2410.94 -2.30991 5.21535 0
M  V30 21302 O 2409.88 -0.534621 5.99521 0
M  V30 21303 H 2413.7 0.742713 2.94478 0
M  V30 21304 H 2411.29 0.428731 1.43116 0
M  V30 21305 H 2413.17 -1.50001 3.93799 0
M  V30 21306 H 2411.85 -1.69453 2.75803 0
M  V30 21307 H 2410.75 0.414624 3.71795 0
M  V30 21308 H 2412.09 0.525946 4.89382 0
M  V30 21309 N 2413.74 -1.52135 0.411426 0
M  V30 21310 C 2414.96 -2.06739 -0.165502 0
M  V30 21311 C 2415.39 -1.27929 -1.37898 0
M  V30 21312 O 2414.75 -0.310146 -1.78628 0
M  V30 21313 C 2414.79 -3.57227 -0.492061 0
M  V30 21314 O 2413.9 -3.80821 -1.5827 0
M  V30 21315 H 2413.24 -0.663869 -0.0132016 0
M  V30 21316 H 2415.77 -1.9605 0.585287 0
M  V30 21317 H 2415.78 -4.01047 -0.750033 0
M  V30 21318 H 2414.45 -4.1402 0.394995 0
M  V30 21319 H 2413.03 -3.4888 -1.31671 0
M  V30 21320 N 2415.22 -0.14192 -1.5696 0
M  V30 21321 C 2416.44 0.520802 -2.00755 0
M  V30 21322 C 2416.87 1.57957 -1.02133 0
M  V30 21323 O 2416.22 1.813 0.00368137 0
M  V30 21324 C 2416.27 1.10288 -3.4332 0
M  V30 21325 O 2415.38 2.21789 -3.47683 0
M  V30 21326 H 2414.72 0.127897 -0.651566 0
M  V30 21327 H 2417.25 -0.237156 -2.03221 0
M  V30 21328 H 2417.26 1.4328 -3.82014 0
M  V30 21329 H 2415.93 0.327502 -4.14609 0
M  V30 21330 H 2414.51 1.90064 -3.20827 0
M  V30 21331 N 2416.69 1.57047 0.131868 0
M  V30 21332 C 2417.94 1.83805 0.840237 0
M  V30 21333 C 2418.26 0.725152 1.81015 0
M  V30 21334 O 2417.53 -0.251961 1.94273 0
M  V30 21335 H 2416.11 0.678132 0.313282 0
M  V30 21336 H 2418.77 1.94516 0.122259 0
M  V30 21337 H 2417.87 2.79273 1.3933 0
M  V30 21338 N 2418.17 -0.401677 1.52395 0
M  V30 21339 C 2419.42 -1.14793 1.6682 0
M  V30 21340 C 2419.75 -1.90304 0.401805 0
M  V30 21341 O 2419 -1.8577 -0.615454 0
M  V30 21342 C 2419.3 -2.16212 2.84582 0
M  V30 21343 C 2418.97 -1.57453 4.22516 0
M  V30 21344 C 2417.63 -1.41153 4.60032 0
M  V30 21345 C 2419.98 -1.14613 5.08442 0
M  V30 21346 C 2417.31 -0.805418 5.81145 0
M  V30 21347 C 2419.66 -0.554169 6.30168 0
M  V30 21348 C 2418.32 -0.378364 6.66427 0
M  V30 21349 H 2417.59 -0.420058 0.610436 0
M  V30 21350 H 2420.24 -0.434179 1.86513 0
M  V30 21351 H 2418.55 -2.9376 2.59254 0
M  V30 21352 H 2420.24 -2.7384 2.92938 0
M  V30 21353 H 2416.83 -1.71125 3.92956 0
M  V30 21354 H 2421.02 -1.26012 4.80036 0
M  V30 21355 H 2416.27 -0.657292 6.07857 0
M  V30 21356 H 2420.45 -0.21386 6.96072 0
M  V30 21357 H 2418.07 0.0933942 7.60143 0
M  V30 21358 N 2419.65 -1.43144 -0.659362 0
M  V30 21359 C 2420.9 -1.4415 -1.41652 0
M  V30 21360 C 2421.22 -0.0646081 -1.94893 0
M  V30 21361 O 2420.49 0.899168 -1.74045 0
M  V30 21362 H 2419.07 -0.530707 -0.525699 0
M  V30 21363 H 2421.73 -1.78696 -0.778065 0
M  V30 21364 H 2420.83 -2.15044 -2.26192 0
M  V30 21365 N 2421.13 0.897149 -1.29572 0
M  V30 21366 C 2422.08 1.98853 -1.11542 0
M  V30 21367 C 2423.06 1.60864 -0.0340998 0
M  V30 21368 O 2424.25 1.75138 -0.256093 0
M  V30 21369 C 2421.38 3.33928 -0.796661 0
M  V30 21370 C 2420.47 3.78269 -1.91765 0
M  V30 21371 N 2420.86 3.9482 -3.1615 0
M  V30 21372 C 2419.16 4.07565 -1.81126 0
M  V30 21373 C 2419.86 4.32226 -3.89301 0
M  V30 21374 N 2418.83 4.41413 -3.17263 0
M  V30 21375 H 2422.64 2.09722 -2.05897 0
M  V30 21376 H 2420.15 1.08614 -1.20734 0
M  V30 21377 H 2422.15 4.11825 -0.648531 0
M  V30 21378 H 2420.81 3.24403 0.138946 0
M  V30 21379 H 2421.82 3.80282 -3.51576 0
M  V30 21380 H 2418.5 4.06582 -0.948533 0
M  V30 21381 H 2419.89 4.52856 -4.96357 0
M  V30 21382 N 2422.61 1.1209 1.10786 0
M  V30 21383 C 2423.56 0.754439 2.15156 0
M  V30 21384 C 2424.54 -0.244818 1.59027 0
M  V30 21385 O 2425.73 -0.0508786 1.76927 0
M  V30 21386 C 2422.86 0.206717 3.42677 0
M  V30 21387 C 2421.95 1.23405 4.05749 0
M  V30 21388 N 2422.34 2.43049 4.43578 0
M  V30 21389 C 2420.64 1.07856 4.32762 0
M  V30 21390 C 2421.34 3.08622 4.9308 0
M  V30 21391 N 2420.31 2.36081 4.8966 0
M  V30 21392 H 2424.11 1.66494 2.42192 0
M  V30 21393 H 2421.63 1.00115 1.2787 0
M  V30 21394 H 2423.63 -0.0739913 4.16834 0
M  V30 21395 H 2422.29 -0.698286 3.17103 0
M  V30 21396 H 2423.3 2.80456 4.3539 0
M  V30 21397 H 2419.97 0.230556 4.16863 0
M  V30 21398 H 2421.36 4.10493 5.31926 0
M  V30 21399 N 2424.08 -1.28513 0.912254 0
M  V30 21400 C 2424.99 -2.31086 0.404547 0
M  V30 21401 C 2426.01 -1.66448 -0.50704 0
M  V30 21402 O 2427.19 -1.97517 -0.393589 0
M  V30 21403 C 2424.25 -3.44944 -0.348512 0
M  V30 21404 C 2423.31 -4.25141 0.596114 0
M  V30 21405 C 2422.54 -5.33563 -0.1211 0
M  V30 21406 O 2422.77 -5.54363 -1.34307 0
M  V30 21407 O 2421.7 -5.99447 0.542822 0
M  V30 21408 H 2425.53 -2.76519 1.25583 0
M  V30 21409 H 2423.11 -1.33179 0.677022 0
M  V30 21410 H 2424.99 -4.14233 -0.773877 0
M  V30 21411 H 2423.67 -3.01596 -1.17566 0
M  V30 21412 H 2422.58 -3.58446 1.07085 0
M  V30 21413 H 2423.91 -4.72164 1.39003 0
M  V30 21414 N 2425.56 -0.676073 -1.42362 0
M  V30 21415 C 2426.79 -0.205741 -2.06377 0
M  V30 21416 C 2427.21 1.1288 -1.50465 0
M  V30 21417 O 2426.57 1.70236 -0.623649 0
M  V30 21418 C 2426.62 -0.152718 -3.60276 0
M  V30 21419 O 2425.72 0.878379 -4.02937 0
M  V30 21420 H 2425.06 -0.10537 -0.655586 0
M  V30 21421 H 2427.59 -0.925445 -1.82474 0
M  V30 21422 H 2427.6 0.0229958 -4.07994 0
M  V30 21423 H 2426.28 -1.12682 -4.00344 0
M  V30 21424 H 2424.86 0.673603 -3.66766 0
M  V30 21425 N 2427.04 1.51915 -0.419488 0
M  V30 21426 C 2428.27 2.06823 0.154535 0
M  V30 21427 C 2428.69 1.28658 1.37218 0
M  V30 21428 O 2428.05 0.319614 1.78461 0
M  V30 21429 C 2428.1 3.57483 0.473109 0
M  V30 21430 O 2427.2 3.81655 1.56248 0
M  V30 21431 H 2426.54 0.663929 0.00968073 0
M  V30 21432 H 2429.07 1.95737 -0.595676 0
M  V30 21433 H 2429.08 4.01439 0.728754 0
M  V30 21434 H 2427.76 4.13805 -0.416946 0
M  V30 21435 H 2426.33 3.49573 1.29819 0
M  V30 21436 N 2428.52 0.150242 1.56882 0
M  V30 21437 C 2429.74 -0.510148 2.01028 0
M  V30 21438 C 2430.17 -1.57414 1.02969 0
M  V30 21439 O 2429.53 -1.81299 0.00593344 0
M  V30 21440 C 2429.57 -1.08466 3.439 0
M  V30 21441 O 2428.68 -2.19942 3.48854 0
M  V30 21442 H 2428.02 -0.124439 0.652235 0
M  V30 21443 H 2430.55 0.24793 2.03092 0
M  V30 21444 H 2430.56 -1.41252 3.82769 0
M  V30 21445 H 2429.23 -0.305509 4.14776 0
M  V30 21446 H 2427.81 -1.8836 3.21831 0
M  V30 21447 N 2430 -1.57115 -0.123538 0
M  V30 21448 C 2431.24 -1.84248 -0.830477 0
M  V30 21449 C 2431.57 -0.734742 -1.80628 0
M  V30 21450 O 2430.84 0.241654 -1.94404 0
M  V30 21451 H 2429.42 -0.679784 -0.309682 0
M  V30 21452 H 2432.08 -1.94578 -0.111942 0
M  V30 21453 H 2431.17 -2.80008 -1.37847 0
M  V30 21454 N 2431.47 0.393589 -1.52606 0
M  V30 21455 C 2432.41 1.49992 -1.73306 0
M  V30 21456 C 2433.42 1.50798 -0.6135 0
M  V30 21457 O 2434.61 1.54783 -0.889076 0
M  V30 21458 C 2431.71 2.88852 -1.7725 0
M  V30 21459 C 2430.88 3.12063 -3.06488 0
M  V30 21460 C 2429.94 4.30881 -3.0204 0
M  V30 21461 O 2428.97 4.27407 -3.75914 0
M  V30 21462 N 2430.17 5.36825 -2.20906 0
M  V30 21463 H 2432.93 1.32624 -2.68758 0
M  V30 21464 H 2430.49 0.583056 -1.51037 0
M  V30 21465 H 2432.49 3.66431 -1.71786 0
M  V30 21466 H 2431.06 2.99602 -0.892045 0
M  V30 21467 H 2430.28 2.2239 -3.25478 0
M  V30 21468 H 2431.56 3.24423 -3.91953 0
M  V30 21469 H 2430.96 5.425 -1.60345 0
M  V30 21470 H 2429.52 6.13087 -2.21286 0
M  V30 21471 N 2432.95 1.43492 0.651762 0
M  V30 21472 C 2434.18 1.48843 1.44431 0
M  V30 21473 C 2434.6 0.107988 1.8779 0
M  V30 21474 O 2433.96 -0.898574 1.57465 0
M  V30 21475 C 2434.01 2.44063 2.65453 0
M  V30 21476 O 2433.11 1.9279 3.64562 0
M  V30 21477 H 2432.45 0.503399 0.432996 0
M  V30 21478 H 2434.98 1.88421 0.797418 0
M  V30 21479 H 2434.99 2.61416 3.1325 0
M  V30 21480 H 2433.67 3.44344 2.33238 0
M  V30 21481 H 2432.25 1.85106 3.23713 0
M  V30 21482 N 2434.43 -0.890264 1.30046 0
M  V30 21483 C 2435.66 -1.68012 1.21601 0
M  V30 21484 C 2436.08 -1.86825 -0.218645 0
M  V30 21485 O 2435.44 -1.39538 -1.15754 0
M  V30 21486 C 2435.49 -3.03687 1.94439 0
M  V30 21487 O 2434.59 -3.92427 1.26787 0
M  V30 21488 H 2433.93 -0.513584 0.420865 0
M  V30 21489 H 2436.46 -1.11148 1.71777 0
M  V30 21490 H 2436.47 -3.53766 2.03257 0
M  V30 21491 H 2435.15 -2.89313 2.98782 0
M  V30 21492 H 2433.72 -3.50864 1.26288 0
M  V30 21493 N 2435.91 -1.12676 -1.1019 0
M  V30 21494 C 2437.13 -0.906886 -1.86522 0
M  V30 21495 C 2437.56 0.538679 -1.80222 0
M  V30 21496 O 2436.92 1.38156 -1.17399 0
M  V30 21497 C 2436.96 -1.38946 -3.32756 0
M  V30 21498 O 2436.07 -0.569572 -4.08448 0
M  V30 21499 H 2435.41 -0.325629 -0.578672 0
M  V30 21500 H 2437.94 -1.49948 -1.392 0
M  V30 21501 H 2437.95 -1.38965 -3.83605 0
M  V30 21502 H 2436.62 -2.44203 -3.36657 0
M  V30 21503 H 2435.2 -0.636593 -3.67426 0
M  V30 21504 N 2437.39 1.28028 -0.919057 0
M  V30 21505 C 2438.62 1.98576 -0.570178 0
M  V30 21506 C 2439.02 1.68823 0.854143 0
M  V30 21507 O 2438.37 0.940379 1.57805 0
M  V30 21508 C 2438.43 3.52504 -0.705796 0
M  V30 21509 C 2438.09 4.0586 -2.10064 0
M  V30 21510 C 2439.09 4.19292 -3.07392 0
M  V30 21511 C 2436.78 4.40421 -2.41525 0
M  V30 21512 C 2438.77 4.66548 -4.34295 0
M  V30 21513 C 2436.46 4.87369 -3.68666 0
M  V30 21514 C 2437.45 5.0039 -4.64865 0
M  V30 21515 O 2437.14 5.46312 -5.89745 0
M  V30 21516 H 2436.87 0.640696 -0.215603 0
M  V30 21517 H 2439.43 1.6406 -1.23586 0
M  V30 21518 H 2437.66 3.86696 0.0169734 0
M  V30 21519 H 2439.35 4.04271 -0.363243 0
M  V30 21520 H 2440.11 3.9286 -2.84405 0
M  V30 21521 H 2435.99 4.29534 -1.67397 0
M  V30 21522 H 2439.54 4.76626 -5.09386 0
M  V30 21523 H 2435.43 5.13242 -3.91475 0
M  V30 21524 H 2436.2 5.64585 -5.92609 0
M  V30 21525 N 2438.86 0.683613 1.42002 0
M  V30 21526 C 2440.09 0.216683 2.06265 0
M  V30 21527 C 2440.51 -1.12081 1.51061 0
M  V30 21528 O 2439.87 -1.69903 0.632668 0
M  V30 21529 C 2439.92 0.171822 3.6019 0
M  V30 21530 O 2439.02 -0.856998 4.03397 0
M  V30 21531 H 2438.37 0.108845 0.655018 0
M  V30 21532 H 2440.9 0.935109 1.8198 0
M  V30 21533 H 2440.91 -0.00135858 4.08 0
M  V30 21534 H 2439.58 1.14803 3.99741 0
M  V30 21535 H 2438.16 -0.654143 3.67118 0
M  V30 21536 N 2440.34 -1.5169 0.427538 0
M  V30 21537 C 2441.28 -2.25235 -0.424481 0
M  V30 21538 C 2442.29 -1.28882 -0.994648 0
M  V30 21539 O 2443.48 -1.54703 -0.890455 0
M  V30 21540 C 2440.58 -2.98498 -1.60474 0
M  V30 21541 C 2439.75 -4.2187 -1.1552 0
M  V30 21542 C 2438.81 -4.77797 -2.20446 0
M  V30 21543 O 2437.84 -5.39896 -1.80281 0
M  V30 21544 N 2439.04 -4.60973 -3.52823 0
M  V30 21545 H 2441.8 -2.98993 0.205802 0
M  V30 21546 H 2439.36 -1.59865 0.255895 0
M  V30 21547 H 2441.36 -3.32803 -2.3027 0
M  V30 21548 H 2439.93 -2.27813 -2.14057 0
M  V30 21549 H 2439.15 -3.93171 -0.284667 0
M  V30 21550 H 2440.43 -5.0195 -0.832085 0
M  V30 21551 H 2439.83 -4.11488 -3.88193 0
M  V30 21552 H 2438.39 -4.99666 -4.18542 0
M  V30 21553 N 2441.82 -0.15856 -1.568 0
M  V30 21554 C 2442.77 0.7887 -2.13924 0
M  V30 21555 C 2443.76 1.20158 -1.07008 0
M  V30 21556 O 2444.95 1.16607 -1.33161 0
M  V30 21557 C 2442.08 2.02315 -2.77351 0
M  V30 21558 C 2441.16 1.63283 -3.91407 0
M  V30 21559 N 2441.55 0.951375 -4.96772 0
M  V30 21560 C 2439.85 1.92475 -4.0233 0
M  V30 21561 C 2440.55 0.76112 -5.76699 0
M  V30 21562 N 2439.53 1.29859 -5.27861 0
M  V30 21563 H 2443.33 0.258943 -2.92757 0
M  V30 21564 H 2440.84 0.0425769 -1.62344 0
M  V30 21565 H 2442.84 2.71186 -3.16644 0
M  V30 21566 H 2441.5 2.55797 -1.99995 0
M  V30 21567 H 2442.51 0.610838 -5.14285 0
M  V30 21568 H 2439.19 2.47726 -3.36063 0
M  V30 21569 H 2440.58 0.223166 -6.71529 0
M  V30 21570 N 2443.3 1.57178 0.115204 0
M  V30 21571 C 2444.55 1.84686 0.820694 0
M  V30 21572 C 2444.87 0.74431 1.80236 0
M  V30 21573 O 2444.14 -0.231341 1.94529 0
M  V30 21574 H 2442.72 0.681417 0.306072 0
M  V30 21575 H 2445.38 1.94635 0.101622 0
M  V30 21576 H 2444.48 2.80735 1.36361 0
M  V30 21577 N 2444.78 -0.38549 1.52813 0
M  V30 21578 C 2446 -1.1558 1.72209 0
M  V30 21579 C 2446.43 -1.82856 0.441066 0
M  V30 21580 O 2445.79 -1.70963 -0.603435 0
M  V30 21581 C 2445.83 -2.17687 2.8748 0
M  V30 21582 O 2444.94 -3.24349 2.54699 0
M  V30 21583 H 2444.28 -0.336309 0.572532 0
M  V30 21584 H 2446.81 -0.448709 1.99619 0
M  V30 21585 H 2446.82 -2.61624 3.13076 0
M  V30 21586 H 2445.49 -1.68108 3.80411 0
M  V30 21587 H 2444.07 -2.85524 2.39855 0
M  V30 21588 N 2446.26 -1.43835 -0.644143 0
M  V30 21589 C 2447.5 -1.45644 -1.40115 0
M  V30 21590 C 2447.82 -0.0852755 -1.94813 0
M  V30 21591 O 2447.09 0.880657 -1.74989 0
M  V30 21592 H 2445.67 -0.536253 -0.520041 0
M  V30 21593 H 2448.34 -1.79511 -0.759069 0
M  V30 21594 H 2447.43 -2.17431 -2.23898 0
M  V30 21595 N 2447.73 0.883355 -1.30517 0
M  V30 21596 C 2448.96 1.67365 -1.2249 0
M  V30 21597 C 2449.38 1.86938 0.208734 0
M  V30 21598 O 2448.74 1.4015 1.15012 0
M  V30 21599 C 2448.79 3.02652 -1.96047 0
M  V30 21600 O 2447.89 3.91749 -1.28866 0
M  V30 21601 H 2447.23 0.511345 -0.423582 0
M  V30 21602 H 2449.76 1.10236 -1.72364 0
M  V30 21603 H 2449.77 3.52683 -2.05131 0
M  V30 21604 H 2448.45 2.87724 -3.00312 0
M  V30 21605 H 2447.03 3.5019 -1.28147 0
M  V30 21606 N 2449.21 1.13259 1.09591 0
M  V30 21607 C 2450.46 0.891524 1.81373 0
M  V30 21608 C 2450.78 -0.583976 1.8605 0
M  V30 21609 O 2450.05 -1.42446 1.34484 0
M  V30 21610 H 2448.63 0.32684 0.671703 0
M  V30 21611 H 2451.29 1.4288 1.32557 0
M  V30 21612 H 2450.39 1.28076 2.8461 0
M  V30 21613 N 2450.69 -1.27539 0.925834 0
M  V30 21614 C 2451.64 -2.24561 0.394528 0
M  V30 21615 C 2452.62 -1.52929 -0.500156 0
M  V30 21616 O 2453.82 -1.73745 -0.337905 0
M  V30 21617 C 2450.94 -3.41478 -0.353268 0
M  V30 21618 C 2450.03 -4.20415 0.557826 0
M  V30 21619 N 2450.42 -4.77196 1.67683 0
M  V30 21620 C 2448.72 -4.44541 0.360483 0
M  V30 21621 C 2449.42 -5.36702 2.24334 0
M  V30 21622 N 2448.4 -5.21532 1.53314 0
M  V30 21623 H 2452.2 -2.66042 1.24895 0
M  V30 21624 H 2449.71 -1.42448 0.779889 0
M  V30 21625 H 2451.71 -4.10083 -0.750828 0
M  V30 21626 H 2450.37 -3.01527 -1.20464 0
M  V30 21627 H 2451.38 -4.75201 2.05924 0
M  V30 21628 H 2448.06 -4.15064 -0.450381 0
M  V30 21629 H 2449.45 -5.91597 3.18531 0
M  V30 21630 N 2452.17 -0.691135 -1.41637 0
M  V30 21631 C 2453.39 -0.227619 -2.06147 0
M  V30 21632 C 2453.82 1.11278 -1.51654 0
M  V30 21633 O 2453.18 1.69565 -0.64167 0
M  V30 21634 C 2453.22 -0.190922 -3.60094 0
M  V30 21635 O 2452.33 0.835593 -4.03846 0
M  V30 21636 H 2451.67 -0.112318 -0.654432 0
M  V30 21637 H 2454.2 -0.944746 -1.81482 0
M  V30 21638 H 2454.21 -0.0202787 -4.07995 0
M  V30 21639 H 2452.88 -1.16922 -3.99127 0
M  V30 21640 H 2451.46 0.634665 -3.67459 0
M  V30 21641 N 2453.65 1.51461 -0.435577 0
M  V30 21642 C 2454.87 2.06976 0.13259 0
M  V30 21643 C 2455.3 1.30106 1.35845 0
M  V30 21644 O 2454.65 0.338524 1.78111 0
M  V30 21645 C 2454.7 3.57965 0.435167 0
M  V30 21646 O 2453.81 3.83291 1.52191 0
M  V30 21647 H 2453.15 0.663995 0.00263832 0
M  V30 21648 H 2455.68 1.95094 -0.616403 0
M  V30 21649 H 2455.69 4.02189 0.686135 0
M  V30 21650 H 2454.36 4.13339 -0.460812 0
M  V30 21651 H 2452.94 3.5093 1.26104 0
M  V30 21652 N 2455.12 0.166873 1.56714 0
M  V30 21653 C 2456.37 -0.478271 1.96359 0
M  V30 21654 C 2456.69 -1.64078 1.05373 0
M  V30 21655 O 2455.96 -1.95537 0.119189 0
M  V30 21656 H 2454.54 -0.17968 0.725068 0
M  V30 21657 H 2457.21 0.247018 1.93328 0
M  V30 21658 H 2456.3 -0.84124 3.00549 0
M  V30 21659 N 2456.6 -1.57237 -0.106866 0
M  V30 21660 C 2457.83 -1.89406 -0.825157 0
M  V30 21661 C 2458.24 -0.757526 -1.73373 0
M  V30 21662 O 2457.58 0.280083 -1.81552 0
M  V30 21663 C 2457.65 -3.16713 -1.70097 0
M  V30 21664 C 2457.31 -4.46686 -0.965444 0
M  V30 21665 C 2458.31 -5.1903 -0.30065 0
M  V30 21666 C 2455.99 -4.93368 -0.943018 0
M  V30 21667 C 2457.99 -6.36286 0.376734 0
M  V30 21668 C 2455.67 -6.10539 -0.261842 0
M  V30 21669 C 2456.67 -6.81846 0.396867 0
M  V30 21670 O 2456.36 -7.96786 1.06715 0
M  V30 21671 H 2456.09 -0.63126 -0.241841 0
M  V30 21672 H 2458.64 -2.05193 -0.092113 0
M  V30 21673 H 2456.87 -2.97041 -2.47596 0
M  V30 21674 H 2458.56 -3.34806 -2.29477 0
M  V30 21675 H 2459.33 -4.84011 -0.309514 0
M  V30 21676 H 2455.21 -4.37762 -1.44517 0
M  V30 21677 H 2458.75 -6.91881 0.891455 0
M  V30 21678 H 2454.65 -6.45013 -0.250783 0
M  V30 21679 H 2455.42 -8.12698 0.97285 0
M  V30 21680 N 2458.08 0.377381 -1.53015 0
M  V30 21681 C 2459.33 1.11903 -1.68292 0
M  V30 21682 C 2459.65 1.90172 -0.431239 0
M  V30 21683 O 2458.92 1.87887 0.554561 0
M  V30 21684 H 2457.5 0.416101 -0.620378 0
M  V30 21685 H 2460.16 0.426859 -1.90168 0
M  V30 21686 H 2459.26 1.81545 -2.53866 0
M  V30 21687 N 2459.56 1.44175 0.636506 0
M  V30 21688 C 2460.49 1.46609 1.76178 0
M  V30 21689 C 2461.5 0.360119 1.58767 0
M  V30 21690 O 2462.69 0.625548 1.6718 0
M  V30 21691 C 2459.79 1.2792 3.13831 0
M  V30 21692 C 2458.97 2.51664 3.57749 0
M  V30 21693 C 2458.02 2.27954 4.74261 0
M  V30 21694 O 2457.05 3.01409 4.82847 0
M  V30 21695 N 2458.25 1.30672 5.65602 0
M  V30 21696 H 2461.02 2.43615 1.74562 0
M  V30 21697 H 2458.58 1.39545 0.820899 0
M  V30 21698 H 2460.57 1.09914 3.89488 0
M  V30 21699 H 2459.14 0.392984 3.1012 0
M  V30 21700 H 2458.36 2.84983 2.72357 0
M  V30 21701 H 2459.65 3.33981 3.83842 0
M  V30 21702 H 2459.05 0.699943 5.61353 0
M  V30 21703 H 2457.6 1.18646 6.40911 0
M  V30 21704 N 2461.04 -0.876421 1.30983 0
M  V30 21705 C 2461.99 -1.97053 1.14692 0
M  V30 21706 C 2462.97 -1.60789 0.0596876 0
M  V30 21707 O 2464.16 -1.74708 0.283923 0
M  V30 21708 C 2461.29 -3.32619 0.849686 0
M  V30 21709 C 2460.38 -3.7517 1.97758 0
M  V30 21710 N 2460.77 -3.8974 3.22391 0
M  V30 21711 C 2459.07 -4.04632 1.87587 0
M  V30 21712 C 2459.77 -4.25978 3.96128 0
M  V30 21713 N 2458.74 -4.3631 3.24245 0
M  V30 21714 H 2462.55 -2.0642 2.09208 0
M  V30 21715 H 2460.06 -1.0668 1.22447 0
M  V30 21716 H 2462.06 -4.10741 0.713967 0
M  V30 21717 H 2460.72 -3.24583 -0.0873189 0
M  V30 21718 H 2461.73 -3.74641 3.57582 0
M  V30 21719 H 2458.4 -4.05022 1.0131 0
M  V30 21720 H 2459.79 -4.44902 5.03499 0
M  V30 21721 N 2462.51 -1.13839 -1.08989 0
M  V30 21722 C 2463.76 -0.90113 -1.80898 0
M  V30 21723 C 2464.08 0.574101 -1.86357 0
M  V30 21724 O 2463.35 1.41731 -1.35237 0
M  V30 21725 H 2461.93 -0.330398 -0.66996 0
M  V30 21726 H 2464.6 -1.43581 -1.31798 0
M  V30 21727 H 2463.69 -1.29583 -2.83927 0
M  V30 21728 N 2463.99 1.27046 -0.932584 0
M  V30 21729 C 2465.22 1.98786 -0.591509 0
M  V30 21730 C 2465.64 1.69063 0.824571 0
M  V30 21731 O 2465 0.933704 1.55408 0
M  V30 21732 C 2465.05 3.50921 -0.82987 0
M  V30 21733 O 2464.15 4.12273 0.102194 0
M  V30 21734 H 2463.49 0.623922 -0.227196 0
M  V30 21735 H 2466.02 1.61731 -1.25317 0
M  V30 21736 H 2466.03 4.01097 -0.747362 0
M  V30 21737 H 2464.71 3.71886 -1.86208 0
M  V30 21738 H 2463.29 3.72887 -0.0306417 0
M  V30 21739 N 2465.47 0.698636 1.41269 0
M  V30 21740 C 2466.89 0.37049 1.5524 0
M  V30 21741 C 2467.09 -1.12228 1.67353 0
M  V30 21742 O 2466.14 -1.90815 1.65366 0
M  V30 21743 C 2467.46 1.1217 2.78995 0
M  V30 21744 C 2469 1.10635 2.92795 0
M  V30 21745 C 2469.48 1.83937 4.19441 0
M  V30 21746 N 2470.97 1.80922 4.26405 0
M  V30 21747 C 2471.7 2.34476 5.23267 0
M  V30 21748 N 2471.2 2.96515 6.26139 0
M  V30 21749 N 2472.99 2.24715 5.15228 0
M  V30 21750 H 2465.14 1.66678 1.31651 0
M  V30 21751 H 2467.41 0.703559 0.635381 0
M  V30 21752 H 2467.11 2.17648 2.76265 0
M  V30 21753 H 2466.99 0.702274 3.70605 0
M  V30 21754 H 2469.37 0.0598232 2.95039 0
M  V30 21755 H 2469.46 1.56486 2.0235 0
M  V30 21756 H 2469.1 2.88571 4.17959 0
M  V30 21757 H 2469.03 1.35518 5.08864 0
M  V30 21758 H 2471.52 1.35693 3.52698 0
M  V30 21759 H 2471.83 3.34939 6.96445 0
M  V30 21760 H 2470.18 3.00594 6.26633 0
M  V30 21761 H 2473.37 1.75918 4.33786 0
M  V30 21762 H 2473.54 2.66755 5.90547 0
M  V30 21763 N 2466.95 -1.51228 0.443603 0
M  V30 21764 C 2468.17 -2.07043 -0.121612 0
M  V30 21765 C 2468.6 -1.30825 -1.35153 0
M  V30 21766 O 2467.96 -0.347965 -1.77929 0
M  V30 21767 C 2468 -3.5819 -0.416177 0
M  V30 21768 O 2467.11 -3.84092 -1.50156 0
M  V30 21769 H 2466.45 -0.663999 0.000883038 0
M  V30 21770 H 2468.98 -1.94764 0.626741 0
M  V30 21771 H 2468.99 -4.02547 -0.664797 0
M  V30 21772 H 2467.66 -4.13089 0.482725 0
M  V30 21773 H 2466.24 -3.51594 -1.24241 0
M  V30 21774 N 2468.43 -0.175182 -1.56623 0
M  V30 21775 C 2469.67 0.467851 -1.9661 0
M  V30 21776 C 2470 1.63517 -1.06241 0
M  V30 21777 O 2469.27 1.95471 -0.129557 0
M  V30 21778 H 2467.85 0.175832 -0.726011 0
M  V30 21779 H 2470.51 -0.257268 -1.93195 0
M  V30 21780 H 2469.6 0.825289 -3.00991 0
M  V30 21781 N 2469.91 1.57292 0.0985263 0
M  V30 21782 C 2470.84 1.98498 1.14592 0
M  V30 21783 C 2471.85 0.887055 1.36511 0
M  V30 21784 O 2473.04 1.1652 1.35223 0
M  V30 21785 C 2470.14 2.28576 2.50212 0
M  V30 21786 C 2469.31 3.59872 2.48617 0
M  V30 21787 C 2468.37 3.77927 3.66139 0
M  V30 21788 O 2467.4 4.49818 3.48787 0
M  V30 21789 N 2468.6 3.18244 4.85491 0
M  V30 21790 H 2471.36 2.88957 0.795227 0
M  V30 21791 H 2468.93 1.59326 0.287551 0
M  V30 21792 H 2470.92 2.37851 3.27428 0
M  V30 21793 H 2469.49 1.44141 2.77384 0
M  V30 21794 H 2468.71 3.61599 1.56972 0
M  V30 21795 H 2470 4.46134 2.44627 0
M  V30 21796 H 2469.39 2.59842 5.02492 0
M  V30 21797 H 2467.95 3.33009 5.60311 0
M  V30 21798 N 2471.38 -0.369261 1.53213 0
M  V30 21799 C 2472.61 -1.13747 1.73425 0
M  V30 21800 C 2473.03 -1.82378 0.460436 0
M  V30 21801 O 2472.39 -1.71593 -0.585268 0
M  V30 21802 C 2472.44 -2.14625 2.89773 0
M  V30 21803 O 2471.54 -3.21629 2.58124 0
M  V30 21804 H 2470.88 -0.330217 0.576067 0
M  V30 21805 H 2473.41 -0.427512 2.00084 0
M  V30 21806 H 2473.42 -2.58289 3.15834 0
M  V30 21807 H 2472.1 -1.64064 3.82173 0
M  V30 21808 H 2470.68 -2.82964 2.42869 0
M  V30 21809 N 2472.86 -1.4451 -0.628851 0
M  V30 21810 C 2474.09 -1.51122 -1.42045 0
M  V30 21811 C 2474.51 -0.13785 -1.87594 0
M  V30 21812 O 2473.87 0.873409 -1.58875 0
M  V30 21813 C 2473.92 -2.48256 -2.61537 0
M  V30 21814 O 2473.02 -1.98566 -3.61449 0
M  V30 21815 H 2472.36 -0.510224 -0.424933 0
M  V30 21816 H 2474.89 -1.89666 -0.767341 0
M  V30 21817 H 2474.9 -2.66366 -3.09052 0
M  V30 21818 H 2473.58 -3.48011 -2.2773 0
M  V30 21819 H 2472.15 -1.90232 -3.20727 0
M  V30 21820 N 2474.34 0.869463 -1.31446 0
M  V30 21821 C 2475.76 1.15529 -1.10115 0
M  V30 21822 C 2475.96 2.01093 0.128052 0
M  V30 21823 O 2475.01 2.38909 0.817234 0
M  V30 21824 C 2476.32 1.84694 -2.37294 0
M  V30 21825 C 2477.87 1.97393 -2.42909 0
M  V30 21826 C 2478.35 2.69972 -3.69972 0
M  V30 21827 N 2479.84 2.77508 -3.70869 0
M  V30 21828 C 2480.57 3.34279 -4.65881 0
M  V30 21829 N 2480.07 3.91978 -5.71249 0
M  V30 21830 N 2481.86 3.32242 -4.534 0
M  V30 21831 H 2474.01 0.29931 -2.10281 0
M  V30 21832 H 2476.28 0.195198 -0.927686 0
M  V30 21833 H 2475.98 1.29272 -3.2708 0
M  V30 21834 H 2475.86 2.84968 -2.4713 0
M  V30 21835 H 2478.24 2.51979 -1.53592 0
M  V30 21836 H 2478.32 0.961601 -2.37038 0
M  V30 21837 H 2477.97 2.16054 -4.59656 0
M  V30 21838 H 2477.9 3.71613 -3.7311 0
M  V30 21839 H 2480.39 2.36558 -2.94701 0
M  V30 21840 H 2480.7 4.3341 -6.39825 0
M  V30 21841 H 2479.05 3.90352 -5.75022 0
M  V30 21842 H 2482.24 2.86404 -3.70257 0
M  V30 21843 H 2482.41 3.76188 -5.27623 0
M  V30 21844 N 2475.82 1.14415 1.08383 0
M  V30 21845 C 2477.07 0.910711 1.80417 0
M  V30 21846 C 2477.39 -0.56421 1.86659 0
M  V30 21847 O 2476.66 -1.41012 1.35987 0
M  V30 21848 H 2475.24 0.333946 0.668198 0
M  V30 21849 H 2477.9 1.44278 1.31034 0
M  V30 21850 H 2476.99 1.31087 2.83236 0
M  V30 21851 N 2477.3 -1.26549 0.939309 0
M  V30 21852 C 2478.21 -2.30176 0.453473 0
M  V30 21853 C 2479.22 -1.67487 -0.47162 0
M  V30 21854 O 2480.4 -1.98307 -0.351605 0
M  V30 21855 C 2477.46 -3.45606 -0.275265 0
M  V30 21856 C 2476.52 -4.23781 0.686159 0
M  V30 21857 C 2475.76 -5.33699 -0.00789613 0
M  V30 21858 O 2475.98 -5.57087 -1.22518 0
M  V30 21859 O 2474.91 -5.98161 0.669851 0
M  V30 21860 H 2478.74 -2.73792 1.31421 0
M  V30 21861 H 2476.32 -1.31713 0.705119 0
M  V30 21862 H 2478.21 -4.15781 -0.685838 0
M  V30 21863 H 2476.88 -3.04022 -1.11142 0
M  V30 21864 H 2475.79 -3.56094 1.14664 0
M  V30 21865 H 2477.12 -4.69109 1.48987 0
M  V30 21866 N 2478.77 -0.706118 -1.40896 0
M  V30 21867 C 2480.19 -0.378717 -1.55042 0
M  V30 21868 C 2480.39 1.11339 -1.67946 0
M  V30 21869 O 2479.45 1.89935 -1.66376 0
M  V30 21870 C 2480.76 -1.13648 -2.78396 0
M  V30 21871 C 2482.31 -1.12186 -2.92204 0
M  V30 21872 C 2482.78 -1.86159 -4.1846 0
M  V30 21873 N 2484.27 -1.83181 -4.2544 0
M  V30 21874 C 2485.01 -2.37248 -5.22016 0
M  V30 21875 N 2484.5 -2.99832 -6.24558 0
M  V30 21876 N 2486.3 -2.27444 -5.14029 0
M  V30 21877 H 2478.45 -1.67374 -1.30766 0
M  V30 21878 H 2480.71 -0.706919 -0.631641 0
M  V30 21879 H 2480.42 -2.1911 -2.75106 0
M  V30 21880 H 2480.29 -0.721918 -3.70227 0
M  V30 21881 H 2482.68 -0.075469 -2.95003 0
M  V30 21882 H 2482.76 -1.57557 -2.01518 0
M  V30 21883 H 2482.4 -2.90783 -4.16422 0
M  V30 21884 H 2482.33 -1.38215 -5.08138 0
M  V30 21885 H 2484.82 -1.37562 -3.51973 0
M  V30 21886 H 2485.14 -3.38628 -6.94659 0
M  V30 21887 H 2483.48 -3.03913 -6.2503 0
M  V30 21888 H 2486.67 -1.78216 -4.32847 0
M  V30 21889 H 2486.85 -2.69883 -5.89124 0
M  V30 21890 N 2480.25 1.50991 -0.451617 0
M  V30 21891 C 2481.2 2.24964 0.370822 0
M  V30 21892 C 2482.19 1.27761 0.978052 0
M  V30 21893 O 2483.38 1.52773 0.893827 0
M  V30 21894 C 2480.51 3.10548 1.46339 0
M  V30 21895 C 2479.59 4.15188 0.864852 0
M  V30 21896 N 2479.98 5.058 -0.00320245 0
M  V30 21897 C 2478.28 4.31424 1.13091 0
M  V30 21898 C 2478.98 5.807 -0.340874 0
M  V30 21899 N 2477.96 5.42883 0.279107 0
M  V30 21900 H 2481.76 2.92383 -0.298186 0
M  V30 21901 H 2479.27 1.60231 -0.264556 0
M  V30 21902 H 2481.27 3.62132 2.06558 0
M  V30 21903 H 2479.93 2.44674 2.13459 0
M  V30 21904 H 2480.94 5.16572 -0.370671 0
M  V30 21905 H 2477.62 3.76774 1.79854 0
M  V30 21906 H 2479.01 6.63675 -1.04812 0
M  V30 21907 N 2481.73 0.183486 1.56528 0
M  V30 21908 C 2482.98 -0.457417 1.96856 0
M  V30 21909 C 2483.3 -1.62951 1.07107 0
M  V30 21910 O 2482.57 -1.954 0.139921 0
M  V30 21911 H 2481.15 -0.171979 0.726933 0
M  V30 21912 H 2483.81 0.26751 1.93055 0
M  V30 21913 H 2482.91 -0.809315 3.01424 0
M  V30 21914 N 2483.21 -1.57342 -0.0901833 0
M  V30 21915 C 2484.43 -1.90927 -0.810049 0
M  V30 21916 C 2484.86 -0.778217 -1.71247 0
M  V30 21917 O 2484.22 0.269959 -1.79279 0
M  V30 21918 C 2484.26 -3.23396 -1.59523 0
M  V30 21919 O 2483.37 -3.11332 -2.70456 0
M  V30 21920 H 2482.71 -0.625711 -0.22222 0
M  V30 21921 H 2485.24 -2.045 -0.0639357 0
M  V30 21922 H 2485.25 -3.56823 -1.97841 0
M  V30 21923 H 2483.92 -4.053 -0.932983 0
M  V30 21924 H 2482.5 -2.89428 -2.3513 0
M  V30 21925 N 2484.69 0.36113 -1.53407 0
M  V30 21926 C 2485.91 1.12826 -1.74026 0
M  V30 21927 C 2486.34 1.82131 -0.470101 0
M  V30 21928 O 2485.69 1.71901 0.57616 0
M  V30 21929 C 2485.74 2.13085 -2.90907 0
M  V30 21930 O 2484.85 3.20256 -2.59826 0
M  V30 21931 H 2484.19 0.327157 -0.57781 0
M  V30 21932 H 2486.72 0.416895 -2.00308 0
M  V30 21933 H 2486.73 2.5661 -3.17199 0
M  V30 21934 H 2485.4 1.62035 -3.83037 0
M  V30 21935 H 2483.98 2.81672 -2.44367 0
M  V30 21936 N 2486.16 1.44842 0.621179 0
M  V30 21937 C 2487.39 1.51874 1.41242 0
M  V30 21938 C 2487.81 0.147797 1.87518 0
M  V30 21939 O 2487.17 -0.864972 1.59336 0
M  V30 21940 C 2487.22 2.49639 2.60217 0
M  V30 21941 O 2486.32 2.0048 3.60391 0
M  V30 21942 H 2485.67 0.51247 0.422221 0
M  V30 21943 H 2488.2 1.9007 0.757272 0
M  V30 21944 H 2488.21 2.68001 3.07635 0
M  V30 21945 H 2486.88 3.49214 2.25881 0
M  V30 21946 H 2485.46 1.91931 3.19714 0
M  V30 21947 N 2487.64 -0.862479 1.31905 0
M  V30 21948 C 2489.06 -1.14943 1.10726 0
M  V30 21949 C 2489.26 -2.01158 -0.117386 0
M  V30 21950 O 2488.31 -2.39339 -0.804553 0
M  V30 21951 C 2489.63 -1.83433 2.38271 0
M  V30 21952 C 2491.18 -1.96102 2.43953 0
M  V30 21953 C 2491.65 -2.68006 3.71398 0
M  V30 21954 N 2493.14 -2.75537 3.72335 0
M  V30 21955 C 2493.88 -3.31804 4.67647 0
M  V30 21956 N 2493.37 -3.88943 5.7332 0
M  V30 21957 N 2495.17 -3.29833 4.55156 0
M  V30 21958 H 2487.32 -0.288154 2.10436 0
M  V30 21959 H 2489.58 -0.190275 0.928708 0
M  V30 21960 H 2489.29 -1.27536 3.27761 0
M  V30 21961 H 2489.16 -2.83653 2.48638 0
M  V30 21962 H 2491.55 -2.51161 1.54926 0
M  V30 21963 H 2491.63 -0.949017 2.37544 0
M  V30 21964 H 2491.27 -2.13613 4.60795 0
M  V30 21965 H 2491.2 -3.69629 3.75076 0
M  V30 21966 H 2493.69 -2.34992 2.95951 0
M  V30 21967 H 2494.01 -4.30011 6.42114 0
M  V30 21968 H 2492.35 -3.87297 5.77084 0
M  V30 21969 H 2495.54 -2.84436 3.71771 0
M  V30 21970 H 2495.71 -3.73385 5.29611 0
M  V30 21971 N 2489.12 -1.14988 -1.07775 0
M  V30 21972 C 2490.35 -0.946246 -1.84556 0
M  V30 21973 C 2490.77 0.50033 -1.81324 0
M  V30 21974 O 2490.13 1.35635 -1.20303 0
M  V30 21975 C 2490.18 -1.45973 -3.29733 0
M  V30 21976 O 2489.28 -0.656081 -4.07148 0
M  V30 21977 H 2488.62 -0.33783 -0.571635 0
M  V30 21978 H 2491.15 -1.52867 -1.35988 0
M  V30 21979 H 2491.16 -1.4707 -3.80571 0
M  V30 21980 H 2489.84 -2.51289 -3.31401 0
M  V30 21981 H 2488.41 -0.714386 -3.65993 0
M  V30 21982 N 2490.6 1.26049 -0.946007 0
M  V30 21983 C 2491.82 1.98148 -0.61256 0
M  V30 21984 C 2492.25 1.69928 0.806594 0
M  V30 21985 O 2491.61 0.950135 1.54409 0
M  V30 21986 C 2491.65 3.50021 -0.867043 0
M  V30 21987 O 2490.76 4.12359 0.0584609 0
M  V30 21988 H 2490.1 0.621477 -0.233801 0
M  V30 21989 H 2492.63 1.60392 -1.27025 0
M  V30 21990 H 2492.64 4.00281 -0.789862 0
M  V30 21991 H 2491.31 3.6989 -1.90142 0
M  V30 21992 H 2489.89 3.72834 -0.0701897 0
M  V30 21993 N 2492.08 0.71358 1.4052 0
M  V30 21994 C 2493.3 0.260386 2.05759 0
M  V30 21995 C 2493.73 -1.08851 1.53405 0
M  V30 21996 O 2493.08 -1.68523 0.668565 0
M  V30 21997 C 2493.13 0.248185 3.59745 0
M  V30 21998 O 2492.24 -0.771239 4.05124 0
M  V30 21999 H 2491.58 0.122715 0.652562 0
M  V30 22000 H 2494.11 0.973499 1.79956 0
M  V30 22001 H 2494.12 0.0851846 4.07911 0
M  V30 22002 H 2492.79 1.23256 3.97216 0
M  V30 22003 H 2491.37 -0.576125 3.68423 0
M  V30 22004 N 2493.55 -1.50749 0.459618 0
M  V30 22005 C 2494.97 -1.59199 0.11312 0
M  V30 22006 C 2495.17 -1.46876 -1.37948 0
M  V30 22007 O 2494.23 -1.32136 -2.15166 0
M  V30 22008 C 2495.54 -2.93522 0.653095 0
M  V30 22009 C 2497.09 -3.06889 0.615503 0
M  V30 22010 C 2497.56 -4.43769 1.13283 0
M  V30 22011 N 2499.05 -4.5015 1.09175 0
M  V30 22012 C 2499.79 -5.54431 1.46266 0
M  V30 22013 N 2499.28 -6.66022 1.90751 0
M  V30 22014 N 2501.08 -5.44911 1.37942 0
M  V30 22015 H 2493.23 -1.57003 1.43052 0
M  V30 22016 H 2495.49 -0.741331 0.590874 0
M  V30 22017 H 2495.2 -3.0798 1.69828 0
M  V30 22018 H 2495.07 -3.77092 0.0902795 0
M  V30 22019 H 2497.46 -2.92085 -0.420742 0
M  V30 22020 H 2497.54 -2.25104 1.21499 0
M  V30 22021 H 2497.18 -4.59321 2.16765 0
M  V30 22022 H 2497.11 -5.24128 0.509668 0
M  V30 22023 H 2499.6 -3.70069 0.765345 0
M  V30 22024 H 2499.92 -7.4164 2.17231 0
M  V30 22025 H 2498.26 -6.67172 1.94695 0
M  V30 22026 H 2501.45 -4.56619 1.03038 0
M  V30 22027 H 2501.63 -6.26064 1.67175 0
M  V30 22028 N 2495.03 -0.191784 -1.56429 0
M  V30 22029 C 2496.26 0.452893 -2.01575 0
M  V30 22030 C 2496.67 1.55962 -1.0711 0
M  V30 22031 O 2496.01 1.83576 -0.0675663 0
M  V30 22032 C 2496.08 1.07272 -3.43122 0
M  V30 22033 C 2495.74 0.105134 -4.56879 0
M  V30 22034 C 2496.74 -0.684239 -5.15378 0
M  V30 22035 C 2494.42 -0.00498653 -5.023 0
M  V30 22036 C 2496.42 -1.57073 -6.17743 0
M  V30 22037 C 2494.1 -0.895041 -6.0451 0
M  V30 22038 C 2495.1 -1.67648 -6.62105 0
M  V30 22039 O 2494.79 -2.55163 -7.6233 0
M  V30 22040 H 2494.52 0.118368 -0.665556 0
M  V30 22041 H 2497.07 -0.296773 -2.03245 0
M  V30 22042 H 2495.3 1.87091 -3.38429 0
M  V30 22043 H 2496.99 1.6217 -3.72096 0
M  V30 22044 H 2497.76 -0.609449 -4.81156 0
M  V30 22045 H 2493.64 0.593075 -4.57169 0
M  V30 22046 H 2497.18 -2.18112 -6.62626 0
M  V30 22047 H 2493.08 -0.970959 -6.38156 0
M  V30 22048 H 2493.85 -2.48905 -7.79736 0
M  V30 22049 N 2496.51 1.57387 0.0818378 0
M  V30 22050 C 2497.76 1.86386 0.781335 0
M  V30 22051 C 2498.08 0.782374 1.78617 0
M  V30 22052 O 2497.35 -0.190027 1.94976 0
M  V30 22053 H 2495.93 0.687756 0.29155 0
M  V30 22054 H 2498.59 1.94807 0.0603137 0
M  V30 22055 H 2497.69 2.83564 1.30375 0
M  V30 22056 N 2497.99 -0.35299 1.53596 0
M  V30 22057 C 2498.92 -1.45345 1.77222 0
M  V30 22058 C 2499.93 -1.49118 0.653266 0
M  V30 22059 O 2501.12 -1.52371 0.929802 0
M  V30 22060 C 2498.22 -2.84051 1.84846 0
M  V30 22061 C 2497.4 -3.03828 3.14655 0
M  V30 22062 C 2496.45 -4.22721 3.13358 0
M  V30 22063 O 2495.48 -4.1729 3.87114 0
M  V30 22064 N 2496.68 -5.30779 2.35062 0
M  V30 22065 H 2499.45 -1.25452 2.7218 0
M  V30 22066 H 2497.01 -0.542806 1.52529 0
M  V30 22067 H 2499 -3.61747 1.81441 0
M  V30 22068 H 2497.57 -2.97131 0.971166 0
M  V30 22069 H 2496.79 -2.13683 3.3126 0
M  V30 22070 H 2498.08 -3.13917 4.00416 0
M  V30 22071 H 2497.48 -5.38058 1.74672 0
M  V30 22072 H 2496.03 -6.07004 2.37463 0
M  V30 22073 N 2499.47 -1.45169 -0.613489 0
M  V30 22074 C 2500.42 -1.49818 -1.71868 0
M  V30 22075 C 2501.4 -0.362049 -1.56774 0
M  V30 22076 O 2502.59 -0.608522 -1.66211 0
M  V30 22077 C 2499.72 -1.46212 -3.10607 0
M  V30 22078 C 2498.81 -2.65005 -3.31109 0
M  V30 22079 N 2499.2 -3.90148 -3.21897 0
M  V30 22080 C 2497.5 -2.60576 -3.61961 0
M  V30 22081 C 2498.2 -4.69399 -3.43569 0
M  V30 22082 N 2497.17 -4.00757 -3.6728 0
M  V30 22083 H 2500.98 -2.44403 -1.63231 0
M  V30 22084 H 2498.49 -1.40379 -0.816552 0
M  V30 22085 H 2500.49 -1.47627 -3.89887 0
M  V30 22086 H 2499.15 -0.526786 -3.20398 0
M  V30 22087 H 2500.16 -4.21857 -3.00428 0
M  V30 22088 H 2496.84 -1.75923 -3.78626 0
M  V30 22089 H 2498.23 -5.78412 -3.4189 0
M  V30 22090 N 2500.95 0.855472 -1.32361 0
M  V30 22091 C 2502.19 1.60642 -1.22632 0
M  V30 22092 C 2502.51 1.93843 0.212102 0
M  V30 22093 O 2501.78 1.59554 1.13663 0
M  V30 22094 H 2500.36 0.595571 -0.450893 0
M  V30 22095 H 2503.03 1.02334 -1.65873 0
M  V30 22096 H 2502.12 2.54371 -1.80836 0
M  V30 22097 N 2502.42 1.15558 1.07164 0
M  V30 22098 C 2503.65 0.95602 1.84052 0
M  V30 22099 C 2504.07 -0.490707 1.81587 0
M  V30 22100 O 2503.43 -1.34995 1.21021 0
M  V30 22101 C 2503.48 1.4772 3.28955 0
M  V30 22102 O 2502.58 0.677664 4.06794 0
M  V30 22103 H 2501.92 0.340857 0.569836 0
M  V30 22104 H 2504.45 1.53586 1.35175 0
M  V30 22105 H 2504.46 1.49086 3.79786 0
M  V30 22106 H 2503.14 2.53043 3.30064 0
M  V30 22107 H 2501.72 0.733786 3.65609 0
M  V30 22108 N 2503.9 -1.25546 0.952678 0
M  V30 22109 C 2505.15 -1.92825 0.605209 0
M  V30 22110 C 2505.47 -1.75 -0.860231 0
M  V30 22111 O 2504.74 -1.11247 -1.61248 0
M  V30 22112 H 2503.32 -0.713608 0.220844 0
M  V30 22113 H 2505.98 -1.52751 1.2105 0
M  V30 22114 H 2505.08 -3.00782 0.832851 0
M  V30 22115 N 2505.38 -0.721022 -1.40139 0
M  V30 22116 C 2506.6 -0.271295 -2.05618 0
M  V30 22117 C 2507.03 1.08036 -1.5398 0
M  V30 22118 O 2506.39 1.68166 -0.677493 0
M  V30 22119 C 2506.44 -0.26726 -3.59608 0
M  V30 22120 O 2505.54 0.749743 -4.05528 0
M  V30 22121 H 2504.88 -0.126174 -0.651902 0
M  V30 22122 H 2507.41 -0.983029 -1.79437 0
M  V30 22123 H 2507.42 -0.106816 -4.0786 0
M  V30 22124 H 2506.1 -1.25361 -3.96557 0
M  V30 22125 H 2504.67 0.556579 -3.68723 0
M  V30 22126 N 2506.86 1.50503 -0.467606 0
M  V30 22127 C 2508.27 1.59136 -0.121561 0
M  V30 22128 C 2508.47 1.47605 1.37167 0
M  V30 22129 O 2507.53 1.33275 2.14462 0
M  V30 22130 C 2508.84 2.93172 -0.668652 0
M  V30 22131 C 2510.39 3.06558 -0.63177 0
M  V30 22132 C 2510.87 4.43162 -1.15635 0
M  V30 22133 N 2512.36 4.49565 -1.11561 0
M  V30 22134 C 2513.09 5.53648 -1.49204 0
M  V30 22135 N 2512.59 6.65002 -1.9428 0
M  V30 22136 N 2514.38 5.44172 -1.40829 0
M  V30 22137 H 2506.53 1.56242 -1.43882 0
M  V30 22138 H 2508.79 0.738187 -0.594797 0
M  V30 22139 H 2508.5 3.07075 -1.71459 0
M  V30 22140 H 2508.37 3.77039 -0.110276 0
M  V30 22141 H 2510.76 2.92304 0.405246 0
M  V30 22142 H 2510.84 2.24456 -1.22691 0
M  V30 22143 H 2510.49 4.58165 -2.19198 0
M  V30 22144 H 2510.42 5.2385 -0.537457 0
M  V30 22145 H 2512.91 3.69658 -0.78496 0
M  V30 22146 H 2513.22 7.40478 -2.21161 0
M  V30 22147 H 2511.57 6.6613 -1.9823 0
M  V30 22148 H 2514.76 4.56066 -1.05458 0
M  V30 22149 H 2514.93 6.25169 -1.70492 0
M  V30 22150 N 2508.34 0.200077 1.56325 0
M  V30 22151 C 2509.27 -0.750733 2.16556 0
M  V30 22152 C 2510.28 -1.17318 1.12873 0
M  V30 22153 O 2511.47 -1.10805 1.39945 0
M  V30 22154 C 2508.57 -2.02581 2.71688 0
M  V30 22155 C 2507.74 -1.76237 4.00324 0
M  V30 22156 C 2506.8 -2.8824 4.40232 0
M  V30 22157 O 2505.83 -2.57633 5.07557 0
M  V30 22158 N 2507.03 -4.1671 4.04145 0
M  V30 22159 H 2509.79 -0.235632 2.98772 0
M  V30 22160 H 2507.36 0.0182878 1.6189 0
M  V30 22161 H 2509.35 -2.76659 2.95367 0
M  V30 22162 H 2507.92 -2.45199 1.93898 0
M  V30 22163 H 2507.14 -0.859122 3.84724 0
M  V30 22164 H 2508.43 -1.56039 4.84282 0
M  V30 22165 H 2507.82 -4.44427 3.50001 0
M  V30 22166 H 2506.38 -4.87399 4.32764 0
M  V30 22167 N 2509.81 -1.57429 -0.0734901 0
M  V30 22168 C 2511.04 -1.91775 -0.789753 0
M  V30 22169 C 2511.46 -0.796336 -1.70412 0
M  V30 22170 O 2510.82 0.250929 -1.79555 0
M  V30 22171 C 2510.87 -3.25069 -1.56084 0
M  V30 22172 O 2509.97 -3.14183 -2.67138 0
M  V30 22173 H 2509.31 -0.628033 -0.215571 0
M  V30 22174 H 2511.84 -2.04556 -0.0422421 0
M  V30 22175 H 2511.85 -3.58902 -1.94045 0
M  V30 22176 H 2510.53 -4.06267 -0.889943 0
M  V30 22177 H 2509.11 -2.91905 -2.32047 0
M  V30 22178 N 2511.29 0.344839 -1.53781 0
M  V30 22179 C 2512.52 1.10974 -1.75213 0
M  V30 22180 C 2512.94 1.81622 -0.489392 0
M  V30 22181 O 2512.3 1.72503 0.557895 0
M  V30 22182 C 2512.35 2.09988 -2.93151 0
M  V30 22183 O 2511.45 3.17482 -2.63209 0
M  V30 22184 H 2510.79 0.321011 -0.581247 0
M  V30 22185 H 2513.32 0.395626 -2.00739 0
M  V30 22186 H 2513.33 2.53232 -3.19903 0
M  V30 22187 H 2512.01 1.57963 -3.84734 0
M  V30 22188 H 2510.58 2.79065 -2.4734 0
M  V30 22189 N 2512.77 1.45492 0.605781 0
M  V30 22190 C 2514.02 1.49308 1.36204 0
M  V30 22191 C 2514.34 0.136897 1.94519 0
M  V30 22192 O 2513.61 -0.833952 1.77263 0
M  V30 22193 H 2512.19 0.549852 0.50564 0
M  V30 22194 H 2514.85 1.8146 0.711208 0
M  V30 22195 H 2513.95 2.2329 2.18055 0
M  V30 22196 N 2514.25 -0.848441 1.32813 0
M  V30 22197 C 2515.2 -1.94576 1.18846 0
M  V30 22198 C 2516.18 -1.60626 0.0937799 0
M  V30 22199 O 2517.37 -1.74066 0.320917 0
M  V30 22200 C 2514.5 -3.30742 0.920048 0
M  V30 22201 C 2513.59 -3.70891 2.05672 0
M  V30 22202 N 2513.98 -3.82814 3.30586 0
M  V30 22203 C 2512.28 -4.00562 1.96127 0
M  V30 22204 C 2512.98 -4.1748 4.05074 0
M  V30 22205 N 2511.96 -4.29334 3.33427 0
M  V30 22206 H 2515.76 -2.01936 2.13539 0
M  V30 22207 H 2513.27 -1.04058 1.24682 0
M  V30 22208 H 2515.27 -4.09134 0.800931 0
M  V30 22209 H 2513.93 -3.24695 -0.0184505 0
M  V30 22210 H 2514.94 -3.66972 3.65448 0
M  V30 22211 H 2511.62 -4.02782 1.09878 0
M  V30 22212 H 2513.01 -4.34122 5.12823 0
M  V30 22213 N 2515.73 -1.16125 -1.06549 0
M  V30 22214 C 2516.97 -0.939299 -1.78946 0
M  V30 22215 C 2517.3 0.534443 -1.87533 0
M  V30 22216 O 2516.57 1.3883 -1.38213 0
M  V30 22217 H 2515.15 -0.344534 -0.662801 0
M  V30 22218 H 2517.81 -1.46344 -1.28722 0
M  V30 22219 H 2516.9 -1.35577 -2.81114 0
M  V30 22220 N 2517.2 1.25039 -0.959323 0
M  V30 22221 C 2518.62 1.45109 -0.664499 0
M  V30 22222 C 2518.82 1.8594 0.776448 0
M  V30 22223 O 2517.88 1.9923 1.55125 0
M  V30 22224 C 2519.19 2.51947 -1.64144 0
M  V30 22225 C 2520.74 2.65783 -1.65314 0
M  V30 22226 C 2521.21 3.7581 -2.61784 0
M  V30 22227 N 2522.7 3.83227 -2.60176 0
M  V30 22228 C 2523.44 4.67864 -3.31498 0
M  V30 22229 N 2522.93 5.56753 -4.12308 0
M  V30 22230 N 2524.73 4.61871 -3.20362 0
M  V30 22231 H 2516.88 0.968299 -1.89044 0
M  V30 22232 H 2519.14 0.486885 -0.813417 0
M  V30 22233 H 2518.85 2.28814 -2.6709 0
M  V30 22234 H 2518.72 3.49951 -1.40762 0
M  V30 22235 H 2521.11 2.88279 -0.630829 0
M  V30 22236 H 2521.19 1.68163 -1.92756 0
M  V30 22237 H 2520.83 3.54065 -3.64144 0
M  V30 22238 H 2520.76 4.72925 -2.31624 0
M  V30 22239 H 2523.25 3.19689 -2.01513 0
M  V30 22240 H 2523.57 6.18273 -4.63636 0
M  V30 22241 H 2521.91 5.56446 -4.16404 0
M  V30 22242 H 2525.1 3.91438 -2.56698 0
M  V30 22243 H 2525.28 5.27608 -3.7621 0
M  V30 22244 N 2518.68 0.728444 1.39755 0
M  V30 22245 C 2519.61 0.0446605 2.29156 0
M  V30 22246 C 2520.63 -0.710342 1.46485 0
M  V30 22247 O 2521.82 -0.55559 1.69633 0
M  V30 22248 C 2518.92 -0.961014 3.24989 0
M  V30 22249 C 2518.09 -0.26889 4.36573 0
M  V30 22250 C 2517.15 -1.18175 5.12758 0
M  V30 22251 O 2516.17 -0.661695 5.65341 0
M  V30 22252 N 2517.38 -2.51197 5.23336 0
M  V30 22253 H 2520.14 0.812345 2.88481 0
M  V30 22254 H 2517.7 0.577124 1.51264 0
M  V30 22255 H 2519.69 -1.57416 3.7283 0
M  V30 22256 H 2518.26 -1.62996 2.66742 0
M  V30 22257 H 2517.48 0.524643 3.90693 0
M  V30 22258 H 2518.77 0.211023 5.08362 0
M  V30 22259 H 2518.17 -2.95932 4.82121 0
M  V30 22260 H 2516.73 -3.07624 5.7464 0
M  V30 22261 N 2520.16 -1.50253 0.475581 0
M  V30 22262 C 2521.41 -2.01951 -0.0777025 0
M  V30 22263 C 2521.73 -1.35934 -1.39811 0
M  V30 22264 O 2521 -0.506156 -1.89248 0
M  V30 22265 H 2519.58 -0.746327 -0.0317059 0
M  V30 22266 H 2522.24 -1.84538 0.627028 0
M  V30 22267 H 2521.34 -3.11281 -0.225941 0
M  V30 22268 N 2521.64 -0.208365 -1.56217 0
M  V30 22269 C 2522.86 0.435187 -2.02783 0
M  V30 22270 C 2523.29 1.53483 -1.0874 0
M  V30 22271 O 2522.65 1.81152 -0.0732173 0
M  V30 22272 C 2522.69 0.956274 -3.47689 0
M  V30 22273 O 2521.8 2.06843 -3.56777 0
M  V30 22274 H 2521.14 0.100146 -0.656404 0
M  V30 22275 H 2523.67 -0.323135 -2.02032 0
M  V30 22276 H 2523.68 1.26948 -3.87747 0
M  V30 22277 H 2522.35 0.151357 -4.15624 0
M  V30 22278 H 2520.93 1.76286 -3.286 0
M  V30 22279 N 2523.12 1.57465 0.0651402 0
M  V30 22280 C 2524.36 1.87204 0.761522 0
M  V30 22281 C 2524.69 0.801274 1.77777 0
M  V30 22282 O 2523.96 -0.169336 1.95167 0
M  V30 22283 H 2522.54 0.690809 0.284239 0
M  V30 22284 H 2525.2 1.9486 0.0396485 0
M  V30 22285 H 2524.29 2.84931 1.2736 0
M  V30 22286 N 2524.59 -0.336679 1.53962 0
M  V30 22287 C 2525.82 -1.10043 1.75799 0
M  V30 22288 C 2526.24 -1.8136 0.499017 0
M  V30 22289 O 2525.6 -1.72796 -0.548739 0
M  V30 22290 C 2525.65 -2.0843 2.9426 0
M  V30 22291 O 2524.75 -3.16082 2.64889 0
M  V30 22292 H 2524.1 -0.317924 0.582941 0
M  V30 22293 H 2526.63 -0.384975 2.00946 0
M  V30 22294 H 2526.64 -2.51531 3.21241 0
M  V30 22295 H 2525.31 -1.55921 3.85567 0
M  V30 22296 H 2523.89 -2.77749 2.48817 0
M  V30 22297 N 2526.07 -1.45812 -0.598057 0
M  V30 22298 C 2527.32 -1.50028 -1.3541 0
M  V30 22299 C 2527.64 -0.147211 -1.94444 0
M  V30 22300 O 2526.91 0.82454 -1.77702 0
M  V30 22301 H 2525.49 -0.552526 -0.502717 0
M  V30 22302 H 2528.15 -1.81835 -0.701574 0
M  V30 22303 H 2527.25 -2.24444 -2.16867 0
M  V30 22304 N 2527.55 0.841385 -1.33261 0
M  V30 22305 C 2528.48 1.95802 -1.19139 0
M  V30 22306 C 2529.5 1.62335 -0.122994 0
M  V30 22307 O 2530.68 1.74555 -0.373185 0
M  V30 22308 C 2527.78 3.29217 -0.804326 0
M  V30 22309 C 2526.96 3.90836 -1.96383 0
M  V30 22310 C 2526.02 5.02601 -1.55815 0
M  V30 22311 O 2525.04 5.21884 -2.27213 0
M  V30 22312 N 2526.24 5.78661 -0.461711 0
M  V30 22313 H 2529.01 2.08454 -2.1533 0
M  V30 22314 H 2526.57 1.01698 -1.25973 0
M  V30 22315 H 2528.56 4.01409 -0.515081 0
M  V30 22316 H 2527.13 3.12529 0.0668259 0
M  V30 22317 H 2526.35 3.11265 -2.41884 0
M  V30 22318 H 2527.64 4.28737 -2.73974 0
M  V30 22319 H 2527.04 5.65545 0.132243 0
M  V30 22320 H 2525.6 6.51387 -0.232128 0
M  V30 22321 N 2529.03 1.16688 1.05932 0
M  V30 22322 C 2530.25 0.975487 1.83027 0
M  V30 22323 C 2530.68 -0.47142 1.82097 0
M  V30 22324 O 2530.04 -1.33704 1.22446 0
M  V30 22325 C 2530.09 1.51201 3.27369 0
M  V30 22326 O 2529.19 0.720772 4.06053 0
M  V30 22327 H 2528.53 0.346882 0.566188 0
M  V30 22328 H 2531.06 1.55011 1.33539 0
M  V30 22329 H 2531.07 1.53106 3.78183 0
M  V30 22330 H 2529.75 2.56529 3.27362 0
M  V30 22331 H 2528.32 0.772522 3.6481 0
M  V30 22332 N 2530.51 -1.24529 0.96594 0
M  V30 22333 C 2531.92 -1.74419 0.66596 0
M  V30 22334 C 2532.27 -1.78317 -0.818376 0
M  V30 22335 O 2531.39 -1.41144 -1.64035 0
M  V30 22336 C 2531.99 -3.16754 1.20217 0
M  V30 22337 C 2530.55 -3.64159 0.952123 0
M  V30 22338 C 2529.7 -2.42856 1.33852 0
M  V30 22339 H 2532.65 -1.10256 1.14146 0
M  V30 22340 H 2532.67 -3.76243 0.56761 0
M  V30 22341 H 2532.18 -3.13885 2.2825 0
M  V30 22342 H 2530.28 -3.72429 -0.112756 0
M  V30 22343 H 2530.39 -4.51716 1.59653 0
M  V30 22344 H 2528.76 -2.43193 0.756907 0
M  V30 22345 H 2529.54 -2.42668 2.42831 0
M  V30 22346 N 2531.99 -0.735845 -1.39367 0
M  V30 22347 C 2533.21 -0.293088 -2.05319 0
M  V30 22348 C 2533.64 1.06397 -1.55117 0
M  V30 22349 O 2532.99 1.67438 -0.695291 0
M  V30 22350 C 2533.04 -0.305386 -3.59305 0
M  V30 22351 O 2532.15 0.706689 -4.063 0
M  V30 22352 H 2531.49 -0.133081 -0.650527 0
M  V30 22353 H 2534.02 -1.00201 -1.78384 0
M  V30 22354 H 2534.03 -0.150069 -4.07724 0
M  V30 22355 H 2532.7 -1.2956 -3.95205 0
M  V30 22356 H 2531.28 0.517439 -3.69293 0
M  V30 22357 N 2533.46 1.49999 -0.483543 0
M  V30 22358 C 2534.88 1.58999 -0.138432 0
M  V30 22359 C 2535.08 1.49052 1.35594 0
M  V30 22360 O 2534.14 1.35543 2.13036 0
M  V30 22361 C 2535.45 2.92446 -0.699709 0
M  V30 22362 C 2537 3.0587 -0.664249 0
M  V30 22363 C 2537.47 4.41911 -1.20328 0
M  V30 22364 N 2538.96 4.48356 -1.16323 0
M  V30 22365 C 2539.7 5.52034 -1.55068 0
M  V30 22366 N 2539.19 6.62903 -2.01323 0
M  V30 22367 N 2540.99 5.42648 -1.46593 0
M  V30 22368 H 2533.14 1.54707 -1.45532 0
M  V30 22369 H 2535.4 0.731837 -0.602593 0
M  V30 22370 H 2535.11 3.05239 -1.74706 0
M  V30 22371 H 2534.98 3.76901 -0.15026 0
M  V30 22372 H 2537.37 2.92718 0.374221 0
M  V30 22373 H 2537.45 2.23142 -1.25065 0
M  V30 22374 H 2537.09 4.55814 -2.24045 0
M  V30 22375 H 2537.02 5.23251 -0.592988 0
M  V30 22376 H 2539.51 3.68804 -0.824123 0
M  V30 22377 H 2539.83 7.38091 -2.29003 0
M  V30 22378 H 2538.17 6.6399 -2.05284 0
M  V30 22379 H 2541.36 4.54922 -1.10289 0
M  V30 22380 H 2541.54 6.23326 -1.77114 0
M  V30 22381 N 2534.94 0.216646 1.56104 0
M  V30 22382 C 2536.19 -0.415559 1.97781 0
M  V30 22383 C 2536.51 -1.60643 1.10539 0
M  V30 22384 O 2535.78 -1.95059 0.181337 0
M  V30 22385 H 2534.36 -0.156521 0.730418 0
M  V30 22386 H 2537.02 0.308399 1.92445 0
M  V30 22387 H 2536.12 -0.745196 3.03073 0
M  V30 22388 N 2536.42 -1.57498 -0.0567885 0
M  V30 22389 C 2537.84 -1.54193 -0.411906 0
M  V30 22390 C 2538.04 -0.938973 -1.78285 0
M  V30 22391 O 2537.09 -0.547962 -2.46483 0
M  V30 22392 C 2538.4 -2.98781 -0.339191 0
M  V30 22393 C 2539.95 -3.10192 -0.418294 0
M  V30 22394 C 2540.43 -4.5646 -0.375327 0
M  V30 22395 N 2541.92 -4.61153 -0.434957 0
M  V30 22396 C 2542.65 -5.71829 -0.424164 0
M  V30 22397 N 2542.15 -6.91826 -0.367297 0
M  V30 22398 N 2543.94 -5.60116 -0.471839 0
M  V30 22399 H 2536.09 -1.95053 0.840718 0
M  V30 22400 H 2538.36 -0.893428 0.317003 0
M  V30 22401 H 2538.06 -3.46513 0.601803 0
M  V30 22402 H 2537.94 -3.59445 -1.14364 0
M  V30 22403 H 2540.32 -2.62425 -1.34971 0
M  V30 22404 H 2540.4 -2.52411 0.415006 0
M  V30 22405 H 2540.05 -5.04888 0.552308 0
M  V30 22406 H 2539.98 -5.12121 -1.22636 0
M  V30 22407 H 2542.47 -3.74806 -0.482546 0
M  V30 22408 H 2542.78 -7.71945 -0.3634 0
M  V30 22409 H 2541.13 -6.94198 -0.333757 0
M  V30 22410 H 2544.32 -4.65269 -0.514064 0
M  V30 22411 H 2544.49 -6.46366 -0.459959 0
M  V30 22412 N 2537.9 0.328509 -1.54138 0
M  V30 22413 C 2538.85 1.40507 -1.7956 0
M  V30 22414 C 2539.83 1.47124 -0.651399 0
M  V30 22415 O 2541.02 1.51741 -0.911252 0
M  V30 22416 C 2538.15 2.77434 -2.02201 0
M  V30 22417 C 2537.24 2.75149 -3.22729 0
M  V30 22418 N 2537.63 2.42487 -4.43885 0
M  V30 22419 C 2535.93 3.06283 -3.24202 0
M  V30 22420 C 2536.63 2.48813 -5.25801 0
M  V30 22421 N 2535.6 2.85052 -4.62867 0
M  V30 22422 H 2539.41 1.14175 -2.70816 0
M  V30 22423 H 2536.92 0.536964 -1.53266 0
M  V30 22424 H 2538.92 3.55022 -2.18552 0
M  V30 22425 H 2537.58 3.047 -1.12196 0
M  V30 22426 H 2538.59 2.15419 -4.70972 0
M  V30 22427 H 2535.27 3.38623 -2.44214 0
M  V30 22428 H 2536.66 2.26592 -6.32539 0
M  V30 22429 N 2539.38 1.46127 0.590316 0
M  V30 22430 C 2540.62 1.50744 1.34613 0
M  V30 22431 C 2540.94 0.15752 1.94363 0
M  V30 22432 O 2540.21 -0.815104 1.78137 0
M  V30 22433 H 2538.79 0.555184 0.49978 0
M  V30 22434 H 2541.46 1.82204 0.691921 0
M  V30 22435 H 2540.55 2.25591 2.15674 0
M  V30 22436 N 2540.85 -0.834306 1.33705 0
M  V30 22437 C 2542.08 -1.62703 1.28618 0
M  V30 22438 C 2542.5 -1.87584 -0.139209 0
M  V30 22439 O 2541.86 -1.44322 -1.09731 0
M  V30 22440 C 2541.91 -2.95167 2.07144 0
M  V30 22441 O 2541.01 -3.86696 1.43317 0
M  V30 22442 H 2540.35 -0.495272 0.442269 0
M  V30 22443 H 2542.88 -1.03762 1.76336 0
M  V30 22444 H 2542.89 -3.44827 2.18079 0
M  V30 22445 H 2541.57 -2.7638 3.10784 0
M  V30 22446 H 2540.15 -3.45192 1.41056 0
M  V30 22447 N 2542.33 -1.17248 -1.05312 0
M  V30 22448 C 2543.58 -0.958225 -1.77939 0
M  V30 22449 C 2543.9 0.514523 -1.8809 0
M  V30 22450 O 2543.17 1.37357 -1.39678 0
M  V30 22451 H 2541.75 -0.351545 -0.659109 0
M  V30 22452 H 2544.41 -1.47701 -1.27163 0
M  V30 22453 H 2543.51 -1.38551 -2.79661 0
M  V30 22454 N 2543.81 1.24015 -0.972531 0
M  V30 22455 C 2544.74 2.27508 -0.525588 0
M  V30 22456 C 2545.72 1.64385 0.437233 0
M  V30 22457 O 2546.91 1.91336 0.332309 0
M  V30 22458 C 2544.04 3.46831 0.180387 0
M  V30 22459 C 2542.99 4.22255 -0.698933 0
M  V30 22460 C 2542.32 5.3452 0.138809 0
M  V30 22461 C 2543.62 4.83073 -1.9859 0
M  V30 22462 H 2545.31 2.65145 -1.39063 0
M  V30 22463 H 2542.86 1.27458 -0.670113 0
M  V30 22464 H 2544.81 4.18371 0.504313 0
M  V30 22465 H 2543.53 3.08233 1.07981 0
M  V30 22466 H 2542.19 3.52521 -1.0062 0
M  V30 22467 H 2541.84 4.92162 1.03853 0
M  V30 22468 H 2541.54 5.85902 -0.446362 0
M  V30 22469 H 2543.06 6.08885 0.457297 0
M  V30 22470 H 2544.48 5.46662 -1.72725 0
M  V30 22471 H 2542.88 5.44708 -2.5182 0
M  V30 22472 H 2543.95 4.04257 -2.67776 0
M  V30 22473 N 2545.29 0.743226 1.38974 0
M  V30 22474 C 2546.54 0.294205 1.99947 0
M  V30 22475 C 2546.86 -1.12492 1.59281 0
M  V30 22476 O 2546.13 -1.76746 0.844839 0
M  V30 22477 H 2544.71 0.105787 0.739472 0
M  V30 22478 H 2547.37 0.955016 1.69898 0
M  V30 22479 H 2546.47 0.349111 3.10141 0
M  V30 22480 N 2546.77 -1.4974 0.491491 0
M  V30 22481 C 2547.72 -2.25868 -0.311046 0
M  V30 22482 C 2548.7 -1.3031 -0.943835 0
M  V30 22483 O 2549.89 -1.5509 -0.853008 0
M  V30 22484 C 2547.02 -3.14318 -1.38054 0
M  V30 22485 C 2546.11 -4.17335 -0.754468 0
M  V30 22486 N 2546.5 -5.05614 0.137305 0
M  V30 22487 C 2544.8 -4.3427 -1.01613 0
M  V30 22488 C 2545.5 -5.79592 0.494716 0
M  V30 22489 N 2544.47 -5.43432 -0.135073 0
M  V30 22490 H 2548.28 -2.9149 0.375601 0
M  V30 22491 H 2545.79 -1.59473 0.306945 0
M  V30 22492 H 2547.79 -3.67481 -1.96884 0
M  V30 22493 H 2546.45 -2.50248 -2.06897 0
M  V30 22494 H 2547.46 -5.15407 0.5075 0
M  V30 22495 H 2544.13 -3.8141 -1.69802 0
M  V30 22496 H 2545.52 -6.60662 1.22371 0
M  V30 22497 N 2548.24 -0.224922 -1.55987 0
M  V30 22498 C 2549.47 0.413654 -2.03233 0
M  V30 22499 C 2549.89 1.52322 -1.10362 0
M  V30 22500 O 2549.25 1.81064 -0.0924268 0
M  V30 22501 C 2549.3 0.919343 -3.48684 0
M  V30 22502 O 2548.4 2.03047 -3.58951 0
M  V30 22503 H 2547.75 0.0931788 -0.65743 0
M  V30 22504 H 2550.28 -0.344545 -2.01678 0
M  V30 22505 H 2550.29 1.22829 -3.89072 0
M  V30 22506 H 2548.96 0.107266 -4.15762 0
M  V30 22507 H 2547.54 1.72791 -3.30451 0
M  V30 22508 N 2549.72 1.57526 0.0484352 0
M  V30 22509 C 2550.95 1.93007 0.759143 0
M  V30 22510 C 2551.37 0.823347 1.69123 0
M  V30 22511 O 2550.73 -0.222332 1.79932 0
M  V30 22512 C 2550.78 3.27511 1.50893 0
M  V30 22513 O 2549.88 3.18393 2.62106 0
M  V30 22514 H 2549.22 0.631383 0.205553 0
M  V30 22515 H 2551.75 2.04598 0.00969363 0
M  V30 22516 H 2551.76 3.61943 1.88311 0
M  V30 22517 H 2550.44 4.07631 0.825197 0
M  V30 22518 H 2549.02 2.9556 2.27374 0
M  V30 22519 N 2551.2 -0.32033 1.5431 0
M  V30 22520 C 2552.43 -1.08172 1.76956 0
M  V30 22521 C 2552.85 -1.8082 0.518225 0
M  V30 22522 O 2552.21 -1.73369 -0.530381 0
M  V30 22523 C 2552.26 -2.05298 2.96454 0
M  V30 22524 O 2551.36 -3.13255 2.68226 0
M  V30 22525 H 2550.7 -0.311723 0.586281 0
M  V30 22526 H 2553.23 -0.36364 2.01343 0
M  V30 22527 H 2553.24 -2.4811 3.23891 0
M  V30 22528 H 2551.92 -1.51822 3.87199 0
M  V30 22529 H 2550.49 -2.75094 2.51749 0
M  V30 22530 N 2552.68 -1.46438 -0.582558 0
M  V30 22531 C 2553.63 -1.53429 -1.68652 0
M  V30 22532 C 2554.61 -0.395221 -1.55971 0
M  V30 22533 O 2555.8 -0.643641 -1.64883 0
M  V30 22534 C 2552.93 -1.52768 -3.07436 0
M  V30 22535 C 2552.02 -2.71969 -3.25413 0
M  V30 22536 N 2552.41 -3.96888 -3.13549 0
M  V30 22537 C 2550.71 -2.68195 -3.56353 0
M  V30 22538 C 2551.41 -4.76581 -3.33535 0
M  V30 22539 N 2550.39 -4.08457 -3.58697 0
M  V30 22540 H 2554.19 -2.47811 -1.5801 0
M  V30 22541 H 2551.7 -1.42079 -0.786592 0
M  V30 22542 H 2553.7 -1.55864 -3.86668 0
M  V30 22543 H 2552.36 -0.594629 -3.19209 0
M  V30 22544 H 2553.37 -4.28135 -2.91412 0
M  V30 22545 H 2550.05 -1.83915 -3.74809 0
M  V30 22546 H 2551.44 -5.85534 -3.29545 0
M  V30 22547 N 2554.16 0.827204 -1.34146 0
M  V30 22548 C 2555.4 1.58004 -1.26012 0
M  V30 22549 C 2555.73 1.94249 0.170937 0
M  V30 22550 O 2555 1.61929 1.10253 0
M  V30 22551 H 2553.58 0.585873 -0.463424 0
M  V30 22552 H 2556.24 0.987922 -1.68006 0
M  V30 22553 H 2555.33 2.50478 -1.86191 0
M  V30 22554 N 2555.63 1.17805 1.04688 0
M  V30 22555 C 2556.57 0.857135 2.1257 0
M  V30 22556 C 2557.58 -0.142619 1.62174 0
M  V30 22557 O 2558.77 0.0843701 1.783 0
M  V30 22558 C 2555.87 0.258275 3.37914 0
M  V30 22559 C 2555.04 1.30215 4.17568 0
M  V30 22560 C 2554.1 0.72012 5.21249 0
M  V30 22561 O 2553.13 1.39324 5.51885 0
M  V30 22562 N 2554.33 -0.485405 5.78467 0
M  V30 22563 H 2557.09 1.78567 2.40695 0
M  V30 22564 H 2554.65 1.07759 1.20829 0
M  V30 22565 H 2556.65 -0.144513 4.04442 0
M  V30 22566 H 2555.22 -0.574145 3.07282 0
M  V30 22567 H 2554.44 1.88049 3.46455 0
M  V30 22568 H 2555.72 2.00609 4.67582 0
M  V30 22569 H 2555.12 -1.05013 5.55868 0
M  V30 22570 H 2553.68 -0.830193 6.46491 0
M  V30 22571 N 2557.11 -1.23497 0.979094 0
M  V30 22572 C 2558.06 -2.22685 0.489417 0
M  V30 22573 C 2559.05 -1.54913 -0.434843 0
M  V30 22574 O 2560.24 -1.75021 -0.26391 0
M  V30 22575 C 2557.37 -3.42669 -0.208118 0
M  V30 22576 C 2556.45 -4.17671 0.735637 0
M  V30 22577 N 2556.84 -4.69655 1.87771 0
M  V30 22578 C 2555.14 -4.42612 0.548703 0
M  V30 22579 C 2555.84 -5.26705 2.46895 0
M  V30 22580 N 2554.82 -5.1456 1.75296 0
M  V30 22581 H 2558.62 -2.60506 1.36066 0
M  V30 22582 H 2556.14 -1.39012 0.839605 0
M  V30 22583 H 2558.13 -4.12899 -0.576223 0
M  V30 22584 H 2556.79 -3.06365 -1.07567 0
M  V30 22585 H 2557.8 -4.66039 2.25893 0
M  V30 22586 H 2554.48 -4.166 -0.273933 0
M  V30 22587 H 2555.87 -5.77555 3.43336 0
M  V30 22588 N 2558.59 -0.750586 -1.38578 0
M  V30 22589 C 2559.84 -0.304805 -1.99788 0
M  V30 22590 C 2560.16 1.11646 -1.59876 0
M  V30 22591 O 2559.43 1.76296 -0.854201 0
M  V30 22592 H 2558.01 -0.109707 -0.7389 0
M  V30 22593 H 2560.67 -0.964012 -1.6939 0
M  V30 22594 H 2559.77 -0.365553 -3.09952 0
M  V30 22595 N 2560.07 1.49477 -0.499425 0
M  V30 22596 C 2561.29 2.07352 0.0446855 0
M  V30 22597 C 2561.72 1.35751 1.30205 0
M  V30 22598 O 2561.08 0.413763 1.76515 0
M  V30 22599 C 2561.13 3.59488 0.28295 0
M  V30 22600 O 2560.23 3.89401 1.35798 0
M  V30 22601 H 2559.57 0.663509 -0.0255263 0
M  V30 22602 H 2562.1 1.92304 -0.698594 0
M  V30 22603 H 2562.11 4.04737 0.514936 0
M  V30 22604 H 2560.79 4.11013 -0.635708 0
M  V30 22605 H 2559.36 3.55963 1.11107 0
M  V30 22606 N 2561.55 0.233191 1.55865 0
M  V30 22607 C 2562.8 -0.394558 1.98211 0
M  V30 22608 C 2563.12 -1.59461 1.12237 0
M  V30 22609 O 2562.39 -1.94856 0.202016 0
M  V30 22610 H 2560.97 -0.148765 0.732037 0
M  V30 22611 H 2563.63 0.328793 1.92107 0
M  V30 22612 H 2562.72 -0.71301 3.03846 0
M  V30 22613 N 2563.03 -1.57549 -0.0400806 0
M  V30 22614 C 2564.25 -1.93407 -0.748897 0
M  V30 22615 C 2564.68 -0.832304 -1.68684 0
M  V30 22616 O 2564.03 0.212787 -1.80047 0
M  V30 22617 C 2564.08 -3.28307 -1.49154 0
M  V30 22618 O 2563.19 -3.19778 -2.60414 0
M  V30 22619 H 2562.53 -0.632464 -0.202201 0
M  V30 22620 H 2565.06 -2.046 0.00115682 0
M  V30 22621 H 2565.07 -3.62937 -1.86389 0
M  V30 22622 H 2563.74 -4.08063 -0.803568 0
M  V30 22623 H 2562.32 -2.96762 -2.25803 0
M  V30 22624 N 2564.5 0.312142 -1.54478 0
M  V30 22625 C 2565.75 1.04665 -1.72886 0
M  V30 22626 C 2566.07 1.88172 -0.51151 0
M  V30 22627 O 2565.34 1.9007 0.474373 0
M  V30 22628 H 2563.92 0.389414 -0.637468 0
M  V30 22629 H 2566.58 0.345818 -1.91807 0
M  V30 22630 H 2565.68 1.70615 -2.61337 0
M  V30 22631 N 2565.98 1.46745 0.574784 0
M  V30 22632 C 2567.4 1.31875 0.898958 0
M  V30 22633 C 2567.6 0.296085 1.99313 0
M  V30 22634 O 2566.65 -0.298577 2.50728 0
M  V30 22635 C 2567.97 2.70722 1.30881 0
M  V30 22636 C 2569.51 2.78873 1.42122 0
M  V30 22637 C 2569.99 4.18321 1.86471 0
M  V30 22638 N 2571.48 4.20777 1.93651 0
M  V30 22639 C 2572.22 5.25574 2.29258 0
M  V30 22640 N 2571.71 6.40692 2.63601 0
M  V30 22641 N 2573.5 5.12944 2.2988 0
M  V30 22642 H 2565.66 2.11885 -0.147876 0
M  V30 22643 H 2567.92 0.947994 -0.00348679 0
M  V30 22644 H 2567.62 3.46905 0.578792 0
M  V30 22645 H 2567.5 3.01347 2.26869 0
M  V30 22646 H 2569.89 2.02974 2.14209 0
M  V30 22647 H 2569.97 2.51923 0.443661 0
M  V30 22648 H 2569.61 4.94719 1.1496 0
M  V30 22649 H 2569.54 4.42684 2.85199 0
M  V30 22650 H 2572.03 3.37721 1.69568 0
M  V30 22651 H 2572.34 7.16426 2.89746 0
M  V30 22652 H 2570.69 6.44041 2.61221 0
M  V30 22653 H 2573.88 4.22043 2.02478 0
M  V30 22654 H 2574.05 5.94727 2.57301 0
M  V30 22655 N 2567.46 -0.820078 1.34583 0
M  V30 22656 C 2568.68 -1.6133 1.30336 0
M  V30 22657 C 2569.11 -1.87721 -0.119306 0
M  V30 22658 O 2568.47 -1.45477 -1.08194 0
M  V30 22659 C 2568.52 -2.92953 2.10263 0
M  V30 22660 O 2567.62 -3.85154 1.4741 0
M  V30 22661 H 2566.96 -0.490553 0.447497 0
M  V30 22662 H 2569.49 -1.01886 1.77427 0
M  V30 22663 H 2569.5 -3.42495 2.21724 0
M  V30 22664 H 2568.18 -2.73069 3.13698 0
M  V30 22665 H 2566.75 -3.43677 1.44709 0
M  V30 22666 N 2568.94 -1.18359 -1.04062 0
M  V30 22667 C 2570.16 -1.00448 -1.81452 0
M  V30 22668 C 2570.59 0.44239 -1.82824 0
M  V30 22669 O 2569.95 1.31739 -1.24557 0
M  V30 22670 C 2569.99 -1.5639 -3.24923 0
M  V30 22671 O 2569.1 -0.78528 -4.04854 0
M  V30 22672 H 2568.44 -0.355845 -0.560598 0
M  V30 22673 H 2570.97 -1.57116 -1.31056 0
M  V30 22674 H 2570.98 -1.59103 -3.757 0
M  V30 22675 H 2569.65 -2.61705 -3.23239 0
M  V30 22676 H 2568.23 -0.830462 -3.63535 0
M  V30 22677 N 2570.42 1.22976 -0.98563 0
M  V30 22678 C 2571.64 1.96098 -0.675289 0
M  V30 22679 C 2572.07 1.72409 0.752124 0
M  V30 22680 O 2571.42 0.998778 1.51308 0
M  V30 22681 C 2571.47 3.47085 -0.97796 0
M  V30 22682 O 2570.58 4.12336 -0.0727575 0
M  V30 22683 H 2569.92 0.613724 -0.253454 0
M  V30 22684 H 2572.45 1.5627 -1.32064 0
M  V30 22685 H 2572.46 3.97566 -0.916809 0
M  V30 22686 H 2571.13 3.63654 -2.01813 0
M  V30 22687 H 2569.71 3.72422 -0.188768 0
M  V30 22688 N 2571.89 0.757924 1.38178 0
M  V30 22689 C 2573.31 0.435999 1.53529 0
M  V30 22690 C 2573.51 -1.05029 1.71962 0
M  V30 22691 O 2572.57 -1.83629 1.7331 0
M  V30 22692 C 2573.88 1.23903 2.73987 0
M  V30 22693 C 2575.43 1.22954 2.87839 0
M  V30 22694 C 2575.9 2.01562 4.11263 0
M  V30 22695 N 2577.39 1.98844 4.18348 0
M  V30 22696 C 2578.13 2.56459 5.12851 0
M  V30 22697 N 2577.62 3.22805 6.13 0
M  V30 22698 N 2579.42 2.46365 5.05233 0
M  V30 22699 H 2571.57 1.72112 1.24463 0
M  V30 22700 H 2573.83 0.729874 0.604969 0
M  V30 22701 H 2573.54 2.2917 2.66785 0
M  V30 22702 H 2573.41 0.858828 3.67293 0
M  V30 22703 H 2575.8 0.184906 2.9452 0
M  V30 22704 H 2575.88 1.64928 1.95531 0
M  V30 22705 H 2575.52 3.06038 4.05343 0
M  V30 22706 H 2575.45 1.56979 5.02658 0
M  V30 22707 H 2577.94 1.5053 3.46625 0
M  V30 22708 H 2578.26 3.64177 6.81612 0
M  V30 22709 H 2576.6 3.26901 6.1332 0
M  V30 22710 H 2579.79 1.94158 4.25935 0
M  V30 22711 H 2579.97 2.91562 5.78702 0
M  V30 22712 N 2573.37 -1.4921 0.507345 0
M  V30 22713 C 2574.62 -2.0207 -0.0348484 0
M  V30 22714 C 2574.94 -1.38869 -1.36896 0
M  V30 22715 O 2574.21 -0.546184 -1.88132 0
M  V30 22716 H 2572.79 -0.746831 -0.0158681 0
M  V30 22717 H 2575.45 -1.83167 0.66603 0
M  V30 22718 H 2574.55 -3.1169 -0.159862 0
M  V30 22719 N 2574.85 -0.241454 -1.55739 0
M  V30 22720 C 2576.26 0.262722 -1.84842 0
M  V30 22721 C 2576.61 1.58001 -1.1632 0
M  V30 22722 O 2575.74 2.11886 -0.43969 0
M  V30 22723 C 2576.33 0.483464 -3.35333 0
M  V30 22724 C 2574.89 0.931913 -3.64681 0
M  V30 22725 C 2574.04 0.00606635 -2.77299 0
M  V30 22726 H 2576.99 -0.464155 -1.51761 0
M  V30 22727 H 2577.01 1.32682 -3.56617 0
M  V30 22728 H 2576.52 -0.475437 -3.85177 0
M  V30 22729 H 2574.62 1.90347 -3.2031 0
M  V30 22730 H 2574.74 0.792545 -4.72499 0
M  V30 22731 H 2573.1 0.51646 -2.49409 0
M  V30 22732 H 2573.88 -0.94811 -3.29948 0
M  V30 22733 N 2576.33 1.57568 0.0317248 0
M  V30 22734 C 2577.56 1.93127 0.73385 0
M  V30 22735 C 2577.97 0.839382 1.69561 0
M  V30 22736 O 2577.31 -0.193143 1.82682 0
M  V30 22737 C 2577.37 3.24468 1.54792 0
M  V30 22738 C 2577.04 4.50783 0.751225 0
M  V30 22739 C 2578.03 5.19873 0.0526719 0
M  V30 22740 C 2575.72 4.97306 0.706552 0
M  V30 22741 C 2577.71 6.33764 -0.679885 0
M  V30 22742 C 2575.4 6.11093 -0.0297524 0
M  V30 22743 C 2576.4 6.79176 -0.721733 0
M  V30 22744 O 2576.08 7.90787 -1.44609 0
M  V30 22745 H 2575.82 0.642079 0.211448 0
M  V30 22746 H 2578.37 2.05399 -0.00589225 0
M  V30 22747 H 2576.6 3.08516 2.33142 0
M  V30 22748 H 2578.29 3.45374 2.13241 0
M  V30 22749 H 2579.06 4.84937 0.0782335 0
M  V30 22750 H 2574.93 4.44159 1.23466 0
M  V30 22751 H 2578.48 6.86839 -1.22055 0
M  V30 22752 H 2574.38 6.45475 -0.0572465 0
M  V30 22753 H 2575.14 8.07131 -1.35949 0
M  V30 22754 N 2577.81 -0.303946 1.54641 0
M  V30 22755 C 2578.72 -1.3974 1.88441 0
M  V30 22756 C 2579.73 -1.55625 0.778266 0
M  V30 22757 O 2580.91 -1.70345 1.07445 0
M  V30 22758 C 2577.97 -2.74162 2.12217 0
M  V30 22759 C 2577.03 -2.67287 3.35941 0
M  V30 22760 C 2576.27 -3.95298 3.58573 0
M  V30 22761 O 2576.49 -4.94515 2.84272 0
M  V30 22762 O 2575.42 -3.9737 4.52085 0
M  V30 22763 H 2579.25 -1.14078 2.8146 0
M  V30 22764 H 2576.84 -0.499744 1.40794 0
M  V30 22765 H 2578.72 -3.53699 2.29073 0
M  V30 22766 H 2577.39 -2.99673 1.22384 0
M  V30 22767 H 2576.3 -1.86232 3.24451 0
M  V30 22768 H 2577.63 -2.46729 4.25894 0
M  V30 22769 N 2579.28 -1.47047 -0.566994 0
M  V30 22770 C 2580.51 -1.57011 -1.35508 0
M  V30 22771 C 2580.93 -0.217292 -1.86841 0
M  V30 22772 O 2580.29 0.805239 -1.62436 0
M  V30 22773 C 2580.34 -2.59125 -2.50772 0
M  V30 22774 O 2579.44 -2.13717 -3.52702 0
M  V30 22775 H 2578.79 -0.527787 -0.40291 0
M  V30 22776 H 2581.32 -1.92749 -0.686207 0
M  V30 22777 H 2581.33 -2.79234 -2.97476 0
M  V30 22778 H 2580 -3.57357 -2.12765 0
M  V30 22779 H 2578.58 -2.03664 -3.1237 0
M  V30 22780 N 2580.76 0.812929 -1.35016 0
M  V30 22781 C 2582.18 1.10755 -1.14916 0
M  V30 22782 C 2582.38 2.01455 0.0426463 0
M  V30 22783 O 2581.43 2.4216 0.715169 0
M  V30 22784 C 2582.75 1.74463 -2.44914 0
M  V30 22785 C 2584.3 1.86913 -2.51063 0
M  V30 22786 C 2584.77 2.54037 -3.81089 0
M  V30 22787 N 2586.26 2.61528 -3.82305 0
M  V30 22788 C 2587 3.14219 -4.7964 0
M  V30 22789 N 2586.49 3.67397 -5.8736 0
M  V30 22790 N 2588.29 3.12713 -4.67084 0
M  V30 22791 H 2580.44 0.209853 -2.11361 0
M  V30 22792 H 2582.7 0.155676 -0.93513 0
M  V30 22793 H 2582.41 1.15283 -3.32269 0
M  V30 22794 H 2582.28 2.74229 -2.58994 0
M  V30 22795 H 2584.67 2.45238 -1.64141 0
M  V30 22796 H 2584.75 0.8602 -2.40903 0
M  V30 22797 H 2584.39 1.96364 -4.68406 0
M  V30 22798 H 2584.32 3.55454 -3.88536 0
M  V30 22799 H 2586.81 2.23846 -3.04469 0
M  V30 22800 H 2587.13 4.05883 -6.57631 0
M  V30 22801 H 2585.47 3.65612 -5.91061 0
M  V30 22802 H 2588.66 2.70442 -3.82072 0
M  V30 22803 H 2588.83 3.53471 -5.43104 0
M  V30 22804 N 2582.24 1.18909 1.03433 0
M  V30 22805 C 2583.47 1.01409 1.80917 0
M  V30 22806 C 2583.89 -0.432689 1.83056 0
M  V30 22807 O 2583.25 -1.31077 1.25254 0
M  V30 22808 C 2583.3 1.58111 3.24089 0
M  V30 22809 O 2582.4 0.80674 4.04432 0
M  V30 22810 H 2581.74 0.358813 0.558703 0
M  V30 22811 H 2584.27 1.57809 1.30221 0
M  V30 22812 H 2584.28 1.61093 3.74851 0
M  V30 22813 H 2582.96 2.63415 3.21846 0
M  V30 22814 H 2581.53 0.84973 3.6309 0
M  V30 22815 N 2583.72 -1.22452 0.992137 0
M  V30 22816 C 2584.97 -1.90802 0.666249 0
M  V30 22817 C 2585.29 -1.77648 -0.80412 0
M  V30 22818 O 2584.56 -1.16321 -1.57627 0
M  V30 22819 H 2583.14 -0.706221 0.243435 0
M  V30 22820 H 2585.8 -1.48823 1.25848 0
M  V30 22821 H 2584.9 -2.9798 0.928121 0
M  V30 22822 N 2585.2 -0.765242 -1.37774 0
M  V30 22823 C 2586.15 -0.12079 -2.2768 0
M  V30 22824 C 2587.13 0.680962 -1.4578 0
M  V30 22825 O 2588.32 0.545003 -1.684 0
M  V30 22826 C 2585.45 0.762567 -3.34723 0
M  V30 22827 C 2584.54 -0.0466626 -4.24074 0
M  V30 22828 N 2584.93 -1.08901 -4.93938 0
M  V30 22829 C 2583.23 0.178339 -4.45643 0
M  V30 22830 C 2583.93 -1.57961 -5.59842 0
M  V30 22831 N 2582.9 -0.892892 -5.36217 0
M  V30 22832 H 2586.71 -0.918938 -2.79164 0
M  V30 22833 H 2584.22 -0.602379 -1.50815 0
M  V30 22834 H 2586.22 1.23998 -3.98033 0
M  V30 22835 H 2584.88 1.55954 -2.84796 0
M  V30 22836 H 2585.89 -1.47103 -4.96569 0
M  V30 22837 H 2582.56 0.947729 -4.06601 0
M  V30 22838 H 2583.95 -2.44849 -6.25698 0
M  V30 22839 N 2586.67 1.48939 -0.515251 0
M  V30 22840 C 2587.9 2.07388 0.0226906 0
M  V30 22841 C 2588.32 1.37124 1.28758 0
M  V30 22842 O 2587.68 0.432461 1.76067 0
M  V30 22843 C 2587.73 3.59768 0.244806 0
M  V30 22844 O 2586.83 3.90819 1.3166 0
M  V30 22845 H 2586.18 0.663201 -0.0325623 0
M  V30 22846 H 2588.71 1.91552 -0.718951 0
M  V30 22847 H 2588.72 4.05261 0.471979 0
M  V30 22848 H 2587.39 4.10315 -0.679266 0
M  V30 22849 H 2585.97 3.57122 1.07325 0
M  V30 22850 N 2588.15 0.249709 1.55609 0
M  V30 22851 C 2589.38 -0.381269 2.03865 0
M  V30 22852 C 2589.8 -1.50546 1.12771 0
M  V30 22853 O 2589.16 -1.80894 0.121221 0
M  V30 22854 C 2589.21 -0.863754 3.50102 0
M  V30 22855 O 2588.31 -1.97311 3.62135 0
M  V30 22856 H 2587.65 -0.0827079 0.658829 0
M  V30 22857 H 2590.18 0.376587 2.01104 0
M  V30 22858 H 2590.19 -1.16623 3.90977 0
M  V30 22859 H 2588.87 -0.0411085 4.1588 0
M  V30 22860 H 2587.45 -1.67512 3.33158 0
M  V30 22861 N 2589.63 -1.57583 -0.0233682 0
M  V30 22862 C 2590.88 -1.89812 -0.714086 0
M  V30 22863 C 2591.21 -0.848143 -1.747 0
M  V30 22864 O 2590.49 0.1361 -1.94023 0
M  V30 22865 C 2590.77 -3.32671 -1.37847 0
M  V30 22866 C 2590.62 -4.48368 -0.358685 0
M  V30 22867 C 2591.94 -3.74544 -2.31095 0
M  V30 22868 H 2589.06 -0.690318 -0.258127 0
M  V30 22869 H 2591.7 -1.89986 0.0231261 0
M  V30 22870 H 2589.85 -3.32654 -2.00683 0
M  V30 22871 H 2591.52 -4.6052 0.268196 0
M  V30 22872 H 2589.77 -4.32607 0.321463 0
M  V30 22873 H 2590.44 -5.45226 -0.862147 0
M  V30 22874 H 2592.91 -3.75964 -1.78297 0
M  V30 22875 H 2591.79 -4.75298 -2.74559 0
M  V30 22876 H 2592.05 -3.07116 -3.18013 0
M  V30 22877 N 2591.11 0.29574 -1.548 0
M  V30 22878 C 2592.36 1.03029 -1.74331 0
M  V30 22879 C 2592.68 1.87084 -0.531948 0
M  V30 22880 O 2591.94 1.89569 0.486019 0
M  V30 22881 C 2592.24 1.96094 -2.98801 0
M  V30 22882 C 2591.9 1.27973 -4.32358 0
M  V30 22883 C 2590.57 1.09127 -4.68663 0
M  V30 22884 C 2592.92 0.793153 -5.1513 0
M  V30 22885 C 2590.25 0.403166 -5.85313 0
M  V30 22886 C 2592.6 0.118743 -6.32489 0
M  V30 22887 C 2591.26 -0.0816217 -6.6745 0
M  V30 22888 H 2590.53 0.377009 -0.637923 0
M  V30 22889 H 2593.18 0.304663 -1.89061 0
M  V30 22890 H 2591.48 2.75203 -2.78874 0
M  V30 22891 H 2593.18 2.53009 -3.11107 0
M  V30 22892 H 2589.77 1.43648 -4.03811 0
M  V30 22893 H 2593.96 0.926444 -4.87576 0
M  V30 22894 H 2589.21 0.236991 -6.10941 0
M  V30 22895 H 2593.39 -0.266157 -6.95891 0
M  V30 22896 H 2591.01 -0.616818 -7.57693 0
M  V30 22897 N 2592.59 1.47346 0.559187 0
M  V30 22898 C 2593.84 1.53565 1.31385 0
M  V30 22899 C 2594.16 0.198712 1.93985 0
M  V30 22900 O 2593.43 -0.777135 1.79826 0
M  V30 22901 H 2592.01 0.56566 0.487891 0
M  V30 22902 H 2594.67 1.83631 0.653117 0
M  V30 22903 H 2593.76 2.30115 2.1084 0
M  V30 22904 N 2594.07 -0.805758 1.35445 0
M  V30 22905 C 2595 -1.92575 1.24288 0
M  V30 22906 C 2596.01 -1.61952 0.16599 0
M  V30 22907 O 2597.2 -1.73505 0.419334 0
M  V30 22908 C 2594.3 -3.26969 0.89133 0
M  V30 22909 C 2593.47 -3.85492 2.06676 0
M  V30 22910 C 2592.53 -4.98294 1.69086 0
M  V30 22911 O 2591.56 -5.15677 2.40969 0
M  V30 22912 N 2592.76 -5.77233 0.614971 0
M  V30 22913 H 2595.52 -2.02672 2.20781 0
M  V30 22914 H 2593.09 -0.98322 1.28625 0
M  V30 22915 H 2595.08 -3.99902 0.621326 0
M  V30 22916 H 2593.65 -3.12596 0.016059 0
M  V30 22917 H 2592.87 -3.04742 2.50052 0
M  V30 22918 H 2594.16 -4.21323 2.85245 0
M  V30 22919 H 2593.55 -5.65697 0.0177474 0
M  V30 22920 H 2592.11 -6.50542 0.40475 0
M  V30 22921 N 2595.54 -1.19456 -1.02801 0
M  V30 22922 C 2596.49 -0.900863 -2.09448 0
M  V30 22923 C 2597.48 0.134687 -1.60335 0
M  V30 22924 O 2598.67 -0.0711235 -1.76857 0
M  V30 22925 C 2595.8 -0.442289 -3.40439 0
M  V30 22926 C 2594.88 -1.51063 -3.96284 0
M  V30 22927 N 2595.28 -2.73028 -4.25781 0
M  V30 22928 C 2593.57 -1.37412 -4.24304 0
M  V30 22929 C 2594.27 -3.41856 -4.70648 0
M  V30 22930 N 2593.25 -2.69251 -4.72234 0
M  V30 22931 H 2597.05 -1.82783 -2.30147 0
M  V30 22932 H 2594.57 -1.08686 -1.2067 0
M  V30 22933 H 2596.56 -0.213333 -4.16354 0
M  V30 22934 H 2595.22 0.478182 -3.2116 0
M  V30 22935 H 2596.23 -3.09783 -4.15036 0
M  V30 22936 H 2592.91 -0.517176 -4.14284 0
M  V30 22937 H 2594.3 -4.46161 -5.02385 0
M  V30 22938 N 2597.02 1.21924 -0.998617 0
M  V30 22939 C 2597.93 2.2775 -0.562776 0
M  V30 22940 C 2598.95 1.69546 0.391173 0
M  V30 22941 O 2600.12 1.99759 0.256589 0
M  V30 22942 C 2597.19 3.46525 0.110059 0
M  V30 22943 C 2596.25 4.20025 -0.887569 0
M  V30 22944 C 2595.48 5.33129 -0.246748 0
M  V30 22945 O 2595.71 5.62298 0.957989 0
M  V30 22946 O 2594.64 5.94284 -0.954479 0
M  V30 22947 H 2598.47 2.6721 -1.44334 0
M  V30 22948 H 2596.05 1.28199 -0.767158 0
M  V30 22949 H 2597.93 4.1858 0.486682 0
M  V30 22950 H 2596.61 3.08978 0.9651 0
M  V30 22951 H 2595.51 3.50218 -1.31523 0
M  V30 22952 H 2596.85 4.61467 -1.71199 0
M  V30 22953 N 2598.5 0.772537 1.37367 0
M  V30 22954 C 2599.72 0.347421 2.04469 0
M  V30 22955 C 2600.15 -1.02247 1.57883 0
M  V30 22956 O 2599.51 -1.65535 0.739439 0
M  V30 22957 C 2599.56 0.400542 3.58369 0
M  V30 22958 O 2598.66 -0.598718 4.08031 0
M  V30 22959 H 2598 0.150282 0.64677 0
M  V30 22960 H 2600.53 1.04895 1.75665 0
M  V30 22961 H 2600.54 0.258117 4.07183 0
M  V30 22962 H 2599.22 1.39993 3.91631 0
M  V30 22963 H 2597.79 -0.419346 3.70535 0
M  V30 22964 N 2599.98 -1.48664 0.523142 0
M  V30 22965 C 2601.23 -2.02096 -0.0134142 0
M  V30 22966 C 2601.55 -1.40313 -1.35415 0
M  V30 22967 O 2600.82 -0.566107 -1.87542 0
M  V30 22968 H 2599.4 -0.746958 -0.00794602 0
M  V30 22969 H 2602.06 -1.8245 0.68542 0
M  V30 22970 H 2601.15 -3.11842 -0.126795 0
M  V30 22971 N 2601.46 -0.257958 -1.55475 0
M  V30 22972 C 2602.68 0.370453 -2.04065 0
M  V30 22973 C 2603.11 1.49946 -1.13568 0
M  V30 22974 O 2602.46 1.80827 -0.130812 0
M  V30 22975 C 2602.51 0.845176 -3.50555 0
M  V30 22976 O 2601.62 1.95388 -3.63177 0
M  V30 22977 H 2600.96 0.0792128 -0.659258 0
M  V30 22978 H 2603.49 -0.387247 -2.00902 0
M  V30 22979 H 2603.5 1.14548 -3.9159 0
M  V30 22980 H 2602.17 0.0190528 -4.15896 0
M  V30 22981 H 2600.75 1.65742 -3.34042 0
M  V30 22982 N 2602.93 1.57593 0.0150108 0
M  V30 22983 C 2604.18 1.89532 0.70158 0
M  V30 22984 C 2604.5 0.857427 1.75138 0
M  V30 22985 O 2603.77 -0.10716 1.95607 0
M  V30 22986 H 2602.35 0.699502 0.262117 0
M  V30 22987 H 2605.02 1.94887 -0.0223647 0
M  V30 22988 H 2604.11 2.88839 1.18231 0
M  V30 22989 N 2604.41 -0.287527 1.54955 0
M  V30 22990 C 2605.36 -1.35697 1.83222 0
M  V30 22991 C 2606.35 -1.45346 0.690177 0
M  V30 22992 O 2607.54 -1.49271 0.951163 0
M  V30 22993 C 2604.67 -2.71975 2.09486 0
M  V30 22994 C 2603.75 -2.66496 3.2991 0
M  V30 22995 N 2604.14 -2.30633 4.50158 0
M  V30 22996 C 2602.44 -2.9758 3.32208 0
M  V30 22997 C 2603.14 -2.34785 5.32213 0
M  V30 22998 N 2602.12 -2.7268 4.70262 0
M  V30 22999 H 2605.92 -1.06955 2.73748 0
M  V30 23000 H 2603.44 -0.49614 1.54636 0
M  V30 23001 H 2605.43 -3.49103 2.27888 0
M  V30 23002 H 2604.09 -3.01618 1.20235 0
M  V30 23003 H 2605.1 -2.02857 4.76518 0
M  V30 23004 H 2601.78 -3.32029 2.53106 0
M  V30 23005 H 2603.17 -2.09742 6.38324 0
M  V30 23006 N 2605.89 -1.47641 -0.551365 0
M  V30 23007 C 2607.12 -1.58439 -1.33835 0
M  V30 23008 C 2607.54 -0.237096 -1.866 0
M  V30 23009 O 2606.9 0.787965 -1.63281 0
M  V30 23010 C 2606.95 -2.6177 -2.4801 0
M  V30 23011 O 2606.05 -2.17446 -3.50415 0
M  V30 23012 H 2605.39 -0.532031 -0.397289 0
M  V30 23013 H 2607.92 -1.93466 -0.665725 0
M  V30 23014 H 2607.93 -2.82374 -2.94498 0
M  V30 23015 H 2606.61 -3.59594 -2.08962 0
M  V30 23016 H 2605.18 -2.06966 -3.10193 0
M  V30 23017 N 2607.37 0.798563 -1.3587 0
M  V30 23018 C 2608.59 1.59236 -1.32886 0
M  V30 23019 C 2609.02 1.87887 0.0894257 0
M  V30 23020 O 2608.38 1.4718 1.05866 0
M  V30 23021 C 2608.42 2.89571 -2.14897 0
M  V30 23022 O 2607.53 3.82761 -1.53519 0
M  V30 23023 H 2606.87 0.483372 -0.455245 0
M  V30 23024 H 2609.4 0.990507 -1.79025 0
M  V30 23025 H 2609.41 3.38924 -2.27145 0
M  V30 23026 H 2608.08 2.68043 -3.18003 0
M  V30 23027 H 2606.66 3.41331 -1.50159 0
M  V30 23028 N 2608.85 1.19999 1.02166 0
M  V30 23029 C 2609.81 0.946077 2.08763 0
M  V30 23030 C 2610.81 -0.0763563 1.60619 0
M  V30 23031 O 2612 0.159165 1.73471 0
M  V30 23032 C 2609.13 0.423314 3.38262 0
M  V30 23033 H 2610.32 1.89157 2.32722 0
M  V30 23034 H 2607.88 1.01466 1.18888 0
M  V30 23035 H 2608.61 -0.527881 3.19975 0
M  V30 23036 H 2608.4 1.1606 3.7453 0
M  V30 23037 H 2609.89 0.264985 4.16758 0
M  V30 23038 N 2610.32 -1.21392 1.00507 0
M  V30 23039 C 2611.55 -1.94177 0.705618 0
M  V30 23040 C 2611.96 -1.74305 -0.735815 0
M  V30 23041 O 2611.31 -1.04685 -1.50953 0
M  V30 23042 C 2611.37 -3.46804 0.946951 0
M  V30 23043 C 2611.03 -3.90425 2.37524 0
M  V30 23044 C 2612.03 -3.97121 3.35546 0
M  V30 23045 C 2609.71 -4.22737 2.71291 0
M  V30 23046 C 2611.71 -4.35522 4.65403 0
M  V30 23047 C 2609.39 -4.60815 4.01364 0
M  V30 23048 C 2610.39 -4.67178 4.98231 0
M  V30 23049 O 2610.08 -5.04388 6.25978 0
M  V30 23050 H 2609.81 -0.624321 0.259227 0
M  V30 23051 H 2612.37 -1.55156 1.34595 0
M  V30 23052 H 2610.6 -3.85895 0.249454 0
M  V30 23053 H 2612.29 -4.00809 0.640874 0
M  V30 23054 H 2613.05 -3.72334 3.10793 0
M  V30 23055 H 2608.93 -4.16982 1.96589 0
M  V30 23056 H 2612.47 -4.40403 5.41009 0
M  V30 23057 H 2608.37 -4.85055 4.25901 0
M  V30 23058 H 2609.14 -5.2242 6.30095 0
M  V30 23059 N 2611.8 -0.779811 -1.36955 0
M  V30 23060 C 2613.03 -0.35826 -2.04282 0
M  V30 23061 C 2613.45 1.01408 -1.58423 0
M  V30 23062 O 2612.81 1.65141 -0.748208 0
M  V30 23063 C 2612.86 -0.419542 -3.58151 0
M  V30 23064 O 2611.96 0.57707 -4.08343 0
M  V30 23065 H 2611.3 -0.15371 -0.645964 0
M  V30 23066 H 2613.83 -1.05825 -1.75106 0
M  V30 23067 H 2613.84 -0.279707 -4.0704 0
M  V30 23068 H 2612.52 -1.42068 -3.90883 0
M  V30 23069 H 2611.1 0.39969 -3.70752 0
M  V30 23070 N 2613.28 1.48384 -0.531019 0
M  V30 23071 C 2614.21 2.27624 0.268313 0
M  V30 23072 C 2615.23 1.35428 0.903501 0
M  V30 23073 O 2616.41 1.6047 0.781768 0
M  V30 23074 C 2613.51 3.08844 1.3953 0
M  V30 23075 C 2612.69 4.28825 0.861837 0
M  V30 23076 C 2611.75 4.91848 1.87008 0
M  V30 23077 O 2610.77 5.51032 1.4266 0
M  V30 23078 N 2611.97 4.84183 3.20229 0
M  V30 23079 H 2614.74 2.96865 -0.411283 0
M  V30 23080 H 2612.3 1.57722 -0.365415 0
M  V30 23081 H 2614.29 3.47875 2.06797 0
M  V30 23082 H 2612.86 2.42017 1.97854 0
M  V30 23083 H 2612.08 3.94198 0.0131433 0
M  V30 23084 H 2613.37 5.0649 0.484326 0
M  V30 23085 H 2612.77 4.37252 3.58925 0
M  V30 23086 H 2611.33 5.27311 3.83127 0
M  V30 23087 N 2614.76 0.2662 1.55336 0
M  V30 23088 C 2615.71 -0.639459 2.18849 0
M  V30 23089 C 2616.69 -1.12501 1.15032 0
M  V30 23090 O 2617.88 -1.07157 1.40877 0
M  V30 23091 C 2615.01 -1.82728 2.90629 0
M  V30 23092 C 2614.1 -1.35932 4.01725 0
M  V30 23093 N 2614.49 -0.6069 5.02146 0
M  V30 23094 C 2612.79 -1.64302 4.14633 0
M  V30 23095 C 2613.49 -0.362036 5.80572 0
M  V30 23096 N 2612.47 -0.931877 5.35553 0
M  V30 23097 H 2616.27 -0.0566541 2.93845 0
M  V30 23098 H 2613.78 0.0693597 1.62252 0
M  V30 23099 H 2615.78 -2.48729 3.34573 0
M  V30 23100 H 2614.44 -2.41412 2.17141 0
M  V30 23101 H 2615.45 -0.255107 5.17271 0
M  V30 23102 H 2612.13 -2.23987 3.5233 0
M  V30 23103 H 2613.52 0.239966 6.71471 0
M  V30 23104 N 2616.24 -1.57599 -0.0066531 0
M  V30 23105 C 2617.48 -1.89901 -0.691518 0
M  V30 23106 C 2617.81 -0.866703 -1.7468 0
M  V30 23107 O 2617.08 0.0967845 -1.95661 0
M  V30 23108 H 2615.66 -0.700883 -0.258404 0
M  V30 23109 H 2618.32 -1.94873 0.0326997 0
M  V30 23110 H 2617.41 -2.89462 -1.16697 0
M  V30 23111 N 2617.72 0.279305 -1.55105 0
M  V30 23112 C 2618.94 1.03442 -1.79762 0
M  V30 23113 C 2619.37 1.79383 -0.565984 0
M  V30 23114 O 2618.72 1.74714 0.484229 0
M  V30 23115 C 2618.77 1.97366 -3.01793 0
M  V30 23116 O 2617.88 3.06033 -2.76437 0
M  V30 23117 H 2617.22 0.296069 -0.594339 0
M  V30 23118 H 2619.75 0.31013 -2.02236 0
M  V30 23119 H 2619.76 2.39436 -3.30355 0
M  V30 23120 H 2618.43 1.41503 -3.91088 0
M  V30 23121 H 2617.01 2.68323 -2.58954 0
M  V30 23122 N 2619.19 1.47931 0.543528 0
M  V30 23123 C 2620.44 1.5495 1.29749 0
M  V30 23124 C 2620.76 0.219276 1.93763 0
M  V30 23125 O 2620.03 -0.758019 1.8064 0
M  V30 23126 H 2618.61 0.570803 0.481864 0
M  V30 23127 H 2621.27 1.84314 0.633604 0
M  V30 23128 H 2620.37 2.32338 2.08388 0
M  V30 23129 N 2620.67 -0.791347 1.36292 0
M  V30 23130 C 2621.9 -1.58529 1.33729 0
M  V30 23131 C 2622.32 -1.87932 -0.0794603 0
M  V30 23132 O 2621.68 -1.4774 -1.05084 0
M  V30 23133 C 2621.73 -2.88427 2.1643 0
M  V30 23134 O 2620.83 -3.81941 1.55547 0
M  V30 23135 H 2620.17 -0.480951 0.457802 0
M  V30 23136 H 2622.7 -0.980999 1.79548 0
M  V30 23137 H 2622.71 -3.37714 2.28939 0
M  V30 23138 H 2621.39 -2.66353 3.1942 0
M  V30 23139 H 2619.96 -3.4053 1.51967 0
M  V30 23140 N 2622.15 -1.2054 -1.01528 0
M  V30 23141 C 2623.4 -1.01435 -1.74801 0
M  V30 23142 C 2623.72 0.454423 -1.89631 0
M  V30 23143 O 2622.99 1.32843 -1.43977 0
M  V30 23144 H 2621.57 -0.372336 -0.647592 0
M  V30 23145 H 2624.23 -1.51672 -1.224 0
M  V30 23146 H 2623.33 -1.47378 -2.75111 0
M  V30 23147 N 2623.63 1.20858 -1.01149 0
M  V30 23148 C 2624.58 2.21309 -0.548286 0
M  V30 23149 C 2625.56 1.56011 0.393618 0
M  V30 23150 O 2626.75 1.7566 0.217414 0
M  V30 23151 C 2623.88 3.431 0.117192 0
M  V30 23152 C 2622.97 4.15574 -0.846116 0
M  V30 23153 N 2623.36 4.64511 -2.00157 0
M  V30 23154 C 2621.66 4.41001 -0.665861 0
M  V30 23155 C 2622.36 5.19973 -2.60773 0
M  V30 23156 N 2621.33 5.09732 -1.88877 0
M  V30 23157 H 2625.14 2.56807 -1.42925 0
M  V30 23158 H 2622.65 1.36737 -0.876166 0
M  V30 23159 H 2624.65 4.14281 0.466547 0
M  V30 23160 H 2623.31 3.09109 0.994061 0
M  V30 23161 H 2624.32 4.59886 -2.3817 0
M  V30 23162 H 2621 4.1718 0.163383 0
M  V30 23163 H 2622.39 5.68249 -3.58529 0
M  V30 23164 N 2625.11 0.787064 1.3654 0
M  V30 23165 C 2626.35 0.358376 1.99304 0
M  V30 23166 C 2626.68 -1.0693 1.62469 0
M  V30 23167 O 2625.94 -1.75296 0.87005 0
M  V30 23168 C 2626.23 0.466547 3.54342 0
M  V30 23169 C 2625.9 1.85469 4.10989 0
M  V30 23170 C 2624.56 2.2345 4.26173 0
M  V30 23171 C 2626.91 2.76374 4.4189 0
M  V30 23172 C 2624.24 3.51744 4.69567 0
M  V30 23173 C 2626.59 4.04093 4.86715 0
M  V30 23174 C 2625.26 4.42099 5.00104 0
M  V30 23175 H 2624.53 0.131139 0.729303 0
M  V30 23176 H 2627.18 1.00407 1.63067 0
M  V30 23177 H 2625.48 -0.262651 3.90919 0
M  V30 23178 H 2627.18 0.115924 4.00832 0
M  V30 23179 H 2623.77 1.54954 3.99609 0
M  V30 23180 H 2627.95 2.48285 4.2973 0
M  V30 23181 H 2623.21 3.81065 4.78121 0
M  V30 23182 H 2627.38 4.74649 5.0959 0
M  V30 23183 H 2625.01 5.41567 5.33488 0
M  V30 23184 N 2626.58 -1.48101 0.53888 0
M  V30 23185 C 2627.82 -2.04397 0.0101568 0
M  V30 23186 C 2628.19 -1.40611 -1.30738 0
M  V30 23187 O 2629.39 -1.87846 -1.92268 0
M  V30 23188 C 2627.66 -3.5726 -0.100169 0
M  V30 23189 S 2629.22 -4.34981 -0.57767 0
M  V30 23190 H 2626.04 -0.710812 0.0163296 0
M  V30 23191 H 2628.64 -1.81701 0.721461 0
M  V30 23192 H 2627.34 -4.01215 0.863421 0
M  V30 23193 H 2626.87 -3.84424 -0.835584 0
M  V30 23194 H 2628.89 -4.60798 -1.84065 0
M  V30 23195 N 2628.06 -0.274434 -1.55192 0
M  V30 23196 C 2629.29 0.348788 -2.04446 0
M  V30 23197 C 2629.71 1.48733 -1.15152 0
M  V30 23198 O 2629.07 1.80679 -0.149984 0
M  V30 23199 C 2629.12 0.807947 -3.51432 0
M  V30 23200 O 2628.22 1.91525 -3.65229 0
M  V30 23201 H 2627.56 0.072216 -0.660061 0
M  V30 23202 H 2630.09 -0.408533 -2.0048 0
M  V30 23203 H 2630.1 1.10388 -3.92783 0
M  V30 23204 H 2628.78 -0.0250596 -4.15892 0
M  V30 23205 H 2627.35 1.6219 -3.35781 0
M  V30 23206 N 2629.54 1.576 -0.00170483 0
M  V30 23207 C 2630.47 2.05384 1.01736 0
M  V30 23208 C 2631.48 0.972075 1.30593 0
M  V30 23209 O 2632.67 1.24884 1.27539 0
M  V30 23210 C 2629.77 2.44026 2.35169 0
M  V30 23211 C 2628.95 3.74955 2.25227 0
M  V30 23212 C 2628.01 4.00447 3.41363 0
M  V30 23213 O 2627.03 4.71089 3.19474 0
M  V30 23214 N 2628.23 3.48475 4.64269 0
M  V30 23215 H 2631 2.9343 0.609851 0
M  V30 23216 H 2628.56 1.60832 0.185643 0
M  V30 23217 H 2630.55 2.58192 3.11639 0
M  V30 23218 H 2629.12 1.6149 2.67656 0
M  V30 23219 H 2628.34 3.70849 1.33658 0
M  V30 23220 H 2629.63 4.60788 2.15759 0
M  V30 23221 H 2629.03 2.91273 4.8495 0
M  V30 23222 H 2627.58 3.67968 5.37999 0
M  V30 23223 N 2631.02 -0.271076 1.55251 0
M  V30 23224 C 2632.27 -1.00044 1.75601 0
M  V30 23225 C 2632.59 -1.86749 0.56122 0
M  V30 23226 O 2631.86 -1.91261 -0.423813 0
M  V30 23227 H 2630.44 -0.372376 0.647569 0
M  V30 23228 H 2633.1 -0.294843 1.92657 0
M  V30 23229 H 2632.19 -1.63626 2.65769 0
M  V30 23230 N 2632.5 -1.48217 -0.535675 0
M  V30 23231 C 2633.43 -1.58397 -1.65659 0
M  V30 23232 C 2634.44 -0.468635 -1.55909 0
M  V30 23233 O 2635.63 -0.739228 -1.62474 0
M  V30 23234 C 2632.73 -1.49235 -3.04273 0
M  V30 23235 C 2631.9 -2.75711 -3.39562 0
M  V30 23236 C 2630.96 -2.60083 -4.57431 0
M  V30 23237 O 2629.99 -3.33956 -4.60936 0
M  V30 23238 N 2631.19 -1.69325 -5.55256 0
M  V30 23239 H 2633.96 -2.55061 -1.57366 0
M  V30 23240 H 2631.52 -1.44869 -0.722819 0
M  V30 23241 H 2633.51 -1.36484 -3.80991 0
M  V30 23242 H 2632.08 -0.605686 -3.06676 0
M  V30 23243 H 2631.3 -3.03068 -2.52078 0
M  V30 23244 H 2632.59 -3.59629 -3.59922 0
M  V30 23245 H 2631.98 -1.08498 -5.55198 0
M  V30 23246 H 2630.54 -1.62515 -6.31215 0
M  V30 23247 N 2633.97 0.784108 -1.3671 0
M  V30 23248 C 2634.92 1.88684 -1.27994 0
M  V30 23249 C 2635.91 1.59996 -0.17031 0
M  V30 23250 O 2637.1 1.72337 -0.403601 0
M  V30 23251 C 2634.23 3.25975 -1.0768 0
M  V30 23252 C 2633.32 3.60656 -2.23133 0
M  V30 23253 N 2633.71 3.66606 -3.48474 0
M  V30 23254 C 2632 3.90748 -2.15015 0
M  V30 23255 C 2632.71 3.97678 -4.24532 0
M  V30 23256 N 2631.68 4.12937 -3.53531 0
M  V30 23257 H 2635.48 1.91518 -2.22931 0
M  V30 23258 H 2633 0.97991 -1.29505 0
M  V30 23259 H 2634.99 4.04847 -0.995222 0
M  V30 23260 H 2633.65 3.24413 -0.136487 0
M  V30 23261 H 2634.67 3.49118 -3.8254 0
M  V30 23262 H 2631.34 3.97081 -1.2897 0
M  V30 23263 H 2632.73 4.0916 -5.32952 0
M  V30 23264 N 2635.45 1.21076 1.00888 0
M  V30 23265 C 2636.7 1.02361 1.7426 0
M  V30 23266 C 2637.02 -0.44436 1.8987 0
M  V30 23267 O 2636.29 -1.32078 1.4468 0
M  V30 23268 H 2634.87 0.375765 0.645608 0
M  V30 23269 H 2637.53 1.52319 1.21594 0
M  V30 23270 H 2636.63 1.48835 2.74326 0
M  V30 23271 N 2636.93 -1.2032 1.01789 0
M  V30 23272 C 2638.16 -1.94239 0.727043 0
M  V30 23273 C 2638.58 -1.74342 -0.706148 0
M  V30 23274 O 2637.94 -1.03854 -1.48607 0
M  V30 23275 C 2637.99 -3.44371 1.06964 0
M  V30 23276 O 2637.09 -4.11998 0.182055 0
M  V30 23277 H 2636.43 -0.606788 0.269637 0
M  V30 23278 H 2638.96 -1.52714 1.36161 0
M  V30 23279 H 2638.97 -3.94995 1.02189 0
M  V30 23280 H 2637.65 -3.58175 2.11384 0
M  V30 23281 H 2636.22 -3.7179 0.287443 0
M  V30 23282 N 2638.41 -0.794293 -1.3612 0
M  V30 23283 C 2639.64 -0.381025 -2.03361 0
M  V30 23284 C 2640.05 1.00413 -1.59883 0
M  V30 23285 O 2639.41 1.64489 -0.790544 0
M  V30 23286 C 2639.46 -0.440712 -3.58804 0
M  V30 23287 O 2639.18 -1.77125 -4.00697 0
M  V30 23288 C 2640.68 -0.0186896 -4.43296 0
M  V30 23289 H 2637.9 -0.156379 -0.652523 0
M  V30 23290 H 2640.45 -1.0745 -1.73997 0
M  V30 23291 H 2638.6 0.20439 -3.8686 0
M  V30 23292 H 2639.01 -1.72546 -4.95306 0
M  V30 23293 H 2640.49 -0.111585 -5.51887 0
M  V30 23294 H 2640.97 1.03453 -4.26842 0
M  V30 23295 H 2641.57 -0.636469 -4.20511 0
M  V30 23296 N 2639.89 1.47813 -0.546727 0
M  V30 23297 C 2641.11 2.07389 -0.0213045 0
M  V30 23298 C 2641.54 1.39825 1.2582 0
M  V30 23299 O 2640.89 0.469711 1.7511 0
M  V30 23300 C 2640.94 3.60206 0.168439 0
M  V30 23301 O 2640.05 3.93524 1.2334 0
M  V30 23302 H 2639.39 0.662361 -0.0466225 0
M  V30 23303 H 2641.92 1.89984 -0.759421 0
M  V30 23304 H 2641.93 4.06171 0.385911 0
M  V30 23305 H 2640.6 4.08782 -0.766147 0
M  V30 23306 H 2639.18 3.59318 0.997256 0
M  V30 23307 N 2641.36 0.28266 1.55044 0
M  V30 23308 C 2642.61 -0.331299 1.99366 0
M  V30 23309 C 2642.93 -1.5581 1.17253 0
M  V30 23310 O 2642.2 -1.94114 0.263905 0
M  V30 23311 H 2640.78 -0.125401 0.736399 0
M  V30 23312 H 2643.45 0.389744 1.90963 0
M  V30 23313 H 2642.54 -0.615982 3.05961 0
M  V30 23314 N 2642.84 -1.57597 0.0100627 0
M  V30 23315 C 2643.77 -2.0592 -1.00645 0
M  V30 23316 C 2644.79 -0.978987 -1.30076 0
M  V30 23317 O 2645.98 -1.25558 -1.26875 0
M  V30 23318 C 2643.08 -2.4527 -2.33872 0
M  V30 23319 C 2642.25 -3.76144 -2.23236 0
M  V30 23320 C 2641.31 -4.02251 -3.39235 0
M  V30 23321 O 2640.33 -4.72777 -3.16972 0
M  V30 23322 N 2641.54 -3.50932 -4.62414 0
M  V30 23323 H 2644.3 -2.93749 -0.594281 0
M  V30 23324 H 2641.86 -1.60928 -0.177111 0
M  V30 23325 H 2643.85 -2.59841 -3.10265 0
M  V30 23326 H 2642.42 -1.62907 -2.66796 0
M  V30 23327 H 2641.64 -3.71553 -1.31689 0
M  V30 23328 H 2642.93 -4.61926 -2.13313 0
M  V30 23329 H 2642.33 -2.9384 -4.83399 0
M  V30 23330 H 2640.89 -3.70816 -5.3604 0
M  V30 23331 N 2644.32 0.262839 -1.55393 0
M  V30 23332 C 2645.55 1.0153 -1.80849 0
M  V30 23333 C 2645.97 1.78773 -0.584978 0
M  V30 23334 O 2645.33 1.75218 0.465671 0
M  V30 23335 C 2645.38 1.94154 -3.0387 0
M  V30 23336 O 2644.48 3.03084 -2.79668 0
M  V30 23337 H 2643.82 0.289749 -0.597446 0
M  V30 23338 H 2646.35 0.288663 -2.02553 0
M  V30 23339 H 2646.36 2.35918 -3.32876 0
M  V30 23340 H 2645.04 1.37347 -3.92567 0
M  V30 23341 H 2643.61 2.65561 -2.61785 0
M  V30 23342 N 2645.8 1.48499 0.527807 0
M  V30 23343 C 2647.02 1.60549 1.31297 0
M  V30 23344 C 2647.45 0.266753 1.86199 0
M  V30 23345 O 2646.81 -0.761889 1.64514 0
M  V30 23346 C 2646.85 2.65682 2.43814 0
M  V30 23347 O 2645.96 2.22993 3.46912 0
M  V30 23348 H 2645.3 0.538284 0.388775 0
M  V30 23349 H 2647.83 1.94501 0.634862 0
M  V30 23350 H 2647.84 2.87023 2.89968 0
M  V30 23351 H 2646.51 3.62872 2.03215 0
M  V30 23352 H 2645.09 2.11875 3.06861 0
M  V30 23353 N 2647.28 -0.776847 1.37123 0
M  V30 23354 C 2648.51 -1.56588 1.35233 0
M  V30 23355 C 2648.92 -1.88693 -0.0635186 0
M  V30 23356 O 2648.28 -1.51071 -1.02391 0
M  V30 23357 C 2648.33 -2.87926 2.18588 0
M  V30 23358 O 2648.05 -2.57199 3.54655 0
M  V30 23359 C 2649.55 -3.82179 2.24619 0
M  V30 23360 H 2646.77 -0.485277 0.463408 0
M  V30 23361 H 2649.31 -0.963235 1.80394 0
M  V30 23362 H 2647.47 -3.44627 1.76949 0
M  V30 23363 H 2647.88 -3.41268 3.98292 0
M  V30 23364 H 2649.36 -4.71356 2.87275 0
M  V30 23365 H 2649.83 -4.20942 1.25317 0
M  V30 23366 H 2650.44 -3.31409 2.66548 0
M  V30 23367 N 2648.76 -1.2161 -1.00244 0
M  V30 23368 C 2650 -1.03488 -1.74059 0
M  V30 23369 C 2650.33 0.431274 -1.89658 0
M  V30 23370 O 2649.59 1.33625 -1.42979 0
M  V30 23371 C 2649.88 -1.68015 -3.15446 0
M  V30 23372 C 2649.55 -3.17879 -3.19787 0
M  V30 23373 C 2648.21 -3.58774 -3.20679 0
M  V30 23374 C 2650.56 -4.13847 -3.16828 0
M  V30 23375 C 2647.89 -4.94136 -3.16301 0
M  V30 23376 C 2650.24 -5.49174 -3.13991 0
M  V30 23377 C 2648.91 -5.89462 -3.13194 0
M  V30 23378 H 2648.18 -0.378689 -0.636927 0
M  V30 23379 H 2650.83 -1.51238 -1.17471 0
M  V30 23380 H 2649.13 -1.12564 -3.75282 0
M  V30 23381 H 2650.83 -1.51493 -3.71283 0
M  V30 23382 H 2647.42 -2.85311 -3.19837 0
M  V30 23383 H 2651.6 -3.83278 -3.15297 0
M  V30 23384 H 2646.86 -5.24595 -3.14023 0
M  V30 23385 H 2651.03 -6.2327 -3.10656 0
M  V30 23386 H 2648.66 -6.94319 -3.09556 0
M  V30 23387 N 2650.23 1.19778 -1.02425 0
M  V30 23388 C 2651.51 1.8508 -0.632834 0
M  V30 23389 C 2651.89 1.91481 0.888711 0
M  V30 23390 O 2651.24 1.42835 1.78355 0
M  V30 23391 C 2651.45 3.24303 -1.28953 0
M  V30 23392 C 2652.8 4.00511 -1.40983 0
M  V30 23393 O 2653.82 3.33684 -1.24634 0
M  V30 23394 O 2652.68 5.20206 -1.67476 0
M  V30 23395 H 2649.77 0.797377 -0.219362 0
M  V30 23396 H 2652.32 1.27305 -1.12211 0
M  V30 23397 H 2651.09 3.14452 -2.32886 0
M  V30 23398 H 2650.71 3.89717 -0.787816 0
M  V30 23399 N 2651.71 0.801501 1.35697 0
M  V30 23400 C 2652.64 0.166069 2.28598 0
M  V30 23401 C 2653.66 -0.631694 1.50045 0
M  V30 23402 O 2654.85 -0.46489 1.7234 0
M  V30 23403 C 2651.95 -0.787393 3.29626 0
M  V30 23404 C 2651.12 -0.0370941 4.37384 0
M  V30 23405 C 2650.18 -0.908284 5.18302 0
M  V30 23406 O 2649.2 -0.361089 5.68054 0
M  V30 23407 N 2650.41 -2.23103 5.35915 0
M  V30 23408 H 2653.17 0.96412 2.83769 0
M  V30 23409 H 2650.73 0.656495 1.47992 0
M  V30 23410 H 2652.72 -1.37432 3.8065 0
M  V30 23411 H 2651.29 -1.48627 2.75007 0
M  V30 23412 H 2650.51 0.731003 3.87363 0
M  V30 23413 H 2651.8 0.480198 5.06529 0
M  V30 23414 H 2651.2 -2.69959 4.9713 0
M  V30 23415 H 2649.76 -2.76731 5.90138 0
M  V30 23416 N 2653.19 -1.47521 0.554558 0
M  V30 23417 C 2654.1 -2.33764 -0.197824 0
M  V30 23418 C 2655.12 -1.48027 -0.91455 0
M  V30 23419 O 2656.29 -1.80961 -0.884036 0
M  V30 23420 C 2653.36 -3.24667 -1.21622 0
M  V30 23421 C 2652.42 -4.26293 -0.507208 0
M  V30 23422 C 2651.65 -5.12853 -1.47709 0
M  V30 23423 O 2651.87 -5.01819 -2.71171 0
M  V30 23424 O 2650.81 -5.93484 -1.00303 0
M  V30 23425 H 2654.63 -2.99395 0.509543 0
M  V30 23426 H 2652.22 -1.46037 0.315202 0
M  V30 23427 H 2654.1 -3.80826 -1.80415 0
M  V30 23428 H 2652.78 -2.61668 -1.90556 0
M  V30 23429 H 2651.68 -3.73902 0.121844 0
M  V30 23430 H 2653.02 -4.91999 0.14063 0
M  V30 23431 N 2654.67 -0.290879 -1.54892 0
M  V30 23432 C 2655.92 0.320721 -1.99539 0
M  V30 23433 C 2656.24 1.55186 -1.18078 0
M  V30 23434 O 2655.51 1.93972 -0.274196 0
M  V30 23435 H 2654.09 0.121494 -0.737054 0
M  V30 23436 H 2656.75 -0.399866 -1.90754 0
M  V30 23437 H 2655.84 0.599748 -3.06283 0
M  V30 23438 N 2656.15 1.57589 -0.0184203 0
M  V30 23439 C 2657.37 1.96053 0.676599 0
M  V30 23440 C 2657.8 0.894337 1.65479 0
M  V30 23441 O 2657.15 -0.145817 1.80713 0
M  V30 23442 C 2657.2 3.33616 1.36866 0
M  V30 23443 O 2656.31 3.29223 2.48366 0
M  V30 23444 H 2655.65 0.639533 0.178589 0
M  V30 23445 H 2658.18 2.04455 -0.077092 0
M  V30 23446 H 2658.19 3.69605 1.7279 0
M  V30 23447 H 2656.86 4.10764 0.651564 0
M  V30 23448 H 2655.44 3.04938 2.14633 0
M  V30 23449 N 2657.62 -0.254594 1.5553 0
M  V30 23450 C 2658.85 -1.00569 1.81385 0
M  V30 23451 C 2659.27 -1.7846 0.59445 0
M  V30 23452 O 2658.63 -1.75462 -0.456372 0
M  V30 23453 C 2658.68 -1.92539 3.04895 0
M  V30 23454 O 2657.78 -3.01596 2.81271 0
M  V30 23455 H 2657.12 -0.286576 0.598974 0
M  V30 23456 H 2659.65 -0.277917 2.02704 0
M  V30 23457 H 2659.66 -2.3415 3.34123 0
M  V30 23458 H 2658.34 -1.35263 3.9329 0
M  V30 23459 H 2656.92 -2.64169 2.6319 0
M  V30 23460 N 2659.1 -1.48777 -0.519925 0
M  V30 23461 C 2660.33 -1.60984 -1.29968 0
M  V30 23462 C 2660.74 -0.273917 -1.86802 0
M  V30 23463 O 2660.1 0.738164 -1.66905 0
M  V30 23464 C 2660.15 -2.6642 -2.44342 0
M  V30 23465 O 2659.87 -3.94828 -1.89848 0
M  V30 23466 C 2661.37 -2.89159 -3.36009 0
M  V30 23467 H 2658.59 -0.542503 -0.394882 0
M  V30 23468 H 2661.14 -1.94677 -0.62618 0
M  V30 23469 H 2659.29 -2.35557 -3.07557 0
M  V30 23470 H 2659.71 -4.52755 -2.6479 0
M  V30 23471 H 2661.18 -3.6671 -4.12586 0
M  V30 23472 H 2661.66 -1.98358 -3.91855 0
M  V30 23473 H 2662.26 -3.21364 -2.78577 0
M  V30 23474 N 2660.58 0.769564 -1.37534 0
M  V30 23475 C 2661.83 1.52518 -1.326 0
M  V30 23476 C 2662.15 1.948 0.0883952 0
M  V30 23477 O 2661.42 1.6646 1.03286 0
M  V30 23478 H 2660 0.56569 -0.487856 0
M  V30 23479 H 2662.66 0.915775 -1.72045 0
M  V30 23480 H 2661.76 2.42356 -1.96647 0
M  V30 23481 N 2662.06 1.22139 0.995977 0
M  V30 23482 C 2662.99 0.946521 2.08743 0
M  V30 23483 C 2664 -0.0737071 1.62633 0
M  V30 23484 O 2665.19 0.159918 1.77782 0
M  V30 23485 C 2662.29 0.401364 3.36515 0
M  V30 23486 C 2661.47 1.47808 4.11669 0
M  V30 23487 C 2660.52 0.940552 5.17726 0
M  V30 23488 O 2659.55 1.62606 5.4548 0
M  V30 23489 N 2660.75 -0.239621 5.80005 0
M  V30 23490 H 2663.52 1.88615 2.32905 0
M  V30 23491 H 2661.08 1.12787 1.1615 0
M  V30 23492 H 2663.07 0.0271548 4.04691 0
M  V30 23493 H 2661.64 -0.443299 3.09441 0
M  V30 23494 H 2660.86 2.02574 3.38168 0
M  V30 23495 H 2662.15 2.20261 4.58653 0
M  V30 23496 H 2661.55 -0.81342 5.59821 0
M  V30 23497 H 2660.1 -0.555247 6.49431 0
M  V30 23498 N 2663.54 -1.19233 1.03059 0
M  V30 23499 C 2664.76 -1.93457 0.747604 0
M  V30 23500 C 2665.19 -1.75081 -0.687617 0
M  V30 23501 O 2664.54 -1.05425 -1.47497 0
M  V30 23502 C 2664.59 -3.43217 1.10611 0
M  V30 23503 O 2663.7 -4.11782 0.225743 0
M  V30 23504 H 2663.04 -0.603894 0.276057 0
M  V30 23505 H 2665.57 -1.51261 1.37773 0
M  V30 23506 H 2665.58 -3.93889 1.06373 0
M  V30 23507 H 2664.25 -3.55913 2.15171 0
M  V30 23508 H 2662.83 -3.71465 0.32686 0
M  V30 23509 N 2665.01 -0.808686 -1.3527 0
M  V30 23510 C 2666.24 -0.401511 -2.03476 0
M  V30 23511 C 2666.66 0.98025 -1.60539 0
M  V30 23512 O 2666.02 1.63517 -0.783068 0
M  V30 23513 C 2666.07 -0.495416 -3.57181 0
M  V30 23514 O 2665.17 0.490325 -4.09475 0
M  V30 23515 H 2664.52 -0.167377 -0.642558 0
M  V30 23516 H 2667.05 -1.09515 -1.72822 0
M  V30 23517 H 2667.06 -0.365983 -4.06355 0
M  V30 23518 H 2665.73 -1.50327 -3.87782 0
M  V30 23519 H 2664.31 0.320958 -3.71516 0
M  V30 23520 N 2666.49 1.47225 -0.562374 0
M  V30 23521 C 2667.72 2.07355 -0.0432997 0
M  V30 23522 C 2668.14 1.41151 1.2433 0
M  V30 23523 O 2667.5 0.488257 1.74602 0
M  V30 23524 C 2667.55 3.60365 0.130224 0
M  V30 23525 O 2666.65 3.9481 1.1916 0
M  V30 23526 H 2665.99 0.661829 -0.0536451 0
M  V30 23527 H 2668.52 1.89168 -0.779528 0
M  V30 23528 H 2668.53 4.06557 0.342809 0
M  V30 23529 H 2667.21 4.07947 -0.809461 0
M  V30 23530 H 2665.79 3.60355 0.95909 0
M  V30 23531 N 2667.97 0.299089 1.54736 0
M  V30 23532 C 2668.92 -0.592894 2.20156 0
M  V30 23533 C 2669.9 -1.10036 1.17392 0
M  V30 23534 O 2671.1 -1.04145 1.43118 0
M  V30 23535 C 2668.23 -1.76522 2.9444 0
M  V30 23536 C 2667.31 -1.27381 4.04518 0
M  V30 23537 N 2667.7 -0.50025 5.0332 0
M  V30 23538 C 2666 -1.5547 4.18025 0
M  V30 23539 C 2666.7 -0.238807 5.8121 0
M  V30 23540 N 2665.68 -0.818068 5.37409 0
M  V30 23541 H 2669.48 0.00568762 2.93899 0
M  V30 23542 H 2666.99 0.10376 1.62068 0
M  V30 23543 H 2668.99 -2.41576 3.39774 0
M  V30 23544 H 2667.65 -2.36752 2.22213 0
M  V30 23545 H 2668.66 -0.145328 5.17696 0
M  V30 23546 H 2665.34 -2.16463 3.57002 0
M  V30 23547 H 2666.73 0.382341 6.70811 0
M  V30 23548 N 2669.45 -1.57577 0.0267774 0
M  V30 23549 C 2670.7 -1.91325 -0.651082 0
M  V30 23550 C 2671.02 -0.90356 -1.72803 0
M  V30 23551 O 2670.29 0.0552602 -1.95822 0
M  V30 23552 H 2668.87 -0.706206 -0.243479 0
M  V30 23553 H 2671.53 -1.94759 0.0740277 0
M  V30 23554 H 2670.63 -2.91872 -1.10531 0
M  V30 23555 N 2670.93 0.246342 -1.55663 0
M  V30 23556 C 2671.86 1.32791 -1.86813 0
M  V30 23557 C 2672.87 1.44264 -0.754438 0
M  V30 23558 O 2674.06 1.45604 -1.03256 0
M  V30 23559 C 2671.16 2.70643 -2.03975 0
M  V30 23560 C 2670.33 2.8143 -3.34837 0
M  V30 23561 C 2669.39 4.0013 -3.41734 0
M  V30 23562 O 2668.42 3.89632 -4.14941 0
M  V30 23563 N 2669.62 5.13325 -2.71067 0
M  V30 23564 H 2672.39 1.06404 -2.80175 0
M  V30 23565 H 2669.95 0.436443 -1.55906 0
M  V30 23566 H 2671.94 3.48389 -2.0593 0
M  V30 23567 H 2670.51 2.89735 -1.17355 0
M  V30 23568 H 2669.73 1.90355 -3.45193 0
M  V30 23569 H 2671.02 2.85588 -4.2109 0
M  V30 23570 H 2670.41 5.24747 -2.11323 0
M  V30 23571 H 2668.97 5.89204 -2.78714 0
M  V30 23572 N 2672.4 1.4905 0.512027 0
M  V30 23573 C 2673.35 1.61301 1.61139 0
M  V30 23574 C 2674.34 0.469187 1.53907 0
M  V30 23575 O 2675.53 0.721575 1.61624 0
M  V30 23576 C 2672.66 1.67262 2.99797 0
M  V30 23577 C 2671.75 2.87185 3.12067 0
M  V30 23578 N 2672.14 4.11396 2.94256 0
M  V30 23579 C 2670.43 2.84892 3.43151 0
M  V30 23580 C 2671.14 4.91951 3.10417 0
M  V30 23581 N 2670.11 4.25106 3.388 0
M  V30 23582 H 2673.91 2.55067 1.46006 0
M  V30 23583 H 2671.43 1.4567 0.717908 0
M  V30 23584 H 2673.42 1.74135 3.78791 0
M  V30 23585 H 2672.08 0.74625 3.16008 0
M  V30 23586 H 2673.1 4.41551 2.70654 0
M  V30 23587 H 2669.77 2.01588 3.65607 0
M  V30 23588 H 2671.16 6.0059 3.01233 0
M  V30 23589 N 2673.88 -0.762259 1.3794 0
M  V30 23590 C 2675.13 -1.51812 1.33407 0
M  V30 23591 C 2675.45 -1.94844 -0.0780633 0
M  V30 23592 O 2674.72 -1.67005 -1.02402 0
M  V30 23593 H 2673.3 -0.563095 0.490849 0
M  V30 23594 H 2675.96 -0.906638 1.72528 0
M  V30 23595 H 2675.06 -2.41309 1.9793 0
M  V30 23596 N 2675.36 -1.22666 -0.989486 0
M  V30 23597 C 2676.59 -1.08054 -1.77029 0
M  V30 23598 C 2677.01 0.364451 -1.84536 0
M  V30 23599 O 2676.37 1.26338 -1.30033 0
M  V30 23600 C 2676.42 -1.7003 -3.17997 0
M  V30 23601 O 2675.52 -0.956286 -4.01159 0
M  V30 23602 H 2674.86 -0.379302 -0.545001 0
M  V30 23603 H 2677.39 -1.62534 -1.24274 0
M  V30 23604 H 2677.4 -1.74895 -3.68613 0
M  V30 23605 H 2676.08 -2.75179 -3.11848 0
M  V30 23606 H 2674.65 -0.983903 -3.59686 0
M  V30 23607 N 2676.84 1.18685 -1.0369 0
M  V30 23608 C 2678.09 1.88198 -0.736605 0
M  V30 23609 C 2678.41 1.8051 0.737633 0
M  V30 23610 O 2677.68 1.22091 1.53201 0
M  V30 23611 H 2676.26 0.6967 -0.269479 0
M  V30 23612 H 2678.92 1.4405 -1.31285 0
M  V30 23613 H 2678.02 2.9433 -1.03807 0
M  V30 23614 N 2678.32 0.815849 1.34839 0
M  V30 23615 C 2679.54 0.412296 2.03261 0
M  V30 23616 C 2679.97 -0.971723 1.61056 0
M  V30 23617 O 2679.33 -1.63099 0.791729 0
M  V30 23618 C 2679.37 0.514351 3.56913 0
M  V30 23619 O 2678.48 -0.468603 4.09729 0
M  V30 23620 H 2677.82 0.170782 0.641661 0
M  V30 23621 H 2680.35 1.1043 1.72239 0
M  V30 23622 H 2680.36 0.387528 4.06155 0
M  V30 23623 H 2679.03 1.52381 3.86979 0
M  V30 23624 H 2677.61 -0.301251 3.71681 0
M  V30 23625 N 2679.8 -1.46924 0.570174 0
M  V30 23626 C 2681.02 -2.07329 0.0542956 0
M  V30 23627 C 2681.45 -1.41809 -1.2358 0
M  V30 23628 O 2680.8 -0.49751 -1.7434 0
M  V30 23629 C 2680.85 -3.60429 -0.111112 0
M  V30 23630 O 2679.96 -3.95436 -1.17064 0
M  V30 23631 H 2679.3 -0.661536 0.0571541 0
M  V30 23632 H 2681.83 -1.88752 0.789549 0
M  V30 23633 H 2681.84 -4.06733 -0.321244 0
M  V30 23634 H 2680.51 -4.07512 0.831084 0
M  V30 23635 H 2679.09 -3.60859 -0.939966 0
M  V30 23636 N 2681.27 -0.307291 -1.54575 0
M  V30 23637 C 2682.21 0.599768 -2.21214 0
M  V30 23638 C 2683.22 1.09264 -1.20687 0
M  V30 23639 O 2684.41 1.00901 -1.47246 0
M  V30 23640 C 2681.51 1.83384 -2.84998 0
M  V30 23641 C 2680.68 1.48241 -4.11514 0
M  V30 23642 C 2679.74 2.57229 -4.59042 0
M  V30 23643 O 2678.77 2.22056 -5.24099 0
M  V30 23644 N 2679.97 3.87879 -4.31891 0
M  V30 23645 H 2682.73 0.0292548 -2.99686 0
M  V30 23646 H 2680.29 -0.129767 -1.61379 0
M  V30 23647 H 2682.29 2.55654 -3.13724 0
M  V30 23648 H 2680.86 2.31259 -2.10328 0
M  V30 23649 H 2680.08 0.592053 -3.89729 0
M  V30 23650 H 2681.36 1.22307 -4.93881 0
M  V30 23651 H 2680.76 4.19261 -3.79785 0
M  V30 23652 H 2679.32 4.56429 -4.65312 0
M  V30 23653 N 2682.75 1.57561 -0.0351337 0
M  V30 23654 C 2683.98 1.9676 0.655767 0
M  V30 23655 C 2684.4 0.911837 1.64521 0
M  V30 23656 O 2683.76 -0.126642 1.80857 0
M  V30 23657 C 2683.81 3.35049 1.3332 0
M  V30 23658 O 2682.91 3.31839 2.4486 0
M  V30 23659 H 2682.25 0.641391 0.171795 0
M  V30 23660 H 2684.78 2.04361 -0.0987728 0
M  V30 23661 H 2684.79 3.71416 1.6886 0
M  V30 23662 H 2683.47 4.11432 0.607961 0
M  V30 23663 H 2682.04 3.07197 2.11387 0
M  V30 23664 N 2684.23 -0.238084 1.55791 0
M  V30 23665 C 2685.45 -0.9864 1.82442 0
M  V30 23666 C 2685.88 -1.77819 0.613345 0
M  V30 23667 O 2685.24 -1.75936 -0.437736 0
M  V30 23668 C 2685.29 -1.89295 3.0692 0
M  V30 23669 O 2684.39 -2.98596 2.84454 0
M  V30 23670 H 2683.73 -0.280207 0.60198 0
M  V30 23671 H 2686.26 -0.256402 2.02987 0
M  V30 23672 H 2686.27 -2.30593 3.36587 0
M  V30 23673 H 2684.95 -1.31084 3.94702 0
M  V30 23674 H 2683.52 -2.61363 2.65977 0
M  V30 23675 N 2685.71 -1.4932 -0.504115 0
M  V30 23676 C 2686.93 -1.62617 -1.28726 0
M  V30 23677 C 2687.36 -0.296342 -1.85751 0
M  V30 23678 O 2686.72 0.73562 -1.65706 0
M  V30 23679 C 2686.76 -2.69528 -2.39556 0
M  V30 23680 O 2685.87 -2.28484 -3.4332 0
M  V30 23681 H 2685.21 -0.544401 -0.380162 0
M  V30 23682 H 2687.74 -1.95486 -0.603838 0
M  V30 23683 H 2687.75 -2.916 -2.85365 0
M  V30 23684 H 2686.42 -3.66059 -1.97417 0
M  V30 23685 H 2685 -2.1673 -3.03451 0
M  V30 23686 N 2687.19 0.754933 -1.38342 0
M  V30 23687 C 2688.42 1.54193 -1.37507 0
M  V30 23688 C 2688.82 1.89163 0.0373454 0
M  V30 23689 O 2688.17 1.53179 1.01399 0
M  V30 23690 C 2688.23 2.87004 -2.16493 0
M  V30 23691 C 2687.89 2.74578 -3.65316 0
M  V30 23692 C 2688.89 2.44466 -4.58838 0
M  V30 23693 C 2686.57 2.92073 -4.08655 0
M  V30 23694 C 2688.57 2.32 -5.93679 0
M  V30 23695 C 2686.26 2.79227 -5.43576 0
M  V30 23696 C 2687.25 2.49234 -6.35902 0
M  V30 23697 O 2686.94 2.36444 -7.68342 0
M  V30 23698 H 2686.67 0.483771 -0.472167 0
M  V30 23699 H 2689.23 0.942178 -1.82516 0
M  V30 23700 H 2687.46 3.49163 -1.662 0
M  V30 23701 H 2689.15 3.48507 -2.08082 0
M  V30 23702 H 2689.91 2.30619 -4.26661 0
M  V30 23703 H 2685.79 3.14416 -3.3714 0
M  V30 23704 H 2689.34 2.0851 -6.6571 0
M  V30 23705 H 2685.23 2.92647 -5.7535 0
M  V30 23706 H 2686 2.51667 -7.78849 0
M  V30 23707 N 2688.66 1.23189 0.982967 0
M  V30 23708 C 2689.91 1.06034 1.7205 0
M  V30 23709 C 2690.23 -0.403986 1.90769 0
M  V30 23710 O 2689.5 -1.28979 1.47449 0
M  V30 23711 H 2688.08 0.389375 0.637492 0
M  V30 23712 H 2690.74 1.54864 1.18335 0
M  V30 23713 H 2689.84 1.5462 2.71107 0
M  V30 23714 N 2690.14 -1.18133 1.04318 0
M  V30 23715 C 2691.07 -2.21356 0.594483 0
M  V30 23716 C 2692.09 -1.5927 -0.337187 0
M  V30 23717 O 2693.28 -1.78016 -0.131306 0
M  V30 23718 C 2690.38 -3.38563 -0.151191 0
M  V30 23719 C 2689.55 -4.30225 0.788982 0
M  V30 23720 C 2688.61 -5.26129 0.0861497 0
M  V30 23721 O 2687.63 -5.64661 0.717401 0
M  V30 23722 N 2688.84 -5.68389 -1.17959 0
M  V30 23723 H 2691.6 -2.60476 1.48231 0
M  V30 23724 H 2689.16 -1.32944 0.923983 0
M  V30 23725 H 2691.15 -3.99746 -0.631282 0
M  V30 23726 H 2689.72 -2.98114 -0.940586 0
M  V30 23727 H 2688.94 -3.66608 1.44888 0
M  V30 23728 H 2690.23 -4.88365 1.42747 0
M  V30 23729 H 2689.63 -5.39143 -1.71293 0
M  V30 23730 H 2688.19 -6.31758 -1.60391 0
M  V30 23731 N 2691.62 -0.822988 -1.34405 0
M  V30 23732 C 2692.55 -0.202415 -2.28304 0
M  V30 23733 C 2693.57 0.607743 -1.51031 0
M  V30 23734 O 2694.75 0.437414 -1.73058 0
M  V30 23735 C 2691.85 0.734853 -3.30837 0
M  V30 23736 C 2691.03 -0.0324946 -4.37388 0
M  V30 23737 C 2690.09 0.825711 -5.19681 0
M  V30 23738 O 2689.11 0.270671 -5.68556 0
M  V30 23739 N 2690.31 2.14549 -5.39397 0
M  V30 23740 H 2693.08 -1.00914 -2.82199 0
M  V30 23741 H 2690.64 -0.679956 -1.46929 0
M  V30 23742 H 2692.63 1.31359 -3.82788 0
M  V30 23743 H 2691.2 1.44233 -2.77337 0
M  V30 23744 H 2690.42 -0.792537 -3.86151 0
M  V30 23745 H 2691.71 -0.560722 -5.05701 0
M  V30 23746 H 2691.11 2.62016 -5.01362 0
M  V30 23747 H 2689.67 2.67307 -5.94466 0
M  V30 23748 N 2693.1 1.4662 -0.577957 0
M  V30 23749 C 2694.35 2.02006 -0.0616015 0
M  V30 23750 C 2694.67 1.45242 1.30114 0
M  V30 23751 O 2693.94 0.635322 1.85312 0
M  V30 23752 H 2692.52 0.746738 -0.0197823 0
M  V30 23753 H 2695.18 1.7978 -0.752663 0
M  V30 23754 H 2694.28 3.12098 0.0109689 0
M  V30 23755 N 2694.58 0.315484 1.5441 0
M  V30 23756 C 2695.8 -0.29446 2.05299 0
M  V30 23757 C 2696.23 -1.45628 1.19055 0
M  V30 23758 O 2695.58 -1.80217 0.197835 0
M  V30 23759 C 2695.63 -0.714487 3.53451 0
M  V30 23760 O 2694.74 -1.81774 3.70178 0
M  V30 23761 H 2694.08 -0.0546902 0.661744 0
M  V30 23762 H 2696.61 0.461543 1.99326 0
M  V30 23763 H 2696.62 -0.999357 3.95572 0
M  V30 23764 H 2695.29 0.135317 4.1568 0
M  V30 23765 H 2693.87 -1.5323 3.39963 0
M  V30 23766 N 2696.05 -1.5754 0.0434891 0
M  V30 23767 C 2697.3 -1.92005 -0.630753 0
M  V30 23768 C 2697.62 -0.921838 -1.71835 0
M  V30 23769 O 2696.89 0.0344876 -1.9587 0
M  V30 23770 H 2695.47 -0.708749 -0.235975 0
M  V30 23771 H 2698.14 -1.9467 0.0946804 0
M  V30 23772 H 2697.23 -2.93028 -1.07429 0
M  V30 23773 N 2697.53 0.229818 -1.55915 0
M  V30 23774 C 2698.76 0.97671 -1.82962 0
M  V30 23775 C 2699.18 1.77491 -0.622767 0
M  V30 23776 O 2698.54 1.76166 0.4284 0
M  V30 23777 C 2698.59 1.87664 -3.0792 0
M  V30 23778 O 2697.69 2.97083 -2.86034 0
M  V30 23779 H 2697.03 0.277011 -0.603458 0
M  V30 23780 H 2699.56 0.245633 -2.0312 0
M  V30 23781 H 2699.57 2.28804 -3.37806 0
M  V30 23782 H 2698.25 1.28989 -3.95392 0
M  V30 23783 H 2696.83 2.59949 -2.67359 0
M  V30 23784 N 2699.01 1.49585 0.49619 0
M  V30 23785 C 2700.26 1.59 1.24754 0
M  V30 23786 C 2700.58 0.280809 1.92968 0
M  V30 23787 O 2699.85 -0.700166 1.8296 0
M  V30 23788 H 2698.43 0.585844 0.46346 0
M  V30 23789 H 2701.09 1.86236 0.574645 0
M  V30 23790 H 2700.19 2.3885 2.00891 0
M  V30 23791 N 2700.49 -0.747586 1.3874 0
M  V30 23792 C 2701.42 -1.8713 1.32344 0
M  V30 23793 C 2702.43 -1.61102 0.23453 0
M  V30 23794 O 2703.62 -1.7157 0.492546 0
M  V30 23795 C 2700.72 -3.22894 1.02921 0
M  V30 23796 C 2699.9 -3.76379 2.2284 0
M  V30 23797 C 2698.95 -4.90674 1.90068 0
M  V30 23798 O 2697.98 -5.04992 2.62624 0
M  V30 23799 N 2699.18 -5.74106 0.859242 0
M  V30 23800 H 2701.95 -1.93125 2.29178 0
M  V30 23801 H 2699.51 -0.927781 1.32679 0
M  V30 23802 H 2701.5 -3.96907 0.790379 0
M  V30 23803 H 2700.07 -3.12246 0.148627 0
M  V30 23804 H 2699.29 -2.93862 2.62752 0
M  V30 23805 H 2700.58 -4.08845 3.02858 0
M  V30 23806 H 2699.98 -5.65113 0.257663 0
M  V30 23807 H 2698.53 -6.4824 0.680303 0
M  V30 23808 N 2701.97 -1.23709 -0.97642 0
M  V30 23809 C 2703.19 -1.09925 -1.75873 0
M  V30 23810 C 2703.62 0.344858 -1.84912 0
M  V30 23811 O 2702.97 1.24951 -1.31365 0
M  V30 23812 C 2703.02 -1.73393 -3.16176 0
M  V30 23813 O 2702.13 -0.998781 -4.00123 0
M  V30 23814 H 2701.47 -0.385061 -0.540947 0
M  V30 23815 H 2704 -1.63842 -1.22543 0
M  V30 23816 H 2704.01 -1.78795 -3.66738 0
M  V30 23817 H 2702.68 -2.78471 -3.08912 0
M  V30 23818 H 2701.26 -1.022 -3.58622 0
M  V30 23819 N 2703.44 1.17579 -1.04943 0
M  V30 23820 C 2704.86 1.69417 -0.784531 0
M  V30 23821 C 2705.21 1.83531 0.693593 0
M  V30 23822 O 2704.33 1.52108 1.53922 0
M  V30 23823 C 2704.93 3.0772 -1.41752 0
M  V30 23824 C 2703.49 3.56735 -1.20072 0
M  V30 23825 C 2702.63 2.33058 -1.50264 0
M  V30 23826 H 2705.58 1.02131 -1.2147 0
M  V30 23827 H 2705.6 3.71439 -0.825447 0
M  V30 23828 H 2705.12 2.97415 -2.4933 0
M  V30 23829 H 2703.22 3.72321 -0.144071 0
M  V30 23830 H 2703.33 4.39645 -1.90392 0
M  V30 23831 H 2701.69 2.37401 -0.92264 0
M  V30 23832 H 2702.48 2.25364 -2.58971 0
M  V30 23833 N 2704.92 0.830104 1.33967 0
M  V30 23834 C 2706.15 0.433831 2.02812 0
M  V30 23835 C 2706.57 -0.954586 1.62078 0
M  V30 23836 O 2705.93 -1.6225 0.808983 0
M  V30 23837 C 2705.98 0.552178 3.56347 0
M  V30 23838 O 2705.08 -0.425119 4.10203 0
M  V30 23839 H 2704.42 0.177578 0.639814 0
M  V30 23840 H 2706.95 1.12251 1.71058 0
M  V30 23841 H 2706.96 0.430585 4.05722 0
M  V30 23842 H 2705.64 1.56477 3.85341 0
M  V30 23843 H 2704.22 -0.261812 3.7198 0
M  V30 23844 N 2706.4 -1.46311 0.585725 0
M  V30 23845 C 2707.82 -1.57667 0.247634 0
M  V30 23846 C 2708.02 -1.58039 -1.25004 0
M  V30 23847 O 2707.07 -1.49896 -2.03193 0
M  V30 23848 C 2708.39 -2.86931 0.899507 0
M  V30 23849 C 2709.93 -3.00568 0.873379 0
M  V30 23850 C 2710.41 -4.32572 1.50485 0
M  V30 23851 N 2711.9 -4.39278 1.46933 0
M  V30 23852 C 2712.64 -5.4004 1.92728 0
M  V30 23853 N 2712.13 -6.4746 2.4651 0
M  V30 23854 N 2713.92 -5.3126 1.83627 0
M  V30 23855 H 2706.08 -1.44314 1.55843 0
M  V30 23856 H 2708.34 -0.688587 0.651576 0
M  V30 23857 H 2708.04 -2.92479 1.95318 0
M  V30 23858 H 2707.92 -3.7497 0.409542 0
M  V30 23859 H 2710.31 -2.946 -0.171685 0
M  V30 23860 H 2710.39 -2.13997 1.40139 0
M  V30 23861 H 2710.03 -4.39297 2.54913 0
M  V30 23862 H 2709.96 -5.17923 0.952035 0
M  V30 23863 H 2712.45 -3.62251 1.07623 0
M  V30 23864 H 2712.76 -7.20562 2.79304 0
M  V30 23865 H 2711.11 -6.48271 2.50538 0
M  V30 23866 H 2714.3 -4.46244 1.41366 0
M  V30 23867 H 2714.47 -6.09644 2.19632 0
M  V30 23868 N 2707.88 -0.323668 -1.54241 0
M  V30 23869 C 2709.13 0.278324 -2.00174 0
M  V30 23870 C 2709.45 1.52646 -1.21343 0
M  V30 23871 O 2708.72 1.93346 -0.315278 0
M  V30 23872 H 2707.3 0.105832 -0.739465 0
M  V30 23873 H 2709.96 -0.440238 -1.89863 0
M  V30 23874 H 2709.06 0.534646 -3.07487 0
M  V30 23875 N 2709.36 1.57515 -0.0518432 0
M  V30 23876 C 2710.77 1.56664 0.304707 0
M  V30 23877 C 2710.97 1.05956 1.71393 0
M  V30 23878 O 2710.03 0.716457 2.42122 0
M  V30 23879 C 2711.34 3.00408 0.132562 0
M  V30 23880 C 2712.89 3.12337 0.203615 0
M  V30 23881 C 2713.37 4.57961 0.0599901 0
M  V30 23882 N 2714.86 4.63054 0.116245 0
M  V30 23883 C 2715.59 5.73393 0.0292355 0
M  V30 23884 N 2715.09 6.92712 -0.11016 0
M  V30 23885 N 2716.88 5.62036 0.0848663 0
M  V30 23886 H 2709.03 1.88798 -0.973089 0
M  V30 23887 H 2711.29 0.869468 -0.377796 0
M  V30 23888 H 2711 3.41544 -0.839079 0
M  V30 23889 H 2710.87 3.66469 0.893311 0
M  V30 23890 H 2713.26 2.71099 1.16573 0
M  V30 23891 H 2713.34 2.48953 -0.587901 0
M  V30 23892 H 2712.99 4.99884 -0.898802 0
M  V30 23893 H 2712.92 5.19353 0.870659 0
M  V30 23894 H 2715.41 3.7724 0.223204 0
M  V30 23895 H 2715.72 7.72615 -0.16924 0
M  V30 23896 H 2714.07 6.94848 -0.145254 0
M  V30 23897 H 2717.26 4.67705 0.192329 0
M  V30 23898 H 2717.43 6.47999 0.0135992 0
M  V30 23899 N 2710.84 -0.221546 1.56035 0
M  V30 23900 C 2711.79 -1.27804 1.88812 0
M  V30 23901 C 2712.77 -1.42288 0.751202 0
M  V30 23902 O 2713.96 -1.45103 1.01362 0
M  V30 23903 C 2711.09 -2.62846 2.20833 0
M  V30 23904 C 2710.18 -2.52263 3.40916 0
M  V30 23905 N 2710.57 -2.11332 4.59535 0
M  V30 23906 C 2708.87 -2.83222 3.44531 0
M  V30 23907 C 2709.57 -2.12001 5.41692 0
M  V30 23908 N 2708.54 -2.52489 4.81405 0
M  V30 23909 H 2712.34 -0.95248 2.78038 0
M  V30 23910 H 2709.86 -0.430107 1.56601 0
M  V30 23911 H 2711.86 -3.39123 2.42489 0
M  V30 23912 H 2710.52 -2.96247 1.3292 0
M  V30 23913 H 2711.53 -1.82463 4.84693 0
M  V30 23914 H 2708.2 -3.20995 2.66961 0
M  V30 23915 H 2709.59 -1.8248 6.46646 0
M  V30 23916 N 2712.31 -1.49846 -0.48825 0
M  V30 23917 C 2713.56 -1.59659 -1.23909 0
M  V30 23918 C 2713.88 -0.291039 -1.92816 0
M  V30 23919 O 2713.15 0.690453 -1.83329 0
M  V30 23920 H 2711.73 -0.588294 -0.460347 0
M  V30 23921 H 2714.39 -1.86538 -0.564761 0
M  V30 23922 H 2713.49 -2.39912 -1.99621 0
M  V30 23923 N 2713.79 0.740218 -1.39135 0
M  V30 23924 C 2715.02 1.53456 -1.3952 0
M  V30 23925 C 2715.44 1.88098 0.00965577 0
M  V30 23926 O 2714.8 1.51538 0.995285 0
M  V30 23927 C 2714.85 2.80196 -2.26986 0
M  V30 23928 O 2713.95 3.75905 -1.69615 0
M  V30 23929 H 2713.29 0.463628 -0.475336 0
M  V30 23930 H 2715.82 0.913685 -1.83065 0
M  V30 23931 H 2715.83 3.28985 -2.41315 0
M  V30 23932 H 2714.51 2.54315 -3.29085 0
M  V30 23933 H 2713.08 3.34655 -1.645 0
M  V30 23934 N 2715.27 1.24225 0.969846 0
M  V30 23935 C 2716.52 1.07853 1.70916 0
M  V30 23936 C 2716.84 -0.383729 1.91187 0
M  V30 23937 O 2716.11 -1.27408 1.48808 0
M  V30 23938 H 2714.69 0.396114 0.633327 0
M  V30 23939 H 2717.35 1.5611 1.16686 0
M  V30 23940 H 2716.45 1.57487 2.69452 0
M  V30 23941 N 2716.75 -1.1702 1.05565 0
M  V30 23942 C 2717.97 -1.91828 0.788471 0
M  V30 23943 C 2718.4 -1.765 -0.650325 0
M  V30 23944 O 2717.76 -1.0853 -1.45227 0
M  V30 23945 C 2717.8 -3.40793 1.17866 0
M  V30 23946 O 2716.91 -4.1121 0.313037 0
M  V30 23947 H 2716.25 -0.597903 0.288805 0
M  V30 23948 H 2718.78 -1.48304 1.4095 0
M  V30 23949 H 2718.79 -3.91544 1.14704 0
M  V30 23950 H 2717.46 -3.51269 2.22672 0
M  V30 23951 H 2716.04 -3.70688 0.40558 0
M  V30 23952 N 2718.23 -0.837197 -1.33524 0
M  V30 23953 C 2719.47 -0.431246 -1.97445 0
M  V30 23954 C 2719.79 1.01252 -1.66652 0
M  V30 23955 O 2719.06 1.70507 -0.964589 0
M  V30 23956 H 2717.64 -0.156476 -0.730427 0
M  V30 23957 H 2720.31 -1.06979 -1.62916 0
M  V30 23958 H 2719.4 -0.561931 -3.07 0
M  V30 23959 N 2719.7 1.45999 -0.593476 0
M  V30 23960 C 2720.65 2.27474 0.154711 0
M  V30 23961 C 2721.64 1.36502 0.851825 0
M  V30 23962 O 2722.83 1.60597 0.744143 0
M  V30 23963 C 2719.96 3.23082 1.16073 0
M  V30 23964 C 2719.04 4.21541 0.465182 0
M  V30 23965 N 2719.44 5.03467 -0.485286 0
M  V30 23966 C 2717.73 4.40239 0.714557 0
M  V30 23967 C 2718.43 5.74808 -0.89281 0
M  V30 23968 N 2717.41 5.43072 -0.239606 0
M  V30 23969 H 2721.21 2.8821 -0.57551 0
M  V30 23970 H 2718.73 1.5698 -0.416074 0
M  V30 23971 H 2720.72 3.80171 1.71102 0
M  V30 23972 H 2719.38 2.63906 1.89166 0
M  V30 23973 H 2720.39 5.10687 -0.861348 0
M  V30 23974 H 2717.07 3.92201 1.43124 0
M  V30 23975 H 2718.46 6.50663 -1.67592 0
M  V30 23976 N 2721.18 0.331843 1.54067 0
M  V30 23977 C 2722.41 -0.272669 2.056 0
M  V30 23978 C 2722.83 -1.44357 1.20593 0
M  V30 23979 O 2722.19 -1.79997 0.216939 0
M  V30 23980 C 2722.24 -0.676958 3.54189 0
M  V30 23981 O 2721.34 -1.77838 3.72085 0
M  V30 23982 H 2720.68 -0.0476685 0.662287 0
M  V30 23983 H 2723.21 0.482659 1.98825 0
M  V30 23984 H 2723.22 -0.957345 3.96609 0
M  V30 23985 H 2721.9 0.179398 4.15513 0
M  V30 23986 H 2720.48 -1.49616 3.41569 0
M  V30 23987 N 2722.66 -1.57485 0.0601958 0
M  V30 23988 C 2723.89 -1.97778 -0.624381 0
M  V30 23989 C 2724.31 -0.937896 -1.63049 0
M  V30 23990 O 2723.67 0.0978527 -1.81036 0
M  V30 23991 C 2723.72 -3.37128 -1.27973 0
M  V30 23992 O 2722.82 -3.35692 -2.3955 0
M  V30 23993 H 2722.16 -0.644043 -0.16157 0
M  V30 23994 H 2724.69 -2.04178 0.131272 0
M  V30 23995 H 2724.7 -3.74056 -1.6293 0
M  V30 23996 H 2723.38 -4.12348 -0.542428 0
M  V30 23997 H 2721.95 -3.10521 -2.06473 0
M  V30 23998 N 2724.14 0.213268 -1.5615 0
M  V30 23999 C 2725.36 0.95725 -1.83988 0
M  V30 24000 C 2725.79 1.76821 -0.641557 0
M  V30 24001 O 2725.15 1.7661 0.409691 0
M  V30 24002 C 2725.19 1.84388 -3.09893 0
M  V30 24003 O 2724.3 2.94033 -2.89168 0
M  V30 24004 H 2723.64 0.270595 -0.606362 0
M  V30 24005 H 2726.17 0.224076 -2.03369 0
M  V30 24006 H 2726.18 2.25209 -3.40213 0
M  V30 24007 H 2724.85 1.24788 -3.96738 0
M  V30 24008 H 2723.43 2.57098 -2.70101 0
M  V30 24009 N 2725.62 1.50103 0.480296 0
M  V30 24010 C 2726.85 1.64135 1.25472 0
M  V30 24011 C 2727.25 0.320305 1.86469 0
M  V30 24012 O 2726.6 -0.7067 1.69562 0
M  V30 24013 C 2726.66 2.66765 2.40991 0
M  V30 24014 C 2726.32 4.10569 2.00704 0
M  V30 24015 C 2727.32 4.96728 1.53483 0
M  V30 24016 C 2725.01 4.5643 2.09706 0
M  V30 24017 C 2727 6.26794 1.15795 0
M  V30 24018 C 2724.69 5.86504 1.71629 0
M  V30 24019 C 2725.68 6.7151 1.24751 0
M  V30 24020 O 2725.37 7.99157 0.871981 0
M  V30 24021 H 2725.1 0.554978 0.385973 0
M  V30 24022 H 2727.66 1.97017 0.580813 0
M  V30 24023 H 2725.89 2.29106 3.11524 0
M  V30 24024 H 2727.58 2.70111 3.02976 0
M  V30 24025 H 2728.34 4.62516 1.45958 0
M  V30 24026 H 2724.22 3.90417 2.45143 0
M  V30 24027 H 2727.77 6.93097 0.791344 0
M  V30 24028 H 2723.66 6.20239 1.78811 0
M  V30 24029 H 2724.43 8.12348 1.00164 0
M  V30 24030 N 2727.09 -0.732829 1.39526 0
M  V30 24031 C 2728.34 -1.48948 1.36597 0
M  V30 24032 C 2728.66 -1.94965 -0.0367165 0
M  V30 24033 O 2727.93 -1.6914 -0.988362 0
M  V30 24034 H 2726.51 -0.552557 0.502683 0
M  V30 24035 H 2729.18 -0.869839 1.74413 0
M  V30 24036 H 2728.27 -2.37057 2.03004 0
M  V30 24037 N 2728.57 -1.24737 -0.963244 0
M  V30 24038 C 2729.5 -1.00153 -2.0616 0
M  V30 24039 C 2730.52 0.0305619 -1.62771 0
M  V30 24040 O 2731.71 -0.206997 -1.77296 0
M  V30 24041 C 2728.81 -0.490444 -3.35332 0
M  V30 24042 C 2727.98 -1.58671 -4.07606 0
M  V30 24043 C 2727.04 -1.07749 -5.1505 0
M  V30 24044 O 2726.06 -1.77011 -5.40977 0
M  V30 24045 N 2727.27 0.0857585 -5.80437 0
M  V30 24046 H 2730.03 -1.94723 -2.27822 0
M  V30 24047 H 2727.59 -1.15827 -1.13119 0
M  V30 24048 H 2729.58 -0.134442 -4.04477 0
M  V30 24049 H 2728.15 0.361101 -3.10507 0
M  V30 24050 H 2727.37 -2.11469 -3.32678 0
M  V30 24051 H 2728.66 -2.32344 -4.52652 0
M  V30 24052 H 2728.06 0.664707 -5.61781 0
M  V30 24053 H 2726.62 0.382867 -6.50675 0
M  V30 24054 N 2730.05 1.16459 -1.06184 0
M  V30 24055 C 2731 2.18785 -0.641657 0
M  V30 24056 C 2731.98 1.5754 0.327094 0
M  V30 24057 O 2733.18 1.76424 0.142715 0
M  V30 24058 C 2730.31 3.43288 -0.0284338 0
M  V30 24059 C 2729.39 4.11611 -1.02161 0
M  V30 24060 N 2729.78 4.55604 -2.19679 0
M  V30 24061 C 2728.08 4.3778 -0.852306 0
M  V30 24062 C 2728.78 5.08445 -2.82592 0
M  V30 24063 N 2727.76 5.01262 -2.10326 0
M  V30 24064 H 2731.56 2.50514 -1.53689 0
M  V30 24065 H 2729.07 1.32898 -0.933373 0
M  V30 24066 H 2731.07 4.15887 0.290417 0
M  V30 24067 H 2729.73 3.13047 0.862063 0
M  V30 24068 H 2730.74 4.49371 -2.57461 0
M  V30 24069 H 2727.42 4.17498 -0.0137048 0
M  V30 24070 H 2728.81 5.52531 -3.82307 0
M  V30 24071 N 2731.53 0.844266 1.33079 0
M  V30 24072 C 2732.78 0.44171 1.97214 0
M  V30 24073 C 2733.1 -1.00367 1.67187 0
M  V30 24074 O 2732.37 -1.69993 0.973618 0
M  V30 24075 H 2730.95 0.160348 0.729587 0
M  V30 24076 H 2733.61 1.07841 1.62346 0
M  V30 24077 H 2732.71 0.578204 3.06697 0
M  V30 24078 N 2733.01 -1.45682 0.60121 0
M  V30 24079 C 2734.23 -2.07167 0.0982609 0
M  V30 24080 C 2734.66 -1.44398 -1.20544 0
M  V30 24081 O 2734.01 -0.534378 -1.73246 0
M  V30 24082 C 2734.06 -3.60583 -0.0346342 0
M  V30 24083 O 2733.17 -3.9783 -1.0865 0
M  V30 24084 H 2732.51 -0.660174 0.0711734 0
M  V30 24085 H 2735.04 -1.87035 0.829409 0
M  V30 24086 H 2735.05 -4.07323 -0.234897 0
M  V30 24087 H 2733.72 -4.05657 0.917336 0
M  V30 24088 H 2732.3 -3.62771 -0.863211 0
M  V30 24089 N 2734.48 -0.340009 -1.53889 0
M  V30 24090 C 2735.73 0.257077 -2.00458 0
M  V30 24091 C 2736.05 1.51351 -1.22955 0
M  V30 24092 O 2735.32 1.93001 -0.335768 0
M  V30 24093 H 2733.9 0.0979835 -0.740546 0
M  V30 24094 H 2736.57 -0.46035 -1.89385 0
M  V30 24095 H 2735.66 0.502002 -3.08036 0
M  V30 24096 N 2735.96 1.57451 -0.0685468 0
M  V30 24097 C 2737.19 1.98107 0.613884 0
M  V30 24098 C 2737.61 0.94653 1.6255 0
M  V30 24099 O 2736.97 -0.0882506 1.81085 0
M  V30 24100 C 2737.02 3.37802 1.26183 0
M  V30 24101 O 2736.12 3.36958 2.37767 0
M  V30 24102 H 2735.46 0.644891 0.158152 0
M  V30 24103 H 2737.99 2.04106 -0.142099 0
M  V30 24104 H 2738 3.74915 1.60944 0
M  V30 24105 H 2736.68 4.12629 0.520553 0
M  V30 24106 H 2735.26 3.11612 2.04823 0
M  V30 24107 N 2737.44 -0.204984 1.56261 0
M  V30 24108 C 2738.69 -0.925064 1.79686 0
M  V30 24109 C 2739.01 -1.84201 0.639922 0
M  V30 24110 O 2738.28 -1.92886 -0.342311 0
M  V30 24111 H 2736.86 -0.344575 0.66278 0
M  V30 24112 H 2739.52 -0.212865 1.93734 0
M  V30 24113 H 2738.62 -1.52206 2.72469 0
M  V30 24114 N 2738.92 -1.50356 -0.472329 0
M  V30 24115 C 2740.17 -1.6249 -1.22345 0
M  V30 24116 C 2740.52 -0.320607 -1.8971 0
M  V30 24117 O 2739.81 0.681378 -1.79075 0
M  V30 24118 C 2740.01 -2.74186 -2.29252 0
M  V30 24119 C 2739.84 -4.15351 -1.72375 0
M  V30 24120 C 2738.61 -4.81769 -1.52403 0
M  V30 24121 C 2740.8 -4.99635 -1.2194 0
M  V30 24122 N 2738.79 -6.07154 -0.907563 0
M  V30 24123 C 2740.16 -6.15734 -0.726083 0
M  V30 24124 C 2742.21 -4.85419 -1.10783 0
M  V30 24125 C 2740.92 -7.19179 -0.132196 0
M  V30 24126 C 2742.94 -5.89039 -0.527887 0
M  V30 24127 C 2742.3 -7.04386 -0.0449366 0
M  V30 24128 H 2738.4 -0.648759 -0.436619 0
M  V30 24129 H 2740.99 -1.8747 -0.525665 0
M  V30 24130 H 2739.16 -2.50931 -2.96459 0
M  V30 24131 H 2740.89 -2.75686 -2.96275 0
M  V30 24132 H 2737.64 -4.39042 -1.77592 0
M  V30 24133 H 2738.07 -6.74175 -0.617778 0
M  V30 24134 H 2742.71 -3.96528 -1.46715 0
M  V30 24135 H 2740.43 -8.07746 0.239329 0
M  V30 24136 H 2744.01 -5.80104 -0.443944 0
M  V30 24137 H 2742.89 -7.83195 0.396797 0
M  V30 24138 N 2740.4 0.725419 -1.39912 0
M  V30 24139 C 2741.62 1.51968 -1.4114 0
M  V30 24140 C 2742.05 1.88097 -0.010295 0
M  V30 24141 O 2741.41 1.52585 0.979157 0
M  V30 24142 C 2741.45 2.77773 -2.29945 0
M  V30 24143 O 2740.56 3.74085 -1.73593 0
M  V30 24144 H 2739.9 0.458561 -0.480227 0
M  V30 24145 H 2742.43 0.894217 -1.84024 0
M  V30 24146 H 2742.44 3.26407 -2.44791 0
M  V30 24147 H 2741.11 2.5081 -3.31764 0
M  V30 24148 H 2739.69 3.32891 -1.68041 0
M  V30 24149 N 2741.88 1.25246 0.956615 0
M  V30 24150 C 2743.1 1.12709 1.74102 0
M  V30 24151 C 2743.53 -0.315396 1.85437 0
M  V30 24152 O 2742.88 -1.22846 1.33337 0
M  V30 24153 C 2742.93 1.78401 3.13377 0
M  V30 24154 O 2742.04 1.06231 3.98483 0
M  V30 24155 H 2741.38 0.393618 0.534753 0
M  V30 24156 H 2743.91 1.65771 1.19921 0
M  V30 24157 H 2743.92 1.84606 3.63847 0
M  V30 24158 H 2742.59 2.8335 3.04443 0
M  V30 24159 H 2741.17 1.07892 3.56951 0
M  V30 24160 N 2743.35 -1.15894 1.068 0
M  V30 24161 C 2744.58 -1.90981 0.808773 0
M  V30 24162 C 2745 -1.7718 -0.631568 0
M  V30 24163 O 2744.36 -1.10064 -1.44068 0
M  V30 24164 C 2744.41 -3.39524 1.21474 0
M  V30 24165 O 2743.51 -4.10855 0.356634 0
M  V30 24166 H 2742.85 -0.594806 0.29513 0
M  V30 24167 H 2745.38 -1.46801 1.42515 0
M  V30 24168 H 2745.39 -3.90306 1.18851 0
M  V30 24169 H 2744.07 -3.48888 2.26385 0
M  V30 24170 H 2742.65 -3.70237 0.444874 0
M  V30 24171 N 2744.83 -0.851312 -1.32629 0
M  V30 24172 C 2746.06 -0.466042 -2.02096 0
M  V30 24173 C 2746.48 0.92868 -1.63576 0
M  V30 24174 O 2745.84 1.60943 -0.834694 0
M  V30 24175 C 2745.89 -0.6088 -3.55424 0
M  V30 24176 O 2744.99 0.359806 -4.10827 0
M  V30 24177 H 2744.33 -0.187735 -0.636908 0
M  V30 24178 H 2746.86 -1.14958 -1.69251 0
M  V30 24179 H 2746.87 -0.495077 -4.04985 0
M  V30 24180 H 2745.55 -1.62588 -3.82803 0
M  V30 24181 H 2744.12 0.202601 -3.72349 0
M  V30 24182 N 2746.31 1.45361 -0.608928 0
M  V30 24183 C 2747.56 2.0183 -0.104436 0
M  V30 24184 C 2747.88 1.47969 1.27004 0
M  V30 24185 O 2747.15 0.674487 1.83922 0
M  V30 24186 H 2745.73 0.74615 -0.0356173 0
M  V30 24187 H 2748.39 1.78143 -0.790627 0
M  V30 24188 H 2747.49 3.12051 -0.0552341 0
M  V30 24189 N 2747.79 0.348166 1.53706 0
M  V30 24190 C 2749.2 -0.00358329 1.596 0
M  V30 24191 C 2749.4 -1.48318 1.36397 0
M  V30 24192 O 2748.46 -2.24251 1.1605 0
M  V30 24193 C 2749.77 0.436735 2.97512 0
M  V30 24194 C 2751.32 0.389471 3.10567 0
M  V30 24195 C 2751.8 0.805328 4.50864 0
M  V30 24196 N 2753.29 0.759697 4.56928 0
M  V30 24197 C 2754.02 1.05337 5.63641 0
M  V30 24198 N 2753.52 1.41543 6.78187 0
M  V30 24199 N 2755.31 0.977305 5.53539 0
M  V30 24200 H 2747.46 1.31189 1.67042 0
M  V30 24201 H 2749.72 0.535089 0.782549 0
M  V30 24202 H 2749.43 1.46855 3.19572 0
M  V30 24203 H 2749.3 -0.185678 3.76743 0
M  V30 24204 H 2751.69 -0.633178 2.88227 0
M  V30 24205 H 2751.77 1.04715 2.33385 0
M  V30 24206 H 2751.42 1.82601 4.7394 0
M  V30 24207 H 2751.35 0.125081 5.26451 0
M  V30 24208 H 2753.84 0.492716 3.74674 0
M  V30 24209 H 2754.15 1.62424 7.55538 0
M  V30 24210 H 2752.5 1.45393 6.79622 0
M  V30 24211 H 2755.69 0.693756 4.6293 0
M  V30 24212 H 2755.86 1.20952 6.36612 0
M  V30 24213 N 2749.27 -1.57412 0.0768958 0
M  V30 24214 C 2750.22 -2.09538 -0.898758 0
M  V30 24215 C 2751.2 -1.00622 -1.25555 0
M  V30 24216 O 2752.39 -1.26924 -1.23367 0
M  V30 24217 C 2749.52 -2.66468 -2.16448 0
M  V30 24218 C 2748.61 -3.82397 -1.83395 0
M  V30 24219 N 2749 -4.91159 -1.20814 0
M  V30 24220 C 2747.3 -3.91788 -2.13115 0
M  V30 24221 C 2748 -5.71967 -1.05966 0
M  V30 24222 N 2746.97 -5.20403 -1.57104 0
M  V30 24223 H 2750.77 -2.91017 -0.410667 0
M  V30 24224 H 2748.29 -1.61904 -0.126849 0
M  V30 24225 H 2750.29 -3.0213 -2.87268 0
M  V30 24226 H 2748.95 -1.86438 -2.6584 0
M  V30 24227 H 2749.96 -5.10418 -0.877159 0
M  V30 24228 H 2746.63 -3.22741 -2.64848 0
M  V30 24229 H 2748.02 -6.69463 -0.571692 0
M  V30 24230 N 2750.74 0.196695 -1.56368 0
M  V30 24231 C 2751.99 0.915522 -1.80174 0
M  V30 24232 C 2752.31 1.83859 -0.649682 0
M  V30 24233 O 2751.58 1.93065 0.332077 0
M  V30 24234 H 2750.16 0.341055 -0.664598 0
M  V30 24235 H 2752.83 0.202588 -1.93844 0
M  V30 24236 H 2751.92 1.50759 -2.73273 0
M  V30 24237 N 2752.22 1.50604 0.464349 0
M  V30 24238 C 2753.45 1.65973 1.24369 0
M  V30 24239 C 2753.87 0.345486 1.849 0
M  V30 24240 O 2753.23 -0.691427 1.67598 0
M  V30 24241 C 2753.28 2.75784 2.32326 0
M  V30 24242 O 2752.38 2.37506 3.37142 0
M  V30 24243 H 2751.72 0.554289 0.365595 0
M  V30 24244 H 2754.25 1.97019 0.551796 0
M  V30 24245 H 2754.26 2.99064 2.77534 0
M  V30 24246 H 2752.94 3.71165 1.87642 0
M  V30 24247 H 2751.52 2.24699 2.97598 0
M  V30 24248 N 2753.7 -0.717989 1.40295 0
M  V30 24249 C 2754.95 -1.47491 1.38169 0
M  V30 24250 C 2755.27 -1.94993 -0.0160357 0
M  V30 24251 O 2754.54 -1.70178 -0.970367 0
M  V30 24252 H 2753.12 -0.547194 0.508515 0
M  V30 24253 H 2755.78 -0.851291 1.75326 0
M  V30 24254 H 2754.88 -2.3489 2.05507 0
M  V30 24255 N 2755.18 -1.25752 -0.94996 0
M  V30 24256 C 2756.4 -1.13631 -1.73501 0
M  V30 24257 C 2756.83 0.305557 -1.85602 0
M  V30 24258 O 2756.19 1.22137 -1.33986 0
M  V30 24259 C 2756.23 -1.80061 -3.12427 0
M  V30 24260 O 2755.34 -1.08343 -3.97914 0
M  V30 24261 H 2754.68 -0.396449 -0.532658 0
M  V30 24262 H 2757.21 -1.66405 -1.1904 0
M  V30 24263 H 2757.22 -1.86533 -3.62863 0
M  V30 24264 H 2755.89 -2.84961 -3.02936 0
M  V30 24265 H 2754.47 -1.09784 -3.56373 0
M  V30 24266 N 2756.66 1.15326 -1.07413 0
M  V30 24267 C 2757.9 1.85759 -0.796106 0
M  V30 24268 C 2758.23 1.82766 0.679832 0
M  V30 24269 O 2757.5 1.26903 1.4924 0
M  V30 24270 H 2756.08 0.687774 -0.291507 0
M  V30 24271 H 2758.74 1.398 -1.35801 0
M  V30 24272 H 2757.83 2.90879 -1.13119 0
M  V30 24273 N 2758.13 0.858334 1.32176 0
M  V30 24274 C 2759.07 0.262875 2.27688 0
M  V30 24275 C 2760.08 -0.567487 1.52589 0
M  V30 24276 O 2761.27 -0.391377 1.74157 0
M  V30 24277 C 2758.37 -0.646879 3.32669 0
M  V30 24278 C 2757.54 0.148449 4.37148 0
M  V30 24279 C 2756.6 -0.687637 5.21688 0
M  V30 24280 O 2755.63 -0.119834 5.69074 0
M  V30 24281 N 2756.83 -2.00172 5.44896 0
M  V30 24282 H 2759.59 1.08361 2.79424 0
M  V30 24283 H 2757.15 0.718673 1.45075 0
M  V30 24284 H 2759.15 -1.21164 3.86137 0
M  V30 24285 H 2757.72 -1.36829 2.81063 0
M  V30 24286 H 2756.94 0.894639 3.83914 0
M  V30 24287 H 2758.22 0.694603 5.04036 0
M  V30 24288 H 2757.62 -2.48632 5.08133 0
M  V30 24289 H 2756.18 -2.51452 6.01344 0
M  V30 24290 N 2759.61 -1.45036 0.616628 0
M  V30 24291 C 2760.84 -2.07051 0.120228 0
M  V30 24292 C 2761.26 -1.45668 -1.19006 0
M  V30 24293 O 2760.62 -0.552723 -1.72669 0
M  V30 24294 C 2760.67 -3.606 0.00361239 0
M  V30 24295 O 2759.77 -3.9896 -1.04424 0
M  V30 24296 H 2759.11 -0.659382 0.0781715 0
M  V30 24297 H 2761.64 -1.86144 0.8492 0
M  V30 24298 H 2761.65 -4.07549 -0.191682 0
M  V30 24299 H 2760.33 -4.04661 0.96031 0
M  V30 24300 H 2758.91 -3.63667 -0.824686 0
M  V30 24301 N 2761.09 -0.356312 -1.53519 0
M  V30 24302 C 2762.32 0.239925 -2.06008 0
M  V30 24303 C 2762.74 1.4242 -1.22874 0
M  V30 24304 O 2762.1 1.79629 -0.245547 0
M  V30 24305 C 2762.15 0.620524 -3.55221 0
M  V30 24306 O 2761.25 1.71896 -3.74867 0
M  V30 24307 H 2760.59 0.0371261 -0.662961 0
M  V30 24308 H 2763.12 -0.514229 -1.98032 0
M  V30 24309 H 2763.13 0.894127 -3.98082 0
M  V30 24310 H 2761.81 -0.24548 -4.15175 0
M  V30 24311 H 2760.38 1.44163 -3.43906 0
M  V30 24312 N 2762.57 1.57369 -0.0852427 0
M  V30 24313 C 2763.82 1.9361 0.579624 0
M  V30 24314 C 2764.14 0.967072 1.6933 0
M  V30 24315 O 2763.41 0.0174559 1.95892 0
M  V30 24316 H 2761.99 0.714756 0.217101 0
M  V30 24317 H 2764.65 1.9435 -0.14626 0
M  V30 24318 H 2763.75 2.95773 0.996224 0
M  V30 24319 N 2764.05 -0.188399 1.5647 0
M  V30 24320 C 2765.29 -0.907747 1.81014 0
M  V30 24321 C 2765.62 -1.82975 0.659562 0
M  V30 24322 O 2764.88 -1.92467 -0.354274 0
M  V30 24323 C 2765.18 -1.75045 3.11599 0
M  V30 24324 C 2764.84 -0.978845 4.40147 0
M  V30 24325 C 2763.5 -0.765828 4.75067 0
M  V30 24326 C 2765.86 -0.436406 5.1937 0
M  V30 24327 C 2763.18 0.00100181 5.867 0
M  V30 24328 C 2765.54 0.317247 6.31804 0
M  V30 24329 C 2764.2 0.54122 6.65302 0
M  V30 24330 H 2763.47 -0.332168 0.662379 0
M  V30 24331 H 2766.12 -0.173699 1.90711 0
M  V30 24332 H 2764.42 -2.55338 2.9717 0
M  V30 24333 H 2766.12 -2.30977 3.27797 0
M  V30 24334 H 2762.71 -1.15489 4.12747 0
M  V30 24335 H 2766.89 -0.588363 4.928 0
M  V30 24336 H 2762.15 0.184436 6.11122 0
M  V30 24337 H 2766.32 0.744909 6.92405 0
M  V30 24338 H 2763.95 1.13731 7.51644 0
M  V30 24339 N 2765.53 -1.50848 -0.456355 0
M  V30 24340 C 2766.77 -1.62252 -1.20494 0
M  V30 24341 C 2767.09 -0.331872 -1.92155 0
M  V30 24342 O 2766.36 0.651411 -1.84752 0
M  V30 24343 H 2764.94 -0.597926 -0.447765 0
M  V30 24344 H 2767.61 -1.87694 -0.525066 0
M  V30 24345 H 2766.7 -2.44092 -1.94487 0
M  V30 24346 N 2767 0.710538 -1.40674 0
M  V30 24347 C 2767.95 1.81634 -1.37815 0
M  V30 24348 C 2768.94 1.58868 -0.254881 0
M  V30 24349 O 2770.13 1.69955 -0.494386 0
M  V30 24350 C 2767.26 3.19809 -1.24808 0
M  V30 24351 C 2766.34 3.48321 -2.41937 0
M  V30 24352 N 2766.74 3.47618 -3.67417 0
M  V30 24353 C 2765.03 3.78802 -2.35426 0
M  V30 24354 C 2765.73 3.74615 -4.45015 0
M  V30 24355 N 2764.71 3.93616 -3.74923 0
M  V30 24356 H 2768.51 1.79432 -2.32769 0
M  V30 24357 H 2766.03 0.909885 -1.34517 0
M  V30 24358 H 2768.02 3.99002 -1.20842 0
M  V30 24359 H 2766.68 3.23233 -0.308259 0
M  V30 24360 H 2767.69 3.28349 -4.00509 0
M  V30 24361 H 2764.37 3.89686 -1.49837 0
M  V30 24362 H 2765.76 3.80335 -5.53891 0
M  V30 24363 N 2768.48 1.26254 0.943277 0
M  V30 24364 C 2769.43 1.04301 2.02745 0
M  V30 24365 C 2770.42 -0.0239152 1.60882 0
M  V30 24366 O 2771.61 0.192788 1.75947 0
M  V30 24367 C 2768.74 0.675759 3.36583 0
M  V30 24368 C 2767.82 1.78003 3.84936 0
M  V30 24369 N 2768.21 3.01711 4.05961 0
M  V30 24370 C 2766.51 1.66315 4.1383 0
M  V30 24371 C 2767.21 3.73466 4.4598 0
M  V30 24372 N 2766.19 3.01143 4.52564 0
M  V30 24373 H 2769.99 1.98203 2.17009 0
M  V30 24374 H 2767.5 1.1674 1.12896 0
M  V30 24375 H 2769.5 0.499643 4.13895 0
M  V30 24376 H 2768.16 -0.255806 3.23691 0
M  V30 24377 H 2769.17 3.37638 3.9271 0
M  V30 24378 H 2765.85 0.801339 4.09737 0
M  V30 24379 H 2767.24 4.79709 4.70456 0
M  V30 24380 N 2769.96 -1.14755 1.08024 0
M  V30 24381 C 2770.87 -2.23332 0.718331 0
M  V30 24382 C 2771.89 -1.71838 -0.273447 0
M  V30 24383 O 2773.06 -2.01052 -0.11837 0
M  V30 24384 C 2770.13 -3.4646 0.128916 0
M  V30 24385 C 2769.19 -4.12913 1.17481 0
M  V30 24386 C 2768.42 -5.30163 0.613423 0
M  V30 24387 O 2768.64 -5.67561 -0.568358 0
M  V30 24388 O 2767.58 -5.86297 1.3616 0
M  V30 24389 H 2771.4 -2.56633 1.62399 0
M  V30 24390 H 2768.99 -1.2261 0.853649 0
M  V30 24391 H 2770.87 -4.20938 -0.197175 0
M  V30 24392 H 2769.55 -3.14893 -0.749959 0
M  V30 24393 H 2768.45 -3.40325 1.55336 0
M  V30 24394 H 2769.79 -4.48577 2.02582 0
M  V30 24395 N 2771.44 -0.865331 -1.31719 0
M  V30 24396 C 2772.66 -0.487451 -2.0159 0
M  V30 24397 C 2773.09 0.911278 -1.64552 0
M  V30 24398 O 2772.45 1.60048 -0.851717 0
M  V30 24399 C 2772.49 -0.646463 -3.54758 0
M  V30 24400 O 2771.6 0.316212 -4.11186 0
M  V30 24401 H 2770.94 -0.194479 -0.634881 0
M  V30 24402 H 2773.47 -1.16747 -1.68022 0
M  V30 24403 H 2773.48 -0.538003 -4.04437 0
M  V30 24404 H 2772.15 -1.66639 -3.81057 0
M  V30 24405 H 2770.73 0.163097 -3.72543 0
M  V30 24406 N 2772.92 1.44707 -0.624311 0
M  V30 24407 C 2774.14 2.06985 -0.131207 0
M  V30 24408 C 2774.57 1.46298 1.18231 0
M  V30 24409 O 2773.92 0.561872 1.72374 0
M  V30 24410 C 2773.97 3.60593 -0.0227358 0
M  V30 24411 O 2773.08 3.99508 1.02307 0
M  V30 24412 H 2772.42 0.658959 -0.0816672 0
M  V30 24413 H 2774.95 1.85691 -0.85906 0
M  V30 24414 H 2774.96 4.07645 0.170066 0
M  V30 24415 H 2773.63 4.04146 -0.981757 0
M  V30 24416 H 2772.21 3.64099 0.805388 0
M  V30 24417 N 2774.39 0.364449 1.53328 0
M  V30 24418 C 2775.62 -0.228997 2.06132 0
M  V30 24419 C 2776.04 -1.41767 1.23628 0
M  V30 24420 O 2775.4 -1.79497 0.25507 0
M  V30 24421 C 2775.45 -0.601678 3.55545 0
M  V30 24422 O 2774.55 -1.69905 3.75774 0
M  V30 24423 H 2773.89 -0.0336097 0.663149 0
M  V30 24424 H 2776.42 0.524724 1.97757 0
M  V30 24425 H 2776.43 -0.873003 3.98551 0
M  V30 24426 H 2775.11 0.267494 4.15039 0
M  V30 24427 H 2773.69 -1.42337 3.44666 0
M  V30 24428 N 2775.87 -1.57322 0.0935872 0
M  V30 24429 C 2777.12 -1.95389 -0.5652 0
M  V30 24430 C 2777.47 -0.974661 -1.65886 0
M  V30 24431 O 2776.77 -0.000410064 -1.916 0
M  V30 24432 C 2776.96 -3.37815 -1.16686 0
M  V30 24433 C 2776.79 -4.49503 -0.133012 0
M  V30 24434 C 2775.56 -5.04467 0.289972 0
M  V30 24435 C 2777.76 -5.10325 0.638231 0
M  V30 24436 N 2775.74 -5.99711 1.31224 0
M  V30 24437 C 2777.11 -6.01271 1.51237 0
M  V30 24438 C 2779.16 -4.93069 0.691914 0
M  V30 24439 C 2777.87 -6.76814 2.43548 0
M  V30 24440 C 2779.89 -5.69272 1.60261 0
M  V30 24441 C 2779.26 -6.59884 2.46439 0
M  V30 24442 H 2775.35 -0.761659 -0.177199 0
M  V30 24443 H 2777.94 -1.93905 0.175803 0
M  V30 24444 H 2776.11 -3.39996 -1.87769 0
M  V30 24445 H 2777.84 -3.63066 -1.78789 0
M  V30 24446 H 2774.6 -4.735 -0.0974709 0
M  V30 24447 H 2775.02 -6.52034 1.82154 0
M  V30 24448 H 2779.66 -4.22781 0.0398174 0
M  V30 24449 H 2777.38 -7.46365 3.09783 0
M  V30 24450 H 2780.97 -5.57934 1.64927 0
M  V30 24451 H 2779.85 -7.17818 3.15764 0
M  V30 24452 N 2777.35 0.180099 -1.56568 0
M  V30 24453 C 2778.28 1.24748 -1.92277 0
M  V30 24454 C 2779.29 1.40934 -0.814947 0
M  V30 24455 O 2780.48 1.41093 -1.09338 0
M  V30 24456 C 2777.58 2.61748 -2.1527 0
M  V30 24457 C 2776.76 2.66975 -3.46472 0
M  V30 24458 C 2775.82 3.85276 -3.58397 0
M  V30 24459 O 2774.84 3.71682 -4.31093 0
M  V30 24460 N 2776.04 5.01366 -2.92595 0
M  V30 24461 H 2778.81 0.944252 -2.84436 0
M  V30 24462 H 2776.37 0.369925 -1.57617 0
M  V30 24463 H 2778.36 3.39341 -2.20521 0
M  V30 24464 H 2776.93 2.84497 -1.29538 0
M  V30 24465 H 2776.15 1.75543 -3.52956 0
M  V30 24466 H 2777.44 2.67471 -4.32824 0
M  V30 24467 H 2776.84 5.15312 -2.33389 0
M  V30 24468 H 2775.39 5.76853 -3.03454 0
M  V30 24469 N 2778.83 1.51088 0.448349 0
M  V30 24470 C 2780.05 1.67283 1.22602 0
M  V30 24471 C 2780.48 0.365078 1.84523 0
M  V30 24472 O 2779.84 -0.673612 1.68322 0
M  V30 24473 C 2779.88 2.78233 2.29388 0
M  V30 24474 O 2778.99 2.41069 3.34604 0
M  V30 24475 H 2778.33 0.558136 0.359695 0
M  V30 24476 H 2780.86 1.97593 0.530868 0
M  V30 24477 H 2780.87 3.0199 2.74346 0
M  V30 24478 H 2779.54 3.73134 1.83694 0
M  V30 24479 H 2778.12 2.27843 2.95198 0
M  V30 24480 N 2780.31 -0.703068 1.41049 0
M  V30 24481 C 2781.53 -1.49703 1.4354 0
M  V30 24482 C 2781.96 -1.88057 0.0402184 0
M  V30 24483 O 2781.31 -1.54124 -0.954758 0
M  V30 24484 C 2781.36 -2.74079 2.34335 0
M  V30 24485 O 2780.47 -3.71276 1.79522 0
M  V30 24486 H 2779.81 -0.450863 0.487462 0
M  V30 24487 H 2782.34 -0.864827 1.85424 0
M  V30 24488 H 2782.35 -3.22471 2.49953 0
M  V30 24489 H 2781.02 -2.455 3.35712 0
M  V30 24490 H 2779.6 -3.30176 1.73315 0
M  V30 24491 N 2781.78 -1.26752 -0.936569 0
M  V30 24492 C 2783.03 -1.12346 -1.67996 0
M  V30 24493 C 2783.35 0.332905 -1.92137 0
M  V30 24494 O 2782.62 1.23418 -1.52134 0
M  V30 24495 H 2781.2 -0.412767 -0.622602 0
M  V30 24496 H 2783.87 -1.59149 -1.12506 0
M  V30 24497 H 2782.96 -1.64576 -2.65182 0
M  V30 24498 N 2783.26 1.1418 -1.08631 0
M  V30 24499 C 2784.49 1.88855 -0.837706 0
M  V30 24500 C 2784.9 1.7896 0.613992 0
M  V30 24501 O 2784.24 1.14836 1.43382 0
M  V30 24502 C 2784.31 3.39457 -1.18361 0
M  V30 24503 C 2783.97 3.73135 -2.63855 0
M  V30 24504 C 2784.97 3.73062 -3.62106 0
M  V30 24505 C 2782.65 4.03044 -2.99768 0
M  V30 24506 C 2784.65 4.02426 -4.94299 0
M  V30 24507 C 2782.33 4.32071 -4.32155 0
M  V30 24508 C 2783.33 4.31746 -5.2923 0
M  V30 24509 O 2783.02 4.60067 -6.59237 0
M  V30 24510 H 2782.75 0.604981 -0.30162 0
M  V30 24511 H 2785.3 1.45516 -1.44963 0
M  V30 24512 H 2783.53 3.83259 -0.514696 0
M  V30 24513 H 2785.22 3.95442 -0.91546 0
M  V30 24514 H 2785.99 3.5004 -3.35704 0
M  V30 24515 H 2781.87 4.02449 -2.24847 0
M  V30 24516 H 2785.41 4.02088 -5.70062 0
M  V30 24517 H 2781.31 4.54563 -4.58304 0
M  V30 24518 H 2782.08 4.77773 -6.64586 0
M  V30 24519 N 2784.74 0.872304 1.31258 0
M  V30 24520 C 2785.97 0.498942 2.00794 0
M  V30 24521 C 2786.38 -0.909209 1.65466 0
M  V30 24522 O 2785.74 -1.596 0.885101 0
M  V30 24523 C 2785.79 0.649155 3.55624 0
M  V30 24524 O 2785.51 2.00185 3.89689 0
M  V30 24525 C 2787.01 0.277112 4.42433 0
M  V30 24526 H 2784.23 0.194157 0.642296 0
M  V30 24527 H 2786.78 1.17411 1.67436 0
M  V30 24528 H 2784.93 0.0215083 3.87394 0
M  V30 24529 H 2785.35 2.01131 4.84403 0
M  V30 24530 H 2786.82 0.433161 5.50298 0
M  V30 24531 H 2787.3 -0.783913 4.32147 0
M  V30 24532 H 2787.9 0.880556 4.16084 0
M  V30 24533 N 2786.22 -1.44374 0.631976 0
M  V30 24534 C 2787.15 -2.28932 -0.11087 0
M  V30 24535 C 2788.16 -1.4133 -0.808061 0
M  V30 24536 O 2789.35 -1.65474 -0.669367 0
M  V30 24537 C 2786.45 -3.17722 -1.17923 0
M  V30 24538 C 2785.63 -4.33744 -0.564381 0
M  V30 24539 C 2784.68 -5.03562 -1.52681 0
M  V30 24540 O 2783.71 -5.59551 -1.04362 0
M  V30 24541 N 2784.91 -5.05093 -2.86114 0
M  V30 24542 H 2787.68 -2.93326 0.614809 0
M  V30 24543 H 2785.24 -1.5483 0.473199 0
M  V30 24544 H 2787.23 -3.61295 -1.82341 0
M  V30 24545 H 2785.8 -2.55072 -1.80712 0
M  V30 24546 H 2785.02 -3.93352 0.258442 0
M  V30 24547 H 2786.31 -5.08623 -0.134265 0
M  V30 24548 H 2785.71 -4.60939 -3.27951 0
M  V30 24549 H 2784.26 -5.52451 -3.45891 0
M  V30 24550 N 2787.7 -0.372575 -1.53133 0
M  V30 24551 C 2788.65 0.487179 -2.22734 0
M  V30 24552 C 2789.63 1.0431 -1.22508 0
M  V30 24553 O 2790.82 0.971979 -1.47924 0
M  V30 24554 C 2787.95 1.62273 -3.02527 0
M  V30 24555 C 2787.04 1.07935 -4.10135 0
M  V30 24556 N 2787.43 0.25954 -5.05134 0
M  V30 24557 C 2785.73 1.35349 -4.24967 0
M  V30 24558 C 2786.43 -0.0387679 -5.81687 0
M  V30 24559 N 2785.4 0.560732 -5.407 0
M  V30 24560 H 2789.21 -0.145904 -2.93538 0
M  V30 24561 H 2786.72 -0.180967 -1.61389 0
M  V30 24562 H 2788.72 2.2509 -3.50913 0
M  V30 24563 H 2787.38 2.2588 -2.33256 0
M  V30 24564 H 2788.39 -0.101837 -5.178 0
M  V30 24565 H 2785.06 1.99183 -3.66923 0
M  V30 24566 H 2786.45 -0.701958 -6.68223 0
M  V30 24567 N 2789.17 1.5727 -0.101929 0
M  V30 24568 C 2790.42 1.94214 0.559057 0
M  V30 24569 C 2790.74 0.984978 1.68295 0
M  V30 24570 O 2790.01 0.0382319 1.95863 0
M  V30 24571 H 2788.59 0.717018 0.209508 0
M  V30 24572 H 2791.26 1.94184 -0.166866 0
M  V30 24573 H 2790.35 2.96813 0.964798 0
M  V30 24574 N 2790.65 -0.171793 1.56661 0
M  V30 24575 C 2791.88 -0.908132 1.86461 0
M  V30 24576 C 2792.3 -1.75058 0.688212 0
M  V30 24577 O 2791.66 -1.77635 -0.362722 0
M  V30 24578 C 2791.71 -1.76107 3.14672 0
M  V30 24579 O 2790.81 -2.86263 2.96863 0
M  V30 24580 H 2790.15 -0.254423 0.613323 0
M  V30 24581 H 2792.68 -0.170077 2.03892 0
M  V30 24582 H 2792.69 -2.16109 3.46065 0
M  V30 24583 H 2791.37 -1.14226 3.99907 0
M  V30 24584 H 2789.95 -2.49847 2.76823 0
M  V30 24585 N 2792.13 -1.51324 -0.44033 0
M  V30 24586 C 2793.38 -1.6352 -1.18767 0
M  V30 24587 C 2793.7 -0.352234 -1.91792 0
M  V30 24588 O 2792.97 0.631779 -1.85433 0
M  V30 24589 H 2791.55 -0.602642 -0.441398 0
M  V30 24590 H 2794.21 -1.8824 -0.505129 0
M  V30 24591 H 2793.31 -2.46141 -1.91887 0
M  V30 24592 N 2793.61 0.695578 -1.41419 0
M  V30 24593 C 2794.83 1.4894 -1.44332 0
M  V30 24594 C 2795.26 1.88033 -0.0501909 0
M  V30 24595 O 2794.62 1.54628 0.946571 0
M  V30 24596 C 2794.66 2.72833 -2.35785 0
M  V30 24597 O 2793.77 3.70318 -1.81488 0
M  V30 24598 H 2793.11 0.448271 -0.489846 0
M  V30 24599 H 2795.64 0.854982 -1.8588 0
M  V30 24600 H 2795.65 3.21141 -2.51659 0
M  V30 24601 H 2794.32 2.43716 -3.37009 0
M  V30 24602 H 2792.9 3.29252 -1.75064 0
M  V30 24603 N 2795.09 1.27247 0.929833 0
M  V30 24604 C 2796.34 1.13236 1.67398 0
M  V30 24605 C 2796.66 -0.32271 1.92311 0
M  V30 24606 O 2795.93 -1.2261 1.52786 0
M  V30 24607 H 2794.51 0.416063 0.620404 0
M  V30 24608 H 2797.17 1.59743 1.1166 0
M  V30 24609 H 2796.26 1.6598 2.64305 0
M  V30 24610 N 2796.57 -1.13603 1.09235 0
M  V30 24611 C 2797.52 -2.17007 0.699439 0
M  V30 24612 C 2798.5 -1.58352 -0.28521 0
M  V30 24613 O 2799.69 -1.7674 -0.0958889 0
M  V30 24614 C 2796.82 -3.43092 0.119441 0
M  V30 24615 C 2795.91 -4.08758 1.13039 0
M  V30 24616 N 2796.3 -4.49619 2.31681 0
M  V30 24617 C 2794.6 -4.35367 0.968076 0
M  V30 24618 C 2795.3 -5.00774 2.95973 0
M  V30 24619 N 2794.27 -4.9551 2.23543 0
M  V30 24620 H 2798.07 -2.46351 1.60276 0
M  V30 24621 H 2795.59 -1.30377 0.96828 0
M  V30 24622 H 2797.59 -4.16511 -0.180049 0
M  V30 24623 H 2796.25 -3.15223 -0.778761 0
M  V30 24624 H 2797.26 -4.42387 2.69285 0
M  V30 24625 H 2793.93 -4.17315 0.124392 0
M  V30 24626 H 2795.32 -5.42201 3.96822 0
M  V30 24627 N 2798.04 -0.879253 -1.30793 0
M  V30 24628 C 2799.27 -0.508805 -2.01062 0
M  V30 24629 C 2799.69 0.893774 -1.65509 0
M  V30 24630 O 2799.05 1.59136 -0.868644 0
M  V30 24631 C 2799.1 -0.684053 -3.54052 0
M  V30 24632 O 2798.2 0.272582 -4.11498 0
M  V30 24633 H 2797.54 -0.201202 -0.632782 0
M  V30 24634 H 2800.07 -1.18522 -1.66774 0
M  V30 24635 H 2800.08 -0.580869 -4.03844 0
M  V30 24636 H 2798.76 -1.70671 -3.79268 0
M  V30 24637 H 2797.34 0.123574 -3.72695 0
M  V30 24638 N 2799.52 1.44037 -0.639624 0
M  V30 24639 C 2800.75 2.06834 -0.153153 0
M  V30 24640 C 2801.17 1.47543 1.16673 0
M  V30 24641 O 2800.53 0.580123 1.71768 0
M  V30 24642 C 2800.58 3.60548 -0.0609802 0
M  V30 24643 O 2799.68 4.00571 0.98064 0
M  V30 24644 H 2799.02 0.658055 -0.0886518 0
M  V30 24645 H 2801.55 1.8477 -0.878706 0
M  V30 24646 H 2801.56 4.07803 0.12682 0
M  V30 24647 H 2800.24 4.03082 -1.02457 0
M  V30 24648 H 2798.81 3.64933 0.766725 0
M  V30 24649 N 2801 0.380691 1.52933 0
M  V30 24650 C 2802.22 -0.207121 2.06363 0
M  V30 24651 C 2802.65 -1.40447 1.25124 0
M  V30 24652 O 2802.01 -1.79216 0.274094 0
M  V30 24653 C 2802.06 -0.563933 3.56163 0
M  V30 24654 O 2801.16 -1.6591 3.77555 0
M  V30 24655 H 2800.5 -0.0265742 0.663468 0
M  V30 24656 H 2803.03 0.545669 1.97189 0
M  V30 24657 H 2803.04 -0.830682 3.99454 0
M  V30 24658 H 2801.72 0.3115 4.14732 0
M  V30 24659 H 2800.29 -1.38674 3.46156 0
M  V30 24660 N 2802.48 -1.57214 0.110268 0
M  V30 24661 C 2803.71 -1.9895 -0.55699 0
M  V30 24662 C 2804.12 -0.988635 -1.61315 0
M  V30 24663 O 2803.46 0.0278836 -1.83679 0
M  V30 24664 C 2803.52 -3.37087 -1.24951 0
M  V30 24665 C 2803.18 -4.55716 -0.342318 0
M  V30 24666 C 2804.18 -5.18236 0.415602 0
M  V30 24667 C 2801.87 -5.01648 -0.25594 0
M  V30 24668 C 2803.86 -6.25068 1.24772 0
M  V30 24669 C 2801.55 -6.08343 0.57982 0
M  V30 24670 C 2802.55 -6.6992 1.33029 0
M  V30 24671 O 2802.23 -7.74555 2.15219 0
M  V30 24672 H 2801.97 -0.658509 -0.15278 0
M  V30 24673 H 2804.52 -2.04512 0.190796 0
M  V30 24674 H 2802.75 -3.28253 -2.04418 0
M  V30 24675 H 2804.44 -3.6317 -1.8128 0
M  V30 24676 H 2805.2 -4.83672 0.35869 0
M  V30 24677 H 2801.08 -4.53471 -0.829752 0
M  V30 24678 H 2804.63 -6.73061 1.83397 0
M  V30 24679 H 2800.52 -6.42338 0.638157 0
M  V30 24680 H 2801.29 -7.91613 2.08066 0
M  V30 24681 N 2803.96 0.163482 -1.5675 0
M  V30 24682 C 2804.87 1.22206 -2.00257 0
M  V30 24683 C 2805.88 1.47986 -0.91522 0
M  V30 24684 O 2807.06 1.5998 -1.22345 0
M  V30 24685 C 2804.12 2.53942 -2.36039 0
M  V30 24686 C 2803.18 2.35956 -3.58641 0
M  V30 24687 C 2802.42 3.61409 -3.92707 0
M  V30 24688 O 2802.64 4.66913 -3.27641 0
M  V30 24689 O 2801.57 3.55053 -4.86026 0
M  V30 24690 H 2805.4 0.882743 -2.90588 0
M  V30 24691 H 2802.98 0.370952 -1.44721 0
M  V30 24692 H 2804.87 3.31639 -2.59988 0
M  V30 24693 H 2803.54 2.87437 -1.48868 0
M  V30 24694 H 2802.45 1.56264 -3.39901 0
M  V30 24695 H 2803.78 2.07382 -4.46378 0
M  V30 24696 N 2805.43 1.51555 0.432299 0
M  V30 24697 C 2806.37 1.69433 1.54354 0
M  V30 24698 C 2807.38 0.574924 1.5231 0
M  V30 24699 O 2808.57 0.849397 1.56995 0
M  V30 24700 C 2805.67 1.69842 2.9327 0
M  V30 24701 C 2804.84 2.98447 3.19762 0
M  V30 24702 C 2803.9 2.90977 4.38428 0
M  V30 24703 O 2802.93 3.64915 4.36836 0
M  V30 24704 N 2804.13 2.07173 5.42273 0
M  V30 24705 H 2806.89 2.65296 1.39421 0
M  V30 24706 H 2804.45 1.49504 0.621305 0
M  V30 24707 H 2806.45 1.62405 3.70684 0
M  V30 24708 H 2805.02 0.81551 3.01775 0
M  V30 24709 H 2804.24 3.19713 2.30602 0
M  V30 24710 H 2805.52 3.83569 3.34293 0
M  V30 24711 H 2804.92 1.46487 5.46405 0
M  V30 24712 H 2803.48 2.05612 6.1852 0
M  V30 24713 N 2806.91 -0.688069 1.41786 0
M  V30 24714 C 2807.86 -1.79418 1.40688 0
M  V30 24715 C 2808.85 -1.58443 0.280123 0
M  V30 24716 O 2810.04 -1.69147 0.521362 0
M  V30 24717 C 2807.17 -3.17783 1.2988 0
M  V30 24718 C 2806.25 -3.44428 2.47448 0
M  V30 24719 N 2806.64 -3.41729 3.72901 0
M  V30 24720 C 2804.94 -3.75008 2.41422 0
M  V30 24721 C 2805.64 -3.67488 4.50918 0
M  V30 24722 N 2804.62 -3.87602 3.81138 0
M  V30 24723 H 2808.42 -1.75706 2.35594 0
M  V30 24724 H 2805.93 -0.888369 1.35948 0
M  V30 24725 H 2807.93 -3.97029 1.27175 0
M  V30 24726 H 2806.59 -3.22702 0.359644 0
M  V30 24727 H 2807.6 -3.21936 4.05682 0
M  V30 24728 H 2804.28 -3.87253 1.56018 0
M  V30 24729 H 2805.67 -3.71475 5.59872 0
M  V30 24730 N 2808.39 -1.27739 -0.923072 0
M  V30 24731 C 2809.64 -1.14122 -1.66795 0
M  V30 24732 C 2809.96 0.312507 -1.9248 0
M  V30 24733 O 2809.23 1.21798 -1.53435 0
M  V30 24734 H 2807.81 -0.419347 -0.618189 0
M  V30 24735 H 2810.47 -1.60333 -1.10812 0
M  V30 24736 H 2809.57 -1.67379 -2.63421 0
M  V30 24737 N 2809.87 1.13022 -1.09836 0
M  V30 24738 C 2811.09 1.88769 -0.859123 0
M  V30 24739 C 2811.52 1.78792 0.58437 0
M  V30 24740 O 2810.88 1.13845 1.41099 0
M  V30 24741 C 2810.92 3.36184 -1.30433 0
M  V30 24742 O 2810.03 4.09765 -0.46544 0
M  V30 24743 H 2809.37 0.586772 -0.310797 0
M  V30 24744 H 2811.9 1.42971 -1.46357 0
M  V30 24745 H 2811.91 3.87017 -1.29157 0
M  V30 24746 H 2810.58 3.42763 -2.35556 0
M  V30 24747 H 2809.16 3.68927 -0.542879 0
M  V30 24748 N 2811.35 0.886177 1.30325 0
M  V30 24749 C 2812.76 0.580349 1.48675 0
M  V30 24750 C 2812.96 -0.881608 1.8119 0
M  V30 24751 O 2812.02 -1.66275 1.90024 0
M  V30 24752 C 2813.33 1.49453 2.6093 0
M  V30 24753 C 2814.88 1.49829 2.7481 0
M  V30 24754 C 2815.35 2.39843 3.90179 0
M  V30 24755 N 2816.85 2.37813 3.97491 0
M  V30 24756 C 2817.58 3.04173 4.86072 0
M  V30 24757 N 2817.08 3.79763 5.79441 0
M  V30 24758 N 2818.87 2.93399 4.79451 0
M  V30 24759 H 2811.02 1.83192 1.07492 0
M  V30 24760 H 2813.28 0.784213 0.532647 0
M  V30 24761 H 2812.99 2.53555 2.43727 0
M  V30 24762 H 2812.86 1.205 3.57435 0
M  V30 24763 H 2815.25 0.464782 2.91417 0
M  V30 24764 H 2815.33 1.82814 1.78921 0
M  V30 24765 H 2814.98 3.4328 3.74328 0
M  V30 24766 H 2814.91 2.04174 4.85408 0
M  V30 24767 H 2817.4 1.82883 3.30699 0
M  V30 24768 H 2817.71 4.27486 6.43798 0
M  V30 24769 H 2816.05 3.8387 5.79369 0
M  V30 24770 H 2819.25 2.33872 4.05489 0
M  V30 24771 H 2819.42 3.45393 5.48277 0
M  V30 24772 N 2812.82 -1.43695 0.647253 0
M  V30 24773 C 2814.05 -2.0675 0.16412 0
M  V30 24774 C 2814.47 -1.4816 -1.15889 0
M  V30 24775 O 2813.83 -0.589224 -1.71458 0
M  V30 24776 C 2813.88 -3.60511 0.0801001 0
M  V30 24777 O 2812.98 -4.01086 -0.959383 0
M  V30 24778 H 2812.33 -0.657576 0.0921404 0
M  V30 24779 H 2814.86 -1.84301 0.888493 0
M  V30 24780 H 2814.87 -4.07864 -0.105192 0
M  V30 24781 H 2813.54 -4.02533 1.04593 0
M  V30 24782 H 2812.12 -3.65334 -0.747361 0
M  V30 24783 N 2814.3 -0.388796 -1.52729 0
M  V30 24784 C 2815.55 0.193173 -2.01175 0
M  V30 24785 C 2815.87 1.47362 -1.27708 0
M  V30 24786 O 2815.14 1.91835 -0.396999 0
M  V30 24787 H 2813.72 0.074374 -0.743288 0
M  V30 24788 H 2816.38 -0.520369 -1.87825 0
M  V30 24789 H 2815.48 0.403749 -3.09477 0
M  V30 24790 N 2815.78 1.57153 -0.118604 0
M  V30 24791 C 2816.71 2.12364 0.86221 0
M  V30 24792 C 2817.73 1.06627 1.23023 0
M  V30 24793 O 2818.91 1.34 1.17924 0
M  V30 24794 C 2816.01 2.60798 2.1642 0
M  V30 24795 C 2815.19 3.90629 1.96794 0
M  V30 24796 C 2814.25 4.24665 3.10719 0
M  V30 24797 O 2813.27 4.93489 2.8365 0
M  V30 24798 N 2814.47 3.81953 4.37141 0
M  V30 24799 H 2817.24 2.97145 0.390512 0
M  V30 24800 H 2814.8 1.61766 0.0658306 0
M  V30 24801 H 2816.79 2.80598 2.91628 0
M  V30 24802 H 2815.36 1.80899 2.5494 0
M  V30 24803 H 2814.58 3.79742 1.05781 0
M  V30 24804 H 2815.87 4.75523 1.80985 0
M  V30 24805 H 2815.27 3.26443 4.62008 0
M  V30 24806 H 2813.83 4.06862 5.09221 0
M  V30 24807 N 2817.26 -0.155167 1.56834 0
M  V30 24808 C 2818.48 -0.888305 1.87414 0
M  V30 24809 C 2818.91 -1.74318 0.706741 0
M  V30 24810 O 2818.27 -1.78009 -0.343861 0
M  V30 24811 C 2818.31 -1.72759 3.16523 0
M  V30 24812 O 2817.42 -2.83098 2.99882 0
M  V30 24813 H 2816.76 -0.247904 0.615987 0
M  V30 24814 H 2819.29 -0.148442 2.04061 0
M  V30 24815 H 2819.3 -2.12427 3.48337 0
M  V30 24816 H 2817.97 -1.09978 4.01096 0
M  V30 24817 H 2816.55 -2.46897 2.79457 0
M  V30 24818 N 2818.74 -1.51782 -0.424256 0
M  V30 24819 C 2819.96 -1.69212 -1.19925 0
M  V30 24820 C 2820.39 -0.394387 -1.83919 0
M  V30 24821 O 2819.74 0.646749 -1.69372 0
M  V30 24822 C 2819.79 -2.81847 -2.24932 0
M  V30 24823 O 2818.9 -2.46362 -3.30726 0
M  V30 24824 H 2818.24 -0.563787 -0.35077 0
M  V30 24825 H 2820.77 -1.98412 -0.499366 0
M  V30 24826 H 2820.78 -3.06317 -2.69507 0
M  V30 24827 H 2819.45 -3.76009 -1.77735 0
M  V30 24828 H 2818.03 -2.3251 -2.91536 0
M  V30 24829 N 2820.21 0.68054 -1.42149 0
M  V30 24830 C 2821.63 0.992973 -1.24949 0
M  V30 24831 C 2821.83 2.00944 -0.149562 0
M  V30 24832 O 2820.89 2.47874 0.481101 0
M  V30 24833 C 2822.2 1.50325 -2.60428 0
M  V30 24834 C 2823.75 1.62132 -2.67735 0
M  V30 24835 C 2824.22 2.16558 -4.03568 0
M  V30 24836 N 2825.71 2.23898 -4.05492 0
M  V30 24837 C 2826.45 2.67072 -5.07405 0
M  V30 24838 N 2825.94 3.0974 -6.19704 0
M  V30 24839 N 2827.74 2.6677 -4.94763 0
M  V30 24840 H 2819.89 0.00744146 -2.12399 0
M  V30 24841 H 2822.15 0.0658363 -0.945711 0
M  V30 24842 H 2821.86 0.830887 -3.41744 0
M  V30 24843 H 2821.73 2.48295 -2.83953 0
M  V30 24844 H 2824.12 2.28476 -1.86769 0
M  V30 24845 H 2824.2 0.62667 -2.48005 0
M  V30 24846 H 2823.84 1.50824 -4.84989 0
M  V30 24847 H 2823.77 3.16803 -4.20646 0
M  V30 24848 H 2826.26 1.93807 -3.24419 0
M  V30 24849 H 2826.58 3.41353 -6.93324 0
M  V30 24850 H 2824.92 3.07612 -6.23218 0
M  V30 24851 H 2828.11 2.32794 -4.06109 0
M  V30 24852 H 2828.29 3.00097 -5.74322 0
M  V30 24853 N 2821.69 1.28226 0.916285 0
M  V30 24854 C 2822.94 1.15005 1.66188 0
M  V30 24855 C 2823.26 -0.302295 1.92643 0
M  V30 24856 O 2822.53 -1.20982 1.54078 0
M  V30 24857 H 2821.11 0.422619 0.615956 0
M  V30 24858 H 2823.77 1.60919 1.0996 0
M  V30 24859 H 2822.87 1.68774 2.6253 0
M  V30 24860 N 2823.17 -1.12438 1.10433 0
M  V30 24861 C 2824.08 -2.21758 0.765541 0
M  V30 24862 C 2825.1 -1.72379 -0.236936 0
M  V30 24863 O 2826.27 -2.01258 -0.0756976 0
M  V30 24864 C 2823.34 -3.46109 0.202377 0
M  V30 24865 C 2822.4 -4.10328 1.26213 0
M  V30 24866 C 2821.63 -5.28743 0.72574 0
M  V30 24867 O 2821.85 -5.68639 -0.447842 0
M  V30 24868 O 2820.79 -5.83277 1.48566 0
M  V30 24869 H 2824.61 -2.5313 1.67806 0
M  V30 24870 H 2822.2 -1.20772 0.879464 0
M  V30 24871 H 2824.08 -4.21262 -0.107844 0
M  V30 24872 H 2822.76 -3.16412 -0.682996 0
M  V30 24873 H 2821.66 -3.36954 1.6252 0
M  V30 24874 H 2823 -4.44179 2.12051 0
M  V30 24875 N 2824.65 -0.893076 -1.29853 0
M  V30 24876 C 2825.58 -0.32315 -2.26911 0
M  V30 24877 C 2826.59 0.526831 -1.5404 0
M  V30 24878 O 2827.78 0.345065 -1.75133 0
M  V30 24879 C 2824.88 0.55845 -3.34267 0
M  V30 24880 C 2824.06 -0.264299 -4.36601 0
M  V30 24881 C 2823.12 0.549079 -5.23327 0
M  V30 24882 O 2822.14 -0.0310883 -5.69192 0
M  V30 24883 N 2823.34 1.85655 -5.50011 0
M  V30 24884 H 2826.11 -1.15731 -2.76453 0
M  V30 24885 H 2823.67 -0.756884 -1.43118 0
M  V30 24886 H 2825.66 1.10883 -3.89213 0
M  V30 24887 H 2824.23 1.29329 -2.84592 0
M  V30 24888 H 2823.45 -0.996113 -3.81407 0
M  V30 24889 H 2824.74 -0.827995 -5.02018 0
M  V30 24890 H 2824.14 2.35072 -5.14546 0
M  V30 24891 H 2822.69 2.3542 -6.078 0
M  V30 24892 N 2826.13 1.4335 -0.654865 0
M  V30 24893 C 2827.08 2.27926 0.0580924 0
M  V30 24894 C 2828.06 1.39992 0.793163 0
M  V30 24895 O 2829.25 1.63609 0.675359 0
M  V30 24896 C 2826.38 3.27714 1.02266 0
M  V30 24897 C 2825.47 4.23135 0.285974 0
M  V30 24898 N 2825.86 5.00955 -0.698386 0
M  V30 24899 C 2824.16 4.42873 0.527194 0
M  V30 24900 C 2824.86 5.70504 -1.1358 0
M  V30 24901 N 2823.83 5.41567 -0.469726 0
M  V30 24902 H 2827.64 2.8551 -0.697232 0
M  V30 24903 H 2825.15 1.55074 -0.48228 0
M  V30 24904 H 2827.15 3.87086 1.54823 0
M  V30 24905 H 2825.81 2.71692 1.77803 0
M  V30 24906 H 2826.82 5.06574 -1.07717 0
M  V30 24907 H 2823.5 3.97919 1.2636 0
M  V30 24908 H 2824.89 6.42969 -1.95038 0
M  V30 24909 N 2827.61 0.39689 1.52521 0
M  V30 24910 C 2828.85 -0.182501 2.01274 0
M  V30 24911 C 2829.17 -1.46683 1.28488 0
M  V30 24912 O 2828.44 -1.91622 0.407167 0
M  V30 24913 H 2827.02 -0.0704311 0.743672 0
M  V30 24914 H 2829.69 0.530322 1.87546 0
M  V30 24915 H 2828.78 -0.387331 3.09687 0
M  V30 24916 N 2829.08 -1.57088 0.126936 0
M  V30 24917 C 2830.31 -2.00249 -0.539935 0
M  V30 24918 C 2830.73 -1.00621 -1.58925 0
M  V30 24919 O 2830.09 0.0209812 -1.81288 0
M  V30 24920 C 2830.14 -3.42252 -1.13559 0
M  V30 24921 O 2829.24 -3.45551 -2.25097 0
M  V30 24922 H 2828.58 -0.650316 -0.134108 0
M  V30 24923 H 2831.11 -2.03438 0.217753 0
M  V30 24924 H 2831.12 -3.8063 -1.46919 0
M  V30 24925 H 2829.8 -4.14277 -0.367049 0
M  V30 24926 H 2828.38 -3.18999 -1.93117 0
M  V30 24927 N 2830.56 0.146848 -1.56914 0
M  V30 24928 C 2831.79 0.878353 -1.87882 0
M  V30 24929 C 2832.21 1.73941 -0.715975 0
M  V30 24930 O 2831.57 1.78189 0.334416 0
M  V30 24931 C 2831.62 1.71078 -3.17434 0
M  V30 24932 O 2830.72 2.81504 -3.01379 0
M  V30 24933 H 2830.06 0.244633 -0.617293 0
M  V30 24934 H 2832.59 0.137618 -2.04137 0
M  V30 24935 H 2832.6 2.10576 -3.49459 0
M  V30 24936 H 2831.28 1.07849 -4.01673 0
M  V30 24937 H 2829.85 2.45411 -2.80763 0
M  V30 24938 N 2832.04 1.52005 0.4162 0
M  V30 24939 C 2833.26 1.69846 1.19026 0
M  V30 24940 C 2833.69 0.404136 1.83707 0
M  V30 24941 O 2833.05 -0.637757 1.69713 0
M  V30 24942 C 2833.1 2.83036 2.23434 0
M  V30 24943 O 2832.2 2.48112 3.29415 0
M  V30 24944 H 2831.54 0.56564 0.347775 0
M  V30 24945 H 2834.07 1.98674 0.488836 0
M  V30 24946 H 2834.08 3.07742 2.67879 0
M  V30 24947 H 2832.76 3.76947 1.75738 0
M  V30 24948 H 2831.33 2.34053 2.90299 0
M  V30 24949 N 2833.52 -0.672992 1.42508 0
M  V30 24950 C 2834.77 -1.43021 1.42792 0
M  V30 24951 C 2835.09 -1.94946 0.0460081 0
M  V30 24952 O 2834.36 -1.73179 -0.915734 0
M  V30 24953 H 2832.94 -0.530739 0.525666 0
M  V30 24954 H 2835.6 -0.795081 1.77945 0
M  V30 24955 H 2834.69 -2.28233 2.12876 0
M  V30 24956 N 2835 -1.2871 -0.909472 0
M  V30 24957 C 2836.22 -1.19093 -1.69798 0
M  V30 24958 C 2836.65 0.246355 -1.8648 0
M  V30 24959 O 2836 1.17812 -1.37804 0
M  V30 24960 C 2836.05 -1.89909 -3.0654 0
M  V30 24961 O 2835.16 -1.20947 -3.94266 0
M  V30 24962 H 2834.5 -0.413194 -0.519776 0
M  V30 24963 H 2837.03 -1.70108 -1.13686 0
M  V30 24964 H 2837.04 -1.97983 -3.56745 0
M  V30 24965 H 2835.71 -2.94454 -2.93717 0
M  V30 24966 H 2834.29 -1.21066 -3.527 0
M  V30 24967 N 2836.47 1.1185 -1.11028 0
M  V30 24968 C 2837.7 1.87847 -0.879097 0
M  V30 24969 C 2838.12 1.79402 0.565374 0
M  V30 24970 O 2837.48 1.15335 1.39884 0
M  V30 24971 C 2837.53 3.34782 -1.33991 0
M  V30 24972 O 2836.63 4.09248 -0.508875 0
M  V30 24973 H 2835.97 0.583443 -0.317003 0
M  V30 24974 H 2838.5 1.41411 -1.47866 0
M  V30 24975 H 2838.51 3.85626 -1.33255 0
M  V30 24976 H 2837.19 3.40245 -2.39178 0
M  V30 24977 H 2835.77 3.68331 -0.581978 0
M  V30 24978 N 2837.95 0.89995 1.29378 0
M  V30 24979 C 2839.18 0.540728 2.00227 0
M  V30 24980 C 2839.6 -0.86733 1.6691 0
M  V30 24981 O 2838.96 -1.57734 0.893851 0
M  V30 24982 C 2839.01 0.740294 3.52919 0
M  V30 24983 O 2838.11 -0.207082 4.1188 0
M  V30 24984 H 2837.45 0.211244 0.629501 0
M  V30 24985 H 2839.98 1.21161 1.64867 0
M  V30 24986 H 2839.99 0.645044 4.02869 0
M  V30 24987 H 2838.67 1.76683 3.76505 0
M  V30 24988 H 2837.24 -0.0642659 3.72845 0
M  V30 24989 N 2839.43 -1.43001 0.662458 0
M  V30 24990 C 2840.66 -2.06564 0.186039 0
M  V30 24991 C 2841.08 -1.49381 -1.14311 0
M  V30 24992 O 2840.44 -0.607376 -1.70823 0
M  V30 24993 C 2840.49 -3.60406 0.118333 0
M  V30 24994 O 2839.59 -4.02081 -0.916788 0
M  V30 24995 H 2838.93 -0.656562 0.0991096 0
M  V30 24996 H 2841.46 -1.83349 0.90799 0
M  V30 24997 H 2841.47 -4.07953 -0.0619264 0
M  V30 24998 H 2840.15 -4.01401 1.08856 0
M  V30 24999 H 2838.72 -3.66106 -0.70857 0
M  V30 25000 N 2840.91 -0.404973 -1.52308 0
M  V30 25001 C 2842.14 0.171533 -2.05887 0
M  V30 25002 C 2842.55 1.3976 -1.2753 0
M  V30 25003 O 2841.89 1.80905 -0.319247 0
M  V30 25004 C 2841.95 0.590921 -3.5461 0
M  V30 25005 C 2841.62 -0.523837 -4.53988 0
M  V30 25006 C 2842.61 -1.38612 -5.01081 0
M  V30 25007 C 2840.3 -0.695343 -4.97464 0
M  V30 25008 C 2842.29 -2.4049 -5.90291 0
M  V30 25009 C 2839.98 -1.71744 -5.8647 0
M  V30 25010 C 2840.98 -2.57062 -6.32778 0
M  V30 25011 O 2840.66 -3.57522 -7.20023 0
M  V30 25012 H 2840.4 0.0257644 -0.675509 0
M  V30 25013 H 2842.95 -0.573313 -1.97237 0
M  V30 25014 H 2841.18 1.38799 -3.60932 0
M  V30 25015 H 2842.87 1.09487 -3.90855 0
M  V30 25016 H 2843.64 -1.26501 -4.68212 0
M  V30 25017 H 2839.51 -0.0409257 -4.60982 0
M  V30 25018 H 2843.06 -3.07119 -6.26358 0
M  V30 25019 H 2838.96 -1.83888 -6.18753 0
M  V30 25020 H 2839.72 -3.53716 -7.38124 0
M  V30 25021 N 2842.39 1.57018 -0.135265 0
M  V30 25022 C 2843.63 1.95356 0.517735 0
M  V30 25023 C 2843.96 1.02045 1.66168 0
M  V30 25024 O 2843.23 0.0797687 1.95738 0
M  V30 25025 H 2841.81 0.721301 0.194252 0
M  V30 25026 H 2844.47 1.93787 -0.208017 0
M  V30 25027 H 2843.56 2.98793 0.901622 0
M  V30 25028 N 2843.86 -0.138524 1.5699 0
M  V30 25029 C 2844.8 -1.19606 1.95517 0
M  V30 25030 C 2845.81 -1.38724 0.852026 0
M  V30 25031 O 2847 -1.38145 1.13041 0
M  V30 25032 C 2844.1 -2.55948 2.22134 0
M  V30 25033 C 2843.27 -2.57695 3.53429 0
M  V30 25034 C 2842.33 -3.75639 3.68486 0
M  V30 25035 O 2841.36 -3.60122 4.40796 0
M  V30 25036 N 2842.56 -4.93432 3.05785 0
M  V30 25037 H 2845.32 -0.868507 2.8684 0
M  V30 25038 H 2842.88 -0.328005 1.58543 0
M  V30 25039 H 2844.88 -3.33375 2.29441 0
M  V30 25040 H 2843.45 -2.80963 1.37035 0
M  V30 25041 H 2842.67 -1.66123 3.57487 0
M  V30 25042 H 2843.95 -2.55901 4.39763 0
M  V30 25043 H 2843.35 -5.08942 2.4697 0
M  V30 25044 H 2841.91 -5.68604 3.18641 0
M  V30 25045 N 2845.34 -1.52224 -0.408133 0
M  V30 25046 C 2846.29 -1.72019 -1.49645 0
M  V30 25047 C 2847.28 -0.574095 -1.5031 0
M  V30 25048 O 2848.47 -0.8312 -1.56269 0
M  V30 25049 C 2845.6 -1.87517 -2.87563 0
M  V30 25050 C 2844.68 -3.08 -2.91542 0
M  V30 25051 N 2845.07 -4.3069 -2.65217 0
M  V30 25052 C 2843.37 -3.07854 -3.2271 0
M  V30 25053 C 2844.07 -5.12167 -2.7579 0
M  V30 25054 N 2843.05 -4.47436 -3.08711 0
M  V30 25055 H 2846.85 -2.64519 -1.28089 0
M  V30 25056 H 2844.37 -1.5027 -0.615853 0
M  V30 25057 H 2846.36 -1.99815 -3.65896 0
M  V30 25058 H 2845.02 -0.962169 -3.10117 0
M  V30 25059 H 2846.03 -4.59146 -2.39593 0
M  V30 25060 H 2842.71 -2.26295 -3.50852 0
M  V30 25061 H 2844.1 -6.19915 -2.59144 0
M  V30 25062 N 2846.82 0.665425 -1.42863 0
M  V30 25063 C 2848.07 1.42262 -1.43548 0
M  V30 25064 C 2848.39 1.94919 -0.0563459 0
M  V30 25065 O 2847.66 1.73663 0.906537 0
M  V30 25066 H 2846.24 0.527944 -0.528473 0
M  V30 25067 H 2848.9 0.785633 -1.78364 0
M  V30 25068 H 2848 2.27101 -2.14083 0
M  V30 25069 N 2848.3 1.29191 0.902633 0
M  V30 25070 C 2849.52 1.19992 1.69164 0
M  V30 25071 C 2849.95 -0.236462 1.86608 0
M  V30 25072 O 2849.31 -1.1708 1.38427 0
M  V30 25073 C 2849.35 1.91532 3.05529 0
M  V30 25074 O 2848.46 1.23036 3.93619 0
M  V30 25075 H 2847.8 0.415945 0.517577 0
M  V30 25076 H 2850.33 1.70708 1.12782 0
M  V30 25077 H 2850.34 1.99872 3.5569 0
M  V30 25078 H 2849.01 2.96008 2.92151 0
M  V30 25079 H 2847.59 1.22935 3.52053 0
M  V30 25080 N 2849.78 -1.1126 1.1162 0
M  V30 25081 C 2851.02 -1.82677 0.864501 0
M  V30 25082 C 2851.35 -1.85163 -0.611531 0
M  V30 25083 O 2850.62 -1.32354 -1.44427 0
M  V30 25084 H 2849.2 -0.676481 0.316833 0
M  V30 25085 H 2851.86 -1.34664 1.40896 0
M  V30 25086 H 2850.95 -2.8648 1.23837 0
M  V30 25087 N 2851.25 -0.906798 -1.28899 0
M  V30 25088 C 2852.48 -0.551338 -1.99938 0
M  V30 25089 C 2852.9 0.858466 -1.67368 0
M  V30 25090 O 2852.26 1.57258 -0.902204 0
M  V30 25091 C 2852.31 -0.758999 -3.52522 0
M  V30 25092 O 2851.41 0.185236 -4.11984 0
M  V30 25093 H 2850.76 -0.214579 -0.628372 0
M  V30 25094 H 2853.29 -1.22033 -1.64223 0
M  V30 25095 H 2853.3 -0.6664 -4.02521 0
M  V30 25096 H 2851.97 -1.78678 -3.75562 0
M  V30 25097 H 2850.55 0.0444922 -3.72873 0
M  V30 25098 N 2852.73 1.42648 -0.670032 0
M  V30 25099 C 2854.15 1.55955 -0.339137 0
M  V30 25100 C 2854.35 1.65058 1.15577 0
M  V30 25101 O 2853.4 1.61488 1.94108 0
M  V30 25102 C 2854.72 2.81198 -1.06527 0
M  V30 25103 C 2856.27 2.94965 -1.04713 0
M  V30 25104 C 2856.74 4.23062 -1.75449 0
M  V30 25105 N 2858.23 4.29964 -1.72294 0
M  V30 25106 C 2858.97 5.27885 -2.23886 0
M  V30 25107 N 2858.46 6.31986 -2.8384 0
M  V30 25108 N 2860.26 5.19651 -2.14288 0
M  V30 25109 H 2852.41 1.34983 -1.63992 0
M  V30 25110 H 2854.67 0.649427 -0.690615 0
M  V30 25111 H 2854.38 2.80594 -2.12038 0
M  V30 25112 H 2854.25 3.71945 -0.627464 0
M  V30 25113 H 2856.64 2.951 -0.000367837 0
M  V30 25114 H 2856.72 2.05462 -1.52378 0
M  V30 25115 H 2856.36 4.23688 -2.80091 0
M  V30 25116 H 2856.29 5.11491 -1.25238 0
M  V30 25117 H 2858.78 3.5536 -1.2856 0
M  V30 25118 H 2859.1 7.03052 -3.2084 0
M  V30 25119 H 2857.44 6.32562 -2.87908 0
M  V30 25120 H 2860.63 4.37243 -1.67142 0
M  V30 25121 H 2860.8 5.95802 -2.54803 0
M  V30 25122 N 2854.21 0.413044 1.52091 0
M  V30 25123 C 2855.14 -0.445954 2.2482 0
M  V30 25124 C 2856.16 -1.0069 1.27927 0
M  V30 25125 O 2857.35 -0.905177 1.53847 0
M  V30 25126 C 2854.45 -1.63315 2.96954 0
M  V30 25127 C 2853.62 -1.1954 4.20748 0
M  V30 25128 C 2852.68 -2.24995 4.75672 0
M  V30 25129 O 2851.7 -1.85425 5.38151 0
M  V30 25130 N 2852.91 -3.57206 4.57585 0
M  V30 25131 H 2855.67 0.177262 2.99175 0
M  V30 25132 H 2853.23 0.240629 1.60102 0
M  V30 25133 H 2855.22 -2.33435 3.3059 0
M  V30 25134 H 2853.79 -2.16221 2.2576 0
M  V30 25135 H 2853.01 -0.322171 3.92881 0
M  V30 25136 H 2854.3 -0.879945 5.01133 0
M  V30 25137 H 2853.7 -3.92102 4.07765 0
M  V30 25138 H 2852.26 -4.23291 4.95649 0
M  V30 25139 N 2855.69 -1.56945 0.143591 0
M  V30 25140 C 2856.91 -2.0081 -0.518666 0
M  V30 25141 C 2857.34 -1.02301 -1.57849 0
M  V30 25142 O 2856.7 0.00175203 -1.813 0
M  V30 25143 C 2856.75 -3.43438 -1.09923 0
M  V30 25144 O 2855.85 -3.47919 -2.21419 0
M  V30 25145 H 2855.19 -0.651702 -0.127203 0
M  V30 25146 H 2857.72 -2.03196 0.239318 0
M  V30 25147 H 2857.73 -3.82167 -1.42873 0
M  V30 25148 H 2856.41 -4.14643 -0.323089 0
M  V30 25149 H 2854.98 -3.21029 -1.89723 0
M  V30 25150 N 2857.17 0.130197 -1.57061 0
M  V30 25151 C 2858.1 1.16165 -2.02554 0
M  V30 25152 C 2859.08 1.43838 -0.907997 0
M  V30 25153 O 2860.26 1.54471 -1.17696 0
M  V30 25154 C 2857.39 2.49067 -2.42039 0
M  V30 25155 C 2856.35 2.3588 -3.57134 0
M  V30 25156 C 2855.67 3.73644 -3.82485 0
M  V30 25157 C 2856.97 1.82871 -4.8924 0
M  V30 25158 H 2858.67 0.783308 -2.88972 0
M  V30 25159 H 2856.21 0.375351 -1.39022 0
M  V30 25160 H 2858.17 3.21464 -2.72468 0
M  V30 25161 H 2856.89 2.88769 -1.52578 0
M  V30 25162 H 2855.55 1.65932 -3.26898 0
M  V30 25163 H 2855.2 4.10811 -2.90247 0
M  V30 25164 H 2854.9 3.65677 -4.5995 0
M  V30 25165 H 2856.42 4.47563 -4.15355 0
M  V30 25166 H 2857.84 2.45076 -5.18277 0
M  V30 25167 H 2856.23 1.85753 -5.70627 0
M  V30 25168 H 2857.3 0.785487 -4.78496 0
M  V30 25169 N 2858.65 1.52438 0.400055 0
M  V30 25170 C 2859.89 1.66612 1.14389 0
M  V30 25171 C 2860.21 0.402961 1.90791 0
M  V30 25172 O 2859.48 -0.582392 1.87043 0
M  V30 25173 H 2858.06 0.614133 0.425265 0
M  V30 25174 H 2860.73 1.89514 0.455043 0
M  V30 25175 H 2859.82 2.51142 1.85294 0
M  V30 25176 N 2860.12 -0.657839 1.43214 0
M  V30 25177 C 2861.07 -1.76394 1.44462 0
M  V30 25178 C 2862.06 -1.57813 0.313668 0
M  V30 25179 O 2863.25 -1.68003 0.557123 0
M  V30 25180 C 2860.38 -3.14957 1.36591 0
M  V30 25181 C 2859.46 -3.39101 2.54698 0
M  V30 25182 N 2859.86 -3.33742 3.80065 0
M  V30 25183 C 2858.15 -3.69803 2.49323 0
M  V30 25184 C 2858.85 -3.57841 4.58612 0
M  V30 25185 N 2857.83 -3.7943 3.89273 0
M  V30 25186 H 2861.63 -1.70669 2.39268 0
M  V30 25187 H 2859.15 -0.859333 1.37801 0
M  V30 25188 H 2861.14 -3.94242 1.35568 0
M  V30 25189 H 2859.8 -3.21867 0.428013 0
M  V30 25190 H 2860.81 -3.13259 4.12419 0
M  V30 25191 H 2857.49 -3.83856 1.64197 0
M  V30 25192 H 2858.88 -3.59515 5.67625 0
M  V30 25193 N 2861.6 -1.29668 -0.895769 0
M  V30 25194 C 2862.85 -1.17634 -1.64337 0
M  V30 25195 C 2863.17 0.271609 -1.93099 0
M  V30 25196 O 2862.44 1.18516 -1.55984 0
M  V30 25197 H 2861.02 -0.432365 -0.609155 0
M  V30 25198 H 2863.68 -1.62648 -1.07386 0
M  V30 25199 H 2862.78 -1.72929 -2.59812 0
M  V30 25200 N 2863.08 1.10667 -1.12208 0
M  V30 25201 C 2864.01 2.16735 -0.745558 0
M  V30 25202 C 2865.02 1.61214 0.226668 0
M  V30 25203 O 2866.21 1.78498 0.00836223 0
M  V30 25204 C 2863.31 3.388 -0.0823963 0
M  V30 25205 C 2862.49 4.23768 -1.08348 0
M  V30 25206 C 2861.55 5.24286 -0.448385 0
M  V30 25207 O 2860.57 5.58378 -1.10468 0
M  V30 25208 N 2861.77 5.75165 0.785235 0
M  V30 25209 H 2864.54 2.49646 -1.65823 0
M  V30 25210 H 2862.1 1.26263 -1.01337 0
M  V30 25211 H 2864.09 4.03145 0.354406 0
M  V30 25212 H 2862.66 3.03885 0.732988 0
M  V30 25213 H 2861.88 3.55756 -1.69799 0
M  V30 25214 H 2863.17 4.77372 -1.7605 0
M  V30 25215 H 2862.57 5.49662 1.33746 0
M  V30 25216 H 2861.12 6.41306 1.16489 0
M  V30 25217 N 2864.56 0.913621 1.28416 0
M  V30 25218 C 2865.51 0.373082 2.24927 0
M  V30 25219 C 2866.49 -0.514726 1.52445 0
M  V30 25220 O 2867.68 -0.354469 1.73414 0
M  V30 25221 C 2864.81 -0.385836 3.41125 0
M  V30 25222 C 2863.9 0.517684 4.20929 0
M  V30 25223 N 2864.29 1.63122 4.78774 0
M  V30 25224 C 2862.59 0.318047 4.44865 0
M  V30 25225 C 2863.29 2.19202 5.38819 0
M  V30 25226 N 2862.26 1.4833 5.22971 0
M  V30 25227 H 2866.07 1.2235 2.67222 0
M  V30 25228 H 2863.58 0.766261 1.43186 0
M  V30 25229 H 2865.58 -0.789925 4.09348 0
M  V30 25230 H 2864.24 -1.23336 3.00364 0
M  V30 25231 H 2865.25 2.0138 4.77144 0
M  V30 25232 H 2861.93 -0.489967 4.14615 0
M  V30 25233 H 2863.32 3.12872 5.9461 0
M  V30 25234 N 2866.04 -1.4229 0.677588 0
M  V30 25235 C 2867.28 -2.01102 0.200613 0
M  V30 25236 C 2867.6 -1.5386 -1.198 0
M  V30 25237 O 2866.87 -0.761471 -1.80495 0
M  V30 25238 H 2865.45 -0.743601 0.0711765 0
M  V30 25239 H 2868.12 -1.74168 0.874721 0
M  V30 25240 H 2867.21 -3.11432 0.204055 0
M  V30 25241 N 2867.51 -0.421104 -1.5187 0
M  V30 25242 C 2868.74 0.152334 -2.0684 0
M  V30 25243 C 2869.16 1.37081 -1.28804 0
M  V30 25244 O 2868.52 1.78426 -0.321513 0
M  V30 25245 C 2868.57 0.469305 -3.57533 0
M  V30 25246 O 2867.67 1.55842 -3.81821 0
M  V30 25247 H 2867.01 0.00897419 -0.663939 0
M  V30 25248 H 2869.54 -0.597759 -1.95673 0
M  V30 25249 H 2869.55 0.724482 -4.01516 0
M  V30 25250 H 2868.23 -0.421349 -4.1376 0
M  V30 25251 H 2866.81 1.29447 -3.49711 0
M  V30 25252 N 2868.99 1.56866 -0.151912 0
M  V30 25253 C 2870.24 1.95894 0.496986 0
M  V30 25254 C 2870.56 1.03802 1.65076 0
M  V30 25255 O 2869.83 0.100525 1.95642 0
M  V30 25256 H 2868.41 0.723321 0.18659 0
M  V30 25257 H 2871.07 1.93555 -0.228559 0
M  V30 25258 H 2870.17 2.99732 0.86988 0
M  V30 25259 N 2870.47 -0.121866 1.57128 0
M  V30 25260 C 2871.7 -0.848351 1.89256 0
M  V30 25261 C 2872.12 -1.7278 0.743557 0
M  V30 25262 O 2871.48 -1.78699 -0.306025 0
M  V30 25263 C 2871.53 -1.66007 3.20116 0
M  V30 25264 O 2870.63 -2.76673 3.05819 0
M  V30 25265 H 2869.97 -0.234782 0.621107 0
M  V30 25266 H 2872.5 -0.105124 2.0433 0
M  V30 25267 H 2872.51 -2.0499 3.52765 0
M  V30 25268 H 2871.19 -1.01445 4.03338 0
M  V30 25269 H 2869.76 -2.40913 2.84632 0
M  V30 25270 N 2871.95 -1.52648 -0.391965 0
M  V30 25271 C 2873.2 -1.67216 -1.13504 0
M  V30 25272 C 2873.52 -0.413073 -1.90575 0
M  V30 25273 O 2872.79 0.572465 -1.87349 0
M  V30 25274 H 2871.37 -0.616379 -0.422002 0
M  V30 25275 H 2874.03 -1.89752 -0.444986 0
M  V30 25276 H 2873.13 -2.52122 -1.8396 0
M  V30 25277 N 2873.43 0.650235 -1.43561 0
M  V30 25278 C 2874.36 1.77568 -1.44921 0
M  V30 25279 C 2875.37 1.59103 -0.344953 0
M  V30 25280 O 2876.56 1.67769 -0.609567 0
M  V30 25281 C 2873.66 3.15037 -1.2492 0
M  V30 25282 C 2872.83 3.60134 -2.48239 0
M  V30 25283 C 2871.89 4.76415 -2.23418 0
M  V30 25284 O 2870.92 4.85701 -2.96788 0
M  V30 25285 N 2872.12 5.66823 -1.25269 0
M  V30 25286 H 2874.89 1.76879 -2.41938 0
M  V30 25287 H 2872.45 0.834177 -1.38756 0
M  V30 25288 H 2874.44 3.90519 -1.06192 0
M  V30 25289 H 2873.01 3.10481 -0.363374 0
M  V30 25290 H 2872.23 2.75064 -2.82371 0
M  V30 25291 H 2873.52 3.87011 -3.30303 0
M  V30 25292 H 2872.91 5.61995 -0.646345 0
M  V30 25293 H 2871.47 6.42014 -1.12525 0
M  V30 25294 N 2874.9 1.30141 0.88888 0
M  V30 25295 C 2876.13 1.2178 1.67882 0
M  V30 25296 C 2876.55 -0.216657 1.86848 0
M  V30 25297 O 2875.91 -1.15605 1.39661 0
M  V30 25298 C 2875.96 1.94762 3.0348 0
M  V30 25299 O 2875.06 1.27204 3.92292 0
M  V30 25300 H 2874.41 0.421411 0.513136 0
M  V30 25301 H 2876.94 1.71895 1.10965 0
M  V30 25302 H 2876.95 2.03634 3.5355 0
M  V30 25303 H 2875.62 2.9909 2.88995 0
M  V30 25304 H 2874.2 1.26662 3.5073 0
M  V30 25305 N 2876.38 -1.1007 1.12794 0
M  V30 25306 C 2877.79 -1.6361 0.899375 0
M  V30 25307 C 2878.14 -1.87873 -0.565514 0
M  V30 25308 O 2877.27 -1.6235 -1.43078 0
M  V30 25309 C 2877.86 -2.97224 1.62613 0
M  V30 25310 C 2876.42 -3.47616 1.44362 0
M  V30 25311 C 2875.57 -2.22153 1.65962 0
M  V30 25312 H 2878.52 -0.935201 1.28217 0
M  V30 25313 H 2878.54 -3.6487 1.07936 0
M  V30 25314 H 2878.05 -2.79533 2.69226 0
M  V30 25315 H 2876.16 -3.70444 0.400213 0
M  V30 25316 H 2876.27 -4.25485 2.20226 0
M  V30 25317 H 2874.63 -2.30482 1.08399 0
M  V30 25318 H 2875.42 -2.06988 2.73881 0
M  V30 25319 N 2877.86 -0.920419 -1.2793 0
M  V30 25320 C 2879.09 -0.572514 -1.99342 0
M  V30 25321 C 2879.51 0.840666 -1.68269 0
M  V30 25322 O 2878.87 1.56292 -0.918832 0
M  V30 25323 C 2878.92 -0.796346 -3.51697 0
M  V30 25324 O 2878.02 0.141529 -4.12157 0
M  V30 25325 H 2877.36 -0.221232 -0.626061 0
M  V30 25326 H 2879.89 -1.23768 -1.62919 0
M  V30 25327 H 2879.9 -0.709055 -4.01792 0
M  V30 25328 H 2878.58 -1.82651 -3.73646 0
M  V30 25329 H 2877.15 0.00494146 -3.729 0
M  V30 25330 N 2879.34 1.41929 -0.685124 0
M  V30 25331 C 2880.75 1.84469 -0.287732 0
M  V30 25332 C 2881.1 1.5734 1.17212 0
M  V30 25333 O 2880.23 1.03848 1.89854 0
M  V30 25334 C 2880.82 3.34856 -0.515444 0
M  V30 25335 C 2879.38 3.76006 -0.172072 0
M  V30 25336 C 2878.53 2.65423 -0.802855 0
M  V30 25337 H 2881.48 1.31629 -0.886543 0
M  V30 25338 H 2881.5 3.79809 0.229184 0
M  V30 25339 H 2881.01 3.5457 -1.57802 0
M  V30 25340 H 2879.11 3.61897 0.886653 0
M  V30 25341 H 2879.22 4.75074 -0.6198 0
M  V30 25342 H 2877.59 2.53629 -0.233312 0
M  V30 25343 H 2878.37 2.87958 -1.86909 0
M  V30 25344 N 2880.82 0.429152 1.51644 0
M  V30 25345 C 2882.04 -0.141363 2.06918 0
M  V30 25346 C 2882.47 -1.36396 1.29529 0
M  V30 25347 O 2881.82 -1.78253 0.330971 0
M  V30 25348 C 2881.87 -0.450337 3.57777 0
M  V30 25349 O 2880.98 -1.53815 3.82642 0
M  V30 25350 H 2880.32 -0.00545303 0.663978 0
M  V30 25351 H 2882.85 0.608127 1.95353 0
M  V30 25352 H 2882.86 -0.703178 4.01895 0
M  V30 25353 H 2881.53 0.443286 4.13531 0
M  V30 25354 H 2880.11 -1.27591 3.50393 0
M  V30 25355 N 2882.29 -1.56783 0.160229 0
M  V30 25356 C 2883.71 -1.58391 -0.196061 0
M  V30 25357 C 2883.91 -1.17511 -1.63687 0
M  V30 25358 O 2882.97 -0.881548 -2.36611 0
M  V30 25359 C 2884.28 -3.00607 0.0746977 0
M  V30 25360 C 2885.83 -3.12998 0.0120312 0
M  V30 25361 C 2886.3 -4.57286 0.255632 0
M  V30 25362 N 2887.79 -4.62755 0.20302 0
M  V30 25363 C 2888.53 -5.72232 0.365832 0
M  V30 25364 N 2888.02 -6.90308 0.587093 0
M  V30 25365 N 2889.82 -5.61285 0.30251 0
M  V30 25366 H 2881.97 -1.81646 1.10084 0
M  V30 25367 H 2884.23 -0.841377 0.436794 0
M  V30 25368 H 2883.94 -3.34952 1.07237 0
M  V30 25369 H 2883.81 -3.71753 -0.638736 0
M  V30 25370 H 2886.2 -2.78486 -0.976205 0
M  V30 25371 H 2886.28 -2.44311 0.758003 0
M  V30 25372 H 2885.92 -4.92505 1.24103 0
M  V30 25373 H 2885.85 -5.24117 -0.51082 0
M  V30 25374 H 2888.34 -3.77882 0.0371993 0
M  V30 25375 H 2888.66 -7.69613 0.701076 0
M  V30 25376 H 2887 -6.92197 0.623575 0
M  V30 25377 H 2890.19 -4.67919 0.13032 0
M  V30 25378 H 2890.37 -6.46553 0.432826 0
M  V30 25379 N 2883.77 0.113531 -1.57191 0
M  V30 25380 C 2885.02 0.818729 -1.84773 0
M  V30 25381 C 2885.34 1.80157 -0.746228 0
M  V30 25382 O 2884.61 1.94554 0.229271 0
M  V30 25383 H 2883.19 0.305347 -0.681742 0
M  V30 25384 H 2885.85 0.0995502 -1.94646 0
M  V30 25385 H 2884.95 1.36062 -2.8088 0
M  V30 25386 N 2885.25 1.52854 0.383864 0
M  V30 25387 C 2886.67 1.42219 0.724291 0
M  V30 25388 C 2886.87 0.546688 1.93942 0
M  V30 25389 O 2885.92 0.0221006 2.5249 0
M  V30 25390 C 2887.24 2.85146 0.954584 0
M  V30 25391 C 2888.78 2.94658 1.05574 0
M  V30 25392 C 2889.26 4.38607 1.31863 0
M  V30 25393 N 2890.75 4.41955 1.38673 0
M  V30 25394 C 2891.49 5.50424 1.60689 0
M  V30 25395 N 2890.98 6.6897 1.80142 0
M  V30 25396 N 2892.77 5.37975 1.6291 0
M  V30 25397 H 2884.93 2.08294 -0.415636 0
M  V30 25398 H 2887.19 0.939883 -0.123792 0
M  V30 25399 H 2886.89 3.51446 0.133767 0
M  V30 25400 H 2886.77 3.27707 1.86782 0
M  V30 25401 H 2889.16 2.28523 1.86712 0
M  V30 25402 H 2889.24 2.55517 0.120293 0
M  V30 25403 H 2888.88 5.05309 0.512327 0
M  V30 25404 H 2888.81 4.75305 2.267 0
M  V30 25405 H 2891.3 3.56513 1.25327 0
M  V30 25406 H 2891.61 7.4741 1.96463 0
M  V30 25407 H 2889.96 6.71989 1.77357 0
M  V30 25408 H 2893.15 4.44331 1.47268 0
M  V30 25409 H 2893.32 6.22577 1.79728 0
M  V30 25410 N 2886.73 -0.642612 1.43904 0
M  V30 25411 C 2887.68 -1.74852 1.46324 0
M  V30 25412 C 2888.66 -1.57471 0.330389 0
M  V30 25413 O 2889.86 -1.67403 0.574911 0
M  V30 25414 C 2886.98 -3.1349 1.39924 0
M  V30 25415 C 2886.07 -3.36381 2.5828 0
M  V30 25416 N 2886.46 -3.29693 3.83584 0
M  V30 25417 C 2884.76 -3.67138 2.53231 0
M  V30 25418 C 2885.46 -3.52956 4.62381 0
M  V30 25419 N 2884.44 -3.7528 3.93276 0
M  V30 25420 H 2888.24 -1.68122 2.41065 0
M  V30 25421 H 2885.75 -0.844669 1.38705 0
M  V30 25422 H 2887.75 -3.92782 1.39742 0
M  V30 25423 H 2886.41 -3.21395 0.462127 0
M  V30 25424 H 2887.42 -3.08867 4.15718 0
M  V30 25425 H 2884.1 -3.82093 1.68259 0
M  V30 25426 H 2885.49 -3.53475 5.71406 0
M  V30 25427 N 2888.21 -1.30611 -0.881966 0
M  V30 25428 C 2889.46 -1.19371 -1.6308 0
M  V30 25429 C 2889.78 0.251113 -1.93376 0
M  V30 25430 O 2889.05 1.16855 -1.57232 0
M  V30 25431 H 2887.63 -0.438802 -0.604535 0
M  V30 25432 H 2890.29 -1.63778 -1.05655 0
M  V30 25433 H 2889.38 -1.75675 -2.57963 0
M  V30 25434 N 2889.69 1.0947 -1.13376 0
M  V30 25435 C 2890.91 1.8594 -0.918744 0
M  V30 25436 C 2891.34 1.80561 0.527193 0
M  V30 25437 O 2890.69 1.18276 1.37406 0
M  V30 25438 C 2890.74 3.31864 -1.41062 0
M  V30 25439 O 2889.85 4.08077 -0.595568 0
M  V30 25440 H 2889.19 0.576587 -0.329307 0
M  V30 25441 H 2891.72 1.38242 -1.50832 0
M  V30 25442 H 2891.73 3.82712 -1.41404 0
M  V30 25443 H 2890.4 3.35095 -2.46341 0
M  V30 25444 H 2888.98 3.67013 -0.659975 0
M  V30 25445 N 2891.16 0.92719 1.2744 0
M  V30 25446 C 2892.41 0.566237 1.94006 0
M  V30 25447 C 2892.73 -0.895314 1.73231 0
M  V30 25448 O 2892 -1.63457 1.07976 0
M  V30 25449 H 2890.58 0.206422 0.717913 0
M  V30 25450 H 2893.24 1.17947 1.55159 0
M  V30 25451 H 2892.34 0.772082 3.02399 0
M  V30 25452 N 2892.64 -1.41564 0.692641 0
M  V30 25453 C 2893.87 -2.06123 0.229813 0
M  V30 25454 C 2894.29 -1.51772 -1.11117 0
M  V30 25455 O 2893.65 -0.643474 -1.69497 0
M  V30 25456 C 2893.7 -3.60074 0.194753 0
M  V30 25457 O 2892.8 -4.03935 -0.831295 0
M  V30 25458 H 2892.14 -0.654312 0.113014 0
M  V30 25459 H 2894.67 -1.81381 0.946677 0
M  V30 25460 H 2894.68 -4.07993 0.0246204 0
M  V30 25461 H 2893.36 -3.99002 1.17346 0
M  V30 25462 H 2891.93 -3.67527 -0.630754 0
M  V30 25463 N 2894.12 -0.437188 -1.51415 0
M  V30 25464 C 2895.37 0.129073 -2.01687 0
M  V30 25465 C 2895.69 1.43225 -1.32332 0
M  V30 25466 O 2894.96 1.90475 -0.457829 0
M  V30 25467 H 2893.54 0.0506892 -0.745278 0
M  V30 25468 H 2896.2 -0.579861 -1.86074 0
M  V30 25469 H 2895.3 0.305087 -3.10605 0
M  V30 25470 N 2895.6 1.56696 -0.168541 0
M  V30 25471 C 2896.53 2.15 0.794211 0
M  V30 25472 C 2897.54 1.10487 1.19568 0
M  V30 25473 O 2898.73 1.37684 1.13602 0
M  V30 25474 C 2895.83 2.67551 2.08014 0
M  V30 25475 C 2895 3.96692 1.84267 0
M  V30 25476 C 2894.06 4.34335 2.97051 0
M  V30 25477 O 2893.09 5.02263 2.67806 0
M  V30 25478 N 2894.29 3.95667 4.24768 0
M  V30 25479 H 2897.06 2.98237 0.29578 0
M  V30 25480 H 2894.62 1.61894 0.0143326 0
M  V30 25481 H 2896.61 2.89734 2.82554 0
M  V30 25482 H 2895.18 1.88918 2.49056 0
M  V30 25483 H 2894.4 3.82915 0.93646 0
M  V30 25484 H 2895.69 4.8104 1.65765 0
M  V30 25485 H 2895.09 3.40976 4.51389 0
M  V30 25486 H 2893.64 4.22857 4.9602 0
M  V30 25487 N 2897.08 -0.105193 1.57249 0
M  V30 25488 C 2898.3 -0.828231 1.90145 0
M  V30 25489 C 2898.73 -1.71981 0.761841 0
M  V30 25490 O 2898.08 -1.79013 -0.287054 0
M  V30 25491 C 2898.13 -1.62602 3.21859 0
M  V30 25492 O 2897.24 -2.73414 3.08737 0
M  V30 25493 H 2896.58 -0.228181 0.623562 0
M  V30 25494 H 2899.11 -0.0834466 2.0443 0
M  V30 25495 H 2899.12 -2.01237 3.54919 0
M  V30 25496 H 2897.79 -0.971616 4.04391 0
M  V30 25497 H 2896.37 -2.37881 2.87171 0
M  V30 25498 N 2898.55 -1.53055 -0.375752 0
M  V30 25499 C 2899.78 -1.72942 -1.14481 0
M  V30 25500 C 2900.2 -0.4527 -1.82571 0
M  V30 25501 O 2899.56 0.592537 -1.71344 0
M  V30 25502 C 2899.61 -2.88861 -2.15852 0
M  V30 25503 O 2898.71 -2.56759 -3.22721 0
M  V30 25504 H 2898.06 -0.574662 -0.332656 0
M  V30 25505 H 2900.59 -1.99901 -0.43599 0
M  V30 25506 H 2900.6 -3.14736 -2.59625 0
M  V30 25507 H 2899.27 -3.81474 -1.65683 0
M  V30 25508 H 2897.85 -2.41668 -2.83991 0
M  V30 25509 N 2900.03 0.634971 -1.44242 0
M  V30 25510 C 2901.26 1.42684 -1.50519 0
M  V30 25511 C 2901.68 1.87651 -0.129897 0
M  V30 25512 O 2901.04 1.58503 0.880136 0
M  V30 25513 C 2901.09 2.62587 -2.47145 0
M  V30 25514 O 2900.19 3.62288 -1.97032 0
M  V30 25515 H 2899.53 0.427092 -0.508418 0
M  V30 25516 H 2902.06 0.775374 -1.89339 0
M  V30 25517 H 2902.07 3.10178 -2.65054 0
M  V30 25518 H 2900.75 2.29203 -3.47043 0
M  V30 25519 H 2899.33 3.21531 -1.88871 0
M  V30 25520 N 2901.51 1.31076 0.875027 0
M  V30 25521 C 2902.74 1.23243 1.65815 0
M  V30 25522 C 2903.15 -0.205503 1.88081 0
M  V30 25523 O 2902.49 -1.14626 1.4355 0
M  V30 25524 C 2902.55 1.90098 3.05128 0
M  V30 25525 C 2902.22 3.39437 3.05993 0
M  V30 25526 C 2903.21 4.35268 2.84321 0
M  V30 25527 C 2900.9 3.81047 3.27274 0
M  V30 25528 C 2902.89 5.70683 2.83902 0
M  V30 25529 C 2900.58 5.16577 3.26484 0
M  V30 25530 C 2901.58 6.11205 3.04824 0
M  V30 25531 O 2901.27 7.44257 3.03869 0
M  V30 25532 H 2901 0.427252 0.523863 0
M  V30 25533 H 2903.55 1.73409 1.10083 0
M  V30 25534 H 2901.78 1.34474 3.62565 0
M  V30 25535 H 2903.47 1.76249 3.65638 0
M  V30 25536 H 2904.24 4.0445 2.67666 0
M  V30 25537 H 2900.12 3.07828 3.43166 0
M  V30 25538 H 2903.66 6.44517 2.66914 0
M  V30 25539 H 2899.56 5.47031 3.42677 0
M  V30 25540 H 2900.33 7.53369 3.19966 0
M  V30 25541 N 2902.99 -1.08867 1.13955 0
M  V30 25542 C 2904.24 -1.80802 0.903055 0
M  V30 25543 C 2904.56 -1.86418 -0.572118 0
M  V30 25544 O 2903.83 -1.35388 -1.41587 0
M  V30 25545 H 2902.41 -0.669608 0.33111 0
M  V30 25546 H 2905.07 -1.31645 1.43721 0
M  V30 25547 H 2904.17 -2.83789 1.29885 0
M  V30 25548 N 2904.47 -0.933936 -1.26946 0
M  V30 25549 C 2905.88 -0.621355 -1.76057 0
M  V30 25550 C 2906.23 0.863491 -1.76177 0
M  V30 25551 O 2905.35 1.67574 -1.36923 0
M  V30 25552 C 2905.95 -1.12117 -3.19711 0
M  V30 25553 C 2904.51 -0.859139 -3.66464 0
M  V30 25554 C 2903.65 -1.27628 -2.46183 0
M  V30 25555 H 2906.61 -1.11303 -1.13125 0
M  V30 25556 H 2906.63 -0.471674 -3.77565 0
M  V30 25557 H 2906.14 -2.20188 -3.19592 0
M  V30 25558 H 2904.24 0.2075 -3.72022 0
M  V30 25559 H 2904.35 -1.48106 -4.55633 0
M  V30 25560 H 2902.72 -0.694771 -2.45041 0
M  V30 25561 H 2903.5 -2.36577 -2.4877 0
M  V30 25562 N 2905.94 1.41194 -0.700139 0
M  V30 25563 C 2907.17 2.05179 -0.241864 0
M  V30 25564 C 2907.58 1.52805 1.11567 0
M  V30 25565 O 2906.93 0.673072 1.70925 0
M  V30 25566 C 2906.99 3.59276 -0.127013 0
M  V30 25567 C 2906.65 4.34466 -1.41733 0
M  V30 25568 C 2907.65 4.63447 -2.35612 0
M  V30 25569 C 2905.33 4.73657 -1.67197 0
M  V30 25570 C 2907.33 5.30584 -3.53213 0
M  V30 25571 C 2905.01 5.40529 -2.85082 0
M  V30 25572 C 2906.01 5.6892 -3.77914 0
M  V30 25573 O 2905.7 6.34415 -4.93734 0
M  V30 25574 H 2905.43 0.667112 -0.109259 0
M  V30 25575 H 2907.99 1.81871 -0.95457 0
M  V30 25576 H 2906.22 3.81342 0.641504 0
M  V30 25577 H 2907.91 4.04829 0.294677 0
M  V30 25578 H 2908.67 4.33647 -2.17198 0
M  V30 25579 H 2904.55 4.50936 -0.958014 0
M  V30 25580 H 2908.09 5.52661 -4.25689 0
M  V30 25581 H 2903.99 5.69747 -3.03412 0
M  V30 25582 H 2904.76 6.52911 -4.93609 0
M  V30 25583 N 2907.42 0.445212 1.51181 0
M  V30 25584 C 2908.67 -0.118375 2.01753 0
M  V30 25585 C 2908.99 -1.42521 1.33089 0
M  V30 25586 O 2908.26 -1.9023 0.467924 0
M  V30 25587 H 2906.84 -0.0467361 0.745537 0
M  V30 25588 H 2909.5 0.58972 1.85764 0
M  V30 25589 H 2908.6 -0.28861 3.10763 0
M  V30 25590 N 2908.9 -1.56605 0.176849 0
M  V30 25591 C 2910.13 -2.01865 -0.475954 0
M  V30 25592 C 2910.55 -1.05626 -1.55643 0
M  V30 25593 O 2909.91 -0.0367048 -1.81263 0
M  V30 25594 C 2909.96 -3.45692 -1.02613 0
M  V30 25595 O 2909.06 -3.52537 -2.13989 0
M  V30 25596 H 2908.4 -0.654253 -0.113351 0
M  V30 25597 H 2910.93 -2.02642 0.282365 0
M  V30 25598 H 2910.94 -3.85111 -1.34735 0
M  V30 25599 H 2909.62 -4.15235 -0.235065 0
M  V30 25600 H 2908.19 -3.24981 -1.8287 0
M  V30 25601 N 2910.38 0.0968524 -1.57302 0
M  V30 25602 C 2911.63 0.799085 -1.85631 0
M  V30 25603 C 2911.95 1.79355 -0.765294 0
M  V30 25604 O 2911.22 1.94786 0.208623 0
M  V30 25605 H 2909.8 0.298099 -0.684942 0
M  V30 25606 H 2912.46 0.0788999 -1.9474 0
M  V30 25607 H 2911.56 1.33075 -2.82307 0
M  V30 25608 N 2911.86 1.53252 0.36763 0
M  V30 25609 C 2913.08 1.73546 1.13562 0
M  V30 25610 C 2913.51 0.462376 1.82329 0
M  V30 25611 O 2912.86 -0.583442 1.71656 0
M  V30 25612 C 2912.91 2.90001 2.14317 0
M  V30 25613 O 2912.02 2.58467 3.21355 0
M  V30 25614 H 2911.36 0.576418 0.329604 0
M  V30 25615 H 2913.89 2.00129 0.425382 0
M  V30 25616 H 2913.9 3.16108 2.57953 0
M  V30 25617 H 2912.57 3.82347 1.63657 0
M  V30 25618 H 2911.15 2.4317 2.82706 0
M  V30 25619 N 2913.34 -0.627313 1.44577 0
M  V30 25620 C 2914.58 -1.38406 1.47269 0
M  V30 25621 C 2914.9 -1.94701 0.108005 0
M  V30 25622 O 2914.17 -1.76005 -0.860175 0
M  V30 25623 H 2912.75 -0.513747 0.542285 0
M  V30 25624 H 2915.42 -0.738067 1.80385 0
M  V30 25625 H 2914.51 -2.21345 2.20029 0
M  V30 25626 N 2914.81 -1.31539 -0.868063 0
M  V30 25627 C 2916.06 -1.22523 -1.62357 0
M  V30 25628 C 2916.41 0.214135 -1.91205 0
M  V30 25629 O 2915.71 1.14811 -1.53392 0
M  V30 25630 C 2915.9 -2.00466 -2.95886 0
M  V30 25631 C 2915.73 -3.51835 -2.80076 0
M  V30 25632 C 2914.5 -4.21184 -2.79163 0
M  V30 25633 C 2916.7 -4.46747 -2.54797 0
M  V30 25634 N 2914.68 -5.58697 -2.54423 0
M  V30 25635 C 2916.05 -5.71941 -2.39339 0
M  V30 25636 C 2918.11 -4.36152 -2.40157 0
M  V30 25637 C 2916.81 -6.8774 -2.10728 0
M  V30 25638 C 2918.84 -5.51736 -2.12935 0
M  V30 25639 C 2918.2 -6.75921 -1.98267 0
M  V30 25640 H 2914.3 -0.503462 -0.598372 0
M  V30 25641 H 2916.88 -1.6575 -1.02153 0
M  V30 25642 H 2915.05 -1.59605 -3.54092 0
M  V30 25643 H 2916.78 -1.83453 -3.60731 0
M  V30 25644 H 2913.54 -3.73173 -2.91614 0
M  V30 25645 H 2913.96 -6.31106 -2.45018 0
M  V30 25646 H 2918.6 -3.40804 -2.50225 0
M  V30 25647 H 2916.32 -7.83113 -1.99398 0
M  V30 25648 H 2919.91 -5.45457 -2.02405 0
M  V30 25649 H 2918.79 -7.63848 -1.775 0
M  V30 25650 N 2916.29 1.08262 -1.1453 0
M  V30 25651 C 2917.52 1.84956 -0.938414 0
M  V30 25652 C 2917.94 1.8111 0.508012 0
M  V30 25653 O 2917.3 1.19727 1.36144 0
M  V30 25654 C 2917.35 3.30349 -1.44574 0
M  V30 25655 O 2916.45 4.07422 -0.638816 0
M  V30 25656 H 2915.79 0.573062 -0.335404 0
M  V30 25657 H 2918.32 1.36635 -1.5229 0
M  V30 25658 H 2918.33 3.81191 -1.45456 0
M  V30 25659 H 2917.01 3.32463 -2.49882 0
M  V30 25660 H 2915.58 3.66293 -0.698865 0
M  V30 25661 N 2917.77 0.940655 1.26449 0
M  V30 25662 C 2918.99 0.604155 1.98405 0
M  V30 25663 C 2919.42 -0.81379 1.69585 0
M  V30 25664 O 2918.78 -1.5481 0.943581 0
M  V30 25665 C 2918.83 0.852197 3.50385 0
M  V30 25666 O 2917.93 -0.0759406 4.1233 0
M  V30 25667 H 2917.27 0.231164 0.622462 0
M  V30 25668 H 2919.8 1.26344 1.60929 0
M  V30 25669 H 2919.81 0.772887 4.00613 0
M  V30 25670 H 2918.49 1.88572 3.70693 0
M  V30 25671 H 2917.06 0.0543843 3.7286 0
M  V30 25672 N 2919.25 -1.40821 0.707617 0
M  V30 25673 C 2920.47 -2.05867 0.251662 0
M  V30 25674 C 2920.9 -1.52942 -1.09501 0
M  V30 25675 O 2920.26 -0.661415 -1.68805 0
M  V30 25676 C 2920.3 -3.59847 0.232933 0
M  V30 25677 O 2919.41 -4.04794 -0.788405 0
M  V30 25678 H 2918.75 -0.653076 0.119947 0
M  V30 25679 H 2921.28 -1.80367 0.965862 0
M  V30 25680 H 2921.29 -4.07944 0.0678921 0
M  V30 25681 H 2919.96 -3.97735 1.21572 0
M  V30 25682 H 2918.54 -3.68175 -0.591738 0
M  V30 25683 N 2920.73 -0.453223 -1.50943 0
M  V30 25684 C 2922.14 -0.10637 -1.59245 0
M  V30 25685 C 2922.34 1.3857 -1.4629 0
M  V30 25686 O 2921.4 2.15724 -1.31223 0
M  V30 25687 C 2922.71 -0.640646 -2.93796 0
M  V30 25688 C 2924.26 -0.602489 -3.07147 0
M  V30 25689 C 2924.73 -1.11401 -4.44245 0
M  V30 25690 N 2926.22 -1.07266 -4.50609 0
M  V30 25691 C 2926.96 -1.43915 -5.55046 0
M  V30 25692 N 2926.46 -1.87926 -6.66825 0
M  V30 25693 N 2928.25 -1.3563 -5.45491 0
M  V30 25694 H 2920.4 -1.42385 -1.57608 0
M  V30 25695 H 2922.66 -0.587726 -0.743829 0
M  V30 25696 H 2922.37 -1.68521 -3.08697 0
M  V30 25697 H 2922.24 -0.0742935 -3.77127 0
M  V30 25698 H 2924.63 0.43312 -2.91904 0
M  V30 25699 H 2924.71 -1.20543 -2.25617 0
M  V30 25700 H 2924.35 -2.14816 -4.60235 0
M  V30 25701 H 2924.28 -0.487445 -5.24339 0
M  V30 25702 H 2926.78 -0.74965 -3.7039 0
M  V30 25703 H 2927.09 -2.14085 -7.42555 0
M  V30 25704 H 2925.43 -1.91865 -6.67992 0
M  V30 25705 H 2928.62 -1.01101 -4.57052 0
M  V30 25706 H 2928.8 -1.64519 -6.26767 0
M  V30 25707 N 2922.2 1.56509 -0.185151 0
M  V30 25708 C 2923.45 1.96904 0.455322 0
M  V30 25709 C 2923.77 1.0728 1.62837 0
M  V30 25710 O 2923.04 0.142001 1.95385 0
M  V30 25711 H 2921.62 0.727116 0.171206 0
M  V30 25712 H 2924.28 1.93027 -0.269564 0
M  V30 25713 H 2923.38 3.0151 0.806107 0
M  V30 25714 N 2923.68 -0.0885089 1.57351 0
M  V30 25715 C 2925.09 -0.642277 1.75305 0
M  V30 25716 C 2925.44 -1.78778 0.80827 0
M  V30 25717 O 2924.57 -2.16397 -0.0116719 0
M  V30 25718 C 2925.16 -1.17188 3.17887 0
M  V30 25719 C 2923.72 -1.67166 3.37242 0
M  V30 25720 C 2922.87 -0.583997 2.71081 0
M  V30 25721 H 2925.82 0.137594 1.58102 0
M  V30 25722 H 2925.84 -2.04108 3.21123 0
M  V30 25723 H 2925.35 -0.337956 3.86626 0
M  V30 25724 H 2923.45 -2.52938 2.73593 0
M  V30 25725 H 2923.57 -1.76012 4.45597 0
M  V30 25726 H 2921.93 -1.02504 2.33163 0
M  V30 25727 H 2922.71 0.239463 3.42464 0
M  V30 25728 N 2925.16 -1.53445 -0.359498 0
M  V30 25729 C 2926.39 -1.73587 -1.12032 0
M  V30 25730 C 2926.8 -0.46747 -1.83334 0
M  V30 25731 O 2926.14 0.569722 -1.74642 0
M  V30 25732 C 2926.2 -2.85071 -2.19031 0
M  V30 25733 C 2925.87 -4.2522 -1.67443 0
M  V30 25734 C 2926.86 -5.07354 -1.13525 0
M  V30 25735 C 2924.55 -4.71651 -1.72772 0
M  V30 25736 C 2926.54 -6.34013 -0.656209 0
M  V30 25737 C 2924.23 -5.98288 -1.2448 0
M  V30 25738 C 2925.23 -6.793 -0.709948 0
M  V30 25739 O 2924.92 -8.03559 -0.234173 0
M  V30 25740 H 2924.65 -0.583894 -0.340651 0
M  V30 25741 H 2927.2 -2.01009 -0.422417 0
M  V30 25742 H 2925.43 -2.53137 -2.92333 0
M  V30 25743 H 2927.12 -2.93333 -2.80554 0
M  V30 25744 H 2927.89 -4.72652 -1.08743 0
M  V30 25745 H 2923.77 -4.08663 -2.13344 0
M  V30 25746 H 2927.31 -6.97194 -0.23807 0
M  V30 25747 H 2923.21 -6.32487 -1.28958 0
M  V30 25748 H 2923.97 -8.17739 -0.35294 0
M  V30 25749 N 2926.64 0.619637 -1.44908 0
M  V30 25750 C 2927.55 1.75952 -1.55171 0
M  V30 25751 C 2928.56 1.6843 -0.43675 0
M  V30 25752 O 2929.74 1.89001 -0.695738 0
M  V30 25753 C 2926.8 3.12378 -1.50403 0
M  V30 25754 C 2925.87 3.31446 -2.72841 0
M  V30 25755 C 2925.1 4.61363 -2.68291 0
M  V30 25756 O 2925.32 5.42911 -1.74939 0
M  V30 25757 O 2924.26 4.82882 -3.59316 0
M  V30 25758 H 2928.08 1.70246 -2.51496 0
M  V30 25759 H 2925.67 0.782266 -1.27283 0
M  V30 25760 H 2927.55 3.93682 -1.50308 0
M  V30 25761 H 2926.22 3.18602 -0.572253 0
M  V30 25762 H 2925.13 2.49776 -2.78501 0
M  V30 25763 H 2926.46 3.30091 -3.65104 0
M  V30 25764 N 2928.12 1.31997 0.861075 0
M  V30 25765 C 2929.34 1.25313 1.65261 0
M  V30 25766 C 2929.77 -0.176975 1.87266 0
M  V30 25767 O 2929.12 -1.12617 1.42082 0
M  V30 25768 C 2929.17 2.01155 2.99281 0
M  V30 25769 O 2928.28 1.35497 3.89505 0
M  V30 25770 H 2927.62 0.432201 0.504082 0
M  V30 25771 H 2930.15 1.7421 1.07294 0
M  V30 25772 H 2930.16 2.11087 3.49151 0
M  V30 25773 H 2928.83 3.05153 2.82586 0
M  V30 25774 H 2927.41 1.34073 3.47964 0
M  V30 25775 N 2929.59 -1.07653 1.15103 0
M  V30 25776 C 2930.84 -1.79834 0.92218 0
M  V30 25777 C 2931.16 -1.87015 -0.552314 0
M  V30 25778 O 2930.43 -1.36882 -1.40143 0
M  V30 25779 H 2929.01 -0.666058 0.338194 0
M  V30 25780 H 2931.68 -1.30113 1.45109 0
M  V30 25781 H 2930.77 -2.82395 1.32888 0
M  V30 25782 N 2931.07 -0.947348 -1.25949 0
M  V30 25783 C 2932.3 -0.614668 -1.98082 0
M  V30 25784 C 2932.72 0.804785 -1.70014 0
M  V30 25785 O 2932.08 1.54308 -0.951777 0
M  V30 25786 C 2932.13 -0.870767 -3.49929 0
M  V30 25787 O 2931.23 0.0540726 -4.12365 0
M  V30 25788 H 2930.57 -0.234462 -0.621228 0
M  V30 25789 H 2933.1 -1.27196 -1.60257 0
M  V30 25790 H 2933.11 -0.794121 -4.00197 0
M  V30 25791 H 2931.79 -1.90535 -3.69688 0
M  V30 25792 H 2930.37 -0.0741572 -3.72826 0
M  V30 25793 N 2932.55 1.40444 -0.715075 0
M  V30 25794 C 2933.8 2.00499 -0.253861 0
M  V30 25795 C 2934.12 1.56983 1.15678 0
M  V30 25796 O 2933.39 0.809058 1.78413 0
M  V30 25797 H 2931.97 0.741453 -0.0908668 0
M  V30 25798 H 2934.63 1.71788 -0.920592 0
M  V30 25799 H 2933.73 3.10782 -0.286554 0
M  V30 25800 N 2934.03 0.461222 1.507 0
M  V30 25801 C 2934.98 -0.35649 2.25196 0
M  V30 25802 C 2935.96 -0.969897 1.28381 0
M  V30 25803 O 2937.15 -0.884081 1.5334 0
M  V30 25804 C 2934.28 -1.44359 3.11473 0
M  V30 25805 C 2933.37 -0.838397 4.1573 0
M  V30 25806 N 2933.76 0.0354087 5.05788 0
M  V30 25807 C 2932.06 -1.10342 4.32135 0
M  V30 25808 C 2932.76 0.377842 5.80472 0
M  V30 25809 N 2931.74 -0.244534 5.4305 0
M  V30 25810 H 2935.54 0.316797 2.92188 0
M  V30 25811 H 2933.05 0.274753 1.60059 0
M  V30 25812 H 2935.05 -2.04248 3.6344 0
M  V30 25813 H 2933.71 -2.11896 2.46028 0
M  V30 25814 H 2934.72 0.403556 5.16325 0
M  V30 25815 H 2931.4 -1.77452 3.77912 0
M  V30 25816 H 2932.79 1.09036 6.62994 0
M  V30 25817 N 2935.51 -1.56408 0.193449 0
M  V30 25818 C 2936.73 -2.02358 -0.454517 0
M  V30 25819 C 2937.16 -1.07271 -1.54514 0
M  V30 25820 O 2936.51 -0.055928 -1.81214 0
M  V30 25821 C 2936.56 -3.46761 -0.989408 0
M  V30 25822 O 2935.67 -3.54787 -2.10238 0
M  V30 25823 H 2935.01 -0.655419 -0.106405 0
M  V30 25824 H 2937.54 -2.02331 0.303842 0
M  V30 25825 H 2937.55 -3.86518 -1.30643 0
M  V30 25826 H 2936.22 -4.15461 -0.19101 0
M  V30 25827 H 2934.8 -3.26903 -1.79413 0
M  V30 25828 N 2936.98 0.0801629 -1.57396 0
M  V30 25829 C 2938.21 0.797875 -1.91439 0
M  V30 25830 C 2938.63 1.70748 -0.789105 0
M  V30 25831 O 2937.99 1.79447 0.258539 0
M  V30 25832 C 2938.04 1.57461 -3.24405 0
M  V30 25833 O 2937.14 2.68468 -3.13047 0
M  V30 25834 H 2936.49 0.218232 -0.627113 0
M  V30 25835 H 2939.02 0.0509131 -2.04537 0
M  V30 25836 H 2939.03 1.95565 -3.58076 0
M  V30 25837 H 2937.7 0.907157 -4.05886 0
M  V30 25838 H 2936.28 2.33282 -2.90919 0
M  V30 25839 N 2938.46 1.53634 0.351355 0
M  V30 25840 C 2939.71 1.70167 1.09031 0
M  V30 25841 C 2940.03 0.463456 1.89412 0
M  V30 25842 O 2939.3 -0.522591 1.88801 0
M  V30 25843 H 2937.88 0.627351 0.405511 0
M  V30 25844 H 2940.54 1.90865 0.39452 0
M  V30 25845 H 2939.64 2.5691 1.7721 0
M  V30 25846 N 2939.94 -0.611943 1.45234 0
M  V30 25847 C 2940.87 -1.73371 1.56413 0
M  V30 25848 C 2941.85 -1.64937 0.415925 0
M  V30 25849 O 2943.04 -1.83403 0.63851 0
M  V30 25850 C 2940.17 -3.11963 1.52632 0
M  V30 25851 C 2939.12 -3.35204 2.66125 0
M  V30 25852 C 2938.45 -4.74024 2.47398 0
M  V30 25853 C 2939.75 -3.25884 4.08163 0
M  V30 25854 H 2941.44 -1.64272 2.5031 0
M  V30 25855 H 2938.99 -0.788882 1.20468 0
M  V30 25856 H 2940.94 -3.90232 1.5905 0
M  V30 25857 H 2939.66 -3.21891 0.552621 0
M  V30 25858 H 2938.32 -2.59323 2.59128 0
M  V30 25859 H 2937.97 -4.80679 1.48177 0
M  V30 25860 H 2937.67 -4.9053 3.23503 0
M  V30 25861 H 2939.19 -5.54499 2.55663 0
M  V30 25862 H 2940.61 -3.94033 4.16427 0
M  V30 25863 H 2939.01 -3.53921 4.84623 0
M  V30 25864 H 2940.08 -2.23389 4.30378 0
M  V30 25865 N 2941.42 -1.32452 -0.854063 0
M  V30 25866 C 2942.67 -1.22803 -1.60511 0
M  V30 25867 C 2942.99 0.210039 -1.93866 0
M  V30 25868 O 2942.26 1.13493 -1.59675 0
M  V30 25869 H 2940.84 -0.451526 -0.595091 0
M  V30 25870 H 2943.5 -1.65982 -1.02157 0
M  V30 25871 H 2942.6 -1.81107 -2.54178 0
M  V30 25872 N 2942.9 1.07041 -1.15672 0
M  V30 25873 C 2943.85 2.1256 -0.82477 0
M  V30 25874 C 2944.83 1.59746 0.192401 0
M  V30 25875 O 2946.02 1.76998 -0.0073187 0
M  V30 25876 C 2943.15 3.41812 -0.31927 0
M  V30 25877 C 2942.24 4.01472 -1.36678 0
M  V30 25878 N 2942.63 4.35347 -2.57501 0
M  V30 25879 C 2940.93 4.28982 -1.22026 0
M  V30 25880 C 2941.63 4.82666 -3.24666 0
M  V30 25881 N 2940.6 4.81633 -2.52052 0
M  V30 25882 H 2944.41 2.36587 -1.74367 0
M  V30 25883 H 2941.92 1.2451 -1.04265 0
M  V30 25884 H 2943.92 4.16852 -0.0630949 0
M  V30 25885 H 2942.58 3.19227 0.593652 0
M  V30 25886 H 2943.59 4.25934 -2.94619 0
M  V30 25887 H 2940.27 4.1588 -0.367487 0
M  V30 25888 H 2941.66 5.18143 -4.27759 0
M  V30 25889 N 2944.38 0.954014 1.25445 0
M  V30 25890 C 2945.79 0.658342 1.45389 0
M  V30 25891 C 2945.99 -0.784323 1.85609 0
M  V30 25892 O 2945.05 -1.55968 1.9857 0
M  V30 25893 C 2946.36 1.63074 2.52641 0
M  V30 25894 C 2947.91 1.64185 2.66481 0
M  V30 25895 C 2948.38 2.60188 3.76917 0
M  V30 25896 N 2949.87 2.58549 3.84326 0
M  V30 25897 C 2950.61 3.29511 4.69265 0
M  V30 25898 N 2950.11 4.09944 5.58496 0
M  V30 25899 N 2951.9 3.18401 4.63225 0
M  V30 25900 H 2944.05 1.88632 0.976304 0
M  V30 25901 H 2946.31 0.811345 0.490329 0
M  V30 25902 H 2946.02 2.66118 2.29944 0
M  V30 25903 H 2945.89 1.39277 3.50545 0
M  V30 25904 H 2948.28 0.618603 2.88543 0
M  V30 25905 H 2948.36 1.92041 1.68979 0
M  V30 25906 H 2948 3.62639 3.55605 0
M  V30 25907 H 2947.93 2.29618 4.73902 0
M  V30 25908 H 2950.43 2.00156 3.2054 0
M  V30 25909 H 2950.74 4.61011 6.20233 0
M  V30 25910 H 2949.08 4.14042 5.58206 0
M  V30 25911 H 2952.27 2.55037 3.92522 0
M  V30 25912 H 2952.45 3.7397 5.29198 0
M  V30 25913 N 2945.85 -1.40063 0.722513 0
M  V30 25914 C 2946.76 -2.34478 0.0756396 0
M  V30 25915 C 2947.78 -1.57667 -0.736018 0
M  V30 25916 O 2948.96 -1.90021 -0.667374 0
M  V30 25917 C 2946.02 -3.36618 -0.830015 0
M  V30 25918 C 2945.08 -4.29299 -0.00752338 0
M  V30 25919 C 2944.31 -5.2656 -0.870046 0
M  V30 25920 O 2944.54 -5.29974 -2.10912 0
M  V30 25921 O 2943.47 -6.01125 -0.305348 0
M  V30 25922 H 2947.3 -2.91428 0.854597 0
M  V30 25923 H 2944.88 -1.41375 0.483057 0
M  V30 25924 H 2946.76 -3.99239 -1.34857 0
M  V30 25925 H 2945.44 -2.82071 -1.588 0
M  V30 25926 H 2944.35 -3.69941 0.556264 0
M  V30 25927 H 2945.68 -4.87017 0.712397 0
M  V30 25928 N 2947.33 -0.469207 -1.50453 0
M  V30 25929 C 2948.56 0.0864528 -2.0722 0
M  V30 25930 C 2948.98 1.32913 -1.331 0
M  V30 25931 O 2948.34 1.77313 -0.378115 0
M  V30 25932 C 2948.39 0.355321 -3.58845 0
M  V30 25933 O 2947.49 1.43615 -3.86586 0
M  V30 25934 H 2946.83 -0.0121531 -0.663889 0
M  V30 25935 H 2949.36 -0.659708 -1.93672 0
M  V30 25936 H 2949.37 0.596376 -4.03618 0
M  V30 25937 H 2948.05 -0.55277 -4.1221 0
M  V30 25938 H 2946.62 1.18256 -3.53652 0
M  V30 25939 N 2948.81 1.56303 -0.201741 0
M  V30 25940 C 2950.23 1.58855 0.153997 0
M  V30 25941 C 2950.43 1.2181 1.60514 0
M  V30 25942 O 2949.48 0.943971 2.34191 0
M  V30 25943 C 2950.79 3.00303 -0.154372 0
M  V30 25944 C 2952.34 3.12856 -0.0950128 0
M  V30 25945 C 2952.82 4.56448 -0.376783 0
M  V30 25946 N 2954.31 4.62054 -0.32564 0
M  V30 25947 C 2955.04 5.71061 -0.51742 0
M  V30 25948 N 2954.54 6.88509 -0.76991 0
M  V30 25949 N 2956.33 5.60286 -0.451219 0
M  V30 25950 H 2948.48 1.78664 -1.14861 0
M  V30 25951 H 2950.75 0.8295 -0.458948 0
M  V30 25952 H 2950.45 3.31992 -1.1608 0
M  V30 25953 H 2950.33 3.73315 0.539948 0
M  V30 25954 H 2952.71 2.80976 0.902026 0
M  V30 25955 H 2952.79 2.42216 -0.822511 0
M  V30 25956 H 2952.44 4.89041 -1.37117 0
M  V30 25957 H 2952.37 5.25287 0.37168 0
M  V30 25958 H 2954.86 3.7765 -0.137375 0
M  V30 25959 H 2955.17 7.67484 -0.904879 0
M  V30 25960 H 2953.52 6.903 -0.80688 0
M  V30 25961 H 2956.71 4.67409 -0.254335 0
M  V30 25962 H 2956.88 6.45178 -0.604095 0
M  V30 25963 N 2950.29 -0.0718147 1.57436 0
M  V30 25964 C 2951.51 -0.787712 1.91859 0
M  V30 25965 C 2951.94 -1.70327 0.798149 0
M  V30 25966 O 2951.3 -1.79582 -0.249018 0
M  V30 25967 C 2951.34 -1.55738 3.25235 0
M  V30 25968 O 2950.45 -2.66804 3.14467 0
M  V30 25969 H 2949.79 -0.214903 0.628262 0
M  V30 25970 H 2952.32 -0.0400653 2.04561 0
M  V30 25971 H 2952.33 -1.93663 3.59108 0
M  V30 25972 H 2951 -0.88562 4.06361 0
M  V30 25973 H 2949.58 -2.31736 2.92152 0
M  V30 25974 N 2951.77 -1.53818 -0.343203 0
M  V30 25975 C 2953.01 -1.70743 -1.08127 0
M  V30 25976 C 2953.33 -0.473494 -1.89164 0
M  V30 25977 O 2952.6 0.512571 -1.89075 0
M  V30 25978 H 2951.18 -0.629493 -0.402178 0
M  V30 25979 H 2953.85 -1.91072 -0.384393 0
M  V30 25980 H 2952.94 -2.57847 -1.75845 0
M  V30 25981 N 2953.24 0.604233 -1.45557 0
M  V30 25982 C 2954.18 1.72868 -1.50497 0
M  V30 25983 C 2955.19 1.57925 -0.395396 0
M  V30 25984 O 2956.38 1.65745 -0.662633 0
M  V30 25985 C 2953.48 3.10903 -1.34879 0
M  V30 25986 C 2952.65 3.52054 -2.5957 0
M  V30 25987 C 2951.71 4.69066 -2.38461 0
M  V30 25988 O 2950.74 4.76013 -3.1209 0
M  V30 25989 N 2951.94 5.6255 -1.43239 0
M  V30 25990 H 2954.7 1.69092 -2.47443 0
M  V30 25991 H 2952.26 0.789611 -1.41339 0
M  V30 25992 H 2954.26 3.86943 -1.18563 0
M  V30 25993 H 2952.83 3.09168 -0.461967 0
M  V30 25994 H 2952.05 2.65941 -2.90979 0
M  V30 25995 H 2953.33 3.76307 -3.42448 0
M  V30 25996 H 2952.73 5.59655 -0.824813 0
M  V30 25997 H 2951.29 6.38109 -1.32893 0
M  V30 25998 N 2954.72 1.32903 0.847027 0
M  V30 25999 C 2955.95 1.27059 1.63923 0
M  V30 26000 C 2956.37 -0.157103 1.87443 0
M  V30 26001 O 2955.73 -1.11103 1.43268 0
M  V30 26002 C 2955.78 2.04318 2.9713 0
M  V30 26003 O 2954.88 1.3962 3.88046 0
M  V30 26004 H 2954.22 0.437523 0.49947 0
M  V30 26005 H 2956.75 1.75338 1.0544 0
M  V30 26006 H 2956.76 2.14778 3.46892 0
M  V30 26007 H 2955.44 3.08133 2.79333 0
M  V30 26008 H 2954.01 1.37756 3.46522 0
M  V30 26009 N 2956.2 -1.06426 1.16238 0
M  V30 26010 C 2957.42 -1.83439 0.96772 0
M  V30 26011 C 2957.85 -1.81895 -0.479135 0
M  V30 26012 O 2957.21 -1.21878 -1.34222 0
M  V30 26013 C 2957.26 -3.28007 1.49811 0
M  V30 26014 O 2956.36 -4.06354 0.703553 0
M  V30 26015 H 2955.7 -0.567654 0.344478 0
M  V30 26016 H 2958.23 -1.34195 1.54444 0
M  V30 26017 H 2958.24 -3.78829 1.51502 0
M  V30 26018 H 2956.92 -3.28446 2.55139 0
M  V30 26019 H 2955.49 -3.65134 0.757051 0
M  V30 26020 N 2957.68 -0.960653 -1.24937 0
M  V30 26021 C 2958.93 -0.617475 -1.92436 0
M  V30 26022 C 2959.25 0.84907 -1.75544 0
M  V30 26023 O 2958.52 1.60536 -1.12271 0
M  V30 26024 H 2957.1 -0.225384 -0.712188 0
M  V30 26025 H 2959.76 -1.2202 -1.51978 0
M  V30 26026 H 2958.86 -0.851986 -3.00246 0
M  V30 26027 N 2959.16 1.39677 -0.729931 0
M  V30 26028 C 2960.39 2.0462 -0.285331 0
M  V30 26029 C 2960.79 1.55137 1.08301 0
M  V30 26030 O 2960.14 0.709176 1.69459 0
M  V30 26031 C 2960.2 3.58925 -0.203192 0
M  V30 26032 C 2959.86 4.31362 -1.50917 0
M  V30 26033 C 2960.86 4.58345 -2.45389 0
M  V30 26034 C 2958.55 4.70003 -1.77206 0
M  V30 26035 C 2960.54 5.22972 -3.64388 0
M  V30 26036 C 2958.23 5.3436 -2.96484 0
M  V30 26037 C 2959.22 5.60776 -3.89896 0
M  V30 26038 O 2958.91 6.23799 -5.0708 0
M  V30 26039 H 2958.64 0.664644 -0.123385 0
M  V30 26040 H 2961.2 1.79805 -0.992933 0
M  V30 26041 H 2959.43 3.82617 0.560471 0
M  V30 26042 H 2961.12 4.05363 0.20874 0
M  V30 26043 H 2961.88 4.28943 -2.26347 0
M  V30 26044 H 2957.76 4.48802 -1.05345 0
M  V30 26045 H 2961.31 5.43507 -4.37316 0
M  V30 26046 H 2957.2 5.63183 -3.15429 0
M  V30 26047 H 2957.97 6.42294 -5.07347 0
M  V30 26048 N 2960.63 0.47718 1.50202 0
M  V30 26049 C 2961.88 -0.0755534 2.01959 0
M  V30 26050 C 2962.2 -1.39666 1.36082 0
M  V30 26051 O 2961.47 -1.89194 0.508169 0
M  V30 26052 H 2960.05 -0.0309117 0.74636 0
M  V30 26053 H 2962.72 0.628991 1.84471 0
M  V30 26054 H 2961.81 -0.222628 3.11305 0
M  V30 26055 N 2962.11 -1.56194 0.210027 0
M  V30 26056 C 2963.04 -2.1703 -0.736929 0
M  V30 26057 C 2964.06 -1.13618 -1.16597 0
M  V30 26058 O 2965.25 -1.40648 -1.09911 0
M  V30 26059 C 2962.35 -2.72972 -2.00847 0
M  V30 26060 C 2961.52 -4.01438 -1.73684 0
M  V30 26061 C 2960.58 -4.42058 -2.85431 0
M  V30 26062 O 2959.6 -5.09187 -2.54396 0
M  V30 26063 N 2960.81 -4.0679 -4.14128 0
M  V30 26064 H 2963.57 -2.98916 -0.216604 0
M  V30 26065 H 2961.13 -1.61875 0.0285956 0
M  V30 26066 H 2963.12 -2.97123 -2.74773 0
M  V30 26067 H 2961.69 -1.95455 -2.43959 0
M  V30 26068 H 2960.91 -3.85263 -0.834608 0
M  V30 26069 H 2962.2 -4.85266 -1.52952 0
M  V30 26070 H 2961.6 -3.52824 -4.4219 0
M  V30 26071 H 2960.16 -4.35859 -4.84634 0
M  V30 26072 N 2963.59 0.0634645 -1.57472 0
M  V30 26073 C 2964.54 1.08163 -2.00711 0
M  V30 26074 C 2965.52 1.34009 -0.890522 0
M  V30 26075 O 2966.72 1.3417 -1.15444 0
M  V30 26076 C 2963.85 2.39299 -2.46153 0
M  V30 26077 C 2962.93 2.1669 -3.64563 0
M  V30 26078 N 2963.32 1.64035 -4.78462 0
M  V30 26079 C 2961.62 2.47128 -3.71273 0
M  V30 26080 C 2962.32 1.56436 -5.6027 0
M  V30 26081 N 2961.3 2.02783 -5.04361 0
M  V30 26082 H 2965.1 0.667966 -2.86209 0
M  V30 26083 H 2962.61 0.270398 -1.60133 0
M  V30 26084 H 2964.61 3.13011 -2.75372 0
M  V30 26085 H 2963.27 2.81374 -1.62045 0
M  V30 26086 H 2964.28 1.32782 -5.00589 0
M  V30 26087 H 2960.96 2.92513 -2.97897 0
M  V30 26088 H 2962.35 1.16507 -6.61722 0
M  V30 26089 N 2965.07 1.53998 0.33504 0
M  V30 26090 C 2966.32 1.71314 1.0722 0
M  V30 26091 C 2966.64 0.483519 1.8891 0
M  V30 26092 O 2965.91 -0.502537 1.89345 0
M  V30 26093 H 2964.49 0.631617 0.398834 0
M  V30 26094 H 2967.15 1.91273 0.374254 0
M  V30 26095 H 2966.25 2.58775 1.74475 0
M  V30 26096 N 2966.55 -0.596505 1.45875 0
M  V30 26097 C 2967.77 -1.38643 1.54249 0
M  V30 26098 C 2968.2 -1.87241 0.179604 0
M  V30 26099 O 2967.55 -1.60781 -0.837803 0
M  V30 26100 C 2967.6 -2.55942 2.5402 0
M  V30 26101 O 2966.71 -3.56936 2.06568 0
M  V30 26102 H 2966.05 -0.413462 0.519563 0
M  V30 26103 H 2968.58 -0.724902 1.91328 0
M  V30 26104 H 2968.59 -3.03042 2.73184 0
M  V30 26105 H 2967.26 -2.19921 3.52998 0
M  V30 26106 H 2965.84 -3.1641 1.9733 0
M  V30 26107 N 2968.02 -1.3335 -0.839967 0
M  V30 26108 C 2969.25 -1.27927 -1.63247 0
M  V30 26109 C 2969.67 0.14716 -1.87523 0
M  V30 26110 O 2969.03 1.10342 -1.43855 0
M  V30 26111 C 2969.08 -2.05891 -2.96042 0
M  V30 26112 O 2968.18 -1.41676 -3.873 0
M  V30 26113 H 2967.53 -0.440165 -0.497142 0
M  V30 26114 H 2970.06 -1.75895 -1.04509 0
M  V30 26115 H 2970.07 -2.16615 -3.45748 0
M  V30 26116 H 2968.74 -3.0961 -2.77695 0
M  V30 26117 H 2967.32 -1.39591 -3.45787 0
M  V30 26118 N 2969.5 1.05808 -1.16801 0
M  V30 26119 C 2970.73 1.82923 -0.977435 0
M  V30 26120 C 2971.15 1.82147 0.469482 0
M  V30 26121 O 2970.51 1.22588 1.33574 0
M  V30 26122 C 2970.56 3.27208 -1.51549 0
M  V30 26123 O 2969.66 4.05976 -0.725093 0
M  V30 26124 H 2969 0.565819 -0.347484 0
M  V30 26125 H 2971.53 1.33374 -1.55154 0
M  V30 26126 H 2971.54 3.7802 -1.53508 0
M  V30 26127 H 2970.22 3.27088 -2.56877 0
M  V30 26128 H 2968.8 3.64728 -0.776404 0
M  V30 26129 N 2970.98 0.967265 1.24426 0
M  V30 26130 C 2972.23 0.627672 1.92106 0
M  V30 26131 C 2972.55 -0.839749 1.75992 0
M  V30 26132 O 2971.82 -1.59939 1.13121 0
M  V30 26133 H 2970.4 0.229157 0.710982 0
M  V30 26134 H 2973.06 1.22824 1.51328 0
M  V30 26135 H 2972.16 0.867897 2.9979 0
M  V30 26136 N 2972.46 -1.39288 0.737328 0
M  V30 26137 C 2973.41 -2.27877 0.0748938 0
M  V30 26138 C 2974.39 -1.44378 -0.710195 0
M  V30 26139 O 2975.59 -1.67268 -0.578821 0
M  V30 26140 C 2972.71 -3.33119 -0.829851 0
M  V30 26141 C 2971.8 -4.24082 -0.0387874 0
M  V30 26142 N 2972.19 -4.96031 0.98927 0
M  V30 26143 C 2970.49 -4.45194 -0.268089 0
M  V30 26144 C 2971.19 -5.62911 1.46649 0
M  V30 26145 N 2970.17 -5.37907 0.784676 0
M  V30 26146 H 2973.97 -2.80959 0.862507 0
M  V30 26147 H 2971.48 -1.51998 0.571872 0
M  V30 26148 H 2973.48 -3.95454 -1.31992 0
M  V30 26149 H 2972.14 -2.81596 -1.6166 0
M  V30 26150 H 2973.15 -4.99432 1.37069 0
M  V30 26151 H 2969.83 -4.04609 -1.02946 0
M  V30 26152 H 2971.22 -6.30504 2.32193 0
M  V30 26153 N 2973.94 -0.485139 -1.49947 0
M  V30 26154 C 2975.16 0.0644695 -2.073 0
M  V30 26155 C 2975.59 1.31494 -1.34502 0
M  V30 26156 O 2974.95 1.76902 -0.396901 0
M  V30 26157 C 2974.99 0.31724 -3.59202 0
M  V30 26158 O 2974.1 1.39507 -3.88087 0
M  V30 26159 H 2973.44 -0.0191938 -0.663723 0
M  V30 26160 H 2975.97 -0.680212 -1.92962 0
M  V30 26161 H 2975.98 0.553533 -4.04228 0
M  V30 26162 H 2974.65 -0.59646 -4.11601 0
M  V30 26163 H 2973.23 1.14498 -3.54887 0
M  V30 26164 N 2975.42 1.56081 -0.218307 0
M  V30 26165 C 2976.64 2.03056 0.422266 0
M  V30 26166 C 2977.07 1.09715 1.52788 0
M  V30 26167 O 2976.42 0.0847505 1.81102 0
M  V30 26168 C 2976.47 3.48291 0.934116 0
M  V30 26169 O 2975.58 3.58087 2.04567 0
M  V30 26170 H 2974.92 0.657029 0.0959648 0
M  V30 26171 H 2977.45 2.01822 -0.335993 0
M  V30 26172 H 2977.46 3.88548 1.24477 0
M  V30 26173 H 2976.13 4.15712 0.12489 0
M  V30 26174 H 2974.71 3.29715 1.7419 0
M  V30 26175 N 2976.89 -0.0551124 1.57504 0
M  V30 26176 C 2978.12 -0.763546 1.92296 0
M  V30 26177 C 2978.54 -1.70265 0.815804 0
M  V30 26178 O 2977.89 -1.81291 -0.20974 0
M  V30 26179 C 2977.94 -1.54297 3.26917 0
M  V30 26180 O 2977.67 -0.64159 4.33377 0
M  V30 26181 C 2979.17 -2.3509 3.75829 0
M  V30 26182 H 2976.39 -0.216148 0.635233 0
M  V30 26183 H 2978.93 -0.0204025 2.0449 0
M  V30 26184 H 2977.09 -2.23823 3.162 0
M  V30 26185 H 2977.5 -1.18541 5.10929 0
M  V30 26186 H 2978.97 -2.85211 4.72608 0
M  V30 26187 H 2979.45 -3.15362 3.05686 0
M  V30 26188 H 2980.06 -1.70689 3.89545 0
M  V30 26189 N 2978.37 -1.54173 -0.326869 0
M  V30 26190 C 2979.32 -1.79709 -1.40316 0
M  V30 26191 C 2980.31 -0.652964 -1.47055 0
M  V30 26192 O 2981.5 -0.912867 -1.51643 0
M  V30 26193 C 2978.63 -2.02496 -2.77219 0
M  V30 26194 C 2977.71 -3.23021 -2.74806 0
M  V30 26195 N 2978.1 -4.44143 -2.42014 0
M  V30 26196 C 2976.4 -3.24528 -3.05938 0
M  V30 26197 C 2977.1 -5.26066 -2.48253 0
M  V30 26198 N 2976.08 -4.63171 -2.84559 0
M  V30 26199 H 2979.88 -2.70937 -1.13887 0
M  V30 26200 H 2977.39 -1.53323 -0.535333 0
M  V30 26201 H 2979.39 -2.18929 -3.54789 0
M  V30 26202 H 2978.05 -1.1252 -3.04581 0
M  V30 26203 H 2979.06 -4.71201 -2.14918 0
M  V30 26204 H 2975.74 -2.44575 -3.38363 0
M  V30 26205 H 2977.13 -6.3278 -2.25919 0
M  V30 26206 N 2979.85 0.58876 -1.4619 0
M  V30 26207 C 2981.1 1.34452 -1.50887 0
M  V30 26208 C 2981.42 1.94346 -0.159589 0
M  V30 26209 O 2980.69 1.78224 0.813208 0
M  V30 26210 H 2979.27 0.499189 -0.555716 0
M  V30 26211 H 2981.93 0.689982 -1.82278 0
M  V30 26212 H 2981.03 2.15434 -2.2582 0
M  V30 26213 N 2981.33 1.33794 0.832883 0
M  V30 26214 C 2982.26 1.20383 1.9504 0
M  V30 26215 C 2983.27 0.133328 1.62253 0
M  V30 26216 O 2984.46 0.384292 1.74314 0
M  V30 26217 C 2981.56 0.825272 3.28698 0
M  V30 26218 C 2980.73 1.98867 3.89577 0
M  V30 26219 C 2979.79 1.59012 5.01599 0
M  V30 26220 O 2978.82 2.30531 5.20427 0
M  V30 26221 N 2980.02 0.498547 5.78355 0
M  V30 26222 H 2982.79 2.16653 2.07079 0
M  V30 26223 H 2980.35 1.26618 1.00894 0
M  V30 26224 H 2982.34 0.54063 4.01073 0
M  V30 26225 H 2980.91 -0.0469247 3.12565 0
M  V30 26226 H 2980.13 2.43861 3.09718 0
M  V30 26227 H 2981.42 2.76698 4.26984 0
M  V30 26228 H 2980.82 -0.0962303 5.65618 0
M  V30 26229 H 2979.37 0.2736 6.51226 0
M  V30 26230 N 2982.81 -1.05187 1.1736 0
M  V30 26231 C 2983.76 -2.1122 0.858482 0
M  V30 26232 C 2984.74 -1.60031 -0.166963 0
M  V30 26233 O 2985.93 -1.76964 0.0354767 0
M  V30 26234 C 2983.06 -3.41261 0.373609 0
M  V30 26235 C 2982.15 -3.99247 1.43048 0
M  V30 26236 N 2982.54 -4.31195 2.64394 0
M  V30 26237 C 2980.84 -4.26986 1.28835 0
M  V30 26238 C 2981.54 -4.7744 3.32304 0
M  V30 26239 N 2980.51 -4.77563 2.59682 0
M  V30 26240 H 2984.31 -2.33783 1.78109 0
M  V30 26241 H 2981.83 -1.22835 1.06232 0
M  V30 26242 H 2983.83 -4.16699 0.129404 0
M  V30 26243 H 2982.49 -3.20131 -0.542791 0
M  V30 26244 H 2983.5 -4.21193 3.01358 0
M  V30 26245 H 2980.17 -4.15242 0.433603 0
M  V30 26246 H 2981.56 -5.11272 4.35948 0
M  V30 26247 N 2984.28 -0.97385 -1.23911 0
M  V30 26248 C 2985.53 -0.637851 -1.9177 0
M  V30 26249 C 2985.85 0.830404 -1.76435 0
M  V30 26250 O 2985.12 1.59337 -1.13968 0
M  V30 26251 H 2983.7 -0.232925 -0.709757 0
M  V30 26252 H 2986.36 -1.23625 -1.50675 0
M  V30 26253 H 2985.46 -0.883783 -2.99325 0
M  V30 26254 N 2985.76 1.38895 -0.744705 0
M  V30 26255 C 2986.99 2.05128 -0.306155 0
M  V30 26256 C 2987.41 1.55791 1.05407 0
M  V30 26257 O 2986.77 0.705938 1.66992 0
M  V30 26258 C 2986.82 3.59103 -0.328258 0
M  V30 26259 O 2985.92 4.06742 0.680804 0
M  V30 26260 H 2985.26 0.649666 -0.13722 0
M  V30 26261 H 2987.79 1.77743 -1.01334 0
M  V30 26262 H 2987.8 4.0762 -0.176027 0
M  V30 26263 H 2986.48 3.94372 -1.32074 0
M  V30 26264 H 2985.05 3.69615 0.493915 0
M  V30 26265 N 2987.24 0.493084 1.49688 0
M  V30 26266 C 2988.2 -0.278445 2.27502 0
M  V30 26267 C 2989.2 -0.901014 1.33186 0
M  V30 26268 O 2990.39 -0.766774 1.56417 0
M  V30 26269 C 2987.53 -1.39872 3.10883 0
M  V30 26270 H 2988.72 0.404271 2.97163 0
M  V30 26271 H 2986.27 0.247801 1.54323 0
M  V30 26272 H 2987.01 -2.11583 2.4577 0
M  V30 26273 H 2986.79 -0.957857 3.8022 0
M  V30 26274 H 2988.28 -1.9424 3.69676 0
M  V30 26275 N 2988.72 -1.55963 0.226582 0
M  V30 26276 C 2989.94 -2.03277 -0.411491 0
M  V30 26277 C 2990.37 -1.10524 -1.52204 0
M  V30 26278 O 2989.73 -0.0943536 -1.81054 0
M  V30 26279 C 2989.77 -3.48782 -0.915632 0
M  V30 26280 O 2988.88 -3.59166 -2.02665 0
M  V30 26281 H 2988.22 -0.657528 -0.0924791 0
M  V30 26282 H 2990.75 -2.01641 0.346691 0
M  V30 26283 H 2990.76 -3.89203 -1.22415 0
M  V30 26284 H 2989.43 -4.15773 -0.102842 0
M  V30 26285 H 2988.01 -3.30635 -1.72439 0
M  V30 26286 N 2990.2 0.0467589 -1.57531 0
M  V30 26287 C 2991.44 0.739623 -1.8808 0
M  V30 26288 C 2991.77 1.7683 -0.821967 0
M  V30 26289 O 2991.04 1.95351 0.146548 0
M  V30 26290 H 2989.62 0.276157 -0.694079 0
M  V30 26291 H 2992.28 0.0169048 -1.94893 0
M  V30 26292 H 2991.37 1.24026 -2.86398 0
M  V30 26293 N 2991.67 1.54344 0.318688 0
M  V30 26294 C 2992.61 1.80415 1.41361 0
M  V30 26295 C 2993.62 0.68632 1.47626 0
M  V30 26296 O 2994.81 0.963512 1.50262 0
M  V30 26297 C 2991.91 1.91128 2.79863 0
M  V30 26298 C 2991.08 3.21344 2.96743 0
M  V30 26299 C 2990.14 3.22696 4.15636 0
M  V30 26300 O 2989.17 3.96313 4.08564 0
M  V30 26301 N 2990.37 2.46827 5.25411 0
M  V30 26302 H 2993.13 2.74907 1.19358 0
M  V30 26303 H 2990.69 1.53701 0.508695 0
M  V30 26304 H 2992.69 1.89454 3.57616 0
M  V30 26305 H 2991.26 1.03711 2.94894 0
M  V30 26306 H 2990.48 3.35938 2.06251 0
M  V30 26307 H 2991.76 4.0731 3.0492 0
M  V30 26308 H 2991.16 1.86614 5.34033 0
M  V30 26309 H 2989.72 2.50926 6.01564 0
M  V30 26310 N 2993.15 -0.580999 1.465 0
M  V30 26311 C 2994.38 -1.37 1.55711 0
M  V30 26312 C 2994.8 -1.8704 0.199453 0
M  V30 26313 O 2994.16 -1.61661 -0.820702 0
M  V30 26314 C 2994.21 -2.53233 2.5672 0
M  V30 26315 O 2993.31 -3.54725 2.10342 0
M  V30 26316 H 2992.65 -0.407928 0.523919 0
M  V30 26317 H 2995.18 -0.704568 1.92086 0
M  V30 26318 H 2995.19 -3.00127 2.76383 0
M  V30 26319 H 2993.87 -2.16165 3.5531 0
M  V30 26320 H 2992.45 -3.14299 2.00674 0
M  V30 26321 N 2994.63 -1.34234 -0.825776 0
M  V30 26322 C 2995.86 -1.29651 -1.61881 0
M  V30 26323 C 2996.28 0.127262 -1.87669 0
M  V30 26324 O 2995.64 1.0881 -1.45017 0
M  V30 26325 C 2995.69 -2.0902 -2.93842 0
M  V30 26326 O 2994.79 -1.45776 -3.85776 0
M  V30 26327 H 2994.13 -0.445413 -0.492446 0
M  V30 26328 H 2996.66 -1.76993 -1.02638 0
M  V30 26329 H 2996.67 -2.2027 -3.43431 0
M  V30 26330 H 2995.35 -3.12538 -2.74396 0
M  V30 26331 H 2993.92 -1.43251 -3.44287 0
M  V30 26332 N 2996.11 1.04563 -1.17917 0
M  V30 26333 C 2997.33 1.81876 -0.996781 0
M  V30 26334 C 2997.76 1.82635 0.450136 0
M  V30 26335 O 2997.12 1.23998 1.32266 0
M  V30 26336 C 2997.16 3.25583 -1.55011 0
M  V30 26337 O 2996.27 4.05184 -0.768111 0
M  V30 26338 H 2995.61 0.562101 -0.353466 0
M  V30 26339 H 2998.14 1.31721 -1.56559 0
M  V30 26340 H 2998.15 3.76371 -1.57509 0
M  V30 26341 H 2996.82 3.24345 -2.60332 0
M  V30 26342 H 2995.4 3.63884 -0.815044 0
M  V30 26343 N 2997.59 0.980408 1.23393 0
M  V30 26344 C 2998.83 0.657322 1.93542 0
M  V30 26345 C 2999.19 -0.794446 1.74793 0
M  V30 26346 O 3000.39 -1.22836 2.39092 0
M  V30 26347 C 2998.66 1.03707 3.42023 0
M  V30 26348 S 3000.22 0.830455 4.3087 0
M  V30 26349 H 2997.04 0.240728 0.669007 0
M  V30 26350 H 2999.64 1.26005 1.49476 0
M  V30 26351 H 2998.35 2.09028 3.53179 0
M  V30 26352 H 2997.88 0.425628 3.91091 0
M  V30 26353 H 2999.89 -0.285632 4.95377 0
M  V30 26354 N 2999.06 -1.38498 0.75206 0
M  V30 26355 C 3000.31 -1.99756 0.306931 0
M  V30 26356 C 3000.63 -1.59994 -1.11476 0
M  V30 26357 O 2999.9 -0.856076 -1.76205 0
M  V30 26358 H 2998.48 -0.738783 0.110493 0
M  V30 26359 H 3001.15 -1.69287 0.965815 0
M  V30 26360 H 3000.24 -3.09913 0.368851 0
M  V30 26361 N 3000.54 -0.501015 -1.49424 0
M  V30 26362 C 3001.47 0.314119 -2.27037 0
M  V30 26363 C 3002.49 0.930603 -1.3358 0
M  V30 26364 O 3003.68 0.81394 -1.58862 0
M  V30 26365 C 3000.78 1.45724 -3.0597 0
M  V30 26366 C 2999.95 0.94806 -4.27002 0
M  V30 26367 C 2999.01 1.96879 -4.87981 0
M  V30 26368 O 2998.03 1.53733 -5.48046 0
M  V30 26369 N 2999.24 3.2992 -4.77633 0
M  V30 26370 H 3002 -0.351388 -2.97633 0
M  V30 26371 H 2999.56 -0.333564 -1.58427 0
M  V30 26372 H 3001.55 2.13764 -3.43638 0
M  V30 26373 H 3000.12 2.0269 -2.37982 0
M  V30 26374 H 2999.34 0.0925618 -3.94091 0
M  V30 26375 H 3000.63 0.586273 -5.05411 0
M  V30 26376 H 3000.03 3.67661 -4.29932 0
M  V30 26377 H 2998.59 3.93673 -5.19485 0
M  V30 26378 N 3002.02 1.5584 -0.234849 0
M  V30 26379 C 3002.97 2.17516 0.683422 0
M  V30 26380 C 3003.96 1.12742 1.14796 0
M  V30 26381 O 3005.15 1.3869 1.09974 0
M  V30 26382 C 3002.28 2.86889 1.88546 0
M  V30 26383 C 3001.36 3.98905 1.43998 0
M  V30 26384 N 3001.75 5.00821 0.707946 0
M  V30 26385 C 3000.05 4.11239 1.72623 0
M  V30 26386 C 3000.75 5.79725 0.478934 0
M  V30 26387 N 2999.73 5.33567 1.03959 0
M  V30 26388 H 3003.53 2.93672 0.115845 0
M  V30 26389 H 3001.04 1.62359 -0.0366558 0
M  V30 26390 H 3003.04 3.29494 2.5542 0
M  V30 26391 H 3001.7 2.12233 2.45738 0
M  V30 26392 H 3002.71 5.16652 0.359272 0
M  V30 26393 H 2999.39 3.47746 2.3104 0
M  V30 26394 H 3000.78 6.71819 -0.104632 0
M  V30 26395 N 3003.5 -0.038404 1.57553 0
M  V30 26396 C 3004.75 -0.729638 1.88469 0
M  V30 26397 C 3005.07 -1.76391 0.831333 0
M  V30 26398 O 3004.34 -1.95426 -0.136186 0
M  V30 26399 H 3002.92 -0.272473 0.695534 0
M  V30 26400 H 3005.58 -0.00656894 1.94899 0
M  V30 26401 H 3004.68 -1.22506 2.87052 0
M  V30 26402 N 3004.98 -1.54511 -0.310498 0
M  V30 26403 C 3005.94 -1.84071 -1.36567 0
M  V30 26404 C 3006.94 -0.713122 -1.44122 0
M  V30 26405 O 3008.13 -0.981424 -1.43923 0
M  V30 26406 C 3005.26 -2.01248 -2.75159 0
M  V30 26407 H 3006.46 -2.7836 -1.11605 0
M  V30 26408 H 3004.01 -1.46428 -0.546674 0
M  V30 26409 H 3004.74 -1.09214 -3.05357 0
M  V30 26410 H 3004.53 -2.83311 -2.71067 0
M  V30 26411 H 3006.02 -2.2552 -3.51469 0
M  V30 26412 N 3006.46 0.573222 -1.46806 0
M  V30 26413 C 3007.68 1.36172 -1.56435 0
M  V30 26414 C 3008.11 1.86931 -0.209369 0
M  V30 26415 O 3007.46 1.62094 0.812118 0
M  V30 26416 C 3007.51 2.51868 -2.58059 0
M  V30 26417 O 3006.62 3.53605 -2.1222 0
M  V30 26418 H 3005.96 0.405144 -0.526075 0
M  V30 26419 H 3008.49 0.694372 -1.92457 0
M  V30 26420 H 3008.5 2.98657 -2.77971 0
M  V30 26421 H 3007.17 2.14278 -3.56452 0
M  V30 26422 H 3005.75 3.13231 -2.02338 0
M  V30 26423 N 3007.93 1.3467 0.818645 0
M  V30 26424 C 3009.16 1.30508 1.61191 0
M  V30 26425 C 3009.58 -0.117308 1.87734 0
M  V30 26426 O 3008.94 -1.08039 1.45592 0
M  V30 26427 C 3008.99 2.10575 2.92729 0
M  V30 26428 O 3008.09 1.4782 3.84997 0
M  V30 26429 H 3007.43 0.448019 0.490077 0
M  V30 26430 H 3009.96 1.77535 1.01697 0
M  V30 26431 H 3009.97 2.22088 3.42258 0
M  V30 26432 H 3008.65 3.13988 2.72735 0
M  V30 26433 H 3007.23 1.45075 3.43522 0
M  V30 26434 N 3009.41 -1.03936 1.1847 0
M  V30 26435 C 3010.66 -1.76809 0.978926 0
M  V30 26436 C 3010.98 -1.88677 -0.492537 0
M  V30 26437 O 3010.25 -1.41271 -1.35717 0
M  V30 26438 H 3008.83 -0.654962 0.359213 0
M  V30 26439 H 3011.49 -1.25431 1.49175 0
M  V30 26440 H 3010.59 -2.78025 1.41805 0
M  V30 26441 N 3010.89 -0.986938 -1.22871 0
M  V30 26442 C 3011.82 -0.490577 -2.23888 0
M  V30 26443 C 3012.83 0.411116 -1.57524 0
M  V30 26444 O 3014.02 0.214205 -1.7721 0
M  V30 26445 C 3011.12 0.308961 -3.37489 0
M  V30 26446 C 3010.3 -0.58743 -4.33437 0
M  V30 26447 C 3009.36 0.159375 -5.25959 0
M  V30 26448 O 3008.38 -0.453215 -5.67393 0
M  V30 26449 N 3009.58 1.44345 -5.62268 0
M  V30 26450 H 3012.35 -1.35919 -2.67107 0
M  V30 26451 H 3009.91 -0.860961 -1.3711 0
M  V30 26452 H 3011.9 0.817069 -3.96366 0
M  V30 26453 H 3010.47 1.07863 -2.93401 0
M  V30 26454 H 3009.69 -1.27629 -3.72967 0
M  V30 26455 H 3010.98 -1.1981 -4.94493 0
M  V30 26456 H 3010.38 1.96257 -5.30566 0
M  V30 26457 H 3008.93 1.89687 -6.23588 0
M  V30 26458 N 3012.37 1.38098 -0.759394 0
M  V30 26459 C 3013.59 2.04792 -0.327895 0
M  V30 26460 C 3014.02 1.56901 1.03749 0
M  V30 26461 O 3013.38 0.72361 1.66233 0
M  V30 26462 C 3013.42 3.58734 -0.366327 0
M  V30 26463 O 3012.53 4.07441 0.637626 0
M  V30 26464 H 3011.87 0.648175 -0.144103 0
M  V30 26465 H 3014.4 1.76658 -1.03214 0
M  V30 26466 H 3014.41 4.0741 -0.219251 0
M  V30 26467 H 3013.08 3.92949 -1.36249 0
M  V30 26468 H 3011.66 3.70118 0.454684 0
M  V30 26469 N 3013.85 0.508932 1.49156 0
M  V30 26470 C 3015.07 -0.0314817 2.07376 0
M  V30 26471 C 3015.5 -1.29338 1.36577 0
M  V30 26472 O 3014.85 -1.76248 0.424994 0
M  V30 26473 C 3014.9 -0.260054 3.59661 0
M  V30 26474 O 3014.01 -1.33315 3.90257 0
M  V30 26475 H 3013.35 0.0297506 0.663333 0
M  V30 26476 H 3015.88 0.710825 1.91855 0
M  V30 26477 H 3015.89 -0.489154 4.05057 0
M  V30 26478 H 3014.56 0.661866 4.106 0
M  V30 26479 H 3013.14 -1.08838 3.56663 0
M  V30 26480 N 3015.32 -1.55714 0.243111 0
M  V30 26481 C 3016.55 -2.03702 -0.389908 0
M  V30 26482 C 3016.97 -1.12132 -1.51023 0
M  V30 26483 O 3016.33 -0.113551 -1.80944 0
M  V30 26484 C 3016.38 -3.49733 -0.878588 0
M  V30 26485 O 3015.48 -3.61296 -1.98845 0
M  V30 26486 H 3014.82 -0.658472 -0.0854999 0
M  V30 26487 H 3017.35 -2.01262 0.368059 0
M  V30 26488 H 3017.36 -3.90479 -1.1828 0
M  V30 26489 H 3016.04 -4.15859 -0.0587376 0
M  V30 26490 H 3014.62 -3.32445 -1.68922 0
M  V30 26491 N 3016.8 0.030048 -1.57571 0
M  V30 26492 C 3017.75 1.03881 -2.0296 0
M  V30 26493 C 3018.74 1.3209 -0.918747 0
M  V30 26494 O 3019.93 1.31692 -1.18264 0
M  V30 26495 C 3017.06 2.34023 -2.51173 0
M  V30 26496 C 3016.14 2.08909 -3.69077 0
M  V30 26497 N 3016.53 1.53849 -4.81834 0
M  V30 26498 C 3014.83 2.39197 -3.76431 0
M  V30 26499 C 3015.53 1.44516 -5.63462 0
M  V30 26500 N 3014.51 1.92039 -5.08549 0
M  V30 26501 H 3018.31 0.607107 -2.87561 0
M  V30 26502 H 3015.83 0.23637 -1.60671 0
M  V30 26503 H 3017.82 3.07099 -2.8195 0
M  V30 26504 H 3016.48 2.77874 -1.67977 0
M  V30 26505 H 3017.49 1.22134 -5.03293 0
M  V30 26506 H 3014.17 2.86128 -3.04034 0
M  V30 26507 H 3015.56 1.02445 -6.64044 0
M  V30 26508 N 3018.28 1.54674 0.3023 0
M  V30 26509 C 3019.53 1.73549 1.03562 0
M  V30 26510 C 3019.85 0.523481 1.87842 0
M  V30 26511 O 3019.12 -0.462261 1.90368 0
M  V30 26512 H 3017.7 0.639935 0.385347 0
M  V30 26513 H 3020.36 1.92024 0.333598 0
M  V30 26514 H 3019.46 2.62418 1.68947 0
M  V30 26515 N 3019.76 -0.565428 1.47108 0
M  V30 26516 C 3020.69 -1.68817 1.55027 0
M  V30 26517 C 3021.7 -1.56822 0.437128 0
M  V30 26518 O 3022.89 -1.6393 0.706344 0
M  V30 26519 C 3019.99 -3.07218 1.43075 0
M  V30 26520 C 3019.17 -3.45048 2.68813 0
M  V30 26521 C 3018.22 -4.62578 2.50814 0
M  V30 26522 O 3017.25 -4.67571 3.24601 0
M  V30 26523 N 3018.45 -5.58555 1.58103 0
M  V30 26524 H 3021.22 -1.62472 2.51839 0
M  V30 26525 H 3018.78 -0.75186 1.43383 0
M  V30 26526 H 3020.77 -3.83664 1.2878 0
M  V30 26527 H 3019.34 -3.07834 0.543775 0
M  V30 26528 H 3018.56 -2.58133 2.97928 0
M  V30 26529 H 3019.85 -3.67095 3.52305 0
M  V30 26530 H 3019.25 -5.57271 0.972905 0
M  V30 26531 H 3017.8 -6.34361 1.49764 0
M  V30 26532 N 3021.24 -1.35102 -0.811492 0
M  V30 26533 C 3022.19 -1.24166 -1.91224 0
M  V30 26534 C 3023.17 -0.13804 -1.60307 0
M  V30 26535 O 3024.36 -0.368798 -1.73115 0
M  V30 26536 C 3021.49 -1.01091 -3.28079 0
M  V30 26537 C 3020.58 -2.15821 -3.65078 0
M  V30 26538 N 3020.97 -3.41017 -3.73552 0
M  V30 26539 C 3019.27 -2.07099 -3.95001 0
M  V30 26540 C 3019.97 -4.16433 -4.0615 0
M  V30 26541 N 3018.94 -3.4514 -4.19976 0
M  V30 26542 H 3022.75 -2.19027 -1.95971 0
M  V30 26543 H 3020.26 -1.27504 -1.0058 0
M  V30 26544 H 3022.26 -0.913453 -4.0677 0
M  V30 26545 H 3020.92 -0.0710976 -3.24622 0
M  V30 26546 H 3021.93 -3.75429 -3.56754 0
M  V30 26547 H 3018.6 -1.20944 -3.99598 0
M  V30 26548 H 3019.99 -5.246 -4.19815 0
M  V30 26549 N 3022.71 1.03306 -1.19019 0
M  V30 26550 C 3023.96 1.76287 -0.988289 0
M  V30 26551 C 3024.28 1.88936 0.482524 0
M  V30 26552 O 3023.55 1.41989 1.34966 0
M  V30 26553 H 3022.13 0.653048 -0.362681 0
M  V30 26554 H 3024.8 1.24638 -1.49838 0
M  V30 26555 H 3023.89 2.77269 -1.43278 0
M  V30 26556 N 3024.19 0.99344 1.22346 0
M  V30 26557 C 3025.42 0.687761 1.95665 0
M  V30 26558 C 3025.84 -0.741131 1.72884 0
M  V30 26559 O 3025.2 -1.50669 1.00839 0
M  V30 26560 C 3025.25 1.00004 3.46456 0
M  V30 26561 O 3024.35 0.099011 4.12281 0
M  V30 26562 H 3023.69 0.257357 0.612098 0
M  V30 26563 H 3026.22 1.33056 1.55426 0
M  V30 26564 H 3026.23 0.942105 3.96974 0
M  V30 26565 H 3024.91 2.04125 3.62362 0
M  V30 26566 H 3023.49 0.212478 3.72294 0
M  V30 26567 N 3025.67 -1.37693 0.766707 0
M  V30 26568 C 3026.92 -1.99419 0.3281 0
M  V30 26569 C 3027.24 -1.61168 -1.09772 0
M  V30 26570 O 3026.51 -0.874717 -1.75287 0
M  V30 26571 H 3025.09 -0.737569 0.118323 0
M  V30 26572 H 3027.75 -1.68253 0.983715 0
M  V30 26573 H 3026.85 -3.09504 0.401701 0
M  V30 26574 N 3027.15 -0.516835 -1.48884 0
M  V30 26575 C 3028.37 0.0204836 -2.0739 0
M  V30 26576 C 3028.8 1.28612 -1.37261 0
M  V30 26577 O 3028.16 1.76021 -0.434335 0
M  V30 26578 C 3028.2 0.240977 -3.59794 0
M  V30 26579 O 3027.31 1.31244 -3.90959 0
M  V30 26580 H 3026.65 -0.033268 -0.663166 0
M  V30 26581 H 3029.18 -0.720989 -1.91476 0
M  V30 26582 H 3029.19 0.467666 -4.05311 0
M  V30 26583 H 3027.86 -0.683632 -4.10243 0
M  V30 26584 H 3026.44 1.06945 -3.57236 0
M  V30 26585 N 3028.63 1.55583 -0.251365 0
M  V30 26586 C 3029.85 2.03906 0.3791 0
M  V30 26587 C 3030.28 1.12931 1.50426 0
M  V30 26588 O 3029.63 0.123146 1.80881 0
M  V30 26589 C 3029.68 3.50194 0.860028 0
M  V30 26590 O 3028.79 3.62345 1.96926 0
M  V30 26591 H 3028.13 0.658916 0.0820067 0
M  V30 26592 H 3030.66 2.01064 -0.378727 0
M  V30 26593 H 3030.67 3.91101 1.16207 0
M  V30 26594 H 3029.34 4.15884 0.0366828 0
M  V30 26595 H 3027.92 3.33336 1.67157 0
M  V30 26596 N 3030.1 -0.0216912 1.57585 0
M  V30 26597 C 3031.04 -1.04774 2.03851 0
M  V30 26598 C 3032.05 -1.32022 0.952581 0
M  V30 26599 O 3033.24 -1.29379 1.22977 0
M  V30 26600 C 3030.34 -2.38766 2.40508 0
M  V30 26601 C 3029.51 -2.30769 3.7157 0
M  V30 26602 C 3028.57 -3.4727 3.95335 0
M  V30 26603 O 3027.6 -3.26432 4.66294 0
M  V30 26604 N 3028.8 -4.69391 3.41545 0
M  V30 26605 H 3031.56 -0.653344 2.92492 0
M  V30 26606 H 3029.12 -0.209499 1.60539 0
M  V30 26607 H 3031.12 -3.15437 2.53538 0
M  V30 26608 H 3029.69 -2.70024 1.57499 0
M  V30 26609 H 3028.91 -1.39148 3.68824 0
M  V30 26610 H 3030.19 -2.22576 4.57534 0
M  V30 26611 H 3029.59 -4.89221 2.84041 0
M  V30 26612 H 3028.15 -5.43402 3.59941 0
M  V30 26613 N 3031.58 -1.54832 -0.294093 0
M  V30 26614 C 3032.81 -1.78767 -1.05153 0
M  V30 26615 C 3033.23 -0.548841 -1.79915 0
M  V30 26616 O 3032.59 0.500878 -1.74244 0
M  V30 26617 C 3032.64 -2.99896 -2.00236 0
M  V30 26618 O 3031.74 -2.73504 -3.08657 0
M  V30 26619 H 3031.08 -0.591487 -0.301727 0
M  V30 26620 H 3033.61 -2.01931 -0.329414 0
M  V30 26621 H 3033.62 -3.28056 -2.42577 0
M  V30 26622 H 3032.3 -3.8972 -1.45229 0
M  V30 26623 H 3030.88 -2.56382 -2.70782 0
M  V30 26624 N 3033.06 0.557619 -1.47405 0
M  V30 26625 C 3034.29 1.34505 -1.57871 0
M  V30 26626 C 3034.71 1.86699 -0.229184 0
M  V30 26627 O 3034.07 1.62946 0.79488 0
M  V30 26628 C 3034.12 2.49117 -2.60716 0
M  V30 26629 O 3033.22 3.51334 -2.15959 0
M  V30 26630 H 3032.56 0.399541 -0.530342 0
M  V30 26631 H 3035.09 0.67392 -1.93183 0
M  V30 26632 H 3035.1 2.95692 -2.81123 0
M  V30 26633 H 3033.78 2.10485 -3.58704 0
M  V30 26634 H 3032.35 3.11067 -2.05649 0
M  V30 26635 N 3034.54 1.35531 0.804316 0
M  V30 26636 C 3035.79 1.28676 1.55843 0
M  V30 26637 C 3036.11 -0.137942 1.94511 0
M  V30 26638 O 3035.38 -1.07489 1.63777 0
M  V30 26639 H 3033.96 0.473301 0.577923 0
M  V30 26640 H 3036.62 1.69659 0.959263 0
M  V30 26641 H 3035.72 1.90416 2.47282 0
M  V30 26642 N 3036.02 -1.02674 1.19565 0
M  V30 26643 C 3037.25 -1.7947 1.02343 0
M  V30 26644 C 3037.66 -1.84229 -0.430859 0
M  V30 26645 O 3037 -1.28676 -1.31104 0
M  V30 26646 C 3037.06 -3.25829 1.51907 0
M  V30 26647 C 3036.72 -3.447 3.00051 0
M  V30 26648 C 3037.72 -3.34745 3.97796 0
M  V30 26649 C 3035.41 -3.70845 3.3879 0
M  V30 26650 C 3037.4 -3.50663 5.32273 0
M  V30 26651 C 3035.09 -3.86408 4.73426 0
M  V30 26652 C 3036.09 -3.7632 5.69976 0
M  V30 26653 O 3035.77 -3.9142 7.02172 0
M  V30 26654 H 3035.51 -0.571572 0.360946 0
M  V30 26655 H 3038.06 -1.30196 1.58866 0
M  V30 26656 H 3036.29 -3.76138 0.897612 0
M  V30 26657 H 3037.98 -3.84227 1.3086 0
M  V30 26658 H 3038.74 -3.14495 3.69212 0
M  V30 26659 H 3034.62 -3.7779 2.64189 0
M  V30 26660 H 3038.17 -3.42705 6.07618 0
M  V30 26661 H 3034.06 -4.06156 5.01705 0
M  V30 26662 H 3034.83 -4.08498 7.09275 0
M  V30 26663 N 3037.5 -0.999914 -1.21817 0
M  V30 26664 C 3038.74 -0.678385 -1.90374 0
M  V30 26665 C 3039.06 0.792792 -1.78157 0
M  V30 26666 O 3038.33 1.56883 -1.17322 0
M  V30 26667 H 3036.91 -0.247927 -0.704657 0
M  V30 26668 H 3039.58 -1.26793 -1.48019 0
M  V30 26669 H 3038.67 -0.947076 -2.97383 0
M  V30 26670 N 3038.97 1.37284 -0.773999 0
M  V30 26671 C 3040.39 1.5301 -0.453887 0
M  V30 26672 C 3040.59 1.73176 1.03015 0
M  V30 26673 O 3039.65 1.75442 1.81594 0
M  V30 26674 C 3040.96 2.72522 -1.27092 0
M  V30 26675 C 3042.51 2.86385 -1.26305 0
M  V30 26676 C 3042.98 4.08882 -2.06347 0
M  V30 26677 N 3044.47 4.15999 -2.03713 0
M  V30 26678 C 3045.21 5.09823 -2.62427 0
M  V30 26679 N 3044.7 6.09191 -3.29937 0
M  V30 26680 N 3046.5 5.02324 -2.52245 0
M  V30 26681 H 3038.65 1.22446 -1.73553 0
M  V30 26682 H 3040.91 0.59641 -0.736885 0
M  V30 26683 H 3040.62 2.64092 -2.32268 0
M  V30 26684 H 3040.49 3.66265 -0.901634 0
M  V30 26685 H 3042.88 2.94284 -0.219265 0
M  V30 26686 H 3042.96 1.93593 -1.67198 0
M  V30 26687 H 3042.6 4.01744 -3.10748 0
M  V30 26688 H 3042.53 5.00792 -1.62834 0
M  V30 26689 H 3045.02 3.44845 -1.54565 0
M  V30 26690 H 3045.34 6.77316 -3.72107 0
M  V30 26691 H 3043.68 6.09463 -3.34036 0
M  V30 26692 H 3046.87 4.2364 -1.99116 0
M  V30 26693 H 3047.05 5.7526 -2.98296 0
M  V30 26694 N 3040.45 0.524724 1.48608 0
M  V30 26695 C 3041.38 -0.27796 2.27508 0
M  V30 26696 C 3042.4 -0.909234 1.35044 0
M  V30 26697 O 3043.59 -0.788564 1.60137 0
M  V30 26698 C 3040.69 -1.40838 3.0825 0
M  V30 26699 C 3039.86 -0.880008 4.28456 0
M  V30 26700 C 3038.92 -1.89091 4.91051 0
M  V30 26701 O 3037.94 -1.44995 5.50423 0
M  V30 26702 N 3039.15 -3.22279 4.82821 0
M  V30 26703 H 3041.91 0.398694 2.97036 0
M  V30 26704 H 3039.47 0.358726 1.57876 0
M  V30 26705 H 3041.46 -2.0827 3.46995 0
M  V30 26706 H 3040.03 -1.98879 2.41176 0
M  V30 26707 H 3039.25 -0.0298536 3.94189 0
M  V30 26708 H 3040.54 -0.505792 5.0628 0
M  V30 26709 H 3039.94 -3.60775 4.35727 0
M  V30 26710 H 3038.5 -3.85359 5.25682 0
M  V30 26711 N 3041.93 -1.55447 0.259613 0
M  V30 26712 C 3043.18 -1.98852 -0.360858 0
M  V30 26713 C 3043.5 -1.14927 -1.57533 0
M  V30 26714 O 3042.77 -0.23506 -1.94485 0
M  V30 26715 H 3041.35 -0.734456 -0.136319 0
M  V30 26716 H 3044.01 -1.91521 0.361353 0
M  V30 26717 H 3043.11 -3.05013 -0.661335 0
M  V30 26718 N 3043.41 0.0133338 -1.57594 0
M  V30 26719 C 3044.63 0.715962 -1.9465 0
M  V30 26720 C 3045.06 1.67247 -0.860815 0
M  V30 26721 O 3044.42 1.80382 0.182196 0
M  V30 26722 C 3044.46 1.4356 -3.30791 0
M  V30 26723 O 3043.57 2.54949 -3.24152 0
M  V30 26724 H 3042.91 0.191437 -0.635805 0
M  V30 26725 H 3045.44 -0.0358837 -2.04569 0
M  V30 26726 H 3045.45 1.80202 -3.66048 0
M  V30 26727 H 3044.12 0.734191 -4.09368 0
M  V30 26728 H 3042.7 2.20733 -3.00551 0
M  V30 26729 N 3044.89 1.54985 0.285878 0
M  V30 26730 C 3046.13 1.74638 1.01715 0
M  V30 26731 C 3046.45 0.543375 1.87276 0
M  V30 26732 O 3045.72 -0.442044 1.90848 0
M  V30 26733 H 3044.3 0.643986 0.378538 0
M  V30 26734 H 3046.97 1.92367 0.313213 0
M  V30 26735 H 3046.06 2.64195 1.66154 0
M  V30 26736 N 3046.36 -0.549794 1.47699 0
M  V30 26737 C 3047.59 -1.33666 1.58582 0
M  V30 26738 C 3048.01 -1.86574 0.239082 0
M  V30 26739 O 3047.37 -1.63365 -0.786227 0
M  V30 26740 C 3047.42 -2.47731 2.62034 0
M  V30 26741 O 3046.52 -3.50184 2.17819 0
M  V30 26742 H 3045.87 -0.396723 0.532454 0
M  V30 26743 H 3048.4 -0.663666 1.93537 0
M  V30 26744 H 3048.41 -2.94197 2.82687 0
M  V30 26745 H 3047.08 -2.0858 3.59816 0
M  V30 26746 H 3045.66 -3.09972 2.07296 0
M  V30 26747 N 3047.84 -1.35955 -0.797117 0
M  V30 26748 C 3049.09 -1.295 -1.55158 0
M  V30 26749 C 3049.41 0.127625 -1.94582 0
M  V30 26750 O 3048.68 1.06619 -1.64345 0
M  V30 26751 H 3047.26 -0.47636 -0.575405 0
M  V30 26752 H 3049.92 -1.70165 -0.950252 0
M  V30 26753 H 3049.02 -1.91725 -2.46268 0
M  V30 26754 N 3049.32 1.02038 -1.20108 0
M  V30 26755 C 3050.25 2.10608 -0.904273 0
M  V30 26756 C 3051.27 1.62452 0.106459 0
M  V30 26757 O 3052.45 1.78068 -0.124066 0
M  V30 26758 C 3049.55 3.37255 -0.333483 0
M  V30 26759 C 3048.73 4.14564 -1.39484 0
M  V30 26760 C 3047.79 5.19516 -0.836052 0
M  V30 26761 O 3046.81 5.48645 -1.51583 0
M  V30 26762 N 3048.01 5.79405 0.356429 0
M  V30 26763 H 3050.78 2.36658 -1.83884 0
M  V30 26764 H 3048.34 1.18398 -1.10424 0
M  V30 26765 H 3050.33 4.04663 0.0543859 0
M  V30 26766 H 3048.9 3.08485 0.505554 0
M  V30 26767 H 3048.12 3.4218 -1.9572 0
M  V30 26768 H 3049.41 4.62998 -2.10975 0
M  V30 26769 H 3048.81 5.58069 0.926045 0
M  V30 26770 H 3047.37 6.4818 0.685979 0
M  V30 26771 N 3050.8 1.00636 1.21285 0
M  V30 26772 C 3052.02 0.708476 1.94924 0
M  V30 26773 C 3052.45 -0.722752 1.7366 0
M  V30 26774 O 3051.81 -1.49591 1.02432 0
M  V30 26775 C 3051.85 1.03673 3.45376 0
M  V30 26776 O 3050.96 0.142733 4.12153 0
M  V30 26777 H 3050.3 0.263834 0.609334 0
M  V30 26778 H 3052.83 1.34697 1.54006 0
M  V30 26779 H 3052.84 0.984156 3.95952 0
M  V30 26780 H 3051.51 2.07957 3.60176 0
M  V30 26781 H 3050.09 0.251953 3.72048 0
M  V30 26782 N 3052.28 -1.36872 0.781268 0
M  V30 26783 C 3053.69 -1.82049 0.414125 0
M  V30 26784 C 3054.04 -1.6504 -1.06095 0
M  V30 26785 O 3053.16 -1.1668 -1.82249 0
M  V30 26786 C 3053.76 -3.3051 0.744895 0
M  V30 26787 C 3052.32 -3.73928 0.430686 0
M  V30 26788 C 3051.46 -2.59262 0.983792 0
M  V30 26789 H 3054.42 -1.25209 0.975113 0
M  V30 26790 H 3054.44 -3.80486 0.0330029 0
M  V30 26791 H 3053.95 -3.42857 1.81853 0
M  V30 26792 H 3052.05 -3.67145 -0.635244 0
M  V30 26793 H 3052.16 -4.69676 0.945596 0
M  V30 26794 H 3050.53 -2.51419 0.407477 0
M  V30 26795 H 3051.31 -2.74398 2.06302 0
M  V30 26796 N 3053.75 -0.532597 -1.48328 0
M  V30 26797 C 3055 0.000545682 -2.021 0
M  V30 26798 C 3055.32 1.34519 -1.41172 0
M  V30 26799 O 3054.59 1.87178 -0.578038 0
M  V30 26800 H 3053.17 0.00318968 -0.746993 0
M  V30 26801 H 3055.84 -0.697023 -1.8201 0
M  V30 26802 H 3054.93 0.106936 -3.11917 0
M  V30 26803 N 3055.23 1.55307 -0.267853 0
M  V30 26804 C 3056.18 2.18917 0.637129 0
M  V30 26805 C 3057.17 1.15151 1.12379 0
M  V30 26806 O 3058.36 1.40991 1.07007 0
M  V30 26807 C 3055.49 2.90824 1.82418 0
M  V30 26808 C 3054.57 4.0187 1.35505 0
M  V30 26809 N 3054.96 5.0221 0.601556 0
M  V30 26810 C 3053.26 4.14808 1.63861 0
M  V30 26811 C 3053.96 5.8061 0.355858 0
M  V30 26812 N 3052.94 5.35652 0.926177 0
M  V30 26813 H 3056.74 2.93851 0.053527 0
M  V30 26814 H 3054.26 1.62244 -0.0710863 0
M  V30 26815 H 3056.25 3.34838 2.48373 0
M  V30 26816 H 3054.91 2.17398 2.41181 0
M  V30 26817 H 3055.92 5.17298 0.249602 0
M  V30 26818 H 3052.6 3.52568 2.23611 0
M  V30 26819 H 3053.99 6.71445 -0.247112 0
M  V30 26820 N 3056.71 -0.00497598 1.57599 0
M  V30 26821 C 3057.96 -0.689497 1.89975 0
M  V30 26822 C 3058.28 -1.74588 0.868561 0
M  V30 26823 O 3057.55 -1.95671 -0.0947023 0
M  V30 26824 H 3056.13 -0.257658 0.701157 0
M  V30 26825 H 3058.79 0.0347735 1.94869 0
M  V30 26826 H 3057.89 -1.16389 2.89586 0
M  V30 26827 N 3058.19 -1.55135 -0.277654 0
M  V30 26828 C 3059.12 -1.841 -1.36528 0
M  V30 26829 C 3060.13 -0.72522 -1.45755 0
M  V30 26830 O 3061.32 -1.00301 -1.47655 0
M  V30 26831 C 3058.42 -1.98481 -2.74697 0
M  V30 26832 C 3057.6 -3.29099 -2.88119 0
M  V30 26833 C 3056.65 -3.33603 -4.06934 0
M  V30 26834 O 3055.68 -4.07006 -3.97913 0
M  V30 26835 N 3056.88 -2.6067 -5.18682 0
M  V30 26836 H 3059.65 -2.77975 -1.12027 0
M  V30 26837 H 3057.21 -1.54995 -0.467765 0
M  V30 26838 H 3059.2 -1.98869 -3.52467 0
M  V30 26839 H 3057.77 -1.11493 -2.92041 0
M  V30 26840 H 3056.99 -3.41288 -1.97271 0
M  V30 26841 H 3058.28 -4.15251 -2.94014 0
M  V30 26842 H 3057.68 -2.00708 -5.28898 0
M  V30 26843 H 3056.23 -2.66787 -5.947 0
M  V30 26844 N 3059.67 0.541953 -1.47989 0
M  V30 26845 C 3061.08 0.869359 -1.33844 0
M  V30 26846 C 3061.28 1.98604 -0.340409 0
M  V30 26847 O 3060.34 2.51331 0.242652 0
M  V30 26848 C 3061.65 1.24818 -2.73571 0
M  V30 26849 C 3063.2 1.35875 -2.8197 0
M  V30 26850 C 3063.67 1.77106 -4.22371 0
M  V30 26851 N 3065.17 1.8423 -4.24987 0
M  V30 26852 C 3065.9 2.17493 -5.30551 0
M  V30 26853 N 3065.4 2.49264 -6.46405 0
M  V30 26854 N 3067.19 2.18397 -5.17937 0
M  V30 26855 H 3059.34 -0.195038 -2.11503 0
M  V30 26856 H 3061.6 -0.0246029 -0.947681 0
M  V30 26857 H 3061.31 0.501374 -3.48108 0
M  V30 26858 H 3061.18 2.201 -3.06326 0
M  V30 26859 H 3063.57 2.09635 -2.07695 0
M  V30 26860 H 3063.65 0.387434 -2.52849 0
M  V30 26861 H 3063.3 1.03911 -4.97157 0
M  V30 26862 H 3063.23 2.75267 -4.48927 0
M  V30 26863 H 3065.72 1.62003 -3.41414 0
M  V30 26864 H 3066.03 2.73716 -7.22703 0
M  V30 26865 H 3064.37 2.4681 -6.497 0
M  V30 26866 H 3067.57 1.93026 -4.26449 0
M  V30 26867 H 3067.74 2.4399 -6.00311 0
M  V30 26868 N 3061.15 1.36376 0.789896 0
M  V30 26869 C 3062.39 1.30321 1.54469 0
M  V30 26870 C 3062.71 -0.117304 1.94647 0
M  V30 26871 O 3061.98 -1.05746 1.64908 0
M  V30 26872 H 3060.56 0.479404 0.57287 0
M  V30 26873 H 3063.23 1.70667 0.941215 0
M  V30 26874 H 3062.32 1.93028 2.45248 0
M  V30 26875 N 3062.62 -1.014 1.20647 0
M  V30 26876 C 3063.85 -1.7917 1.04465 0
M  V30 26877 C 3064.27 -1.83764 -0.401556 0
M  V30 26878 O 3063.63 -1.27461 -1.28932 0
M  V30 26879 C 3063.68 -3.21358 1.63589 0
M  V30 26880 O 3062.78 -4.03005 0.875268 0
M  V30 26881 H 3062.12 -0.552532 0.368245 0
M  V30 26882 H 3064.65 -1.27523 1.59997 0
M  V30 26883 H 3064.66 -3.72062 1.67433 0
M  V30 26884 H 3063.34 -3.17329 2.6884 0
M  V30 26885 H 3061.92 -3.61595 0.911235 0
M  V30 26886 N 3064.1 -1.01278 -1.2075 0
M  V30 26887 C 3065.35 -0.698538 -1.89644 0
M  V30 26888 C 3065.67 0.773852 -1.78988 0
M  V30 26889 O 3064.94 1.5563 -1.18979 0
M  V30 26890 H 3063.52 -0.255387 -0.701987 0
M  V30 26891 H 3066.18 -1.28356 -1.46666 0
M  V30 26892 H 3065.28 -0.978564 -2.96362 0
M  V30 26893 N 3065.58 1.36456 -0.788516 0
M  V30 26894 C 3066.8 2.0405 -0.37126 0
M  V30 26895 C 3067.23 1.59066 1.00397 0
M  V30 26896 O 3066.59 0.758708 1.64661 0
M  V30 26897 C 3066.64 3.57877 -0.442338 0
M  V30 26898 O 3065.74 4.08702 0.551058 0
M  V30 26899 H 3065.08 0.644972 -0.15782 0
M  V30 26900 H 3067.61 1.74429 -1.06938 0
M  V30 26901 H 3067.62 4.06854 -0.305619 0
M  V30 26902 H 3066.3 3.89971 -1.44554 0
M  V30 26903 H 3064.87 3.70999 0.376075 0
M  V30 26904 N 3067.06 0.540456 1.48043 0
M  V30 26905 C 3068.47 0.199034 1.58354 0
M  V30 26906 C 3068.67 -1.29805 1.5412 0
M  V30 26907 O 3067.73 -2.07706 1.43577 0
M  V30 26908 C 3069.04 0.810848 2.89561 0
M  V30 26909 C 3070.59 0.780539 3.03112 0
M  V30 26910 C 3071.07 1.37112 4.36995 0
M  V30 26911 N 3072.56 1.33355 4.43588 0
M  V30 26912 C 3073.29 1.76031 5.45711 0
M  V30 26913 N 3072.79 2.26484 6.54734 0
M  V30 26914 N 3074.58 1.67203 5.36656 0
M  V30 26915 H 3066.73 1.51332 1.49038 0
M  V30 26916 H 3068.99 0.630094 0.708298 0
M  V30 26917 H 3068.7 1.86232 2.98346 0
M  V30 26918 H 3068.57 0.294043 3.76052 0
M  V30 26919 H 3070.96 -0.262195 2.93933 0
M  V30 26920 H 3071.04 1.33493 2.18205 0
M  V30 26921 H 3070.69 2.41283 4.46928 0
M  V30 26922 H 3070.62 0.792321 5.20605 0
M  V30 26923 H 3073.11 0.964323 3.65389 0
M  V30 26924 H 3073.42 2.57014 7.2881 0
M  V30 26925 H 3071.77 2.30484 6.55669 0
M  V30 26926 H 3074.96 1.27577 4.5038 0
M  V30 26927 H 3075.13 2.00782 6.16109 0
M  V30 26928 N 3068.54 -1.55163 0.276085 0
M  V30 26929 C 3069.47 -2.1996 -0.644216 0
M  V30 26930 C 3070.48 -1.18461 -1.11673 0
M  V30 26931 O 3071.67 -1.45183 -1.03847 0
M  V30 26932 C 3068.77 -2.81245 -1.89088 0
M  V30 26933 C 3067.94 -4.08443 -1.56502 0
M  V30 26934 C 3067 -4.53767 -2.66425 0
M  V30 26935 O 3066.03 -5.19519 -2.3257 0
M  V30 26936 N 3067.23 -4.23989 -3.96502 0
M  V30 26937 H 3069.99 -2.99566 -0.0896281 0
M  V30 26938 H 3067.56 -1.61608 0.0972265 0
M  V30 26939 H 3069.55 -3.0851 -2.61923 0
M  V30 26940 H 3068.12 -2.05626 -2.3545 0
M  V30 26941 H 3067.34 -3.88457 -0.670454 0
M  V30 26942 H 3068.63 -4.91316 -1.32233 0
M  V30 26943 H 3068.02 -3.71261 -4.26828 0
M  V30 26944 H 3066.58 -4.56022 -4.65712 0
M  V30 26945 N 3070.01 -0.00338196 -1.576 0
M  V30 26946 C 3071.24 0.695276 -1.95399 0
M  V30 26947 C 3071.66 1.66325 -0.878505 0
M  V30 26948 O 3071.02 1.80565 0.163054 0
M  V30 26949 C 3071.07 1.40044 -3.32295 0
M  V30 26950 O 3070.17 2.51497 -3.26838 0
M  V30 26951 H 3069.51 0.184683 -0.637799 0
M  V30 26952 H 3072.04 -0.0575789 -2.04519 0
M  V30 26953 H 3072.05 1.76309 -3.67939 0
M  V30 26954 H 3070.73 0.690731 -4.10124 0
M  V30 26955 H 3069.31 2.17533 -3.02876 0
M  V30 26956 N 3071.49 1.5528 0.269423 0
M  V30 26957 C 3072.9 1.66726 0.840204 0
M  V30 26958 C 3073.25 0.596654 1.86908 0
M  V30 26959 O 3072.38 -0.261209 2.14818 0
M  V30 26960 C 3072.97 3.02248 1.53075 0
M  V30 26961 C 3071.53 3.15709 2.04951 0
M  V30 26962 C 3070.68 2.62535 0.892792 0
M  V30 26963 H 3073.63 1.58634 0.0456957 0
M  V30 26964 H 3073.65 2.95436 2.39787 0
M  V30 26965 H 3073.16 3.80147 0.781674 0
M  V30 26966 H 3071.26 2.4259 2.82809 0
M  V30 26967 H 3071.38 4.2232 2.26236 0
M  V30 26968 H 3069.74 2.19783 1.28715 0
M  V30 26969 H 3070.52 3.4294 0.157169 0
M  V30 26970 N 3072.97 -0.534097 1.48274 0
M  V30 26971 C 3074.19 -1.31976 1.59991 0
M  V30 26972 C 3074.62 -1.8631 0.258857 0
M  V30 26973 O 3073.98 -1.6419 -0.768856 0
M  V30 26974 C 3074.03 -2.44938 2.64647 0
M  V30 26975 O 3073.13 -3.47854 2.21521 0
M  V30 26976 H 3072.47 -0.391053 0.536631 0
M  V30 26977 H 3075 -0.643101 1.9423 0
M  V30 26978 H 3075.01 -2.91182 2.85791 0
M  V30 26979 H 3073.69 -2.04752 3.62008 0
M  V30 26980 H 3072.26 -3.07756 2.10572 0
M  V30 26981 N 3074.45 -1.36793 -0.782652 0
M  V30 26982 C 3075.68 -1.34373 -1.56932 0
M  V30 26983 C 3076.09 0.0754496 -1.8905 0
M  V30 26984 O 3075.43 1.04465 -1.51105 0
M  V30 26985 C 3075.49 -2.10666 -2.91307 0
M  V30 26986 C 3075.15 -3.5971 -2.81883 0
M  V30 26987 C 3076.15 -4.5382 -2.5366 0
M  V30 26988 C 3073.84 -4.02687 -3.00247 0
M  V30 26989 C 3075.83 -5.88884 -2.43914 0
M  V30 26990 C 3073.52 -5.3784 -2.90122 0
M  V30 26991 C 3074.52 -6.30752 -2.61995 0
M  V30 26992 O 3074.2 -7.63422 -2.51876 0
M  V30 26993 H 3073.94 -0.462324 -0.493186 0
M  V30 26994 H 3076.49 -1.80581 -0.978759 0
M  V30 26995 H 3074.72 -1.59131 -3.5244 0
M  V30 26996 H 3076.41 -2.01018 -3.52628 0
M  V30 26997 H 3077.17 -4.21928 -2.39169 0
M  V30 26998 H 3073.05 -3.30737 -3.21145 0
M  V30 26999 H 3076.6 -6.61373 -2.2188 0
M  V30 27000 H 3072.49 -5.69338 -3.04179 0
M  V30 27001 H 3073.26 -7.73621 -2.67307 0
M  V30 27002 N 3075.93 1.00759 -1.21184 0
M  V30 27003 C 3077.17 1.74151 -1.02546 0
M  V30 27004 C 3077.5 1.89917 0.442339 0
M  V30 27005 O 3076.77 1.4482 1.31924 0
M  V30 27006 H 3075.35 0.645208 -0.376452 0
M  V30 27007 H 3078.01 1.21431 -1.52448 0
M  V30 27008 H 3077.1 2.74167 -1.49127 0
M  V30 27009 N 3077.4 1.01917 1.20211 0
M  V30 27010 C 3078.82 0.734484 1.41695 0
M  V30 27011 C 3079.02 -0.684833 1.89505 0
M  V30 27012 O 3078.08 -1.45223 2.06559 0
M  V30 27013 C 3079.39 1.76237 2.43641 0
M  V30 27014 C 3080.94 1.7808 2.57403 0
M  V30 27015 C 3081.41 2.79802 3.62595 0
M  V30 27016 N 3082.9 2.78558 3.70081 0
M  V30 27017 C 3083.64 3.53923 4.51139 0
M  V30 27018 N 3083.13 4.38972 5.35981 0
M  V30 27019 N 3084.93 3.42508 4.45696 0
M  V30 27020 H 3077.08 1.93542 0.874942 0
M  V30 27021 H 3079.34 0.836196 0.446632 0
M  V30 27022 H 3079.05 2.77932 2.15514 0
M  V30 27023 H 3078.92 1.57663 3.42669 0
M  V30 27024 H 3081.31 0.770684 2.84859 0
M  V30 27025 H 3081.39 2.00728 1.58562 0
M  V30 27026 H 3081.03 3.80979 3.35883 0
M  V30 27027 H 3080.96 2.54415 4.61064 0
M  V30 27028 H 3083.45 2.16866 3.0948 0
M  V30 27029 H 3083.77 4.9324 5.94923 0
M  V30 27030 H 3082.11 4.43049 5.35474 0
M  V30 27031 H 3085.3 2.75485 3.78452 0
M  V30 27032 H 3085.48 4.01496 5.0863 0
M  V30 27033 N 3078.88 -1.36036 0.795742 0
M  V30 27034 C 3079.83 -2.27354 0.171477 0
M  V30 27035 C 3080.82 -1.4726 -0.64832 0
M  V30 27036 O 3082.01 -1.69573 -0.507356 0
M  V30 27037 C 3079.14 -3.36339 -0.687817 0
M  V30 27038 C 3078.22 -4.23865 0.141115 0
M  V30 27039 N 3078.61 -4.91389 1.19876 0
M  V30 27040 C 3076.91 -4.4593 -0.0790262 0
M  V30 27041 C 3077.61 -5.56185 1.70392 0
M  V30 27042 N 3076.59 -5.34095 1.01211 0
M  V30 27043 H 3080.39 -2.77048 0.980895 0
M  V30 27044 H 3077.91 -1.49436 0.635824 0
M  V30 27045 H 3079.9 -4.00696 -1.151 0
M  V30 27046 H 3078.56 -2.88199 -1.49571 0
M  V30 27047 H 3079.57 -4.93169 1.58128 0
M  V30 27048 H 3076.25 -4.08611 -0.856921 0
M  V30 27049 H 3077.64 -6.20089 2.58726 0
M  V30 27050 N 3080.36 -0.5483 -1.47755 0
M  V30 27051 C 3081.61 -0.0208898 -2.02089 0
M  V30 27052 C 3081.93 1.33014 -1.42591 0
M  V30 27053 O 3081.2 1.86554 -0.597858 0
M  V30 27054 H 3079.78 -0.00473336 -0.746985 0
M  V30 27055 H 3082.44 -0.716288 -1.8126 0
M  V30 27056 H 3081.54 0.0738468 -3.12013 0
M  V30 27057 N 3081.84 1.55014 -0.28431 0
M  V30 27058 C 3083.06 2.04664 0.335763 0
M  V30 27059 C 3083.49 1.16097 1.47997 0
M  V30 27060 O 3082.85 0.161486 1.80579 0
M  V30 27061 C 3082.89 3.5194 0.785553 0
M  V30 27062 O 3082 3.66441 1.89196 0
M  V30 27063 H 3081.34 0.660508 0.0680117 0
M  V30 27064 H 3083.87 2.00216 -0.42129 0
M  V30 27065 H 3083.88 3.93478 1.07885 0
M  V30 27066 H 3082.55 4.15868 -0.0515406 0
M  V30 27067 H 3081.13 3.36807 1.60049 0
M  V30 27068 N 3083.32 0.0117398 1.57596 0
M  V30 27069 C 3084.56 -0.669309 1.90695 0
M  V30 27070 C 3084.89 -1.73657 0.88703 0
M  V30 27071 O 3084.16 -1.9576 -0.0739435 0
M  V30 27072 H 3082.74 -0.250207 0.703851 0
M  V30 27073 H 3085.4 0.05544 1.94821 0
M  V30 27074 H 3084.49 -1.13311 2.90804 0
M  V30 27075 N 3084.79 -1.55421 -0.261185 0
M  V30 27076 C 3086.02 -1.80957 -1.01337 0
M  V30 27077 C 3086.44 -0.58688 -1.7871 0
M  V30 27078 O 3085.8 0.463806 -1.75267 0
M  V30 27079 C 3085.85 -3.04076 -1.9383 0
M  V30 27080 O 3084.95 -2.7999 -3.02786 0
M  V30 27081 H 3084.3 -0.597754 -0.289113 0
M  V30 27082 H 3086.83 -2.02584 -0.286507 0
M  V30 27083 H 3086.84 -3.33127 -2.35564 0
M  V30 27084 H 3085.51 -3.92713 -1.36929 0
M  V30 27085 H 3084.09 -2.62068 -2.65283 0
M  V30 27086 N 3086.27 0.526227 -1.48555 0
M  V30 27087 C 3087.52 1.27932 -1.56454 0
M  V30 27088 C 3087.84 1.93494 -0.241874 0
M  V30 27089 O 3087.11 1.81513 0.736886 0
M  V30 27090 H 3085.69 0.47517 -0.576388 0
M  V30 27091 H 3088.35 0.612051 -1.8504 0
M  V30 27092 H 3087.45 2.05662 -2.34754 0
M  V30 27093 N 3087.75 1.37206 0.775387 0
M  V30 27094 C 3089.17 1.17926 1.07543 0
M  V30 27095 C 3089.37 0.0129251 2.01496 0
M  V30 27096 O 3088.42 -0.648117 2.4404 0
M  V30 27097 C 3089.74 2.49632 1.67643 0
M  V30 27098 C 3091.28 2.56122 1.79918 0
M  V30 27099 C 3091.76 3.8795 2.43431 0
M  V30 27100 N 3093.25 3.89372 2.50886 0
M  V30 27101 C 3093.98 4.88122 3.00872 0
M  V30 27102 N 3093.48 5.97268 3.51059 0
M  V30 27103 N 3095.27 4.7553 2.99713 0
M  V30 27104 H 3087.42 2.11859 0.151486 0
M  V30 27105 H 3089.69 0.939068 0.129829 0
M  V30 27106 H 3089.39 3.35322 1.06077 0
M  V30 27107 H 3089.27 2.66458 2.66983 0
M  V30 27108 H 3091.65 1.70842 2.40618 0
M  V30 27109 H 3091.74 2.43183 0.793439 0
M  V30 27110 H 3091.38 4.73643 1.83372 0
M  V30 27111 H 3091.31 3.9819 3.44604 0
M  V30 27112 H 3093.8 3.10526 2.15364 0
M  V30 27113 H 3094.11 6.68574 3.87593 0
M  V30 27114 H 3092.46 6.00918 3.49174 0
M  V30 27115 H 3095.65 3.89384 2.59803 0
M  V30 27116 H 3095.82 5.52645 3.3836 0
M  V30 27117 N 3089.23 -1.00115 1.21716 0
M  V30 27118 C 3090.45 -1.78052 1.0636 0
M  V30 27119 C 3090.88 -1.84179 -0.382043 0
M  V30 27120 O 3090.24 -1.28821 -1.27573 0
M  V30 27121 C 3090.28 -3.19605 1.66988 0
M  V30 27122 O 3089.39 -4.02054 0.917963 0
M  V30 27123 H 3088.73 -0.548596 0.374084 0
M  V30 27124 H 3091.26 -1.25819 1.6134 0
M  V30 27125 H 3091.27 -3.70265 1.71369 0
M  V30 27126 H 3089.94 -3.1446 2.72191 0
M  V30 27127 H 3088.52 -3.60608 0.949536 0
M  V30 27128 N 3090.71 -1.02553 -1.19669 0
M  V30 27129 C 3091.93 -0.739397 -1.93772 0
M  V30 27130 C 3092.36 0.695033 -1.74788 0
M  V30 27131 O 3091.72 1.47942 -1.04798 0
M  V30 27132 C 3091.76 -1.09155 -3.43682 0
M  V30 27133 O 3090.87 -0.208285 -4.11874 0
M  V30 27134 H 3090.21 -0.273495 -0.605059 0
M  V30 27135 H 3092.74 -1.3713 -1.51843 0
M  V30 27136 H 3092.75 -1.04702 -3.94337 0
M  V30 27137 H 3091.42 -2.1366 -3.56822 0
M  V30 27138 H 3090 -0.311111 -3.716 0
M  V30 27139 N 3092.19 1.35612 -0.802945 0
M  V30 27140 C 3093.41 2.03645 -0.392882 0
M  V30 27141 C 3093.84 1.60122 0.987047 0
M  V30 27142 O 3093.19 0.77613 1.63847 0
M  V30 27143 C 3093.24 3.57387 -0.480271 0
M  V30 27144 O 3092.35 4.09263 0.507679 0
M  V30 27145 H 3091.69 0.643262 -0.164652 0
M  V30 27146 H 3094.22 1.73285 -1.08782 0
M  V30 27147 H 3094.23 4.06507 -0.348754 0
M  V30 27148 H 3092.9 3.88415 -1.48682 0
M  V30 27149 H 3091.48 3.71377 0.336704 0
M  V30 27150 N 3093.66 0.556128 1.47462 0
M  V30 27151 C 3094.89 0.0345093 2.07371 0
M  V30 27152 C 3095.31 -1.24927 1.40623 0
M  V30 27153 O 3094.67 -1.74807 0.480851 0
M  V30 27154 C 3094.72 -0.145499 3.60306 0
M  V30 27155 O 3093.82 -1.20832 3.94301 0
M  V30 27156 H 3093.16 0.050839 0.662051 0
M  V30 27157 H 3095.69 0.771502 1.89497 0
M  V30 27158 H 3095.7 -0.360041 4.06408 0
M  V30 27159 H 3094.38 0.79216 4.08286 0
M  V30 27160 H 3092.96 -0.974357 3.59945 0
M  V30 27161 N 3095.14 -1.54861 0.292527 0
M  V30 27162 C 3096.39 -1.99573 -0.318598 0
M  V30 27163 C 3096.71 -1.18243 -1.5506 0
M  V30 27164 O 3095.98 -0.27626 -1.93942 0
M  V30 27165 H 3094.56 -0.737183 -0.120709 0
M  V30 27166 H 3097.22 -1.90711 0.401896 0
M  V30 27167 H 3096.32 -3.06347 -0.596488 0
M  V30 27168 N 3096.62 -0.0200973 -1.57587 0
M  V30 27169 C 3097.55 0.993323 -2.06557 0
M  V30 27170 C 3098.56 1.2945 -0.98725 0
M  V30 27171 O 3099.75 1.26073 -1.26364 0
M  V30 27172 C 3096.85 2.32305 -2.46754 0
M  V30 27173 C 3096.03 2.20836 -3.77558 0
M  V30 27174 C 3095.09 3.36667 -4.04403 0
M  V30 27175 O 3094.11 3.13955 -4.74785 0
M  V30 27176 N 3095.31 4.6017 -3.5387 0
M  V30 27177 H 3098.08 0.575565 -2.94121 0
M  V30 27178 H 3095.64 0.166861 -1.61038 0
M  V30 27179 H 3097.63 3.08604 -2.61812 0
M  V30 27180 H 3096.2 2.65753 -1.64603 0
M  V30 27181 H 3095.42 1.29321 -3.72384 0
M  V30 27182 H 3096.71 2.10367 -4.63274 0
M  V30 27183 H 3096.11 4.81518 -2.96912 0
M  V30 27184 H 3094.66 5.33668 -3.74222 0
M  V30 27185 N 3098.1 1.55557 0.252939 0
M  V30 27186 C 3099.05 1.86199 1.31582 0
M  V30 27187 C 3100.03 0.722382 1.43772 0
M  V30 27188 O 3101.22 0.984178 1.47115 0
M  V30 27189 C 3098.35 2.15492 2.67242 0
M  V30 27190 C 3097.44 3.35765 2.59081 0
M  V30 27191 N 3097.83 4.55184 2.20548 0
M  V30 27192 C 3096.13 3.38755 2.90106 0
M  V30 27193 C 3096.83 5.37311 2.22871 0
M  V30 27194 N 3095.8 4.7622 2.62137 0
M  V30 27195 H 3099.61 2.76062 1.0083 0
M  V30 27196 H 3097.12 1.55703 0.461571 0
M  V30 27197 H 3099.12 2.35608 3.4394 0
M  V30 27198 H 3097.78 1.26924 2.98865 0
M  V30 27199 H 3098.79 4.80919 1.92192 0
M  V30 27200 H 3095.47 2.6044 3.26309 0
M  V30 27201 H 3096.86 6.42838 1.95471 0
M  V30 27202 N 3099.58 -0.518341 1.48832 0
M  V30 27203 C 3100.82 -1.271 1.5713 0
M  V30 27204 C 3101.14 -1.93363 0.252132 0
M  V30 27205 O 3100.41 -1.81901 -0.727249 0
M  V30 27206 H 3098.99 -0.472106 0.5789 0
M  V30 27207 H 3101.66 -0.602229 1.85362 0
M  V30 27208 H 3100.75 -2.04414 2.35842 0
M  V30 27209 N 3101.05 -1.37615 -0.7681 0
M  V30 27210 C 3102.46 -1.29528 -1.3446 0
M  V30 27211 C 3102.82 0.0554824 -1.96122 0
M  V30 27212 O 3101.94 0.957371 -1.94071 0
M  V30 27213 C 3102.54 -2.34563 -2.44471 0
M  V30 27214 C 3101.09 -2.30098 -2.97879 0
M  V30 27215 C 3100.24 -2.18199 -1.71128 0
M  V30 27216 H 3103.19 -1.48184 -0.568077 0
M  V30 27217 H 3103.21 -1.99439 -3.24043 0
M  V30 27218 H 3102.73 -3.32861 -1.99562 0
M  V30 27219 H 3100.83 -1.35334 -3.47153 0
M  V30 27220 H 3100.94 -3.23659 -3.53245 0
M  V30 27221 H 3099.3 -1.64805 -1.94194 0
M  V30 27222 H 3100.09 -3.18417 -1.28318 0
M  V30 27223 N 3102.53 0.994677 -1.22245 0
M  V30 27224 C 3103.78 1.73054 -1.04387 0
M  V30 27225 C 3104.1 1.90375 0.422171 0
M  V30 27226 O 3103.37 1.46211 1.30381 0
M  V30 27227 H 3101.95 0.641179 -0.383274 0
M  V30 27228 H 3104.61 1.19808 -1.53728 0
M  V30 27229 H 3103.71 2.7257 -1.52026 0
M  V30 27230 N 3104.01 1.03186 1.19123 0
M  V30 27231 C 3104.94 0.635928 2.24674 0
M  V30 27232 C 3105.92 -0.356536 1.66321 0
M  V30 27233 O 3107.11 -0.238591 1.92729 0
M  V30 27234 C 3104.24 -0.011008 3.47298 0
M  V30 27235 C 3103.19 0.904053 4.18343 0
M  V30 27236 C 3102.52 0.122064 5.34561 0
M  V30 27237 C 3103.82 2.21915 4.72812 0
M  V30 27238 H 3105.51 1.51829 2.58047 0
M  V30 27239 H 3103.06 0.731482 1.24038 0
M  V30 27240 H 3105.01 -0.299656 4.20333 0
M  V30 27241 H 3103.73 -0.92819 3.13133 0
M  V30 27242 H 3102.39 1.17694 3.47194 0
M  V30 27243 H 3102.04 -0.797247 4.96642 0
M  V30 27244 H 3101.74 0.7316 5.83028 0
M  V30 27245 H 3103.26 -0.159773 6.10391 0
M  V30 27246 H 3104.68 1.99182 5.37587 0
M  V30 27247 H 3103.07 2.78088 5.31778 0
M  V30 27248 H 3104.14 2.87175 3.90715 0
M  V30 27249 N 3105.49 -1.35184 0.810125 0
M  V30 27250 C 3106.74 -1.98274 0.391378 0
M  V30 27251 C 3107.06 -1.64578 -1.04589 0
M  V30 27252 O 3106.33 -0.930041 -1.72415 0
M  V30 27253 H 3104.91 -0.733432 0.141728 0
M  V30 27254 H 3107.57 -1.65038 1.03675 0
M  V30 27255 H 3106.67 -3.08069 0.499964 0
M  V30 27256 N 3106.97 -0.56394 -1.47165 0
M  V30 27257 C 3107.88 0.182936 -2.33886 0
M  V30 27258 C 3108.89 0.905106 -1.48606 0
M  V30 27259 O 3110.07 0.872495 -1.8152 0
M  V30 27260 C 3107.13 1.19552 -3.25435 0
M  V30 27261 C 3106.19 0.480054 -4.26608 0
M  V30 27262 C 3105.43 1.4444 -5.13783 0
M  V30 27263 O 3105.65 2.6797 -5.03536 0
M  V30 27264 O 3104.58 0.965216 -5.9411 0
M  V30 27265 H 3108.41 -0.528596 -2.99064 0
M  V30 27266 H 3106 -0.324494 -1.45833 0
M  V30 27267 H 3107.88 1.77986 -3.81967 0
M  V30 27268 H 3106.55 1.88886 -2.62876 0
M  V30 27269 H 3105.46 -0.145649 -3.73816 0
M  V30 27270 H 3106.79 -0.171955 -4.919 0
M  V30 27271 N 3108.44 1.54704 -0.300735 0
M  V30 27272 C 3109.67 2.05009 0.314037 0
M  V30 27273 C 3110.09 1.1766 1.46757 0
M  V30 27274 O 3109.45 0.180629 1.80398 0
M  V30 27275 C 3109.5 3.52753 0.748181 0
M  V30 27276 O 3108.6 3.68427 1.85298 0
M  V30 27277 H 3107.95 0.661192 0.0610023 0
M  V30 27278 H 3110.48 1.99758 -0.442502 0
M  V30 27279 H 3110.49 3.946 1.03706 0
M  V30 27280 H 3109.16 4.1579 -0.095646 0
M  V30 27281 H 3107.74 3.38485 1.56467 0
M  V30 27282 N 3109.92 0.0284543 1.57574 0
M  V30 27283 C 3111.15 -0.664102 1.9648 0
M  V30 27284 C 3111.57 -1.64906 0.904855 0
M  V30 27285 O 3110.93 -1.80802 -0.134307 0
M  V30 27286 C 3110.98 -1.34739 3.34481 0
M  V30 27287 O 3110.08 -2.46265 3.30798 0
M  V30 27288 H 3109.42 -0.174513 0.640657 0
M  V30 27289 H 3111.95 0.0901088 2.04401 0
M  V30 27290 H 3111.96 -1.70433 3.70697 0
M  V30 27291 H 3110.64 -0.625396 4.11171 0
M  V30 27292 H 3109.22 -2.12687 3.06298 0
M  V30 27293 N 3111.4 -1.55689 -0.244686 0
M  V30 27294 C 3112.65 -1.77273 -0.970494 0
M  V30 27295 C 3112.97 -0.592837 -1.8577 0
M  V30 27296 O 3112.24 0.391289 -1.91952 0
M  V30 27297 H 3110.82 -0.653796 -0.361331 0
M  V30 27298 H 3113.48 -1.9313 -0.2621 0
M  V30 27299 H 3112.58 -2.68508 -1.59091 0
M  V30 27300 N 3112.88 0.510441 -1.49105 0
M  V30 27301 C 3114.13 1.26515 -1.58114 0
M  V30 27302 C 3114.45 1.92705 -0.263637 0
M  V30 27303 O 3113.71 1.80853 0.747711 0
M  V30 27304 C 3114.01 2.36156 -2.68263 0
M  V30 27305 C 3113.67 1.87488 -4.10072 0
M  V30 27306 C 3112.34 1.73934 -4.48665 0
M  V30 27307 C 3114.69 1.50951 -4.98862 0
M  V30 27308 C 3112.02 1.22207 -5.73831 0
M  V30 27309 C 3114.37 1.0068 -6.24537 0
M  V30 27310 C 3113.03 0.857574 -6.61968 0
M  V30 27311 H 3112.3 0.462952 -0.578582 0
M  V30 27312 H 3114.95 0.567442 -1.829 0
M  V30 27313 H 3113.25 3.11677 -2.37413 0
M  V30 27314 H 3114.95 2.94236 -2.72445 0
M  V30 27315 H 3111.54 1.98994 -3.79604 0
M  V30 27316 H 3115.72 1.60274 -4.69708 0
M  V30 27317 H 3110.98 1.09357 -6.0154 0
M  V30 27318 H 3115.15 0.714858 -6.92721 0
M  V30 27319 H 3112.78 0.454569 -7.5884 0
M  V30 27320 N 3114.36 1.38021 0.760791 0
M  V30 27321 C 3115.6 1.33568 1.5167 0
M  V30 27322 C 3115.93 -0.0759898 1.94852 0
M  V30 27323 O 3115.2 -1.02224 1.67114 0
M  V30 27324 H 3113.78 0.491448 0.562573 0
M  V30 27325 H 3116.44 1.72625 0.904802 0
M  V30 27326 H 3115.53 1.98187 2.41099 0
M  V30 27327 N 3115.83 -0.98818 1.22771 0
M  V30 27328 C 3116.78 -2.06373 0.969238 0
M  V30 27329 C 3117.77 -1.60691 -0.0818991 0
M  V30 27330 O 3118.96 -1.76528 0.129232 0
M  V30 27331 C 3116.09 -3.38801 0.553979 0
M  V30 27332 C 3115.18 -3.91103 1.6401 0
M  V30 27333 N 3115.57 -4.16574 2.86879 0
M  V30 27334 C 3113.86 -4.19557 1.51288 0
M  V30 27335 C 3114.57 -4.59154 3.57145 0
M  V30 27336 N 3113.54 -4.63126 2.84632 0
M  V30 27337 H 3117.34 -2.24013 1.90251 0
M  V30 27338 H 3114.86 -1.17031 1.12594 0
M  V30 27339 H 3116.85 -4.15427 0.350106 0
M  V30 27340 H 3115.51 -3.22558 -0.372333 0
M  V30 27341 H 3116.53 -4.04627 3.23261 0
M  V30 27342 H 3113.2 -4.1236 0.653104 0
M  V30 27343 H 3114.59 -4.87444 4.62437 0
M  V30 27344 N 3117.31 -1.03816 -1.18575 0
M  V30 27345 C 3118.26 -0.597447 -2.20033 0
M  V30 27346 C 3119.25 0.358768 -1.56849 0
M  V30 27347 O 3120.44 0.178231 -1.761 0
M  V30 27348 C 3117.57 0.0407361 -3.43276 0
M  V30 27349 C 3116.65 -0.938477 -4.13586 0
M  V30 27350 N 3117.04 -2.10455 -4.59937 0
M  V30 27351 C 3115.34 -0.763931 -4.39409 0
M  V30 27352 C 3116.04 -2.72291 -5.14036 0
M  V30 27353 N 3115.02 -2.00185 -5.05398 0
M  V30 27354 H 3118.82 -1.4861 -2.53559 0
M  V30 27355 H 3116.34 -0.906408 -1.34752 0
M  V30 27356 H 3118.33 0.374149 -4.15218 0
M  V30 27357 H 3116.99 0.924959 -3.11247 0
M  V30 27358 H 3118 -2.48355 -4.54467 0
M  V30 27359 H 3114.68 0.0704135 -4.17441 0
M  V30 27360 H 3116.07 -3.71098 -5.60122 0
M  V30 27361 N 3118.79 1.34753 -0.817283 0
M  V30 27362 C 3119.7 2.334 -0.236987 0
M  V30 27363 C 3120.72 1.62362 0.625657 0
M  V30 27364 O 3121.89 1.94167 0.534887 0
M  V30 27365 C 3118.96 3.41536 0.596155 0
M  V30 27366 C 3118.02 4.28331 -0.28823 0
M  V30 27367 C 3117.25 5.31303 0.505243 0
M  V30 27368 O 3117.47 5.43244 1.73902 0
M  V30 27369 O 3116.41 6.018 -0.10948 0
M  V30 27370 H 3120.23 2.84849 -1.05333 0
M  V30 27371 H 3117.82 1.37712 -0.579299 0
M  V30 27372 H 3119.7 4.0758 1.07034 0
M  V30 27373 H 3118.38 2.92341 1.38991 0
M  V30 27374 H 3117.28 3.6523 -0.809788 0
M  V30 27375 H 3118.62 4.80953 -1.0462 0
M  V30 27376 N 3120.27 0.571737 1.46864 0
M  V30 27377 C 3121.49 0.0565019 2.07323 0
M  V30 27378 C 3121.92 -1.23429 1.4194 0
M  V30 27379 O 3121.28 -1.74287 0.499364 0
M  V30 27380 C 3121.33 -0.107276 3.6044 0
M  V30 27381 O 3120.43 -1.16643 3.95561 0
M  V30 27382 H 3119.77 0.0578581 0.661474 0
M  V30 27383 H 3122.3 0.791558 1.88668 0
M  V30 27384 H 3122.31 -0.316915 4.06767 0
M  V30 27385 H 3120.99 0.83542 4.07423 0
M  V30 27386 H 3119.56 -0.936125 3.60959 0
M  V30 27387 N 3121.75 -1.54542 0.308935 0
M  V30 27388 C 3122.97 -2.05172 -0.30316 0
M  V30 27389 C 3123.4 -1.18437 -1.46131 0
M  V30 27390 O 3122.76 -0.190194 -1.803 0
M  V30 27391 C 3122.8 -3.53145 -0.729464 0
M  V30 27392 O 3121.91 -3.69404 -1.83342 0
M  V30 27393 H 3121.25 -0.661506 -0.0574949 0
M  V30 27394 H 3123.78 -1.9952 0.45309 0
M  V30 27395 H 3123.79 -3.95144 -1.01612 0
M  V30 27396 H 3122.46 -4.15733 0.117695 0
M  V30 27397 H 3121.04 -3.3931 -1.5467 0
M  V30 27398 N 3123.23 -0.0368104 -1.57557 0
M  V30 27399 C 3124.45 0.653673 -1.9683 0
M  V30 27400 C 3124.88 1.64424 -0.913588 0
M  V30 27401 O 3124.23 1.80871 0.124717 0
M  V30 27402 C 3124.28 1.32964 -3.35191 0
M  V30 27403 O 3123.39 2.44507 -3.32099 0
M  V30 27404 H 3122.73 0.171113 -0.641573 0
M  V30 27405 H 3125.26 -0.100947 -2.04351 0
M  V30 27406 H 3125.27 1.68465 -3.71596 0
M  V30 27407 H 3123.94 0.603582 -4.11497 0
M  V30 27408 H 3122.52 2.1106 -3.07422 0
M  V30 27409 N 3124.7 1.55817 0.236426 0
M  V30 27410 C 3125.95 1.77786 0.961079 0
M  V30 27411 C 3126.27 0.60268 1.85453 0
M  V30 27412 O 3125.54 -0.381104 1.92157 0
M  V30 27413 H 3124.12 0.655703 0.357859 0
M  V30 27414 H 3126.78 1.93266 0.251854 0
M  V30 27415 H 3125.88 2.69348 1.57665 0
M  V30 27416 N 3126.18 -0.502526 1.49373 0
M  V30 27417 C 3127.11 -1.6209 1.62048 0
M  V30 27418 C 3128.13 -1.54827 0.503248 0
M  V30 27419 O 3129.32 -1.60787 0.775237 0
M  V30 27420 C 3126.42 -3.00873 1.55976 0
M  V30 27421 C 3125.59 -3.33336 2.83206 0
M  V30 27422 C 3124.65 -4.51524 2.70208 0
M  V30 27423 O 3123.67 -4.53383 3.4414 0
M  V30 27424 N 3124.88 -5.51347 1.81651 0
M  V30 27425 H 3127.64 -1.51645 2.58503 0
M  V30 27426 H 3125.2 -0.69037 1.46443 0
M  V30 27427 H 3127.19 -3.77856 1.44937 0
M  V30 27428 H 3125.76 -3.05251 0.673849 0
M  V30 27429 H 3124.98 -2.45265 3.08608 0
M  V30 27430 H 3126.27 -3.51822 3.67557 0
M  V30 27431 H 3125.67 -5.52643 1.20839 0
M  V30 27432 H 3124.23 -6.27438 1.76535 0
M  V30 27433 N 3127.66 -1.38422 -0.75346 0
M  V30 27434 C 3128.88 -1.3805 -1.54781 0
M  V30 27435 C 3129.31 0.027604 -1.8808 0
M  V30 27436 O 3128.67 1.0097 -1.50581 0
M  V30 27437 C 3128.72 -2.24302 -2.82349 0
M  V30 27438 O 3127.82 -1.6602 -3.77506 0
M  V30 27439 H 3127.16 -0.470891 -0.468143 0
M  V30 27440 H 3129.69 -1.82185 -0.931112 0
M  V30 27441 H 3129.7 -2.38165 -3.31273 0
M  V30 27442 H 3128.38 -3.26643 -2.57443 0
M  V30 27443 H 3126.95 -1.613 -3.3621 0
M  V30 27444 N 3129.14 0.981655 -1.23294 0
M  V30 27445 C 3130.36 1.76337 -1.09179 0
M  V30 27446 C 3130.79 1.84764 0.352693 0
M  V30 27447 O 3130.15 1.30834 1.25507 0
M  V30 27448 C 3130.19 3.16908 -1.72051 0
M  V30 27449 O 3129.3 4.00542 -0.98181 0
M  V30 27450 H 3128.64 0.542575 -0.382764 0
M  V30 27451 H 3131.17 1.23237 -1.63322 0
M  V30 27452 H 3131.18 3.67492 -1.77238 0
M  V30 27453 H 3129.85 3.1009 -2.77159 0
M  V30 27454 H 3128.43 3.59052 -1.00679 0
M  V30 27455 N 3130.62 1.04444 1.18022 0
M  V30 27456 C 3131.84 0.770131 1.92571 0
M  V30 27457 C 3132.27 -0.667138 1.75872 0
M  V30 27458 O 3131.62 -1.46256 1.07139 0
M  V30 27459 C 3131.67 1.14608 3.41902 0
M  V30 27460 O 3130.78 0.273784 4.1149 0
M  V30 27461 H 3130.12 0.283086 0.600631 0
M  V30 27462 H 3132.65 1.39529 1.49643 0
M  V30 27463 H 3132.66 1.10963 3.92621 0
M  V30 27464 H 3131.33 2.1931 3.53378 0
M  V30 27465 H 3129.91 0.37019 3.71058 0
M  V30 27466 N 3132.09 -1.34317 0.824418 0
M  V30 27467 C 3133.32 -2.02169 0.425612 0
M  V30 27468 C 3133.73 -1.62229 -0.973567 0
M  V30 27469 O 3133.07 -0.824228 -1.64171 0
M  V30 27470 C 3133.14 -3.56673 0.449965 0
M  V30 27471 C 3132.8 -4.19941 1.80274 0
M  V30 27472 C 3133.8 -4.40352 2.76381 0
M  V30 27473 C 3131.48 -4.5668 2.09163 0
M  V30 27474 C 3133.48 -4.96628 3.99549 0
M  V30 27475 C 3131.16 -5.12666 3.3259 0
M  V30 27476 C 3132.16 -5.32585 4.27601 0
M  V30 27477 O 3131.85 -5.87386 5.48847 0
M  V30 27478 H 3131.58 -0.654566 0.168878 0
M  V30 27479 H 3134.14 -1.72538 1.11444 0
M  V30 27480 H 3132.37 -3.85569 -0.295563 0
M  V30 27481 H 3134.05 -4.05838 0.0710016 0
M  V30 27482 H 3134.82 -4.12331 2.55359 0
M  V30 27483 H 3130.7 -4.40479 1.36012 0
M  V30 27484 H 3134.24 -5.12091 4.73718 0
M  V30 27485 H 3130.14 -5.40116 3.53476 0
M  V30 27486 H 3130.91 -6.05818 5.50388 0
M  V30 27487 N 3133.57 -0.579517 -1.46558 0
M  V30 27488 C 3134.8 -0.067496 -2.0729 0
M  V30 27489 C 3135.22 1.22674 -1.42593 0
M  V30 27490 O 3134.58 1.7402 -0.5086 0
M  V30 27491 C 3134.63 0.0881594 -3.60492 0
M  V30 27492 O 3133.73 1.14544 -3.96174 0
M  V30 27493 H 3133.07 -0.0613652 -0.661158 0
M  V30 27494 H 3135.6 -0.801552 -1.88245 0
M  V30 27495 H 3135.61 0.295339 -4.0693 0
M  V30 27496 H 3134.29 -0.857015 -4.06974 0
M  V30 27497 H 3132.86 0.916969 -3.6145 0
M  V30 27498 N 3135.05 1.54376 -0.317127 0
M  V30 27499 C 3135.98 2.21591 0.585671 0
M  V30 27500 C 3137 1.2138 1.08493 0
M  V30 27501 O 3138.18 1.47885 0.999612 0
M  V30 27502 C 3135.28 2.8616 1.81565 0
M  V30 27503 C 3134.46 4.12449 1.45617 0
M  V30 27504 C 3133.52 4.60671 2.543 0
M  V30 27505 O 3132.54 5.25502 2.18714 0
M  V30 27506 N 3133.74 4.34352 3.85121 0
M  V30 27507 H 3136.51 2.99698 0.010172 0
M  V30 27508 H 3134.07 1.61293 -0.14004 0
M  V30 27509 H 3136.06 3.15346 2.53652 0
M  V30 27510 H 3134.63 2.11797 2.29915 0
M  V30 27511 H 3133.85 3.90098 0.567226 0
M  V30 27512 H 3135.14 4.9465 1.1916 0
M  V30 27513 H 3134.54 3.82447 4.16834 0
M  V30 27514 H 3133.1 4.68209 4.53457 0
M  V30 27515 N 3136.53 0.0451655 1.57535 0
M  V30 27516 C 3137.48 -0.940793 2.07685 0
M  V30 27517 C 3138.46 -1.27556 0.980722 0
M  V30 27518 O 3139.65 -1.25899 1.24412 0
M  V30 27519 C 3136.78 -2.21773 2.62053 0
M  V30 27520 C 3135.87 -1.91062 3.78624 0
M  V30 27521 N 3136.26 -1.30685 4.88626 0
M  V30 27522 C 3134.56 -2.20965 3.87415 0
M  V30 27523 C 3135.26 -1.17468 5.69716 0
M  V30 27524 N 3134.24 -1.67557 5.17132 0
M  V30 27525 H 3138.04 -0.469216 2.9013 0
M  V30 27526 H 3135.55 -0.159443 1.61615 0
M  V30 27527 H 3137.55 -2.93297 2.96281 0
M  V30 27528 H 3136.21 -2.69543 1.81044 0
M  V30 27529 H 3137.22 -0.979818 5.08547 0
M  V30 27530 H 3133.9 -2.71297 3.17339 0
M  V30 27531 H 3135.29 -0.706456 6.68176 0
M  V30 27532 N 3138.01 -1.5594 -0.228159 0
M  V30 27533 C 3139.25 -1.78293 -0.951637 0
M  V30 27534 C 3139.58 -0.612507 -1.85131 0
M  V30 27535 O 3138.85 0.370908 -1.92357 0
M  V30 27536 H 3137.43 -0.657591 -0.354376 0
M  V30 27537 H 3140.09 -1.93397 -0.241601 0
M  V30 27538 H 3139.18 -2.7018 -1.56234 0
M  V30 27539 N 3139.48 0.494597 -1.49638 0
M  V30 27540 C 3140.71 1.27688 -1.63433 0
M  V30 27541 C 3141.13 1.85559 -0.308163 0
M  V30 27542 O 3140.49 1.66171 0.725054 0
M  V30 27543 C 3140.54 2.37835 -2.71048 0
M  V30 27544 O 3139.64 3.41858 -2.30666 0
M  V30 27545 H 3138.99 0.376688 -0.546811 0
M  V30 27546 H 3141.52 0.591378 -1.95867 0
M  V30 27547 H 3141.53 2.83503 -2.93411 0
M  V30 27548 H 3140.2 1.95082 -3.67309 0
M  V30 27549 H 3138.78 3.02065 -2.18658 0
M  V30 27550 N 3140.96 1.3882 0.746109 0
M  V30 27551 C 3142.21 1.3517 1.50245 0
M  V30 27552 C 3142.53 -0.0553188 1.94922 0
M  V30 27553 O 3141.8 -1.00446 1.68189 0
M  V30 27554 H 3140.38 0.497387 0.557328 0
M  V30 27555 H 3143.04 1.73575 0.886442 0
M  V30 27556 H 3142.14 2.00733 2.38983 0
M  V30 27557 N 3142.44 -0.975103 1.23812 0
M  V30 27558 C 3143.67 -1.75756 1.10112 0
M  V30 27559 C 3144.09 -1.84948 -0.34289 0
M  V30 27560 O 3143.45 -1.31498 -1.24812 0
M  V30 27561 C 3143.5 -3.15991 1.7373 0
M  V30 27562 O 3142.6 -4.00016 1.00304 0
M  V30 27563 H 3141.94 -0.540537 0.385636 0
M  V30 27564 H 3144.47 -1.22369 1.63973 0
M  V30 27565 H 3144.48 -3.66547 1.79185 0
M  V30 27566 H 3143.16 -3.08616 2.788 0
M  V30 27567 H 3141.73 -3.58513 1.02581 0
M  V30 27568 N 3143.92 -1.05068 -1.17467 0
M  V30 27569 C 3145.17 -0.758518 -1.87326 0
M  V30 27570 C 3145.49 0.716517 -1.81359 0
M  V30 27571 O 3144.76 1.51766 -1.2387 0
M  V30 27572 H 3143.34 -0.277591 -0.693507 0
M  V30 27573 H 3146 -1.32957 -1.42508 0
M  V30 27574 H 3145.1 -1.07235 -2.93099 0
M  V30 27575 N 3145.4 1.33878 -0.831529 0
M  V30 27576 C 3146.35 2.2682 -0.231695 0
M  V30 27577 C 3147.33 1.48928 0.609049 0
M  V30 27578 O 3148.52 1.70858 0.462219 0
M  V30 27579 C 3145.65 3.38044 0.598401 0
M  V30 27580 C 3144.74 4.23342 -0.253446 0
M  V30 27581 N 3145.13 4.88038 -1.32862 0
M  V30 27582 C 3143.43 4.45983 -0.0392321 0
M  V30 27583 C 3144.13 5.51472 -1.85078 0
M  V30 27584 N 3143.1 5.31224 -1.15336 0
M  V30 27585 H 3146.91 2.7435 -1.054 0
M  V30 27586 H 3144.42 1.47697 -0.675221 0
M  V30 27587 H 3146.42 4.03607 1.04436 0
M  V30 27588 H 3145.08 2.92063 1.41877 0
M  V30 27589 H 3146.09 4.88803 -1.71148 0
M  V30 27590 H 3142.76 4.1074 0.748284 0
M  V30 27591 H 3144.15 6.13011 -2.75076 0
M  V30 27592 N 3146.87 0.587281 1.46249 0
M  V30 27593 C 3148.1 0.0784881 2.07251 0
M  V30 27594 C 3148.52 -1.21916 1.43241 0
M  V30 27595 O 3147.88 -1.73748 0.517822 0
M  V30 27596 C 3147.93 -0.0690403 3.60534 0
M  V30 27597 O 3147.03 -1.12441 3.96775 0
M  V30 27598 H 3146.38 0.0648707 0.660824 0
M  V30 27599 H 3148.91 0.811524 1.87818 0
M  V30 27600 H 3148.92 -0.273754 4.07081 0
M  V30 27601 H 3147.59 0.878586 4.06514 0
M  V30 27602 H 3146.17 -0.897788 3.61931 0
M  V30 27603 N 3148.35 -1.54206 0.325309 0
M  V30 27604 C 3149.58 -2.05482 -0.281382 0
M  V30 27605 C 3150 -1.1998 -1.44867 0
M  V30 27606 O 3149.36 -0.209306 -1.80088 0
M  V30 27607 C 3149.41 -3.53899 -0.691967 0
M  V30 27608 O 3148.51 -3.71328 -1.79414 0
M  V30 27609 H 3147.85 -0.662079 -0.0504756 0
M  V30 27610 H 3150.38 -1.99028 0.474226 0
M  V30 27611 H 3150.39 -3.962 -0.974149 0
M  V30 27612 H 3149.07 -4.15585 0.161783 0
M  V30 27613 H 3147.65 -3.40932 -1.51063 0
M  V30 27614 N 3149.83 -0.0535194 -1.57509 0
M  V30 27615 C 3151.08 0.618514 -1.92403 0
M  V30 27616 C 3151.4 1.71244 -0.93276 0
M  V30 27617 O 3150.67 1.95888 0.0220151 0
M  V30 27618 H 3149.25 0.231457 -0.710237 0
M  V30 27619 H 3151.91 -0.107074 -1.94606 0
M  V30 27620 H 3151.01 1.05561 -2.93706 0
M  V30 27621 N 3151.31 1.56059 0.219886 0
M  V30 27622 C 3152.54 1.82968 0.959489 0
M  V30 27623 C 3152.95 0.630633 1.78381 0
M  V30 27624 O 3152.29 -0.410172 1.79062 0
M  V30 27625 C 3152.35 3.03634 1.92475 0
M  V30 27626 C 3152.02 4.38568 1.28479 0
M  V30 27627 C 3153.01 5.15515 0.673855 0
M  V30 27628 C 3150.7 4.85291 1.29606 0
M  V30 27629 C 3152.69 6.37346 0.0827204 0
M  V30 27630 C 3150.38 6.07065 0.701084 0
M  V30 27631 C 3151.38 6.82933 0.0954677 0
M  V30 27632 O 3151.07 8.02404 -0.49025 0
M  V30 27633 H 3150.8 0.612193 0.286698 0
M  V30 27634 H 3153.35 2.03996 0.239726 0
M  V30 27635 H 3151.58 2.78428 2.68355 0
M  V30 27636 H 3153.27 3.17401 2.53005 0
M  V30 27637 H 3154.04 4.80523 0.657464 0
M  V30 27638 H 3149.92 4.26211 1.75684 0
M  V30 27639 H 3153.46 6.96506 -0.390604 0
M  V30 27640 H 3149.36 6.41529 0.714894 0
M  V30 27641 H 3150.12 8.17595 -0.384732 0
M  V30 27642 N 3152.79 -0.486655 1.49898 0
M  V30 27643 C 3154.04 -1.23739 1.59791 0
M  V30 27644 C 3154.36 -1.92785 0.29309 0
M  V30 27645 O 3153.63 -1.83402 -0.688502 0
M  V30 27646 H 3152.21 -0.459721 0.588783 0
M  V30 27647 H 3154.87 -0.562775 1.86598 0
M  V30 27648 H 3153.96 -1.99366 2.40124 0
M  V30 27649 N 3154.27 -1.39214 -0.738737 0
M  V30 27650 C 3155.2 -1.33533 -1.86283 0
M  V30 27651 C 3156.21 -0.244784 -1.60949 0
M  V30 27652 O 3157.4 -0.50346 -1.71253 0
M  V30 27653 C 3154.5 -1.04975 -3.22232 0
M  V30 27654 C 3153.67 -2.25232 -3.74952 0
M  V30 27655 C 3152.73 -1.93188 -4.89453 0
M  V30 27656 O 3151.76 -2.65834 -5.0331 0
M  V30 27657 N 3152.96 -0.89578 -5.73547 0
M  V30 27658 H 3155.72 -2.30403 -1.91662 0
M  V30 27659 H 3153.29 -1.33267 -0.919314 0
M  V30 27660 H 3155.28 -0.815636 -3.96396 0
M  V30 27661 H 3153.85 -0.168506 -3.12146 0
M  V30 27662 H 3153.07 -2.64618 -2.92183 0
M  V30 27663 H 3154.36 -3.05455 -4.06909 0
M  V30 27664 H 3153.75 -0.293641 -5.64937 0
M  V30 27665 H 3152.31 -0.721565 -6.47794 0
M  V30 27666 N 3155.74 0.968523 -1.24328 0
M  V30 27667 C 3156.69 2.04805 -1.00195 0
M  V30 27668 C 3157.68 1.60801 0.0563242 0
M  V30 27669 O 3158.87 1.763 -0.157299 0
M  V30 27670 C 3156 3.37877 -0.607809 0
M  V30 27671 C 3155.08 3.88444 -1.70211 0
M  V30 27672 N 3155.48 4.11957 -2.9347 0
M  V30 27673 C 3153.77 4.17097 -1.57943 0
M  V30 27674 C 3154.47 4.53414 -3.64404 0
M  V30 27675 N 3153.45 4.58539 -2.91964 0
M  V30 27676 H 3157.25 2.20958 -1.9379 0
M  V30 27677 H 3154.77 1.15225 -1.14442 0
M  V30 27678 H 3156.76 4.14818 -0.416152 0
M  V30 27679 H 3155.42 3.2311 0.32097 0
M  V30 27680 H 3156.43 3.99433 -3.29657 0
M  V30 27681 H 3153.11 4.11269 -0.718625 0
M  V30 27682 H 3154.5 4.80026 -4.70133 0
M  V30 27683 N 3157.22 1.0569 1.16908 0
M  V30 27684 C 3158.47 0.768442 1.86921 0
M  V30 27685 C 3158.79 -0.706889 1.81736 0
M  V30 27686 O 3158.06 -1.51107 1.24673 0
M  V30 27687 H 3156.64 0.281265 0.692025 0
M  V30 27688 H 3159.3 1.33711 1.41801 0
M  V30 27689 H 3158.4 1.08788 2.92526 0
M  V30 27690 N 3158.7 -1.33435 0.838617 0
M  V30 27691 C 3159.92 -2.02532 0.446736 0
M  V30 27692 C 3160.35 -1.62682 -0.944246 0
M  V30 27693 O 3159.71 -0.819298 -1.61732 0
M  V30 27694 C 3159.76 -3.55988 0.574857 0
M  V30 27695 O 3158.86 -4.10465 -0.398991 0
M  V30 27696 H 3158.2 -0.63867 0.181649 0
M  V30 27697 H 3160.73 -1.7034 1.13338 0
M  V30 27698 H 3160.74 -4.05439 0.45641 0
M  V30 27699 H 3159.42 -3.84337 1.58928 0
M  V30 27700 H 3157.99 -3.72139 -0.238122 0
M  V30 27701 N 3160.18 -0.595029 -1.45935 0
M  V30 27702 C 3161.59 -0.257669 -1.57506 0
M  V30 27703 C 3161.79 1.23995 -1.58831 0
M  V30 27704 O 3160.85 2.02234 -1.51187 0
M  V30 27705 C 3162.16 -0.917758 -2.86352 0
M  V30 27706 C 3163.71 -0.892499 -3.00006 0
M  V30 27707 C 3164.19 -1.53236 -4.31605 0
M  V30 27708 N 3165.68 -1.49727 -4.38333 0
M  V30 27709 C 3166.41 -1.96163 -5.38802 0
M  V30 27710 N 3165.91 -2.50628 -6.45877 0
M  V30 27711 N 3167.7 -1.87006 -5.3008 0
M  V30 27712 H 3159.85 -1.56759 -1.43319 0
M  V30 27713 H 3162.11 -0.655948 -0.684424 0
M  V30 27714 H 3161.82 -1.97176 -2.91229 0
M  V30 27715 H 3161.69 -0.43341 -3.74702 0
M  V30 27716 H 3164.08 0.152923 -2.94704 0
M  V30 27717 H 3164.16 -1.41499 -2.131 0
M  V30 27718 H 3163.81 -2.57705 -4.37665 0
M  V30 27719 H 3163.74 -0.984994 -5.17306 0
M  V30 27720 H 3166.23 -1.09927 -3.61558 0
M  V30 27721 H 3166.54 -2.83887 -7.18769 0
M  V30 27722 H 3164.89 -2.5466 -6.46663 0
M  V30 27723 H 3168.08 -1.44204 -4.45334 0
M  V30 27724 H 3168.25 -2.2351 -6.08233 0
M  V30 27725 N 3161.66 1.54031 -0.333483 0
M  V30 27726 C 3162.88 2.05629 0.270481 0
M  V30 27727 C 3163.31 1.20746 1.44229 0
M  V30 27728 O 3162.66 0.218854 1.79974 0
M  V30 27729 C 3162.71 3.54261 0.673189 0
M  V30 27730 O 3161.82 3.72274 1.77442 0
M  V30 27731 H 3161.16 0.662337 0.0469637 0
M  V30 27732 H 3163.69 1.98774 -0.484774 0
M  V30 27733 H 3163.7 3.96711 0.953124 0
M  V30 27734 H 3162.37 4.15494 -0.18382 0
M  V30 27735 H 3160.95 3.41728 1.49253 0
M  V30 27736 N 3163.13 0.0618717 1.57479 0
M  V30 27737 C 3164.38 -0.608302 1.92728 0
M  V30 27738 C 3164.7 -1.70747 0.941829 0
M  V30 27739 O 3163.97 -1.95897 -0.0116264 0
M  V30 27740 H 3162.55 -0.227688 0.711454 0
M  V30 27741 H 3165.21 0.117393 1.94546 0
M  V30 27742 H 3164.31 -1.04002 2.94262 0
M  V30 27743 N 3164.61 -1.56173 -0.211607 0
M  V30 27744 C 3165.54 -1.89725 -1.28597 0
M  V30 27745 C 3166.56 -0.786386 -1.42548 0
M  V30 27746 O 3167.75 -1.06474 -1.43268 0
M  V30 27747 C 3164.85 -2.09953 -2.66032 0
M  V30 27748 C 3164.02 -3.41023 -2.73902 0
M  V30 27749 C 3163.08 -3.50562 -3.92419 0
M  V30 27750 O 3162.1 -4.23517 -3.80292 0
M  V30 27751 N 3163.31 -2.82435 -5.0716 0
M  V30 27752 H 3166.07 -2.82476 -1.00137 0
M  V30 27753 H 3163.63 -1.5684 -0.401606 0
M  V30 27754 H 3165.62 -2.1364 -3.43715 0
M  V30 27755 H 3164.19 -1.2378 -2.87049 0
M  V30 27756 H 3163.41 -3.49348 -1.82619 0
M  V30 27757 H 3164.7 -4.27347 -2.76137 0
M  V30 27758 H 3164.1 -2.2296 -5.19909 0
M  V30 27759 H 3162.66 -2.9177 -5.82849 0
M  V30 27760 N 3166.09 0.478699 -1.50154 0
M  V30 27761 C 3167.32 1.25948 -1.64779 0
M  V30 27762 C 3167.74 1.85221 -0.327827 0
M  V30 27763 O 3167.1 1.6693 0.707388 0
M  V30 27764 C 3167.15 2.34947 -2.73555 0
M  V30 27765 O 3166.25 3.39393 -2.34279 0
M  V30 27766 H 3165.59 0.370867 -0.550775 0
M  V30 27767 H 3168.12 0.570571 -1.96483 0
M  V30 27768 H 3168.13 2.80375 -2.96402 0
M  V30 27769 H 3166.81 1.91175 -3.69358 0
M  V30 27770 H 3165.38 2.99729 -2.21849 0
M  V30 27771 N 3167.57 1.39603 0.731343 0
M  V30 27772 C 3168.79 1.40495 1.52565 0
M  V30 27773 C 3169.22 0.00232134 1.881 0
M  V30 27774 O 3168.58 -0.985616 1.52169 0
M  V30 27775 C 3168.62 2.28765 2.78745 0
M  V30 27776 O 3167.73 1.72005 3.74817 0
M  V30 27777 H 3167.07 0.478279 0.460592 0
M  V30 27778 H 3169.6 1.83644 0.90201 0
M  V30 27779 H 3169.61 2.43405 3.27442 0
M  V30 27780 H 3168.28 3.30698 2.52214 0
M  V30 27781 H 3166.86 1.66628 3.33601 0
M  V30 27782 N 3169.05 -0.961916 1.2484 0
M  V30 27783 C 3170.46 -1.23163 1.01504 0
M  V30 27784 C 3170.66 -1.99647 -0.272616 0
M  V30 27785 O 3169.72 -2.32399 -0.987256 0
M  V30 27786 C 3171.03 -2.01312 2.2337 0
M  V30 27787 C 3172.58 -2.14383 2.28055 0
M  V30 27788 C 3173.05 -2.95929 3.49557 0
M  V30 27789 N 3174.55 -3.03509 3.49909 0
M  V30 27790 C 3175.28 -3.66979 4.40583 0
M  V30 27791 N 3174.78 -4.3212 5.4152 0
M  V30 27792 N 3176.57 -3.64048 4.28282 0
M  V30 27793 H 3168.72 -0.450049 2.07577 0
M  V30 27794 H 3170.98 -0.261535 0.91121 0
M  V30 27795 H 3170.69 -1.52504 3.16915 0
M  V30 27796 H 3170.56 -3.02034 2.25954 0
M  V30 27797 H 3172.95 -2.62391 1.35037 0
M  V30 27798 H 3173.03 -1.1299 2.29493 0
M  V30 27799 H 3172.68 -2.48612 4.42893 0
M  V30 27800 H 3172.61 -3.97532 3.45364 0
M  V30 27801 H 3175.1 -2.57178 2.7689 0
M  V30 27802 H 3175.41 -4.78386 6.06932 0
M  V30 27803 H 3173.75 -4.30771 5.454 0
M  V30 27804 H 3176.95 -3.12338 3.48658 0
M  V30 27805 H 3177.12 -4.13228 4.99146 0
M  V30 27806 N 3170.52 -1.06308 -1.16346 0
M  V30 27807 C 3171.77 -0.778344 -1.86511 0
M  V30 27808 C 3172.09 0.697241 -1.82109 0
M  V30 27809 O 3171.36 1.50444 -1.25473 0
M  V30 27810 H 3169.94 -0.284931 -0.690524 0
M  V30 27811 H 3172.61 -1.34461 -1.4109 0
M  V30 27812 H 3171.7 -1.10338 -2.91945 0
M  V30 27813 N 3172 1.32989 -0.845682 0
M  V30 27814 C 3172.91 2.32845 -0.286441 0
M  V30 27815 C 3173.93 1.63653 0.591076 0
M  V30 27816 O 3175.1 1.95258 0.493581 0
M  V30 27817 C 3172.17 3.42724 0.523576 0
M  V30 27818 C 3171.23 4.27624 -0.37902 0
M  V30 27819 C 3170.46 5.32255 0.392432 0
M  V30 27820 O 3170.69 5.46811 1.6234 0
M  V30 27821 O 3169.62 6.01433 -0.237106 0
M  V30 27822 H 3173.45 2.8255 -1.11351 0
M  V30 27823 H 3171.03 1.36452 -0.60838 0
M  V30 27824 H 3172.91 4.09759 0.983646 0
M  V30 27825 H 3171.59 2.95223 1.32759 0
M  V30 27826 H 3170.5 3.63431 -0.887076 0
M  V30 27827 H 3171.83 4.78625 -1.14798 0
M  V30 27828 N 3173.48 0.60276 1.45618 0
M  V30 27829 C 3174.9 0.266018 1.57367 0
M  V30 27830 C 3175.1 -1.23151 1.59487 0
M  V30 27831 O 3174.15 -2.0143 1.52257 0
M  V30 27832 C 3175.47 0.932931 2.85862 0
M  V30 27833 C 3177.01 0.908397 2.99528 0
M  V30 27834 C 3177.49 1.55523 4.30786 0
M  V30 27835 N 3178.98 1.52049 4.37533 0
M  V30 27836 C 3179.71 1.99018 5.37754 0
M  V30 27837 N 3179.21 2.5405 6.44539 0
M  V30 27838 N 3181 1.89814 5.29081 0
M  V30 27839 H 3173.15 1.57517 1.42486 0
M  V30 27840 H 3175.42 0.659568 0.680936 0
M  V30 27841 H 3175.12 1.98718 2.90179 0
M  V30 27842 H 3175 0.453275 3.74467 0
M  V30 27843 H 3177.38 -0.137292 2.9478 0
M  V30 27844 H 3177.47 1.42627 2.12347 0
M  V30 27845 H 3177.11 2.60022 4.36292 0
M  V30 27846 H 3177.04 1.01241 5.16776 0
M  V30 27847 H 3179.53 1.11843 3.6097 0
M  V30 27848 H 3179.84 2.87694 7.17253 0
M  V30 27849 H 3178.19 2.58086 6.45303 0
M  V30 27850 H 3181.38 1.46564 4.44563 0
M  V30 27851 H 3181.55 2.26732 6.07039 0
M  V30 27852 N 3174.96 -1.53852 0.341647 0
M  V30 27853 C 3175.91 -2.21708 -0.531956 0
M  V30 27854 C 3176.89 -1.20382 -1.06757 0
M  V30 27855 O 3178.08 -1.45936 -1.00158 0
M  V30 27856 C 3175.21 -2.99196 -1.68335 0
M  V30 27857 C 3174.3 -4.07877 -1.16177 0
M  V30 27858 N 3174.69 -5.04508 -0.36126 0
M  V30 27859 C 3172.99 -4.22153 -1.43883 0
M  V30 27860 C 3173.69 -5.81647 -0.0784356 0
M  V30 27861 N 3172.67 -5.39461 -0.669556 0
M  V30 27862 H 3176.47 -2.93772 0.0867341 0
M  V30 27863 H 3173.98 -1.6172 0.148414 0
M  V30 27864 H 3175.98 -3.46307 -2.32115 0
M  V30 27865 H 3174.64 -2.28657 -2.30534 0
M  V30 27866 H 3175.65 -5.179 -0.00250802 0
M  V30 27867 H 3172.33 -3.62835 -2.06535 0
M  V30 27868 H 3173.72 -6.69502 0.567185 0
M  V30 27869 N 3176.44 -0.0702223 -1.57443 0
M  V30 27870 C 3177.68 0.598073 -1.93048 0
M  V30 27871 C 3178.01 1.70245 -0.950871 0
M  V30 27872 O 3177.28 1.959 0.00123733 0
M  V30 27873 H 3175.86 0.223911 -0.712652 0
M  V30 27874 H 3178.52 -0.127708 -1.94481 0
M  V30 27875 H 3177.61 1.0244 -2.94809 0
M  V30 27876 N 3177.91 1.56283 0.203321 0
M  V30 27877 C 3179.14 1.84594 0.945515 0
M  V30 27878 C 3179.56 0.652803 1.76409 0
M  V30 27879 O 3178.92 -0.398437 1.76868 0
M  V30 27880 C 3178.97 3.1106 1.82411 0
M  V30 27881 O 3178.07 2.91035 2.92186 0
M  V30 27882 H 3177.42 0.608072 0.266728 0
M  V30 27883 H 3179.95 2.03508 0.211122 0
M  V30 27884 H 3179.96 3.4164 2.23038 0
M  V30 27885 H 3178.63 3.97524 1.2226 0
M  V30 27886 H 3177.21 2.71733 2.55373 0
M  V30 27887 N 3179.39 -0.470729 1.50406 0
M  V30 27888 C 3180.62 -1.25072 1.65444 0
M  V30 27889 C 3181.04 -1.85045 0.337645 0
M  V30 27890 O 3180.4 -1.67303 -0.698526 0
M  V30 27891 C 3180.45 -2.33493 2.74797 0
M  V30 27892 O 3179.55 -3.38145 2.36075 0
M  V30 27893 H 3178.89 -0.367941 0.552734 0
M  V30 27894 H 3181.42 -0.560143 1.96783 0
M  V30 27895 H 3181.43 -2.78799 2.97884 0
M  V30 27896 H 3180.11 -1.89213 3.70366 0
M  V30 27897 H 3178.69 -2.98548 2.23436 0
M  V30 27898 N 3180.87 -1.39989 -0.72393 0
M  V30 27899 C 3182.1 -1.41302 -1.51818 0
M  V30 27900 C 3182.52 -0.0122967 -1.88096 0
M  V30 27901 O 3181.88 0.977533 -1.52689 0
M  V30 27902 C 3181.93 -2.3024 -2.77528 0
M  V30 27903 O 3181.03 -1.73991 -3.739 0
M  V30 27904 H 3180.37 -0.480715 -0.458049 0
M  V30 27905 H 3182.9 -1.84119 -0.892258 0
M  V30 27906 H 3182.91 -2.45138 -3.26146 0
M  V30 27907 H 3181.59 -3.32031 -2.50457 0
M  V30 27908 H 3180.16 -1.68395 -3.32712 0
M  V30 27909 N 3182.35 0.955282 -1.25348 0
M  V30 27910 C 3183.6 1.69645 -1.0984 0
M  V30 27911 C 3183.92 1.91622 0.361391 0
M  V30 27912 O 3183.19 1.50285 1.25663 0
M  V30 27913 H 3181.77 0.628661 -0.403478 0
M  V30 27914 H 3184.43 1.14856 -1.57461 0
M  V30 27915 H 3183.53 2.67596 -1.60621 0
M  V30 27916 N 3183.83 1.06924 1.1578 0
M  V30 27917 C 3185.05 0.810805 1.90895 0
M  V30 27918 C 3185.48 -0.629683 1.77247 0
M  V30 27919 O 3184.84 -1.43951 1.10217 0
M  V30 27920 C 3184.88 1.21835 3.39394 0
M  V30 27921 O 3183.99 0.361006 4.10817 0
M  V30 27922 H 3183.33 0.295763 0.594492 0
M  V30 27923 H 3185.86 1.42671 1.46649 0
M  V30 27924 H 3185.87 1.19266 3.90179 0
M  V30 27925 H 3184.54 2.26756 3.48646 0
M  V30 27926 H 3183.12 0.448813 3.70189 0
M  V30 27927 N 3185.31 -1.32538 0.852723 0
M  V30 27928 C 3186.53 -2.02046 0.468192 0
M  V30 27929 C 3186.96 -1.63675 -0.926939 0
M  V30 27930 O 3186.31 -0.836406 -1.60854 0
M  V30 27931 C 3186.36 -3.55359 0.612582 0
M  V30 27932 O 3185.47 -4.10865 -0.355434 0
M  V30 27933 H 3184.81 -0.636708 0.188412 0
M  V30 27934 H 3187.34 -1.69128 1.15138 0
M  V30 27935 H 3187.35 -4.04932 0.499386 0
M  V30 27936 H 3186.02 -3.8263 1.62995 0
M  V30 27937 H 3184.6 -3.72371 -0.198638 0
M  V30 27938 N 3186.78 -0.610474 -1.45296 0
M  V30 27939 C 3188.01 -0.11145 -2.071 0
M  V30 27940 C 3188.43 1.19622 -1.45163 0
M  V30 27941 O 3187.79 1.72902 -0.545398 0
M  V30 27942 C 3187.84 0.0116738 -3.60598 0
M  V30 27943 O 3186.94 1.06115 -3.98514 0
M  V30 27944 H 3186.28 -0.0753756 -0.659708 0
M  V30 27945 H 3188.81 -0.841301 -1.86503 0
M  V30 27946 H 3188.82 0.208957 -4.07465 0
M  V30 27947 H 3187.5 -0.943147 -4.05065 0
M  V30 27948 H 3186.08 0.840094 -3.63314 0
M  V30 27949 N 3188.26 1.53669 -0.349801 0
M  V30 27950 C 3189.68 1.596 0.00188487 0
M  V30 27951 C 3189.88 1.36554 1.48173 0
M  V30 27952 O 3188.93 1.16289 2.24127 0
M  V30 27953 C 3190.25 2.97465 -0.4399 0
M  V30 27954 C 3191.79 3.10526 -0.392775 0
M  V30 27955 C 3192.27 4.50778 -0.810126 0
M  V30 27956 N 3193.76 4.56847 -0.764559 0
M  V30 27957 C 3194.5 5.63529 -1.05937 0
M  V30 27958 N 3193.99 6.78036 -1.42265 0
M  V30 27959 N 3195.78 5.53434 -0.983195 0
M  V30 27960 H 3187.94 1.66902 -1.31367 0
M  V30 27961 H 3190.2 0.78198 -0.535922 0
M  V30 27962 H 3189.9 3.19416 -1.47195 0
M  V30 27963 H 3189.78 3.76762 0.181668 0
M  V30 27964 H 3192.17 2.88294 0.63011 0
M  V30 27965 H 3192.25 2.33273 -1.04963 0
M  V30 27966 H 3191.89 4.73746 -1.83105 0
M  V30 27967 H 3191.82 5.26438 -0.130683 0
M  V30 27968 H 3194.31 3.74622 -0.496703 0
M  V30 27969 H 3194.62 7.55365 -1.63228 0
M  V30 27970 H 3192.97 6.79467 -1.46116 0
M  V30 27971 H 3196.16 4.62856 -0.698682 0
M  V30 27972 H 3196.33 6.36483 -1.21629 0
M  V30 27973 N 3189.74 0.0785709 1.57404 0
M  V30 27974 C 3190.97 -0.59696 1.97788 0
M  V30 27975 C 3191.38 -1.63274 0.955933 0
M  V30 27976 O 3190.72 -1.83585 -0.0648847 0
M  V30 27977 C 3190.78 -1.31717 3.34501 0
M  V30 27978 C 3190.45 -0.434064 4.54934 0
M  V30 27979 C 3191.44 0.311106 5.18968 0
M  V30 27980 C 3189.13 -0.356958 5.0103 0
M  V30 27981 C 3191.12 1.12153 6.27455 0
M  V30 27982 C 3188.81 0.457136 6.09388 0
M  V30 27983 C 3189.81 1.19505 6.72464 0
M  V30 27984 O 3189.5 1.9957 7.78734 0
M  V30 27985 H 3189.23 -0.166016 0.655297 0
M  V30 27986 H 3191.78 0.149553 2.04855 0
M  V30 27987 H 3190.01 -2.1099 3.24068 0
M  V30 27988 H 3191.7 -1.8856 3.59444 0
M  V30 27989 H 3192.47 0.261169 4.84296 0
M  V30 27990 H 3188.35 -0.920946 4.51707 0
M  V30 27991 H 3191.89 1.698 6.76619 0
M  V30 27992 H 3187.79 0.508612 6.43493 0
M  V30 27993 H 3188.55 1.92074 7.95644 0
M  V30 27994 N 3191.22 -1.56389 -0.19503 0
M  V30 27995 C 3192.47 -1.80271 -0.913604 0
M  V30 27996 C 3192.79 -0.651638 -1.8379 0
M  V30 27997 O 3192.06 0.330023 -1.931 0
M  V30 27998 H 3190.64 -0.66496 -0.340348 0
M  V30 27999 H 3193.3 -1.93866 -0.200525 0
M  V30 28000 H 3192.39 -2.73433 -1.50468 0
M  V30 28001 N 3192.7 0.462746 -1.50653 0
M  V30 28002 C 3193.63 1.57737 -1.66288 0
M  V30 28003 C 3194.64 1.53438 -0.544121 0
M  V30 28004 O 3195.83 1.58675 -0.817594 0
M  V30 28005 C 3192.93 2.96632 -1.63898 0
M  V30 28006 C 3192.1 3.2571 -2.91944 0
M  V30 28007 C 3191.16 4.44201 -2.82084 0
M  V30 28008 O 3190.19 4.44099 -3.5604 0
M  V30 28009 N 3191.39 5.46337 -1.96205 0
M  V30 28010 H 3194.15 1.44738 -2.62433 0
M  V30 28011 H 3191.72 0.6513 -1.48222 0
M  V30 28012 H 3193.71 3.73881 -1.54904 0
M  V30 28013 H 3192.28 3.03357 -0.754544 0
M  V30 28014 H 3191.5 2.36996 -3.15002 0
M  V30 28015 H 3192.79 3.41953 -3.76756 0
M  V30 28016 H 3192.18 5.49245 -1.35449 0
M  V30 28017 H 3190.74 6.22537 -1.93108 0
M  V30 28018 N 3194.17 1.40371 0.716495 0
M  V30 28019 C 3195.12 1.37044 1.82217 0
M  V30 28020 C 3196.11 0.248144 1.58975 0
M  V30 28021 O 3197.3 0.487177 1.70163 0
M  V30 28022 C 3194.43 1.23451 3.20335 0
M  V30 28023 C 3193.52 2.40458 3.49343 0
M  V30 28024 N 3193.91 3.6594 3.49173 0
M  V30 28025 C 3192.2 2.33818 3.79796 0
M  V30 28026 C 3192.91 4.43423 3.76498 0
M  V30 28027 N 3191.88 3.73251 3.95202 0
M  V30 28028 H 3195.68 2.32006 1.80417 0
M  V30 28029 H 3193.2 1.3413 0.915579 0
M  V30 28030 H 3195.19 1.1915 3.99511 0
M  V30 28031 H 3193.85 0.294554 3.23361 0
M  V30 28032 H 3194.87 3.99113 3.30044 0
M  V30 28033 H 3191.54 1.48184 3.90318 0
M  V30 28034 H 3192.93 5.52274 3.82679 0
M  V30 28035 N 3195.65 -0.948621 1.25853 0
M  V30 28036 C 3196.9 -1.69061 1.10738 0
M  V30 28037 C 3197.22 -1.91811 -0.351224 0
M  V30 28038 O 3196.49 -1.50949 -1.24864 0
M  V30 28039 H 3195.07 -0.626512 0.406807 0
M  V30 28040 H 3197.73 -1.1402 1.58068 0
M  V30 28041 H 3196.83 -2.6674 1.62038 0
M  V30 28042 N 3197.13 -1.07536 -1.15212 0
M  V30 28043 C 3198.36 -0.820917 -1.90462 0
M  V30 28044 C 3198.78 0.620274 -1.77579 0
M  V30 28045 O 3198.14 1.43364 -1.10979 0
M  V30 28046 C 3198.19 -1.23633 -3.38744 0
M  V30 28047 O 3197.29 -0.382788 -4.1062 0
M  V30 28048 H 3196.63 -0.298911 -0.592915 0
M  V30 28049 H 3199.16 -1.43447 -1.45891 0
M  V30 28050 H 3199.17 -1.21333 -3.89541 0
M  V30 28051 H 3197.85 -2.28602 -3.47439 0
M  V30 28052 H 3196.42 -0.468439 -3.69946 0
M  V30 28053 N 3198.61 1.32084 -0.85974 0
M  V30 28054 C 3199.86 1.96685 -0.464696 0
M  V30 28055 C 3200.18 1.68347 0.984091 0
M  V30 28056 O 3199.45 0.993391 1.68845 0
M  V30 28057 H 3198.03 0.727666 -0.168851 0
M  V30 28058 H 3200.69 1.61077 -1.09728 0
M  V30 28059 H 3199.79 3.06002 -0.613958 0
M  V30 28060 N 3200.09 0.618171 1.4497 0
M  V30 28061 C 3201.31 0.122432 2.07038 0
M  V30 28062 C 3201.74 -1.1885 1.45795 0
M  V30 28063 O 3201.09 -1.7261 0.55456 0
M  V30 28064 C 3201.14 0.00744978 3.60599 0
M  V30 28065 O 3200.25 -1.04 3.99071 0
M  V30 28066 H 3199.59 0.0788731 0.659299 0
M  V30 28067 H 3202.12 0.85118 1.86054 0
M  V30 28068 H 3202.13 -0.187345 4.0757 0
M  V30 28069 H 3200.8 0.964616 4.04559 0
M  V30 28070 H 3199.38 -0.820815 3.63754 0
M  V30 28071 N 3201.56 -1.53481 0.357946 0
M  V30 28072 C 3202.98 -1.59599 0.00657912 0
M  V30 28073 C 3203.18 -1.37338 -1.47446 0
M  V30 28074 O 3202.24 -1.17476 -2.23508 0
M  V30 28075 C 3203.55 -2.97227 0.455669 0
M  V30 28076 C 3205.1 -3.10313 0.409238 0
M  V30 28077 C 3205.57 -4.50342 0.83402 0
M  V30 28078 N 3207.06 -4.56435 0.788776 0
M  V30 28079 C 3207.8 -5.62959 1.08924 0
M  V30 28080 N 3207.29 -6.77272 1.45859 0
M  V30 28081 N 3209.09 -5.52905 1.01253 0
M  V30 28082 H 3201.24 -1.66203 1.3225 0
M  V30 28083 H 3203.5 -0.779126 0.540061 0
M  V30 28084 H 3203.21 -3.18631 1.48887 0
M  V30 28085 H 3203.08 -3.76853 -0.161685 0
M  V30 28086 H 3205.47 -2.88624 -0.614812 0
M  V30 28087 H 3205.55 -2.32713 1.06199 0
M  V30 28088 H 3205.19 -4.72768 1.85615 0
M  V30 28089 H 3205.12 -5.26361 0.1586 0
M  V30 28090 H 3207.61 -3.74353 0.516563 0
M  V30 28091 H 3207.93 -7.54489 1.67231 0
M  V30 28092 H 3206.27 -6.78682 1.49717 0
M  V30 28093 H 3209.46 -4.62479 0.723219 0
M  V30 28094 H 3209.64 -6.35829 1.25003 0
M  V30 28095 N 3203.04 -0.0869173 -1.5736 0
M  V30 28096 C 3203.97 0.904821 -2.10584 0
M  V30 28097 C 3204.99 1.25146 -1.04127 0
M  V30 28098 O 3206.18 1.206 -1.31597 0
M  V30 28099 C 3203.28 2.21631 -2.56385 0
M  V30 28100 C 3202.45 2.04624 -3.86585 0
M  V30 28101 C 3201.51 3.19212 -4.18319 0
M  V30 28102 O 3200.53 2.93535 -4.87674 0
M  V30 28103 N 3201.74 4.44747 -3.73068 0
M  V30 28104 H 3204.5 0.4503 -2.96298 0
M  V30 28105 H 3202.06 0.0984092 -1.61601 0
M  V30 28106 H 3204.05 2.97222 -2.74665 0
M  V30 28107 H 3202.62 2.58533 -1.75726 0
M  V30 28108 H 3201.84 1.1341 -3.77534 0
M  V30 28109 H 3203.13 1.90529 -4.7178 0
M  V30 28110 H 3202.53 4.68492 -3.17068 0
M  V30 28111 H 3201.09 5.17315 -3.9652 0
M  V30 28112 N 3204.52 1.5649 0.186734 0
M  V30 28113 C 3205.75 1.85586 0.925884 0
M  V30 28114 C 3206.17 0.671477 1.75707 0
M  V30 28115 O 3205.53 -0.379655 1.7728 0
M  V30 28116 C 3205.58 3.12978 1.79101 0
M  V30 28117 O 3204.68 2.94117 2.89082 0
M  V30 28118 H 3204.02 0.610867 0.260264 0
M  V30 28119 H 3206.55 2.0372 0.189525 0
M  V30 28120 H 3206.56 3.43987 2.19402 0
M  V30 28121 H 3205.24 3.98798 1.18037 0
M  V30 28122 H 3203.81 2.74426 2.52477 0
M  V30 28123 N 3206 -0.45475 1.50897 0
M  V30 28124 C 3207.22 -1.2331 1.66761 0
M  V30 28125 C 3207.65 -1.84676 0.357252 0
M  V30 28126 O 3207.01 -1.68035 -0.680742 0
M  V30 28127 C 3207.05 -2.30565 2.77258 0
M  V30 28128 O 3206.16 -3.35622 2.39648 0
M  V30 28129 H 3205.5 -0.362058 0.556606 0
M  V30 28130 H 3208.03 -0.53924 1.97366 0
M  V30 28131 H 3208.04 -2.75624 3.00825 0
M  V30 28132 H 3206.71 -1.85275 3.72352 0
M  V30 28133 H 3205.29 -2.96161 2.2659 0
M  V30 28134 N 3207.48 -1.40749 -0.709041 0
M  V30 28135 C 3208.72 -1.39106 -1.46608 0
M  V30 28136 C 3209.05 0.00361939 -1.95 0
M  V30 28137 O 3208.32 0.959511 -1.70793 0
M  V30 28138 H 3206.9 -0.511989 -0.543945 0
M  V30 28139 H 3209.56 -1.75864 -0.84011 0
M  V30 28140 H 3208.65 -2.06998 -2.33577 0
M  V30 28141 N 3208.96 0.941933 -1.26354 0
M  V30 28142 C 3209.91 2.02633 -1.04516 0
M  V30 28143 C 3210.89 1.60885 0.0222031 0
M  V30 28144 O 3212.08 1.75926 -0.19466 0
M  V30 28145 C 3209.21 3.36511 -0.679341 0
M  V30 28146 C 3208.3 3.84746 -1.78412 0
M  V30 28147 N 3208.69 4.0564 -3.02143 0
M  V30 28148 C 3206.99 4.13653 -1.66755 0
M  V30 28149 C 3207.69 4.45582 -3.7394 0
M  V30 28150 N 3206.66 4.52243 -3.01624 0
M  V30 28151 H 3210.46 2.16798 -1.98434 0
M  V30 28152 H 3207.98 1.12772 -1.1686 0
M  V30 28153 H 3209.98 4.13842 -0.504048 0
M  V30 28154 H 3208.64 3.23718 0.252361 0
M  V30 28155 H 3209.65 3.9235 -3.38056 0
M  V30 28156 H 3206.32 4.09652 -0.805699 0
M  V30 28157 H 3207.71 4.69945 -4.80209 0
M  V30 28158 N 3210.43 1.08146 1.1464 0
M  V30 28159 C 3211.68 0.807918 1.85249 0
M  V30 28160 C 3212 -0.668181 1.83195 0
M  V30 28161 O 3211.27 -1.48429 1.27851 0
M  V30 28162 H 3209.85 0.295881 0.685904 0
M  V30 28163 H 3212.51 1.36689 1.38933 0
M  V30 28164 H 3211.61 1.14969 2.90153 0
M  V30 28165 N 3211.91 -1.31626 0.866732 0
M  V30 28166 C 3213.33 -1.4952 0.558214 0
M  V30 28167 C 3213.53 -1.79862 -0.908408 0
M  V30 28168 O 3212.58 -1.87534 -1.69077 0
M  V30 28169 C 3213.9 -2.63119 1.45563 0
M  V30 28170 C 3215.44 -2.77003 1.45733 0
M  V30 28171 C 3215.92 -3.93696 2.34024 0
M  V30 28172 N 3217.41 -4.00977 2.31886 0
M  V30 28173 C 3218.15 -4.90534 2.96924 0
M  V30 28174 N 3217.64 -5.85015 3.71119 0
M  V30 28175 N 3219.43 -4.83754 2.86249 0
M  V30 28176 H 3211.59 -1.102 1.81576 0
M  V30 28177 H 3213.85 -0.54423 0.77622 0
M  V30 28178 H 3213.55 -2.47464 2.49909 0
M  V30 28179 H 3213.43 -3.59184 1.15181 0
M  V30 28180 H 3215.82 -2.92075 0.42147 0
M  V30 28181 H 3215.9 -1.81615 1.80137 0
M  V30 28182 H 3215.54 -3.79383 3.37685 0
M  V30 28183 H 3215.47 -4.88385 1.96946 0
M  V30 28184 H 3217.96 -3.33378 1.77954 0
M  V30 28185 H 3218.27 -6.50073 4.17881 0
M  V30 28186 H 3216.62 -5.85004 3.75227 0
M  V30 28187 H 3219.81 -4.08917 2.27826 0
M  V30 28188 H 3219.98 -5.53344 3.37216 0
M  V30 28189 N 3213.39 -0.62585 -1.4464 0
M  V30 28190 C 3214.32 0.120574 -2.28883 0
M  V30 28191 C 3215.33 0.814045 -1.40986 0
M  V30 28192 O 3216.52 0.676375 -1.65189 0
M  V30 28193 C 3213.62 1.19269 -3.17219 0
M  V30 28194 C 3212.8 0.582763 -4.335 0
M  V30 28195 C 3211.86 1.54814 -5.02911 0
M  V30 28196 O 3210.88 1.06733 -5.59103 0
M  V30 28197 N 3212.08 2.88253 -5.03875 0
M  V30 28198 H 3214.85 -0.602369 -2.93584 0
M  V30 28199 H 3212.41 -0.466631 -1.5503 0
M  V30 28200 H 3214.4 1.83871 -3.60518 0
M  V30 28201 H 3212.97 1.81792 -2.54304 0
M  V30 28202 H 3212.19 -0.241766 -3.93458 0
M  V30 28203 H 3213.48 0.155825 -5.08561 0
M  V30 28204 H 3212.88 3.29902 -4.59545 0
M  V30 28205 H 3211.43 3.4823 -5.5098 0
M  V30 28206 N 3214.87 1.53289 -0.36608 0
M  V30 28207 C 3216.12 2.00866 0.223016 0
M  V30 28208 C 3216.44 1.25506 1.49242 0
M  V30 28209 O 3215.71 0.368478 1.92403 0
M  V30 28210 H 3214.29 0.742102 0.0854 0
M  V30 28211 H 3216.95 1.88577 -0.492429 0
M  V30 28212 H 3216.04 3.08844 0.449647 0
M  V30 28213 N 3216.35 0.0952613 1.57312 0
M  V30 28214 C 3217.57 -0.580171 1.9912 0
M  V30 28215 C 3218 -1.6092 0.973983 0
M  V30 28216 O 3217.35 -1.81209 -0.057502 0
M  V30 28217 C 3217.4 -1.20432 3.39895 0
M  V30 28218 O 3216.51 -2.32013 3.40945 0
M  V30 28219 H 3215.85 -0.147183 0.647482 0
M  V30 28220 H 3218.38 0.176721 2.03835 0
M  V30 28221 H 3218.39 -1.54558 3.77592 0
M  V30 28222 H 3217.06 -0.450442 4.13454 0
M  V30 28223 H 3215.64 -1.99505 3.15043 0
M  V30 28224 N 3217.82 -1.56587 -0.178432 0
M  V30 28225 C 3219.07 -1.8123 -0.894433 0
M  V30 28226 C 3219.39 -0.671095 -1.83088 0
M  V30 28227 O 3218.66 0.309523 -1.93439 0
M  V30 28228 H 3217.24 -0.668533 -0.333276 0
M  V30 28229 H 3219.9 -1.94067 -0.179951 0
M  V30 28230 H 3219 -2.75014 -1.4756 0
M  V30 28231 N 3219.3 0.446741 -1.51136 0
M  V30 28232 C 3220.53 1.22424 -1.67413 0
M  V30 28233 C 3220.95 1.84484 -0.367041 0
M  V30 28234 O 3220.31 1.68393 0.671821 0
M  V30 28235 C 3220.36 2.29092 -2.78477 0
M  V30 28236 O 3219.46 3.34347 -2.41425 0
M  V30 28237 H 3218.8 0.359101 -0.558518 0
M  V30 28238 H 3221.33 0.528765 -1.97649 0
M  V30 28239 H 3221.34 2.74025 -3.02282 0
M  V30 28240 H 3220.02 1.83297 -3.7333 0
M  V30 28241 H 3218.59 2.94956 -2.28157 0
M  V30 28242 N 3220.78 1.41123 0.701567 0
M  V30 28243 C 3222.03 1.39881 1.45869 0
M  V30 28244 C 3222.35 0.00672197 1.94999 0
M  V30 28245 O 3221.62 -0.95044 1.71299 0
M  V30 28246 H 3220.2 0.514866 0.541222 0
M  V30 28247 H 3222.86 1.76307 0.830772 0
M  V30 28248 H 3221.96 2.08234 2.32476 0
M  V30 28249 N 3222.26 -0.935219 1.26852 0
M  V30 28250 C 3223.21 -2.02076 1.0559 0
M  V30 28251 C 3224.19 -1.60894 -0.0136707 0
M  V30 28252 O 3225.38 -1.75821 0.203987 0
M  V30 28253 C 3222.51 -3.36146 0.697177 0
M  V30 28254 C 3221.6 -3.83795 1.8045 0
M  V30 28255 N 3221.99 -4.04032 3.0429 0
M  V30 28256 C 3220.29 -4.12763 1.68947 0
M  V30 28257 C 3220.99 -4.43593 3.76298 0
M  V30 28258 N 3219.96 -4.50637 3.04019 0
M  V30 28259 H 3223.77 -2.15743 1.99581 0
M  V30 28260 H 3221.28 -1.1215 1.17457 0
M  V30 28261 H 3223.28 -4.13569 0.525988 0
M  V30 28262 H 3221.94 -3.23847 -0.23519 0
M  V30 28263 H 3222.95 -3.90552 3.40132 0
M  V30 28264 H 3219.63 -4.09219 0.827413 0
M  V30 28265 H 3221.02 -4.67392 4.82695 0
M  V30 28266 N 3223.74 -1.08752 -1.14065 0
M  V30 28267 C 3224.96 -0.841072 -1.8958 0
M  V30 28268 C 3225.39 0.601404 -1.78227 0
M  V30 28269 O 3224.74 1.42179 -1.12493 0
M  V30 28270 C 3224.79 -1.27219 -3.37413 0
M  V30 28271 O 3223.9 -0.426318 -4.10191 0
M  V30 28272 H 3223.24 -0.305183 -0.589711 0
M  V30 28273 H 3225.77 -1.44986 -1.44361 0
M  V30 28274 H 3225.78 -1.25458 -3.88232 0
M  V30 28275 H 3224.45 -2.32274 -3.44995 0
M  V30 28276 H 3223.03 -0.50765 -3.69428 0
M  V30 28277 N 3225.21 1.31165 -0.873701 0
M  V30 28278 C 3226.63 1.78764 -0.538551 0
M  V30 28279 C 3226.98 1.71957 0.944735 0
M  V30 28280 O 3226.1 1.28957 1.73778 0
M  V30 28281 C 3226.7 3.24593 -0.970806 0
M  V30 28282 C 3225.26 3.70073 -0.687254 0
M  V30 28283 C 3224.4 2.51869 -1.16005 0
M  V30 28284 H 3227.35 1.18194 -1.05905 0
M  V30 28285 H 3227.37 3.79354 -0.295033 0
M  V30 28286 H 3226.89 3.29515 -2.0504 0
M  V30 28287 H 3224.99 3.70649 0.380816 0
M  V30 28288 H 3225.1 4.62046 -1.2669 0
M  V30 28289 H 3223.46 2.48015 -0.579707 0
M  V30 28290 H 3224.25 2.59535 -2.24715 0
M  V30 28291 N 3226.69 0.633512 1.44307 0
M  V30 28292 C 3227.92 0.144384 2.06897 0
M  V30 28293 C 3228.34 -1.17297 1.47047 0
M  V30 28294 O 3227.7 -1.72012 0.572836 0
M  V30 28295 C 3227.75 0.0456957 3.60571 0
M  V30 28296 O 3226.85 -0.997612 4.00152 0
M  V30 28297 H 3226.19 0.0858614 0.658425 0
M  V30 28298 H 3228.72 0.870866 1.85141 0
M  V30 28299 H 3228.73 -0.144106 4.07745 0
M  V30 28300 H 3227.41 1.00747 4.03513 0
M  V30 28301 H 3225.99 -0.782188 3.64604 0
M  V30 28302 N 3228.17 -1.53093 0.374204 0
M  V30 28303 C 3229.59 -1.59583 0.0235063 0
M  V30 28304 C 3229.79 -1.38894 -1.45982 0
M  V30 28305 O 3228.84 -1.1984 -2.22249 0
M  V30 28306 C 3230.16 -2.96727 0.487169 0
M  V30 28307 C 3231.7 -3.09862 0.442128 0
M  V30 28308 C 3232.18 -4.49432 0.881738 0
M  V30 28309 N 3233.67 -4.55572 0.837142 0
M  V30 28310 C 3234.4 -5.61772 1.14888 0
M  V30 28311 N 3233.9 -6.75687 1.53034 0
M  V30 28312 N 3235.69 -5.518 1.07112 0
M  V30 28313 H 3227.84 -1.64791 1.34006 0
M  V30 28314 H 3230.11 -0.773354 0.548294 0
M  V30 28315 H 3229.81 -3.17034 1.52258 0
M  V30 28316 H 3229.69 -3.77004 -0.121706 0
M  V30 28317 H 3232.07 -2.8926 -0.584165 0
M  V30 28318 H 3232.16 -2.31574 1.08661 0
M  V30 28319 H 3231.8 -4.70773 1.90619 0
M  V30 28320 H 3231.73 -5.26163 0.214419 0
M  V30 28321 H 3234.22 -3.73784 0.556239 0
M  V30 28322 H 3234.53 -7.52673 1.75224 0
M  V30 28323 H 3232.88 -6.77056 1.56907 0
M  V30 28324 H 3236.07 -4.61686 0.77223 0
M  V30 28325 H 3236.24 -6.34467 1.31739 0
M  V30 28326 N 3229.65 -0.103603 -1.57259 0
M  V30 28327 C 3230.9 0.55699 -1.94273 0
M  V30 28328 C 3231.22 1.6819 -0.986768 0
M  V30 28329 O 3230.49 1.95859 -0.0403162 0
M  V30 28330 H 3229.07 0.208745 -0.717241 0
M  V30 28331 H 3231.73 -0.168932 -1.94167 0
M  V30 28332 H 3230.83 0.961638 -2.96916 0
M  V30 28333 N 3231.13 1.56679 0.170126 0
M  V30 28334 C 3232.54 1.50824 0.521939 0
M  V30 28335 C 3232.74 0.80807 1.84587 0
M  V30 28336 O 3231.8 0.368935 2.4979 0
M  V30 28337 C 3233.11 2.9556 0.553596 0
M  V30 28338 C 3234.66 3.06372 0.640715 0
M  V30 28339 C 3235.13 4.52569 0.703253 0
M  V30 28340 N 3236.63 4.56821 0.76611 0
M  V30 28341 C 3237.36 5.67286 0.835092 0
M  V30 28342 N 3236.86 6.87381 0.864836 0
M  V30 28343 N 3238.65 5.5526 0.874204 0
M  V30 28344 H 3230.8 2.00604 -0.697988 0
M  V30 28345 H 3233.06 0.913947 -0.251803 0
M  V30 28346 H 3232.77 3.49949 -0.350559 0
M  V30 28347 H 3232.64 3.5027 1.39967 0
M  V30 28348 H 3235.03 2.52017 1.5353 0
M  V30 28349 H 3235.11 2.54745 -0.232053 0
M  V30 28350 H 3234.76 5.07555 -0.187075 0
M  V30 28351 H 3234.69 5.01953 1.59218 0
M  V30 28352 H 3237.18 3.70355 0.751359 0
M  V30 28353 H 3237.49 7.6732 0.91868 0
M  V30 28354 H 3235.83 6.89989 0.833094 0
M  V30 28355 H 3239.03 4.60355 0.847976 0
M  V30 28356 H 3239.2 6.41371 0.924502 0
M  V30 28357 N 3232.6 -0.43872 1.5137 0
M  V30 28358 C 3233.55 -1.5308 1.68969 0
M  V30 28359 C 3234.54 -1.51436 0.543695 0
M  V30 28360 O 3235.73 -1.57912 0.799547 0
M  V30 28361 C 3232.86 -2.91282 1.81685 0
M  V30 28362 C 3231.95 -2.97688 3.02064 0
M  V30 28363 N 3232.34 -2.7384 4.25259 0
M  V30 28364 C 3230.63 -3.28847 3.0129 0
M  V30 28365 C 3231.34 -2.86053 5.06506 0
M  V30 28366 N 3230.31 -3.17663 4.41125 0
M  V30 28367 H 3234.11 -1.33392 2.61885 0
M  V30 28368 H 3231.63 -0.646004 1.48998 0
M  V30 28369 H 3233.62 -3.69847 1.92403 0
M  V30 28370 H 3232.28 -3.11992 0.899493 0
M  V30 28371 H 3233.3 -2.48795 4.54226 0
M  V30 28372 H 3229.97 -3.5534 2.1918 0
M  V30 28373 H 3231.36 -2.71581 6.14568 0
M  V30 28374 N 3234.08 -1.41493 -0.694073 0
M  V30 28375 C 3235.33 -1.40653 -1.45125 0
M  V30 28376 C 3235.65 -0.0170631 -1.94993 0
M  V30 28377 O 3234.92 0.941342 -1.71801 0
M  V30 28378 H 3233.5 -0.517729 -0.538484 0
M  V30 28379 H 3236.16 -1.76745 -0.82141 0
M  V30 28380 H 3235.26 -2.09464 -2.31368 0
M  V30 28381 N 3235.56 0.928479 -1.27346 0
M  V30 28382 C 3236.79 1.71548 -1.1656 0
M  V30 28383 C 3237.21 1.86093 0.274011 0
M  V30 28384 O 3236.57 1.3604 1.19845 0
M  V30 28385 C 3236.62 3.09326 -1.85338 0
M  V30 28386 O 3235.72 3.96018 -1.15081 0
M  V30 28387 H 3235.06 0.525852 -0.405432 0
M  V30 28388 H 3237.59 1.16199 -1.68401 0
M  V30 28389 H 3237.6 3.59644 -1.92665 0
M  V30 28390 H 3236.28 2.98055 -2.90062 0
M  V30 28391 H 3234.85 3.54459 -1.15817 0
M  V30 28392 N 3237.04 1.09355 1.13486 0
M  V30 28393 C 3238.29 0.827521 1.84381 0
M  V30 28394 C 3238.61 -0.648713 1.83893 0
M  V30 28395 O 3237.88 -1.47064 1.29418 0
M  V30 28396 H 3236.46 0.303139 0.682727 0
M  V30 28397 H 3239.12 1.38154 1.37475 0
M  V30 28398 H 3238.22 1.1804 2.88917 0
M  V30 28399 N 3238.52 -1.307 0.880644 0
M  V30 28400 C 3239.74 -2.01008 0.510944 0
M  V30 28401 C 3240.17 -1.65604 -0.892012 0
M  V30 28402 O 3239.53 -0.870337 -1.59043 0
M  V30 28403 C 3239.57 -3.53979 0.687821 0
M  V30 28404 O 3238.68 -4.11527 -0.268203 0
M  V30 28405 H 3238.02 -0.632568 0.201876 0
M  V30 28406 H 3240.55 -1.66648 1.187 0
M  V30 28407 H 3240.56 -4.03782 0.585166 0
M  V30 28408 H 3239.23 -3.79086 1.71075 0
M  V30 28409 H 3237.81 -3.72708 -0.119608 0
M  V30 28410 N 3240 -0.641156 -1.43969 0
M  V30 28411 C 3241.24 -0.149369 -2.01547 0
M  V30 28412 C 3241.56 1.23677 -1.50762 0
M  V30 28413 O 3240.83 1.82374 -0.715289 0
M  V30 28414 H 3239.41 -0.0522292 -0.745172 0
M  V30 28415 H 3242.08 -0.830113 -1.76338 0
M  V30 28416 H 3241.17 -0.124731 -3.11851 0
M  V30 28417 N 3241.47 1.52892 -0.382318 0
M  V30 28418 C 3242.42 2.2304 0.472987 0
M  V30 28419 C 3243.41 1.2317 1.03528 0
M  V30 28420 O 3244.6 1.4854 0.96254 0
M  V30 28421 C 3241.73 3.03554 1.60343 0
M  V30 28422 C 3240.81 4.10814 1.05322 0
M  V30 28423 N 3241.21 5.05289 0.227371 0
M  V30 28424 C 3239.5 4.2582 1.3264 0
M  V30 28425 C 3240.2 5.81651 -0.0758054 0
M  V30 28426 N 3239.18 5.41046 0.526292 0
M  V30 28427 H 3242.98 2.93439 -0.164592 0
M  V30 28428 H 3240.5 1.6127 -0.191239 0
M  V30 28429 H 3242.49 3.52339 2.22851 0
M  V30 28430 H 3241.15 2.34689 2.2439 0
M  V30 28431 H 3242.16 5.17725 -0.134805 0
M  V30 28432 H 3238.84 3.68184 1.96843 0
M  V30 28433 H 3240.23 6.67763 -0.744493 0
M  V30 28434 N 3242.95 0.111941 1.57202 0
M  V30 28435 C 3244.18 -0.559019 1.99724 0
M  V30 28436 C 3244.6 -1.59878 0.990996 0
M  V30 28437 O 3243.96 -1.8126 -0.0382791 0
M  V30 28438 C 3244.01 -1.1682 3.41153 0
M  V30 28439 O 3243.11 -2.28384 3.43387 0
M  V30 28440 H 3242.45 -0.140308 0.649007 0
M  V30 28441 H 3244.98 0.198331 2.03636 0
M  V30 28442 H 3244.99 -1.50544 3.7921 0
M  V30 28443 H 3243.67 -0.406564 4.13908 0
M  V30 28444 H 3242.24 -1.96152 3.17142 0
M  V30 28445 N 3244.43 -1.56767 -0.161814 0
M  V30 28446 C 3245.65 -1.87035 -0.896241 0
M  V30 28447 C 3246.08 -0.699345 -1.74616 0
M  V30 28448 O 3245.44 0.351404 -1.77862 0
M  V30 28449 C 3245.49 -3.15787 -1.741 0
M  V30 28450 O 3244.59 -2.98679 -2.84367 0
M  V30 28451 H 3243.93 -0.61493 -0.250513 0
M  V30 28452 H 3246.46 -2.03996 -0.157091 0
M  V30 28453 H 3246.47 -3.47434 -2.13901 0
M  V30 28454 H 3245.15 -4.00626 -1.11677 0
M  V30 28455 H 3243.72 -2.78408 -2.48079 0
M  V30 28456 N 3245.91 0.430686 -1.51601 0
M  V30 28457 C 3247.13 1.20642 -1.68702 0
M  V30 28458 C 3247.56 1.84085 -0.386587 0
M  V30 28459 O 3246.92 1.69096 0.653923 0
M  V30 28460 C 3246.96 2.26125 -2.80891 0
M  V30 28461 O 3246.07 3.31767 -2.44957 0
M  V30 28462 H 3245.41 0.353157 -0.562295 0
M  V30 28463 H 3247.94 0.507772 -1.98199 0
M  V30 28464 H 3247.95 2.70803 -3.05172 0
M  V30 28465 H 3246.62 1.79327 -3.75253 0
M  V30 28466 H 3245.2 2.92519 -2.31273 0
M  V30 28467 N 3247.39 1.4186 0.686559 0
M  V30 28468 C 3248.34 1.40878 1.79269 0
M  V30 28469 C 3249.32 0.281809 1.58413 0
M  V30 28470 O 3250.51 0.523162 1.69092 0
M  V30 28471 C 3247.64 1.30218 3.17645 0
M  V30 28472 C 3246.73 2.47814 3.44164 0
M  V30 28473 N 3247.12 3.73264 3.41332 0
M  V30 28474 C 3245.42 2.41821 3.74751 0
M  V30 28475 C 3246.12 4.51309 3.67008 0
M  V30 28476 N 3245.09 3.8155 3.87196 0
M  V30 28477 H 3248.89 2.35781 1.75455 0
M  V30 28478 H 3246.41 1.36042 0.886922 0
M  V30 28479 H 3248.41 1.27597 3.96894 0
M  V30 28480 H 3247.07 0.363077 3.22664 0
M  V30 28481 H 3248.08 4.06024 3.21504 0
M  V30 28482 H 3244.75 1.5643 3.87087 0
M  V30 28483 H 3246.14 5.60267 3.70879 0
M  V30 28484 N 3248.86 -0.921712 1.27837 0
M  V30 28485 C 3250.11 -1.66674 1.14299 0
M  V30 28486 C 3250.43 -1.92513 -0.310459 0
M  V30 28487 O 3249.7 -1.53564 -1.21634 0
M  V30 28488 H 3248.28 -0.617742 0.420004 0
M  V30 28489 H 3250.94 -1.10641 1.60451 0
M  V30 28490 H 3250.04 -2.63243 1.67659 0
M  V30 28491 N 3250.34 -1.09956 -1.12905 0
M  V30 28492 C 3251.27 -0.70174 -2.18193 0
M  V30 28493 C 3252.29 0.259103 -1.60725 0
M  V30 28494 O 3253.48 0.0443235 -1.78445 0
M  V30 28495 C 3250.58 -0.0141198 -3.38897 0
M  V30 28496 C 3249.75 -0.997882 -4.25865 0
M  V30 28497 C 3248.81 -0.342663 -5.25083 0
M  V30 28498 O 3247.83 -0.991956 -5.6049 0
M  V30 28499 N 3249.04 0.900957 -5.73466 0
M  V30 28500 H 3251.8 -1.60759 -2.52936 0
M  V30 28501 H 3249.36 -0.987726 -1.28279 0
M  V30 28502 H 3251.35 0.435557 -4.02349 0
M  V30 28503 H 3249.92 0.794064 -3.02346 0
M  V30 28504 H 3249.14 -1.62597 -3.59104 0
M  V30 28505 H 3250.43 -1.66396 -4.80822 0
M  V30 28506 H 3249.83 1.44793 -5.46856 0
M  V30 28507 H 3248.39 1.29386 -6.38829 0
M  V30 28508 N 3251.82 1.30231 -0.887563 0
M  V30 28509 C 3252.77 2.25633 -0.327689 0
M  V30 28510 C 3253.75 1.51377 0.545335 0
M  V30 28511 O 3254.95 1.72665 0.389336 0
M  V30 28512 C 3252.07 3.40278 0.454486 0
M  V30 28513 C 3251.16 4.21886 -0.432772 0
M  V30 28514 N 3251.55 4.81964 -1.53442 0
M  V30 28515 C 3249.85 4.45415 -0.228353 0
M  V30 28516 C 3250.55 5.43126 -2.08302 0
M  V30 28517 N 3249.53 5.25854 -1.37764 0
M  V30 28518 H 3253.33 2.69633 -1.16942 0
M  V30 28519 H 3250.84 1.44701 -0.737257 0
M  V30 28520 H 3252.84 4.07673 0.872238 0
M  V30 28521 H 3251.5 2.97818 1.29362 0
M  V30 28522 H 3252.51 4.81105 -1.91726 0
M  V30 28523 H 3249.19 4.13544 0.573402 0
M  V30 28524 H 3250.58 6.00793 -3.00828 0
M  V30 28525 N 3253.3 0.648782 1.43627 0
M  V30 28526 C 3254.55 0.160055 2.01465 0
M  V30 28527 C 3254.87 -1.22875 1.51415 0
M  V30 28528 O 3254.14 -1.81993 0.724951 0
M  V30 28529 H 3252.72 0.0561803 0.744884 0
M  V30 28530 H 3255.38 0.839453 1.75895 0
M  V30 28531 H 3254.48 0.141268 3.1178 0
M  V30 28532 N 3254.78 -1.52688 0.390421 0
M  V30 28533 C 3256 -2.06491 -0.193977 0
M  V30 28534 C 3256.43 -1.26016 -1.39648 0
M  V30 28535 O 3255.78 -0.285499 -1.79038 0
M  V30 28536 C 3255.83 -3.56515 -0.541244 0
M  V30 28537 O 3254.94 -3.78603 -1.63503 0
M  V30 28538 H 3254.28 -0.663624 -0.0223491 0
M  V30 28539 H 3256.81 -1.96838 0.558214 0
M  V30 28540 H 3256.82 -3.99975 -0.805231 0
M  V30 28541 H 3255.49 -4.14525 0.337901 0
M  V30 28542 H 3254.07 -3.47032 -1.36467 0
M  V30 28543 N 3256.25 -0.120276 -1.5714 0
M  V30 28544 C 3257.5 0.536353 -1.94853 0
M  V30 28545 C 3257.82 1.67134 -1.00455 0
M  V30 28546 O 3257.09 1.95805 -0.0610874 0
M  V30 28547 H 3255.67 0.201126 -0.719415 0
M  V30 28548 H 3258.34 -0.189516 -1.93976 0
M  V30 28549 H 3257.43 0.930092 -2.97919 0
M  V30 28550 N 3257.73 1.56851 0.153498 0
M  V30 28551 C 3258.96 1.87508 0.88631 0
M  V30 28552 C 3259.38 0.708595 1.74243 0
M  V30 28553 O 3258.74 -0.341966 1.78046 0
M  V30 28554 C 3258.79 3.16706 1.72422 0
M  V30 28555 O 3257.89 3.00183 2.82779 0
M  V30 28556 H 3257.23 0.61625 0.247248 0
M  V30 28557 H 3259.76 2.04076 0.146271 0
M  V30 28558 H 3259.77 3.48563 2.12056 0
M  V30 28559 H 3258.45 4.01212 1.09551 0
M  V30 28560 H 3257.03 2.7972 2.46599 0
M  V30 28561 N 3259.21 -0.42264 1.51827 0
M  V30 28562 C 3260.46 -1.1685 1.64895 0
M  V30 28563 C 3260.78 -1.91368 0.374593 0
M  V30 28564 O 3260.05 -1.86158 -0.610095 0
M  V30 28565 H 3258.63 -0.434335 0.607752 0
M  V30 28566 H 3261.29 -0.483126 1.88817 0
M  V30 28567 H 3260.39 -1.89002 2.48364 0
M  V30 28568 N 3260.69 -1.42222 -0.679027 0
M  V30 28569 C 3262.1 -1.25054 -0.991643 0
M  V30 28570 C 3262.3 -0.151701 -2.00928 0
M  V30 28571 O 3261.36 0.478463 -2.47925 0
M  V30 28572 C 3262.67 -2.60588 -1.50048 0
M  V30 28573 C 3264.22 -2.67908 -1.61847 0
M  V30 28574 C 3264.7 -4.03798 -2.16128 0
M  V30 28575 N 3266.19 -4.0573 -2.23467 0
M  V30 28576 C 3266.92 -5.07689 -2.66532 0
M  V30 28577 N 3266.42 -6.20033 -3.09081 0
M  V30 28578 N 3268.21 -4.95047 -2.66243 0
M  V30 28579 H 3260.36 -2.12399 -0.00518118 0
M  V30 28580 H 3262.63 -0.945781 -0.0648299 0
M  V30 28581 H 3262.33 -3.41833 -0.82725 0
M  V30 28582 H 3262.21 -2.84217 -2.47993 0
M  V30 28583 H 3264.59 -1.87012 -2.28278 0
M  V30 28584 H 3264.67 -2.48072 -0.62403 0
M  V30 28585 H 3264.32 -4.85149 -1.50308 0
M  V30 28586 H 3264.25 -4.20983 -3.16355 0
M  V30 28587 H 3266.74 -3.24625 -1.93461 0
M  V30 28588 H 3267.05 -6.93687 -3.40615 0
M  V30 28589 H 3265.4 -6.23545 -3.06948 0
M  V30 28590 H 3268.59 -4.06356 -2.32362 0
M  V30 28591 H 3268.76 -5.74641 -2.99485 0
M  V30 28592 N 3262.17 0.91492 -1.28324 0
M  V30 28593 C 3263.39 1.70302 -1.18373 0
M  V30 28594 C 3263.82 1.86374 0.254258 0
M  V30 28595 O 3263.17 1.37303 1.18395 0
M  V30 28596 C 3263.22 3.07342 -1.88608 0
M  V30 28597 O 3262.33 3.94775 -1.19275 0
M  V30 28598 H 3261.67 0.521522 -0.410987 0
M  V30 28599 H 3264.2 1.14406 -1.69624 0
M  V30 28600 H 3264.21 3.57581 -1.96469 0
M  V30 28601 H 3262.88 2.94962 -2.93207 0
M  V30 28602 H 3261.46 3.5321 -1.1957 0
M  V30 28603 N 3263.64 1.10553 1.1232 0
M  V30 28604 C 3264.87 0.871126 1.88218 0
M  V30 28605 C 3265.29 -0.572974 1.79161 0
M  V30 28606 O 3264.65 -1.40372 1.14741 0
M  V30 28607 C 3264.7 1.32571 3.35347 0
M  V30 28608 O 3263.8 0.491522 4.0946 0
M  V30 28609 H 3263.15 0.314526 0.584781 0
M  V30 28610 H 3265.68 1.47265 1.42036 0
M  V30 28611 H 3265.69 1.31619 3.86187 0
M  V30 28612 H 3264.36 2.37734 3.41256 0
M  V30 28613 H 3262.94 0.566359 3.68574 0
M  V30 28614 N 3265.12 -1.29758 0.894457 0
M  V30 28615 C 3266.35 -2.00455 0.532235 0
M  V30 28616 C 3266.77 -1.66541 -0.874398 0
M  V30 28617 O 3266.13 -0.887157 -1.58111 0
M  V30 28618 C 3266.18 -3.5323 0.725326 0
M  V30 28619 O 3265.28 -4.11788 -0.22454 0
M  V30 28620 H 3264.62 -0.630391 0.208573 0
M  V30 28621 H 3267.15 -1.6538 1.20461 0
M  V30 28622 H 3267.16 -4.03139 0.62796 0
M  V30 28623 H 3265.84 -3.7725 1.75086 0
M  V30 28624 H 3264.42 -3.72814 -0.0800706 0
M  V30 28625 N 3266.6 -0.65639 -1.4328 0
M  V30 28626 C 3268.02 -0.32424 -1.56272 0
M  V30 28627 C 3268.22 1.17147 -1.63948 0
M  V30 28628 O 3267.27 1.9564 -1.59628 0
M  V30 28629 C 3268.59 -1.03838 -2.82202 0
M  V30 28630 C 3270.13 -1.01894 -2.9595 0
M  V30 28631 C 3270.61 -1.71404 -4.24717 0
M  V30 28632 N 3272.1 -1.68183 -4.31588 0
M  V30 28633 C 3272.83 -2.18839 -5.29997 0
M  V30 28634 N 3272.33 -2.77796 -6.34666 0
M  V30 28635 N 3274.12 -2.0932 -5.21672 0
M  V30 28636 H 3266.27 -1.62697 -1.36541 0
M  V30 28637 H 3268.54 -0.684386 -0.655987 0
M  V30 28638 H 3268.24 -2.09351 -2.82604 0
M  V30 28639 H 3268.12 -0.591943 -3.72526 0
M  V30 28640 H 3270.5 0.0277913 -2.95087 0
M  V30 28641 H 3270.59 -1.5041 -2.06907 0
M  V30 28642 H 3270.23 -2.76036 -4.26341 0
M  V30 28643 H 3270.16 -1.20351 -5.12663 0
M  V30 28644 H 3272.65 -1.25163 -3.56571 0
M  V30 28645 H 3272.96 -3.14117 -7.06081 0
M  V30 28646 H 3271.31 -2.81858 -6.3528 0
M  V30 28647 H 3274.5 -1.62963 -4.38818 0
M  V30 28648 H 3274.67 -2.49106 -5.98206 0
M  V30 28649 N 3268.08 1.52478 -0.398513 0
M  V30 28650 C 3269.33 2.01294 0.180359 0
M  V30 28651 C 3269.65 1.28644 1.46546 0
M  V30 28652 O 3268.92 0.409206 1.91578 0
M  V30 28653 H 3267.5 0.743747 0.0696397 0
M  V30 28654 H 3270.16 1.8749 -0.532318 0
M  V30 28655 H 3269.26 3.09728 0.384035 0
M  V30 28656 N 3269.56 0.128608 1.57074 0
M  V30 28657 C 3270.97 -0.395227 1.82469 0
M  V30 28658 C 3271.32 -1.65971 1.04633 0
M  V30 28659 O 3270.44 -2.14503 0.285873 0
M  V30 28660 C 3271.04 -0.723831 3.30978 0
M  V30 28661 C 3269.6 -1.19226 3.57018 0
M  V30 28662 C 3268.75 -0.205858 2.76535 0
M  V30 28663 H 3271.7 0.353598 1.54711 0
M  V30 28664 H 3271.72 -1.58033 3.4613 0
M  V30 28665 H 3271.23 0.196663 3.87601 0
M  V30 28666 H 3269.33 -2.12932 3.05762 0
M  V30 28667 H 3269.44 -1.13094 4.6556 0
M  V30 28668 H 3267.81 -0.694829 2.45039 0
M  V30 28669 H 3268.59 0.707902 3.35922 0
M  V30 28670 N 3271.04 -1.5693 -0.145178 0
M  V30 28671 C 3272.27 -1.87338 -0.8711 0
M  V30 28672 C 3272.67 -0.715023 -1.75169 0
M  V30 28673 O 3272.02 0.324272 -1.80815 0
M  V30 28674 C 3272.08 -3.12471 -1.77769 0
M  V30 28675 C 3271.74 -4.44199 -1.07408 0
M  V30 28676 C 3272.74 -5.18142 -0.427129 0
M  V30 28677 C 3270.42 -4.90922 -1.06305 0
M  V30 28678 C 3272.42 -6.37015 0.22146 0
M  V30 28679 C 3270.11 -6.09719 -0.410647 0
M  V30 28680 C 3271.1 -6.82611 0.230477 0
M  V30 28681 O 3270.79 -7.99151 0.872529 0
M  V30 28682 H 3270.52 -0.625175 -0.257163 0
M  V30 28683 H 3273.08 -2.04908 -0.142123 0
M  V30 28684 H 3271.31 -2.90915 -2.54766 0
M  V30 28685 H 3273 -3.29111 -2.37573 0
M  V30 28686 H 3273.76 -4.83113 -0.427451 0
M  V30 28687 H 3269.64 -4.34108 -1.55149 0
M  V30 28688 H 3273.19 -6.93849 0.722471 0
M  V30 28689 H 3269.08 -6.44209 -0.407998 0
M  V30 28690 H 3269.85 -8.14829 0.774379 0
M  V30 28691 N 3272.51 0.414582 -1.52049 0
M  V30 28692 C 3273.42 1.52954 -1.77882 0
M  V30 28693 C 3274.44 1.60828 -0.664108 0
M  V30 28694 O 3275.62 1.77645 -0.948914 0
M  V30 28695 C 3272.68 2.88741 -1.91911 0
M  V30 28696 C 3271.74 2.90798 -3.15808 0
M  V30 28697 C 3270.97 4.20108 -3.29158 0
M  V30 28698 O 3271.2 5.13713 -2.47901 0
M  V30 28699 O 3270.13 4.28912 -4.22277 0
M  V30 28700 H 3273.96 1.34062 -2.72509 0
M  V30 28701 H 3271.54 0.599893 -1.36827 0
M  V30 28702 H 3273.42 3.69286 -2.02992 0
M  V30 28703 H 3272.1 3.07712 -1.00473 0
M  V30 28704 H 3271.01 2.09126 -3.10189 0
M  V30 28705 H 3272.34 2.76775 -4.07009 0
M  V30 28706 N 3273.99 1.4258 0.671475 0
M  V30 28707 C 3275.22 1.46839 1.46469 0
M  V30 28708 C 3275.64 0.0820988 1.87921 0
M  V30 28709 O 3275 -0.920189 1.56212 0
M  V30 28710 C 3275.05 2.40382 2.68792 0
M  V30 28711 O 3274.15 1.87748 3.67185 0
M  V30 28712 H 3273.49 0.497384 0.439892 0
M  V30 28713 H 3276.02 1.87304 0.823309 0
M  V30 28714 H 3276.03 2.57074 3.16823 0
M  V30 28715 H 3274.71 3.41097 2.37961 0
M  V30 28716 H 3273.28 1.80627 3.26233 0
M  V30 28717 N 3275.47 -0.908102 1.28807 0
M  V30 28718 C 3276.89 -1.18747 1.06636 0
M  V30 28719 C 3277.09 -2.00624 -0.187694 0
M  V30 28720 O 3276.14 -2.36378 -0.887799 0
M  V30 28721 C 3277.45 -1.91657 2.31707 0
M  V30 28722 C 3279 -2.04517 2.36942 0
M  V30 28723 C 3279.48 -2.80836 3.61794 0
M  V30 28724 N 3280.97 -2.88395 3.62467 0
M  V30 28725 C 3281.7 -3.47962 4.55752 0
M  V30 28726 N 3281.2 -4.08764 5.5936 0
M  V30 28727 N 3282.99 -3.45556 4.43337 0
M  V30 28728 H 3275.14 -0.361603 2.09299 0
M  V30 28729 H 3277.41 -0.222652 0.921483 0
M  V30 28730 H 3277.11 -1.38925 3.23098 0
M  V30 28731 H 3276.99 -2.92178 2.38561 0
M  V30 28732 H 3279.37 -2.56428 1.46044 0
M  V30 28733 H 3279.45 -1.03155 2.34079 0
M  V30 28734 H 3279.1 -2.29604 4.53039 0
M  V30 28735 H 3279.03 -3.82526 3.61914 0
M  V30 28736 H 3281.52 -2.45203 2.87548 0
M  V30 28737 H 3281.83 -4.52213 6.26676 0
M  V30 28738 H 3280.18 -4.07251 5.6318 0
M  V30 28739 H 3283.37 -2.97269 3.61592 0
M  V30 28740 H 3283.54 -3.91686 5.16223 0
M  V30 28741 N 3276.95 -1.11147 -1.11732 0
M  V30 28742 C 3278.17 -0.881095 -1.87754 0
M  V30 28743 C 3278.6 0.563465 -1.79462 0
M  V30 28744 O 3277.96 1.39761 -1.15484 0
M  V30 28745 C 3278 -1.34347 -3.34639 0
M  V30 28746 O 3277.11 -0.513229 -4.09194 0
M  V30 28747 H 3276.45 -0.317623 -0.583105 0
M  V30 28748 H 3278.98 -1.48016 -1.41253 0
M  V30 28749 H 3278.99 -1.33665 -3.85484 0
M  V30 28750 H 3277.66 -2.3954 -3.3999 0
M  V30 28751 H 3276.24 -0.585897 -3.68268 0
M  V30 28752 N 3278.43 1.29282 -0.901326 0
M  V30 28753 C 3279.67 1.95107 -0.527035 0
M  V30 28754 C 3279.99 1.71392 0.930034 0
M  V30 28755 O 3279.26 1.0466 1.65599 0
M  V30 28756 H 3277.84 0.721926 -0.191916 0
M  V30 28757 H 3280.51 1.57504 -1.14797 0
M  V30 28758 H 3279.6 3.03893 -0.710999 0
M  V30 28759 N 3279.9 0.663979 1.4293 0
M  V30 28760 C 3280.85 -0.0435783 2.27958 0
M  V30 28761 C 3281.84 -0.784233 1.40494 0
M  V30 28762 O 3283.03 -0.664927 1.64036 0
M  V30 28763 C 3280.16 -1.00177 3.28359 0
M  V30 28764 C 3279.24 -0.259025 4.23308 0
M  V30 28765 N 3279.64 0.73027 5.005 0
M  V30 28766 C 3277.93 -0.498984 4.432 0
M  V30 28767 C 3278.63 1.17211 5.69769 0
M  V30 28768 N 3277.61 0.5042 5.41257 0
M  V30 28769 H 3281.41 0.715398 2.8506 0
M  V30 28770 H 3278.93 0.492144 1.54763 0
M  V30 28771 H 3280.92 -1.52355 3.88064 0
M  V30 28772 H 3279.58 -1.76069 2.72818 0
M  V30 28773 H 3280.59 1.10941 5.05878 0
M  V30 28774 H 3277.27 -1.23824 3.98715 0
M  V30 28775 H 3278.66 1.99128 6.41715 0
M  V30 28776 N 3281.38 -1.52265 0.406593 0
M  V30 28777 C 3282.61 -2.06685 -0.172065 0
M  V30 28778 C 3283.03 -1.2749 -1.38303 0
M  V30 28779 O 3282.39 -0.304473 -1.78725 0
M  V30 28780 C 3282.44 -3.57069 -0.5034 0
M  V30 28781 O 3281.54 -3.80316 -1.59478 0
M  V30 28782 H 3280.88 -0.663823 -0.0153092 0
M  V30 28783 H 3283.41 -1.96235 0.57906 0
M  V30 28784 H 3283.42 -4.00807 -0.762763 0
M  V30 28785 H 3282.1 -4.14143 0.381848 0
M  V30 28786 H 3280.67 -3.4846 -1.32778 0
M  V30 28787 N 3282.86 -0.136936 -1.57004 0
M  V30 28788 C 3284.09 0.527173 -2.00588 0
M  V30 28789 C 3284.51 1.58281 -1.01631 0
M  V30 28790 O 3283.87 1.81298 0.00943748 0
M  V30 28791 C 3283.92 1.11378 -3.42969 0
M  V30 28792 O 3283.02 2.22892 -3.46977 0
M  V30 28793 H 3282.36 0.129965 -0.651157 0
M  V30 28794 H 3284.89 -0.230703 -2.03295 0
M  V30 28795 H 3284.9 1.44492 -3.81557 0
M  V30 28796 H 3283.58 0.340663 -4.14502 0
M  V30 28797 H 3282.15 1.91082 -3.20222 0
M  V30 28798 N 3284.34 1.57005 0.136853 0
M  V30 28799 C 3285.58 1.84173 0.848999 0
M  V30 28800 C 3285.92 0.720059 1.80357 0
M  V30 28801 O 3285.19 -0.27555 1.92538 0
M  V30 28802 C 3285.48 3.21874 1.61459 0
M  V30 28803 C 3285.33 4.44618 0.680824 0
M  V30 28804 C 3286.65 3.56919 2.57482 0
M  V30 28805 H 3283.77 0.669925 0.307197 0
M  V30 28806 H 3286.41 1.89659 0.113828 0
M  V30 28807 H 3284.56 3.17329 2.24131 0
M  V30 28808 H 3286.23 4.61255 0.0643284 0
M  V30 28809 H 3284.47 4.33799 -0.00891254 0
M  V30 28810 H 3285.14 5.37596 1.25277 0
M  V30 28811 H 3287.62 3.6214 2.04924 0
M  V30 28812 H 3286.5 4.5428 3.08093 0
M  V30 28813 H 3286.76 2.83403 3.39316 0
M  V30 28814 N 3285.82 -0.406513 1.52267 0
M  V30 28815 C 3287.06 -1.15322 1.66454 0
M  V30 28816 C 3287.39 -1.90431 0.395761 0
M  V30 28817 O 3286.65 -1.85574 -0.621349 0
M  V30 28818 C 3286.95 -2.17115 2.83894 0
M  V30 28819 C 3286.61 -1.58794 4.22013 0
M  V30 28820 C 3285.27 -1.42613 4.59581 0
M  V30 28821 C 3287.63 -1.16227 5.08076 0
M  V30 28822 C 3284.95 -0.823865 5.80887 0
M  V30 28823 C 3287.31 -0.574173 6.29989 0
M  V30 28824 C 3285.97 -0.399521 6.66303 0
M  V30 28825 H 3285.24 -0.421994 0.609099 0
M  V30 28826 H 3287.89 -0.440099 1.86374 0
M  V30 28827 H 3286.19 -2.94581 2.5832 0
M  V30 28828 H 3287.89 -2.74768 2.92067 0
M  V30 28829 H 3284.48 -1.72371 3.92411 0
M  V30 28830 H 3288.66 -1.27536 4.79633 0
M  V30 28831 H 3283.92 -0.676588 6.07645 0
M  V30 28832 H 3288.09 -0.235959 6.96 0
M  V30 28833 H 3285.72 0.0692598 7.60168 0
M  V30 28834 N 3287.29 -1.42934 -0.663904 0
M  V30 28835 C 3288.54 -1.43699 -1.42109 0
M  V30 28836 C 3288.86 -0.0584201 -1.94912 0
M  V30 28837 O 3288.13 0.904689 -1.73759 0
M  V30 28838 H 3286.71 -0.529035 -0.527381 0
M  V30 28839 H 3289.38 -1.78448 -0.783735 0
M  V30 28840 H 3288.47 -2.14324 -2.26873 0
M  V30 28841 N 3288.77 0.901258 -1.29287 0
M  V30 28842 C 3289.7 2.0103 -1.10089 0
M  V30 28843 C 3290.72 1.62727 -0.048865 0
M  V30 28844 O 3291.91 1.76075 -0.293225 0
M  V30 28845 C 3289.01 3.32541 -0.653416 0
M  V30 28846 C 3288.18 3.99382 -1.78362 0
M  V30 28847 C 3287.24 5.09182 -1.32742 0
M  V30 28848 O 3286.26 5.31699 -2.03186 0
M  V30 28849 N 3287.47 5.80164 -0.197447 0
M  V30 28850 H 3290.23 2.18053 -2.05603 0
M  V30 28851 H 3287.79 1.07335 -1.21206 0
M  V30 28852 H 3289.78 4.0334 -0.331562 0
M  V30 28853 H 3288.35 3.11899 0.209223 0
M  V30 28854 H 3287.57 3.21968 -2.27443 0
M  V30 28855 H 3288.86 4.40781 -2.54145 0
M  V30 28856 H 3288.26 5.64355 0.389911 0
M  V30 28857 H 3286.82 6.51768 0.0650496 0
M  V30 28858 N 3290.25 1.11738 1.11141 0
M  V30 28859 C 3291.2 0.747604 2.15395 0
M  V30 28860 C 3292.18 -0.249866 1.58948 0
M  V30 28861 O 3293.38 -0.0564956 1.7691 0
M  V30 28862 C 3290.51 0.195836 3.42741 0
M  V30 28863 C 3289.59 1.22116 4.06139 0
M  V30 28864 N 3289.98 2.41639 4.44347 0
M  V30 28865 C 3288.28 1.06482 4.33102 0
M  V30 28866 C 3288.98 3.07055 4.94057 0
M  V30 28867 N 3287.96 2.34525 4.90407 0
M  V30 28868 H 3291.76 1.65724 2.42719 0
M  V30 28869 H 3289.27 0.997082 1.28188 0
M  V30 28870 H 3291.27 -0.0872251 4.16809 0
M  V30 28871 H 3289.93 -0.70835 3.16879 0
M  V30 28872 H 3290.94 2.79073 4.36279 0
M  V30 28873 H 3287.62 0.21732 4.16934 0
M  V30 28874 H 3289.01 4.08802 5.33227 0
M  V30 28875 N 3291.73 -1.28802 0.90817 0
M  V30 28876 C 3292.64 -2.31213 0.397208 0
M  V30 28877 C 3293.65 -1.66287 -0.512322 0
M  V30 28878 O 3294.83 -1.97391 -0.399859 0
M  V30 28879 C 3291.9 -3.44832 -0.359462 0
M  V30 28880 C 3290.96 -4.25328 0.582613 0
M  V30 28881 C 3290.19 -5.33521 -0.13804 0
M  V30 28882 O 3290.41 -5.53933 -1.36066 0
M  V30 28883 O 3289.35 -5.99617 0.523787 0
M  V30 28884 H 3293.17 -2.76916 1.24705 0
M  V30 28885 H 3290.76 -1.33394 0.67279 0
M  V30 28886 H 3292.64 -4.13985 -0.787025 0
M  V30 28887 H 3291.31 -3.01221 -1.18523 0
M  V30 28888 H 3290.22 -3.58784 1.05946 0
M  V30 28889 H 3291.55 -4.72603 1.37503 0
M  V30 28890 N 3293.21 -0.67155 -1.42576 0
M  V30 28891 C 3294.43 -0.199188 -2.06441 0
M  V30 28892 C 3294.86 1.13357 -1.50106 0
M  V30 28893 O 3294.21 1.70433 -0.618241 0
M  V30 28894 C 3294.26 -0.141279 -3.60323 0
M  V30 28895 O 3293.37 0.891168 -4.02656 0
M  V30 28896 H 3292.71 -0.103288 -0.655917 0
M  V30 28897 H 3295.24 -0.919646 -1.82767 0
M  V30 28898 H 3295.25 0.0359492 -4.07984 0
M  V30 28899 H 3293.92 -1.1141 -4.007 0
M  V30 28900 H 3292.5 0.685245 -3.6655 0
M  V30 28901 N 3294.68 1.52047 -0.414663 0
M  V30 28902 C 3295.93 2.01474 0.158999 0
M  V30 28903 C 3296.25 1.30191 1.45173 0
M  V30 28904 O 3295.52 0.429503 1.91134 0
M  V30 28905 H 3294.1 0.744444 0.0617473 0
M  V30 28906 H 3296.77 1.86915 -0.552174 0
M  V30 28907 H 3295.86 3.10118 0.351163 0
M  V30 28908 N 3296.16 0.145261 1.56929 0
M  V30 28909 C 3297.39 -0.516528 2.00865 0
M  V30 28910 C 3297.81 -1.5774 1.02469 0
M  V30 28911 O 3297.17 -1.813 0.000177307 0
M  V30 28912 C 3297.22 -1.09557 3.43554 0
M  V30 28913 O 3296.32 -2.21049 3.48154 0
M  V30 28914 H 3295.66 -0.12651 0.651837 0
M  V30 28915 H 3298.19 0.241481 2.0317 0
M  V30 28916 H 3298.2 -1.42466 3.82318 0
M  V30 28917 H 3296.88 -0.318677 4.14677 0
M  V30 28918 H 3295.46 -1.89381 3.21231 0
M  V30 28919 N 3297.64 -1.57075 -0.128525 0
M  V30 28920 C 3298.89 -1.83984 -0.836323 0
M  V30 28921 C 3299.21 -0.729003 -1.80861 0
M  V30 28922 O 3298.48 0.247825 -1.94326 0
M  V30 28923 H 3297.06 -0.678797 -0.311838 0
M  V30 28924 H 3299.72 -1.94542 -0.118119 0
M  V30 28925 H 3298.82 -2.79569 -1.38736 0
M  V30 28926 N 3299.12 0.398432 -1.5248 0
M  V30 28927 C 3300.07 1.48546 -1.72968 0
M  V30 28928 C 3301.05 1.49941 -0.583655 0
M  V30 28929 O 3302.25 1.55737 -0.841134 0
M  V30 28930 C 3299.37 2.86363 -1.89344 0
M  V30 28931 C 3298.46 2.89575 -3.0985 0
M  V30 28932 N 3298.85 2.62469 -4.3237 0
M  V30 28933 C 3297.15 3.20743 -3.09903 0
M  V30 28934 C 3297.85 2.72523 -5.13912 0
M  V30 28935 N 3296.83 3.05856 -4.49392 0
M  V30 28936 H 3300.63 1.26402 -2.6533 0
M  V30 28937 H 3298.14 0.606273 -1.50659 0
M  V30 28938 H 3300.14 3.64616 -2.02141 0
M  V30 28939 H 3298.8 3.09498 -0.981896 0
M  V30 28940 H 3299.81 2.36665 -4.60663 0
M  V30 28941 H 3296.49 3.49404 -2.28524 0
M  V30 28942 H 3297.88 2.55191 -6.21552 0
M  V30 28943 N 3300.6 1.43284 0.656314 0
M  V30 28944 C 3301.82 1.48384 1.44903 0
M  V30 28945 C 3302.25 0.102026 1.87823 0
M  V30 28946 O 3301.61 -0.903569 1.57179 0
M  V30 28947 C 3301.65 2.43219 2.66227 0
M  V30 28948 O 3300.76 1.91632 3.65173 0
M  V30 28949 H 3300.1 0.502022 0.434592 0
M  V30 28950 H 3302.63 1.88167 0.803396 0
M  V30 28951 H 3302.64 2.6042 3.14079 0
M  V30 28952 H 3301.31 3.43602 2.3433 0
M  V30 28953 H 3299.89 1.84077 3.24299 0
M  V30 28954 N 3302.08 -0.894389 1.29763 0
M  V30 28955 C 3303.3 -1.68397 1.21067 0
M  V30 28956 C 3303.73 -1.86755 -0.224575 0
M  V30 28957 O 3303.08 -1.3917 -1.16196 0
M  V30 28958 C 3303.13 -3.04303 1.93474 0
M  V30 28959 O 3302.24 -3.92827 1.2554 0
M  V30 28960 H 3301.58 -0.514918 0.419232 0
M  V30 28961 H 3304.11 -1.11693 1.71423 0
M  V30 28962 H 3304.12 -3.5441 2.02133 0
M  V30 28963 H 3302.79 -2.9026 2.97862 0
M  V30 28964 H 3301.37 -3.51263 1.25174 0
M  V30 28965 N 3303.55 -1.12326 -1.10547 0
M  V30 28966 C 3304.52 -0.793193 -2.15037 0
M  V30 28967 C 3305.52 0.191891 -1.59651 0
M  V30 28968 O 3306.71 -0.0337569 -1.74167 0
M  V30 28969 C 3303.84 -0.17848 -3.40432 0
M  V30 28970 H 3305.03 -1.71896 -2.45747 0
M  V30 28971 H 3302.58 -0.926355 -1.2589 0
M  V30 28972 H 3303.32 0.757067 -3.15339 0
M  V30 28973 H 3303.1 -0.887712 -3.81919 0
M  V30 28974 H 3304.59 0.035999 -4.17584 0
M  V30 28975 N 3305.03 1.28319 -0.914988 0
M  V30 28976 C 3306.26 1.98756 -0.56387 0
M  V30 28977 C 3306.67 1.6855 0.859498 0
M  V30 28978 O 3306.01 0.935364 1.58103 0
M  V30 28979 C 3306.07 3.52726 -0.694601 0
M  V30 28980 C 3305.74 4.06525 -2.08774 0
M  V30 28981 C 3306.74 4.20266 -3.06059 0
M  V30 28982 C 3304.42 4.41186 -2.40126 0
M  V30 28983 C 3306.41 4.67924 -4.32812 0
M  V30 28984 C 3304.1 4.88537 -3.67117 0
M  V30 28985 C 3305.1 5.01863 -4.63273 0
M  V30 28986 O 3304.79 5.48181 -5.88007 0
M  V30 28987 H 3304.52 0.641377 -0.213568 0
M  V30 28988 H 3307.07 1.64451 -1.23065 0
M  V30 28989 H 3305.3 3.86689 0.0292506 0
M  V30 28990 H 3306.99 4.04385 -0.350406 0
M  V30 28991 H 3307.76 3.93761 -2.83157 0
M  V30 28992 H 3303.64 4.30063 -1.66032 0
M  V30 28993 H 3307.18 4.78241 -5.0787 0
M  V30 28994 H 3303.08 5.14483 -3.89844 0
M  V30 28995 H 3303.85 5.66464 -5.90814 0
M  V30 28996 N 3306.51 0.679102 1.42218 0
M  V30 28997 C 3307.73 0.210133 2.06333 0
M  V30 28998 C 3308.16 -1.1256 1.50705 0
M  V30 28999 O 3307.52 -1.70103 0.627271 0
M  V30 29000 C 3307.57 0.160386 3.60243 0
M  V30 29001 O 3306.67 -0.869801 4.03123 0
M  V30 29002 H 3306.01 0.106765 0.65536 0
M  V30 29003 H 3308.54 0.929326 1.82276 0
M  V30 29004 H 3308.55 -0.0143123 4.07997 0
M  V30 29005 H 3307.23 1.13533 4.00104 0
M  V30 29006 H 3305.8 -0.665796 3.66908 0
M  V30 29007 N 3307.99 -1.51825 0.42272 0
M  V30 29008 C 3308.92 -2.25099 -0.43163 0
M  V30 29009 C 3309.93 -1.28566 -0.998735 0
M  V30 29010 O 3311.12 -1.5442 -0.895363 0
M  V30 29011 C 3308.22 -2.97987 -1.61421 0
M  V30 29012 C 3307.39 -4.21501 -1.16859 0
M  V30 29013 C 3306.45 -4.77095 -2.21962 0
M  V30 29014 O 3305.48 -5.39321 -1.81994 0
M  V30 29015 N 3306.68 -4.59851 -3.54285 0
M  V30 29016 H 3309.45 -2.99056 0.196308 0
M  V30 29017 H 3307.01 -1.59945 0.250819 0
M  V30 29018 H 3309 -3.3207 -2.31326 0
M  V30 29019 H 3307.57 -2.27132 -2.14779 0
M  V30 29020 H 3306.79 -3.93078 -0.297148 0
M  V30 29021 H 3308.08 -5.01683 -0.848018 0
M  V30 29022 H 3307.48 -4.10253 -3.89498 0
M  V30 29023 H 3306.03 -4.98334 -4.20126 0
M  V30 29024 N 3309.47 -0.153581 -1.5685 0
M  V30 29025 C 3310.42 0.795488 -2.13673 0
M  V30 29026 C 3311.4 1.20497 -1.06626 0
M  V30 29027 O 3312.59 1.17029 -1.3279 0
M  V30 29028 C 3309.72 2.03194 -2.76708 0
M  V30 29029 C 3308.81 1.64525 -3.90886 0
M  V30 29030 N 3309.2 0.967143 -4.96468 0
M  V30 29031 C 3307.5 1.93752 -4.01717 0
M  V30 29032 C 3308.2 0.779426 -5.76455 0
M  V30 29033 N 3307.17 1.31535 -5.27446 0
M  V30 29034 H 3310.97 0.268237 -2.92673 0
M  V30 29035 H 3308.49 0.047731 -1.6233 0
M  V30 29036 H 3310.49 2.7219 -3.15782 0
M  V30 29037 H 3309.15 2.56431 -1.99182 0
M  V30 29038 H 3310.16 0.627163 -5.14089 0
M  V30 29039 H 3306.83 2.48791 -3.35275 0
M  V30 29040 H 3308.22 0.244486 -6.71455 0
M  V30 29041 N 3310.94 1.57141 0.120193 0
M  V30 29042 C 3312.19 1.84425 0.826554 0
M  V30 29043 C 3312.51 0.738584 1.80471 0
M  V30 29044 O 3311.78 -0.237516 1.94455 0
M  V30 29045 H 3310.36 0.680442 0.308234 0
M  V30 29046 H 3313.02 1.94602 0.107801 0
M  V30 29047 H 3312.12 2.80301 1.37251 0
M  V30 29048 N 3312.42 -0.39034 1.5269 0
M  V30 29049 C 3313.65 -1.16126 1.71841 0
M  V30 29050 C 3314.07 -1.82995 0.435258 0
M  V30 29051 O 3313.43 -1.70771 -0.60886 0
M  V30 29052 C 3313.48 -2.18598 2.86788 0
M  V30 29053 O 3312.58 -3.25156 2.53668 0
M  V30 29054 H 3311.92 -0.338125 0.571461 0
M  V30 29055 H 3314.45 -0.455045 1.99476 0
M  V30 29056 H 3314.46 -2.62617 3.12244 0
M  V30 29057 H 3313.14 -1.69315 3.79875 0
M  V30 29058 H 3311.72 -2.86285 2.38947 0
M  V30 29059 N 3313.9 -1.4363 -0.648706 0
M  V30 29060 C 3315.15 -1.45199 -1.40577 0
M  V30 29061 C 3315.47 -0.0790899 -1.9484 0
M  V30 29062 O 3314.74 0.886208 -1.74709 0
M  V30 29063 H 3313.32 -0.534599 -0.521741 0
M  V30 29064 H 3315.98 -1.79269 -0.764764 0
M  V30 29065 H 3315.08 -2.16719 -2.24587 0
M  V30 29066 N 3315.38 0.887495 -1.30236 0
M  V30 29067 C 3316.6 1.67753 -1.21958 0
M  V30 29068 C 3317.03 1.86871 0.214668 0
M  V30 29069 O 3316.39 1.39784 1.15456 0
M  V30 29070 C 3316.43 3.03273 -1.95085 0
M  V30 29071 O 3315.54 3.92156 -1.27622 0
M  V30 29072 H 3314.88 0.512687 -0.421957 0
M  V30 29073 H 3317.41 1.10782 -1.72013 0
M  V30 29074 H 3317.42 3.53333 -2.0401 0
M  V30 29075 H 3316.09 2.88676 -2.99397 0
M  V30 29076 H 3314.67 3.50595 -1.27035 0
M  V30 29077 N 3316.86 1.12911 1.0995 0
M  V30 29078 C 3318.1 0.885761 1.81655 0
M  V30 29079 C 3318.43 -0.58988 1.85864 0
M  V30 29080 O 3317.7 -1.42872 1.34031 0
M  V30 29081 H 3316.28 0.324706 0.672737 0
M  V30 29082 H 3318.94 1.42458 1.3301 0
M  V30 29083 H 3318.03 1.27172 2.85015 0
M  V30 29084 N 3318.33 -1.27832 0.92178 0
M  V30 29085 C 3319.28 -2.24685 0.387396 0
M  V30 29086 C 3320.27 -1.52769 -0.505009 0
M  V30 29087 O 3321.46 -1.73636 -0.34342 0
M  V30 29088 C 3318.59 -3.41364 -0.364108 0
M  V30 29089 C 3317.68 -4.2059 0.544475 0
M  V30 29090 N 3318.07 -4.77726 1.66167 0
M  V30 29091 C 3316.36 -4.44653 0.346367 0
M  V30 29092 C 3317.07 -5.37412 2.22628 0
M  V30 29093 N 3316.04 -5.22016 1.51657 0
M  V30 29094 H 3319.84 -2.66438 1.24049 0
M  V30 29095 H 3317.36 -1.42695 0.775363 0
M  V30 29096 H 3319.35 -4.09843 -0.763844 0
M  V30 29097 H 3318.01 -3.01143 -1.21421 0
M  V30 29098 H 3319.03 -4.75852 2.04414 0
M  V30 29099 H 3315.7 -4.14919 -0.463557 0
M  V30 29100 H 3317.09 -5.92606 3.16652 0
M  V30 29101 N 3319.81 -0.686634 -1.41856 0
M  V30 29102 C 3321.06 -0.213836 -2.01368 0
M  V30 29103 C 3321.39 1.18359 -1.54342 0
M  V30 29104 O 3320.64 1.81109 -0.741479 0
M  V30 29105 C 3320.94 -0.210014 -3.56782 0
M  V30 29106 C 3320.61 -1.55373 -4.23285 0
M  V30 29107 C 3319.27 -1.92162 -4.41166 0
M  V30 29108 C 3321.62 -2.43815 -4.60656 0
M  V30 29109 C 3318.95 -3.16995 -4.93691 0
M  V30 29110 C 3321.3 -3.67972 -5.14567 0
M  V30 29111 C 3319.97 -4.04915 -5.3066 0
M  V30 29112 H 3319.24 -0.0782482 -0.736857 0
M  V30 29113 H 3321.88 -0.883959 -1.69878 0
M  V30 29114 H 3320.19 0.543644 -3.8801 0
M  V30 29115 H 3321.88 0.173197 -4.00626 0
M  V30 29116 H 3318.47 -1.25757 -4.09735 0
M  V30 29117 H 3322.66 -2.16675 -4.46504 0
M  V30 29118 H 3317.91 -3.45624 -5.04335 0
M  V30 29119 H 3322.09 -4.36697 -5.42466 0
M  V30 29120 H 3319.72 -5.01719 -5.71124 0
M  V30 29121 N 3321.29 1.51599 -0.430766 0
M  V30 29122 C 3322.53 2.03939 0.137148 0
M  V30 29123 C 3322.89 1.30825 1.4053 0
M  V30 29124 O 3324.1 1.73504 2.05304 0
M  V30 29125 C 3322.37 3.55609 0.357332 0
M  V30 29126 S 3323.93 4.29688 0.889593 0
M  V30 29127 H 3320.74 0.710141 0.0349304 0
M  V30 29128 H 3323.35 1.86427 -0.588661 0
M  V30 29129 H 3322.05 4.06393 -0.572082 0
M  V30 29130 H 3321.58 3.77404 1.11041 0
M  V30 29131 H 3323.6 4.46337 2.16789 0
M  V30 29132 N 3322.77 0.161897 1.56766 0
M  V30 29133 C 3323.99 -0.495195 2.01402 0
M  V30 29134 C 3324.42 -1.56644 1.04136 0
M  V30 29135 O 3323.78 -1.8129 0.0194066 0
M  V30 29136 C 3323.82 -1.05907 3.44697 0
M  V30 29137 O 3322.93 -2.17344 3.50479 0
M  V30 29138 H 3322.27 -0.119589 0.653142 0
M  V30 29139 H 3324.8 0.263016 2.02902 0
M  V30 29140 H 3324.81 -1.38403 3.83808 0
M  V30 29141 H 3323.48 -0.274677 4.14992 0
M  V30 29142 H 3322.06 -1.85963 3.23221 0
M  V30 29143 N 3324.25 -1.57203 -0.111858 0
M  V30 29144 C 3325.18 -1.97519 -1.16271 0
M  V30 29145 C 3326.19 -0.87545 -1.37258 0
M  V30 29146 O 3327.38 -1.15369 -1.36206 0
M  V30 29147 C 3324.48 -2.26446 -2.52141 0
M  V30 29148 C 3323.65 -3.57752 -2.51659 0
M  V30 29149 C 3322.71 -3.74809 -3.6933 0
M  V30 29150 O 3321.74 -4.46845 -3.52588 0
M  V30 29151 N 3322.94 -3.14116 -4.88171 0
M  V30 29152 H 3325.71 -2.88273 -0.819696 0
M  V30 29153 H 3323.27 -1.59076 -0.301048 0
M  V30 29154 H 3325.26 -2.35066 -3.29433 0
M  V30 29155 H 3323.83 -1.41784 -2.78596 0
M  V30 29156 H 3323.05 -3.60255 -1.60032 0
M  V30 29157 H 3324.34 -4.44044 -2.484 0
M  V30 29158 H 3323.73 -2.55573 -5.04677 0
M  V30 29159 H 3322.29 -3.28246 -5.63114 0
M  V30 29160 N 3325.72 0.382237 -1.52894 0
M  V30 29161 C 3326.97 1.12437 -1.67935 0
M  V30 29162 C 3327.29 1.90308 -0.425199 0
M  V30 29163 O 3326.56 1.8771 0.560524 0
M  V30 29164 H 3325.14 0.418068 -0.619054 0
M  V30 29165 H 3327.81 0.432895 -1.90032 0
M  V30 29166 H 3326.9 1.8235 -2.53288 0
M  V30 29167 N 3327.2 1.43972 0.64108 0
M  V30 29168 C 3328.14 1.46049 1.76642 0
M  V30 29169 C 3329.15 0.355077 1.58881 0
M  V30 29170 O 3330.34 0.620237 1.67378 0
M  V30 29171 C 3327.44 1.26923 3.14235 0
M  V30 29172 C 3326.61 2.50527 3.58546 0
M  V30 29173 C 3325.67 2.26447 4.74982 0
M  V30 29174 O 3324.7 2.99875 4.83801 0
M  V30 29175 N 3325.9 1.28876 5.66014 0
M  V30 29176 H 3328.66 2.43059 1.75335 0
M  V30 29177 H 3326.22 1.39284 0.825325 0
M  V30 29178 H 3328.22 1.08677 3.89835 0
M  V30 29179 H 3326.79 0.383136 3.10243 0
M  V30 29180 H 3326.01 2.84117 2.7326 0
M  V30 29181 H 3327.29 3.3276 3.849 0
M  V30 29182 H 3326.69 0.682117 5.61572 0
M  V30 29183 H 3325.25 1.1661 6.41284 0
M  V30 29184 N 3328.68 -0.880575 1.30704 0
M  V30 29185 C 3329.63 -1.97416 1.14065 0
M  V30 29186 C 3330.62 -1.60807 0.0545823 0
M  V30 29187 O 3331.81 -1.74797 0.278375 0
M  V30 29188 C 3328.94 -3.32887 0.839121 0
M  V30 29189 C 3328.02 -3.75796 1.96566 0
M  V30 29190 N 3328.41 -3.90762 3.21152 0
M  V30 29191 C 3326.71 -4.05226 1.86301 0
M  V30 29192 C 3327.41 -4.27234 3.94774 0
M  V30 29193 N 3326.39 -4.37337 3.22858 0
M  V30 29194 H 3330.19 -2.07083 2.08551 0
M  V30 29195 H 3327.7 -1.07068 1.22108 0
M  V30 29196 H 3329.7 -4.10966 0.700923 0
M  V30 29197 H 3328.36 -3.24553 -0.0976237 0
M  V30 29198 H 3329.37 -3.75774 3.5639 0
M  V30 29199 H 3326.05 -4.05341 1.00023 0
M  V30 29200 H 3327.44 -4.46499 5.02084 0
M  V30 29201 N 3330.16 -1.13492 -1.09349 0
M  V30 29202 C 3331.41 -0.895382 -1.81183 0
M  V30 29203 C 3331.73 0.580015 -1.86174 0
M  V30 29204 O 3331 1.4216 -1.34787 0
M  V30 29205 H 3329.58 -0.328269 -0.671006 0
M  V30 29206 H 3332.24 -1.43162 -1.32253 0
M  V30 29207 H 3331.34 -1.28681 -2.84337 0
M  V30 29208 N 3331.64 1.27341 -0.928546 0
M  V30 29209 C 3332.86 1.98973 -0.585195 0
M  V30 29210 C 3333.29 1.68801 0.829935 0
M  V30 29211 O 3332.65 0.928765 1.55704 0
M  V30 29212 C 3332.69 3.51183 -0.818724 0
M  V30 29213 O 3331.8 4.12239 0.115283 0
M  V30 29214 H 3331.14 0.62464 -0.225214 0
M  V30 29215 H 3333.67 1.62128 -1.24803 0
M  V30 29216 H 3333.68 4.01332 -0.734624 0
M  V30 29217 H 3332.35 3.72476 -1.85026 0
M  V30 29218 H 3330.93 3.72895 -0.0188026 0
M  V30 29219 N 3333.12 0.694147 1.4149 0
M  V30 29220 C 3334.34 0.233503 2.05578 0
M  V30 29221 C 3334.76 -1.11673 1.52232 0
M  V30 29222 O 3334.12 -1.69758 0.669967 0
M  V30 29223 C 3334.17 0.181031 3.61046 0
M  V30 29224 O 3333.89 1.47792 4.12419 0
M  V30 29225 C 3335.39 -0.300776 4.42278 0
M  V30 29226 H 3332.61 0.108955 0.662095 0
M  V30 29227 H 3335.15 0.946331 1.81287 0
M  V30 29228 H 3333.31 -0.482611 3.84382 0
M  V30 29229 H 3333.72 1.36409 5.06451 0
M  V30 29230 H 3335.2 -0.286367 5.51257 0
M  V30 29231 H 3335.67 -1.33941 4.18278 0
M  V30 29232 H 3336.28 0.331816 4.24004 0
M  V30 29233 N 3334.59 -1.51368 0.438799 0
M  V30 29234 C 3335.82 -2.07003 -0.128185 0
M  V30 29235 C 3336.24 -1.30395 -1.35568 0
M  V30 29236 O 3335.6 -0.342314 -1.78039 0
M  V30 29237 C 3335.65 -3.58056 -0.427547 0
M  V30 29238 O 3334.75 -3.83614 -1.51375 0
M  V30 29239 H 3334.09 -0.663999 -0.00122511 0
M  V30 29240 H 3336.62 -1.94962 0.620554 0
M  V30 29241 H 3336.63 -4.02334 -0.677574 0
M  V30 29242 H 3335.31 -4.1324 0.469608 0
M  V30 29243 H 3333.89 -3.51198 -1.25357 0
M  V30 29244 N 3336.07 -0.170208 -1.56678 0
M  V30 29245 C 3337.32 0.474091 -1.96461 0
M  V30 29246 C 3337.64 1.63853 -1.05722 0
M  V30 29247 O 3336.91 1.95511 -0.12335 0
M  V30 29248 H 3335.49 0.178136 -0.725449 0
M  V30 29249 H 3338.15 -0.251133 -1.93275 0
M  V30 29250 H 3337.25 0.834841 -3.00727 0
M  V30 29251 N 3337.55 1.5726 0.10352 0
M  V30 29252 C 3338.48 1.98133 1.15221 0
M  V30 29253 C 3339.49 0.882716 1.36792 0
M  V30 29254 O 3340.68 1.1609 1.35593 0
M  V30 29255 C 3337.78 2.2778 2.50937 0
M  V30 29256 C 3336.96 3.59081 2.49759 0
M  V30 29257 C 3336.02 3.76762 3.67337 0
M  V30 29258 O 3335.04 4.48708 3.50213 0
M  V30 29259 N 3336.24 3.16701 4.86499 0
M  V30 29260 H 3339.01 2.88703 0.804397 0
M  V30 29261 H 3336.57 1.59234 0.292608 0
M  V30 29262 H 3338.56 2.3681 3.28182 0
M  V30 29263 H 3337.13 1.4326 2.77841 0
M  V30 29264 H 3336.35 3.61098 1.58119 0
M  V30 29265 H 3337.64 4.45355 2.46042 0
M  V30 29266 H 3337.04 2.58245 5.03315 0
M  V30 29267 H 3335.59 3.31228 5.61365 0
M  V30 29268 N 3339.03 -0.374123 1.53095 0
M  V30 29269 C 3340.25 -1.14297 1.73063 0
M  V30 29270 C 3340.68 -1.82523 0.454643 0
M  V30 29271 O 3340.04 -1.71407 -0.590713 0
M  V30 29272 C 3340.08 -2.15544 2.8909 0
M  V30 29273 O 3339.19 -3.22447 2.57102 0
M  V30 29274 H 3338.53 -0.332044 0.575015 0
M  V30 29275 H 3341.06 -0.433862 1.99947 0
M  V30 29276 H 3341.07 -2.5929 3.15012 0
M  V30 29277 H 3339.74 -1.65276 3.8165 0
M  V30 29278 H 3338.32 -2.83734 2.4197 0
M  V30 29279 N 3340.51 -1.4431 -0.633436 0
M  V30 29280 C 3341.73 -1.50671 -1.42524 0
M  V30 29281 C 3342.16 -0.131894 -1.87637 0
M  V30 29282 O 3341.51 0.878449 -1.58597 0
M  V30 29283 C 3341.56 -2.47424 -2.62324 0
M  V30 29284 O 3340.67 -1.97417 -3.62078 0
M  V30 29285 H 3340.01 -0.508872 -0.426551 0
M  V30 29286 H 3342.54 -1.89421 -0.773359 0
M  V30 29287 H 3342.55 -2.65384 -3.09896 0
M  V30 29288 H 3341.22 -3.47287 -2.28834 0
M  V30 29289 H 3339.8 -1.89213 -3.2133 0
M  V30 29290 N 3341.98 0.873632 -1.3117 0
M  V30 29291 C 3343.21 1.65925 -1.23598 0
M  V30 29292 C 3343.63 1.87745 0.199316 0
M  V30 29293 O 3342.98 1.433 1.1301 0
M  V30 29294 C 3343.04 3.02928 -1.97273 0
M  V30 29295 O 3342.76 2.82085 -3.35201 0
M  V30 29296 C 3344.26 3.97371 -1.96497 0
M  V30 29297 H 3341.48 0.517407 -0.427237 0
M  V30 29298 H 3344.02 1.09071 -1.72985 0
M  V30 29299 H 3342.18 3.56481 -1.51657 0
M  V30 29300 H 3342.59 3.6908 -3.72666 0
M  V30 29301 H 3344.06 4.90831 -2.52565 0
M  V30 29302 H 3344.54 4.28878 -0.946601 0
M  V30 29303 H 3345.15 3.49754 -2.41976 0
M  V30 29304 N 3343.46 1.1407 1.08746 0
M  V30 29305 C 3344.71 0.906769 1.81063 0
M  V30 29306 C 3345.04 -0.566812 1.86058 0
M  V30 29307 O 3344.29 -1.4358 1.32979 0
M  V30 29308 C 3344.59 1.44848 3.26732 0
M  V30 29309 C 3344.26 2.94011 3.4186 0
M  V30 29310 C 3342.92 3.34735 3.45697 0
M  V30 29311 C 3345.27 3.89943 3.45824 0
M  V30 29312 C 3342.6 4.70061 3.51083 0
M  V30 29313 C 3344.95 5.25122 3.52746 0
M  V30 29314 C 3343.62 5.65363 3.54854 0
M  V30 29315 H 3342.89 0.33181 0.662558 0
M  V30 29316 H 3345.53 1.4238 1.28063 0
M  V30 29317 H 3343.84 0.852306 3.82417 0
M  V30 29318 H 3345.53 1.24347 3.81233 0
M  V30 29319 H 3342.12 2.61524 3.39563 0
M  V30 29320 H 3346.31 3.59563 3.42094 0
M  V30 29321 H 3341.56 5.00604 3.51006 0
M  V30 29322 H 3345.74 5.99266 3.54758 0
M  V30 29323 H 3343.37 6.70209 3.5878 0
M  V30 29324 N 3344.94 -1.26847 0.935286 0
M  V30 29325 C 3346.22 -1.89159 0.49783 0
M  V30 29326 C 3346.6 -1.8458 -1.02437 0
M  V30 29327 O 3345.95 -1.29613 -1.88183 0
M  V30 29328 C 3346.16 -3.32751 1.0525 0
M  V30 29329 C 3347.5 -4.09628 1.11758 0
M  V30 29330 O 3348.53 -3.41797 1.00266 0
M  V30 29331 O 3347.39 -5.30921 1.29557 0
M  V30 29332 H 3344.48 -0.81111 0.161336 0
M  V30 29333 H 3347.03 -1.3506 1.02747 0
M  V30 29334 H 3345.8 -3.30415 2.09622 0
M  V30 29335 H 3345.42 -3.9438 0.504959 0
M  V30 29336 N 3346.42 -0.701641 -1.4112 0
M  V30 29337 C 3347.35 -0.00092113 -2.292 0
M  V30 29338 C 3348.36 0.738167 -1.45103 0
M  V30 29339 O 3349.55 0.587861 -1.68542 0
M  V30 29340 C 3346.65 1.02286 -3.23096 0
M  V30 29341 C 3345.83 0.352155 -4.3598 0
M  V30 29342 C 3344.88 1.27938 -5.1041 0
M  V30 29343 O 3343.91 0.769461 -5.63975 0
M  V30 29344 N 3345.11 2.61138 -5.18447 0
M  V30 29345 H 3347.88 -0.757145 -2.89978 0
M  V30 29346 H 3345.44 -0.548153 -1.52338 0
M  V30 29347 H 3347.43 1.64502 -3.69758 0
M  V30 29348 H 3346 1.68056 -2.63583 0
M  V30 29349 H 3345.22 -0.449989 -3.91623 0
M  V30 29350 H 3346.51 -0.113971 -5.08672 0
M  V30 29351 H 3345.91 3.05078 -4.76386 0
M  V30 29352 H 3344.46 3.18534 -5.68664 0
M  V30 29353 N 3347.9 1.51133 -0.446821 0
M  V30 29354 C 3348.81 2.31731 0.365749 0
M  V30 29355 C 3349.82 1.41052 1.01883 0
M  V30 29356 O 3351 1.7412 1.01213 0
M  V30 29357 C 3348.06 3.1506 1.447 0
M  V30 29358 C 3347.12 4.2153 0.813055 0
M  V30 29359 C 3346.36 5.00876 1.84278 0
M  V30 29360 O 3346.58 4.80976 3.06625 0
M  V30 29361 O 3345.51 5.84714 1.42805 0
M  V30 29362 H 3349.34 3.02288 -0.29249 0
M  V30 29363 H 3346.93 1.47929 -0.209155 0
M  V30 29364 H 3348.81 3.66836 2.07386 0
M  V30 29365 H 3347.48 2.47258 2.08915 0
M  V30 29366 H 3346.39 3.73808 0.147887 0
M  V30 29367 H 3347.72 4.91733 0.214245 0
M  V30 29368 N 3349.37 0.178515 1.56586 0
M  V30 29369 C 3350.62 -0.463665 1.96709 0
M  V30 29370 C 3350.94 -1.6329 1.06589 0
M  V30 29371 O 3350.21 -1.95443 0.133717 0
M  V30 29372 H 3348.79 -0.174286 0.726384 0
M  V30 29373 H 3351.46 0.261379 1.93139 0
M  V30 29374 H 3350.55 -0.818881 3.01166 0
M  V30 29375 N 3350.85 -1.57312 -0.0951784 0
M  V30 29376 C 3352.08 -1.90668 -0.816107 0
M  V30 29377 C 3352.5 -0.772776 -1.71493 0
M  V30 29378 O 3351.86 0.27565 -1.79192 0
M  V30 29379 C 3351.91 -3.22887 -1.60549 0
M  V30 29380 O 3351.01 -3.10471 -2.71443 0
M  V30 29381 H 3350.35 -0.625002 -0.224206 0
M  V30 29382 H 3352.88 -2.04479 -0.0704281 0
M  V30 29383 H 3352.89 -3.56193 -1.98973 0
M  V30 29384 H 3351.57 -4.05002 -0.945847 0
M  V30 29385 H 3350.15 -2.8868 -2.36048 0
M  V30 29386 N 3352.33 0.365999 -1.53291 0
M  V30 29387 C 3353.56 1.13378 -1.73667 0
M  V30 29388 C 3353.98 1.82279 -0.464316 0
M  V30 29389 O 3353.34 1.71718 0.581615 0
M  V30 29390 C 3353.39 2.14008 -2.90229 0
M  V30 29391 O 3352.49 3.21079 -2.58808 0
M  V30 29392 H 3351.83 0.32899 -0.576768 0
M  V30 29393 H 3354.36 0.423252 -2.00174 0
M  V30 29394 H 3354.37 2.57616 -3.16383 0
M  V30 29395 H 3353.05 1.6325 -3.82521 0
M  V30 29396 H 3351.62 2.82447 -2.43471 0
M  V30 29397 N 3353.81 1.44644 0.625774 0
M  V30 29398 C 3355.04 1.51201 1.4123 0
M  V30 29399 C 3355.45 0.138605 1.88291 0
M  V30 29400 O 3354.81 -0.856508 1.61153 0
M  V30 29401 C 3354.86 2.48121 2.62903 0
M  V30 29402 O 3354.58 3.80123 2.17803 0
M  V30 29403 C 3356.08 2.64196 3.55971 0
M  V30 29404 H 3353.3 0.51264 0.432945 0
M  V30 29405 H 3355.85 1.89659 0.764827 0
M  V30 29406 H 3354 2.12784 3.23731 0
M  V30 29407 H 3354.41 4.32498 2.96725 0
M  V30 29408 H 3355.89 3.36028 4.37937 0
M  V30 29409 H 3356.37 1.69607 4.0513 0
M  V30 29410 H 3356.97 3.00456 3.01009 0
M  V30 29411 N 3355.29 -0.866663 1.31631 0
M  V30 29412 C 3356.53 -1.61676 1.21266 0
M  V30 29413 C 3356.86 -1.93656 -0.228528 0
M  V30 29414 O 3356.13 -1.58585 -1.15012 0
M  V30 29415 H 3354.71 -0.599372 0.445827 0
M  V30 29416 H 3357.37 -1.03736 1.64999 0
M  V30 29417 H 3356.46 -2.55895 1.78673 0
M  V30 29418 N 3356.77 -1.14645 -1.0814 0
M  V30 29419 C 3357.7 -0.793651 -2.1502 0
M  V30 29420 C 3358.71 0.190701 -1.61679 0
M  V30 29421 O 3359.9 -0.031401 -1.78472 0
M  V30 29422 C 3357 -0.157845 -3.38532 0
M  V30 29423 C 3356.17 -1.17761 -4.2125 0
M  V30 29424 C 3355.23 -0.56506 -5.23157 0
M  V30 29425 O 3354.26 -1.22879 -5.55778 0
M  V30 29426 N 3355.46 0.65692 -5.76771 0
M  V30 29427 H 3358.22 -1.71342 -2.4589 0
M  V30 29428 H 3355.79 -1.04124 -1.23975 0
M  V30 29429 H 3357.78 0.264515 -4.03835 0
M  V30 29430 H 3356.35 0.665114 -3.05442 0
M  V30 29431 H 3355.57 -1.77681 -3.51885 0
M  V30 29432 H 3356.86 -1.8664 -4.73332 0
M  V30 29433 H 3356.25 1.21468 -5.52505 0
M  V30 29434 H 3354.81 1.02175 -6.43742 0
M  V30 29435 N 3358.24 1.26349 -0.942 0
M  V30 29436 C 3359.47 1.98341 -0.606266 0
M  V30 29437 C 3359.89 1.69672 0.811985 0
M  V30 29438 O 3359.25 0.945228 1.5471 0
M  V30 29439 C 3359.3 3.50295 -0.855926 0
M  V30 29440 O 3358.4 4.12338 0.0715526 0
M  V30 29441 H 3357.74 0.622216 -0.231826 0
M  V30 29442 H 3360.27 1.60795 -1.26516 0
M  V30 29443 H 3360.28 4.0053 -0.777149 0
M  V30 29444 H 3358.96 3.70492 -1.88967 0
M  V30 29445 H 3357.54 3.72854 -0.0583521 0
M  V30 29446 N 3359.72 0.709115 1.40746 0
M  V30 29447 C 3360.95 0.253852 2.05841 0
M  V30 29448 C 3361.37 -1.09338 1.53058 0
M  V30 29449 O 3360.73 -1.68734 0.663211 0
M  V30 29450 C 3360.78 0.236762 3.59822 0
M  V30 29451 O 3359.88 -0.784097 4.04877 0
M  V30 29452 H 3359.22 0.120642 0.652948 0
M  V30 29453 H 3361.75 0.967781 1.80264 0
M  V30 29454 H 3361.76 0.0722333 4.07936 0
M  V30 29455 H 3360.44 1.21995 3.97605 0
M  V30 29456 H 3359.01 -0.587819 3.68238 0
M  V30 29457 N 3361.2 -1.50894 0.454829 0
M  V30 29458 C 3362.42 -2.07128 -0.106222 0
M  V30 29459 C 3362.85 -1.31826 -1.34177 0
M  V30 29460 O 3362.21 -0.361179 -1.77666 0
M  V30 29461 C 3362.26 -3.5849 -0.389546 0
M  V30 29462 O 3361.36 -3.85198 -1.47298 0
M  V30 29463 H 3360.7 -0.663975 0.00581755 0
M  V30 29464 H 3363.23 -1.94293 0.641197 0
M  V30 29465 H 3363.24 -4.0303 -0.634863 0
M  V30 29466 H 3361.92 -4.12719 0.513411 0
M  V30 29467 H 3360.49 -3.52508 -1.21625 0
M  V30 29468 N 3362.68 -0.186817 -1.56489 0
M  V30 29469 C 3363.63 0.749986 -2.15312 0
M  V30 29470 C 3364.61 1.18209 -1.09158 0
M  V30 29471 O 3365.8 1.14186 -1.35242 0
M  V30 29472 C 3362.93 1.97279 -2.80955 0
M  V30 29473 C 3362.02 1.56197 -3.94288 0
M  V30 29474 N 3362.41 0.861617 -4.98407 0
M  V30 29475 C 3360.71 1.85187 -4.05736 0
M  V30 29476 C 3361.41 0.656976 -5.77978 0
M  V30 29477 N 3360.38 1.20317 -5.30118 0
M  V30 29478 H 3364.19 0.206096 -2.93176 0
M  V30 29479 H 3361.7 0.0132877 -1.62395 0
M  V30 29480 H 3363.7 2.65431 -3.21484 0
M  V30 29481 H 3362.36 2.52148 -2.04576 0
M  V30 29482 H 3363.37 0.517976 -5.15303 0
M  V30 29483 H 3360.05 2.41624 -3.40476 0
M  V30 29484 H 3361.44 0.102005 -6.71823 0
M  V30 29485 N 3364.16 1.57361 0.0868344 0
M  V30 29486 C 3365.4 1.86137 0.787249 0
M  V30 29487 C 3365.72 0.776699 1.78864 0
M  V30 29488 O 3364.99 -0.196216 1.94915 0
M  V30 29489 H 3363.57 0.686827 0.293732 0
M  V30 29490 H 3366.24 1.94787 0.0664984 0
M  V30 29491 H 3365.33 2.83149 1.31275 0
M  V30 29492 N 3365.63 -0.357865 1.53483 0
M  V30 29493 C 3366.57 -1.45907 1.76759 0
M  V30 29494 C 3367.58 -1.49325 0.648528 0
M  V30 29495 O 3368.77 -1.52665 0.924959 0
M  V30 29496 C 3365.87 -2.84637 1.83943 0
M  V30 29497 C 3365.04 -3.04825 3.13688 0
M  V30 29498 C 3364.1 -4.23714 3.12014 0
M  V30 29499 O 3363.13 -4.18517 3.85787 0
M  V30 29500 N 3364.33 -5.31523 2.33375 0
M  V30 29501 H 3367.09 -1.26316 2.7178 0
M  V30 29502 H 3364.65 -0.547646 1.52356 0
M  V30 29503 H 3366.65 -3.62322 1.80292 0
M  V30 29504 H 3365.22 -2.97438 0.961727 0
M  V30 29505 H 3364.44 -2.14733 3.3058 0
M  V30 29506 H 3365.72 -3.15187 3.99418 0
M  V30 29507 H 3365.12 -5.3861 1.72963 0
M  V30 29508 H 3363.68 -6.07755 2.35535 0
M  V30 29509 N 3367.11 -1.44974 -0.618094 0
M  V30 29510 C 3368.06 -1.49271 -1.72343 0
M  V30 29511 C 3369.05 -0.357069 -1.56888 0
M  V30 29512 O 3370.24 -0.603242 -1.66403 0
M  V30 29513 C 3367.37 -1.45225 -3.1107 0
M  V30 29514 C 3366.45 -2.63952 -3.31949 0
M  V30 29515 N 3366.84 -3.89124 -3.23134 0
M  V30 29516 C 3365.14 -2.59426 -3.62787 0
M  V30 29517 C 3365.84 -4.68306 -3.45058 0
M  V30 29518 N 3364.82 -3.99589 -3.68551 0
M  V30 29519 H 3368.62 -2.43884 -1.64006 0
M  V30 29520 H 3366.13 -1.40119 -0.821005 0
M  V30 29521 H 3368.13 -1.46388 -3.90354 0
M  V30 29522 H 3366.79 -0.516611 -3.20564 0
M  V30 29523 H 3367.8 -4.20901 -3.01766 0
M  V30 29524 H 3364.48 -1.7472 -3.79182 0
M  V30 29525 H 3365.87 -5.77324 -3.43725 0
M  V30 29526 N 3368.59 0.85967 -1.32089 0
M  V30 29527 C 3369.84 1.6103 -1.22121 0
M  V30 29528 C 3370.16 1.93775 0.218255 0
M  V30 29529 O 3369.43 1.59192 1.14169 0
M  V30 29530 H 3368.01 0.597 -0.448999 0
M  V30 29531 H 3370.67 1.0286 -1.65547 0
M  V30 29532 H 3369.77 2.54944 -1.80028 0
M  V30 29533 N 3370.07 1.15217 1.0753 0
M  V30 29534 C 3371.29 0.950172 1.84354 0
M  V30 29535 C 3371.72 -0.49647 1.8143 0
M  V30 29536 O 3371.08 -1.35379 1.20591 0
M  V30 29537 C 3371.12 1.46675 3.29422 0
M  V30 29538 O 3370.23 0.664745 4.07007 0
M  V30 29539 H 3369.57 0.339046 0.570915 0
M  V30 29540 H 3372.1 1.53156 1.35662 0
M  V30 29541 H 3372.11 1.4788 3.80257 0
M  V30 29542 H 3370.78 2.51994 3.30866 0
M  V30 29543 H 3369.36 0.722174 3.6584 0
M  V30 29544 N 3371.55 -1.25848 0.948687 0
M  V30 29545 C 3372.79 -1.93017 0.599084 0
M  V30 29546 C 3373.12 -1.74726 -0.865783 0
M  V30 29547 O 3372.39 -1.10734 -1.616 0
M  V30 29548 H 3370.97 -0.714306 0.218577 0
M  V30 29549 H 3373.63 -1.53135 1.20564 0
M  V30 29550 H 3372.72 -3.01045 0.823297 0
M  V30 29551 N 3373.02 -0.716569 -1.40368 0
M  V30 29552 C 3374.25 -0.264765 -2.05703 0
M  V30 29553 C 3374.67 1.08525 -1.53636 0
M  V30 29554 O 3374.03 1.6838 -0.67215 0
M  V30 29555 C 3374.08 -0.255841 -3.59691 0
M  V30 29556 O 3373.18 0.762615 -4.05287 0
M  V30 29557 H 3372.53 -0.124103 -0.652299 0
M  V30 29558 H 3375.06 -0.977327 -1.79748 0
M  V30 29559 H 3375.07 -0.0938661 -4.07892 0
M  V30 29560 H 3373.74 -1.24102 -3.96953 0
M  V30 29561 H 3372.32 0.568283 -3.68544 0
M  V30 29562 N 3374.5 1.50651 -0.462825 0
M  V30 29563 C 3375.73 2.07181 0.0952362 0
M  V30 29564 C 3376.15 1.32535 1.33476 0
M  V30 29565 O 3375.51 0.370596 1.77472 0
M  V30 29566 C 3375.56 3.58691 0.370529 0
M  V30 29567 O 3374.66 3.85973 1.45253 0
M  V30 29568 H 3374 0.663934 -0.00933869 0
M  V30 29569 H 3376.53 1.9395 -0.651492 0
M  V30 29570 H 3376.54 4.03361 0.61348 0
M  V30 29571 H 3375.22 4.12441 -0.535291 0
M  V30 29572 H 3373.8 3.53148 1.19754 0
M  V30 29573 N 3375.98 0.195113 1.56388 0
M  V30 29574 C 3376.91 -0.757605 2.16317 0
M  V30 29575 C 3377.93 -1.17676 1.125 0
M  V30 29576 O 3379.11 -1.11248 1.39592 0
M  V30 29577 C 3376.21 -2.03442 2.71043 0
M  V30 29578 C 3375.39 -1.77507 3.99763 0
M  V30 29579 C 3374.45 -2.89636 4.39315 0
M  V30 29580 O 3373.47 -2.59243 5.06736 0
M  V30 29581 N 3374.67 -4.17991 4.0282 0
M  V30 29582 H 3377.44 -0.245117 2.98696 0
M  V30 29583 H 3375 0.0131479 1.61895 0
M  V30 29584 H 3376.99 -2.77595 2.94488 0
M  V30 29585 H 3375.56 -2.45813 1.93118 0
M  V30 29586 H 3374.78 -0.871333 3.8445 0
M  V30 29587 H 3376.07 -1.57576 4.83784 0
M  V30 29588 H 3375.47 -4.45536 3.48588 0
M  V30 29589 H 3374.03 -4.88771 4.31215 0
M  V30 29590 N 3377.46 -1.57404 -0.0784879 0
M  V30 29591 C 3378.68 -1.91523 -0.795838 0
M  V30 29592 C 3379.11 -0.790922 -1.70664 0
M  V30 29593 O 3378.47 0.256629 -1.79475 0
M  V30 29594 C 3378.51 -3.24572 -1.57116 0
M  V30 29595 O 3377.62 -3.13333 -2.68135 0
M  V30 29596 H 3376.96 -0.627345 -0.217564 0
M  V30 29597 H 3379.49 -2.04542 -0.0487364 0
M  V30 29598 H 3379.5 -3.58284 -1.95184 0
M  V30 29599 H 3378.17 -4.05982 -0.902838 0
M  V30 29600 H 3376.75 -2.91167 -2.32973 0
M  V30 29601 N 3378.94 0.34972 -1.53671 0
M  V30 29602 C 3380.16 1.11529 -1.7486 0
M  V30 29603 C 3380.59 1.81777 -0.483623 0
M  V30 29604 O 3379.94 1.72325 0.563369 0
M  V30 29605 C 3379.99 2.10918 -2.92483 0
M  V30 29606 O 3379.1 3.18316 -2.62199 0
M  V30 29607 H 3378.44 0.322854 -0.580225 0
M  V30 29608 H 3380.97 0.401997 -2.00612 0
M  V30 29609 H 3380.98 2.54246 -3.19097 0
M  V30 29610 H 3379.65 1.59184 -3.84231 0
M  V30 29611 H 3378.23 2.79849 -2.46453 0
M  V30 29612 N 3380.41 1.45299 0.610397 0
M  V30 29613 C 3381.64 1.52919 1.40109 0
M  V30 29614 C 3382.06 0.161729 1.87403 0
M  V30 29615 O 3381.42 -0.853107 1.59974 0
M  V30 29616 C 3381.47 2.51566 2.58354 0
M  V30 29617 O 3380.57 2.03152 3.58891 0
M  V30 29618 H 3379.92 0.515594 0.418401 0
M  V30 29619 H 3382.45 1.90627 0.743126 0
M  V30 29620 H 3382.46 2.7028 3.05635 0
M  V30 29621 H 3381.13 3.50883 2.2328 0
M  V30 29622 H 3379.71 1.94301 3.18279 0
M  V30 29623 N 3381.89 -0.852653 1.32543 0
M  V30 29624 C 3383.12 -1.637 1.26039 0
M  V30 29625 C 3383.53 -1.88402 -0.17355 0
M  V30 29626 O 3382.87 -1.45475 -1.12173 0
M  V30 29627 C 3382.94 -3.01857 1.9525 0
M  V30 29628 C 3382.6 -3.00187 3.44582 0
M  V30 29629 C 3383.6 -2.76892 4.40031 0
M  V30 29630 C 3381.28 -3.2076 3.86547 0
M  V30 29631 C 3383.28 -2.74175 5.75419 0
M  V30 29632 C 3380.96 -3.17669 5.22044 0
M  V30 29633 C 3381.96 -2.94406 6.16291 0
M  V30 29634 O 3381.65 -2.91192 7.49308 0
M  V30 29635 H 3381.38 -0.516535 0.436082 0
M  V30 29636 H 3383.93 -1.07124 1.75253 0
M  V30 29637 H 3382.16 -3.60231 1.40609 0
M  V30 29638 H 3383.85 -3.62594 1.82429 0
M  V30 29639 H 3384.62 -2.60763 4.08935 0
M  V30 29640 H 3380.5 -3.37892 3.13608 0
M  V30 29641 H 3384.04 -2.55936 6.48955 0
M  V30 29642 H 3379.94 -3.33343 5.52768 0
M  V30 29643 H 3380.71 -3.07132 7.58691 0
M  V30 29644 N 3383.37 -1.15786 -1.06918 0
M  V30 29645 C 3384.62 -0.933612 -1.79243 0
M  V30 29646 C 3384.94 0.540394 -1.87363 0
M  V30 29647 O 3384.21 1.39269 -1.37772 0
M  V30 29648 H 3382.79 -0.342428 -0.663892 0
M  V30 29649 H 3385.45 -1.45935 -1.29186 0
M  V30 29650 H 3384.55 -1.34684 -2.81544 0
M  V30 29651 N 3384.85 1.25343 -0.955348 0
M  V30 29652 C 3385.78 2.25064 -0.433439 0
M  V30 29653 C 3386.79 1.56426 0.451072 0
M  V30 29654 O 3387.98 1.76608 0.259234 0
M  V30 29655 C 3385.08 3.36593 0.394749 0
M  V30 29656 C 3384.26 4.34792 -0.476933 0
M  V30 29657 C 3383.31 5.25383 0.293176 0
M  V30 29658 O 3382.34 5.68362 -0.30867 0
M  V30 29659 N 3383.54 5.58412 1.58607 0
M  V30 29660 H 3386.31 2.70479 -1.29077 0
M  V30 29661 H 3383.87 1.39256 -0.825788 0
M  V30 29662 H 3385.86 3.94158 0.917678 0
M  V30 29663 H 3384.43 2.90561 1.15295 0
M  V30 29664 H 3383.65 3.76095 -1.18096 0
M  V30 29665 H 3384.94 4.97382 -1.07186 0
M  V30 29666 H 3384.34 5.25399 2.09696 0
M  V30 29667 H 3382.89 6.18559 2.05495 0
M  V30 29668 N 3386.33 0.724003 1.39986 0
M  V30 29669 C 3387.26 0.0373847 2.2917 0
M  V30 29670 C 3388.27 -0.714989 1.46259 0
M  V30 29671 O 3389.46 -0.560973 1.69456 0
M  V30 29672 C 3386.56 -0.971327 3.24682 0
M  V30 29673 C 3385.73 -0.282749 4.36485 0
M  V30 29674 C 3384.79 -1.19802 5.12381 0
M  V30 29675 O 3383.82 -0.67964 5.65128 0
M  V30 29676 N 3385.02 -2.52857 5.22536 0
M  V30 29677 H 3387.79 0.803182 2.88737 0
M  V30 29678 H 3385.35 0.572319 1.51447 0
M  V30 29679 H 3387.34 -1.58599 3.72328 0
M  V30 29680 H 3385.91 -1.63842 2.66223 0
M  V30 29681 H 3385.13 0.512236 3.90858 0
M  V30 29682 H 3386.42 0.194882 5.08427 0
M  V30 29683 H 3385.82 -2.97461 4.81179 0
M  V30 29684 H 3384.37 -3.09447 5.7366 0
M  V30 29685 N 3387.81 -1.50403 0.470808 0
M  V30 29686 C 3389.05 -2.01925 -0.0841139 0
M  V30 29687 C 3389.37 -1.35489 -1.40242 0
M  V30 29688 O 3388.64 -0.500145 -1.89408 0
M  V30 29689 H 3387.22 -0.746222 -0.0340753 0
M  V30 29690 H 3389.89 -1.84736 0.621165 0
M  V30 29691 H 3388.98 -3.11208 -0.235822 0
M  V30 29692 N 3389.28 -0.203404 -1.56282 0
M  V30 29693 C 3390.51 0.441623 -2.02644 0
M  V30 29694 C 3390.93 1.53828 -1.08252 0
M  V30 29695 O 3390.29 1.81174 -0.0674655 0
M  V30 29696 C 3390.34 0.967308 -3.47384 0
M  V30 29697 O 3389.44 2.07975 -3.56118 0
M  V30 29698 H 3388.78 0.10223 -0.656083 0
M  V30 29699 H 3391.31 -0.316719 -2.02134 0
M  V30 29700 H 3391.32 1.28179 -3.87342 0
M  V30 29701 H 3390 0.164552 -4.15574 0
M  V30 29702 H 3388.58 1.77328 -3.28038 0
M  V30 29703 N 3390.76 1.57444 0.0701393 0
M  V30 29704 C 3392.01 1.86961 0.767462 0
M  V30 29705 C 3392.33 0.795626 1.7803 0
M  V30 29706 O 3391.6 -0.175532 1.95112 0
M  V30 29707 H 3390.18 0.689903 0.286431 0
M  V30 29708 H 3392.84 1.94846 0.0458349 0
M  V30 29709 H 3391.94 2.84525 1.28264 0
M  V30 29710 N 3392.24 -0.341566 1.53854 0
M  V30 29711 C 3393.46 -1.106 1.75449 0
M  V30 29712 C 3393.89 -1.81517 0.493256 0
M  V30 29713 O 3393.25 -1.72621 -0.554222 0
M  V30 29714 C 3393.3 -2.09364 2.93597 0
M  V30 29715 O 3392.4 -3.16921 2.63884 0
M  V30 29716 H 3391.74 -0.319773 0.581929 0
M  V30 29717 H 3394.27 -0.391353 2.00822 0
M  V30 29718 H 3394.28 -2.5255 3.20441 0
M  V30 29719 H 3392.96 -1.57144 3.8507 0
M  V30 29720 H 3391.53 -2.78538 2.47934 0
M  V30 29721 N 3393.72 -1.45621 -0.602683 0
M  V30 29722 C 3394.97 -1.49597 -1.35886 0
M  V30 29723 C 3395.29 -0.141037 -1.94489 0
M  V30 29724 O 3394.56 0.830178 -1.7744 0
M  V30 29725 H 3393.14 -0.550927 -0.504469 0
M  V30 29726 H 3395.8 -1.81611 -0.707344 0
M  V30 29727 H 3394.89 -2.23754 -2.17579 0
M  V30 29728 N 3395.2 0.845612 -1.32993 0
M  V30 29729 C 3396.13 1.9618 -1.18517 0
M  V30 29730 C 3397.14 1.62373 -0.117839 0
M  V30 29731 O 3398.33 1.74673 -0.367641 0
M  V30 29732 C 3395.43 3.29471 -0.79387 0
M  V30 29733 C 3394.6 3.91457 -1.95141 0
M  V30 29734 C 3393.66 5.03094 -1.54218 0
M  V30 29735 O 3392.69 5.22603 -2.25554 0
M  V30 29736 N 3393.89 5.78805 -0.443337 0
M  V30 29737 H 3396.65 2.09137 -2.14667 0
M  V30 29738 H 3394.22 1.02097 -1.25649 0
M  V30 29739 H 3396.21 4.0157 -0.502334 0
M  V30 29740 H 3394.78 3.12506 0.0767482 0
M  V30 29741 H 3394 3.12031 -2.40895 0
M  V30 29742 H 3395.29 4.29605 -2.72611 0
M  V30 29743 H 3394.68 5.65501 0.150198 0
M  V30 29744 H 3393.24 6.51457 -0.211446 0
M  V30 29745 N 3396.67 1.16351 1.06302 0
M  V30 29746 C 3397.9 0.969672 1.83336 0
M  V30 29747 C 3398.32 -0.477199 1.81946 0
M  V30 29748 O 3397.68 -1.34092 1.2202 0
M  V30 29749 C 3397.73 1.5016 3.27848 0
M  V30 29750 O 3396.83 0.707877 4.06279 0
M  V30 29751 H 3396.17 0.345082 0.567287 0
M  V30 29752 H 3398.7 1.54587 1.3403 0
M  V30 29753 H 3398.71 1.51905 3.78667 0
M  V30 29754 H 3397.39 2.55489 3.28174 0
M  V30 29755 H 3395.97 0.760936 3.65054 0
M  V30 29756 N 3398.15 -1.24835 0.961982 0
M  V30 29757 C 3399.56 -1.74629 0.660419 0
M  V30 29758 C 3399.91 -1.78057 -0.824033 0
M  V30 29759 O 3399.04 -1.40622 -1.64482 0
M  V30 29760 C 3399.63 -3.17134 1.19211 0
M  V30 29761 C 3398.19 -3.64459 0.940557 0
M  V30 29762 C 3397.34 -2.43279 1.33081 0
M  V30 29763 H 3400.29 -1.10618 1.13796 0
M  V30 29764 H 3400.31 -3.76421 0.555661 0
M  V30 29765 H 3399.82 -3.14608 2.27252 0
M  V30 29766 H 3397.92 -3.72392 -0.124579 0
M  V30 29767 H 3398.04 -4.52221 1.58218 0
M  V30 29768 H 3396.4 -2.43432 0.749182 0
M  V30 29769 H 3397.18 -2.43438 2.42059 0
M  V30 29770 N 3399.63 -0.731417 -1.396 0
M  V30 29771 C 3400.85 -0.286568 -2.05411 0
M  V30 29772 C 3401.28 1.06889 -1.54778 0
M  V30 29773 O 3400.64 1.67658 -0.689971 0
M  V30 29774 C 3400.69 -0.293977 -3.594 0
M  V30 29775 O 3399.79 0.719586 -4.06074 0
M  V30 29776 H 3399.13 -0.131015 -0.650946 0
M  V30 29777 H 3401.66 -0.996337 -1.78702 0
M  V30 29778 H 3401.67 -0.137123 -4.0777 0
M  V30 29779 H 3400.35 -1.28305 -3.95614 0
M  V30 29780 H 3398.92 0.529162 -3.69126 0
M  V30 29781 N 3401.11 1.50152 -0.478778 0
M  V30 29782 C 3402.52 1.59042 -0.133384 0
M  V30 29783 C 3402.72 1.48621 1.36067 0
M  V30 29784 O 3401.78 1.34866 2.13466 0
M  V30 29785 C 3403.09 2.92667 -0.690421 0
M  V30 29786 C 3404.64 3.0608 -0.654534 0
M  V30 29787 C 3405.12 4.42291 -1.18925 0
M  V30 29788 N 3406.61 4.48723 -1.14899 0
M  V30 29789 C 3407.34 5.52523 -1.53315 0
M  V30 29790 N 3406.84 6.63539 -1.99217 0
M  V30 29791 N 3408.63 5.43111 -1.4487 0
M  V30 29792 H 3400.78 1.55169 -1.4504 0
M  V30 29793 H 3403.05 0.733746 -0.600267 0
M  V30 29794 H 3402.75 3.05792 -1.73736 0
M  V30 29795 H 3402.63 3.76946 -0.138293 0
M  V30 29796 H 3405.01 2.92597 0.383512 0
M  V30 29797 H 3405.09 2.23538 -1.24356 0
M  V30 29798 H 3404.74 4.56523 -2.22597 0
M  V30 29799 H 3404.67 5.23436 -0.576372 0
M  V30 29800 H 3407.16 3.69064 -0.812409 0
M  V30 29801 H 3407.47 7.38814 -2.26658 0
M  V30 29802 H 3405.82 6.64639 -2.03175 0
M  V30 29803 H 3409.01 4.5527 -1.08844 0
M  V30 29804 H 3409.18 6.23885 -1.75134 0
M  V30 29805 N 3402.59 0.211689 1.56172 0
M  V30 29806 C 3403.83 -0.421836 1.97649 0
M  V30 29807 C 3404.16 -1.60993 1.10029 0
M  V30 29808 O 3403.43 -1.95116 0.175143 0
M  V30 29809 H 3402.01 -0.158839 0.729917 0
M  V30 29810 H 3404.67 0.302288 1.92542 0
M  V30 29811 H 3403.76 -0.754815 3.02835 0
M  V30 29812 N 3404.06 -1.57479 -0.0617887 0
M  V30 29813 C 3405.48 -1.54061 -0.4168 0
M  V30 29814 C 3405.68 -0.933308 -1.78582 0
M  V30 29815 O 3404.74 -0.540134 -2.46655 0
M  V30 29816 C 3406.05 -2.98672 -0.348676 0
M  V30 29817 C 3407.6 -3.10058 -0.42814 0
M  V30 29818 C 3408.07 -4.56338 -0.389817 0
M  V30 29819 N 3409.56 -4.61013 -0.449596 0
M  V30 29820 C 3410.3 -5.71691 -0.442317 0
M  V30 29821 N 3409.79 -6.91706 -0.38926 0
M  V30 29822 N 3411.59 -5.59964 -0.48962 0
M  V30 29823 H 3403.74 -1.95319 0.834521 0
M  V30 29824 H 3406 -0.89443 0.314164 0
M  V30 29825 H 3405.71 -3.46702 0.590799 0
M  V30 29826 H 3405.58 -3.5908 -1.15505 0
M  V30 29827 H 3407.97 -2.61995 -1.35804 0
M  V30 29828 H 3408.05 -2.52542 0.40699 0
M  V30 29829 H 3407.69 -5.05061 0.536275 0
M  V30 29830 H 3407.62 -5.11729 -1.24262 0
M  V30 29831 H 3410.11 -3.74651 -0.494444 0
M  V30 29832 H 3410.43 -7.71826 -0.387907 0
M  V30 29833 H 3408.77 -6.94089 -0.355796 0
M  V30 29834 H 3411.96 -4.65103 -0.528833 0
M  V30 29835 H 3412.14 -6.46216 -0.480479 0
M  V30 29836 N 3405.54 0.333401 -1.54033 0
M  V30 29837 C 3406.49 1.41077 -1.79113 0
M  V30 29838 C 3407.48 1.47331 -0.646724 0
M  V30 29839 O 3408.67 1.52029 -0.90643 0
M  V30 29840 C 3405.8 2.78075 -2.01319 0
M  V30 29841 C 3404.88 2.76172 -3.21853 0
M  V30 29842 N 3405.27 2.43895 -4.43113 0
M  V30 29843 C 3403.57 3.07311 -3.23228 0
M  V30 29844 C 3404.27 2.50481 -5.25009 0
M  V30 29845 N 3403.25 2.8652 -4.6196 0
M  V30 29846 H 3407.05 1.15034 -2.70452 0
M  V30 29847 H 3404.57 0.541828 -1.53095 0
M  V30 29848 H 3406.56 3.55714 -2.17424 0
M  V30 29849 H 3405.22 3.05055 -1.11228 0
M  V30 29850 H 3406.23 2.16914 -4.70286 0
M  V30 29851 H 3402.91 3.39397 -2.43138 0
M  V30 29852 H 3404.3 2.28599 -6.31816 0
M  V30 29853 N 3407.02 1.45939 0.594952 0
M  V30 29854 C 3408.27 1.50316 1.35091 0
M  V30 29855 C 3408.59 0.151349 1.94412 0
M  V30 29856 O 3407.86 -0.820756 1.77878 0
M  V30 29857 H 3406.44 0.553595 0.50154 0
M  V30 29858 H 3409.1 1.81984 0.697703 0
M  V30 29859 H 3408.2 2.24905 2.16389 0
M  V30 29860 N 3408.5 -0.838547 1.3344 0
M  V30 29861 C 3409.72 -1.63111 1.281 0
M  V30 29862 C 3410.15 -1.87539 -0.145164 0
M  V30 29863 O 3409.51 -1.43973 -1.10189 0
M  V30 29864 C 3409.55 -2.95823 2.06206 0
M  V30 29865 O 3408.66 -3.87149 1.42088 0
M  V30 29866 H 3408 -0.496674 0.440694 0
M  V30 29867 H 3410.53 -1.04322 1.76006 0
M  V30 29868 H 3410.54 -3.45518 2.16983 0
M  V30 29869 H 3409.21 -2.77366 3.09905 0
M  V30 29870 H 3407.79 -3.45638 1.39959 0
M  V30 29871 N 3409.98 -1.16914 -1.05683 0
M  V30 29872 C 3411.22 -0.952571 -1.78243 0
M  V30 29873 C 3411.55 0.520492 -1.87925 0
M  V30 29874 O 3410.82 1.378 -1.39241 0
M  V30 29875 H 3409.4 -0.34945 -0.660222 0
M  V30 29876 H 3412.06 -1.47297 -1.27631 0
M  V30 29877 H 3411.15 -1.37662 -2.80099 0
M  V30 29878 N 3411.45 1.24323 -0.968589 0
M  V30 29879 C 3412.68 1.9701 -0.6482 0
M  V30 29880 C 3413.1 1.71356 0.775812 0
M  V30 29881 O 3412.46 0.977831 1.5267 0
M  V30 29882 C 3412.51 3.484 -0.930036 0
M  V30 29883 O 3411.61 4.12397 -0.0159264 0
M  V30 29884 H 3410.96 0.617159 -0.244972 0
M  V30 29885 H 3413.49 1.58075 -1.29898 0
M  V30 29886 H 3413.5 3.98792 -0.861933 0
M  V30 29887 H 3412.17 3.66401 -1.96783 0
M  V30 29888 H 3410.75 3.72647 -0.137427 0
M  V30 29889 N 3412.93 0.73881 1.3921 0
M  V30 29890 C 3414.18 0.287855 2.0004 0
M  V30 29891 C 3414.5 -1.12997 1.58923 0
M  V30 29892 O 3413.77 -1.77014 0.839224 0
M  V30 29893 H 3412.35 0.103438 0.739804 0
M  V30 29894 H 3415.01 0.949617 1.70201 0
M  V30 29895 H 3414.11 0.339262 3.10251 0
M  V30 29896 N 3414.41 -1.49895 0.486734 0
M  V30 29897 C 3415.36 -2.25768 -0.318216 0
M  V30 29898 C 3416.34 -1.30009 -0.947967 0
M  V30 29899 O 3417.54 -1.54818 -0.857927 0
M  V30 29900 C 3414.67 -3.13878 -1.39051 0
M  V30 29901 C 3413.75 -4.17093 -0.767714 0
M  V30 29902 N 3414.14 -5.05655 0.121252 0
M  V30 29903 C 3412.44 -4.33946 -1.02991 0
M  V30 29904 C 3413.14 -5.79747 0.476312 0
M  V30 29905 N 3412.12 -5.43387 -0.152326 0
M  V30 29906 H 3415.92 -2.91608 0.366345 0
M  V30 29907 H 3413.43 -1.5957 0.301881 0
M  V30 29908 H 3415.43 -3.66854 -1.9805 0
M  V30 29909 H 3414.09 -2.4959 -2.0769 0
M  V30 29910 H 3415.1 -5.15566 0.491134 0
M  V30 29911 H 3411.78 -3.80869 -1.71012 0
M  V30 29912 H 3413.17 -6.61048 1.20273 0
M  V30 29913 N 3415.89 -0.219968 -1.56057 0
M  V30 29914 C 3417.11 0.420105 -2.03101 0
M  V30 29915 C 3417.54 1.52671 -1.09878 0
M  V30 29916 O 3416.9 1.81093 -0.0866777 0
M  V30 29917 C 3416.95 0.930409 -3.4839 0
M  V30 29918 O 3416.05 2.04186 -3.58304 0
M  V30 29919 H 3415.39 0.0952656 -0.65713 0
M  V30 29920 H 3417.92 -0.338141 -2.01786 0
M  V30 29921 H 3417.93 1.24063 -3.8868 0
M  V30 29922 H 3416.61 0.120466 -4.15725 0
M  V30 29923 H 3415.18 1.73839 -3.29901 0
M  V30 29924 N 3417.37 1.57509 0.0534363 0
M  V30 29925 C 3418.59 1.92765 0.765267 0
M  V30 29926 C 3419.02 0.817973 1.69384 0
M  V30 29927 O 3418.38 -0.228044 1.7986 0
M  V30 29928 C 3418.42 3.27031 1.51932 0
M  V30 29929 O 3417.53 3.17559 2.63116 0
M  V30 29930 H 3416.87 0.630727 0.207556 0
M  V30 29931 H 3419.4 2.04594 0.0161894 0
M  V30 29932 H 3419.41 3.61344 1.89459 0
M  V30 29933 H 3418.08 4.07367 0.838135 0
M  V30 29934 H 3416.66 2.94836 2.28311 0
M  V30 29935 N 3418.85 -0.325228 1.54208 0
M  V30 29936 C 3420.07 -1.08733 1.76612 0
M  V30 29937 C 3420.5 -1.80984 0.512481 0
M  V30 29938 O 3419.85 -1.73199 -0.535882 0
M  V30 29939 C 3419.9 -2.06238 2.95801 0
M  V30 29940 O 3419.01 -3.14105 2.6723 0
M  V30 29941 H 3418.35 -0.313583 0.585288 0
M  V30 29942 H 3420.88 -0.370031 2.01226 0
M  V30 29943 H 3420.89 -2.49137 3.23102 0
M  V30 29944 H 3419.56 -1.53051 3.86715 0
M  V30 29945 H 3418.14 -2.75892 2.50874 0
M  V30 29946 N 3420.32 -1.46252 -0.587204 0
M  V30 29947 C 3421.55 -1.54667 -1.36973 0
M  V30 29948 C 3421.96 -0.185112 -1.88292 0
M  V30 29949 O 3421.3 0.827041 -1.6403 0
M  V30 29950 C 3421.37 -2.48707 -2.59587 0
M  V30 29951 C 3421.03 -3.9504 -2.29766 0
M  V30 29952 C 3422.03 -4.84378 -1.88876 0
M  V30 29953 C 3419.71 -4.40134 -2.42049 0
M  V30 29954 C 3421.71 -6.16821 -1.60658 0
M  V30 29955 C 3419.39 -5.72612 -2.13444 0
M  V30 29956 C 3420.39 -6.60776 -1.72812 0
M  V30 29957 O 3420.08 -7.90797 -1.44555 0
M  V30 29958 H 3419.81 -0.525724 -0.424959 0
M  V30 29959 H 3422.37 -1.9232 -0.721264 0
M  V30 29960 H 3420.6 -2.06063 -3.27223 0
M  V30 29961 H 3422.28 -2.47578 -3.21652 0
M  V30 29962 H 3423.05 -4.50797 -1.78905 0
M  V30 29963 H 3418.93 -3.71739 -2.72638 0
M  V30 29964 H 3422.47 -6.85593 -1.2887 0
M  V30 29965 H 3418.37 -6.05743 -2.23038 0
M  V30 29966 H 3419.14 -8.03019 -1.58437 0
M  V30 29967 N 3421.8 0.831459 -1.33883 0
M  V30 29968 C 3423.05 1.58404 -1.2551 0
M  V30 29969 C 3423.37 1.94194 0.177103 0
M  V30 29970 O 3422.64 1.61578 1.10767 0
M  V30 29971 H 3421.22 0.587341 -0.461562 0
M  V30 29972 H 3423.88 0.993251 -1.67692 0
M  V30 29973 H 3422.98 2.51068 -1.85395 0
M  V30 29974 N 3423.28 1.17472 1.05062 0
M  V30 29975 C 3424.21 0.850381 2.12841 0
M  V30 29976 C 3425.22 -0.147767 1.62128 0
M  V30 29977 O 3426.41 0.0787088 1.78326 0
M  V30 29978 C 3423.51 0.247545 3.37995 0
M  V30 29979 C 3422.69 1.28888 4.17979 0
M  V30 29980 C 3421.75 0.703567 5.21475 0
M  V30 29981 O 3420.77 1.37571 5.52325 0
M  V30 29982 N 3421.97 -0.503769 5.7831 0
M  V30 29983 H 3424.74 1.77802 2.41261 0
M  V30 29984 H 3422.3 1.07375 1.2117 0
M  V30 29985 H 3424.29 -0.157353 4.04394 0
M  V30 29986 H 3422.86 -0.583898 3.07098 0
M  V30 29987 H 3422.08 1.86948 3.4705 0
M  V30 29988 H 3423.37 1.99124 4.68217 0
M  V30 29989 H 3422.77 -1.06777 5.55531 0
M  V30 29990 H 3421.32 -0.850715 6.46224 0
M  V30 29991 N 3424.76 -1.23807 0.975168 0
M  V30 29992 C 3425.71 -2.22839 0.482344 0
M  V30 29993 C 3426.69 -1.54774 -0.43976 0
M  V30 29994 O 3427.88 -1.74937 -0.269466 0
M  V30 29995 C 3425.01 -3.42601 -0.218996 0
M  V30 29996 C 3424.1 -4.17903 0.722372 0
M  V30 29997 N 3424.49 -4.70249 1.86279 0
M  V30 29998 C 3422.79 -4.42784 0.534648 0
M  V30 29999 C 3423.49 -5.27486 2.45222 0
M  V30 30000 N 3422.46 -5.15114 1.73661 0
M  V30 30001 H 3426.27 -2.60936 1.35238 0
M  V30 30002 H 3423.78 -1.39278 0.835187 0
M  V30 30003 H 3425.78 -4.12714 -0.589329 0
M  V30 30004 H 3424.44 -3.06022 -1.08539 0
M  V30 30005 H 3425.45 -4.66754 2.24413 0
M  V30 30006 H 3422.13 -4.16511 -0.287159 0
M  V30 30007 H 3423.52 -5.78642 3.41501 0
M  V30 30008 N 3426.24 -0.746182 -1.38816 0
M  V30 30009 C 3427.48 -0.29846 -1.99884 0
M  V30 30010 C 3427.8 1.12153 -1.5952 0
M  V30 30011 O 3427.07 1.76566 -0.848599 0
M  V30 30012 H 3425.65 -0.10736 -0.739245 0
M  V30 30013 H 3428.32 -0.95863 -1.69695 0
M  V30 30014 H 3427.41 -0.355711 -3.10066 0
M  V30 30015 N 3427.71 1.49635 -0.494676 0
M  V30 30016 C 3428.94 2.07337 0.0512686 0
M  V30 30017 C 3429.36 1.35337 1.30635 0
M  V30 30018 O 3428.72 0.408157 1.76646 0
M  V30 30019 C 3428.77 3.59397 0.294362 0
M  V30 30020 O 3427.87 3.88967 1.37033 0
M  V30 30021 H 3427.21 0.663587 -0.0234196 0
M  V30 30022 H 3429.74 1.92525 -0.692485 0
M  V30 30023 H 3429.75 4.04572 0.527783 0
M  V30 30024 H 3428.43 4.11213 -0.622656 0
M  V30 30025 H 3427.01 3.55609 1.12236 0
M  V30 30026 N 3429.19 0.228241 1.55939 0
M  V30 30027 C 3430.44 -0.400849 1.98085 0
M  V30 30028 C 3430.76 -1.59817 1.1173 0
M  V30 30029 O 3430.03 -1.94919 0.195828 0
M  V30 30030 H 3428.61 -0.151089 0.731561 0
M  V30 30031 H 3431.27 0.322692 1.9221 0
M  V30 30032 H 3430.37 -0.722653 3.03618 0
M  V30 30033 N 3430.67 -1.57536 -0.0450825 0
M  V30 30034 C 3431.9 -1.93168 -0.755034 0
M  V30 30035 C 3432.32 -0.826944 -1.68947 0
M  V30 30036 O 3431.68 0.218502 -1.79978 0
M  V30 30037 C 3431.73 -3.27832 -1.50196 0
M  V30 30038 O 3430.83 -3.1895 -2.61428 0
M  V30 30039 H 3430.17 -0.631819 -0.204208 0
M  V30 30040 H 3432.7 -2.04599 -0.00533908 0
M  V30 30041 H 3432.71 -3.62343 -1.8754 0
M  V30 30042 H 3431.39 -4.07806 -0.81652 0
M  V30 30043 H 3429.96 -2.96043 -2.26744 0
M  V30 30044 N 3432.15 0.317045 -1.54378 0
M  V30 30045 C 3433.4 1.05213 -1.72553 0
M  V30 30046 C 3433.72 1.88333 -0.505533 0
M  V30 30047 O 3432.99 1.89918 0.480405 0
M  V30 30048 H 3431.57 0.391436 -0.636229 0
M  V30 30049 H 3434.23 0.351906 -1.91697 0
M  V30 30050 H 3433.33 1.71444 -2.60794 0
M  V30 30051 N 3433.63 1.46561 0.57944 0
M  V30 30052 C 3434.87 1.53253 1.33736 0
M  V30 30053 C 3435.23 0.183079 1.91527 0
M  V30 30054 O 3434.52 -0.808639 1.737 0
M  V30 30055 C 3434.71 2.56955 2.48413 0
M  V30 30056 C 3434.54 4.01851 2.01855 0
M  V30 30057 C 3433.31 4.69535 1.86721 0
M  V30 30058 C 3435.51 4.8955 1.57625 0
M  V30 30059 N 3433.49 5.99037 1.34269 0
M  V30 30060 C 3434.86 6.08901 1.16786 0
M  V30 30061 C 3436.92 4.76175 1.45472 0
M  V30 30062 C 3435.62 7.16357 0.650056 0
M  V30 30063 C 3437.65 5.83705 0.950946 0
M  V30 30064 C 3437.01 7.02231 0.552364 0
M  V30 30065 H 3433.11 0.615612 0.482231 0
M  V30 30066 H 3435.69 1.83195 0.659379 0
M  V30 30067 H 3433.86 2.28918 3.13769 0
M  V30 30068 H 3435.6 2.53622 3.1537 0
M  V30 30069 H 3432.35 4.25104 2.08766 0
M  V30 30070 H 3432.78 6.67972 1.10195 0
M  V30 30071 H 3437.42 3.84926 1.74906 0
M  V30 30072 H 3435.14 8.0737 0.343314 0
M  V30 30073 H 3438.72 5.75397 0.860783 0
M  V30 30074 H 3437.6 7.84019 0.168565 0
M  V30 30075 N 3435.1 -0.824347 1.34322 0
M  V30 30076 C 3436.33 -1.61743 1.29823 0
M  V30 30077 C 3436.75 -1.87682 -0.125265 0
M  V30 30078 O 3436.11 -1.45133 -1.08656 0
M  V30 30079 C 3436.16 -2.93619 2.09332 0
M  V30 30080 O 3435.26 -3.85621 1.46187 0
M  V30 30081 H 3434.61 -0.491971 0.445937 0
M  V30 30082 H 3437.14 -1.02449 1.77103 0
M  V30 30083 H 3437.15 -3.43197 2.20635 0
M  V30 30084 H 3435.82 -2.74063 3.12829 0
M  V30 30085 H 3434.4 -3.44134 1.43617 0
M  V30 30086 N 3436.58 -1.18028 -1.04437 0
M  V30 30087 C 3437.81 -0.998716 -1.8177 0
M  V30 30088 C 3438.23 0.448193 -1.82682 0
M  V30 30089 O 3437.59 1.32134 -1.24138 0
M  V30 30090 C 3437.64 -1.55357 -3.25417 0
M  V30 30091 O 3436.74 -0.772422 -4.05102 0
M  V30 30092 H 3436.08 -0.354064 -0.561725 0
M  V30 30093 H 3438.61 -1.56699 -1.31554 0
M  V30 30094 H 3438.62 -1.5791 -3.76203 0
M  V30 30095 H 3437.3 -2.60677 -3.24068 0
M  V30 30096 H 3435.88 -0.818916 -3.63797 0
M  V30 30097 N 3438.06 1.23288 -0.98172 0
M  V30 30098 C 3439.29 1.96312 -0.669059 0
M  V30 30099 C 3439.71 1.72169 0.757594 0
M  V30 30100 O 3439.07 0.993969 1.51624 0
M  V30 30101 C 3439.12 3.47394 -0.966936 0
M  V30 30102 O 3438.22 4.12357 -0.0596658 0
M  V30 30103 H 3437.56 0.614526 -0.251504 0
M  V30 30104 H 3440.09 1.56688 -1.31567 0
M  V30 30105 H 3440.1 3.97855 -0.904182 0
M  V30 30106 H 3438.78 3.64293 -2.00658 0
M  V30 30107 H 3437.35 3.7248 -0.176943 0
M  V30 30108 N 3439.54 0.753533 1.38418 0
M  V30 30109 C 3440.76 0.31921 2.04929 0
M  V30 30110 C 3441.19 -1.04413 1.56459 0
M  V30 30111 O 3440.55 -1.66539 0.716557 0
M  V30 30112 C 3440.59 0.351117 3.58887 0
M  V30 30113 O 3439.7 -0.654892 4.07167 0
M  V30 30114 H 3439.04 0.141354 0.64878 0
M  V30 30115 H 3441.57 1.02464 1.77094 0
M  V30 30116 H 3441.58 0.201978 4.075 0
M  V30 30117 H 3440.25 1.34582 3.93523 0
M  V30 30118 H 3438.83 -0.47037 3.69922 0
M  V30 30119 N 3441.02 -1.49371 0.502605 0
M  V30 30120 C 3442.26 -2.02058 -0.0412637 0
M  V30 30121 C 3442.59 -1.38433 -1.37336 0
M  V30 30122 O 3441.86 -0.540208 -1.88304 0
M  V30 30123 H 3440.44 -0.746777 -0.0182391 0
M  V30 30124 H 3443.1 -1.83377 0.660211 0
M  V30 30125 H 3442.19 -3.11638 -0.169758 0
M  V30 30126 N 3442.49 -0.236508 -1.55815 0
M  V30 30127 C 3443.91 0.118573 -1.59159 0
M  V30 30128 C 3444.11 1.57761 -1.25355 0
M  V30 30129 O 3443.17 2.3203 -0.995904 0
M  V30 30130 C 3444.48 -0.221228 -2.99885 0
M  V30 30131 C 3446.03 -0.164679 -3.12566 0
M  V30 30132 C 3446.5 -0.478365 -4.55495 0
M  V30 30133 N 3447.99 -0.428483 -4.61214 0
M  V30 30134 C 3448.73 -0.644498 -5.69766 0
M  V30 30135 N 3448.22 -0.923087 -6.86623 0
M  V30 30136 N 3450.02 -0.575913 -5.59142 0
M  V30 30137 H 3442.17 -1.18812 -1.76061 0
M  V30 30138 H 3444.43 -0.477312 -0.819071 0
M  V30 30139 H 3444.14 -1.23446 -3.29323 0
M  V30 30140 H 3444.01 0.456657 -3.74426 0
M  V30 30141 H 3446.4 0.839214 -2.82916 0
M  V30 30142 H 3446.48 -0.876261 -2.40323 0
M  V30 30143 H 3446.12 -1.47976 -4.85866 0
M  V30 30144 H 3446.05 0.254578 -5.25984 0
M  V30 30145 H 3448.54 -0.221464 -3.77251 0
M  V30 30146 H 3448.86 -1.07561 -7.65278 0
M  V30 30147 H 3447.2 -0.960446 -6.88332 0
M  V30 30148 H 3450.39 -0.358389 -4.66726 0
M  V30 30149 H 3450.57 -0.747662 -6.43672 0
M  V30 30150 N 3443.97 1.57557 0.0367273 0
M  V30 30151 C 3444.92 2.02518 1.04741 0
M  V30 30152 C 3445.91 0.913139 1.32479 0
M  V30 30153 O 3447.1 1.17705 1.32192 0
M  V30 30154 C 3444.23 2.50179 2.35086 0
M  V30 30155 C 3443.31 3.68188 2.10471 0
M  V30 30156 N 3443.7 4.81178 1.5589 0
M  V30 30157 C 3442 3.75414 2.40791 0
M  V30 30158 C 3442.7 5.62845 1.46904 0
M  V30 30159 N 3441.68 5.0773 1.94193 0
M  V30 30160 H 3445.48 2.87301 0.619291 0
M  V30 30161 H 3443 1.60569 0.243179 0
M  V30 30162 H 3444.99 2.80645 3.08292 0
M  V30 30163 H 3443.65 1.66798 2.78583 0
M  V30 30164 H 3444.66 5.02771 1.24266 0
M  V30 30165 H 3441.34 3.02818 2.87415 0
M  V30 30166 H 3442.73 6.63604 1.05259 0
M  V30 30167 N 3445.45 -0.308854 1.54544 0
M  V30 30168 C 3446.7 -1.04297 1.73109 0
M  V30 30169 C 3447.02 -1.88062 0.515514 0
M  V30 30170 O 3446.29 -1.9017 -0.470327 0
M  V30 30171 H 3444.87 -0.388056 0.638296 0
M  V30 30172 H 3447.53 -0.341735 1.91881 0
M  V30 30173 H 3446.63 -1.70058 2.617 0
M  V30 30174 N 3446.93 -1.46867 -0.571659 0
M  V30 30175 C 3448.15 -1.5658 -1.36005 0
M  V30 30176 C 3448.58 -0.211358 -1.86909 0
M  V30 30177 O 3447.94 0.810392 -1.6218 0
M  V30 30178 C 3447.99 -2.58327 -2.51594 0
M  V30 30179 O 3447.09 -2.12596 -3.53379 0
M  V30 30180 H 3446.43 -0.526506 -0.404584 0
M  V30 30181 H 3448.96 -1.92531 -0.692323 0
M  V30 30182 H 3448.97 -2.78288 -2.98361 0
M  V30 30183 H 3447.65 -3.5668 -2.13898 0
M  V30 30184 H 3446.22 -2.02672 -3.13015 0
M  V30 30185 N 3448.41 0.817212 -1.34757 0
M  V30 30186 C 3449.66 1.57064 -1.27183 0
M  V30 30187 C 3449.98 1.94371 0.156496 0
M  V30 30188 O 3449.25 1.62744 1.09047 0
M  V30 30189 H 3447.83 0.582413 -0.467765 0
M  V30 30190 H 3450.49 0.975409 -1.68736 0
M  V30 30191 H 3449.58 2.49087 -1.88048 0
M  V30 30192 N 3449.89 1.1858 1.0381 0
M  V30 30193 C 3451.11 1.00834 1.81238 0
M  V30 30194 C 3451.54 -0.438498 1.82917 0
M  V30 30195 O 3450.89 -1.31474 1.24837 0
M  V30 30196 C 3450.94 1.57081 3.24589 0
M  V30 30197 O 3450.05 0.793895 4.04686 0
M  V30 30198 H 3449.39 0.357038 0.559839 0
M  V30 30199 H 3451.92 1.57395 1.30721 0
M  V30 30200 H 3451.93 1.59903 3.7536 0
M  V30 30201 H 3450.6 2.62392 3.22681 0
M  V30 30202 H 3449.18 0.838198 3.63357 0
M  V30 30203 N 3451.36 -1.22766 0.988245 0
M  V30 30204 C 3452.61 -1.91013 0.660188 0
M  V30 30205 C 3452.93 -1.77392 -0.809756 0
M  V30 30206 O 3452.2 -1.1582 -1.57996 0
M  V30 30207 H 3450.78 -0.70699 0.241192 0
M  V30 30208 H 3453.44 -1.49222 1.25375 0
M  V30 30209 H 3452.54 -2.98274 0.918656 0
M  V30 30210 N 3452.84 -0.760864 -1.38017 0
M  V30 30211 C 3453.77 -0.0981318 -2.2899 0
M  V30 30212 C 3454.79 0.675959 -1.48103 0
M  V30 30213 O 3455.98 0.515848 -1.70884 0
M  V30 30214 C 3453.08 0.884902 -3.27143 0
M  V30 30215 C 3452.25 0.166924 -4.37081 0
M  V30 30216 C 3451.31 1.06175 -5.15377 0
M  V30 30217 O 3450.33 0.529568 -5.66731 0
M  V30 30218 N 3451.54 2.38914 -5.29056 0
M  V30 30219 H 3454.3 -0.879453 -2.86506 0
M  V30 30220 H 3451.86 -0.612271 -1.49876 0
M  V30 30221 H 3453.85 1.48672 -3.76402 0
M  V30 30222 H 3452.42 1.56726 -2.70473 0
M  V30 30223 H 3451.64 -0.615685 -3.89362 0
M  V30 30224 H 3452.93 -0.329614 -5.07731 0
M  V30 30225 H 3452.33 2.84599 -4.88897 0
M  V30 30226 H 3450.89 2.94128 -5.81663 0
M  V30 30227 N 3454.32 1.49102 -0.510519 0
M  V30 30228 C 3455.54 2.07379 0.0292749 0
M  V30 30229 C 3455.97 1.36715 1.29192 0
M  V30 30230 O 3455.33 0.426869 1.76203 0
M  V30 30231 C 3455.38 3.59689 0.256227 0
M  V30 30232 O 3454.48 3.90399 1.329 0
M  V30 30233 H 3453.82 0.663301 -0.0304565 0
M  V30 30234 H 3456.35 1.9178 -0.712866 0
M  V30 30235 H 3456.36 4.05109 0.484843 0
M  V30 30236 H 3455.04 4.10529 -0.666235 0
M  V30 30237 H 3453.61 3.56779 1.08458 0
M  V30 30238 N 3455.8 0.244768 1.55688 0
M  V30 30239 C 3457.02 -0.38774 2.03743 0
M  V30 30240 C 3457.45 -1.50904 1.12293 0
M  V30 30241 O 3456.81 -1.80932 0.115477 0
M  V30 30242 C 3456.85 -0.874866 3.49826 0
M  V30 30243 O 3455.96 -1.9846 3.61507 0
M  V30 30244 H 3455.3 -0.0847992 0.658563 0
M  V30 30245 H 3457.83 0.3702 2.01223 0
M  V30 30246 H 3457.84 -1.17864 3.90605 0
M  V30 30247 H 3456.51 -0.0543121 4.15865 0
M  V30 30248 H 3455.09 -1.68568 3.32625 0
M  V30 30249 N 3457.28 -1.57574 -0.0283712 0
M  V30 30250 C 3458.52 -1.8893 -0.717623 0
M  V30 30251 C 3458.84 -0.842548 -1.75858 0
M  V30 30252 O 3458.11 0.123739 -1.95509 0
M  V30 30253 H 3456.69 -0.697255 -0.268038 0
M  V30 30254 H 3459.36 -1.94899 0.00584117 0
M  V30 30255 H 3458.45 -2.87826 -1.20675 0
M  V30 30256 N 3458.75 0.300654 -1.54706 0
M  V30 30257 C 3460 1.03582 -1.74003 0
M  V30 30258 C 3460.33 1.87252 -0.526005 0
M  V30 30259 O 3459.58 1.89414 0.492035 0
M  V30 30260 C 3459.88 1.97042 -2.98176 0
M  V30 30261 C 3459.55 1.29345 -4.3195 0
M  V30 30262 C 3458.21 1.10615 -4.68314 0
M  V30 30263 C 3460.56 0.809504 -5.14875 0
M  V30 30264 C 3457.89 0.421747 -5.85182 0
M  V30 30265 C 3460.24 0.138823 -6.32448 0
M  V30 30266 C 3458.91 -0.0604302 -6.67473 0
M  V30 30267 H 3458.18 0.379032 -0.636722 0
M  V30 30268 H 3460.82 0.310664 -1.88963 0
M  V30 30269 H 3459.13 2.76087 -2.77999 0
M  V30 30270 H 3460.83 2.53996 -3.10302 0
M  V30 30271 H 3457.42 1.4493 -4.03353 0
M  V30 30272 H 3461.6 0.94192 -4.8728 0
M  V30 30273 H 3456.86 0.256387 -6.10862 0
M  V30 30274 H 3461.03 -0.244061 -6.95972 0
M  V30 30275 H 3458.66 -0.592759 -7.57885 0
M  V30 30276 N 3460.23 1.47168 0.563863 0
M  V30 30277 C 3461.48 1.53148 1.31872 0
M  V30 30278 C 3461.8 0.192552 1.94047 0
M  V30 30279 O 3461.07 -0.782841 1.79578 0
M  V30 30280 H 3459.65 0.564108 0.489684 0
M  V30 30281 H 3462.31 1.83423 0.658944 0
M  V30 30282 H 3461.41 2.29444 2.1157 0
M  V30 30283 N 3461.71 -0.810054 1.35188 0
M  V30 30284 C 3462.66 -1.91092 1.2437 0
M  V30 30285 C 3463.64 -1.60292 0.139746 0
M  V30 30286 O 3464.84 -1.73076 0.37064 0
M  V30 30287 C 3461.97 -3.27971 1.0144 0
M  V30 30288 C 3461.05 -3.64848 2.1621 0
M  V30 30289 N 3461.44 -3.73189 3.41414 0
M  V30 30290 C 3459.74 -3.94781 2.07519 0
M  V30 30291 C 3460.44 -4.05707 4.16865 0
M  V30 30292 N 3459.42 -4.19608 3.45586 0
M  V30 30293 H 3463.22 -1.95737 2.19235 0
M  V30 30294 H 3460.73 -1.00445 1.27611 0
M  V30 30295 H 3462.73 -4.06672 0.917781 0
M  V30 30296 H 3461.39 -3.24614 0.0745521 0
M  V30 30297 H 3462.4 -3.56354 3.75808 0
M  V30 30298 H 3459.08 -3.99469 1.21369 0
M  V30 30299 H 3460.47 -4.19257 5.25046 0
M  V30 30300 N 3463.19 -1.19129 -1.0318 0
M  V30 30301 C 3464.14 -0.894209 -2.09733 0
M  V30 30302 C 3465.12 0.139777 -1.60292 0
M  V30 30303 O 3466.31 -0.065508 -1.76879 0
M  V30 30304 C 3463.44 -0.431478 -3.40578 0
M  V30 30305 C 3462.53 -1.49804 -3.96761 0
M  V30 30306 N 3462.92 -2.71675 -4.26645 0
M  V30 30307 C 3461.22 -1.36064 -4.24738 0
M  V30 30308 C 3461.92 -3.4036 -4.71731 0
M  V30 30309 N 3460.9 -2.67751 -4.73086 0
M  V30 30310 H 3464.7 -1.82051 -2.30726 0
M  V30 30311 H 3462.21 -1.08302 -1.21014 0
M  V30 30312 H 3464.21 -0.200113 -4.16419 0
M  V30 30313 H 3462.87 0.488376 -3.21006 0
M  V30 30314 H 3463.88 -3.08464 -4.16017 0
M  V30 30315 H 3460.56 -0.50402 -4.14446 0
M  V30 30316 H 3461.95 -4.44563 -5.03799 0
M  V30 30317 N 3464.67 1.2224 -0.994741 0
M  V30 30318 C 3465.58 2.27927 -0.555542 0
M  V30 30319 C 3466.59 1.69421 0.396554 0
M  V30 30320 O 3467.77 1.99676 0.26293 0
M  V30 30321 C 3464.83 3.46489 0.12106 0
M  V30 30322 C 3463.89 4.20304 -0.874229 0
M  V30 30323 C 3463.13 5.33205 -0.22982 0
M  V30 30324 O 3463.35 5.61991 0.975836 0
M  V30 30325 O 3462.28 5.94584 -0.935606 0
M  V30 30326 H 3466.11 2.67667 -1.43485 0
M  V30 30327 H 3463.7 1.28442 -0.763084 0
M  V30 30328 H 3465.58 4.18424 0.49997 0
M  V30 30329 H 3464.25 3.0867 0.974905 0
M  V30 30330 H 3463.16 3.50634 -1.30411 0
M  V30 30331 H 3464.49 4.62008 -1.69733 0
M  V30 30332 N 3466.14 0.768172 1.37611 0
M  V30 30333 C 3467.37 0.340928 2.04579 0
M  V30 30334 C 3467.79 -1.02748 1.57558 0
M  V30 30335 O 3467.15 -1.65769 0.73418 0
M  V30 30336 C 3467.2 0.389162 3.58494 0
M  V30 30337 O 3466.3 -0.611669 4.07839 0
M  V30 30338 H 3465.65 0.148228 0.647244 0
M  V30 30339 H 3468.18 1.04337 1.75997 0
M  V30 30340 H 3468.19 0.245188 4.07263 0
M  V30 30341 H 3466.86 1.38749 3.92073 0
M  V30 30342 H 3465.44 -0.431108 3.704 0
M  V30 30343 N 3467.62 -1.48829 0.518419 0
M  V30 30344 C 3468.85 -2.07392 -0.0182766 0
M  V30 30345 C 3469.27 -1.37398 -1.28465 0
M  V30 30346 O 3468.63 -0.436208 -1.75974 0
M  V30 30347 C 3468.68 -3.59819 -0.237148 0
M  V30 30348 O 3467.78 -3.91098 -1.30828 0
M  V30 30349 H 3467.12 -0.66313 0.0339737 0
M  V30 30350 H 3469.65 -1.91399 0.723027 0
M  V30 30351 H 3469.66 -4.0536 -0.463353 0
M  V30 30352 H 3468.34 -4.1017 0.687997 0
M  V30 30353 H 3466.92 -3.57349 -1.06565 0
M  V30 30354 N 3469.1 -0.253021 -1.55556 0
M  V30 30355 C 3470.33 0.37693 -2.03946 0
M  V30 30356 C 3470.75 1.50306 -1.13091 0
M  V30 30357 O 3470.11 1.80868 -0.125071 0
M  V30 30358 C 3470.16 0.856301 -3.50285 0
M  V30 30359 O 3469.26 1.9654 -3.62555 0
M  V30 30360 H 3468.6 0.0813055 -0.659003 0
M  V30 30361 H 3471.13 -0.380866 -2.01024 0
M  V30 30362 H 3471.14 1.15791 -3.91224 0
M  V30 30363 H 3469.82 0.0322571 -4.15887 0
M  V30 30364 H 3468.39 1.66802 -3.33514 0
M  V30 30365 N 3470.58 1.57587 0.0200142 0
M  V30 30366 C 3471.82 1.90809 0.704518 0
M  V30 30367 C 3472.18 0.852598 1.72478 0
M  V30 30368 O 3471.47 -0.137648 1.91105 0
M  V30 30369 C 3471.67 3.28529 1.40724 0
M  V30 30370 C 3471.5 4.47376 0.456556 0
M  V30 30371 C 3470.27 5.05245 0.074275 0
M  V30 30372 C 3472.46 5.13597 -0.268858 0
M  V30 30373 N 3470.45 6.07608 -0.876713 0
M  V30 30374 C 3471.82 6.10606 -1.0752 0
M  V30 30375 C 3473.87 4.96773 -0.334835 0
M  V30 30376 C 3472.57 6.92603 -1.94147 0
M  V30 30377 C 3474.6 5.7934 -1.18826 0
M  V30 30378 C 3473.96 6.75926 -1.9825 0
M  V30 30379 H 3470.06 0.746911 0.231619 0
M  V30 30380 H 3472.65 1.94667 -0.0356287 0
M  V30 30381 H 3470.82 3.25583 2.11779 0
M  V30 30382 H 3472.55 3.49239 2.04484 0
M  V30 30383 H 3469.3 4.71567 0.438397 0
M  V30 30384 H 3469.73 6.63465 -1.34698 0
M  V30 30385 H 3474.37 4.21969 0.264921 0
M  V30 30386 H 3472.09 7.66746 -2.55198 0
M  V30 30387 H 3475.67 5.68368 -1.24296 0
M  V30 30388 H 3474.55 7.38705 -2.63221 0
M  V30 30389 N 3472.06 -0.292445 1.54863 0
M  V30 30390 C 3472.99 -1.38278 1.82789 0
M  V30 30391 C 3474 -1.4644 0.711278 0
M  V30 30392 O 3475.19 -1.48605 0.988878 0
M  V30 30393 C 3472.29 -2.76579 1.9585 0
M  V30 30394 C 3471.46 -2.91246 3.26335 0
M  V30 30395 C 3470.52 -4.10099 3.29705 0
M  V30 30396 O 3469.55 -4.01778 4.03191 0
M  V30 30397 N 3470.75 -5.21146 2.55709 0
M  V30 30398 H 3473.52 -1.14675 2.76893 0
M  V30 30399 H 3471.08 -0.482534 1.54542 0
M  V30 30400 H 3473.07 -3.54349 1.95497 0
M  V30 30401 H 3471.64 -2.93092 1.08702 0
M  V30 30402 H 3470.86 -2.00519 3.3939 0
M  V30 30403 H 3472.15 -2.97963 4.12426 0
M  V30 30404 H 3471.54 -5.30789 1.95652 0
M  V30 30405 H 3470.1 -5.97219 2.611 0
M  V30 30406 N 3473.53 -1.47465 -0.55605 0
M  V30 30407 C 3474.76 -1.58014 -1.34337 0
M  V30 30408 C 3475.18 -0.231171 -1.86674 0
M  V30 30409 O 3474.54 0.793145 -1.6303 0
M  V30 30410 C 3474.59 -2.60981 -2.4884 0
M  V30 30411 O 3473.69 -2.16332 -3.51104 0
M  V30 30412 H 3473.04 -0.530767 -0.398977 0
M  V30 30413 H 3475.57 -1.93254 -0.671864 0
M  V30 30414 H 3475.58 -2.81437 -2.95393 0
M  V30 30415 H 3474.25 -3.58928 -2.10103 0
M  V30 30416 H 3472.83 -2.0598 -3.10848 0
M  V30 30417 N 3475.01 0.802873 -1.35616 0
M  V30 30418 C 3476.24 1.59657 -1.3238 0
M  V30 30419 C 3476.66 1.87858 0.0953905 0
M  V30 30420 O 3476.02 1.46843 1.06333 0
M  V30 30421 C 3476.07 2.90252 -2.13977 0
M  V30 30422 O 3475.17 3.83246 -1.52303 0
M  V30 30423 H 3474.51 0.484815 -0.453708 0
M  V30 30424 H 3477.04 0.996186 -1.7871 0
M  V30 30425 H 3477.05 3.39643 -2.26067 0
M  V30 30426 H 3475.73 2.69052 -3.1715 0
M  V30 30427 H 3474.31 3.41806 -1.49074 0
M  V30 30428 N 3476.49 1.19674 1.02547 0
M  V30 30429 C 3477.74 0.999494 1.75655 0
M  V30 30430 C 3478.06 -0.470484 1.89239 0
M  V30 30431 O 3477.33 -1.34059 1.42846 0
M  V30 30432 H 3475.91 0.366832 0.650725 0
M  V30 30433 H 3478.57 1.50629 1.23681 0
M  V30 30434 H 3477.67 1.4504 2.76351 0
M  V30 30435 N 3477.97 -1.21711 1.00121 0
M  V30 30436 C 3479.2 -1.944 0.69945 0
M  V30 30437 C 3479.61 -1.74071 -0.741346 0
M  V30 30438 O 3478.95 -1.04206 -1.51284 0
M  V30 30439 C 3479.01 -3.47103 0.935936 0
M  V30 30440 C 3478.68 -3.91177 2.36283 0
M  V30 30441 C 3479.67 -3.98184 3.34283 0
M  V30 30442 C 3477.36 -4.23596 2.69948 0
M  V30 30443 C 3479.35 -4.36997 4.64018 0
M  V30 30444 C 3477.04 -4.62087 3.99899 0
M  V30 30445 C 3478.04 -4.68757 4.96745 0
M  V30 30446 O 3477.73 -5.06373 6.24373 0
M  V30 30447 H 3477.46 -0.625141 0.257244 0
M  V30 30448 H 3480.01 -1.55583 1.34101 0
M  V30 30449 H 3478.24 -3.85972 0.237201 0
M  V30 30450 H 3479.93 -4.0101 0.628146 0
M  V30 30451 H 3480.7 -3.73319 3.09609 0
M  V30 30452 H 3476.58 -4.17604 1.95264 0
M  V30 30453 H 3480.12 -4.42118 5.39608 0
M  V30 30454 H 3476.02 -4.86405 4.24359 0
M  V30 30455 H 3476.78 -5.24418 6.28433 0
M  V30 30456 N 3479.45 -0.775459 -1.37202 0
M  V30 30457 C 3480.68 -0.352963 -2.03867 0
M  V30 30458 C 3481.09 1.02607 -1.58484 0
M  V30 30459 O 3480.45 1.65563 -0.767801 0
M  V30 30460 C 3480.5 -0.391223 -3.59377 0
M  V30 30461 O 3480.22 -1.71586 -4.031 0
M  V30 30462 C 3481.72 0.0424029 -4.4328 0
M  V30 30463 H 3478.94 -0.147371 -0.654616 0
M  V30 30464 H 3481.48 -1.05042 -1.75461 0
M  V30 30465 H 3479.64 0.257684 -3.86542 0
M  V30 30466 H 3480.05 -1.65704 -4.97637 0
M  V30 30467 H 3481.53 -0.0355186 -5.51989 0
M  V30 30468 H 3482 1.09326 -4.25376 0
M  V30 30469 H 3482.61 -0.578458 -4.21348 0
M  V30 30470 N 3480.93 1.48552 -0.526305 0
M  V30 30471 C 3481.86 2.27538 0.275539 0
M  V30 30472 C 3482.87 1.3514 0.907796 0
M  V30 30473 O 3484.06 1.60221 0.786859 0
M  V30 30474 C 3481.16 3.08399 1.4051 0
M  V30 30475 C 3480.33 4.28549 0.875448 0
M  V30 30476 C 3479.39 4.91252 1.88568 0
M  V30 30477 O 3478.42 5.50577 1.44409 0
M  V30 30478 N 3479.62 4.83164 3.21765 0
M  V30 30479 H 3482.38 2.96994 -0.401855 0
M  V30 30480 H 3479.95 1.57838 -0.360406 0
M  V30 30481 H 3481.94 3.47217 2.079 0
M  V30 30482 H 3480.51 2.41388 1.98622 0
M  V30 30483 H 3479.73 3.94192 0.0256587 0
M  V30 30484 H 3481.02 5.06333 0.500404 0
M  V30 30485 H 3480.41 4.3611 3.60311 0
M  V30 30486 H 3478.97 5.26092 3.84799 0
M  V30 30487 N 3482.4 0.261267 1.55419 0
M  V30 30488 C 3483.35 -0.646404 2.18645 0
M  V30 30489 C 3484.34 -1.12866 1.14674 0
M  V30 30490 O 3485.53 -1.07604 1.40536 0
M  V30 30491 C 3482.66 -1.8365 2.90048 0
M  V30 30492 C 3481.74 -1.37207 4.01292 0
M  V30 30493 N 3482.14 -0.622839 5.01951 0
M  V30 30494 C 3480.43 -1.65618 4.14109 0
M  V30 30495 C 3481.13 -0.380467 5.80454 0
M  V30 30496 N 3480.11 -0.948875 5.35254 0
M  V30 30497 H 3483.91 -0.0659832 2.93826 0
M  V30 30498 H 3481.43 0.0642079 1.62273 0
M  V30 30499 H 3483.42 -2.4979 3.33782 0
M  V30 30500 H 3482.08 -2.421 2.16374 0
M  V30 30501 H 3483.09 -0.271528 5.17188 0
M  V30 30502 H 3479.77 -2.25104 3.51617 0
M  V30 30503 H 3481.16 0.218646 6.71544 0
M  V30 30504 N 3483.88 -1.57596 -0.0116567 0
M  V30 30505 C 3485.13 -1.89681 -0.697544 0
M  V30 30506 C 3485.45 -0.861153 -1.74955 0
M  V30 30507 O 3484.72 0.102996 -1.95629 0
M  V30 30508 H 3483.3 -0.700059 -0.260628 0
M  V30 30509 H 3485.96 -1.94882 0.0265125 0
M  V30 30510 H 3485.06 -2.8909 -1.17616 0
M  V30 30511 N 3485.36 0.284228 -1.55016 0
M  V30 30512 C 3486.58 1.04013 -1.79433 0
M  V30 30513 C 3487.01 1.79562 -0.560286 0
M  V30 30514 O 3486.37 1.74559 0.489773 0
M  V30 30515 C 3486.42 1.98323 -3.01165 0
M  V30 30516 O 3485.52 3.06909 -2.75464 0
M  V30 30517 H 3484.86 0.297955 -0.593396 0
M  V30 30518 H 3487.39 0.316549 -2.02136 0
M  V30 30519 H 3487.4 2.40483 -3.29593 0
M  V30 30520 H 3486.08 1.42744 -3.90637 0
M  V30 30521 H 3484.65 2.69144 -2.58101 0
M  V30 30522 N 3486.84 1.47758 0.548222 0
M  V30 30523 C 3488.09 1.54538 1.3024 0
M  V30 30524 C 3488.41 0.213123 1.93832 0
M  V30 30525 O 3487.68 -0.76375 1.80399 0
M  V30 30526 H 3486.26 0.56927 0.483674 0
M  V30 30527 H 3488.92 1.84111 0.639453 0
M  V30 30528 H 3488.01 2.31675 2.09124 0
M  V30 30529 N 3488.32 -0.79567 1.3604 0
M  V30 30530 C 3489.54 -1.58953 1.33225 0
M  V30 30531 C 3489.97 -1.87906 -0.0854266 0
M  V30 30532 O 3489.32 -1.47405 -1.05553 0
M  V30 30533 C 3489.37 -2.89113 2.15513 0
M  V30 30534 O 3488.48 -3.82433 1.54333 0
M  V30 30535 H 3487.82 -0.482402 0.456272 0
M  V30 30536 H 3490.35 -0.986695 1.79236 0
M  V30 30537 H 3490.36 -3.3844 2.27865 0
M  V30 30538 H 3489.03 -2.67366 3.18572 0
M  V30 30539 H 3487.61 -3.41011 1.50885 0
M  V30 30540 N 3489.79 -1.20217 -1.0191 0
M  V30 30541 C 3491.04 -1.0088 -1.75122 0
M  V30 30542 C 3491.36 0.460441 -1.89486 0
M  V30 30543 O 3490.63 1.333 -1.43555 0
M  V30 30544 H 3489.21 -0.370278 -0.648771 0
M  V30 30545 H 3491.88 -1.51282 -1.22881 0
M  V30 30546 H 3490.97 -1.46504 -2.75578 0
M  V30 30547 N 3491.27 1.21178 -1.00765 0
M  V30 30548 C 3492.22 2.21482 -0.541257 0
M  V30 30549 C 3493.21 1.55885 0.398569 0
M  V30 30550 O 3494.4 1.7559 0.22299 0
M  V30 30551 C 3491.53 3.43061 0.128085 0
M  V30 30552 C 3490.61 4.1584 -0.832918 0
M  V30 30553 N 3491 4.65144 -1.98682 0
M  V30 30554 C 3489.3 4.41211 -0.651856 0
M  V30 30555 C 3490 5.20799 -2.59121 0
M  V30 30556 N 3488.98 5.10329 -1.87258 0
M  V30 30557 H 3492.78 2.57259 -1.42109 0
M  V30 30558 H 3490.3 1.37015 -0.87182 0
M  V30 30559 H 3492.29 4.14131 0.479698 0
M  V30 30560 H 3490.95 3.08792 1.00387 0
M  V30 30561 H 3491.96 4.6064 -2.36709 0
M  V30 30562 H 3488.64 4.17126 0.176627 0
M  V30 30563 H 3490.03 5.69384 -3.56723 0
M  V30 30564 N 3492.75 0.782725 1.36789 0
M  V30 30565 C 3493.98 0.362607 2.04206 0
M  V30 30566 C 3494.4 -1.01071 1.58639 0
M  V30 30567 O 3493.76 -1.64981 0.751721 0
M  V30 30568 C 3493.81 0.427163 3.58061 0
M  V30 30569 O 3492.91 -0.568378 4.08464 0
M  V30 30570 H 3492.25 0.155084 0.645635 0
M  V30 30571 H 3494.78 1.06197 1.74881 0
M  V30 30572 H 3494.79 0.28837 4.0698 0
M  V30 30573 H 3493.47 1.42899 3.9058 0
M  V30 30574 H 3492.04 -0.391798 3.70836 0
M  V30 30575 N 3494.23 -1.48271 0.534176 0
M  V30 30576 C 3495.45 -2.074 0.00372109 0
M  V30 30577 C 3495.88 -1.38753 -1.27001 0
M  V30 30578 O 3495.24 -0.454848 -1.75502 0
M  V30 30579 C 3495.28 -3.60051 -0.198971 0
M  V30 30580 O 3494.39 -3.92464 -1.26672 0
M  V30 30581 H 3493.73 -0.662733 0.0410052 0
M  V30 30582 H 3496.26 -1.90621 0.743286 0
M  V30 30583 H 3496.27 -4.05829 -0.420333 0
M  V30 30584 H 3494.94 -4.09417 0.731463 0
M  V30 30585 H 3493.52 -3.58459 -1.02768 0
M  V30 30586 N 3495.71 -0.269505 -1.55279 0
M  V30 30587 C 3496.93 0.355277 -2.04334 0
M  V30 30588 C 3497.36 1.49098 -1.14679 0
M  V30 30589 O 3496.71 1.80725 -0.144247 0
M  V30 30590 C 3496.76 0.819101 -3.51174 0
M  V30 30591 O 3495.87 1.92684 -3.64619 0
M  V30 30592 H 3495.21 0.0743113 -0.659829 0
M  V30 30593 H 3497.74 -0.402166 -2.00609 0
M  V30 30594 H 3497.75 1.11635 -3.9243 0
M  V30 30595 H 3496.42 -0.0118552 -4.15898 0
M  V30 30596 H 3495 1.63255 -3.35264 0
M  V30 30597 N 3497.18 1.576 0.00329885 0
M  V30 30598 C 3498.41 1.9442 0.698896 0
M  V30 30599 C 3498.82 0.869829 1.6802 0
M  V30 30600 O 3498.17 -0.160161 1.83 0
M  V30 30601 C 3498.23 3.27207 1.48915 0
M  V30 30602 C 3497.89 4.52065 0.669794 0
M  V30 30603 C 3498.89 5.19884 -0.0411071 0
M  V30 30604 C 3496.57 4.98499 0.616737 0
M  V30 30605 C 3498.57 6.32434 -0.794087 0
M  V30 30606 C 3496.25 6.1094 -0.139971 0
M  V30 30607 C 3497.25 6.77764 -0.84412 0
M  V30 30608 O 3496.94 7.8805 -1.58849 0
M  V30 30609 H 3496.67 0.645789 0.199832 0
M  V30 30610 H 3499.23 2.05355 -0.0429395 0
M  V30 30611 H 3497.46 3.12671 2.27539 0
M  V30 30612 H 3499.15 3.49164 2.06977 0
M  V30 30613 H 3499.91 4.84999 -0.00924806 0
M  V30 30614 H 3495.79 4.46314 1.15434 0
M  V30 30615 H 3499.33 6.84526 -1.34423 0
M  V30 30616 H 3495.23 6.45266 -0.173663 0
M  V30 30617 H 3496 8.04547 -1.50485 0
M  V30 30618 N 3498.66 -0.276003 1.55164 0
M  V30 30619 C 3499.57 -1.36318 1.90931 0
M  V30 30620 C 3500.59 -1.54196 0.80621 0
M  V30 30621 O 3501.76 -1.6838 1.105 0
M  V30 30622 C 3498.83 -2.70289 2.17128 0
M  V30 30623 C 3497.89 -2.61184 3.40707 0
M  V30 30624 C 3497.12 -3.88766 3.65645 0
M  V30 30625 O 3497.35 -4.89308 2.93145 0
M  V30 30626 O 3496.28 -3.89151 4.59179 0
M  V30 30627 H 3500.11 -1.08983 2.83472 0
M  V30 30628 H 3497.69 -0.474267 1.41672 0
M  V30 30629 H 3499.57 -3.4951 2.35416 0
M  V30 30630 H 3498.25 -2.97416 1.2777 0
M  V30 30631 H 3497.16 -1.80349 3.27757 0
M  V30 30632 H 3498.49 -2.39007 4.30275 0
M  V30 30633 N 3500.14 -1.48046 -0.540378 0
M  V30 30634 C 3501.07 -1.5787 -1.66161 0
M  V30 30635 C 3502.09 -0.463683 -1.56057 0
M  V30 30636 O 3503.27 -0.734066 -1.62707 0
M  V30 30637 C 3500.37 -1.48269 -3.04745 0
M  V30 30638 C 3499.55 -2.74631 -3.40436 0
M  V30 30639 C 3498.61 -2.58629 -4.58255 0
M  V30 30640 O 3497.63 -3.32491 -4.61994 0
M  V30 30641 N 3498.83 -1.67561 -5.55791 0
M  V30 30642 H 3501.6 -2.5456 -1.58175 0
M  V30 30643 H 3499.16 -1.44638 -0.727415 0
M  V30 30644 H 3501.15 -1.35273 -3.81423 0
M  V30 30645 H 3499.72 -0.595946 -3.06867 0
M  V30 30646 H 3498.94 -3.02266 -2.53039 0
M  V30 30647 H 3500.23 -3.58485 -3.61062 0
M  V30 30648 H 3499.63 -1.06735 -5.55539 0
M  V30 30649 H 3498.19 -1.6051 -6.31728 0
M  V30 30650 N 3501.62 0.788444 -1.3646 0
M  V30 30651 C 3502.57 1.89089 -1.27394 0
M  V30 30652 C 3503.55 1.60049 -0.165229 0
M  V30 30653 O 3504.74 1.72464 -0.398128 0
M  V30 30654 C 3501.87 3.26316 -1.06645 0
M  V30 30655 C 3500.96 3.61362 -2.21987 0
M  V30 30656 N 3501.35 3.6771 -3.47308 0
M  V30 30657 C 3499.65 3.91429 -2.13774 0
M  V30 30658 C 3500.35 3.99024 -4.23267 0
M  V30 30659 N 3499.33 4.14057 -3.52218 0
M  V30 30660 H 3503.13 1.92225 -2.22321 0
M  V30 30661 H 3500.64 0.984017 -1.29193 0
M  V30 30662 H 3502.64 4.05161 -0.982363 0
M  V30 30663 H 3501.3 3.24455 -0.126186 0
M  V30 30664 H 3502.31 3.50331 -3.8143 0
M  V30 30665 H 3498.99 3.97488 -1.27709 0
M  V30 30666 H 3500.38 4.10851 -5.3165 0
M  V30 30667 N 3503.1 1.20755 1.01271 0
M  V30 30668 C 3504.34 1.01807 1.74585 0
M  V30 30669 C 3504.67 -0.450386 1.89728 0
M  V30 30670 O 3503.94 -1.32537 1.4426 0
M  V30 30671 H 3502.52 0.373713 0.646798 0
M  V30 30672 H 3505.18 1.51932 1.22076 0
M  V30 30673 H 3504.27 1.47963 2.74797 0
M  V30 30674 N 3504.58 -1.20642 1.01406 0
M  V30 30675 C 3505.8 -1.94469 0.720873 0
M  V30 30676 C 3506.23 -1.74117 -0.71168 0
M  V30 30677 O 3505.58 -1.03382 -1.48936 0
M  V30 30678 C 3505.63 -3.44708 1.0587 0
M  V30 30679 O 3504.74 -4.12054 0.168974 0
M  V30 30680 H 3504.08 -0.607641 0.267709 0
M  V30 30681 H 3506.61 -1.53145 1.35675 0
M  V30 30682 H 3506.62 -3.95318 1.00935 0
M  V30 30683 H 3505.29 -3.58845 2.10246 0
M  V30 30684 H 3503.87 -3.7188 0.275638 0
M  V30 30685 N 3506.05 -0.789968 -1.36372 0
M  V30 30686 C 3507.47 -0.471713 -1.5247 0
M  V30 30687 C 3507.67 1.00987 -1.74367 0
M  V30 30688 O 3506.73 1.79535 -1.77549 0
M  V30 30689 C 3508.04 -1.30263 -2.7102 0
M  V30 30690 C 3509.59 -1.29638 -2.84891 0
M  V30 30691 C 3510.06 -2.11105 -4.06446 0
M  V30 30692 N 3511.55 -2.08554 -4.13593 0
M  V30 30693 C 3512.29 -2.68359 -5.06726 0
M  V30 30694 N 3511.78 -3.37024 -6.05299 0
M  V30 30695 N 3513.58 -2.5809 -4.99346 0
M  V30 30696 H 3505.73 -1.7497 -1.20413 0
M  V30 30697 H 3507.99 -0.743795 -0.587769 0
M  V30 30698 H 3507.7 -2.35334 -2.61363 0
M  V30 30699 H 3507.57 -0.944318 -3.65188 0
M  V30 30700 H 3509.96 -0.253594 -2.94008 0
M  V30 30701 H 3510.04 -1.69446 -1.91629 0
M  V30 30702 H 3509.68 -3.15415 -3.9809 0
M  V30 30703 H 3509.61 -1.68667 -4.98858 0
M  V30 30704 H 3512.1 -1.58579 -3.43017 0
M  V30 30705 H 3512.42 -3.79986 -6.72927 0
M  V30 30706 H 3510.76 -3.41126 -6.05523 0
M  V30 30707 H 3513.95 -2.04046 -4.21287 0
M  V30 30708 H 3514.13 -3.04989 -5.71739 0
M  V30 30709 N 3507.53 1.47986 -0.542031 0
M  V30 30710 C 3508.76 2.07395 -0.0147199 0
M  V30 30711 C 3509.18 1.39424 1.26263 0
M  V30 30712 O 3508.54 0.464149 1.75258 0
M  V30 30713 C 3508.59 3.60151 0.179874 0
M  V30 30714 O 3507.69 3.9313 1.24589 0
M  V30 30715 H 3507.03 0.662506 -0.0445193 0
M  V30 30716 H 3509.56 1.90224 -0.753385 0
M  V30 30717 H 3509.57 4.06046 0.398805 0
M  V30 30718 H 3508.25 4.09024 -0.753165 0
M  V30 30719 H 3506.82 3.58999 1.00866 0
M  V30 30720 N 3509.01 0.277736 1.55133 0
M  V30 30721 C 3510.26 -0.337627 1.9926 0
M  V30 30722 C 3510.58 -1.56181 1.16758 0
M  V30 30723 O 3509.85 -1.94197 0.257741 0
M  V30 30724 H 3508.43 -0.127738 0.735997 0
M  V30 30725 H 3511.09 0.383679 1.91086 0
M  V30 30726 H 3510.19 -0.625693 3.05764 0
M  V30 30727 N 3510.49 -1.57599 0.00505908 0
M  V30 30728 C 3511.42 -2.056 -1.01299 0
M  V30 30729 C 3512.43 -0.974852 -1.30386 0
M  V30 30730 O 3513.62 -1.25155 -1.27273 0
M  V30 30731 C 3510.72 -2.44526 -2.34649 0
M  V30 30732 C 3509.89 -3.75434 -2.24429 0
M  V30 30733 C 3508.95 -4.01172 -3.4051 0
M  V30 30734 O 3507.98 -4.71768 -3.18471 0
M  V30 30735 N 3509.18 -3.49462 -4.63526 0
M  V30 30736 H 3511.95 -2.93559 -0.603604 0
M  V30 30737 H 3509.51 -1.60871 -0.18222 0
M  V30 30738 H 3511.5 -2.58855 -3.11089 0
M  V30 30739 H 3510.07 -1.62059 -2.67312 0
M  V30 30740 H 3509.29 -3.71133 -1.32868 0
M  V30 30741 H 3510.58 -4.61246 -2.14778 0
M  V30 30742 H 3509.98 -2.92304 -4.84329 0
M  V30 30743 H 3508.53 -3.69113 -5.37214 0
M  V30 30744 N 3511.97 0.267771 -1.55309 0
M  V30 30745 C 3513.19 1.02104 -1.80526 0
M  V30 30746 C 3513.62 1.78957 -0.579299 0
M  V30 30747 O 3512.97 1.75069 0.471231 0
M  V30 30748 C 3513.02 1.95117 -3.03252 0
M  V30 30749 O 3512.13 3.0397 -2.78704 0
M  V30 30750 H 3511.47 0.291644 -0.596523 0
M  V30 30751 H 3514 0.295092 -2.02461 0
M  V30 30752 H 3514.01 2.36974 -3.32126 0
M  V30 30753 H 3512.68 1.38593 -3.92129 0
M  V30 30754 H 3511.26 2.66391 -2.60941 0
M  V30 30755 N 3513.44 1.48331 0.532519 0
M  V30 30756 C 3514.67 1.60131 1.31806 0
M  V30 30757 C 3515.09 0.26084 1.86283 0
M  V30 30758 O 3514.45 -0.767108 1.64272 0
M  V30 30759 C 3514.5 2.64907 2.44656 0
M  V30 30760 O 3513.6 2.21891 3.47618 0
M  V30 30761 H 3512.94 0.537047 0.390482 0
M  V30 30762 H 3515.47 1.94299 0.641034 0
M  V30 30763 H 3515.48 2.86101 2.90878 0
M  V30 30764 H 3514.16 3.62225 2.04366 0
M  V30 30765 H 3512.74 2.10899 3.07532 0
M  V30 30766 N 3514.92 -0.781196 1.36876 0
M  V30 30767 C 3516.34 -1.08042 1.17469 0
M  V30 30768 C 3516.54 -2.015 0.00438341 0
M  V30 30769 O 3515.59 -2.43763 -0.658456 0
M  V30 30770 C 3516.91 -1.687 2.4892 0
M  V30 30771 C 3518.45 -1.81002 2.55357 0
M  V30 30772 C 3518.93 -2.45074 3.86915 0
M  V30 30773 N 3520.42 -2.52534 3.88305 0
M  V30 30774 C 3521.16 -3.02939 4.86843 0
M  V30 30775 N 3520.65 -3.53588 5.95775 0
M  V30 30776 N 3522.44 -3.01726 4.74255 0
M  V30 30777 H 3514.6 -0.160466 2.11793 0
M  V30 30778 H 3516.86 -0.133808 0.938509 0
M  V30 30779 H 3516.56 -1.07497 3.34869 0
M  V30 30780 H 3516.44 -2.6811 2.65324 0
M  V30 30781 H 3518.83 -2.4134 1.6982 0
M  V30 30782 H 3518.91 -0.803741 2.42845 0
M  V30 30783 H 3518.55 -1.85378 4.72861 0
M  V30 30784 H 3518.48 -3.46289 3.96726 0
M  V30 30785 H 3520.97 -2.16679 3.09611 0
M  V30 30786 H 3521.28 -3.90423 6.66925 0
M  V30 30787 H 3519.63 -3.51718 5.99433 0
M  V30 30788 H 3522.82 -2.61451 3.88279 0
M  V30 30789 H 3522.99 -3.40699 5.51206 0
M  V30 30790 N 3516.4 -1.21291 -1.0063 0
M  V30 30791 C 3517.65 -1.02731 -1.74042 0
M  V30 30792 C 3517.97 0.440318 -1.89964 0
M  V30 30793 O 3517.24 1.3177 -1.4496 0
M  V30 30794 H 3515.82 -0.377138 -0.644807 0
M  V30 30795 H 3518.48 -1.52577 -1.21269 0
M  V30 30796 H 3517.58 -1.49418 -2.74008 0
M  V30 30797 N 3517.88 1.20103 -1.02045 0
M  V30 30798 C 3518.79 2.26698 -0.603764 0
M  V30 30799 C 3519.8 1.70224 0.360528 0
M  V30 30800 O 3520.98 2.00189 0.220517 0
M  V30 30801 C 3518.04 3.46667 0.0475379 0
M  V30 30802 C 3517.11 4.18355 -0.963185 0
M  V30 30803 C 3516.34 5.32598 -0.342869 0
M  V30 30804 O 3516.56 5.63934 0.85641 0
M  V30 30805 O 3515.5 5.92466 -1.06152 0
M  V30 30806 H 3519.32 2.64564 -1.4913 0
M  V30 30807 H 3516.91 1.26795 -0.790156 0
M  V30 30808 H 3518.79 4.1939 0.411103 0
M  V30 30809 H 3517.46 3.10669 0.909212 0
M  V30 30810 H 3516.37 3.47788 -1.37819 0
M  V30 30811 H 3517.7 4.58304 -1.79495 0
M  V30 30812 N 3519.36 0.797189 1.35951 0
M  V30 30813 C 3520.77 0.479792 1.52217 0
M  V30 30814 C 3520.97 -1.00061 1.749 0
M  V30 30815 O 3520.03 -1.7859 1.78498 0
M  V30 30816 C 3521.34 1.31699 2.70326 0
M  V30 30817 C 3522.89 1.31147 2.842 0
M  V30 30818 C 3523.36 2.13258 4.05321 0
M  V30 30819 N 3524.86 2.10745 4.12482 0
M  V30 30820 C 3525.59 2.71042 5.05296 0
M  V30 30821 N 3525.09 3.40229 6.03503 0
M  V30 30822 N 3526.88 2.60734 4.9797 0
M  V30 30823 H 3519.03 1.75606 1.19483 0
M  V30 30824 H 3521.29 0.746902 0.583817 0
M  V30 30825 H 3521 2.36717 2.60112 0
M  V30 30826 H 3520.87 0.963671 3.64682 0
M  V30 30827 H 3523.26 0.269183 2.9387 0
M  V30 30828 H 3523.34 1.7046 1.90727 0
M  V30 30829 H 3522.99 3.17522 3.96412 0
M  V30 30830 H 3522.92 1.71311 4.97956 0
M  V30 30831 H 3525.41 1.60396 3.42172 0
M  V30 30832 H 3525.72 3.83549 6.70902 0
M  V30 30833 H 3524.06 3.44333 6.03705 0
M  V30 30834 H 3527.26 2.06277 4.20199 0
M  V30 30835 H 3527.43 3.08017 5.70114 0
M  V30 30836 N 3520.83 -1.47696 0.549872 0
M  V30 30837 C 3521.78 -2.26915 -0.222173 0
M  V30 30838 C 3522.77 -1.33913 -0.891973 0
M  V30 30839 O 3523.96 -1.58317 -0.791492 0
M  V30 30840 C 3521.09 -3.19494 -1.25613 0
M  V30 30841 C 3520.18 -4.19974 -0.59012 0
M  V30 30842 N 3520.57 -5.04685 0.335608 0
M  V30 30843 C 3518.86 -4.37923 -0.844935 0
M  V30 30844 C 3519.57 -5.77205 0.721774 0
M  V30 30845 N 3518.54 -5.43544 0.0782795 0
M  V30 30846 H 3522.34 -2.89792 0.489696 0
M  V30 30847 H 3519.86 -1.58146 0.369288 0
M  V30 30848 H 3521.85 -3.74924 -1.82312 0
M  V30 30849 H 3520.51 -2.58174 -1.96917 0
M  V30 30850 H 3521.53 -5.13019 0.709361 0
M  V30 30851 H 3518.2 -3.8778 -1.54704 0
M  V30 30852 H 3519.59 -6.55352 1.48202 0
M  V30 30853 N 3522.31 -0.285959 -1.54984 0
M  V30 30854 C 3523.56 0.327055 -1.99436 0
M  V30 30855 C 3523.88 1.5556 -1.17585 0
M  V30 30856 O 3523.15 1.94058 -0.268036 0
M  V30 30857 H 3521.73 0.123833 -0.736664 0
M  V30 30858 H 3524.39 -0.393808 -1.9088 0
M  V30 30859 H 3523.49 0.609469 -3.06091 0
M  V30 30860 N 3523.79 1.57594 -0.0134169 0
M  V30 30861 C 3525.02 1.95837 0.68282 0
M  V30 30862 C 3525.44 0.889078 1.65762 0
M  V30 30863 O 3524.8 -0.151553 1.80665 0
M  V30 30864 C 3524.85 3.3318 1.37925 0
M  V30 30865 O 3523.95 3.28433 2.4941 0
M  V30 30866 H 3523.29 0.638963 0.180618 0
M  V30 30867 H 3525.82 2.04478 -0.0706003 0
M  V30 30868 H 3525.83 3.69054 1.73963 0
M  V30 30869 H 3524.51 4.10556 0.664602 0
M  V30 30870 H 3523.08 3.04255 2.156 0
M  V30 30871 N 3525.27 -0.259531 1.55448 0
M  V30 30872 C 3526.49 -1.01145 1.81065 0
M  V30 30873 C 3526.92 -1.78648 0.588781 0
M  V30 30874 O 3526.28 -1.75316 -0.46194 0
M  V30 30875 C 3526.32 -1.93506 3.04282 0
M  V30 30876 O 3525.43 -3.02488 2.80312 0
M  V30 30877 H 3524.77 -0.288476 0.598061 0
M  V30 30878 H 3527.3 -0.284351 2.02614 0
M  V30 30879 H 3527.31 -2.35209 3.33378 0
M  V30 30880 H 3525.98 -1.36511 3.92858 0
M  V30 30881 H 3524.56 -2.65004 2.6235 0
M  V30 30882 N 3526.75 -1.48611 -0.524645 0
M  V30 30883 C 3527.97 -1.60828 -1.30955 0
M  V30 30884 C 3528.4 -0.270715 -1.86142 0
M  V30 30885 O 3527.75 0.758386 -1.64676 0
M  V30 30886 C 3527.8 -2.66201 -2.43248 0
M  V30 30887 O 3526.91 -2.23731 -3.46436 0
M  V30 30888 H 3526.25 -0.539111 -0.387629 0
M  V30 30889 H 3528.78 -1.94636 -0.630721 0
M  V30 30890 H 3528.79 -2.8764 -2.89357 0
M  V30 30891 H 3527.46 -3.63304 -2.02442 0
M  V30 30892 H 3526.04 -2.12527 -3.06409 0
M  V30 30893 N 3528.22 0.773926 -1.37289 0
M  V30 30894 C 3529.47 1.52938 -1.32115 0
M  V30 30895 C 3529.79 1.9477 0.0945795 0
M  V30 30896 O 3529.06 1.66131 1.03814 0
M  V30 30897 H 3527.64 0.567236 -0.486057 0
M  V30 30898 H 3530.31 0.921233 -1.71754 0
M  V30 30899 H 3529.4 2.42979 -1.95877 0
M  V30 30900 N 3529.7 1.21823 0.99985 0
M  V30 30901 C 3530.93 1.06549 1.77938 0
M  V30 30902 C 3531.35 -0.380083 1.8422 0
M  V30 30903 O 3530.71 -1.27436 1.28957 0
M  V30 30904 C 3530.76 1.67328 3.19427 0
M  V30 30905 O 3529.86 0.922241 4.01956 0
M  V30 30906 H 3529.2 0.374668 0.548197 0
M  V30 30907 H 3531.73 1.61474 1.25647 0
M  V30 30908 H 3531.74 1.71763 3.70083 0
M  V30 30909 H 3530.42 2.72525 3.1417 0
M  V30 30910 H 3529 0.953373 3.60507 0
M  V30 30911 N 3531.18 -1.1956 1.0268 0
M  V30 30912 C 3532.41 -1.93693 0.741458 0
M  V30 30913 C 3532.83 -1.74862 -0.693173 0
M  V30 30914 O 3532.19 -1.04956 -1.47831 0
M  V30 30915 C 3532.24 -3.43566 1.0952 0
M  V30 30916 O 3531.34 -4.11851 0.212668 0
M  V30 30917 H 3530.68 -0.604768 0.274139 0
M  V30 30918 H 3533.21 -1.51697 1.37292 0
M  V30 30919 H 3533.22 -3.94225 1.05122 0
M  V30 30920 H 3531.9 -3.56595 2.1404 0
M  V30 30921 H 3530.47 -3.71567 0.315065 0
M  V30 30922 N 3532.66 -0.804387 -1.35526 0
M  V30 30923 C 3533.88 -0.395049 -2.03603 0
M  V30 30924 C 3534.31 0.985342 -1.60227 0
M  V30 30925 O 3533.67 1.63765 -0.777873 0
M  V30 30926 C 3533.71 -0.484074 -3.57336 0
M  V30 30927 O 3532.82 0.503323 -4.09317 0
M  V30 30928 H 3532.16 -0.165336 -0.643086 0
M  V30 30929 H 3534.69 -1.08966 -1.73169 0
M  V30 30930 H 3534.7 -0.35308 -4.06469 0
M  V30 30931 H 3533.37 -1.49095 -3.88257 0
M  V30 30932 H 3531.95 0.332752 -3.71412 0
M  V30 30933 N 3534.14 1.47403 -0.557697 0
M  V30 30934 C 3535.36 2.07367 -0.0367161 0
M  V30 30935 C 3535.79 1.40756 1.24777 0
M  V30 30936 O 3535.15 0.482711 1.74756 0
M  V30 30937 C 3535.19 3.60322 0.141665 0
M  V30 30938 O 3534.3 3.94429 1.20412 0
M  V30 30939 H 3533.64 0.661996 -0.0515435 0
M  V30 30940 H 3536.17 1.89414 -0.773519 0
M  V30 30941 H 3536.18 4.06446 0.355716 0
M  V30 30942 H 3534.85 4.08202 -0.796505 0
M  V30 30943 H 3533.43 3.60049 0.970526 0
M  V30 30944 N 3535.62 0.294175 1.5483 0
M  V30 30945 C 3536.85 -0.319439 2.04116 0
M  V30 30946 C 3537.25 -1.48586 1.17128 0
M  V30 30947 O 3536.6 -1.82735 0.188066 0
M  V30 30948 C 3536.66 -0.844899 3.49431 0
M  V30 30949 C 3536.32 0.195355 4.56582 0
M  V30 30950 C 3537.32 1.02147 5.09767 0
M  V30 30951 C 3535 0.335088 5.01181 0
M  V30 30952 C 3537 1.97332 6.06085 0
M  V30 30953 C 3534.69 1.29039 5.97321 0
M  V30 30954 C 3535.68 2.10799 6.49656 0
M  V30 30955 O 3535.37 3.04711 7.43913 0
M  V30 30956 H 3535.1 -0.0743712 0.671897 0
M  V30 30957 H 3537.66 0.429704 2.00855 0
M  V30 30958 H 3535.89 -1.64445 3.49993 0
M  V30 30959 H 3537.58 -1.37366 3.8195 0
M  V30 30960 H 3538.34 0.924348 4.7611 0
M  V30 30961 H 3534.22 -0.291341 4.60078 0
M  V30 30962 H 3537.77 2.61188 6.46859 0
M  V30 30963 H 3533.66 1.38826 6.30395 0
M  V30 30964 H 3534.43 2.99611 7.61692 0
M  V30 30965 N 3537.09 -1.57585 0.0217743 0
M  V30 30966 C 3538.34 -1.91118 -0.657153 0
M  V30 30967 C 3538.66 -0.898069 -1.73089 0
M  V30 30968 O 3537.93 0.0614771 -1.95804 0
M  V30 30969 H 3536.51 -0.705429 -0.24572 0
M  V30 30970 H 3539.17 -1.94782 0.0678439 0
M  V30 30971 H 3538.27 -2.9152 -1.11457 0
M  V30 30972 N 3538.57 0.251283 -1.55584 0
M  V30 30973 C 3539.5 1.33383 -1.86391 0
M  V30 30974 C 3540.52 1.44503 -0.749854 0
M  V30 30975 O 3541.71 1.45931 -1.02793 0
M  V30 30976 C 3538.81 2.71289 -2.03114 0
M  V30 30977 C 3537.98 2.82492 -3.33942 0
M  V30 30978 C 3537.04 4.01213 -3.40462 0
M  V30 30979 O 3536.06 3.90947 -4.13702 0
M  V30 30980 N 3537.27 5.14183 -2.69436 0
M  V30 30981 H 3540.03 1.07293 -2.79836 0
M  V30 30982 H 3537.59 0.44139 -1.55767 0
M  V30 30983 H 3539.58 3.49041 -2.04823 0
M  V30 30984 H 3538.15 2.90107 -1.16434 0
M  V30 30985 H 3537.37 1.9145 -3.44587 0
M  V30 30986 H 3538.66 2.86923 -4.20181 0
M  V30 30987 H 3538.06 5.25415 -2.09656 0
M  V30 30988 H 3536.62 5.90086 -2.76842 0
M  V30 30989 N 3540.05 1.48887 0.516757 0
M  V30 30990 C 3541 1.60789 1.61651 0
M  V30 30991 C 3541.98 0.464298 1.54055 0
M  V30 30992 O 3543.18 0.71644 1.61852 0
M  V30 30993 C 3540.3 1.66309 3.00327 0
M  V30 30994 C 3539.39 2.86193 3.12977 0
M  V30 30995 N 3539.78 4.1046 2.95561 0
M  V30 30996 C 3538.08 2.83801 3.44054 0
M  V30 30997 C 3538.78 4.90963 3.11977 0
M  V30 30998 N 3537.76 4.24028 3.40148 0
M  V30 30999 H 3541.56 2.54602 1.46816 0
M  V30 31000 H 3539.07 1.45442 0.722529 0
M  V30 31001 H 3541.07 1.72931 3.79342 0
M  V30 31002 H 3539.73 0.736213 3.16244 0
M  V30 31003 H 3540.74 4.40689 2.72054 0
M  V30 31004 H 3537.42 2.00426 3.66245 0
M  V30 31005 H 3538.81 5.99631 3.03138 0
M  V30 31006 N 3541.53 -0.766635 1.37697 0
M  V30 31007 C 3542.78 -1.52235 1.32924 0
M  V30 31008 C 3543.1 -1.94818 -0.084249 0
M  V30 31009 O 3542.37 -1.66679 -1.02931 0
M  V30 31010 H 3540.95 -0.564651 0.489059 0
M  V30 31011 H 3543.61 -0.912112 1.7224 0
M  V30 31012 H 3542.7 -2.41937 1.97163 0
M  V30 31013 N 3543.01 -1.22351 -0.993375 0
M  V30 31014 C 3544.23 -1.07491 -1.77371 0
M  V30 31015 C 3544.66 0.370308 -1.84419 0
M  V30 31016 O 3544.01 1.2675 -1.29631 0
M  V30 31017 C 3544.06 -1.69019 -3.18535 0
M  V30 31018 O 3543.17 -0.943545 -4.01461 0
M  V30 31019 H 3542.51 -0.37757 -0.546202 0
M  V30 31020 H 3545.04 -1.62138 -1.24789 0
M  V30 31021 H 3545.05 -1.73724 -3.69167 0
M  V30 31022 H 3543.72 -2.74188 -3.1272 0
M  V30 31023 H 3542.3 -0.972478 -3.59996 0
M  V30 31024 N 3544.48 1.19014 -1.03313 0
M  V30 31025 C 3545.73 1.88431 -0.730626 0
M  V30 31026 C 3546.05 1.80275 0.743361 0
M  V30 31027 O 3545.32 1.21604 1.53588 0
M  V30 31028 H 3543.9 0.697552 -0.267265 0
M  V30 31029 H 3546.56 1.44466 -1.30827 0
M  V30 31030 H 3545.66 2.94659 -1.02872 0
M  V30 31031 N 3545.96 0.811563 1.35098 0
M  V30 31032 C 3547.19 0.405841 2.0339 0
M  V30 31033 C 3547.61 -0.976831 1.60747 0
M  V30 31034 O 3546.97 -1.6335 0.786547 0
M  V30 31035 C 3547.02 0.503017 3.57074 0
M  V30 31036 O 3546.12 -0.481609 4.09578 0
M  V30 31037 H 3545.46 0.168744 0.6422 0
M  V30 31038 H 3547.99 1.09883 1.72589 0
M  V30 31039 H 3548 0.374631 4.06276 0
M  V30 31040 H 3546.68 1.51152 3.87461 0
M  V30 31041 H 3545.25 -0.31305 3.71584 0
M  V30 31042 N 3547.44 -1.47105 0.565506 0
M  V30 31043 C 3548.86 -1.57993 0.225883 0
M  V30 31044 C 3549.06 -1.56301 -1.2717 0
M  V30 31045 O 3548.11 -1.47082 -2.05239 0
M  V30 31046 C 3549.42 -2.88143 0.859879 0
M  V30 31047 C 3550.97 -3.01743 0.831874 0
M  V30 31048 C 3551.45 -4.34604 1.44509 0
M  V30 31049 N 3552.94 -4.41261 1.40865 0
M  V30 31050 C 3553.67 -5.42645 1.85268 0
M  V30 31051 N 3553.17 -6.50796 2.37564 0
M  V30 31052 N 3554.96 -5.33741 1.76288 0
M  V30 31053 H 3547.11 -1.46448 1.5384 0
M  V30 31054 H 3549.38 -0.697501 0.642025 0
M  V30 31055 H 3549.08 -2.95143 1.91269 0
M  V30 31056 H 3548.96 -3.75499 0.357828 0
M  V30 31057 H 3551.34 -2.94336 -0.212267 0
M  V30 31058 H 3551.42 -2.15908 1.37177 0
M  V30 31059 H 3551.07 -4.42768 2.48834 0
M  V30 31060 H 3551 -5.19185 0.88057 0
M  V30 31061 H 3553.49 -3.637 1.0262 0
M  V30 31062 H 3553.8 -7.24342 2.69348 0
M  V30 31063 H 3552.15 -6.51663 2.4158 0
M  V30 31064 H 3555.34 -4.48149 1.35203 0
M  V30 31065 H 3555.51 -6.12613 2.1121 0
M  V30 31066 N 3548.92 -0.302382 -1.54672 0
M  V30 31067 C 3549.85 0.606789 -2.21022 0
M  V30 31068 C 3550.86 1.09646 -1.20339 0
M  V30 31069 O 3552.05 1.01368 -1.46925 0
M  V30 31070 C 3549.15 1.84288 -2.84414 0
M  V30 31071 C 3548.33 1.49546 -4.11041 0
M  V30 31072 C 3547.38 2.58685 -4.58223 0
M  V30 31073 O 3546.41 2.23719 -5.23391 0
M  V30 31074 N 3547.61 3.89248 -4.30657 0
M  V30 31075 H 3550.38 0.0387694 -2.99675 0
M  V30 31076 H 3547.94 -0.124642 -1.61419 0
M  V30 31077 H 3549.93 2.56649 -3.12911 0
M  V30 31078 H 3548.5 2.31926 -2.09593 0
M  V30 31079 H 3547.72 0.604424 -3.89539 0
M  V30 31080 H 3549.01 1.23875 -4.9349 0
M  V30 31081 H 3548.41 4.20465 -3.78452 0
M  V30 31082 H 3546.96 4.57904 -4.63861 0
M  V30 31083 N 3550.4 1.57571 -0.0301311 0
M  V30 31084 C 3551.62 1.96551 0.662011 0
M  V30 31085 C 3552.05 0.906609 1.6481 0
M  V30 31086 O 3551.4 -0.132383 1.80816 0
M  V30 31087 C 3551.45 3.34624 1.34383 0
M  V30 31088 O 3550.56 3.3106 2.45913 0
M  V30 31089 H 3549.9 0.640842 0.173831 0
M  V30 31090 H 3552.43 2.04392 -0.092284 0
M  V30 31091 H 3552.44 3.70878 1.70039 0
M  V30 31092 H 3551.11 4.11237 0.62102 0
M  V30 31093 H 3549.69 3.06524 2.12361 0
M  V30 31094 N 3551.87 -0.243029 1.55715 0
M  V30 31095 C 3552.8 -1.30458 1.93657 0
M  V30 31096 C 3553.79 -1.50007 0.801994 0
M  V30 31097 O 3554.97 -1.6255 1.06259 0
M  V30 31098 C 3552.1 -2.65859 2.23464 0
M  V30 31099 C 3551.05 -2.61 3.3921 0
M  V30 31100 C 3550.38 -4.00232 3.54568 0
M  V30 31101 C 3551.68 -2.17648 4.74791 0
M  V30 31102 H 3553.37 -0.98949 2.82576 0
M  V30 31103 H 3550.92 -0.474548 1.35956 0
M  V30 31104 H 3552.87 -3.40261 2.48597 0
M  V30 31105 H 3551.6 -2.99012 1.31375 0
M  V30 31106 H 3550.26 -1.89055 3.14092 0
M  V30 31107 H 3549.9 -4.30657 2.59892 0
M  V30 31108 H 3549.6 -3.97868 4.32406 0
M  V30 31109 H 3551.13 -4.76328 3.82026 0
M  V30 31110 H 3552.54 -2.81783 4.99271 0
M  V30 31111 H 3550.94 -2.26387 5.5576 0
M  V30 31112 H 3552.01 -1.12822 4.71592 0
M  V30 31113 N 3553.35 -1.49159 -0.508854 0
M  V30 31114 C 3554.6 -1.57936 -1.26097 0
M  V30 31115 C 3554.92 -0.264439 -1.93199 0
M  V30 31116 O 3554.19 0.715652 -1.8236 0
M  V30 31117 H 3552.77 -0.581894 -0.46841 0
M  V30 31118 H 3555.43 -1.85742 -0.590414 0
M  V30 31119 H 3554.53 -2.37138 -2.02908 0
M  V30 31120 N 3554.83 0.759322 -1.38102 0
M  V30 31121 C 3555.78 1.86345 -1.31376 0
M  V30 31122 C 3556.76 1.59663 -0.199141 0
M  V30 31123 O 3557.96 1.71581 -0.43462 0
M  V30 31124 C 3555.09 3.2398 -1.13542 0
M  V30 31125 C 3554.17 3.56572 -2.29602 0
M  V30 31126 N 3554.56 3.60261 -3.5503 0
M  V30 31127 C 3552.86 3.86807 -2.22028 0
M  V30 31128 C 3553.56 3.89956 -4.31636 0
M  V30 31129 N 3552.54 4.06493 -3.60922 0
M  V30 31130 H 3556.34 1.87466 -2.26349 0
M  V30 31131 H 3553.85 0.956392 -1.31251 0
M  V30 31132 H 3555.85 4.02986 -1.06808 0
M  V30 31133 H 3554.51 3.24114 -0.194979 0
M  V30 31134 H 3555.52 3.42161 -3.88775 0
M  V30 31135 H 3552.2 3.9469 -1.36111 0
M  V30 31136 H 3553.59 3.99481 -5.40245 0
M  V30 31137 N 3556.31 1.22876 0.986873 0
M  V30 31138 C 3557.56 1.05487 1.72386 0
M  V30 31139 C 3557.88 -0.410041 1.9064 0
M  V30 31140 O 3557.15 -1.29447 1.47038 0
M  V30 31141 H 3555.73 0.387349 0.638725 0
M  V30 31142 H 3558.39 1.54487 1.18826 0
M  V30 31143 H 3557.49 1.53759 2.71597 0
M  V30 31144 N 3557.79 -1.18464 1.03942 0
M  V30 31145 C 3558.72 -2.21544 0.587452 0
M  V30 31146 C 3559.73 -1.59162 -0.342242 0
M  V30 31147 O 3560.92 -1.77974 -0.136957 0
M  V30 31148 C 3558.02 -3.38513 -0.16194 0
M  V30 31149 C 3557.19 -4.30474 0.775319 0
M  V30 31150 C 3556.25 -5.26154 0.0694451 0
M  V30 31151 O 3555.28 -5.64886 0.69947 0
M  V30 31152 N 3556.48 -5.68012 -1.19763 0
M  V30 31153 H 3559.25 -2.60945 1.47403 0
M  V30 31154 H 3556.81 -1.33237 0.919757 0
M  V30 31155 H 3558.8 -3.99544 -0.64397 0
M  V30 31156 H 3557.37 -2.97813 -0.950047 0
M  V30 31157 H 3556.59 -3.67066 1.43723 0
M  V30 31158 H 3557.88 -4.88816 1.41195 0
M  V30 31159 H 3557.27 -5.38596 -1.73004 0
M  V30 31160 H 3555.83 -6.31245 -1.62396 0
M  V30 31161 N 3559.26 -0.818716 -1.34665 0
M  V30 31162 C 3560.21 -0.210041 -2.2703 0
M  V30 31163 C 3561.2 0.623232 -1.4834 0
M  V30 31164 O 3562.39 0.478501 -1.70409 0
M  V30 31165 C 3559.52 0.630631 -3.37458 0
M  V30 31166 C 3558.61 -0.213038 -4.23565 0
M  V30 31167 N 3559 -1.28199 -4.89284 0
M  V30 31168 C 3557.29 0.00332637 -4.46 0
M  V30 31169 C 3558 -1.79808 -5.53213 0
M  V30 31170 N 3556.97 -1.10262 -5.323 0
M  V30 31171 H 3560.77 -1.02778 -2.75343 0
M  V30 31172 H 3558.29 -0.661097 -1.48335 0
M  V30 31173 H 3560.28 1.08283 -4.02592 0
M  V30 31174 H 3558.94 1.44658 -2.90696 0
M  V30 31175 H 3559.96 -1.66476 -4.90414 0
M  V30 31176 H 3556.63 0.787444 -4.10007 0
M  V30 31177 H 3558.02 -2.69214 -6.15608 0
M  V30 31178 N 3560.74 1.46803 -0.573299 0
M  V30 31179 C 3561.99 2.02025 -0.0551877 0
M  V30 31180 C 3562.31 1.44828 1.30575 0
M  V30 31181 O 3561.58 0.629436 1.85513 0
M  V30 31182 H 3560.16 0.746797 -0.0174114 0
M  V30 31183 H 3562.82 1.80018 -0.746951 0
M  V30 31184 H 3561.92 3.12093 0.0208778 0
M  V30 31185 N 3562.22 0.31058 1.54509 0
M  V30 31186 C 3563.45 -0.300977 2.05205 0
M  V30 31187 C 3563.87 -1.46005 1.18592 0
M  V30 31188 O 3563.23 -1.80279 0.192112 0
M  V30 31189 C 3563.28 -0.725705 3.53222 0
M  V30 31190 O 3562.38 -1.82949 3.69599 0
M  V30 31191 H 3561.72 -0.056791 0.661567 0
M  V30 31192 H 3564.25 0.455213 1.99472 0
M  V30 31193 H 3564.26 -1.01191 3.95252 0
M  V30 31194 H 3562.94 0.122119 4.15721 0
M  V30 31195 H 3561.51 -1.54309 3.39475 0
M  V30 31196 N 3563.7 -1.57553 0.0384871 0
M  V30 31197 C 3564.95 -1.91804 -0.636846 0
M  V30 31198 C 3565.27 -0.916377 -1.72126 0
M  V30 31199 O 3564.54 0.0407061 -1.95858 0
M  V30 31200 H 3563.12 -0.707996 -0.238224 0
M  V30 31201 H 3565.78 -1.94699 0.0884993 0
M  V30 31202 H 3564.88 -2.92685 -1.08359 0
M  V30 31203 N 3565.18 0.234767 -1.55842 0
M  V30 31204 C 3566.4 0.982514 -1.82651 0
M  V30 31205 C 3566.83 1.77688 -0.617128 0
M  V30 31206 O 3566.19 1.76029 0.433991 0
M  V30 31207 C 3566.23 1.88641 -3.07322 0
M  V30 31208 O 3565.34 2.9799 -2.85089 0
M  V30 31209 H 3564.68 0.278925 -0.602575 0
M  V30 31210 H 3567.21 0.252081 -2.03041 0
M  V30 31211 H 3567.22 2.29876 -3.37077 0
M  V30 31212 H 3565.89 1.30244 -3.9498 0
M  V30 31213 H 3564.47 2.60796 -2.66533 0
M  V30 31214 N 3566.66 1.49427 0.500936 0
M  V30 31215 C 3567.9 1.58603 1.25258 0
M  V30 31216 C 3568.22 0.274681 1.93056 0
M  V30 31217 O 3567.49 -0.705971 1.82737 0
M  V30 31218 H 3566.07 0.58437 0.465318 0
M  V30 31219 H 3568.74 1.86053 0.580555 0
M  V30 31220 H 3567.83 2.38211 2.01648 0
M  V30 31221 N 3568.13 -0.751987 1.38502 0
M  V30 31222 C 3569.07 -1.87549 1.3175 0
M  V30 31223 C 3570.08 -1.61175 0.229414 0
M  V30 31224 O 3571.27 -1.71725 0.487096 0
M  V30 31225 C 3568.37 -3.23219 1.01895 0
M  V30 31226 C 3567.54 -3.77084 2.21644 0
M  V30 31227 C 3566.6 -4.91275 1.88509 0
M  V30 31228 O 3565.63 -5.05823 2.6102 0
M  V30 31229 N 3566.83 -5.74376 0.84101 0
M  V30 31230 H 3569.59 -1.93852 2.28564 0
M  V30 31231 H 3567.15 -0.931989 1.32384 0
M  V30 31232 H 3569.15 -3.97156 0.777774 0
M  V30 31233 H 3567.72 -3.12292 0.138713 0
M  V30 31234 H 3566.94 -2.94695 2.61817 0
M  V30 31235 H 3568.22 -4.09805 3.01558 0
M  V30 31236 H 3567.62 -5.65192 0.23972 0
M  V30 31237 H 3566.18 -6.48453 0.659718 0
M  V30 31238 N 3569.61 -1.23398 -0.980343 0
M  V30 31239 C 3570.84 -1.09366 -1.76221 0
M  V30 31240 C 3571.26 0.350727 -1.84801 0
M  V30 31241 O 3570.62 1.25368 -1.30968 0
M  V30 31242 C 3570.67 -1.72388 -3.16725 0
M  V30 31243 O 3569.77 -0.986072 -4.00438 0
M  V30 31244 H 3569.11 -0.383342 -0.542167 0
M  V30 31245 H 3571.64 -1.63453 -1.23063 0
M  V30 31246 H 3571.65 -1.77629 -3.67303 0
M  V30 31247 H 3570.33 -2.77489 -3.09795 0
M  V30 31248 H 3568.9 -1.01061 -3.58945 0
M  V30 31249 N 3571.09 1.17911 -1.04569 0
M  V30 31250 C 3572.5 1.69665 -0.779148 0
M  V30 31251 C 3572.85 1.8331 0.699416 0
M  V30 31252 O 3571.98 1.51619 1.54404 0
M  V30 31253 C 3572.57 3.08169 -1.40774 0
M  V30 31254 C 3571.13 3.57114 -1.18939 0
M  V30 31255 C 3570.28 2.33534 -1.49523 0
M  V30 31256 H 3573.23 1.02516 -1.21145 0
M  V30 31257 H 3573.25 3.71699 -0.81365 0
M  V30 31258 H 3572.76 2.98206 -2.48385 0
M  V30 31259 H 3570.86 3.72365 -0.132249 0
M  V30 31260 H 3570.98 4.40247 -1.88995 0
M  V30 31261 H 3569.34 2.37693 -0.915098 0
M  V30 31262 H 3570.12 2.26185 -2.58254 0
M  V30 31263 N 3572.57 0.825847 1.34229 0
M  V30 31264 C 3573.79 0.42739 2.02949 0
M  V30 31265 C 3574.22 -0.959727 1.61774 0
M  V30 31266 O 3573.58 -1.62506 0.803828 0
M  V30 31267 C 3573.62 0.540861 3.56521 0
M  V30 31268 O 3572.73 -0.438141 4.10066 0
M  V30 31269 H 3572.07 0.175546 0.640375 0
M  V30 31270 H 3574.6 1.11707 1.71414 0
M  V30 31271 H 3574.61 0.417701 4.05856 0
M  V30 31272 H 3573.28 1.55253 3.85836 0
M  V30 31273 H 3571.86 -0.273621 3.71895 0
M  V30 31274 N 3574.05 -1.46497 0.581077 0
M  V30 31275 C 3575.46 -1.86063 0.154065 0
M  V30 31276 C 3575.81 -1.48485 -1.28244 0
M  V30 31277 O 3574.93 -0.89898 -1.96843 0
M  V30 31278 C 3575.53 -3.377 0.272824 0
M  V30 31279 C 3574.09 -3.76269 -0.0993062 0
M  V30 31280 C 3573.23 -2.70518 0.609517 0
M  V30 31281 H 3576.18 -1.37674 0.789394 0
M  V30 31282 H 3576.21 -3.77171 -0.502259 0
M  V30 31283 H 3575.72 -3.65019 1.31843 0
M  V30 31284 H 3573.82 -3.54567 -1.14511 0
M  V30 31285 H 3573.93 -4.78305 0.275875 0
M  V30 31286 H 3572.3 -2.54651 0.0499531 0
M  V30 31287 H 3573.08 -3.00677 1.65674 0
M  V30 31288 N 3575.52 -0.31877 -1.54343 0
M  V30 31289 C 3576.75 0.29009 -2.05361 0
M  V30 31290 C 3577.17 1.45374 -1.19365 0
M  V30 31291 O 3576.53 1.80175 -0.20167 0
M  V30 31292 C 3576.58 0.706963 -3.53602 0
M  V30 31293 O 3575.68 1.80986 -3.70564 0
M  V30 31294 H 3575.02 0.0532817 -0.661859 0
M  V30 31295 H 3577.55 -0.465785 -1.99228 0
M  V30 31296 H 3577.56 0.990936 -3.95783 0
M  V30 31297 H 3576.24 -0.144164 -4.1565 0
M  V30 31298 H 3574.82 1.52507 -3.40288 0
M  V30 31299 N 3577 1.5753 -0.0468419 0
M  V30 31300 C 3578.42 1.56567 0.30968 0
M  V30 31301 C 3578.62 1.05411 1.71729 0
M  V30 31302 O 3577.67 0.708766 2.42348 0
M  V30 31303 C 3578.99 3.00364 0.142099 0
M  V30 31304 C 3580.53 3.12271 0.21353 0
M  V30 31305 C 3581.01 4.57939 0.0745297 0
M  V30 31306 N 3582.5 4.63015 0.130946 0
M  V30 31307 C 3583.24 5.7338 0.0474401 0
M  V30 31308 N 3582.73 6.92744 -0.0881663 0
M  V30 31309 N 3584.52 5.62006 0.10271 0
M  V30 31310 H 3576.68 1.89106 -0.96709 0
M  V30 31311 H 3578.94 0.870663 -0.375033 0
M  V30 31312 H 3578.64 3.41809 -0.828231 0
M  V30 31313 H 3578.52 3.66184 0.904942 0
M  V30 31314 H 3580.91 2.70728 1.17433 0
M  V30 31315 H 3580.99 2.49138 -0.579994 0
M  V30 31316 H 3580.63 5.00167 -0.882927 0
M  V30 31317 H 3580.56 5.19074 0.887144 0
M  V30 31318 H 3583.05 3.77167 0.23518 0
M  V30 31319 H 3583.36 7.72665 -0.144709 0
M  V30 31320 H 3581.71 6.94891 -0.123192 0
M  V30 31321 H 3584.9 4.67641 0.207177 0
M  V30 31322 H 3585.07 6.47991 0.0341726 0
M  V30 31323 N 3578.48 -0.226499 1.55964 0
M  V30 31324 C 3579.73 -0.949739 1.78394 0
M  V30 31325 C 3580.05 -1.85065 0.614477 0
M  V30 31326 O 3579.32 -1.92396 -0.368861 0
M  V30 31327 H 3577.9 -0.353676 0.657968 0
M  V30 31328 H 3580.56 -0.239543 1.93422 0
M  V30 31329 H 3579.66 -1.55947 2.70346 0
M  V30 31330 N 3579.96 -1.4969 -0.493005 0
M  V30 31331 C 3581.37 -1.3663 -0.824884 0
M  V30 31332 C 3581.57 -0.405522 -1.97377 0
M  V30 31333 O 3580.63 0.159889 -2.51993 0
M  V30 31334 C 3581.94 -2.77526 -1.15756 0
M  V30 31335 C 3583.49 -2.86285 -1.26531 0
M  V30 31336 C 3583.97 -4.27966 -1.63124 0
M  V30 31337 N 3585.46 -4.30814 -1.70158 0
M  V30 31338 C 3586.19 -5.37415 -1.99932 0
M  V30 31339 N 3585.69 -6.54251 -2.27877 0
M  V30 31340 N 3587.48 -5.24838 -2.01251 0
M  V30 31341 H 3579.63 -2.10747 0.26447 0
M  V30 31342 H 3581.9 -0.946359 0.0557473 0
M  V30 31343 H 3581.6 -3.49568 -0.386653 0
M  V30 31344 H 3581.48 -3.13397 -2.0991 0
M  V30 31345 H 3583.86 -2.14475 -2.02693 0
M  V30 31346 H 3583.94 -2.53986 -0.304093 0
M  V30 31347 H 3583.59 -5.00304 -0.875096 0
M  V30 31348 H 3583.52 -4.57735 -2.60359 0
M  V30 31349 H 3586.01 -3.46556 -1.5069 0
M  V30 31350 H 3586.32 -7.31311 -2.49807 0
M  V30 31351 H 3584.67 -6.57463 -2.25316 0
M  V30 31352 H 3587.86 -4.32564 -1.78901 0
M  V30 31353 H 3588.03 -6.08008 -2.24121 0
M  V30 31354 N 3581.44 0.744631 -1.38899 0
M  V30 31355 C 3582.39 1.84941 -1.33345 0
M  V30 31356 C 3583.37 1.59443 -0.216064 0
M  V30 31357 O 3584.56 1.7111 -0.452794 0
M  V30 31358 C 3581.69 3.22758 -1.16972 0
M  V30 31359 C 3580.78 3.54117 -2.33371 0
M  V30 31360 N 3581.17 3.56475 -3.58831 0
M  V30 31361 C 3579.47 3.8443 -2.26119 0
M  V30 31362 C 3580.17 3.85356 -4.35747 0
M  V30 31363 N 3579.14 4.02642 -3.65213 0
M  V30 31364 H 3582.95 1.85055 -2.28324 0
M  V30 31365 H 3580.46 0.942417 -1.32258 0
M  V30 31366 H 3582.46 4.0183 -1.11076 0
M  V30 31367 H 3581.12 3.23889 -0.229345 0
M  V30 31368 H 3582.13 3.38018 -3.92382 0
M  V30 31369 H 3578.8 3.93224 -1.4029 0
M  V30 31370 H 3580.19 3.93728 -5.44452 0
M  V30 31371 N 3582.91 1.23916 0.973785 0
M  V30 31372 C 3584.16 1.0731 1.71257 0
M  V30 31373 C 3584.48 -0.389798 1.91064 0
M  V30 31374 O 3583.75 -1.2788 1.48403 0
M  V30 31375 H 3582.33 0.394101 0.634581 0
M  V30 31376 H 3585 1.55739 1.17181 0
M  V30 31377 H 3584.09 1.56631 2.69951 0
M  V30 31378 N 3584.39 -1.17355 1.05193 0
M  V30 31379 C 3585.62 -1.92077 0.782377 0
M  V30 31380 C 3586.04 -1.76293 -0.655926 0
M  V30 31381 O 3585.4 -1.08068 -1.45571 0
M  V30 31382 C 3585.45 -3.41166 1.16783 0
M  V30 31383 O 3584.55 -4.11308 0.29998 0
M  V30 31384 H 3583.89 -0.598817 0.286905 0
M  V30 31385 H 3586.42 -1.48751 1.40479 0
M  V30 31386 H 3586.43 -3.91907 1.1346 0
M  V30 31387 H 3585.11 -3.51974 2.21556 0
M  V30 31388 H 3583.69 -3.70815 0.393809 0
M  V30 31389 N 3585.87 -0.832954 -1.3379 0
M  V30 31390 C 3587.12 -0.424975 -1.97581 0
M  V30 31391 C 3587.44 1.01781 -1.6633 0
M  V30 31392 O 3586.71 1.70812 -0.959171 0
M  V30 31393 H 3585.29 -0.154156 -0.730921 0
M  V30 31394 H 3587.95 -1.06461 -1.63255 0
M  V30 31395 H 3587.05 -0.552181 -3.07176 0
M  V30 31396 N 3587.35 1.46186 -0.588837 0
M  V30 31397 C 3588.57 2.07243 -0.0806936 0
M  V30 31398 C 3589 1.43371 1.21764 0
M  V30 31399 O 3588.36 0.519671 1.73693 0
M  V30 31400 C 3588.4 3.60541 0.0652036 0
M  V30 31401 O 3587.51 3.96895 1.12019 0
M  V30 31402 H 3586.85 0.660754 -0.0655739 0
M  V30 31403 H 3589.38 1.87731 -0.813522 0
M  V30 31404 H 3589.39 4.07109 0.269422 0
M  V30 31405 H 3588.06 4.0642 -0.882911 0
M  V30 31406 H 3586.64 3.62027 0.893936 0
M  V30 31407 N 3588.83 0.32695 1.54171 0
M  V30 31408 C 3590.07 -0.274063 2.00233 0
M  V30 31409 C 3590.4 -1.52388 1.21668 0
M  V30 31410 O 3589.67 -1.93279 0.319393 0
M  V30 31411 H 3588.25 -0.104258 0.739689 0
M  V30 31412 H 3590.91 0.444278 1.89769 0
M  V30 31413 H 3590 -0.5281 3.076 0
M  V30 31414 N 3590.3 -1.57503 0.0551955 0
M  V30 31415 C 3591.24 -2.08718 -0.947065 0
M  V30 31416 C 3592.25 -1.01584 -1.27218 0
M  V30 31417 O 3593.44 -1.29141 -1.23227 0
M  V30 31418 C 3590.54 -2.51867 -2.26751 0
M  V30 31419 C 3589.71 -3.82384 -2.12371 0
M  V30 31420 C 3588.77 -4.11802 -3.27575 0
M  V30 31421 O 3587.8 -4.81661 -3.03301 0
M  V30 31422 N 3589 -3.64032 -4.52173 0
M  V30 31423 H 3591.76 -2.9533 -0.509905 0
M  V30 31424 H 3589.32 -1.6137 -0.130948 0
M  V30 31425 H 3591.32 -2.68621 -3.02696 0
M  V30 31426 H 3589.89 -1.70481 -2.62021 0
M  V30 31427 H 3589.11 -3.75172 -1.20994 0
M  V30 31428 H 3590.39 -4.67845 -1.99995 0
M  V30 31429 H 3589.79 -3.07565 -4.74785 0
M  V30 31430 H 3588.35 -3.86017 -5.25199 0
M  V30 31431 N 3591.78 0.218225 -1.56082 0
M  V30 31432 C 3593.01 0.963087 -1.83683 0
M  V30 31433 C 3593.43 1.77024 -0.63594 0
M  V30 31434 O 3592.79 1.76479 0.415296 0
M  V30 31435 C 3592.84 1.85371 -3.09306 0
M  V30 31436 O 3591.94 2.9495 -2.88233 0
M  V30 31437 H 3591.28 0.272519 -0.6055 0
M  V30 31438 H 3593.81 0.230531 -2.03297 0
M  V30 31439 H 3593.82 2.26288 -3.39497 0
M  V30 31440 H 3592.5 1.26047 -3.96339 0
M  V30 31441 H 3591.08 2.57955 -2.69284 0
M  V30 31442 N 3593.26 1.4995 0.485059 0
M  V30 31443 C 3594.49 1.64243 1.26645 0
M  V30 31444 C 3594.91 0.319972 1.85359 0
M  V30 31445 O 3594.27 -0.714458 1.66629 0
M  V30 31446 C 3594.32 2.72557 2.36104 0
M  V30 31447 O 3593.42 2.32838 3.40383 0
M  V30 31448 H 3592.76 0.549198 0.373199 0
M  V30 31449 H 3595.29 1.9624 0.578895 0
M  V30 31450 H 3595.3 2.9521 2.81629 0
M  V30 31451 H 3593.98 3.68544 1.92739 0
M  V30 31452 H 3592.55 2.20577 3.00667 0
M  V30 31453 N 3594.74 -0.737255 1.39292 0
M  V30 31454 C 3595.96 -1.53159 1.39847 0
M  V30 31455 C 3596.39 -1.88099 -0.0056524 0
M  V30 31456 O 3595.75 -1.51749 -0.992058 0
M  V30 31457 C 3595.8 -2.79712 2.27582 0
M  V30 31458 O 3594.9 -3.75543 1.70415 0
M  V30 31459 H 3594.24 -0.462616 0.476322 0
M  V30 31460 H 3596.77 -0.909787 1.83259 0
M  V30 31461 H 3596.78 -3.2847 2.42015 0
M  V30 31462 H 3595.46 -2.53614 3.29626 0
M  V30 31463 H 3594.03 -3.34304 1.65212 0
M  V30 31464 N 3596.22 -1.24431 -0.967199 0
M  V30 31465 C 3597.45 -1.10975 -1.74265 0
M  V30 31466 C 3597.86 0.34049 -1.86111 0
M  V30 31467 O 3597.2 1.24671 -1.34917 0
M  V30 31468 C 3597.26 -1.67618 -3.18032 0
M  V30 31469 C 3596.92 -3.16506 -3.29655 0
M  V30 31470 C 3597.92 -4.13649 -3.14945 0
M  V30 31471 C 3595.61 -3.56475 -3.5388 0
M  V30 31472 C 3597.6 -5.48743 -3.24284 0
M  V30 31473 C 3595.29 -4.91709 -3.62857 0
M  V30 31474 C 3596.29 -5.87652 -3.48072 0
M  V30 31475 O 3595.97 -7.20428 -3.56706 0
M  V30 31476 H 3595.71 -0.388394 -0.553287 0
M  V30 31477 H 3598.26 -1.65027 -1.22292 0
M  V30 31478 H 3596.49 -1.08 -3.71312 0
M  V30 31479 H 3598.18 -1.49444 -3.77387 0
M  V30 31480 H 3598.94 -3.84112 -2.96113 0
M  V30 31481 H 3594.82 -2.82301 -3.64454 0
M  V30 31482 H 3598.37 -6.2361 -3.12661 0
M  V30 31483 H 3594.26 -5.20917 -3.81203 0
M  V30 31484 H 3595.03 -7.28355 -3.73418 0
M  V30 31485 N 3597.7 1.16795 -1.05814 0
M  V30 31486 C 3598.92 1.9166 -0.792552 0
M  V30 31487 C 3599.35 1.76638 0.646567 0
M  V30 31488 O 3598.7 1.08838 1.44996 0
M  V30 31489 C 3598.75 3.40542 -1.18591 0
M  V30 31490 O 3597.86 4.11143 -0.321789 0
M  V30 31491 H 3597.2 0.597287 -0.290077 0
M  V30 31492 H 3599.73 1.48004 -1.41266 0
M  V30 31493 H 3599.74 3.91299 -1.15537 0
M  V30 31494 H 3598.41 3.50794 -2.23419 0
M  V30 31495 H 3596.99 3.70601 -0.413469 0
M  V30 31496 N 3599.17 0.840037 1.33346 0
M  V30 31497 C 3600.58 0.492883 1.80077 0
M  V30 31498 C 3600.94 -0.988191 1.69497 0
M  V30 31499 O 3600.06 -1.77004 1.24493 0
M  V30 31500 C 3600.66 0.887885 3.26959 0
M  V30 31501 C 3599.21 0.59285 3.71702 0
M  V30 31502 C 3598.36 1.09558 2.5474 0
M  V30 31503 H 3601.31 1.02863 1.20851 0
M  V30 31504 H 3601.33 0.198394 3.79982 0
M  V30 31505 H 3600.85 1.96587 3.34627 0
M  V30 31506 H 3598.95 -0.475021 3.6956 0
M  V30 31507 H 3599.06 1.1489 4.6512 0
M  V30 31508 H 3597.42 0.516401 2.4941 0
M  V30 31509 H 3598.21 2.18037 2.6517 0
M  V30 31510 N 3600.65 -1.45872 0.596582 0
M  V30 31511 C 3601.88 -2.06389 0.0933933 0
M  V30 31512 C 3602.29 -1.44369 -1.22288 0
M  V30 31513 O 3601.63 -0.548162 -1.75331 0
M  V30 31514 C 3601.69 -3.59257 -0.132193 0
M  V30 31515 C 3601.36 -4.43549 1.10059 0
M  V30 31516 C 3602.36 -4.79219 2.01606 0
M  V30 31517 C 3600.04 -4.84473 1.32633 0
M  V30 31518 C 3602.03 -5.54655 3.14064 0
M  V30 31519 C 3599.72 -5.59665 2.45394 0
M  V30 31520 C 3600.72 -5.94672 3.35938 0
M  V30 31521 O 3600.41 -6.68342 4.46738 0
M  V30 31522 H 3600.14 -0.673251 0.0609062 0
M  V30 31523 H 3602.69 -1.88277 0.821042 0
M  V30 31524 H 3600.92 -3.75728 -0.914612 0
M  V30 31525 H 3602.61 -4.01653 -0.58561 0
M  V30 31526 H 3603.38 -4.4817 1.85387 0
M  V30 31527 H 3599.26 -4.56667 0.630602 0
M  V30 31528 H 3602.8 -5.81898 3.84761 0
M  V30 31529 H 3598.7 -5.90128 2.6157 0
M  V30 31530 H 3599.47 -6.86781 4.4528 0
M  V30 31531 N 3602.13 -0.335122 -1.53996 0
M  V30 31532 C 3603.38 0.26344 -2.00376 0
M  V30 31533 C 3603.7 1.5174 -1.22474 0
M  V30 31534 O 3602.97 1.93107 -0.329638 0
M  V30 31535 H 3601.55 0.100334 -0.740231 0
M  V30 31536 H 3604.21 -0.454335 -1.8953 0
M  V30 31537 H 3603.31 0.51178 -3.07875 0
M  V30 31538 N 3603.61 1.57472 -0.0635475 0
M  V30 31539 C 3604.83 1.97911 0.620171 0
M  V30 31540 C 3605.26 0.941364 1.62849 0
M  V30 31541 O 3604.62 -0.0939994 1.81056 0
M  V30 31542 C 3604.66 3.374 1.27255 0
M  V30 31543 O 3603.77 3.36202 2.38835 0
M  V30 31544 H 3603.11 0.644385 0.160199 0
M  V30 31545 H 3605.64 2.0415 -0.135618 0
M  V30 31546 H 3605.65 3.74402 1.62134 0
M  V30 31547 H 3604.32 4.12462 0.533651 0
M  V30 31548 H 3602.9 3.1096 2.05812 0
M  V30 31549 N 3605.09 -0.209945 1.56195 0
M  V30 31550 C 3606.33 -0.930764 1.79391 0
M  V30 31551 C 3606.65 -1.84403 0.634071 0
M  V30 31552 O 3605.92 -1.92776 -0.348434 0
M  V30 31553 H 3604.5 -0.346678 0.661682 0
M  V30 31554 H 3607.17 -0.219015 1.93666 0
M  V30 31555 H 3606.26 -1.53071 2.71985 0
M  V30 31556 N 3606.56 -1.50205 -0.4771 0
M  V30 31557 C 3607.79 -1.64912 -1.25772 0
M  V30 31558 C 3608.21 -0.329798 -1.85186 0
M  V30 31559 O 3607.57 0.705611 -1.67005 0
M  V30 31560 C 3607.62 -2.73805 -2.34656 0
M  V30 31561 O 3606.72 -2.3464 -3.39143 0
M  V30 31562 H 3606.06 -0.55117 -0.370281 0
M  V30 31563 H 3608.59 -1.96544 -0.568479 0
M  V30 31564 H 3608.6 -2.967 -2.80059 0
M  V30 31565 H 3607.28 -3.69561 -1.90782 0
M  V30 31566 H 3605.86 -2.22168 -2.99493 0
M  V30 31567 N 3608.04 0.729857 -1.39681 0
M  V30 31568 C 3609.29 1.48657 -1.36914 0
M  V30 31569 C 3609.61 1.94973 0.0325669 0
M  V30 31570 O 3608.88 1.6935 0.98476 0
M  V30 31571 H 3607.46 0.551486 -0.503858 0
M  V30 31572 H 3610.12 0.866125 -1.74598 0
M  V30 31573 H 3609.22 2.36624 -2.03508 0
M  V30 31574 N 3609.52 1.24942 0.960587 0
M  V30 31575 C 3610.77 1.10506 1.70763 0
M  V30 31576 C 3611.12 -0.351351 1.89165 0
M  V30 31577 O 3610.41 -1.25565 1.4472 0
M  V30 31578 C 3610.61 1.78624 3.09561 0
M  V30 31579 C 3610.44 3.30739 3.04699 0
M  V30 31580 C 3609.21 3.99974 3.08786 0
M  V30 31581 C 3611.41 4.27226 2.86325 0
M  V30 31582 N 3609.39 5.38912 2.94019 0
M  V30 31583 C 3610.76 5.53209 2.79928 0
M  V30 31584 C 3612.81 4.17714 2.7096 0
M  V30 31585 C 3611.52 6.70768 2.59736 0
M  V30 31586 C 3613.54 5.34959 2.52137 0
M  V30 31587 C 3612.9 6.59878 2.46455 0
M  V30 31588 H 3609 0.459038 0.633094 0
M  V30 31589 H 3611.59 1.57958 1.1383 0
M  V30 31590 H 3609.76 1.33676 3.64672 0
M  V30 31591 H 3611.49 1.56984 3.73012 0
M  V30 31592 H 3608.25 3.51191 3.17745 0
M  V30 31593 H 3608.67 6.11811 2.89856 0
M  V30 31594 H 3613.31 3.21888 2.74131 0
M  V30 31595 H 3611.03 7.6671 2.55307 0
M  V30 31596 H 3614.62 5.29455 2.41182 0
M  V30 31597 H 3613.5 7.49072 2.32078 0
M  V30 31598 N 3611 -1.16233 1.06432 0
M  V30 31599 C 3612.22 -1.91237 0.802705 0
M  V30 31600 C 3612.65 -1.76979 -0.637191 0
M  V30 31601 O 3612.01 -1.09606 -1.44417 0
M  V30 31602 C 3612.05 -3.39908 1.20395 0
M  V30 31603 O 3611.16 -4.10966 0.343588 0
M  V30 31604 H 3610.5 -0.59574 0.29324 0
M  V30 31605 H 3613.03 -1.47253 1.42048 0
M  V30 31606 H 3613.04 -3.90681 1.17611 0
M  V30 31607 H 3611.71 -3.49605 2.25276 0
M  V30 31608 H 3610.29 -3.70376 0.433117 0
M  V30 31609 N 3612.48 -0.847097 -1.32899 0
M  V30 31610 C 3613.7 -0.459623 -2.02243 0
M  V30 31611 C 3614.13 0.933869 -1.6328 0
M  V30 31612 O 3613.48 1.61207 -0.82958 0
M  V30 31613 C 3613.53 -0.597512 -3.55615 0
M  V30 31614 O 3612.64 0.372847 -4.10711 0
M  V30 31615 H 3611.98 -0.185712 -0.637501 0
M  V30 31616 H 3614.51 -1.1442 -1.69615 0
M  V30 31617 H 3614.52 -0.482217 -4.0514 0
M  V30 31618 H 3613.19 -1.61372 -3.83317 0
M  V30 31619 H 3611.77 0.214421 -3.72283 0
M  V30 31620 N 3613.95 1.45554 -0.604309 0
M  V30 31621 C 3615.18 2.07146 -0.10267 0
M  V30 31622 C 3615.6 1.44654 1.20236 0
M  V30 31623 O 3614.96 0.538064 1.73132 0
M  V30 31624 C 3615.01 3.6059 0.0269597 0
M  V30 31625 O 3614.11 3.98061 1.07803 0
M  V30 31626 H 3613.46 0.660022 -0.0725783 0
M  V30 31627 H 3615.99 1.86858 -0.833388 0
M  V30 31628 H 3616 4.07372 0.226228 0
M  V30 31629 H 3614.67 4.05461 -0.925968 0
M  V30 31630 H 3613.25 3.62954 0.855488 0
M  V30 31631 N 3615.43 0.343284 1.53816 0
M  V30 31632 C 3616.85 -0.00865043 1.59598 0
M  V30 31633 C 3617.05 -1.4875 1.35925 0
M  V30 31634 O 3616.1 -2.24618 1.15338 0
M  V30 31635 C 3617.42 0.427287 2.97649 0
M  V30 31636 C 3618.97 0.379608 3.1069 0
M  V30 31637 C 3619.44 0.79101 4.51118 0
M  V30 31638 N 3620.93 0.745186 4.57167 0
M  V30 31639 C 3621.67 1.03547 5.63973 0
M  V30 31640 N 3621.16 1.39389 6.78633 0
M  V30 31641 N 3622.96 0.959725 5.53846 0
M  V30 31642 H 3615.11 1.30658 1.67458 0
M  V30 31643 H 3617.37 0.532602 0.784244 0
M  V30 31644 H 3617.08 1.45839 3.20037 0
M  V30 31645 H 3616.95 -0.197638 3.76682 0
M  V30 31646 H 3619.34 -0.642325 2.88025 0
M  V30 31647 H 3619.42 1.03973 2.33716 0
M  V30 31648 H 3619.06 1.81095 4.74518 0
M  V30 31649 H 3618.99 0.108366 5.26488 0
M  V30 31650 H 3621.48 0.480818 3.74829 0
M  V30 31651 H 3621.8 1.60024 7.5605 0
M  V30 31652 H 3620.14 1.43234 6.8008 0
M  V30 31653 H 3623.33 0.679055 4.63148 0
M  V30 31654 H 3623.5 1.1893 6.36993 0
M  V30 31655 N 3616.91 -1.57436 0.0718977 0
M  V30 31656 C 3618.16 -1.93111 -0.596018 0
M  V30 31657 C 3618.48 -0.952682 -1.70144 0
M  V30 31658 O 3617.75 -0.000847376 -1.959 0
M  V30 31659 H 3616.33 -0.71289 -0.223153 0
M  V30 31660 H 3618.99 -1.94467 0.129778 0
M  V30 31661 H 3618.09 -2.94918 -1.02126 0
M  V30 31662 N 3618.39 0.201658 -1.56305 0
M  V30 31663 C 3619.8 0.766923 -1.70221 0
M  V30 31664 C 3620.15 1.84137 -0.677351 0
M  V30 31665 O 3619.28 2.1575 0.167566 0
M  V30 31666 C 3619.87 1.39789 -3.08617 0
M  V30 31667 C 3618.43 1.91032 -3.24321 0
M  V30 31668 C 3617.58 0.777806 -2.66168 0
M  V30 31669 H 3620.53 -0.0233162 -1.58683 0
M  V30 31670 H 3620.55 2.26716 -3.05582 0
M  V30 31671 H 3620.06 0.61566 -3.83186 0
M  V30 31672 H 3618.16 2.71994 -2.54656 0
M  V30 31673 H 3618.27 2.07662 -4.31756 0
M  V30 31674 H 3616.64 1.19038 -2.25171 0
M  V30 31675 H 3617.42 0.00792145 -3.43299 0
M  V30 31676 N 3619.87 1.50456 0.469128 0
M  V30 31677 C 3621.1 1.65063 1.24249 0
M  V30 31678 C 3621.5 0.334154 1.86226 0
M  V30 31679 O 3620.85 -0.694079 1.70083 0
M  V30 31680 C 3620.91 2.68548 2.39002 0
M  V30 31681 C 3620.57 4.12049 1.97647 0
M  V30 31682 C 3621.57 4.97855 1.49788 0
M  V30 31683 C 3619.26 4.57976 2.06308 0
M  V30 31684 C 3621.25 6.27637 1.11134 0
M  V30 31685 C 3618.94 5.87763 1.67266 0
M  V30 31686 C 3619.93 6.72419 1.19757 0
M  V30 31687 O 3619.62 7.99783 0.812568 0
M  V30 31688 H 3619.35 0.557831 0.381838 0
M  V30 31689 H 3621.91 1.97443 0.566156 0
M  V30 31690 H 3620.14 2.31414 3.09813 0
M  V30 31691 H 3621.83 2.72355 3.00961 0
M  V30 31692 H 3622.59 4.63588 1.42517 0
M  V30 31693 H 3618.47 3.92228 2.42235 0
M  V30 31694 H 3622.02 6.93666 0.739814 0
M  V30 31695 H 3617.91 6.21551 1.74197 0
M  V30 31696 H 3618.68 8.1307 0.941243 0
M  V30 31697 N 3621.34 -0.722439 1.40066 0
M  V30 31698 C 3622.25 -1.86676 1.42089 0
M  V30 31699 C 3623.27 -1.71139 0.314253 0
M  V30 31700 O 3624.45 -1.93523 0.557744 0
M  V30 31701 C 3621.51 -3.22403 1.27503 0
M  V30 31702 C 3620.57 -3.50244 2.4825 0
M  V30 31703 C 3619.81 -4.79495 2.3435 0
M  V30 31704 O 3620.03 -5.54105 1.35365 0
M  V30 31705 O 3618.96 -5.07518 3.23588 0
M  V30 31706 H 3622.79 -1.87925 2.38575 0
M  V30 31707 H 3620.37 -0.871947 1.21315 0
M  V30 31708 H 3622.26 -4.03489 1.2155 0
M  V30 31709 H 3620.93 -3.21897 0.341197 0
M  V30 31710 H 3619.84 -2.69194 2.59779 0
M  V30 31711 H 3621.17 -3.55541 3.4037 0
M  V30 31712 N 3622.82 -1.2545 -0.953947 0
M  V30 31713 C 3624.05 -1.1308 -1.73861 0
M  V30 31714 C 3624.47 0.311449 -1.85504 0
M  V30 31715 O 3623.83 1.22562 -1.33598 0
M  V30 31716 C 3623.88 -1.79068 -3.12997 0
M  V30 31717 O 3622.98 -1.07079 -3.98256 0
M  V30 31718 H 3622.32 -0.394756 -0.533914 0
M  V30 31719 H 3624.85 -1.66026 -1.19568 0
M  V30 31720 H 3624.86 -1.8538 -3.63453 0
M  V30 31721 H 3623.54 -2.83998 -3.03839 0
M  V30 31722 H 3622.12 -1.08652 -3.5672 0
M  V30 31723 N 3624.3 1.15667 -1.07047 0
M  V30 31724 C 3625.55 1.86011 -0.790204 0
M  V30 31725 C 3625.87 1.82549 0.685631 0
M  V30 31726 O 3625.14 1.26428 1.49642 0
M  V30 31727 H 3623.72 0.688696 -0.289322 0
M  V30 31728 H 3626.38 1.40231 -1.35357 0
M  V30 31729 H 3625.48 2.91237 -1.12195 0
M  V30 31730 N 3625.78 0.854133 1.32447 0
M  V30 31731 C 3627 0.470342 2.01996 0
M  V30 31732 C 3627.43 -0.925196 1.63773 0
M  V30 31733 O 3626.79 -1.60765 0.838117 0
M  V30 31734 C 3626.84 0.616363 3.55293 0
M  V30 31735 O 3625.94 -0.351061 4.10903 0
M  V30 31736 H 3625.28 0.18909 0.636507 0
M  V30 31737 H 3627.81 1.15318 1.69006 0
M  V30 31738 H 3627.82 0.503695 4.04879 0
M  V30 31739 H 3626.5 1.63402 3.82456 0
M  V30 31740 H 3625.07 -0.194675 3.72391 0
M  V30 31741 N 3627.26 -1.45231 0.61202 0
M  V30 31742 C 3628.51 -2.01807 0.108732 0
M  V30 31743 C 3628.83 -1.48239 -1.26689 0
M  V30 31744 O 3628.1 -0.6784 -1.83779 0
M  V30 31745 H 3626.68 -0.746073 0.0372053 0
M  V30 31746 H 3629.34 -1.77975 0.794417 0
M  V30 31747 H 3628.43 -3.12039 0.0618755 0
M  V30 31748 N 3628.74 -0.351436 -1.53632 0
M  V30 31749 C 3629.69 0.517828 -2.22042 0
M  V30 31750 C 3630.67 1.05988 -1.21059 0
M  V30 31751 O 3631.86 0.992272 -1.46571 0
M  V30 31752 C 3628.99 1.66427 -3.00262 0
M  V30 31753 C 3628.08 1.13577 -4.08609 0
M  V30 31754 N 3628.47 0.329128 -5.04728 0
M  V30 31755 C 3626.77 1.41193 -4.23061 0
M  V30 31756 C 3627.47 0.0413983 -5.81685 0
M  V30 31757 N 3626.44 0.635193 -5.39876 0
M  V30 31758 H 3630.24 -0.105438 -2.93711 0
M  V30 31759 H 3627.76 -0.158709 -1.61623 0
M  V30 31760 H 3629.76 2.29905 -3.47778 0
M  V30 31761 H 3628.42 2.29073 -2.30121 0
M  V30 31762 H 3629.43 -0.0304688 -5.17891 0
M  V30 31763 H 3626.1 2.04221 -3.64143 0
M  V30 31764 H 3627.49 -0.609804 -6.69127 0
M  V30 31765 N 3630.21 1.57396 -0.0802459 0
M  V30 31766 C 3631.44 1.98557 0.599145 0
M  V30 31767 C 3631.86 0.958583 1.61842 0
M  V30 31768 O 3631.22 -0.0747907 1.81146 0
M  V30 31769 C 3631.27 3.3873 1.23669 0
M  V30 31770 O 3630.37 3.38716 2.35256 0
M  V30 31771 H 3629.71 0.646048 0.153355 0
M  V30 31772 H 3632.24 2.03995 -0.157263 0
M  V30 31773 H 3632.25 3.761 1.58154 0
M  V30 31774 H 3630.93 4.13005 0.489874 0
M  V30 31775 H 3629.51 3.13125 2.02502 0
M  V30 31776 N 3631.69 -0.193366 1.56409 0
M  V30 31777 C 3632.92 -0.933742 1.85192 0
M  V30 31778 C 3633.34 -1.7599 0.664022 0
M  V30 31779 O 3632.7 -1.77118 -0.387167 0
M  V30 31780 C 3632.75 -1.80427 3.12216 0
M  V30 31781 O 3631.85 -2.90327 2.92889 0
M  V30 31782 H 3631.19 -0.262851 0.609758 0
M  V30 31783 H 3633.72 -0.198159 2.03638 0
M  V30 31784 H 3633.73 -2.20858 3.43054 0
M  V30 31785 H 3632.41 -1.19726 3.98294 0
M  V30 31786 H 3630.98 -2.53638 2.73354 0
M  V30 31787 N 3633.17 -1.50702 -0.461142 0
M  V30 31788 C 3634.42 -1.61868 -1.21009 0
M  V30 31789 C 3634.74 -0.32577 -1.9226 0
M  V30 31790 O 3634.01 0.657273 -1.84545 0
M  V30 31791 H 3632.59 -0.596502 -0.449661 0
M  V30 31792 H 3635.25 -1.87526 -0.531023 0
M  V30 31793 H 3634.35 -2.43474 -1.95261 0
M  V30 31794 N 3634.65 0.715001 -1.40447 0
M  V30 31795 C 3635.58 1.8419 -1.43514 0
M  V30 31796 C 3636.56 1.67505 -0.295998 0
M  V30 31797 O 3637.74 1.87527 -0.5047 0
M  V30 31798 C 3634.87 3.2215 -1.29757 0
M  V30 31799 C 3633.83 3.53508 -2.4128 0
M  V30 31800 C 3633.15 4.90618 -2.12599 0
M  V30 31801 C 3634.45 3.54447 -3.83621 0
M  V30 31802 H 3636.15 1.81881 -2.37823 0
M  V30 31803 H 3633.69 0.873635 -1.14471 0
M  V30 31804 H 3635.65 4.00678 -1.30519 0
M  V30 31805 H 3634.37 3.25036 -0.319247 0
M  V30 31806 H 3633.03 2.7732 -2.39769 0
M  V30 31807 H 3632.68 4.90107 -1.13156 0
M  V30 31808 H 3632.38 5.12565 -2.87317 0
M  V30 31809 H 3633.9 5.71479 -2.15044 0
M  V30 31810 H 3635.32 4.23014 -3.86952 0
M  V30 31811 H 3633.71 3.87921 -4.57862 0
M  V30 31812 H 3634.78 2.53819 -4.13163 0
M  V30 31813 N 3636.13 1.25954 0.947281 0
M  V30 31814 C 3637.37 1.10918 1.68943 0
M  V30 31815 C 3637.69 -0.349182 1.91848 0
M  V30 31816 O 3636.96 -1.24704 1.51082 0
M  V30 31817 H 3635.54 0.407473 0.626079 0
M  V30 31818 H 3638.21 1.58189 1.13851 0
M  V30 31819 H 3637.3 1.62321 2.66567 0
M  V30 31820 N 3637.6 -1.15097 1.07659 0
M  V30 31821 C 3638.55 -2.1795 0.669466 0
M  V30 31822 C 3639.54 -1.57944 -0.307006 0
M  V30 31823 O 3640.73 -1.76591 -0.120236 0
M  V30 31824 C 3637.86 -3.43224 0.0721476 0
M  V30 31825 C 3636.95 -4.10277 1.07395 0
M  V30 31826 N 3637.34 -4.52769 2.25463 0
M  V30 31827 C 3635.63 -4.3666 0.907986 0
M  V30 31828 C 3636.34 -5.04805 2.89044 0
M  V30 31829 N 3635.31 -4.98543 2.16693 0
M  V30 31830 H 3639.11 -2.48536 1.56866 0
M  V30 31831 H 3636.63 -1.31699 0.950221 0
M  V30 31832 H 3638.62 -4.16223 -0.237432 0
M  V30 31833 H 3637.28 -3.1412 -0.822128 0
M  V30 31834 H 3638.3 -4.46056 2.63163 0
M  V30 31835 H 3634.97 -4.17446 0.06687 0
M  V30 31836 H 3636.36 -5.47618 3.89313 0
M  V30 31837 N 3639.08 -0.861145 -1.31993 0
M  V30 31838 C 3640.5 -0.551871 -1.49755 0
M  V30 31839 C 3640.7 0.916025 -1.79475 0
M  V30 31840 O 3639.75 1.69871 -1.86816 0
M  V30 31841 C 3641.07 -1.44447 -2.63734 0
M  V30 31842 C 3642.62 -1.44557 -2.77619 0
M  V30 31843 C 3643.09 -2.32353 -3.94685 0
M  V30 31844 N 3644.58 -2.30185 -4.01957 0
M  V30 31845 C 3645.32 -2.94842 -4.91788 0
M  V30 31846 N 3644.81 -3.68636 -5.86583 0
M  V30 31847 N 3646.61 -2.84196 -4.84963 0
M  V30 31848 H 3638.76 -1.81107 -1.10969 0
M  V30 31849 H 3641.02 -0.773906 -0.547516 0
M  V30 31850 H 3640.73 -2.48857 -2.48521 0
M  V30 31851 H 3640.6 -1.13657 -3.59669 0
M  V30 31852 H 3642.99 -0.409085 -2.92251 0
M  V30 31853 H 3643.07 -1.79366 -1.82377 0
M  V30 31854 H 3642.71 -3.36074 -3.80811 0
M  V30 31855 H 3642.64 -1.94874 -4.89216 0
M  V30 31856 H 3645.13 -1.76539 -3.34129 0
M  V30 31857 H 3645.45 -4.15122 -6.51839 0
M  V30 31858 H 3643.79 -3.72744 -5.86589 0
M  V30 31859 H 3646.98 -2.26091 -4.09879 0
M  V30 31860 H 3647.15 -3.34867 -5.54769 0
M  V30 31861 N 3640.56 1.44905 -0.619713 0
M  V30 31862 C 3641.47 2.34414 0.09351 0
M  V30 31863 C 3642.49 1.51953 0.847712 0
M  V30 31864 O 3643.66 1.84719 0.802559 0
M  V30 31865 C 3640.73 3.29762 1.07041 0
M  V30 31866 C 3639.79 4.28129 0.316835 0
M  V30 31867 C 3639.02 5.18923 1.2472 0
M  V30 31868 O 3639.24 5.13399 2.48551 0
M  V30 31869 O 3638.18 5.97362 0.737694 0
M  V30 31870 H 3642 2.96828 -0.642387 0
M  V30 31871 H 3639.59 1.44488 -0.379933 0
M  V30 31872 H 3641.47 3.88484 1.63274 0
M  V30 31873 H 3640.15 2.69896 1.78712 0
M  V30 31874 H 3639.05 3.72988 -0.288258 0
M  V30 31875 H 3640.39 4.90884 -0.359626 0
M  V30 31876 N 3642.04 0.359579 1.53443 0
M  V30 31877 C 3643.26 -0.23554 2.06058 0
M  V30 31878 C 3643.69 -1.42158 1.23177 0
M  V30 31879 O 3643.05 -1.79577 0.24937 0
M  V30 31880 C 3643.09 -0.612963 3.55352 0
M  V30 31881 O 3642.2 -1.71098 3.75232 0
M  V30 31882 H 3641.54 -0.035715 0.663039 0
M  V30 31883 H 3644.07 0.518443 1.97923 0
M  V30 31884 H 3644.08 -0.885652 3.98272 0
M  V30 31885 H 3642.75 0.254316 4.15122 0
M  V30 31886 H 3641.33 -1.43431 3.44212 0
M  V30 31887 N 3643.52 -1.57351 0.0885919 0
M  V30 31888 C 3644.93 -1.57333 -0.26806 0
M  V30 31889 C 3645.13 -1.09927 -1.68873 0
M  V30 31890 O 3644.19 -0.772771 -2.40384 0
M  V30 31891 C 3645.5 -3.00635 -0.0624125 0
M  V30 31892 C 3647.05 -3.12727 -0.130662 0
M  V30 31893 C 3647.52 -4.57976 0.046911 0
M  V30 31894 N 3649.02 -4.63199 -0.00813951 0
M  V30 31895 C 3649.75 -5.73305 0.104598 0
M  V30 31896 N 3649.25 -6.92267 0.271804 0
M  V30 31897 N 3651.04 -5.62081 0.0463321 0
M  V30 31898 H 3643.19 -1.86476 1.01689 0
M  V30 31899 H 3645.45 -0.860413 0.397986 0
M  V30 31900 H 3645.16 -3.39493 0.918564 0
M  V30 31901 H 3645.03 -3.68454 -0.807537 0
M  V30 31902 H 3647.42 -2.73746 -1.10214 0
M  V30 31903 H 3647.5 -2.47513 0.645845 0
M  V30 31904 H 3647.15 -4.9765 1.01523 0
M  V30 31905 H 3647.08 -5.21243 -0.749209 0
M  V30 31906 H 3649.57 -3.77658 -0.135098 0
M  V30 31907 H 3649.88 -7.72009 0.349517 0
M  V30 31908 H 3648.22 -6.9432 0.307387 0
M  V30 31909 H 3651.42 -4.68026 -0.0831173 0
M  V30 31910 H 3651.59 -6.47854 0.137643 0
M  V30 31911 N 3644.99 0.185069 -1.5651 0
M  V30 31912 C 3646.22 0.923908 -1.85684 0
M  V30 31913 C 3646.64 1.75635 -0.673346 0
M  V30 31914 O 3646 1.77321 0.377769 0
M  V30 31915 C 3646.05 1.78768 -3.13168 0
M  V30 31916 O 3645.15 2.88769 -2.94425 0
M  V30 31917 H 3644.5 0.259614 -0.611144 0
M  V30 31918 H 3647.03 0.187357 -2.0374 0
M  V30 31919 H 3647.04 2.19035 -3.4422 0
M  V30 31920 H 3645.71 1.17612 -3.98924 0
M  V30 31921 H 3644.29 2.52185 -2.74695 0
M  V30 31922 N 3646.47 1.50945 0.453144 0
M  V30 31923 C 3647.72 1.62508 1.20149 0
M  V30 31924 C 3648.04 0.335961 1.92084 0
M  V30 31925 O 3647.31 -0.647477 1.84891 0
M  V30 31926 H 3645.89 0.598878 0.446491 0
M  V30 31927 H 3648.55 1.87805 0.52107 0
M  V30 31928 H 3647.65 2.44506 1.93967 0
M  V30 31929 N 3647.95 -0.707543 1.40825 0
M  V30 31930 C 3648.88 -1.83263 1.3765 0
M  V30 31931 C 3649.9 -1.60364 0.280575 0
M  V30 31932 O 3651.08 -1.70089 0.541483 0
M  V30 31933 C 3648.18 -3.19814 1.12126 0
M  V30 31934 C 3647.36 -3.69842 2.33529 0
M  V30 31935 C 3646.42 -4.85029 2.04043 0
M  V30 31936 O 3645.44 -4.97263 2.7698 0
M  V30 31937 N 3646.64 -5.71409 1.02332 0
M  V30 31938 H 3649.41 -1.86482 2.34615 0
M  V30 31939 H 3646.97 -0.889401 1.35282 0
M  V30 31940 H 3648.96 -3.9448 0.903732 0
M  V30 31941 H 3647.53 -3.11693 0.237996 0
M  V30 31942 H 3646.75 -2.86217 2.7106 0
M  V30 31943 H 3648.04 -4.00004 3.14443 0
M  V30 31944 H 3647.44 -5.64143 0.41941 0
M  V30 31945 H 3646 -6.46026 0.865685 0
M  V30 31946 N 3649.43 -1.26454 -0.940588 0
M  V30 31947 C 3650.65 -1.14917 -1.72652 0
M  V30 31948 C 3651.08 0.291756 -1.85824 0
M  V30 31949 O 3650.44 1.21138 -1.3489 0
M  V30 31950 C 3650.48 -1.82378 -3.1108 0
M  V30 31951 O 3649.59 -1.11297 -3.97098 0
M  V30 31952 H 3648.93 -0.400396 -0.529697 0
M  V30 31953 H 3651.46 -1.67285 -1.178 0
M  V30 31954 H 3651.47 -1.89225 -3.61466 0
M  V30 31955 H 3650.14 -2.87204 -3.0081 0
M  V30 31956 H 3648.72 -1.12429 -3.55548 0
M  V30 31957 N 3650.91 1.14525 -1.08268 0
M  V30 31958 C 3652.13 1.89935 -0.833028 0
M  V30 31959 C 3652.56 1.7797 0.608954 0
M  V30 31960 O 3651.91 1.1189 1.42655 0
M  V30 31961 C 3651.96 3.37949 -1.25788 0
M  V30 31962 O 3651.07 4.10368 -0.408926 0
M  V30 31963 H 3650.41 0.590999 -0.302681 0
M  V30 31964 H 3652.94 1.44974 -1.44373 0
M  V30 31965 H 3652.95 3.88761 -1.23811 0
M  V30 31966 H 3651.62 3.45976 -2.3081 0
M  V30 31967 H 3650.2 3.6964 -0.491985 0
M  V30 31968 N 3652.39 0.868133 1.31534 0
M  V30 31969 C 3653.63 0.47721 1.96385 0
M  V30 31970 C 3653.95 -0.973352 1.6897 0
M  V30 31971 O 3653.22 -1.68209 1.00412 0
M  V30 31972 H 3651.8 0.173481 0.726576 0
M  V30 31973 H 3654.47 1.10752 1.60375 0
M  V30 31974 H 3653.56 0.633429 3.05604 0
M  V30 31975 N 3653.86 -1.44574 0.627389 0
M  V30 31976 C 3655.09 -2.06144 0.13715 0
M  V30 31977 C 3655.5 -1.4693 -1.19198 0
M  V30 31978 O 3654.84 -0.585229 -1.74129 0
M  V30 31979 C 3654.91 -3.59456 -0.0559597 0
M  V30 31980 C 3654.57 -4.41115 1.19443 0
M  V30 31981 C 3655.57 -4.74835 2.11726 0
M  V30 31982 C 3653.25 -4.8155 1.4288 0
M  V30 31983 C 3655.25 -5.47869 3.25758 0
M  V30 31984 C 3652.93 -5.54334 2.5721 0
M  V30 31985 C 3653.93 -5.87413 3.48476 0
M  V30 31986 O 3653.62 -6.58715 4.60814 0
M  V30 31987 H 3653.35 -0.671807 0.0751732 0
M  V30 31988 H 3655.91 -1.86493 0.860793 0
M  V30 31989 H 3654.14 -3.77584 -0.834708 0
M  V30 31990 H 3655.82 -4.02805 -0.500282 0
M  V30 31991 H 3656.59 -4.44137 1.94852 0
M  V30 31992 H 3652.47 -4.55226 0.727326 0
M  V30 31993 H 3656.01 -5.73605 3.97017 0
M  V30 31994 H 3651.91 -5.84447 2.74029 0
M  V30 31995 H 3652.68 -6.77181 4.59748 0
M  V30 31996 N 3655.34 -0.367711 -1.5325 0
M  V30 31997 C 3656.59 0.220878 -2.00889 0
M  V30 31998 C 3656.91 1.49108 -1.25665 0
M  V30 31999 O 3656.18 1.92364 -0.370525 0
M  V30 32000 H 3654.76 0.0846102 -0.742193 0
M  V30 32001 H 3657.42 -0.494435 -1.88524 0
M  V30 32002 H 3656.52 0.44636 -3.08892 0
M  V30 32003 N 3656.82 1.57302 -0.0969353 0
M  V30 32004 C 3657.75 2.11156 0.891394 0
M  V30 32005 C 3658.76 1.04921 1.2448 0
M  V30 32006 O 3659.95 1.32362 1.1976 0
M  V30 32007 C 3657.05 2.57791 2.19994 0
M  V30 32008 C 3656.23 3.8788 2.02158 0
M  V30 32009 C 3655.29 4.20343 3.16541 0
M  V30 32010 O 3654.31 4.89533 2.90424 0
M  V30 32011 N 3655.51 3.75893 4.42363 0
M  V30 32012 H 3658.28 2.96579 0.431424 0
M  V30 32013 H 3655.84 1.6166 0.0881174 0
M  V30 32014 H 3657.83 2.76552 2.95468 0
M  V30 32015 H 3656.4 1.77369 2.57409 0
M  V30 32016 H 3655.62 3.78248 1.11004 0
M  V30 32017 H 3656.91 4.72984 1.87521 0
M  V30 32018 H 3656.31 3.20045 4.66463 0
M  V30 32019 H 3654.86 3.99806 5.1478 0
M  V30 32020 N 3658.3 -0.176766 1.56606 0
M  V30 32021 C 3659.25 -1.22344 1.92395 0
M  V30 32022 C 3660.23 -1.40078 0.791646 0
M  V30 32023 O 3661.42 -1.4214 1.05476 0
M  V30 32024 C 3658.55 -2.56413 2.2827 0
M  V30 32025 C 3657.64 -2.42396 3.48002 0
M  V30 32026 N 3658.03 -1.98084 4.65399 0
M  V30 32027 C 3656.33 -2.73238 3.52501 0
M  V30 32028 C 3657.03 -1.96399 5.47542 0
M  V30 32029 N 3656 -2.38598 4.88439 0
M  V30 32030 H 3659.81 -0.872457 2.80652 0
M  V30 32031 H 3657.32 -0.385079 1.57769 0
M  V30 32032 H 3659.32 -3.32039 2.52103 0
M  V30 32033 H 3657.98 -2.92319 1.4135 0
M  V30 32034 H 3658.99 -1.68507 4.8972 0
M  V30 32035 H 3655.67 -3.13218 2.76045 0
M  V30 32036 H 3657.06 -1.63884 6.51607 0
M  V30 32037 N 3659.78 -1.51183 -0.445132 0
M  V30 32038 C 3661.02 -1.63143 -1.19285 0
M  V30 32039 C 3661.34 -0.346143 -1.91903 0
M  V30 32040 O 3660.61 0.637663 -1.85231 0
M  V30 32041 H 3659.19 -0.601237 -0.443309 0
M  V30 32042 H 3661.86 -1.88079 -0.511103 0
M  V30 32043 H 3660.95 -2.45531 -1.92668 0
M  V30 32044 N 3661.25 0.700065 -1.41198 0
M  V30 32045 C 3662.48 1.49397 -1.43858 0
M  V30 32046 C 3662.9 1.88048 -0.0442208 0
M  V30 32047 O 3662.26 1.54326 0.951476 0
M  V30 32048 C 3662.31 2.7358 -2.34918 0
M  V30 32049 O 3661.41 3.70893 -1.80312 0
M  V30 32050 H 3660.75 0.449824 -0.48842 0
M  V30 32051 H 3663.28 0.860879 -1.85607 0
M  V30 32052 H 3663.29 3.21938 -2.50639 0
M  V30 32053 H 3661.97 2.44785 -3.36234 0
M  V30 32054 H 3660.55 3.29806 -1.74018 0
M  V30 32055 N 3662.73 1.26951 0.933869 0
M  V30 32056 C 3663.96 1.15831 1.7204 0
M  V30 32057 C 3664.38 -0.281897 1.85976 0
M  V30 32058 O 3663.74 -1.20421 1.35531 0
M  V30 32059 C 3663.79 1.84025 3.10108 0
M  V30 32060 O 3662.89 1.13401 3.96502 0
M  V30 32061 H 3662.23 0.4032 0.527566 0
M  V30 32062 H 3664.76 1.67907 1.16911 0
M  V30 32063 H 3664.77 1.91139 3.60458 0
M  V30 32064 H 3663.45 2.88796 2.99282 0
M  V30 32065 H 3662.02 1.14313 3.54946 0
M  V30 32066 N 3664.21 -1.13949 1.08873 0
M  V30 32067 C 3665.43 -1.89491 0.843089 0
M  V30 32068 C 3665.86 -1.78291 -0.599507 0
M  V30 32069 O 3665.22 -1.12644 -1.4206 0
M  V30 32070 C 3665.27 -3.37278 1.27578 0
M  V30 32071 O 3664.37 -4.10145 0.430683 0
M  V30 32072 H 3663.71 -0.589386 0.305811 0
M  V30 32073 H 3666.24 -1.44207 1.4514 0
M  V30 32074 H 3666.25 -3.88098 1.25871 0
M  V30 32075 H 3664.93 -3.44747 2.32641 0
M  V30 32076 H 3663.5 -3.69374 0.511581 0
M  V30 32077 N 3665.69 -0.875096 -1.31072 0
M  V30 32078 C 3666.94 -0.487618 -1.96129 0
M  V30 32079 C 3667.26 0.964377 -1.69484 0
M  V30 32080 O 3666.53 1.67674 -1.01303 0
M  V30 32081 H 3665.11 -0.177332 -0.725646 0
M  V30 32082 H 3667.77 -1.11601 -1.59785 0
M  V30 32083 H 3666.86 -0.649628 -3.05264 0
M  V30 32084 N 3667.17 1.44239 -0.635047 0
M  V30 32085 C 3668.12 2.27824 0.0894974 0
M  V30 32086 C 3669.1 1.38886 0.81238 0
M  V30 32087 O 3670.29 1.62663 0.697842 0
M  V30 32088 C 3667.42 3.26274 1.06772 0
M  V30 32089 C 3666.51 4.227 0.344259 0
M  V30 32090 N 3666.9 5.0187 -0.629283 0
M  V30 32091 C 3665.2 4.42105 0.588176 0
M  V30 32092 C 3665.9 5.72015 -1.05707 0
M  V30 32093 N 3664.87 5.42163 -0.395048 0
M  V30 32094 H 3668.68 2.86444 -0.65782 0
M  V30 32095 H 3666.19 1.55724 -0.460863 0
M  V30 32096 H 3668.19 3.84915 1.60143 0
M  V30 32097 H 3666.85 2.69215 1.8153 0
M  V30 32098 H 3667.86 5.08011 -1.00726 0
M  V30 32099 H 3664.53 3.9614 1.31832 0
M  V30 32100 H 3665.92 6.45596 -1.86159 0
M  V30 32101 N 3668.64 0.375833 1.53053 0
M  V30 32102 C 3669.87 -0.213672 2.06296 0
M  V30 32103 C 3670.29 -1.40844 1.24678 0
M  V30 32104 O 3669.65 -1.79302 0.268402 0
M  V30 32105 C 3669.7 -0.575238 3.55982 0
M  V30 32106 O 3668.8 -1.67108 3.77026 0
M  V30 32107 H 3668.15 -0.0286805 0.66338 0
M  V30 32108 H 3670.68 0.539406 1.97362 0
M  V30 32109 H 3670.69 -0.84336 3.99188 0
M  V30 32110 H 3669.36 0.298331 4.14829 0
M  V30 32111 H 3667.94 -1.39772 3.45714 0
M  V30 32112 N 3670.12 -1.57248 0.105276 0
M  V30 32113 C 3671.35 -1.99485 -0.56748 0
M  V30 32114 C 3671.77 -0.98421 -1.60296 0
M  V30 32115 O 3671.13 0.0459626 -1.81242 0
M  V30 32116 C 3671.18 -3.40655 -1.18265 0
M  V30 32117 O 3670.28 -3.42416 -2.29837 0
M  V30 32118 H 3669.62 -0.648406 -0.143058 0
M  V30 32119 H 3672.15 -2.03719 0.189697 0
M  V30 32120 H 3672.16 -3.78569 -1.5215 0
M  V30 32121 H 3670.84 -4.13732 -0.424106 0
M  V30 32122 H 3669.42 -3.16307 -1.97495 0
M  V30 32123 N 3671.6 0.168458 -1.56697 0
M  V30 32124 C 3672.83 0.90012 -1.86294 0
M  V30 32125 C 3673.24 1.757 -0.690999 0
M  V30 32126 O 3672.6 1.79308 0.339824 0
M  V30 32127 C 3672.65 1.77451 -3.1495 0
M  V30 32128 O 3672.37 0.952192 -4.27627 0
M  V30 32129 C 3673.87 2.6156 -3.57913 0
M  V30 32130 H 3671.09 0.261358 -0.618007 0
M  V30 32131 H 3673.64 0.167694 -2.03811 0
M  V30 32132 H 3671.79 2.46025 -2.9925 0
M  V30 32133 H 3672.21 1.55048 -5.01059 0
M  V30 32134 H 3673.68 3.18524 -4.50829 0
M  V30 32135 H 3674.16 3.36568 -2.82168 0
M  V30 32136 H 3674.76 1.98314 -3.76234 0
M  V30 32137 N 3673.08 1.51417 0.437109 0
M  V30 32138 C 3674.03 1.69132 1.529 0
M  V30 32139 C 3675.01 0.545306 1.51378 0
M  V30 32140 O 3676.2 0.801227 1.57827 0
M  V30 32141 C 3673.33 1.81995 2.91089 0
M  V30 32142 C 3672.42 3.02381 2.97366 0
M  V30 32143 N 3672.81 4.2555 2.73388 0
M  V30 32144 C 3671.11 3.0164 3.28526 0
M  V30 32145 C 3671.81 5.0681 2.85514 0
M  V30 32146 N 3670.79 4.41463 3.17193 0
M  V30 32147 H 3674.59 2.62027 1.33113 0
M  V30 32148 H 3672.1 1.49067 0.644418 0
M  V30 32149 H 3674.1 1.92796 3.69642 0
M  V30 32150 H 3672.76 0.902812 3.11896 0
M  V30 32151 H 3673.77 4.54491 2.48312 0
M  V30 32152 H 3670.45 2.19558 3.55106 0
M  V30 32153 H 3671.84 6.14856 2.70927 0
M  V30 32154 N 3674.56 -0.692567 1.41567 0
M  V30 32155 C 3675.8 -1.44975 1.40807 0
M  V30 32156 C 3676.13 -1.94991 0.0191382 0
M  V30 32157 O 3675.4 -1.71901 -0.939513 0
M  V30 32158 H 3673.98 -0.537933 0.518302 0
M  V30 32159 H 3676.64 -0.819529 1.76833 0
M  V30 32160 H 3675.73 -2.31145 2.0971 0
M  V30 32161 N 3676.03 -1.27445 -0.927123 0
M  V30 32162 C 3676.97 -1.06017 -2.03207 0
M  V30 32163 C 3677.98 -0.0160696 -1.62792 0
M  V30 32164 O 3679.17 -0.257691 -1.7663 0
M  V30 32165 C 3676.27 -0.586284 -3.3379 0
M  V30 32166 C 3675.44 -1.7028 -4.02894 0
M  V30 32167 C 3674.5 -1.22456 -5.11753 0
M  V30 32168 O 3673.53 -1.92432 -5.35685 0
M  V30 32169 N 3674.73 -0.0805182 -5.80444 0
M  V30 32170 H 3677.49 -2.01169 -2.22152 0
M  V30 32171 H 3675.05 -1.19019 -1.09755 0
M  V30 32172 H 3677.05 -0.250232 -4.03926 0
M  V30 32173 H 3675.62 0.272021 -3.11414 0
M  V30 32174 H 3674.84 -2.2091 -3.26485 0
M  V30 32175 H 3676.12 -2.45213 -4.45812 0
M  V30 32176 H 3675.52 0.503536 -5.63455 0
M  V30 32177 H 3674.08 0.196352 -6.51504 0
M  V30 32178 N 3677.51 1.1337 -1.09476 0
M  V30 32179 C 3678.46 2.16857 -0.704056 0
M  V30 32180 C 3679.45 1.58412 0.28184 0
M  V30 32181 O 3680.64 1.7676 0.0921271 0
M  V30 32182 C 3677.77 3.43066 -0.126742 0
M  V30 32183 C 3676.85 4.08516 -1.13908 0
M  V30 32184 N 3677.24 4.49125 -2.32637 0
M  V30 32185 C 3675.54 4.3516 -0.97734 0
M  V30 32186 C 3676.24 5.00143 -2.97038 0
M  V30 32187 N 3675.22 4.95033 -2.24597 0
M  V30 32188 H 3679.02 2.46009 -1.608 0
M  V30 32189 H 3676.54 1.3017 -0.971053 0
M  V30 32190 H 3678.53 4.16548 0.171184 0
M  V30 32191 H 3677.19 3.15388 0.77205 0
M  V30 32192 H 3678.2 4.41813 -2.70226 0
M  V30 32193 H 3674.88 4.17287 -0.133274 0
M  V30 32194 H 3676.27 5.41355 -3.97975 0
M  V30 32195 N 3678.99 0.882035 1.30606 0
M  V30 32196 C 3680.24 0.498013 1.95868 0
M  V30 32197 C 3680.56 -0.955375 1.69993 0
M  V30 32198 O 3679.83 -1.67134 1.02191 0
M  V30 32199 H 3678.41 0.181178 0.724696 0
M  V30 32200 H 3681.07 1.12447 1.59191 0
M  V30 32201 H 3680.17 0.665807 3.04915 0
M  V30 32202 N 3680.47 -1.439 0.642688 0
M  V30 32203 C 3681.69 -2.06801 0.157555 0
M  V30 32204 C 3682.12 -1.47791 -1.16359 0
M  V30 32205 O 3681.48 -0.583777 -1.71644 0
M  V30 32206 C 3681.52 -3.60535 0.0686538 0
M  V30 32207 O 3680.63 -4.00779 -0.972112 0
M  V30 32208 H 3679.97 -0.657865 0.0900521 0
M  V30 32209 H 3682.5 -1.84582 0.882637 0
M  V30 32210 H 3682.51 -4.07829 -0.118141 0
M  V30 32211 H 3681.18 -4.02863 1.03314 0
M  V30 32212 H 3679.76 -3.65095 -0.758956 0
M  V30 32213 N 3681.95 -0.383945 -1.52852 0
M  V30 32214 C 3683.18 0.20018 -2.05929 0
M  V30 32215 C 3683.59 1.40954 -1.25608 0
M  V30 32216 O 3682.95 1.79995 -0.301367 0
M  V30 32217 C 3683 0.575592 -3.56888 0
M  V30 32218 O 3682.72 -0.585717 -4.34167 0
M  V30 32219 C 3684.22 1.21615 -4.26292 0
M  V30 32220 H 3681.44 0.0314609 -0.670262 0
M  V30 32221 H 3683.98 -0.547626 -1.97031 0
M  V30 32222 H 3682.14 1.2733 -3.65877 0
M  V30 32223 H 3682.55 -0.278359 -5.23761 0
M  V30 32224 H 3684.03 1.42924 -5.33176 0
M  V30 32225 H 3684.5 2.18193 -3.81167 0
M  V30 32226 H 3685.11 0.559361 -4.21606 0
M  V30 32227 N 3683.43 1.5719 -0.113614 0
M  V30 32228 C 3684.65 1.99784 0.556893 0
M  V30 32229 C 3685.08 0.992697 1.59772 0
M  V30 32230 O 3684.43 -0.0363502 1.81264 0
M  V30 32231 C 3684.48 3.41277 1.16457 0
M  V30 32232 O 3683.59 3.4363 2.28018 0
M  V30 32233 H 3682.93 0.649156 0.139617 0
M  V30 32234 H 3685.46 2.03615 -0.200498 0
M  V30 32235 H 3685.47 3.7937 1.5014 0
M  V30 32236 H 3684.14 4.13951 0.402159 0
M  V30 32237 H 3682.72 3.1735 1.95814 0
M  V30 32238 N 3684.9 -0.160146 1.56784 0
M  V30 32239 C 3686.15 -0.873221 1.82262 0
M  V30 32240 C 3686.47 -1.82293 0.692416 0
M  V30 32241 O 3685.74 -1.93787 -0.286927 0
M  V30 32242 H 3684.32 -0.325451 0.672377 0
M  V30 32243 H 3686.98 -0.157291 1.94264 0
M  V30 32244 H 3686.08 -1.4434 2.76717 0
M  V30 32245 N 3686.38 -1.51647 -0.429072 0
M  V30 32246 C 3687.31 -1.69761 -1.53993 0
M  V30 32247 C 3688.33 -0.578164 -1.52188 0
M  V30 32248 O 3689.52 -0.852736 -1.56814 0
M  V30 32249 C 3686.62 -1.70465 -2.92907 0
M  V30 32250 C 3685.79 -2.99127 -3.19126 0
M  V30 32251 C 3684.85 -2.91909 -4.37808 0
M  V30 32252 O 3683.87 -3.65844 -4.36058 0
M  V30 32253 N 3685.08 -2.08327 -5.41831 0
M  V30 32254 H 3687.84 -2.65592 -1.38856 0
M  V30 32255 H 3685.4 -1.49636 -0.618122 0
M  V30 32256 H 3687.39 -1.63194 -3.70338 0
M  V30 32257 H 3685.96 -0.82193 -3.01601 0
M  V30 32258 H 3685.18 -3.20203 -2.29921 0
M  V30 32259 H 3686.47 -3.8428 -3.33476 0
M  V30 32260 H 3685.87 -1.4765 -5.46092 0
M  V30 32261 H 3684.43 -2.06928 -6.18081 0
M  V30 32262 N 3687.86 0.685049 -1.41932 0
M  V30 32263 C 3689.08 1.47863 -1.45435 0
M  V30 32264 C 3689.51 1.87991 -0.0641633 0
M  V30 32265 O 3688.87 1.55327 0.935054 0
M  V30 32266 C 3688.92 2.71073 -2.37806 0
M  V30 32267 O 3688.02 3.68959 -1.84235 0
M  V30 32268 H 3687.36 0.444619 -0.493164 0
M  V30 32269 H 3689.89 0.841144 -1.8651 0
M  V30 32270 H 3689.9 3.19262 -2.54039 0
M  V30 32271 H 3688.58 2.41205 -3.38811 0
M  V30 32272 H 3687.15 3.27942 -1.77506 0
M  V30 32273 N 3689.34 1.27935 0.920351 0
M  V30 32274 C 3690.56 1.1765 1.70802 0
M  V30 32275 C 3690.99 -0.262156 1.86264 0
M  V30 32276 O 3690.35 -1.18976 1.368 0
M  V30 32277 C 3690.39 1.87304 3.08139 0
M  V30 32278 O 3689.5 1.176 3.95277 0
M  V30 32279 H 3688.84 0.408773 0.52326 0
M  V30 32280 H 3691.37 1.69138 1.15124 0
M  V30 32281 H 3691.38 1.94952 3.5841 0
M  V30 32282 H 3690.05 2.91954 2.96202 0
M  V30 32283 H 3688.63 1.18071 3.53714 0
M  V30 32284 N 3690.82 -1.12788 1.10076 0
M  V30 32285 C 3692.04 -1.88586 0.863139 0
M  V30 32286 C 3692.47 -1.78916 -0.580564 0
M  V30 32287 O 3691.82 -1.14145 -1.40857 0
M  V30 32288 C 3691.87 -3.35906 1.31148 0
M  V30 32289 O 3690.98 -4.09665 0.47416 0
M  V30 32290 H 3690.32 -0.586109 0.312045 0
M  V30 32291 H 3692.85 -1.42659 1.46661 0
M  V30 32292 H 3692.86 -3.86742 1.2998 0
M  V30 32293 H 3691.53 -3.42261 2.36285 0
M  V30 32294 H 3690.11 -3.68811 0.55073 0
M  V30 32295 N 3692.29 -0.888949 -1.30136 0
M  V30 32296 C 3693.53 -0.516157 -1.97776 0
M  V30 32297 C 3693.9 0.918328 -1.68614 0
M  V30 32298 O 3695.1 1.39744 -2.29619 0
M  V30 32299 C 3693.37 -0.787927 -3.48606 0
M  V30 32300 S 3694.93 -0.517833 -4.35734 0
M  V30 32301 H 3691.75 -0.191897 -0.684614 0
M  V30 32302 H 3694.35 -1.14907 -1.58166 0
M  V30 32303 H 3693.05 -1.83037 -3.67322 0
M  V30 32304 H 3692.58 -0.142721 -3.93141 0
M  V30 32305 H 3694.6 0.641833 -4.92031 0
M  V30 32306 N 3693.77 1.43557 -0.65031 0
M  V30 32307 C 3695.02 2.01448 -0.162199 0
M  V30 32308 C 3695.34 1.51546 1.22714 0
M  V30 32309 O 3694.61 0.726887 1.81915 0
M  V30 32310 H 3693.19 0.744824 -0.056973 0
M  V30 32311 H 3695.85 1.75806 -0.841325 0
M  V30 32312 H 3694.95 3.11765 -0.144585 0
M  V30 32313 N 3695.25 0.392045 1.52646 0
M  V30 32314 C 3696.18 -0.476894 2.24184 0
M  V30 32315 C 3697.19 -1.02444 1.26527 0
M  V30 32316 O 3698.38 -0.926293 1.52585 0
M  V30 32317 C 3695.48 -1.67392 2.94675 0
M  V30 32318 C 3694.66 -1.25327 4.19061 0
M  V30 32319 C 3693.72 -2.31529 4.72526 0
M  V30 32320 O 3692.74 -1.92823 5.35544 0
M  V30 32321 N 3693.94 -3.63478 4.52619 0
M  V30 32322 H 3696.71 0.136016 2.99391 0
M  V30 32323 H 3694.27 0.218543 1.60418 0
M  V30 32324 H 3696.26 -2.37969 3.27342 0
M  V30 32325 H 3694.83 -2.19311 2.22758 0
M  V30 32326 H 3694.05 -0.376283 3.924 0
M  V30 32327 H 3695.34 -0.948922 4.99873 0
M  V30 32328 H 3694.74 -3.97684 4.02323 0
M  V30 32329 H 3693.29 -4.30081 4.89769 0
M  V30 32330 N 3696.73 -1.57127 0.121948 0
M  V30 32331 C 3697.68 -2.12027 -0.838376 0
M  V30 32332 C 3698.66 -1.04177 -1.22621 0
M  V30 32333 O 3699.85 -1.30405 -1.19681 0
M  V30 32334 C 3696.98 -2.72558 -2.08728 0
M  V30 32335 C 3696.07 -3.87492 -1.72367 0
M  V30 32336 N 3696.46 -4.94418 -1.06697 0
M  V30 32337 C 3694.76 -3.97731 -2.01806 0
M  V30 32338 C 3695.46 -5.74767 -0.895409 0
M  V30 32339 N 3694.44 -5.24689 -1.42135 0
M  V30 32340 H 3698.24 -2.92074 -0.327149 0
M  V30 32341 H 3695.75 -1.62201 -0.0804268 0
M  V30 32342 H 3697.75 -3.10234 -2.78497 0
M  V30 32343 H 3696.41 -1.93975 -2.60392 0
M  V30 32344 H 3697.42 -5.12721 -0.730612 0
M  V30 32345 H 3694.1 -3.30194 -2.55496 0
M  V30 32346 H 3695.49 -6.70826 -0.379718 0
M  V30 32347 N 3698.21 0.151829 -1.56867 0
M  V30 32348 C 3699.45 0.863543 -1.82722 0
M  V30 32349 C 3699.78 1.81923 -0.702074 0
M  V30 32350 O 3699.05 1.93937 0.276646 0
M  V30 32351 H 3697.63 0.321881 -0.674093 0
M  V30 32352 H 3700.29 0.146986 -1.94345 0
M  V30 32353 H 3699.38 1.42871 -2.77479 0
M  V30 32354 N 3699.68 1.51872 0.421024 0
M  V30 32355 C 3700.65 1.73752 1.49475 0
M  V30 32356 C 3701.65 0.607422 1.48886 0
M  V30 32357 O 3702.84 0.87517 1.5062 0
M  V30 32358 C 3699.97 1.80898 2.88944 0
M  V30 32359 H 3701.16 2.69595 1.31372 0
M  V30 32360 H 3698.72 1.42108 0.650761 0
M  V30 32361 H 3699.45 0.869275 3.12433 0
M  V30 32362 H 3699.24 2.63043 2.90776 0
M  V30 32363 H 3700.73 1.99609 3.66805 0
M  V30 32364 N 3701.16 -0.677513 1.42294 0
M  V30 32365 C 3702.39 -1.4709 1.46217 0
M  V30 32366 C 3702.81 -1.87954 0.074132 0
M  V30 32367 O 3702.17 -1.55821 -0.926803 0
M  V30 32368 C 3702.22 -2.69808 2.3924 0
M  V30 32369 O 3701.32 -3.67977 1.8619 0
M  V30 32370 H 3700.66 -0.441997 0.495515 0
M  V30 32371 H 3703.19 -0.831241 1.86953 0
M  V30 32372 H 3703.2 -3.1791 2.55729 0
M  V30 32373 H 3701.88 -2.39405 3.40086 0
M  V30 32374 H 3700.46 -3.26996 1.79243 0
M  V30 32375 N 3702.64 -1.28421 -0.913554 0
M  V30 32376 C 3703.87 -1.18554 -1.70176 0
M  V30 32377 C 3704.29 0.252274 -1.86401 0
M  V30 32378 O 3703.65 1.18249 -1.37429 0
M  V30 32379 C 3703.7 -1.88935 -3.07142 0
M  V30 32380 O 3702.8 -1.19695 -3.94648 0
M  V30 32381 H 3702.14 -0.411542 -0.521085 0
M  V30 32382 H 3704.67 -1.69746 -1.14225 0
M  V30 32383 H 3704.68 -1.9685 -3.57371 0
M  V30 32384 H 3703.36 -2.9352 -2.9465 0
M  V30 32385 H 3701.93 -1.19945 -3.53083 0
M  V30 32386 N 3704.12 1.12202 -1.10672 0
M  V30 32387 C 3705.37 1.83403 -0.848982 0
M  V30 32388 C 3705.69 1.84638 0.627208 0
M  V30 32389 O 3704.96 1.31125 1.45544 0
M  V30 32390 H 3703.54 0.679143 -0.311086 0
M  V30 32391 H 3706.2 1.35853 -1.39749 0
M  V30 32392 H 3705.3 2.8752 -1.21403 0
M  V30 32393 N 3705.6 0.895838 1.29663 0
M  V30 32394 C 3706.53 0.327979 2.26841 0
M  V30 32395 C 3707.54 -0.523551 1.54152 0
M  V30 32396 O 3708.73 -0.341336 1.75206 0
M  V30 32397 C 3705.83 -0.551335 3.34385 0
M  V30 32398 C 3705 0.27359 4.36544 0
M  V30 32399 C 3704.06 -0.537939 5.23443 0
M  V30 32400 O 3703.09 0.0432026 5.69184 0
M  V30 32401 N 3704.29 -1.84484 5.50405 0
M  V30 32402 H 3707.06 1.16319 2.76206 0
M  V30 32403 H 3704.62 0.759929 1.42957 0
M  V30 32404 H 3706.61 -1.10055 3.89448 0
M  V30 32405 H 3705.18 -1.28723 2.84867 0
M  V30 32406 H 3704.4 1.00423 3.81194 0
M  V30 32407 H 3705.69 0.838677 5.0184 0
M  V30 32408 H 3705.08 -2.33976 5.15045 0
M  V30 32409 H 3703.64 -2.34126 6.08299 0
M  V30 32410 N 3707.07 -1.43211 0.657914 0
M  V30 32411 C 3708.3 -2.06622 0.17948 0
M  V30 32412 C 3708.72 -1.49017 -1.14785 0
M  V30 32413 O 3708.08 -0.60195 -1.71015 0
M  V30 32414 C 3708.13 -3.60442 0.106889 0
M  V30 32415 O 3707.23 -4.01787 -0.929549 0
M  V30 32416 H 3706.58 -0.656873 0.0970246 0
M  V30 32417 H 3709.11 -1.83636 0.902165 0
M  V30 32418 H 3709.12 -4.07931 -0.0748783 0
M  V30 32419 H 3707.79 -4.01745 1.07581 0
M  V30 32420 H 3706.37 -3.65879 -0.72019 0
M  V30 32421 N 3708.55 -0.400135 -1.52436 0
M  V30 32422 C 3709.78 0.180825 -2.0661 0
M  V30 32423 C 3710.2 1.38843 -1.26903 0
M  V30 32424 O 3709.56 1.78853 -0.296894 0
M  V30 32425 C 3709.61 0.518532 -3.56852 0
M  V30 32426 O 3708.71 1.61089 -3.79637 0
M  V30 32427 H 3708.05 0.0181231 -0.663753 0
M  V30 32428 H 3710.58 -0.570736 -1.96478 0
M  V30 32429 H 3710.59 0.779746 -4.0048 0
M  V30 32430 H 3709.27 -0.364288 -4.14302 0
M  V30 32431 H 3707.85 1.34254 -3.47894 0
M  V30 32432 N 3710.03 1.57061 -0.13028 0
M  V30 32433 C 3711.26 2.00363 0.535672 0
M  V30 32434 C 3711.68 1.00959 1.5871 0
M  V30 32435 O 3711.04 -0.0171227 1.81292 0
M  V30 32436 C 3711.09 3.42493 1.1283 0
M  V30 32437 O 3710.19 3.46029 2.24361 0
M  V30 32438 H 3709.53 0.6506 0.132724 0
M  V30 32439 H 3712.06 2.03391 -0.222083 0
M  V30 32440 H 3712.07 3.80941 1.46108 0
M  V30 32441 H 3710.75 4.14354 0.358231 0
M  V30 32442 H 3709.32 3.19409 1.92438 0
M  V30 32443 N 3711.51 -0.143508 1.56945 0
M  V30 32444 C 3712.46 -1.18235 1.94947 0
M  V30 32445 C 3713.44 -1.38367 0.821181 0
M  V30 32446 O 3714.64 -1.39871 1.08467 0
M  V30 32447 C 3711.76 -2.51513 2.33658 0
M  V30 32448 C 3710.85 -2.3496 3.53065 0
M  V30 32449 N 3711.24 -1.88168 4.69496 0
M  V30 32450 C 3709.54 -2.65699 3.58218 0
M  V30 32451 C 3710.24 -1.84741 5.51585 0
M  V30 32452 N 3709.22 -2.28183 4.9339 0
M  V30 32453 H 3713.02 -0.812731 2.82439 0
M  V30 32454 H 3710.53 -0.351527 1.5855 0
M  V30 32455 H 3712.53 -3.26617 2.59089 0
M  V30 32456 H 3711.19 -2.89255 1.47519 0
M  V30 32457 H 3712.2 -1.58081 4.93184 0
M  V30 32458 H 3708.88 -3.07292 2.82627 0
M  V30 32459 H 3710.27 -1.50026 6.54936 0
M  V30 32460 N 3712.99 -1.52093 -0.412964 0
M  V30 32461 C 3714.24 -1.65636 -1.15798 0
M  V30 32462 C 3714.56 -0.386771 -1.91126 0
M  V30 32463 O 3713.83 0.598229 -1.86542 0
M  V30 32464 H 3712.41 -0.610505 -0.430456 0
M  V30 32465 H 3715.07 -1.89121 -0.471094 0
M  V30 32466 H 3714.16 -2.49563 -1.87417 0
M  V30 32467 N 3714.47 0.669957 -1.42651 0
M  V30 32468 C 3715.4 1.79549 -1.4246 0
M  V30 32469 C 3716.41 1.59564 -0.322994 0
M  V30 32470 O 3717.6 1.68593 -0.586388 0
M  V30 32471 C 3714.7 3.16729 -1.20566 0
M  V30 32472 C 3713.87 3.63521 -2.43252 0
M  V30 32473 C 3712.93 4.79448 -2.16831 0
M  V30 32474 O 3711.96 4.89745 -2.90067 0
M  V30 32475 N 3713.16 5.68495 -1.17446 0
M  V30 32476 H 3715.92 1.80196 -2.39477 0
M  V30 32477 H 3713.49 0.85322 -1.37593 0
M  V30 32478 H 3715.48 3.91946 -1.008 0
M  V30 32479 H 3714.05 3.10952 -0.320552 0
M  V30 32480 H 3713.27 2.78929 -2.78554 0
M  V30 32481 H 3714.56 3.91526 -3.24938 0
M  V30 32482 H 3713.95 5.62833 -0.568835 0
M  V30 32483 H 3712.51 6.43503 -1.03666 0
M  V30 32484 N 3715.94 1.28904 0.90673 0
M  V30 32485 C 3716.89 1.10065 1.99674 0
M  V30 32486 C 3717.88 0.0221725 1.60885 0
M  V30 32487 O 3719.07 0.243101 1.75323 0
M  V30 32488 C 3716.2 0.771882 3.3451 0
M  V30 32489 C 3715.28 1.88955 3.7968 0
M  V30 32490 N 3715.68 3.13214 3.97153 0
M  V30 32491 C 3713.97 1.78099 4.08897 0
M  V30 32492 C 3714.67 3.86086 4.35101 0
M  V30 32493 N 3713.65 3.13981 4.43753 0
M  V30 32494 H 3717.45 2.04337 2.11243 0
M  V30 32495 H 3714.97 1.19926 1.09506 0
M  V30 32496 H 3716.96 0.617981 4.12294 0
M  V30 32497 H 3715.62 -0.162993 3.24291 0
M  V30 32498 H 3716.63 3.48747 3.82878 0
M  V30 32499 H 3713.31 0.918363 4.07274 0
M  V30 32500 H 3714.7 4.92986 4.56524 0
M  V30 32501 N 3717.42 -1.11614 1.11266 0
M  V30 32502 C 3718.67 -1.8295 0.858697 0
M  V30 32503 C 3718.99 -1.84968 -0.617407 0
M  V30 32504 O 3718.26 -1.31895 -1.44846 0
M  V30 32505 H 3716.84 -0.677483 0.314683 0
M  V30 32506 H 3719.5 -1.3511 1.40468 0
M  V30 32507 H 3718.6 -2.86872 1.22927 0
M  V30 32508 N 3718.9 -0.902701 -1.29186 0
M  V30 32509 C 3720.12 -0.544988 -2.00112 0
M  V30 32510 C 3720.55 0.863776 -1.67094 0
M  V30 32511 O 3719.91 1.57543 -0.897206 0
M  V30 32512 C 3719.96 -0.747803 -3.52761 0
M  V30 32513 O 3719.06 0.198315 -4.11923 0
M  V30 32514 H 3718.4 -0.212583 -0.62905 0
M  V30 32515 H 3720.93 -1.21511 -1.64609 0
M  V30 32516 H 3720.94 -0.653617 -4.0273 0
M  V30 32517 H 3719.62 -1.77484 -3.76128 0
M  V30 32518 H 3718.19 0.0563304 -3.72857 0
M  V30 32519 N 3720.38 1.4286 -0.6655 0
M  V30 32520 C 3721.63 2.01265 -0.183556 0
M  V30 32521 C 3721.95 1.52839 1.211 0
M  V30 32522 O 3721.22 0.746141 1.81134 0
M  V30 32523 H 3719.8 0.744178 -0.0648696 0
M  V30 32524 H 3722.46 1.74904 -0.859924 0
M  V30 32525 H 3721.55 3.11594 -0.177644 0
M  V30 32526 N 3721.86 0.408213 1.52221 0
M  V30 32527 C 3723.08 -0.169865 2.06703 0
M  V30 32528 C 3723.51 -1.38168 1.27637 0
M  V30 32529 O 3722.86 -1.78693 0.306374 0
M  V30 32530 C 3722.91 -0.4996 3.57122 0
M  V30 32531 O 3722.02 -1.59073 3.80486 0
M  V30 32532 H 3721.36 -0.0146028 0.663839 0
M  V30 32533 H 3723.89 0.581148 1.96173 0
M  V30 32534 H 3723.9 -0.758497 4.00888 0
M  V30 32535 H 3722.57 0.386255 4.14103 0
M  V30 32536 H 3721.15 -1.32407 3.48601 0
M  V30 32537 N 3723.33 -1.56989 0.138607 0
M  V30 32538 C 3724.56 -2.00644 -0.525039 0
M  V30 32539 C 3724.98 -1.01799 -1.58173 0
M  V30 32540 O 3724.34 0.00750816 -1.81298 0
M  V30 32541 C 3724.39 -3.43087 -1.11012 0
M  V30 32542 O 3723.49 -3.47214 -2.22523 0
M  V30 32543 H 3722.83 -0.651295 -0.129272 0
M  V30 32544 H 3725.36 -2.0327 0.232866 0
M  V30 32545 H 3725.37 -3.81711 -1.44086 0
M  V30 32546 H 3724.05 -4.14538 -0.336252 0
M  V30 32547 H 3722.63 -3.20425 -1.90741 0
M  V30 32548 N 3724.81 0.135183 -1.57019 0
M  V30 32549 C 3725.74 1.1919 -1.95771 0
M  V30 32550 C 3726.76 1.38542 -0.854977 0
M  V30 32551 O 3727.95 1.37904 -1.13335 0
M  V30 32552 C 3725.05 2.55475 -2.22678 0
M  V30 32553 C 3724.22 2.56943 -3.53976 0
M  V30 32554 C 3723.28 3.74853 -3.69285 0
M  V30 32555 O 3722.3 3.59183 -4.41561 0
M  V30 32556 N 3723.51 4.92781 -3.06835 0
M  V30 32557 H 3726.27 0.8624 -2.87024 0
M  V30 32558 H 3723.83 0.32463 -1.58612 0
M  V30 32559 H 3725.82 3.32886 -2.3015 0
M  V30 32560 H 3724.39 2.80671 -1.37633 0
M  V30 32561 H 3723.61 1.65362 -3.57839 0
M  V30 32562 H 3724.9 2.54965 -4.40307 0
M  V30 32563 H 3724.3 5.08416 -2.48052 0
M  V30 32564 H 3722.86 5.67925 -3.19851 0
M  V30 32565 N 3726.29 1.5231 0.404892 0
M  V30 32566 C 3727.52 1.70725 1.17761 0
M  V30 32567 C 3727.94 0.417777 1.83402 0
M  V30 32568 O 3727.3 -0.625127 1.70182 0
M  V30 32569 C 3727.35 2.84689 2.21325 0
M  V30 32570 O 3726.45 2.50553 3.27562 0
M  V30 32571 H 3725.79 0.568209 0.343562 0
M  V30 32572 H 3728.32 1.99032 0.474058 0
M  V30 32573 H 3728.33 3.09724 2.65584 0
M  V30 32574 H 3727.01 3.78242 1.72932 0
M  V30 32575 H 3725.58 2.36204 2.88552 0
M  V30 32576 N 3727.77 -0.662382 1.43004 0
M  V30 32577 C 3728.99 -1.45531 1.47769 0
M  V30 32578 C 3729.42 -1.87865 0.0940628 0
M  V30 32579 O 3728.78 -1.56795 -0.910224 0
M  V30 32580 C 3728.82 -2.67256 2.42089 0
M  V30 32581 O 3727.93 -3.65982 1.90082 0
M  V30 32582 H 3727.27 -0.436716 0.500175 0
M  V30 32583 H 3729.8 -0.811366 1.87824 0
M  V30 32584 H 3729.81 -3.1518 2.59086 0
M  V30 32585 H 3728.48 -2.35784 3.42606 0
M  V30 32586 H 3727.06 -3.25077 1.82701 0
M  V30 32587 N 3729.25 -1.29383 -0.899882 0
M  V30 32588 C 3730.49 -1.17112 -1.6471 0
M  V30 32589 C 3730.82 0.277738 -1.93012 0
M  V30 32590 O 3730.09 1.1901 -1.55606 0
M  V30 32591 H 3728.67 -0.430429 -0.610524 0
M  V30 32592 H 3731.33 -1.62306 -1.07902 0
M  V30 32593 H 3730.42 -1.72103 -2.60359 0
M  V30 32594 N 3730.72 1.11022 -1.11856 0
M  V30 32595 C 3731.95 1.86378 -0.891452 0
M  V30 32596 C 3732.36 1.80645 0.562485 0
M  V30 32597 O 3731.71 1.18895 1.40035 0
M  V30 32598 C 3731.77 3.35928 -1.28035 0
M  V30 32599 C 3731.43 3.65425 -2.74434 0
M  V30 32600 C 3732.43 3.62538 -3.72642 0
M  V30 32601 C 3730.11 3.94293 -3.11189 0
M  V30 32602 C 3732.11 3.88104 -5.05622 0
M  V30 32603 C 3729.79 4.19516 -4.44353 0
M  V30 32604 C 3730.79 4.16411 -5.41379 0
M  V30 32605 O 3730.48 4.40997 -6.72143 0
M  V30 32606 H 3730.21 0.596094 -0.318823 0
M  V30 32607 H 3732.77 1.41304 -1.49071 0
M  V30 32608 H 3731 3.81628 -0.624253 0
M  V30 32609 H 3732.69 3.92658 -1.02834 0
M  V30 32610 H 3733.45 3.40281 -3.45592 0
M  V30 32611 H 3729.33 3.95844 -2.36281 0
M  V30 32612 H 3732.87 3.85596 -5.81345 0
M  V30 32613 H 3728.77 4.41251 -4.71135 0
M  V30 32614 H 3729.54 4.58543 -6.77997 0
M  V30 32615 N 3732.2 0.90954 1.28706 0
M  V30 32616 C 3733.45 0.539447 1.94767 0
M  V30 32617 C 3733.77 -0.919102 1.71981 0
M  V30 32618 O 3733.04 -1.64929 1.05713 0
M  V30 32619 H 3731.62 0.196509 0.720689 0
M  V30 32620 H 3734.28 1.15798 1.5677 0
M  V30 32621 H 3733.38 0.730335 3.03435 0
M  V30 32622 N 3733.68 -1.42505 0.673067 0
M  V30 32623 C 3735.1 -1.55883 0.342456 0
M  V30 32624 C 3735.3 -1.65304 -1.15226 0
M  V30 32625 O 3734.35 -1.61901 -1.93764 0
M  V30 32626 C 3735.67 -2.80971 1.07125 0
M  V30 32627 C 3737.21 -2.94741 1.05341 0
M  V30 32628 C 3737.69 -4.22688 1.76349 0
M  V30 32629 N 3739.18 -4.29596 1.73209 0
M  V30 32630 C 3739.91 -5.27407 2.25009 0
M  V30 32631 N 3739.41 -6.31381 2.85184 0
M  V30 32632 N 3741.2 -5.19193 2.15394 0
M  V30 32633 H 3733.35 -1.34633 1.64279 0
M  V30 32634 H 3735.62 -0.647956 0.691995 0
M  V30 32635 H 3735.32 -2.80142 2.12635 0
M  V30 32636 H 3735.2 -3.7181 0.635379 0
M  V30 32637 H 3737.58 -2.95099 0.00664856 0
M  V30 32638 H 3737.67 -2.05137 1.52814 0
M  V30 32639 H 3737.31 -4.23091 2.80992 0
M  V30 32640 H 3737.24 -5.11223 1.26326 0
M  V30 32641 H 3739.73 -3.55086 1.29316 0
M  V30 32642 H 3740.04 -7.02367 3.22335 0
M  V30 32643 H 3738.39 -6.31947 2.89253 0
M  V30 32644 H 3741.58 -4.36886 1.68073 0
M  V30 32645 H 3741.75 -5.95258 2.5607 0
M  V30 32646 N 3735.16 -0.41628 -1.52003 0
M  V30 32647 C 3736.09 0.441168 -2.24914 0
M  V30 32648 C 3737.1 1.00418 -1.28141 0
M  V30 32649 O 3738.29 0.901901 -1.54039 0
M  V30 32650 C 3735.39 1.62683 -2.973 0
M  V30 32651 C 3734.57 1.18644 -4.21001 0
M  V30 32652 C 3733.62 2.23982 -4.7615 0
M  V30 32653 O 3732.65 1.84279 -5.38544 0
M  V30 32654 N 3733.85 3.56231 -4.58345 0
M  V30 32655 H 3736.62 -0.183629 -2.99137 0
M  V30 32656 H 3734.18 -0.244036 -1.6005 0
M  V30 32657 H 3736.17 2.32731 -3.31087 0
M  V30 32658 H 3734.74 2.1574 -2.26219 0
M  V30 32659 H 3733.96 0.313808 -3.92949 0
M  V30 32660 H 3735.25 0.869277 -5.01319 0
M  V30 32661 H 3734.65 3.91234 -4.08599 0
M  V30 32662 H 3733.2 4.22235 -4.96549 0
M  V30 32663 N 3736.64 1.56914 -0.146931 0
M  V30 32664 C 3737.88 1.95735 0.503203 0
M  V30 32665 C 3738.21 1.03277 1.65405 0
M  V30 32666 O 3737.48 0.0943128 1.95673 0
M  V30 32667 H 3736.06 0.722725 0.188886 0
M  V30 32668 H 3738.72 1.93627 -0.222413 0
M  V30 32669 H 3737.81 2.99455 0.879392 0
M  V30 32670 N 3738.11 -0.126854 1.57089 0
M  V30 32671 C 3739.34 -0.854356 1.88986 0
M  V30 32672 C 3739.76 -1.73015 0.738068 0
M  V30 32673 O 3739.12 -1.78601 -0.311697 0
M  V30 32674 C 3739.17 -1.67022 3.19587 0
M  V30 32675 O 3738.27 -2.77643 3.0494 0
M  V30 32676 H 3737.62 -0.236753 0.620358 0
M  V30 32677 H 3740.15 -0.111611 2.04295 0
M  V30 32678 H 3740.16 -2.06109 3.52112 0
M  V30 32679 H 3738.83 -1.02725 4.03014 0
M  V30 32680 H 3737.41 -2.41816 2.83865 0
M  V30 32681 N 3739.59 -1.52523 -0.396809 0
M  V30 32682 C 3740.84 -1.66855 -1.14034 0
M  V30 32683 C 3741.16 -0.407021 -1.90705 0
M  V30 32684 O 3740.43 0.57841 -1.87166 0
M  V30 32685 H 3739.01 -0.615036 -0.423957 0
M  V30 32686 H 3741.67 -1.8961 -0.451008 0
M  V30 32687 H 3740.77 -2.51536 -1.84759 0
M  V30 32688 N 3741.07 0.654789 -1.43354 0
M  V30 32689 C 3742.3 1.44745 -1.48538 0
M  V30 32690 C 3742.72 1.87812 -0.104024 0
M  V30 32691 O 3742.08 1.57275 0.901896 0
M  V30 32692 C 3742.13 2.65968 -2.43502 0
M  V30 32693 O 3741.23 3.64969 -1.9202 0
M  V30 32694 H 3740.57 0.434058 -0.502484 0
M  V30 32695 H 3743.1 0.801393 -1.88252 0
M  V30 32696 H 3743.11 3.13802 -2.60754 0
M  V30 32697 H 3741.79 2.33964 -3.43851 0
M  V30 32698 H 3740.36 3.24103 -1.84422 0
M  V30 32699 N 3742.55 1.29858 0.893007 0
M  V30 32700 C 3743.8 1.17984 1.64086 0
M  V30 32701 C 3744.12 -0.267499 1.93157 0
M  V30 32702 O 3743.39 -1.18183 1.56235 0
M  V30 32703 H 3741.97 0.433661 0.608233 0
M  V30 32704 H 3744.63 1.62876 1.07039 0
M  V30 32705 H 3743.73 1.73481 2.59443 0
M  V30 32706 N 3744.03 -1.10427 1.12443 0
M  V30 32707 C 3744.96 -2.16576 0.750169 0
M  V30 32708 C 3745.97 -1.61262 -0.223236 0
M  V30 32709 O 3747.16 -1.78499 -0.00456317 0
M  V30 32710 C 3744.26 -3.38782 0.0896069 0
M  V30 32711 C 3743.43 -4.23537 1.0925 0
M  V30 32712 C 3742.49 -5.2419 0.459542 0
M  V30 32713 O 3741.52 -5.58141 1.11656 0
M  V30 32714 N 3742.72 -5.7533 -0.772992 0
M  V30 32715 H 3745.49 -2.49292 1.66354 0
M  V30 32716 H 3743.05 -1.26047 1.01606 0
M  V30 32717 H 3745.04 -4.0322 -0.345824 0
M  V30 32718 H 3743.61 -3.0404 -0.726519 0
M  V30 32719 H 3742.83 -3.55393 1.70555 0
M  V30 32720 H 3744.12 -4.76996 1.77066 0
M  V30 32721 H 3743.52 -5.49946 -1.32575 0
M  V30 32722 H 3742.07 -6.41553 -1.15124 0
M  V30 32723 N 3745.51 -0.916353 -1.28221 0
M  V30 32724 C 3746.73 -0.566182 -1.99522 0
M  V30 32725 C 3747.16 0.846004 -1.68001 0
M  V30 32726 O 3746.51 1.56583 -0.913866 0
M  V30 32727 C 3746.56 -0.785176 -3.51948 0
M  V30 32728 O 3745.67 0.154614 -4.1211 0
M  V30 32729 H 3745.01 -0.219243 -0.62676 0
M  V30 32730 H 3747.54 -1.2325 -1.63311 0
M  V30 32731 H 3747.55 -0.696295 -4.02015 0
M  V30 32732 H 3746.22 -1.81464 -3.74224 0
M  V30 32733 H 3744.8 0.0167807 -3.72896 0
M  V30 32734 N 3746.98 1.42146 -0.680615 0
M  V30 32735 C 3748.39 1.8456 -0.281874 0
M  V30 32736 C 3748.75 1.56967 1.17711 0
M  V30 32737 O 3747.87 1.03245 1.90183 0
M  V30 32738 C 3748.47 3.35018 -0.50481 0
M  V30 32739 C 3747.02 3.76059 -0.160133 0
M  V30 32740 C 3746.17 2.65677 -0.794423 0
M  V30 32741 H 3749.12 1.31909 -0.88236 0
M  V30 32742 H 3749.14 3.79734 0.241242 0
M  V30 32743 H 3748.66 3.5507 -1.56676 0
M  V30 32744 H 3746.76 3.61613 0.898138 0
M  V30 32745 H 3746.87 4.75268 -0.604714 0
M  V30 32746 H 3745.23 2.53702 -0.225258 0
M  V30 32747 H 3746.02 2.8855 -1.85994 0
M  V30 32748 N 3748.46 0.424336 1.5178 0
M  V30 32749 C 3749.71 -0.146167 2.01571 0
M  V30 32750 C 3750.03 -1.44342 1.31113 0
M  V30 32751 O 3749.3 -1.90856 0.441664 0
M  V30 32752 H 3747.88 -0.0570059 0.744822 0
M  V30 32753 H 3750.54 0.564064 1.86559 0
M  V30 32754 H 3749.64 -0.331409 3.10335 0
M  V30 32755 N 3749.94 -1.56833 0.15525 0
M  V30 32756 C 3750.89 -2.13757 -0.793214 0
M  V30 32757 C 3751.87 -1.06755 -1.20384 0
M  V30 32758 O 3753.07 -1.32914 -1.16888 0
M  V30 32759 C 3750.19 -2.76924 -2.02899 0
M  V30 32760 C 3749.28 -3.91061 -1.64109 0
M  V30 32761 N 3749.67 -4.9657 -0.961859 0
M  V30 32762 C 3747.97 -4.01923 -1.93324 0
M  V30 32763 C 3748.67 -5.76537 -0.773291 0
M  V30 32764 N 3747.65 -5.27586 -1.30973 0
M  V30 32765 H 3751.45 -2.92702 -0.265122 0
M  V30 32766 H 3748.96 -1.62335 -0.0460035 0
M  V30 32767 H 3750.96 -3.16071 -2.71854 0
M  V30 32768 H 3749.62 -1.99455 -2.56219 0
M  V30 32769 H 3750.63 -5.14155 -0.621692 0
M  V30 32770 H 3747.31 -3.35539 -2.48434 0
M  V30 32771 H 3748.7 -6.71481 -0.23734 0
M  V30 32772 N 3751.42 0.118521 -1.57154 0
M  V30 32773 C 3752.67 0.824591 -1.84513 0
M  V30 32774 C 3752.99 1.80393 -0.740504 0
M  V30 32775 O 3752.26 1.9448 0.235447 0
M  V30 32776 H 3750.84 0.30751 -0.680769 0
M  V30 32777 H 3753.5 0.10573 -1.94613 0
M  V30 32778 H 3752.59 1.36953 -2.80447 0
M  V30 32779 N 3752.9 1.52731 0.388715 0
M  V30 32780 C 3753.83 1.73784 1.49438 0
M  V30 32781 C 3754.84 0.618311 1.50601 0
M  V30 32782 O 3756.03 0.894013 1.54498 0
M  V30 32783 C 3753.13 1.78171 2.88285 0
M  V30 32784 C 3752.3 3.07483 3.11083 0
M  V30 32785 C 3751.36 3.03414 4.29914 0
M  V30 32786 O 3750.39 3.77277 4.26205 0
M  V30 32787 N 3751.59 2.22619 5.36117 0
M  V30 32788 H 3754.35 2.6918 1.31766 0
M  V30 32789 H 3751.92 1.51222 0.578231 0
M  V30 32790 H 3753.91 1.72955 3.65881 0
M  V30 32791 H 3752.48 0.901606 2.99316 0
M  V30 32792 H 3751.7 3.26187 2.2135 0
M  V30 32793 H 3752.99 3.92986 3.23171 0
M  V30 32794 H 3752.38 1.62076 5.41985 0
M  V30 32795 H 3750.94 2.23242 6.12377 0
M  V30 32796 N 3754.37 -0.647178 1.43699 0
M  V30 32797 C 3755.79 -0.963541 1.27232 0
M  V30 32798 C 3755.99 -2.0054 0.196421 0
M  V30 32799 O 3755.05 -2.4893 -0.423118 0
M  V30 32800 C 3756.36 -1.44206 2.63866 0
M  V30 32801 C 3757.91 -1.55839 2.71446 0
M  V30 32802 C 3758.38 -2.0708 4.08512 0
M  V30 32803 N 3759.87 -2.14373 4.10607 0
M  V30 32804 C 3760.61 -2.55157 5.135 0
M  V30 32805 N 3760.1 -2.95192 6.26764 0
M  V30 32806 N 3761.9 -2.5515 5.00854 0
M  V30 32807 H 3754.05 0.0421329 2.12358 0
M  V30 32808 H 3756.31 -0.0437461 0.94699 0
M  V30 32809 H 3756.02 -0.7509 3.4359 0
M  V30 32810 H 3755.89 -2.416 2.89671 0
M  V30 32811 H 3758.28 -2.24055 1.9205 0
M  V30 32812 H 3758.36 -0.568617 2.494 0
M  V30 32813 H 3758 -1.39464 4.88377 0
M  V30 32814 H 3757.93 -3.06899 4.27926 0
M  V30 32815 H 3760.42 -1.86182 3.28853 0
M  V30 32816 H 3760.74 -3.25079 7.01102 0
M  V30 32817 H 3759.08 -2.92982 6.30227 0
M  V30 32818 H 3762.27 -2.23252 4.11432 0
M  V30 32819 H 3762.45 -2.86611 5.8117 0
M  V30 32820 N 3755.85 -1.3033 -0.886108 0
M  V30 32821 C 3757.1 -1.18852 -1.63458 0
M  V30 32822 C 3757.42 0.257251 -1.93296 0
M  V30 32823 O 3756.69 1.17353 -1.5686 0
M  V30 32824 H 3755.27 -0.43688 -0.605925 0
M  V30 32825 H 3757.93 -1.63441 -1.06174 0
M  V30 32826 H 3757.03 -1.74855 -2.58519 0
M  V30 32827 N 3757.33 1.0983 -1.13028 0
M  V30 32828 C 3758.56 1.86231 -0.912836 0
M  V30 32829 C 3758.98 1.80393 0.532923 0
M  V30 32830 O 3758.34 1.17839 1.37781 0
M  V30 32831 C 3758.39 3.3231 -1.40008 0
M  V30 32832 O 3757.49 4.08264 -0.582609 0
M  V30 32833 H 3756.83 0.57763 -0.327475 0
M  V30 32834 H 3759.36 1.3872 -1.50392 0
M  V30 32835 H 3759.37 3.83159 -1.40189 0
M  V30 32836 H 3758.05 3.35876 -2.45276 0
M  V30 32837 H 3756.62 3.67221 -0.64832 0
M  V30 32838 N 3758.81 0.92314 1.27734 0
M  V30 32839 C 3760.06 0.560075 1.94184 0
M  V30 32840 C 3760.38 -0.90081 1.72946 0
M  V30 32841 O 3759.65 -1.63799 1.07456 0
M  V30 32842 H 3758.23 0.204142 0.718565 0
M  V30 32843 H 3760.89 1.17454 1.55533 0
M  V30 32844 H 3759.99 0.762477 3.02643 0
M  V30 32845 N 3760.29 -1.41783 0.688143 0
M  V30 32846 C 3761.51 -2.06195 0.223267 0
M  V30 32847 C 3761.94 -1.51418 -1.11598 0
M  V30 32848 O 3761.29 -0.638089 -1.697 0
M  V30 32849 C 3761.34 -3.60134 0.18332 0
M  V30 32850 O 3760.45 -4.03669 -0.844115 0
M  V30 32851 H 3759.79 -0.654667 0.110936 0
M  V30 32852 H 3762.32 -1.81681 0.940914 0
M  V30 32853 H 3762.33 -4.07998 0.0116668 0
M  V30 32854 H 3761 -3.99373 1.16079 0
M  V30 32855 H 3759.58 -3.67325 -0.64242 0
M  V30 32856 N 3761.76 -0.432379 -1.51553 0
M  V30 32857 C 3763.18 -0.0844143 -1.59377 0
M  V30 32858 C 3763.38 1.40572 -1.44366 0
M  V30 32859 O 3762.44 2.17512 -1.28238 0
M  V30 32860 C 3763.75 -0.600097 -2.94651 0
M  V30 32861 C 3765.3 -0.560103 -3.07948 0
M  V30 32862 C 3765.77 -1.05268 -4.45738 0
M  V30 32863 N 3767.26 -1.01046 -4.52044 0
M  V30 32864 C 3768 -1.36252 -5.56977 0
M  V30 32865 N 3767.49 -1.78719 -6.69352 0
M  V30 32866 N 3769.29 -1.281 -5.47309 0
M  V30 32867 H 3761.44 -1.40199 -1.59555 0
M  V30 32868 H 3763.7 -0.57742 -0.751858 0
M  V30 32869 H 3763.41 -1.6425 -3.1099 0
M  V30 32870 H 3763.28 -0.0223145 -3.77193 0
M  V30 32871 H 3765.67 0.473306 -2.9128 0
M  V30 32872 H 3765.75 -1.17423 -2.27257 0
M  V30 32873 H 3765.39 -2.08453 -4.63152 0
M  V30 32874 H 3765.32 -0.41514 -5.24961 0
M  V30 32875 H 3767.81 -0.698536 -3.71388 0
M  V30 32876 H 3768.13 -2.03832 -7.45434 0
M  V30 32877 H 3766.47 -1.82641 -6.70572 0
M  V30 32878 H 3769.66 -0.947929 -4.58401 0
M  V30 32879 H 3769.84 -1.55866 -6.28975 0
M  V30 32880 N 3763.24 1.56749 -0.163565 0
M  V30 32881 C 3764.17 2.14747 0.801033 0
M  V30 32882 C 3765.19 1.10106 1.19918 0
M  V30 32883 O 3766.38 1.37323 1.14038 0
M  V30 32884 C 3763.48 2.66889 2.08862 0
M  V30 32885 C 3762.65 3.96105 1.85525 0
M  V30 32886 C 3761.71 4.3339 2.98428 0
M  V30 32887 O 3760.73 5.0141 2.694 0
M  V30 32888 N 3761.94 3.94317 4.26022 0
M  V30 32889 H 3764.7 2.98141 0.305247 0
M  V30 32890 H 3762.26 1.61888 0.0194726 0
M  V30 32891 H 3764.25 2.88835 2.83472 0
M  V30 32892 H 3762.82 1.88127 2.49654 0
M  V30 32893 H 3762.04 3.82616 0.948613 0
M  V30 32894 H 3763.33 4.80511 1.67291 0
M  V30 32895 H 3762.73 3.39541 4.52469 0
M  V30 32896 H 3761.29 4.2128 4.9736 0
M  V30 32897 N 3764.72 -0.110185 1.57214 0
M  V30 32898 C 3765.95 -0.834263 1.89881 0
M  V30 32899 C 3766.37 -1.72222 0.756377 0
M  V30 32900 O 3765.73 -1.78921 -0.292736 0
M  V30 32901 C 3765.78 -1.63623 3.21341 0
M  V30 32902 O 3764.88 -2.74393 3.07867 0
M  V30 32903 H 3764.22 -0.23016 0.622834 0
M  V30 32904 H 3766.75 -0.0899367 2.04402 0
M  V30 32905 H 3766.76 -2.02363 3.54279 0
M  V30 32906 H 3765.44 -0.98445 4.04081 0
M  V30 32907 H 3764.01 -2.38792 2.86414 0
M  V30 32908 N 3766.2 -1.52935 -0.38061 0
M  V30 32909 C 3767.61 -1.60238 -0.958154 0
M  V30 32910 C 3767.96 -0.460427 -1.90721 0
M  V30 32911 O 3767.09 0.415316 -2.12377 0
M  V30 32912 C 3767.68 -2.90432 -1.74455 0
M  V30 32913 C 3766.24 -3.0012 -2.27167 0
M  V30 32914 C 3765.39 -2.55419 -1.07964 0
M  V30 32915 H 3768.34 -1.57893 -0.159881 0
M  V30 32916 H 3768.36 -2.7739 -2.60452 0
M  V30 32917 H 3767.87 -3.73526 -1.05356 0
M  V30 32918 H 3765.97 -2.21582 -2.99553 0
M  V30 32919 H 3766.08 -4.0492 -2.56079 0
M  V30 32920 H 3764.45 -2.09937 -1.44217 0
M  V30 32921 H 3765.23 -3.40916 -0.403865 0
M  V30 32922 N 3767.68 0.639548 -1.4404 0
M  V30 32923 C 3768.9 1.43162 -1.50065 0
M  V30 32924 C 3769.33 1.87691 -0.123939 0
M  V30 32925 O 3768.68 1.58223 0.885164 0
M  V30 32926 C 3768.73 2.6337 -2.4631 0
M  V30 32927 O 3767.84 3.62911 -1.9588 0
M  V30 32928 H 3767.18 0.428704 -0.507059 0
M  V30 32929 H 3769.71 0.781382 -1.89091 0
M  V30 32930 H 3769.72 3.11018 -2.64067 0
M  V30 32931 H 3768.39 2.30304 -3.46313 0
M  V30 32932 H 3766.97 3.22129 -1.87849 0
M  V30 32933 N 3769.15 1.30798 0.879184 0
M  V30 32934 C 3770.38 1.22716 1.66206 0
M  V30 32935 C 3770.79 -0.211473 1.88014 0
M  V30 32936 O 3770.14 -1.15081 1.43185 0
M  V30 32937 C 3770.2 1.89129 3.0573 0
M  V30 32938 C 3769.86 3.38464 3.07069 0
M  V30 32939 C 3770.86 4.34363 2.85701 0
M  V30 32940 C 3768.54 3.80006 3.28482 0
M  V30 32941 C 3770.54 5.69778 2.85712 0
M  V30 32942 C 3768.22 5.15537 3.28122 0
M  V30 32943 C 3769.22 6.10234 3.06763 0
M  V30 32944 O 3768.91 7.43289 3.0623 0
M  V30 32945 H 3768.64 0.425586 0.525216 0
M  V30 32946 H 3771.2 1.73059 1.10633 0
M  V30 32947 H 3769.43 1.33323 3.6299 0
M  V30 32948 H 3771.12 1.75087 3.66196 0
M  V30 32949 H 3771.88 4.03598 2.68949 0
M  V30 32950 H 3767.76 3.06737 3.44141 0
M  V30 32951 H 3771.3 6.43667 2.68959 0
M  V30 32952 H 3767.2 5.4594 3.44412 0
M  V30 32953 H 3767.97 7.52349 3.22356 0
M  V30 32954 N 3770.63 -1.09229 1.13608 0
M  V30 32955 C 3771.88 -1.81088 0.89731 0
M  V30 32956 C 3772.2 -1.86236 -0.578034 0
M  V30 32957 O 3771.47 -1.34938 -1.42016 0
M  V30 32958 H 3770.05 -0.670656 0.328983 0
M  V30 32959 H 3772.71 -1.321 1.43302 0
M  V30 32960 H 3771.81 -2.842 1.28984 0
M  V30 32961 N 3772.11 -0.929901 -1.27242 0
M  V30 32962 C 3773.53 -0.630477 -1.46619 0
M  V30 32963 C 3773.73 0.819601 -1.84078 0
M  V30 32964 O 3772.78 1.59729 -1.95558 0
M  V30 32965 C 3774.1 -1.58223 -2.55707 0
M  V30 32966 C 3775.64 -1.5907 -2.69566 0
M  V30 32967 C 3776.12 -2.52948 -3.81813 0
M  V30 32968 N 3777.61 -2.51168 -3.8919 0
M  V30 32969 C 3778.35 -3.20496 -4.75468 0
M  V30 32970 N 3777.84 -3.99211 -5.66218 0
M  V30 32971 N 3779.63 -3.09503 -4.69216 0
M  V30 32972 H 3771.79 -1.86735 -1.01212 0
M  V30 32973 H 3774.05 -0.80184 -0.505723 0
M  V30 32974 H 3773.75 -2.61681 -2.34981 0
M  V30 32975 H 3773.63 -1.32562 -3.53139 0
M  V30 32976 H 3776.02 -0.563426 -2.89671 0
M  V30 32977 H 3776.1 -1.88781 -1.72613 0
M  V30 32978 H 3775.74 -3.55787 -3.62461 0
M  V30 32979 H 3775.67 -2.20532 -4.78198 0
M  V30 32980 H 3778.16 -1.94002 -3.24302 0
M  V30 32981 H 3778.47 -4.49091 -6.28917 0
M  V30 32982 H 3776.82 -4.03314 -5.66006 0
M  V30 32983 H 3780.01 -2.475 -3.97318 0
M  V30 32984 H 3780.18 -3.63803 -5.36238 0
M  V30 32985 N 3773.59 1.41416 -0.695653 0
M  V30 32986 C 3774.54 2.27999 -0.00721115 0
M  V30 32987 C 3775.52 1.42206 0.752743 0
M  V30 32988 O 3776.72 1.65476 0.628223 0
M  V30 32989 C 3773.84 3.30509 0.928378 0
M  V30 32990 C 3772.93 4.2378 0.164667 0
M  V30 32991 N 3773.32 4.9875 -0.841577 0
M  V30 32992 C 3771.62 4.44201 0.400135 0
M  V30 32993 C 3772.32 5.67017 -1.29873 0
M  V30 32994 N 3771.3 5.39999 -0.624642 0
M  V30 32995 H 3775.1 2.83396 -0.778718 0
M  V30 32996 H 3772.61 1.53629 -0.526496 0
M  V30 32997 H 3774.61 3.91361 1.43673 0
M  V30 32998 H 3773.27 2.76673 1.69948 0
M  V30 32999 H 3774.28 5.03281 -1.22182 0
M  V30 33000 H 3770.96 4.01375 1.14912 0
M  V30 33001 H 3772.35 6.3712 -2.13373 0
M  V30 33002 N 3775.07 0.44041 1.51321 0
M  V30 33003 C 3776.32 -0.12478 2.01714 0
M  V30 33004 C 3776.64 -1.42943 1.32636 0
M  V30 33005 O 3775.91 -1.90377 0.461882 0
M  V30 33006 H 3774.49 -0.0491029 0.745384 0
M  V30 33007 H 3777.15 0.58382 1.8595 0
M  V30 33008 H 3776.24 -0.298475 3.10669 0
M  V30 33009 N 3776.55 -1.5666 0.171876 0
M  V30 33010 C 3777.77 -2.01713 -0.482361 0
M  V30 33011 C 3778.2 -1.05131 -1.55978 0
M  V30 33012 O 3777.55 -0.0309496 -1.81274 0
M  V30 33013 C 3777.6 -3.45364 -1.0371 0
M  V30 33014 O 3776.71 -3.51856 -2.15108 0
M  V30 33015 H 3776.05 -0.65389 -0.115428 0
M  V30 33016 H 3778.58 -2.02731 0.27593 0
M  V30 33017 H 3778.59 -3.84681 -1.35957 0
M  V30 33018 H 3777.26 -4.15158 -0.248247 0
M  V30 33019 H 3775.84 -3.24399 -1.83901 0
M  V30 33020 N 3778.02 0.101846 -1.57271 0
M  V30 33021 C 3779.27 0.804974 -1.85377 0
M  V30 33022 C 3779.59 1.79597 -0.759596 0
M  V30 33023 O 3778.86 1.94719 0.214806 0
M  V30 33024 H 3777.44 0.300272 -0.683992 0
M  V30 33025 H 3780.1 0.0850823 -1.94714 0
M  V30 33026 H 3779.2 1.33971 -2.81883 0
M  V30 33027 N 3779.5 1.53135 0.372494 0
M  V30 33028 C 3780.73 1.73185 1.14113 0
M  V30 33029 C 3781.15 0.456585 1.82474 0
M  V30 33030 O 3780.51 -0.588889 1.7147 0
M  V30 33031 C 3780.56 2.89319 2.15236 0
M  V30 33032 O 3779.66 2.57445 3.22174 0
M  V30 33033 H 3779 0.575368 0.331432 0
M  V30 33034 H 3781.53 1.99993 0.431734 0
M  V30 33035 H 3781.54 3.15288 2.58955 0
M  V30 33036 H 3780.22 3.81825 1.6487 0
M  V30 33037 H 3778.79 2.42272 2.83476 0
M  V30 33038 N 3780.98 -0.6319 1.44377 0
M  V30 33039 C 3782.23 -1.38873 1.46829 0
M  V30 33040 C 3782.55 -1.94734 0.101823 0
M  V30 33041 O 3781.82 -1.75731 -0.865759 0
M  V30 33042 H 3780.4 -0.515466 0.540651 0
M  V30 33043 H 3783.06 -0.74379 1.80149 0
M  V30 33044 H 3782.16 -2.22043 2.19325 0
M  V30 33045 N 3782.46 -1.31262 -0.872235 0
M  V30 33046 C 3783.87 -1.09871 -1.15761 0
M  V30 33047 C 3784.07 0.132296 -2.01065 0
M  V30 33048 O 3783.13 0.822275 -2.38736 0
M  V30 33049 C 3784.44 -2.36904 -1.85194 0
M  V30 33050 C 3785.99 -2.42492 -1.97905 0
M  V30 33051 C 3786.47 -3.69401 -2.70752 0
M  V30 33052 N 3787.96 -3.70282 -2.7829 0
M  V30 33053 C 3788.69 -4.65174 -3.35262 0
M  V30 33054 N 3788.19 -5.7042 -3.93183 0
M  V30 33055 N 3789.98 -4.52698 -3.33198 0
M  V30 33056 H 3782.13 -2.10217 -0.303747 0
M  V30 33057 H 3784.39 -0.927272 -0.197156 0
M  V30 33058 H 3784.1 -3.26807 -1.29962 0
M  V30 33059 H 3783.97 -2.46528 -2.85489 0
M  V30 33060 H 3786.36 -1.5306 -2.52303 0
M  V30 33061 H 3786.44 -2.36834 -0.966602 0
M  V30 33062 H 3786.09 -4.59199 -2.17023 0
M  V30 33063 H 3786.02 -3.72325 -3.724 0
M  V30 33064 H 3788.51 -2.94201 -2.3718 0
M  V30 33065 H 3788.82 -6.38909 -4.34759 0
M  V30 33066 H 3787.17 -5.74197 -3.91565 0
M  V30 33067 H 3790.36 -3.69652 -2.87185 0
M  V30 33068 H 3790.53 -5.26828 -3.77301 0
M  V30 33069 N 3783.94 1.08625 -1.14186 0
M  V30 33070 C 3785.16 1.85253 -0.932537 0
M  V30 33071 C 3785.59 1.80948 0.51376 0
M  V30 33072 O 3784.94 1.19294 1.36523 0
M  V30 33073 C 3784.99 3.30807 -1.43525 0
M  V30 33074 O 3784.1 4.07623 -0.625878 0
M  V30 33075 H 3783.44 0.574124 -0.333583 0
M  V30 33076 H 3785.97 1.37118 -1.51855 0
M  V30 33077 H 3785.98 3.81651 -1.44245 0
M  V30 33078 H 3784.65 3.33255 -2.48825 0
M  V30 33079 H 3783.23 3.66513 -0.687232 0
M  V30 33080 N 3785.41 0.936635 1.26747 0
M  V30 33081 C 3786.64 0.597852 1.98596 0
M  V30 33082 C 3787.06 -0.81917 1.69326 0
M  V30 33083 O 3786.42 -1.55109 0.938661 0
M  V30 33084 C 3786.47 0.841069 3.50654 0
M  V30 33085 O 3785.57 -0.0890314 4.12304 0
M  V30 33086 H 3784.92 0.229187 0.623193 0
M  V30 33087 H 3787.45 1.25833 1.6133 0
M  V30 33088 H 3787.46 0.760164 4.00856 0
M  V30 33089 H 3786.13 1.87394 3.7129 0
M  V30 33090 H 3784.71 0.042546 3.72876 0
M  V30 33091 N 3786.89 -1.41045 0.703143 0
M  V30 33092 C 3788.12 -2.05946 0.245124 0
M  V30 33093 C 3788.54 -1.52593 -1.09986 0
M  V30 33094 O 3787.9 -0.656052 -1.69014 0
M  V30 33095 C 3787.95 -3.59919 0.221507 0
M  V30 33096 O 3787.05 -4.04541 -0.801253 0
M  V30 33097 H 3786.39 -0.653454 0.117873 0
M  V30 33098 H 3788.92 -1.80673 0.96013 0
M  V30 33099 H 3788.93 -4.07963 0.0549399 0
M  V30 33100 H 3787.61 -3.98119 1.20308 0
M  V30 33101 H 3786.19 -3.67985 -0.603424 0
M  V30 33102 N 3788.37 -0.448429 -1.51086 0
M  V30 33103 C 3789.6 0.115002 -2.07081 0
M  V30 33104 C 3790.02 1.34735 -1.31256 0
M  V30 33105 O 3789.38 1.77817 -0.353644 0
M  V30 33106 C 3789.43 0.40474 -3.58321 0
M  V30 33107 O 3788.53 1.48929 -3.8457 0
M  V30 33108 H 3787.87 -0.00300285 -0.663993 0
M  V30 33109 H 3790.4 -0.632955 -1.94563 0
M  V30 33110 H 3790.41 0.651942 -4.02758 0
M  V30 33111 H 3789.09 -0.495911 -4.12933 0
M  V30 33112 H 3787.66 1.23118 -3.51989 0
M  V30 33113 N 3789.85 1.56567 -0.180181 0
M  V30 33114 C 3791.1 1.96759 0.461572 0
M  V30 33115 C 3791.42 1.06763 1.63177 0
M  V30 33116 O 3790.69 0.135797 1.95429 0
M  V30 33117 H 3789.27 0.726569 0.173513 0
M  V30 33118 H 3791.93 1.93111 -0.263434 0
M  V30 33119 H 3791.03 3.01253 0.815676 0
M  V30 33120 N 3791.33 -0.0935042 1.57322 0
M  V30 33121 C 3792.26 -1.13958 1.98863 0
M  V30 33122 C 3793.27 -1.36227 0.891408 0
M  V30 33123 O 3794.46 -1.34851 1.16951 0
M  V30 33124 C 3791.56 -2.49481 2.29374 0
M  V30 33125 C 3790.73 -2.47467 3.60664 0
M  V30 33126 C 3789.79 -3.64931 3.79094 0
M  V30 33127 O 3788.82 -3.47349 4.50929 0
M  V30 33128 N 3790.02 -4.84472 3.19792 0
M  V30 33129 H 3792.79 -0.785998 2.8921 0
M  V30 33130 H 3790.35 -0.282463 1.59417 0
M  V30 33131 H 3792.34 -3.26667 2.38895 0
M  V30 33132 H 3790.91 -2.76923 1.45026 0
M  V30 33133 H 3790.13 -1.55817 3.62098 0
M  V30 33134 H 3791.42 -2.43201 4.46912 0
M  V30 33135 H 3790.81 -5.0166 2.61445 0
M  V30 33136 H 3789.37 -5.59245 3.34796 0
M  V30 33137 N 3792.8 -1.5333 -0.364368 0
M  V30 33138 C 3793.75 -1.76234 -1.44657 0
M  V30 33139 C 3794.74 -0.61691 -1.48604 0
M  V30 33140 O 3795.93 -0.875616 -1.53824 0
M  V30 33141 C 3793.06 -1.95676 -2.82074 0
M  V30 33142 C 3792.15 -3.16224 -2.82601 0
M  V30 33143 N 3792.54 -4.38109 -2.52773 0
M  V30 33144 C 3790.83 -3.16971 -3.1376 0
M  V30 33145 C 3791.54 -5.19855 -2.61008 0
M  V30 33146 N 3790.51 -4.56094 -2.95769 0
M  V30 33147 H 3794.31 -2.68079 -1.2046 0
M  V30 33148 H 3791.83 -1.51972 -0.572562 0
M  V30 33149 H 3793.82 -2.10213 -3.60023 0
M  V30 33150 H 3792.48 -1.05059 -3.07234 0
M  V30 33151 H 3793.5 -4.6582 -2.26345 0
M  V30 33152 H 3790.17 -2.36251 -3.44227 0
M  V30 33153 H 3791.56 -6.27082 -2.41283 0
M  V30 33154 N 3794.28 0.624234 -1.4471 0
M  V30 33155 C 3795.53 1.38092 -1.47564 0
M  V30 33156 C 3795.85 1.94677 -0.112149 0
M  V30 33157 O 3795.12 1.76188 0.856427 0
M  V30 33158 H 3793.7 0.512592 -0.543377 0
M  V30 33159 H 3796.36 0.734226 -1.80541 0
M  V30 33160 H 3795.46 2.20876 -2.20499 0
M  V30 33161 N 3795.76 1.31723 0.865262 0
M  V30 33162 C 3796.99 1.24788 1.65658 0
M  V30 33163 C 3797.41 -0.182919 1.87208 0
M  V30 33164 O 3796.77 -1.13067 1.41723 0
M  V30 33165 C 3796.82 2.00204 2.99918 0
M  V30 33166 O 3795.92 1.3426 3.89934 0
M  V30 33167 H 3795.26 0.430598 0.505452 0
M  V30 33168 H 3797.79 1.73868 1.07847 0
M  V30 33169 H 3797.8 2.09978 3.49819 0
M  V30 33170 H 3796.48 3.04254 2.83553 0
M  V30 33171 H 3795.05 1.32967 3.48388 0
M  V30 33172 N 3797.24 -1.08018 1.14761 0
M  V30 33173 C 3798.49 -1.80126 0.916466 0
M  V30 33174 C 3798.81 -1.86838 -0.558248 0
M  V30 33175 O 3798.08 -1.36437 -1.40577 0
M  V30 33176 H 3796.66 -0.667129 0.336078 0
M  V30 33177 H 3799.32 -1.30573 1.44695 0
M  V30 33178 H 3798.42 -2.82816 1.31991 0
M  V30 33179 N 3798.72 -0.943344 -1.26249 0
M  V30 33180 C 3799.65 -0.472387 -2.28672 0
M  V30 33181 C 3800.63 0.475452 -1.6332 0
M  V30 33182 O 3801.81 0.376841 -1.90509 0
M  V30 33183 C 3798.94 0.261225 -3.46316 0
M  V30 33184 C 3797.9 -0.600266 -4.2377 0
M  V30 33185 C 3797.22 0.263431 -5.34051 0
M  V30 33186 C 3798.52 -1.8727 -4.87573 0
M  V30 33187 H 3800.22 -1.32841 -2.68316 0
M  V30 33188 H 3797.76 -0.640205 -1.28986 0
M  V30 33189 H 3799.72 0.601747 -4.17081 0
M  V30 33190 H 3798.44 1.1514 -3.05631 0
M  V30 33191 H 3797.1 -0.923714 -3.54772 0
M  V30 33192 H 3796.75 1.15303 -4.89606 0
M  V30 33193 H 3796.45 -0.309598 -5.86784 0
M  V30 33194 H 3797.97 0.599175 -6.07653 0
M  V30 33195 H 3799.38 -1.59929 -5.50541 0
M  V30 33196 H 3797.78 -2.39047 -5.50433 0
M  V30 33197 H 3798.85 -2.58276 -4.10392 0
M  V30 33198 N 3800.2 1.4067 -0.710613 0
M  V30 33199 C 3801.44 2.00579 -0.247494 0
M  V30 33200 C 3801.76 1.56614 1.16176 0
M  V30 33201 O 3801.03 0.803389 1.78669 0
M  V30 33202 H 3799.61 0.741738 -0.0885122 0
M  V30 33203 H 3802.28 1.72079 -0.915133 0
M  V30 33204 H 3801.37 3.10871 -0.276685 0
M  V30 33205 N 3801.67 0.456435 1.50846 0
M  V30 33206 C 3802.58 -0.350986 2.3196 0
M  V30 33207 C 3803.6 -1.00983 1.41698 0
M  V30 33208 O 3804.78 -1.00102 1.74761 0
M  V30 33209 C 3801.84 -1.42691 3.15975 0
M  V30 33210 C 3800.9 -0.786198 4.2204 0
M  V30 33211 C 3800.13 -1.81085 5.0204 0
M  V30 33212 O 3800.36 -3.03556 4.82918 0
M  V30 33213 O 3799.29 -1.39079 5.85611 0
M  V30 33214 H 3803.12 0.311732 3.02096 0
M  V30 33215 H 3800.7 0.21857 1.47793 0
M  V30 33216 H 3802.58 -2.05046 3.68149 0
M  V30 33217 H 3801.26 -2.07336 2.48583 0
M  V30 33218 H 3800.17 -0.124082 3.73894 0
M  V30 33219 H 3801.5 -0.18293 4.9186 0
M  V30 33220 N 3803.15 -1.56469 0.188482 0
M  V30 33221 C 3804.38 -2.02213 -0.460939 0
M  V30 33222 C 3804.8 -1.0678 -1.54854 0
M  V30 33223 O 3804.16 -0.0501744 -1.81231 0
M  V30 33224 C 3804.21 -3.46445 -1.00041 0
M  V30 33225 O 3803.31 -3.54117 -2.11364 0
M  V30 33226 H 3802.65 -0.655078 -0.108486 0
M  V30 33227 H 3805.18 -2.02427 0.297417 0
M  V30 33228 H 3805.19 -3.86102 -1.31869 0
M  V30 33229 H 3803.87 -4.15398 -0.2042 0
M  V30 33230 H 3802.44 -3.26331 -1.8045 0
M  V30 33231 N 3804.63 0.0851597 -1.5737 0
M  V30 33232 C 3805.85 0.803949 -1.91184 0
M  V30 33233 C 3806.28 1.70997 -0.78368 0
M  V30 33234 O 3805.64 1.79364 0.264235 0
M  V30 33235 C 3805.69 1.5849 -3.23903 0
M  V30 33236 O 3804.79 2.6946 -3.12194 0
M  V30 33237 H 3804.13 0.220222 -0.626417 0
M  V30 33238 H 3806.66 0.0574067 -2.04519 0
M  V30 33239 H 3806.67 1.96701 -3.57453 0
M  V30 33240 H 3805.35 0.920039 -4.05596 0
M  V30 33241 H 3803.92 2.34205 -2.90177 0
M  V30 33242 N 3806.11 1.53521 0.356231 0
M  V30 33243 C 3807.36 1.6982 1.09571 0
M  V30 33244 C 3807.68 0.457439 1.89559 0
M  V30 33245 O 3806.95 -0.528583 1.88634 0
M  V30 33246 H 3805.53 0.626061 0.407501 0
M  V30 33247 H 3808.19 1.90739 0.400578 0
M  V30 33248 H 3807.28 2.56346 1.78025 0
M  V30 33249 N 3807.59 -0.616551 1.45039 0
M  V30 33250 C 3808.83 -1.37579 1.48587 0
M  V30 33251 C 3809.16 -1.94104 0.124099 0
M  V30 33252 O 3808.42 -1.74995 -0.876081 0
M  V30 33253 C 3808.71 -2.54872 2.5055 0
M  V30 33254 C 3808.38 -2.16548 3.95497 0
M  V30 33255 C 3807.04 -2.0581 4.34966 0
M  V30 33256 C 3809.39 -1.86504 4.86689 0
M  V30 33257 C 3806.72 -1.63237 5.63534 0
M  V30 33258 C 3809.07 -1.45419 6.15659 0
M  V30 33259 C 3807.74 -1.33233 6.54068 0
M  V30 33260 H 3807.01 -0.503438 0.54372 0
M  V30 33261 H 3809.66 -0.697756 1.78336 0
M  V30 33262 H 3807.96 -3.27973 2.14338 0
M  V30 33263 H 3809.66 -3.13102 2.50536 0
M  V30 33264 H 3806.25 -2.25829 3.64279 0
M  V30 33265 H 3810.43 -1.93702 4.56939 0
M  V30 33266 H 3805.69 -1.52417 5.92097 0
M  V30 33267 H 3809.86 -1.21214 6.8577 0
M  V30 33268 H 3807.49 -1.00017 7.53592 0
M  V30 33269 N 3809.06 -1.3218 -0.858264 0
M  V30 33270 C 3810.31 -1.22293 -1.609 0
M  V30 33271 C 3810.63 0.216193 -1.93798 0
M  V30 33272 O 3809.9 1.14 -1.59314 0
M  V30 33273 H 3808.48 -0.449634 -0.596521 0
M  V30 33274 H 3811.14 -1.65657 -1.02683 0
M  V30 33275 H 3810.24 -1.80299 -2.54752 0
M  V30 33276 N 3810.54 1.07407 -1.15332 0
M  V30 33277 C 3811.49 2.1282 -0.818017 0
M  V30 33278 C 3812.48 1.59684 0.197472 0
M  V30 33279 O 3813.67 1.77 -0.00169909 0
M  V30 33280 C 3810.8 3.41912 -0.308416 0
M  V30 33281 C 3809.88 4.01904 -1.35403 0
M  V30 33282 N 3810.27 4.36162 -2.56118 0
M  V30 33283 C 3808.57 4.29367 -1.20663 0
M  V30 33284 C 3809.27 4.83695 -3.23132 0
M  V30 33285 N 3808.25 4.82431 -2.50522 0
M  V30 33286 H 3812.05 2.37139 -1.73615 0
M  V30 33287 H 3809.56 1.2484 -1.03869 0
M  V30 33288 H 3811.56 4.1687 -0.0498598 0
M  V30 33289 H 3810.22 3.19037 0.603784 0
M  V30 33290 H 3811.23 4.26867 -2.93266 0
M  V30 33291 H 3807.91 4.15994 -0.354281 0
M  V30 33292 H 3809.3 5.19498 -4.26112 0
M  V30 33293 N 3812.02 0.950026 1.25747 0
M  V30 33294 C 3812.97 0.43735 2.23766 0
M  V30 33295 C 3813.95 -0.470853 1.53856 0
M  V30 33296 O 3815.15 -0.304656 1.74358 0
M  V30 33297 C 3812.27 -0.287977 3.4209 0
M  V30 33298 C 3811.36 0.638028 4.19273 0
M  V30 33299 N 3811.75 1.76767 4.73906 0
M  V30 33300 C 3810.05 0.445329 4.43771 0
M  V30 33301 C 3810.75 2.34544 5.32319 0
M  V30 33302 N 3809.73 1.63248 5.18509 0
M  V30 33303 H 3813.53 1.29954 2.63608 0
M  V30 33304 H 3811.04 0.806956 1.40933 0
M  V30 33305 H 3813.04 -0.672361 4.11442 0
M  V30 33306 H 3811.7 -1.14682 3.03773 0
M  V30 33307 H 3812.71 2.14963 4.71181 0
M  V30 33308 H 3809.39 -0.371017 4.15848 0
M  V30 33309 H 3810.78 3.29774 5.85405 0
M  V30 33310 N 3813.5 -1.40291 0.718063 0
M  V30 33311 C 3814.41 -2.34501 0.0681947 0
M  V30 33312 C 3815.42 -1.57432 -0.74102 0
M  V30 33313 O 3816.6 -1.89808 -0.673404 0
M  V30 33314 C 3813.66 -3.36353 -0.840699 0
M  V30 33315 C 3812.73 -4.29295 -0.0211533 0
M  V30 33316 C 3811.96 -5.26282 -0.88676 0
M  V30 33317 O 3812.18 -5.29302 -2.12594 0
M  V30 33318 O 3811.12 -6.01025 -0.324432 0
M  V30 33319 H 3814.94 -2.91698 0.84534 0
M  V30 33320 H 3812.53 -1.41528 0.478566 0
M  V30 33321 H 3814.41 -3.98808 -1.36124 0
M  V30 33322 H 3813.08 -2.81566 -1.59695 0
M  V30 33323 H 3811.99 -3.70116 0.544516 0
M  V30 33324 H 3813.32 -4.87241 0.696931 0
M  V30 33325 N 3814.98 -0.464428 -1.50602 0
M  V30 33326 C 3816.2 0.0930314 -2.07191 0
M  V30 33327 C 3816.63 1.33335 -1.32677 0
M  V30 33328 O 3815.98 1.77432 -0.372484 0
M  V30 33329 C 3816.03 0.366712 -3.58731 0
M  V30 33330 O 3815.14 1.44842 -3.86128 0
M  V30 33331 H 3814.48 -0.0100452 -0.663924 0
M  V30 33332 H 3817.01 -0.653556 -1.93881 0
M  V30 33333 H 3817.02 0.609187 -4.03426 0
M  V30 33334 H 3815.69 -0.53968 -4.12384 0
M  V30 33335 H 3814.27 1.19378 -3.53275 0
M  V30 33336 N 3816.45 1.56367 -0.196777 0
M  V30 33337 C 3817.68 2.02455 0.450209 0
M  V30 33338 C 3818.1 1.07599 1.54285 0
M  V30 33339 O 3817.46 0.0597848 1.81201 0
M  V30 33340 C 3817.51 3.46971 0.982026 0
M  V30 33341 O 3816.61 3.55233 2.09483 0
M  V30 33342 H 3815.96 0.655644 0.10501 0
M  V30 33343 H 3818.49 2.02266 -0.308148 0
M  V30 33344 H 3818.5 3.86796 1.2982 0
M  V30 33345 H 3817.17 4.15501 0.182167 0
M  V30 33346 H 3815.75 3.27284 1.78717 0
M  V30 33347 N 3817.93 -0.0768128 1.57413 0
M  V30 33348 C 3819.16 -0.793799 1.91608 0
M  V30 33349 C 3819.58 -1.70579 0.792738 0
M  V30 33350 O 3818.94 -1.79502 -0.254719 0
M  V30 33351 C 3818.99 -1.5677 3.24739 0
M  V30 33352 O 3818.09 -2.67801 3.13618 0
M  V30 33353 H 3817.43 -0.216897 0.627576 0
M  V30 33354 H 3819.96 -0.0465597 2.04547 0
M  V30 33355 H 3819.97 -1.94803 3.58491 0
M  V30 33356 H 3818.65 -0.898517 4.06078 0
M  V30 33357 H 3817.23 -2.32663 2.91415 0
M  V30 33358 N 3819.41 -1.53708 -0.348084 0
M  V30 33359 C 3820.66 -1.70398 -1.08668 0
M  V30 33360 C 3820.98 -0.467486 -1.89313 0
M  V30 33361 O 3820.25 0.518572 -1.88912 0
M  V30 33362 H 3818.83 -0.628213 -0.404175 0
M  V30 33363 H 3821.49 -1.90949 -0.390457 0
M  V30 33364 H 3820.59 -2.57287 -1.76663 0
M  V30 33365 N 3820.89 0.608851 -1.45364 0
M  V30 33366 C 3821.82 1.73345 -1.49947 0
M  V30 33367 C 3822.83 1.5805 -0.39038 0
M  V30 33368 O 3824.02 1.65955 -0.657367 0
M  V30 33369 C 3821.12 3.1133 -1.33891 0
M  V30 33370 C 3820.3 3.52876 -2.58451 0
M  V30 33371 C 3819.35 4.6982 -2.36971 0
M  V30 33372 O 3818.38 4.77001 -3.10577 0
M  V30 33373 N 3819.58 5.63002 -1.41452 0
M  V30 33374 H 3822.35 1.69877 -2.46904 0
M  V30 33375 H 3819.91 0.794095 -1.41088 0
M  V30 33376 H 3821.9 3.87318 -1.17333 0
M  V30 33377 H 3820.47 3.09313 -0.452149 0
M  V30 33378 H 3819.69 2.66864 -2.90133 0
M  V30 33379 H 3820.98 3.77392 -3.41252 0
M  V30 33380 H 3820.38 5.59914 -0.80704 0
M  V30 33381 H 3818.93 6.38527 -1.30866 0
M  V30 33382 N 3822.37 1.32633 0.851242 0
M  V30 33383 C 3823.59 1.26538 1.64326 0
M  V30 33384 C 3824.02 -0.163053 1.87392 0
M  V30 33385 O 3823.37 -1.11558 1.42915 0
M  V30 33386 C 3823.42 2.03374 2.97777 0
M  V30 33387 O 3822.53 1.38388 3.88488 0
M  V30 33388 H 3821.87 0.435935 0.500856 0
M  V30 33389 H 3824.4 1.75003 1.05997 0
M  V30 33390 H 3824.41 2.13676 3.47572 0
M  V30 33391 H 3823.08 3.07244 2.8031 0
M  V30 33392 H 3821.66 1.36655 3.46958 0
M  V30 33393 N 3823.84 -1.06794 1.159 0
M  V30 33394 C 3825.07 -1.83746 0.961891 0
M  V30 33395 C 3825.49 -1.81742 -0.484908 0
M  V30 33396 O 3824.85 -1.21451 -1.34608 0
M  V30 33397 C 3824.9 -3.28481 1.48769 0
M  V30 33398 O 3824 -4.06576 0.690648 0
M  V30 33399 H 3823.35 -0.568744 0.342674 0
M  V30 33400 H 3825.88 -1.34684 1.54017 0
M  V30 33401 H 3825.89 -3.79308 1.50298 0
M  V30 33402 H 3824.56 -3.29254 2.54095 0
M  V30 33403 H 3823.14 -3.65373 0.745454 0
M  V30 33404 N 3825.32 -0.956681 -1.25241 0
M  V30 33405 C 3826.55 -0.629372 -1.9762 0
M  V30 33406 C 3826.97 0.792128 -1.70608 0
M  V30 33407 O 3826.33 1.53596 -0.963219 0
M  V30 33408 C 3826.38 -0.896748 -3.49272 0
M  V30 33409 O 3825.48 0.0234261 -4.12393 0
M  V30 33410 H 3824.82 -0.239072 -0.619468 0
M  V30 33411 H 3827.35 -1.28384 -1.59307 0
M  V30 33412 H 3827.36 -0.82384 -3.99596 0
M  V30 33413 H 3826.04 -1.93277 -3.68262 0
M  V30 33414 H 3824.62 -0.101862 -3.72761 0
M  V30 33415 N 3826.8 1.39908 -0.725493 0
M  V30 33416 C 3828.03 2.0471 -0.278833 0
M  V30 33417 C 3828.44 1.54792 1.08793 0
M  V30 33418 O 3827.78 0.703792 1.69683 0
M  V30 33419 C 3827.84 3.58988 -0.191795 0
M  V30 33420 C 3827.51 4.31839 -1.49546 0
M  V30 33421 C 3828.5 4.59122 -2.43933 0
M  V30 33422 C 3826.19 4.70564 -1.75713 0
M  V30 33423 C 3828.18 5.24127 -3.62726 0
M  V30 33424 C 3825.87 5.35299 -2.94786 0
M  V30 33425 C 3826.87 5.62011 -3.88114 0
M  V30 33426 O 3826.56 6.25406 -5.05096 0
M  V30 33427 H 3826.29 0.665033 -0.121274 0
M  V30 33428 H 3828.84 1.8012 -0.987219 0
M  V30 33429 H 3827.07 3.82437 0.572616 0
M  V30 33430 H 3828.76 4.05295 0.221609 0
M  V30 33431 H 3829.53 4.29659 -2.24984 0
M  V30 33432 H 3825.41 4.49134 -1.03919 0
M  V30 33433 H 3828.95 5.44893 -4.35588 0
M  V30 33434 H 3824.85 5.64182 -3.13639 0
M  V30 33435 H 3825.62 6.43902 -5.05305 0
M  V30 33436 N 3828.28 0.472408 1.50353 0
M  V30 33437 C 3829.5 -0.0820422 2.07238 0
M  V30 33438 C 3829.93 -1.3263 1.33383 0
M  V30 33439 O 3829.29 -1.77232 0.381888 0
M  V30 33440 C 3829.33 -0.347683 3.5892 0
M  V30 33441 O 3828.44 -1.42792 3.8689 0
M  V30 33442 H 3827.78 0.013566 0.663861 0
M  V30 33443 H 3830.31 0.663829 1.93532 0
M  V30 33444 H 3830.32 -0.587784 4.03744 0
M  V30 33445 H 3828.99 0.561542 4.12092 0
M  V30 33446 H 3827.57 -1.17503 3.53903 0
M  V30 33447 N 3829.76 -1.5626 0.205067 0
M  V30 33448 C 3830.69 -2.16795 -0.743816 0
M  V30 33449 C 3831.7 -1.13247 -1.16957 0
M  V30 33450 O 3832.89 -1.40298 -1.10357 0
M  V30 33451 C 3829.99 -2.72333 -2.01712 0
M  V30 33452 C 3829.16 -4.00885 -1.74958 0
M  V30 33453 C 3828.22 -4.4115 -2.86833 0
M  V30 33454 O 3827.25 -5.08377 -2.56011 0
M  V30 33455 N 3828.45 -4.05473 -4.15417 0
M  V30 33456 H 3831.22 -2.98846 -0.226093 0
M  V30 33457 H 3828.78 -1.61883 0.0234561 0
M  V30 33458 H 3830.77 -2.96249 -2.75715 0
M  V30 33459 H 3829.34 -1.9468 -2.44578 0
M  V30 33460 H 3828.56 -3.84997 -0.846836 0
M  V30 33461 H 3829.85 -4.84778 -1.54492 0
M  V30 33462 H 3829.25 -3.51418 -4.43308 0
M  V30 33463 H 3827.8 -4.34318 -4.86015 0
M  V30 33464 N 3831.24 0.0684638 -1.57451 0
M  V30 33465 C 3832.19 1.08799 -2.00366 0
M  V30 33466 C 3833.17 1.34291 -0.886262 0
M  V30 33467 O 3834.36 1.34536 -1.15017 0
M  V30 33468 C 3831.49 2.40079 -2.45392 0
M  V30 33469 C 3830.58 2.17847 -3.63873 0
M  V30 33470 N 3830.97 1.65553 -4.77939 0
M  V30 33471 C 3829.27 2.48306 -3.70487 0
M  V30 33472 C 3829.97 1.58214 -5.59771 0
M  V30 33473 N 3828.94 2.04383 -5.03715 0
M  V30 33474 H 3832.74 0.67705 -2.85995 0
M  V30 33475 H 3830.26 0.275481 -1.60046 0
M  V30 33476 H 3832.26 3.13883 -2.74377 0
M  V30 33477 H 3830.92 2.81887 -1.61151 0
M  V30 33478 H 3831.93 1.3437 -5.00165 0
M  V30 33479 H 3828.6 2.93457 -2.96966 0
M  V30 33480 H 3829.99 1.18607 -6.61349 0
M  V30 33481 N 3832.71 1.5389 0.339928 0
M  V30 33482 C 3833.96 1.70972 1.07763 0
M  V30 33483 C 3834.28 0.477519 1.89063 0
M  V30 33484 O 3833.55 -0.508546 1.89184 0
M  V30 33485 H 3832.13 0.630348 0.400838 0
M  V30 33486 H 3834.79 1.91153 0.380325 0
M  V30 33487 H 3833.89 2.5822 1.75296 0
M  V30 33488 N 3834.19 -0.601133 1.45685 0
M  V30 33489 C 3835.42 -1.39132 1.53808 0
M  V30 33490 C 3835.84 -1.87297 0.173658 0
M  V30 33491 O 3835.2 -1.60514 -0.842903 0
M  V30 33492 C 3835.25 -2.56747 2.53206 0
M  V30 33493 O 3834.35 -3.5759 2.05433 0
M  V30 33494 H 3833.69 -0.415109 0.518247 0
M  V30 33495 H 3836.22 -0.730973 1.91097 0
M  V30 33496 H 3836.23 -3.03908 2.72221 0
M  V30 33497 H 3834.91 -2.21041 3.52298 0
M  V30 33498 H 3833.48 -3.17035 1.96324 0
M  V30 33499 N 3835.67 -1.33083 -0.844196 0
M  V30 33500 C 3836.92 -1.23992 -1.59594 0
M  V30 33501 C 3837.24 0.195626 -1.94016 0
M  V30 33502 O 3836.51 1.12303 -1.60514 0
M  V30 33503 H 3835.09 -0.455936 -0.591719 0
M  V30 33504 H 3837.75 -1.66736 -1.00921 0
M  V30 33505 H 3836.85 -1.82991 -2.52826 0
M  V30 33506 N 3837.15 1.06178 -1.16464 0
M  V30 33507 C 3838.37 1.83233 -0.971622 0
M  V30 33508 C 3838.8 1.81997 0.475263 0
M  V30 33509 O 3838.16 1.22163 1.33962 0
M  V30 33510 C 3838.2 3.27688 -1.50509 0
M  V30 33511 O 3837.31 4.06204 -0.7122 0
M  V30 33512 H 3836.65 0.566919 -0.345686 0
M  V30 33513 H 3839.18 1.33866 -1.54729 0
M  V30 33514 H 3839.19 3.78506 -1.52307 0
M  V30 33515 H 3837.86 3.27902 -2.55838 0
M  V30 33516 H 3836.44 3.64972 -0.76482 0
M  V30 33517 N 3838.63 0.96331 1.24732 0
M  V30 33518 C 3839.87 0.621569 1.92304 0
M  V30 33519 C 3840.19 -0.845332 1.75725 0
M  V30 33520 O 3839.46 -1.60297 1.12613 0
M  V30 33521 H 3838.04 0.226899 0.711706 0
M  V30 33522 H 3840.71 1.22343 1.51718 0
M  V30 33523 H 3839.8 0.858374 3.00064 0
M  V30 33524 N 3840.1 -1.39522 0.732902 0
M  V30 33525 C 3841.05 -2.279 0.0676585 0
M  V30 33526 C 3842.04 -1.44152 -0.714775 0
M  V30 33527 O 3843.23 -1.67084 -0.584129 0
M  V30 33528 C 3840.36 -3.32854 -0.840423 0
M  V30 33529 C 3839.44 -4.24068 -0.0522515 0
M  V30 33530 N 3839.84 -4.96343 0.973516 0
M  V30 33531 C 3838.13 -4.45106 -0.282222 0
M  V30 33532 C 3838.83 -5.63374 1.44861 0
M  V30 33533 N 3837.81 -5.38153 0.767594 0
M  V30 33534 H 3841.61 -2.81232 0.853582 0
M  V30 33535 H 3839.13 -1.52179 0.567043 0
M  V30 33536 H 3841.12 -3.95033 -1.33247 0
M  V30 33537 H 3839.78 -2.81081 -1.62553 0
M  V30 33538 H 3840.79 -4.99865 1.35482 0
M  V30 33539 H 3837.47 -4.0428 -1.0423 0
M  V30 33540 H 3838.86 -6.31238 2.30191 0
M  V30 33541 N 3841.58 -0.480375 -1.501 0
M  V30 33542 C 3842.81 0.0710508 -2.07278 0
M  V30 33543 C 3843.23 1.31921 -1.34084 0
M  V30 33544 O 3842.59 1.77027 -0.391282 0
M  V30 33545 C 3842.64 0.328643 -3.59099 0
M  V30 33546 O 3841.74 1.40739 -3.87642 0
M  V30 33547 H 3841.08 -0.0170865 -0.66378 0
M  V30 33548 H 3843.61 -0.674083 -1.93177 0
M  V30 33549 H 3843.62 0.566364 -4.0405 0
M  V30 33550 H 3842.3 -0.583388 -4.11788 0
M  V30 33551 H 3840.87 1.15624 -3.54521 0
M  V30 33552 N 3843.06 1.56149 -0.213351 0
M  V30 33553 C 3844.28 2.02921 0.428711 0
M  V30 33554 C 3844.71 1.0923 1.53136 0
M  V30 33555 O 3844.07 0.0790002 1.81128 0
M  V30 33556 C 3844.12 3.47993 0.945169 0
M  V30 33557 O 3843.22 3.57435 2.05703 0
M  V30 33558 H 3842.56 0.656721 0.0980504 0
M  V30 33559 H 3845.09 2.01928 -0.329584 0
M  V30 33560 H 3845.1 3.88151 1.2571 0
M  V30 33561 H 3843.78 4.15671 0.138088 0
M  V30 33562 H 3842.35 3.29161 1.75236 0
M  V30 33563 N 3844.54 -0.0601128 1.57485 0
M  V30 33564 C 3845.79 -0.755542 1.87446 0
M  V30 33565 C 3846.11 -1.7752 0.806946 0
M  V30 33566 O 3845.38 -1.9522 -0.163105 0
M  V30 33567 H 3843.96 -0.282032 0.691713 0
M  V30 33568 H 3846.62 -0.0334274 1.94871 0
M  V30 33569 H 3845.72 -1.2645 2.85336 0
M  V30 33570 N 3846.02 -1.54068 -0.331762 0
M  V30 33571 C 3847.25 -1.75579 -1.08883 0
M  V30 33572 C 3847.65 -0.500462 -1.82461 0
M  V30 33573 O 3847 0.538129 -1.75641 0
M  V30 33574 C 3847.06 -2.88976 -2.13853 0
M  V30 33575 C 3846.72 -4.28171 -1.59746 0
M  V30 33576 C 3847.72 -5.09319 -1.04356 0
M  V30 33577 C 3845.41 -4.74691 -1.64237 0
M  V30 33578 C 3847.4 -6.35094 -0.541745 0
M  V30 33579 C 3845.09 -6.00435 -1.13668 0
M  V30 33580 C 3846.08 -6.8047 -0.587307 0
M  V30 33581 O 3845.77 -8.03851 -0.0891954 0
M  V30 33582 H 3845.5 -0.589944 -0.330064 0
M  V30 33583 H 3848.06 -2.01739 -0.386092 0
M  V30 33584 H 3846.29 -2.58368 -2.8772 0
M  V30 33585 H 3847.98 -2.98346 -2.75217 0
M  V30 33586 H 3848.74 -4.74537 -1.002 0
M  V30 33587 H 3844.62 -4.12445 -2.05938 0
M  V30 33588 H 3848.17 -6.9751 -0.112278 0
M  V30 33589 H 3844.06 -6.3471 -1.17529 0
M  V30 33590 H 3844.83 -8.18242 -0.205386 0
M  V30 33591 N 3847.49 0.593399 -1.46002 0
M  V30 33592 C 3848.74 1.34931 -1.5046 0
M  V30 33593 C 3849.06 1.94396 -0.153418 0
M  V30 33594 O 3848.33 1.77965 0.818862 0
M  V30 33595 H 3846.91 0.50095 -0.554128 0
M  V30 33596 H 3849.58 0.695766 -1.82058 0
M  V30 33597 H 3848.67 2.1615 -2.25135 0
M  V30 33598 N 3848.97 1.33529 0.837127 0
M  V30 33599 C 3849.9 1.19763 1.95421 0
M  V30 33600 C 3850.92 0.128175 1.62295 0
M  V30 33601 O 3852.11 0.378756 1.74435 0
M  V30 33602 C 3849.21 0.814832 3.28958 0
M  V30 33603 C 3848.38 1.9763 3.90207 0
M  V30 33604 C 3847.44 1.57419 5.02101 0
M  V30 33605 O 3846.46 2.28877 5.21156 0
M  V30 33606 N 3847.67 0.480183 5.78511 0
M  V30 33607 H 3850.43 2.15994 2.07766 0
M  V30 33608 H 3847.99 1.26297 1.01295 0
M  V30 33609 H 3849.98 0.527893 4.01242 0
M  V30 33610 H 3848.55 -0.0568481 3.12548 0
M  V30 33611 H 3847.77 2.42876 3.10491 0
M  V30 33612 H 3849.06 2.75341 4.27861 0
M  V30 33613 H 3848.46 -0.114188 5.65585 0
M  V30 33614 H 3847.02 0.252922 6.51309 0
M  V30 33615 N 3850.45 -1.05559 1.17026 0
M  V30 33616 C 3851.4 -2.11492 0.851771 0
M  V30 33617 C 3852.38 -1.59978 -0.172043 0
M  V30 33618 O 3853.58 -1.76975 0.029858 0
M  V30 33619 C 3850.71 -3.41378 0.362772 0
M  V30 33620 C 3849.79 -3.99699 1.4178 0
M  V30 33621 N 3850.18 -4.32032 2.63024 0
M  V30 33622 C 3848.48 -4.27393 1.27479 0
M  V30 33623 C 3849.18 -4.78493 3.30787 0
M  V30 33624 N 3848.16 -4.78385 2.58165 0
M  V30 33625 H 3851.96 -2.34347 1.77365 0
M  V30 33626 H 3849.47 -1.23172 1.05842 0
M  V30 33627 H 3851.47 -4.16738 0.116174 0
M  V30 33628 H 3850.13 -3.19957 -0.552952 0
M  V30 33629 H 3851.14 -4.22148 3.0002 0
M  V30 33630 H 3847.82 -4.15378 0.420417 0
M  V30 33631 H 3849.21 -5.12653 4.34323 0
M  V30 33632 N 3851.93 -0.969911 -1.2422 0
M  V30 33633 C 3853.18 -0.631759 -1.91972 0
M  V30 33634 C 3853.5 0.836001 -1.7617 0
M  V30 33635 O 3852.77 1.59698 -1.13461 0
M  V30 33636 H 3851.35 -0.23067 -0.710493 0
M  V30 33637 H 3854.01 -1.23146 -1.51067 0
M  V30 33638 H 3853.11 -0.874275 -2.99604 0
M  V30 33639 N 3853.41 1.39131 -0.740291 0
M  V30 33640 C 3854.63 2.05224 -0.299641 0
M  V30 33641 C 3855.06 1.55456 1.05901 0
M  V30 33642 O 3854.41 0.700633 1.67215 0
M  V30 33643 C 3854.46 3.59205 -0.316855 0
M  V30 33644 O 3853.57 4.06524 0.693715 0
M  V30 33645 H 3852.91 0.650099 -0.135157 0
M  V30 33646 H 3855.44 1.78064 -1.00769 0
M  V30 33647 H 3855.45 4.07674 -0.163085 0
M  V30 33648 H 3854.12 3.94789 -1.30821 0
M  V30 33649 H 3852.7 3.69456 0.505647 0
M  V30 33650 N 3854.88 0.488329 1.49844 0
M  V30 33651 C 3856.3 0.143508 1.58954 0
M  V30 33652 C 3856.5 -1.35118 1.49484 0
M  V30 33653 O 3855.56 -2.12602 1.36222 0
M  V30 33654 C 3856.87 0.709042 2.92221 0
M  V30 33655 C 3858.42 0.67401 3.05657 0
M  V30 33656 C 3858.89 1.21739 4.41524 0
M  V30 33657 N 3860.38 1.17754 4.47983 0
M  V30 33658 C 3861.12 1.5683 5.51536 0
M  V30 33659 N 3860.61 2.03438 6.62257 0
M  V30 33660 N 3862.41 1.48325 5.42177 0
M  V30 33661 H 3854.56 1.46025 1.54242 0
M  V30 33662 H 3856.82 0.604927 0.729909 0
M  V30 33663 H 3856.53 1.75679 3.0468 0
M  V30 33664 H 3856.4 0.162292 3.76851 0
M  V30 33665 H 3858.79 -0.364874 2.92836 0
M  V30 33666 H 3858.87 1.25776 2.22742 0
M  V30 33667 H 3858.51 2.25499 4.55096 0
M  V30 33668 H 3858.44 0.60969 5.23059 0
M  V30 33669 H 3860.93 0.835892 3.68539 0
M  V30 33670 H 3861.25 2.31358 7.37356 0
M  V30 33671 H 3859.59 2.07403 6.63332 0
M  V30 33672 H 3862.78 1.11741 4.54567 0
M  V30 33673 H 3862.96 1.79103 6.22757 0
M  V30 33674 N 3856.36 -1.56034 0.221629 0
M  V30 33675 C 3857.59 -2.03145 -0.417943 0
M  V30 33676 C 3858.01 -1.1004 -1.52554 0
M  V30 33677 O 3857.37 -0.0886048 -1.81083 0
M  V30 33678 C 3857.42 -3.48489 -0.926701 0
M  V30 33679 O 3856.52 -3.58521 -2.03805 0
M  V30 33680 H 3855.86 -0.657231 -0.0945662 0
M  V30 33681 H 3858.39 -2.0175 0.340288 0
M  V30 33682 H 3858.4 -3.88812 -1.2365 0
M  V30 33683 H 3857.08 -4.15738 -0.116042 0
M  V30 33684 H 3855.66 -3.30085 -1.73488 0
M  V30 33685 N 3857.84 0.0517601 -1.57515 0
M  V30 33686 C 3859.09 0.745591 -1.87844 0
M  V30 33687 C 3859.41 1.7709 -0.816349 0
M  V30 33688 O 3858.68 1.95304 0.152749 0
M  V30 33689 H 3857.26 0.27836 -0.693199 0
M  V30 33690 H 3859.92 0.0230924 -1.94886 0
M  V30 33691 H 3859.02 1.24935 -2.86003 0
M  V30 33692 N 3859.32 1.54242 0.323587 0
M  V30 33693 C 3860.25 1.79966 1.41933 0
M  V30 33694 C 3861.26 0.68163 1.47843 0
M  V30 33695 O 3862.45 0.958737 1.50567 0
M  V30 33696 C 3859.55 1.90238 2.80469 0
M  V30 33697 C 3858.73 3.20401 2.97762 0
M  V30 33698 C 3857.79 3.21375 4.16659 0
M  V30 33699 O 3856.81 3.95014 4.0982 0
M  V30 33700 N 3858.01 2.45157 5.26192 0
M  V30 33701 H 3860.78 2.74526 1.2023 0
M  V30 33702 H 3858.34 1.53538 0.513573 0
M  V30 33703 H 3860.33 1.88318 3.58216 0
M  V30 33704 H 3858.9 1.02774 2.95222 0
M  V30 33705 H 3858.12 3.35281 2.07316 0
M  V30 33706 H 3859.41 4.06339 3.06212 0
M  V30 33707 H 3858.81 1.84918 5.34623 0
M  V30 33708 H 3857.36 2.49014 6.02358 0
M  V30 33709 N 3860.8 -0.585648 1.46314 0
M  V30 33710 C 3862.02 -1.37493 1.55275 0
M  V30 33711 C 3862.45 -1.87102 0.193514 0
M  V30 33712 O 3861.81 -1.61399 -0.825831 0
M  V30 33713 C 3861.85 -2.54047 2.55915 0
M  V30 33714 O 3860.96 -3.55391 2.09215 0
M  V30 33715 H 3860.3 -0.409589 0.522621 0
M  V30 33716 H 3862.83 -0.710663 1.91861 0
M  V30 33717 H 3862.84 -3.01003 2.75429 0
M  V30 33718 H 3861.51 -2.17292 3.54622 0
M  V30 33719 H 3860.09 -3.14935 1.99676 0
M  V30 33720 N 3862.28 -1.33971 -0.830033 0
M  V30 33721 C 3863.5 -1.29136 -1.62292 0
M  V30 33722 C 3863.93 0.13322 -1.87628 0
M  V30 33723 O 3863.28 1.0927 -1.44671 0
M  V30 33724 C 3863.33 -2.08086 -2.94504 0
M  V30 33725 O 3862.44 -1.44551 -3.86237 0
M  V30 33726 H 3861.78 -0.443848 -0.493857 0
M  V30 33727 H 3864.31 -1.76667 -1.03199 0
M  V30 33728 H 3864.32 -2.19179 -3.44129 0
M  V30 33729 H 3862.99 -3.11665 -2.75387 0
M  V30 33730 H 3861.57 -1.42157 -3.4474 0
M  V30 33731 N 3863.75 1.04937 -1.17584 0
M  V30 33732 C 3865.17 1.30157 -0.923656 0
M  V30 33733 C 3865.37 1.97164 0.415763 0
M  V30 33734 O 3864.43 2.24682 1.15214 0
M  V30 33735 C 3865.74 2.16884 -2.08283 0
M  V30 33736 C 3867.29 2.30258 -2.12015 0
M  V30 33737 C 3867.76 3.20347 -3.27326 0
M  V30 33738 N 3869.25 3.27933 -3.2713 0
M  V30 33739 C 3869.99 3.97772 -4.12995 0
M  V30 33740 N 3869.48 4.70016 -5.08976 0
M  V30 33741 N 3871.28 3.93962 -4.00937 0
M  V30 33742 H 3863.43 0.598449 -2.03795 0
M  V30 33743 H 3865.69 0.326512 -0.889996 0
M  V30 33744 H 3865.4 1.74943 -3.05103 0
M  V30 33745 H 3865.27 3.1753 -2.03604 0
M  V30 33746 H 3867.66 2.71439 -1.15779 0
M  V30 33747 H 3867.74 1.29232 -2.20755 0
M  V30 33748 H 3867.38 2.79879 -4.23828 0
M  V30 33749 H 3867.31 4.21384 -3.15822 0
M  V30 33750 H 3869.8 2.76461 -2.57639 0
M  V30 33751 H 3870.12 5.20875 -5.70885 0
M  V30 33752 H 3868.46 4.6895 -5.12943 0
M  V30 33753 H 3871.65 3.36649 -3.25246 0
M  V30 33754 H 3871.83 4.4812 -4.68073 0
M  V30 33755 N 3865.23 0.976485 1.23703 0
M  V30 33756 C 3866.48 0.641931 1.91634 0
M  V30 33757 C 3866.8 -0.826647 1.76611 0
M  V30 33758 O 3866.07 -1.59094 1.14307 0
M  V30 33759 H 3864.65 0.234435 0.70926 0
M  V30 33760 H 3867.31 1.23945 1.50411 0
M  V30 33761 H 3866.41 0.890152 2.99137 0
M  V30 33762 N 3866.71 -1.38737 0.747659 0
M  V30 33763 C 3867.62 -2.34303 0.11792 0
M  V30 33764 C 3868.64 -1.58969 -0.70746 0
M  V30 33765 O 3869.81 -1.91194 -0.632991 0
M  V30 33766 C 3866.88 -3.3806 -0.769164 0
M  V30 33767 C 3865.94 -4.29243 0.0699113 0
M  V30 33768 C 3865.17 -5.28044 -0.774928 0
M  V30 33769 O 3865.39 -5.33692 -2.01319 0
M  V30 33770 O 3864.33 -6.01578 -0.196872 0
M  V30 33771 H 3868.15 -2.89839 0.907023 0
M  V30 33772 H 3865.74 -1.40481 0.508478 0
M  V30 33773 H 3867.62 -4.01606 -1.27634 0
M  V30 33774 H 3866.3 -2.8489 -1.53686 0
M  V30 33775 H 3865.2 -3.68878 0.622901 0
M  V30 33776 H 3866.54 -4.85653 0.800125 0
M  V30 33777 N 3868.19 -0.496268 -1.49583 0
M  V30 33778 C 3869.6 -0.151935 -1.58875 0
M  V30 33779 C 3869.8 1.34323 -1.50199 0
M  V30 33780 O 3868.86 2.11877 -1.37348 0
M  V30 33781 C 3870.17 -0.724529 -2.91841 0
M  V30 33782 C 3871.72 -0.690211 -3.05295 0
M  V30 33783 C 3872.2 -1.24078 -4.40872 0
M  V30 33784 N 3873.69 -1.20128 -4.47352 0
M  V30 33785 C 3874.42 -1.59752 -5.50697 0
M  V30 33786 N 3873.92 -2.06947 -6.61169 0
M  V30 33787 N 3875.71 -1.51198 -5.41383 0
M  V30 33788 H 3867.86 -1.46841 -1.53465 0
M  V30 33789 H 3870.12 -0.608789 -0.726691 0
M  V30 33790 H 3869.83 -1.77293 -3.03744 0
M  V30 33791 H 3869.7 -0.182275 -3.76759 0
M  V30 33792 H 3872.09 0.349339 -2.93025 0
M  V30 33793 H 3872.17 -1.26956 -2.22072 0
M  V30 33794 H 3871.82 -2.27909 -4.53894 0
M  V30 33795 H 3871.75 -0.63742 -5.22728 0
M  V30 33796 H 3874.24 -0.855425 -3.68091 0
M  V30 33797 H 3874.55 -2.35265 -7.36118 0
M  V30 33798 H 3872.9 -2.10918 -6.62222 0
M  V30 33799 H 3876.09 -1.1415 -4.53969 0
M  V30 33800 H 3876.26 -1.82403 -6.21798 0
M  V30 33801 N 3869.67 1.55914 -0.2299 0
M  V30 33802 C 3870.62 2.17298 0.690324 0
M  V30 33803 C 3871.6 1.12377 1.15153 0
M  V30 33804 O 3872.79 1.3834 1.10413 0
M  V30 33805 C 3869.92 2.86289 1.89456 0
M  V30 33806 C 3869.01 3.98446 1.45264 0
M  V30 33807 N 3869.4 5.00594 0.723844 0
M  V30 33808 C 3867.7 4.10689 1.73928 0
M  V30 33809 C 3868.4 5.7957 0.497337 0
M  V30 33810 N 3867.37 5.33234 1.05652 0
M  V30 33811 H 3871.17 2.93633 0.125168 0
M  V30 33812 H 3868.69 1.62369 -0.0315009 0
M  V30 33813 H 3870.69 3.28682 2.56464 0
M  V30 33814 H 3869.35 2.11452 2.4641 0
M  V30 33815 H 3870.36 5.16536 0.375674 0
M  V30 33816 H 3867.03 3.4701 2.32143 0
M  V30 33817 H 3868.42 6.71848 -0.0833022 0
M  V30 33818 N 3871.14 -0.043406 1.5754 0
M  V30 33819 C 3872.39 -0.735618 1.88237 0
M  V30 33820 C 3872.71 -1.76654 0.825729 0
M  V30 33821 O 3871.98 -1.95382 -0.14239 0
M  V30 33822 H 3870.56 -0.274679 0.694666 0
M  V30 33823 H 3873.22 -0.0127568 1.94896 0
M  V30 33824 H 3872.32 -1.23416 2.86661 0
M  V30 33825 N 3872.62 -1.54412 -0.315402 0
M  V30 33826 C 3873.85 -1.77301 -1.07607 0
M  V30 33827 C 3874.27 -0.523995 -1.80654 0
M  V30 33828 O 3873.63 0.524843 -1.73537 0
M  V30 33829 C 3873.68 -2.97108 -2.0435 0
M  V30 33830 O 3872.78 -2.69225 -3.12397 0
M  V30 33831 H 3872.12 -0.587273 -0.30985 0
M  V30 33832 H 3874.65 -2.01458 -0.35721 0
M  V30 33833 H 3874.66 -3.24681 -2.47075 0
M  V30 33834 H 3873.34 -3.87681 -1.50585 0
M  V30 33835 H 3871.91 -2.52626 -2.74289 0
M  V30 33836 N 3874.1 0.57788 -1.46623 0
M  V30 33837 C 3875.33 1.36668 -1.56002 0
M  V30 33838 C 3875.75 1.86997 -0.203433 0
M  V30 33839 O 3875.11 1.61835 0.81726 0
M  V30 33840 C 3875.16 2.52686 -2.57258 0
M  V30 33841 O 3874.26 3.54277 -2.11096 0
M  V30 33842 H 3873.6 0.406812 -0.524786 0
M  V30 33843 H 3876.13 0.700478 -1.92235 0
M  V30 33844 H 3876.14 2.99538 -2.77021 0
M  V30 33845 H 3874.82 2.15408 -3.5577 0
M  V30 33846 H 3873.39 3.13872 -2.01343 0
M  V30 33847 N 3875.58 1.34409 0.822917 0
M  V30 33848 C 3876.8 1.29995 1.61605 0
M  V30 33849 C 3877.23 -0.123268 1.87696 0
M  V30 33850 O 3876.59 -1.08501 1.45249 0
M  V30 33851 C 3876.63 2.09645 2.93397 0
M  V30 33852 O 3875.74 1.46597 3.85465 0
M  V30 33853 H 3875.08 0.446461 0.491497 0
M  V30 33854 H 3877.61 1.77212 1.02261 0
M  V30 33855 H 3877.62 2.21 3.42962 0
M  V30 33856 H 3876.29 3.13121 2.7373 0
M  V30 33857 H 3874.87 1.43984 3.43981 0
M  V30 33858 N 3877.06 -1.04312 1.18139 0
M  V30 33859 C 3878.3 -1.77119 0.973308 0
M  V30 33860 C 3878.63 -1.8852 -0.498525 0
M  V30 33861 O 3877.9 -1.4084 -1.36165 0
M  V30 33862 H 3876.48 -0.656099 0.357132 0
M  V30 33863 H 3879.14 -1.25904 1.48776 0
M  V30 33864 H 3878.23 -2.78474 1.40922 0
M  V30 33865 N 3878.53 -0.983032 -1.23184 0
M  V30 33866 C 3879.76 -0.671148 -1.96241 0
M  V30 33867 C 3880.18 0.755761 -1.72249 0
M  V30 33868 O 3879.54 1.51519 -0.995582 0
M  V30 33869 C 3879.59 -0.970632 -3.47291 0
M  V30 33870 O 3878.69 -0.0640539 -4.1235 0
M  V30 33871 H 3878.04 -0.252158 -0.614258 0
M  V30 33872 H 3880.57 -1.31734 -1.56548 0
M  V30 33873 H 3880.58 -0.908415 -3.97758 0
M  V30 33874 H 3879.25 -2.01045 -3.64079 0
M  V30 33875 H 3877.83 -0.180907 -3.72461 0
M  V30 33876 N 3880.01 1.38338 -0.755006 0
M  V30 33877 C 3881.24 2.04895 -0.321391 0
M  V30 33878 C 3881.66 1.5657 1.04247 0
M  V30 33879 O 3881.02 0.718329 1.66462 0
M  V30 33880 C 3881.07 3.58849 -0.354936 0
M  V30 33881 O 3880.17 4.07236 0.650558 0
M  V30 33882 H 3879.51 0.648629 -0.142045 0
M  V30 33883 H 3882.04 1.76985 -1.02652 0
M  V30 33884 H 3882.05 4.07478 -0.206315 0
M  V30 33885 H 3880.73 3.9338 -1.35001 0
M  V30 33886 H 3879.31 3.69971 0.466433 0
M  V30 33887 N 3881.49 0.504194 1.49317 0
M  V30 33888 C 3882.72 -0.0380656 2.07365 0
M  V30 33889 C 3883.14 -1.29771 1.36166 0
M  V30 33890 O 3882.5 -1.76382 0.419396 0
M  V30 33891 C 3882.55 -0.271472 3.59577 0
M  V30 33892 O 3881.65 -1.34554 3.89832 0
M  V30 33893 H 3880.99 0.0276445 0.663424 0
M  V30 33894 H 3883.52 0.70473 1.9208 0
M  V30 33895 H 3883.53 -0.502012 4.049 0
M  V30 33896 H 3882.21 0.648827 4.10808 0
M  V30 33897 H 3880.78 -1.0997 3.56316 0
M  V30 33898 N 3882.97 -1.5579 0.238166 0
M  V30 33899 C 3883.92 -2.17661 -0.678791 0
M  V30 33900 C 3884.9 -1.12986 -1.14556 0
M  V30 33901 O 3886.09 -1.38923 -1.09678 0
M  V30 33902 C 3883.22 -2.8729 -1.87935 0
M  V30 33903 C 3882.31 -3.99211 -1.43149 0
M  V30 33904 N 3882.7 -5.00971 -0.697286 0
M  V30 33905 C 3881 -4.11605 -1.71747 0
M  V30 33906 C 3881.7 -5.79826 -0.466594 0
M  V30 33907 N 3880.68 -5.33787 -1.02823 0
M  V30 33908 H 3884.48 -2.93696 -0.109595 0
M  V30 33909 H 3881.99 -1.6235 0.0401113 0
M  V30 33910 H 3883.99 -3.30037 -2.54718 0
M  V30 33911 H 3882.65 -2.12756 -2.45286 0
M  V30 33912 H 3883.66 -5.16728 -0.348275 0
M  V30 33913 H 3880.34 -3.48236 -2.30299 0
M  V30 33914 H 3881.73 -6.71795 0.118931 0
M  V30 33915 N 3884.45 0.0350506 -1.57561 0
M  V30 33916 C 3885.68 0.737924 -1.92972 0
M  V30 33917 C 3886.08 1.69738 -0.835801 0
M  V30 33918 O 3885.43 1.82641 0.196998 0
M  V30 33919 C 3885.49 1.55477 -3.24141 0
M  V30 33920 C 3885.15 0.760738 -4.50624 0
M  V30 33921 C 3886.15 0.063645 -5.19861 0
M  V30 33922 C 3883.84 0.717047 -4.97156 0
M  V30 33923 C 3885.83 -0.666506 -6.33906 0
M  V30 33924 C 3883.52 -0.0168536 -6.11098 0
M  V30 33925 C 3884.51 -0.707396 -6.79327 0
M  V30 33926 O 3884.2 -1.42939 -7.9109 0
M  V30 33927 H 3883.93 0.212802 -0.641632 0
M  V30 33928 H 3886.49 -0.00155676 -2.054 0
M  V30 33929 H 3884.72 2.33792 -3.08023 0
M  V30 33930 H 3886.41 2.1397 -3.44923 0
M  V30 33931 H 3887.17 0.0884692 -4.84919 0
M  V30 33932 H 3883.05 1.24403 -4.43897 0
M  V30 33933 H 3886.6 -1.20604 -6.87096 0
M  V30 33934 H 3882.49 -0.043622 -6.45485 0
M  V30 33935 H 3883.26 -1.34245 -8.07416 0
M  V30 33936 N 3885.92 1.54577 0.307209 0
M  V30 33937 C 3887.17 1.7322 1.04112 0
M  V30 33938 C 3887.49 0.517515 1.88007 0
M  V30 33939 O 3886.76 -0.468303 1.9022 0
M  V30 33940 H 3885.34 0.638708 0.387377 0
M  V30 33941 H 3888.01 1.91917 0.339693 0
M  V30 33942 H 3887.1 2.6188 1.69779 0
M  V30 33943 N 3887.4 -0.570096 1.46927 0
M  V30 33944 C 3888.33 -1.69308 1.5449 0
M  V30 33945 C 3889.35 -1.5696 0.432147 0
M  V30 33946 O 3890.54 -1.64153 0.701136 0
M  V30 33947 C 3887.64 -3.07671 1.42099 0
M  V30 33948 C 3886.81 -3.459 2.67716 0
M  V30 33949 C 3885.87 -4.63372 2.49344 0
M  V30 33950 O 3884.89 -4.68599 3.23115 0
M  V30 33951 N 3886.1 -5.59054 1.56329 0
M  V30 33952 H 3888.86 -1.63271 2.51322 0
M  V30 33953 H 3886.42 -0.756409 1.43144 0
M  V30 33954 H 3888.41 -3.84071 1.27561 0
M  V30 33955 H 3886.98 -3.08005 0.533999 0
M  V30 33956 H 3886.2 -2.59078 2.97107 0
M  V30 33957 H 3887.49 -3.68212 3.51137 0
M  V30 33958 H 3886.89 -5.57577 0.955207 0
M  V30 33959 H 3885.45 -6.34833 1.4775 0
M  V30 33960 N 3888.88 -1.34844 -0.815777 0
M  V30 33961 C 3889.83 -1.23558 -1.91618 0
M  V30 33962 C 3890.82 -0.13295 -1.6035 0
M  V30 33963 O 3892.01 -0.3633 -1.73231 0
M  V30 33964 C 3889.14 -1.00049 -3.28398 0
M  V30 33965 C 3888.22 -2.14661 -3.65761 0
M  V30 33966 N 3888.61 -3.39829 -3.74633 0
M  V30 33967 C 3886.91 -2.05844 -3.95657 0
M  V30 33968 C 3887.61 -4.15142 -4.07471 0
M  V30 33969 N 3886.59 -3.43805 -4.21069 0
M  V30 33970 H 3890.39 -2.18403 -1.96665 0
M  V30 33971 H 3887.9 -1.27184 -1.00985 0
M  V30 33972 H 3889.9 -0.900534 -4.07058 0
M  V30 33973 H 3888.56 -0.0607907 -3.24643 0
M  V30 33974 H 3889.57 -3.74294 -3.57944 0
M  V30 33975 H 3886.25 -1.19674 -3.9998 0
M  V30 33976 H 3887.64 -5.23264 -4.21479 0
M  V30 33977 N 3890.36 1.03684 -1.1869 0
M  V30 33978 C 3891.61 1.766 -0.982687 0
M  V30 33979 C 3891.93 1.88782 0.48852 0
M  V30 33980 O 3891.2 1.4156 1.35416 0
M  V30 33981 H 3889.78 0.654196 -0.360606 0
M  V30 33982 H 3892.44 1.25113 -1.49442 0
M  V30 33983 H 3891.54 2.77722 -1.42396 0
M  V30 33984 N 3891.84 0.989551 1.22661 0
M  V30 33985 C 3893.06 0.681546 1.95882 0
M  V30 33986 C 3893.49 -0.746616 1.72648 0
M  V30 33987 O 3892.85 -1.50988 1.0036 0
M  V30 33988 C 3892.89 0.989036 3.46771 0
M  V30 33989 O 3892 0.0859209 4.1231 0
M  V30 33990 H 3891.34 0.255412 0.612912 0
M  V30 33991 H 3893.87 1.32562 1.55847 0
M  V30 33992 H 3893.88 0.929496 3.97271 0
M  V30 33993 H 3892.55 2.02973 3.63008 0
M  V30 33994 H 3891.13 0.200657 3.7236 0
M  V30 33995 N 3893.32 -1.37936 0.762332 0
M  V30 33996 C 3894.56 -1.99522 0.321767 0
M  V30 33997 C 3894.88 -1.60818 -1.10284 0
M  V30 33998 O 3894.15 -0.869148 -1.75564 0
M  V30 33999 H 3892.73 -0.737941 0.11598 0
M  V30 34000 H 3895.4 -1.68564 0.978368 0
M  V30 34001 H 3894.49 -3.0963 0.391873 0
M  V30 34002 N 3894.79 -0.512106 -1.49048 0
M  V30 34003 C 3896.02 0.027068 -2.07382 0
M  V30 34004 C 3896.44 1.29047 -1.36852 0
M  V30 34005 O 3895.8 1.76158 -0.428744 0
M  V30 34006 C 3895.85 0.252399 -3.59716 0
M  V30 34007 O 3894.95 1.32484 -3.9054 0
M  V30 34008 H 3894.29 -0.0311624 -0.663268 0
M  V30 34009 H 3896.82 -0.714907 -1.91704 0
M  V30 34010 H 3896.83 0.480532 -4.0516 0
M  V30 34011 H 3895.51 -0.670604 -4.10458 0
M  V30 34012 H 3894.09 1.08078 -3.56894 0
M  V30 34013 N 3896.27 1.55662 -0.246424 0
M  V30 34014 C 3897.69 1.59231 0.108437 0
M  V30 34015 C 3897.89 1.26357 1.56959 0
M  V30 34016 O 3896.94 1.01066 2.31391 0
M  V30 34017 C 3898.26 2.99738 -0.240318 0
M  V30 34018 C 3899.8 3.12455 -0.184578 0
M  V30 34019 C 3900.28 4.55181 -0.507359 0
M  V30 34020 N 3901.77 4.60932 -0.457842 0
M  V30 34021 C 3902.51 5.69344 -0.680764 0
M  V30 34022 N 3902 6.86021 -0.966788 0
M  V30 34023 N 3903.79 5.58764 -0.611504 0
M  V30 34024 H 3895.95 1.75301 -1.19931 0
M  V30 34025 H 3898.21 0.816015 -0.482517 0
M  V30 34026 H 3897.91 3.28531 -1.25541 0
M  V30 34027 H 3897.79 3.74709 0.432806 0
M  V30 34028 H 3900.18 2.83444 0.821182 0
M  V30 34029 H 3900.26 2.39761 -0.891546 0
M  V30 34030 H 3899.9 4.84914 -1.51067 0
M  V30 34031 H 3899.83 5.26136 0.221081 0
M  V30 34032 H 3902.32 3.77102 -0.24548 0
M  V30 34033 H 3902.63 7.64578 -1.12432 0
M  V30 34034 H 3900.98 6.87706 -1.00426 0
M  V30 34035 H 3904.17 4.66488 -0.3881 0
M  V30 34036 H 3904.34 6.43183 -0.788632 0
M  V30 34037 N 3897.75 -0.0266943 1.57577 0
M  V30 34038 C 3898.68 -1.05421 2.03517 0
M  V30 34039 C 3899.69 -1.32323 0.948385 0
M  V30 34040 O 3900.88 -1.29769 1.22565 0
M  V30 34041 C 3897.98 -2.39528 2.39749 0
M  V30 34042 C 3897.16 -2.31947 3.70836 0
M  V30 34043 C 3896.22 -3.48524 3.9423 0
M  V30 34044 O 3895.24 -3.27911 4.65256 0
M  V30 34045 N 3896.44 -4.70473 3.40053 0
M  V30 34046 H 3899.21 -0.662627 2.92283 0
M  V30 34047 H 3896.77 -0.214595 1.60471 0
M  V30 34048 H 3898.76 -3.16241 2.52535 0
M  V30 34049 H 3897.33 -2.70523 1.56641 0
M  V30 34050 H 3896.55 -1.40319 3.68381 0
M  V30 34051 H 3897.84 -2.24027 4.56825 0
M  V30 34052 H 3897.24 -4.9012 2.82487 0
M  V30 34053 H 3895.79 -5.44542 3.58214 0
M  V30 34054 N 3899.23 -1.54738 -0.299007 0
M  V30 34055 C 3900.45 -1.78432 -1.0572 0
M  V30 34056 C 3900.88 -0.543126 -1.80088 0
M  V30 34057 O 3900.24 0.506408 -1.74084 0
M  V30 34058 C 3900.28 -2.99259 -2.01187 0
M  V30 34059 O 3899.39 -2.72523 -3.09524 0
M  V30 34060 H 3898.73 -0.590526 -0.303603 0
M  V30 34061 H 3901.26 -2.01825 -0.335823 0
M  V30 34062 H 3901.27 -3.27284 -2.43617 0
M  V30 34063 H 3899.94 -3.89257 -1.46465 0
M  V30 34064 H 3898.52 -2.55521 -2.71594 0
M  V30 34065 N 3900.71 0.562296 -1.47228 0
M  V30 34066 C 3901.93 1.35006 -1.57443 0
M  V30 34067 C 3902.36 1.8677 -0.223255 0
M  V30 34068 O 3901.71 1.62693 0.800049 0
M  V30 34069 C 3901.76 2.49944 -2.59924 0
M  V30 34070 O 3900.87 3.52018 -2.14842 0
M  V30 34071 H 3900.21 0.401223 -0.529071 0
M  V30 34072 H 3902.74 0.68005 -1.92968 0
M  V30 34073 H 3902.75 2.96583 -2.80183 0
M  V30 34074 H 3901.42 2.11623 -3.58034 0
M  V30 34075 H 3900 3.11719 -2.04661 0
M  V30 34076 N 3902.18 1.35274 0.808615 0
M  V30 34077 C 3903.43 1.2818 1.56251 0
M  V30 34078 C 3903.75 -0.144117 1.94467 0
M  V30 34079 O 3903.02 -1.08008 1.63435 0
M  V30 34080 H 3901.6 0.471464 0.579423 0
M  V30 34081 H 3904.26 1.69354 0.964645 0
M  V30 34082 H 3903.36 1.8963 2.47885 0
M  V30 34083 N 3903.66 -1.03053 1.19239 0
M  V30 34084 C 3904.61 -2.09638 0.89644 0
M  V30 34085 C 3905.6 -1.60307 -0.138071 0
M  V30 34086 O 3906.79 -1.76872 0.0673903 0
M  V30 34087 C 3903.92 -3.40532 0.435102 0
M  V30 34088 C 3903 -3.96602 1.50226 0
M  V30 34089 N 3903.39 -4.26356 2.72129 0
M  V30 34090 C 3901.69 -4.24593 1.36516 0
M  V30 34091 C 3902.39 -4.71368 3.40862 0
M  V30 34092 N 3901.37 -4.72801 2.68254 0
M  V30 34093 H 3905.17 -2.30532 1.82296 0
M  V30 34094 H 3902.69 -1.20899 1.08431 0
M  V30 34095 H 3904.68 -4.16398 0.204544 0
M  V30 34096 H 3903.34 -3.21058 -0.48496 0
M  V30 34097 H 3904.35 -4.15689 3.08906 0
M  V30 34098 H 3901.03 -4.14393 0.508431 0
M  V30 34099 H 3902.42 -5.03325 4.45099 0
M  V30 34100 N 3905.14 -0.996042 -1.22134 0
M  V30 34101 C 3906.39 -0.672337 -1.90589 0
M  V30 34102 C 3906.71 0.798445 -1.77904 0
M  V30 34103 O 3905.98 1.57255 -1.16823 0
M  V30 34104 H 3904.56 -0.245689 -0.70544 0
M  V30 34105 H 3907.22 -1.26322 -1.48421 0
M  V30 34106 H 3906.32 -0.937629 -2.97683 0
M  V30 34107 N 3906.62 1.37529 -0.769636 0
M  V30 34108 C 3908.03 1.53153 -0.449027 0
M  V30 34109 C 3908.23 1.72849 1.03565 0
M  V30 34110 O 3907.29 1.74864 1.8215 0
M  V30 34111 C 3908.6 2.72924 -1.26226 0
M  V30 34112 C 3910.15 2.86784 -1.25395 0
M  V30 34113 C 3910.63 4.09535 -2.05048 0
M  V30 34114 N 3912.12 4.16644 -2.02391 0
M  V30 34115 C 3912.85 5.10654 -2.60807 0
M  V30 34116 N 3912.35 6.10235 -3.28001 0
M  V30 34117 N 3914.14 5.03122 -2.50648 0
M  V30 34118 H 3906.29 1.22997 -1.73163 0
M  V30 34119 H 3908.56 0.598746 -0.734988 0
M  V30 34120 H 3908.26 2.64828 -2.31428 0
M  V30 34121 H 3908.14 3.6655 -0.890001 0
M  V30 34122 H 3910.52 2.94352 -0.20992 0
M  V30 34123 H 3910.6 1.94123 -1.66583 0
M  V30 34124 H 3910.25 4.02729 -3.09471 0
M  V30 34125 H 3910.18 5.01306 -1.61243 0
M  V30 34126 H 3912.67 3.45334 -1.5347 0
M  V30 34127 H 3912.98 6.78494 -3.69954 0
M  V30 34128 H 3911.33 6.1052 -3.321 0
M  V30 34129 H 3914.52 4.2427 -1.9777 0
M  V30 34130 H 3914.69 5.76204 -2.96468 0
M  V30 34131 N 3908.1 0.520003 1.48774 0
M  V30 34132 C 3909.03 -0.285182 2.27419 0
M  V30 34133 C 3910.04 -0.913517 1.34754 0
M  V30 34134 O 3911.23 -0.793644 1.59886 0
M  V30 34135 C 3908.33 -1.41816 3.07801 0
M  V30 34136 C 3907.5 -0.893607 4.28175 0
M  V30 34137 C 3906.56 -1.90649 4.90448 0
M  V30 34138 O 3905.59 -1.46742 5.4996 0
M  V30 34139 N 3906.79 -3.2381 4.81796 0
M  V30 34140 H 3909.56 0.389262 2.97161 0
M  V30 34141 H 3907.12 0.353712 1.57989 0
M  V30 34142 H 3909.11 -2.0937 3.46332 0
M  V30 34143 H 3907.68 -1.99643 2.40544 0
M  V30 34144 H 3906.9 -0.0423686 3.94177 0
M  V30 34145 H 3908.19 -0.521863 5.06117 0
M  V30 34146 H 3907.58 -3.62157 4.34579 0
M  V30 34147 H 3906.14 -3.87026 5.24456 0
M  V30 34148 N 3909.57 -1.55529 0.254676 0
M  V30 34149 C 3910.82 -1.98737 -0.36717 0
M  V30 34150 C 3911.14 -1.14427 -1.57897 0
M  V30 34151 O 3910.41 -0.228884 -1.94558 0
M  V30 34152 H 3908.99 -0.73402 -0.13865 0
M  V30 34153 H 3911.66 -1.91635 0.35527 0
M  V30 34154 H 3910.75 -3.04801 -0.671015 0
M  V30 34155 N 3911.05 0.0183372 -1.57589 0
M  V30 34156 C 3912.28 0.722138 -1.94422 0
M  V30 34157 C 3912.7 1.6752 -0.855501 0
M  V30 34158 O 3912.06 1.80323 0.187922 0
M  V30 34159 C 3912.11 1.4461 -3.30334 0
M  V30 34160 O 3911.21 2.55977 -3.23341 0
M  V30 34161 H 3910.55 0.193455 -0.635194 0
M  V30 34162 H 3913.08 -0.0293887 -2.04579 0
M  V30 34163 H 3913.09 1.81363 -3.65474 0
M  V30 34164 H 3911.77 0.747184 -4.09133 0
M  V30 34165 H 3910.35 2.21687 -2.99849 0
M  V30 34166 N 3912.53 1.54894 0.290797 0
M  V30 34167 C 3913.78 1.74314 1.02269 0
M  V30 34168 C 3914.1 0.537426 1.87448 0
M  V30 34169 O 3913.37 -0.448101 1.90706 0
M  V30 34170 H 3911.95 0.642781 0.380581 0
M  V30 34171 H 3914.61 1.92266 0.319319 0
M  V30 34172 H 3913.71 2.63666 1.66992 0
M  V30 34173 N 3914.01 -0.55448 1.47524 0
M  V30 34174 C 3915.23 -1.34169 1.58157 0
M  V30 34175 C 3915.66 -1.86649 0.233157 0
M  V30 34176 O 3915.02 -1.63115 -0.79141 0
M  V30 34177 C 3915.06 -2.48562 2.61246 0
M  V30 34178 O 3914.17 -3.50874 2.16706 0
M  V30 34179 H 3913.51 -0.398412 0.531191 0
M  V30 34180 H 3916.04 -0.669807 1.93325 0
M  V30 34181 H 3916.05 -2.95093 2.81752 0
M  V30 34182 H 3914.72 -2.09721 3.59152 0
M  V30 34183 H 3913.3 -3.10629 2.06311 0
M  V30 34184 N 3915.49 -1.35701 -0.80143 0
M  V30 34185 C 3916.73 -1.29007 -1.55569 0
M  V30 34186 C 3917.06 0.133802 -1.9454 0
M  V30 34187 O 3916.33 1.0714 -1.64006 0
M  V30 34188 H 3914.91 -0.47453 -0.576914 0
M  V30 34189 H 3917.57 -1.69863 -0.95565 0
M  V30 34190 H 3916.66 -1.90942 -2.46876 0
M  V30 34191 N 3916.96 1.02419 -1.19783 0
M  V30 34192 C 3917.9 2.10894 -0.897581 0
M  V30 34193 C 3918.91 1.62417 0.111616 0
M  V30 34194 O 3920.1 1.78107 -0.118412 0
M  V30 34195 C 3917.2 3.37359 -0.322773 0
M  V30 34196 C 3916.37 4.15004 -1.38167 0
M  V30 34197 C 3915.43 5.19779 -0.819553 0
M  V30 34198 O 3914.46 5.49123 -1.4984 0
M  V30 34199 N 3915.66 5.79289 0.374823 0
M  V30 34200 H 3918.42 2.3724 -1.83132 0
M  V30 34201 H 3915.98 1.18748 -1.10047 0
M  V30 34202 H 3917.98 4.04644 0.0672334 0
M  V30 34203 H 3916.55 3.08323 0.515346 0
M  V30 34204 H 3915.77 3.428 -1.94633 0
M  V30 34205 H 3917.05 4.63665 -2.09504 0
M  V30 34206 H 3916.45 5.57772 0.943758 0
M  V30 34207 H 3915.01 6.47959 0.706554 0
M  V30 34208 N 3918.44 1.0025 1.21604 0
M  V30 34209 C 3919.67 0.702283 1.95148 0
M  V30 34210 C 3920.09 -0.728262 1.7343 0
M  V30 34211 O 3919.45 -1.49915 1.01956 0
M  V30 34212 C 3919.5 1.02576 3.45703 0
M  V30 34213 O 3918.6 0.129647 4.12196 0
M  V30 34214 H 3917.94 0.261898 0.610168 0
M  V30 34215 H 3920.47 1.34208 1.54433 0
M  V30 34216 H 3920.48 0.97158 3.96263 0
M  V30 34217 H 3919.16 2.06812 3.60835 0
M  V30 34218 H 3917.74 0.240139 3.72126 0
M  V30 34219 N 3919.92 -1.37119 0.776919 0
M  V30 34220 C 3921.33 -1.8218 0.408343 0
M  V30 34221 C 3921.68 -1.64703 -1.06618 0
M  V30 34222 O 3920.81 -1.16101 -1.82619 0
M  V30 34223 C 3921.4 -3.30745 0.734397 0
M  V30 34224 C 3919.96 -3.74063 0.418812 0
M  V30 34225 C 3919.11 -2.59573 0.975555 0
M  V30 34226 H 3922.06 -1.25518 0.971133 0
M  V30 34227 H 3922.08 -3.80494 0.0209226 0
M  V30 34228 H 3921.59 -3.43433 1.80763 0
M  V30 34229 H 3919.69 -3.66941 -0.646897 0
M  V30 34230 H 3919.81 -4.69974 0.93068 0
M  V30 34231 H 3918.17 -2.51547 0.399493 0
M  V30 34232 H 3918.95 -2.75052 2.0543 0
M  V30 34233 N 3921.4 -0.527886 -1.48496 0
M  V30 34234 C 3922.62 0.00507079 -2.07399 0
M  V30 34235 C 3923.05 1.27588 -1.38213 0
M  V30 34236 O 3922.41 1.75693 -0.447404 0
M  V30 34237 C 3922.46 0.214232 -3.59963 0
M  V30 34238 O 3921.56 1.28335 -3.91923 0
M  V30 34239 H 3920.9 -0.0381955 -0.662901 0
M  V30 34240 H 3923.43 -0.735199 -1.90934 0
M  V30 34241 H 3923.44 0.437532 -4.05647 0
M  V30 34242 H 3922.12 -0.7141 -4.09724 0
M  V30 34243 H 3920.69 1.04287 -3.5802 0
M  V30 34244 N 3922.88 1.55391 -0.26292 0
M  V30 34245 C 3924.29 1.59337 0.091542 0
M  V30 34246 C 3924.49 1.28015 1.5561 0
M  V30 34247 O 3923.55 1.03514 2.30306 0
M  V30 34248 C 3924.86 2.99466 -0.272096 0
M  V30 34249 C 3926.41 3.12242 -0.217708 0
M  V30 34250 C 3926.89 4.54617 -0.555608 0
M  V30 34251 N 3928.38 4.6042 -0.506704 0
M  V30 34252 C 3929.11 5.6859 -0.741113 0
M  V30 34253 N 3928.61 6.84957 -1.0395 0
M  V30 34254 N 3930.4 5.58084 -0.670734 0
M  V30 34255 H 3922.55 1.74019 -1.21783 0
M  V30 34256 H 3924.81 0.810852 -0.491145 0
M  V30 34257 H 3924.52 3.27181 -1.29018 0
M  V30 34258 H 3924.39 3.75147 0.393039 0
M  V30 34259 H 3926.78 2.84299 0.791073 0
M  V30 34260 H 3926.86 2.38801 -0.916926 0
M  V30 34261 H 3926.51 4.83284 -1.56202 0
M  V30 34262 H 3926.44 5.26341 0.165265 0
M  V30 34263 H 3928.93 3.7682 -0.285463 0
M  V30 34264 H 3929.24 7.63342 -1.20535 0
M  V30 34265 H 3927.59 6.86602 -1.07714 0
M  V30 34266 H 3930.78 4.6605 -0.437555 0
M  V30 34267 H 3930.95 6.42311 -0.856805 0
M  V30 34268 N 3924.36 -0.00997961 1.57597 0
M  V30 34269 C 3925.6 -0.695525 1.89755 0
M  V30 34270 C 3925.92 -1.74863 0.863014 0
M  V30 34271 O 3925.19 -1.9564 -0.100914 0
M  V30 34272 H 3923.77 -0.259883 0.700336 0
M  V30 34273 H 3926.44 0.0285864 1.94879 0
M  V30 34274 H 3925.53 -1.17308 2.89215 0
M  V30 34275 N 3925.83 -1.55046 -0.282578 0
M  V30 34276 C 3927.25 -1.46671 -0.629259 0
M  V30 34277 C 3927.45 -0.672965 -1.8993 0
M  V30 34278 O 3926.51 -0.18799 -2.51799 0
M  V30 34279 C 3927.82 -2.90803 -0.765122 0
M  V30 34280 C 3929.37 -3.00959 -0.859806 0
M  V30 34281 C 3929.84 -4.46325 -1.02752 0
M  V30 34282 N 3931.33 -4.50113 -1.09328 0
M  V30 34283 C 3932.07 -5.59795 -1.24168 0
M  V30 34284 N 3931.56 -6.79363 -1.35788 0
M  V30 34285 N 3933.36 -5.47518 -1.27202 0
M  V30 34286 H 3925.51 -2.05112 0.551628 0
M  V30 34287 H 3927.77 -0.929715 0.185294 0
M  V30 34288 H 3927.48 -3.51565 0.097493 0
M  V30 34289 H 3927.35 -3.39274 -1.64842 0
M  V30 34290 H 3929.74 -2.403 -1.7129 0
M  V30 34291 H 3929.82 -2.55755 0.0478933 0
M  V30 34292 H 3929.46 -5.07584 -0.179129 0
M  V30 34293 H 3929.39 -4.89176 -1.94973 0
M  V30 34294 H 3931.88 -3.63979 -1.01626 0
M  V30 34295 H 3932.2 -7.58706 -1.46918 0
M  V30 34296 H 3930.54 -6.82192 -1.3281 0
M  V30 34297 H 3933.73 -4.53049 -1.17748 0
M  V30 34298 H 3933.91 -6.33043 -1.38424 0
M  V30 34299 N 3927.31 0.546649 -1.47816 0
M  V30 34300 C 3928.26 1.64857 -1.57499 0
M  V30 34301 C 3929.25 1.5496 -0.433165 0
M  V30 34302 O 3930.44 1.63263 -0.683686 0
M  V30 34303 C 3927.57 3.03617 -1.60224 0
M  V30 34304 C 3926.65 3.18679 -2.79829 0
M  V30 34305 N 3927.04 3.03771 -4.04422 0
M  V30 34306 C 3925.34 3.49702 -2.76812 0
M  V30 34307 C 3926.04 3.21806 -4.84578 0
M  V30 34308 N 3925.02 3.48622 -4.17089 0
M  V30 34309 H 3928.82 1.51915 -2.51593 0
M  V30 34310 H 3926.33 0.751686 -1.43956 0
M  V30 34311 H 3928.33 3.82749 -1.65253 0
M  V30 34312 H 3926.99 3.17663 -0.672349 0
M  V30 34313 H 3928 2.80878 -4.35118 0
M  V30 34314 H 3924.68 3.70209 -1.93006 0
M  V30 34315 H 3926.07 3.15158 -5.93401 0
M  V30 34316 N 3928.79 1.36124 0.794222 0
M  V30 34317 C 3930.04 1.2983 1.54882 0
M  V30 34318 C 3930.36 -0.123483 1.94609 0
M  V30 34319 O 3929.63 -1.06269 1.64572 0
M  V30 34320 H 3928.21 0.477583 0.574389 0
M  V30 34321 H 3930.87 1.70367 0.946628 0
M  V30 34322 H 3929.97 1.92248 2.4586 0
M  V30 34323 N 3930.27 -1.01782 1.20325 0
M  V30 34324 C 3931.49 -1.795 1.03896 0
M  V30 34325 C 3931.92 -1.83635 -0.407388 0
M  V30 34326 O 3931.28 -1.27051 -1.29336 0
M  V30 34327 C 3931.32 -3.21876 1.62567 0
M  V30 34328 O 3930.43 -4.03281 0.862469 0
M  V30 34329 H 3929.77 -0.553699 0.366488 0
M  V30 34330 H 3932.3 -1.28031 1.59591 0
M  V30 34331 H 3932.31 -3.72592 1.66251 0
M  V30 34332 H 3930.98 -3.18181 2.67831 0
M  V30 34333 H 3929.56 -3.61882 0.89975 0
M  V30 34334 N 3931.75 -1.00894 -1.21071 0
M  V30 34335 C 3932.99 -0.692514 -1.89865 0
M  V30 34336 C 3933.31 0.779531 -1.78741 0
M  V30 34337 O 3932.58 1.56007 -1.18485 0
M  V30 34338 H 3931.16 -0.253157 -0.702795 0
M  V30 34339 H 3933.83 -1.2789 -1.47072 0
M  V30 34340 H 3932.92 -0.96915 -2.96671 0
M  V30 34341 N 3933.22 1.36705 -0.78418 0
M  V30 34342 C 3934.15 2.327 -0.193122 0
M  V30 34343 C 3935.14 1.56393 0.668972 0
M  V30 34344 O 3936.32 1.84572 0.603875 0
M  V30 34345 C 3933.45 3.40637 0.677032 0
M  V30 34346 C 3932.4 4.27916 -0.084747 0
M  V30 34347 C 3931.73 5.26974 0.905661 0
M  V30 34348 C 3933.03 5.06601 -1.27094 0
M  V30 34349 H 3934.72 2.8238 -0.995078 0
M  V30 34350 H 3932.27 1.35766 -0.479953 0
M  V30 34351 H 3934.22 4.06778 1.10042 0
M  V30 34352 H 3932.95 2.89512 1.51164 0
M  V30 34353 H 3931.61 3.63323 -0.489056 0
M  V30 34354 H 3931.25 4.72124 1.73516 0
M  V30 34355 H 3930.95 5.86234 0.400421 0
M  V30 34356 H 3932.48 5.9599 1.32773 0
M  V30 34357 H 3933.89 5.65812 -0.923569 0
M  V30 34358 H 3932.29 5.75247 -1.70911 0
M  V30 34359 H 3933.36 4.38548 -2.0689 0
M  V30 34360 N 3934.7 0.535753 1.48214 0
M  V30 34361 C 3935.95 0.00375569 2.021 0
M  V30 34362 C 3936.27 -1.34218 1.41458 0
M  V30 34363 O 3935.54 -1.87054 0.58202 0
M  V30 34364 H 3934.12 -0.00159982 0.746998 0
M  V30 34365 H 3936.78 0.700895 1.81861 0
M  V30 34366 H 3935.88 -0.100297 3.11939 0
M  V30 34367 N 3936.18 -1.5525 0.271158 0
M  V30 34368 C 3937.13 -2.19052 -0.632469 0
M  V30 34369 C 3938.11 -1.1539 -1.12133 0
M  V30 34370 O 3939.31 -1.41218 -1.06707 0
M  V30 34371 C 3936.44 -2.91211 -1.81799 0
M  V30 34372 C 3935.52 -4.02157 -1.34649 0
M  V30 34373 N 3935.91 -5.02337 -0.590865 0
M  V30 34374 C 3934.21 -4.15156 -1.62978 0
M  V30 34375 C 3934.91 -5.80685 -0.343499 0
M  V30 34376 N 3933.89 -5.35848 -0.914774 0
M  V30 34377 H 3937.69 -2.93862 -0.0472728 0
M  V30 34378 H 3935.2 -1.62229 0.0745392 0
M  V30 34379 H 3937.2 -3.35366 -2.4766 0
M  V30 34380 H 3935.86 -2.17911 -2.40718 0
M  V30 34381 H 3936.87 -5.1735 -0.238592 0
M  V30 34382 H 3933.55 -3.53043 -2.22861 0
M  V30 34383 H 3934.94 -6.71391 0.261402 0
M  V30 34384 N 3937.66 0.00162173 -1.576 0
M  V30 34385 C 3938.88 0.701477 -1.95177 0
M  V30 34386 C 3939.31 1.66603 -0.87322 0
M  V30 34387 O 3938.67 1.80513 0.168786 0
M  V30 34388 C 3938.71 1.41098 -3.31849 0
M  V30 34389 O 3937.82 2.52533 -3.26038 0
M  V30 34390 H 3937.16 0.186707 -0.63721 0
M  V30 34391 H 3939.69 -0.0510853 -2.04536 0
M  V30 34392 H 3939.7 1.77477 -3.67377 0
M  V30 34393 H 3938.37 0.703748 -4.09903 0
M  V30 34394 H 3936.95 2.18494 -3.02183 0
M  V30 34395 N 3939.14 1.55194 0.274352 0
M  V30 34396 C 3940.36 1.80091 1.02868 0
M  V30 34397 C 3940.79 0.571708 1.79201 0
M  V30 34398 O 3940.14 -0.478648 1.74868 0
M  V30 34399 C 3940.19 3.02422 1.96401 0
M  V30 34400 O 3939.3 2.77413 3.05149 0
M  V30 34401 H 3938.64 0.595281 0.29417 0
M  V30 34402 H 3941.17 2.02334 0.303672 0
M  V30 34403 H 3941.18 3.31118 2.3838 0
M  V30 34404 H 3939.85 3.91538 1.40254 0
M  V30 34405 H 3938.43 2.59809 2.67495 0
M  V30 34406 N 3940.61 -0.538802 1.48104 0
M  V30 34407 C 3941.84 -1.32484 1.59571 0
M  V30 34408 C 3942.26 -1.86392 0.252941 0
M  V30 34409 O 3941.62 -1.63945 -0.774065 0
M  V30 34410 C 3941.67 -2.45777 2.63868 0
M  V30 34411 O 3940.77 -3.48555 2.20415 0
M  V30 34412 H 3940.12 -0.392755 0.535387 0
M  V30 34413 H 3942.65 -0.649264 1.94025 0
M  V30 34414 H 3942.66 -2.92088 2.84866 0
M  V30 34415 H 3941.33 -2.059 3.61356 0
M  V30 34416 H 3939.91 -3.08423 2.09594 0
M  V30 34417 N 3942.09 -1.36544 -0.786992 0
M  V30 34418 C 3943.04 -1.27595 -1.88954 0
M  V30 34419 C 3944.03 -0.166933 -1.60032 0
M  V30 34420 O 3945.22 -0.399963 -1.72422 0
M  V30 34421 C 3942.35 -1.06992 -3.26202 0
M  V30 34422 C 3941.43 -2.22371 -3.61126 0
M  V30 34423 N 3941.82 -3.47699 -3.6734 0
M  V30 34424 C 3940.12 -2.1419 -3.91201 0
M  V30 34425 C 3940.82 -4.23691 -3.98573 0
M  V30 34426 N 3939.8 -3.52659 -4.13682 0
M  V30 34427 H 3943.6 -2.22526 -1.91988 0
M  V30 34428 H 3941.12 -1.29298 -0.982642 0
M  V30 34429 H 3943.11 -0.986674 -4.05056 0
M  V30 34430 H 3941.77 -0.129639 -3.24441 0
M  V30 34431 H 3942.78 -3.81803 -3.49924 0
M  V30 34432 H 3939.46 -1.28132 -3.97352 0
M  V30 34433 H 3940.85 -5.32087 -4.10285 0
M  V30 34434 N 3943.57 1.01143 -1.20863 0
M  V30 34435 C 3944.82 1.74476 -1.01993 0
M  V30 34436 C 3945.14 1.89775 0.448367 0
M  V30 34437 O 3944.41 1.44401 1.32383 0
M  V30 34438 H 3942.99 0.6464 -0.374401 0
M  V30 34439 H 3945.65 1.21915 -1.52062 0
M  V30 34440 H 3944.75 2.74639 -1.48255 0
M  V30 34441 N 3945.05 1.01535 1.20534 0
M  V30 34442 C 3945.98 0.542697 2.22682 0
M  V30 34443 C 3946.99 -0.374239 1.5844 0
M  V30 34444 O 3948.18 -0.172787 1.77662 0
M  V30 34445 C 3945.28 -0.230109 3.38118 0
M  V30 34446 C 3944.46 0.688432 4.31948 0
M  V30 34447 C 3943.51 -0.0365761 5.26187 0
M  V30 34448 O 3942.54 0.585517 5.6618 0
M  V30 34449 N 3943.74 -1.31183 5.65483 0
M  V30 34450 H 3946.51 1.42116 2.63862 0
M  V30 34451 H 3944.07 0.892727 1.35063 0
M  V30 34452 H 3946.06 -0.724338 3.98165 0
M  V30 34453 H 3944.63 -1.00986 2.95839 0
M  V30 34454 H 3943.85 1.36299 3.69887 0
M  V30 34455 H 3945.14 1.31318 4.91562 0
M  V30 34456 H 3944.54 -1.8382 5.35002 0
M  V30 34457 H 3943.09 -1.75081 6.27845 0
M  V30 34458 N 3946.53 -1.36288 0.791419 0
M  V30 34459 C 3947.48 -2.27408 0.164258 0
M  V30 34460 C 3948.46 -1.47054 -0.652992 0
M  V30 34461 O 3949.65 -1.69411 -0.512737 0
M  V30 34462 C 3946.78 -3.36119 -0.698492 0
M  V30 34463 C 3945.87 -4.23908 0.127657 0
M  V30 34464 N 3946.26 -4.91767 1.18316 0
M  V30 34465 C 3944.56 -4.45903 -0.0931837 0
M  V30 34466 C 3945.26 -5.56723 1.68625 0
M  V30 34467 N 3944.23 -5.34413 0.995152 0
M  V30 34468 H 3948.04 -2.77358 0.972094 0
M  V30 34469 H 3945.55 -1.49637 0.631077 0
M  V30 34470 H 3947.55 -4.00329 -1.16372 0
M  V30 34471 H 3946.21 -2.87723 -1.50485 0
M  V30 34472 H 3947.22 -4.93669 1.56561 0
M  V30 34473 H 3943.89 -4.08337 -0.86989 0
M  V30 34474 H 3945.28 -6.20907 2.56756 0
M  V30 34475 N 3948.01 -0.543606 -1.47928 0
M  V30 34476 C 3949.25 -0.0144735 -2.02095 0
M  V30 34477 C 3949.57 1.33466 -1.42168 0
M  V30 34478 O 3948.84 1.86743 -0.591932 0
M  V30 34479 H 3947.42 -0.00236171 -0.746996 0
M  V30 34480 H 3950.09 -0.71053 -1.81487 0
M  V30 34481 H 3949.18 0.0837526 -3.11988 0
M  V30 34482 N 3949.48 1.55104 -0.279387 0
M  V30 34483 C 3950.71 2.04556 0.342259 0
M  V30 34484 C 3951.13 1.15626 1.48365 0
M  V30 34485 O 3950.49 0.155752 1.8063 0
M  V30 34486 C 3950.54 3.51688 0.796723 0
M  V30 34487 O 3949.64 3.65838 1.90358 0
M  V30 34488 H 3948.98 0.660288 0.0701084 0
M  V30 34489 H 3951.51 2.00348 -0.414932 0
M  V30 34490 H 3951.52 3.93133 1.09134 0
M  V30 34491 H 3950.2 4.15882 -0.0383368 0
M  V30 34492 H 3948.78 3.36297 1.61117 0
M  V30 34493 N 3950.96 0.0067362 1.57599 0
M  V30 34494 C 3952.21 -0.67536 1.90482 0
M  V30 34495 C 3952.53 -1.73938 0.881512 0
M  V30 34496 O 3951.8 -1.95736 -0.0801583 0
M  V30 34497 H 3950.38 -0.25244 0.703053 0
M  V30 34498 H 3953.04 0.0492543 1.94838 0
M  V30 34499 H 3952.14 -1.14234 2.90443 0
M  V30 34500 N 3952.44 -1.55337 -0.266118 0
M  V30 34501 C 3953.66 -1.80634 -1.01911 0
M  V30 34502 C 3954.09 -0.581203 -1.78896 0
M  V30 34503 O 3953.45 0.469368 -1.75119 0
M  V30 34504 C 3953.5 -3.03459 -1.94795 0
M  V30 34505 O 3952.6 -2.79027 -3.03673 0
M  V30 34506 H 3951.94 -0.596833 -0.291009 0
M  V30 34507 H 3954.47 -2.02492 -0.292937 0
M  V30 34508 H 3954.48 -3.32378 -2.3662 0
M  V30 34509 H 3953.16 -3.92276 -1.38175 0
M  V30 34510 H 3951.73 -2.61224 -2.66113 0
M  V30 34511 N 3953.92 0.53094 -1.48387 0
M  V30 34512 C 3955.17 1.28428 -1.56047 0
M  V30 34513 C 3955.49 1.9357 -0.235729 0
M  V30 34514 O 3954.76 1.81278 0.742645 0
M  V30 34515 H 3953.34 0.476997 -0.574876 0
M  V30 34516 H 3956 0.617923 -1.84845 0
M  V30 34517 H 3955.09 2.06406 -2.341 0
M  V30 34518 N 3955.4 1.36959 0.779739 0
M  V30 34519 C 3956.81 1.17584 1.07917 0
M  V30 34520 C 3957.01 0.0065277 2.01499 0
M  V30 34521 O 3956.07 -0.655862 2.43833 0
M  V30 34522 C 3957.38 2.49099 1.68435 0
M  V30 34523 C 3958.93 2.5555 1.8073 0
M  V30 34524 C 3959.4 3.87175 2.44662 0
M  V30 34525 N 3960.89 3.88574 2.52121 0
M  V30 34526 C 3961.63 4.87165 3.02421 0
M  V30 34527 N 3961.13 5.96151 3.52954 0
M  V30 34528 N 3962.92 4.74576 3.01222 0
M  V30 34529 H 3955.07 2.1181 0.158212 0
M  V30 34530 H 3957.33 0.938651 0.13281 0
M  V30 34531 H 3957.04 3.34983 1.07141 0
M  V30 34532 H 3956.91 2.65609 2.67828 0
M  V30 34533 H 3959.3 1.70077 2.41159 0
M  V30 34534 H 3959.38 2.4293 0.801156 0
M  V30 34535 H 3959.02 4.73058 1.84875 0
M  V30 34536 H 3958.95 3.97094 3.45867 0
M  V30 34537 H 3961.45 3.09841 2.16349 0
M  V30 34538 H 3961.76 6.6734 3.89713 0
M  V30 34539 H 3960.1 5.99807 3.5108 0
M  V30 34540 H 3963.29 3.88557 2.61038 0
M  V30 34541 H 3963.47 5.51568 3.40113 0
M  V30 34542 N 3956.87 -1.00501 1.21398 0
M  V30 34543 C 3958.1 -1.78388 1.05794 0
M  V30 34544 C 3958.52 -1.84057 -0.387888 0
M  V30 34545 O 3957.88 -1.28415 -1.27981 0
M  V30 34546 C 3957.93 -3.20134 1.65972 0
M  V30 34547 O 3957.03 -4.02343 0.905194 0
M  V30 34548 H 3956.37 -0.54978 0.372341 0
M  V30 34549 H 3958.9 -1.26331 1.6094 0
M  V30 34550 H 3958.91 -3.70808 1.70193 0
M  V30 34551 H 3957.59 -3.15322 2.71191 0
M  V30 34552 H 3956.17 -3.60908 0.938082 0
M  V30 34553 N 3958.35 -1.02172 -1.19994 0
M  V30 34554 C 3959.58 -0.733241 -1.94006 0
M  V30 34555 C 3960 0.700579 -1.74567 0
M  V30 34556 O 3959.36 1.48274 -1.04328 0
M  V30 34557 C 3959.41 -1.08063 -3.44027 0
M  V30 34558 O 3958.51 -0.195208 -4.11938 0
M  V30 34559 H 3957.85 -0.271573 -0.605924 0
M  V30 34560 H 3960.38 -1.36648 -1.52278 0
M  V30 34561 H 3960.39 -1.0345 -3.94667 0
M  V30 34562 H 3959.07 -2.12526 -3.57499 0
M  V30 34563 H 3957.64 -0.299311 -3.71697 0
M  V30 34564 N 3959.83 1.35866 -0.798635 0
M  V30 34565 C 3961.05 2.03769 -0.386414 0
M  V30 34566 C 3961.48 1.59808 0.992126 0
M  V30 34567 O 3960.84 0.770924 1.64093 0
M  V30 34568 C 3960.89 3.57538 -0.468921 0
M  V30 34569 O 3959.99 4.091 0.52067 0
M  V30 34570 H 3959.33 0.643781 -0.162608 0
M  V30 34571 H 3961.86 1.73629 -1.08231 0
M  V30 34572 H 3961.87 4.06615 -0.335846 0
M  V30 34573 H 3960.55 3.88885 -1.47448 0
M  V30 34574 H 3959.12 3.71268 0.348493 0
M  V30 34575 N 3961.31 0.551443 1.47638 0
M  V30 34576 C 3962.72 0.210796 1.58202 0
M  V30 34577 C 3962.92 -1.28656 1.5508 0
M  V30 34578 O 3961.98 -2.06634 1.45117 0
M  V30 34579 C 3963.29 0.832345 2.88951 0
M  V30 34580 C 3964.84 0.803043 3.02523 0
M  V30 34581 C 3965.32 1.40356 4.35964 0
M  V30 34582 N 3966.81 1.36648 4.42585 0
M  V30 34583 C 3967.54 1.80081 5.44388 0
M  V30 34584 N 3967.04 2.31343 6.53033 0
M  V30 34585 N 3968.83 1.71187 5.35398 0
M  V30 34586 H 3960.98 1.52435 1.4791 0
M  V30 34587 H 3963.24 0.63534 0.703596 0
M  V30 34588 H 3962.95 1.88444 2.96954 0
M  V30 34589 H 3962.82 0.321981 3.75823 0
M  V30 34590 H 3965.21 -0.240344 2.9412 0
M  V30 34591 H 3965.29 1.3511 2.17207 0
M  V30 34592 H 3964.94 2.44598 4.45123 0
M  V30 34593 H 3964.87 0.830988 5.20002 0
M  V30 34594 H 3967.36 0.99145 3.64662 0
M  V30 34595 H 3967.67 2.62423 7.26879 0
M  V30 34596 H 3966.02 2.35351 6.53938 0
M  V30 34597 H 3969.21 1.3092 4.49419 0
M  V30 34598 H 3969.38 2.05355 6.146 0
M  V30 34599 N 3962.79 -1.54953 0.287609 0
M  V30 34600 C 3964.03 -1.99471 -0.324932 0
M  V30 34601 C 3964.36 -1.1775 -1.55435 0
M  V30 34602 O 3963.63 -0.270101 -1.94029 0
M  V30 34603 H 3962.21 -0.736796 -0.123049 0
M  V30 34604 H 3964.87 -1.90838 0.395839 0
M  V30 34605 H 3963.96 -3.06156 -0.606211 0
M  V30 34606 N 3964.26 -0.0150939 -1.57593 0
M  V30 34607 C 3965.68 0.525678 -1.79147 0
M  V30 34608 C 3966.03 1.73079 -0.924015 0
M  V30 34609 O 3965.15 2.16006 -0.13057 0
M  V30 34610 C 3965.75 0.960435 -3.24902 0
M  V30 34611 C 3964.31 1.44641 -3.47499 0
M  V30 34612 C 3963.45 0.40458 -2.74333 0
M  V30 34613 H 3966.4 -0.241202 -1.56856 0
M  V30 34614 H 3966.42 1.82562 -3.33843 0
M  V30 34615 H 3965.94 0.0831343 -3.88011 0
M  V30 34616 H 3964.04 2.34411 -2.89625 0
M  V30 34617 H 3964.15 1.46346 -4.56201 0
M  V30 34618 H 3962.51 0.869585 -2.39396 0
M  V30 34619 H 3963.3 -0.464013 -3.4015 0
M  V30 34620 N 3965.74 1.55476 0.257876 0
M  V30 34621 C 3966.97 1.80574 1.00382 0
M  V30 34622 C 3967.38 0.586947 1.79865 0
M  V30 34623 O 3966.72 -0.453715 1.78009 0
M  V30 34624 C 3966.79 2.9885 1.99822 0
M  V30 34625 C 3966.45 4.35305 1.39136 0
M  V30 34626 C 3967.45 5.13718 0.799366 0
M  V30 34627 C 3965.13 4.81986 1.41402 0
M  V30 34628 C 3967.13 6.36955 0.238116 0
M  V30 34629 C 3964.81 6.05175 0.848912 0
M  V30 34630 C 3965.81 6.82497 0.261977 0
M  V30 34631 O 3965.5 8.03361 -0.294434 0
M  V30 34632 H 3965.23 0.60502 0.301541 0
M  V30 34633 H 3967.78 2.03351 0.2894 0
M  V30 34634 H 3966.01 2.71801 2.75065 0
M  V30 34635 H 3967.7 3.11137 2.60669 0
M  V30 34636 H 3968.47 4.78777 0.774446 0
M  V30 34637 H 3964.35 4.21801 1.86025 0
M  V30 34638 H 3967.89 6.97251 -0.220641 0
M  V30 34639 H 3963.79 6.39595 0.871122 0
M  V30 34640 H 3964.56 8.1829 -0.185242 0
M  V30 34641 N 3967.22 -0.523064 1.48667 0
M  V30 34642 C 3968.13 -1.65374 1.66399 0
M  V30 34643 C 3969.15 -1.65195 0.546498 0
M  V30 34644 O 3970.32 -1.8402 0.818445 0
M  V30 34645 C 3967.39 -3.01818 1.70607 0
M  V30 34646 C 3966.45 -3.12798 2.94034 0
M  V30 34647 C 3965.68 -4.42733 2.98032 0
M  V30 34648 O 3965.9 -5.3024 2.10241 0
M  V30 34649 O 3964.84 -4.58224 3.90275 0
M  V30 34650 H 3968.66 -1.5335 2.6214 0
M  V30 34651 H 3966.25 -0.696925 1.32149 0
M  V30 34652 H 3968.13 -3.82953 1.75856 0
M  V30 34653 H 3966.81 -3.14152 0.780401 0
M  V30 34654 H 3965.71 -2.30933 2.94314 0
M  V30 34655 H 3967.05 -3.05383 3.86008 0
M  V30 34656 N 3968.7 -1.37371 -0.772465 0
M  V30 34657 C 3969.92 -1.35903 -1.56668 0
M  V30 34658 C 3970.35 0.0535207 -1.88024 0
M  V30 34659 O 3969.71 1.03036 -1.49176 0
M  V30 34660 C 3969.75 -2.20389 -2.85414 0
M  V30 34661 O 3968.86 -1.60802 -3.79758 0
M  V30 34662 H 3968.2 -0.464395 -0.474588 0
M  V30 34663 H 3970.73 -1.80885 -0.95613 0
M  V30 34664 H 3970.74 -2.33577 -3.34523 0
M  V30 34665 H 3969.41 -3.23064 -2.6192 0
M  V30 34666 H 3967.99 -1.56651 -3.384 0
M  V30 34667 N 3970.18 0.998553 -1.21929 0
M  V30 34668 C 3971.59 1.26122 -0.978029 0
M  V30 34669 C 3971.79 1.9875 0.331765 0
M  V30 34670 O 3970.85 2.29366 1.05581 0
M  V30 34671 C 3972.16 2.07854 -2.17295 0
M  V30 34672 C 3973.71 2.21058 -2.2159 0
M  V30 34673 C 3974.18 3.06175 -3.40618 0
M  V30 34674 N 3975.68 3.13763 -3.40745 0
M  V30 34675 C 3976.41 3.79897 -4.29495 0
M  V30 34676 N 3975.91 4.48006 -5.28453 0
M  V30 34677 N 3977.7 3.76602 -4.17286 0
M  V30 34678 H 3969.85 0.511474 -2.0615 0
M  V30 34679 H 3972.11 0.288471 -0.903044 0
M  V30 34680 H 3971.82 1.61845 -3.12248 0
M  V30 34681 H 3971.69 3.08609 -2.16888 0
M  V30 34682 H 3974.08 2.66284 -1.27188 0
M  V30 34683 H 3974.16 1.19753 -2.26037 0
M  V30 34684 H 3973.81 2.61651 -4.35317 0
M  V30 34685 H 3973.74 4.07609 -3.3341 0
M  V30 34686 H 3976.23 2.65285 -2.69133 0
M  V30 34687 H 3976.54 4.96193 -5.92463 0
M  V30 34688 H 3974.88 4.46772 -5.32372 0
M  V30 34689 H 3978.08 3.22551 -3.39232 0
M  V30 34690 H 3978.25 4.27864 -4.86658 0
M  V30 34691 N 3971.65 1.02807 1.1945 0
M  V30 34692 C 3972.58 0.628792 2.24874 0
M  V30 34693 C 3973.57 -0.361815 1.66207 0
M  V30 34694 O 3974.75 -0.244709 1.92652 0
M  V30 34695 C 3971.88 -0.0220344 3.47293 0
M  V30 34696 C 3970.83 0.890766 4.18628 0
M  V30 34697 C 3970.16 0.105091 5.34597 0
M  V30 34698 C 3971.46 2.20413 4.73514 0
M  V30 34699 H 3973.15 1.51009 2.58528 0
M  V30 34700 H 3970.7 0.72754 1.24269 0
M  V30 34701 H 3972.65 -0.312999 4.20236 0
M  V30 34702 H 3971.38 -0.938127 3.12837 0
M  V30 34703 H 3970.04 1.16591 3.47566 0
M  V30 34704 H 3969.68 -0.813011 4.96386 0
M  V30 34705 H 3969.38 0.713086 5.83257 0
M  V30 34706 H 3970.91 -0.179152 6.10337 0
M  V30 34707 H 3972.32 1.97475 5.38216 0
M  V30 34708 H 3970.72 2.76398 5.32658 0
M  V30 34709 H 3971.79 2.85933 3.91625 0
M  V30 34710 N 3973.13 -1.35441 0.805829 0
M  V30 34711 C 3974.38 -1.98397 0.385081 0
M  V30 34712 C 3974.7 -1.64246 -1.05111 0
M  V30 34713 O 3973.97 -0.924562 -1.7271 0
M  V30 34714 H 3972.55 -0.733878 0.139399 0
M  V30 34715 H 3975.21 -1.65366 1.0315 0
M  V30 34716 H 3974.31 -3.08227 0.490181 0
M  V30 34717 N 3974.61 -0.559265 -1.47343 0
M  V30 34718 C 3975.56 0.20772 -2.27052 0
M  V30 34719 C 3976.54 0.883428 -1.34478 0
M  V30 34720 O 3977.74 0.781395 -1.58818 0
M  V30 34721 C 3974.87 1.23576 -3.20287 0
M  V30 34722 C 3973.95 0.563366 -4.20342 0
M  V30 34723 N 3974.34 -0.367736 -5.04461 0
M  V30 34724 C 3972.64 0.817034 -4.38452 0
M  V30 34725 C 3973.34 -0.758512 -5.76733 0
M  V30 34726 N 3972.32 -0.112887 -5.43483 0
M  V30 34727 H 3976.12 -0.508138 -2.89474 0
M  V30 34728 H 3973.63 -0.37935 -1.57907 0
M  V30 34729 H 3975.63 1.79921 -3.76077 0
M  V30 34730 H 3974.29 1.95269 -2.59422 0
M  V30 34731 H 3975.3 -0.742013 -5.12557 0
M  V30 34732 H 3971.98 1.52232 -3.88757 0
M  V30 34733 H 3973.37 -1.52372 -6.54395 0
M  V30 34734 N 3976.09 1.54799 -0.295822 0
M  V30 34735 C 3977.31 2.04908 0.320544 0
M  V30 34736 C 3977.74 1.17193 1.4713 0
M  V30 34737 O 3977.1 0.174901 1.80454 0
M  V30 34738 C 3977.14 3.52514 0.759377 0
M  V30 34739 O 3976.25 3.67837 1.86467 0
M  V30 34740 H 3975.59 0.660995 0.0631012 0
M  V30 34741 H 3978.12 1.99897 -0.436158 0
M  V30 34742 H 3978.13 3.94269 1.04958 0
M  V30 34743 H 3976.8 4.15818 -0.0824445 0
M  V30 34744 H 3975.38 3.37987 1.57541 0
M  V30 34745 N 3977.57 0.0234513 1.57583 0
M  V30 34746 C 3978.79 -0.670337 1.96268 0
M  V30 34747 C 3979.22 -1.65192 0.899615 0
M  V30 34748 O 3978.58 -1.80758 -0.140047 0
M  V30 34749 C 3978.62 -1.35801 3.34052 0
M  V30 34750 O 3977.73 -2.47314 3.30014 0
M  V30 34751 H 3977.07 -0.176546 0.6401 0
M  V30 34752 H 3979.6 0.0836188 2.04429 0
M  V30 34753 H 3979.61 -1.71609 3.70154 0
M  V30 34754 H 3978.28 -0.638447 4.1097 0
M  V30 34755 H 3976.86 -2.13659 3.05621 0
M  V30 34756 N 3979.05 -1.5561 -0.249627 0
M  V30 34757 C 3980.29 -1.77577 -0.979498 0
M  V30 34758 C 3980.62 -0.588231 -1.85077 0
M  V30 34759 O 3979.9 0.413567 -1.90052 0
M  V30 34760 C 3980.18 -3.09403 -1.84232 0
M  V30 34761 C 3980.04 -4.38556 -0.999423 0
M  V30 34762 C 3981.35 -3.37438 -2.8253 0
M  V30 34763 H 3978.47 -0.646048 -0.35467 0
M  V30 34764 H 3981.12 -1.88346 -0.250191 0
M  V30 34765 H 3979.27 -3.00354 -2.46414 0
M  V30 34766 H 3980.94 -4.59593 -0.396518 0
M  V30 34767 H 3979.18 -4.32736 -0.303684 0
M  V30 34768 H 3979.85 -5.27172 -1.63688 0
M  V30 34769 H 3982.33 -3.46433 -2.30485 0
M  V30 34770 H 3981.2 -4.30899 -3.40025 0
M  V30 34771 H 3981.46 -2.58217 -3.58854 0
M  V30 34772 N 3980.52 0.515172 -1.48942 0
M  V30 34773 C 3981.77 1.27016 -1.57712 0
M  V30 34774 C 3982.1 1.92788 -0.257518 0
M  V30 34775 O 3981.35 1.80615 0.753449 0
M  V30 34776 C 3981.65 2.37006 -2.67512 0
M  V30 34777 C 3981.32 1.88789 -4.09475 0
M  V30 34778 C 3979.98 1.75357 -4.48111 0
M  V30 34779 C 3982.33 1.52534 -4.9838 0
M  V30 34780 C 3979.66 1.24028 -5.7344 0
M  V30 34781 C 3982.01 1.02662 -6.24214 0
M  V30 34782 C 3980.68 0.878587 -6.61693 0
M  V30 34783 H 3979.95 0.464786 -0.577109 0
M  V30 34784 H 3982.59 0.573247 -1.82719 0
M  V30 34785 H 3980.9 3.12429 -2.36422 0
M  V30 34786 H 3982.6 2.95099 -2.7151 0
M  V30 34787 H 3979.19 2.00198 -3.7897 0
M  V30 34788 H 3983.37 1.61764 -4.69197 0
M  V30 34789 H 3978.63 1.11267 -6.0119 0
M  V30 34790 H 3982.8 0.736848 -6.92491 0
M  V30 34791 H 3980.43 0.478659 -7.58692 0
M  V30 34792 N 3982 1.37779 0.765169 0
M  V30 34793 C 3983.25 1.33086 1.52094 0
M  V30 34794 C 3983.57 -0.0821758 1.94827 0
M  V30 34795 O 3982.84 -1.02754 1.66789 0
M  V30 34796 H 3981.42 0.489659 0.56413 0
M  V30 34797 H 3984.08 1.72337 0.910278 0
M  V30 34798 H 3983.18 1.9742 2.41727 0
M  V30 34799 N 3983.48 -0.992073 1.22457 0
M  V30 34800 C 3984.41 -2.0844 0.953181 0
M  V30 34801 C 3985.42 -1.62656 -0.0685146 0
M  V30 34802 O 3986.61 -1.7773 0.165592 0
M  V30 34803 C 3983.71 -3.36385 0.412105 0
M  V30 34804 C 3982.89 -4.11195 1.49121 0
M  V30 34805 C 3981.95 -5.17423 0.957075 0
M  V30 34806 O 3980.97 -5.44958 1.64346 0
M  V30 34807 N 3982.17 -5.80079 -0.221103 0
M  V30 34808 H 3984.94 -2.32301 1.89357 0
M  V30 34809 H 3982.5 -1.15789 1.13157 0
M  V30 34810 H 3984.49 -4.0468 0.0400745 0
M  V30 34811 H 3983.06 -3.09581 -0.433418 0
M  V30 34812 H 3982.28 -3.37519 2.03653 0
M  V30 34813 H 3983.57 -4.57948 2.21724 0
M  V30 34814 H 3982.97 -5.60078 -0.795543 0
M  V30 34815 H 3981.52 -6.49605 -0.534511 0
M  V30 34816 N 3984.96 -1.03439 -1.18904 0
M  V30 34817 C 3985.91 -0.590458 -2.20222 0
M  V30 34818 C 3986.89 0.363746 -1.56734 0
M  V30 34819 O 3988.08 0.183821 -1.76043 0
M  V30 34820 C 3985.21 0.0516347 -3.43261 0
M  V30 34821 C 3984.3 -0.925341 -4.13882 0
M  V30 34822 N 3984.69 -2.08994 -4.60603 0
M  V30 34823 C 3982.99 -0.749976 -4.39649 0
M  V30 34824 C 3983.69 -2.70657 -5.14898 0
M  V30 34825 N 3982.66 -1.98579 -5.06031 0
M  V30 34826 H 3986.47 -1.47804 -2.5403 0
M  V30 34827 H 3983.98 -0.902125 -1.35039 0
M  V30 34828 H 3985.98 0.38733 -4.15097 0
M  V30 34829 H 3984.64 0.934836 -3.10952 0
M  V30 34830 H 3985.65 -2.46911 -4.55253 0
M  V30 34831 H 3982.33 0.0836666 -4.17416 0
M  V30 34832 H 3983.72 -3.69317 -5.61297 0
M  V30 34833 N 3986.44 1.35011 -0.813001 0
M  V30 34834 C 3987.35 2.33474 -0.229575 0
M  V30 34835 C 3988.36 1.62163 0.630808 0
M  V30 34836 O 3989.54 1.93996 0.541049 0
M  V30 34837 C 3986.6 3.41345 0.606995 0
M  V30 34838 C 3985.66 4.28421 -0.274629 0
M  V30 34839 C 3984.9 5.3114 0.522109 0
M  V30 34840 O 3985.12 5.42689 1.75626 0
M  V30 34841 O 3984.05 6.01832 -0.0903724 0
M  V30 34842 H 3987.88 2.85182 -1.04428 0
M  V30 34843 H 3985.46 1.37895 -0.574924 0
M  V30 34844 H 3987.35 4.07238 1.08328 0
M  V30 34845 H 3986.02 2.91898 1.39919 0
M  V30 34846 H 3984.93 3.65486 -0.798188 0
M  V30 34847 H 3986.26 4.81282 -1.03093 0
M  V30 34848 N 3987.91 0.567071 1.47044 0
M  V30 34849 C 3989.14 0.0499193 2.0734 0
M  V30 34850 C 3989.56 -1.23879 1.41547 0
M  V30 34851 O 3988.92 -1.74445 0.493828 0
M  V30 34852 C 3988.97 -0.118719 3.60405 0
M  V30 34853 O 3988.07 -1.17898 3.95188 0
M  V30 34854 H 3987.41 0.0557577 0.661655 0
M  V30 34855 H 3989.94 0.785564 1.88918 0
M  V30 34856 H 3989.95 -0.329828 4.06665 0
M  V30 34857 H 3988.63 0.82248 4.07686 0
M  V30 34858 H 3987.21 -0.947581 3.6066 0
M  V30 34859 N 3989.39 -1.5464 0.304027 0
M  V30 34860 C 3990.64 -1.99804 -0.303757 0
M  V30 34861 C 3990.96 -1.19392 -1.54177 0
M  V30 34862 O 3990.23 -0.290665 -1.93732 0
M  V30 34863 H 3988.81 -0.738059 -0.115228 0
M  V30 34864 H 3991.47 -1.90407 0.416057 0
M  V30 34865 H 3990.57 -3.06782 -0.573705 0
M  V30 34866 N 3990.87 -0.0318079 -1.57568 0
M  V30 34867 C 3992.09 0.659919 -1.96621 0
M  V30 34868 C 3992.52 1.64713 -0.908363 0
M  V30 34869 O 3991.88 1.8083 0.130459 0
M  V30 34870 C 3991.93 1.34027 -3.34767 0
M  V30 34871 O 3991.03 2.4556 -3.31321 0
M  V30 34872 H 3990.37 0.173149 -0.641027 0
M  V30 34873 H 3992.9 -0.094459 -2.04382 0
M  V30 34874 H 3992.91 1.69644 -3.71059 0
M  V30 34875 H 3991.59 0.616644 -4.11303 0
M  V30 34876 H 3990.16 2.12035 -3.0675 0
M  V30 34877 N 3992.35 1.55741 0.241371 0
M  V30 34878 C 3993.6 1.77479 0.966718 0
M  V30 34879 C 3993.92 0.596789 1.85643 0
M  V30 34880 O 3993.19 -0.387203 1.92035 0
M  V30 34881 H 3991.77 0.654563 0.359939 0
M  V30 34882 H 3994.43 1.93185 0.257989 0
M  V30 34883 H 3993.53 2.68846 1.58519 0
M  V30 34884 N 3993.83 -0.507266 1.49213 0
M  V30 34885 C 3994.78 -1.60624 1.61815 0
M  V30 34886 C 3995.76 -1.53757 0.474098 0
M  V30 34887 O 3996.95 -1.61393 0.726731 0
M  V30 34888 C 3994.08 -2.99262 1.68218 0
M  V30 34889 C 3993.17 -3.11148 2.8818 0
M  V30 34890 N 3993.56 -2.92941 4.12334 0
M  V30 34891 C 3991.86 -3.4224 2.85986 0
M  V30 34892 C 3992.56 -3.08845 4.9294 0
M  V30 34893 N 3991.53 -3.37442 4.26186 0
M  V30 34894 H 3995.34 -1.45191 2.55532 0
M  V30 34895 H 3992.85 -0.713254 1.45899 0
M  V30 34896 H 3994.85 -3.78233 1.75343 0
M  V30 34897 H 3993.51 -3.15768 0.756335 0
M  V30 34898 H 3994.52 -2.69243 4.42412 0
M  V30 34899 H 3991.19 -3.64962 2.02754 0
M  V30 34900 H 3992.58 -2.99314 6.01549 0
M  V30 34901 N 3995.3 -1.38182 -0.757851 0
M  V30 34902 C 3996.53 -1.37557 -1.55218 0
M  V30 34903 C 3996.95 0.0335753 -1.8807 0
M  V30 34904 O 3996.31 1.01448 -1.5026 0
M  V30 34905 C 3996.36 -2.23404 -2.8306 0
M  V30 34906 O 3995.46 -1.64821 -3.78031 0
M  V30 34907 H 3994.81 -0.469402 -0.469636 0
M  V30 34908 H 3997.34 -1.81889 -0.936891 0
M  V30 34909 H 3997.35 -2.37112 -3.32027 0
M  V30 34910 H 3996.02 -3.25824 -2.58479 0
M  V30 34911 H 3994.6 -1.60231 -3.3672 0
M  V30 34912 N 3996.78 0.985565 -1.22981 0
M  V30 34913 C 3998.01 1.76683 -1.08618 0
M  V30 34914 C 3998.43 1.84651 0.358557 0
M  V30 34915 O 3997.79 1.30435 1.25922 0
M  V30 34916 C 3997.84 3.17453 -1.71044 0
M  V30 34917 O 3996.94 4.00852 -0.969088 0
M  V30 34918 H 3996.28 0.543787 -0.38104 0
M  V30 34919 H 3998.81 1.23754 -1.62929 0
M  V30 34920 H 3998.82 3.68053 -1.76071 0
M  V30 34921 H 3997.5 3.10968 -2.76173 0
M  V30 34922 H 3996.08 3.5937 -0.995381 0
M  V30 34923 N 3998.26 1.04068 1.18353 0
M  V30 34924 C 3999.22 0.636187 2.20194 0
M  V30 34925 C 4000.22 -0.306429 1.57853 0
M  V30 34926 O 4001.41 -0.091827 1.73958 0
M  V30 34927 C 3998.55 -0.0672824 3.40834 0
M  V30 34928 H 3999.74 1.53742 2.57494 0
M  V30 34929 H 3997.29 0.833237 1.32238 0
M  V30 34930 H 3998.03 -0.982317 3.09065 0
M  V30 34931 H 3997.81 0.610213 3.87323 0
M  V30 34932 H 3999.3 -0.336796 4.1624 0
M  V30 34933 N 3999.74 -1.34578 0.820149 0
M  V30 34934 C 4000.97 -2.02303 0.419191 0
M  V30 34935 C 4001.38 -1.61919 -0.978713 0
M  V30 34936 O 4000.72 -0.819012 -1.64432 0
M  V30 34937 C 4000.78 -3.56814 0.438639 0
M  V30 34938 C 4000.45 -4.20511 1.7894 0
M  V30 34939 C 4001.44 -4.41227 2.74981 0
M  V30 34940 C 3999.13 -4.57341 2.07712 0
M  V30 34941 C 4001.12 -4.97894 3.9797 0
M  V30 34942 C 3998.81 -5.1372 3.30961 0
M  V30 34943 C 3999.81 -5.3394 4.25908 0
M  V30 34944 O 3999.49 -5.89125 5.46979 0
M  V30 34945 H 3999.23 -0.655099 0.166799 0
M  V30 34946 H 4001.78 -1.72891 1.10895 0
M  V30 34947 H 4000.01 -3.85473 -0.307803 0
M  V30 34948 H 4001.7 -4.05858 0.0581162 0
M  V30 34949 H 4002.47 -4.1314 2.54048 0
M  V30 34950 H 3998.34 -4.40909 1.34612 0
M  V30 34951 H 4001.89 -5.13592 4.7209 0
M  V30 34952 H 3997.79 -5.41235 3.51759 0
M  V30 34953 H 3998.55 -6.07562 5.48462 0
M  V30 34954 N 4001.22 -0.574861 -1.46742 0
M  V30 34955 C 4002.44 -0.0609143 -2.07311 0
M  V30 34956 C 4002.87 1.23126 -1.42202 0
M  V30 34957 O 4002.22 1.74181 -0.503073 0
M  V30 34958 C 4002.27 0.0996043 -3.60462 0
M  V30 34959 O 4001.38 1.15801 -3.95808 0
M  V30 34960 H 4000.72 -0.0592658 -0.66135 0
M  V30 34961 H 4003.25 -0.795571 -1.88499 0
M  V30 34962 H 4003.26 0.308257 -4.06834 0
M  V30 34963 H 4001.93 -0.844089 -4.07244 0
M  V30 34964 H 4000.51 0.928441 -3.61157 0
M  V30 34965 N 4002.69 1.54476 -0.312224 0
M  V30 34966 C 4003.63 2.21404 0.592703 0
M  V30 34967 C 4004.64 1.21035 1.08878 0
M  V30 34968 O 4005.83 1.47567 1.0043 0
M  V30 34969 C 4002.93 2.85582 1.82473 0
M  V30 34970 C 4002.1 4.11985 1.46926 0
M  V30 34971 C 4001.16 4.59861 2.55762 0
M  V30 34972 O 4000.19 5.24805 2.20382 0
M  V30 34973 N 4001.39 4.33127 3.86498 0
M  V30 34974 H 4004.15 2.99694 0.0196872 0
M  V30 34975 H 4001.71 1.61337 -0.134918 0
M  V30 34976 H 4003.71 3.14539 2.54652 0
M  V30 34977 H 4002.28 2.11066 2.30586 0
M  V30 34978 H 4001.5 3.89916 0.579608 0
M  V30 34979 H 4002.78 4.94269 1.2073 0
M  V30 34980 H 4002.18 3.81122 4.18046 0
M  V30 34981 H 4000.74 4.66767 4.54942 0
M  V30 34982 N 4004.17 0.0401637 1.57549 0
M  V30 34983 C 4005.12 -0.947382 2.07385 0
M  V30 34984 C 4006.11 -1.27867 0.976668 0
M  V30 34985 O 4007.3 -1.26293 1.24012 0
M  V30 34986 C 4004.43 -2.22604 2.61347 0
M  V30 34987 C 4003.51 -1.92263 3.78016 0
M  V30 34988 N 4003.9 -1.32236 4.88208 0
M  V30 34989 C 4002.2 -2.22194 3.86712 0
M  V30 34990 C 4002.9 -1.19276 5.6934 0
M  V30 34991 N 4001.88 -1.69198 5.16598 0
M  V30 34992 H 4005.68 -0.478425 2.8998 0
M  V30 34993 H 4003.2 -0.164574 1.61564 0
M  V30 34994 H 4005.19 -2.94236 2.95348 0
M  V30 34995 H 4003.85 -2.70116 1.80187 0
M  V30 34996 H 4004.86 -0.995959 5.08233 0
M  V30 34997 H 4001.54 -2.72303 3.16477 0
M  V30 34998 H 4002.93 -0.727667 6.67948 0
M  V30 34999 N 4005.65 -1.55866 -0.233109 0
M  V30 35000 C 4006.9 -1.7799 -0.957293 0
M  V30 35001 C 4007.22 -0.606626 -1.85324 0
M  V30 35002 O 4006.49 0.377013 -1.92238 0
M  V30 35003 H 4005.07 -0.656463 -0.356462 0
M  V30 35004 H 4007.73 -1.93319 -0.24774 0
M  V30 35005 H 4006.83 -2.69683 -1.57091 0
M  V30 35006 N 4007.13 0.499346 -1.4948 0
M  V30 35007 C 4008.35 1.28206 -1.63027 0
M  V30 35008 C 4008.78 1.85655 -0.30227 0
M  V30 35009 O 4008.14 1.6594 0.730326 0
M  V30 35010 C 4008.19 2.38694 -2.70291 0
M  V30 35011 O 4007.29 3.42589 -2.29579 0
M  V30 35012 H 4006.63 0.378422 -0.545612 0
M  V30 35013 H 4009.16 0.597594 -1.95678 0
M  V30 35014 H 4009.17 2.84433 -2.9251 0
M  V30 35015 H 4007.85 1.96247 -3.66688 0
M  V30 35016 H 4006.42 3.02758 -2.17698 0
M  V30 35017 N 4008.61 1.38582 0.750513 0
M  V30 35018 C 4009.86 1.34692 1.50673 0
M  V30 35019 C 4010.18 -0.0615072 1.94903 0
M  V30 35020 O 4009.45 -1.00979 1.67869 0
M  V30 35021 H 4008.03 0.495615 0.558905 0
M  V30 35022 H 4010.69 1.73293 0.891948 0
M  V30 35023 H 4009.78 1.99973 2.39619 0
M  V30 35024 N 4010.09 -0.979029 1.23502 0
M  V30 35025 C 4011.31 -1.76104 1.09554 0
M  V30 35026 C 4011.74 -1.84839 -0.34876 0
M  V30 35027 O 4011.09 -1.31101 -1.25228 0
M  V30 35028 C 4011.14 -3.16541 1.72725 0
M  V30 35029 O 4010.25 -4.00333 0.990333 0
M  V30 35030 H 4009.59 -0.541759 0.383918 0
M  V30 35031 H 4012.12 -1.22889 1.63583 0
M  V30 35032 H 4012.13 -3.67114 1.7802 0
M  V30 35033 H 4010.8 -3.09499 2.77818 0
M  V30 35034 H 4009.38 -3.58837 1.01442 0
M  V30 35035 N 4011.56 -1.04695 -1.178 0
M  V30 35036 C 4012.81 -0.752567 -1.87566 0
M  V30 35037 C 4013.13 0.722271 -1.8113 0
M  V30 35038 O 4012.4 1.52159 -1.23388 0
M  V30 35039 H 4010.98 -0.275388 -0.694385 0
M  V30 35040 H 4013.64 -1.32504 -1.42929 0
M  V30 35041 H 4012.74 -1.06304 -2.93438 0
M  V30 35042 N 4013.04 1.34141 -0.827275 0
M  V30 35043 C 4013.99 2.26892 -0.224493 0
M  V30 35044 C 4014.98 1.48733 0.613774 0
M  V30 35045 O 4016.17 1.70711 0.467641 0
M  V30 35046 C 4013.3 3.37853 0.609131 0
M  V30 35047 C 4012.38 4.2342 -0.240004 0
M  V30 35048 N 4012.77 4.88457 -1.31312 0
M  V30 35049 C 4011.07 4.45993 -0.0250723 0
M  V30 35050 C 4011.77 5.52056 -1.83327 0
M  V30 35051 N 4010.75 5.31587 -1.13649 0
M  V30 35052 H 4014.55 2.74683 -1.04529 0
M  V30 35053 H 4012.06 1.47911 -0.670529 0
M  V30 35054 H 4014.06 4.03273 1.05717 0
M  V30 35055 H 4012.72 2.91611 1.42804 0
M  V30 35056 H 4013.73 4.89344 -1.69595 0
M  V30 35057 H 4010.41 4.105 0.761321 0
M  V30 35058 H 4011.8 6.13882 -2.73128 0
M  V30 35059 N 4014.52 0.582635 1.46435 0
M  V30 35060 C 4015.77 0.0681849 2.02385 0
M  V30 35061 C 4016.09 -1.29172 1.45412 0
M  V30 35062 O 4015.35 -1.85981 0.609053 0
M  V30 35063 C 4015.65 -0.0476116 3.57368 0
M  V30 35064 C 4015.31 1.24469 4.3338 0
M  V30 35065 C 4013.98 1.59874 4.53865 0
M  V30 35066 C 4016.33 2.09989 4.77026 0
M  V30 35067 C 4013.66 2.80598 5.15249 0
M  V30 35068 C 4016.01 3.29939 5.39744 0
M  V30 35069 C 4014.67 3.65626 5.58457 0
M  V30 35070 H 4013.94 0.0249506 0.74058 0
M  V30 35071 H 4016.59 0.759257 1.75805 0
M  V30 35072 H 4014.89 -0.821811 3.83084 0
M  V30 35073 H 4016.59 -0.461417 3.98336 0
M  V30 35074 H 4013.18 0.959066 4.17732 0
M  V30 35075 H 4017.37 1.83939 4.60956 0
M  V30 35076 H 4012.62 3.08385 5.27928 0
M  V30 35077 H 4016.8 3.96474 5.72522 0
M  V30 35078 H 4014.42 4.59262 6.05791 0
M  V30 35079 N 4016 -1.54309 0.320412 0
M  V30 35080 C 4017.24 -2.02421 -0.28374 0
M  V30 35081 C 4017.6 -1.20359 -1.49592 0
M  V30 35082 O 4018.8 -1.5826 -2.17272 0
M  V30 35083 C 4017.07 -3.5211 -0.612637 0
M  V30 35084 S 4018.63 -4.22161 -1.19689 0
M  V30 35085 H 4015.45 -0.705779 -0.0860088 0
M  V30 35086 H 4018.05 -1.90184 0.452801 0
M  V30 35087 H 4016.76 -4.09459 0.277769 0
M  V30 35088 H 4016.29 -3.68422 -1.37946 0
M  V30 35089 H 4018.3 -4.29556 -2.48387 0
M  V30 35090 N 4017.48 -0.0485183 -1.57525 0
M  V30 35091 C 4018.7 0.639027 -1.9731 0
M  V30 35092 C 4019.13 1.6374 -0.925782 0
M  V30 35093 O 4018.48 1.80958 0.111272 0
M  V30 35094 C 4018.53 1.30469 -3.3617 0
M  V30 35095 O 4017.64 2.42032 -3.33907 0
M  V30 35096 H 4016.98 0.16634 -0.642827 0
M  V30 35097 H 4019.51 -0.116131 -2.0427 0
M  V30 35098 H 4019.52 1.65699 -3.72838 0
M  V30 35099 H 4018.19 0.572985 -4.11934 0
M  V30 35100 H 4016.77 2.0877 -3.08982 0
M  V30 35101 N 4018.95 1.55988 0.224839 0
M  V30 35102 C 4019.89 1.88628 1.30201 0
M  V30 35103 C 4020.9 0.774273 1.43209 0
M  V30 35104 O 4022.09 1.05255 1.44165 0
M  V30 35105 C 4019.19 2.0769 2.67802 0
M  V30 35106 C 4018.36 3.38689 2.76783 0
M  V30 35107 C 4017.42 3.47223 3.95377 0
M  V30 35108 O 4016.45 4.20278 3.83869 0
M  V30 35109 N 4017.65 2.78125 5.09536 0
M  V30 35110 H 4020.41 2.81617 1.02528 0
M  V30 35111 H 4017.97 1.56494 0.414888 0
M  V30 35112 H 4019.97 2.10718 3.45514 0
M  V30 35113 H 4018.54 1.21341 2.88089 0
M  V30 35114 H 4017.76 3.47787 1.85574 0
M  V30 35115 H 4019.04 4.24991 2.7975 0
M  V30 35116 H 4018.44 2.18544 5.21781 0
M  V30 35117 H 4017 2.86818 5.85302 0
M  V30 35118 N 4020.43 -0.491412 1.49743 0
M  V30 35119 C 4021.68 -1.24245 1.59397 0
M  V30 35120 C 4022 -1.92877 0.286968 0
M  V30 35121 O 4021.27 -1.83183 -0.694321 0
M  V30 35122 H 4019.85 -0.461588 0.587321 0
M  V30 35123 H 4022.51 -0.568697 1.86418 0
M  V30 35124 H 4021.61 -2.00127 2.3949 0
M  V30 35125 N 4021.91 -1.38978 -0.743153 0
M  V30 35126 C 4022.84 -1.32941 -1.86706 0
M  V30 35127 C 4023.86 -0.239672 -1.61026 0
M  V30 35128 O 4025.04 -0.498021 -1.71412 0
M  V30 35129 C 4022.14 -1.03951 -3.22564 0
M  V30 35130 C 4021.32 -2.24041 -3.75665 0
M  V30 35131 C 4020.38 -1.91633 -4.90064 0
M  V30 35132 O 4019.4 -2.64235 -5.04151 0
M  V30 35133 N 4020.6 -0.877566 -5.73828 0
M  V30 35134 H 4023.37 -2.29794 -1.92393 0
M  V30 35135 H 4020.93 -1.32975 -0.923541 0
M  V30 35136 H 4022.92 -0.803047 -3.96653 0
M  V30 35137 H 4021.49 -0.158595 -3.12197 0
M  V30 35138 H 4020.71 -2.63689 -2.93022 0
M  V30 35139 H 4022 -3.04161 -4.07877 0
M  V30 35140 H 4021.4 -0.275703 -5.65028 0
M  V30 35141 H 4019.96 -0.700995 -6.4802 0
M  V30 35142 N 4023.39 0.972465 -1.2402 0
M  V30 35143 C 4024.34 2.05122 -0.99544 0
M  V30 35144 C 4025.32 1.60783 0.0614292 0
M  V30 35145 O 4026.51 1.76349 -0.151701 0
M  V30 35146 C 4023.64 3.38068 -0.597078 0
M  V30 35147 C 4022.73 3.88983 -1.68977 0
M  V30 35148 N 4023.12 4.12887 -2.92161 0
M  V30 35149 C 4021.42 4.17596 -1.56618 0
M  V30 35150 C 4022.12 4.54569 -3.62963 0
M  V30 35151 N 4021.1 4.59464 -2.90507 0
M  V30 35152 H 4024.9 2.21572 -1.93088 0
M  V30 35153 H 4022.41 1.15588 -1.14075 0
M  V30 35154 H 4024.41 4.14948 -0.40298 0
M  V30 35155 H 4023.07 3.23006 0.331227 0
M  V30 35156 H 4024.08 4.00477 -3.28388 0
M  V30 35157 H 4020.76 4.11495 -0.705564 0
M  V30 35158 H 4022.15 4.81516 -4.68607 0
M  V30 35159 N 4024.87 1.05318 1.17243 0
M  V30 35160 C 4026.11 0.762504 1.87164 0
M  V30 35161 C 4026.44 -0.712655 1.81511 0
M  V30 35162 O 4025.71 -1.51502 1.24193 0
M  V30 35163 H 4024.29 0.279066 0.692915 0
M  V30 35164 H 4026.95 1.3326 1.42224 0
M  V30 35165 H 4026.04 1.07859 2.9287 0
M  V30 35166 N 4026.34 -1.33701 0.834377 0
M  V30 35167 C 4027.57 -2.02672 0.440304 0
M  V30 35168 C 4027.99 -1.62382 -0.949407 0
M  V30 35169 O 4027.35 -0.814159 -1.61991 0
M  V30 35170 C 4027.4 -3.56169 0.563552 0
M  V30 35171 O 4026.5 -4.10337 -0.412021 0
M  V30 35172 H 4025.85 -0.639244 0.17962 0
M  V30 35173 H 4028.38 -1.70699 1.12797 0
M  V30 35174 H 4028.39 -4.05582 0.443535 0
M  V30 35175 H 4027.06 -3.84839 1.57707 0
M  V30 35176 H 4025.64 -3.72061 -0.249936 0
M  V30 35177 N 4027.82 -0.590393 -1.46124 0
M  V30 35178 C 4029.05 -0.0847664 -2.06726 0
M  V30 35179 C 4029.47 1.22351 -1.4379 0
M  V30 35180 O 4028.82 1.74144 -0.545907 0
M  V30 35181 C 4028.87 0.0795915 -3.61412 0
M  V30 35182 O 4028.59 -1.17691 -4.21996 0
M  V30 35183 C 4030.1 0.618677 -4.38962 0
M  V30 35184 H 4027.32 -0.0609642 -0.668225 0
M  V30 35185 H 4029.86 -0.813245 -1.87634 0
M  V30 35186 H 4028.01 0.758323 -3.79906 0
M  V30 35187 H 4028.43 -0.995618 -5.14964 0
M  V30 35188 H 4029.9 0.68283 -5.4776 0
M  V30 35189 H 4030.38 1.63731 -4.0754 0
M  V30 35190 H 4030.99 -0.0254379 -4.25292 0
M  V30 35191 N 4029.3 1.54136 -0.328591 0
M  V30 35192 C 4030.53 2.05542 0.277008 0
M  V30 35193 C 4030.95 1.20288 1.44611 0
M  V30 35194 O 4030.31 0.213139 1.80043 0
M  V30 35195 C 4030.36 3.54045 0.684433 0
M  V30 35196 O 4029.46 3.71709 1.78623 0
M  V30 35197 H 4028.8 0.662185 0.0490663 0
M  V30 35198 H 4031.33 1.98927 -0.478461 0
M  V30 35199 H 4031.34 3.96406 0.965714 0
M  V30 35200 H 4030.02 4.1555 -0.170627 0
M  V30 35201 H 4028.59 3.41253 1.50337 0
M  V30 35202 N 4030.78 0.0568716 1.57497 0
M  V30 35203 C 4032.03 -0.614418 1.92534 0
M  V30 35204 C 4032.35 -1.71045 0.936403 0
M  V30 35205 O 4031.62 -1.95892 -0.0178459 0
M  V30 35206 H 4030.2 -0.229945 0.710728 0
M  V30 35207 H 4032.86 0.111215 1.94582 0
M  V30 35208 H 4031.96 -1.04936 2.9393 0
M  V30 35209 N 4032.26 -1.56105 -0.216564 0
M  V30 35210 C 4033.19 -1.89316 -1.29198 0
M  V30 35211 C 4034.2 -0.781857 -1.42797 0
M  V30 35212 O 4035.39 -1.06018 -1.43605 0
M  V30 35213 C 4032.49 -2.09107 -2.66697 0
M  V30 35214 C 4031.66 -3.40152 -2.74983 0
M  V30 35215 C 4030.72 -3.49315 -3.9353 0
M  V30 35216 O 4029.75 -4.22307 -3.81635 0
M  V30 35217 N 4030.95 -2.80823 -5.08054 0
M  V30 35218 H 4033.72 -2.82157 -1.01033 0
M  V30 35219 H 4031.28 -1.56712 -0.406583 0
M  V30 35220 H 4033.27 -2.12547 -3.44392 0
M  V30 35221 H 4031.84 -1.22868 -2.87441 0
M  V30 35222 H 4031.06 -3.48766 -1.83727 0
M  V30 35223 H 4032.35 -4.26468 -2.77493 0
M  V30 35224 H 4031.74 -2.21308 -5.20614 0
M  V30 35225 H 4030.3 -2.89918 -5.83773 0
M  V30 35226 N 4033.73 0.483463 -1.50001 0
M  V30 35227 C 4034.96 1.2647 -1.64378 0
M  V30 35228 C 4035.38 1.85324 -0.321944 0
M  V30 35229 O 4034.74 1.66705 0.712685 0
M  V30 35230 C 4034.79 2.35814 -2.72808 0
M  V30 35231 O 4033.89 3.40135 -2.332 0
M  V30 35232 H 4033.24 0.372614 -0.549595 0
M  V30 35233 H 4035.77 0.576806 -1.96301 0
M  V30 35234 H 4035.78 2.81315 -2.9551 0
M  V30 35235 H 4034.45 1.92347 -3.68749 0
M  V30 35236 H 4033.03 3.00432 -2.20896 0
M  V30 35237 N 4035.21 1.39371 0.735772 0
M  V30 35238 C 4036.44 1.40009 1.5301 0
M  V30 35239 C 4036.86 -0.0036507 1.881 0
M  V30 35240 O 4036.22 -0.990443 1.51855 0
M  V30 35241 C 4036.27 2.27879 2.7947 0
M  V30 35242 O 4035.37 1.70814 3.75361 0
M  V30 35243 H 4034.71 0.476814 0.462108 0
M  V30 35244 H 4037.24 1.83356 0.907836 0
M  V30 35245 H 4037.25 2.42364 3.28213 0
M  V30 35246 H 4035.93 3.29895 2.53263 0
M  V30 35247 H 4034.51 1.65568 3.34128 0
M  V30 35248 N 4036.69 -0.965875 1.24534 0
M  V30 35249 C 4037.92 -1.74399 1.11321 0
M  V30 35250 C 4038.33 -1.85821 -0.334078 0
M  V30 35251 O 4037.69 -1.34785 -1.23042 0
M  V30 35252 C 4037.74 -3.16355 1.74933 0
M  V30 35253 O 4037.46 -3.05505 3.14004 0
M  V30 35254 C 4038.96 -4.10497 1.67354 0
M  V30 35255 H 4036.18 -0.546846 0.388845 0
M  V30 35256 H 4038.73 -1.21252 1.64676 0
M  V30 35257 H 4036.88 -3.66482 1.25577 0
M  V30 35258 H 4037.3 -3.94973 3.45104 0
M  V30 35259 H 4038.77 -5.07753 2.16542 0
M  V30 35260 H 4039.25 -4.34584 0.635113 0
M  V30 35261 H 4039.85 -3.6628 2.16146 0
M  V30 35262 N 4038.17 -1.05938 -1.16683 0
M  V30 35263 C 4039.42 -0.773947 -1.87126 0
M  V30 35264 C 4039.74 0.699402 -1.8149 0
M  V30 35265 O 4039 1.52788 -1.22288 0
M  V30 35266 C 4039.3 -1.20929 -3.3632 0
M  V30 35267 C 4038.96 -2.68614 -3.62157 0
M  V30 35268 C 4037.63 -3.08955 -3.68917 0
M  V30 35269 C 4039.98 -3.64011 -3.73022 0
M  V30 35270 C 4037.31 -4.43542 -3.84041 0
M  V30 35271 C 4039.66 -4.9834 -3.89667 0
M  V30 35272 C 4038.32 -5.38324 -3.94668 0
M  V30 35273 H 4037.59 -0.283207 -0.684744 0
M  V30 35274 H 4040.24 -1.32783 -1.37989 0
M  V30 35275 H 4038.54 -0.57454 -3.87565 0
M  V30 35276 H 4040.24 -0.965537 -3.89202 0
M  V30 35277 H 4036.83 -2.36377 -3.57525 0
M  V30 35278 H 4041.02 -3.33979 -3.67113 0
M  V30 35279 H 4036.27 -4.74011 -3.86165 0
M  V30 35280 H 4040.45 -5.72146 -3.97016 0
M  V30 35281 H 4038.07 -6.42616 -4.0614 0
M  V30 35282 N 4039.65 1.33256 -0.841456 0
M  V30 35283 C 4040.92 1.92254 -0.360238 0
M  V30 35284 C 4041.3 1.76719 1.15471 0
M  V30 35285 O 4040.65 1.15716 1.97033 0
M  V30 35286 C 4040.86 3.3947 -0.810002 0
M  V30 35287 C 4042.21 4.16616 -0.819517 0
M  V30 35288 O 4043.23 3.48133 -0.753776 0
M  V30 35289 O 4042.09 5.38876 -0.909648 0
M  V30 35290 H 4039.19 0.820627 -0.102473 0
M  V30 35291 H 4041.73 1.42112 -0.92748 0
M  V30 35292 H 4040.51 3.44661 -1.85269 0
M  V30 35293 H 4040.13 3.96994 -0.219476 0
M  V30 35294 N 4041.13 0.598134 1.45809 0
M  V30 35295 C 4042.06 -0.164231 2.28611 0
M  V30 35296 C 4043.07 -0.840802 1.39407 0
M  V30 35297 O 4044.26 -0.707776 1.63868 0
M  V30 35298 C 4041.36 -1.25301 3.14886 0
M  V30 35299 C 4040.53 -0.665384 4.32309 0
M  V30 35300 C 4039.59 -1.64383 4.99865 0
M  V30 35301 O 4038.62 -1.17383 5.56965 0
M  V30 35302 N 4039.82 -2.97816 4.98283 0
M  V30 35303 H 4042.58 0.546233 2.9468 0
M  V30 35304 H 4040.15 0.436961 1.55892 0
M  V30 35305 H 4042.14 -1.90718 3.56944 0
M  V30 35306 H 4040.71 -1.86612 2.50788 0
M  V30 35307 H 4039.93 0.166636 3.93848 0
M  V30 35308 H 4041.22 -0.252848 5.08171 0
M  V30 35309 H 4040.61 -3.38611 4.53165 0
M  V30 35310 H 4039.17 -3.58681 5.44234 0
M  V30 35311 N 4042.6 -1.5396 0.33676 0
M  V30 35312 C 4043.51 -2.28494 -0.531772 0
M  V30 35313 C 4044.53 -1.33345 -1.11782 0
M  V30 35314 O 4045.71 -1.66375 -1.13496 0
M  V30 35315 C 4042.77 -3.03815 -1.67025 0
M  V30 35316 C 4041.83 -4.14576 -1.11468 0
M  V30 35317 C 4041.06 -4.86296 -2.1989 0
M  V30 35318 O 4041.29 -4.57631 -3.40484 0
M  V30 35319 O 4040.22 -5.72904 -1.84566 0
M  V30 35320 H 4044.05 -3.0361 0.0739157 0
M  V30 35321 H 4041.63 -1.49051 0.102022 0
M  V30 35322 H 4043.51 -3.5094 -2.33279 0
M  V30 35323 H 4042.19 -2.31562 -2.26188 0
M  V30 35324 H 4041.1 -3.7177 -0.41685 0
M  V30 35325 H 4042.43 -4.88912 -0.568006 0
M  V30 35326 N 4044.08 -0.0652232 -1.57465 0
M  V30 35327 C 4045.33 0.604199 -1.92857 0
M  V30 35328 C 4045.65 1.70546 -0.945461 0
M  V30 35329 O 4044.92 1.95899 0.007457 0
M  V30 35330 H 4043.5 0.226173 -0.711937 0
M  V30 35331 H 4046.16 -0.121533 -1.94521 0
M  V30 35332 H 4045.26 1.03376 -2.94482 0
M  V30 35333 N 4045.56 1.56218 0.208282 0
M  V30 35334 C 4046.78 1.84292 0.951371 0
M  V30 35335 C 4047.21 0.647199 1.76615 0
M  V30 35336 O 4046.57 -0.40405 1.7674 0
M  V30 35337 C 4046.62 3.1048 1.83398 0
M  V30 35338 O 4045.72 2.90106 2.93108 0
M  V30 35339 H 4045.06 0.607222 0.268658 0
M  V30 35340 H 4047.59 2.0344 0.217582 0
M  V30 35341 H 4047.6 3.40931 2.24121 0
M  V30 35342 H 4046.28 3.97134 1.23521 0
M  V30 35343 H 4044.85 2.70921 2.56235 0
M  V30 35344 N 4047.04 -0.475502 1.50256 0
M  V30 35345 C 4048.26 -1.25597 1.65046 0
M  V30 35346 C 4048.69 -1.85151 0.331768 0
M  V30 35347 O 4048.05 -1.6708 -0.703834 0
M  V30 35348 C 4048.09 -2.34364 2.74054 0
M  V30 35349 O 4047.2 -3.38893 2.35 0
M  V30 35350 H 4046.54 -0.369694 0.551563 0
M  V30 35351 H 4049.07 -0.566388 1.96604 0
M  V30 35352 H 4049.08 -2.79743 2.96998 0
M  V30 35353 H 4047.75 -1.90388 3.69764 0
M  V30 35354 H 4046.33 -2.99256 2.22487 0
M  V30 35355 N 4048.52 -1.39759 -0.72837 0
M  V30 35356 C 4049.74 -1.40631 -1.51758 0
M  V30 35357 C 4050.16 -0.00257228 -1.888 0
M  V30 35358 O 4049.52 0.9704 -1.54562 0
M  V30 35359 C 4049.57 -2.28533 -2.80098 0
M  V30 35360 O 4049.29 -3.63441 -2.44627 0
M  V30 35361 C 4050.79 -2.3786 -3.74082 0
M  V30 35362 H 4048.01 -0.480111 -0.468758 0
M  V30 35363 H 4050.55 -1.83655 -0.899497 0
M  V30 35364 H 4048.71 -1.88904 -3.38222 0
M  V30 35365 H 4049.12 -4.09994 -3.27117 0
M  V30 35366 H 4050.6 -3.03599 -4.61011 0
M  V30 35367 H 4051.07 -1.39975 -4.16298 0
M  V30 35368 H 4051.68 -2.77986 -3.21875 0
M  V30 35369 N 4049.99 0.959257 -1.25044 0
M  V30 35370 C 4051.24 1.69993 -1.09301 0
M  V30 35371 C 4051.56 1.91506 0.367473 0
M  V30 35372 O 4050.83 1.49885 1.26139 0
M  V30 35373 H 4049.41 0.629938 -0.40148 0
M  V30 35374 H 4052.07 1.15356 -1.57096 0
M  V30 35375 H 4051.17 2.68104 -1.5977 0
M  V30 35376 N 4051.47 1.06556 1.16119 0
M  V30 35377 C 4052.4 0.636656 2.2018 0
M  V30 35378 C 4053.42 -0.306703 1.59885 0
M  V30 35379 O 4054.61 -0.0972787 1.78235 0
M  V30 35380 C 4051.71 -0.0864945 3.3879 0
M  V30 35381 C 4050.88 0.871016 4.2864 0
M  V30 35382 C 4049.94 0.186631 5.25869 0
M  V30 35383 O 4048.96 0.825127 5.63188 0
M  V30 35384 N 4050.17 -1.0708 5.70538 0
M  V30 35385 H 4052.93 1.5318 2.57597 0
M  V30 35386 H 4050.49 0.949208 1.31155 0
M  V30 35387 H 4052.48 -0.554811 4.00879 0
M  V30 35388 H 4051.05 -0.883472 2.99856 0
M  V30 35389 H 4050.27 1.51864 3.63773 0
M  V30 35390 H 4051.56 1.52049 4.8555 0
M  V30 35391 H 4050.96 -1.60963 5.42317 0
M  V30 35392 H 4049.52 -1.48294 6.34706 0
M  V30 35393 N 4052.95 -1.32808 0.848511 0
M  V30 35394 C 4054.18 -2.02194 0.461775 0
M  V30 35395 C 4054.6 -1.6338 -0.932131 0
M  V30 35396 O 4053.96 -0.831295 -1.61119 0
M  V30 35397 C 4054.01 -3.55551 0.601296 0
M  V30 35398 O 4053.11 -4.10751 -0.368476 0
M  V30 35399 H 4052.45 -0.637303 0.18639 0
M  V30 35400 H 4054.98 -1.69493 1.14601 0
M  V30 35401 H 4054.99 -4.05089 0.486528 0
M  V30 35402 H 4053.67 -3.83145 1.6178 0
M  V30 35403 H 4052.24 -3.72306 -0.210459 0
M  V30 35404 N 4054.43 -0.605858 -1.45489 0
M  V30 35405 C 4055.65 -0.104874 -2.07135 0
M  V30 35406 C 4056.08 1.20082 -1.44782 0
M  V30 35407 O 4055.44 1.73074 -0.539906 0
M  V30 35408 C 4055.48 0.0231224 -3.60593 0
M  V30 35409 O 4054.59 1.07379 -3.98175 0
M  V30 35410 H 4053.93 -0.0732807 -0.659944 0
M  V30 35411 H 4056.46 -0.835376 -1.86769 0
M  V30 35412 H 4056.47 0.221892 -4.07396 0
M  V30 35413 H 4055.14 -0.930282 -4.05362 0
M  V30 35414 H 4053.72 0.851625 -3.63045 0
M  V30 35415 N 4055.91 1.53779 -0.34492 0
M  V30 35416 C 4057.13 2.05824 0.255192 0
M  V30 35417 C 4057.56 1.21815 1.43327 0
M  V30 35418 O 4056.91 0.232223 1.79807 0
M  V30 35419 C 4056.96 3.54751 0.646843 0
M  V30 35420 O 4056.07 3.73583 1.7467 0
M  V30 35421 H 4055.41 0.662668 0.0420402 0
M  V30 35422 H 4057.94 1.98408 -0.499533 0
M  V30 35423 H 4057.95 3.97408 0.923616 0
M  V30 35424 H 4056.62 4.15345 -0.214692 0
M  V30 35425 H 4055.2 3.42828 1.46709 0
M  V30 35426 N 4057.38 0.0735731 1.57428 0
M  V30 35427 C 4058.61 -0.603237 1.97597 0
M  V30 35428 C 4059.02 -1.63577 0.950744 0
M  V30 35429 O 4058.37 -1.83564 -0.070713 0
M  V30 35430 C 4058.43 -1.32778 3.34081 0
M  V30 35431 C 4058.09 -0.448506 4.54794 0
M  V30 35432 C 4059.09 0.294627 5.19065 0
M  V30 35433 C 4056.77 -0.372864 5.00914 0
M  V30 35434 C 4058.77 1.10161 6.27808 0
M  V30 35435 C 4056.45 0.437786 6.0953 0
M  V30 35436 C 4057.45 1.17369 6.7284 0
M  V30 35437 O 4057.14 1.97096 7.79364 0
M  V30 35438 H 4056.87 -0.168096 0.654767 0
M  V30 35439 H 4059.43 0.143049 2.04901 0
M  V30 35440 H 4057.66 -2.12018 3.23397 0
M  V30 35441 H 4059.35 -1.897 3.58843 0
M  V30 35442 H 4060.11 0.245792 4.84377 0
M  V30 35443 H 4055.99 -0.935283 4.51413 0
M  V30 35444 H 4059.53 1.67651 6.77155 0
M  V30 35445 H 4055.43 0.488179 6.43651 0
M  V30 35446 H 4056.2 1.89547 7.9625 0
M  V30 35447 N 4058.86 -1.56326 -0.199995 0
M  V30 35448 C 4060.11 -1.7998 -0.919323 0
M  V30 35449 C 4060.43 -0.645799 -1.83996 0
M  V30 35450 O 4059.7 0.336152 -1.92994 0
M  V30 35451 H 4058.28 -0.663876 -0.342457 0
M  V30 35452 H 4060.94 -1.93801 -0.206679 0
M  V30 35453 H 4060.04 -2.72954 -1.51336 0
M  V30 35454 N 4060.34 0.467527 -1.50506 0
M  V30 35455 C 4061.29 1.56277 -1.66017 0
M  V30 35456 C 4062.27 1.52446 -0.514697 0
M  V30 35457 O 4063.47 1.59409 -0.769266 0
M  V30 35458 C 4060.6 2.94697 -1.76093 0
M  V30 35459 C 4059.68 3.03398 -2.96328 0
M  V30 35460 N 4060.07 2.81906 -4.19955 0
M  V30 35461 C 4058.37 3.34537 -2.94959 0
M  V30 35462 C 4059.07 2.95667 -5.00955 0
M  V30 35463 N 4058.05 3.26023 -4.34982 0
M  V30 35464 H 4061.85 1.38365 -2.59292 0
M  V30 35465 H 4059.36 0.674321 -1.47739 0
M  V30 35466 H 4061.36 3.73451 -1.8531 0
M  V30 35467 H 4060.02 3.13652 -0.839789 0
M  V30 35468 H 4061.03 2.57418 -4.49395 0
M  V30 35469 H 4057.71 3.59458 -2.12359 0
M  V30 35470 H 4059.1 2.8326 -6.09273 0
M  V30 35471 N 4061.82 1.40143 0.720948 0
M  V30 35472 C 4063.23 1.22055 1.02833 0
M  V30 35473 C 4063.43 0.0919844 2.0129 0
M  V30 35474 O 4062.49 -0.551854 2.46396 0
M  V30 35475 C 4063.8 2.56019 1.57718 0
M  V30 35476 C 4065.35 2.62985 1.69729 0
M  V30 35477 C 4065.83 3.97204 2.2802 0
M  V30 35478 N 4067.32 3.98917 2.35413 0
M  V30 35479 C 4068.05 4.99553 2.81486 0
M  V30 35480 N 4067.55 6.10584 3.27351 0
M  V30 35481 N 4069.34 4.86924 2.80822 0
M  V30 35482 H 4061.49 2.1229 0.0682337 0
M  V30 35483 H 4063.76 0.943439 0.0928786 0
M  V30 35484 H 4063.46 3.39226 0.928365 0
M  V30 35485 H 4063.34 2.7673 2.56321 0
M  V30 35486 H 4065.72 1.80152 2.33729 0
M  V30 35487 H 4065.8 2.4611 0.6974 0
M  V30 35488 H 4065.45 4.80473 1.64644 0
M  V30 35489 H 4065.38 4.11406 3.28713 0
M  V30 35490 H 4067.87 3.18738 2.03013 0
M  V30 35491 H 4068.18 6.83269 3.61059 0
M  V30 35492 H 4066.53 6.14157 3.25324 0
M  V30 35493 H 4069.72 3.99279 2.44323 0
M  V30 35494 H 4069.89 5.65497 3.16413 0
M  V30 35495 N 4063.3 -0.952612 1.25551 0
M  V30 35496 C 4064.54 -1.69411 1.10201 0
M  V30 35497 C 4064.87 -1.91698 -0.357312 0
M  V30 35498 O 4064.14 -1.50552 -1.25343 0
M  V30 35499 H 4062.72 -0.6278 0.404816 0
M  V30 35500 H 4065.38 -1.14521 1.57705 0
M  V30 35501 H 4064.47 -2.67253 1.6119 0
M  V30 35502 N 4064.77 -1.0717 -1.15553 0
M  V30 35503 C 4066 -0.814866 -1.90722 0
M  V30 35504 C 4066.42 0.625909 -1.77381 0
M  V30 35505 O 4065.78 1.43716 -1.10523 0
M  V30 35506 C 4065.83 -1.22557 -3.39134 0
M  V30 35507 O 4064.93 -0.369749 -4.10739 0
M  V30 35508 H 4064.28 -0.297027 -0.593861 0
M  V30 35509 H 4066.81 -1.42983 -1.46345 0
M  V30 35510 H 4066.82 -1.20096 -3.89924 0
M  V30 35511 H 4065.49 -2.27498 -3.48163 0
M  V30 35512 H 4064.07 -0.456691 -3.70093 0
M  V30 35513 N 4066.25 1.32356 -0.855542 0
M  V30 35514 C 4067.5 1.96832 -0.458449 0
M  V30 35515 C 4067.82 1.68034 0.989431 0
M  V30 35516 O 4067.09 0.988025 1.69159 0
M  V30 35517 H 4065.67 0.728199 -0.16654 0
M  V30 35518 H 4068.33 1.61424 -1.09216 0
M  V30 35519 H 4067.43 3.06195 -0.604239 0
M  V30 35520 N 4067.73 0.613565 1.45166 0
M  V30 35521 C 4068.96 0.115858 2.07076 0
M  V30 35522 C 4069.38 -1.19313 1.45417 0
M  V30 35523 O 4068.74 -1.72786 0.549077 0
M  V30 35524 C 4068.79 -0.00399901 3.606 0
M  V30 35525 O 4067.89 -1.05266 3.98739 0
M  V30 35526 H 4067.23 0.0767795 0.659546 0
M  V30 35527 H 4069.76 0.845269 1.86323 0
M  V30 35528 H 4069.77 -0.200284 4.07508 0
M  V30 35529 H 4068.45 0.951766 4.04863 0
M  V30 35530 H 4067.02 -0.83236 3.63492 0
M  V30 35531 N 4069.21 -1.53594 0.353071 0
M  V30 35532 C 4070.43 -2.05956 -0.244273 0
M  V30 35533 C 4070.86 -1.22573 -1.42679 0
M  V30 35534 O 4070.22 -0.241755 -1.79681 0
M  V30 35535 C 4070.27 -3.55089 -0.628021 0
M  V30 35536 O 4069.37 -3.74504 -1.72687 0
M  V30 35537 H 4068.71 -0.662881 -0.0385253 0
M  V30 35538 H 4071.24 -1.98141 0.510048 0
M  V30 35539 H 4071.25 -3.97893 -0.902527 0
M  V30 35540 H 4069.93 -4.15226 0.236716 0
M  V30 35541 H 4068.5 -3.43601 -1.44889 0
M  V30 35542 N 4070.69 -0.0819208 -1.57387 0
M  V30 35543 C 4071.62 0.911502 -2.10296 0
M  V30 35544 C 4072.63 1.25476 -1.03729 0
M  V30 35545 O 4073.82 1.21017 -1.31214 0
M  V30 35546 C 4070.92 2.22444 -2.5568 0
M  V30 35547 C 4070.09 2.0585 -3.85933 0
M  V30 35548 C 4069.15 3.20538 -4.17303 0
M  V30 35549 O 4068.18 2.95082 -4.8674 0
M  V30 35550 N 4069.38 4.4593 -3.71655 0
M  V30 35551 H 4072.15 0.459705 -2.96153 0
M  V30 35552 H 4069.71 0.103539 -1.61569 0
M  V30 35553 H 4071.7 2.98093 -2.7372 0
M  V30 35554 H 4070.27 2.59089 -1.74904 0
M  V30 35555 H 4069.49 1.14608 -3.77172 0
M  V30 35556 H 4070.78 1.92025 -4.71173 0
M  V30 35557 H 4070.18 4.69496 -3.15579 0
M  V30 35558 H 4068.73 5.18572 -3.94875 0
M  V30 35559 N 4072.17 1.5643 0.191702 0
M  V30 35560 C 4073.39 1.85291 0.931771 0
M  V30 35561 C 4073.82 0.665895 1.75919 0
M  V30 35562 O 4073.17 -0.385282 1.77159 0
M  V30 35563 C 4073.22 3.12407 1.80094 0
M  V30 35564 O 4072.33 2.93198 2.90015 0
M  V30 35565 H 4071.67 0.610038 0.262202 0
M  V30 35566 H 4074.2 2.03659 0.195992 0
M  V30 35567 H 4074.21 3.43288 2.20493 0
M  V30 35568 H 4072.88 3.98422 1.19302 0
M  V30 35569 H 4071.46 2.73623 2.53347 0
M  V30 35570 N 4073.64 -0.459538 1.50751 0
M  V30 35571 C 4074.87 -1.23839 1.66369 0
M  V30 35572 C 4075.29 -1.84789 0.351387 0
M  V30 35573 O 4074.65 -1.67818 -0.686073 0
M  V30 35574 C 4074.7 -2.31444 2.76525 0
M  V30 35575 O 4073.8 -3.36382 2.38582 0
M  V30 35576 H 4073.14 -0.363823 0.555454 0
M  V30 35577 H 4075.67 -0.545503 1.97194 0
M  V30 35578 H 4075.68 -2.76578 2.99948 0
M  V30 35579 H 4074.36 -1.86456 3.71762 0
M  V30 35580 H 4072.94 -2.96879 2.25648 0
M  V30 35581 N 4075.12 -1.40523 -0.713506 0
M  V30 35582 C 4076.37 -1.38639 -1.47049 0
M  V30 35583 C 4076.69 0.00981046 -1.94998 0
M  V30 35584 O 4075.96 0.964929 -1.70487 0
M  V30 35585 H 4074.54 -0.510259 -0.545568 0
M  V30 35586 H 4077.2 -1.75596 -0.845689 0
M  V30 35587 H 4076.3 -2.06256 -2.34233 0
M  V30 35588 N 4076.6 0.94594 -1.26054 0
M  V30 35589 C 4077.83 1.72356 -1.13916 0
M  V30 35590 C 4078.24 1.86662 0.308852 0
M  V30 35591 O 4077.58 1.37014 1.22364 0
M  V30 35592 C 4077.64 3.15141 -1.72992 0
M  V30 35593 C 4077.31 3.24236 -3.22056 0
M  V30 35594 C 4078.3 3.07878 -4.18935 0
M  V30 35595 C 4075.99 3.47778 -3.6243 0
M  V30 35596 C 4077.98 3.14924 -5.54168 0
M  V30 35597 C 4075.67 3.54459 -4.97797 0
M  V30 35598 C 4076.67 3.38047 -5.93475 0
M  V30 35599 O 4076.36 3.44427 -7.26378 0
M  V30 35600 H 4076.09 0.546615 -0.397729 0
M  V30 35601 H 4078.64 1.19473 -1.67079 0
M  V30 35602 H 4076.87 3.69426 -1.14287 0
M  V30 35603 H 4078.56 3.74796 -1.55828 0
M  V30 35604 H 4079.33 2.89551 -3.89083 0
M  V30 35605 H 4075.21 3.5961 -2.88447 0
M  V30 35606 H 4078.75 3.02031 -6.28827 0
M  V30 35607 H 4074.65 3.72306 -5.27313 0
M  V30 35608 H 4075.41 3.61001 -7.34588 0
M  V30 35609 N 4078.08 1.07781 1.14983 0
M  V30 35610 C 4079.33 0.802032 1.85504 0
M  V30 35611 C 4079.65 -0.673994 1.82982 0
M  V30 35612 O 4078.92 -1.48834 1.27379 0
M  V30 35613 H 4077.5 0.293701 0.68684 0
M  V30 35614 H 4080.16 1.36247 1.39366 0
M  V30 35615 H 4079.25 1.14047 2.90516 0
M  V30 35616 N 4079.56 -1.31901 0.862549 0
M  V30 35617 C 4080.97 -1.49696 0.553464 0
M  V30 35618 C 4081.17 -1.79572 -0.914114 0
M  V30 35619 O 4080.23 -1.86997 -1.69672 0
M  V30 35620 C 4081.54 -2.6358 1.44727 0
M  V30 35621 C 4083.09 -2.77465 1.44853 0
M  V30 35622 C 4083.56 -3.94437 2.32773 0
M  V30 35623 N 4085.05 -4.01712 2.30612 0
M  V30 35624 C 4085.79 -4.91474 2.95365 0
M  V30 35625 N 4085.29 -5.8619 3.6926 0
M  V30 35626 N 4087.08 -4.8466 2.84712 0
M  V30 35627 H 4079.23 -1.10776 1.81225 0
M  V30 35628 H 4081.49 -0.546692 0.774488 0
M  V30 35629 H 4081.2 -2.48256 2.49122 0
M  V30 35630 H 4081.07 -3.59548 1.1404 0
M  V30 35631 H 4083.46 -2.92207 0.412195 0
M  V30 35632 H 4083.54 -1.82186 1.7956 0
M  V30 35633 H 4083.18 -3.80453 3.36479 0
M  V30 35634 H 4083.11 -4.89008 1.95394 0
M  V30 35635 H 4085.61 -3.33941 1.76894 0
M  V30 35636 H 4085.92 -6.51396 4.15815 0
M  V30 35637 H 4084.26 -5.86192 3.73368 0
M  V30 35638 H 4087.45 -4.09638 2.26527 0
M  V30 35639 H 4087.63 -5.54412 3.35457 0
M  V30 35640 N 4081.03 -0.621255 -1.44838 0
M  V30 35641 C 4081.98 0.111233 -2.27729 0
M  V30 35642 C 4082.97 0.825596 -1.38104 0
M  V30 35643 O 4084.16 0.713331 -1.61989 0
M  V30 35644 C 4081.29 1.09881 -3.2524 0
M  V30 35645 C 4080.38 0.384578 -4.22353 0
M  V30 35646 N 4080.77 -0.581365 -5.02448 0
M  V30 35647 C 4079.06 0.630336 -4.41523 0
M  V30 35648 C 4079.77 -1.00244 -5.72997 0
M  V30 35649 N 4078.74 -0.343296 -5.42515 0
M  V30 35650 H 4082.54 -0.630457 -2.87058 0
M  V30 35651 H 4080.06 -0.445983 -1.56156 0
M  V30 35652 H 4082.05 1.63809 -3.8337 0
M  V30 35653 H 4080.71 1.84091 -2.67471 0
M  V30 35654 H 4081.73 -0.958738 -5.08949 0
M  V30 35655 H 4078.4 1.35606 -3.94864 0
M  V30 35656 H 4079.79 -1.7999 -6.47343 0
M  V30 35657 N 4082.51 1.53405 -0.361211 0
M  V30 35658 C 4083.76 2.00794 0.229392 0
M  V30 35659 C 4084.08 1.25032 1.4964 0
M  V30 35660 O 4083.35 0.362367 1.92519 0
M  V30 35661 H 4081.93 0.741827 0.0877557 0
M  V30 35662 H 4084.59 1.88732 -0.486439 0
M  V30 35663 H 4083.69 3.087 0.45945 0
M  V30 35664 N 4083.99 0.0902663 1.57341 0
M  V30 35665 C 4084.95 -0.855879 2.1262 0
M  V30 35666 C 4085.95 -1.21408 1.05436 0
M  V30 35667 O 4087.14 -1.14431 1.31344 0
M  V30 35668 C 4084.28 -2.15333 2.64281 0
M  V30 35669 H 4085.47 -0.375962 2.97534 0
M  V30 35670 H 4083.02 -0.158672 1.55493 0
M  V30 35671 H 4083.76 -2.6782 1.82873 0
M  V30 35672 H 4083.54 -1.90624 3.42644 0
M  V30 35673 H 4085.03 -2.83027 3.0706 0
M  V30 35674 N 4085.47 -1.56529 -0.183403 0
M  V30 35675 C 4086.72 -1.80945 -0.900182 0
M  V30 35676 C 4087.04 -0.665278 -1.833 0
M  V30 35677 O 4086.31 0.315663 -1.9334 0
M  V30 35678 H 4084.89 -0.667471 -0.335397 0
M  V30 35679 H 4087.55 -1.94009 -0.186112 0
M  V30 35680 H 4086.65 -2.74544 -1.48432 0
M  V30 35681 N 4086.95 0.451537 -1.50993 0
M  V30 35682 C 4088.17 1.22955 -1.67023 0
M  V30 35683 C 4088.6 1.846 -0.361182 0
M  V30 35684 O 4087.95 1.68179 0.677164 0
M  V30 35685 C 4088 2.29975 -2.77748 0
M  V30 35686 O 4087.11 3.35112 -2.40362 0
M  V30 35687 H 4086.45 0.360872 -0.557375 0
M  V30 35688 H 4088.98 0.535038 -1.9748 0
M  V30 35689 H 4088.99 2.74983 -3.01411 0
M  V30 35690 H 4087.66 1.84482 -3.72746 0
M  V30 35691 H 4086.24 2.95679 -2.27219 0
M  V30 35692 N 4088.42 1.409 0.706044 0
M  V30 35693 C 4089.67 1.39417 1.46312 0
M  V30 35694 C 4089.99 0.000530869 1.95 0
M  V30 35695 O 4089.26 -0.955874 1.70997 0
M  V30 35696 H 4087.84 0.513145 0.542854 0
M  V30 35697 H 4090.51 1.76042 0.836365 0
M  V30 35698 H 4089.6 2.07495 2.33136 0
M  V30 35699 N 4089.9 -0.939242 1.26554 0
M  V30 35700 C 4090.83 -2.04209 1.04073 0
M  V30 35701 C 4091.85 -1.628 0.000534908 0
M  V30 35702 O 4093.04 -1.76868 0.240825 0
M  V30 35703 C 4090.14 -3.34334 0.554406 0
M  V30 35704 C 4089.31 -4.04501 1.66427 0
M  V30 35705 C 4088.37 -5.12898 1.17567 0
M  V30 35706 O 4087.39 -5.37497 1.87312 0
M  V30 35707 N 4088.6 -5.80495 0.0251273 0
M  V30 35708 H 4091.36 -2.24061 1.9904 0
M  V30 35709 H 4088.92 -1.10885 1.17966 0
M  V30 35710 H 4090.91 -4.04146 0.211677 0
M  V30 35711 H 4089.48 -3.1114 -0.301724 0
M  V30 35712 H 4088.7 -3.28578 2.17785 0
M  V30 35713 H 4089.99 -4.48131 2.40947 0
M  V30 35714 H 4089.39 -5.62948 -0.557279 0
M  V30 35715 H 4087.95 -6.51287 -0.258511 0
M  V30 35716 N 4091.38 -1.08389 -1.14409 0
M  V30 35717 C 4092.61 -0.835048 -1.89847 0
M  V30 35718 C 4093.03 0.60706 -1.78035 0
M  V30 35719 O 4092.39 1.42536 -1.12041 0
M  V30 35720 C 4092.44 -1.26147 -3.37815 0
M  V30 35721 O 4091.54 -0.413292 -4.10324 0
M  V30 35722 H 4090.88 -0.303309 -0.590677 0
M  V30 35723 H 4093.41 -1.44527 -1.44821 0
M  V30 35724 H 4093.42 -1.24225 -3.88629 0
M  V30 35725 H 4092.1 -2.31178 -3.4573 0
M  V30 35726 H 4090.67 -0.495919 -3.69588 0
M  V30 35727 N 4092.86 1.31442 -0.869532 0
M  V30 35728 C 4093.79 2.31001 -0.340719 0
M  V30 35729 C 4094.77 1.60331 0.568158 0
M  V30 35730 O 4095.95 1.88039 0.485272 0
M  V30 35731 C 4093.08 3.44253 0.45903 0
M  V30 35732 C 4092.04 4.26511 -0.356714 0
M  V30 35733 C 4091.36 5.31667 0.568692 0
M  V30 35734 C 4092.66 4.97493 -1.59054 0
M  V30 35735 H 4094.36 2.7548 -1.17265 0
M  V30 35736 H 4091.9 1.32439 -0.565323 0
M  V30 35737 H 4093.86 4.12953 0.8395 0
M  V30 35738 H 4092.58 2.98539 1.32446 0
M  V30 35739 H 4091.24 3.59478 -0.719126 0
M  V30 35740 H 4090.89 4.82203 1.43139 0
M  V30 35741 H 4090.59 5.87594 0.0267873 0
M  V30 35742 H 4092.11 6.03227 0.946016 0
M  V30 35743 H 4093.53 5.58793 -1.28153 0
M  V30 35744 H 4091.92 5.63214 -2.07149 0
M  V30 35745 H 4092.99 4.24503 -2.34361 0
M  V30 35746 N 4094.34 0.628927 1.44507 0
M  V30 35747 C 4095.56 0.137814 2.06942 0
M  V30 35748 C 4095.99 -1.17764 1.46674 0
M  V30 35749 O 4095.34 -1.72193 0.567372 0
M  V30 35750 C 4095.39 0.0342476 3.60584 0
M  V30 35751 O 4094.5 -1.01031 3.99833 0
M  V30 35752 H 4093.84 0.0837705 0.658695 0
M  V30 35753 H 4096.37 0.864983 1.85416 0
M  V30 35754 H 4096.38 -0.157051 4.07698 0
M  V30 35755 H 4095.05 0.994654 4.03831 0
M  V30 35756 H 4093.63 -0.79376 3.64354 0
M  V30 35757 N 4095.82 -1.53211 0.369342 0
M  V30 35758 C 4096.77 -2.22631 -0.491879 0
M  V30 35759 C 4097.75 -1.22288 -1.04568 0
M  V30 35760 O 4098.94 -1.47719 -0.975099 0
M  V30 35761 C 4096.07 -3.02184 -1.62911 0
M  V30 35762 C 4095.16 -4.09906 -1.08801 0
M  V30 35763 N 4095.55 -5.05078 -0.270202 0
M  V30 35764 C 4093.85 -4.2468 -1.36246 0
M  V30 35765 C 4094.55 -5.81694 0.0264898 0
M  V30 35766 N 4093.52 -5.40581 -0.572143 0
M  V30 35767 H 4097.32 -2.93568 0.139708 0
M  V30 35768 H 4094.84 -1.61426 0.17756 0
M  V30 35769 H 4096.84 -3.50437 -2.2583 0
M  V30 35770 H 4095.5 -2.32778 -2.26372 0
M  V30 35771 H 4096.51 -5.1782 0.0909068 0
M  V30 35772 H 4093.18 -3.66502 -1.99957 0
M  V30 35773 H 4094.57 -6.6837 0.687852 0
M  V30 35774 N 4097.29 -0.0986092 -1.57291 0
M  V30 35775 C 4098.54 0.563155 -1.94095 0
M  V30 35776 C 4098.86 1.68502 -0.981423 0
M  V30 35777 O 4098.13 1.9587 -0.0340977 0
M  V30 35778 H 4096.71 0.211021 -0.716575 0
M  V30 35779 H 4099.37 -0.162766 -1.94219 0
M  V30 35780 H 4098.47 0.97106 -2.96609 0
M  V30 35781 N 4098.77 1.56624 0.175099 0
M  V30 35782 C 4100.19 1.50658 0.526725 0
M  V30 35783 C 4100.39 0.802205 1.84843 0
M  V30 35784 O 4099.44 0.361002 2.49906 0
M  V30 35785 C 4100.76 2.95383 0.562977 0
M  V30 35786 C 4102.3 3.06167 0.650439 0
M  V30 35787 C 4102.78 4.52343 0.717618 0
M  V30 35788 N 4104.27 4.56575 0.78061 0
M  V30 35789 C 4105.01 5.67018 0.853099 0
M  V30 35790 N 4104.5 6.87103 0.886656 0
M  V30 35791 N 4106.29 5.5498 0.891829 0
M  V30 35792 H 4098.45 2.00824 -0.691615 0
M  V30 35793 H 4100.71 0.914742 -0.2489 0
M  V30 35794 H 4100.41 3.50058 -0.339447 0
M  V30 35795 H 4100.29 3.49824 1.41078 0
M  V30 35796 H 4102.68 2.51529 1.54329 0
M  V30 35797 H 4102.76 2.54818 -0.223964 0
M  V30 35798 H 4102.4 5.07612 -0.17096 0
M  V30 35799 H 4102.33 5.01445 1.60811 0
M  V30 35800 H 4104.82 3.70115 0.763113 0
M  V30 35801 H 4105.13 7.67025 0.943037 0
M  V30 35802 H 4103.48 6.89721 0.854996 0
M  V30 35803 H 4106.67 4.60084 0.862588 0
M  V30 35804 H 4106.84 6.41074 0.94486 0
M  V30 35805 N 4100.25 -0.443523 1.5123 0
M  V30 35806 C 4101.2 -1.53616 1.68482 0
M  V30 35807 C 4102.18 -1.51608 0.538885 0
M  V30 35808 O 4103.38 -1.58165 0.79453 0
M  V30 35809 C 4100.5 -2.91858 1.80759 0
M  V30 35810 C 4099.59 -2.98646 3.01117 0
M  V30 35811 N 4099.98 -2.75189 4.24387 0
M  V30 35812 C 4098.28 -3.29802 3.00244 0
M  V30 35813 C 4098.98 -2.8766 5.05596 0
M  V30 35814 N 4097.96 -3.19062 4.40114 0
M  V30 35815 H 4101.76 -1.34223 2.6146 0
M  V30 35816 H 4099.27 -0.650731 1.48793 0
M  V30 35817 H 4101.27 -3.70456 1.91227 0
M  V30 35818 H 4099.93 -3.12276 0.889583 0
M  V30 35819 H 4100.94 -2.50236 4.53434 0
M  V30 35820 H 4097.62 -3.56034 2.18051 0
M  V30 35821 H 4099.01 -2.73531 6.13702 0
M  V30 35822 N 4101.73 -1.41272 -0.698562 0
M  V30 35823 C 4102.98 -1.40191 -1.45571 0
M  V30 35824 C 4103.3 -0.0108722 -1.94997 0
M  V30 35825 O 4102.57 0.946792 -1.71501 0
M  V30 35826 H 4101.15 -0.516017 -0.540125 0
M  V30 35827 H 4103.81 -1.76484 -0.827017 0
M  V30 35828 H 4102.9 -2.08728 -2.32032 0
M  V30 35829 N 4103.21 0.932517 -1.27051 0
M  V30 35830 C 4104.43 1.71917 -1.16014 0
M  V30 35831 C 4104.86 1.86006 0.279918 0
M  V30 35832 O 4104.21 1.35659 1.20276 0
M  V30 35833 C 4104.26 3.09912 -1.84355 0
M  V30 35834 O 4103.37 3.96381 -1.13823 0
M  V30 35835 H 4102.71 0.527137 -0.403761 0
M  V30 35836 H 4105.24 1.16733 -1.68032 0
M  V30 35837 H 4105.25 3.60254 -1.91523 0
M  V30 35838 H 4103.92 2.98975 -2.89114 0
M  V30 35839 H 4102.5 3.54825 -1.14691 0
M  V30 35840 N 4104.68 1.08995 1.13833 0
M  V30 35841 C 4105.93 0.821662 1.84643 0
M  V30 35842 C 4106.25 -0.654548 1.83686 0
M  V30 35843 O 4105.52 -1.47474 1.2895 0
M  V30 35844 H 4104.1 0.30097 0.683686 0
M  V30 35845 H 4106.76 1.37717 1.37913 0
M  V30 35846 H 4105.86 1.17122 2.8929 0
M  V30 35847 N 4106.16 -1.30979 0.87649 0
M  V30 35848 C 4107.39 -2.01169 0.50456 0
M  V30 35849 C 4107.81 -1.6532 -0.897266 0
M  V30 35850 O 4107.17 -0.865283 -1.59319 0
M  V30 35851 C 4107.22 -3.54196 0.676579 0
M  V30 35852 O 4106.32 -4.1144 -0.281267 0
M  V30 35853 H 4105.66 -0.633206 0.199866 0
M  V30 35854 H 4108.19 -1.67024 1.1817 0
M  V30 35855 H 4108.2 -4.03966 0.572344 0
M  V30 35856 H 4106.88 -3.79627 1.6987 0
M  V30 35857 H 4105.45 -3.72668 -0.131441 0
M  V30 35858 N 4107.64 -0.636582 -1.44171 0
M  V30 35859 C 4108.89 -0.142969 -2.01594 0
M  V30 35860 C 4109.21 1.24155 -1.50368 0
M  V30 35861 O 4108.48 1.82601 -0.709495 0
M  V30 35862 H 4107.06 -0.0498631 -0.745334 0
M  V30 35863 H 4109.72 -0.82451 -1.76601 0
M  V30 35864 H 4108.82 -0.114829 -3.11889 0
M  V30 35865 N 4109.12 1.53013 -0.377462 0
M  V30 35866 C 4110.05 2.23718 0.498265 0
M  V30 35867 C 4111.06 1.25544 1.03646 0
M  V30 35868 O 4112.25 1.51694 0.940811 0
M  V30 35869 C 4109.35 2.93064 1.70196 0
M  V30 35870 C 4108.52 4.17846 1.2932 0
M  V30 35871 C 4107.58 4.70295 2.36027 0
M  V30 35872 O 4106.61 5.3368 1.97925 0
M  V30 35873 N 4107.81 4.4913 3.6778 0
M  V30 35874 H 4110.58 2.99507 -0.107441 0
M  V30 35875 H 4108.14 1.60619 -0.203225 0
M  V30 35876 H 4110.13 3.25056 2.41082 0
M  V30 35877 H 4108.7 2.20656 2.21427 0
M  V30 35878 H 4107.92 3.92023 0.41371 0
M  V30 35879 H 4109.21 4.98945 0.996578 0
M  V30 35880 H 4108.61 3.9851 4.01505 0
M  V30 35881 H 4107.16 4.85643 4.34735 0
M  V30 35882 N 4110.6 0.106949 1.57237 0
M  V30 35883 C 4111.82 -0.565357 1.99546 0
M  V30 35884 C 4112.25 -1.60192 0.985915 0
M  V30 35885 O 4111.6 -1.81247 -0.0440338 0
M  V30 35886 C 4111.65 -1.17902 3.40781 0
M  V30 35887 O 4110.76 -2.29473 3.4266 0
M  V30 35888 H 4110.1 -0.142367 0.648558 0
M  V30 35889 H 4112.63 0.191865 2.03698 0
M  V30 35890 H 4112.64 -1.51747 3.78731 0
M  V30 35891 H 4111.31 -0.419703 4.13777 0
M  V30 35892 H 4109.89 -1.97158 3.16517 0
M  V30 35893 N 4112.07 -1.56715 -0.166791 0
M  V30 35894 C 4113.3 -1.8675 -0.902175 0
M  V30 35895 C 4113.72 -0.693797 -1.74837 0
M  V30 35896 O 4113.08 0.357049 -1.77749 0
M  V30 35897 C 4113.13 -3.15233 -1.75101 0
M  V30 35898 O 4112.23 -2.97775 -2.85314 0
M  V30 35899 H 4111.58 -0.614132 -0.252464 0
M  V30 35900 H 4114.11 -2.03945 -0.163567 0
M  V30 35901 H 4114.12 -3.46753 -2.15003 0
M  V30 35902 H 4112.79 -4.00269 -1.12948 0
M  V30 35903 H 4111.37 -2.77619 -2.48962 0
M  V30 35904 N 4113.55 0.435497 -1.51463 0
M  V30 35905 C 4114.78 1.21177 -1.68318 0
M  V30 35906 C 4115.2 1.84206 -0.380741 0
M  V30 35907 O 4114.56 1.68888 0.659288 0
M  V30 35908 C 4114.61 2.27016 -2.80172 0
M  V30 35909 O 4113.71 3.32543 -2.43903 0
M  V30 35910 H 4113.05 0.35494 -0.561171 0
M  V30 35911 H 4115.58 0.514062 -1.98037 0
M  V30 35912 H 4115.59 2.71771 -3.0431 0
M  V30 35913 H 4114.27 1.80518 -3.74681 0
M  V30 35914 H 4112.85 2.93252 -2.30343 0
M  V30 35915 N 4115.03 1.41641 0.69106 0
M  V30 35916 C 4116.26 1.44396 1.47761 0
M  V30 35917 C 4116.67 0.0489572 1.89137 0
M  V30 35918 O 4116.01 -0.943083 1.57644 0
M  V30 35919 C 4116.07 2.29356 2.76833 0
M  V30 35920 C 4115.74 3.77457 2.57633 0
M  V30 35921 C 4116.73 4.69509 2.23287 0
M  V30 35922 C 4114.42 4.21549 2.73133 0
M  V30 35923 C 4116.41 6.03641 2.04685 0
M  V30 35924 C 4114.1 5.55744 2.54148 0
M  V30 35925 C 4115.1 6.46606 2.19975 0
M  V30 35926 O 4114.79 7.78325 2.0116 0
M  V30 35927 H 4114.52 0.493737 0.461735 0
M  V30 35928 H 4117.07 1.86623 0.857965 0
M  V30 35929 H 4115.3 1.8195 3.4122 0
M  V30 35930 H 4116.99 2.23758 3.38655 0
M  V30 35931 H 4117.76 4.36734 2.10922 0
M  V30 35932 H 4113.64 3.51128 2.98715 0
M  V30 35933 H 4117.18 6.74526 1.77935 0
M  V30 35934 H 4113.08 5.88097 2.66105 0
M  V30 35935 H 4113.85 7.89516 2.15887 0
M  V30 35936 N 4116.51 -0.925766 1.27543 0
M  V30 35937 C 4117.76 -1.67036 1.1377 0
M  V30 35938 C 4118.08 -1.92413 -0.316569 0
M  V30 35939 O 4117.35 -1.53177 -1.22121 0
M  V30 35940 H 4115.93 -0.619072 0.418041 0
M  V30 35941 H 4118.59 -1.1115 1.60099 0
M  V30 35942 H 4117.69 -2.63774 1.66822 0
M  V30 35943 N 4117.99 -1.09597 -1.13253 0
M  V30 35944 C 4118.92 -0.694809 -2.18415 0
M  V30 35945 C 4119.93 0.264204 -1.60642 0
M  V30 35946 O 4121.12 0.0499888 -1.7843 0
M  V30 35947 C 4118.22 -0.00335996 -3.389 0
M  V30 35948 C 4117.39 -0.984356 -4.2618 0
M  V30 35949 C 4116.45 -0.32599 -5.25189 0
M  V30 35950 O 4115.48 -0.974156 -5.60802 0
M  V30 35951 N 4116.68 0.91916 -5.73177 0
M  V30 35952 H 4119.45 -1.59955 -2.53445 0
M  V30 35953 H 4117.01 -0.983648 -1.28592 0
M  V30 35954 H 4119 0.44833 -4.02209 0
M  V30 35955 H 4117.57 0.80366 -3.02093 0
M  V30 35956 H 4116.79 -1.61456 -3.59619 0
M  V30 35957 H 4118.08 -1.64869 -4.81348 0
M  V30 35958 H 4117.47 1.46528 -5.46394 0
M  V30 35959 H 4116.03 1.31414 -6.38415 0
M  V30 35960 N 4119.46 1.30512 -0.883424 0
M  V30 35961 C 4120.41 2.25736 -0.320524 0
M  V30 35962 C 4121.4 1.51203 0.550139 0
M  V30 35963 O 4122.59 1.7254 0.394816 0
M  V30 35964 C 4119.72 3.40132 0.465288 0
M  V30 35965 C 4118.81 4.22021 -0.419375 0
M  V30 35966 N 4119.2 4.82449 -1.51911 0
M  V30 35967 C 4117.49 4.45485 -0.214211 0
M  V30 35968 C 4118.2 5.43784 -2.06576 0
M  V30 35969 N 4117.17 5.26288 -1.36093 0
M  V30 35970 H 4120.97 2.70003 -1.16085 0
M  V30 35971 H 4118.49 1.44934 -0.732659 0
M  V30 35972 H 4120.48 4.07394 0.885177 0
M  V30 35973 H 4119.14 2.97406 1.30307 0
M  V30 35974 H 4120.16 4.81711 -1.90197 0
M  V30 35975 H 4116.83 4.1336 0.586529 0
M  V30 35976 H 4118.22 6.01745 -2.98919 0
M  V30 35977 N 4120.94 0.644219 1.43832 0
M  V30 35978 C 4122.19 0.153658 2.01515 0
M  V30 35979 C 4122.51 -1.23356 1.51025 0
M  V30 35980 O 4121.78 -1.82222 0.719169 0
M  V30 35981 H 4120.36 0.0538151 0.745059 0
M  V30 35982 H 4123.02 0.833864 1.76161 0
M  V30 35983 H 4122.12 0.131368 3.11823 0
M  V30 35984 N 4122.42 -1.52811 0.385571 0
M  V30 35985 C 4123.65 -2.06428 -0.200532 0
M  V30 35986 C 4124.07 -1.25572 -1.40047 0
M  V30 35987 O 4123.43 -0.279814 -1.79128 0
M  V30 35988 C 4123.48 -3.56341 -0.55256 0
M  V30 35989 O 4122.58 -3.78082 -1.64704 0
M  V30 35990 H 4121.92 -0.663549 -0.024456 0
M  V30 35991 H 4124.45 -1.97014 0.551962 0
M  V30 35992 H 4124.46 -3.99717 -0.817925 0
M  V30 35993 H 4123.14 -4.1463 0.324738 0
M  V30 35994 H 4121.71 -3.46597 -1.37568 0
M  V30 35995 N 4123.9 -0.115287 -1.57178 0
M  V30 35996 C 4125.15 0.542537 -1.94682 0
M  V30 35997 C 4125.47 1.67452 -0.99924 0
M  V30 35998 O 4124.74 1.95823 -0.0548704 0
M  V30 35999 H 4123.32 0.203409 -0.718773 0
M  V30 36000 H 4125.98 -0.183357 -1.94036 0
M  V30 36001 H 4125.08 0.939546 -2.97622 0
M  V30 36002 N 4125.38 1.56801 0.158477 0
M  V30 36003 C 4126.6 1.87226 0.892258 0
M  V30 36004 C 4127.03 0.70306 1.74467 0
M  V30 36005 O 4126.39 -0.347617 1.77936 0
M  V30 36006 C 4126.43 3.16157 1.73427 0
M  V30 36007 O 4125.54 2.99284 2.8373 0
M  V30 36008 H 4124.88 0.615462 0.249203 0
M  V30 36009 H 4127.41 2.04029 0.152749 0
M  V30 36010 H 4127.42 3.47888 2.13161 0
M  V30 36011 H 4126.09 4.00863 1.10824 0
M  V30 36012 H 4124.67 2.78936 2.47486 0
M  V30 36013 N 4126.86 -0.427458 1.51692 0
M  V30 36014 C 4128.1 -1.17373 1.64524 0
M  V30 36015 C 4128.42 -1.91486 0.368516 0
M  V30 36016 O 4127.69 -1.85963 -0.616002 0
M  V30 36017 H 4126.27 -0.436262 0.60637 0
M  V30 36018 H 4128.94 -0.489119 1.88663 0
M  V30 36019 H 4128.03 -1.89789 2.47763 0
M  V30 36020 N 4128.33 -1.42005 -0.683539 0
M  V30 36021 C 4129.27 -1.4074 -1.809 0
M  V30 36022 C 4130.28 -0.307753 -1.59865 0
M  V30 36023 O 4131.47 -0.570274 -1.69145 0
M  V30 36024 C 4128.57 -1.17538 -3.17865 0
M  V30 36025 C 4127.74 -2.39772 -3.65825 0
M  V30 36026 C 4126.8 -2.12246 -4.81496 0
M  V30 36027 O 4125.83 -2.8538 -4.9249 0
M  V30 36028 N 4127.03 -1.12016 -5.6959 0
M  V30 36029 H 4129.79 -2.37747 -1.82473 0
M  V30 36030 H 4127.35 -1.36772 -0.866311 0
M  V30 36031 H 4129.35 -0.970558 -3.9289 0
M  V30 36032 H 4127.92 -0.290866 -3.11244 0
M  V30 36033 H 4127.14 -2.75879 -2.81575 0
M  V30 36034 H 4128.42 -3.21187 -3.94609 0
M  V30 36035 H 4127.82 -0.515102 -5.6335 0
M  V30 36036 H 4126.38 -0.975211 -6.44463 0
M  V30 36037 N 4129.81 0.918989 -1.28033 0
M  V30 36038 C 4131.04 1.70677 -1.17831 0
M  V30 36039 C 4131.46 1.86292 0.260174 0
M  V30 36040 O 4130.82 1.36927 1.18831 0
M  V30 36041 C 4130.87 3.0794 -1.87631 0
M  V30 36042 O 4129.97 3.95152 -1.18021 0
M  V30 36043 H 4129.31 0.522825 -0.409329 0
M  V30 36044 H 4131.84 1.14944 -1.6926 0
M  V30 36045 H 4131.85 3.58203 -1.95333 0
M  V30 36046 H 4130.53 2.95892 -2.92269 0
M  V30 36047 H 4129.1 3.53588 -1.18448 0
M  V30 36048 N 4131.29 1.10196 1.12671 0
M  V30 36049 C 4132.51 0.865146 1.88494 0
M  V30 36050 C 4132.94 -0.578659 1.78978 0
M  V30 36051 O 4132.3 -1.40735 1.14295 0
M  V30 36052 C 4132.35 1.31505 3.35766 0
M  V30 36053 O 4131.45 0.478519 4.09614 0
M  V30 36054 H 4130.79 0.312668 0.585777 0
M  V30 36055 H 4133.32 1.46813 1.42503 0
M  V30 36056 H 4133.33 1.30392 3.86603 0
M  V30 36057 H 4132.01 2.36649 3.42009 0
M  V30 36058 H 4130.58 0.554654 3.68752 0
M  V30 36059 N 4132.77 -1.30042 0.890333 0
M  V30 36060 C 4134.02 -1.95547 0.510474 0
M  V30 36061 C 4134.34 -1.70598 -0.944532 0
M  V30 36062 O 4133.61 -1.03253 -1.6648 0
M  V30 36063 H 4132.19 -0.723527 0.185788 0
M  V30 36064 H 4134.85 -1.58472 1.13458 0
M  V30 36065 H 4133.94 -3.04485 0.685209 0
M  V30 36066 N 4134.25 -0.651838 -1.43488 0
M  V30 36067 C 4135.48 -0.17212 -2.05882 0
M  V30 36068 C 4135.88 1.16687 -1.48932 0
M  V30 36069 O 4135.23 1.7311 -0.6147 0
M  V30 36070 C 4135.29 -0.00505943 -3.595 0
M  V30 36071 C 4134.95 -1.26913 -4.39024 0
M  V30 36072 C 4135.95 -2.19755 -4.71173 0
M  V30 36073 C 4133.63 -1.51032 -4.79056 0
M  V30 36074 C 4135.63 -3.3501 -5.42261 0
M  V30 36075 C 4133.32 -2.66582 -5.49889 0
M  V30 36076 C 4134.31 -3.58396 -5.81413 0
M  V30 36077 O 4134 -4.71928 -6.50799 0
M  V30 36078 H 4133.73 -0.086565 -0.670435 0
M  V30 36079 H 4136.29 -0.892323 -1.85005 0
M  V30 36080 H 4134.52 0.7705 -3.78946 0
M  V30 36081 H 4136.21 0.431841 -4.03596 0
M  V30 36082 H 4136.97 -2.02362 -4.40766 0
M  V30 36083 H 4132.85 -0.804488 -4.53926 0
M  V30 36084 H 4136.4 -4.06696 -5.66784 0
M  V30 36085 H 4132.29 -2.83909 -5.79712 0
M  V30 36086 H 4133.06 -4.71175 -6.6928 0
M  V30 36087 N 4135.72 1.52604 -0.39367 0
M  V30 36088 C 4136.95 2.06532 0.189581 0
M  V30 36089 C 4137.37 1.26313 1.39379 0
M  V30 36090 O 4136.73 0.289309 1.78977 0
M  V30 36091 C 4136.78 3.56629 0.533655 0
M  V30 36092 O 4135.88 3.78951 1.62697 0
M  V30 36093 H 4135.22 0.66367 0.0209366 0
M  V30 36094 H 4137.75 1.96719 -0.562402 0
M  V30 36095 H 4137.76 4.00146 0.796716 0
M  V30 36096 H 4136.44 4.14452 -0.346723 0
M  V30 36097 H 4135.02 3.47322 1.35728 0
M  V30 36098 N 4137.2 0.12362 1.57114 0
M  V30 36099 C 4138.13 -0.855426 2.12638 0
M  V30 36100 C 4139.15 -1.22682 1.07019 0
M  V30 36101 O 4140.34 -1.17496 1.34376 0
M  V30 36102 C 4137.44 -2.15587 2.61487 0
M  V30 36103 C 4136.61 -1.95546 3.91255 0
M  V30 36104 C 4135.67 -3.09361 4.25655 0
M  V30 36105 O 4134.69 -2.82073 4.94392 0
M  V30 36106 N 4135.9 -4.35919 3.83347 0
M  V30 36107 H 4138.66 -0.381024 2.97268 0
M  V30 36108 H 4136.22 -0.0606659 1.61786 0
M  V30 36109 H 4138.21 -2.90731 2.81527 0
M  V30 36110 H 4136.78 -2.54361 1.81712 0
M  V30 36111 H 4136 -1.04568 3.80078 0
M  V30 36112 H 4137.29 -1.79466 4.76098 0
M  V30 36113 H 4136.69 -4.60964 3.27916 0
M  V30 36114 H 4135.25 -5.0792 4.08486 0
M  V30 36115 N 4138.68 -1.56883 -0.15016 0
M  V30 36116 C 4139.63 -1.94444 -1.19061 0
M  V30 36117 C 4140.61 -0.815308 -1.38714 0
M  V30 36118 O 4141.81 -1.07873 -1.40329 0
M  V30 36119 C 4138.93 -2.32589 -2.52502 0
M  V30 36120 C 4138.02 -3.52066 -2.36454 0
M  V30 36121 N 4138.41 -4.68694 -1.90156 0
M  V30 36122 C 4136.71 -3.57088 -2.67215 0
M  V30 36123 C 4137.41 -5.50797 -1.87077 0
M  V30 36124 N 4136.39 -4.92418 -2.30273 0
M  V30 36125 H 4140.19 -2.82092 -0.824696 0
M  V30 36126 H 4137.7 -1.58399 -0.358245 0
M  V30 36127 H 4139.7 -2.57702 -3.27712 0
M  V30 36128 H 4138.36 -1.46291 -2.89878 0
M  V30 36129 H 4139.37 -4.9251 -1.6017 0
M  V30 36130 H 4136.05 -2.81322 -3.08487 0
M  V30 36131 H 4137.44 -6.54295 -1.52801 0
M  V30 36132 N 4140.16 0.419408 -1.51917 0
M  V30 36133 C 4141.41 1.16499 -1.65144 0
M  V30 36134 C 4141.73 1.91288 -0.378665 0
M  V30 36135 O 4141 1.86287 0.606131 0
M  V30 36136 H 4139.58 0.43304 -0.608675 0
M  V30 36137 H 4142.24 0.479107 -1.8892 0
M  V30 36138 H 4141.34 1.88473 -2.48766 0
M  V30 36139 N 4141.64 1.42366 0.675998 0
M  V30 36140 C 4142.86 1.46373 1.46934 0
M  V30 36141 C 4143.29 0.0761321 1.87946 0
M  V30 36142 O 4142.64 -0.925144 1.55919 0
M  V30 36143 C 4142.69 2.39527 2.69553 0
M  V30 36144 O 4141.8 1.86581 3.67779 0
M  V30 36145 H 4141.14 0.495985 0.441469 0
M  V30 36146 H 4143.67 1.87042 0.829251 0
M  V30 36147 H 4143.68 2.56067 3.17638 0
M  V30 36148 H 4142.35 3.4034 2.39043 0
M  V30 36149 H 4140.93 1.79591 3.26805 0
M  V30 36150 N 4143.11 -0.912187 1.28518 0
M  V30 36151 C 4144.36 -1.6582 1.15535 0
M  V30 36152 C 4144.68 -1.92738 -0.296143 0
M  V30 36153 O 4143.95 -1.54464 -1.2049 0
M  V30 36154 H 4142.53 -0.614604 0.424584 0
M  V30 36155 H 4145.2 -1.09446 1.61269 0
M  V30 36156 H 4144.29 -2.6199 1.69611 0
M  V30 36157 N 4144.59 -1.10792 -1.12085 0
M  V30 36158 C 4145.82 -0.87513 -1.88033 0
M  V30 36159 C 4146.24 0.56916 -1.79282 0
M  V30 36160 O 4145.6 1.40127 -1.15039 0
M  V30 36161 C 4145.65 -1.33284 -3.35064 0
M  V30 36162 O 4144.75 -0.500235 -4.09355 0
M  V30 36163 H 4144.09 -0.31577 -0.584111 0
M  V30 36164 H 4146.62 -1.47567 -1.41722 0
M  V30 36165 H 4146.63 -1.3244 -3.85906 0
M  V30 36166 H 4145.31 -2.38459 -3.40749 0
M  V30 36167 H 4143.89 -0.574202 -3.68453 0
M  V30 36168 N 4146.07 1.29568 -0.897217 0
M  V30 36169 C 4147.32 1.95273 -0.520838 0
M  V30 36170 C 4147.64 1.71096 0.935471 0
M  V30 36171 O 4146.91 1.04134 1.6593 0
M  V30 36172 H 4145.49 0.722532 -0.189623 0
M  V30 36173 H 4148.15 1.57868 -1.14297 0
M  V30 36174 H 4147.25 3.04118 -0.701347 0
M  V30 36175 N 4147.55 0.659438 1.4314 0
M  V30 36176 C 4148.48 -0.0671217 2.29102 0
M  V30 36177 C 4149.49 -0.780918 1.42848 0
M  V30 36178 O 4150.68 -0.637637 1.66723 0
M  V30 36179 C 4147.78 -1.11832 3.19917 0
M  V30 36180 C 4146.96 -0.481428 4.34742 0
M  V30 36181 C 4146.01 -1.43035 5.06387 0
M  V30 36182 O 4145.04 -0.936549 5.61442 0
M  V30 36183 N 4146.24 -2.76414 5.10466 0
M  V30 36184 H 4149.01 0.670726 2.92098 0
M  V30 36185 H 4146.57 0.502687 1.53898 0
M  V30 36186 H 4148.56 -1.75407 3.64712 0
M  V30 36187 H 4147.13 -1.75807 2.58477 0
M  V30 36188 H 4146.35 0.33353 3.92786 0
M  V30 36189 H 4147.64 -0.037088 5.08786 0
M  V30 36190 H 4147.04 -3.19086 4.67119 0
M  V30 36191 H 4145.59 -3.35276 5.58958 0
M  V30 36192 N 4149.03 -1.52393 0.401757 0
M  V30 36193 C 4150.3 -1.94188 -0.23461 0
M  V30 36194 C 4150.68 -1.33813 -1.63271 0
M  V30 36195 O 4150.03 -0.511053 -2.22712 0
M  V30 36196 C 4150.24 -3.48115 -0.248393 0
M  V30 36197 C 4151.59 -4.21976 -0.471322 0
M  V30 36198 O 4152.61 -3.54686 -0.328069 0
M  V30 36199 O 4151.47 -5.41287 -0.75304 0
M  V30 36200 H 4148.57 -0.813456 -0.149061 0
M  V30 36201 H 4151.11 -1.63426 0.457167 0
M  V30 36202 H 4149.88 -3.84422 0.730422 0
M  V30 36203 H 4149.51 -3.85217 -0.984576 0
M  V30 36204 N 4150.5 -0.131951 -1.57047 0
M  V30 36205 C 4151.75 0.521858 -1.95246 0
M  V30 36206 C 4152.07 1.66383 -1.01694 0
M  V30 36207 O 4151.34 1.95754 -0.075637 0
M  V30 36208 H 4149.92 0.195774 -0.72089 0
M  V30 36209 H 4152.59 -0.203927 -1.9383 0
M  V30 36210 H 4151.68 0.907927 -2.98602 0
M  V30 36211 N 4151.98 1.5696 0.141838 0
M  V30 36212 C 4153.21 1.87523 0.867111 0
M  V30 36213 C 4153.62 0.718749 1.75016 0
M  V30 36214 O 4152.96 -0.320423 1.80884 0
M  V30 36215 C 4153.03 3.12849 1.77104 0
M  V30 36216 C 4152.69 4.44426 1.06463 0
M  V30 36217 C 4153.69 5.18232 0.4161 0
M  V30 36218 C 4151.37 4.91147 1.0526 0
M  V30 36219 C 4153.37 6.36967 -0.235017 0
M  V30 36220 C 4151.05 6.09805 0.39767 0
M  V30 36221 C 4152.05 6.8256 -0.245005 0
M  V30 36222 O 4151.74 7.98963 -0.889536 0
M  V30 36223 H 4151.47 0.62572 0.255832 0
M  V30 36224 H 4154.02 2.04937 0.137762 0
M  V30 36225 H 4152.25 2.91456 2.54146 0
M  V30 36226 H 4153.94 3.29616 2.36872 0
M  V30 36227 H 4154.71 4.83203 0.417168 0
M  V30 36228 H 4150.59 4.34437 1.54224 0
M  V30 36229 H 4154.13 6.93693 -0.737237 0
M  V30 36230 H 4150.03 6.44295 0.394287 0
M  V30 36231 H 4150.8 8.14662 -0.79172 0
M  V30 36232 N 4153.46 -0.411345 1.52137 0
M  V30 36233 C 4154.69 -1.18483 1.70225 0
M  V30 36234 C 4155.11 -1.83577 0.409998 0
M  V30 36235 O 4154.47 -1.69915 -0.632336 0
M  V30 36236 C 4154.52 -2.2253 2.83748 0
M  V30 36237 O 4153.62 -3.28621 2.49162 0
M  V30 36238 H 4152.96 -0.345968 0.566747 0
M  V30 36239 H 4155.49 -0.482491 1.9883 0
M  V30 36240 H 4155.5 -2.66895 3.08595 0
M  V30 36241 H 4154.18 -1.74534 3.77506 0
M  V30 36242 H 4152.75 -2.8955 2.34979 0
M  V30 36243 N 4154.94 -1.42722 -0.668439 0
M  V30 36244 C 4156.17 -1.46728 -1.45445 0
M  V30 36245 C 4156.58 -0.079041 -1.89035 0
M  V30 36246 O 4155.92 0.917884 -1.59124 0
M  V30 36247 C 4155.98 -2.33731 -2.73149 0
M  V30 36248 C 4155.65 -3.81508 -2.51596 0
M  V30 36249 C 4156.64 -4.73002 -2.15789 0
M  V30 36250 C 4154.33 -4.25841 -2.66392 0
M  V30 36251 C 4156.32 -6.06821 -1.95056 0
M  V30 36252 C 4154.01 -5.59717 -2.45275 0
M  V30 36253 C 4155.01 -6.50024 -2.09661 0
M  V30 36254 O 4154.7 -7.81427 -1.88752 0
M  V30 36255 H 4154.43 -0.501021 -0.453822 0
M  V30 36256 H 4156.98 -1.87964 -0.828167 0
M  V30 36257 H 4155.21 -1.87355 -3.38282 0
M  V30 36258 H 4156.9 -2.29118 -3.35052 0
M  V30 36259 H 4157.67 -4.40035 -2.03948 0
M  V30 36260 H 4153.55 -3.55835 -2.93091 0
M  V30 36261 H 4157.09 -6.77271 -1.67181 0
M  V30 36262 H 4152.99 -5.92257 -2.56715 0
M  V30 36263 H 4153.75 -7.9285 -2.03299 0
M  V30 36264 N 4156.42 0.905358 -1.29 0
M  V30 36265 C 4157.66 1.66967 -1.17904 0
M  V30 36266 C 4158.02 1.90144 0.266316 0
M  V30 36267 O 4159.22 2.64106 0.500141 0
M  V30 36268 C 4157.49 2.9859 -1.96415 0
M  V30 36269 S 4159.05 3.89649 -2.01789 0
M  V30 36270 H 4155.87 0.573314 -0.420515 0
M  V30 36271 H 4158.47 1.07621 -1.63212 0
M  V30 36272 H 4157.18 2.7943 -3.00578 0
M  V30 36273 H 4156.71 3.62979 -1.5169 0
M  V30 36274 H 4158.72 4.83151 -1.13048 0
M  V30 36275 N 4157.9 1.11385 1.11495 0
M  V30 36276 C 4158.84 0.771649 2.17518 0
M  V30 36277 C 4159.81 -0.256587 1.64106 0
M  V30 36278 O 4161 -0.133639 1.90331 0
M  V30 36279 C 4158.14 0.220373 3.44396 0
M  V30 36280 C 4157.25 1.3051 4.11814 0
M  V30 36281 C 4156.39 0.714424 5.26374 0
M  V30 36282 C 4155.42 1.77904 5.85676 0
M  V30 36283 N 4154.56 1.2079 6.91632 0
M  V30 36284 H 4159.4 1.67993 2.46135 0
M  V30 36285 H 4156.94 0.838948 1.20831 0
M  V30 36286 H 4158.9 -0.117213 4.17035 0
M  V30 36287 H 4157.53 -0.651105 3.16165 0
M  V30 36288 H 4156.58 1.75965 3.37254 0
M  V30 36289 H 4157.89 2.11059 4.51946 0
M  V30 36290 H 4157.04 0.32686 6.05819 0
M  V30 36291 H 4155.78 -0.122394 4.87546 0
M  V30 36292 H 4154.79 2.17592 5.0491 0
M  V30 36293 H 4156.01 2.61888 6.26571 0
M  V30 36294 H 4153.96 0.392717 6.54823 0
M  V30 36295 H 4153.88 1.95011 7.30415 0
M  V30 36296 H 4155.14 0.847208 7.74882 0
M  V30 36297 N 4159.37 -1.2909 0.904076 0
M  V30 36298 C 4160.62 -1.94994 0.531186 0
M  V30 36299 C 4160.94 -1.7159 -0.926385 0
M  V30 36300 O 4160.21 -1.05013 -1.65376 0
M  V30 36301 H 4158.79 -0.721516 0.193452 0
M  V30 36302 H 4161.45 -1.57259 1.15132 0
M  V30 36303 H 4160.55 -3.03741 0.717465 0
M  V30 36304 N 4160.85 -0.66702 -1.42789 0
M  V30 36305 C 4162.1 -0.185698 -2.01245 0
M  V30 36306 C 4162.42 1.20937 -1.52968 0
M  V30 36307 O 4161.69 1.81055 -0.748068 0
M  V30 36308 H 4160.27 -0.0656615 -0.744109 0
M  V30 36309 H 4162.93 -0.861785 -1.74812 0
M  V30 36310 H 4162.03 -0.18096 -3.11575 0
M  V30 36311 N 4162.33 1.52178 -0.409833 0
M  V30 36312 C 4163.55 2.06721 0.167665 0
M  V30 36313 C 4163.98 1.27784 1.38032 0
M  V30 36314 O 4163.34 0.308276 1.7866 0
M  V30 36315 C 4163.39 3.57175 0.495799 0
M  V30 36316 O 4162.49 3.80655 1.58668 0
M  V30 36317 H 4161.83 0.663855 0.0138964 0
M  V30 36318 H 4164.36 1.96111 -0.583235 0
M  V30 36319 H 4164.37 4.00968 0.75423 0
M  V30 36320 H 4163.05 4.14061 -0.390661 0
M  V30 36321 H 4161.62 3.48742 1.32036 0
M  V30 36322 N 4163.81 0.140278 1.56974 0
M  V30 36323 C 4164.76 -0.819114 2.177 0
M  V30 36324 C 4165.75 -1.26015 1.1321 0
M  V30 36325 O 4166.96 -1.22942 1.31474 0
M  V30 36326 H 4163.33 -0.282332 0.696988 0
M  V30 36327 H 4165.3 -0.282678 2.97058 0
M  V30 36328 C 4164.05 -2.05091 2.80772 0
M  V30 36329 H 4163.37 -1.72051 3.60886 0
M  V30 36330 H 4164.81 -2.70177 3.26772 0
M  V30 36331 C 4163.27 -2.85454 1.78935 0
M  V30 36332 O 4163.8 -3.8157 1.25569 0
M  V30 36333 N 4162.01 -2.49857 1.4839 0
M  V30 36334 H 4161.56 -1.71761 1.91979 0
M  V30 36335 H 4161.51 -3.0392 0.804988 0
M  V30 36336 N 4165.29 -1.57033 -0.133512 0
M  V30 36337 C 4166.24 -1.95696 -1.16992 0
M  V30 36338 C 4167.22 -0.829975 -1.37841 0
M  V30 36339 O 4168.41 -1.09356 -1.39177 0
M  V30 36340 C 4165.54 -2.35254 -2.50021 0
M  V30 36341 C 4164.63 -3.54554 -2.32707 0
M  V30 36342 N 4165.02 -4.70685 -1.85175 0
M  V30 36343 C 4163.32 -3.59902 -2.63413 0
M  V30 36344 C 4164.02 -5.5275 -1.81225 0
M  V30 36345 N 4162.99 -4.94833 -2.25037 0
M  V30 36346 H 4166.79 -2.82951 -0.79473 0
M  V30 36347 H 4164.31 -1.5877 -0.341425 0
M  V30 36348 H 4166.31 -2.61163 -3.2496 0
M  V30 36349 H 4164.97 -1.49357 -2.8831 0
M  V30 36350 H 4165.98 -4.94181 -1.54937 0
M  V30 36351 H 4162.65 -2.84578 -3.05486 0
M  V30 36352 H 4164.04 -6.55878 -1.45853 0
M  V30 36353 N 4166.76 0.403271 -1.52353 0
M  V30 36354 C 4168.04 1.16303 -1.57267 0
M  V30 36355 C 4168.42 2.08056 -0.357218 0
M  V30 36356 O 4167.77 2.18896 0.655512 0
M  V30 36357 C 4167.98 1.9352 -2.90432 0
M  V30 36358 C 4169.33 2.49382 -3.43648 0
M  V30 36359 O 4170.35 2.03693 -2.92211 0
M  V30 36360 O 4169.21 3.32802 -4.3348 0
M  V30 36361 H 4166.3 0.53135 -0.633716 0
M  V30 36362 H 4168.85 0.409578 -1.64683 0
M  V30 36363 H 4167.62 1.26339 -3.70343 0
M  V30 36364 H 4167.24 2.75857 -2.86336 0
M  V30 36365 N 4168.24 1.43075 0.66086 0
M  V30 36366 C 4169.49 1.44002 1.41803 0
M  V30 36367 C 4169.81 0.0625684 1.949 0
M  V30 36368 O 4169.08 -0.900989 1.73951 0
M  V30 36369 H 4167.66 0.530156 0.526254 0
M  V30 36370 H 4170.32 1.78614 0.779935 0
M  V30 36371 H 4169.42 2.14807 2.26416 0
M  V30 36372 N 4169.72 -0.898504 1.29478 0
M  V30 36373 C 4170.97 -1.64585 1.17287 0
M  V30 36374 C 4171.29 -1.93041 -0.275684 0
M  V30 36375 O 4170.56 -1.55733 -1.18845 0
M  V30 36376 H 4169.14 -0.610066 0.431078 0
M  V30 36377 H 4171.8 -1.07729 1.62421 0
M  V30 36378 H 4170.9 -2.60176 1.7238 0
M  V30 36379 N 4171.2 -1.11974 -1.10903 0
M  V30 36380 C 4172.42 -0.895024 -1.87094 0
M  V30 36381 C 4172.85 0.550112 -1.79876 0
M  V30 36382 O 4172.21 1.38899 -1.16519 0
M  V30 36383 C 4172.25 -1.36831 -3.33631 0
M  V30 36384 O 4171.36 -0.543625 -4.08801 0
M  V30 36385 H 4170.7 -0.321948 -0.580728 0
M  V30 36386 H 4173.23 -1.49062 -1.40149 0
M  V30 36387 H 4173.24 -1.36526 -3.8448 0
M  V30 36388 H 4171.91 -2.4206 -3.38201 0
M  V30 36389 H 4170.49 -0.613249 -3.67823 0
M  V30 36390 N 4172.68 1.28609 -0.910909 0
M  V30 36391 C 4173.9 1.99761 -0.557719 0
M  V30 36392 C 4174.33 1.67641 0.853118 0
M  V30 36393 O 4173.68 0.90722 1.56969 0
M  V30 36394 C 4173.73 3.52278 -0.77025 0
M  V30 36395 O 4172.84 4.12041 0.172082 0
M  V30 36396 H 4172.18 0.627684 -0.216584 0
M  V30 36397 H 4174.71 1.63832 -1.22557 0
M  V30 36398 H 4174.72 4.02306 -0.679247 0
M  V30 36399 H 4173.39 3.7499 -1.79876 0
M  V30 36400 H 4171.97 3.72886 0.032588 0
M  V30 36401 N 4174.15 0.674583 1.42433 0
M  V30 36402 C 4175.4 0.196368 2.01144 0
M  V30 36403 C 4175.72 -1.20124 1.53607 0
M  V30 36404 O 4174.99 -1.80655 0.757659 0
M  V30 36405 H 4173.57 0.0696068 0.74375 0
M  V30 36406 H 4176.24 0.871043 1.74353 0
M  V30 36407 H 4175.33 0.197481 3.11475 0
M  V30 36408 N 4175.63 -1.51958 0.417898 0
M  V30 36409 C 4176.86 -2.06807 -0.1567 0
M  V30 36410 C 4177.28 -1.28515 -1.37352 0
M  V30 36411 O 4176.64 -0.317746 -1.78494 0
M  V30 36412 C 4176.69 -3.57433 -0.47685 0
M  V30 36413 O 4175.79 -3.81491 -1.56647 0
M  V30 36414 H 4175.13 -0.663919 -0.0103756 0
M  V30 36415 H 4177.66 -1.95799 0.593627 0
M  V30 36416 H 4177.67 -4.01362 -0.732955 0
M  V30 36417 H 4176.35 -4.13848 0.412614 0
M  V30 36418 H 4174.93 -3.49437 -1.30185 0
M  V30 36419 N 4177.11 -0.1486 -1.56898 0
M  V30 36420 C 4178.34 0.508274 -2.0025 0
M  V30 36421 C 4178.75 1.58855 -1.02771 0
M  V30 36422 O 4178.09 1.83692 -0.0169482 0
M  V30 36423 C 4178.15 1.16687 -3.40036 0
M  V30 36424 C 4177.82 0.231007 -4.56416 0
M  V30 36425 C 4178.81 -0.541944 -5.17068 0
M  V30 36426 C 4176.5 0.133446 -5.02123 0
M  V30 36427 C 4178.49 -1.39989 -6.21838 0
M  V30 36428 C 4176.18 -0.728102 -6.06747 0
M  V30 36429 C 4177.18 -1.49337 -6.66474 0
M  V30 36430 O 4176.87 -2.34056 -7.69073 0
M  V30 36431 H 4176.6 0.136665 -0.662041 0
M  V30 36432 H 4179.15 -0.240647 -2.03985 0
M  V30 36433 H 4177.38 1.96347 -3.33144 0
M  V30 36434 H 4179.07 1.72364 -3.67486 0
M  V30 36435 H 4179.84 -0.476614 -4.82652 0
M  V30 36436 H 4175.72 0.718843 -4.55361 0
M  V30 36437 H 4179.26 -1.99768 -6.68385 0
M  V30 36438 H 4175.16 -0.794718 -6.40589 0
M  V30 36439 H 4175.93 -2.27322 -7.863 0
M  V30 36440 N 4178.59 1.57102 0.125182 0
M  V30 36441 C 4179.84 1.84526 0.834053 0
M  V30 36442 C 4180.16 0.732774 1.80168 0
M  V30 36443 O 4179.42 -0.276414 1.93738 0
M  V30 36444 C 4179.72 3.18401 1.62344 0
M  V30 36445 C 4179.38 4.43735 0.800651 0
M  V30 36446 C 4178.05 4.77767 0.573733 0
M  V30 36447 C 4180.4 5.20707 0.226723 0
M  V30 36448 C 4177.73 5.86219 -0.237467 0
M  V30 36449 C 4180.08 6.30012 -0.571634 0
M  V30 36450 C 4178.74 6.6258 -0.808927 0
M  V30 36451 H 4178.01 0.675228 0.305201 0
M  V30 36452 H 4180.66 1.91256 0.0966929 0
M  V30 36453 H 4178.96 3.0722 2.43153 0
M  V30 36454 H 4180.66 3.3684 2.17577 0
M  V30 36455 H 4177.25 4.17066 0.987599 0
M  V30 36456 H 4181.43 4.94771 0.389264 0
M  V30 36457 H 4176.69 6.09882 -0.430595 0
M  V30 36458 H 4180.86 6.8884 -1.02337 0
M  V30 36459 H 4178.49 7.4645 -1.43933 0
M  V30 36460 N 4180.07 -0.395186 1.52565 0
M  V30 36461 C 4181 -1.48894 1.79869 0
M  V30 36462 C 4181.98 -1.57175 0.650378 0
M  V30 36463 O 4183.16 -1.72224 0.897359 0
M  V30 36464 C 4180.29 -2.86573 1.96197 0
M  V30 36465 C 4179.25 -2.93134 3.11859 0
M  V30 36466 C 4178.57 -4.33203 3.13432 0
M  V30 36467 C 4179.87 -2.63345 4.51051 0
M  V30 36468 H 4181.57 -1.26294 2.71459 0
M  V30 36469 H 4179.11 -0.606122 1.30622 0
M  V30 36470 H 4181.07 -3.63088 2.13882 0
M  V30 36471 H 4179.79 -3.10496 1.01291 0
M  V30 36472 H 4178.45 -2.19066 2.93948 0
M  V30 36473 H 4178.1 -4.54156 2.1622 0
M  V30 36474 H 4177.8 -4.38515 3.91125 0
M  V30 36475 H 4179.32 -5.11633 3.33263 0
M  V30 36476 H 4180.73 -3.29579 4.69096 0
M  V30 36477 H 4179.13 -2.80015 5.30765 0
M  V30 36478 H 4180.2 -1.58714 4.5819 0
M  V30 36479 N 4181.54 -1.43423 -0.653263 0
M  V30 36480 C 4182.77 -1.48692 -1.44587 0
M  V30 36481 C 4183.19 -0.106023 -1.87801 0
M  V30 36482 O 4182.55 0.900222 -1.57371 0
M  V30 36483 C 4182.6 -2.43785 -2.65709 0
M  V30 36484 O 4181.7 -1.92408 -3.64764 0
M  V30 36485 H 4181.05 -0.502945 -0.433523 0
M  V30 36486 H 4183.58 -1.88337 -0.79939 0
M  V30 36487 H 4183.59 -2.61088 -3.13524 0
M  V30 36488 H 4182.26 -3.441 -2.33598 0
M  V30 36489 H 4180.84 -1.84767 -3.23907 0
M  V30 36490 N 4183.02 0.891625 -1.29953 0
M  V30 36491 C 4184.27 1.64285 -1.18392 0
M  V30 36492 C 4184.6 1.92716 0.262835 0
M  V30 36493 O 4183.85 1.54175 1.20535 0
M  V30 36494 C 4184.15 2.9945 -1.95101 0
M  V30 36495 C 4183.82 2.90597 -3.44767 0
M  V30 36496 C 4182.48 2.87889 -3.85582 0
M  V30 36497 C 4184.83 2.79211 -4.40103 0
M  V30 36498 C 4182.16 2.71625 -5.20035 0
M  V30 36499 C 4184.51 2.64486 -5.74657 0
M  V30 36500 C 4183.18 2.60149 -6.14719 0
M  V30 36501 H 4182.45 0.601161 -0.433227 0
M  V30 36502 H 4185.09 1.03717 -1.60981 0
M  V30 36503 H 4183.4 3.6393 -1.45127 0
M  V30 36504 H 4185.09 3.56524 -1.83554 0
M  V30 36505 H 4181.68 2.9351 -3.1233 0
M  V30 36506 H 4185.87 2.80373 -4.09517 0
M  V30 36507 H 4181.12 2.66678 -5.50175 0
M  V30 36508 H 4185.3 2.54648 -6.48172 0
M  V30 36509 H 4182.93 2.47305 -7.18849 0
M  V30 36510 N 4184.5 1.12561 1.10308 0
M  V30 36511 C 4185.91 0.895919 1.63799 0
M  V30 36512 C 4186.26 -0.569478 1.87754 0
M  V30 36513 O 4185.39 -1.4342 1.62048 0
M  V30 36514 C 4185.98 1.61986 2.97567 0
M  V30 36515 C 4184.54 1.43628 3.4792 0
M  V30 36516 C 4183.69 1.65493 2.22503 0
M  V30 36517 H 4186.64 1.2802 0.937905 0
M  V30 36518 H 4186.66 1.07166 3.65097 0
M  V30 36519 H 4186.17 2.68636 2.80101 0
M  V30 36520 H 4184.27 0.392393 3.70528 0
M  V30 36521 H 4184.39 2.19327 4.25949 0
M  V30 36522 H 4182.75 1.07912 2.3071 0
M  V30 36523 H 4183.53 2.73443 2.07566 0
M  V30 36524 N 4185.98 -1.28124 0.917717 0
M  V30 36525 C 4187.2 -1.99462 0.568305 0
M  V30 36526 C 4187.63 -1.68091 -0.844216 0
M  V30 36527 O 4186.99 -0.915531 -1.56486 0
M  V30 36528 C 4187.04 -3.51864 0.788921 0
M  V30 36529 O 4186.14 -4.12126 -0.150228 0
M  V30 36530 H 4185.48 -0.626527 0.21991 0
M  V30 36531 H 4188.01 -1.6318 1.23424 0
M  V30 36532 H 4188.02 -4.0194 0.700572 0
M  V30 36533 H 4186.7 -3.74031 1.81862 0
M  V30 36534 H 4185.27 -3.72898 -0.0128125 0
M  V30 36535 N 4187.46 -0.682127 -1.42073 0
M  V30 36536 C 4188.68 -0.214524 -2.06288 0
M  V30 36537 C 4189.11 1.12239 -1.50944 0
M  V30 36538 O 4188.47 1.69969 -0.63089 0
M  V30 36539 C 4188.51 -0.168052 -3.60208 0
M  V30 36540 O 4187.62 0.86122 -4.03307 0
M  V30 36541 H 4186.96 -0.10816 -0.655132 0
M  V30 36542 H 4189.49 -0.933203 -1.82078 0
M  V30 36543 H 4189.5 0.00562867 -4.08 0
M  V30 36544 H 4188.17 -1.14385 -3.99861 0
M  V30 36545 H 4186.75 0.657985 -3.67049 0
M  V30 36546 N 4188.94 1.51735 -0.425951 0
M  V30 36547 C 4190.16 2.06403 0.143315 0
M  V30 36548 C 4190.58 1.29448 1.37436 0
M  V30 36549 O 4189.94 0.35089 1.79095 0
M  V30 36550 C 4189.99 3.5834 0.476954 0
M  V30 36551 O 4189.71 4.32387 -0.705224 0
M  V30 36552 C 4191.21 4.29483 1.09813 0
M  V30 36553 H 4188.43 0.670875 0.0129651 0
M  V30 36554 H 4190.97 1.95446 -0.601753 0
M  V30 36555 H 4189.13 3.69249 1.17192 0
M  V30 36556 H 4189.54 5.22794 -0.422691 0
M  V30 36557 H 4191.02 5.36915 1.28166 0
M  V30 36558 H 4191.49 3.87039 2.07599 0
M  V30 36559 H 4192.1 4.22988 0.442882 0
M  V30 36560 N 4190.41 0.156919 1.56817 0
M  V30 36561 C 4191.64 -0.501587 2.01243 0
M  V30 36562 C 4192.06 -1.56974 1.03638 0
M  V30 36563 O 4191.42 -1.81295 0.0136507 0
M  V30 36564 C 4191.47 -1.07001 3.44359 0
M  V30 36565 O 4190.57 -2.18455 3.49787 0
M  V30 36566 H 4189.91 -0.121662 0.652759 0
M  V30 36567 H 4192.44 0.256573 2.02985 0
M  V30 36568 H 4192.45 -1.39621 3.83367 0
M  V30 36569 H 4191.13 -0.287851 4.14903 0
M  V30 36570 H 4189.71 -1.86988 3.22629 0
M  V30 36571 N 4191.89 -1.57166 -0.116849 0
M  V30 36572 C 4193.3 -1.74119 -0.673762 0
M  V30 36573 C 4193.65 -0.775923 -1.80205 0
M  V30 36574 O 4192.78 0.0506638 -2.16341 0
M  V30 36575 C 4193.37 -3.15724 -1.22898 0
M  V30 36576 C 4191.93 -3.34175 -1.73216 0
M  V30 36577 C 4191.08 -2.69984 -0.63275 0
M  V30 36578 H 4194.03 -1.58325 0.109083 0
M  V30 36579 H 4194.05 -3.17393 -2.09861 0
M  V30 36580 H 4193.56 -3.85954 -0.407569 0
M  V30 36581 H 4191.66 -2.68991 -2.57827 0
M  V30 36582 H 4191.78 -4.42353 -1.84012 0
M  V30 36583 H 4190.14 -2.31278 -1.06689 0
M  V30 36584 H 4190.92 -3.4284 0.177714 0
M  V30 36585 N 4193.37 0.38709 -1.52772 0
M  V30 36586 C 4194.6 1.15142 -1.7154 0
M  V30 36587 C 4195.01 1.84147 -0.434358 0
M  V30 36588 O 4194.35 1.73587 0.601099 0
M  V30 36589 C 4194.41 2.24132 -2.81078 0
M  V30 36590 C 4194.08 1.75078 -4.22133 0
M  V30 36591 C 4195.07 1.22649 -5.05226 0
M  V30 36592 C 4192.76 1.81243 -4.68461 0
M  V30 36593 C 4194.75 0.77035 -6.32728 0
M  V30 36594 C 4192.44 1.35241 -5.95947 0
M  V30 36595 C 4193.44 0.83224 -6.77911 0
M  V30 36596 O 4193.13 0.378933 -8.03006 0
M  V30 36597 H 4192.86 0.351118 -0.577661 0
M  V30 36598 H 4195.41 0.458569 -2.00216 0
M  V30 36599 H 4193.64 2.96847 -2.47828 0
M  V30 36600 H 4195.33 2.85794 -2.8823 0
M  V30 36601 H 4196.1 1.17242 -4.70616 0
M  V30 36602 H 4191.98 2.20673 -4.04752 0
M  V30 36603 H 4195.52 0.363663 -6.96651 0
M  V30 36604 H 4191.42 1.40334 -6.30061 0
M  V30 36605 H 4192.18 0.500236 -8.1697 0
M  V30 36606 N 4194.85 1.43768 0.645648 0
M  V30 36607 C 4195.76 1.51975 1.7872 0
M  V30 36608 C 4196.77 0.406328 1.69189 0
M  V30 36609 O 4197.95 0.661567 1.90224 0
M  V30 36610 C 4195.01 1.44749 3.15037 0
M  V30 36611 C 4194.08 2.66824 3.36308 0
M  V30 36612 C 4193.31 2.59934 4.66122 0
M  V30 36613 O 4193.53 1.65128 5.45975 0
M  V30 36614 O 4192.47 3.50557 4.89279 0
M  V30 36615 H 4196.29 2.48387 1.7475 0
M  V30 36616 H 4193.88 1.25853 0.805075 0
M  V30 36617 H 4195.76 1.43189 3.96327 0
M  V30 36618 H 4194.43 0.514749 3.19581 0
M  V30 36619 H 4193.34 2.73955 2.54754 0
M  V30 36620 H 4194.67 3.59096 3.36617 0
M  V30 36621 N 4196.33 -0.884721 1.30424 0
M  V30 36622 C 4197.56 -1.66725 1.2201 0
M  V30 36623 C 4197.96 -1.87923 -0.219441 0
M  V30 36624 O 4197.31 -1.42696 -1.15687 0
M  V30 36625 C 4197.37 -3.06529 1.87831 0
M  V30 36626 C 4197.03 -3.08501 3.37159 0
M  V30 36627 C 4198.03 -2.8754 4.33148 0
M  V30 36628 C 4195.71 -3.3009 3.7861 0
M  V30 36629 C 4197.71 -2.88125 5.68562 0
M  V30 36630 C 4195.4 -3.30305 5.14142 0
M  V30 36631 C 4196.39 -3.09347 6.08928 0
M  V30 36632 O 4196.08 -3.09378 7.41984 0
M  V30 36633 H 4195.81 -0.527016 0.423356 0
M  V30 36634 H 4198.37 -1.11366 1.72589 0
M  V30 36635 H 4196.6 -3.63552 1.31783 0
M  V30 36636 H 4198.29 -3.66935 1.73533 0
M  V30 36637 H 4199.05 -2.70657 4.02454 0
M  V30 36638 H 4194.93 -3.45439 3.05276 0
M  V30 36639 H 4198.48 -2.71685 6.42521 0
M  V30 36640 H 4194.37 -3.46723 5.44475 0
M  V30 36641 H 4195.14 -3.25542 7.50976 0
M  V30 36642 N 4197.8 -1.13144 -1.09709 0
M  V30 36643 C 4199.05 -0.892707 -1.82095 0
M  V30 36644 C 4199.38 0.579814 -1.85342 0
M  V30 36645 O 4198.66 1.42894 -1.31952 0
M  V30 36646 C 4198.94 -1.47758 -3.28389 0
M  V30 36647 C 4198.79 -3.01901 -3.33431 0
M  V30 36648 C 4200.11 -1.14336 -4.24989 0
M  V30 36649 H 4197.23 -0.325743 -0.661105 0
M  V30 36650 H 4199.87 -1.39926 -1.28533 0
M  V30 36651 H 4198.02 -1.04677 -3.74132 0
M  V30 36652 H 4199.7 -3.53716 -2.96113 0
M  V30 36653 H 4197.94 -3.37042 -2.73103 0
M  V30 36654 H 4198.61 -3.37922 -4.36478 0
M  V30 36655 H 4201.09 -1.51558 -3.87517 0
M  V30 36656 H 4199.96 -1.57911 -5.25695 0
M  V30 36657 H 4200.22 -0.056636 -4.42064 0
M  V30 36658 N 4199.28 1.27635 -0.924498 0
M  V30 36659 C 4200.21 2.26054 -0.378427 0
M  V30 36660 C 4201.23 1.5528 0.489083 0
M  V30 36661 O 4202.42 1.75923 0.302224 0
M  V30 36662 C 4199.52 3.3553 0.476712 0
M  V30 36663 C 4198.69 4.35826 -0.370764 0
M  V30 36664 C 4197.75 5.24511 0.421207 0
M  V30 36665 O 4196.77 5.68946 -0.16998 0
M  V30 36666 N 4197.98 5.54378 1.72177 0
M  V30 36667 H 4200.74 2.73547 -1.22443 0
M  V30 36668 H 4198.3 1.41229 -0.791584 0
M  V30 36669 H 4200.29 3.91803 1.01352 0
M  V30 36670 H 4198.86 2.87663 1.22346 0
M  V30 36671 H 4198.08 3.78862 -1.08889 0
M  V30 36672 H 4199.37 4.99848 -0.950256 0
M  V30 36673 H 4198.77 5.20129 2.22445 0
M  V30 36674 H 4197.33 6.13364 2.20518 0
M  V30 36675 N 4200.76 0.689652 1.41709 0
M  V30 36676 C 4201.67 0.0209347 2.34591 0
M  V30 36677 C 4202.69 -0.772589 1.55907 0
M  V30 36678 O 4203.86 -0.711509 1.88413 0
M  V30 36679 C 4200.93 -0.908295 3.34591 0
M  V30 36680 C 4199.99 -0.107641 4.29165 0
M  V30 36681 C 4199.22 -0.992613 5.24388 0
M  V30 36682 O 4199.44 -2.23215 5.24911 0
M  V30 36683 O 4198.38 -0.445458 6.00249 0
M  V30 36684 H 4202.2 0.786398 2.93342 0
M  V30 36685 H 4199.79 0.449954 1.42463 0
M  V30 36686 H 4201.67 -1.44131 3.95985 0
M  V30 36687 H 4200.35 -1.65335 2.78291 0
M  V30 36688 H 4199.25 0.469837 3.71138 0
M  V30 36689 H 4200.59 0.598623 4.88546 0
M  V30 36690 N 4202.24 -1.51507 0.433991 0
M  V30 36691 C 4203.17 -2.25414 -0.41489 0
M  V30 36692 C 4204.18 -1.29304 -0.989153 0
M  V30 36693 O 4205.37 -1.55081 -0.883862 0
M  V30 36694 C 4202.47 -2.99179 -1.59202 0
M  V30 36695 C 4201.65 -4.22357 -1.13723 0
M  V30 36696 C 4200.7 -4.78731 -2.1841 0
M  V30 36697 O 4199.73 -5.40658 -1.77981 0
M  V30 36698 N 4200.93 -4.62471 -3.50858 0
M  V30 36699 H 4203.7 -2.98902 0.218527 0
M  V30 36700 H 4201.26 -1.59755 0.262698 0
M  V30 36701 H 4203.25 -3.3378 -2.28851 0
M  V30 36702 H 4201.82 -2.28722 -2.13085 0
M  V30 36703 H 4201.04 -3.93288 -0.267928 0
M  V30 36704 H 4202.33 -5.023 -0.810711 0
M  V30 36705 H 4201.73 -4.13137 -3.86438 0
M  V30 36706 H 4200.28 -5.01443 -4.16411 0
M  V30 36707 N 4203.72 -0.165233 -1.56731 0
M  V30 36708 C 4205.13 0.191003 -1.58453 0
M  V30 36709 C 4205.33 1.63311 -1.18033 0
M  V30 36710 O 4204.39 2.36329 -0.889097 0
M  V30 36711 C 4205.7 -0.0842942 -3.00582 0
M  V30 36712 C 4207.25 -0.0220236 -3.12992 0
M  V30 36713 C 4207.72 -0.270229 -4.57202 0
M  V30 36714 N 4209.22 -0.217792 -4.62688 0
M  V30 36715 C 4209.95 -0.384099 -5.72112 0
M  V30 36716 N 4209.45 -0.609128 -6.90117 0
M  V30 36717 N 4211.24 -0.320427 -5.61186 0
M  V30 36718 H 4203.39 -1.10663 -1.81294 0
M  V30 36719 H 4205.65 -0.439478 -0.839978 0
M  V30 36720 H 4205.36 -1.08306 -3.34608 0
M  V30 36721 H 4205.23 0.626865 -3.71955 0
M  V30 36722 H 4207.62 0.967309 -2.78796 0
M  V30 36723 H 4207.7 -0.765798 -2.44068 0
M  V30 36724 H 4207.35 -1.25674 -4.92106 0
M  V30 36725 H 4207.28 0.494085 -5.24277 0
M  V30 36726 H 4209.77 -0.049263 -3.77868 0
M  V30 36727 H 4210.08 -0.725642 -7.69386 0
M  V30 36728 H 4208.42 -0.64567 -6.91994 0
M  V30 36729 H 4211.62 -0.145258 -4.67875 0
M  V30 36730 H 4211.79 -0.453465 -6.46411 0
M  V30 36731 N 4205.19 1.57226 0.108512 0
M  V30 36732 C 4206.43 1.87222 0.820204 0
M  V30 36733 C 4206.8 0.754555 1.76552 0
M  V30 36734 O 4208 0.936563 2.51956 0
M  V30 36735 C 4206.27 3.22453 1.54138 0
M  V30 36736 S 4207.83 3.74109 2.2932 0
M  V30 36737 H 4204.65 0.656276 0.273538 0
M  V30 36738 H 4207.25 1.95344 0.0779981 0
M  V30 36739 H 4205.95 4.01731 0.839085 0
M  V30 36740 H 4205.48 3.17435 2.32375 0
M  V30 36741 H 4207.5 3.4645 3.55228 0
M  V30 36742 N 4206.67 -0.378982 1.52975 0
M  V30 36743 C 4207.9 -1.14231 1.72148 0
M  V30 36744 C 4208.31 -1.83914 0.444117 0
M  V30 36745 O 4207.65 -1.73903 -0.591885 0
M  V30 36746 C 4207.72 -2.22638 2.82263 0
M  V30 36747 C 4207.38 -1.72837 4.23056 0
M  V30 36748 C 4208.38 -1.19968 5.05869 0
M  V30 36749 C 4206.06 -1.78756 4.69416 0
M  V30 36750 C 4208.06 -0.736784 6.33127 0
M  V30 36751 C 4205.74 -1.32078 5.96656 0
M  V30 36752 C 4206.74 -0.796277 6.78342 0
M  V30 36753 O 4206.43 -0.336342 8.03196 0
M  V30 36754 H 4206.16 -0.348049 0.579515 0
M  V30 36755 H 4208.71 -0.447945 2.00456 0
M  V30 36756 H 4206.94 -2.95529 2.49398 0
M  V30 36757 H 4208.63 -2.84261 2.89742 0
M  V30 36758 H 4209.4 -1.14744 4.71231 0
M  V30 36759 H 4205.28 -2.18523 4.05917 0
M  V30 36760 H 4208.82 -0.326713 6.96835 0
M  V30 36761 H 4204.72 -1.36991 6.30796 0
M  V30 36762 H 4205.49 -0.456903 8.17224 0
M  V30 36763 N 4208.15 -1.44108 -0.638015 0
M  V30 36764 C 4209.4 -1.46529 -1.3977 0
M  V30 36765 C 4209.73 -0.0952701 -1.94267 0
M  V30 36766 O 4208.98 0.901963 -1.73675 0
M  V30 36767 C 4209.28 -2.46739 -2.58563 0
M  V30 36768 C 4208.95 -3.92238 -2.22396 0
M  V30 36769 C 4207.61 -4.31863 -2.12245 0
M  V30 36770 C 4209.96 -4.83866 -1.93708 0
M  V30 36771 C 4207.29 -5.61049 -1.71584 0
M  V30 36772 C 4209.64 -6.13433 -1.54542 0
M  V30 36773 C 4208.3 -6.52018 -1.42928 0
M  V30 36774 H 4207.57 -0.536186 -0.511454 0
M  V30 36775 H 4210.22 -1.7728 -0.724153 0
M  V30 36776 H 4208.53 -2.09445 -3.31119 0
M  V30 36777 H 4210.22 -2.4586 -3.16786 0
M  V30 36778 H 4206.81 -3.60886 -2.31212 0
M  V30 36779 H 4211 -4.54013 -2.00464 0
M  V30 36780 H 4206.25 -5.89769 -1.6119 0
M  V30 36781 H 4210.43 -6.83895 -1.31381 0
M  V30 36782 H 4208.05 -7.52024 -1.11193 0
M  V30 36783 N 4209.63 0.877792 -1.30891 0
M  V30 36784 C 4210.86 1.66075 -1.22893 0
M  V30 36785 C 4211.27 1.88037 0.209472 0
M  V30 36786 O 4210.61 1.43308 1.14929 0
M  V30 36787 C 4210.67 3.05528 -1.89454 0
M  V30 36788 C 4210.34 3.06709 -3.3879 0
M  V30 36789 C 4211.33 2.85239 -4.34666 0
M  V30 36790 C 4209.02 3.28078 -3.80355 0
M  V30 36791 C 4211.01 2.85106 -5.70082 0
M  V30 36792 C 4208.7 3.27574 -5.15886 0
M  V30 36793 C 4209.7 3.06113 -6.1056 0
M  V30 36794 O 4209.38 3.05439 -7.43614 0
M  V30 36795 H 4209.12 0.524763 -0.426145 0
M  V30 36796 H 4211.67 1.10449 -1.73177 0
M  V30 36797 H 4209.9 3.62848 -1.33709 0
M  V30 36798 H 4211.59 3.66009 -1.75476 0
M  V30 36799 H 4212.36 2.68519 -4.03884 0
M  V30 36800 H 4208.23 3.43815 -3.07103 0
M  V30 36801 H 4211.78 2.68274 -6.43953 0
M  V30 36802 H 4207.68 3.43831 -5.46306 0
M  V30 36803 H 4208.44 3.21555 -7.52692 0
M  V30 36804 N 4211.11 1.13725 1.09108 0
M  V30 36805 C 4212.04 0.775393 2.15686 0
M  V30 36806 C 4213.05 -0.204401 1.61512 0
M  V30 36807 O 4214.24 0.0162688 1.78493 0
M  V30 36808 C 4211.34 0.129138 3.38654 0
M  V30 36809 C 4210.51 1.14185 4.22233 0
M  V30 36810 C 4209.57 0.520686 5.23618 0
M  V30 36811 O 4208.6 1.18162 5.568 0
M  V30 36812 N 4209.8 -0.705796 5.76193 0
M  V30 36813 H 4212.57 1.69252 2.47334 0
M  V30 36814 H 4210.13 1.0307 1.24853 0
M  V30 36815 H 4212.12 -0.298743 4.03596 0
M  V30 36816 H 4210.69 -0.690986 3.04867 0
M  V30 36817 H 4209.91 1.74691 3.53379 0
M  V30 36818 H 4211.2 1.8262 4.74897 0
M  V30 36819 H 4210.59 -1.26148 5.51455 0
M  V30 36820 H 4209.15 -1.07629 6.42852 0
M  V30 36821 O 4212.62 -1.21639 1.06237 0
M  V30 36822 H 4213.31 -1.78866 0.743425 0
M  V30 END ATOM
M  V30 BEGIN BOND
M  V30 END BOND
M  V30 END CTAB
M  END
$$$$
