drugbank_target|Q86Y39 NADH dehydrogenase [ubiquinone] 1 alpha subcomplex subunit 11 (DB00157)
 OpenBabel12092119343D

  0  0  0     0  0            999 V3000
M  V30 BEGIN CTAB
M  V30 COUNTS 2088 2115 0 0 0
M  V30 BEGIN ATOM
M  V30 1 H -0.908 1.98254 -0.117106 0
M  V30 2 N 0 1.576 0 0
M  V30 3 C 0.933 2.03868 1.02534 0
M  V30 4 C 1.911 0.928543 1.3348 0
M  V30 5 O 3.095 1.19667 1.45644 0
M  V30 6 C 0.222 2.43627 2.35294 0
M  V30 7 C -0.732 3.65373 2.2001 0
M  V30 8 S 0.101 5.13292 1.52614 0
M  V30 9 C 1.257 5.56322 2.86805 0
M  V30 10 H 1.49 2.90518 0.631377 0
M  V30 11 H -0.977 1.52953 0.210867 0
M  V30 12 H 0.981 2.67203 3.11629 0
M  V30 13 H -0.358 1.57376 2.7183 0
M  V30 14 H -1.165 3.90944 3.18086 0
M  V30 15 H -1.563 3.418 1.51819 0
M  V30 16 H 0.729 5.58782 3.83104 0
M  V30 17 H 1.672 6.56266 2.65933 0
M  V30 18 H 2.08 4.83886 2.90714 0
M  V30 19 N 1.4781 -0.272755 1.55222 0
M  V30 20 C 2.4411 -1.32041 1.87344 0
M  V30 21 C 3.4411 -1.42342 0.74803 0
M  V30 22 O 4.6311 -1.41488 1.0162 0
M  V30 23 C 1.7631 -2.70173 2.07893 0
M  V30 24 H 2.9561 -1.04789 2.80997 0
M  V30 25 H 0.5091 -0.51083 1.47717 0
M  V30 26 H 1.2441 -3.02605 1.16622 0
M  V30 27 H 1.0291 -2.64082 2.89833 0
M  V30 28 H 2.5191 -3.45869 2.34017 0
M  V30 29 N 2.9562 -1.48159 -0.537278 0
M  V30 30 C 4.3672 -1.49429 -1.11928 0
M  V30 31 C 4.7182 -0.26 -1.9447 0
M  V30 32 O 3.8432 0.633489 -2.0692 0
M  V30 33 C 4.4382 -2.70758 -2.03656 0
M  V30 34 C 2.9972 -2.74923 -2.57088 0
M  V30 35 C 2.1442 -2.42835 -1.3389 0
M  V30 36 H 5.0952 -1.55381 -0.322886 0
M  V30 37 H 5.1162 -2.48861 -2.87834 0
M  V30 38 H 4.6282 -3.60575 -1.43553 0
M  V30 39 H 2.7292 -1.89296 -3.20933 0
M  V30 40 H 2.8422 -3.76157 -2.9672 0
M  V30 41 H 1.2062 -1.93836 -1.65226 0
M  V30 42 H 1.9892 -3.34884 -0.755504 0
M  V30 43 N 4.4343 0.785586 -1.36625 0
M  V30 44 C 5.3813 1.89838 -1.31264 0
M  V30 45 C 6.3513 1.65115 -0.180633 0
M  V30 46 O 7.5363 1.87222 -0.36777 0
M  V30 47 C 4.6763 3.26706 -1.11163 0
M  V30 48 C 3.7893 3.63476 -2.33472 0
M  V30 49 C 2.9243 4.89481 -2.06353 0
M  V30 50 C 1.9633 5.18941 -3.24602 0
M  V30 51 N 1.1003 6.36131 -2.97123 0
M  V30 52 H 5.9403 1.93756 -2.26413 0
M  V30 53 H 3.4773 0.947454 -1.12524 0
M  V30 54 H 5.4353 4.05639 -0.975337 0
M  V30 55 H 4.0653 3.222 -0.196674 0
M  V30 56 H 3.1173 2.79636 -2.57891 0
M  V30 57 H 4.4293 3.81193 -3.21704 0
M  V30 58 H 3.5833 5.76288 -1.89675 0
M  V30 59 H 2.3223 4.73841 -1.15437 0
M  V30 60 H 1.3273 4.30615 -3.41834 0
M  V30 61 H 2.5523 5.36498 -4.16349 0
M  V30 62 H 0.4983 6.21875 -2.08823 0
M  V30 63 H 0.4153 6.54198 -3.78894 0
M  V30 64 H 1.6833 7.2591 -2.84033 0
M  V30 65 N 5.9124 1.20967 1.01018 0
M  V30 66 C 7.1584 1.02526 1.74975 0
M  V30 67 C 7.4914 -0.4408 1.89131 0
M  V30 68 O 6.7664 -1.32718 1.42184 0
M  V30 69 C 7.0494 1.71699 3.1653 0
M  V30 70 C 6.9024 3.25791 3.10129 0
M  V30 71 C 8.2214 1.45531 4.15342 0
M  V30 72 H 5.3404 0.373863 0.635134 0
M  V30 73 H 7.9824 1.49071 1.17805 0
M  V30 74 H 6.1324 1.32128 3.65341 0
M  V30 75 H 7.8044 3.74697 2.69072 0
M  V30 76 H 6.0474 3.56363 2.47362 0
M  V30 77 H 6.7184 3.69353 4.10222 0
M  V30 78 H 9.1944 1.79872 3.75213 0
M  V30 79 H 8.0704 1.96453 5.1254 0
M  V30 80 H 8.3314 0.384237 4.40427 0
M  V30 81 N 7.3905 -1.2043 1.01659 0
M  V30 82 C 8.6375 -1.89797 0.705917 0
M  V30 83 C 8.9655 -1.78848 -0.764439 0
M  V30 84 O 8.2205 -1.16694 -1.57102 0
M  V30 85 C 8.5195 -3.40464 1.08714 0
M  V30 86 C 8.1855 -3.71614 2.5537 0
M  V30 87 C 6.8475 -3.79826 2.95441 0
M  V30 88 C 9.1995 -3.85915 3.50313 0
M  V30 89 C 6.5275 -3.99797 4.29394 0
M  V30 90 C 8.8795 -4.07396 4.83954 0
M  V30 91 C 7.5435 -4.13837 5.23732 0
M  V30 92 H 6.8135 -0.694518 0.258313 0
M  V30 93 H 9.4605 -1.42691 1.27717 0
M  V30 94 H 7.7655 -3.89385 0.434309 0
M  V30 95 H 9.4625 -3.92433 0.824461 0
M  V30 96 H 6.0525 -3.65822 2.23321 0
M  V30 97 H 10.2365 -3.78926 3.20513 0
M  V30 98 H 5.4925 -4.03018 4.59768 0
M  V30 99 H 9.6665 -4.17404 5.57447 0
M  V30 100 H 7.2935 -4.29064 6.27541 0
M  V30 101 N 8.8686 -0.792821 -1.36206 0
M  V30 102 C 10.2846 -0.474903 -1.52371 0
M  V30 103 C 10.4846 1.00622 -1.74578 0
M  V30 104 O 9.5406 1.79162 -1.77924 0
M  V30 105 C 10.8536 -1.3083 -2.70747 0
M  V30 106 C 12.4016 -1.30234 -2.84619 0
M  V30 107 C 12.8766 -2.11956 -4.06004 0
M  V30 108 N 14.3676 -2.09419 -4.13156 0
M  V30 109 C 15.1026 -2.69419 -5.06163 0
M  V30 110 N 14.5986 -3.3829 -6.04592 0
M  V30 111 N 16.3916 -2.59134 -4.98804 0
M  V30 112 H 8.5426 -1.75222 -1.20046 0
M  V30 113 H 10.8056 -0.745024 -0.586211 0
M  V30 114 H 10.5116 -2.35881 -2.6087 0
M  V30 115 H 10.3856 -0.95196 -3.6499 0
M  V30 116 H 12.7726 -0.259748 -2.93955 0
M  V30 117 H 12.8536 -1.69847 -1.91274 0
M  V30 118 H 12.4976 -3.16248 -3.97429 0
M  V30 119 H 12.4276 -1.69711 -4.98503 0
M  V30 120 H 14.9186 -1.59297 -3.42685 0
M  V30 121 H 15.2316 -3.81394 -6.7213 0
M  V30 122 H 13.5766 -3.42393 -6.04807 0
M  V30 123 H 16.7676 -2.04927 -4.20859 0
M  V30 124 H 16.9406 -3.06185 -5.711 0
M  V30 125 N 10.3467 1.47872 -0.545128 0
M  V30 126 C 11.2787 2.27869 0.246621 0
M  V30 127 C 12.2917 1.36282 0.890561 0
M  V30 128 O 13.4807 1.61207 0.766449 0
M  V30 129 C 10.5807 3.10159 1.36582 0
M  V30 130 C 9.7537 4.29627 0.820954 0
M  V30 131 C 8.8127 4.93607 1.82314 0
M  V30 132 O 7.8387 5.52366 1.37406 0
M  V30 133 N 9.0407 4.87211 3.15603 0
M  V30 134 H 11.8057 2.96459 -0.439539 0
M  V30 135 H 9.3667 1.57367 -0.380421 0
M  V30 136 H 11.3587 3.49829 2.03474 0
M  V30 137 H 9.9287 2.43891 1.9554 0
M  V30 138 H 9.1487 3.94192 -0.0244032 0
M  V30 139 H 10.4367 5.06928 0.436063 0
M  V30 140 H 9.8347 4.40651 3.54744 0
M  V30 141 H 8.3917 5.30937 3.78087 0
M  V30 142 N 11.8248 0.280983 1.55075 0
M  V30 143 C 13.0548 -0.336804 2.03836 0
M  V30 144 C 13.4628 -1.49577 1.15859 0
M  V30 145 O 12.8058 -1.82888 0.172503 0
M  V30 146 C 12.8678 -0.874616 3.48699 0
M  V30 147 C 12.5318 0.156478 4.56732 0
M  V30 148 C 13.5288 0.978032 5.10618 0
M  V30 149 C 11.2138 0.292409 5.01448 0
M  V30 150 C 13.2078 1.92165 6.07743 0
M  V30 151 C 10.8948 1.23949 5.98398 0
M  V30 152 C 11.8928 2.05261 6.51427 0
M  V30 153 O 11.5808 2.98367 7.4648 0
M  V30 154 H 11.3128 -0.0800885 0.671239 0
M  V30 155 H 13.8668 0.412589 2.01213 0
M  V30 156 H 12.0968 -1.67418 3.4858 0
M  V30 157 H 13.7858 -1.40612 3.80766 0
M  V30 158 H 14.5518 0.883782 4.7688 0
M  V30 159 H 10.4308 -0.330498 4.59814 0
M  V30 160 H 13.9748 2.55672 6.49059 0
M  V30 161 H 9.8718 1.33454 6.31554 0
M  V30 162 H 10.6398 2.93116 7.64215 0
M  V30 163 N 13.3029 -1.57598 0.00835791 0
M  V30 164 C 14.5489 -1.92046 -0.670055 0
M  V30 165 C 14.9039 -0.88351 -1.70915 0
M  V30 166 O 14.1969 0.103223 -1.91322 0
M  V30 167 C 14.3909 -3.3101 -1.34787 0
M  V30 168 C 14.2199 -4.48126 -0.375945 0
M  V30 169 C 12.9899 -5.05297 0.0166914 0
M  V30 170 C 15.1879 -5.1303 0.361272 0
M  V30 171 N 13.1699 -6.05931 0.985952 0
M  V30 172 C 14.5409 -6.08571 1.18495 0
M  V30 173 C 16.5959 -4.9609 0.42421 0
M  V30 174 C 15.2989 -6.88996 2.06584 0
M  V30 175 C 17.3249 -5.77107 1.29236 0
M  V30 176 C 16.6869 -6.72248 2.10386 0
M  V30 177 H 12.7859 -0.75096 -0.218136 0
M  V30 178 H 15.3699 -1.94572 0.0706669 0
M  V30 179 H 13.5409 -3.29342 -2.05884 0
M  V30 180 H 15.2729 -3.52864 -1.98164 0
M  V30 181 H 12.0279 -4.72279 -0.353435 0
M  V30 182 H 12.4519 -6.60932 1.4662 0
M  V30 183 H 17.0939 -4.22378 -0.188915 0
M  V30 184 H 14.8119 -7.62028 2.6896 0
M  V30 185 H 18.3979 -5.66038 1.34508 0
M  V30 186 H 17.2779 -7.33846 2.76476 0
M  V30 187 N 14.781 0.264519 -1.55364 0
M  V30 188 C 16.058 1.01677 -1.67096 0
M  V30 189 C 16.438 2.03996 -0.543015 0
M  V30 190 O 15.786 2.23907 0.45585 0
M  V30 191 C 15.996 1.66596 -3.0667 0
M  V30 192 C 17.344 2.17442 -3.64697 0
M  V30 193 O 18.368 1.76568 -3.09358 0
M  V30 194 O 17.227 2.92439 -4.61673 0
M  V30 195 H 14.321 0.472161 -0.678965 0
M  V30 196 H 16.867 0.259703 -1.67701 0
M  V30 197 H 15.639 0.924962 -3.80211 0
M  V30 198 H 15.262 2.48968 -3.10001 0
M  V30 199 N 16.2591 1.48442 0.529413 0
M  V30 200 C 17.5081 1.55742 1.28169 0
M  V30 201 C 17.8211 0.236511 1.94165 0
M  V30 202 O 19.0271 0.187761 2.7085 0
M  V30 203 C 17.4831 2.74667 2.32564 0
M  V30 204 C 17.0911 4.13402 1.72636 0
M  V30 205 C 18.8351 2.9128 3.08798 0
M  V30 206 C 16.7421 5.23587 2.74975 0
M  V30 207 H 15.6721 0.579796 0.48203 0
M  V30 208 H 18.3231 1.74776 0.559056 0
M  V30 209 H 16.7051 2.49067 3.07866 0
M  V30 210 H 17.8791 4.49022 1.03519 0
M  V30 211 H 16.1941 4.0191 1.08892 0
M  V30 212 H 18.7911 3.70767 3.85274 0
M  V30 213 H 19.1341 2.00757 3.64695 0
M  V30 214 H 19.6671 3.16782 2.40611 0
M  V30 215 H 16.4061 6.16076 2.23897 0
M  V30 216 H 15.9261 4.92454 3.42417 0
M  V30 217 H 17.6051 5.51724 3.37949 0
M  V30 218 N 17.7372 -0.778329 1.37039 0
M  V30 219 C 19.1482 -1.35421 1.28523 0
M  V30 220 C 19.4992 -1.96075 -0.0700901 0
M  V30 221 O 18.6242 -1.93352 -0.971801 0
M  V30 222 C 19.2192 -2.46211 2.32735 0
M  V30 223 C 17.7782 -2.99585 2.27873 0
M  V30 224 C 16.9252 -1.72748 2.16918 0
M  V30 225 H 19.8762 -0.5791 1.47757 0
M  V30 226 H 19.8972 -3.2552 1.9702 0
M  V30 227 H 19.4092 -2.02036 3.31365 0
M  V30 228 H 17.5102 -3.48152 1.32745 0
M  V30 229 H 17.6232 -3.55646 3.21018 0
M  V30 230 H 15.9872 -1.95416 1.63354 0
M  V30 231 H 16.7702 -1.30686 3.17452 0
M  V30 232 N 19.2153 -1.21501 -1.00376 0
M  V30 233 C 20.4923 -0.941745 -1.71437 0
M  V30 234 C 20.8723 0.546114 -2.03914 0
M  V30 235 O 20.2203 1.51128 -1.71384 0
M  V30 236 C 20.4303 -1.82812 -2.97289 0
M  V30 237 C 21.7783 -2.07771 -3.70292 0
M  V30 238 O 22.8023 -1.80171 -3.07273 0
M  V30 239 O 21.6613 -2.54456 -4.83647 0
M  V30 240 H 18.7553 -0.353243 -0.747762 0
M  V30 241 H 21.3013 -1.32436 -1.06108 0
M  V30 242 H 20.0733 -2.83501 -2.69709 0
M  V30 243 H 19.6963 -1.4464 -3.70358 0
M  V30 244 N 20.6934 1.19889 -1.02296 0
M  V30 245 C 21.9414 1.89046 -0.714558 0
M  V30 246 C 22.2624 1.79636 0.758681 0
M  V30 247 O 21.5324 1.20292 1.54618 0
M  V30 248 H 20.1124 0.699802 -0.261317 0
M  V30 249 H 22.7744 1.45574 -1.29592 0
M  V30 250 H 21.8704 2.95524 -1.0036 0
M  V30 251 N 22.1715 0.800033 1.35784 0
M  V30 252 C 23.3995 0.389606 2.03199 0
M  V30 253 C 23.8145 -0.997375 1.60306 0
M  V30 254 O 23.1715 -1.64154 0.797481 0
M  V30 255 C 23.2225 0.455855 3.58614 0
M  V30 256 O 22.9435 1.78815 3.99946 0
M  V30 257 C 24.4445 0.0374032 4.43284 0
M  V30 258 H 21.6645 0.159132 0.651857 0
M  V30 259 H 24.2085 1.08183 1.73541 0
M  V30 260 H 22.3635 -0.188057 3.86943 0
M  V30 261 H 22.7775 1.74636 4.94573 0
M  V30 262 H 24.2515 0.134882 5.51835 0
M  V30 263 H 24.7285 -1.01651 4.27275 0
M  V30 264 H 25.3345 0.654215 4.20238 0
M  V30 265 N 23.6496 -1.47581 0.552962 0
M  V30 266 C 24.9266 -1.95563 -0.0381515 0
M  V30 267 C 25.3066 -1.49552 -1.48988 0
M  V30 268 O 24.6546 -0.732414 -2.16444 0
M  V30 269 C 24.8646 -3.48848 0.102919 0
M  V30 270 C 26.2126 -4.24577 -0.0446082 0
M  V30 271 O 27.2366 -3.56187 0.0302548 0
M  V30 272 O 26.0956 -5.46116 -0.204923 0
M  V30 273 H 23.1896 -0.824321 -0.0665067 0
M  V30 274 H 25.7356 -1.58001 0.619186 0
M  V30 275 H 24.5076 -3.75129 1.11328 0
M  V30 276 H 24.1306 -3.93165 -0.592224 0
M  V30 277 N 25.1277 -0.289203 -1.54924 0
M  V30 278 C 26.3677 0.324536 -2.01807 0
M  V30 279 C 26.7317 1.5199 -1.17316 0
M  V30 280 O 27.9327 2.20422 -1.53843 0
M  V30 281 C 26.2037 0.683578 -3.50802 0
M  V30 282 S 27.7627 1.28185 -4.19659 0
M  V30 283 H 24.5807 0.100236 -0.703899 0
M  V30 284 H 27.1827 -0.414325 -1.91059 0
M  V30 285 H 25.8867 -0.195073 -4.09936 0
M  V30 286 H 25.4177 1.45354 -3.65562 0
M  V30 287 H 27.4327 2.57006 -4.24456 0
M  V30 288 N 26.6058 1.57591 -0.0167156 0
M  V30 289 C 27.5558 2.05953 0.978137 0
M  V30 290 C 28.5398 0.957532 1.29306 0
M  V30 291 O 29.7318 1.22119 1.28125 0
M  V30 292 C 26.8608 2.58006 2.26468 0
M  V30 293 C 25.9468 3.75113 1.97867 0
M  V30 294 N 26.3378 4.86187 1.39486 0
M  V30 295 C 24.6358 3.83363 2.27924 0
M  V30 296 C 25.3368 5.67502 1.27735 0
M  V30 297 N 24.3128 5.14023 1.76866 0
M  V30 298 H 28.1148 2.89236 0.521522 0
M  V30 299 H 25.6288 1.61301 0.188596 0
M  V30 300 H 27.6258 2.90937 2.98599 0
M  V30 301 H 26.2858 1.76148 2.72767 0
M  V30 302 H 27.2968 5.06695 1.07147 0
M  V30 303 H 23.9738 3.1239 2.76982 0
M  V30 304 H 25.3638 6.66791 0.826978 0
M  V30 305 N 28.0839 -0.256276 1.55502 0
M  V30 306 C 29.4999 -0.604325 1.47716 0
M  V30 307 C 29.6999 -1.88763 0.705039 0
M  V30 308 O 28.7559 -2.51445 0.230613 0
M  V30 309 C 30.0689 -0.715756 2.92057 0
M  V30 310 C 31.6169 -0.808706 3.02372 0
M  V30 311 C 32.0919 -0.951777 4.48001 0
M  V30 312 N 33.5829 -1.01688 4.519 0
M  V30 313 C 34.3179 -1.14668 5.61817 0
M  V30 314 N 33.8139 -1.24261 6.81565 0
M  V30 315 N 35.6069 -1.1791 5.49594 0
M  V30 316 H 27.7579 0.586291 2.04148 0
M  V30 317 H 30.0209 0.201015 0.926443 0
M  V30 318 H 29.7269 0.157027 3.51349 0
M  V30 319 H 29.6009 -1.59071 3.42018 0
M  V30 320 H 31.9879 -1.67195 2.43166 0
M  V30 321 H 32.0689 0.0912063 2.55637 0
M  V30 322 H 31.7129 -0.0931291 5.07815 0
M  V30 323 H 31.6429 -1.86659 4.92408 0
M  V30 324 H 34.1339 -0.954468 3.65648 0
M  V30 325 H 34.4469 -1.34046 7.61086 0
M  V30 326 H 32.7919 -1.21236 6.84344 0
M  V30 327 H 35.9829 -1.10057 4.54978 0
M  V30 328 H 36.1559 -1.27681 6.35296 0
M  V30 329 N 29.562 -1.4872 -0.521534 0
M  V30 330 C 30.509 -1.63871 -1.62527 0
M  V30 331 C 31.479 -0.480559 -1.58996 0
M  V30 332 O 32.664 -0.705085 -1.77294 0
M  V30 333 C 29.804 -1.69227 -3.00759 0
M  V30 334 C 28.917 -2.96207 -3.14461 0
M  V30 335 C 28.052 -2.92671 -4.43303 0
M  V30 336 C 27.091 -4.14318 -4.50563 0
M  V30 337 N 26.228 -4.0881 -5.70805 0
M  V30 338 H 31.068 -2.58123 -1.48918 0
M  V30 339 H 28.605 -1.28 -0.724878 0
M  V30 340 H 30.563 -1.70314 -3.80853 0
M  V30 341 H 29.193 -0.784586 -3.1312 0
M  V30 342 H 28.245 -3.04826 -2.27564 0
M  V30 343 H 29.557 -3.86192 -3.15686 0
M  V30 344 H 28.711 -2.92206 -5.31696 0
M  V30 345 H 27.45 -2.00429 -4.44612 0
M  V30 346 H 26.455 -4.15049 -3.60575 0
M  V30 347 H 27.68 -5.07729 -4.50986 0
M  V30 348 H 25.626 -3.19394 -5.72995 0
M  V30 349 H 25.543 -4.92509 -5.7356 0
M  V30 350 H 26.811 -4.12418 -6.61462 0
M  V30 351 N 31.0401 0.771051 -1.3745 0
M  V30 352 C 32.0031 1.86598 -1.33093 0
M  V30 353 C 33.0031 1.59076 -0.234845 0
M  V30 354 O 34.1931 1.67145 -0.490732 0
M  V30 355 C 31.3251 3.23747 -1.06773 0
M  V30 356 H 32.5181 1.91873 -2.30488 0
M  V30 357 H 30.0711 0.970876 -1.2249 0
M  V30 358 H 30.8061 3.24148 -0.099129 0
M  V30 359 H 30.5911 3.45115 -1.86112 0
M  V30 360 H 32.0811 4.03824 -1.06377 0
M  V30 361 N 32.5182 1.22032 0.997298 0
M  V30 362 C 33.7482 1.06686 1.76923 0
M  V30 363 C 34.1562 -0.385838 1.85224 0
M  V30 364 O 33.4992 -1.27929 1.31833 0
M  V30 365 C 33.5612 1.59802 3.22031 0
M  V30 366 C 33.2252 3.08362 3.37286 0
M  V30 367 C 34.2222 4.05835 3.24952 0
M  V30 368 C 31.9072 3.47727 3.6248 0
M  V30 369 C 33.9012 5.4066 3.37588 0
M  V30 370 C 31.5882 4.82701 3.74757 0
M  V30 371 C 32.5862 5.78977 3.62319 0
M  V30 372 O 32.2742 7.11502 3.74193 0
M  V30 373 H 32.0062 0.374767 0.562606 0
M  V30 374 H 34.5602 1.61991 1.26286 0
M  V30 375 H 32.7902 0.989003 3.73839 0
M  V30 376 H 34.4792 1.40184 3.80924 0
M  V30 377 H 35.2452 3.76766 3.05405 0
M  V30 378 H 31.1242 2.73317 3.7124 0
M  V30 379 H 34.6682 6.15788 3.27796 0
M  V30 380 H 30.5652 5.11453 3.9381 0
M  V30 381 H 31.3332 7.19019 3.91093 0
M  V30 382 N 33.9963 -1.19345 1.0293 0
M  V30 383 C 35.2213 -1.93538 0.745511 0
M  V30 384 C 35.6463 -1.75007 -0.689511 0
M  V30 385 O 35.0043 -1.05265 -1.47611 0
M  V30 386 C 35.0523 -3.43336 1.10239 0
M  V30 387 O 34.1563 -4.11806 0.221289 0
M  V30 388 H 33.4973 -0.604193 0.275404 0
M  V30 389 H 36.0273 -1.5141 1.37609 0
M  V30 390 H 36.0373 -3.94004 1.05947 0
M  V30 391 H 34.7123 -3.56146 2.14786 0
M  V30 392 H 33.2893 -3.715 0.322842 0
M  V30 393 N 35.4744 -0.807222 -1.35358 0
M  V30 394 C 36.7024 -0.400377 -2.02989 0
M  V30 395 C 37.1174 0.988859 -1.60832 0
M  V30 396 O 36.4744 1.63729 -0.806175 0
M  V30 397 C 36.5254 -0.474867 -3.58368 0
M  V30 398 O 36.2464 -1.80933 -3.98992 0
M  V30 399 C 37.7474 -0.0609112 -4.43258 0
M  V30 400 H 34.9674 -0.162587 -0.651004 0
M  V30 401 H 37.5114 -1.09102 -1.72965 0
M  V30 402 H 35.6664 0.167534 -3.87038 0
M  V30 403 H 36.0804 -1.77256 -4.9364 0
M  V30 404 H 37.5544 -0.164145 -5.51756 0
M  V30 405 H 38.0314 0.993831 -4.27808 0
M  V30 406 H 38.6374 -0.676492 -4.19885 0
M  V30 407 N 36.9525 1.47285 -0.560781 0
M  V30 408 C 38.1805 2.06855 -0.0430262 0
M  V30 409 C 38.5955 1.41291 1.25229 0
M  V30 410 O 37.9525 0.510648 1.7521 0
M  V30 411 C 38.0035 3.61178 0.152518 0
M  V30 412 O 37.7245 4.24285 -1.0915 0
M  V30 413 C 39.2255 4.37624 0.707145 0
M  V30 414 H 36.4455 0.669319 -0.0474652 0
M  V30 415 H 38.9895 1.89237 -0.77521 0
M  V30 416 H 37.1445 3.78298 0.834843 0
M  V30 417 H 37.5585 5.16868 -0.891482 0
M  V30 418 H 39.0325 5.46271 0.793244 0
M  V30 419 H 39.5095 4.04152 1.71923 0
M  V30 420 H 40.1155 4.25257 0.0604027 0
M  V30 421 N 38.4306 0.297415 1.54768 0
M  V30 422 C 39.6556 -0.318435 2.04941 0
M  V30 423 C 40.0806 -1.4701 1.17345 0
M  V30 424 O 39.4386 -1.80436 0.176758 0
M  V30 425 C 39.4866 -0.755749 3.52592 0
M  V30 426 O 38.5906 -1.86088 3.68028 0
M  V30 427 H 37.9316 -0.062421 0.661059 0
M  V30 428 H 40.4616 0.438215 1.99852 0
M  V30 429 H 40.4716 -1.04552 3.94376 0
M  V30 430 H 39.1466 0.0867233 4.1581 0
M  V30 431 H 37.7236 -1.57193 3.38149 0
M  V30 432 N 39.9087 -1.5758 0.0250728 0
M  V30 433 C 41.1577 -1.90811 -0.653767 0
M  V30 434 C 41.4707 -0.90273 -1.73523 0
M  V30 435 O 42.6767 -1.12614 -2.47043 0
M  V30 436 C 41.1327 -3.38804 -1.21409 0
M  V30 437 C 40.7407 -4.47692 -0.166126 0
M  V30 438 C 42.4847 -3.81108 -1.86967 0
M  V30 439 C 40.3917 -5.86779 -0.737856 0
M  V30 440 H 39.3217 -0.712063 -0.247956 0
M  V30 441 H 41.9727 -1.83281 0.0897137 0
M  V30 442 H 40.3547 -3.41252 -2.00905 0
M  V30 443 H 41.5287 -4.56797 0.606079 0
M  V30 444 H 39.8437 -4.14565 0.390466 0
M  V30 445 H 42.4407 -4.82375 -2.30692 0
M  V30 446 H 42.7837 -3.15953 -2.71071 0
M  V30 447 H 43.3167 -3.81065 -1.14167 0
M  V30 448 H 40.0557 -6.55468 0.0649577 0
M  V30 449 H 39.5757 -5.81288 -1.47864 0
M  V30 450 H 41.2547 -6.35223 -1.22884 0
M  V30 451 N 41.3868 0.248026 -1.55636 0
M  V30 452 C 42.3498 1.29044 -1.89421 0
M  V30 453 C 43.3498 1.41134 -0.770581 0
M  V30 454 O 44.5398 1.39854 -1.03858 0
M  V30 455 C 41.6718 2.66831 -2.12165 0
M  V30 456 H 42.8648 1.00305 -2.82629 0
M  V30 457 H 40.4178 0.487265 -1.48511 0
M  V30 458 H 41.1528 3.00711 -1.21422 0
M  V30 459 H 40.9378 2.59438 -2.93997 0
M  V30 460 H 42.4278 3.42103 -2.3949 0
M  V30 461 N 42.8649 1.48995 0.513639 0
M  V30 462 C 44.0899 1.61792 1.29762 0
M  V30 463 C 44.5149 0.284475 1.85936 0
M  V30 464 O 43.8729 -0.746185 1.65232 0
M  V30 465 C 43.9209 2.67993 2.41272 0
M  V30 466 O 43.0249 2.26287 3.44772 0
M  V30 467 H 42.3659 0.541963 0.38363 0
M  V30 468 H 44.8959 1.95097 0.616307 0
M  V30 469 H 44.9059 2.89772 2.87221 0
M  V30 470 H 43.5809 3.64791 1.9975 0
M  V30 471 H 42.1579 2.14788 3.04829 0
M  V30 472 N 44.343 -0.763751 1.37857 0
M  V30 473 C 45.589 -1.52483 1.33704 0
M  V30 474 C 45.922 -1.94051 -0.0759612 0
M  V30 475 O 45.197 -1.64675 -1.03501 0
M  V30 476 C 45.48 -2.78441 2.28348 0
M  V30 477 C 45.333 -2.43075 3.78463 0
M  V30 478 C 46.652 -3.80415 2.21298 0
M  V30 479 H 43.771 -0.553169 0.487005 0
M  V30 480 H 46.413 -0.875562 1.68624 0
M  V30 481 H 44.563 -3.33842 1.987 0
M  V30 482 H 46.235 -1.93527 4.18742 0
M  V30 483 H 44.478 -1.75666 3.96641 0
M  V30 484 H 45.149 -3.33149 4.40132 0
M  V30 485 H 47.625 -3.34527 2.47449 0
M  V30 486 H 46.501 -4.66257 2.89647 0
M  V30 487 H 46.762 -4.25262 1.20849 0
M  V30 488 N 45.8211 -1.22559 -0.990812 0
M  V30 489 C 46.7841 -0.998863 -2.0629 0
M  V30 490 C 47.7841 0.0354834 -1.60761 0
M  V30 491 O 48.9741 -0.203231 -1.7301 0
M  V30 492 C 46.1061 -0.509203 -3.37076 0
M  V30 493 H 47.2991 -1.95014 -2.27837 0
M  V30 494 H 44.8521 -1.04456 -1.16269 0
M  V30 495 H 45.5871 0.446335 -3.21214 0
M  V30 496 H 45.3721 -1.25547 -3.71457 0
M  V30 497 H 46.8621 -0.370888 -4.1595 0
M  V30 498 N 47.2992 1.18797 -1.03562 0
M  V30 499 C 48.5472 1.88278 -0.734569 0
M  V30 500 C 48.8682 1.8043 0.739586 0
M  V30 501 O 48.1382 1.21925 1.53333 0
M  V30 502 H 46.7182 0.696991 -0.268725 0
M  V30 503 H 49.3802 1.44192 -1.31129 0
M  V30 504 H 48.4762 2.94443 -1.03489 0
M  V30 505 N 48.7773 0.814389 1.34928 0
M  V30 506 C 49.7073 0.244827 2.32213 0
M  V30 507 C 50.6883 -0.634024 1.57842 0
M  V30 508 O 51.8733 -0.562676 1.8587 0
M  V30 509 C 49.0033 -0.601106 3.42058 0
M  V30 510 C 47.9573 0.179896 4.27622 0
M  V30 511 C 47.2833 -0.788237 5.28858 0
M  V30 512 C 48.5833 1.38329 5.03649 0
M  V30 513 H 50.2773 1.05763 2.80097 0
M  V30 514 H 47.8233 0.510029 1.34665 0
M  V30 515 H 49.7763 -1.00968 4.09125 0
M  V30 516 H 48.5003 -1.44688 2.92802 0
M  V30 517 H 47.1593 0.569739 3.62146 0
M  V30 518 H 46.8073 -1.62973 4.75866 0
M  V30 519 H 46.5073 -0.269942 5.8698 0
M  V30 520 H 48.0313 -1.19485 5.98795 0
M  V30 521 H 49.4453 1.04918 5.63618 0
M  V30 522 H 47.8423 1.83662 5.71304 0
M  V30 523 H 48.9123 2.16592 4.33839 0
M  V30 524 N 50.2554 -1.46986 0.568584 0
M  V30 525 C 51.4834 -2.0683 0.0539956 0
M  V30 526 C 51.8984 -1.41953 -1.24478 0
M  V30 527 O 51.2554 -0.519933 -1.74937 0
M  V30 528 C 51.3064 -3.61254 -0.133362 0
M  V30 529 O 51.0274 -4.237 1.11399 0
M  V30 530 C 52.5284 -4.37992 -0.683927 0
M  V30 531 H 49.7484 -0.669058 0.0510141 0
M  V30 532 H 52.2924 -1.88824 0.785234 0
M  V30 533 H 50.4474 -3.78735 -0.81477 0
M  V30 534 H 50.8614 -5.16388 0.91888 0
M  V30 535 H 52.3354 -5.46684 -0.764263 0
M  V30 536 H 52.8124 -4.05058 -1.69778 0
M  V30 537 H 53.4184 -4.25283 -0.0378494 0
M  V30 538 N 51.7335 -0.305618 -1.54608 0
M  V30 539 C 52.6965 0.555591 -2.22364 0
M  V30 540 C 53.6965 1.05768 -1.21119 0
M  V30 541 O 54.8865 0.952972 -1.45822 0
M  V30 542 C 52.0185 1.76974 -2.91364 0
M  V30 543 H 53.2115 -0.0364572 -2.99878 0
M  V30 544 H 50.7645 -0.0565007 -1.56198 0
M  V30 545 H 51.4995 2.40151 -2.17941 0
M  V30 546 H 51.2845 1.41732 -3.65588 0
M  V30 547 H 52.7745 2.38148 -3.43038 0
M  V30 548 N 53.2116 1.57565 -0.0334293 0
M  V30 549 C 54.1746 2.09393 0.932048 0
M  V30 550 C 55.1746 1.00986 1.25134 0
M  V30 551 O 56.3646 1.27129 1.19096 0
M  V30 552 C 53.4966 2.56338 2.2473 0
M  V30 553 H 54.6896 2.95984 0.483085 0
M  V30 554 H 52.2426 1.54819 0.21468 0
M  V30 555 H 52.9776 1.7309 2.74245 0
M  V30 556 H 52.7626 3.35542 2.02865 0
M  V30 557 H 54.2526 2.96646 2.93923 0
M  V30 558 N 54.6897 -0.239769 1.55765 0
M  V30 559 C 55.6527 -1.28038 1.90103 0
M  V30 560 C 56.6527 -1.40723 0.778055 0
M  V30 561 O 57.8427 -1.39301 1.04599 0
M  V30 562 C 54.9747 -2.65702 2.13577 0
M  V30 563 H 56.1677 -0.988048 2.83157 0
M  V30 564 H 53.7207 -0.479382 1.48767 0
M  V30 565 H 54.4557 -3.00063 1.23015 0
M  V30 566 H 54.2407 -2.57875 2.95369 0
M  V30 567 H 55.7307 -3.40828 2.41301 0
M  V30 568 N 56.1678 -1.49265 -0.50573 0
M  V30 569 C 57.3978 -1.61979 -1.28243 0
M  V30 570 C 57.8058 -0.288576 -1.86986 0
M  V30 571 O 57.1488 0.735408 -1.68337 0
M  V30 572 C 57.2108 -2.62632 -2.45489 0
M  V30 573 C 56.8748 -4.071 -2.07651 0
M  V30 574 C 57.8718 -4.94049 -1.61901 0
M  V30 575 C 55.5568 -4.52801 -2.17431 0
M  V30 576 C 57.5508 -6.24736 -1.26428 0
M  V30 577 C 55.2378 -5.83503 -1.8157 0
M  V30 578 C 56.2358 -6.69294 -1.36142 0
M  V30 579 O 55.9238 -7.9756 -1.00764 0
M  V30 580 H 55.6558 -0.54834 -0.395347 0
M  V30 581 H 58.2098 -1.96002 -0.614204 0
M  V30 582 H 56.4398 -2.2378 -3.15372 0
M  V30 583 H 58.1288 -2.64925 -3.07522 0
M  V30 584 H 58.8948 -4.5997 -1.53795 0
M  V30 585 H 54.7738 -3.86196 -2.51742 0
M  V30 586 H 58.3178 -6.91652 -0.908992 0
M  V30 587 H 54.2148 -6.17112 -1.89324 0
M  V30 588 H 54.9828 -8.10529 -1.13952 0
M  V30 589 N 57.6459 0.756429 -1.3826 0
M  V30 590 C 59.0619 1.0591 -1.19395 0
M  V30 591 C 59.2619 2.01459 -0.0406567 0
M  V30 592 O 58.3179 2.44909 0.614467 0
M  V30 593 C 59.6309 1.64191 -2.51916 0
M  V30 594 C 61.1789 1.76376 -2.58574 0
M  V30 595 C 61.6539 2.38069 -3.91264 0
M  V30 596 N 63.1449 2.45503 -3.92788 0
M  V30 597 C 63.8799 2.94126 -4.92217 0
M  V30 598 N 63.3759 3.42805 -6.02043 0
M  V30 599 N 65.1689 2.9314 -4.7961 0
M  V30 600 H 57.3199 0.122313 -2.12048 0
M  V30 601 H 59.5829 0.116892 -0.940766 0
M  V30 602 H 59.2889 1.01451 -3.3675 0
M  V30 603 H 59.1629 2.6329 -2.70108 0
M  V30 604 H 61.5499 2.38244 -1.74137 0
M  V30 605 H 61.6309 0.759894 -2.44252 0
M  V30 606 H 61.2749 1.76835 -4.76121 0
M  V30 607 H 61.2049 3.39091 -4.02895 0
M  V30 608 H 63.6959 2.1107 -3.13461 0
M  V30 609 H 64.0089 3.78354 -6.73846 0
M  V30 610 H 62.3539 3.4087 -6.05667 0
M  V30 611 H 65.5449 2.54419 -3.92923 0
M  V30 612 H 65.7179 3.30721 -5.5725 0
M  V30 613 N 59.124 1.23083 0.984299 0
M  V30 614 C 60.37 1.06214 1.72761 0
M  V30 615 C 60.703 -0.400584 1.90024 0
M  V30 616 O 59.978 -1.29672 1.44967 0
M  V30 617 C 60.261 1.78375 3.12817 0
M  V30 618 C 60.114 3.32296 3.03149 0
M  V30 619 C 61.433 1.54309 4.12161 0
M  V30 620 H 58.552 0.387251 0.627061 0
M  V30 621 H 61.194 1.51536 1.14616 0
M  V30 622 H 59.344 1.39848 3.62457 0
M  V30 623 H 61.016 3.8032 2.61064 0
M  V30 624 H 59.259 3.6153 2.39747 0
M  V30 625 H 59.93 3.77972 4.02295 0
M  V30 626 H 62.406 1.87791 3.71314 0
M  V30 627 H 61.282 2.07281 5.08258 0
M  V30 628 H 61.543 0.477572 4.39513 0
M  V30 629 N 60.6021 -1.18246 1.0419 0
M  V30 630 C 61.8301 -1.92195 0.766072 0
M  V30 631 C 62.2451 -1.76247 -0.676933 0
M  V30 632 O 61.6021 -1.09293 -1.46155 0
M  V30 633 C 61.6531 -3.43568 1.12442 0
M  V30 634 O 61.3741 -3.59015 2.51078 0
M  V30 635 C 62.8751 -4.34613 0.873275 0
M  V30 636 H 60.0951 -0.610114 0.279288 0
M  V30 637 H 62.6391 -1.50007 1.38989 0
M  V30 638 H 60.7941 -3.8354 0.545542 0
M  V30 639 H 61.2081 -4.5273 2.64831 0
M  V30 640 H 62.6821 -5.39374 1.17385 0
M  V30 641 H 63.1591 -4.38781 -0.191909 0
M  V30 642 H 63.7651 -4.00341 1.43551 0
M  V30 643 N 62.0802 -0.821533 -1.34494 0
M  V30 644 C 63.0102 -0.257138 -2.3208 0
M  V30 645 C 63.9912 0.625645 -1.58176 0
M  V30 646 O 65.1762 0.552811 -1.86166 0
M  V30 647 C 62.3062 0.582958 -3.42372 0
M  V30 648 C 61.2602 -0.202571 -4.2752 0
M  V30 649 C 60.5862 0.760179 -5.29269 0
M  V30 650 C 61.8862 -1.40998 -5.02908 0
M  V30 651 H 63.5802 -1.07247 -2.79532 0
M  V30 652 H 61.1262 -0.517163 -1.34393 0
M  V30 653 H 63.0792 0.987972 -4.09655 0
M  V30 654 H 61.8032 1.43133 -2.93565 0
M  V30 655 H 60.4622 -0.588936 -3.61838 0
M  V30 656 H 60.1102 1.60447 -4.76724 0
M  V30 657 H 59.8102 0.238809 -5.87115 0
M  V30 658 H 61.3342 1.16308 -5.9942 0
M  V30 659 H 62.7482 -1.07905 -5.63054 0
M  V30 660 H 61.1452 -1.86689 -5.70322 0
M  V30 661 H 62.2152 -2.1889 -4.32684 0
M  V30 662 N 63.5583 1.46682 -0.576371 0
M  V30 663 C 64.5063 2.31953 0.17335 0
M  V30 664 C 65.5003 1.44098 0.89062 0
M  V30 665 O 66.7063 1.60759 0.809728 0
M  V30 666 H 63.0813 0.748273 0.0747727 0
M  V30 667 H 65.0523 2.93007 -0.564738 0
M  V30 668 C 63.8013 3.27142 1.17786 0
M  V30 669 H 63.1243 3.94719 0.635361 0
M  V30 670 H 64.5643 3.896 1.67296 0
M  V30 671 C 63.0233 2.52036 2.23561 0
M  V30 672 O 63.5533 2.27877 3.3081 0
M  V30 673 N 61.7593 2.12709 1.97998 0
M  V30 674 H 61.3063 2.32557 1.10792 0
M  V30 675 H 61.2643 1.62776 2.68982 0
M  V30 676 N 65.0364 0.313813 1.54444 0
M  V30 677 C 66.4474 -0.176243 1.85866 0
M  V30 678 C 66.7984 -1.52405 1.23561 0
M  V30 679 O 65.9234 -2.09605 0.538016 0
M  V30 680 C 66.5184 -0.32657 3.37222 0
M  V30 681 C 65.0774 -0.760846 3.6863 0
M  V30 682 C 64.2244 0.123247 2.77026 0
M  V30 683 H 67.1754 0.534418 1.49431 0
M  V30 684 H 67.1964 -1.15908 3.62416 0
M  V30 685 H 66.7084 0.654531 3.82541 0
M  V30 686 H 64.8094 -1.75204 3.28838 0
M  V30 687 H 64.9224 -0.571353 4.75681 0
M  V30 688 H 63.2864 -0.399597 2.51546 0
M  V30 689 H 64.0694 1.10094 3.25168 0
M  V30 690 N 66.5145 -1.57545 0.0417849 0
M  V30 691 C 67.9255 -1.80011 -0.495259 0
M  V30 692 C 68.2765 -0.953199 -1.71489 0
M  V30 693 O 67.4015 -0.167138 -2.15754 0
M  V30 694 C 67.9965 -3.26482 -0.905265 0
M  V30 695 C 66.5555 -3.499 -1.38734 0
M  V30 696 C 65.7025 -2.74979 -0.358056 0
M  V30 697 H 68.6535 -1.56425 0.267736 0
M  V30 698 H 68.6745 -3.36887 -1.76882 0
M  V30 699 H 68.1865 -3.88096 -0.017401 0
M  V30 700 H 66.2875 -2.93553 -2.29471 0
M  V30 701 H 66.4005 -4.58615 -1.38598 0
M  V30 702 H 64.7645 -2.40834 -0.828912 0
M  V30 703 H 65.5475 -3.39315 0.521561 0
M  V30 704 N 67.9926 0.231505 -1.5589 0
M  V30 705 C 69.2406 0.955461 -1.78088 0
M  V30 706 C 69.5616 1.85262 -0.608533 0
M  V30 707 O 68.8316 1.92277 0.375035 0
M  V30 708 H 67.4116 0.355787 -0.656829 0
M  V30 709 H 70.0736 0.245751 -1.93344 0
M  V30 710 H 69.1696 1.56814 -2.69844 0
M  V30 711 N 69.4707 1.49531 0.497807 0
M  V30 712 C 70.6987 1.62893 1.27567 0
M  V30 713 C 71.1137 0.301585 1.86376 0
M  V30 714 O 70.4707 -0.713335 1.67982 0
M  V30 715 C 70.5217 2.70013 2.40364 0
M  V30 716 O 70.2427 3.976 1.83972 0
M  V30 717 C 71.7437 2.94109 3.31685 0
M  V30 718 H 68.9637 0.548298 0.386794 0
M  V30 719 H 71.5077 1.95584 0.597245 0
M  V30 720 H 69.6627 2.40092 3.04031 0
M  V30 721 H 70.0767 4.56631 2.58047 0
M  V30 722 H 71.5507 3.72788 4.07104 0
M  V30 723 H 72.0277 2.04147 3.88871 0
M  V30 724 H 72.6337 3.2546 2.73781 0
M  V30 725 N 70.9488 -0.749086 1.3866 0
M  V30 726 C 72.1958 -1.50833 1.35114 0
M  V30 727 C 72.5238 -1.94415 -0.0574049 0
M  V30 728 O 71.7788 -1.66065 -1.03541 0
M  V30 729 C 72.0778 -2.7712 2.25697 0
M  V30 730 C 71.7438 -2.52477 3.73585 0
M  V30 731 C 70.4058 -2.45466 4.13884 0
M  V30 732 C 72.7578 -2.31066 4.67181 0
M  V30 733 C 70.0858 -2.15064 5.45861 0
M  V30 734 C 72.4378 -2.02183 5.9942 0
M  V30 735 C 71.1018 -1.93631 6.38798 0
M  V30 736 H 70.3718 -0.551936 0.494416 0
M  V30 737 H 73.0188 -0.860979 1.71054 0
M  V30 738 H 71.3238 -3.46528 1.82827 0
M  V30 739 H 73.0208 -3.35096 2.20254 0
M  V30 740 H 69.6108 -2.58807 3.41638 0
M  V30 741 H 73.7948 -2.35459 4.3689 0
M  V30 742 H 69.0508 -2.06954 5.75308 0
M  V30 743 H 73.2248 -1.8462 6.71482 0
M  V30 744 H 70.8518 -1.69839 7.40985 0
M  V30 745 N 72.4269 -1.23603 -0.977757 0
M  V30 746 C 73.3569 -1.04401 -2.0886 0
M  V30 747 C 74.3379 0.0399052 -1.70053 0
M  V30 748 O 75.5229 -0.125246 -1.93796 0
M  V30 749 C 72.6529 -0.637269 -3.41403 0
M  V30 750 C 71.6069 -1.66883 -3.94124 0
M  V30 751 C 70.9329 -1.11745 -5.22893 0
M  V30 752 C 72.2329 -3.06247 -4.23096 0
M  V30 753 H 73.9269 -1.97316 -2.25182 0
M  V30 754 H 71.4729 -0.950096 -1.08209 0
M  V30 755 H 73.4259 -0.48998 -4.18542 0
M  V30 756 H 72.1499 0.327557 -3.24953 0
M  V30 757 H 70.8089 -1.80416 -3.19133 0
M  V30 758 H 70.4569 -0.143527 -5.02795 0
M  V30 759 H 70.1569 -1.80672 -5.59134 0
M  V30 760 H 71.6809 -0.982067 -6.02651 0
M  V30 761 H 73.0949 -2.96001 -4.90975 0
M  V30 762 H 71.4919 -3.72436 -4.70544 0
M  V30 763 H 72.5619 -3.55041 -3.30263 0
M  V30 764 N 73.905 1.17692 -1.04816 0
M  V30 765 C 74.815 2.25229 -0.65643 0
M  V30 766 C 75.831 1.71018 0.320761 0
M  V30 767 O 77.007 2.00649 0.173805 0
M  V30 768 C 74.072 3.46684 -0.0332629 0
M  V30 769 C 73.133 4.15997 -1.06042 0
M  V30 770 C 72.366 5.31654 -0.466893 0
M  V30 771 O 72.589 5.65777 0.724758 0
M  V30 772 O 71.523 5.89831 -1.1993 0
M  V30 773 H 75.349 2.61016 -1.55255 0
M  V30 774 H 72.934 1.24919 -0.81949 0
M  V30 775 H 74.816 4.20234 0.313256 0
M  V30 776 H 73.491 3.12703 0.836566 0
M  V30 777 H 72.398 3.44482 -1.45886 0
M  V30 778 H 73.731 4.53996 -1.90127 0
M  V30 779 N 75.3831 0.828654 1.34056 0
M  V30 780 C 76.6311 0.41863 1.97717 0
M  V30 781 C 76.9521 -1.02314 1.66002 0
M  V30 782 O 76.2221 -1.71119 0.953683 0
M  V30 783 H 74.8021 0.151809 0.731412 0
M  V30 784 H 77.4641 1.05936 1.63596 0
M  V30 785 H 76.5601 0.542318 3.07352 0
M  V30 786 N 76.8612 -1.46375 0.584142 0
M  V30 787 C 78.1072 -2.02678 0.0703716 0
M  V30 788 C 78.4402 -1.4545 -1.28678 0
M  V30 789 O 77.7152 -0.62014 -1.84349 0
M  V30 790 C 77.9982 -3.60099 0.00614674 0
M  V30 791 C 77.8512 -4.27709 1.3923 0
M  V30 792 C 79.1702 -4.34598 -0.693742 0
M  V30 793 H 76.2892 -0.736504 0.027047 0
M  V30 794 H 78.9312 -1.74501 0.751615 0
M  V30 795 H 77.0812 -3.84236 -0.574009 0
M  V30 796 H 78.7532 -4.14832 2.01773 0
M  V30 797 H 76.9962 -3.87016 1.95962 0
M  V30 798 H 77.6672 -5.36478 1.29982 0
M  V30 799 H 80.1432 -4.15615 -0.200869 0
M  V30 800 H 79.0192 -5.44318 -0.707714 0
M  V30 801 H 79.2802 -4.05759 -1.75533 0
M  V30 802 N 78.3393 -0.321999 -1.54275 0
M  V30 803 C 79.3023 0.531975 -2.22941 0
M  V30 804 C 80.3023 1.04478 -1.22234 0
M  V30 805 O 81.4923 0.937452 -1.46825 0
M  V30 806 C 78.6243 1.73874 -2.93224 0
M  V30 807 H 79.8173 -0.0682612 -2.99822 0
M  V30 808 H 77.3703 -0.0730644 -1.56129 0
M  V30 809 H 78.1053 2.37825 -2.20476 0
M  V30 810 H 77.8903 1.37847 -3.6707 0
M  V30 811 H 79.3803 2.34496 -3.45545 0
M  V30 812 N 79.8174 1.5752 -0.0501392 0
M  V30 813 C 80.7644 2.1147 0.924603 0
M  V30 814 C 81.7344 1.02182 1.30951 0
M  V30 815 O 82.9194 1.29723 1.39916 0
M  V30 816 C 80.0594 2.66337 2.19451 0
M  V30 817 C 79.1724 3.89708 1.86418 0
M  V30 818 C 78.3074 4.32893 3.07859 0
M  V30 819 C 77.3464 5.48967 2.70742 0
M  V30 820 N 76.4834 5.87211 3.84874 0
M  V30 821 H 81.3234 2.94465 0.457639 0
M  V30 822 H 78.8604 1.45531 0.214266 0
M  V30 823 H 80.8184 2.96247 2.93758 0
M  V30 824 H 79.4484 1.86141 2.63726 0
M  V30 825 H 78.5004 3.66396 1.02264 0
M  V30 826 H 79.8124 4.74074 1.55096 0
M  V30 827 H 78.9664 4.6435 3.90466 0
M  V30 828 H 77.7054 3.47336 3.42358 0
M  V30 829 H 76.7104 5.17183 1.86551 0
M  V30 830 H 77.9354 6.3624 2.37436 0
M  V30 831 H 75.8814 5.04607 4.19175 0
M  V30 832 H 75.7984 6.66266 3.57247 0
M  V30 833 H 77.0664 6.23282 4.68123 0
M  V30 834 N 81.2955 -0.223234 1.56011 0
M  V30 835 C 82.5415 -0.949279 1.79211 0
M  V30 836 C 82.8745 -1.84054 0.619494 0
M  V30 837 O 82.1495 -1.90726 -0.381317 0
M  V30 838 C 82.4325 -1.78965 3.12479 0
M  V30 839 C 82.2855 -0.924997 4.40186 0
M  V30 840 C 83.6045 -2.76774 3.42175 0
M  V30 841 H 80.7235 -0.343676 0.651963 0
M  V30 842 H 83.3655 -0.218253 1.88742 0
M  V30 843 H 81.5155 -2.41291 3.04485 0
M  V30 844 H 83.1875 -0.318615 4.60198 0
M  V30 845 H 81.4305 -0.230344 4.33188 0
M  V30 846 H 82.1015 -1.54735 5.29869 0
M  V30 847 H 84.5775 -2.24584 3.50287 0
M  V30 848 H 83.4535 -3.32678 4.36597 0
M  V30 849 H 83.7145 -3.54429 2.64258 0
M  V30 850 N 82.7736 -1.49793 -0.48987 0
M  V30 851 C 84.0216 -1.59525 -1.24081 0
M  V30 852 C 84.3426 -0.288953 -1.92847 0
M  V30 853 O 83.6126 0.692436 -1.83254 0
M  V30 854 H 82.1926 -0.587796 -0.460983 0
M  V30 855 H 84.8546 -1.86477 -0.566778 0
M  V30 856 H 83.9506 -2.39696 -1.99881 0
M  V30 857 N 84.2517 0.741722 -1.39055 0
M  V30 858 C 85.1837 1.8657 -1.33133 0
M  V30 859 C 86.1967 1.61001 -0.241329 0
M  V30 860 O 87.3857 1.7136 -0.499784 0
M  V30 861 C 84.4857 3.22457 -1.04283 0
M  V30 862 C 83.6587 3.75435 -2.24427 0
M  V30 863 C 82.7177 4.89867 -1.92138 0
M  V30 864 O 81.7437 5.03879 -2.64754 0
M  V30 865 N 82.9457 5.73738 -0.88347 0
M  V30 866 H 85.7107 1.92156 -2.29991 0
M  V30 867 H 83.2717 0.922172 -1.3307 0
M  V30 868 H 85.2637 3.9657 -0.807128 0
M  V30 869 H 83.8337 3.12181 -0.161807 0
M  V30 870 H 83.0537 2.92751 -2.6399 0
M  V30 871 H 84.3417 4.07563 -3.04581 0
M  V30 872 H 83.7397 5.64999 -0.281517 0
M  V30 873 H 82.2967 6.47947 -0.707662 0
M  V30 874 N 85.7298 1.2412 0.971189 0
M  V30 875 C 86.9598 1.10415 1.7462 0
M  V30 876 C 87.3678 -0.346462 1.86001 0
M  V30 877 O 86.7108 -1.25104 1.34517 0
M  V30 878 C 86.7728 1.66596 3.18568 0
M  V30 879 C 86.4368 3.15446 3.3067 0
M  V30 880 C 87.4338 4.12636 3.16271 0
M  V30 881 C 85.1188 3.55337 3.55022 0
M  V30 882 C 87.1128 5.47699 3.26044 0
M  V30 883 C 84.7998 4.90542 3.64434 0
M  V30 884 C 85.7978 5.86532 3.49956 0
M  V30 885 O 85.4858 7.19279 3.59017 0
M  V30 886 H 85.2178 0.386616 0.55453 0
M  V30 887 H 87.7718 1.64633 1.22821 0
M  V30 888 H 86.0018 1.06808 3.71657 0
M  V30 889 H 87.6908 1.48232 3.77865 0
M  V30 890 H 88.4568 3.8316 2.97344 0
M  V30 891 H 84.3358 2.8113 3.65359 0
M  V30 892 H 87.8798 6.22603 3.14661 0
M  V30 893 H 83.7768 5.19691 3.82873 0
M  V30 894 H 84.5448 7.27153 3.75754 0
M  V30 895 N 87.2079 -1.17134 1.05439 0
M  V30 896 C 88.4359 -1.91372 0.786414 0
M  V30 897 C 88.8509 -1.76955 -0.658202 0
M  V30 898 O 88.2079 -1.10838 -1.44987 0
M  V30 899 C 88.2589 -3.42356 1.1608 0
M  V30 900 O 87.9799 -3.56332 2.54871 0
M  V30 901 C 89.4809 -4.33663 0.919322 0
M  V30 902 H 86.7009 -0.607118 0.285743 0
M  V30 903 H 89.2449 -1.48525 1.40572 0
M  V30 904 H 87.3999 -3.82939 0.586191 0
M  V30 905 H 87.8139 -4.49896 2.69618 0
M  V30 906 H 89.2879 -5.38099 1.231 0
M  V30 907 H 89.7649 -4.38959 -0.145359 0
M  V30 908 H 90.3709 -3.98796 1.47789 0
M  V30 909 N 88.686 -0.835752 -1.33615 0
M  V30 910 C 89.933 -0.429959 -1.97883 0
M  V30 911 C 90.261 1.01006 -1.66217 0
M  V30 912 O 89.516 1.72047 -0.93265 0
M  V30 913 C 89.815 -0.593925 -3.52431 0
M  V30 914 C 89.481 -2.00158 -4.04039 0
M  V30 915 C 88.143 -2.38662 -4.17844 0
M  V30 916 C 90.495 -2.92117 -4.31644 0
M  V30 917 C 87.823 -3.68435 -4.56588 0
M  V30 918 C 90.175 -4.21368 -4.71838 0
M  V30 919 C 88.839 -4.59833 -4.83849 0
M  V30 920 H 88.109 -0.157333 -0.724104 0
M  V30 921 H 90.756 -1.06217 -1.59343 0
M  V30 922 H 89.061 0.121619 -3.91611 0
M  V30 923 H 90.758 -0.260282 -4.00154 0
M  V30 924 H 87.348 -1.69252 -3.93766 0
M  V30 925 H 91.532 -2.63608 -4.20505 0
M  V30 926 H 86.788 -3.98046 -4.64079 0
M  V30 927 H 90.962 -4.92703 -4.92155 0
M  V30 928 H 88.589 -5.60438 -5.13627 0
M  V30 929 N 90.1641 1.46063 -0.591896 0
M  V30 930 C 91.3921 2.06717 -0.0868936 0
M  V30 931 C 91.8071 1.43916 1.22203 0
M  V30 932 O 91.1641 0.547698 1.74088 0
M  V30 933 C 91.2151 3.6142 0.0758725 0
M  V30 934 O 90.9361 4.21874 -1.18126 0
M  V30 935 C 92.4371 4.39025 0.61416 0
M  V30 936 H 89.6571 0.668162 -0.0616518 0
M  V30 937 H 92.2011 1.8755 -0.815175 0
M  V30 938 H 90.3561 3.79983 0.754413 0
M  V30 939 H 90.7701 5.14861 -1.00092 0
M  V30 940 H 92.2441 5.4783 0.677193 0
M  V30 941 H 92.7211 4.07708 1.63312 0
M  V30 942 H 93.3271 4.2529 -0.0298142 0
M  V30 943 N 91.6422 0.330177 1.54103 0
M  V30 944 C 92.6052 -0.520144 2.2322 0
M  V30 945 C 93.6052 -1.03828 1.22786 0
M  V30 946 O 94.7952 -0.929652 1.4732 0
M  V30 947 C 91.9272 -1.72317 2.94142 0
M  V30 948 H 93.1202 0.0841605 2.99782 0
M  V30 949 H 90.6732 0.0813433 1.56088 0
M  V30 950 H 91.4082 -2.36653 2.21734 0
M  V30 951 H 91.1932 -1.35898 3.67796 0
M  V30 952 H 92.6832 -2.3266 3.46784 0
M  V30 953 N 93.1203 -1.57491 0.0584922 0
M  V30 954 C 94.0833 -2.1085 -0.898617 0
M  V30 955 C 95.0833 -1.02964 -1.23511 0
M  V30 956 O 96.2733 -1.29007 -1.17059 0
M  V30 957 C 93.4053 -2.59881 -2.20623 0
M  V30 958 H 94.5983 -2.96715 -0.435936 0
M  V30 959 H 92.1513 -1.55141 -0.190023 0
M  V30 960 H 92.8863 -1.77431 -2.71457 0
M  V30 961 H 92.6713 -3.38727 -1.97501 0
M  V30 962 H 94.1613 -3.01285 -2.89166 0
M  V30 963 N 94.5984 0.214957 -1.56127 0
M  V30 964 C 95.5614 1.24997 -1.92116 0
M  V30 965 C 96.5614 1.39467 -0.800344 0
M  V30 966 O 97.7514 1.37619 -1.06802 0
M  V30 967 C 94.8834 2.62271 -2.17777 0
M  V30 968 H 96.0764 0.942875 -2.84693 0
M  V30 969 H 93.6294 0.455654 -1.49511 0
M  V30 970 H 94.3644 2.98068 -1.27773 0
M  V30 971 H 94.1494 2.53143 -2.99434 0
M  V30 972 H 95.6394 3.36946 -2.46693 0
M  V30 973 N 96.0765 1.50051 0.48192 0
M  V30 974 C 97.3225 1.60736 1.2366 0
M  V30 975 C 97.6555 0.301786 1.91841 0
M  V30 976 O 96.9305 -0.696025 1.8162 0
M  V30 977 C 97.2135 2.78009 2.28874 0
M  V30 978 C 97.0665 4.18416 1.65069 0
M  V30 979 C 98.3855 2.90867 3.30279 0
M  V30 980 H 95.5045 0.585031 0.448228 0
M  V30 981 H 98.1465 1.82402 0.531946 0
M  V30 982 H 96.2965 2.59667 2.88973 0
M  V30 983 H 97.9685 4.48322 1.0865 0
M  V30 984 H 96.2115 4.23177 0.954148 0
M  V30 985 H 96.8825 4.96381 2.41474 0
M  V30 986 H 99.3585 3.07623 2.80191 0
M  V30 987 H 98.2345 3.74566 4.01238 0
M  V30 988 H 98.4955 2.01021 3.93755 0
M  V30 989 N 97.5546 -0.734337 1.39446 0
M  V30 990 C 98.8026 -1.49096 1.36436 0
M  V30 991 C 99.1236 -1.94961 -0.0388255 0
M  V30 992 O 98.3936 -1.69033 -0.990191 0
M  V30 993 H 96.9736 -0.5531 0.502085 0
M  V30 994 H 99.6356 -0.871725 1.74319 0
M  V30 995 H 98.7316 -2.37276 2.02747 0
M  V30 996 N 99.0327 -1.24633 -0.964593 0
M  V30 997 C 99.9957 -1.0424 -2.04124 0
M  V30 998 C 100.996 0.00137563 -1.608 0
M  V30 999 O 102.186 -0.239883 -1.7254 0
M  V30 1000 C 99.3177 -0.580588 -3.3592 0
M  V30 1001 H 100.511 -1.99803 -2.23649 0
M  V30 1002 H 98.0637 -1.06899 -1.14027 0
M  V30 1003 H 98.7987 0.3781 -3.22088 0
M  V30 1004 H 98.5837 -1.33398 -3.6871 0
M  V30 1005 H 100.074 -0.459034 -4.15069 0
M  V30 1006 N 100.511 1.16574 -1.06058 0
M  V30 1007 C 101.757 1.87324 -0.777022 0
M  V30 1008 C 102.09 1.81351 0.694645 0
M  V30 1009 O 101.365 1.22753 1.50871 0
M  V30 1010 C 101.648 3.36991 -1.26922 0
M  V30 1011 C 101.501 3.51667 -2.80447 0
M  V30 1012 C 102.82 4.3131 -0.87521 0
M  V30 1013 H 99.9388 0.680191 -0.28374 0
M  V30 1014 H 102.581 1.37036 -1.3161 0
M  V30 1015 H 100.731 3.79949 -0.81063 0
M  V30 1016 H 102.403 3.17664 -3.34495 0
M  V30 1017 H 100.646 2.93656 -3.19294 0
M  V30 1018 H 101.317 4.56766 -3.0995 0
M  V30 1019 H 103.793 3.9624 -1.27014 0
M  V30 1020 H 102.669 5.34545 -1.2471 0
M  V30 1021 H 102.93 4.41552 0.220071 0
M  V30 1022 N 101.989 0.842826 1.3317 0
M  V30 1023 C 103.236 0.440447 1.97652 0
M  V30 1024 C 103.564 -1.00123 1.6675 0
M  V30 1025 O 102.819 -1.7155 0.941761 0
M  V30 1026 C 103.118 0.612607 3.52111 0
M  V30 1027 C 102.784 2.02297 4.02972 0
M  V30 1028 C 101.446 2.40874 4.16573 0
M  V30 1029 C 103.798 2.94402 4.30089 0
M  V30 1030 C 101.126 3.70852 4.54627 0
M  V30 1031 C 103.478 4.23865 4.69597 0
M  V30 1032 C 102.142 4.62392 4.81404 0
M  V30 1033 H 101.412 0.161171 0.72326 0
M  V30 1034 H 104.059 1.07061 1.58777 0
M  V30 1035 H 102.364 -0.100849 3.9167 0
M  V30 1036 H 104.061 0.2815 4.00011 0
M  V30 1037 H 100.651 1.71338 3.92863 0
M  V30 1038 H 104.835 2.65835 4.19101 0
M  V30 1039 H 100.091 4.00501 4.61962 0
M  V30 1040 H 104.265 4.95306 4.89536 0
M  V30 1041 H 101.892 5.63154 5.10648 0
M  V30 1042 N 103.467 -1.45747 0.599634 0
M  V30 1043 C 104.715 -2.01893 0.0915472 0
M  V30 1044 C 105.036 -1.47155 -1.27946 0
M  V30 1045 O 104.306 -0.66273 -1.84349 0
M  V30 1046 H 102.886 -0.746363 0.0308524 0
M  V30 1047 H 105.548 -1.78645 0.779237 0
M  V30 1048 H 104.644 -3.1208 0.0353086 0
M  V30 1049 N 104.945 -0.338344 -1.53925 0
M  V30 1050 C 105.875 0.51328 -2.27789 0
M  V30 1051 C 106.856 1.107 -1.29149 0
M  V30 1052 O 108.041 1.12937 -1.57984 0
M  V30 1053 C 105.171 1.66697 -3.04679 0
M  V30 1054 C 104.125 1.20183 -4.1078 0
M  V30 1055 C 103.451 2.44363 -4.75595 0
M  V30 1056 C 104.751 0.30605 -5.21403 0
M  V30 1057 H 106.445 -0.102883 -2.99223 0
M  V30 1058 H 103.991 -0.0509219 -1.4391 0
M  V30 1059 H 105.944 2.26915 -3.55088 0
M  V30 1060 H 104.668 2.30995 -2.30887 0
M  V30 1061 H 103.327 0.622499 -3.61276 0
M  V30 1062 H 102.975 3.07057 -3.98403 0
M  V30 1063 H 102.675 2.13925 -5.47275 0
M  V30 1064 H 104.199 3.05317 -5.28786 0
M  V30 1065 H 105.613 0.814929 -5.67478 0
M  V30 1066 H 104.01 0.0937929 -6.00027 0
M  V30 1067 H 105.08 -0.65921 -4.80398 0
M  V30 1068 N 106.423 1.57458 -0.0668435 0
M  V30 1069 C 107.651 1.97624 0.612565 0
M  V30 1070 C 108.066 0.94502 1.63447 0
M  V30 1071 O 107.423 -0.0689276 1.8237 0
M  V30 1072 C 107.474 3.37869 1.28555 0
M  V30 1073 O 107.195 4.3704 0.304557 0
M  V30 1074 C 108.696 3.92882 2.05325 0
M  V30 1075 H 105.916 0.650045 0.166381 0
M  V30 1076 H 108.46 2.04035 -0.137782 0
M  V30 1077 H 106.615 3.3256 1.98702 0
M  V30 1078 H 107.029 5.18565 0.786779 0
M  V30 1079 H 108.503 4.93247 2.47812 0
M  V30 1080 H 108.98 3.29156 2.9078 0
M  V30 1081 H 109.586 4.01577 1.40056 0
M  V30 1082 N 107.901 -0.206675 1.56239 0
M  V30 1083 C 109.129 -0.945345 1.8404 0
M  V30 1084 C 109.544 -1.77336 0.647885 0
M  V30 1085 O 108.901 -1.78425 -0.383511 0
M  V30 1086 C 108.952 -1.8509 3.10522 0
M  V30 1087 O 108.673 -1.05634 4.25174 0
M  V30 1088 C 110.174 -2.70222 3.51418 0
M  V30 1089 H 107.394 -0.276372 0.61144 0
M  V30 1090 H 109.938 -0.217417 2.03341 0
M  V30 1091 H 108.093 -2.53259 2.93153 0
M  V30 1092 H 108.507 -1.67238 4.97124 0
M  V30 1093 H 109.981 -3.29438 4.42916 0
M  V30 1094 H 110.458 -3.43358 2.73864 0
M  V30 1095 H 111.064 -2.07443 3.71278 0
M  V30 1096 N 109.379 -1.50304 -0.473955 0
M  V30 1097 C 110.619 -1.62786 -1.23612 0
M  V30 1098 C 110.983 -0.319786 -1.89318 0
M  V30 1099 O 112.184 -0.320012 -2.66888 0
M  V30 1100 C 110.455 -2.77351 -2.25414 0
M  V30 1101 S 112.014 -3.09948 -3.10608 0
M  V30 1102 H 108.832 -0.573895 -0.419721 0
M  V30 1103 H 111.434 -1.88076 -0.533623 0
M  V30 1104 H 110.138 -3.70879 -1.75719 0
M  V30 1105 H 109.669 -2.54137 -3.00296 0
M  V30 1106 H 111.684 -2.53553 -4.26527 0
M  V30 1107 N 110.857 0.726932 -1.39834 0
M  V30 1108 C 112.106 1.48214 -1.36805 0
M  V30 1109 C 112.419 1.95576 0.0305291 0
M  V30 1110 O 113.625 2.7088 0.183417 0
M  V30 1111 C 112.081 2.67854 -2.40379 0
M  V30 1112 C 111.689 2.27408 -3.85992 0
M  V30 1113 C 113.433 3.45641 -2.46439 0
M  V30 1114 C 111.34 3.43819 -4.81189 0
M  V30 1115 H 110.27 0.556606 -0.508631 0
M  V30 1116 H 112.921 0.792216 -1.65518 0
M  V30 1117 H 111.303 3.3896 -2.04749 0
M  V30 1118 H 112.477 1.63795 -4.30706 0
M  V30 1119 H 110.792 1.62692 -3.83302 0
M  V30 1120 H 113.389 4.32244 -3.14753 0
M  V30 1121 H 113.732 3.88669 -1.49139 0
M  V30 1122 H 114.265 2.8157 -2.81004 0
M  V30 1123 H 111.004 3.05834 -5.79781 0
M  V30 1124 H 110.524 4.06385 -4.41148 0
M  V30 1125 H 112.203 4.10043 -5.00474 0
M  V30 1126 N 112.336 1.25143 0.95797 0
M  V30 1127 C 113.561 1.12521 1.74223 0
M  V30 1128 C 113.986 -0.317402 1.85403 0
M  V30 1129 O 113.344 -1.2299 1.33204 0
M  V30 1130 C 113.392 1.78062 3.1357 0
M  V30 1131 O 112.496 1.058 3.98598 0
M  V30 1132 H 111.837 0.39304 0.535178 0
M  V30 1133 H 114.367 1.65641 1.201 0
M  V30 1134 H 114.377 1.84213 3.64046 0
M  V30 1135 H 113.052 2.83021 3.04749 0
M  V30 1136 H 111.629 1.07506 3.57067 0
M  V30 1137 N 113.814 -1.1601 1.06675 0
M  V30 1138 C 114.777 -2.18724 0.685001 0
M  V30 1139 C 115.777 -1.58496 -0.271246 0
M  V30 1140 O 116.967 -1.74119 -0.0531156 0
M  V30 1141 C 114.099 -3.40899 0.00853648 0
M  V30 1142 H 115.292 -2.54011 1.59431 0
M  V30 1143 H 112.845 -1.30352 0.862441 0
M  V30 1144 H 113.58 -3.11173 -0.913337 0
M  V30 1145 H 113.365 -3.8587 0.696204 0
M  V30 1146 H 114.855 -4.16886 -0.24414 0
M  V30 1147 N 115.292 -0.849877 -1.32721 0
M  V30 1148 C 116.242 -0.262892 -2.26479 0
M  V30 1149 C 117.226 0.588493 -1.49752 0
M  V30 1150 O 118.418 0.438659 -1.71478 0
M  V30 1151 C 115.547 0.551818 -3.38836 0
M  V30 1152 C 114.633 -0.311689 -4.22953 0
M  V30 1153 N 115.024 -1.39567 -4.86163 0
M  V30 1154 C 113.322 -0.100611 -4.45887 0
M  V30 1155 C 114.023 -1.92651 -5.48872 0
M  V30 1156 N 112.999 -1.22637 -5.29586 0
M  V30 1157 H 116.801 -1.09166 -2.72873 0
M  V30 1158 H 114.315 -0.695486 -1.46754 0
M  V30 1159 H 116.312 0.988713 -4.05006 0
M  V30 1160 H 114.972 1.37844 -2.93988 0
M  V30 1161 H 115.983 -1.77859 -4.86402 0
M  V30 1162 H 112.66 0.691681 -4.11731 0
M  V30 1163 H 114.05 -2.83487 -6.09167 0
M  V30 1164 N 116.77 1.45427 -0.607355 0
M  V30 1165 C 118.016 2.0254 -0.102607 0
M  V30 1166 C 118.349 1.47478 1.26348 0
M  V30 1167 O 117.624 0.64939 1.83339 0
M  V30 1168 C 117.907 3.60044 -0.0634347 0
M  V30 1169 C 117.76 4.2544 -1.46017 0
M  V30 1170 C 119.079 4.35646 0.624514 0
M  V30 1171 H 116.198 0.73598 -0.0387607 0
M  V30 1172 H 118.84 1.73284 -0.779282 0
M  V30 1173 H 116.99 3.85101 0.512808 0
M  V30 1174 H 118.662 4.11569 -2.08347 0
M  V30 1175 H 116.905 3.83849 -2.02094 0
M  V30 1176 H 117.576 5.34342 -1.385 0
M  V30 1177 H 120.052 4.15882 0.134723 0
M  V30 1178 H 118.928 5.45376 0.621028 0
M  V30 1179 H 119.189 4.08501 1.69055 0
M  V30 1180 N 118.248 0.346503 1.53744 0
M  V30 1181 C 119.664 -0.00530975 1.59599 0
M  V30 1182 C 119.864 -1.48465 1.36236 0
M  V30 1183 O 118.92 -2.24376 1.15808 0
M  V30 1184 C 120.233 0.433516 2.97559 0
M  V30 1185 C 121.781 0.386111 3.10609 0
M  V30 1186 C 122.256 0.800451 4.50951 0
M  V30 1187 N 123.747 0.754753 4.5701 0
M  V30 1188 C 124.482 1.04727 5.63755 0
M  V30 1189 N 123.978 1.4081 6.7834 0
M  V30 1190 N 125.771 0.971316 5.53644 0
M  V30 1191 H 117.922 1.31009 1.67184 0
M  V30 1192 H 120.185 0.534242 0.783128 0
M  V30 1193 H 119.891 1.46509 3.19731 0
M  V30 1194 H 119.765 -0.189753 3.76722 0
M  V30 1195 H 122.152 -0.636295 2.88158 0
M  V30 1196 H 122.233 1.04462 2.33498 0
M  V30 1197 H 121.877 1.82088 4.74137 0
M  V30 1198 H 121.807 0.119386 5.26465 0
M  V30 1199 H 124.298 0.488662 3.74727 0
M  V30 1200 H 124.611 1.61607 7.55714 0
M  V30 1201 H 122.956 1.44657 6.79779 0
M  V30 1202 H 126.147 0.688748 4.63005 0
M  V30 1203 H 126.32 1.20263 6.36742 0
M  V30 1204 N 119.726 -1.57421 0.075193 0
M  V30 1205 C 120.636 -2.1642 -0.905511 0
M  V30 1206 C 121.652 -1.12828 -1.32461 0
M  V30 1207 O 122.828 -1.45109 -1.39661 0
M  V30 1208 C 119.893 -2.71693 -2.15369 0
M  V30 1209 C 118.954 -3.90171 -1.79068 0
M  V30 1210 C 118.187 -4.42798 -2.97936 0
M  V30 1211 O 118.41 -3.94416 -4.12058 0
M  V30 1212 O 117.344 -5.34085 -2.77555 0
M  V30 1213 H 121.17 -3.00588 -0.433626 0
M  V30 1214 H 118.755 -1.48664 -0.148067 0
M  V30 1215 H 120.637 -3.07104 -2.88557 0
M  V30 1216 H 119.312 -1.90582 -2.61649 0
M  V30 1217 H 118.219 -3.59606 -1.03122 0
M  V30 1218 H 119.552 -4.72584 -1.37569 0
M  V30 1219 N 121.204 0.198386 -1.56346 0
M  V30 1220 C 122.151 1.24589 -1.94284 0
M  V30 1221 C 123.121 1.454 -0.802997 0
M  V30 1222 O 124.306 1.58588 -1.06087 0
M  V30 1223 C 121.446 2.58631 -2.28482 0
M  V30 1224 C 120.559 2.45426 -3.55514 0
M  V30 1225 C 119.694 3.7215 -3.79049 0
M  V30 1226 C 118.733 3.53763 -4.99518 0
M  V30 1227 N 117.87 4.72491 -5.19323 0
M  V30 1228 H 122.71 0.915356 -2.83593 0
M  V30 1229 H 120.247 0.440629 -1.40346 0
M  V30 1230 H 122.205 3.3672 -2.46324 0
M  V30 1231 H 120.835 2.89734 -1.42317 0
M  V30 1232 H 119.887 1.58652 -3.45737 0
M  V30 1233 H 121.199 2.27772 -4.43758 0
M  V30 1234 H 120.353 4.58679 -3.97113 0
M  V30 1235 H 119.092 3.92754 -2.89129 0
M  V30 1236 H 118.097 2.65619 -4.8138 0
M  V30 1237 H 119.322 3.34607 -5.90944 0
M  V30 1238 H 117.268 4.93365 -4.3235 0
M  V30 1239 H 117.185 4.5765 -6.01741 0
M  V30 1240 H 118.453 5.6038 -5.41843 0
M  V30 1241 N 122.682 1.50554 0.465978 0
M  V30 1242 C 124.093 1.54599 1.04671 0
M  V30 1243 C 124.444 0.352488 1.93008 0
M  V30 1244 O 123.569 -0.534044 2.09707 0
M  V30 1245 C 124.164 2.80166 1.90505 0
M  V30 1246 C 122.723 2.86876 2.43678 0
M  V30 1247 C 121.87 2.48947 1.22151 0
M  V30 1248 H 124.821 1.56744 0.248384 0
M  V30 1249 H 124.842 2.62311 2.75633 0
M  V30 1250 H 124.354 3.67013 1.26186 0
M  V30 1251 H 122.455 2.04393 3.11536 0
M  V30 1252 H 122.568 3.89885 2.78436 0
M  V30 1253 H 120.932 2.01498 1.5579 0
M  V30 1254 H 121.715 3.38107 0.594866 0
M  V30 1255 N 124.16 -0.719506 1.40217 0
M  V30 1256 C 125.437 -1.47221 1.28784 0
M  V30 1257 C 125.817 -2.10883 -0.0956067 0
M  V30 1258 O 125.165 -1.99833 -1.10811 0
M  V30 1259 C 125.375 -2.5111 2.42373 0
M  V30 1260 C 126.723 -3.17053 2.82423 0
M  V30 1261 O 127.747 -2.61429 2.41937 0
M  V30 1262 O 126.606 -4.17742 3.52355 0
M  V30 1263 H 123.7 -0.654491 0.50554 0
M  V30 1264 H 126.246 -0.752014 1.52128 0
M  V30 1265 H 125.018 -2.02556 3.34793 0
M  V30 1266 H 124.641 -3.3067 2.20778 0
M  V30 1267 N 125.638 -1.25649 -0.95132 0
M  V30 1268 C 126.915 -1.01361 -1.67288 0
M  V30 1269 C 127.295 0.459135 -2.06046 0
M  V30 1270 O 126.643 1.43723 -1.7764 0
M  V30 1271 C 126.853 -1.95256 -2.89268 0
M  V30 1272 C 128.201 -2.23289 -3.61147 0
M  V30 1273 O 129.225 -1.93041 -2.99355 0
M  V30 1274 O 128.084 -2.74741 -4.72419 0
M  V30 1275 H 125.178 -0.38464 -0.732107 0
M  V30 1276 H 127.724 -1.36817 -1.00395 0
M  V30 1277 H 126.496 -2.94685 -2.57442 0
M  V30 1278 H 126.119 -1.60218 -3.6389 0
M  V30 1279 N 127.117 1.15442 -1.07289 0
M  V30 1280 C 128.528 1.67803 -0.818475 0
M  V30 1281 C 128.879 1.8489 0.656507 0
M  V30 1282 O 128.004 1.55176 1.50829 0
M  V30 1283 C 128.599 3.04805 -1.47917 0
M  V30 1284 C 127.158 3.54245 -1.27229 0
M  V30 1285 C 126.305 2.29986 -1.54925 0
M  V30 1286 H 129.256 0.996646 -1.23502 0
M  V30 1287 H 129.277 3.69702 -0.90005 0
M  V30 1288 H 128.789 2.92336 -2.55267 0
M  V30 1289 H 126.89 3.71956 -0.21899 0
M  V30 1290 H 127.003 4.35723 -1.99203 0
M  V30 1291 H 125.367 2.35496 -0.970242 0
M  V30 1292 H 126.15 2.20105 -2.63455 0
M  V30 1293 N 128.595 0.856903 1.32268 0
M  V30 1294 C 129.525 0.31858 2.31316 0
M  V30 1295 C 130.506 -0.583487 1.59779 0
M  V30 1296 O 131.691 -0.503259 1.87566 0
M  V30 1297 C 128.821 -0.491979 3.43798 0
M  V30 1298 C 127.775 0.315849 4.26833 0
M  V30 1299 C 127.101 -0.619586 5.31098 0
M  V30 1300 C 128.401 1.54282 4.98993 0
M  V30 1301 H 130.095 1.14621 2.76591 0
M  V30 1302 H 127.641 0.552613 1.32974 0
M  V30 1303 H 129.594 -0.879012 4.1213 0
M  V30 1304 H 128.318 -1.35299 2.97257 0
M  V30 1305 H 126.977 0.684664 3.6015 0
M  V30 1306 H 126.625 -1.47751 4.8081 0
M  V30 1307 H 126.325 -0.0830621 5.87541 0
M  V30 1308 H 127.849 -1.00375 6.02293 0
M  V30 1309 H 129.263 1.22796 5.59995 0
M  V30 1310 H 127.66 2.01745 5.65172 0
M  V30 1311 H 128.73 2.30285 4.26728 0
M  V30 1312 N 130.073 -1.45103 0.615059 0
M  V30 1313 C 131.021 -2.32331 -0.111791 0
M  V30 1314 C 132.015 -1.46409 -0.852102 0
M  V30 1315 O 133.221 -1.62849 -0.766821 0
M  V30 1316 H 129.596 -0.749993 -0.0549072 0
M  V30 1317 H 131.567 -2.91407 0.642225 0
M  V30 1318 C 130.316 -3.3015 -1.09071 0
M  V30 1319 H 129.639 -3.96265 -0.530485 0
M  V30 1320 H 131.079 -3.93898 -1.56908 0
M  V30 1321 C 129.538 -2.57875 -2.168 0
M  V30 1322 O 130.068 -2.36567 -3.24652 0
M  V30 1323 N 128.274 -2.17884 -1.92289 0
M  V30 1324 H 127.821 -2.35413 -1.04587 0
M  V30 1325 H 127.779 -1.6985 -2.64572 0
M  V30 1326 N 131.551 -0.354651 -1.53558 0
M  V30 1327 C 132.781 0.239167 -2.05211 0
M  V30 1328 C 133.189 1.43879 -1.22863 0
M  V30 1329 O 132.532 1.81857 -0.259565 0
M  V30 1330 C 132.594 0.707251 -3.52474 0
M  V30 1331 C 132.258 -0.374212 -4.55465 0
M  V30 1332 C 133.255 -1.22054 -5.0537 0
M  V30 1333 C 130.94 -0.531323 -4.99482 0
M  V30 1334 C 132.934 -2.20942 -5.97882 0
M  V30 1335 C 130.621 -1.52358 -5.91802 0
M  V30 1336 C 131.619 -2.36108 -6.40892 0
M  V30 1337 O 131.307 -3.33643 -7.31394 0
M  V30 1338 H 131.039 0.0479716 -0.674296 0
M  V30 1339 H 133.593 -0.508121 -1.99016 0
M  V30 1340 H 131.823 1.50596 -3.56171 0
M  V30 1341 H 133.512 1.22285 -3.87042 0
M  V30 1342 H 134.278 -1.1103 -4.7212 0
M  V30 1343 H 130.157 0.110738 -4.60867 0
M  V30 1344 H 133.701 -2.86348 -6.36121 0
M  V30 1345 H 129.598 -1.63434 -6.24467 0
M  V30 1346 H 130.366 -3.29244 -7.4936 0
M  V30 1347 N 133.029 1.57378 -0.0835403 0
M  V30 1348 C 134.276 1.9393 0.58287 0
M  V30 1349 C 134.604 0.964455 1.68904 0
M  V30 1350 O 133.859 -0.0179474 1.95692 0
M  V30 1351 C 134.158 3.37063 1.1884 0
M  V30 1352 C 133.824 4.50424 0.207194 0
M  V30 1353 C 132.486 4.81159 -0.0627115 0
M  V30 1354 C 134.838 5.19136 -0.463426 0
M  V30 1355 C 132.166 5.77939 -1.01012 0
M  V30 1356 C 134.518 6.16931 -1.39924 0
M  V30 1357 C 133.182 6.46078 -1.67749 0
M  V30 1358 H 132.452 0.70964 0.213287 0
M  V30 1359 H 135.099 1.90856 -0.156916 0
M  V30 1360 H 133.404 3.3666 2.00418 0
M  V30 1361 H 135.101 3.6264 1.71153 0
M  V30 1362 H 131.691 4.2646 0.427747 0
M  V30 1363 H 135.875 4.95576 -0.268034 0
M  V30 1364 H 131.131 5.98842 -1.23283 0
M  V30 1365 H 135.305 6.69273 -1.92476 0
M  V30 1366 H 132.932 7.2088 -2.41321 0
M  V30 1367 N 134.507 -0.190092 1.56449 0
M  V30 1368 C 135.437 -1.23816 1.97969 0
M  V30 1369 C 136.418 -1.47201 0.852395 0
M  V30 1370 O 137.603 -1.58854 1.1171 0
M  V30 1371 C 134.733 -2.5813 2.3235 0
M  V30 1372 C 133.687 -2.49348 3.47864 0
M  V30 1373 C 133.013 -3.8798 3.67934 0
M  V30 1374 C 134.313 -2.01424 4.81898 0
M  V30 1375 H 136.007 -0.89311 2.85769 0
M  V30 1376 H 133.553 -0.428177 1.37487 0
M  V30 1377 H 135.506 -3.31637 2.59991 0
M  V30 1378 H 134.23 -2.94386 1.41438 0
M  V30 1379 H 132.889 -1.78297 3.20321 0
M  V30 1380 H 132.537 -4.21597 2.74344 0
M  V30 1381 H 132.237 -3.82978 4.45648 0
M  V30 1382 H 133.761 -4.63101 3.97957 0
M  V30 1383 H 135.175 -2.64693 5.08538 0
M  V30 1384 H 133.572 -2.07413 5.63116 0
M  V30 1385 H 134.642 -0.967677 4.75146 0
M  V30 1386 N 135.985 -1.50799 -0.457987 0
M  V30 1387 C 137.233 -1.62121 -1.2067 0
M  V30 1388 C 137.554 -0.329793 -1.92191 0
M  V30 1389 O 136.824 0.653409 -1.84682 0
M  V30 1390 H 135.404 -0.597441 -0.448411 0
M  V30 1391 H 138.066 -1.87637 -0.527096 0
M  V30 1392 H 137.162 -2.43882 -1.94751 0
M  V30 1393 N 137.463 0.71206 -1.40597 0
M  V30 1394 C 138.711 1.46907 -1.38791 0
M  V30 1395 C 139.032 1.94998 0.00780391 0
M  V30 1396 O 138.302 1.70587 0.963174 0
M  V30 1397 H 136.882 0.545043 -0.51082 0
M  V30 1398 H 139.544 0.843882 -1.75683 0
M  V30 1399 H 138.64 2.34021 -2.06496 0
M  V30 1400 N 138.941 1.26152 0.944643 0
M  V30 1401 C 140.181 1.12708 1.70517 0
M  V30 1402 C 140.545 -0.324727 1.89234 0
M  V30 1403 O 141.746 -0.581211 2.62441 0
M  V30 1404 C 140.017 1.8713 3.04495 0
M  V30 1405 S 141.576 1.89698 3.95677 0
M  V30 1406 H 138.394 0.402665 0.585988 0
M  V30 1407 H 140.996 1.59821 1.12594 0
M  V30 1408 H 139.7 2.91833 2.88551 0
M  V30 1409 H 139.231 1.40444 3.67477 0
M  V30 1410 H 141.246 0.981198 4.86402 0
M  V30 1411 N 140.419 -1.14872 1.07899 0
M  V30 1412 C 141.382 -2.17986 0.708161 0
M  V30 1413 C 142.382 -1.58775 -0.25442 0
M  V30 1414 O 143.572 -1.74166 -0.034645 0
M  V30 1415 C 140.704 -3.40871 0.0446929 0
M  V30 1416 H 141.897 -2.52306 1.62116 0
M  V30 1417 H 139.45 -1.2943 0.876218 0
M  V30 1418 H 140.185 -3.12124 -0.880281 0
M  V30 1419 H 139.97 -3.8511 0.737091 0
M  V30 1420 H 141.46 -4.17121 -0.19991 0
M  V30 1421 N 141.898 -0.863906 -1.31812 0
M  V30 1422 C 143.146 -0.470904 -1.96537 0
M  V30 1423 C 143.467 0.978771 -1.68657 0
M  V30 1424 O 142.737 1.6853 -0.998717 0
M  V30 1425 H 141.317 -0.171148 -0.72713 0
M  V30 1426 H 143.979 -1.10236 -1.60729 0
M  V30 1427 H 143.075 -0.623616 -3.05806 0
M  V30 1428 N 143.376 1.44774 -0.622745 0
M  V30 1429 C 144.624 2.01721 -0.123655 0
M  V30 1430 C 144.945 1.49172 1.25589 0
M  V30 1431 O 144.215 0.691974 1.83272 0
M  V30 1432 H 142.795 0.745777 -0.0427225 0
M  V30 1433 H 145.457 1.77382 -0.807559 0
M  V30 1434 H 144.553 3.11984 -0.0849534 0
M  V30 1435 N 144.854 0.36279 1.53368 0
M  V30 1436 C 145.784 -0.476976 2.28576 0
M  V30 1437 C 146.765 -1.08631 1.30894 0
M  V30 1438 O 147.95 -1.10409 1.59761 0
M  V30 1439 C 145.08 -1.61828 3.07293 0
M  V30 1440 C 144.034 -1.13633 4.1264 0
M  V30 1441 C 143.36 -2.36766 4.79423 0
M  V30 1442 C 144.66 -0.223061 5.21823 0
M  V30 1443 H 146.354 0.150474 2.99022 0
M  V30 1444 H 143.9 0.0738103 1.43811 0
M  V30 1445 H 145.853 -2.21237 3.58653 0
M  V30 1446 H 144.577 -2.27292 2.34533 0
M  V30 1447 H 143.236 -0.564945 3.62221 0
M  V30 1448 H 142.884 -3.0068 4.03238 0
M  V30 1449 H 142.584 -2.05192 5.50609 0
M  V30 1450 H 144.108 -2.96865 5.33576 0
M  V30 1451 H 145.522 -0.724545 5.68703 0
M  V30 1452 H 143.919 0.001678 6.001 0
M  V30 1453 H 144.989 0.735553 4.79289 0
M  V30 1454 N 146.332 -1.57332 0.0918853 0
M  V30 1455 C 147.56 -1.98574 -0.581048 0
M  V30 1456 C 147.975 -0.970903 -1.61923 0
M  V30 1457 O 147.332 0.0399054 -1.82456 0
M  V30 1458 C 147.383 -3.39872 -1.23164 0
M  V30 1459 O 147.104 -4.37469 -0.234989 0
M  V30 1460 C 148.605 -3.96099 -1.99049 0
M  V30 1461 H 145.825 -0.65261 -0.156018 0
M  V30 1462 H 148.369 -2.0379 0.170225 0
M  V30 1463 H 146.524 -3.35679 -1.93386 0
M  V30 1464 H 146.938 -5.19751 -0.70418 0
M  V30 1465 H 148.412 -4.97127 -2.39934 0
M  V30 1466 H 148.889 -3.3374 -2.85507 0
M  V30 1467 H 149.495 -4.03755 -1.3365 0
M  V30 1468 N 147.81 0.181792 -1.56548 0
M  V30 1469 C 148.74 1.22765 -1.98623 0
M  V30 1470 C 149.721 1.46747 -0.860189 0
M  V30 1471 O 150.906 1.58259 -1.12551 0
M  V30 1472 C 148.036 2.56894 -2.33715 0
M  V30 1473 C 146.99 2.475 -3.49182 0
M  V30 1474 C 146.316 3.86023 -3.69986 0
M  V30 1475 C 147.616 1.98866 -4.82959 0
M  V30 1476 H 149.31 0.877942 -2.86239 0
M  V30 1477 H 146.856 0.42088 -1.37712 0
M  V30 1478 H 148.809 3.30253 -2.61746 0
M  V30 1479 H 147.533 2.93632 -1.42997 0
M  V30 1480 H 146.192 1.76596 -3.21262 0
M  V30 1481 H 145.84 4.20136 -2.76576 0
M  V30 1482 H 145.54 3.80609 -4.47672 0
M  V30 1483 H 147.064 4.60984 -4.00407 0
M  V30 1484 H 148.478 2.61992 -5.09934 0
M  V30 1485 H 146.875 2.04424 -5.64208 0
M  V30 1486 H 147.945 0.942465 -4.75653 0
M  V30 1487 N 149.288 1.51039 0.449983 0
M  V30 1488 C 150.536 1.62759 1.19808 0
M  V30 1489 C 150.857 0.339981 1.92013 0
M  V30 1490 O 150.127 -0.643606 1.85026 0
M  V30 1491 H 148.707 0.599811 0.445237 0
M  V30 1492 H 151.369 1.87914 0.517138 0
M  V30 1493 H 150.465 2.44911 1.93455 0
M  V30 1494 N 150.766 -0.704594 1.40972 0
M  V30 1495 C 151.729 -1.80035 1.41845 0
M  V30 1496 C 152.729 -1.57774 0.310474 0
M  V30 1497 O 153.919 -1.64613 0.56992 0
M  V30 1498 C 151.051 -3.18284 1.22098 0
M  V30 1499 H 152.244 -1.80658 2.3938 0
M  V30 1500 H 149.797 -0.911329 1.26982 0
M  V30 1501 H 150.532 -3.23306 0.253672 0
M  V30 1502 H 150.317 -3.35843 2.02366 0
M  V30 1503 H 151.807 -3.98289 1.25522 0
M  V30 1504 N 152.244 -1.26651 -0.937939 0
M  V30 1505 C 153.66 -1.03834 -1.21205 0
M  V30 1506 C 153.86 0.234502 -2.00131 0
M  V30 1507 O 152.916 0.942767 -2.3424 0
M  V30 1508 C 154.229 -2.27167 -1.97017 0
M  V30 1509 C 155.777 -2.32101 -2.09996 0
M  V30 1510 C 156.252 -3.55136 -2.8921 0
M  V30 1511 N 157.743 -3.55632 -2.96783 0
M  V30 1512 C 158.478 -4.475 -3.58512 0
M  V30 1513 N 157.974 -5.4966 -4.21717 0
M  V30 1514 N 159.767 -4.35145 -3.55816 0
M  V30 1515 H 151.918 -2.08398 -0.410391 0
M  V30 1516 H 154.181 -0.916031 -0.244114 0
M  V30 1517 H 153.887 -3.19765 -1.46434 0
M  V30 1518 H 153.761 -2.31672 -2.97671 0
M  V30 1519 H 156.148 -1.40015 -2.59769 0
M  V30 1520 H 156.229 -2.31605 -1.08594 0
M  V30 1521 H 155.873 -4.47553 -2.40123 0
M  V30 1522 H 155.803 -3.5288 -3.90875 0
M  V30 1523 H 158.294 -2.81743 -2.51852 0
M  V30 1524 H 158.607 -6.15943 -4.66727 0
M  V30 1525 H 156.952 -5.53514 -4.20294 0
M  V30 1526 H 160.143 -3.5455 -3.05634 0
M  V30 1527 H 160.316 -5.06934 -4.03636 0
M  V30 1528 N 153.722 1.14298 -1.08507 0
M  V30 1529 C 154.95 1.89219 -0.836876 0
M  V30 1530 C 155.365 1.78638 0.611054 0
M  V30 1531 O 154.722 1.14643 1.41998 0
M  V30 1532 C 154.773 3.39158 -1.25116 0
M  V30 1533 O 154.494 3.49449 -2.64229 0
M  V30 1534 C 155.995 4.31073 -1.03398 0
M  V30 1535 H 153.215 0.599328 -0.301739 0
M  V30 1536 H 155.759 1.44746 -1.44461 0
M  V30 1537 H 153.914 3.81251 -0.687514 0
M  V30 1538 H 154.328 4.42589 -2.81452 0
M  V30 1539 H 155.802 5.34646 -1.37323 0
M  V30 1540 H 156.279 4.3919 0.0289259 0
M  V30 1541 H 156.885 3.94738 -1.58311 0
M  V30 1542 N 155.201 0.870884 1.31352 0
M  V30 1543 C 156.151 0.298889 2.26032 0
M  V30 1544 C 157.135 -0.564595 1.50669 0
M  V30 1545 O 158.327 -0.411323 1.72154 0
M  V30 1546 C 155.456 -0.497842 3.39671 0
M  V30 1547 C 154.542 0.378937 4.22404 0
M  V30 1548 N 154.933 1.47284 4.83881 0
M  V30 1549 C 153.231 0.171535 4.4567 0
M  V30 1550 C 153.932 2.01359 5.45738 0
M  V30 1551 N 152.908 1.31047 5.27568 0
M  V30 1552 H 156.71 1.13494 2.71102 0
M  V30 1553 H 154.224 0.718745 1.45629 0
M  V30 1554 H 156.221 -0.924155 4.06528 0
M  V30 1555 H 154.881 -1.33149 2.96144 0
M  V30 1556 H 155.892 1.85575 4.8351 0
M  V30 1557 H 152.569 -0.626091 4.12779 0
M  V30 1558 H 153.959 2.93143 6.0458 0
M  V30 1559 N 156.679 -1.44442 0.630414 0
M  V30 1560 C 157.627 -2.32437 -0.0871428 0
M  V30 1561 C 158.621 -1.47304 -0.836525 0
M  V30 1562 O 159.827 -1.63653 -0.749506 0
M  V30 1563 H 156.202 -0.750533 -0.0469495 0
M  V30 1564 H 158.173 -2.90709 0.673096 0
M  V30 1565 C 156.922 -3.31288 -1.05563 0
M  V30 1566 H 156.245 -3.96805 -0.488426 0
M  V30 1567 H 157.685 -3.9554 -1.52721 0
M  V30 1568 C 156.144 -2.6016 -2.14052 0
M  V30 1569 O 156.674 -2.39997 -3.22124 0
M  V30 1570 N 154.88 -2.19911 -1.89967 0
M  V30 1571 H 154.427 -2.36509 -1.02085 0
M  V30 1572 H 154.385 -1.72646 -2.62756 0
M  V30 1573 N 158.157 -0.370918 -1.53173 0
M  V30 1574 C 159.387 0.217389 -2.05453 0
M  V30 1575 C 159.795 1.42568 -1.24382 0
M  V30 1576 O 159.138 1.81571 -0.278839 0
M  V30 1577 C 159.2 0.669827 -3.53205 0
M  V30 1578 C 158.864 -0.4225 -4.55043 0
M  V30 1579 C 159.861 -1.27407 -5.04047 0
M  V30 1580 C 157.546 -0.58427 -4.9889 0
M  V30 1581 C 159.54 -2.27271 -5.95505 0
M  V30 1582 C 157.227 -1.58627 -5.90153 0
M  V30 1583 C 158.225 -2.42892 -6.38351 0
M  V30 1584 O 157.913 -3.41382 -7.27814 0
M  V30 1585 H 157.645 0.0408171 -0.674767 0
M  V30 1586 H 160.199 -0.5292 -1.98466 0
M  V30 1587 H 158.429 1.4681 -3.57748 0
M  V30 1588 H 160.118 1.18173 -3.88317 0
M  V30 1589 H 160.884 -1.16031 -4.70916 0
M  V30 1590 H 156.763 0.061851 -4.60959 0
M  V30 1591 H 160.307 -2.93079 -6.33049 0
M  V30 1592 H 156.204 -1.70048 -6.22699 0
M  V30 1593 H 156.972 -3.37173 -7.45826 0
M  V30 1594 N 159.635 1.57281 -0.100228 0
M  V30 1595 C 160.883 1.94153 0.561157 0
M  V30 1596 C 161.204 0.983157 1.68401 0
M  V30 1597 O 160.474 0.0361132 1.95867 0
M  V30 1598 H 159.054 0.716791 0.210283 0
M  V30 1599 H 161.716 1.94202 -0.164765 0
M  V30 1600 H 160.812 2.96709 0.968008 0
M  V30 1601 N 161.113 -0.173488 1.56642 0
M  V30 1602 C 162.362 -0.888758 1.81063 0
M  V30 1603 C 162.675 -1.83506 0.67712 0
M  V30 1604 O 163.881 -2.59254 0.806206 0
M  V30 1605 C 162.337 -1.63091 3.20826 0
M  V30 1606 C 161.945 -0.728357 4.4204 0
M  V30 1607 C 163.689 -2.33454 3.54541 0
M  V30 1608 C 161.596 -1.47062 5.72823 0
M  V30 1609 H 160.526 -0.335618 0.675186 0
M  V30 1610 H 163.177 -0.141712 1.82952 0
M  V30 1611 H 161.559 -2.42263 3.13248 0
M  V30 1612 H 162.733 0.0262449 4.60793 0
M  V30 1613 H 161.048 -0.134492 4.16183 0
M  V30 1614 H 163.645 -2.89578 4.49498 0
M  V30 1615 H 163.988 -3.08687 2.79317 0
M  V30 1616 H 164.521 -1.61227 3.63663 0
M  V30 1617 H 161.26 -0.760658 6.51072 0
M  V30 1618 H 160.78 -2.1986 5.58052 0
M  V30 1619 H 162.459 -2.01868 6.14702 0
M  V30 1620 N 162.591 -1.51276 -0.441967 0
M  V30 1621 C 163.839 -1.63392 -1.18943 0
M  V30 1622 C 164.16 -0.350159 -1.9183 0
M  V30 1623 O 163.43 0.633784 -1.85364 0
M  V30 1624 H 162.01 -0.602164 -0.442049 0
M  V30 1625 H 164.672 -1.88186 -0.507165 0
M  V30 1626 H 163.768 -2.45934 -1.92154 0
M  V30 1627 N 164.069 0.697108 -1.41344 0
M  V30 1628 C 165.032 1.79281 -1.42797 0
M  V30 1629 C 166.032 1.57607 -0.318837 0
M  V30 1630 O 167.222 1.64309 -0.578642 0
M  V30 1631 C 164.354 3.17632 -1.23785 0
M  V30 1632 H 165.547 1.79385 -2.40335 0
M  V30 1633 H 163.1 0.904582 -1.27464 0
M  V30 1634 H 163.835 3.23167 -0.270814 0
M  V30 1635 H 163.62 3.34765 -2.04144 0
M  V30 1636 H 165.11 3.97617 -1.27633 0
M  V30 1637 N 165.547 1.27147 0.931209 0
M  V30 1638 C 166.51 1.09615 2.01289 0
M  V30 1639 C 167.51 0.0412581 1.60747 0
M  V30 1640 O 168.7 0.285545 1.71844 0
M  V30 1641 C 165.832 0.669447 3.34262 0
M  V30 1642 H 167.025 2.05662 2.18273 0
M  V30 1643 H 164.578 1.09885 1.11153 0
M  V30 1644 H 165.313 -0.292572 3.22978 0
M  V30 1645 H 165.098 1.43127 3.65044 0
M  V30 1646 H 166.588 0.568921 4.13706 0
M  V30 1647 N 167.025 -1.13721 1.09112 0
M  V30 1648 C 167.988 -2.17222 0.731241 0
M  V30 1649 C 168.988 -1.59035 -0.237566 0
M  V30 1650 O 170.178 -1.74192 -0.0161704 0
M  V30 1651 C 167.31 -3.40804 0.0808443 0
M  V30 1652 H 168.503 -2.50573 1.64783 0
M  V30 1653 H 166.056 -1.28493 0.889897 0
M  V30 1654 H 166.791 -3.1304 -0.847127 0
M  V30 1655 H 166.576 -3.84306 0.777896 0
M  V30 1656 H 168.066 -4.1731 -0.155657 0
M  V30 1657 N 168.503 -0.877838 -1.30888 0
M  V30 1658 C 169.743 -0.499301 -1.98208 0
M  V30 1659 C 170.107 0.932649 -1.67826 0
M  V30 1660 O 171.308 1.41694 -2.28421 0
M  V30 1661 C 169.579 -0.758221 -3.49265 0
M  V30 1662 S 171.138 -0.480719 -4.36159 0
M  V30 1663 H 167.956 -0.186062 -0.686223 0
M  V30 1664 H 170.558 -1.13556 -1.59139 0
M  V30 1665 H 169.262 -1.79903 -3.68867 0
M  V30 1666 H 168.793 -0.109247 -3.93248 0
M  V30 1667 H 170.808 0.683698 -4.91467 0
M  V30 1668 N 169.982 1.44106 -0.638065 0
M  V30 1669 C 171.228 2.02277 -0.145546 0
M  V30 1670 C 171.561 1.50125 1.23191 0
M  V30 1671 O 170.836 0.688133 1.8192 0
M  V30 1672 C 171.119 3.59829 -0.139791 0
M  V30 1673 C 170.972 4.22247 -1.55008 0
M  V30 1674 C 172.291 4.36873 0.531966 0
M  V30 1675 H 169.41 0.734992 -0.0543632 0
M  V30 1676 H 172.052 1.71592 -0.815863 0
M  V30 1677 H 170.202 3.86102 0.431007 0
M  V30 1678 H 171.874 4.07057 -2.1703 0
M  V30 1679 H 170.117 3.79476 -2.10191 0
M  V30 1680 H 170.788 5.31284 -1.49804 0
M  V30 1681 H 173.264 4.16074 0.0464781 0
M  V30 1682 H 172.14 5.4657 0.505206 0
M  V30 1683 H 172.401 4.11995 1.60352 0
M  V30 1684 N 171.46 0.379036 1.52974 0
M  V30 1685 C 172.69 -0.20649 2.05566 0
M  V30 1686 C 173.098 -1.41906 1.25137 0
M  V30 1687 O 172.441 -1.81421 0.288464 0
M  V30 1688 C 172.503 -0.651086 3.53555 0
M  V30 1689 C 172.167 0.446626 4.54812 0
M  V30 1690 C 173.164 1.30079 5.03364 0
M  V30 1691 C 170.849 0.610719 4.98573 0
M  V30 1692 C 172.843 2.30426 5.94292 0
M  V30 1693 C 170.53 1.61754 5.89304 0
M  V30 1694 C 171.528 2.46274 6.37054 0
M  V30 1695 O 171.216 3.45237 7.25994 0
M  V30 1696 H 170.948 -0.0372381 0.674974 0
M  V30 1697 H 173.502 0.539718 1.98182 0
M  V30 1698 H 171.732 -1.44911 3.58522 0
M  V30 1699 H 173.421 -1.16112 3.88938 0
M  V30 1700 H 174.187 1.18527 4.70294 0
M  V30 1701 H 170.066 -0.0374044 4.60985 0
M  V30 1702 H 173.61 2.96432 6.31485 0
M  V30 1703 H 169.507 1.73348 6.21788 0
M  V30 1704 H 170.275 3.41124 7.44027 0
M  V30 1705 N 172.938 -1.57226 0.108567 0
M  V30 1706 C 174.185 -1.94833 -0.551943 0
M  V30 1707 C 174.513 -0.991204 -1.67348 0
M  V30 1708 O 173.768 -0.0131878 -1.95696 0
M  V30 1709 C 174.067 -3.38911 -1.13463 0
M  V30 1710 C 173.733 -4.50696 -0.135509 0
M  V30 1711 C 172.395 -4.80998 0.139252 0
M  V30 1712 C 174.747 -5.18333 0.545957 0
M  V30 1713 C 172.075 -5.76259 1.10194 0
M  V30 1714 C 174.427 -6.14627 1.49721 0
M  V30 1715 C 173.091 -6.43327 1.78006 0
M  V30 1716 H 172.361 -0.712944 -0.20197 0
M  V30 1717 H 175.008 -1.90582 0.18726 0
M  V30 1718 H 173.313 -3.39805 -1.95037 0
M  V30 1719 H 175.01 -3.65317 -1.65362 0
M  V30 1720 H 171.6 -4.27087 -0.359846 0
M  V30 1721 H 175.784 -4.95087 0.346842 0
M  V30 1722 H 171.04 -5.96804 1.32795 0
M  V30 1723 H 175.214 -6.66126 2.03099 0
M  V30 1724 H 172.841 -7.1695 2.52759 0
M  V30 1725 N 174.416 0.165178 -1.56732 0
M  V30 1726 C 175.664 0.879068 -1.8198 0
M  V30 1727 C 175.985 1.82514 -0.686561 0
M  V30 1728 O 175.255 1.93694 0.293146 0
M  V30 1729 H 173.835 0.327608 -0.671329 0
M  V30 1730 H 176.497 0.163526 -1.94213 0
M  V30 1731 H 175.593 1.45228 -2.76252 0
M  V30 1732 N 175.894 1.51508 0.433938 0
M  V30 1733 C 177.143 1.63578 1.18005 0
M  V30 1734 C 177.456 0.359514 1.92268 0
M  V30 1735 O 178.662 0.359632 2.69108 0
M  V30 1736 C 177.118 2.88901 2.14626 0
M  V30 1737 C 176.726 4.23544 1.45995 0
M  V30 1738 C 178.47 3.10328 2.89649 0
M  V30 1739 C 176.377 5.40014 2.4112 0
M  V30 1740 H 175.307 0.609277 0.444182 0
M  V30 1741 H 177.958 1.77978 0.446773 0
M  V30 1742 H 176.34 2.68142 2.91403 0
M  V30 1743 H 177.514 4.54696 0.747532 0
M  V30 1744 H 175.829 4.08021 0.831115 0
M  V30 1745 H 178.426 3.94518 3.60915 0
M  V30 1746 H 178.769 2.23544 3.51189 0
M  V30 1747 H 179.302 3.31443 2.19978 0
M  V30 1748 H 176.041 6.29068 1.84264 0
M  V30 1749 H 175.561 5.13233 3.10406 0
M  V30 1750 H 177.24 5.72099 3.02177 0
M  V30 1751 N 177.372 -0.689602 1.41712 0
M  V30 1752 C 178.335 -1.78521 1.43746 0
M  V30 1753 C 179.335 -1.57436 0.327191 0
M  V30 1754 O 180.525 -1.64 0.587348 0
M  V30 1755 C 177.657 -3.16971 1.25467 0
M  V30 1756 H 178.85 -1.78108 2.41283 0
M  V30 1757 H 176.403 -0.89781 1.27942 0
M  V30 1758 H 177.138 -3.23019 0.287948 0
M  V30 1759 H 176.923 -3.33678 2.05917 0
M  V30 1760 H 178.413 -3.96935 1.2974 0
M  V30 1761 N 178.85 -1.27639 -0.924453 0
M  V30 1762 C 179.813 -1.10681 -2.00705 0
M  V30 1763 C 180.813 -0.0497823 -1.60723 0
M  V30 1764 O 182.003 -0.294654 -1.7169 0
M  V30 1765 C 179.135 -0.687164 -3.33902 0
M  V30 1766 H 180.328 -2.06817 -2.17179 0
M  V30 1767 H 177.881 -1.10473 -1.10569 0
M  V30 1768 H 178.616 0.275439 -3.23128 0
M  V30 1769 H 178.401 -1.45061 -3.6428 0
M  V30 1770 H 179.891 -0.590853 -4.13399 0
M  V30 1771 N 180.328 1.1314 -1.09713 0
M  V30 1772 C 181.553 1.88862 -0.857081 0
M  V30 1773 C 181.978 1.78729 0.586304 0
M  V30 1774 O 181.336 1.13692 1.41222 0
M  V30 1775 C 181.384 3.36325 -1.30069 0
M  V30 1776 O 180.488 4.09815 -0.461007 0
M  V30 1777 H 179.829 0.587108 -0.310162 0
M  V30 1778 H 182.359 1.43129 -1.46203 0
M  V30 1779 H 182.369 3.87157 -1.28738 0
M  V30 1780 H 181.044 3.43017 -2.35185 0
M  V30 1781 H 179.621 3.68986 -0.538888 0
M  V30 1782 N 181.806 0.884767 1.30421 0
M  V30 1783 C 182.736 0.367574 2.30589 0
M  V30 1784 C 183.717 -0.549464 1.60981 0
M  V30 1785 O 184.902 -0.46336 1.88591 0
M  V30 1786 C 182.032 -0.418944 3.44764 0
M  V30 1787 C 180.986 0.406316 4.26067 0
M  V30 1788 C 180.312 -0.506793 5.32293 0
M  V30 1789 C 181.612 1.64832 4.95608 0
M  V30 1790 H 183.306 1.20462 2.74097 0
M  V30 1791 H 180.852 0.580695 1.31772 0
M  V30 1792 H 182.805 -0.791395 4.13902 0
M  V30 1793 H 181.529 -1.28964 3.0006 0
M  V30 1794 H 180.188 0.760903 3.58617 0
M  V30 1795 H 179.836 -1.37519 4.83836 0
M  V30 1796 H 179.536 0.0415828 5.87585 0
M  V30 1797 H 181.06 -0.875764 6.04287 0
M  V30 1798 H 182.474 1.34646 5.57264 0
M  V30 1799 H 180.871 2.13688 5.60765 0
M  V30 1800 H 181.941 2.39284 4.21748 0
M  V30 1801 N 183.284 -1.43765 0.645699 0
M  V30 1802 C 184.53 -2.02197 0.156271 0
M  V30 1803 C 184.863 -1.50776 -1.22393 0
M  V30 1804 O 184.138 -0.697771 -1.81553 0
M  V30 1805 C 184.421 -3.59749 0.158872 0
M  V30 1806 C 184.274 -4.21419 1.57245 0
M  V30 1807 C 185.593 -4.37149 -0.50879 0
M  V30 1808 H 182.712 -0.734694 0.0582602 0
M  V30 1809 H 185.354 -1.71157 0.824951 0
M  V30 1810 H 183.504 -3.86325 -0.410525 0
M  V30 1811 H 185.176 -4.059 2.19186 0
M  V30 1812 H 183.419 -3.78356 2.122 0
M  V30 1813 H 184.09 -5.30482 1.52619 0
M  V30 1814 H 186.566 -4.16093 -0.024412 0
M  V30 1815 H 185.442 -5.4683 -0.476213 0
M  V30 1816 H 185.703 -4.12839 -1.58165 0
M  V30 1817 N 184.763 -0.387143 -1.52771 0
M  V30 1818 C 185.71 0.449048 -2.26389 0
M  V30 1819 C 186.68 1.05961 -1.27912 0
M  V30 1820 O 187.865 1.08804 -1.56737 0
M  V30 1821 C 185.005 1.57155 -3.0724 0
M  V30 1822 C 184.118 0.984066 -4.20643 0
M  V30 1823 C 183.253 2.07745 -4.88892 0
M  V30 1824 C 182.292 1.46574 -5.94292 0
M  V30 1825 N 181.429 2.49834 -6.56146 0
M  V30 1826 H 186.269 -0.185205 -2.97424 0
M  V30 1827 H 183.806 -0.103164 -1.46738 0
M  V30 1828 H 185.764 2.23309 -3.52405 0
M  V30 1829 H 184.394 2.17615 -2.38419 0
M  V30 1830 H 183.446 0.212193 -3.79808 0
M  V30 1831 H 184.758 0.497029 -4.96318 0
M  V30 1832 H 183.912 2.81673 -5.3735 0
M  V30 1833 H 182.651 2.59807 -4.12737 0
M  V30 1834 H 181.656 0.711696 -5.45174 0
M  V30 1835 H 182.881 0.953088 -6.72379 0
M  V30 1836 H 180.827 3.0107 -5.82832 0
M  V30 1837 H 180.744 2.05879 -7.27427 0
M  V30 1838 H 182.012 3.23399 -7.09249 0
M  V30 1839 N 186.241 1.57166 -0.116904 0
M  V30 1840 C 187.174 2.10912 0.871291 0
M  V30 1841 C 188.152 1.025 1.26224 0
M  V30 1842 O 189.336 1.3014 1.36366 0
M  V30 1843 C 186.463 2.6041 2.16574 0
M  V30 1844 C 185.509 3.80687 1.92302 0
M  V30 1845 S 186.342 5.23199 1.14119 0
M  V30 1846 C 187.498 5.76064 2.44748 0
M  V30 1847 H 187.731 2.94401 0.414138 0
M  V30 1848 H 185.264 1.54096 0.096829 0
M  V30 1849 H 187.222 2.89583 2.9095 0
M  V30 1850 H 185.883 1.77106 2.59408 0
M  V30 1851 H 185.076 4.13462 2.8821 0
M  V30 1852 H 184.678 3.5212 1.26047 0
M  V30 1853 H 186.97 5.8566 3.406 0
M  V30 1854 H 187.913 6.74184 2.16521 0
M  V30 1855 H 188.321 5.04117 2.54019 0
M  V30 1856 N 187.719 -0.156864 1.56817 0
M  V30 1857 C 188.967 -0.869404 1.82444 0
M  V30 1858 C 189.288 -1.82147 0.69623 0
M  V30 1859 O 188.558 -1.93847 -0.28287 0
M  V30 1860 H 187.138 -0.324043 0.673056 0
M  V30 1861 H 189.8 -0.153224 1.94297 0
M  V30 1862 H 188.896 -1.43761 2.77019 0
M  V30 1863 N 189.197 -1.51736 -0.425897 0
M  V30 1864 C 190.613 -1.40166 -0.76326 0
M  V30 1865 C 190.813 -0.492962 -1.95377 0
M  V30 1866 O 189.869 0.0475815 -2.52455 0
M  V30 1867 C 191.182 -2.82403 -1.03291 0
M  V30 1868 C 192.73 -2.91632 -1.13665 0
M  V30 1869 C 193.205 -4.34801 -1.43916 0
M  V30 1870 N 194.696 -4.3796 -1.50816 0
M  V30 1871 C 195.431 -5.4578 -1.75817 0
M  V30 1872 N 194.927 -6.63744 -1.98534 0
M  V30 1873 N 196.72 -5.33274 -1.77694 0
M  V30 1874 H 188.871 -2.09361 0.358 0
M  V30 1875 H 191.134 -0.942941 0.0978094 0
M  V30 1876 H 190.84 -3.50943 -0.230696 0
M  V30 1877 H 190.714 -3.22428 -1.95754 0
M  V30 1878 H 193.101 -2.23284 -1.92947 0
M  V30 1879 H 193.182 -2.55088 -0.190756 0
M  V30 1880 H 192.826 -5.03703 -0.65157 0
M  V30 1881 H 192.756 -4.68868 -2.39729 0
M  V30 1882 H 195.247 -3.52919 -1.35118 0
M  V30 1883 H 195.56 -7.41704 -2.17013 0
M  V30 1884 H 193.905 -6.66839 -1.95832 0
M  V30 1885 H 197.096 -4.40098 -1.59473 0
M  V30 1886 H 197.269 -6.1738 -1.9684 0
M  V30 1887 N 190.675 0.682077 -1.42076 0
M  V30 1888 C 191.605 1.80796 -1.47767 0
M  V30 1889 C 192.586 1.6677 -0.334954 0
M  V30 1890 O 193.771 1.863 -0.548264 0
M  V30 1891 C 190.901 3.19038 -1.37229 0
M  V30 1892 C 189.855 3.47789 -2.49453 0
M  V30 1893 C 189.181 4.8553 -2.23975 0
M  V30 1894 C 190.481 3.45411 -3.91776 0
M  V30 1895 H 192.175 1.7629 -2.41997 0
M  V30 1896 H 189.721 0.846721 -1.16476 0
M  V30 1897 H 191.674 3.97528 -1.39821 0
M  V30 1898 H 190.398 3.24204 -0.394907 0
M  V30 1899 H 189.057 2.71657 -2.46166 0
M  V30 1900 H 188.705 4.87337 -1.24547 0
M  V30 1901 H 188.405 5.0573 -2.99184 0
M  V30 1902 H 189.929 5.66312 -2.28304 0
M  V30 1903 H 191.343 4.13882 -3.96705 0
M  V30 1904 H 189.74 3.77145 -4.66778 0
M  V30 1905 H 190.81 2.44122 -4.18966 0
M  V30 1906 N 192.153 1.28127 0.917671 0
M  V30 1907 C 193.063 1.13556 2.05286 0
M  V30 1908 C 194.079 0.0630914 1.73886 0
M  V30 1909 O 195.255 0.271598 1.9956 0
M  V30 1910 C 192.32 0.794676 3.3747 0
M  V30 1911 C 191.381 1.94909 3.82504 0
M  V30 1912 C 190.614 1.62437 5.0838 0
M  V30 1913 O 190.837 0.536905 5.67867 0
M  V30 1914 O 189.771 2.46677 5.4903 0
M  V30 1915 H 193.597 2.08844 2.20495 0
M  V30 1916 H 191.182 1.07409 1.03845 0
M  V30 1917 H 193.064 0.618344 4.16839 0
M  V30 1918 H 191.739 -0.128581 3.23445 0
M  V30 1919 H 190.646 2.18055 3.03978 0
M  V30 1920 H 191.979 2.85291 4.01086 0
M  V30 1921 N 193.631 -1.12557 1.10312 0
M  V30 1922 C 194.879 -1.83675 0.843091 0
M  V30 1923 C 195.2 -1.84435 -0.633131 0
M  V30 1924 O 194.47 -1.30657 -1.45964 0
M  V30 1925 H 193.05 -0.680138 0.308904 0
M  V30 1926 H 195.712 -1.36301 1.39313 0
M  V30 1927 H 194.808 -2.87908 1.2048 0
M  V30 1928 N 195.109 -0.891671 -1.2995 0
M  V30 1929 C 196.355 -0.523649 -1.96544 0
M  V30 1930 C 196.71 0.918394 -1.69066 0
M  V30 1931 O 196.003 1.64122 -0.988659 0
M  V30 1932 C 196.197 -0.742868 -3.49594 0
M  V30 1933 C 196.026 -2.20467 -3.9195 0
M  V30 1934 C 194.796 -2.85055 -4.17219 0
M  V30 1935 C 196.994 -3.17912 -4.04273 0
M  V30 1936 N 194.976 -4.21762 -4.46083 0
M  V30 1937 C 196.347 -4.39712 -4.37097 0
M  V30 1938 C 198.402 -3.1361 -3.86721 0
M  V30 1939 C 197.105 -5.5776 -4.54199 0
M  V30 1940 C 199.131 -4.30936 -4.05028 0
M  V30 1941 C 198.493 -5.51504 -4.38204 0
M  V30 1942 H 194.592 -0.241072 -0.743914 0
M  V30 1943 H 197.176 -1.15081 -1.5705 0
M  V30 1944 H 195.347 -0.14515 -3.88129 0
M  V30 1945 H 197.079 -0.341081 -4.0326 0
M  V30 1946 H 193.834 -2.35889 -4.10674 0
M  V30 1947 H 194.258 -4.92382 -4.64638 0
M  V30 1948 H 198.9 -2.21489 -3.60142 0
M  V30 1949 H 196.618 -6.50379 -4.79618 0
M  V30 1950 H 200.204 -4.29085 -3.92909 0
M  V30 1951 H 199.084 -6.40778 -4.52077 0
M  V30 1952 N 196.587 1.43421 -0.653314 0
M  V30 1953 C 197.497 2.34568 0.0388565 0
M  V30 1954 C 198.513 1.53888 0.81207 0
M  V30 1955 O 199.689 1.86539 0.759294 0
M  V30 1956 C 196.754 3.32167 0.993269 0
M  V30 1957 C 195.815 4.28751 0.216977 0
M  V30 1958 C 195.048 5.21688 1.12593 0
M  V30 1959 O 195.271 5.19052 2.36519 0
M  V30 1960 O 194.205 5.98919 0.598284 0
M  V30 1961 H 198.031 2.95251 -0.711386 0
M  V30 1962 H 195.616 1.43564 -0.413502 0
M  V30 1963 H 197.498 3.92183 1.54176 0
M  V30 1964 H 196.173 2.73987 1.72374 0
M  V30 1965 H 195.08 3.72215 -0.375101 0
M  V30 1966 H 196.413 4.89913 -0.473924 0
M  V30 1967 N 198.065 0.39524 1.52563 0
M  V30 1968 C 199.311 -0.185318 2.01952 0
M  V30 1969 C 199.644 -1.45964 1.28095 0
M  V30 1970 O 198.919 -1.90689 0.38315 0
M  V30 1971 C 199.202 -0.447193 3.57312 0
M  V30 1972 C 199.055 0.842828 4.41833 0
M  V30 1973 C 200.374 -1.23529 4.22408 0
M  V30 1974 H 197.493 -0.0658788 0.73405 0
M  V30 1975 H 200.135 0.525975 1.82575 0
M  V30 1976 H 198.285 -1.05312 3.73954 0
M  V30 1977 H 199.957 1.4795 4.36931 0
M  V30 1978 H 198.2 1.45686 4.08605 0
M  V30 1979 H 198.871 0.614165 5.48573 0
M  V30 1980 H 201.347 -0.722445 4.0978 0
M  V30 1981 H 200.223 -1.38727 5.3108 0
M  V30 1982 H 200.484 -2.25213 3.80436 0
M  V30 1983 N 199.544 -1.57102 0.125237 0
M  V30 1984 C 200.791 -1.95407 -0.531248 0
M  V30 1985 C 201.119 -1.0089 -1.66287 0
M  V30 1986 O 200.374 -0.0339431 -1.95671 0
M  V30 1987 C 200.673 -3.40096 -1.09862 0
M  V30 1988 C 200.339 -4.50815 -0.0876989 0
M  V30 1989 C 199.001 -4.80824 0.19026 0
M  V30 1990 C 201.353 -5.17724 0.600902 0
M  V30 1991 C 198.681 -5.75058 1.163 0
M  V30 1992 C 201.033 -6.13005 1.56231 0
M  V30 1993 C 199.697 -6.41403 1.8482 0
M  V30 1994 H 198.967 -0.715046 -0.194397 0
M  V30 1995 H 201.614 -1.90373 0.207463 0
M  V30 1996 H 199.919 -3.41855 -1.91422 0
M  V30 1997 H 201.616 -3.6705 -1.61478 0
M  V30 1998 H 198.206 -4.27444 -0.314528 0
M  V30 1999 H 202.39 -4.94691 0.399333 0
M  V30 2000 H 197.646 -5.95362 1.39117 0
M  V30 2001 H 201.82 -6.63934 2.10153 0
M  V30 2002 H 199.447 -7.14229 2.60349 0
M  V30 2003 N 201.022 0.148545 -1.56898 0
M  V30 2004 C 201.985 1.16736 -1.97244 0
M  V30 2005 C 202.985 1.35947 -0.858777 0
M  V30 2006 O 204.175 1.32966 -1.12542 0
M  V30 2007 C 201.307 2.52798 -2.28705 0
M  V30 2008 H 202.5 0.821279 -2.88435 0
M  V30 2009 H 200.053 0.391831 -1.51309 0
M  V30 2010 H 200.788 2.92381 -1.403 0
M  V30 2011 H 200.573 2.40216 -3.09901 0
M  V30 2012 H 202.063 3.26179 -2.60762 0
M  V30 2013 N 202.5 1.5196 0.417844 0
M  V30 2014 C 203.447 1.74678 1.50852 0
M  V30 2015 C 204.417 0.588947 1.55308 0
M  V30 2016 O 205.602 0.825544 1.72016 0
M  V30 2017 C 202.742 1.89544 2.88387 0
M  V30 2018 C 201.855 3.17166 2.93309 0
M  V30 2019 C 200.99 3.22513 4.22088 0
M  V30 2020 C 200.029 4.44372 4.20951 0
M  V30 2021 N 199.166 4.47161 5.41287 0
M  V30 2022 H 204.006 2.67768 1.30783 0
M  V30 2023 H 201.543 1.32689 0.63498 0
M  V30 2024 H 203.501 1.96146 3.68216 0
M  V30 2025 H 202.131 0.998424 3.06971 0
M  V30 2026 H 201.183 3.19778 2.06024 0
M  V30 2027 H 202.495 4.07021 2.88332 0
M  V30 2028 H 201.649 3.28139 5.10303 0
M  V30 2029 H 200.388 2.30581 4.29748 0
M  V30 2030 H 199.393 4.38902 3.31127 0
M  V30 2031 H 200.618 5.3759 4.14938 0
M  V30 2032 H 198.564 3.58108 5.49632 0
M  V30 2033 H 198.481 5.3085 5.3827 0
M  V30 2034 H 199.749 4.57005 6.3148 0
M  V30 2035 N 203.978 -0.674533 1.42435 0
M  V30 2036 C 205.389 -1.25514 1.38214 0
M  V30 2037 C 205.74 -1.96055 0.0755464 0
M  V30 2038 O 204.865 -2.00028 -0.8257 0
M  V30 2039 C 205.46 -2.28269 2.50357 0
M  V30 2040 C 204.019 -2.81856 2.49467 0
M  V30 2041 C 203.166 -1.56182 2.29134 0
M  V30 2042 H 206.117 -0.467902 1.51646 0
M  V30 2043 H 206.138 -3.10009 2.20624 0
M  V30 2044 H 205.65 -1.769 3.45439 0
M  V30 2045 H 203.751 -3.37346 1.58204 0
M  V30 2046 H 203.864 -3.30854 3.46515 0
M  V30 2047 H 202.228 -1.82761 1.774 0
M  V30 2048 H 203.011 -1.06778 3.26272 0
M  V30 2049 N 205.456 -1.28612 -0.910864 0
M  V30 2050 C 206.403 -1.12786 -2.01365 0
M  V30 2051 C 207.373 -0.024201 -1.66082 0
M  V30 2052 O 208.558 -0.189667 -1.89855 0
M  V30 2053 C 205.698 -0.798743 -3.35729 0
M  V30 2054 C 204.811 -1.98173 -3.83864 0
M  V30 2055 C 203.946 -1.59298 -5.06752 0
M  V30 2056 C 202.985 -2.74245 -5.47226 0
M  V30 2057 N 202.122 -2.35842 -6.61304 0
M  V30 2058 H 206.962 -2.07142 -2.14234 0
M  V30 2059 H 204.499 -1.03093 -1.0493 0
M  V30 2060 H 206.457 -0.588662 -4.13026 0
M  V30 2061 H 205.087 0.10789 -3.2262 0
M  V30 2062 H 204.139 -2.30386 -3.02699 0
M  V30 2063 H 205.451 -2.84343 -4.09818 0
M  V30 2064 H 204.605 -1.34513 -5.916 0
M  V30 2065 H 203.344 -0.702618 -4.82612 0
M  V30 2066 H 202.349 -2.99725 -4.60918 0
M  V30 2067 H 203.574 -3.63928 -5.73353 0
M  V30 2068 H 201.52 -1.49279 -6.38789 0
M  V30 2069 H 201.437 -3.15546 -6.86998 0
M  V30 2070 H 202.705 -2.14348 -7.4945 0
M  V30 2071 N 206.934 1.1197 -1.10907 0
M  V30 2072 C 208.18 1.8386 -0.855773 0
M  V30 2073 C 208.513 1.84134 0.617103 0
M  V30 2074 O 207.788 1.29041 1.45529 0
M  V30 2075 C 208.071 3.31305 -1.411 0
M  V30 2076 C 207.924 3.39456 -2.9511 0
M  V30 2077 C 209.243 4.2721 -1.05736 0
M  V30 2078 H 206.362 0.667545 -0.312334 0
M  V30 2079 H 209.004 1.31331 -1.37303 0
M  V30 2080 H 207.154 3.76169 -0.97105 0
M  V30 2081 H 208.826 3.03191 -3.47668 0
M  V30 2082 H 207.069 2.79849 -3.31462 0
M  V30 2083 H 207.74 4.43209 -3.29044 0
M  V30 2084 H 210.216 3.90497 -1.43706 0
M  V30 2085 H 209.092 5.28775 -1.47269 0
M  V30 2086 H 209.353 4.42088 0.0325958 0
M  V30 2087 O 208.451 1.03102 1.24307 0
M  V30 2088 H 209.142 0.697601 1.80702 0
M  V30 END ATOM
M  V30 BEGIN BOND
M  V30 END BOND
M  V30 END CTAB
M  END
$$$$
