drugbank_target|Q86YB8 ERO1-like protein beta (DB01902; DB03147)
 OpenBabel12092120553D

  0  0  0     0  0            999 V3000
M  V30 BEGIN CTAB
M  V30 COUNTS 7510 7597 0 0 0
M  V30 BEGIN ATOM
M  V30 1 H -0.908 1.98254 -0.117106 0
M  V30 2 N 0 1.576 0 0
M  V30 3 C 0.933 2.03868 1.02534 0
M  V30 4 C 1.911 0.928543 1.3348 0
M  V30 5 O 3.095 1.19667 1.45644 0
M  V30 6 C 0.222 2.43627 2.35294 0
M  V30 7 C -0.732 3.65373 2.2001 0
M  V30 8 S 0.101 5.13292 1.52614 0
M  V30 9 C 1.257 5.56322 2.86805 0
M  V30 10 H 1.49 2.90518 0.631377 0
M  V30 11 H -0.977 1.52953 0.210867 0
M  V30 12 H 0.981 2.67203 3.11629 0
M  V30 13 H -0.358 1.57376 2.7183 0
M  V30 14 H -1.165 3.90944 3.18086 0
M  V30 15 H -1.563 3.418 1.51819 0
M  V30 16 H 0.729 5.58782 3.83104 0
M  V30 17 H 1.672 6.56266 2.65933 0
M  V30 18 H 2.08 4.83886 2.90714 0
M  V30 19 N 1.4781 -0.272755 1.55222 0
M  V30 20 C 2.7031 -1.02683 1.80197 0
M  V30 21 C 3.1281 -1.79142 0.573551 0
M  V30 22 O 2.4861 -1.74917 -0.476849 0
M  V30 23 C 2.5341 -1.9609 3.02624 0
M  V30 24 O 1.6381 -3.04863 2.77727 0
M  V30 25 H 0.9791 -0.293557 0.595584 0
M  V30 26 H 3.5091 -0.30159 2.02365 0
M  V30 27 H 3.5191 -2.38039 3.31363 0
M  V30 28 H 2.1941 -1.39851 3.91682 0
M  V30 29 H 0.7711 -2.67228 2.60084 0
M  V30 30 N 2.9562 -1.48159 -0.537278 0
M  V30 31 C 3.8882 -1.58218 -1.65831 0
M  V30 32 C 4.9012 -0.466948 -1.5596 0
M  V30 33 O 6.0902 -0.73747 -1.62553 0
M  V30 34 C 3.1902 -1.48906 -3.04434 0
M  V30 35 C 2.3632 -2.75343 -3.3986 0
M  V30 36 C 1.4222 -2.59588 -4.57712 0
M  V30 37 O 0.4482 -3.33457 -4.61297 0
M  V30 38 N 1.6502 -1.68724 -5.55439 0
M  V30 39 H 4.4152 -2.54891 -1.57641 0
M  V30 40 H 1.9762 -1.4479 -0.724386 0
M  V30 41 H 3.9682 -1.36072 -3.81139 0
M  V30 42 H 2.5382 -0.602368 -3.06741 0
M  V30 43 H 1.7582 -3.02795 -2.52406 0
M  V30 44 H 3.0462 -3.5924 -3.60311 0
M  V30 45 H 2.4442 -1.07898 -5.55315 0
M  V30 46 H 1.0012 -1.61832 -6.3139 0
M  V30 47 N 4.4343 0.785586 -1.36625 0
M  V30 48 C 5.6823 1.54057 -1.30808 0
M  V30 49 C 6.0033 1.94683 0.111157 0
M  V30 50 O 5.2733 1.65241 1.05224 0
M  V30 51 H 3.8533 0.571354 -0.481211 0
M  V30 52 H 6.5153 0.935821 -1.70963 0
M  V30 53 H 5.6113 2.44637 -1.93801 0
M  V30 54 N 5.9124 1.20967 1.01018 0
M  V30 55 C 7.1584 1.02526 1.74975 0
M  V30 56 C 7.4914 -0.4408 1.89131 0
M  V30 57 O 6.7664 -1.32718 1.42184 0
M  V30 58 C 7.0494 1.71699 3.1653 0
M  V30 59 C 6.9024 3.25791 3.10129 0
M  V30 60 C 8.2214 1.45531 4.15342 0
M  V30 61 H 5.3404 0.373863 0.635134 0
M  V30 62 H 7.9824 1.49071 1.17805 0
M  V30 63 H 6.1324 1.32128 3.65341 0
M  V30 64 H 7.8044 3.74697 2.69072 0
M  V30 65 H 6.0474 3.56363 2.47362 0
M  V30 66 H 6.7184 3.69353 4.10222 0
M  V30 67 H 9.1944 1.79872 3.75213 0
M  V30 68 H 8.0704 1.96453 5.1254 0
M  V30 69 H 8.3314 0.384237 4.40427 0
M  V30 70 N 7.3905 -1.2043 1.01659 0
M  V30 71 C 8.8065 -1.41852 0.731442 0
M  V30 72 C 9.0065 -1.89358 -0.688898 0
M  V30 73 O 8.0625 -2.06247 -1.45666 0
M  V30 74 C 9.3755 -2.44019 1.75714 0
M  V30 75 C 10.9235 -2.57785 1.77527 0
M  V30 76 C 11.3985 -3.63194 2.79023 0
M  V30 77 N 12.8895 -3.70678 2.77763 0
M  V30 78 C 13.6245 -4.51897 3.52954 0
M  V30 79 N 13.1205 -5.36921 4.37821 0
M  V30 80 N 14.9135 -4.4643 3.41551 0
M  V30 81 H 7.0645 -0.879093 1.93354 0
M  V30 82 H 9.3275 -0.448425 0.835236 0
M  V30 83 H 9.0335 -2.1611 2.77469 0
M  V30 84 H 8.9075 -3.43007 1.56927 0
M  V30 85 H 11.2945 -2.85023 0.764569 0
M  V30 86 H 11.3755 -1.58992 2.00387 0
M  V30 87 H 11.0195 -3.36699 3.80258 0
M  V30 88 H 10.9495 -4.61609 2.53425 0
M  V30 89 H 13.4405 -3.09944 2.16201 0
M  V30 90 H 13.7535 -5.95981 4.91962 0
M  V30 91 H 12.0985 -5.36424 4.41899 0
M  V30 92 H 15.2895 -3.79042 2.74672 0
M  V30 93 H 15.4625 -5.09491 4.00404 0
M  V30 94 N 8.8686 -0.792821 -1.36206 0
M  V30 95 C 10.2846 -0.474903 -1.52371 0
M  V30 96 C 10.4846 1.00622 -1.74578 0
M  V30 97 O 9.5406 1.79162 -1.77924 0
M  V30 98 C 10.8536 -1.3083 -2.70747 0
M  V30 99 C 12.4016 -1.30234 -2.84619 0
M  V30 100 C 12.8766 -2.11956 -4.06004 0
M  V30 101 N 14.3676 -2.09419 -4.13156 0
M  V30 102 C 15.1026 -2.69419 -5.06163 0
M  V30 103 N 14.5986 -3.3829 -6.04592 0
M  V30 104 N 16.3916 -2.59134 -4.98804 0
M  V30 105 H 8.5426 -1.75222 -1.20046 0
M  V30 106 H 10.8056 -0.745024 -0.586211 0
M  V30 107 H 10.5116 -2.35881 -2.6087 0
M  V30 108 H 10.3856 -0.95196 -3.6499 0
M  V30 109 H 12.7726 -0.259748 -2.93955 0
M  V30 110 H 12.8536 -1.69847 -1.91274 0
M  V30 111 H 12.4976 -3.16248 -3.97429 0
M  V30 112 H 12.4276 -1.69711 -4.98503 0
M  V30 113 H 14.9186 -1.59297 -3.42685 0
M  V30 114 H 15.2316 -3.81394 -6.7213 0
M  V30 115 H 13.5766 -3.42393 -6.04807 0
M  V30 116 H 16.7676 -2.04927 -4.20859 0
M  V30 117 H 16.9406 -3.06185 -5.711 0
M  V30 118 N 10.3467 1.47872 -0.545128 0
M  V30 119 C 11.3097 2.28337 0.198717 0
M  V30 120 C 12.3097 1.36255 0.853888 0
M  V30 121 O 13.4997 1.59003 0.711606 0
M  V30 122 C 10.6317 3.15585 1.28915 0
M  V30 123 H 11.8247 2.95567 -0.507941 0
M  V30 124 H 9.3777 1.53362 -0.301616 0
M  V30 125 H 10.1127 2.53019 2.02859 0
M  V30 126 H 9.8977 3.83337 0.824309 0
M  V30 127 H 11.3877 3.76243 1.81194 0
M  V30 128 N 11.8248 0.280983 1.55075 0
M  V30 129 C 13.0728 -0.333455 1.9933 0
M  V30 130 C 13.3938 -1.55937 1.17085 0
M  V30 131 O 12.6638 -1.94143 0.261805 0
M  V30 132 H 11.2438 -0.126197 0.736263 0
M  V30 133 H 13.9058 0.387678 1.91005 0
M  V30 134 H 13.0018 -0.619292 3.05894 0
M  V30 135 N 13.3029 -1.57598 0.00835791 0
M  V30 136 C 14.2659 -2.07884 -0.965242 0
M  V30 137 C 15.2659 -0.989825 -1.26725 0
M  V30 138 O 16.4559 -1.25218 -1.21104 0
M  V30 139 C 13.5879 -2.52731 -2.28779 0
M  V30 140 H 14.7809 -2.95178 -0.530112 0
M  V30 141 H 12.3339 -1.54458 -0.239283 0
M  V30 142 H 13.0689 -1.68705 -2.76964 0
M  V30 143 H 12.8539 -3.32272 -2.08177 0
M  V30 144 H 14.3439 -2.91933 -2.98605 0
M  V30 145 N 14.781 0.264519 -1.55364 0
M  V30 146 C 16.029 0.993021 -1.76021 0
M  V30 147 C 16.35 1.86511 -0.569099 0
M  V30 148 O 15.62 1.91438 0.415735 0
M  V30 149 H 14.2 0.369639 -0.649135 0
M  V30 150 H 16.862 0.286707 -1.9278 0
M  V30 151 H 15.958 1.62502 -2.66457 0
M  V30 152 N 16.2591 1.48442 0.529413 0
M  V30 153 C 17.1911 1.59095 1.64989 0
M  V30 154 C 18.2041 0.475212 1.5571 0
M  V30 155 O 19.3931 0.746081 1.6216 0
M  V30 156 C 16.4931 1.50518 3.0364 0
M  V30 157 C 15.6661 2.77142 3.38395 0
M  V30 158 C 14.7251 2.62012 4.56329 0
M  V30 159 O 13.7511 3.35898 4.59522 0
M  V30 160 N 14.9531 1.71667 5.54536 0
M  V30 161 H 17.7181 2.55723 1.56287 0
M  V30 162 H 15.2791 1.45173 0.716697 0
M  V30 163 H 17.2711 1.38091 3.80412 0
M  V30 164 H 15.8411 0.618627 3.06418 0
M  V30 165 H 15.0611 3.0413 2.50796 0
M  V30 166 H 16.3491 3.61146 3.58401 0
M  V30 167 H 15.7471 1.10841 5.54735 0
M  V30 168 H 14.3041 1.65178 6.30523 0
M  V30 169 N 17.7372 -0.778329 1.37039 0
M  V30 170 C 18.9852 -1.53361 1.31623 0
M  V30 171 C 19.3062 -1.94739 -0.100831 0
M  V30 172 O 18.5762 -1.65797 -1.04347 0
M  V30 173 H 17.1562 -0.568794 0.484234 0
M  V30 174 H 19.8182 -0.926742 1.71457 0
M  V30 175 H 18.9142 -2.43606 1.95096 0
M  V30 176 N 19.2153 -1.21501 -1.00376 0
M  V30 177 C 20.4613 -1.03452 -1.74429 0
M  V30 178 C 20.7943 0.430764 -1.89362 0
M  V30 179 O 20.0693 1.31962 -1.42886 0
M  V30 180 C 20.3523 -1.73375 -3.15615 0
M  V30 181 C 20.2053 -3.27431 -3.08397 0
M  V30 182 C 21.5243 -1.47732 -4.14564 0
M  V30 183 H 18.6433 -0.377226 -0.633143 0
M  V30 184 H 21.2853 -1.49693 -1.17013 0
M  V30 185 H 19.4353 -1.34064 -3.64636 0
M  V30 186 H 21.1073 -3.76119 -2.67081 0
M  V30 187 H 19.3503 -3.5767 -2.45468 0
M  V30 188 H 20.0213 -3.71524 -4.08258 0
M  V30 189 H 22.4973 -1.8186 -3.74254 0
M  V30 190 H 21.3733 -1.99169 -5.11491 0
M  V30 191 H 21.6343 -0.407589 -4.40217 0
M  V30 192 N 20.6934 1.19889 -1.02296 0
M  V30 193 C 21.6564 2.21116 -0.603351 0
M  V30 194 C 22.6564 1.5738 0.329884 0
M  V30 195 O 23.8464 1.73802 0.117702 0
M  V30 196 C 20.9784 3.40696 0.117992 0
M  V30 197 H 22.1714 2.59754 -1.49893 0
M  V30 198 H 19.7244 1.33463 -0.813468 0
M  V30 199 H 20.4594 3.07569 1.0282 0
M  V30 200 H 20.2444 3.88188 -0.552511 0
M  V30 201 H 21.7344 4.15692 0.398696 0
M  V30 202 N 22.1715 0.800033 1.35784 0
M  V30 203 C 23.1345 0.211565 2.28221 0
M  V30 204 C 24.1345 -0.59728 1.49296 0
M  V30 205 O 25.3245 -0.416721 1.69142 0
M  V30 206 C 22.4565 -0.705846 3.33513 0
M  V30 207 H 23.6495 1.02677 2.81776 0
M  V30 208 H 21.2025 0.570211 1.45528 0
M  V30 209 H 21.9375 -1.54498 2.85133 0
M  V30 210 H 21.7225 -0.127655 3.91892 0
M  V30 211 H 23.2125 -1.11211 4.02519 0
M  V30 212 N 23.6496 -1.47581 0.552962 0
M  V30 213 C 24.6126 -2.28439 -0.186605 0
M  V30 214 C 25.6126 -1.36706 -0.84665 0
M  V30 215 O 26.8026 -1.59378 -0.703164 0
M  V30 216 C 23.9346 -3.16264 -1.2724 0
M  V30 217 H 25.1276 -2.95294 0.523609 0
M  V30 218 H 22.6806 -1.532 0.309745 0
M  V30 219 H 23.4156 -2.54091 -2.01514 0
M  V30 220 H 23.2006 -3.83769 -0.803968 0
M  V30 221 H 24.6906 -3.77198 -1.79196 0
M  V30 222 N 25.1277 -0.289203 -1.54924 0
M  V30 223 C 26.3737 0.323998 -2.00195 0
M  V30 224 C 26.7067 1.54441 -1.17735 0
M  V30 225 O 25.9817 1.92875 -0.250878 0
M  V30 226 C 26.2647 0.692276 -3.53383 0
M  V30 227 C 26.1177 -0.536457 -4.46589 0
M  V30 228 C 27.4367 1.52335 -4.12895 0
M  V30 229 H 24.5557 0.116289 -0.727768 0
M  V30 230 H 27.1977 -0.398954 -1.85764 0
M  V30 231 H 25.3477 1.30822 -3.65811 0
M  V30 232 H 27.0197 -1.17499 -4.46085 0
M  V30 233 H 25.2627 -1.17192 -4.1767 0
M  V30 234 H 25.9337 -0.234806 -5.515 0
M  V30 235 H 28.4097 1.00302 -4.0383 0
M  V30 236 H 27.2857 1.74982 -5.20262 0
M  V30 237 H 27.5467 2.50886 -3.64018 0
M  V30 238 N 26.6058 1.57591 -0.0167156 0
M  V30 239 C 27.5378 2.06343 0.997753 0
M  V30 240 C 28.5508 0.984469 1.29661 0
M  V30 241 O 29.7398 1.26093 1.26344 0
M  V30 242 C 26.8398 2.46255 2.32834 0
M  V30 243 C 26.0128 3.77083 2.21646 0
M  V30 244 C 25.0718 4.0368 3.37534 0
M  V30 245 O 24.0978 4.7411 3.14973 0
M  V30 246 N 25.2998 3.52881 4.60929 0
M  V30 247 H 28.0648 2.93997 0.581875 0
M  V30 248 H 25.6258 1.61002 0.170316 0
M  V30 249 H 27.6178 2.61149 3.09166 0
M  V30 250 H 26.1878 1.64032 2.66106 0
M  V30 251 H 25.4078 3.72106 1.30119 0
M  V30 252 H 26.6958 4.62822 2.11361 0
M  V30 253 H 26.0938 2.95878 4.82154 0
M  V30 254 H 24.6508 3.73076 5.34469 0
M  V30 255 N 28.0839 -0.256276 1.55502 0
M  V30 256 C 29.0139 -1.32102 1.92539 0
M  V30 257 C 29.9949 -1.50684 0.789194 0
M  V30 258 O 31.1799 -1.63449 1.04872 0
M  V30 259 C 28.3099 -2.67752 2.21192 0
M  V30 260 C 27.2639 -2.63878 3.36975 0
M  V30 261 C 26.5899 -4.03236 3.51147 0
M  V30 262 C 27.8899 -2.21682 4.72921 0
M  V30 263 H 29.5839 -1.01351 2.81724 0
M  V30 264 H 27.1299 -0.486105 1.35547 0
M  V30 265 H 29.0829 -3.42365 2.45691 0
M  V30 266 H 27.8069 -3.0012 1.28824 0
M  V30 267 H 26.4659 -1.91722 3.12471 0
M  V30 268 H 26.1139 -4.32854 2.56216 0
M  V30 269 H 25.8139 -4.01535 4.29003 0
M  V30 270 H 27.3379 -4.79563 3.77957 0
M  V30 271 H 28.7519 -2.86023 4.96854 0
M  V30 272 H 27.1489 -2.3111 5.53812 0
M  V30 273 H 28.2189 -1.16833 4.70615 0
M  V30 274 N 29.562 -1.4872 -0.521534 0
M  V30 275 C 30.492 -1.66771 -1.63431 0
M  V30 276 C 31.473 -0.516499 -1.62069 0
M  V30 277 O 32.658 -0.750013 -1.79132 0
M  V30 278 C 29.788 -1.71515 -3.01993 0
M  V30 279 C 28.742 -2.86222 -3.18216 0
M  V30 280 C 28.068 -2.76061 -4.57924 0
M  V30 281 C 29.368 -4.27419 -3.00184 0
M  V30 282 H 31.062 -2.59932 -1.48579 0
M  V30 283 H 28.608 -1.25089 -0.713358 0
M  V30 284 H 30.561 -1.82731 -3.7972 0
M  V30 285 H 29.285 -0.749393 -3.17886 0
M  V30 286 H 27.944 -2.74575 -2.42908 0
M  V30 287 H 27.592 -1.77437 -4.70665 0
M  V30 288 H 27.292 -3.53037 -4.69722 0
M  V30 289 H 28.816 -2.89256 -5.37739 0
M  V30 290 H 30.23 -4.39855 -3.67697 0
M  V30 291 H 28.627 -5.05458 -3.2347 0
M  V30 292 H 29.697 -4.43293 -1.96518 0
M  V30 293 N 31.0401 0.771051 -1.3745 0
M  V30 294 C 32.2861 1.5319 -1.32894 0
M  V30 295 C 32.6191 1.94008 0.0862511 0
M  V30 296 O 31.8941 1.64124 1.04373 0
M  V30 297 C 32.1771 2.79648 -2.26868 0
M  V30 298 C 32.0301 2.45079 -3.77169 0
M  V30 299 C 33.3491 3.81583 -2.19277 0
M  V30 300 H 30.4681 0.555744 -0.484064 0
M  V30 301 H 33.1101 0.884492 -1.68157 0
M  V30 302 H 31.2601 3.34891 -1.96926 0
M  V30 303 H 32.9321 1.95745 -4.1771 0
M  V30 304 H 31.1751 1.77767 -3.95704 0
M  V30 305 H 31.8461 3.35478 -4.38359 0
M  V30 306 H 34.3221 3.35835 -2.45671 0
M  V30 307 H 33.1981 4.67787 -2.87171 0
M  V30 308 H 33.4591 4.25897 -1.18592 0
M  V30 309 N 32.5182 1.22032 0.997298 0
M  V30 310 C 33.7462 1.06841 1.7718 0
M  V30 311 C 34.1612 -0.381325 1.84909 0
M  V30 312 O 33.5182 -1.26437 1.31605 0
M  V30 313 C 33.5692 1.66814 3.20711 0
M  V30 314 O 33.2902 3.06116 3.13408 0
M  V30 315 C 34.7912 1.56838 4.14628 0
M  V30 316 H 32.0112 0.374782 0.556578 0
M  V30 317 H 34.5552 1.61532 1.2541 0
M  V30 318 H 32.7102 1.16196 3.69564 0
M  V30 319 H 33.1242 3.34926 4.0364 0
M  V30 320 H 34.5982 2.03532 5.13107 0
M  V30 321 H 35.0752 0.524155 4.36061 0
M  V30 322 H 35.6812 2.06741 3.7167 0
M  V30 323 N 33.9963 -1.19345 1.0293 0
M  V30 324 C 34.9263 -2.2481 0.631105 0
M  V30 325 C 35.9073 -1.66245 -0.360104 0
M  V30 326 O 37.0923 -1.92677 -0.242726 0
M  V30 327 C 34.2223 -3.47295 -0.0184607 0
M  V30 328 C 33.1763 -4.18536 0.895073 0
M  V30 329 C 32.5023 -5.34586 0.110592 0
M  V30 330 C 33.8023 -4.73287 2.209 0
M  V30 331 H 35.4963 -2.58372 1.51275 0
M  V30 332 H 33.0423 -1.24194 0.728818 0
M  V30 333 H 34.9953 -4.20268 -0.308675 0
M  V30 334 H 33.7193 -3.12933 -0.934907 0
M  V30 335 H 32.3783 -3.47446 1.16949 0
M  V30 336 H 32.0263 -4.96469 -0.807902 0
M  V30 337 H 31.7263 -5.83183 0.719087 0
M  V30 338 H 33.2503 -6.10355 -0.172871 0
M  V30 339 H 34.6643 -5.38013 1.98028 0
M  V30 340 H 33.0613 -5.32373 2.76946 0
M  V30 341 H 34.1313 -3.91331 2.86336 0
M  V30 342 N 35.4744 -0.807222 -1.35358 0
M  V30 343 C 36.6994 -0.399309 -2.0352 0
M  V30 344 C 37.1244 0.981986 -1.60433 0
M  V30 345 O 36.4824 1.63601 -0.781299 0
M  V30 346 C 36.5304 -0.491552 -3.57234 0
M  V30 347 O 35.6344 0.494754 -4.09421 0
M  V30 348 H 34.9754 -0.166682 -0.642739 0
M  V30 349 H 37.5054 -1.09328 -1.72941 0
M  V30 350 H 37.5154 -0.361588 -4.06395 0
M  V30 351 H 36.1904 -1.49907 -3.87944 0
M  V30 352 H 34.7674 0.324977 -3.71481 0
M  V30 353 N 36.9525 1.47285 -0.560781 0
M  V30 354 C 38.1995 2.02464 -0.038062 0
M  V30 355 C 38.5275 1.43474 1.31322 0
M  V30 356 O 37.7825 0.581311 1.86867 0
M  V30 357 C 38.0815 3.57258 0.100784 0
M  V30 358 C 37.7475 4.35184 -1.18007 0
M  V30 359 C 36.4095 4.56194 -1.53103 0
M  V30 360 C 38.7615 4.80098 -2.02867 0
M  V30 361 C 36.0895 5.19367 -2.729 0
M  V30 362 C 38.4415 5.44593 -3.21871 0
M  V30 363 C 37.1055 5.63835 -3.57276 0
M  V30 364 H 36.3755 0.740869 -0.0139279 0
M  V30 365 H 39.0225 1.76916 -0.733012 0
M  V30 366 H 37.3275 3.81819 0.878724 0
M  V30 367 H 39.0245 3.97606 0.520639 0
M  V30 368 H 35.6145 4.19113 -0.8968 0
M  V30 369 H 39.7985 4.63642 -1.7706 0
M  V30 370 H 35.0545 5.32459 -3.00496 0
M  V30 371 H 39.2285 5.78358 -3.87911 0
M  V30 372 H 36.8555 6.12557 -4.50197 0
M  V30 373 N 38.4306 0.297415 1.54768 0
M  V30 374 C 39.3606 -0.573494 2.26348 0
M  V30 375 C 40.3416 -1.14085 1.26169 0
M  V30 376 O 41.5266 -1.17086 1.54934 0
M  V30 377 C 38.6566 -1.74716 3.00153 0
M  V30 378 C 37.6106 -1.31032 4.07449 0
M  V30 379 C 36.9366 -2.56887 4.68949 0
M  V30 380 C 38.2366 -0.444183 5.20408 0
M  V30 381 H 39.9306 0.0235131 2.99391 0
M  V30 382 H 37.4766 0.0127488 1.43994 0
M  V30 383 H 39.4296 -2.3625 3.48947 0
M  V30 384 H 38.1536 -2.37035 2.24682 0
M  V30 385 H 36.8126 -0.718066 3.59499 0
M  V30 386 H 36.4606 -3.17512 3.90122 0
M  V30 387 H 36.1606 -2.2836 5.41411 0
M  V30 388 H 37.6846 -3.19229 5.20505 0
M  V30 389 H 39.0986 -0.9651 5.65118 0
M  V30 390 H 37.4956 -0.252846 5.99567 0
M  V30 391 H 38.5656 0.531609 4.81977 0
M  V30 392 N 39.9087 -1.5758 0.0250728 0
M  V30 393 C 41.3247 -1.56124 -0.331282 0
M  V30 394 C 41.5247 -1.03029 -1.73169 0
M  V30 395 O 40.5807 -0.675215 -2.43305 0
M  V30 396 C 41.8937 -3.00139 -0.183584 0
M  V30 397 C 43.4417 -3.11946 -0.256654 0
M  V30 398 C 43.9167 -4.57793 -0.137792 0
M  V30 399 N 45.4077 -4.6279 -0.194904 0
M  V30 400 C 46.1427 -5.7326 -0.126655 0
M  V30 401 N 45.6387 -6.928 -0.00755288 0
M  V30 402 N 47.4317 -5.61811 -0.180348 0
M  V30 403 H 39.5827 -1.90424 0.94087 0
M  V30 404 H 41.8457 -0.875761 0.362968 0
M  V30 405 H 41.5517 -3.4292 0.780927 0
M  V30 406 H 41.4257 -3.64899 -0.955448 0
M  V30 407 H 43.8127 -2.69079 -1.21162 0
M  V30 408 H 43.8937 -2.49915 0.545517 0
M  V30 409 H 43.5377 -5.01339 0.813739 0
M  V30 410 H 43.4677 -5.17798 -0.958775 0
M  V30 411 H 45.9587 -3.76807 -0.287267 0
M  V30 412 H 46.2717 -7.72791 0.0379428 0
M  V30 413 H 44.6167 -6.94995 0.0271731 0
M  V30 414 H 47.8077 -4.6731 -0.271767 0
M  V30 415 H 47.9807 -6.47882 -0.123697 0
M  V30 416 N 41.3868 0.248026 -1.55636 0
M  V30 417 C 42.6118 0.998028 -1.81808 0
M  V30 418 C 43.0368 1.78207 -0.601979 0
M  V30 419 O 42.3948 1.75653 0.448961 0
M  V30 420 C 42.4428 1.9125 -3.05705 0
M  V30 421 O 41.5468 3.00406 -2.82542 0
M  V30 422 H 40.8878 0.284045 -0.600179 0
M  V30 423 H 43.4178 0.269357 -2.02819 0
M  V30 424 H 43.4278 2.32737 -3.35108 0
M  V30 425 H 42.1028 1.33602 -3.93857 0
M  V30 426 H 40.6798 2.63056 -2.64303 0
M  V30 427 N 42.8649 1.48995 0.513639 0
M  V30 428 C 44.1109 1.58076 1.27042 0
M  V30 429 C 44.4439 0.261026 1.92438 0
M  V30 430 O 43.7189 -0.734393 1.80103 0
M  V30 431 C 44.0019 2.73091 2.34719 0
M  V30 432 C 43.8549 4.14821 1.73907 0
M  V30 433 C 45.1739 2.83796 3.36375 0
M  V30 434 H 42.2929 0.575391 0.460536 0
M  V30 435 H 44.9349 1.81232 0.570516 0
M  V30 436 H 43.0849 2.53479 2.94416 0
M  V30 437 H 44.7569 4.45917 1.18135 0
M  V30 438 H 42.9999 4.21058 1.0437 0
M  V30 439 H 43.6709 4.91147 2.51949 0
M  V30 440 H 46.1469 3.01611 2.86653 0
M  V30 441 H 45.0229 3.65971 4.09093 0
M  V30 442 H 45.2839 1.92624 3.9793 0
M  V30 443 N 44.343 -0.763751 1.37857 0
M  V30 444 C 45.589 -1.52483 1.33704 0
M  V30 445 C 45.922 -1.94051 -0.0759612 0
M  V30 446 O 45.197 -1.64675 -1.03501 0
M  V30 447 C 45.48 -2.78441 2.28348 0
M  V30 448 C 45.333 -2.43075 3.78463 0
M  V30 449 C 46.652 -3.80415 2.21298 0
M  V30 450 H 43.771 -0.553169 0.487005 0
M  V30 451 H 46.413 -0.875562 1.68624 0
M  V30 452 H 44.563 -3.33842 1.987 0
M  V30 453 H 46.235 -1.93527 4.18742 0
M  V30 454 H 44.478 -1.75666 3.96641 0
M  V30 455 H 45.149 -3.33149 4.40132 0
M  V30 456 H 47.625 -3.34527 2.47449 0
M  V30 457 H 46.501 -4.66257 2.89647 0
M  V30 458 H 46.762 -4.25262 1.20849 0
M  V30 459 N 45.8211 -1.22559 -0.990812 0
M  V30 460 C 46.7311 -1.01394 -2.11557 0
M  V30 461 C 47.7471 0.0383962 -1.73958 0
M  V30 462 O 48.9231 -0.154787 -2.00804 0
M  V30 463 C 45.9881 -0.596569 -3.41529 0
M  V30 464 C 45.0491 -1.72276 -3.93217 0
M  V30 465 C 44.2821 -1.32521 -5.16985 0
M  V30 466 O 44.5051 -0.204909 -5.70032 0
M  V30 467 O 43.4391 -2.14247 -5.62478 0
M  V30 468 H 47.2651 -1.95633 -2.32296 0
M  V30 469 H 44.8501 -1.01172 -1.0993 0
M  V30 470 H 46.7321 -0.374263 -4.19735 0
M  V30 471 H 45.4071 0.316939 -3.22145 0
M  V30 472 H 44.3141 -1.99961 -3.16174 0
M  V30 473 H 45.6471 -2.61421 -4.17037 0
M  V30 474 N 47.2992 1.18797 -1.03562 0
M  V30 475 C 48.2622 2.20464 -0.626769 0
M  V30 476 C 49.2622 1.57721 0.313173 0
M  V30 477 O 50.4522 1.73917 0.0992615 0
M  V30 478 C 47.5842 3.40802 0.0818498 0
M  V30 479 H 48.7772 2.58149 -1.5264 0
M  V30 480 H 46.3302 1.32593 -0.827578 0
M  V30 481 H 47.0652 3.08642 0.995518 0
M  V30 482 H 46.8502 3.8758 -0.593652 0
M  V30 483 H 48.3402 4.16092 0.354584 0
M  V30 484 N 48.7773 0.814389 1.34928 0
M  V30 485 C 49.7093 0.187834 2.28429 0
M  V30 486 C 50.7223 -0.617374 1.5064 0
M  V30 487 O 51.9113 -0.448454 1.72775 0
M  V30 488 C 49.0113 -0.755962 3.30361 0
M  V30 489 C 48.1843 0.00456686 4.374 0
M  V30 490 C 47.2433 -0.858876 5.19143 0
M  V30 491 O 46.2693 -0.306968 5.68372 0
M  V30 492 N 47.4713 -2.17988 5.38016 0
M  V30 493 H 50.2363 0.991105 2.82838 0
M  V30 494 H 47.7973 0.670561 1.4736 0
M  V30 495 H 49.7893 -1.338 3.81942 0
M  V30 496 H 48.3593 -1.46001 2.7641 0
M  V30 497 H 47.5793 0.767865 3.86649 0
M  V30 498 H 48.8673 0.528422 5.06049 0
M  V30 499 H 48.2653 -2.65212 4.99679 0
M  V30 500 H 46.8223 -2.71098 5.92747 0
M  V30 501 N 50.2554 -1.46986 0.568584 0
M  V30 502 C 51.5014 -2.02741 0.0488709 0
M  V30 503 C 51.8344 -1.44077 -1.30214 0
M  V30 504 O 51.1094 -0.600552 -1.84996 0
M  V30 505 C 51.3924 -3.60086 -0.032047 0
M  V30 506 C 51.2454 -4.29162 1.34686 0
M  V30 507 C 52.5644 -4.33838 -0.739798 0
M  V30 508 H 49.6834 -0.736749 0.0192338 0
M  V30 509 H 52.3254 -1.75289 0.733065 0
M  V30 510 H 50.4754 -3.83606 -0.61473 0
M  V30 511 H 52.1474 -4.16948 1.97362 0
M  V30 512 H 50.3904 -3.89073 1.91846 0
M  V30 513 H 51.0614 -5.37826 1.24285 0
M  V30 514 H 53.5374 -4.15378 -0.244939 0
M  V30 515 H 52.4134 -5.43537 -0.765406 0
M  V30 516 H 52.6744 -4.03875 -1.79827 0
M  V30 517 N 51.7335 -0.305618 -1.54608 0
M  V30 518 C 52.9615 0.304775 -2.04643 0
M  V30 519 C 53.3765 1.47167 -1.18268 0
M  V30 520 O 52.7335 1.81296 -0.209328 0
M  V30 521 C 52.7845 0.756564 -3.53495 0
M  V30 522 O 52.5055 -0.36389 -4.36586 0
M  V30 523 C 54.0065 1.43163 -4.19546 0
M  V30 524 H 51.2265 0.0655481 -0.667791 0
M  V30 525 H 53.7705 -0.446592 -1.99564 0
M  V30 526 H 51.9255 1.45794 -3.58919 0
M  V30 527 H 52.3395 -0.0113121 -5.24499 0
M  V30 528 H 53.8135 1.69886 -5.25207 0
M  V30 529 H 54.2905 2.37318 -3.69563 0
M  V30 530 H 54.8965 0.773307 -4.18211 0
M  V30 531 N 53.2116 1.57565 -0.0334293 0
M  V30 532 C 54.4596 1.91598 0.642999 0
M  V30 533 C 54.7806 0.910847 1.7242 0
M  V30 534 O 54.0506 -0.0469931 1.95844 0
M  V30 535 H 52.6306 0.707228 0.240496 0
M  V30 536 H 55.2926 1.94726 -0.0822488 0
M  V30 537 H 54.3886 2.92336 1.09298 0
M  V30 538 N 54.6897 -0.239769 1.55765 0
M  V30 539 C 55.9357 -0.968234 1.78194 0
M  V30 540 C 56.2687 -1.84701 0.599938 0
M  V30 541 O 55.5437 -1.9031 -0.401524 0
M  V30 542 C 55.8267 -1.8227 3.10564 0
M  V30 543 C 55.6797 -0.971633 4.3918 0
M  V30 544 C 56.9987 -2.80388 3.39221 0
M  V30 545 H 54.1177 -0.350572 0.648281 0
M  V30 546 H 56.7597 -0.238259 1.885 0
M  V30 547 H 54.9097 -2.44507 3.01908 0
M  V30 548 H 56.5817 -0.367408 4.59835 0
M  V30 549 H 54.8247 -0.276276 4.32919 0
M  V30 550 H 55.4957 -1.60346 5.28198 0
M  V30 551 H 57.9717 -2.28287 3.47885 0
M  V30 552 H 56.8477 -3.3729 4.33044 0
M  V30 553 H 57.1087 -3.57212 2.60484 0
M  V30 554 N 56.1678 -1.49265 -0.50573 0
M  V30 555 C 57.0978 -1.68495 -1.61653 0
M  V30 556 C 58.0788 -0.53366 -1.61512 0
M  V30 557 O 59.2638 -0.76897 -1.78327 0
M  V30 558 C 56.3938 -1.74709 -3.00157 0
M  V30 559 C 55.3478 -2.89581 -3.15162 0
M  V30 560 C 54.6738 -2.80903 -4.5497 0
M  V30 561 C 55.9738 -4.30578 -2.95634 0
M  V30 562 H 57.6678 -2.61493 -1.45814 0
M  V30 563 H 55.2138 -1.25838 -0.70005 0
M  V30 564 H 57.1668 -1.86748 -3.77761 0
M  V30 565 H 55.8908 -0.783067 -3.17074 0
M  V30 566 H 54.5498 -2.77136 -2.39982 0
M  V30 567 H 54.1978 -1.82419 -4.68756 0
M  V30 568 H 53.8978 -3.57999 -4.65951 0
M  V30 569 H 55.4218 -2.94944 -5.34641 0
M  V30 570 H 56.8358 -4.4373 -3.63011 0
M  V30 571 H 55.2328 -5.0886 -3.18091 0
M  V30 572 H 56.3028 -4.45352 -1.91806 0
M  V30 573 N 57.6459 0.756429 -1.3826 0
M  V30 574 C 58.9229 1.50584 -1.24835 0
M  V30 575 C 59.3029 2.10556 0.151485 0
M  V30 576 O 58.6509 1.96825 1.1607 0
M  V30 577 C 58.8609 2.57448 -2.3563 0
M  V30 578 C 60.2089 3.24429 -2.73917 0
M  V30 579 O 61.2329 2.67751 -2.34921 0
M  V30 580 O 60.0919 4.26937 -3.41156 0
M  V30 581 H 57.1859 0.667664 -0.48801 0
M  V30 582 H 59.7319 0.792083 -1.5008 0
M  V30 583 H 58.5039 2.11362 -3.29305 0
M  V30 584 H 58.1269 3.36408 -2.11933 0
M  V30 585 N 59.124 1.23083 0.984299 0
M  V30 586 C 60.401 0.9689 1.69917 0
M  V30 587 C 60.781 -0.513604 2.04757 0
M  V30 588 O 60.129 -1.48383 1.73767 0
M  V30 589 C 60.339 1.87518 2.94343 0
M  V30 590 C 61.687 2.13636 3.6694 0
M  V30 591 O 62.711 1.85036 3.04368 0
M  V30 592 O 61.57 2.62119 4.79537 0
M  V30 593 H 58.664 0.365095 0.742048 0
M  V30 594 H 61.21 1.34107 1.03987 0
M  V30 595 H 59.982 2.87756 2.65164 0
M  V30 596 H 59.605 1.50514 3.6801 0
M  V30 597 N 60.6021 -1.18246 1.0419 0
M  V30 598 C 61.8421 -1.89948 0.754916 0
M  V30 599 C 62.2061 -1.78608 -0.70451 0
M  V30 600 O 63.4071 -2.4503 -1.10516 0
M  V30 601 C 61.6781 -3.36305 1.20969 0
M  V30 602 S 63.2371 -4.26088 1.04854 0
M  V30 603 H 60.0551 -0.655897 0.274446 0
M  V30 604 H 62.6571 -1.42873 1.33445 0
M  V30 605 H 61.3611 -3.42089 2.26722 0
M  V30 606 H 60.8921 -3.8842 0.624004 0
M  V30 607 H 62.9071 -4.96189 -0.0332896 0
M  V30 608 N 62.0802 -0.821533 -1.34494 0
M  V30 609 C 63.0102 -0.257138 -2.3208 0
M  V30 610 C 63.9912 0.625645 -1.58176 0
M  V30 611 O 65.1762 0.552811 -1.86166 0
M  V30 612 C 62.3062 0.582958 -3.42372 0
M  V30 613 C 61.2602 -0.202571 -4.2752 0
M  V30 614 C 60.5862 0.760179 -5.29269 0
M  V30 615 C 61.8862 -1.40998 -5.02908 0
M  V30 616 H 63.5802 -1.07247 -2.79532 0
M  V30 617 H 61.1262 -0.517163 -1.34393 0
M  V30 618 H 63.0792 0.987972 -4.09655 0
M  V30 619 H 61.8032 1.43133 -2.93565 0
M  V30 620 H 60.4622 -0.588936 -3.61838 0
M  V30 621 H 60.1102 1.60447 -4.76724 0
M  V30 622 H 59.8102 0.238809 -5.87115 0
M  V30 623 H 61.3342 1.16308 -5.9942 0
M  V30 624 H 62.7482 -1.07905 -5.63054 0
M  V30 625 H 61.1452 -1.86689 -5.70322 0
M  V30 626 H 62.2152 -2.1889 -4.32684 0
M  V30 627 N 63.5583 1.46682 -0.576371 0
M  V30 628 C 64.7983 2.04306 -0.0621356 0
M  V30 629 C 65.1623 1.4389 1.2712 0
M  V30 630 O 66.3633 1.92675 1.87429 0
M  V30 631 C 64.6343 3.57399 0.00927922 0
M  V30 632 S 66.1933 4.36309 0.466859 0
M  V30 633 H 63.0113 0.710167 -0.0344016 0
M  V30 634 H 65.6133 1.79807 -0.767437 0
M  V30 635 H 64.3173 3.98889 -0.965178 0
M  V30 636 H 63.8483 3.86424 0.737547 0
M  V30 637 H 65.8633 4.6533 1.72287 0
M  V30 638 N 65.0364 0.313813 1.54444 0
M  V30 639 C 66.3134 -0.345447 1.92525 0
M  V30 640 C 66.6934 -1.70667 1.24242 0
M  V30 641 O 66.0414 -2.25273 0.382654 0
M  V30 642 C 66.2514 -0.44737 3.46121 0
M  V30 643 C 67.5994 -0.712238 4.18584 0
M  V30 644 O 68.6234 -0.530678 3.52225 0
M  V30 645 O 67.4824 -1.06183 5.36085 0
M  V30 646 H 64.5764 -0.195407 0.803583 0
M  V30 647 H 67.1224 0.362813 1.65776 0
M  V30 648 H 65.8944 0.509043 3.87975 0
M  V30 649 H 65.5174 -1.20359 3.78945 0
M  V30 650 N 66.5145 -1.57545 0.0417849 0
M  V30 651 C 67.7635 -1.91494 -0.633492 0
M  V30 652 C 68.0765 -0.921084 -1.72556 0
M  V30 653 O 69.2825 -1.15228 -2.45835 0
M  V30 654 C 67.7385 -3.40072 -1.17808 0
M  V30 655 C 67.3465 -4.47843 -0.118633 0
M  V30 656 C 69.0905 -3.8307 -1.82915 0
M  V30 657 C 66.9975 -5.87529 -0.675578 0
M  V30 658 H 65.9275 -0.714653 -0.24039 0
M  V30 659 H 68.5785 -1.83175 0.109148 0
M  V30 660 H 66.9605 -3.43364 -1.97274 0
M  V30 661 H 68.1345 -4.56128 0.654494 0
M  V30 662 H 66.4495 -4.14128 0.434414 0
M  V30 663 H 69.0465 -4.84794 -2.25563 0
M  V30 664 H 69.3895 -3.1881 -2.67705 0
M  V30 665 H 69.9225 -3.82255 -1.10119 0
M  V30 666 H 66.6615 -6.55362 0.134475 0
M  V30 667 H 66.1815 -5.82824 -1.4169 0
M  V30 668 H 67.8605 -6.36491 -1.1614 0
M  V30 669 N 67.9926 0.231505 -1.5589 0
M  V30 670 C 69.2696 0.981096 -1.69215 0
M  V30 671 C 69.6496 2.02799 -0.586164 0
M  V30 672 O 68.9976 2.24823 0.408253 0
M  V30 673 C 69.2076 1.60054 -3.10135 0
M  V30 674 C 70.5556 2.09658 -3.69227 0
M  V30 675 O 71.5796 1.69967 -3.13033 0
M  V30 676 O 70.4386 2.8258 -4.67772 0
M  V30 677 H 67.5326 0.457653 -0.688827 0
M  V30 678 H 70.0786 0.224073 -1.68214 0
M  V30 679 H 68.8506 0.844105 -3.82087 0
M  V30 680 H 68.4736 2.42336 -3.15212 0
M  V30 681 N 69.4707 1.49531 0.497807 0
M  V30 682 C 70.6957 1.63159 1.28039 0
M  V30 683 C 71.1207 0.30418 1.85624 0
M  V30 684 O 70.4787 -0.728618 1.66015 0
M  V30 685 C 70.5267 2.70537 2.38416 0
M  V30 686 O 69.6307 2.29931 3.42353 0
M  V30 687 H 68.9717 0.546001 0.377861 0
M  V30 688 H 71.5017 1.9574 0.59558 0
M  V30 689 H 71.5117 2.92802 2.84132 0
M  V30 690 H 70.1867 3.6689 1.95869 0
M  V30 691 H 68.7637 2.18009 3.02533 0
M  V30 692 N 70.9488 -0.749086 1.3866 0
M  V30 693 C 72.1978 -1.50371 1.3443 0
M  V30 694 C 72.5108 -1.95503 -0.0616397 0
M  V30 695 O 73.7168 -2.70554 -0.226489 0
M  V30 696 C 72.1728 -2.71644 2.36088 0
M  V30 697 C 71.7808 -2.3352 3.82325 0
M  V30 698 C 73.5248 -3.49518 2.40909 0
M  V30 699 C 71.4318 -3.51431 4.75658 0
M  V30 700 H 70.3618 -0.564628 0.499712 0
M  V30 701 H 73.0128 -0.818449 1.64237 0
M  V30 702 H 71.3948 -3.42175 1.9933 0
M  V30 703 H 72.5688 -1.70627 4.28046 0
M  V30 704 H 70.8838 -1.6877 3.80665 0
M  V30 705 H 73.4808 -4.37197 3.07836 0
M  V30 706 H 73.8238 -3.90992 1.42937 0
M  V30 707 H 74.3568 -2.86005 2.76489 0
M  V30 708 H 71.0958 -3.15019 5.74842 0
M  V30 709 H 70.6158 -4.13352 4.34627 0
M  V30 710 H 72.2948 -4.17953 4.93887 0
M  V30 711 N 72.4269 -1.23603 -0.977757 0
M  V30 712 C 73.7039 -0.977897 -1.69401 0
M  V30 713 C 74.0839 0.502738 -2.05026 0
M  V30 714 O 73.4319 1.47459 -1.74551 0
M  V30 715 C 73.6419 -1.89077 -2.93345 0
M  V30 716 C 74.9899 -2.15579 -3.65802 0
M  V30 717 O 76.0139 -1.86648 -3.03383 0
M  V30 718 O 74.8729 -2.64658 -4.78141 0
M  V30 719 H 71.9669 -0.369025 -0.740101 0
M  V30 720 H 74.5129 -1.34657 -1.03274 0
M  V30 721 H 73.2849 -2.89158 -2.63634 0
M  V30 722 H 72.9079 -1.52463 -3.67207 0
M  V30 723 N 73.905 1.17692 -1.04816 0
M  V30 724 C 74.853 2.23632 -0.63966 0
M  V30 725 C 75.847 1.6601 0.337219 0
M  V30 726 O 77.053 1.78844 0.203693 0
M  V30 727 H 73.428 0.727949 -0.188665 0
M  V30 728 H 75.399 2.55387 -1.54337 0
M  V30 729 C 74.148 3.4769 -0.0264051 0
M  V30 730 H 73.471 3.92331 -0.769164 0
M  V30 731 H 74.911 4.23418 0.222098 0
M  V30 732 C 73.37 3.13807 1.22584 0
M  V30 733 O 73.9 3.28236 2.31569 0
M  V30 734 N 72.106 2.68065 1.12202 0
M  V30 735 H 71.653 2.56525 0.235133 0
M  V30 736 H 71.611 2.45767 1.96076 0
M  V30 737 N 75.3831 0.828654 1.34056 0
M  V30 738 C 76.6301 0.419458 1.98108 0
M  V30 739 C 76.9581 -1.01886 1.65679 0
M  V30 740 O 76.2131 -1.72539 0.923512 0
M  V30 741 C 76.5121 0.575226 3.52741 0
M  V30 742 C 76.1781 1.98012 4.05095 0
M  V30 743 C 74.8401 2.36442 4.19104 0
M  V30 744 C 77.1921 2.89824 4.33188 0
M  V30 745 C 74.5201 3.66009 4.58535 0
M  V30 746 C 76.8721 4.1886 4.74066 0
M  V30 747 C 75.5361 4.5726 4.86281 0
M  V30 748 H 74.8061 0.153491 0.724929 0
M  V30 749 H 77.4531 1.05371 1.59904 0
M  V30 750 H 75.7581 -0.142385 3.91541 0
M  V30 751 H 77.4551 0.239057 4.00287 0
M  V30 752 H 74.0451 1.67162 3.94658 0
M  V30 753 H 78.2291 2.61375 4.21897 0
M  V30 754 H 73.4851 3.95579 4.66184 0
M  V30 755 H 77.6591 4.90086 4.94761 0
M  V30 756 H 75.2861 5.57707 5.16592 0
M  V30 757 N 76.8612 -1.46375 0.584142 0
M  V30 758 C 77.8092 -2.32042 -0.161047 0
M  V30 759 C 78.8032 -1.44569 -0.882966 0
M  V30 760 O 80.0092 -1.61186 -0.801191 0
M  V30 761 H 76.3842 -0.748659 -0.0708033 0
M  V30 762 H 78.3552 -2.92704 0.580269 0
M  V30 763 C 77.1042 -3.27762 -1.1605 0
M  V30 764 H 76.4272 -3.95051 -0.614419 0
M  V30 765 H 77.8672 -3.90481 -1.65228 0
M  V30 766 C 76.3262 -2.53218 -2.22221 0
M  V30 767 O 76.8562 -2.29628 -3.29597 0
M  V30 768 N 75.0622 -2.13756 -1.96868 0
M  V30 769 H 74.6092 -2.33142 -1.09557 0
M  V30 770 H 74.5672 -1.642 -2.68115 0
M  V30 771 N 78.3393 -0.321999 -1.54275 0
M  V30 772 C 79.5673 0.283052 -2.04955 0
M  V30 773 C 79.9823 1.45904 -1.19823 0
M  V30 774 O 79.3393 1.81063 -0.228545 0
M  V30 775 C 79.3903 0.719028 -3.54277 0
M  V30 776 O 79.1113 -0.410175 -4.36176 0
M  V30 777 C 80.6123 1.38705 -4.21041 0
M  V30 778 H 77.8323 0.0584616 -0.668448 0
M  V30 779 H 80.3763 -0.467734 -1.99079 0
M  V30 780 H 78.5313 1.41979 -3.60445 0
M  V30 781 H 78.9453 -0.0669416 -5.24457 0
M  V30 782 H 80.4193 1.64306 -5.2698 0
M  V30 783 H 80.8963 2.33385 -3.72059 0
M  V30 784 H 81.5023 0.728906 -4.19007 0
M  V30 785 N 79.8174 1.5752 -0.0501392 0
M  V30 786 C 81.0474 1.96678 0.632573 0
M  V30 787 C 81.4554 0.926298 1.64974 0
M  V30 788 O 80.7984 -0.09802 1.83438 0
M  V30 789 C 80.8604 3.32068 1.37735 0
M  V30 790 C 80.5244 4.54076 0.516131 0
M  V30 791 C 81.5214 5.19445 -0.217357 0
M  V30 792 C 79.2064 5.00304 0.44736 0
M  V30 793 C 81.2004 6.29378 -1.00807 0
M  V30 794 C 78.8874 6.10114 -0.347038 0
M  V30 795 C 79.8854 6.74512 -1.07344 0
M  V30 796 O 79.5734 7.82211 -1.85477 0
M  V30 797 H 79.3054 0.652193 0.177821 0
M  V30 798 H 81.8594 2.05091 -0.112543 0
M  V30 799 H 80.0894 3.20206 2.16807 0
M  V30 800 H 81.7784 3.55981 1.95019 0
M  V30 801 H 82.5444 4.84689 -0.173688 0
M  V30 802 H 78.4234 4.49971 1.00235 0
M  V30 803 H 81.9674 6.79575 -1.57556 0
M  V30 804 H 77.8644 6.44307 -0.392349 0
M  V30 805 H 78.6324 7.98982 -1.77678 0
M  V30 806 N 81.2955 -0.223234 1.56011 0
M  V30 807 C 82.2425 -1.27664 1.92277 0
M  V30 808 C 83.2125 -1.46659 0.779763 0
M  V30 809 O 84.3975 -1.60256 1.03551 0
M  V30 810 C 81.5375 -2.62234 2.24338 0
M  V30 811 C 80.6505 -2.51051 3.51564 0
M  V30 812 C 79.7855 -3.78133 3.7308 0
M  V30 813 C 78.8245 -3.61665 4.93827 0
M  V30 814 N 77.9615 -4.80693 5.11741 0
M  V30 815 H 82.8015 -0.960358 2.82101 0
M  V30 816 H 80.3385 -0.462901 1.39627 0
M  V30 817 H 82.2965 -3.40596 2.40936 0
M  V30 818 H 80.9265 -2.91961 1.3769 0
M  V30 819 H 79.9785 -1.64132 3.43169 0
M  V30 820 H 81.2905 -2.34803 4.40079 0
M  V30 821 H 80.4445 -4.64938 3.89766 0
M  V30 822 H 79.1835 -3.97304 2.82844 0
M  V30 823 H 78.1885 -2.73244 4.77093 0
M  V30 824 H 79.4135 -3.43966 5.85546 0
M  V30 825 H 77.3595 -5.00181 4.24446 0
M  V30 826 H 77.2765 -4.67165 5.94384 0
M  V30 827 H 78.5445 -5.6893 5.3286 0
M  V30 828 N 82.7736 -1.49793 -0.48987 0
M  V30 829 C 84.0226 -1.59085 -1.23995 0
M  V30 830 C 84.3356 -0.287907 -1.9347 0
M  V30 831 O 85.5416 -0.259506 -2.70257 0
M  V30 832 C 83.9976 -2.80736 -2.252 0
M  V30 833 C 83.6056 -4.17833 -1.61614 0
M  V30 834 C 85.3496 -2.99364 -3.00967 0
M  V30 835 C 83.2566 -5.30693 -2.60996 0
M  V30 836 H 82.1866 -0.592372 -0.466488 0
M  V30 837 H 84.8376 -1.76197 -0.51252 0
M  V30 838 H 83.2196 -2.57142 -3.01154 0
M  V30 839 H 84.3936 -4.51608 -0.915774 0
M  V30 840 H 82.7086 -4.04656 -0.981977 0
M  V30 841 H 85.3056 -3.80851 -3.75308 0
M  V30 842 H 85.6486 -2.10356 -3.59244 0
M  V30 843 H 86.1816 -3.2305 -2.32128 0
M  V30 844 H 82.9206 -6.21796 -2.07485 0
M  V30 845 H 82.4406 -5.01359 -3.2924 0
M  V30 846 H 84.1196 -5.6049 -3.23202 0
M  V30 847 N 84.2517 0.741722 -1.39055 0
M  V30 848 C 85.4987 1.50114 -1.35912 0
M  V30 849 C 85.8267 1.94443 0.0470937 0
M  V30 850 O 85.0817 1.66612 1.02659 0
M  V30 851 C 85.3807 2.7592 -2.27163 0
M  V30 852 C 85.0467 2.50493 -3.74919 0
M  V30 853 C 83.7087 2.43267 -4.1518 0
M  V30 854 C 86.0607 2.28585 -4.684 0
M  V30 855 C 83.3887 2.12166 -5.46994 0
M  V30 856 C 85.7407 1.99002 -6.00484 0
M  V30 857 C 84.4047 1.90241 -6.39816 0
M  V30 858 H 83.6747 0.549306 -0.497336 0
M  V30 859 H 86.3217 0.851896 -1.71508 0
M  V30 860 H 84.6267 3.45553 -1.84663 0
M  V30 861 H 86.3237 3.33923 -2.22028 0
M  V30 862 H 82.9137 2.56992 -3.43006 0
M  V30 863 H 87.0977 2.33139 -4.38132 0
M  V30 864 H 82.3537 2.03901 -5.76398 0
M  V30 865 H 86.5277 1.81057 -6.72452 0
M  V30 866 H 84.1547 1.65907 -7.41875 0
M  V30 867 N 85.7298 1.2412 0.971189 0
M  V30 868 C 87.1408 1.07236 1.52831 0
M  V30 869 C 87.4918 -0.357352 1.92918 0
M  V30 870 O 86.6168 -1.24528 1.76979 0
M  V30 871 C 87.2118 1.94043 2.77728 0
M  V30 872 C 85.7708 1.81394 3.29808 0
M  V30 873 C 84.9178 1.89189 2.02738 0
M  V30 874 H 87.8688 1.37648 0.789864 0
M  V30 875 H 87.8898 1.47066 3.5093 0
M  V30 876 H 87.4018 2.98093 2.4852 0
M  V30 877 H 85.5028 0.801634 3.63874 0
M  V30 878 H 85.6158 2.65294 3.98944 0
M  V30 879 H 83.9798 1.32877 2.17292 0
M  V30 880 H 84.7628 2.94812 1.759 0
M  V30 881 N 87.2079 -1.17134 1.05439 0
M  V30 882 C 88.1549 -2.21235 0.657539 0
M  V30 883 C 89.1249 -1.62551 -0.341543 0
M  V30 884 O 90.3099 -1.89379 -0.232393 0
M  V30 885 C 87.4499 -3.45076 0.0410575 0
M  V30 886 C 86.5629 -4.18042 1.08927 0
M  V30 887 C 85.6979 -5.29376 0.439848 0
M  V30 888 C 84.7369 -5.94132 1.4722 0
M  V30 889 N 83.8739 -6.96975 0.846756 0
M  V30 890 H 88.7139 -2.54534 1.54972 0
M  V30 891 H 86.2509 -1.25028 0.775006 0
M  V30 892 H 88.2089 -4.15862 -0.33383 0
M  V30 893 H 86.8389 -3.12353 -0.814568 0
M  V30 894 H 85.8909 -3.45945 1.58196 0
M  V30 895 H 87.2029 -4.62306 1.87282 0
M  V30 896 H 86.3569 -6.06699 0.0115125 0
M  V30 897 H 85.0959 -4.86251 -0.375656 0
M  V30 898 H 84.1009 -5.15538 1.91052 0
M  V30 899 H 85.3259 -6.39337 2.28965 0
M  V30 900 H 83.2719 -6.5598 0.0518075 0
M  V30 901 H 83.1889 -7.39565 1.5678 0
M  V30 902 H 84.4569 -7.78239 0.443277 0
M  V30 903 N 88.686 -0.835752 -1.33615 0
M  V30 904 C 89.935 -0.426289 -1.97144 0
M  V30 905 C 90.248 1.01912 -1.66953 0
M  V30 906 O 91.454 1.53311 -2.24072 0
M  V30 907 C 89.91 -0.711321 -3.52801 0
M  V30 908 C 89.518 -2.1712 -3.91871 0
M  V30 909 C 91.262 -0.368654 -4.22896 0
M  V30 910 C 89.169 -2.40044 -5.40493 0
M  V30 911 H 88.099 -0.15567 -0.737755 0
M  V30 912 H 90.75 -1.0239 -1.52278 0
M  V30 913 H 89.132 -0.0433766 -3.95976 0
M  V30 914 H 90.306 -2.87936 -3.59763 0
M  V30 915 H 88.621 -2.47654 -3.34749 0
M  V30 916 H 91.218 -0.517601 -5.32189 0
M  V30 917 H 91.561 0.688078 -4.10574 0
M  V30 918 H 92.094 -0.991702 -3.8524 0
M  V30 919 H 88.833 -3.44271 -5.57815 0
M  V30 920 H 88.353 -1.73785 -5.74072 0
M  V30 921 H 90.032 -2.23042 -6.0734 0
M  V30 922 N 90.1641 1.46063 -0.591896 0
M  V30 923 C 91.1111 2.30399 0.136069 0
M  V30 924 C 92.0811 1.41169 0.875238 0
M  V30 925 O 93.2661 1.70112 0.86409 0
M  V30 926 C 90.4061 3.25804 1.13781 0
M  V30 927 C 89.5191 4.30134 0.401137 0
M  V30 928 C 88.6541 5.12659 1.39121 0
M  V30 929 C 87.6931 6.0873 0.641462 0
M  V30 930 N 86.8301 6.8409 1.58004 0
M  V30 931 H 91.6701 2.92118 -0.589144 0
M  V30 932 H 89.2071 1.43959 -0.302342 0
M  V30 933 H 91.1651 3.79569 1.73156 0
M  V30 934 H 89.7951 2.65872 1.83062 0
M  V30 935 H 88.8471 3.79152 -0.307826 0
M  V30 936 H 90.1591 4.98458 -0.184565 0
M  V30 937 H 89.3131 5.70747 2.05749 0
M  V30 938 H 88.0521 4.44316 2.01084 0
M  V30 939 H 87.0571 5.49786 -0.0385419 0
M  V30 940 H 88.2821 6.79095 0.0270945 0
M  V30 941 H 86.2281 6.18449 2.18761 0
M  V30 942 H 86.1451 7.48709 1.04738 0
M  V30 943 H 87.4131 7.4673 2.23639 0
M  V30 944 N 91.6422 0.330177 1.54103 0
M  V30 945 C 92.5892 -0.532762 2.24567 0
M  V30 946 C 93.5592 -1.10635 1.23892 0
M  V30 947 O 94.7442 -1.14546 1.5259 0
M  V30 948 C 91.8842 -1.6845 3.01195 0
M  V30 949 C 90.9972 -1.13951 4.167 0
M  V30 950 C 90.1322 -2.25746 4.80845 0
M  V30 951 C 89.1712 -1.6853 5.88442 0
M  V30 952 N 88.3082 -2.74014 6.46421 0
M  V30 953 H 93.1482 0.0746905 2.97906 0
M  V30 954 H 90.6852 0.048632 1.4702 0
M  V30 955 H 92.6432 -2.36234 3.43874 0
M  V30 956 H 91.2732 -2.26314 2.30178 0
M  V30 957 H 90.3252 -0.35301 3.78758 0
M  V30 958 H 91.6372 -0.680892 4.94131 0
M  V30 959 H 90.7912 -3.01422 5.26526 0
M  V30 960 H 89.5302 -2.74947 4.0281 0
M  V30 961 H 88.5352 -0.913543 5.42157 0
M  V30 962 H 89.7602 -1.20198 6.68378 0
M  V30 963 H 87.7062 -3.22494 5.71256 0
M  V30 964 H 87.6232 -2.32735 7.19285 0
M  V30 965 H 88.8912 -3.49499 6.96757 0
M  V30 966 N 93.1203 -1.57491 0.0584922 0
M  V30 967 C 94.0503 -2.14988 -0.911178 0
M  V30 968 C 95.0313 -1.07343 -1.31952 0
M  V30 969 O 96.2163 -1.35318 -1.39294 0
M  V30 970 C 93.3463 -2.70078 -2.18347 0
M  V30 971 C 92.3003 -3.82771 -1.91495 0
M  V30 972 C 91.6263 -4.24408 -3.25241 0
M  V30 973 C 92.9263 -5.07592 -1.23075 0
M  V30 974 H 94.6203 -2.96263 -0.432246 0
M  V30 975 H 92.1663 -1.42512 -0.206469 0
M  V30 976 H 94.1193 -3.08943 -2.86587 0
M  V30 977 H 92.8433 -1.86005 -2.68458 0
M  V30 978 H 91.5023 -3.44389 -1.25664 0
M  V30 979 H 91.1503 -3.37275 -3.73168 0
M  V30 980 H 90.8503 -5.00366 -3.08071 0
M  V30 981 H 92.3743 -4.65879 -3.94701 0
M  V30 982 H 93.7883 -5.43857 -1.81362 0
M  V30 983 H 92.1853 -5.88741 -1.16207 0
M  V30 984 H 93.2553 -4.84454 -0.207847 0
M  V30 985 N 94.5984 0.214957 -1.56127 0
M  V30 986 C 95.5304 1.29004 -1.89448 0
M  V30 987 C 96.5434 1.42716 -0.783326 0
M  V30 988 O 97.7324 1.43496 -1.06166 0
M  V30 989 C 94.8324 2.66482 -2.09381 0
M  V30 990 C 94.0054 2.74633 -3.40434 0
M  V30 991 C 93.0644 3.9317 -3.49719 0
M  V30 992 O 92.0904 3.812 -4.227 0
M  V30 993 N 93.2924 5.07765 -2.81346 0
M  V30 994 H 96.0574 1.00743 -2.82261 0
M  V30 995 H 93.6184 0.40497 -1.56753 0
M  V30 996 H 95.6104 3.44173 -2.12901 0
M  V30 997 H 94.1804 2.87314 -1.23163 0
M  V30 998 H 93.4004 1.83368 -3.48955 0
M  V30 999 H 94.6884 2.77054 -4.26754 0
M  V30 1000 H 94.0864 5.20386 -2.21843 0
M  V30 1001 H 92.6434 5.83474 -2.90519 0
M  V30 1002 N 96.0765 1.50051 0.48192 0
M  V30 1003 C 96.9865 1.7089 1.60728 0
M  V30 1004 C 98.0025 0.591788 1.63627 0
M  V30 1005 O 99.1785 0.868817 1.81696 0
M  V30 1006 C 96.2435 1.78855 2.97005 0
M  V30 1007 C 95.3045 3.02537 3.04581 0
M  V30 1008 C 94.5375 3.10112 4.34357 0
M  V30 1009 O 94.7605 2.24765 5.24249 0
M  V30 1010 O 93.6945 4.02747 4.47301 0
M  V30 1011 H 97.5205 2.66264 1.46072 0
M  V30 1012 H 95.1055 1.34018 0.660264 0
M  V30 1013 H 96.9875 1.86336 3.77964 0
M  V30 1014 H 95.6625 0.866628 3.11883 0
M  V30 1015 H 94.5695 3.00563 2.22739 0
M  V30 1016 H 95.9025 3.94272 2.94636 0
M  V30 1017 N 97.5546 -0.734337 1.39446 0
M  V30 1018 C 98.9706 -1.03997 1.21065 0
M  V30 1019 C 99.1706 -2.01369 0.0727019 0
M  V30 1020 O 98.2266 -2.45856 -0.575426 0
M  V30 1021 C 99.5396 -1.60163 2.54496 0
M  V30 1022 C 101.088 -1.7224 2.61347 0
M  V30 1023 C 101.563 -2.31814 3.95002 0
M  V30 1024 N 103.054 -2.39223 3.96644 0
M  V30 1025 C 103.789 -2.86258 4.96834 0
M  V30 1026 N 103.285 -3.33184 6.07421 0
M  V30 1027 N 105.078 -2.85473 4.84213 0
M  V30 1028 H 97.2286 -0.0885624 2.12215 0
M  V30 1029 H 99.4916 -0.10191 0.942506 0
M  V30 1030 H 99.1976 -0.960811 3.38321 0
M  V30 1031 H 99.0716 -2.5896 2.74262 0
M  V30 1032 H 101.459 -2.35443 1.77906 0
M  V30 1033 H 101.54 -0.720939 2.4543 0
M  V30 1034 H 101.184 -1.69238 4.78875 0
M  V30 1035 H 101.114 -3.32638 4.08239 0
M  V30 1036 H 103.605 -2.06057 3.16779 0
M  V30 1037 H 103.918 -3.67586 6.7978 0
M  V30 1038 H 102.263 -3.31191 6.11013 0
M  V30 1039 H 105.454 -2.48136 3.96921 0
M  V30 1040 H 105.627 -3.21814 5.62441 0
M  V30 1041 N 99.0327 -1.24633 -0.964593 0
M  V30 1042 C 100.31 -0.995809 -1.68354 0
M  V30 1043 C 100.69 0.480964 -2.05548 0
M  V30 1044 O 100.038 1.45599 -1.76105 0
M  V30 1045 C 100.248 -1.92177 -2.91323 0
M  V30 1046 C 101.596 -2.19446 -3.63495 0
M  V30 1047 O 102.62 -1.89855 -3.01386 0
M  V30 1048 O 101.479 -2.69714 -4.75307 0
M  V30 1049 H 98.5727 -0.376854 -0.736146 0
M  V30 1050 H 101.119 -1.35745 -1.0184 0
M  V30 1051 H 99.8907 -2.91938 -2.60553 0
M  V30 1052 H 99.5137 -1.56349 -3.65569 0
M  V30 1053 N 100.511 1.16574 -1.06058 0
M  V30 1054 C 101.741 1.90675 -0.795397 0
M  V30 1055 C 102.149 1.77547 0.653735 0
M  V30 1056 O 101.492 1.11611 1.45907 0
M  V30 1057 C 101.554 3.42011 -1.10764 0
M  V30 1058 C 101.218 3.78924 -2.55471 0
M  V30 1059 C 102.215 3.81042 -3.53699 0
M  V30 1060 C 99.8998 4.09626 -2.90708 0
M  V30 1061 C 101.894 4.13346 -4.85205 0
M  V30 1062 C 99.5808 4.41597 -4.22416 0
M  V30 1063 C 100.579 4.43436 -5.19474 0
M  V30 1064 O 100.267 4.74649 -6.48817 0
M  V30 1065 H 99.9988 0.611554 -0.288058 0
M  V30 1066 H 102.553 1.48711 -1.41683 0
M  V30 1067 H 100.783 3.84312 -0.429128 0
M  V30 1068 H 102.472 3.97384 -0.827077 0
M  V30 1069 H 103.238 3.57437 -3.27817 0
M  V30 1070 H 99.1168 4.07361 -2.15819 0
M  V30 1071 H 102.661 4.14696 -5.60957 0
M  V30 1072 H 98.5578 4.64667 -4.48056 0
M  V30 1073 H 99.3258 4.9247 -6.5377 0
M  V30 1074 N 101.989 0.842826 1.3317 0
M  V30 1075 C 103.236 0.440447 1.97652 0
M  V30 1076 C 103.564 -1.00123 1.6675 0
M  V30 1077 O 102.819 -1.7155 0.941761 0
M  V30 1078 C 103.118 0.612607 3.52111 0
M  V30 1079 C 102.784 2.02297 4.02972 0
M  V30 1080 C 101.446 2.40874 4.16573 0
M  V30 1081 C 103.798 2.94402 4.30089 0
M  V30 1082 C 101.126 3.70852 4.54627 0
M  V30 1083 C 103.478 4.23865 4.69597 0
M  V30 1084 C 102.142 4.62392 4.81404 0
M  V30 1085 H 101.412 0.161171 0.72326 0
M  V30 1086 H 104.059 1.07061 1.58777 0
M  V30 1087 H 102.364 -0.100849 3.9167 0
M  V30 1088 H 104.061 0.2815 4.00011 0
M  V30 1089 H 100.651 1.71338 3.92863 0
M  V30 1090 H 104.835 2.65835 4.19101 0
M  V30 1091 H 100.091 4.00501 4.61962 0
M  V30 1092 H 104.265 4.95306 4.89536 0
M  V30 1093 H 101.892 5.63154 5.10648 0
M  V30 1094 N 103.467 -1.45747 0.599634 0
M  V30 1095 C 104.883 -1.57424 0.26264 0
M  V30 1096 C 105.083 -1.59222 -1.23493 0
M  V30 1097 O 104.139 -1.51825 -2.01756 0
M  V30 1098 C 105.452 -2.86061 0.926795 0
M  V30 1099 C 107 -2.99722 0.901967 0
M  V30 1100 C 107.475 -4.31119 1.54598 0
M  V30 1101 N 108.966 -4.37858 1.5111 0
M  V30 1102 C 109.701 -5.3818 1.97863 0
M  V30 1103 N 109.197 -6.45083 2.52666 0
M  V30 1104 N 110.99 -5.29487 1.88679 0
M  V30 1105 H 103.141 -1.42823 1.57211 0
M  V30 1106 H 105.404 -0.68235 0.658105 0
M  V30 1107 H 105.11 -2.90605 1.98095 0
M  V30 1108 H 104.984 -3.74563 0.445238 0
M  V30 1109 H 107.371 -2.9475 -0.143617 0
M  V30 1110 H 107.452 -2.12652 1.42171 0
M  V30 1111 H 107.096 -4.36849 2.59085 0
M  V30 1112 H 107.026 -5.16992 1.00132 0
M  V30 1113 H 109.517 -3.61209 1.11068 0
M  V30 1114 H 109.83 -7.17869 2.86155 0
M  V30 1115 H 108.175 -6.45856 2.56701 0
M  V30 1116 H 111.366 -4.44877 1.4561 0
M  V30 1117 H 111.539 -6.07524 2.25429 0
M  V30 1118 N 104.945 -0.338344 -1.53925 0
M  V30 1119 C 106.175 0.260919 -2.04946 0
M  V30 1120 C 106.583 1.45174 -1.2133 0
M  V30 1121 O 105.926 1.82122 -0.240262 0
M  V30 1122 C 105.988 0.744596 -3.51704 0
M  V30 1123 C 105.652 -0.325883 -4.55837 0
M  V30 1124 C 106.649 -1.16687 -5.06636 0
M  V30 1125 C 104.334 -0.478317 -5.00017 0
M  V30 1126 C 106.328 -2.14588 -6.00192 0
M  V30 1127 C 104.015 -1.46073 -5.93385 0
M  V30 1128 C 105.013 -2.29297 -6.4336 0
M  V30 1129 O 104.701 -3.25867 -7.34892 0
M  V30 1130 H 104.433 0.0551207 -0.673749 0
M  V30 1131 H 106.987 -0.486984 -1.99544 0
M  V30 1132 H 105.217 1.54366 -3.54553 0
M  V30 1133 H 106.906 1.26383 -3.85723 0
M  V30 1134 H 107.672 -1.06016 -4.73271 0
M  V30 1135 H 103.551 0.159613 -4.60724 0
M  V30 1136 H 107.095 -2.79585 -6.39123 0
M  V30 1137 H 102.992 -1.56802 -6.26166 0
M  V30 1138 H 103.76 -3.21278 -7.5281 0
M  V30 1139 N 106.423 1.57458 -0.0668435 0
M  V30 1140 C 107.653 1.97337 0.611677 0
M  V30 1141 C 108.061 0.943744 1.63982 0
M  V30 1142 O 107.404 -0.0785584 1.83532 0
M  V30 1143 C 107.466 3.33511 1.34205 0
M  V30 1144 C 107.13 4.54598 0.467941 0
M  V30 1145 C 108.127 5.19186 -0.272439 0
M  V30 1146 C 105.812 5.0075 0.39427 0
M  V30 1147 C 107.806 6.28274 -1.07476 0
M  V30 1148 C 105.493 6.09711 -0.411729 0
M  V30 1149 C 106.491 6.73335 -1.14492 0
M  V30 1150 O 106.179 7.80199 -1.93763 0
M  V30 1151 H 105.911 0.654042 0.170893 0
M  V30 1152 H 108.465 2.04961 -0.134289 0
M  V30 1153 H 106.695 3.22487 2.13398 0
M  V30 1154 H 108.384 3.58029 1.91233 0
M  V30 1155 H 109.15 4.84477 -0.225086 0
M  V30 1156 H 105.029 4.51009 0.954569 0
M  V30 1157 H 108.573 6.77866 -1.64755 0
M  V30 1158 H 104.47 6.43854 -0.460664 0
M  V30 1159 H 105.238 7.97053 -1.86142 0
M  V30 1160 N 107.901 -0.206675 1.56239 0
M  V30 1161 C 108.848 -1.25617 1.93621 0
M  V30 1162 C 109.818 -1.45824 0.795274 0
M  V30 1163 O 111.003 -1.59148 1.05245 0
M  V30 1164 C 108.143 -2.59839 2.27107 0
M  V30 1165 C 107.256 -2.47308 3.54207 0
M  V30 1166 C 106.391 -3.74155 3.7707 0
M  V30 1167 C 105.43 -3.56407 4.97635 0
M  V30 1168 N 104.567 -4.75238 5.1681 0
M  V30 1169 H 109.407 -0.930383 2.83104 0
M  V30 1170 H 106.944 -0.448065 1.4011 0
M  V30 1171 H 108.902 -3.38021 2.44535 0
M  V30 1172 H 107.532 -2.90485 1.40778 0
M  V30 1173 H 106.584 -1.60483 3.4489 0
M  V30 1174 H 107.896 -2.30122 4.42544 0
M  V30 1175 H 107.05 -4.60778 3.94675 0
M  V30 1176 H 105.789 -3.94282 2.87042 0
M  V30 1177 H 104.794 -2.68168 4.79964 0
M  V30 1178 H 106.019 -3.37736 5.89161 0
M  V30 1179 H 103.965 -4.95651 4.29728 0
M  V30 1180 H 103.882 -4.60835 5.99306 0
M  V30 1181 H 105.15 -5.63246 5.38864 0
M  V30 1182 N 109.379 -1.50304 -0.473955 0
M  V30 1183 C 110.625 -1.61389 -1.22806 0
M  V30 1184 C 110.958 -0.311955 -1.91678 0
M  V30 1185 O 110.233 0.686384 -1.81986 0
M  V30 1186 C 110.516 -2.79219 -2.27396 0
M  V30 1187 C 110.369 -4.19286 -1.62848 0
M  V30 1188 C 111.688 -2.92614 -3.28732 0
M  V30 1189 H 108.807 -0.587399 -0.445119 0
M  V30 1190 H 111.449 -1.82681 -0.522265 0
M  V30 1191 H 109.599 -2.61195 -2.87592 0
M  V30 1192 H 111.271 -4.48892 -1.06271 0
M  V30 1193 H 109.514 -4.23677 -0.931693 0
M  V30 1194 H 110.185 -4.97655 -2.38838 0
M  V30 1195 H 112.661 -3.09105 -2.78556 0
M  V30 1196 H 111.537 -3.76688 -3.99246 0
M  V30 1197 H 111.798 -2.03107 -3.92683 0
M  V30 1198 N 110.857 0.726932 -1.39834 0
M  V30 1199 C 111.805 1.86235 -1.39353 0
M  V30 1200 C 112.799 1.67144 -0.275555 0
M  V30 1201 O 114.005 1.74387 -0.44601 0
M  V30 1202 H 110.38 0.613174 -0.43534 0
M  V30 1203 H 112.351 1.83756 -2.35109 0
M  V30 1204 C 111.1 3.23995 -1.26185 0
M  V30 1205 H 110.423 3.39285 -2.11484 0
M  V30 1206 H 111.863 4.03609 -1.29907 0
M  V30 1207 C 110.322 3.36888 0.0290018 0
M  V30 1208 O 110.852 3.89152 0.99619 0
M  V30 1209 N 109.058 2.90446 0.0947437 0
M  V30 1210 H 108.605 2.48102 -0.693035 0
M  V30 1211 H 108.563 2.99451 0.957932 0
M  V30 1212 N 112.336 1.25143 0.95797 0
M  V30 1213 C 113.266 1.07711 2.07173 0
M  V30 1214 C 114.247 -0.0128462 1.70095 0
M  V30 1215 O 115.432 0.156061 1.93572 0
M  V30 1216 C 112.562 0.691503 3.40346 0
M  V30 1217 C 111.516 1.73132 3.9142 0
M  V30 1218 C 110.842 1.20049 5.21049 0
M  V30 1219 C 112.142 3.1294 4.1817 0
M  V30 1220 H 113.836 2.00873 2.22014 0
M  V30 1221 H 111.382 0.967191 1.06684 0
M  V30 1222 H 113.335 0.556505 4.17709 0
M  V30 1223 H 112.059 -0.275819 3.25433 0
M  V30 1224 H 110.718 1.8547 3.16222 0
M  V30 1225 H 110.366 0.223499 5.02503 0
M  V30 1226 H 110.066 1.89545 5.56189 0
M  V30 1227 H 111.59 1.07782 6.01012 0
M  V30 1228 H 113.004 3.03775 4.86203 0
M  V30 1229 H 111.401 3.79875 4.64559 0
M  V30 1230 H 112.471 3.6025 3.24573 0
M  V30 1231 N 113.814 -1.1601 1.06675 0
M  V30 1232 C 114.761 -2.20525 0.680967 0
M  V30 1233 C 115.731 -1.62904 -0.324283 0
M  V30 1234 O 116.916 -1.89615 -0.212294 0
M  V30 1235 C 114.056 -3.45013 0.0776551 0
M  V30 1236 C 113.169 -4.16863 1.13355 0
M  V30 1237 C 112.304 -5.2888 0.49597 0
M  V30 1238 C 111.343 -5.92537 1.53513 0
M  V30 1239 N 110.48 -6.96038 0.920631 0
M  V30 1240 H 115.32 -2.52876 1.57663 0
M  V30 1241 H 112.857 -1.24199 0.788223 0
M  V30 1242 H 114.815 -4.16193 -0.289704 0
M  V30 1243 H 113.445 -3.132 -0.781393 0
M  V30 1244 H 112.497 -3.44248 1.61857 0
M  V30 1245 H 113.809 -4.60294 1.92174 0
M  V30 1246 H 112.963 -6.06653 0.0758604 0
M  V30 1247 H 111.702 -4.86622 -0.324062 0
M  V30 1248 H 110.707 -5.13482 1.9651 0
M  V30 1249 H 111.932 -6.36873 2.35733 0
M  V30 1250 H 109.878 -6.55888 0.12138 0
M  V30 1251 H 109.795 -7.3786 1.64616 0
M  V30 1252 H 111.063 -7.77725 0.525795 0
M  V30 1253 N 115.292 -0.849877 -1.32721 0
M  V30 1254 C 116.708 -0.539102 -1.50219 0
M  V30 1255 C 116.908 0.931271 -1.78689 0
M  V30 1256 O 115.964 1.71455 -1.85363 0
M  V30 1257 C 117.277 -1.42196 -2.64954 0
M  V30 1258 C 118.825 -1.42189 -2.78839 0
M  V30 1259 C 119.3 -2.28985 -3.96648 0
M  V30 1260 N 120.791 -2.26754 -4.03902 0
M  V30 1261 C 121.526 -2.90644 -4.94281 0
M  V30 1262 N 121.022 -3.63629 -5.897 0
M  V30 1263 N 122.815 -2.80057 -4.87365 0
M  V30 1264 H 114.966 -1.80156 -1.12506 0
M  V30 1265 H 117.229 -0.769217 -0.554085 0
M  V30 1266 H 116.935 -2.46733 -2.50631 0
M  V30 1267 H 116.809 -1.10591 -3.60624 0
M  V30 1268 H 119.196 -0.38419 -2.92588 0
M  V30 1269 H 119.277 -1.77807 -1.83898 0
M  V30 1270 H 118.921 -3.32819 -3.83658 0
M  V30 1271 H 118.851 -1.90702 -4.90857 0
M  V30 1272 H 121.342 -1.73688 -3.3562 0
M  V30 1273 H 121.655 -4.09558 -6.55349 0
M  V30 1274 H 120 -3.67737 -5.89741 0
M  V30 1275 H 123.191 -2.22593 -4.11789 0
M  V30 1276 H 123.364 -3.30132 -5.57599 0
M  V30 1277 N 116.77 1.45427 -0.607355 0
M  V30 1278 C 118.181 1.85756 -0.187535 0
M  V30 1279 C 118.532 1.5077 1.25551 0
M  V30 1280 O 117.657 0.93427 1.95193 0
M  V30 1281 C 118.252 3.37154 -0.333572 0
M  V30 1282 C 116.811 3.76387 0.0315542 0
M  V30 1283 C 115.958 2.69377 -0.658117 0
M  V30 1284 H 118.909 1.36231 -0.81405 0
M  V30 1285 H 118.93 3.78014 0.43428 0
M  V30 1286 H 118.442 3.62586 -1.38393 0
M  V30 1287 H 116.543 3.56571 1.0811 0
M  V30 1288 H 116.656 4.77731 -0.361935 0
M  V30 1289 H 115.02 2.5452 -0.0957873 0
M  V30 1290 H 115.803 2.97646 -1.7106 0
M  V30 1291 N 118.248 0.346503 1.53744 0
M  V30 1292 C 119.488 -0.249413 2.02873 0
M  V30 1293 C 119.852 -1.47532 1.22876 0
M  V30 1294 O 121.053 -2.1456 1.61918 0
M  V30 1295 C 119.324 -0.552909 3.53097 0
M  V30 1296 S 120.883 -1.12521 4.24128 0
M  V30 1297 H 117.701 -0.074042 0.707134 0
M  V30 1298 H 120.303 0.48495 1.8939 0
M  V30 1299 H 119.007 0.347083 4.0893 0
M  V30 1300 H 118.538 -1.31686 3.70705 0
M  V30 1301 H 120.553 -2.41075 4.33702 0
M  V30 1302 N 119.726 -1.57421 0.075193 0
M  V30 1303 C 121.137 -1.81021 -0.456964 0
M  V30 1304 C 121.488 -0.98936 -1.69429 0
M  V30 1305 O 120.613 -0.212865 -2.15351 0
M  V30 1306 C 121.208 -3.28329 -0.83581 0
M  V30 1307 C 119.767 -3.52764 -1.31281 0
M  V30 1308 C 118.914 -2.75676 -0.299648 0
M  V30 1309 H 121.865 -1.55822 0.300856 0
M  V30 1310 H 121.886 -3.40564 -1.69696 0
M  V30 1311 H 121.398 -3.88046 0.0649238 0
M  V30 1312 H 119.499 -2.98355 -2.23193 0
M  V30 1313 H 119.612 -4.61451 -1.28839 0
M  V30 1314 H 117.976 -2.42538 -0.777641 0
M  V30 1315 H 118.759 -3.38132 0.593417 0
M  V30 1316 N 121.204 0.198386 -1.56346 0
M  V30 1317 C 122.451 0.919286 -1.80431 0
M  V30 1318 C 122.779 1.83393 -0.647866 0
M  V30 1319 O 122.034 1.92236 0.366556 0
M  V30 1320 C 122.333 1.77031 -3.10475 0
M  V30 1321 C 121.999 1.00693 -4.39513 0
M  V30 1322 C 120.661 0.796145 -4.74568 0
M  V30 1323 C 123.013 0.469559 -5.19081 0
M  V30 1324 C 120.341 0.0364588 -5.86689 0
M  V30 1325 C 122.693 -0.2769 -6.31994 0
M  V30 1326 C 121.357 -0.49873 -6.65634 0
M  V30 1327 H 120.627 0.336391 -0.660244 0
M  V30 1328 H 123.274 0.185872 -1.90596 0
M  V30 1329 H 121.579 2.5723 -2.95533 0
M  V30 1330 H 123.276 2.33065 -3.26315 0
M  V30 1331 H 119.866 1.18122 -4.12001 0
M  V30 1332 H 124.05 0.619816 -4.92414 0
M  V30 1333 H 119.306 -0.145412 -6.11227 0
M  V30 1334 H 123.48 -0.700684 -6.92866 0
M  V30 1335 H 121.107 -1.0893 -7.52355 0
M  V30 1336 N 122.682 1.50554 0.465978 0
M  V30 1337 C 123.928 1.63006 1.21658 0
M  V30 1338 C 124.283 0.328613 1.89573 0
M  V30 1339 O 123.576 -0.673813 1.79361 0
M  V30 1340 C 123.77 2.75152 2.28093 0
M  V30 1341 C 123.599 4.16075 1.7062 0
M  V30 1342 C 122.369 4.82408 1.50368 0
M  V30 1343 C 124.567 5.00145 1.1983 0
M  V30 1344 N 122.549 6.07532 0.881924 0
M  V30 1345 C 123.92 6.16035 0.700083 0
M  V30 1346 C 125.975 4.85882 1.08733 0
M  V30 1347 C 124.678 7.19228 0.101835 0
M  V30 1348 C 126.704 5.89257 0.503016 0
M  V30 1349 C 126.066 7.04398 0.0152005 0
M  V30 1350 H 122.165 0.650596 0.433877 0
M  V30 1351 H 124.749 1.8769 0.517746 0
M  V30 1352 H 122.92 2.52181 2.95397 0
M  V30 1353 H 124.652 2.76935 2.95109 0
M  V30 1354 H 121.407 4.39788 1.75737 0
M  V30 1355 H 121.831 6.7443 0.589312 0
M  V30 1356 H 126.473 3.97144 1.4504 0
M  V30 1357 H 124.191 8.07637 -0.273426 0
M  V30 1358 H 127.777 5.80286 0.419451 0
M  V30 1359 H 126.657 7.83021 -0.429856 0
M  V30 1360 N 124.16 -0.719506 1.40217 0
M  V30 1361 C 125.123 -1.8153 1.39927 0
M  V30 1362 C 126.123 -1.58095 0.293723 0
M  V30 1363 O 127.313 -1.65209 0.552429 0
M  V30 1364 C 124.445 -3.19561 1.18716 0
M  V30 1365 H 125.638 -1.83186 2.37451 0
M  V30 1366 H 123.191 -0.924746 1.26008 0
M  V30 1367 H 123.926 -3.23557 0.219366 0
M  V30 1368 H 123.711 -3.3797 1.98793 0
M  V30 1369 H 125.201 -3.99598 1.21291 0
M  V30 1370 N 125.638 -1.25649 -0.95132 0
M  V30 1371 C 126.548 -1.08073 -2.08224 0
M  V30 1372 C 127.564 -0.0169666 -1.73992 0
M  V30 1373 O 128.74 -0.218593 -2.0021 0
M  V30 1374 C 125.805 -0.704922 -3.39458 0
M  V30 1375 C 124.866 -1.84699 -3.87537 0
M  V30 1376 C 124.099 -1.48902 -5.12508 0
M  V30 1377 O 124.322 -0.386156 -5.69091 0
M  V30 1378 O 123.256 -2.32033 -5.55378 0
M  V30 1379 H 127.082 -2.02924 -2.25954 0
M  V30 1380 H 124.667 -1.04618 -1.06656 0
M  V30 1381 H 126.549 -0.507609 -4.18332 0
M  V30 1382 H 125.224 0.214291 -3.2299 0
M  V30 1383 H 124.131 -2.09919 -3.09653 0
M  V30 1384 H 125.464 -2.74557 -4.08509 0
M  V30 1385 N 127.117 1.15442 -1.07289 0
M  V30 1386 C 128.394 1.82306 -0.708792 0
M  V30 1387 C 128.774 1.94991 0.808807 0
M  V30 1388 O 128.122 1.50085 1.72298 0
M  V30 1389 C 128.332 3.18695 -1.42247 0
M  V30 1390 C 129.68 3.94341 -1.57417 0
M  V30 1391 O 130.704 3.28247 -1.38319 0
M  V30 1392 O 129.563 5.12839 -1.88834 0
M  V30 1393 H 126.657 0.787628 -0.252132 0
M  V30 1394 H 129.203 1.22559 -1.17377 0
M  V30 1395 H 127.975 3.04557 -2.45684 0
M  V30 1396 H 127.598 3.86128 -0.948223 0
M  V30 1397 N 128.595 0.856903 1.32268 0
M  V30 1398 C 129.843 0.460474 1.96784 0
M  V30 1399 C 130.164 -0.987701 1.68135 0
M  V30 1400 O 129.434 -1.69058 0.989765 0
M  V30 1401 H 128.014 0.167289 0.728027 0
M  V30 1402 H 130.676 1.09383 1.61312 0
M  V30 1403 H 129.772 0.60739 3.06133 0
M  V30 1404 N 130.073 -1.45103 0.615059 0
M  V30 1405 C 131.023 -2.27679 -0.120966 0
M  V30 1406 C 132.007 -1.3775 -0.831491 0
M  V30 1407 O 133.199 -1.61683 -0.720249 0
M  V30 1408 C 130.328 -3.24767 -1.1127 0
M  V30 1409 C 129.414 -4.22184 -0.402627 0
M  V30 1410 N 129.805 -5.02692 0.559884 0
M  V30 1411 C 128.103 -4.4125 -0.649202 0
M  V30 1412 C 128.804 -5.73421 0.977942 0
M  V30 1413 N 127.78 -5.42657 0.320104 0
M  V30 1414 H 131.582 -2.87325 0.618181 0
M  V30 1415 H 129.096 -1.56345 0.439304 0
M  V30 1416 H 131.093 -3.82666 -1.65446 0
M  V30 1417 H 129.753 -2.66682 -1.85232 0
M  V30 1418 H 130.764 -5.09354 0.936976 0
M  V30 1419 H 127.441 -3.9428 -1.37293 0
M  V30 1420 H 128.831 -6.48107 1.77222 0
M  V30 1421 N 131.551 -0.354651 -1.53558 0
M  V30 1422 C 132.791 0.238651 -2.03002 0
M  V30 1423 C 133.155 1.46878 -1.23656 0
M  V30 1424 O 134.356 2.13699 -1.63053 0
M  V30 1425 C 132.627 0.534175 -3.53386 0
M  V30 1426 S 134.186 1.10271 -4.24719 0
M  V30 1427 H 131.004 0.0702908 -0.707517 0
M  V30 1428 H 133.606 -0.494987 -1.8913 0
M  V30 1429 H 132.31 -0.368765 -4.0874 0
M  V30 1430 H 131.841 1.29718 -3.71398 0
M  V30 1431 H 133.856 2.38772 -4.34974 0
M  V30 1432 N 133.029 1.57378 -0.0835403 0
M  V30 1433 C 134.254 1.98682 0.594987 0
M  V30 1434 C 134.679 0.961969 1.61641 0
M  V30 1435 O 134.037 -0.0709989 1.81161 0
M  V30 1436 C 134.085 3.38988 1.2296 0
M  V30 1437 O 133.189 3.39208 2.34546 0
M  V30 1438 H 132.53 0.646368 0.152002 0
M  V30 1439 H 135.06 2.03961 -0.161533 0
M  V30 1440 H 135.07 3.76431 1.57366 0
M  V30 1441 H 133.745 4.13107 0.481228 0
M  V30 1442 H 132.322 3.13548 2.01846 0
M  V30 1443 N 134.507 -0.190092 1.56449 0
M  V30 1444 C 135.756 -0.907912 1.80111 0
M  V30 1445 C 136.069 -1.84214 0.657619 0
M  V30 1446 O 137.275 -2.60094 0.778663 0
M  V30 1447 C 135.731 -1.66485 3.19078 0
M  V30 1448 C 135.339 -0.7752 4.41242 0
M  V30 1449 C 137.083 -2.37201 3.52045 0
M  V30 1450 C 134.99 -1.53129 5.71231 0
M  V30 1451 H 133.92 -0.34276 0.671589 0
M  V30 1452 H 136.571 -0.161109 1.82791 0
M  V30 1453 H 134.953 -2.45572 3.10661 0
M  V30 1454 H 136.127 -0.0226298 4.60794 0
M  V30 1455 H 134.442 -0.178627 4.16017 0
M  V30 1456 H 137.039 -2.94329 4.46402 0
M  V30 1457 H 137.382 -3.11632 2.76028 0
M  V30 1458 H 137.915 -1.65075 3.61932 0
M  V30 1459 H 134.654 -0.82967 6.50228 0
M  V30 1460 H 134.174 -2.25767 5.55688 0
M  V30 1461 H 135.853 -2.08377 6.12526 0
M  V30 1462 N 135.985 -1.50799 -0.457987 0
M  V30 1463 C 136.932 -1.70617 -1.5543 0
M  V30 1464 C 137.902 -0.547562 -1.56815 0
M  V30 1465 O 139.087 -0.779647 -1.74144 0
M  V30 1466 C 136.227 -1.81831 -2.93311 0
M  V30 1467 C 135.34 -3.09278 -3.01615 0
M  V30 1468 C 134.475 -3.11209 -4.30491 0
M  V30 1469 C 133.514 -4.33055 -4.32585 0
M  V30 1470 N 132.651 -4.32652 -5.52952 0
M  V30 1471 H 137.491 -2.64207 -1.37836 0
M  V30 1472 H 135.028 -1.30959 -0.669937 0
M  V30 1473 H 136.986 -1.86314 -3.73287 0
M  V30 1474 H 135.616 -0.916685 -3.0951 0
M  V30 1475 H 134.668 -3.14203 -2.1443 0
M  V30 1476 H 135.98 -3.99233 -2.99022 0
M  V30 1477 H 135.134 -3.14494 -5.18824 0
M  V30 1478 H 133.873 -2.19106 -4.35711 0
M  V30 1479 H 132.878 -4.29969 -3.42647 0
M  V30 1480 H 134.103 -5.264 -4.29046 0
M  V30 1481 H 132.049 -3.43409 -5.58933 0
M  V30 1482 H 131.966 -5.16392 -5.52155 0
M  V30 1483 H 133.234 -4.40101 -6.43375 0
M  V30 1484 N 137.463 0.71206 -1.40597 0
M  V30 1485 C 138.74 1.46536 -1.29563 0
M  V30 1486 C 139.12 2.10931 0.0844217 0
M  V30 1487 O 138.468 2.00418 1.0975 0
M  V30 1488 C 138.678 2.49821 -2.43701 0
M  V30 1489 C 140.026 3.15551 -2.841 0
M  V30 1490 O 141.05 2.60142 -2.4332 0
M  V30 1491 O 139.909 4.15867 -3.54566 0
M  V30 1492 H 137.003 0.651801 -0.509004 0
M  V30 1493 H 139.549 0.743935 -1.52524 0
M  V30 1494 H 138.321 2.00778 -3.35863 0
M  V30 1495 H 137.944 3.29495 -2.22528 0
M  V30 1496 N 138.941 1.26152 0.944643 0
M  V30 1497 C 140.181 1.12708 1.70517 0
M  V30 1498 C 140.545 -0.324727 1.89234 0
M  V30 1499 O 141.746 -0.581211 2.62441 0
M  V30 1500 C 140.017 1.8713 3.04495 0
M  V30 1501 S 141.576 1.89698 3.95677 0
M  V30 1502 H 138.394 0.402665 0.585988 0
M  V30 1503 H 140.996 1.59821 1.12594 0
M  V30 1504 H 139.7 2.91833 2.88551 0
M  V30 1505 H 139.231 1.40444 3.67477 0
M  V30 1506 H 141.246 0.981198 4.86402 0
M  V30 1507 N 140.419 -1.14872 1.07899 0
M  V30 1508 C 141.369 -2.17809 0.674027 0
M  V30 1509 C 142.353 -1.58008 -0.303699 0
M  V30 1510 O 143.545 -1.76616 -0.11654 0
M  V30 1511 C 140.674 -3.43208 0.0793318 0
M  V30 1512 C 139.76 -4.10051 1.08253 0
M  V30 1513 N 140.151 -4.52296 2.2641 0
M  V30 1514 C 138.449 -4.36469 0.917124 0
M  V30 1515 C 139.15 -5.04199 2.901 0
M  V30 1516 N 138.126 -4.98088 2.17736 0
M  V30 1517 H 141.928 -2.48207 1.57386 0
M  V30 1518 H 139.442 -1.315 0.952976 0
M  V30 1519 H 141.439 -4.16272 -0.228719 0
M  V30 1520 H 140.099 -3.14291 -0.815551 0
M  V30 1521 H 141.11 -4.45504 2.64096 0
M  V30 1522 H 137.787 -4.17432 0.0756078 0
M  V30 1523 H 139.177 -5.46802 3.90458 0
M  V30 1524 N 141.898 -0.863906 -1.31812 0
M  V30 1525 C 143.144 -0.472535 -1.97218 0
M  V30 1526 C 143.477 0.971394 -1.68159 0
M  V30 1527 O 142.752 1.68309 -0.974798 0
M  V30 1528 C 143.035 -0.723054 -3.52766 0
M  V30 1529 C 142.888 -2.21608 -3.91421 0
M  V30 1530 C 144.207 -0.185522 -4.39709 0
M  V30 1531 H 141.326 -0.173158 -0.71637 0
M  V30 1532 H 143.968 -1.08403 -1.56041 0
M  V30 1533 H 142.118 -0.202577 -3.87971 0
M  V30 1534 H 143.79 -2.80334 -3.66347 0
M  V30 1535 H 142.033 -2.691 -3.40246 0
M  V30 1536 H 142.704 -2.34203 -4.99853 0
M  V30 1537 H 145.18 -0.630726 -4.11292 0
M  V30 1538 H 144.056 -0.390306 -5.47511 0
M  V30 1539 H 144.317 0.912229 -4.32586 0
M  V30 1540 N 143.376 1.44774 -0.622745 0
M  V30 1541 C 144.286 2.34433 0.0886031 0
M  V30 1542 C 145.302 1.52131 0.844529 0
M  V30 1543 O 146.478 1.84886 0.798691 0
M  V30 1544 C 143.543 3.29986 1.0635 0
M  V30 1545 C 142.604 4.28195 0.307873 0
M  V30 1546 C 141.837 5.19183 1.23633 0
M  V30 1547 O 142.06 5.13918 2.47476 0
M  V30 1548 O 140.994 5.97515 0.725189 0
M  V30 1549 H 144.82 2.96693 -0.648599 0
M  V30 1550 H 142.405 1.44408 -0.382957 0
M  V30 1551 H 144.287 3.88825 1.6246 0
M  V30 1552 H 142.962 2.70269 1.78146 0
M  V30 1553 H 141.869 3.72927 -0.296064 0
M  V30 1554 H 143.202 4.90808 -0.3699 0
M  V30 1555 N 144.854 0.36279 1.53368 0
M  V30 1556 C 146.265 -0.117022 1.86333 0
M  V30 1557 C 146.616 -1.48397 1.28347 0
M  V30 1558 O 145.741 -2.07787 0.604428 0
M  V30 1559 C 146.336 -0.21912 3.38091 0
M  V30 1560 C 144.895 -0.643184 3.70864 0
M  V30 1561 C 144.042 0.211318 2.76494 0
M  V30 1562 H 146.993 0.581687 1.47655 0
M  V30 1563 H 147.014 -1.04319 3.6592 0
M  V30 1564 H 146.526 0.775902 3.80265 0
M  V30 1565 H 144.627 -1.64654 3.34245 0
M  V30 1566 H 144.74 -0.41973 4.77258 0
M  V30 1567 H 143.104 -0.319367 2.5269 0
M  V30 1568 H 143.887 1.20383 3.21501 0
M  V30 1569 N 146.332 -1.57332 0.0918853 0
M  V30 1570 C 147.572 -1.96117 -0.575988 0
M  V30 1571 C 147.936 -0.972499 -1.65549 0
M  V30 1572 O 149.137 -1.24872 -2.38034 0
M  V30 1573 C 147.408 -3.39407 -1.11973 0
M  V30 1574 S 148.967 -4.00185 -1.79992 0
M  V30 1575 H 145.785 -0.685682 -0.188045 0
M  V30 1576 H 148.387 -1.94755 0.170525 0
M  V30 1577 H 147.091 -4.09131 -0.322504 0
M  V30 1578 H 146.622 -3.44358 -1.90214 0
M  V30 1579 H 148.637 -3.88728 -3.08391 0
M  V30 1580 N 147.81 0.181792 -1.56548 0
M  V30 1581 C 149.221 0.745244 -1.71181 0
M  V30 1582 C 149.572 1.83262 -0.70068 0
M  V30 1583 O 148.697 2.15946 0.140154 0
M  V30 1584 C 149.292 1.35859 -3.10367 0
M  V30 1585 C 147.851 1.86898 -3.2672 0
M  V30 1586 C 146.998 0.743942 -2.67134 0
M  V30 1587 H 149.949 -0.0434661 -1.5864 0
M  V30 1588 H 149.97 2.22817 -3.08436 0
M  V30 1589 H 149.482 0.566948 -3.83937 0
M  V30 1590 H 147.583 2.68738 -2.5809 0
M  V30 1591 H 147.696 2.02162 -4.34359 0
M  V30 1592 H 146.06 1.16169 -2.26665 0
M  V30 1593 H 146.843 -0.035676 -3.43281 0
M  V30 1594 N 149.288 1.51039 0.449983 0
M  V30 1595 C 150.198 1.74261 1.57067 0
M  V30 1596 C 151.214 0.626363 1.62335 0
M  V30 1597 O 152.39 0.907162 1.79812 0
M  V30 1598 C 149.455 1.85114 2.93144 0
M  V30 1599 C 148.516 3.0893 2.98095 0
M  V30 1600 C 147.749 3.19256 4.27681 0
M  V30 1601 O 147.972 2.35835 5.19363 0
M  V30 1602 O 146.906 4.12144 4.38658 0
M  V30 1603 H 150.732 2.69303 1.40391 0
M  V30 1604 H 148.317 1.35389 0.631688 0
M  V30 1605 H 150.199 1.94311 3.73926 0
M  V30 1606 H 148.874 0.932588 3.09975 0
M  V30 1607 H 147.781 3.0522 2.16314 0
M  V30 1608 H 149.114 4.00433 2.86206 0
M  V30 1609 N 150.766 -0.704594 1.40972 0
M  V30 1610 C 151.991 -1.49858 1.43378 0
M  V30 1611 C 152.416 -1.88061 0.038184 0
M  V30 1612 O 151.774 -1.5402 -0.956425 0
M  V30 1613 C 151.822 -2.74333 2.34038 0
M  V30 1614 O 150.926 -3.7147 1.7912 0
M  V30 1615 H 150.267 -0.45139 0.486974 0
M  V30 1616 H 152.797 -0.866832 1.8533 0
M  V30 1617 H 152.807 -3.22741 2.49604 0
M  V30 1618 H 151.482 -2.45863 3.35446 0
M  V30 1619 H 150.059 -3.30363 1.72958 0
M  V30 1620 N 152.244 -1.26651 -0.937939 0
M  V30 1621 C 153.191 -1.0849 -2.03712 0
M  V30 1622 C 154.161 0.011033 -1.66096 0
M  V30 1623 O 155.346 -0.149353 -1.90215 0
M  V30 1624 C 152.486 -0.72735 -3.37348 0
M  V30 1625 C 151.599 -1.89986 -3.87981 0
M  V30 1626 C 150.734 -1.48513 -5.10017 0
M  V30 1627 C 149.773 -2.62575 -5.5292 0
M  V30 1628 N 148.91 -2.21762 -6.66158 0
M  V30 1629 H 153.75 -2.02551 -2.18579 0
M  V30 1630 H 151.287 -1.00844 -1.07093 0
M  V30 1631 H 153.245 -0.50092 -4.14182 0
M  V30 1632 H 151.875 0.176298 -3.22318 0
M  V30 1633 H 150.927 -2.23913 -3.07518 0
M  V30 1634 H 152.239 -2.75586 -4.15757 0
M  V30 1635 H 151.393 -1.21934 -5.94321 0
M  V30 1636 H 150.132 -0.60009 -4.83994 0
M  V30 1637 H 149.137 -2.8988 -4.67172 0
M  V30 1638 H 150.362 -3.51685 -5.80943 0
M  V30 1639 H 148.308 -1.35696 -6.41812 0
M  V30 1640 H 148.225 -3.00903 -6.93537 0
M  V30 1641 H 149.493 -1.98403 -7.53828 0
M  V30 1642 N 153.722 1.14298 -1.08507 0
M  V30 1643 C 154.971 1.84708 -0.810305 0
M  V30 1644 C 155.284 1.83903 0.666271 0
M  V30 1645 O 156.49 2.50112 1.05624 0
M  V30 1646 C 154.946 3.31572 -1.39957 0
M  V30 1647 C 154.554 3.40791 -2.90801 0
M  V30 1648 C 156.298 4.07087 -1.20334 0
M  V30 1649 C 154.205 4.81872 -3.4286 0
M  V30 1650 H 153.135 0.691985 -0.299454 0
M  V30 1651 H 155.786 1.28841 -1.30661 0
M  V30 1652 H 154.168 3.87183 -0.830976 0
M  V30 1653 H 155.342 2.95225 -3.53806 0
M  V30 1654 H 153.657 2.78732 -3.0935 0
M  V30 1655 H 156.254 5.11225 -1.56693 0
M  V30 1656 H 156.597 4.16054 -0.143237 0
M  V30 1657 H 157.13 3.57779 -1.73893 0
M  V30 1658 H 153.869 4.78094 -4.48449 0
M  V30 1659 H 153.389 5.27972 -2.84615 0
M  V30 1660 H 155.068 5.50765 -3.39509 0
M  V30 1661 N 155.201 0.870884 1.31352 0
M  V30 1662 C 156.612 0.534714 1.78879 0
M  V30 1663 C 156.963 -0.948423 1.71754 0
M  V30 1664 O 156.088 -1.74055 1.28584 0
M  V30 1665 C 156.683 0.963839 3.24801 0
M  V30 1666 C 155.242 0.679311 3.70219 0
M  V30 1667 C 154.389 1.15465 2.52117 0
M  V30 1668 H 157.34 1.05651 1.18421 0
M  V30 1669 H 157.361 0.286892 3.79417 0
M  V30 1670 H 156.873 2.04332 3.29955 0
M  V30 1671 H 154.974 -0.388769 3.70566 0
M  V30 1672 H 155.087 1.25698 4.62317 0
M  V30 1673 H 153.451 0.574383 2.48139 0
M  V30 1674 H 154.234 2.24157 2.60016 0
M  V30 1675 N 156.679 -1.44442 0.630414 0
M  V30 1676 C 157.925 -2.02351 0.134816 0
M  V30 1677 C 158.258 -1.4947 -1.23986 0
M  V30 1678 O 157.533 -0.678475 -1.82283 0
M  V30 1679 C 157.816 -3.59898 0.120707 0
M  V30 1680 C 157.669 -4.23063 1.52767 0
M  V30 1681 C 158.988 -4.36585 -0.555127 0
M  V30 1682 H 156.107 -0.73527 0.0504646 0
M  V30 1683 H 158.749 -1.72022 0.806751 0
M  V30 1684 H 156.899 -3.85868 -0.451477 0
M  V30 1685 H 158.571 -4.08202 2.14869 0
M  V30 1686 H 156.814 -3.80586 2.08175 0
M  V30 1687 H 157.485 -5.32071 1.46984 0
M  V30 1688 H 159.961 -4.16044 -0.0685429 0
M  V30 1689 H 158.837 -5.46294 -0.534185 0
M  V30 1690 H 159.098 -4.11138 -1.62535 0
M  V30 1691 N 158.157 -0.370918 -1.53173 0
M  V30 1692 C 159.405 0.216673 -2.00935 0
M  V30 1693 C 159.726 1.48845 -1.25977 0
M  V30 1694 O 158.996 1.92286 -0.374551 0
M  V30 1695 H 157.576 0.0830565 -0.742368 0
M  V30 1696 H 160.238 -0.49838 -1.8842 0
M  V30 1697 H 159.334 0.439893 -3.08984 0
M  V30 1698 N 159.635 1.57281 -0.100228 0
M  V30 1699 C 160.884 1.93713 0.561984 0
M  V30 1700 C 161.197 0.984492 1.69018 0
M  V30 1701 O 162.403 1.24273 2.41389 0
M  V30 1702 C 160.859 3.4421 1.05106 0
M  V30 1703 C 160.467 4.47975 -0.0476628 0
M  V30 1704 C 162.211 3.89595 1.68571 0
M  V30 1705 C 160.118 5.89631 0.457055 0
M  V30 1706 H 159.048 0.723082 0.2137 0
M  V30 1707 H 161.699 1.82644 -0.177057 0
M  V30 1708 H 160.081 3.50449 1.84395 0
M  V30 1709 H 161.255 4.53385 -0.823333 0
M  V30 1710 H 159.57 4.1223 -0.587816 0
M  V30 1711 H 162.167 4.92832 2.07414 0
M  V30 1712 H 162.51 3.28526 2.55688 0
M  V30 1713 H 163.043 3.86078 0.958562 0
M  V30 1714 H 159.782 6.54411 -0.377616 0
M  V30 1715 H 159.302 5.87681 1.19962 0
M  V30 1716 H 160.981 6.40363 0.92437 0
M  V30 1717 N 161.113 -0.173488 1.56642 0
M  V30 1718 C 162.06 -1.21482 1.96242 0
M  V30 1719 C 163.03 -1.44104 0.826027 0
M  V30 1720 O 164.215 -1.5688 1.08597 0
M  V30 1721 C 161.355 -2.54964 2.32567 0
M  V30 1722 C 160.468 -2.39739 3.59373 0
M  V30 1723 C 159.603 -3.66072 3.84921 0
M  V30 1724 C 158.642 -3.45771 5.05083 0
M  V30 1725 N 157.779 -4.64169 5.26775 0
M  V30 1726 H 162.619 -0.870123 2.85014 0
M  V30 1727 H 160.156 -0.418245 1.41029 0
M  V30 1728 H 162.114 -3.32758 2.5165 0
M  V30 1729 H 160.744 -2.87433 1.46908 0
M  V30 1730 H 159.796 -1.53131 3.48217 0
M  V30 1731 H 161.108 -2.20683 4.47326 0
M  V30 1732 H 160.262 -4.52303 4.0436 0
M  V30 1733 H 159.001 -3.88105 2.9534 0
M  V30 1734 H 158.006 -2.57927 4.85545 0
M  V30 1735 H 159.231 -3.25163 5.96193 0
M  V30 1736 H 157.177 -4.86425 4.40144 0
M  V30 1737 H 157.094 -4.48019 6.08946 0
M  V30 1738 H 158.362 -5.51689 5.5069 0
M  V30 1739 N 162.591 -1.51276 -0.441967 0
M  V30 1740 C 163.554 -1.7167 -1.51862 0
M  V30 1741 C 164.554 -0.586793 -1.49711 0
M  V30 1742 O 165.744 -0.854276 -1.51815 0
M  V30 1743 C 162.876 -1.76889 -2.91416 0
M  V30 1744 H 164.069 -2.67754 -1.35084 0
M  V30 1745 H 161.622 -1.41196 -0.670333 0
M  V30 1746 H 162.357 -0.826026 -3.13604 0
M  V30 1747 H 162.142 -2.59001 -2.94382 0
M  V30 1748 H 163.632 -1.94522 -3.69528 0
M  V30 1749 N 164.069 0.697108 -1.41344 0
M  V30 1750 C 165.317 1.45426 -1.40341 0
M  V30 1751 C 165.638 1.94996 -0.0128787 0
M  V30 1752 O 164.908 1.71599 0.945027 0
M  V30 1753 H 163.488 0.539594 -0.516573 0
M  V30 1754 H 166.15 0.825201 -1.76569 0
M  V30 1755 H 165.246 2.31817 -2.08967 0
M  V30 1756 N 165.547 1.27147 0.931209 0
M  V30 1757 C 166.497 1.06227 2.01742 0
M  V30 1758 C 167.481 -0.00859065 1.60898 0
M  V30 1759 O 168.673 0.209537 1.75755 0
M  V30 1760 C 165.802 0.707787 3.35924 0
M  V30 1761 C 164.888 1.81661 3.83223 0
M  V30 1762 N 165.279 3.05564 4.03069 0
M  V30 1763 C 163.577 1.70249 4.12227 0
M  V30 1764 C 164.278 3.77697 4.42403 0
M  V30 1765 N 163.254 3.0544 4.49675 0
M  V30 1766 H 167.056 2.00261 2.15111 0
M  V30 1767 H 164.57 1.1781 1.11779 0
M  V30 1768 H 166.567 0.539043 4.134 0
M  V30 1769 H 165.227 -0.224964 3.2392 0
M  V30 1770 H 166.238 3.41363 3.89476 0
M  V30 1771 H 162.915 0.840329 4.08956 0
M  V30 1772 H 164.305 4.84168 4.65866 0
M  V30 1773 N 167.025 -1.13721 1.09112 0
M  V30 1774 C 168.25 -1.89314 0.847053 0
M  V30 1775 C 168.675 -1.78416 -0.595774 0
M  V30 1776 O 168.033 -1.12942 -1.41823 0
M  V30 1777 C 168.081 -3.3701 1.28284 0
M  V30 1778 O 167.185 -4.10054 0.439267 0
M  V30 1779 H 166.526 -0.588745 0.307044 0
M  V30 1780 H 169.056 -1.43902 1.45442 0
M  V30 1781 H 169.066 -3.87834 1.26683 0
M  V30 1782 H 167.741 -3.4426 2.33363 0
M  V30 1783 H 166.318 -3.69266 0.519312 0
M  V30 1784 N 168.503 -0.877838 -1.30888 0
M  V30 1785 C 169.451 -0.328662 -2.30266 0
M  V30 1786 C 170.445 0.560496 -1.59859 0
M  V30 1787 O 171.651 0.445722 -1.74394 0
M  V30 1788 H 168.026 -0.0876142 -0.746879 0
M  V30 1789 H 169.997 -1.18061 -2.74051 0
M  V30 1790 C 168.746 0.448071 -3.44801 0
M  V30 1791 H 168.069 -0.226859 -3.99156 0
M  V30 1792 H 169.509 0.797541 -4.16432 0
M  V30 1793 C 167.968 1.64239 -2.94155 0
M  V30 1794 O 168.498 2.74175 -2.93583 0
M  V30 1795 N 166.704 1.47716 -2.50256 0
M  V30 1796 H 166.251 0.582821 -2.5092 0
M  V30 1797 H 166.209 2.27765 -2.16727 0
M  V30 1798 N 169.982 1.44106 -0.638065 0
M  V30 1799 C 170.929 2.30715 0.062701 0
M  V30 1800 C 171.899 1.43882 0.829883 0
M  V30 1801 O 173.084 1.72775 0.809532 0
M  V30 1802 C 170.224 3.29258 1.03358 0
M  V30 1803 C 169.337 4.31192 0.26409 0
M  V30 1804 C 168.472 5.16825 1.22741 0
M  V30 1805 C 167.511 6.10462 0.447475 0
M  V30 1806 N 166.648 6.8877 1.36161 0
M  V30 1807 H 171.488 2.90096 -0.681781 0
M  V30 1808 H 169.025 1.42925 -0.347988 0
M  V30 1809 H 170.983 3.84886 1.60992 0
M  V30 1810 H 169.613 2.71562 1.74511 0
M  V30 1811 H 168.665 3.77981 -0.428295 0
M  V30 1812 H 169.977 4.97619 -0.343052 0
M  V30 1813 H 169.131 5.77004 1.87487 0
M  V30 1814 H 167.87 4.50488 1.86847 0
M  V30 1815 H 166.875 5.49386 -0.213433 0
M  V30 1816 H 168.1 6.78837 -0.188968 0
M  V30 1817 H 166.046 6.25096 1.98975 0
M  V30 1818 H 165.963 7.51663 0.808656 0
M  V30 1819 H 167.231 7.53467 1.99769 0
M  V30 1820 N 171.46 0.379036 1.52974 0
M  V30 1821 C 172.69 -0.20649 2.05566 0
M  V30 1822 C 173.098 -1.41906 1.25137 0
M  V30 1823 O 172.441 -1.81421 0.288464 0
M  V30 1824 C 172.503 -0.651086 3.53555 0
M  V30 1825 C 172.167 0.446626 4.54812 0
M  V30 1826 C 173.164 1.30079 5.03364 0
M  V30 1827 C 170.849 0.610719 4.98573 0
M  V30 1828 C 172.843 2.30426 5.94292 0
M  V30 1829 C 170.53 1.61754 5.89304 0
M  V30 1830 C 171.528 2.46274 6.37054 0
M  V30 1831 O 171.216 3.45237 7.25994 0
M  V30 1832 H 170.948 -0.0372381 0.674974 0
M  V30 1833 H 173.502 0.539718 1.98182 0
M  V30 1834 H 171.732 -1.44911 3.58522 0
M  V30 1835 H 173.421 -1.16112 3.88938 0
M  V30 1836 H 174.187 1.18527 4.70294 0
M  V30 1837 H 170.066 -0.0374044 4.60985 0
M  V30 1838 H 173.61 2.96432 6.31485 0
M  V30 1839 H 169.507 1.73348 6.21788 0
M  V30 1840 H 170.275 3.41124 7.44027 0
M  V30 1841 N 172.938 -1.57226 0.108567 0
M  V30 1842 C 173.868 -2.17778 -0.84232 0
M  V30 1843 C 174.849 -1.11487 -1.2847 0
M  V30 1844 O 176.034 -1.39681 -1.34918 0
M  V30 1845 C 173.164 -2.76888 -2.09644 0
M  V30 1846 C 172.118 -3.88669 -1.79221 0
M  V30 1847 C 171.444 -4.34541 -3.11574 0
M  V30 1848 C 172.744 -5.11251 -1.06864 0
M  V30 1849 H 174.438 -2.97489 -0.337774 0
M  V30 1850 H 171.984 -1.43097 -0.161025 0
M  V30 1851 H 173.937 -3.17904 -2.76614 0
M  V30 1852 H 172.661 -1.94451 -2.62405 0
M  V30 1853 H 171.32 -3.48213 -1.14644 0
M  V30 1854 H 170.968 -3.48977 -3.62249 0
M  V30 1855 H 170.668 -5.09914 -2.91996 0
M  V30 1856 H 172.192 -4.782 -3.7968 0
M  V30 1857 H 173.606 -5.49352 -1.63968 0
M  V30 1858 H 172.003 -5.9214 -0.974178 0
M  V30 1859 H 173.073 -4.8487 -0.0536168 0
M  V30 1860 N 174.416 0.165178 -1.56732 0
M  V30 1861 C 175.363 1.2044 -1.96883 0
M  V30 1862 C 176.333 1.43664 -0.833657 0
M  V30 1863 O 177.518 1.56302 -1.09427 0
M  V30 1864 C 174.658 2.53727 -2.33916 0
M  V30 1865 C 173.771 2.3783 -3.6064 0
M  V30 1866 C 172.906 3.64026 -3.86857 0
M  V30 1867 C 171.945 3.43088 -5.06909 0
M  V30 1868 N 171.082 4.61369 -5.29229 0
M  V30 1869 H 175.922 0.854996 -2.85471 0
M  V30 1870 H 173.459 0.41076 -1.41249 0
M  V30 1871 H 175.417 3.31419 -2.53411 0
M  V30 1872 H 174.047 2.8665 -1.48431 0
M  V30 1873 H 173.099 1.51282 -3.49024 0
M  V30 1874 H 174.411 2.18308 -4.4849 0
M  V30 1875 H 173.565 4.50152 -4.06753 0
M  V30 1876 H 172.304 3.86533 -2.97394 0
M  V30 1877 H 171.309 2.55349 -4.86906 0
M  V30 1878 H 172.534 3.21997 -5.97909 0
M  V30 1879 H 170.48 4.84084 -4.42718 0
M  V30 1880 H 170.397 4.44783 -6.11313 0
M  V30 1881 H 171.665 5.48761 -5.53608 0
M  V30 1882 N 175.894 1.51508 0.433938 0
M  V30 1883 C 176.827 1.67756 1.54704 0
M  V30 1884 C 177.805 0.525127 1.53887 0
M  V30 1885 O 178.989 0.749393 1.72963 0
M  V30 1886 C 176.116 1.69424 2.9328 0
M  V30 1887 C 175.162 2.90673 3.12108 0
M  V30 1888 S 175.995 4.51431 2.88046 0
M  V30 1889 C 177.151 4.55849 4.28897 0
M  V30 1890 H 177.384 2.61904 1.40689 0
M  V30 1891 H 174.917 1.41235 0.62386 0
M  V30 1892 H 176.875 1.7107 3.73156 0
M  V30 1893 H 175.536 0.764464 3.04655 0
M  V30 1894 H 174.729 2.88251 4.13434 0
M  V30 1895 H 174.331 2.86786 2.40062 0
M  V30 1896 H 176.623 4.31699 5.22152 0
M  V30 1897 H 177.566 5.57676 4.36351 0
M  V30 1898 H 177.974 3.85137 4.12711 0
M  V30 1899 N 177.372 -0.689602 1.41712 0
M  V30 1900 C 178.335 -1.78521 1.43746 0
M  V30 1901 C 179.335 -1.57436 0.327191 0
M  V30 1902 O 180.525 -1.64 0.587348 0
M  V30 1903 C 177.657 -3.16971 1.25467 0
M  V30 1904 H 178.85 -1.78108 2.41283 0
M  V30 1905 H 176.403 -0.89781 1.27942 0
M  V30 1906 H 177.138 -3.23019 0.287948 0
M  V30 1907 H 176.923 -3.33678 2.05917 0
M  V30 1908 H 178.413 -3.96935 1.2974 0
M  V30 1909 N 178.85 -1.27639 -0.924453 0
M  V30 1910 C 179.798 -1.10485 -2.04685 0
M  V30 1911 C 180.792 -0.0270421 -1.69378 0
M  V30 1912 O 181.998 -0.185008 -1.79047 0
M  V30 1913 H 178.373 -0.340546 -0.670472 0
M  V30 1914 H 180.344 -2.05566 -2.16298 0
M  V30 1915 C 179.093 -0.772229 -3.39016 0
M  V30 1916 H 178.416 -1.59351 -3.66671 0
M  V30 1917 H 179.856 -0.692097 -4.18313 0
M  V30 1918 C 178.315 0.523554 -3.32807 0
M  V30 1919 O 178.845 1.55702 -3.70297 0
M  V30 1920 N 177.051 0.520363 -2.85903 0
M  V30 1921 H 176.598 -0.32107 -2.55591 0
M  V30 1922 H 176.556 1.38742 -2.82131 0
M  V30 1923 N 180.328 1.1314 -1.09713 0
M  V30 1924 C 181.276 2.20717 -0.733934 0
M  V30 1925 C 182.27 1.6729 0.266506 0
M  V30 1926 O 183.476 1.79547 0.127656 0
M  V30 1927 H 179.851 0.719292 -0.21937 0
M  V30 1928 H 181.822 2.48611 -1.6503 0
M  V30 1929 C 180.571 3.47265 -0.173849 0
M  V30 1930 H 179.894 3.88716 -0.934873 0
M  V30 1931 H 181.334 4.23979 0.0423126 0
M  V30 1932 C 179.793 3.18724 1.09164 0
M  V30 1933 O 180.323 3.37762 2.17439 0
M  V30 1934 N 178.529 2.72583 1.00732 0
M  V30 1935 H 178.076 2.57291 0.126121 0
M  V30 1936 H 178.034 2.53862 1.85476 0
M  V30 1937 N 181.806 0.884767 1.30421 0
M  V30 1938 C 183.034 0.518044 2.0031 0
M  V30 1939 C 183.449 -0.893408 1.66324 0
M  V30 1940 O 182.806 -1.5875 0.900262 0
M  V30 1941 C 182.857 0.682997 3.54989 0
M  V30 1942 O 182.578 2.03888 3.87764 0
M  V30 1943 C 184.079 0.31924 4.42149 0
M  V30 1944 H 181.299 0.200265 0.640418 0
M  V30 1945 H 183.843 1.19001 1.6631 0
M  V30 1946 H 181.998 0.0584052 3.87356 0
M  V30 1947 H 182.412 2.05735 4.82466 0
M  V30 1948 H 183.886 0.485555 5.4986 0
M  V30 1949 H 184.363 -0.742717 4.32875 0
M  V30 1950 H 184.969 0.920147 4.15227 0
M  V30 1951 N 183.284 -1.43765 0.645699 0
M  V30 1952 C 184.231 -2.30745 -0.0504648 0
M  V30 1953 C 185.201 -1.4432 -0.822241 0
M  V30 1954 O 186.386 -1.73202 -0.800358 0
M  V30 1955 C 183.526 -3.29802 -1.0161 0
M  V30 1956 C 182.639 -4.31326 -0.241219 0
M  V30 1957 C 181.774 -5.17469 -1.19998 0
M  V30 1958 C 180.813 -6.10691 -0.415094 0
M  V30 1959 N 179.95 -6.89483 -1.32506 0
M  V30 1960 H 184.79 -2.8973 0.697155 0
M  V30 1961 H 182.327 -1.42738 0.355563 0
M  V30 1962 H 184.285 -3.85734 -1.58949 0
M  V30 1963 H 182.915 -2.72483 -1.73069 0
M  V30 1964 H 181.967 -3.77749 0.448334 0
M  V30 1965 H 183.279 -4.9743 0.369437 0
M  V30 1966 H 182.433 -5.7799 -1.84424 0
M  V30 1967 H 181.172 -4.51473 -1.84455 0
M  V30 1968 H 180.177 -5.49265 0.242565 0
M  V30 1969 H 181.402 -6.78727 0.224966 0
M  V30 1970 H 179.348 -6.26142 -1.95657 0
M  V30 1971 H 179.265 -7.52081 -0.768783 0
M  V30 1972 H 180.533 -7.54516 -1.9577 0
M  V30 1973 N 184.763 -0.387143 -1.52771 0
M  V30 1974 C 185.673 0.456442 -2.30117 0
M  V30 1975 C 186.689 1.07342 -1.36944 0
M  V30 1976 O 187.865 1.07971 -1.70013 0
M  V30 1977 C 184.93 1.56957 -3.09136 0
M  V30 1978 C 183.991 0.977916 -4.18014 0
M  V30 1979 C 183.224 2.038 -4.93256 0
M  V30 1980 O 183.447 3.25271 -4.68567 0
M  V30 1981 O 182.381 1.6565 -5.78657 0
M  V30 1982 H 186.207 -0.17359 -3.03203 0
M  V30 1983 H 183.792 -0.150919 -1.48636 0
M  V30 1984 H 185.674 2.21628 -3.58412 0
M  V30 1985 H 184.349 2.18461 -2.38865 0
M  V30 1986 H 183.256 0.294525 -3.72939 0
M  V30 1987 H 184.589 0.407128 -4.90513 0
M  V30 1988 N 186.241 1.57166 -0.116904 0
M  V30 1989 C 187.171 2.18222 0.830759 0
M  V30 1990 C 188.152 1.12167 1.27877 0
M  V30 1991 O 189.337 1.40394 1.34176 0
M  V30 1992 C 186.467 2.77996 2.08172 0
M  V30 1993 C 185.421 3.89614 1.77157 0
M  V30 1994 C 184.747 4.36187 3.09265 0
M  V30 1995 C 186.047 5.1181 1.04151 0
M  V30 1996 H 187.741 2.97664 0.321992 0
M  V30 1997 H 185.287 1.4318 0.153434 0
M  V30 1998 H 187.24 3.19366 2.74924 0
M  V30 1999 H 185.964 1.9584 2.6137 0
M  V30 2000 H 184.623 3.48816 1.12796 0
M  V30 2001 H 184.271 3.50893 3.60393 0
M  V30 2002 H 183.971 5.11455 2.89288 0
M  V30 2003 H 185.495 4.80207 3.77139 0
M  V30 2004 H 186.909 5.50214 1.61052 0
M  V30 2005 H 185.306 5.92648 0.942762 0
M  V30 2006 H 186.376 4.84892 0.0279022 0
M  V30 2007 N 187.719 -0.156864 1.56817 0
M  V30 2008 C 188.629 -1.2136 2.00771 0
M  V30 2009 C 189.645 -1.47598 0.921459 0
M  V30 2010 O 190.821 -1.59462 1.2302 0
M  V30 2011 C 187.886 -2.52943 2.37109 0
M  V30 2012 C 186.947 -2.34439 3.59634 0
M  V30 2013 C 186.18 -3.59748 3.94229 0
M  V30 2014 O 186.403 -4.65526 3.29609 0
M  V30 2015 O 185.337 -3.52998 4.8752 0
M  V30 2016 H 189.163 -0.870468 2.90958 0
M  V30 2017 H 186.748 -0.36484 1.44877 0
M  V30 2018 H 188.63 -3.30538 2.61386 0
M  V30 2019 H 187.305 -2.86806 1.5008 0
M  V30 2020 H 186.212 -1.54828 3.40557 0
M  V30 2021 H 187.545 -2.05496 4.4725 0
M  V30 2022 N 189.197 -1.51736 -0.425897 0
M  V30 2023 C 190.474 -1.55519 -1.1863 0
M  V30 2024 C 190.854 -0.326219 -2.08564 0
M  V30 2025 O 190.202 0.688012 -2.17896 0
M  V30 2026 C 190.412 -2.87521 -1.9782 0
M  V30 2027 C 191.76 -3.39899 -2.54468 0
M  V30 2028 O 192.784 -2.89148 -2.08019 0
M  V30 2029 O 191.643 -4.2848 -3.39215 0
M  V30 2030 H 188.737 -0.625739 -0.540721 0
M  V30 2031 H 191.283 -1.64055 -0.434038 0
M  V30 2032 H 190.055 -3.68422 -1.31836 0
M  V30 2033 H 189.678 -2.822 -2.80088 0
M  V30 2034 N 190.675 0.682077 -1.42076 0
M  V30 2035 C 191.915 1.45424 -1.43636 0
M  V30 2036 C 192.279 1.91939 -0.0484001 0
M  V30 2037 O 193.48 2.6873 0.0612514 0
M  V30 2038 C 191.751 2.62427 -2.42625 0
M  V30 2039 S 193.31 3.51379 -2.62827 0
M  V30 2040 H 190.128 0.496779 -0.508657 0
M  V30 2041 H 192.73 0.794645 -1.78621 0
M  V30 2042 H 191.434 2.26481 -3.42249 0
M  V30 2043 H 190.965 3.33266 -2.09039 0
M  V30 2044 H 192.98 4.58141 -1.9058 0
M  V30 2045 N 192.153 1.28127 0.917671 0
M  V30 2046 C 193.063 1.13556 2.05286 0
M  V30 2047 C 194.079 0.0630914 1.73886 0
M  V30 2048 O 195.255 0.271598 1.9956 0
M  V30 2049 C 192.32 0.794676 3.3747 0
M  V30 2050 C 191.381 1.94909 3.82504 0
M  V30 2051 C 190.614 1.62437 5.0838 0
M  V30 2052 O 190.837 0.536905 5.67867 0
M  V30 2053 O 189.771 2.46677 5.4903 0
M  V30 2054 H 193.597 2.08844 2.20495 0
M  V30 2055 H 191.182 1.07409 1.03845 0
M  V30 2056 H 193.064 0.618344 4.16839 0
M  V30 2057 H 191.739 -0.128581 3.23445 0
M  V30 2058 H 190.646 2.18055 3.03978 0
M  V30 2059 H 191.979 2.85291 4.01086 0
M  V30 2060 N 193.631 -1.12557 1.10312 0
M  V30 2061 C 194.563 -2.17971 0.708625 0
M  V30 2062 C 195.576 -1.60806 -0.254027 0
M  V30 2063 O 196.765 -1.78458 -0.0386891 0
M  V30 2064 C 193.865 -3.38891 0.0248198 0
M  V30 2065 C 193.038 -4.25548 1.01132 0
M  V30 2066 C 192.097 -5.24972 0.35924 0
M  V30 2067 O 191.123 -5.60174 1.00965 0
M  V30 2068 N 192.325 -5.73747 -0.882847 0
M  V30 2069 H 195.09 -2.52427 1.61557 0
M  V30 2070 H 192.651 -1.27967 0.991771 0
M  V30 2071 H 194.643 -4.02485 -0.422852 0
M  V30 2072 H 193.213 -3.02596 -0.784514 0
M  V30 2073 H 192.433 -3.58589 1.6373 0
M  V30 2074 H 193.721 -4.80294 1.67914 0
M  V30 2075 H 193.119 -5.4731 -1.43065 0
M  V30 2076 H 191.676 -6.39234 -1.27369 0
M  V30 2077 N 195.109 -0.891671 -1.2995 0
M  V30 2078 C 196.072 -0.36828 -2.26222 0
M  V30 2079 C 197.072 0.493014 -1.53056 0
M  V30 2080 O 198.262 0.299213 -1.71611 0
M  V30 2081 C 195.394 0.47442 -3.37583 0
M  V30 2082 H 196.587 -1.21844 -2.74033 0
M  V30 2083 H 194.14 -0.669107 -1.41254 0
M  V30 2084 H 194.875 1.34489 -2.95099 0
M  V30 2085 H 194.66 -0.142615 -3.91841 0
M  V30 2086 H 196.15 0.83218 -4.09224 0
M  V30 2087 N 196.587 1.43421 -0.653314 0
M  V30 2088 C 197.535 2.32546 0.0501531 0
M  V30 2089 C 198.529 1.48617 0.812985 0
M  V30 2090 O 199.735 1.64825 0.723375 0
M  V30 2091 H 196.11 0.751185 0.0350032 0
M  V30 2092 H 198.081 2.89602 -0.719261 0
M  V30 2093 C 196.83 3.32925 1.00279 0
M  V30 2094 H 196.153 3.97532 0.425236 0
M  V30 2095 H 197.593 3.9792 1.46409 0
M  V30 2096 C 196.052 2.63532 2.09886 0
M  V30 2097 O 196.582 2.45092 3.18265 0
M  V30 2098 N 194.788 2.22905 1.86445 0
M  V30 2099 H 194.335 2.38103 0.98309 0
M  V30 2100 H 194.293 1.76805 2.59976 0
M  V30 2101 N 198.065 0.39524 1.52563 0
M  V30 2102 C 199.012 -0.437036 2.26624 0
M  V30 2103 C 199.982 -1.05281 1.28472 0
M  V30 2104 O 201.167 -1.07971 1.57311 0
M  V30 2105 C 198.307 -1.55524 3.08069 0
M  V30 2106 C 197.42 -0.961745 4.21158 0
M  V30 2107 C 196.555 -2.05149 4.89987 0
M  V30 2108 C 195.594 -1.4342 5.95061 0
M  V30 2109 N 194.731 -2.46351 6.57462 0
M  V30 2110 H 199.571 0.200976 2.97322 0
M  V30 2111 H 197.108 0.110944 1.46681 0
M  V30 2112 H 199.066 -2.21437 3.53584 0
M  V30 2113 H 197.696 -2.16348 2.3957 0
M  V30 2114 H 196.748 -0.192048 3.79915 0
M  V30 2115 H 198.06 -0.470701 4.96574 0
M  V30 2116 H 197.214 -2.78819 5.38837 0
M  V30 2117 H 195.953 -2.57615 4.14109 0
M  V30 2118 H 194.958 -0.682774 5.45544 0
M  V30 2119 H 196.183 -0.917416 6.72875 0
M  V30 2120 H 194.129 -2.97975 5.8442 0
M  V30 2121 H 194.046 -2.02019 7.28508 0
M  V30 2122 H 195.314 -3.19633 7.10954 0
M  V30 2123 N 199.544 -1.57102 0.125237 0
M  V30 2124 C 200.474 -2.18659 -0.819174 0
M  V30 2125 C 201.455 -1.12843 -1.27281 0
M  V30 2126 O 202.64 -1.41104 -1.33429 0
M  V30 2127 C 199.77 -2.79096 -2.06695 0
M  V30 2128 C 198.724 -3.90548 -1.75088 0
M  V30 2129 C 198.05 -4.37821 -3.06948 0
M  V30 2130 C 199.35 -5.12356 -1.01435 0
M  V30 2131 H 201.044 -2.9783 -0.306202 0
M  V30 2132 H 198.59 -1.4326 -0.145839 0
M  V30 2133 H 200.543 -3.2082 -2.73226 0
M  V30 2134 H 199.267 -1.97223 -2.60328 0
M  V30 2135 H 197.926 -3.49409 -1.10944 0
M  V30 2136 H 197.574 -3.52799 -3.58527 0
M  V30 2137 H 197.274 -5.12982 -2.86571 0
M  V30 2138 H 198.798 -4.822 -3.74587 0
M  V30 2139 H 200.212 -5.5106 -1.58132 0
M  V30 2140 H 198.609 -5.9314 -0.911319 0
M  V30 2141 H 199.679 -4.849 -0.00218681 0
M  V30 2142 N 201.022 0.148545 -1.56898 0
M  V30 2143 C 202.27 0.859717 -1.82902 0
M  V30 2144 C 202.591 1.81775 -0.70588 0
M  V30 2145 O 201.861 1.93994 0.272586 0
M  V30 2146 H 200.441 0.320469 -0.674766 0
M  V30 2147 H 203.103 0.142918 -1.94375 0
M  V30 2148 H 202.199 1.4229 -2.77777 0
M  V30 2149 N 202.5 1.5196 0.417844 0
M  V30 2150 C 203.463 1.74065 1.49111 0
M  V30 2151 C 204.463 0.610537 1.48758 0
M  V30 2152 O 205.653 0.87832 1.50437 0
M  V30 2153 C 202.785 1.81502 2.88565 0
M  V30 2154 H 203.978 2.69869 1.30807 0
M  V30 2155 H 201.531 1.42244 0.647785 0
M  V30 2156 H 202.266 0.875813 3.1225 0
M  V30 2157 H 202.051 2.63651 2.90225 0
M  V30 2158 H 203.541 2.00376 3.66387 0
M  V30 2159 N 203.978 -0.674533 1.42435 0
M  V30 2160 C 205.227 -1.43034 1.42212 0
M  V30 2161 C 205.54 -1.95555 0.0420788 0
M  V30 2162 O 206.746 -2.71374 -0.0827558 0
M  V30 2163 C 205.202 -2.58748 2.50155 0
M  V30 2164 C 204.81 -2.12925 3.94166 0
M  V30 2165 C 206.554 -3.36257 2.59098 0
M  V30 2166 C 204.461 -3.25723 4.93618 0
M  V30 2167 H 203.391 -0.537345 0.528939 0
M  V30 2168 H 206.042 -0.73024 1.68344 0
M  V30 2169 H 204.424 -3.31128 2.17188 0
M  V30 2170 H 205.598 -1.47697 4.36488 0
M  V30 2171 H 203.913 -1.48354 3.89076 0
M  V30 2172 H 206.51 -4.20264 3.30578 0
M  V30 2173 H 206.853 -3.82866 1.63461 0
M  V30 2174 H 207.386 -2.70947 2.9126 0
M  V30 2175 H 204.125 -2.84105 5.90732 0
M  V30 2176 H 203.645 -3.89732 4.55926 0
M  V30 2177 H 205.324 -3.91186 5.15347 0
M  V30 2178 N 205.456 -1.28612 -0.910864 0
M  V30 2179 C 206.404 -1.1265 -2.03501 0
M  V30 2180 C 207.398 -0.0450054 -1.6934 0
M  V30 2181 O 208.604 -0.203988 -1.7884 0
M  V30 2182 H 204.979 -0.347639 -0.666822 0
M  V30 2183 H 206.95 -2.07849 -2.14106 0
M  V30 2184 C 205.699 -0.808143 -3.38178 0
M  V30 2185 H 205.022 -1.63231 -3.6496 0
M  V30 2186 H 206.462 -0.736426 -4.17556 0
M  V30 2187 C 204.921 0.488226 -3.33344 0
M  V30 2188 O 205.451 1.51766 -3.71927 0
M  V30 2189 N 203.657 0.490009 -2.86439 0
M  V30 2190 H 203.204 -0.348161 -2.55236 0
M  V30 2191 H 203.162 1.35741 -2.83587 0
M  V30 2192 N 206.934 1.1197 -1.10907 0
M  V30 2193 C 208.159 1.87942 -0.877064 0
M  V30 2194 C 208.584 1.79341 0.567314 0
M  V30 2195 O 207.942 1.15184 1.40009 0
M  V30 2196 C 207.99 3.34926 -1.33629 0
M  V30 2197 O 207.094 4.09303 -0.504447 0
M  V30 2198 H 206.435 0.583785 -0.316371 0
M  V30 2199 H 208.965 1.4157 -1.47712 0
M  V30 2200 H 208.975 3.8577 -1.32837 0
M  V30 2201 H 207.65 3.40504 -2.3881 0
M  V30 2202 H 206.227 3.68393 -0.577993 0
M  V30 2203 N 208.412 0.89855 1.29475 0
M  V30 2204 C 209.64 0.539261 1.99749 0
M  V30 2205 C 210.055 -0.875716 1.67262 0
M  V30 2206 O 209.412 -1.57786 0.917049 0
M  V30 2207 C 209.463 0.72061 3.54245 0
M  V30 2208 O 209.184 2.07989 3.8558 0
M  V30 2209 C 210.685 0.366118 4.41786 0
M  V30 2210 H 207.905 0.207047 0.638258 0
M  V30 2211 H 210.449 1.20758 1.65039 0
M  V30 2212 H 208.604 0.0994862 3.87272 0
M  V30 2213 H 209.018 2.10841 4.80257 0
M  V30 2214 H 210.492 0.543848 5.49314 0
M  V30 2215 H 210.969 -0.696763 4.33638 0
M  V30 2216 H 211.575 0.964135 4.14228 0
M  V30 2217 N 209.89 -1.43072 0.660911 0
M  V30 2218 C 210.82 -2.33497 -0.0122829 0
M  V30 2219 C 211.801 -1.49903 -0.803925 0
M  V30 2220 O 212.986 -1.78546 -0.763864 0
M  V30 2221 C 210.116 -3.33363 -0.973994 0
M  V30 2222 C 209.07 -4.27003 -0.291928 0
M  V30 2223 C 208.396 -5.16967 -1.36562 0
M  V30 2224 C 209.696 -5.15816 0.820462 0
M  V30 2225 H 211.39 -2.90038 0.742873 0
M  V30 2226 H 208.936 -1.39461 0.358688 0
M  V30 2227 H 210.889 -3.95524 -1.45392 0
M  V30 2228 H 209.613 -2.75095 -1.7604 0
M  V30 2229 H 208.272 -3.66217 0.167623 0
M  V30 2230 H 207.92 -4.55034 -2.14366 0
M  V30 2231 H 207.62 -5.80441 -0.914454 0
M  V30 2232 H 209.144 -5.82003 -1.84675 0
M  V30 2233 H 210.558 -5.71742 0.422366 0
M  V30 2234 H 208.955 -5.8805 1.19656 0
M  V30 2235 H 210.025 -4.55045 1.67518 0
M  V30 2236 N 211.368 -0.403325 -1.52352 0
M  V30 2237 C 212.593 0.176499 -2.06648 0
M  V30 2238 C 213.018 1.38577 -1.27193 0
M  V30 2239 O 212.376 1.7879 -0.300637 0
M  V30 2240 C 212.424 0.511061 -3.5696 0
M  V30 2241 O 211.528 1.60294 -3.79973 0
M  V30 2242 H 210.869 0.0167337 -0.663789 0
M  V30 2243 H 213.399 -0.574848 -1.96359 0
M  V30 2244 H 213.409 0.771362 -4.00642 0
M  V30 2245 H 212.084 -0.37296 -4.14224 0
M  V30 2246 H 210.661 1.33526 -3.48174 0
M  V30 2247 N 212.846 1.57033 -0.133567 0
M  V30 2248 C 213.794 2.17348 0.828412 0
M  V30 2249 C 214.788 1.12671 1.26498 0
M  V30 2250 O 215.994 1.30947 1.23502 0
M  V30 2251 H 212.369 0.695775 0.285309 0
M  V30 2252 H 214.34 2.96935 0.295372 0
M  V30 2253 C 213.089 2.79893 2.06289 0
M  V30 2254 H 212.412 3.60147 1.73592 0
M  V30 2255 H 213.852 3.25615 2.71572 0
M  V30 2256 C 212.311 1.77713 2.86216 0
M  V30 2257 O 212.841 1.23937 3.82103 0
M  V30 2258 N 211.047 1.47321 2.50489 0
M  V30 2259 H 210.594 1.91243 1.7258 0
M  V30 2260 H 210.552 0.79199 3.04261 0
M  V30 2261 N 214.325 -0.140222 1.56975 0
M  V30 2262 C 215.257 -1.19818 1.95388 0
M  V30 2263 C 216.27 -1.38816 0.850525 0
M  V30 2264 O 217.459 -1.38267 1.12891 0
M  V30 2265 C 214.559 -2.56189 2.21857 0
M  V30 2266 C 213.732 -2.58077 3.5315 0
M  V30 2267 C 212.791 -3.76037 3.6808 0
M  V30 2268 O 211.817 -3.60598 4.40406 0
M  V30 2269 N 213.019 -4.93763 3.05251 0
M  V30 2270 H 215.784 -0.871609 2.86746 0
M  V30 2271 H 213.345 -0.32972 1.58507 0
M  V30 2272 H 215.337 -3.33623 2.2908 0
M  V30 2273 H 213.907 -2.81111 1.36731 0
M  V30 2274 H 213.127 -1.6651 3.57307 0
M  V30 2275 H 214.415 -2.56377 4.39486 0
M  V30 2276 H 213.813 -5.09209 2.46419 0
M  V30 2277 H 212.37 -5.68949 3.18026 0
M  V30 2278 N 215.803 -1.52179 -0.40978 0
M  V30 2279 C 217.028 -1.70347 -1.18308 0
M  V30 2280 C 217.453 -0.411887 -1.83535 0
M  V30 2281 O 216.811 0.630587 -1.6998 0
M  V30 2282 C 216.859 -2.83977 -2.22238 0
M  V30 2283 O 215.963 -2.495 -3.28365 0
M  V30 2284 H 215.304 -0.567103 -0.345384 0
M  V30 2285 H 217.834 -1.98879 -0.480445 0
M  V30 2286 H 217.844 -3.0887 -2.66577 0
M  V30 2287 H 216.519 -3.77685 -1.74146 0
M  V30 2288 H 215.096 -2.35277 -2.89308 0
M  V30 2289 N 217.281 0.66697 -1.42791 0
M  V30 2290 C 218.228 1.7803 -1.4688 0
M  V30 2291 C 219.198 1.6299 -0.319919 0
M  V30 2292 O 220.383 1.83432 -0.525118 0
M  V30 2293 C 217.523 3.1611 -1.38451 0
M  V30 2294 C 216.636 3.42381 -2.63437 0
M  V30 2295 C 215.771 4.70232 -2.47094 0
M  V30 2296 C 214.81 4.89564 -3.67415 0
M  V30 2297 N 213.947 6.08661 -3.49966 0
M  V30 2298 H 218.787 1.7387 -2.42019 0
M  V30 2299 H 216.324 0.84868 -1.20149 0
M  V30 2300 H 218.282 3.95914 -1.31561 0
M  V30 2301 H 216.912 3.19374 -0.469033 0
M  V30 2302 H 215.964 2.56774 -2.80662 0
M  V30 2303 H 217.276 3.52557 -3.52853 0
M  V30 2304 H 216.43 5.5814 -2.37834 0
M  V30 2305 H 215.169 4.62353 -1.5518 0
M  V30 2306 H 214.174 4.00096 -3.77099 0
M  V30 2307 H 215.399 4.99282 -4.6032 0
M  V30 2308 H 213.345 6.0194 -2.60776 0
M  V30 2309 H 213.262 6.19733 -4.32975 0
M  V30 2310 H 214.53 6.99226 -3.44532 0
M  V30 2311 N 218.759 1.29093 0.90403 0
M  V30 2312 C 219.669 1.15727 2.0407 0
M  V30 2313 C 220.685 0.0815308 1.73809 0
M  V30 2314 O 221.861 0.292749 1.99261 0
M  V30 2315 C 218.926 0.830424 3.36608 0
M  V30 2316 C 217.987 1.98955 3.80415 0
M  V30 2317 C 217.22 1.6782 5.06628 0
M  V30 2318 O 217.443 0.597105 5.67266 0
M  V30 2319 O 216.377 2.52486 5.46383 0
M  V30 2320 H 220.203 2.11171 2.18267 0
M  V30 2321 H 217.788 1.08504 1.027 0
M  V30 2322 H 219.67 0.662521 4.16159 0
M  V30 2323 H 218.345 -0.0942678 3.23563 0
M  V30 2324 H 217.252 2.21267 3.01648 0
M  V30 2325 H 218.585 2.89529 3.98037 0
M  V30 2326 N 220.237 -1.11381 1.11499 0
M  V30 2327 C 221.2 -2.15622 0.777153 0
M  V30 2328 C 222.2 -1.59504 -0.203779 0
M  V30 2329 O 223.39 -1.74188 0.020782 0
M  V30 2330 C 220.522 -3.40556 0.153116 0
M  V30 2331 H 221.715 -2.47021 1.70061 0
M  V30 2332 H 219.268 -1.26577 0.916952 0
M  V30 2333 H 220.003 -3.14767 -0.780536 0
M  V30 2334 H 219.788 -3.8257 0.859238 0
M  V30 2335 H 221.278 -4.17546 -0.0671044 0
M  V30 2336 N 221.715 -0.905404 -1.28997 0
M  V30 2337 C 222.962 -0.534248 -1.95325 0
M  V30 2338 C 223.29 0.920535 -1.71337 0
M  V30 2339 O 222.545 1.66861 -1.02254 0
M  V30 2340 C 222.844 -0.779906 -3.48787 0
M  V30 2341 C 222.51 -2.21293 -3.92861 0
M  V30 2342 C 221.172 -2.60475 -4.04606 0
M  V30 2343 C 223.524 -3.14587 -4.15553 0
M  V30 2344 C 220.852 -3.9212 -4.36416 0
M  V30 2345 C 223.204 -4.45787 -4.48839 0
M  V30 2346 C 221.868 -4.84834 -4.58794 0
M  V30 2347 H 221.138 -0.195495 -0.714747 0
M  V30 2348 H 223.785 -1.14514 -1.53488 0
M  V30 2349 H 222.09 -0.0861365 -3.91705 0
M  V30 2350 H 223.787 -0.472029 -3.98212 0
M  V30 2351 H 220.377 -1.89887 -3.84241 0
M  V30 2352 H 224.561 -2.85528 -4.0594 0
M  V30 2353 H 219.817 -4.22086 -4.42327 0
M  V30 2354 H 223.991 -5.18098 -4.65346 0
M  V30 2355 H 221.618 -5.86877 -4.83197 0
M  V30 2356 N 223.193 1.4272 -0.668489 0
M  V30 2357 C 224.442 2.00846 -0.185389 0
M  V30 2358 C 224.755 1.53442 1.21305 0
M  V30 2359 O 225.961 2.03944 1.79218 0
M  V30 2360 C 224.417 3.58805 -0.280591 0
M  V30 2361 C 224.025 4.15198 -1.68268 0
M  V30 2362 C 225.769 4.24255 0.14412 0
M  V30 2363 C 223.676 5.655 -1.73099 0
M  V30 2364 H 222.606 0.751145 -0.0655475 0
M  V30 2365 H 225.257 1.63516 -0.832752 0
M  V30 2366 H 223.639 3.93608 0.434553 0
M  V30 2367 H 224.813 3.91866 -2.42441 0
M  V30 2368 H 223.128 3.62176 -2.05469 0
M  V30 2369 H 225.725 5.34547 0.128086 0
M  V30 2370 H 226.068 3.99277 1.17827 0
M  V30 2371 H 226.601 3.94389 -0.519798 0
M  V30 2372 H 223.34 5.95268 -2.74475 0
M  V30 2373 H 222.86 5.90842 -1.03274 0
M  V30 2374 H 224.539 6.29808 -1.48158 0
M  V30 2375 N 224.671 0.411399 1.52136 0
M  V30 2376 C 225.948 -0.222308 1.94333 0
M  V30 2377 C 226.328 -1.6242 1.34844 0
M  V30 2378 O 225.676 -2.22384 0.525145 0
M  V30 2379 C 225.886 -0.226345 3.48265 0
M  V30 2380 C 227.234 -0.444592 4.22266 0
M  V30 2381 O 228.258 -0.305602 3.54887 0
M  V30 2382 O 227.117 -0.718749 5.41753 0
M  V30 2383 H 224.211 -0.143907 0.814383 0
M  V30 2384 H 226.757 0.467506 1.63133 0
M  V30 2385 H 225.529 0.75475 3.83952 0
M  V30 2386 H 225.152 -0.960163 3.85832 0
M  V30 2387 N 226.149 -1.5696 0.141893 0
M  V30 2388 C 227.395 -1.97034 -0.504884 0
M  V30 2389 C 227.75 -1.02518 -1.62812 0
M  V30 2390 O 227.043 -0.0592943 -1.91508 0
M  V30 2391 C 227.237 -3.41242 -1.06249 0
M  V30 2392 C 227.066 -4.497 0.00519653 0
M  V30 2393 C 225.836 -5.03338 0.444873 0
M  V30 2394 C 228.034 -5.08122 0.794767 0
M  V30 2395 N 226.016 -5.95395 1.49593 0
M  V30 2396 C 227.387 -5.96339 1.69645 0
M  V30 2397 C 229.442 -4.9071 0.843122 0
M  V30 2398 C 228.145 -6.69009 2.64233 0
M  V30 2399 C 230.171 -5.64077 1.77681 0
M  V30 2400 C 229.533 -6.51999 2.66603 0
M  V30 2401 H 225.632 -0.766745 -0.153707 0
M  V30 2402 H 228.216 -1.93273 0.235313 0
M  V30 2403 H 226.387 -3.45606 -1.77231 0
M  V30 2404 H 228.119 -3.68389 -1.67546 0
M  V30 2405 H 224.874 -4.73576 0.0480959 0
M  V30 2406 H 225.298 -6.46128 2.02107 0
M  V30 2407 H 229.94 -4.22459 0.169732 0
M  V30 2408 H 227.658 -7.36492 3.32575 0
M  V30 2409 H 231.244 -5.52602 1.81996 0
M  V30 2410 H 230.124 -7.07775 3.37675 0
M  V30 2411 N 227.627 0.131896 -1.57047 0
M  V30 2412 C 228.59 1.14638 -1.98471 0
M  V30 2413 C 229.59 1.35029 -0.873148 0
M  V30 2414 O 230.78 1.31764 -1.13946 0
M  V30 2415 C 227.912 2.50358 -2.31373 0
M  V30 2416 H 229.105 0.79064 -2.8929 0
M  V30 2417 H 226.658 0.375761 -1.51716 0
M  V30 2418 H 227.393 2.90876 -1.43393 0
M  V30 2419 H 227.178 2.36915 -3.12432 0
M  V30 2420 H 228.668 3.23395 -2.64207 0
M  V30 2421 N 229.106 1.52395 0.401703 0
M  V30 2422 C 230.522 1.41363 0.740864 0
M  V30 2423 C 230.722 0.523982 1.94568 0
M  V30 2424 O 229.778 -0.00741204 2.52499 0
M  V30 2425 C 231.091 2.84011 0.987847 0
M  V30 2426 C 232.639 2.93404 1.09011 0
M  V30 2427 C 233.114 4.37036 1.3698 0
M  V30 2428 N 234.605 4.40304 1.43829 0
M  V30 2429 C 235.34 5.48508 1.67112 0
M  V30 2430 N 234.836 6.66819 1.87949 0
M  V30 2431 N 236.629 5.36034 1.69187 0
M  V30 2432 H 228.78 2.08765 -0.391262 0
M  V30 2433 H 231.043 0.941265 -0.112798 0
M  V30 2434 H 230.749 3.51265 0.174835 0
M  V30 2435 H 230.623 3.25502 1.906 0
M  V30 2436 H 233.01 2.26325 1.8937 0
M  V30 2437 H 233.091 2.55359 0.15015 0
M  V30 2438 H 232.735 5.04676 0.571353 0
M  V30 2439 H 232.665 4.72623 2.3224 0
M  V30 2440 H 235.156 3.55024 1.29486 0
M  V30 2441 H 235.469 7.45063 2.05185 0
M  V30 2442 H 233.814 6.6987 1.85199 0
M  V30 2443 H 237.005 4.42579 1.52451 0
M  V30 2444 H 237.178 6.20434 1.86993 0
M  V30 2445 N 230.584 -0.659388 1.43143 0
M  V30 2446 C 231.814 -1.44513 1.47646 0
M  V30 2447 C 232.222 -1.88981 0.0910095 0
M  V30 2448 O 231.565 -1.59702 -0.907789 0
M  V30 2449 C 231.627 -2.71663 2.35456 0
M  V30 2450 C 231.291 -2.49175 3.83094 0
M  V30 2451 C 232.288 -2.1279 4.74359 0
M  V30 2452 C 229.973 -2.63691 4.27519 0
M  V30 2453 C 231.967 -1.9121 6.08044 0
M  V30 2454 C 229.654 -2.41726 5.61259 0
M  V30 2455 C 230.652 -2.0554 6.51339 0
M  V30 2456 O 230.34 -1.838 7.82606 0
M  V30 2457 H 230.072 -0.45064 0.503884 0
M  V30 2458 H 232.626 -0.816248 1.88485 0
M  V30 2459 H 230.856 -3.37089 1.89493 0
M  V30 2460 H 232.545 -3.33595 2.31235 0
M  V30 2461 H 233.311 -2.01157 4.41317 0
M  V30 2462 H 229.19 -2.90832 3.57684 0
M  V30 2463 H 232.734 -1.62889 6.78316 0
M  V30 2464 H 228.631 -2.52959 5.9387 0
M  V30 2465 H 229.399 -1.98275 7.94122 0
M  V30 2466 N 232.062 -1.29571 -0.897171 0
M  V30 2467 C 233.339 -1.08365 -1.62839 0
M  V30 2468 C 233.719 0.371331 -2.07808 0
M  V30 2469 O 233.067 1.3606 -1.83576 0
M  V30 2470 C 233.277 -2.0735 -2.80726 0
M  V30 2471 C 234.625 -2.38406 -3.51351 0
M  V30 2472 O 235.649 -2.05564 -2.90898 0
M  V30 2473 O 234.508 -2.9453 -4.60341 0
M  V30 2474 H 231.602 -0.415345 -0.715134 0
M  V30 2475 H 234.148 -1.40952 -0.945018 0
M  V30 2476 H 232.92 -3.05339 -2.44711 0
M  V30 2477 H 232.543 -1.75507 -3.56767 0
M  V30 2478 N 233.54 1.10788 -1.12088 0
M  V30 2479 C 234.817 1.79136 -0.785476 0
M  V30 2480 C 235.197 1.98246 0.725377 0
M  V30 2481 O 234.545 1.57258 1.65778 0
M  V30 2482 C 234.755 3.12375 -1.55636 0
M  V30 2483 C 236.103 3.8731 -1.74001 0
M  V30 2484 O 237.127 3.22085 -1.52117 0
M  V30 2485 O 235.986 5.04369 -2.10415 0
M  V30 2486 H 233.08 0.776226 -0.285311 0
M  V30 2487 H 235.626 1.1747 -1.2247 0
M  V30 2488 H 234.398 2.93863 -2.5838 0
M  V30 2489 H 234.021 3.81758 -1.11114 0
M  V30 2490 N 235.018 0.912232 1.28515 0
M  V30 2491 C 236.243 0.559774 1.99703 0
M  V30 2492 C 236.668 -0.851393 1.67729 0
M  V30 2493 O 236.026 -1.56875 0.908834 0
M  V30 2494 C 236.074 0.773874 3.52198 0
M  V30 2495 O 235.178 -0.167842 4.12058 0
M  V30 2496 H 234.519 0.21723 0.627461 0
M  V30 2497 H 237.049 1.22725 1.63706 0
M  V30 2498 H 237.059 0.683386 4.02236 0
M  V30 2499 H 235.734 1.80261 3.74805 0
M  V30 2500 H 234.311 -0.0287509 3.72889 0
M  V30 2501 N 236.496 -1.42363 0.676048 0
M  V30 2502 C 237.912 -1.55811 0.345718 0
M  V30 2503 C 238.112 -1.65544 -1.14879 0
M  V30 2504 O 237.168 -1.62306 -1.93424 0
M  V30 2505 C 238.481 -2.80746 1.07713 0
M  V30 2506 C 240.029 -2.9452 1.05958 0
M  V30 2507 C 240.504 -4.22318 1.77233 0
M  V30 2508 N 241.995 -4.29233 1.74108 0
M  V30 2509 C 242.73 -5.26935 2.26113 0
M  V30 2510 N 242.226 -6.30783 2.86505 0
M  V30 2511 N 244.019 -5.18741 2.1648 0
M  V30 2512 H 236.17 -1.34289 1.6456 0
M  V30 2513 H 238.433 -0.646506 0.69335 0
M  V30 2514 H 238.139 -2.79696 2.13221 0
M  V30 2515 H 238.013 -3.71676 0.64316 0
M  V30 2516 H 240.4 -2.95097 0.0128255 0
M  V30 2517 H 240.481 -2.04817 1.53244 0
M  V30 2518 H 240.125 -4.22502 2.81877 0
M  V30 2519 H 240.055 -5.10958 1.27396 0
M  V30 2520 H 242.546 -3.54814 1.30059 0
M  V30 2521 H 242.859 -7.01691 3.23805 0
M  V30 2522 H 241.204 -6.31341 2.90575 0
M  V30 2523 H 244.395 -4.36533 1.68987 0
M  V30 2524 H 244.568 -5.94721 2.57316 0
M  V30 2525 N 237.974 -0.419461 -1.51915 0
M  V30 2526 C 239.251 0.211999 -1.94448 0
M  V30 2527 C 239.631 1.61703 -1.35703 0
M  V30 2528 O 238.979 2.22102 -0.536931 0
M  V30 2529 C 239.189 0.207872 -3.4838 0
M  V30 2530 C 240.537 0.422192 -4.22496 0
M  V30 2531 O 241.561 0.286778 -3.55044 0
M  V30 2532 O 240.42 0.690009 -5.42126 0
M  V30 2533 H 237.514 0.139586 -0.815135 0
M  V30 2534 H 240.06 -0.476151 -1.62883 0
M  V30 2535 H 238.832 -0.775102 -3.83546 0
M  V30 2536 H 238.455 0.939688 -3.86336 0
M  V30 2537 N 239.452 1.56882 -0.150215 0
M  V30 2538 C 240.402 2.13501 0.800071 0
M  V30 2539 C 241.386 1.06368 1.20726 0
M  V30 2540 O 242.578 1.32538 1.17314 0
M  V30 2541 C 239.707 2.76271 2.03787 0
M  V30 2542 C 238.793 3.90533 1.65364 0
M  V30 2543 N 239.184 4.96259 0.977794 0
M  V30 2544 C 237.482 4.013 1.94613 0
M  V30 2545 C 238.183 5.76286 0.791794 0
M  V30 2546 N 237.159 5.27163 1.32666 0
M  V30 2547 H 240.961 2.92615 0.274517 0
M  V30 2548 H 238.475 1.62319 0.0512144 0
M  V30 2549 H 240.472 3.15197 2.72867 0
M  V30 2550 H 239.132 1.98631 2.56857 0
M  V30 2551 H 240.143 5.13953 0.638193 0
M  V30 2552 H 236.82 3.3474 2.4951 0
M  V30 2553 H 238.21 6.71401 0.258894 0
M  V30 2554 N 240.93 -0.123565 1.57115 0
M  V30 2555 C 242.177 -0.832153 1.84612 0
M  V30 2556 C 242.505 -1.80093 0.734627 0
M  V30 2557 O 241.76 -1.93766 -0.27442 0
M  V30 2558 C 242.059 -1.62016 3.18568 0
M  V30 2559 C 241.725 -0.796084 4.43817 0
M  V30 2560 C 240.387 -0.568816 4.77826 0
M  V30 2561 C 242.739 -0.221364 5.2073 0
M  V30 2562 C 240.067 0.243499 5.86194 0
M  V30 2563 C 242.419 0.578117 6.29953 0
M  V30 2564 C 241.083 0.815744 6.62497 0
M  V30 2565 H 240.353 -0.304507 0.675542 0
M  V30 2566 H 243 -0.0947248 1.91266 0
M  V30 2567 H 241.305 -2.42837 3.0747 0
M  V30 2568 H 243.002 -2.17231 3.37064 0
M  V30 2569 H 239.592 -0.983307 4.17168 0
M  V30 2570 H 243.776 -0.384173 4.94811 0
M  V30 2571 H 239.032 0.436871 6.09837 0
M  V30 2572 H 243.206 1.03046 6.88734 0
M  V30 2573 H 240.833 1.44701 7.46301 0
M  V30 2574 N 242.408 -1.52605 -0.393616 0
M  V30 2575 C 243.648 -1.6911 -1.1481 0
M  V30 2576 C 244.012 -0.41969 -1.87357 0
M  V30 2577 O 245.213 -0.461034 -2.64817 0
M  V30 2578 C 243.484 -2.88909 -2.10395 0
M  V30 2579 S 245.043 -3.25977 -2.93742 0
M  V30 2580 H 241.861 -0.595337 -0.38871 0
M  V30 2581 H 244.463 -1.90641 -0.433178 0
M  V30 2582 H 243.167 -3.79672 -1.55812 0
M  V30 2583 H 242.698 -2.69698 -2.86403 0
M  V30 2584 H 244.713 -2.75806 -4.12487 0
M  V30 2585 N 243.887 0.651787 -1.4349 0
M  V30 2586 C 244.797 1.79368 -1.5121 0
M  V30 2587 C 245.813 1.69361 -0.399093 0
M  V30 2588 O 246.989 1.90505 -0.653431 0
M  V30 2589 C 244.054 3.15653 -1.43401 0
M  V30 2590 C 243.115 3.37446 -2.65384 0
M  V30 2591 C 242.348 4.67229 -2.57939 0
M  V30 2592 O 242.571 5.46676 -1.62792 0
M  V30 2593 O 241.505 4.90773 -3.48462 0
M  V30 2594 H 245.331 1.7581 -2.47638 0
M  V30 2595 H 242.916 0.810447 -1.25507 0
M  V30 2596 H 244.798 3.96935 -1.41494 0
M  V30 2597 H 243.473 3.19798 -0.501085 0
M  V30 2598 H 242.38 2.55923 -2.72863 0
M  V30 2599 H 243.713 3.38148 -3.57654 0
M  V30 2600 N 245.365 1.30045 0.890287 0
M  V30 2601 C 246.295 1.18541 2.01172 0
M  V30 2602 C 247.276 0.0773356 1.69924 0
M  V30 2603 O 248.461 0.25845 1.92473 0
M  V30 2604 C 245.591 0.870941 3.36202 0
M  V30 2605 C 244.545 1.93637 3.81692 0
M  V30 2606 C 243.871 1.475 5.13953 0
M  V30 2607 C 245.171 3.34666 4.00994 0
M  V30 2608 H 246.865 2.12359 2.11054 0
M  V30 2609 H 244.411 1.02238 1.01407 0
M  V30 2610 H 246.364 0.777141 4.14172 0
M  V30 2611 H 245.088 -0.102926 3.26438 0
M  V30 2612 H 243.747 2.01972 3.05946 0
M  V30 2613 H 243.395 0.489551 5.00612 0
M  V30 2614 H 243.095 2.1876 5.4536 0
M  V30 2615 H 244.619 1.39489 5.94454 0
M  V30 2616 H 246.033 3.2912 4.69417 0
M  V30 2617 H 244.43 4.03966 4.43769 0
M  V30 2618 H 245.5 3.76949 3.05021 0
M  V30 2619 N 246.843 -1.10192 1.12674 0
M  V30 2620 C 248.12 -1.78717 0.794965 0
M  V30 2621 C 248.5 -1.98628 -0.714853 0
M  V30 2622 O 247.848 -1.58135 -1.64941 0
M  V30 2623 C 248.058 -3.11546 1.5729 0
M  V30 2624 C 249.406 -3.86382 1.76052 0
M  V30 2625 O 250.43 -3.21274 1.53823 0
M  V30 2626 O 249.289 -5.03246 2.13087 0
M  V30 2627 H 246.383 -0.774702 0.289423 0
M  V30 2628 H 248.929 -1.16819 1.23091 0
M  V30 2629 H 247.701 -2.92489 2.59935 0
M  V30 2630 H 247.324 -3.81164 1.13137 0
M  V30 2631 N 248.321 -0.919034 -1.28029 0
M  V30 2632 C 249.598 -0.473668 -1.89778 0
M  V30 2633 C 249.978 1.04783 -1.83259 0
M  V30 2634 O 249.326 1.8982 -1.27202 0
M  V30 2635 C 249.536 -1.00998 -3.34066 0
M  V30 2636 C 250.884 -1.06525 -4.1102 0
M  V30 2637 O 251.908 -0.958996 -3.43048 0
M  V30 2638 O 250.767 -1.22776 -5.3253 0
M  V30 2639 H 247.861 -0.15098 -0.813101 0
M  V30 2640 H 250.407 -1.01016 -1.36359 0
M  V30 2641 H 249.179 -2.05392 -3.33061 0
M  V30 2642 H 248.802 -0.454626 -3.94992 0
M  V30 2643 N 249.799 1.42003 -0.683588 0
M  V30 2644 C 250.709 2.34597 -0.0109075 0
M  V30 2645 C 251.725 1.55576 0.779245 0
M  V30 2646 O 252.901 1.88107 0.719555 0
M  V30 2647 C 249.966 3.34199 0.922588 0
M  V30 2648 C 249.027 4.29115 0.125984 0
M  V30 2649 C 248.26 5.23959 1.01502 0
M  V30 2650 O 248.483 5.23952 2.25456 0
M  V30 2651 O 247.417 6.00053 0.47111 0
M  V30 2652 H 251.243 2.93675 -0.773853 0
M  V30 2653 H 248.828 1.42654 -0.443861 0
M  V30 2654 H 250.71 3.95365 1.45823 0
M  V30 2655 H 249.385 2.77582 1.66523 0
M  V30 2656 H 248.292 3.71335 -0.453969 0
M  V30 2657 H 249.625 4.88798 -0.577736 0
M  V30 2658 N 251.277 0.427512 1.51691 0
M  V30 2659 C 252.693 0.0792977 1.59403 0
M  V30 2660 C 252.893 -1.41035 1.43914 0
M  V30 2661 O 251.949 -2.17922 1.27539 0
M  V30 2662 C 253.262 0.590636 2.94842 0
M  V30 2663 C 254.81 0.550215 3.08126 0
M  V30 2664 C 255.285 1.03836 4.46074 0
M  V30 2665 N 256.776 0.995943 4.52366 0
M  V30 2666 C 257.511 1.34463 5.57411 0
M  V30 2667 N 257.007 1.76569 6.69922 0
M  V30 2668 N 258.8 1.26343 5.47717 0
M  V30 2669 H 250.951 1.39687 1.60004 0
M  V30 2670 H 253.214 0.575003 0.753708 0
M  V30 2671 H 252.92 1.63251 3.11516 0
M  V30 2672 H 252.794 0.0102061 3.77199 0
M  V30 2673 H 255.181 -0.482654 2.91126 0
M  V30 2674 H 255.262 1.16693 2.27632 0
M  V30 2675 H 254.906 2.06965 4.63819 0
M  V30 2676 H 254.836 0.398286 5.25092 0
M  V30 2677 H 257.327 0.68661 3.7161 0
M  V30 2678 H 257.64 2.01438 7.46085 0
M  V30 2679 H 255.985 1.80488 6.71155 0
M  V30 2680 H 259.176 0.933209 4.58703 0
M  V30 2681 H 259.349 1.53846 6.29472 0
M  V30 2682 N 252.755 -1.56801 0.158532 0
M  V30 2683 C 253.98 -2.01295 -0.499516 0
M  V30 2684 C 254.405 -1.03799 -1.56867 0
M  V30 2685 O 253.763 -0.0155162 -1.81293 0
M  V30 2686 C 253.811 -3.44469 -1.06647 0
M  V30 2687 O 252.915 -3.50012 -2.18095 0
M  V30 2688 H 252.256 -0.652884 -0.12099 0
M  V30 2689 H 254.786 -2.02958 0.258661 0
M  V30 2690 H 254.796 -3.8351 -1.39227 0
M  V30 2691 H 253.471 -4.14932 -0.283581 0
M  V30 2692 H 252.048 -3.22822 -1.86656 0
M  V30 2693 N 254.233 0.115231 -1.57178 0
M  V30 2694 C 255.644 0.67197 -1.74188 0
M  V30 2695 C 255.995 1.80125 -0.777777 0
M  V30 2696 O 255.12 2.16346 0.0484376 0
M  V30 2697 C 255.715 1.22573 -3.1585 0
M  V30 2698 C 254.274 1.72872 -3.34353 0
M  V30 2699 C 253.421 0.629972 -2.70049 0
M  V30 2700 H 256.372 -0.110712 -1.58313 0
M  V30 2701 H 256.393 2.09535 -3.17609 0
M  V30 2702 H 255.905 0.403598 -3.85996 0
M  V30 2703 H 254.006 2.5755 -2.69256 0
M  V30 2704 H 254.119 1.83557 -4.42542 0
M  V30 2705 H 252.483 1.0645 -2.31388 0
M  V30 2706 H 253.266 -0.181241 -3.42821 0
M  V30 2707 N 255.711 1.52812 0.385517 0
M  V30 2708 C 256.674 1.77188 1.45386 0
M  V30 2709 C 257.674 0.641953 1.4743 0
M  V30 2710 O 258.864 0.910033 1.4854 0
M  V30 2711 C 255.996 1.87582 2.8465 0
M  V30 2712 H 257.189 2.72583 1.25054 0
M  V30 2713 H 254.742 1.43586 0.617467 0
M  V30 2714 H 255.477 0.941849 3.10322 0
M  V30 2715 H 255.262 2.69748 2.84567 0
M  V30 2716 H 256.752 2.08102 3.62054 0
M  V30 2717 N 257.189 -0.644168 1.43834 0
M  V30 2718 C 258.152 -1.73857 1.49353 0
M  V30 2719 C 259.152 -1.56315 0.377112 0
M  V30 2720 O 260.342 -1.62048 0.639226 0
M  V30 2721 C 257.474 -3.12819 1.35488 0
M  V30 2722 H 258.667 -1.70342 2.46827 0
M  V30 2723 H 256.22 -0.856652 1.30733 0
M  V30 2724 H 256.955 -3.2194 0.390569 0
M  V30 2725 H 256.74 -3.26958 2.16428 0
M  V30 2726 H 258.23 -3.92606 1.42302 0
M  V30 2727 N 258.668 -1.30515 -0.883378 0
M  V30 2728 C 259.6 -1.12846 -1.99496 0
M  V30 2729 C 260.613 -0.0712571 -1.62644 0
M  V30 2730 O 261.802 -0.317432 -1.75655 0
M  V30 2731 C 258.902 -0.699123 -3.3161 0
M  V30 2732 C 258.075 -1.83842 -3.96889 0
M  V30 2733 C 257.134 -1.39737 -5.07307 0
M  V30 2734 O 256.16 -2.10485 -5.28852 0
M  V30 2735 N 257.362 -0.277279 -5.79837 0
M  V30 2736 H 260.127 -2.08585 -2.15203 0
M  V30 2737 H 257.688 -1.22672 -1.05656 0
M  V30 2738 H 259.68 -0.387044 -4.02845 0
M  V30 2739 H 258.25 0.166276 -3.12157 0
M  V30 2740 H 257.47 -2.31853 -3.18807 0
M  V30 2741 H 258.758 -2.60187 -4.37241 0
M  V30 2742 H 258.156 0.3122 -5.64838 0
M  V30 2743 H 256.713 -0.0246623 -6.51795 0
M  V30 2744 N 260.146 1.09593 -1.13257 0
M  V30 2745 C 261.376 1.85231 -0.915049 0
M  V30 2746 C 261.784 1.81345 0.539498 0
M  V30 2747 O 261.127 1.20664 1.38513 0
M  V30 2748 C 261.189 3.34275 -1.3229 0
M  V30 2749 C 260.853 3.6191 -2.79052 0
M  V30 2750 C 261.85 3.57777 -3.77216 0
M  V30 2751 C 259.535 3.90309 -3.16171 0
M  V30 2752 C 261.529 3.81652 -5.1051 0
M  V30 2753 C 259.216 4.13839 -4.49644 0
M  V30 2754 C 260.214 4.09502 -5.46623 0
M  V30 2755 O 259.902 4.32426 -6.77689 0
M  V30 2756 H 259.634 0.591997 -0.326367 0
M  V30 2757 H 262.188 1.394 -1.50854 0
M  V30 2758 H 260.418 3.80805 -0.672667 0
M  V30 2759 H 262.107 3.9132 -1.07812 0
M  V30 2760 H 262.873 3.35865 -3.49885 0
M  V30 2761 H 258.752 3.92811 -2.41289 0
M  V30 2762 H 262.296 3.78182 -5.86195 0
M  V30 2763 H 258.193 4.35232 -4.767 0
M  V30 2764 H 258.961 4.49896 -6.83766 0
M  V30 2765 N 261.624 0.925811 1.2754 0
M  V30 2766 C 262.87 0.566092 1.94739 0
M  V30 2767 C 263.203 -0.890057 1.72603 0
M  V30 2768 O 262.478 -1.63467 1.05399 0
M  V30 2769 C 262.761 0.89054 3.48915 0
M  V30 2770 C 262.614 2.4003 3.80402 0
M  V30 2771 C 263.933 0.395101 4.38323 0
M  V30 2772 H 261.052 0.20714 0.707292 0
M  V30 2773 H 263.694 1.15725 1.50691 0
M  V30 2774 H 261.844 0.387452 3.86563 0
M  V30 2775 H 263.516 2.97494 3.52555 0
M  V30 2776 H 261.759 2.85028 3.2702 0
M  V30 2777 H 262.43 2.57785 4.8811 0
M  V30 2778 H 264.906 0.826241 4.07814 0
M  V30 2779 H 263.782 0.651086 5.45025 0
M  V30 2780 H 264.043 -0.704798 4.36446 0
M  V30 2781 N 263.102 -1.41638 0.69111 0
M  V30 2782 C 264.379 -1.95036 0.148421 0
M  V30 2783 C 264.759 -1.63072 -1.34055 0
M  V30 2784 O 264.107 -0.93538 -2.08478 0
M  V30 2785 C 264.317 -3.46279 0.434951 0
M  V30 2786 C 265.665 -4.23069 0.360275 0
M  V30 2787 O 266.689 -3.54277 0.369613 0
M  V30 2788 O 265.548 -5.45583 0.316534 0
M  V30 2789 H 262.642 -0.826908 0.0123654 0
M  V30 2790 H 265.188 -1.5138 0.766963 0
M  V30 2791 H 263.96 -3.6281 1.46576 0
M  V30 2792 H 263.583 -3.97019 -0.214787 0
M  V30 2793 N 264.58 -0.43555 -1.51462 0
M  V30 2794 C 265.51 0.367376 -2.30592 0
M  V30 2795 C 266.491 1.02263 -1.35928 0
M  V30 2796 O 267.676 1.02661 -1.64847 0
M  V30 2797 C 264.806 1.46983 -3.14664 0
M  V30 2798 C 263.76 0.938161 -4.17591 0
M  V30 2799 C 263.086 2.13622 -4.90173 0
M  V30 2800 C 264.386 -0.0261621 -5.22293 0
M  V30 2801 H 266.08 -0.292969 -2.97963 0
M  V30 2802 H 263.626 -0.14234 -1.43295 0
M  V30 2803 H 265.579 2.03873 -3.688 0
M  V30 2804 H 264.303 2.15843 -2.4511 0
M  V30 2805 H 262.962 0.391481 -3.64504 0
M  V30 2806 H 262.61 2.81098 -4.17124 0
M  V30 2807 H 262.31 1.78688 -5.59772 0
M  V30 2808 H 263.834 2.7107 -5.47132 0
M  V30 2809 H 265.248 0.452384 -5.71512 0
M  V30 2810 H 263.645 -0.287992 -5.99409 0
M  V30 2811 H 264.715 -0.963391 -4.75233 0
M  V30 2812 N 266.058 1.56714 -0.166846 0
M  V30 2813 C 266.988 2.20754 0.760913 0
M  V30 2814 C 267.969 1.16178 1.24244 0
M  V30 2815 O 269.154 1.44592 1.29641 0
M  V30 2816 C 266.284 2.84478 1.99223 0
M  V30 2817 C 265.238 3.95053 1.64672 0
M  V30 2818 C 264.564 4.45805 2.95232 0
M  V30 2819 C 265.864 5.14865 0.878155 0
M  V30 2820 H 267.558 2.98537 0.22713 0
M  V30 2821 H 265.104 1.43596 0.107805 0
M  V30 2822 H 267.057 3.27951 2.64624 0
M  V30 2823 H 265.781 2.04056 2.55007 0
M  V30 2824 H 264.44 3.52228 1.01641 0
M  V30 2825 H 264.088 3.62181 3.49047 0
M  V30 2826 H 263.788 5.204 2.7287 0
M  V30 2827 H 265.312 4.91962 3.6167 0
M  V30 2828 H 266.726 5.55059 1.43466 0
M  V30 2829 H 265.123 5.95348 0.753738 0
M  V30 2830 H 266.193 4.84735 -0.126377 0
M  V30 2831 N 267.536 -0.106894 1.57237 0
M  V30 2832 C 268.466 -1.13148 2.04254 0
M  V30 2833 C 269.447 -1.42476 0.929224 0
M  V30 2834 O 270.632 -1.52709 1.19973 0
M  V30 2835 C 267.762 -2.4545 2.45706 0
M  V30 2836 C 266.716 -2.30558 3.60592 0
M  V30 2837 C 266.042 -3.67931 3.87983 0
M  V30 2838 C 267.342 -1.75597 4.91897 0
M  V30 2839 H 269.036 -0.740374 2.90101 0
M  V30 2840 H 266.582 -0.354696 1.39563 0
M  V30 2841 H 268.535 -3.17389 2.77205 0
M  V30 2842 H 267.259 -2.86475 1.56843 0
M  V30 2843 H 265.918 -1.61067 3.29322 0
M  V30 2844 H 265.566 -4.06462 2.96306 0
M  V30 2845 H 265.266 -3.58817 4.65322 0
M  V30 2846 H 266.79 -4.41356 4.21945 0
M  V30 2847 H 268.204 -2.37364 5.21854 0
M  V30 2848 H 266.601 -1.77272 5.73319 0
M  V30 2849 H 267.671 -0.714451 4.79608 0
M  V30 2850 N 269.014 -1.53014 -0.377408 0
M  V30 2851 C 269.962 -1.7927 -1.48206 0
M  V30 2852 C 270.956 -0.661195 -1.55963 0
M  V30 2853 O 272.162 -0.843908 -1.58991 0
M  V30 2854 H 268.537 -0.567425 -0.493491 0
M  V30 2855 H 270.508 -2.71753 -1.2326 0
M  V30 2856 C 269.257 -1.98894 -2.85196 0
M  V30 2857 H 268.58 -2.85395 -2.79981 0
M  V30 2858 H 270.02 -2.21249 -3.61698 0
M  V30 2859 C 268.479 -0.764691 -3.28107 0
M  V30 2860 O 269.009 0.0523226 -4.01666 0
M  V30 2861 N 267.215 -0.591493 -2.84517 0
M  V30 2862 H 266.762 -1.25749 -2.24822 0
M  V30 2863 H 266.72 0.226253 -3.13585 0
M  V30 2864 N 270.492 0.636531 -1.44174 0
M  V30 2865 C 271.903 1.21806 -1.41493 0
M  V30 2866 C 272.254 1.95785 -0.1275 0
M  V30 2867 O 271.379 2.02147 0.772376 0
M  V30 2868 C 271.974 2.21551 -2.56321 0
M  V30 2869 C 270.533 2.75143 -2.56853 0
M  V30 2870 C 269.68 1.50052 -2.33195 0
M  V30 2871 H 272.631 0.427531 -1.52833 0
M  V30 2872 H 272.652 3.0405 -2.28765 0
M  V30 2873 H 272.164 1.67679 -3.50008 0
M  V30 2874 H 270.265 3.33033 -1.67093 0
M  V30 2875 H 270.378 3.2155 -3.55165 0
M  V30 2876 H 268.742 1.77993 -1.82183 0
M  V30 2877 H 269.525 0.980903 -3.28988 0
M  V30 2878 N 271.97 1.30982 0.876444 0
M  V30 2879 C 272.88 1.2003 2.01569 0
M  V30 2880 C 273.896 0.11838 1.73597 0
M  V30 2881 O 275.072 0.33495 1.98595 0
M  V30 2882 C 272.137 0.901637 3.34771 0
M  V30 2883 C 271.198 2.06979 3.76109 0
M  V30 2884 C 270.431 1.78529 5.02954 0
M  V30 2885 O 270.654 0.717296 5.65872 0
M  V30 2886 O 269.588 2.64019 5.40905 0
M  V30 2887 H 273.414 2.15753 2.13739 0
M  V30 2888 H 270.999 1.10658 1.00375 0
M  V30 2889 H 272.881 0.750645 4.1466 0
M  V30 2890 H 271.556 -0.0256141 3.2369 0
M  V30 2891 H 270.463 2.27616 2.96887 0
M  V30 2892 H 271.796 2.97907 3.91807 0
M  V30 2893 N 273.449 -1.08991 1.13837 0
M  V30 2894 C 274.865 -1.33312 0.877506 0
M  V30 2895 C 275.065 -1.95587 -0.48456 0
M  V30 2896 O 274.121 -2.20509 -1.23013 0
M  V30 2897 C 275.434 -2.24045 2.0056 0
M  V30 2898 C 276.982 -2.37542 2.03821 0
M  V30 2899 C 277.457 -3.31614 3.15905 0
M  V30 2900 N 278.948 -3.39189 3.15445 0
M  V30 2901 C 279.683 -4.11992 3.98811 0
M  V30 2902 N 279.179 -4.87553 4.92203 0
M  V30 2903 N 280.972 -4.07762 3.86894 0
M  V30 2904 H 273.123 -0.669456 2.01574 0
M  V30 2905 H 275.386 -0.357482 0.878015 0
M  V30 2906 H 275.092 -1.85521 2.98789 0
M  V30 2907 H 274.966 -3.24466 1.92359 0
M  V30 2908 H 277.353 -2.75327 1.06202 0
M  V30 2909 H 277.434 -1.36884 2.16093 0
M  V30 2910 H 277.078 -2.94551 4.13766 0
M  V30 2911 H 277.008 -4.32186 3.0087 0
M  V30 2912 H 279.499 -2.85314 2.47799 0
M  V30 2913 H 279.812 -5.40549 5.52292 0
M  V30 2914 H 278.157 -4.86627 4.96205 0
M  V30 2915 H 281.348 -3.47833 3.13257 0
M  V30 2916 H 281.521 -4.64238 4.52092 0
M  V30 2917 N 274.927 -0.932562 -1.27047 0
M  V30 2918 C 276.157 -0.591173 -1.97961 0
M  V30 2919 C 276.565 0.836219 -1.69717 0
M  V30 2920 O 275.908 1.56801 -0.957036 0
M  V30 2921 C 275.97 -0.743082 -3.51736 0
M  V30 2922 C 275.634 -2.1435 -4.03613 0
M  V30 2923 C 276.631 -3.11815 -4.16014 0
M  V30 2924 C 274.316 -2.46175 -4.37839 0
M  V30 2925 C 276.31 -4.39211 -4.61923 0
M  V30 2926 C 273.997 -3.73806 -4.83438 0
M  V30 2927 C 274.995 -4.70137 -4.95439 0
M  V30 2928 O 274.683 -5.95496 -5.40037 0
M  V30 2929 H 274.415 -0.222375 -0.638377 0
M  V30 2930 H 276.969 -1.25317 -1.62742 0
M  V30 2931 H 275.199 -0.0239739 -3.86693 0
M  V30 2932 H 276.888 -0.40603 -4.03864 0
M  V30 2933 H 277.654 -2.88549 -3.89826 0
M  V30 2934 H 273.533 -1.71936 -4.27737 0
M  V30 2935 H 277.077 -5.14404 -4.71205 0
M  V30 2936 H 272.974 -3.96888 -5.09068 0
M  V30 2937 H 273.742 -5.98554 -5.58279 0
M  V30 2938 N 276.405 1.4127 -0.698611 0
M  V30 2939 C 277.633 2.05503 -0.239992 0
M  V30 2940 C 278.048 1.52584 1.11191 0
M  V30 2941 O 277.405 0.675323 1.69545 0
M  V30 2942 C 277.456 3.60987 -0.192429 0
M  V30 2943 O 277.177 4.1195 -1.49094 0
M  V30 2944 C 278.678 4.42371 0.28681 0
M  V30 2945 H 275.898 0.661748 -0.111045 0
M  V30 2946 H 278.442 1.80987 -0.95205 0
M  V30 2947 H 276.597 3.84533 0.470472 0
M  V30 2948 H 277.011 5.06018 -1.38007 0
M  V30 2949 H 278.485 5.51344 0.26896 0
M  V30 2950 H 278.962 4.18699 1.32619 0
M  V30 2951 H 279.568 4.23897 -0.345201 0
M  V30 2952 N 277.883 0.443576 1.51229 0
M  V30 2953 C 279.131 -0.120557 2.0174 0
M  V30 2954 C 279.452 -1.42665 1.32935 0
M  V30 2955 O 278.722 -1.9028 0.465866 0
M  V30 2956 H 277.302 -0.0475426 0.745486 0
M  V30 2957 H 279.964 0.587711 1.85828 0
M  V30 2958 H 279.06 -0.291972 3.10731 0
M  V30 2959 N 279.361 -1.56624 0.175154 0
M  V30 2960 C 280.591 -2.01082 -0.474283 0
M  V30 2961 C 280.999 -1.05447 -1.57091 0
M  V30 2962 O 280.342 -0.0480595 -1.83637 0
M  V30 2963 C 280.404 -3.41963 -1.10911 0
M  V30 2964 C 280.068 -4.56742 -0.153666 0
M  V30 2965 C 281.065 -5.16076 0.629448 0
M  V30 2966 C 278.75 -5.02277 -0.0483776 0
M  V30 2967 C 280.744 -6.19377 1.50501 0
M  V30 2968 C 278.431 -6.05427 0.830768 0
M  V30 2969 C 279.429 -6.63849 1.60605 0
M  V30 2970 O 279.117 -7.64998 2.47049 0
M  V30 2971 H 278.849 -0.664261 -0.125432 0
M  V30 2972 H 281.403 -2.03549 0.275163 0
M  V30 2973 H 279.633 -3.36422 -1.90676 0
M  V30 2974 H 281.322 -3.70352 -1.66114 0
M  V30 2975 H 282.088 -4.81776 0.558297 0
M  V30 2976 H 277.967 -4.56513 -0.641611 0
M  V30 2977 H 281.511 -6.64906 2.1106 0
M  V30 2978 H 277.408 -6.39151 0.903107 0
M  V30 2979 H 278.176 -7.82336 2.40607 0
M  V30 2980 N 280.839 0.0985539 -1.57292 0
M  V30 2981 C 281.786 1.11981 -2.01814 0
M  V30 2982 C 282.756 1.39999 -0.89384 0
M  V30 2983 O 283.941 1.5152 -1.15958 0
M  V30 2984 C 281.081 2.43577 -2.44467 0
M  V30 2985 C 280.194 2.2232 -3.70402 0
M  V30 2986 C 279.329 3.4729 -4.01949 0
M  V30 2987 C 278.368 3.2128 -5.21005 0
M  V30 2988 N 277.505 4.38507 -5.48321 0
M  V30 2989 H 282.345 0.733149 -2.88841 0
M  V30 2990 H 279.882 0.350482 -1.42864 0
M  V30 2991 H 281.84 3.20373 -2.6724 0
M  V30 2992 H 280.47 2.80097 -1.60455 0
M  V30 2993 H 279.522 1.36343 -3.55126 0
M  V30 2994 H 280.834 1.99089 -4.57345 0
M  V30 2995 H 279.988 4.32495 -4.25479 0
M  V30 2996 H 278.727 3.73572 -3.13521 0
M  V30 2997 H 277.732 2.34468 -4.97298 0
M  V30 2998 H 278.957 2.96348 -6.11028 0
M  V30 2999 H 276.903 4.64871 -4.62851 0
M  V30 3000 H 276.82 4.18455 -6.29628 0
M  V30 3001 H 278.088 5.24787 -5.76385 0
M  V30 3002 N 282.317 1.53212 0.369288 0
M  V30 3003 C 283.565 1.68881 1.11012 0
M  V30 3004 C 283.886 0.441285 1.89941 0
M  V30 3005 O 283.156 -0.544623 1.88177 0
M  V30 3006 H 281.736 0.622569 0.412816 0
M  V30 3007 H 284.398 1.90391 0.416802 0
M  V30 3008 H 283.494 2.54822 1.80201 0
M  V30 3009 N 283.795 -0.628877 1.44509 0
M  V30 3010 C 285.023 -1.41554 1.50897 0
M  V30 3011 C 285.438 -1.8832 0.134564 0
M  V30 3012 O 284.795 -1.60969 -0.859965 0
M  V30 3013 C 284.846 -2.63435 2.47556 0
M  V30 3014 O 284.567 -2.18619 3.79654 0
M  V30 3015 C 286.068 -3.56537 2.63431 0
M  V30 3016 H 283.288 -0.434044 0.511709 0
M  V30 3017 H 285.832 -0.768895 1.89495 0
M  V30 3018 H 283.987 -3.24187 2.12089 0
M  V30 3019 H 284.401 -2.97652 4.31861 0
M  V30 3020 H 285.875 -4.38657 3.35088 0
M  V30 3021 H 286.352 -4.05493 1.68738 0
M  V30 3022 H 286.958 -3.01653 2.9981 0
M  V30 3023 N 285.273 -1.31445 -0.869486 0
M  V30 3024 C 286.498 -1.24256 -1.66058 0
M  V30 3025 C 286.923 0.188928 -1.87149 0
M  V30 3026 O 286.281 1.13522 -1.4136 0
M  V30 3027 C 286.329 -1.9924 -3.00559 0
M  V30 3028 O 285.433 -1.33007 -3.90362 0
M  V30 3029 H 284.774 -0.428973 -0.506831 0
M  V30 3030 H 287.304 -1.73521 -1.08404 0
M  V30 3031 H 287.314 -2.08854 -3.50491 0
M  V30 3032 H 285.989 -3.03342 -2.84528 0
M  V30 3033 H 284.566 -1.31848 -3.48813 0
M  V30 3034 N 286.751 1.08385 -1.14413 0
M  V30 3035 C 287.714 2.13486 -0.834048 0
M  V30 3036 C 288.714 1.59988 0.161418 0
M  V30 3037 O 289.904 1.74071 -0.0669575 0
M  V30 3038 C 287.036 3.4003 -0.243354 0
M  V30 3039 H 288.229 2.42425 -1.7655 0
M  V30 3040 H 285.782 1.24101 -0.950189 0
M  V30 3041 H 286.517 3.16726 0.696807 0
M  V30 3042 H 286.302 3.80157 -0.960367 0
M  V30 3043 H 287.792 4.17577 -0.0436242 0
M  V30 3044 N 288.23 0.939286 1.26551 0
M  V30 3045 C 289.476 0.596234 1.94465 0
M  V30 3046 C 289.831 -0.855013 1.72358 0
M  V30 3047 O 289.124 -1.6034 1.04889 0
M  V30 3048 C 289.318 0.872106 3.46596 0
M  V30 3049 C 289.147 2.34862 3.83497 0
M  V30 3050 C 287.917 3.00344 4.06352 0
M  V30 3051 C 290.115 3.32697 3.92195 0
M  V30 3052 N 288.097 4.38027 4.30123 0
M  V30 3053 C 289.468 4.55631 4.20476 0
M  V30 3054 C 291.523 3.27747 3.74815 0
M  V30 3055 C 290.226 5.74233 4.33185 0
M  V30 3056 C 292.252 4.45672 3.88755 0
M  V30 3057 C 291.614 5.67388 4.17433 0
M  V30 3058 H 287.713 0.268515 0.734455 0
M  V30 3059 H 290.297 1.2083 1.5267 0
M  V30 3060 H 288.468 0.289102 3.87323 0
M  V30 3061 H 290.2 0.490513 4.01716 0
M  V30 3062 H 286.955 2.50969 4.01636 0
M  V30 3063 H 287.379 5.09288 4.46044 0
M  V30 3064 H 292.021 2.34703 3.51673 0
M  V30 3065 H 289.739 6.67731 4.55149 0
M  V30 3066 H 293.325 4.43372 3.76713 0
M  V30 3067 H 292.205 6.57115 4.27983 0
M  V30 3068 N 289.708 -1.40897 0.706093 0
M  V30 3069 C 291.124 -1.55042 0.37869 0
M  V30 3070 C 291.324 -1.67944 -1.11342 0
M  V30 3071 O 290.38 -1.66372 -1.89938 0
M  V30 3072 C 291.693 -2.78398 1.13643 0
M  V30 3073 C 293.241 -2.92206 1.12181 0
M  V30 3074 C 293.716 -4.18463 1.86152 0
M  V30 3075 N 295.207 -4.25443 1.83173 0
M  V30 3076 C 295.942 -5.2202 2.37239 0
M  V30 3077 N 295.438 -6.24563 2.99821 0
M  V30 3078 N 297.231 -5.14033 2.27435 0
M  V30 3079 H 289.382 -1.30769 1.67372 0
M  V30 3080 H 291.645 -0.631653 0.706907 0
M  V30 3081 H 291.351 -2.7511 2.19106 0
M  V30 3082 H 291.225 -3.70228 0.721853 0
M  V30 3083 H 293.612 -2.95004 0.0754171 0
M  V30 3084 H 293.693 -2.01521 1.57554 0
M  V30 3085 H 293.337 -4.16427 2.90776 0
M  V30 3086 H 293.267 -5.08141 1.38206 0
M  V30 3087 H 295.758 -3.51976 1.37556 0
M  V30 3088 H 296.071 -6.94665 3.38616 0
M  V30 3089 H 294.416 -6.25035 3.03902 0
M  V30 3090 H 297.607 -4.3285 1.78208 0
M  V30 3091 H 297.78 -5.89129 2.69873 0
M  V30 3092 N 291.186 -0.45159 -1.50991 0
M  V30 3093 C 292.432 0.110237 -2.025 0
M  V30 3094 C 292.765 1.41109 -1.33424 0
M  V30 3095 O 292.04 1.89135 -0.453659 0
M  V30 3096 C 292.323 0.314271 -3.58726 0
M  V30 3097 C 292.176 -1.00623 -4.38401 0
M  V30 3098 C 293.495 1.07767 -4.26702 0
M  V30 3099 H 290.614 0.0385897 -0.735989 0
M  V30 3100 H 293.256 -0.593374 -1.80497 0
M  V30 3101 H 291.406 0.913601 -3.77605 0
M  V30 3102 H 293.078 -1.64064 -4.31139 0
M  V30 3103 H 291.321 -1.6075 -4.02917 0
M  V30 3104 H 291.992 -0.817341 -5.45915 0
M  V30 3105 H 294.468 0.56986 -4.12179 0
M  V30 3106 H 293.344 1.18921 -5.35863 0
M  V30 3107 H 293.605 2.10939 -3.88532 0
M  V30 3108 N 292.664 1.56529 -0.183458 0
M  V30 3109 C 293.91 1.98304 0.452466 0
M  V30 3110 C 294.265 1.06799 1.60037 0
M  V30 3111 O 293.558 0.110049 1.91284 0
M  V30 3112 C 293.752 3.43939 0.971637 0
M  V30 3113 C 293.581 4.49528 -0.124425 0
M  V30 3114 C 292.351 5.01981 -0.578168 0
M  V30 3115 C 294.549 5.05836 -0.929207 0
M  V30 3116 N 292.531 5.91219 -1.65327 0
M  V30 3117 C 293.902 5.91632 -1.85396 0
M  V30 3118 C 295.957 4.88302 -0.972929 0
M  V30 3119 C 294.66 6.61768 -2.81878 0
M  V30 3120 C 296.686 5.59168 -1.92574 0
M  V30 3121 C 296.048 6.44701 -2.83795 0
M  V30 3122 H 292.147 0.770551 0.133324 0
M  V30 3123 H 294.731 1.92581 -0.286473 0
M  V30 3124 H 292.902 3.50184 1.68006 0
M  V30 3125 H 294.634 3.72702 1.5772 0
M  V30 3126 H 291.389 4.73282 -0.173639 0
M  V30 3127 H 291.813 6.40543 -2.19167 0
M  V30 3128 H 296.455 4.21861 -0.28168 0
M  V30 3129 H 294.173 7.27415 -3.51984 0
M  V30 3130 H 297.759 5.47582 -1.96583 0
M  V30 3131 H 296.639 6.98573 -3.56322 0
M  V30 3132 N 294.142 -0.090211 1.57342 0
M  V30 3133 C 295.09 -1.12792 2.03422 0
M  V30 3134 C 296.084 -1.41182 0.936166 0
M  V30 3135 O 297.29 -1.40805 1.12133 0
M  V30 3136 H 293.665 -0.380986 0.648347 0
M  V30 3137 H 295.636 -0.71299 2.89757 0
M  V30 3138 C 294.385 -2.43855 2.47851 0
M  V30 3139 H 293.708 -2.22855 3.31927 0
M  V30 3140 H 295.148 -3.14955 2.83865 0
M  V30 3141 C 293.607 -3.08503 1.3538 0
M  V30 3142 O 294.137 -3.95805 0.685641 0
M  V30 3143 N 292.343 -2.68831 1.10355 0
M  V30 3144 H 291.89 -1.97929 1.64869 0
M  V30 3145 H 291.848 -3.12412 0.353031 0
M  V30 3146 N 295.62 -1.53406 -0.361157 0
M  V30 3147 C 296.845 -1.74024 -1.12829 0
M  V30 3148 C 297.27 -0.470069 -1.82132 0
M  V30 3149 O 296.628 0.57619 -1.719 0
M  V30 3150 C 296.676 -2.90903 -2.13091 0
M  V30 3151 O 295.78 -2.59821 -3.20261 0
M  V30 3152 H 295.121 -0.577804 -0.327168 0
M  V30 3153 H 297.651 -2.00307 -0.41693 0
M  V30 3154 H 297.661 -3.17194 -2.56616 0
M  V30 3155 H 296.336 -3.83034 -1.62042 0
M  V30 3156 H 294.913 -2.44362 -2.81677 0
M  V30 3157 N 297.098 0.621204 -1.44841 0
M  V30 3158 C 298.347 1.37658 -1.47422 0
M  V30 3159 C 298.66 1.95264 -0.114629 0
M  V30 3160 O 299.866 2.71494 -0.0180199 0
M  V30 3161 C 298.322 2.49285 -2.59586 0
M  V30 3162 C 297.93 1.98149 -4.01797 0
M  V30 3163 C 299.674 3.26409 -2.71399 0
M  V30 3164 C 297.581 3.07178 -5.05367 0
M  V30 3165 H 296.511 0.517344 -0.548517 0
M  V30 3166 H 299.162 0.667257 -1.70938 0
M  V30 3167 H 297.544 3.22839 -2.29328 0
M  V30 3168 H 298.718 1.31395 -4.41669 0
M  V30 3169 H 297.033 1.33812 -3.94314 0
M  V30 3170 H 299.63 4.07706 -3.45948 0
M  V30 3171 H 299.973 3.76535 -1.77559 0
M  V30 3172 H 300.506 2.5995 -3.01116 0
M  V30 3173 H 297.245 2.61985 -6.00869 0
M  V30 3174 H 296.765 3.72542 -4.70077 0
M  V30 3175 H 298.444 3.71789 -5.29511 0
M  V30 3176 N 298.576 1.31904 0.862503 0
M  V30 3177 C 299.806 1.24817 1.64634 0
M  V30 3178 C 300.214 -0.187579 1.88268 0
M  V30 3179 O 299.557 -1.13253 1.44635 0
M  V30 3180 C 299.619 1.92996 3.03303 0
M  V30 3181 C 299.283 3.42336 3.02746 0
M  V30 3182 C 300.28 4.37956 2.80162 0
M  V30 3183 C 297.965 3.84147 3.2363 0
M  V30 3184 C 299.959 5.73361 2.78453 0
M  V30 3185 C 297.646 5.19663 3.21549 0
M  V30 3186 C 298.644 6.14081 2.98988 0
M  V30 3187 O 298.332 7.47118 2.96766 0
M  V30 3188 H 298.064 0.432222 0.519769 0
M  V30 3189 H 300.618 1.7445 1.08427 0
M  V30 3190 H 298.848 1.37922 3.61268 0
M  V30 3191 H 300.537 1.79723 3.63943 0
M  V30 3192 H 301.303 4.06981 2.63802 0
M  V30 3193 H 297.182 3.11083 3.40218 0
M  V30 3194 H 300.726 6.4703 2.60763 0
M  V30 3195 H 296.623 5.5027 3.37451 0
M  V30 3196 H 297.391 7.56382 3.12775 0
M  V30 3197 N 300.054 -1.07777 1.14986 0
M  V30 3198 C 300.964 -2.18404 0.856546 0
M  V30 3199 C 301.98 -1.73211 -0.165485 0
M  V30 3200 O 303.156 -2.01399 0.00755219 0
M  V30 3201 C 300.221 -3.44977 0.34526 0
M  V30 3202 C 299.282 -4.0476 1.43065 0
M  V30 3203 C 298.515 -5.25291 0.943663 0
M  V30 3204 O 298.738 -5.70004 -0.212426 0
M  V30 3205 O 297.672 -5.76638 1.72547 0
M  V30 3206 H 301.498 -2.45978 1.78125 0
M  V30 3207 H 299.083 -1.17033 0.928631 0
M  V30 3208 H 300.965 -4.21348 0.0663671 0
M  V30 3209 H 299.64 -3.18965 -0.551631 0
M  V30 3210 H 298.547 -3.29949 1.76309 0
M  V30 3211 H 299.88 -4.35035 2.30229 0
M  V30 3212 N 301.532 -0.945985 -1.26051 0
M  V30 3213 C 302.442 -0.465633 -2.29933 0
M  V30 3214 C 303.458 0.462761 -1.67733 0
M  V30 3215 O 304.634 0.341118 -1.9849 0
M  V30 3216 C 301.699 0.256994 -3.45746 0
M  V30 3217 C 300.76 -0.708549 -4.23412 0
M  V30 3218 C 299.993 -0.0203135 -5.33696 0
M  V30 3219 O 300.216 1.19571 -5.57726 0
M  V30 3220 O 299.15 -0.701459 -5.97799 0
M  V30 3221 H 302.976 -1.32866 -2.73094 0
M  V30 3222 H 300.561 -0.712071 -1.31339 0
M  V30 3223 H 302.443 0.663852 -4.16138 0
M  V30 3224 H 301.118 1.09533 -3.04605 0
M  V30 3225 H 300.025 -1.16545 -3.55483 0
M  V30 3226 H 301.358 -1.51465 -4.68315 0
M  V30 3227 N 303.011 1.40521 -0.713556 0
M  V30 3228 C 303.959 2.32549 -0.0485227 0
M  V30 3229 C 304.953 1.51931 0.74922 0
M  V30 3230 O 306.159 1.67745 0.652816 0
M  V30 3231 H 302.534 0.751994 0.00311138 0
M  V30 3232 H 304.505 2.86291 -0.841443 0
M  V30 3233 C 303.254 3.36879 0.860687 0
M  V30 3234 H 302.577 3.98978 0.256246 0
M  V30 3235 H 304.017 4.03772 1.294 0
M  V30 3236 C 302.476 2.72197 1.9852 0
M  V30 3237 O 303.006 2.5837 3.07584 0
M  V30 3238 N 301.212 2.30612 1.76823 0
M  V30 3239 H 300.759 2.42059 0.881217 0
M  V30 3240 H 300.717 1.87672 2.52243 0
M  V30 3241 N 304.489 0.459591 1.5075 0
M  V30 3242 C 305.729 -0.09824 2.04164 0
M  V30 3243 C 306.093 -1.3801 1.33481 0
M  V30 3244 O 307.294 -2.01959 1.77387 0
M  V30 3245 C 305.565 -0.289467 3.56226 0
M  V30 3246 S 307.124 -0.807507 4.31306 0
M  V30 3247 H 303.942 -0.0213845 0.710678 0
M  V30 3248 H 306.544 0.624098 1.85271 0
M  V30 3249 H 305.248 0.649461 4.05229 0
M  V30 3250 H 304.779 -1.03825 3.79452 0
M  V30 3251 H 306.794 -2.0824 4.50389 0
M  V30 3252 N 305.967 -1.56429 0.191757 0
M  V30 3253 C 307.214 -1.97485 -0.447891 0
M  V30 3254 C 307.542 -1.07852 -1.61859 0
M  V30 3255 O 306.797 -0.116903 -1.95351 0
M  V30 3256 C 307.096 -3.44449 -0.953384 0
M  V30 3257 C 306.762 -4.50781 0.103586 0
M  V30 3258 C 305.424 -4.79584 0.394023 0
M  V30 3259 C 307.776 -5.1471 0.819946 0
M  V30 3260 C 305.104 -5.69607 1.40585 0
M  V30 3261 C 307.456 -6.05827 1.8209 0
M  V30 3262 C 306.12 -6.32987 2.11857 0
M  V30 3263 H 305.39 -0.722648 -0.163895 0
M  V30 3264 H 308.037 -1.89322 0.28802 0
M  V30 3265 H 306.342 -3.49666 -1.76751 0
M  V30 3266 H 308.039 -3.73569 -1.45765 0
M  V30 3267 H 304.629 -4.28394 -0.132951 0
M  V30 3268 H 308.813 -4.92552 0.608789 0
M  V30 3269 H 304.069 -5.88926 1.64243 0
M  V30 3270 H 308.243 -6.54424 2.38123 0
M  V30 3271 H 305.87 -7.02544 2.90407 0
M  V30 3272 N 307.445 0.0818655 -1.57387 0
M  V30 3273 C 308.392 1.09834 -2.0299 0
M  V30 3274 C 309.362 1.39043 -0.908639 0
M  V30 3275 O 310.547 1.50282 -1.17559 0
M  V30 3276 C 307.687 2.40971 -2.47037 0
M  V30 3277 C 306.8 2.18379 -3.7274 0
M  V30 3278 C 305.935 3.43008 -4.0561 0
M  V30 3279 C 304.974 3.15736 -5.24383 0
M  V30 3280 N 304.111 4.32667 -5.52941 0
M  V30 3281 H 308.951 0.702472 -2.89602 0
M  V30 3282 H 306.488 0.33531 -1.43227 0
M  V30 3283 H 308.446 3.1752 -2.70623 0
M  V30 3284 H 307.076 2.78379 -1.63417 0
M  V30 3285 H 306.128 1.32569 -3.56552 0
M  V30 3286 H 307.44 1.94227 -4.59431 0
M  V30 3287 H 306.594 4.27958 -4.30043 0
M  V30 3288 H 305.333 3.70225 -3.17466 0
M  V30 3289 H 304.338 2.2918 -4.99757 0
M  V30 3290 H 305.563 2.8985 -6.14136 0
M  V30 3291 H 303.509 4.59935 -4.67756 0
M  V30 3292 H 303.426 4.11753 -6.34031 0
M  V30 3293 H 304.694 5.18644 -5.81918 0
M  V30 3294 N 308.923 1.53595 0.353017 0
M  V30 3295 C 310.334 1.61937 0.929153 0
M  V30 3296 C 310.685 0.494686 1.89861 0
M  V30 3297 O 309.81 -0.377017 2.1309 0
M  V30 3298 C 310.405 2.93526 1.69199 0
M  V30 3299 C 308.964 3.04161 2.21727 0
M  V30 3300 C 308.111 2.57322 1.03348 0
M  V30 3301 H 311.062 1.58155 0.131431 0
M  V30 3302 H 311.083 2.82034 2.55416 0
M  V30 3303 H 310.595 3.75362 0.986144 0
M  V30 3304 H 308.696 2.26938 2.95516 0
M  V30 3305 H 308.809 4.09465 2.48748 0
M  V30 3306 H 307.173 2.12499 1.40414 0
M  V30 3307 H 307.956 3.41588 0.342428 0
M  V30 3308 N 310.401 -0.613514 1.45168 0
M  V30 3309 C 311.817 -0.933629 1.29443 0
M  V30 3310 C 312.017 -2.00028 0.243101 0
M  V30 3311 O 311.073 -2.49848 -0.364992 0
M  V30 3312 C 312.386 -1.38018 2.67155 0
M  V30 3313 C 313.934 -1.49471 2.75004 0
M  V30 3314 C 314.409 -1.97503 4.13227 0
M  V30 3315 N 315.9 -2.04746 4.15491 0
M  V30 3316 C 316.635 -2.43121 5.19307 0
M  V30 3317 N 316.131 -2.80506 6.33473 0
M  V30 3318 N 317.924 -2.43408 5.06664 0
M  V30 3319 H 310.075 0.0916097 2.12202 0
M  V30 3320 H 312.338 -0.0216655 0.947752 0
M  V30 3321 H 312.044 -0.670625 3.45247 0
M  V30 3322 H 311.918 -2.34784 2.95222 0
M  V30 3323 H 314.305 -2.19519 1.9722 0
M  V30 3324 H 314.386 -0.510342 2.50657 0
M  V30 3325 H 314.03 -1.28045 4.91495 0
M  V30 3326 H 313.96 -2.96843 4.34962 0
M  V30 3327 H 316.451 -1.78468 3.33103 0
M  V30 3328 H 316.764 -3.08652 7.08487 0
M  V30 3329 H 315.109 -2.78216 6.36884 0
M  V30 3330 H 318.3 -2.13604 4.16523 0
M  V30 3331 H 318.473 -2.72989 5.87691 0
M  V30 3332 N 311.879 -1.3236 -0.855495 0
M  V30 3333 C 313.104 -1.2601 -1.64731 0
M  V30 3334 C 313.529 0.169068 -1.87339 0
M  V30 3335 O 312.887 1.12016 -1.42556 0
M  V30 3336 C 312.935 -2.02417 -2.98429 0
M  V30 3337 O 312.039 -1.3714 -3.8893 0
M  V30 3338 H 311.38 -0.434325 -0.502253 0
M  V30 3339 H 313.91 -1.74661 -1.06558 0
M  V30 3340 H 313.92 -2.12559 -3.48257 0
M  V30 3341 H 312.595 -3.06343 -2.81295 0
M  V30 3342 H 311.172 -1.3554 -3.47395 0
M  V30 3343 N 313.357 1.07166 -1.15556 0
M  V30 3344 C 314.603 1.80065 -0.932984 0
M  V30 3345 C 314.936 1.86586 0.53845 0
M  V30 3346 O 314.211 1.35098 1.39924 0
M  V30 3347 C 314.494 3.25022 -1.55025 0
M  V30 3348 C 314.347 3.26634 -3.09242 0
M  V30 3349 C 315.666 4.22341 -1.2376 0
M  V30 3350 H 312.785 0.653697 -0.340366 0
M  V30 3351 H 315.427 1.25389 -1.4275 0
M  V30 3352 H 313.577 3.71712 -1.12972 0
M  V30 3353 H 315.249 2.88173 -3.60214 0
M  V30 3354 H 313.492 2.65539 -3.43033 0
M  V30 3355 H 314.163 4.28854 -3.47546 0
M  V30 3356 H 316.639 3.8405 -1.60139 0
M  V30 3357 H 315.515 5.22053 -1.69564 0
M  V30 3358 H 315.776 4.41828 -0.154938 0
M  V30 3359 N 314.835 0.952656 1.25548 0
M  V30 3360 C 316.065 0.622592 1.96996 0
M  V30 3361 C 316.473 -0.809112 1.71026 0
M  V30 3362 O 315.816 -1.55258 0.981861 0
M  V30 3363 C 315.878 0.798946 3.5051 0
M  V30 3364 C 315.542 2.20744 4.00151 0
M  V30 3365 C 316.539 3.18394 4.11001 0
M  V30 3366 C 314.224 2.5311 4.33867 0
M  V30 3367 C 316.218 4.46504 4.54877 0
M  V30 3368 C 313.905 3.8145 4.7743 0
M  V30 3369 C 314.903 4.77959 4.87897 0
M  V30 3370 O 314.591 6.04012 5.30494 0
M  V30 3371 H 314.323 0.232503 0.634758 0
M  V30 3372 H 316.877 1.2789 1.60728 0
M  V30 3373 H 315.107 0.0854903 3.86605 0
M  V30 3374 H 316.796 0.47023 4.03167 0
M  V30 3375 H 317.562 2.94715 3.85186 0
M  V30 3376 H 313.441 1.78719 4.24948 0
M  V30 3377 H 316.985 5.21835 4.62962 0
M  V30 3378 H 312.882 4.04936 5.0269 0
M  V30 3379 H 313.65 6.0736 5.48685 0
M  V30 3380 N 316.313 -1.40141 0.720998 0
M  V30 3381 C 317.729 -1.54632 0.395113 0
M  V30 3382 C 317.929 -1.69115 -1.09555 0
M  V30 3383 O 316.985 -1.68377 -1.88163 0
M  V30 3384 C 318.298 -2.77177 1.1659 0
M  V30 3385 C 319.846 -2.91 1.15274 0
M  V30 3386 C 320.321 -4.16465 1.90579 0
M  V30 3387 N 321.812 -4.23476 1.87675 0
M  V30 3388 C 322.547 -5.19475 2.42762 0
M  V30 3389 N 322.043 -6.21348 3.06428 0
M  V30 3390 N 323.836 -5.11592 2.32874 0
M  V30 3391 H 315.987 -1.28986 1.68749 0
M  V30 3392 H 318.25 -0.62412 0.713567 0
M  V30 3393 H 317.956 -2.72771 2.22011 0
M  V30 3394 H 317.83 -3.69442 0.76108 0
M  V30 3395 H 320.217 -2.94907 0.106702 0
M  V30 3396 H 320.298 -1.99838 1.59682 0
M  V30 3397 H 319.942 -4.1332 2.95176 0
M  V30 3398 H 319.872 -5.06646 1.43587 0
M  V30 3399 H 322.363 -3.50497 1.41281 0
M  V30 3400 H 322.676 -6.91034 3.45965 0
M  V30 3401 H 321.021 -6.21777 3.10514 0
M  V30 3402 H 324.212 -4.30936 1.82789 0
M  V30 3403 H 324.385 -5.86233 2.76106 0
M  V30 3404 N 317.792 -0.46758 -1.50504 0
M  V30 3405 C 319.203 -0.0116166 -1.86696 0
M  V30 3406 C 319.554 1.39202 -1.38265 0
M  V30 3407 O 318.679 2.0313 -0.746132 0
M  V30 3408 C 319.274 -0.0143044 -3.38797 0
M  V30 3409 C 317.833 0.386175 -3.74414 0
M  V30 3410 C 316.98 -0.401287 -2.74381 0
M  V30 3411 H 319.931 -0.682022 -1.43297 0
M  V30 3412 H 319.952 0.788641 -3.72237 0
M  V30 3413 H 319.464 -1.03602 -3.74016 0
M  V30 3414 H 317.565 1.41237 -3.44794 0
M  V30 3415 H 317.678 0.0899596 -4.79016 0
M  V30 3416 H 316.042 0.144536 -2.5429 0
M  V30 3417 H 316.825 -1.42244 -3.12444 0
M  V30 3418 N 319.27 1.56325 -0.20005 0
M  V30 3419 C 320.2 2.22318 0.713916 0
M  V30 3420 C 321.181 1.18788 1.21752 0
M  V30 3421 O 322.366 1.47309 1.26545 0
M  V30 3422 C 319.496 2.88639 1.93144 0
M  V30 3423 C 318.45 3.98457 1.56255 0
M  V30 3424 C 317.776 4.51967 2.85709 0
M  V30 3425 C 319.076 5.16612 0.768747 0
M  V30 3426 H 320.77 2.98952 0.163755 0
M  V30 3427 H 318.316 1.43792 0.0773219 0
M  V30 3428 H 320.269 3.33491 2.57608 0
M  V30 3429 H 318.993 2.09419 2.50621 0
M  V30 3430 H 317.652 3.54305 0.941471 0
M  V30 3431 H 317.3 3.69503 3.41287 0
M  V30 3432 H 317 5.26071 2.6177 0
M  V30 3433 H 318.524 4.99523 3.51154 0
M  V30 3434 H 319.938 5.57977 1.3166 0
M  V30 3435 H 318.335 5.96812 0.627286 0
M  V30 3436 H 319.405 4.84358 -0.229168 0
M  V30 3437 N 320.748 -0.0735177 1.57428 0
M  V30 3438 C 321.696 -1.10628 2.04607 0
M  V30 3439 C 322.69 -1.40181 0.951088 0
M  V30 3440 O 323.896 -1.39608 1.1362 0
M  V30 3441 H 320.271 -0.374088 0.652351 0
M  V30 3442 H 322.242 -0.682218 2.90497 0
M  V30 3443 C 320.991 -2.41212 2.50423 0
M  V30 3444 H 320.314 -2.19322 3.34272 0
M  V30 3445 H 321.754 -3.11927 2.87189 0
M  V30 3446 C 320.213 -3.0705 1.38644 0
M  V30 3447 O 320.743 -3.95056 0.727582 0
M  V30 3448 N 318.949 -2.67645 1.132 0
M  V30 3449 H 318.496 -1.96169 1.66959 0
M  V30 3450 H 318.454 -3.1202 0.386147 0
M  V30 3451 N 322.226 -1.5378 -0.344866 0
M  V30 3452 C 323.637 -1.62428 -0.920552 0
M  V30 3453 C 323.988 -0.504747 -1.89596 0
M  V30 3454 O 323.113 0.365711 -2.13287 0
M  V30 3455 C 323.708 -2.94419 -1.67639 0
M  V30 3456 C 322.267 -3.05333 -2.20111 0
M  V30 3457 C 321.414 -2.57866 -1.01982 0
M  V30 3458 H 324.365 -1.58222 -0.123042 0
M  V30 3459 H 324.386 -2.83384 -2.53917 0
M  V30 3460 H 323.898 -3.7588 -0.966224 0
M  V30 3461 H 321.999 -2.28502 -2.94308 0
M  V30 3462 H 322.112 -4.10778 -2.46573 0
M  V30 3463 H 320.476 -2.13241 -1.39285 0
M  V30 3464 H 321.259 -3.41765 -0.324308 0
M  V30 3465 N 323.704 0.605807 -1.45491 0
M  V30 3466 C 324.634 1.72709 -1.57143 0
M  V30 3467 C 325.615 1.6476 -0.422884 0
M  V30 3468 O 326.8 1.83132 -0.646247 0
M  V30 3469 C 323.93 3.11316 -1.53948 0
M  V30 3470 C 322.884 3.34077 -2.67537 0
M  V30 3471 C 322.21 4.72975 -2.49397 0
M  V30 3472 C 323.51 3.24158 -4.09535 0
M  V30 3473 H 325.204 1.63214 -2.51001 0
M  V30 3474 H 322.75 0.78379 -1.208 0
M  V30 3475 H 324.703 3.89557 -1.60696 0
M  V30 3476 H 323.427 3.21655 -0.566205 0
M  V30 3477 H 322.086 2.58227 -2.6022 0
M  V30 3478 H 321.734 4.8005 -1.50205 0
M  V30 3479 H 321.434 4.8916 -3.25571 0
M  V30 3480 H 322.958 5.53414 -2.58002 0
M  V30 3481 H 324.372 3.92271 -4.18086 0
M  V30 3482 H 322.769 3.51872 -4.86113 0
M  V30 3483 H 323.839 2.2157 -4.31317 0
M  V30 3484 N 325.182 1.32811 0.848464 0
M  V30 3485 C 326.145 1.22194 1.9391 0
M  V30 3486 C 327.145 0.143404 1.60159 0
M  V30 3487 O 328.335 0.394253 1.6968 0
M  V30 3488 C 325.467 0.88067 3.29328 0
M  V30 3489 H 326.66 2.19127 2.04752 0
M  V30 3490 H 324.213 1.16731 1.0394 0
M  V30 3491 H 324.948 -0.0865776 3.24184 0
M  V30 3492 H 324.733 1.66052 3.55203 0
M  V30 3493 H 326.223 0.830871 4.09251 0
M  V30 3494 N 326.66 -1.06551 1.16123 0
M  V30 3495 C 328.071 -1.60768 0.949232 0
M  V30 3496 C 328.422 -1.89523 -0.507508 0
M  V30 3497 O 327.547 -1.66671 -1.38021 0
M  V30 3498 C 328.142 -2.92086 1.71671 0
M  V30 3499 C 326.701 -3.43015 1.54977 0
M  V30 3500 C 325.848 -2.16947 1.72711 0
M  V30 3501 H 328.799 -0.895354 1.31031 0
M  V30 3502 H 328.82 -3.6138 1.19099 0
M  V30 3503 H 328.332 -2.71127 2.7769 0
M  V30 3504 H 326.433 -3.69039 0.513873 0
M  V30 3505 H 326.546 -4.18516 2.33198 0
M  V30 3506 H 324.91 -2.27041 1.15431 0
M  V30 3507 H 325.693 -1.98473 2.80113 0
M  V30 3508 N 328.138 -0.959301 -1.25041 0
M  V30 3509 C 329.363 -0.633507 -1.97488 0
M  V30 3510 C 329.788 0.788555 -1.70773 0
M  V30 3511 O 329.146 1.53394 -0.966431 0
M  V30 3512 C 329.194 -0.904057 -3.49083 0
M  V30 3513 O 328.298 0.0147939 -4.12397 0
M  V30 3514 H 327.639 -0.240368 -0.618966 0
M  V30 3515 H 330.169 -1.28717 -1.59038 0
M  V30 3516 H 330.179 -0.832203 -3.99423 0
M  V30 3517 H 328.854 -1.94048 -3.67856 0
M  V30 3518 H 327.431 -0.109664 -3.72739 0
M  V30 3519 N 329.616 1.39756 -0.72842 0
M  V30 3520 C 331.032 1.5442 -0.403308 0
M  V30 3521 C 331.232 1.69694 1.08656 0
M  V30 3522 O 330.288 1.69373 1.87267 0
M  V30 3523 C 331.601 2.76555 -1.18058 0
M  V30 3524 C 333.149 2.90384 -1.16815 0
M  V30 3525 C 333.624 4.15449 -1.92785 0
M  V30 3526 N 335.115 4.22475 -1.89918 0
M  V30 3527 C 335.85 5.1818 -2.45514 0
M  V30 3528 N 335.346 6.19714 -3.09719 0
M  V30 3529 N 337.139 5.1035 -2.35584 0
M  V30 3530 H 329.29 1.28089 -1.69431 0
M  V30 3531 H 331.553 0.620327 -0.716867 0
M  V30 3532 H 331.259 2.7159 -2.23455 0
M  V30 3533 H 331.133 3.69033 -0.780662 0
M  V30 3534 H 333.52 2.94846 -0.12234 0
M  V30 3535 H 333.601 1.98988 -1.6074 0
M  V30 3536 H 333.245 4.11749 -2.97364 0
M  V30 3537 H 333.175 5.05877 -1.46272 0
M  V30 3538 H 335.666 3.49743 -1.43138 0
M  V30 3539 H 335.979 6.8919 -3.49625 0
M  V30 3540 H 334.324 6.20121 -3.13807 0
M  V30 3541 H 337.515 4.2996 -1.85072 0
M  V30 3542 H 337.688 5.84761 -2.79211 0
M  V30 3543 N 331.094 0.475555 1.50254 0
M  V30 3544 C 332.342 -0.077738 2.0195 0
M  V30 3545 C 332.663 -1.39813 1.35931 0
M  V30 3546 O 331.933 -1.89249 0.506123 0
M  V30 3547 H 330.513 -0.031719 0.746326 0
M  V30 3548 H 333.175 0.626995 1.84539 0
M  V30 3549 H 332.271 -0.225995 3.11281 0
M  V30 3550 N 332.573 -1.56217 0.208337 0
M  V30 3551 C 333.483 -2.23316 -0.718836 0
M  V30 3552 C 334.499 -1.23648 -1.22422 0
M  V30 3553 O 335.675 -1.56423 -1.26861 0
M  V30 3554 C 332.74 -2.88968 -1.91568 0
M  V30 3555 C 331.801 -4.03943 -1.45357 0
M  V30 3556 C 331.034 -4.66455 -2.59337 0
M  V30 3557 O 331.257 -4.27919 -3.77149 0
M  V30 3558 O 330.191 -5.55686 -2.31293 0
M  V30 3559 H 334.017 -3.03182 -0.177315 0
M  V30 3560 H 331.602 -1.49384 -0.0215402 0
M  V30 3561 H 333.484 -3.30455 -2.61491 0
M  V30 3562 H 332.159 -2.12071 -2.44556 0
M  V30 3563 H 331.066 -3.67052 -0.722746 0
M  V30 3564 H 332.399 -4.82543 -0.970219 0
M  V30 3565 N 334.051 0.0651679 -1.57465 0
M  V30 3566 C 335.328 0.79644 -1.78651 0
M  V30 3567 C 335.708 1.95454 -0.797566 0
M  V30 3568 O 335.056 2.27882 0.167946 0
M  V30 3569 C 335.266 1.26322 -3.25337 0
M  V30 3570 C 336.614 1.6939 -3.89348 0
M  V30 3571 O 337.638 1.35872 -3.29268 0
M  V30 3572 O 336.497 2.31471 -4.95059 0
M  V30 3573 H 333.591 0.382157 -0.733407 0
M  V30 3574 H 336.137 0.0447311 -1.69641 0
M  V30 3575 H 334.909 0.434859 -3.88876 0
M  V30 3576 H 334.532 2.07604 -3.39096 0
M  V30 3577 N 335.529 1.53961 0.336706 0
M  V30 3578 C 336.806 1.62171 1.09361 0
M  V30 3579 C 337.186 0.447263 2.06307 0
M  V30 3580 O 336.534 -0.559802 2.21537 0
M  V30 3581 C 336.744 2.98565 1.80721 0
M  V30 3582 C 338.092 3.54157 2.34218 0
M  V30 3583 O 339.116 3.00784 1.90807 0
M  V30 3584 O 337.975 4.47528 3.13657 0
M  V30 3585 H 335.069 0.6562 0.503319 0
M  V30 3586 H 337.615 1.66307 0.33765 0
M  V30 3587 H 336.387 3.75482 1.10132 0
M  V30 3588 H 336.01 2.9805 2.63158 0
M  V30 3589 N 337.007 -0.598083 1.45811 0
M  V30 3590 C 338.255 -1.35413 1.50026 0
M  V30 3591 C 338.576 -1.94444 0.147177 0
M  V30 3592 O 337.846 -1.77701 -0.824571 0
M  V30 3593 H 336.426 -0.502727 0.552517 0
M  V30 3594 H 339.088 -0.701606 1.81834 0
M  V30 3595 H 338.184 -2.16871 2.2444 0
M  V30 3596 N 338.485 -1.33259 -0.841409 0
M  V30 3597 C 339.395 -1.25332 -1.98316 0
M  V30 3598 C 340.411 -0.164364 -1.73222 0
M  V30 3599 O 341.587 -0.387486 -1.97637 0
M  V30 3600 C 338.652 -0.990078 -3.32262 0
M  V30 3601 C 337.713 -2.16879 -3.70489 0
M  V30 3602 C 336.946 -1.91801 -4.98044 0
M  V30 3603 O 337.169 -0.867075 -5.63771 0
M  V30 3604 O 336.103 -2.78267 -5.33714 0
M  V30 3605 H 339.929 -2.21344 -2.07944 0
M  V30 3606 H 337.514 -1.1328 -0.974058 0
M  V30 3607 H 339.396 -0.860321 -4.12524 0
M  V30 3608 H 338.071 -0.0602155 -3.23644 0
M  V30 3609 H 336.978 -2.35407 -2.90748 0
M  V30 3610 H 338.311 -3.0819 -3.8377 0
M  V30 3611 N 339.963 1.05934 -1.16686 0
M  V30 3612 C 341.188 1.83029 -0.975455 0
M  V30 3613 C 341.613 1.82096 0.471452 0
M  V30 3614 O 340.971 1.22443 1.33706 0
M  V30 3615 C 341.019 3.27372 -1.51195 0
M  V30 3616 O 340.123 4.06054 -0.720701 0
M  V30 3617 H 339.464 0.566194 -0.346872 0
M  V30 3618 H 341.994 1.33541 -1.55009 0
M  V30 3619 H 342.004 3.78186 -1.53099 0
M  V30 3620 H 340.679 3.27366 -2.56523 0
M  V30 3621 H 339.256 3.64812 -0.772458 0
M  V30 3622 N 341.441 0.965919 1.2453 0
M  V30 3623 C 342.688 0.626831 1.92554 0
M  V30 3624 C 343.016 -0.837739 1.75534 0
M  V30 3625 O 342.271 -1.61793 1.10098 0
M  V30 3626 C 342.57 0.945428 3.44669 0
M  V30 3627 C 342.236 2.39785 3.81856 0
M  V30 3628 C 340.898 2.79483 3.91718 0
M  V30 3629 C 343.25 3.34055 4.00071 0
M  V30 3630 C 340.578 4.12496 4.1721 0
M  V30 3631 C 342.93 4.66694 4.27059 0
M  V30 3632 C 341.594 5.06172 4.3514 0
M  V30 3633 H 340.864 0.229374 0.704605 0
M  V30 3634 H 343.511 1.21707 1.4785 0
M  V30 3635 H 341.816 0.272926 3.90848 0
M  V30 3636 H 343.513 0.661484 3.95507 0
M  V30 3637 H 340.103 2.08003 3.74743 0
M  V30 3638 H 344.287 3.04571 3.91855 0
M  V30 3639 H 339.543 4.42709 4.21685 0
M  V30 3640 H 343.717 5.3971 4.40097 0
M  V30 3641 H 341.344 6.09262 4.54646 0
M  V30 3642 N 342.919 -1.39368 0.735821 0
M  V30 3643 C 344.149 -2.04498 0.293967 0
M  V30 3644 C 344.557 -1.55593 -1.07645 0
M  V30 3645 O 343.9 -0.716324 -1.69158 0
M  V30 3646 C 343.962 -3.58836 0.218342 0
M  V30 3647 C 343.626 -4.30721 1.52736 0
M  V30 3648 C 344.623 -4.57305 2.47322 0
M  V30 3649 C 342.308 -4.69251 1.79189 0
M  V30 3650 C 344.302 -5.21429 3.66593 0
M  V30 3651 C 341.989 -5.33104 2.98737 0
M  V30 3652 C 342.987 -5.59125 3.9226 0
M  V30 3653 O 342.675 -6.21653 5.09708 0
M  V30 3654 H 342.407 -0.664118 0.126189 0
M  V30 3655 H 344.961 -1.79385 1.00051 0
M  V30 3656 H 343.191 -3.8285 -0.544314 0
M  V30 3657 H 344.88 -4.05447 -0.191626 0
M  V30 3658 H 345.646 -4.27983 2.28156 0
M  V30 3659 H 341.525 -4.48354 1.07239 0
M  V30 3660 H 345.069 -5.41656 4.39607 0
M  V30 3661 H 340.966 -5.61846 3.17803 0
M  V30 3662 H 341.734 -6.40146 5.10054 0
M  V30 3663 N 344.397 -0.483516 -1.5 0
M  V30 3664 C 345.625 0.0644831 -2.06799 0
M  V30 3665 C 346.04 1.32399 -1.34596 0
M  V30 3666 O 345.397 1.77626 -0.418946 0
M  V30 3667 C 345.448 0.339927 -3.59898 0
M  V30 3668 O 345.169 -0.869635 -4.29382 0
M  V30 3669 C 346.67 0.933515 -4.33359 0
M  V30 3670 H 343.89 -0.0126333 -0.670881 0
M  V30 3671 H 346.434 -0.675864 -1.93009 0
M  V30 3672 H 344.589 1.03022 -3.7345 0
M  V30 3673 H 345.003 -0.62179 -5.20801 0
M  V30 3674 H 346.477 1.07593 -5.41413 0
M  V30 3675 H 346.954 1.92685 -3.94676 0
M  V30 3676 H 347.56 0.281221 -4.24369 0
M  V30 3677 N 345.875 1.56104 -0.216619 0
M  V30 3678 C 347.121 1.99219 0.410301 0
M  V30 3679 C 347.476 1.10169 1.57735 0
M  V30 3680 O 346.769 0.150598 1.91007 0
M  V30 3681 C 346.963 3.45923 0.898464 0
M  V30 3682 C 346.792 4.49163 -0.219748 0
M  V30 3683 C 345.562 5.00642 -0.684516 0
M  V30 3684 C 347.76 5.03751 -1.03629 0
M  V30 3685 N 345.742 5.87579 -1.7783 0
M  V30 3686 C 347.113 5.87566 -1.97904 0
M  V30 3687 C 349.168 4.86128 -1.07629 0
M  V30 3688 C 347.871 6.5564 -2.95851 0
M  V30 3689 C 349.897 5.54958 -2.04392 0
M  V30 3690 C 349.259 6.38536 -2.97407 0
M  V30 3691 H 345.358 0.773206 0.11695 0
M  V30 3692 H 347.942 1.9193 -0.327258 0
M  V30 3693 H 346.113 3.53669 1.6054 0
M  V30 3694 H 347.845 3.75963 1.49779 0
M  V30 3695 H 344.6 4.72807 -0.27399 0
M  V30 3696 H 345.024 6.3575 -2.32705 0
M  V30 3697 H 349.666 4.21168 -0.371099 0
M  V30 3698 H 347.384 7.19785 -3.67335 0
M  V30 3699 H 350.97 5.43289 -2.08154 0
M  V30 3700 H 349.85 6.90858 -3.71059 0
M  V30 3701 N 347.353 -0.0568162 1.57498 0
M  V30 3702 C 348.283 -1.06593 2.0775 0
M  V30 3703 C 349.264 -1.39448 0.974082 0
M  V30 3704 O 350.449 -1.48815 1.24771 0
M  V30 3705 C 347.579 -2.37509 2.5339 0
M  V30 3706 C 346.533 -2.1897 3.67745 0
M  V30 3707 C 345.859 -3.55402 3.99492 0
M  V30 3708 C 347.159 -1.59859 4.97235 0
M  V30 3709 H 348.853 -0.647706 2.9231 0
M  V30 3710 H 346.399 -0.310116 1.40621 0
M  V30 3711 H 348.352 -3.08409 2.87162 0
M  V30 3712 H 347.076 -2.8134 1.65878 0
M  V30 3713 H 345.735 -1.50508 3.3428 0
M  V30 3714 H 345.383 -3.9683 3.09088 0
M  V30 3715 H 345.083 -3.43831 4.76502 0
M  V30 3716 H 346.607 -4.27708 4.35773 0
M  V30 3717 H 348.021 -2.20642 5.29141 0
M  V30 3718 H 346.418 -1.58942 5.78669 0
M  V30 3719 H 347.488 -0.561506 4.81638 0
M  V30 3720 N 348.832 -1.54138 -0.328536 0
M  V30 3721 C 349.742 -1.86192 -1.42723 0
M  V30 3722 C 350.758 -0.753382 -1.56844 0
M  V30 3723 O 351.934 -1.04718 -1.72035 0
M  V30 3724 C 348.999 -2.07824 -2.77507 0
M  V30 3725 C 348.06 -3.31641 -2.72603 0
M  V30 3726 C 347.293 -3.52232 -4.00959 0
M  V30 3727 O 347.516 -2.7636 -4.9898 0
M  V30 3728 O 346.45 -4.45699 -4.0452 0
M  V30 3729 H 350.276 -2.79608 -1.18547 0
M  V30 3730 H 347.861 -1.3998 -0.522104 0
M  V30 3731 H 349.743 -2.23411 -3.57303 0
M  V30 3732 H 348.418 -1.17596 -3.01584 0
M  V30 3733 H 347.325 -3.21444 -1.91376 0
M  V30 3734 H 348.658 -4.2191 -2.53481 0
M  V30 3735 N 350.31 0.590341 -1.46126 0
M  V30 3736 C 351.558 1.34616 -1.50742 0
M  V30 3737 C 351.879 1.94363 -0.157486 0
M  V30 3738 O 351.149 1.78136 0.815136 0
M  V30 3739 H 349.729 0.499789 -0.555175 0
M  V30 3740 H 352.391 0.691953 -1.82203 0
M  V30 3741 H 351.487 2.15678 -2.25587 0
M  V30 3742 N 351.788 1.33704 0.83433 0
M  V30 3743 C 352.718 1.26967 1.95963 0
M  V30 3744 C 353.699 0.149337 1.69443 0
M  V30 3745 O 354.884 0.339852 1.91203 0
M  V30 3746 C 352.014 1.01275 3.32206 0
M  V30 3747 C 350.968 2.09652 3.73136 0
M  V30 3748 C 350.294 1.69166 5.07235 0
M  V30 3749 C 351.594 3.51372 3.86439 0
M  V30 3750 H 353.288 2.2112 2.01857 0
M  V30 3751 H 350.834 1.06447 0.969793 0
M  V30 3752 H 352.787 0.952106 4.10503 0
M  V30 3753 H 351.511 0.0356203 3.26581 0
M  V30 3754 H 350.17 2.14766 2.97104 0
M  V30 3755 H 349.818 0.701437 4.98085 0
M  V30 3756 H 349.518 2.41694 5.35591 0
M  V30 3757 H 351.042 1.64576 5.88003 0
M  V30 3758 H 352.456 3.48734 4.55036 0
M  V30 3759 H 350.853 4.22425 4.26236 0
M  V30 3760 H 351.923 3.89546 2.88759 0
M  V30 3761 N 353.266 -1.05314 1.17247 0
M  V30 3762 C 354.506 -1.79869 0.970898 0
M  V30 3763 C 354.87 -1.85594 -0.491808 0
M  V30 3764 O 356.071 -2.56229 -0.812409 0
M  V30 3765 C 354.342 -3.19937 1.59295 0
M  V30 3766 S 355.901 -4.10986 1.53741 0
M  V30 3767 H 352.719 -0.61949 0.348931 0
M  V30 3768 H 355.321 -1.26368 1.49169 0
M  V30 3769 H 354.025 -3.13372 2.65003 0
M  V30 3770 H 353.556 -3.78515 1.07191 0
M  V30 3771 H 355.571 -4.93203 0.544537 0
M  V30 3772 N 354.744 -0.972509 -1.24016 0
M  V30 3773 C 355.674 -0.525548 -2.27509 0
M  V30 3774 C 356.655 0.437262 -1.64384 0
M  V30 3775 O 357.84 0.332343 -1.91335 0
M  V30 3776 C 354.97 0.180448 -3.46831 0
M  V30 3777 C 353.924 -0.698859 -4.22256 0
M  V30 3778 C 353.25 0.138903 -5.3452 0
M  V30 3779 C 354.55 -1.98582 -4.83076 0
M  V30 3780 H 356.244 -1.39058 -2.65148 0
M  V30 3781 H 353.79 -0.67009 -1.27459 0
M  V30 3782 H 355.743 0.504387 -4.18371 0
M  V30 3783 H 354.467 1.07987 -3.08231 0
M  V30 3784 H 353.126 -1.00614 -3.52523 0
M  V30 3785 H 352.774 1.03862 -4.9216 0
M  V30 3786 H 352.474 -0.446259 -5.85903 0
M  V30 3787 H 353.998 0.457404 -6.08884 0
M  V30 3788 H 355.412 -1.72715 -5.46665 0
M  V30 3789 H 353.809 -2.5181 -5.44713 0
M  V30 3790 H 354.879 -2.67769 -4.04262 0
M  V30 3791 N 356.222 1.38976 -0.743202 0
M  V30 3792 C 357.132 2.3434 -0.110399 0
M  V30 3793 C 358.148 1.58741 0.712559 0
M  V30 3794 O 359.324 1.9099 0.639125 0
M  V30 3795 C 356.389 3.37812 0.780012 0
M  V30 3796 C 355.45 4.29263 -0.0561319 0
M  V30 3797 C 354.683 5.27793 0.791875 0
M  V30 3798 O 354.906 5.33043 2.03031 0
M  V30 3799 O 353.84 6.01512 0.216183 0
M  V30 3800 H 357.666 2.90129 -0.897714 0
M  V30 3801 H 355.251 1.40643 -0.503966 0
M  V30 3802 H 357.133 4.01194 1.28923 0
M  V30 3803 H 355.808 2.84395 1.546 0
M  V30 3804 H 354.715 3.69076 -0.611056 0
M  V30 3805 H 356.048 4.85907 -0.784531 0
M  V30 3806 N 357.7 0.491464 1.49741 0
M  V30 3807 C 358.647 -0.292027 2.28945 0
M  V30 3808 C 359.617 -0.968973 1.34908 0
M  V30 3809 O 360.802 -0.97748 1.6386 0
M  V30 3810 C 357.942 -1.35617 3.17336 0
M  V30 3811 C 357.055 -0.691957 4.26422 0
M  V30 3812 C 356.19 -1.73572 5.02042 0
M  V30 3813 C 355.229 -1.05286 6.02977 0
M  V30 3814 N 354.366 -2.0404 6.71798 0
M  V30 3815 H 359.206 0.389654 2.95442 0
M  V30 3816 H 356.743 0.204003 1.45679 0
M  V30 3817 H 358.701 -1.98502 3.66951 0
M  V30 3818 H 357.331 -2.00674 2.52844 0
M  V30 3819 H 356.383 0.0499523 3.80367 0
M  V30 3820 H 357.695 -0.153946 4.98562 0
M  V30 3821 H 356.849 -2.43987 5.55478 0
M  V30 3822 H 355.588 -2.30757 4.29654 0
M  V30 3823 H 354.593 -0.334446 5.48782 0
M  V30 3824 H 355.818 -0.487636 6.77347 0
M  V30 3825 H 353.764 -2.60205 6.02187 0
M  V30 3826 H 353.681 -1.55279 7.39881 0
M  V30 3827 H 354.949 -2.73772 7.29842 0
M  V30 3828 N 359.178 -1.55987 0.224894 0
M  V30 3829 C 360.594 -1.59066 -0.130426 0
M  V30 3830 C 360.794 -1.24176 -1.5869 0
M  V30 3831 O 359.85 -0.978592 -2.32766 0
M  V30 3832 C 361.163 -3.00042 0.198883 0
M  V30 3833 C 362.711 -3.1268 0.141391 0
M  V30 3834 C 363.186 -4.55839 0.444422 0
M  V30 3835 N 364.677 -4.6152 0.394115 0
M  V30 3836 C 365.412 -5.70231 0.602038 0
M  V30 3837 N 364.908 -6.87291 0.871914 0
M  V30 3838 N 366.701 -5.59555 0.534245 0
M  V30 3839 H 358.852 -1.76941 1.17497 0
M  V30 3840 H 361.115 -0.822604 0.471197 0
M  V30 3841 H 360.821 -3.30234 1.2099 0
M  V30 3842 H 360.695 -3.74075 -0.484535 0
M  V30 3843 H 363.082 -2.82283 -0.860265 0
M  V30 3844 H 363.163 -2.40969 0.858335 0
M  V30 3845 H 362.807 -4.86954 1.44353 0
M  V30 3846 H 362.737 -5.2578 -0.293752 0
M  V30 3847 H 365.228 -3.77405 0.193356 0
M  V30 3848 H 365.541 -7.66058 1.01858 0
M  V30 3849 H 363.886 -6.89028 0.909145 0
M  V30 3850 H 367.077 -4.6698 0.323612 0
M  V30 3851 H 367.25 -6.44211 0.699693 0
M  V30 3852 N 360.656 0.0484629 -1.57525 0
M  V30 3853 C 361.902 0.744226 -1.88651 0
M  V30 3854 C 362.235 1.76029 -0.820212 0
M  V30 3855 O 361.51 1.93782 0.166985 0
M  V30 3856 C 361.793 1.43128 -3.30434 0
M  V30 3857 C 361.646 0.43005 -4.47739 0
M  V30 3858 C 362.965 2.37031 -3.70816 0
M  V30 3859 H 360.084 0.269089 -0.68612 0
M  V30 3860 H 362.726 0.00713532 -1.89999 0
M  V30 3861 H 360.876 2.05956 -3.29415 0
M  V30 3862 H 362.548 -0.194816 -4.60888 0
M  V30 3863 H 360.791 -0.252522 -4.33064 0
M  V30 3864 H 361.462 0.948874 -5.43783 0
M  V30 3865 H 363.938 1.84263 -3.73077 0
M  V30 3866 H 362.814 2.82094 -4.70865 0
M  V30 3867 H 363.075 3.22864 -3.02012 0
M  V30 3868 N 362.134 1.5431 0.320358 0
M  V30 3869 C 363.381 1.72668 1.05792 0
M  V30 3870 C 363.709 0.502084 1.87908 0
M  V30 3871 O 362.964 -0.516149 1.88771 0
M  V30 3872 C 363.263 2.95639 2.00828 0
M  V30 3873 C 362.929 4.30265 1.34843 0
M  V30 3874 C 361.591 4.66865 1.16578 0
M  V30 3875 C 363.943 5.13801 0.875095 0
M  V30 3876 C 361.271 5.84597 0.496336 0
M  V30 3877 C 363.623 6.32219 0.219463 0
M  V30 3878 C 362.287 6.67495 0.0246915 0
M  V30 3879 H 361.557 0.631837 0.387121 0
M  V30 3880 H 364.204 1.88552 0.334735 0
M  V30 3881 H 362.509 2.74456 2.79609 0
M  V30 3882 H 364.206 3.07038 2.57932 0
M  V30 3883 H 360.796 4.01472 1.50061 0
M  V30 3884 H 364.98 4.86039 1.00398 0
M  V30 3885 H 360.236 6.10486 0.334264 0
M  V30 3886 H 364.41 6.96227 -0.155291 0
M  V30 3887 H 362.037 7.5858 -0.496065 0
M  V30 3888 N 363.613 -0.582584 1.46437 0
M  V30 3889 C 364.843 -1.36484 1.55099 0
M  V30 3890 C 365.251 -1.88233 0.191056 0
M  V30 3891 O 364.594 -1.6429 -0.821858 0
M  V30 3892 C 364.656 -2.588 2.49525 0
M  V30 3893 C 364.32 -2.28517 3.95764 0
M  V30 3894 C 365.317 -1.87346 4.84972 0
M  V30 3895 C 363.002 -2.40658 4.40896 0
M  V30 3896 C 364.996 -1.5871 6.17325 0
M  V30 3897 C 362.683 -2.11635 5.73284 0
M  V30 3898 C 363.681 -1.70725 6.61318 0
M  V30 3899 O 363.369 -1.42057 7.91249 0
M  V30 3900 H 363.101 -0.423297 0.527063 0
M  V30 3901 H 365.655 -0.715188 1.92547 0
M  V30 3902 H 363.885 -3.26571 2.07095 0
M  V30 3903 H 365.574 -3.20868 2.48593 0
M  V30 3904 H 366.34 -1.77481 4.5136 0
M  V30 3905 H 362.219 -2.71463 3.72598 0
M  V30 3906 H 365.763 -1.26704 6.85997 0
M  V30 3907 H 361.66 -2.21124 6.06444 0
M  V30 3908 H 362.428 -1.55901 8.03515 0
M  V30 3909 N 365.091 -1.34144 -0.827227 0
M  V30 3910 C 366.038 -1.25364 -1.93785 0
M  V30 3911 C 367.008 -0.129774 -1.65592 0
M  V30 3912 O 368.193 -0.310024 -1.88264 0
M  V30 3913 C 365.333 -1.01064 -3.2997 0
M  V30 3914 C 364.446 -2.22185 -3.70484 0
M  V30 3915 C 363.581 -1.91203 -4.95595 0
M  V30 3916 C 362.62 -3.08491 -5.28677 0
M  V30 3917 N 361.757 -2.77421 -6.44967 0
M  V30 3918 H 366.597 -2.20347 -2.00627 0
M  V30 3919 H 364.134 -1.09558 -0.981608 0
M  V30 3920 H 366.092 -0.850139 -4.08446 0
M  V30 3921 H 364.722 -0.0975026 -3.22653 0
M  V30 3922 H 363.774 -2.4917 -2.87434 0
M  V30 3923 H 365.086 -3.0983 -3.90905 0
M  V30 3924 H 364.24 -1.71864 -5.81848 0
M  V30 3925 H 362.979 -1.00812 -4.77167 0
M  V30 3926 H 361.984 -3.28431 -4.40923 0
M  V30 3927 H 363.209 -3.99655 -5.49047 0
M  V30 3928 H 361.155 -1.89601 -6.28003 0
M  V30 3929 H 361.072 -3.58598 -6.6554 0
M  V30 3930 H 362.34 -2.61577 -7.34301 0
M  V30 3931 N 366.569 1.04691 -1.17803 0
M  V30 3932 C 367.499 2.14494 -0.92275 0
M  V30 3933 C 368.48 1.69546 0.137179 0
M  V30 3934 O 369.665 1.94195 -0.0141108 0
M  V30 3935 C 366.795 3.44491 -0.440803 0
M  V30 3936 C 365.749 4.03031 -1.4405 0
M  V30 3937 C 365.075 5.28432 -0.81631 0
M  V30 3938 C 366.375 4.39932 -2.81527 0
M  V30 3939 H 368.069 2.36107 -1.84103 0
M  V30 3940 H 365.615 1.1347 -0.886599 0
M  V30 3941 H 367.568 4.2066 -0.249602 0
M  V30 3942 H 366.292 3.22546 0.513025 0
M  V30 3943 H 364.951 3.28937 -1.61853 0
M  V30 3944 H 364.599 5.02792 0.144511 0
M  V30 3945 H 364.299 5.68559 -1.48371 0
M  V30 3946 H 365.823 6.07284 -0.635496 0
M  V30 3947 H 367.237 5.07113 -2.67412 0
M  V30 3948 H 365.634 4.9109 -3.44892 0
M  V30 3949 H 366.704 3.50045 -3.35554 0
M  V30 3950 N 368.047 0.979072 1.23499 0
M  V30 3951 C 369.296 0.642751 1.91185 0
M  V30 3952 C 369.609 -0.827253 1.77245 0
M  V30 3953 O 370.815 -1.27458 2.39722 0
M  V30 3954 C 369.271 1.09901 3.42709 0
M  V30 3955 C 368.879 2.59327 3.65313 0
M  V30 3956 C 370.623 0.836371 4.16179 0
M  V30 3957 C 368.53 2.98627 5.10467 0
M  V30 3958 H 367.46 0.236698 0.715884 0
M  V30 3959 H 370.111 1.1868 1.39955 0
M  V30 3960 H 368.493 0.48319 3.93041 0
M  V30 3961 H 369.667 3.26136 3.25533 0
M  V30 3962 H 367.982 2.83323 3.05151 0
M  V30 3963 H 370.579 1.10586 5.23139 0
M  V30 3964 H 370.922 -0.227509 4.15678 0
M  V30 3965 H 371.455 1.41371 3.71832 0
M  V30 3966 H 368.194 4.04133 5.16098 0
M  V30 3967 H 367.714 2.3651 5.51201 0
M  V30 3968 H 369.393 2.89159 5.78788 0
M  V30 3969 N 369.525 -1.3858 0.750561 0
M  V30 3970 C 370.75 -2.04997 0.314812 0
M  V30 3971 C 371.175 -1.56235 -1.04749 0
M  V30 3972 O 370.533 -0.712981 -1.66692 0
M  V30 3973 C 370.581 -3.58961 0.343415 0
M  V30 3974 O 369.685 -4.07025 -0.663628 0
M  V30 3975 H 369.026 -0.649081 0.139962 0
M  V30 3976 H 371.556 -1.77313 1.02084 0
M  V30 3977 H 371.566 -4.07542 0.193233 0
M  V30 3978 H 370.241 -3.93811 1.33738 0
M  V30 3979 H 368.818 -3.6982 -0.478307 0
M  V30 3980 N 371.003 -0.499398 -1.49478 0
M  V30 3981 C 372.251 0.0455996 -2.02049 0
M  V30 3982 C 372.572 1.37633 -1.38138 0
M  V30 3983 O 371.842 1.8842 -0.536166 0
M  V30 3984 H 370.422 0.0198416 -0.746736 0
M  V30 3985 H 373.084 -0.656274 -1.83519 0
M  V30 3986 H 372.18 0.176445 -3.11601 0
M  V30 3987 N 372.481 1.55866 -0.233164 0
M  V30 3988 C 373.411 2.23783 0.666599 0
M  V30 3989 C 374.392 1.21343 1.19205 0
M  V30 3990 O 375.577 1.4996 1.23392 0
M  V30 3991 C 372.707 2.92671 1.86978 0
M  V30 3992 C 371.661 4.01682 1.47768 0
M  V30 3993 C 370.987 4.57926 2.76058 0
M  V30 3994 C 372.287 5.18126 0.658993 0
M  V30 3995 H 373.981 2.99232 0.100306 0
M  V30 3996 H 371.527 1.43924 0.046804 0
M  V30 3997 H 373.48 3.3888 2.50476 0
M  V30 3998 H 372.204 2.14688 2.46123 0
M  V30 3999 H 370.863 3.56222 0.866106 0
M  V30 4000 H 370.511 3.76659 3.33372 0
M  V30 4001 H 370.211 5.31505 2.50552 0
M  V30 4002 H 371.735 5.06859 3.40479 0
M  V30 4003 H 373.149 5.60644 1.19795 0
M  V30 4004 H 371.546 5.98009 0.500552 0
M  V30 4005 H 372.616 4.83763 -0.331856 0
M  V30 4006 N 373.959 -0.0401083 1.57549 0
M  V30 4007 C 374.909 -1.05175 2.02292 0
M  V30 4008 C 375.893 -1.32674 0.910294 0
M  V30 4009 O 377.085 -1.32444 1.17421 0
M  V30 4010 C 374.214 -2.35622 2.49674 0
M  V30 4011 C 373.3 -2.11261 3.67736 0
M  V30 4012 N 373.691 -1.56923 4.80842 0
M  V30 4013 C 371.989 -2.41596 3.74897 0
M  V30 4014 C 372.69 -1.48111 5.62528 0
M  V30 4015 N 371.666 -1.95282 5.07312 0
M  V30 4016 H 375.468 -0.625455 2.87168 0
M  V30 4017 H 372.982 -0.246624 1.60516 0
M  V30 4018 H 374.979 -3.08893 2.79983 0
M  V30 4019 H 373.639 -2.7894 1.662 0
M  V30 4020 H 374.65 -1.25345 5.02503 0
M  V30 4021 H 371.327 -2.88064 3.02201 0
M  V30 4022 H 372.717 -1.06683 6.63377 0
M  V30 4023 N 375.437 -1.54477 -0.31217 0
M  V30 4024 C 376.4 -1.83923 -1.36766 0
M  V30 4025 C 377.4 -0.711563 -1.44199 0
M  V30 4026 O 378.59 -0.979866 -1.44029 0
M  V30 4027 C 375.722 -2.0095 -2.75376 0
M  V30 4028 H 376.915 -2.78239 -1.11906 0
M  V30 4029 H 374.468 -1.46369 -0.548257 0
M  V30 4030 H 375.203 -1.08883 -3.05475 0
M  V30 4031 H 374.988 -2.83018 -2.71373 0
M  V30 4032 H 376.478 -2.2514 -3.51713 0
M  V30 4033 N 376.915 0.57481 -1.46744 0
M  V30 4034 C 378.14 1.36341 -1.56288 0
M  V30 4035 C 378.565 1.86954 -0.207347 0
M  V30 4036 O 377.923 1.62006 0.813871 0
M  V30 4037 C 377.971 2.52147 -2.57787 0
M  V30 4038 O 377.075 3.53834 -2.11838 0
M  V30 4039 H 376.416 0.405713 -0.525636 0
M  V30 4040 H 378.946 0.696453 -1.92382 0
M  V30 4041 H 378.956 2.98958 -2.77648 0
M  V30 4042 H 377.631 2.14663 -3.5622 0
M  V30 4043 H 376.208 3.1345 -2.01999 0
M  V30 4044 N 378.394 1.34581 0.820102 0
M  V30 4045 C 379.643 1.26437 1.57151 0
M  V30 4046 C 379.956 -0.163111 1.94919 0
M  V30 4047 O 381.162 -0.366722 2.69012 0
M  V30 4048 C 379.618 2.21658 2.83541 0
M  V30 4049 C 379.226 3.69679 2.53065 0
M  V30 4050 C 380.97 2.22428 3.61561 0
M  V30 4051 C 378.877 4.56761 3.75664 0
M  V30 4052 H 377.807 0.469707 0.589823 0
M  V30 4053 H 380.458 1.59763 0.902656 0
M  V30 4054 H 378.84 1.81287 3.52067 0
M  V30 4055 H 380.014 4.18605 1.92631 0
M  V30 4056 H 378.329 3.71384 1.88316 0
M  V30 4057 H 380.926 2.8471 4.52597 0
M  V30 4058 H 381.269 1.22434 3.97889 0
M  V30 4059 H 381.802 2.61259 2.99981 0
M  V30 4060 H 378.541 5.57702 3.44454 0
M  V30 4061 H 378.061 4.12568 4.35371 0
M  V30 4062 H 379.74 4.71509 4.43044 0
M  V30 4063 N 379.872 -1.04064 1.18357 0
M  V30 4064 C 380.82 -2.14187 0.907007 0
M  V30 4065 C 381.814 -1.68879 -0.132725 0
M  V30 4066 O 383.02 -1.79993 0.0154248 0
M  V30 4067 H 379.395 -0.699585 0.275835 0
M  V30 4068 H 381.366 -2.34711 1.84264 0
M  V30 4069 C 380.115 -3.44785 0.449254 0
M  V30 4070 H 379.438 -3.80058 1.24081 0
M  V30 4071 H 380.878 -4.22974 0.294737 0
M  V30 4072 C 379.337 -3.26391 -0.834909 0
M  V30 4073 O 379.867 -3.53973 -1.89911 0
M  V30 4074 N 378.073 -2.79726 -0.787523 0
M  V30 4075 H 377.62 -2.5748 0.0787347 0
M  V30 4076 H 377.578 -2.67798 -1.64716 0
M  V30 4077 N 381.35 -0.985608 -1.22978 0
M  V30 4078 C 382.28 -0.549649 -2.26939 0
M  V30 4079 C 383.261 0.419803 -1.64838 0
M  V30 4080 O 384.446 0.31203 -1.91677 0
M  V30 4081 C 381.576 0.143652 -3.47003 0
M  V30 4082 C 380.53 -0.743606 -4.21491 0
M  V30 4083 C 379.856 0.0822027 -5.34637 0
M  V30 4084 C 381.156 -2.03694 -4.80943 0
M  V30 4085 H 382.85 -1.41862 -2.63658 0
M  V30 4086 H 380.396 -0.683571 -1.26741 0
M  V30 4087 H 382.349 0.459985 -4.18882 0
M  V30 4088 H 381.073 1.04711 -3.09359 0
M  V30 4089 H 379.732 -1.04347 -3.51436 0
M  V30 4090 H 379.38 0.986359 -4.93234 0
M  V30 4091 H 379.08 -0.508377 -5.85397 0
M  V30 4092 H 380.604 0.392797 -6.09335 0
M  V30 4093 H 382.018 -1.78504 -5.44802 0
M  V30 4094 H 380.415 -2.57573 -5.42011 0
M  V30 4095 H 381.485 -2.72042 -4.01399 0
M  V30 4096 N 382.828 1.3818 -0.7579 0
M  V30 4097 C 383.778 2.27741 -0.108674 0
M  V30 4098 C 384.762 1.45415 0.688709 0
M  V30 4099 O 385.954 1.68108 0.553956 0
M  V30 4100 C 383.083 3.34313 0.780367 0
M  V30 4101 C 382.169 4.24093 -0.0240977 0
M  V30 4102 N 382.56 4.9451 -1.06271 0
M  V30 4103 C 380.858 4.45542 0.202049 0
M  V30 4104 C 381.559 5.60675 -1.54979 0
M  V30 4105 N 380.535 5.36684 -0.864348 0
M  V30 4106 H 384.337 2.79649 -0.904071 0
M  V30 4107 H 381.851 1.51133 -0.594346 0
M  V30 4108 H 383.848 3.97368 1.26114 0
M  V30 4109 H 382.508 2.83962 1.57467 0
M  V30 4110 H 383.519 4.97345 -1.44459 0
M  V30 4111 H 380.196 4.06091 0.96935 0
M  V30 4112 H 381.586 6.26992 -2.41517 0
M  V30 4113 N 384.306 0.507319 1.49211 0
M  V30 4114 C 385.236 -0.256939 2.32082 0
M  V30 4115 C 386.217 -0.956609 1.40652 0
M  V30 4116 O 387.402 -0.946788 1.69557 0
M  V30 4117 C 384.532 -1.31802 3.21318 0
M  V30 4118 C 383.486 -0.737855 4.21592 0
M  V30 4119 C 382.812 -1.89992 4.99807 0
M  V30 4120 C 384.112 0.275325 5.21574 0
M  V30 4121 H 385.806 0.434798 2.96226 0
M  V30 4122 H 383.352 0.210546 1.42452 0
M  V30 4123 H 385.305 -1.86045 3.78107 0
M  V30 4124 H 384.029 -2.03903 2.5513 0
M  V30 4125 H 382.688 -0.217126 3.65956 0
M  V30 4126 H 382.336 -2.60877 4.30061 0
M  V30 4127 H 382.036 -1.51777 5.6766 0
M  V30 4128 H 383.56 -2.44657 5.59442 0
M  V30 4129 H 384.974 -0.179193 5.7302 0
M  V30 4130 H 383.371 0.573649 5.97352 0
M  V30 4131 H 384.441 1.18903 4.70096 0
M  V30 4132 N 385.784 -1.5574 0.241426 0
M  V30 4133 C 387.024 -2.00714 -0.38644 0
M  V30 4134 C 387.388 -1.12586 -1.55526 0
M  V30 4135 O 388.589 -1.46992 -2.25048 0
M  V30 4136 C 386.86 -3.48534 -0.791128 0
M  V30 4137 S 388.419 -4.15519 -1.41029 0
M  V30 4138 H 385.237 -0.700484 -0.121834 0
M  V30 4139 H 387.839 -1.92243 0.355377 0
M  V30 4140 H 386.543 -4.10342 0.0689225 0
M  V30 4141 H 386.074 -3.6092 -1.56526 0
M  V30 4142 H 388.089 -4.16352 -2.69936 0
M  V30 4143 N 387.262 0.0317525 -1.57568 0
M  V30 4144 C 388.225 1.01783 -2.0536 0
M  V30 4145 C 389.225 1.29203 -0.957253 0
M  V30 4146 O 390.415 1.24251 -1.22095 0
M  V30 4147 C 387.547 2.35137 -2.46827 0
M  V30 4148 H 388.74 0.605062 -2.93733 0
M  V30 4149 H 386.293 0.278514 -1.53799 0
M  V30 4150 H 387.028 2.81168 -1.61602 0
M  V30 4151 H 386.813 2.16566 -3.26866 0
M  V30 4152 H 388.303 3.05938 -2.84239 0
M  V30 4153 N 388.74 1.54641 0.303973 0
M  V30 4154 C 389.688 1.86137 1.39484 0
M  V30 4155 C 390.682 0.734854 1.52631 0
M  V30 4156 O 391.888 0.918803 1.54784 0
M  V30 4157 H 388.263 0.590324 0.465856 0
M  V30 4158 H 390.234 2.77324 1.10154 0
M  V30 4159 C 388.983 2.12274 2.75382 0
M  V30 4160 H 388.306 2.98429 2.66046 0
M  V30 4161 H 389.746 2.38254 3.5073 0
M  V30 4162 C 388.205 0.920365 3.24085 0
M  V30 4163 O 388.735 0.139377 4.01458 0
M  V30 4164 N 386.941 0.726566 2.81371 0
M  V30 4165 H 386.488 1.36332 2.18567 0
M  V30 4166 H 386.446 -0.0763799 3.14307 0
M  V30 4167 N 390.218 -0.567019 1.47046 0
M  V30 4168 C 391.448 -1.34831 1.56538 0
M  V30 4169 C 391.856 -1.8802 0.21101 0
M  V30 4170 O 391.199 -1.65152 -0.804387 0
M  V30 4171 C 391.261 -2.56139 2.52256 0
M  V30 4172 C 390.925 -2.24307 3.98165 0
M  V30 4173 C 391.922 -1.82192 4.86931 0
M  V30 4174 C 389.607 -2.35968 4.43423 0
M  V30 4175 C 391.601 -1.52153 6.18973 0
M  V30 4176 C 389.288 -2.05542 5.75496 0
M  V30 4177 C 390.286 -1.63701 6.63092 0
M  V30 4178 O 389.974 -1.33657 7.92711 0
M  V30 4179 H 389.706 -0.417683 0.531523 0
M  V30 4180 H 392.26 -0.694726 1.93294 0
M  V30 4181 H 390.49 -3.24356 2.10548 0
M  V30 4182 H 392.179 -3.18214 2.51982 0
M  V30 4183 H 392.945 -1.72684 4.53217 0
M  V30 4184 H 388.824 -2.67495 3.75456 0
M  V30 4185 H 392.368 -1.19421 6.87302 0
M  V30 4186 H 388.265 -2.14679 6.08755 0
M  V30 4187 H 389.033 -1.4737 8.05124 0
M  V30 4188 N 391.696 -1.35014 -0.812953 0
M  V30 4189 C 392.626 -1.30069 -1.93919 0
M  V30 4190 C 393.607 -0.176275 -1.69184 0
M  V30 4191 O 394.792 -0.370227 -1.90638 0
M  V30 4192 C 391.922 -1.06547 -3.30552 0
M  V30 4193 C 390.876 -2.15561 -3.69753 0
M  V30 4194 C 390.202 -1.77214 -5.04479 0
M  V30 4195 C 391.502 -3.57476 -3.808 0
M  V30 4196 H 393.196 -2.24303 -1.98314 0
M  V30 4197 H 390.742 -1.07977 -0.952736 0
M  V30 4198 H 392.695 -1.01729 -4.08937 0
M  V30 4199 H 391.419 -0.0875719 -3.26483 0
M  V30 4200 H 390.078 -2.19466 -2.9365 0
M  V30 4201 H 389.726 -0.780589 -4.96906 0
M  V30 4202 H 389.426 -2.50184 -5.31678 0
M  V30 4203 H 390.95 -1.7391 -5.8531 0
M  V30 4204 H 392.364 -3.55929 -4.4943 0
M  V30 4205 H 390.761 -4.29152 -4.19462 0
M  V30 4206 H 391.831 -3.94091 -2.82525 0
M  V30 4207 N 393.175 1.03435 -1.18907 0
M  V30 4208 C 394.105 2.13503 -0.945448 0
M  V30 4209 C 395.086 1.69682 0.119189 0
M  V30 4210 O 396.271 1.94169 -0.034707 0
M  V30 4211 C 393.401 3.44004 -0.477316 0
M  V30 4212 C 392.355 4.0148 -1.48316 0
M  V30 4213 C 391.681 5.27537 -0.872311 0
M  V30 4214 C 392.981 4.36921 -2.86177 0
M  V30 4215 H 394.675 2.34141 -1.86597 0
M  V30 4216 H 392.221 1.12523 -0.898584 0
M  V30 4217 H 394.174 4.20372 -0.294204 0
M  V30 4218 H 392.898 3.23072 0.478786 0
M  V30 4219 H 391.557 3.27201 -1.65332 0
M  V30 4220 H 391.205 5.02917 0.0911752 0
M  V30 4221 H 390.905 5.66954 -1.54393 0
M  V30 4222 H 392.429 6.06576 -0.699871 0
M  V30 4223 H 393.843 5.04248 -2.72776 0
M  V30 4224 H 392.24 4.87405 -3.50081 0
M  V30 4225 H 393.31 3.46466 -3.39248 0
M  V30 4226 N 394.653 0.992116 1.22453 0
M  V30 4227 C 395.563 0.55065 2.28046 0
M  V30 4228 C 396.579 -0.400189 1.69335 0
M  V30 4229 O 397.755 -0.267215 1.99619 0
M  V30 4230 C 394.82 -0.128496 3.46462 0
M  V30 4231 C 393.881 0.865208 4.20491 0
M  V30 4232 C 393.114 0.218377 5.33253 0
M  V30 4233 O 393.337 -0.987894 5.6178 0
M  V30 4234 O 392.271 0.922845 5.94783 0
M  V30 4235 H 396.097 1.4291 2.67975 0
M  V30 4236 H 393.682 0.760326 1.28606 0
M  V30 4237 H 395.564 -0.508947 4.18315 0
M  V30 4238 H 394.239 -0.981526 3.0846 0
M  V30 4239 H 393.146 1.29658 3.50913 0
M  V30 4240 H 394.479 1.68741 4.62371 0
M  V30 4241 N 396.131 -1.37776 0.765217 0
M  V30 4242 C 397.041 -2.34135 0.147666 0
M  V30 4243 C 398.057 -1.59854 -0.687215 0
M  V30 4244 O 399.233 -1.91983 -0.608659 0
M  V30 4245 C 396.298 -3.3901 -0.72617 0
M  V30 4246 C 395.359 -4.2912 0.124417 0
M  V30 4247 C 394.592 -5.28986 -0.707807 0
M  V30 4248 O 394.815 -5.36205 -1.94525 0
M  V30 4249 O 393.749 -6.01779 -0.12046 0
M  V30 4250 H 397.575 -2.88664 0.943758 0
M  V30 4251 H 395.16 -1.39824 0.526277 0
M  V30 4252 H 397.042 -4.03195 -1.22524 0
M  V30 4253 H 395.717 -2.86819 -1.50056 0
M  V30 4254 H 394.624 -3.68057 0.669696 0
M  V30 4255 H 395.957 -4.84598 0.861736 0
M  V30 4256 N 397.609 -0.515225 -1.4894 0
M  V30 4257 C 398.837 0.0206034 -2.0689 0
M  V30 4258 C 399.252 1.29514 -1.37374 0
M  V30 4259 O 398.609 1.76698 -0.456529 0
M  V30 4260 C 398.66 0.26351 -3.60538 0
M  V30 4261 O 398.381 -0.960517 -4.27441 0
M  V30 4262 C 399.882 0.841383 -4.35242 0
M  V30 4263 H 397.102 -0.0268608 -0.670462 0
M  V30 4264 H 399.646 -0.716651 -1.91532 0
M  V30 4265 H 397.801 0.950777 -3.75552 0
M  V30 4266 H 398.215 -0.73212 -5.19365 0
M  V30 4267 H 399.689 0.96085 -5.43573 0
M  V30 4268 H 400.166 1.8427 -3.98674 0
M  V30 4269 H 400.772 0.191143 -4.2487 0
M  V30 4270 N 399.087 1.5561 -0.249682 0
M  V30 4271 C 400.333 2.00044 0.367952 0
M  V30 4272 C 400.688 1.1349 1.55363 0
M  V30 4273 O 399.981 0.191079 1.90645 0
M  V30 4274 C 400.175 3.4775 0.824887 0
M  V30 4275 C 400.004 4.48596 -0.314973 0
M  V30 4276 C 398.774 4.99077 -0.790555 0
M  V30 4277 C 400.972 5.0144 -1.14291 0
M  V30 4278 N 398.954 5.83675 -1.90254 0
M  V30 4279 C 400.325 5.83236 -2.10322 0
M  V30 4280 C 402.38 4.83736 -1.17916 0
M  V30 4281 C 401.083 6.49217 -3.09692 0
M  V30 4282 C 403.109 5.50497 -2.16117 0
M  V30 4283 C 402.471 6.32084 -3.10884 0
M  V30 4284 H 398.57 0.775512 0.100522 0
M  V30 4285 H 401.154 1.91193 -0.367896 0
M  V30 4286 H 399.325 3.56994 1.53002 0
M  V30 4287 H 401.057 3.79056 1.4177 0
M  V30 4288 H 397.812 4.72119 -0.374218 0
M  V30 4289 H 398.236 6.30671 -2.46137 0
M  V30 4290 H 402.878 4.20286 -0.460352 0
M  V30 4291 H 400.596 7.11832 -3.8252 0
M  V30 4292 H 404.182 5.38752 -2.19631 0
M  V30 4293 H 403.062 6.82832 -3.8563 0
M  V30 4294 N 400.565 -0.0233959 1.57583 0
M  V30 4295 C 401.813 -0.711654 1.89156 0
M  V30 4296 C 402.134 -1.75591 0.848096 0
M  V30 4297 O 401.404 -1.95547 -0.117566 0
M  V30 4298 H 399.984 -0.265835 0.698098 0
M  V30 4299 H 402.646 0.0119948 1.94896 0
M  V30 4300 H 401.742 -1.19766 2.88206 0
M  V30 4301 N 402.043 -1.548 -0.295768 0
M  V30 4302 C 402.99 -1.86113 -1.36494 0
M  V30 4303 C 403.96 -0.7105 -1.50137 0
M  V30 4304 O 405.145 -0.959626 -1.64912 0
M  V30 4305 C 402.285 -2.11861 -2.72413 0
M  V30 4306 C 401.398 -3.39471 -2.67177 0
M  V30 4307 C 400.533 -3.55035 -3.95125 0
M  V30 4308 C 399.572 -4.76418 -3.84308 0
M  V30 4309 N 398.709 -4.8876 -5.04042 0
M  V30 4310 H 403.549 -2.77314 -1.09091 0
M  V30 4311 H 401.086 -1.37315 -0.52753 0
M  V30 4312 H 403.044 -2.24786 -3.51464 0
M  V30 4313 H 401.674 -1.2392 -2.98066 0
M  V30 4314 H 400.726 -3.35139 -1.79962 0
M  V30 4315 H 402.038 -4.28646 -2.55076 0
M  V30 4316 H 401.192 -3.67653 -4.82614 0
M  V30 4317 H 399.931 -2.64002 -4.10066 0
M  V30 4318 H 398.936 -4.63827 -2.95202 0
M  V30 4319 H 400.161 -5.68863 -3.70906 0
M  V30 4320 H 398.107 -4.00652 -5.19436 0
M  V30 4321 H 398.024 -5.71945 -4.94384 0
M  V30 4322 H 399.292 -5.0574 -5.93167 0
M  V30 4323 N 403.521 0.559213 -1.47345 0
M  V30 4324 C 404.932 1.14134 -1.47751 0
M  V30 4325 C 405.283 1.94834 -0.231103 0
M  V30 4326 O 404.408 2.05957 0.664137 0
M  V30 4327 C 405.003 2.07653 -2.67705 0
M  V30 4328 C 403.562 2.61141 -2.71076 0
M  V30 4329 C 402.709 1.3748 -2.40821 0
M  V30 4330 H 405.66 0.345917 -1.54884 0
M  V30 4331 H 405.681 2.91497 -2.44561 0
M  V30 4332 H 405.193 1.4889 -3.58404 0
M  V30 4333 H 403.294 3.23707 -1.84511 0
M  V30 4334 H 403.407 3.02272 -3.7171 0
M  V30 4335 H 401.771 1.68086 -1.91362 0
M  V30 4336 H 402.554 0.805135 -3.33725 0
M  V30 4337 N 404.999 1.35443 0.805782 0
M  V30 4338 C 406.224 1.32037 1.59941 0
M  V30 4339 C 406.649 -0.0994215 1.87837 0
M  V30 4340 O 406.007 -1.06648 1.46615 0
M  V30 4341 C 406.055 2.13354 2.90711 0
M  V30 4342 O 405.159 1.5148 3.83572 0
M  V30 4343 H 404.5 0.452666 0.485787 0
M  V30 4344 H 407.03 1.78496 1.00002 0
M  V30 4345 H 407.04 2.25338 3.40128 0
M  V30 4346 H 405.715 3.16572 2.69732 0
M  V30 4347 H 404.292 1.4834 3.42125 0
M  V30 4348 N 406.477 -1.02803 1.19454 0
M  V30 4349 C 407.723 -1.76598 1.0092 0
M  V30 4350 C 408.078 -1.86939 -0.455142 0
M  V30 4351 O 407.371 -1.37575 -1.33355 0
M  V30 4352 C 407.565 -3.18941 1.6128 0
M  V30 4353 C 407.394 -3.22476 3.13431 0
M  V30 4354 C 406.164 -3.30375 3.82336 0
M  V30 4355 C 408.362 -3.09451 4.10785 0
M  V30 4356 N 406.344 -3.23292 5.21877 0
M  V30 4357 C 407.715 -3.10012 5.36929 0
M  V30 4358 C 409.77 -2.93585 4.02135 0
M  V30 4359 C 408.473 -2.96334 6.55423 0
M  V30 4360 C 410.499 -2.81256 5.20239 0
M  V30 4361 C 409.861 -2.82472 6.45282 0
M  V30 4362 H 405.96 -0.657447 0.423424 0
M  V30 4363 H 408.544 -1.22369 1.5144 0
M  V30 4364 H 406.715 -3.71489 1.1336 0
M  V30 4365 H 408.447 -3.81102 1.36173 0
M  V30 4366 H 405.202 -3.3663 3.33132 0
M  V30 4367 H 405.626 -3.23156 5.94894 0
M  V30 4368 H 410.268 -2.91466 3.0628 0
M  V30 4369 H 407.986 -2.97203 7.51463 0
M  V30 4370 H 411.572 -2.70014 5.15348 0
M  V30 4371 H 410.452 -2.73036 7.35133 0
M  V30 4372 N 407.956 -0.998596 -1.21925 0
M  V30 4373 C 409.204 -0.676325 -1.90448 0
M  V30 4374 C 409.525 0.794719 -1.78071 0
M  V30 4375 O 408.795 1.5701 -1.17152 0
M  V30 4376 H 407.375 -0.247165 -0.704925 0
M  V30 4377 H 410.037 -1.26633 -1.48156 0
M  V30 4378 H 409.133 -0.943858 -2.97486 0
M  V30 4379 N 409.434 1.37368 -0.772513 0
M  V30 4380 C 410.845 1.8231 -0.402493 0
M  V30 4381 C 411.196 1.6436 1.07146 0
M  V30 4382 O 410.321 1.15514 1.82991 0
M  V30 4383 C 410.916 3.30979 -0.723776 0
M  V30 4384 C 409.475 3.74195 -0.406802 0
M  V30 4385 C 408.622 2.59885 -0.967218 0
M  V30 4386 H 411.573 1.25829 -0.967099 0
M  V30 4387 H 411.594 3.80499 -0.00870832 0
M  V30 4388 H 411.106 3.44011 -1.7966 0
M  V30 4389 H 409.207 3.66732 0.658673 0
M  V30 4390 H 409.32 4.7027 -0.915588 0
M  V30 4391 H 407.684 2.51674 -0.391416 0
M  V30 4392 H 408.467 2.7571 -2.04546 0
M  V30 4393 N 410.912 0.523116 1.48665 0
M  V30 4394 C 411.86 -0.256859 2.31177 0
M  V30 4395 C 412.854 -0.94199 1.40794 0
M  V30 4396 O 414.06 -0.867157 1.57735 0
M  V30 4397 H 410.435 -0.1017 0.745091 0
M  V30 4398 H 412.406 0.458739 2.94853 0
M  V30 4399 C 411.155 -1.29503 3.22683 0
M  V30 4400 H 410.478 -0.777248 3.92172 0
M  V30 4401 H 411.918 -1.81233 3.83315 0
M  V30 4402 C 410.377 -2.32501 2.43813 0
M  V30 4403 O 410.907 -3.3881 2.15803 0
M  V30 4404 N 409.113 -2.05538 2.05432 0
M  V30 4405 H 408.66 -1.19104 2.28412 0
M  V30 4406 H 408.618 -2.74676 1.52973 0
M  V30 4407 N 412.39 -1.55475 0.257931 0
M  V30 4408 C 413.639 -1.98383 -0.364275 0
M  V30 4409 C 413.952 -1.14952 -1.58258 0
M  V30 4410 O 415.158 -1.47924 -2.27664 0
M  V30 4411 C 413.614 -3.53037 -0.699479 0
M  V30 4412 C 413.222 -4.45223 0.498046 0
M  V30 4413 C 414.966 -4.04575 -1.28526 0
M  V30 4414 C 412.873 -5.91238 0.138383 0
M  V30 4415 H 411.803 -0.740911 -0.13988 0
M  V30 4416 H 414.454 -1.79936 0.359883 0
M  V30 4417 H 412.836 -3.6722 -1.48207 0
M  V30 4418 H 414.01 -4.42803 1.27522 0
M  V30 4419 H 412.325 -4.04226 0.999503 0
M  V30 4420 H 414.922 -5.11196 -1.56788 0
M  V30 4421 H 415.265 -3.5258 -2.21344 0
M  V30 4422 H 415.798 -3.93762 -0.565337 0
M  V30 4423 H 412.537 -6.47294 1.03398 0
M  V30 4424 H 412.057 -5.96768 -0.602374 0
M  V30 4425 H 413.736 -6.46413 -0.27553 0
M  V30 4426 N 413.868 0.0150385 -1.57593 0
M  V30 4427 C 414.815 1.01126 -2.07466 0
M  V30 4428 C 415.785 1.35064 -0.966794 0
M  V30 4429 O 416.97 1.4516 -1.23827 0
M  V30 4430 C 414.11 2.30276 -2.57035 0
M  V30 4431 C 413.223 2.02373 -3.81666 0
M  V30 4432 C 412.358 3.25496 -4.19793 0
M  V30 4433 C 411.397 2.93211 -5.37303 0
M  V30 4434 N 410.534 4.08826 -5.70794 0
M  V30 4435 H 415.374 0.57901 -2.92321 0
M  V30 4436 H 412.911 0.27426 -1.44521 0
M  V30 4437 H 414.869 3.05757 -2.83846 0
M  V30 4438 H 413.499 2.71197 -1.75077 0
M  V30 4439 H 412.551 1.17327 -3.61854 0
M  V30 4440 H 413.863 1.74567 -4.67256 0
M  V30 4441 H 413.017 4.09333 -4.47807 0
M  V30 4442 H 411.756 3.56428 -3.32882 0
M  V30 4443 H 410.761 2.07777 -5.09027 0
M  V30 4444 H 411.986 2.63542 -6.25877 0
M  V30 4445 H 409.932 4.39682 -4.86842 0
M  V30 4446 H 409.849 3.84491 -6.50924 0
M  V30 4447 H 411.117 4.93496 -6.03392 0
M  V30 4448 N 415.346 1.54954 0.287554 0
M  V30 4449 C 416.256 1.8991 1.37736 0
M  V30 4450 C 417.272 0.794701 1.54792 0
M  V30 4451 O 418.448 1.09243 1.69198 0
M  V30 4452 C 415.513 2.15108 2.71899 0
M  V30 4453 C 414.574 3.38752 2.63715 0
M  V30 4454 C 413.807 3.62739 3.91479 0
M  V30 4455 O 414.03 2.89492 4.91478 0
M  V30 4456 O 412.964 4.56267 3.92561 0
M  V30 4457 H 416.79 2.82652 1.11092 0
M  V30 4458 H 414.375 1.41315 0.484807 0
M  V30 4459 H 416.257 2.32806 3.51254 0
M  V30 4460 H 414.932 1.25551 2.9836 0
M  V30 4461 H 413.839 3.26405 1.82786 0
M  V30 4462 H 415.172 4.28483 2.42205 0
M  V30 4463 N 416.824 -0.551391 1.4764 0
M  V30 4464 C 418.071 -1.3083 1.54563 0
M  V30 4465 C 418.399 -1.93359 0.210361 0
M  V30 4466 O 417.654 -1.78721 -0.797332 0
M  V30 4467 C 417.953 -2.43469 2.61644 0
M  V30 4468 C 417.619 -1.98732 4.04742 0
M  V30 4469 C 416.281 -1.86248 4.43695 0
M  V30 4470 C 418.633 -1.64659 4.94507 0
M  V30 4471 C 415.961 -1.37995 5.70241 0
M  V30 4472 C 418.313 -1.17875 6.21521 0
M  V30 4473 C 416.977 -1.03992 6.5935 0
M  V30 4474 H 416.247 -0.478741 0.565587 0
M  V30 4475 H 418.894 -0.617697 1.81264 0
M  V30 4476 H 417.199 -3.18109 2.28722 0
M  V30 4477 H 418.896 -3.01642 2.64222 0
M  V30 4478 H 415.486 -2.09393 3.73968 0
M  V30 4479 H 419.67 -1.73174 4.65107 0
M  V30 4480 H 414.926 -1.25915 5.98294 0
M  V30 4481 H 419.1 -0.905739 6.90485 0
M  V30 4482 H 416.727 -0.663794 7.57296 0
M  V30 4483 N 418.302 -1.35869 -0.798587 0
M  V30 4484 C 419.249 -1.29446 -1.91082 0
M  V30 4485 C 420.219 -0.16487 -1.6528 0
M  V30 4486 O 421.404 -0.349888 -1.87564 0
M  V30 4487 C 418.544 -1.0804 -3.27752 0
M  V30 4488 C 417.657 -2.29993 -3.65687 0
M  V30 4489 C 416.792 -2.01673 -4.91428 0
M  V30 4490 C 415.831 -3.19636 -5.22015 0
M  V30 4491 N 414.968 -2.91039 -6.38937 0
M  V30 4492 H 419.808 -2.24553 -1.95907 0
M  V30 4493 H 417.345 -1.11615 -0.958148 0
M  V30 4494 H 419.303 -0.936586 -4.06551 0
M  V30 4495 H 417.933 -0.16592 -3.22373 0
M  V30 4496 H 416.985 -2.55211 -2.82085 0
M  V30 4497 H 418.297 -3.18052 -3.84245 0
M  V30 4498 H 417.451 -1.84168 -5.78072 0
M  V30 4499 H 416.19 -1.10911 -4.74921 0
M  V30 4500 H 415.195 -3.37709 -4.33858 0
M  V30 4501 H 416.42 -4.11211 -5.40447 0
M  V30 4502 H 414.366 -2.0288 -6.2384 0
M  V30 4503 H 414.283 -3.72635 -6.57784 0
M  V30 4504 H 415.551 -2.77093 -7.28587 0
M  V30 4505 N 419.78 1.02168 -1.19998 0
M  V30 4506 C 420.73 2.08969 -0.911921 0
M  V30 4507 C 421.714 1.60404 0.12621 0
M  V30 4508 O 422.906 1.76817 -0.0804706 0
M  V30 4509 C 420.035 3.402 -0.460277 0
M  V30 4510 C 419.121 3.9548 -1.53155 0
M  V30 4511 N 419.512 4.24332 -2.75275 0
M  V30 4512 C 417.81 4.23572 -1.39653 0
M  V30 4513 C 418.511 4.68834 -3.44339 0
M  V30 4514 N 417.487 4.70804 -2.71744 0
M  V30 4515 H 421.289 2.29178 -1.83997 0
M  V30 4516 H 418.803 1.20094 -1.09322 0
M  V30 4517 H 420.8 4.16235 -0.235337 0
M  V30 4518 H 419.46 3.21408 0.4612 0
M  V30 4519 H 420.471 4.13393 -3.11973 0
M  V30 4520 H 417.148 4.14005 -0.539067 0
M  V30 4521 H 418.538 5.00019 -4.4881 0
M  V30 4522 N 421.258 1.00505 1.21394 0
M  V30 4523 C 422.674 0.717873 1.42544 0
M  V30 4524 C 422.874 -0.706936 1.88692 0
M  V30 4525 O 421.93 -1.47627 2.04847 0
M  V30 4526 C 423.243 1.73377 2.45684 0
M  V30 4527 C 424.791 1.75059 2.59467 0
M  V30 4528 C 425.266 2.75545 3.6584 0
M  V30 4529 N 426.757 2.74213 3.73311 0
M  V30 4530 C 427.492 3.48626 4.55245 0
M  V30 4531 N 426.988 4.32678 5.41075 0
M  V30 4532 N 428.781 3.37276 4.49668 0
M  V30 4533 H 420.932 1.92506 0.897503 0
M  V30 4534 H 423.195 0.830919 0.456375 0
M  V30 4535 H 422.901 2.75395 2.18748 0
M  V30 4536 H 422.775 1.53647 3.44489 0
M  V30 4537 H 425.162 0.737337 2.8574 0
M  V30 4538 H 425.243 1.98861 1.60897 0
M  V30 4539 H 424.887 3.77028 3.40313 0
M  V30 4540 H 424.817 2.49009 4.64007 0
M  V30 4541 H 427.308 2.13234 3.11993 0
M  V30 4542 H 427.621 4.86253 6.00648 0
M  V30 4543 H 425.966 4.3676 5.40616 0
M  V30 4544 H 429.157 2.71043 3.81646 0
M  V30 4545 H 429.33 3.95524 5.13288 0
M  V30 4546 N 422.737 -1.36956 0.779787 0
M  V30 4547 C 423.984 -1.99491 0.347766 0
M  V30 4548 C 424.312 -1.61898 -1.07793 0
M  V30 4549 O 423.567 -0.86071 -1.75756 0
M  V30 4550 C 423.866 -3.54585 0.447686 0
M  V30 4551 C 423.532 -4.1197 1.83279 0
M  V30 4552 C 422.194 -4.27356 2.2118 0
M  V30 4553 C 424.546 -4.43354 2.74019 0
M  V30 4554 C 421.874 -4.71432 3.4924 0
M  V30 4555 C 424.226 -4.88858 4.01497 0
M  V30 4556 C 422.89 -5.0245 4.39432 0
M  V30 4557 H 422.16 -0.729991 0.127257 0
M  V30 4558 H 424.807 -1.63599 0.995376 0
M  V30 4559 H 423.112 -3.90773 -0.283447 0
M  V30 4560 H 424.809 -4.00888 0.0945948 0
M  V30 4561 H 421.399 -4.00428 1.52825 0
M  V30 4562 H 425.583 -4.31045 2.45995 0
M  V30 4563 H 420.839 -4.80141 3.78516 0
M  V30 4564 H 425.013 -5.12108 4.71931 0
M  V30 4565 H 422.64 -5.36362 5.38721 0
M  V30 4566 N 424.215 -0.530993 -1.48385 0
M  V30 4567 C 425.492 0.0671788 -1.95485 0
M  V30 4568 C 425.872 1.51191 -1.47324 0
M  V30 4569 O 425.22 2.17507 -0.700202 0
M  V30 4570 C 425.43 -0.0511206 -3.48963 0
M  V30 4571 C 426.778 0.107632 -4.24464 0
M  V30 4572 O 427.802 0.0226248 -3.56193 0
M  V30 4573 O 426.661 0.285972 -5.45751 0
M  V30 4574 H 423.755 0.0787365 -0.823243 0
M  V30 4575 H 426.301 -0.595662 -1.58902 0
M  V30 4576 H 425.073 -1.05747 -3.7674 0
M  V30 4577 H 424.696 0.650525 -3.92242 0
M  V30 4578 N 425.693 1.55336 -0.266172 0
M  V30 4579 C 427.104 1.85236 0.233315 0
M  V30 4580 C 427.455 1.18816 1.56132 0
M  V30 4581 O 426.58 0.473307 2.11161 0
M  V30 4582 C 427.175 3.36059 0.430113 0
M  V30 4583 C 425.734 3.66116 0.873842 0
M  V30 4584 C 424.881 2.77274 -0.0380016 0
M  V30 4585 H 427.832 1.51004 -0.488214 0
M  V30 4586 H 427.853 3.58681 1.26998 0
M  V30 4587 H 427.365 3.84373 -0.536588 0
M  V30 4588 H 425.466 3.23295 1.85233 0
M  V30 4589 H 425.579 4.73699 0.717358 0
M  V30 4590 H 423.943 2.50198 0.476759 0
M  V30 4591 H 424.726 3.284 -1.00042 0
M  V30 4592 N 427.171 -0.0066808 1.57599 0
M  V30 4593 C 428.417 -0.693947 1.90558 0
M  V30 4594 C 428.75 -1.73792 0.866594 0
M  V30 4595 O 428.025 -1.94156 -0.115548 0
M  V30 4596 C 428.308 -1.34317 3.34112 0
M  V30 4597 C 428.161 -0.311189 4.48722 0
M  V30 4598 C 429.48 -2.27116 3.7697 0
M  V30 4599 H 426.599 -0.250803 0.693013 0
M  V30 4600 H 429.241 0.043242 1.89951 0
M  V30 4601 H 427.391 -1.9715 3.3476 0
M  V30 4602 H 429.063 0.316944 4.6021 0
M  V30 4603 H 427.306 0.367253 4.32243 0
M  V30 4604 H 427.977 -0.804366 5.46108 0
M  V30 4605 H 430.453 -1.74306 3.77831 0
M  V30 4606 H 429.329 -2.69511 4.78179 0
M  V30 4607 H 429.59 -3.14743 3.10466 0
M  V30 4608 N 428.649 -1.55105 -0.279332 0
M  V30 4609 C 429.559 -1.90638 -1.36727 0
M  V30 4610 C 430.575 -0.802899 -1.54368 0
M  V30 4611 O 431.751 -1.10138 -1.68616 0
M  V30 4612 C 428.816 -2.16547 -2.70755 0
M  V30 4613 C 427.877 -3.40146 -2.61915 0
M  V30 4614 C 427.11 -3.6481 -3.8955 0
M  V30 4615 O 427.333 -2.92095 -4.89935 0
M  V30 4616 O 426.267 -4.58343 -3.90135 0
M  V30 4617 H 430.093 -2.83237 -1.09591 0
M  V30 4618 H 427.678 -1.4157 -0.477306 0
M  V30 4619 H 429.56 -2.34665 -3.50014 0
M  V30 4620 H 428.235 -1.27131 -2.9769 0
M  V30 4621 H 427.142 -3.2737 -1.81052 0
M  V30 4622 H 428.475 -4.29761 -2.3993 0
M  V30 4623 N 430.127 0.543554 -1.4793 0
M  V30 4624 C 431.355 1.32516 -1.58894 0
M  V30 4625 C 431.77 1.87215 -0.244131 0
M  V30 4626 O 431.127 1.65709 0.764652 0
M  V30 4627 C 431.178 2.48554 -2.62494 0
M  V30 4628 O 430.899 1.96112 -3.91755 0
M  V30 4629 C 432.4 3.40572 -2.8377 0
M  V30 4630 H 429.62 0.403472 -0.536145 0
M  V30 4631 H 432.164 0.657106 -1.93655 0
M  V30 4632 H 430.319 3.1127 -2.30629 0
M  V30 4633 H 430.733 2.71967 -4.4848 0
M  V30 4634 H 432.207 4.18375 -3.60093 0
M  V30 4635 H 432.684 3.94965 -1.92092 0
M  V30 4636 H 433.29 2.8366 -3.16887 0
M  V30 4637 N 431.605 1.3629 0.791371 0
M  V30 4638 C 432.552 1.30458 1.90393 0
M  V30 4639 C 433.522 0.173632 1.6519 0
M  V30 4640 O 434.707 0.35983 1.87376 0
M  V30 4641 C 431.847 1.09777 3.27174 0
M  V30 4642 C 430.96 2.31929 3.64462 0
M  V30 4643 C 430.095 2.04276 4.90352 0
M  V30 4644 C 429.134 3.224 5.20312 0
M  V30 4645 N 428.271 2.94424 6.37385 0
M  V30 4646 H 433.111 2.25589 1.94714 0
M  V30 4647 H 430.648 1.12122 0.952216 0
M  V30 4648 H 432.606 0.958133 4.06049 0
M  V30 4649 H 431.236 0.183014 3.22281 0
M  V30 4650 H 430.288 2.56703 2.80727 0
M  V30 4651 H 431.6 3.20085 3.82553 0
M  V30 4652 H 430.754 1.87231 5.77087 0
M  V30 4653 H 429.493 1.13428 4.74326 0
M  V30 4654 H 428.498 3.40005 4.32061 0
M  V30 4655 H 429.723 4.14071 5.38258 0
M  V30 4656 H 427.669 2.06185 6.22755 0
M  V30 4657 H 427.586 3.76118 6.55798 0
M  V30 4658 H 428.854 2.80953 7.27108 0
M  V30 4659 N 433.083 -1.0153 1.20538 0
M  V30 4660 C 434.331 -1.74803 1.01432 0
M  V30 4661 C 434.652 -1.8963 -0.454456 0
M  V30 4662 O 433.922 -1.43975 -1.32846 0
M  V30 4663 H 432.502 -0.647598 0.372324 0
M  V30 4664 H 435.164 -1.22402 1.5167 0
M  V30 4665 H 434.26 -2.75114 1.47373 0
M  V30 4666 N 434.561 -1.01147 -1.20859 0
M  V30 4667 C 435.471 -0.58686 -2.27141 0
M  V30 4668 C 436.487 0.373198 -1.69951 0
M  V30 4669 O 437.663 0.235423 -2.00019 0
M  V30 4670 C 434.728 0.0733602 -3.46622 0
M  V30 4671 C 433.789 -0.931995 -4.19061 0
M  V30 4672 C 433.022 -0.303186 -5.32838 0
M  V30 4673 O 433.245 0.898395 -5.63281 0
M  V30 4674 O 432.179 -1.01735 -5.9324 0
M  V30 4675 H 436.005 -1.47155 -2.65667 0
M  V30 4676 H 433.59 -0.780689 -1.2738 0
M  V30 4677 H 435.472 0.442333 -4.19072 0
M  V30 4678 H 434.147 0.932329 -3.09983 0
M  V30 4679 H 433.054 -1.35224 -3.48805 0
M  V30 4680 H 434.387 -1.76076 -4.59628 0
M  V30 4681 N 436.039 1.36541 -0.78704 0
M  V30 4682 C 437.287 1.98911 -0.357633 0
M  V30 4683 C 437.608 1.62778 1.07371 0
M  V30 4684 O 436.878 0.900612 1.73971 0
M  V30 4685 H 435.458 0.735734 -0.129246 0
M  V30 4686 H 438.12 1.66776 -1.00855 0
M  V30 4687 H 437.216 3.08874 -0.447549 0
M  V30 4688 N 437.518 0.538854 1.48102 0
M  V30 4689 C 438.929 0.100679 1.86428 0
M  V30 4690 C 439.28 -1.32447 1.44749 0
M  V30 4691 O 438.405 -1.99339 0.842199 0
M  V30 4692 C 439 0.175933 3.38343 0
M  V30 4693 C 437.559 -0.207098 3.7583 0
M  V30 4694 C 436.706 0.531741 2.72154 0
M  V30 4695 H 439.657 0.749614 1.3988 0
M  V30 4696 H 439.678 -0.610144 3.75576 0
M  V30 4697 H 439.19 1.21328 3.68648 0
M  V30 4698 H 437.291 -1.24626 3.5114 0
M  V30 4699 H 437.404 0.138687 4.78899 0
M  V30 4700 H 435.768 -0.0230462 2.5469 0
M  V30 4701 H 436.551 1.56989 3.05302 0
M  V30 4702 N 438.996 -1.55193 0.274407 0
M  V30 4703 C 440.412 -1.59401 -0.0797543 0
M  V30 4704 C 440.612 -1.29162 -1.54659 0
M  V30 4705 O 439.668 -1.05215 -2.29534 0
M  V30 4706 C 440.981 -2.99257 0.294238 0
M  V30 4707 C 442.529 -3.12072 0.240796 0
M  V30 4708 C 443.004 -4.54194 0.589218 0
M  V30 4709 N 444.495 -4.60033 0.540744 0
M  V30 4710 C 445.23 -5.68027 0.783147 0
M  V30 4711 N 444.726 -6.8417 1.09013 0
M  V30 4712 N 446.519 -5.57572 0.711993 0
M  V30 4713 H 438.67 -1.73113 1.23067 0
M  V30 4714 H 440.933 -0.807197 0.497129 0
M  V30 4715 H 440.639 -3.26217 1.31435 0
M  V30 4716 H 440.513 -3.75427 -0.365281 0
M  V30 4717 H 442.9 -2.84877 -0.770024 0
M  V30 4718 H 442.981 -2.38117 0.934563 0
M  V30 4719 H 442.625 -4.82115 1.59772 0
M  V30 4720 H 442.555 -5.26448 -0.126331 0
M  V30 4721 H 445.046 -3.76599 0.313327 0
M  V30 4722 H 445.359 -7.6243 1.26178 0
M  V30 4723 H 443.704 -6.85787 1.12789 0
M  V30 4724 H 446.895 -4.65714 0.472014 0
M  V30 4725 H 447.068 -6.41659 0.90429 0
M  V30 4726 N 440.474 -0.00167713 -1.576 0
M  V30 4727 C 441.89 0.354422 -1.55615 0
M  V30 4728 C 442.09 1.74679 -1.00447 0
M  V30 4729 O 441.146 2.4428 -0.639022 0
M  V30 4730 C 442.459 0.22812 -2.99833 0
M  V30 4731 C 444.007 0.302934 -3.11531 0
M  V30 4732 C 444.482 0.205737 -4.57538 0
M  V30 4733 N 445.973 0.263584 -4.62449 0
M  V30 4734 C 446.708 0.211742 -5.73009 0
M  V30 4735 N 446.204 0.110399 -6.92712 0
M  V30 4736 N 447.997 0.263729 -5.61481 0
M  V30 4737 H 440.148 -0.912498 -1.918 0
M  V30 4738 H 442.411 -0.349928 -0.881053 0
M  V30 4739 H 442.117 -0.729934 -3.44042 0
M  V30 4740 H 441.991 1.00951 -3.6344 0
M  V30 4741 H 444.378 1.25143 -2.67251 0
M  V30 4742 H 444.459 -0.508357 -2.50698 0
M  V30 4743 H 444.103 -0.739225 -5.02492 0
M  V30 4744 H 444.033 1.03554 -5.16318 0
M  V30 4745 H 446.524 0.343173 -3.76339 0
M  V30 4746 H 446.837 0.0767828 -7.72762 0
M  V30 4747 H 445.182 0.0760025 -6.94958 0
M  V30 4748 H 448.373 0.34111 -4.66855 0
M  V30 4749 H 448.546 0.219862 -6.47627 0
M  V30 4750 N 441.952 1.55251 0.271103 0
M  V30 4751 C 442.882 1.9127 1.33933 0
M  V30 4752 C 443.863 0.77478 1.5143 0
M  V30 4753 O 445.048 1.03307 1.64442 0
M  V30 4754 C 442.178 2.18627 2.69851 0
M  V30 4755 C 441.132 3.34442 2.67081 0
M  V30 4756 C 440.458 3.47284 4.06569 0
M  V30 4757 C 441.758 4.70784 2.26185 0
M  V30 4758 H 443.452 2.80744 1.04035 0
M  V30 4759 H 440.998 1.35077 0.499017 0
M  V30 4760 H 442.951 2.42413 3.44694 0
M  V30 4761 H 441.675 1.25955 3.01335 0
M  V30 4762 H 440.334 3.10627 1.94695 0
M  V30 4763 H 439.982 2.52074 4.35279 0
M  V30 4764 H 439.682 4.25152 4.0561 0
M  V30 4765 H 441.206 3.73363 4.83148 0
M  V30 4766 H 442.62 4.94102 2.90751 0
M  V30 4767 H 441.017 5.51582 2.36384 0
M  V30 4768 H 442.087 4.69478 1.21319 0
M  V30 4769 N 443.43 -0.535701 1.48216 0
M  V30 4770 C 444.377 -1.64083 1.62312 0
M  V30 4771 C 445.347 -1.59448 0.465365 0
M  V30 4772 O 446.532 -1.77959 0.688135 0
M  V30 4773 C 443.672 -3.0236 1.66349 0
M  V30 4774 C 442.785 -3.17273 2.93193 0
M  V30 4775 C 441.92 -4.46075 2.88427 0
M  V30 4776 C 440.959 -4.54496 4.1 0
M  V30 4777 N 440.096 -5.7468 4.03345 0
M  V30 4778 H 444.936 -1.51374 2.5669 0
M  V30 4779 H 442.473 -0.737059 1.27302 0
M  V30 4780 H 444.431 -3.82461 1.66672 0
M  V30 4781 H 443.061 -3.13854 0.754672 0
M  V30 4782 H 442.113 -2.30462 3.02641 0
M  V30 4783 H 443.425 -3.19357 3.83162 0
M  V30 4784 H 442.579 -5.3446 2.87119 0
M  V30 4785 H 441.318 -4.46504 1.96177 0
M  V30 4786 H 440.323 -3.64519 4.11589 0
M  V30 4787 H 441.548 -4.5581 5.03402 0
M  V30 4788 H 439.494 -5.76017 3.13912 0
M  V30 4789 H 439.411 -5.78234 4.87013 0
M  V30 4790 H 440.679 -6.65367 4.06087 0
M  V30 4791 N 444.908 -1.36708 -0.784132 0
M  V30 4792 C 445.856 -1.31533 -1.91838 0
M  V30 4793 C 446.85 -0.206205 -1.6814 0
M  V30 4794 O 448.056 -0.373519 -1.76082 0
M  V30 4795 H 444.431 -0.409613 -0.630651 0
M  V30 4796 H 446.402 -2.2731 -1.9332 0
M  V30 4797 C 445.151 -1.12679 -3.28936 0
M  V30 4798 H 444.474 -1.97274 -3.4774 0
M  V30 4799 H 445.914 -1.13106 -4.08636 0
M  V30 4800 C 444.373 0.168281 -3.36479 0
M  V30 4801 O 444.903 1.15625 -3.84699 0
M  V30 4802 N 443.109 0.214762 -2.89805 0
M  V30 4803 H 442.656 -0.589852 -2.50756 0
M  V30 4804 H 442.614 1.08094 -2.95234 0
M  V30 4805 N 446.386 1.0089 -1.21074 0
M  V30 4806 C 447.316 2.1145 -0.990523 0
M  V30 4807 C 448.297 1.69897 0.0831699 0
M  V30 4808 O 449.482 1.94052 -0.0758853 0
M  V30 4809 C 446.612 3.42914 -0.550177 0
M  V30 4810 C 445.566 3.98244 -1.56799 0
M  V30 4811 C 444.892 5.25568 -0.984013 0
M  V30 4812 C 446.192 4.30752 -2.95381 0
M  V30 4813 H 447.886 2.3013 -1.91521 0
M  V30 4814 H 445.432 1.10592 -0.92225 0
M  V30 4815 H 447.385 4.19653 -0.383305 0
M  V30 4816 H 446.109 3.24014 0.41015 0
M  V30 4817 H 444.768 3.23621 -1.72236 0
M  V30 4818 H 444.416 5.02998 -0.0155216 0
M  V30 4819 H 444.116 5.63551 -1.66384 0
M  V30 4820 H 445.64 6.04955 -0.828378 0
M  V30 4821 H 447.054 4.98349 -2.8341 0
M  V30 4822 H 445.451 4.79869 -3.60341 0
M  V30 4823 H 446.521 3.39192 -3.46521 0
M  V30 4824 N 447.864 1.01787 1.20321 0
M  V30 4825 C 449.094 0.72614 1.93419 0
M  V30 4826 C 449.502 -0.717317 1.75075 0
M  V30 4827 O 448.845 -1.49836 1.06278 0
M  V30 4828 C 448.907 0.983621 3.45782 0
M  V30 4829 C 448.571 2.41645 3.87888 0
M  V30 4830 C 449.568 3.39732 3.93545 0
M  V30 4831 C 447.253 2.75752 4.19841 0
M  V30 4832 C 449.247 4.69988 4.30569 0
M  V30 4833 C 446.934 4.06221 4.56539 0
M  V30 4834 C 447.932 5.0315 4.61876 0
M  V30 4835 O 447.62 6.31284 4.97731 0
M  V30 4836 H 447.352 0.265824 0.621541 0
M  V30 4837 H 449.906 1.3623 1.53722 0
M  V30 4838 H 448.136 0.290301 3.85609 0
M  V30 4839 H 449.825 0.683279 4.00108 0
M  V30 4840 H 450.591 3.14718 3.69022 0
M  V30 4841 H 446.47 2.00993 4.14877 0
M  V30 4842 H 450.014 5.45642 4.3465 0
M  V30 4843 H 445.911 4.31013 4.80518 0
M  V30 4844 H 446.679 6.35591 5.15719 0
M  V30 4845 N 449.342 -1.36122 0.79427 0
M  V30 4846 C 450.589 -1.99111 0.368905 0
M  V30 4847 C 450.917 -1.63032 -1.0607 0
M  V30 4848 O 450.172 -0.879303 -1.74833 0
M  V30 4849 C 450.471 -3.5409 0.48527 0
M  V30 4850 C 450.137 -4.10003 1.87638 0
M  V30 4851 C 448.799 -4.24986 2.257 0
M  V30 4852 C 451.151 -4.40423 2.78706 0
M  V30 4853 C 448.479 -4.67701 3.54221 0
M  V30 4854 C 450.831 -4.84573 4.0666 0
M  V30 4855 C 449.495 -4.97761 4.44737 0
M  V30 4856 H 448.765 -0.7286 0.134992 0
M  V30 4857 H 451.412 -1.62534 1.01267 0
M  V30 4858 H 449.717 -3.91052 -0.241984 0
M  V30 4859 H 451.414 -4.00766 0.137109 0
M  V30 4860 H 448.004 -3.98784 1.57064 0
M  V30 4861 H 452.188 -4.28412 2.50553 0
M  V30 4862 H 447.444 -4.761 3.83587 0
M  V30 4863 H 451.618 -5.07074 4.77336 0
M  V30 4864 H 449.245 -5.30618 5.44379 0
M  V30 4865 N 450.82 -0.546701 -1.47814 0
M  V30 4866 C 451.75 0.195317 -2.32682 0
M  V30 4867 C 452.731 0.918981 -1.43139 0
M  V30 4868 O 453.916 0.901501 -1.72008 0
M  V30 4869 C 451.046 1.23237 -3.247 0
M  V30 4870 C 450 0.625818 -4.234 0
M  V30 4871 C 449.326 1.76674 -5.04669 0
M  V30 4872 C 450.626 -0.413515 -5.2066 0
M  V30 4873 H 452.32 -0.513184 -2.94969 0
M  V30 4874 H 449.866 -0.248241 -1.41844 0
M  V30 4875 H 451.819 1.75955 -3.82907 0
M  V30 4876 H 450.543 1.97067 -2.60446 0
M  V30 4877 H 449.202 0.120023 -3.66403 0
M  V30 4878 H 448.85 2.49383 -4.36826 0
M  V30 4879 H 448.55 1.36673 -5.71484 0
M  V30 4880 H 450.074 2.29738 -5.65732 0
M  V30 4881 H 451.488 0.0272042 -5.73294 0
M  V30 4882 H 449.885 -0.731825 -5.95621 0
M  V30 4883 H 450.955 -1.31325 -4.66778 0
M  V30 4884 N 452.299 1.55045 -0.282633 0
M  V30 4885 C 453.529 2.03872 0.334635 0
M  V30 4886 C 453.937 1.16018 1.49454 0
M  V30 4887 O 453.28 0.174449 1.8287 0
M  V30 4888 C 453.342 3.48791 0.870905 0
M  V30 4889 C 453.006 4.56715 -0.161338 0
M  V30 4890 C 454.003 5.10513 -0.983466 0
M  V30 4891 C 451.688 5.01417 -0.297745 0
M  V30 4892 C 453.682 6.07538 -1.92811 0
M  V30 4893 C 451.369 5.98265 -1.24586 0
M  V30 4894 C 452.367 6.51208 -2.05954 0
M  V30 4895 O 452.055 7.46162 -2.99162 0
M  V30 4896 H 451.787 0.671324 0.0793742 0
M  V30 4897 H 454.341 2.01169 -0.41473 0
M  V30 4898 H 452.571 3.48758 1.67047 0
M  V30 4899 H 454.26 3.80916 1.40207 0
M  V30 4900 H 455.026 4.76785 -0.888856 0
M  V30 4901 H 450.905 4.59849 0.325604 0
M  V30 4902 H 454.449 6.48787 -2.56363 0
M  V30 4903 H 450.346 6.31412 -1.34126 0
M  V30 4904 H 451.114 7.63903 -2.93929 0
M  V30 4905 N 453.777 0.010035 1.57597 0
M  V30 4906 C 454.707 -0.976857 2.12084 0
M  V30 4907 C 455.688 -1.35191 1.03235 0
M  V30 4908 O 456.873 -1.43389 1.3097 0
M  V30 4909 C 454.003 -2.26548 2.63236 0
M  V30 4910 C 452.957 -2.03175 3.76701 0
M  V30 4911 C 452.283 -3.38138 4.14206 0
M  V30 4912 C 453.583 -1.38625 5.03568 0
M  V30 4913 H 455.277 -0.523145 2.94794 0
M  V30 4914 H 452.823 -0.250195 1.4181 0
M  V30 4915 H 454.776 -2.95952 2.99984 0
M  V30 4916 H 453.5 -2.74051 1.77661 0
M  V30 4917 H 452.159 -1.36195 3.40362 0
M  V30 4918 H 451.807 -3.83363 3.25641 0
M  V30 4919 H 451.507 -3.23312 4.90656 0
M  V30 4920 H 453.031 -4.08841 4.53521 0
M  V30 4921 H 454.445 -1.98 5.38023 0
M  V30 4922 H 452.842 -1.34256 5.84889 0
M  V30 4923 H 453.912 -0.356722 4.83586 0
M  V30 4924 N 455.255 -1.55392 -0.262866 0
M  V30 4925 C 456.504 -1.75679 -0.990943 0
M  V30 4926 C 456.817 -0.57097 -1.87081 0
M  V30 4927 O 458.023 -0.656486 -2.63444 0
M  V30 4928 C 456.479 -3.10964 -1.81188 0
M  V30 4929 C 456.087 -4.37146 -0.980188 0
M  V30 4930 C 457.831 -3.40597 -2.53365 0
M  V30 4931 C 455.738 -5.63466 -1.7961 0
M  V30 4932 H 454.668 -0.654868 -0.373716 0
M  V30 4933 H 457.319 -1.81841 -0.246203 0
M  V30 4934 H 455.701 -2.98867 -2.59797 0
M  V30 4935 H 456.875 -4.60187 -0.237558 0
M  V30 4936 H 455.19 -4.14731 -0.372497 0
M  V30 4937 H 457.787 -4.32186 -3.14833 0
M  V30 4938 H 458.13 -2.6119 -3.24169 0
M  V30 4939 H 458.663 -3.53838 -1.81779 0
M  V30 4940 H 455.402 -6.4565 -1.13209 0
M  V30 4941 H 454.922 -5.44552 -2.51443 0
M  V30 4942 H 456.601 -6.02139 -2.36723 0
M  V30 4943 N 456.733 0.527833 -1.48498 0
M  V30 4944 C 457.643 1.65907 -1.65867 0
M  V30 4945 C 458.659 1.6537 -0.541192 0
M  V30 4946 O 459.835 1.84282 -0.812534 0
M  V30 4947 C 456.9 3.02364 -1.69637 0
M  V30 4948 C 455.961 3.1374 -2.93028 0
M  V30 4949 C 455.194 4.43688 -2.96609 0
M  V30 4950 O 455.417 5.30913 -2.08538 0
M  V30 4951 O 454.351 4.59475 -3.88802 0
M  V30 4952 H 458.177 1.5419 -2.61647 0
M  V30 4953 H 455.762 0.701163 -1.31924 0
M  V30 4954 H 457.644 3.83515 -1.74625 0
M  V30 4955 H 456.319 3.14401 -0.770312 0
M  V30 4956 H 455.226 2.31877 -2.93571 0
M  V30 4957 H 456.559 3.06621 -3.85026 0
M  V30 4958 N 458.211 1.37122 0.776871 0
M  V30 4959 C 459.141 1.35164 1.90402 0
M  V30 4960 C 460.122 0.221069 1.68657 0
M  V30 4961 O 461.307 0.420642 1.8959 0
M  V30 4962 C 458.437 1.15274 3.27611 0
M  V30 4963 C 457.391 2.25289 3.63908 0
M  V30 4964 C 456.717 1.90527 4.99603 0
M  V30 4965 C 458.017 3.67446 3.71188 0
M  V30 4966 H 459.711 2.29482 1.92297 0
M  V30 4967 H 457.257 1.10465 0.923773 0
M  V30 4968 H 459.21 1.12536 4.06096 0
M  V30 4969 H 457.934 0.174102 3.26136 0
M  V30 4970 H 456.593 2.27174 2.87728 0
M  V30 4971 H 456.241 0.91206 4.94662 0
M  V30 4972 H 455.941 2.64193 5.24858 0
M  V30 4973 H 457.465 1.89367 5.80493 0
M  V30 4974 H 458.879 3.67719 4.39836 0
M  V30 4975 H 457.276 4.40123 4.07936 0
M  V30 4976 H 458.346 4.01443 2.71977 0
M  V30 4977 N 459.689 -1.00246 1.21608 0
M  V30 4978 C 461.105 -1.26435 0.973975 0
M  V30 4979 C 461.305 -1.98642 -0.338143 0
M  V30 4980 O 460.361 -2.29026 -1.06317 0
M  V30 4981 C 461.674 -2.08551 2.16626 0
M  V30 4982 C 463.222 -2.21769 2.20879 0
M  V30 4983 C 463.697 -3.07267 3.39633 0
M  V30 4984 N 465.188 -3.14855 3.39736 0
M  V30 4985 C 465.923 -3.81274 4.28273 0
M  V30 4986 N 465.419 -4.497 5.27012 0
M  V30 4987 N 467.212 -3.7794 4.16074 0
M  V30 4988 H 459.363 -0.518089 2.05984 0
M  V30 4989 H 461.626 -0.291368 0.902113 0
M  V30 4990 H 461.332 -1.62847 3.11727 0
M  V30 4991 H 461.206 -3.09303 2.15897 0
M  V30 4992 H 463.593 -2.66691 1.26332 0
M  V30 4993 H 463.674 -1.20478 2.25652 0
M  V30 4994 H 463.318 -2.63047 4.34475 0
M  V30 4995 H 463.248 -4.08678 3.321 0
M  V30 4996 H 465.739 -2.66147 2.6828 0
M  V30 4997 H 466.052 -4.98092 5.90867 0
M  V30 4998 H 464.397 -4.48479 5.30935 0
M  V30 4999 H 467.588 -3.23638 3.38195 0
M  V30 5000 H 467.761 -4.29424 4.85282 0
M  V30 5001 N 461.167 -1.02423 -1.1978 0
M  V30 5002 C 462.13 -0.605703 -2.21052 0
M  V30 5003 C 463.13 0.328209 -1.57415 0
M  V30 5004 O 464.32 0.115853 -1.73814 0
M  V30 5005 C 461.452 0.114366 -3.40708 0
M  V30 5006 H 462.645 -1.5017 -2.59594 0
M  V30 5007 H 460.198 -0.814888 -1.33376 0
M  V30 5008 H 460.933 1.02492 -3.07678 0
M  V30 5009 H 460.718 -0.556641 -3.88129 0
M  V30 5010 H 462.208 0.394272 -4.15735 0
M  V30 5011 N 462.645 1.35699 -0.801477 0
M  V30 5012 C 463.575 2.32436 -0.222658 0
M  V30 5013 C 464.556 1.5723 0.649057 0
M  V30 5014 O 465.741 1.85324 0.580387 0
M  V30 5015 C 462.871 3.41469 0.633719 0
M  V30 5016 C 461.825 4.27774 -0.139083 0
M  V30 5017 C 461.151 5.28082 0.838666 0
M  V30 5018 C 462.451 5.04946 -1.33517 0
M  V30 5019 H 464.145 2.81094 -1.03086 0
M  V30 5020 H 461.691 1.35146 -0.497155 0
M  V30 5021 H 463.644 4.08143 1.04868 0
M  V30 5022 H 462.368 2.91408 1.47475 0
M  V30 5023 H 461.027 3.62673 -0.535156 0
M  V30 5024 H 460.675 4.7429 1.67506 0
M  V30 5025 H 460.375 5.86695 0.32594 0
M  V30 5026 H 461.899 5.97628 1.25194 0
M  V30 5027 H 463.313 5.64593 -0.995349 0
M  V30 5028 H 461.71 5.7303 -1.78202 0
M  V30 5029 H 462.78 4.35886 -2.12442 0
M  V30 5030 N 464.123 0.554532 1.47522 0
M  V30 5031 C 465.348 0.0322661 2.07375 0
M  V30 5032 C 465.773 -1.25079 1.40488 0
M  V30 5033 O 465.131 -1.74859 0.47896 0
M  V30 5034 C 465.179 -0.149397 3.6029 0
M  V30 5035 O 464.283 -1.21259 3.9417 0
M  V30 5036 H 463.624 0.0501228 0.662106 0
M  V30 5037 H 466.154 0.769452 1.8958 0
M  V30 5038 H 466.164 -0.364437 4.06369 0
M  V30 5039 H 464.839 0.787743 4.08372 0
M  V30 5040 H 463.416 -0.97825 3.5984 0
M  V30 5041 N 465.601 -1.54893 0.290851 0
M  V30 5042 C 466.548 -2.23138 -0.58974 0
M  V30 5043 C 467.518 -1.21036 -1.13752 0
M  V30 5044 O 468.703 -1.49626 -1.18392 0
M  V30 5045 C 465.843 -2.96811 -1.76061 0
M  V30 5046 C 464.956 -4.13665 -1.24519 0
M  V30 5047 C 464.091 -4.74944 -2.3791 0
M  V30 5048 C 463.13 -5.83963 -1.83451 0
M  V30 5049 N 462.267 -6.39239 -2.90376 0
M  V30 5050 H 467.107 -2.98 -0.00114915 0
M  V30 5051 H 464.644 -1.47096 0.0112006 0
M  V30 5052 H 466.602 -3.37751 -2.44909 0
M  V30 5053 H 465.232 -2.24344 -2.32098 0
M  V30 5054 H 464.284 -3.77737 -0.449288 0
M  V30 5055 H 465.596 -4.92238 -0.806424 0
M  V30 5056 H 464.75 -5.18684 -3.14724 0
M  V30 5057 H 463.489 -3.95682 -2.85109 0
M  V30 5058 H 462.494 -5.39657 -1.05122 0
M  V30 5059 H 463.719 -6.65103 -1.37169 0
M  V30 5060 H 461.665 -5.62864 -3.36927 0
M  V30 5061 H 461.582 -7.13129 -2.50965 0
M  V30 5062 H 462.85 -6.87637 -3.67118 0
M  V30 5063 N 467.08 -0.0183926 -1.57589 0
M  V30 5064 C 468.326 0.663543 -1.91638 0
M  V30 5065 C 468.659 1.72392 -0.894134 0
M  V30 5066 O 467.934 1.94316 0.0846449 0
M  V30 5067 C 468.217 1.28984 -3.36207 0
M  V30 5068 C 468.07 0.239761 -4.49161 0
M  V30 5069 C 469.389 2.2109 -3.80536 0
M  V30 5070 H 466.508 0.239746 -0.696915 0
M  V30 5071 H 469.15 -0.073456 -1.89858 0
M  V30 5072 H 467.3 1.91799 -3.37854 0
M  V30 5073 H 468.972 -0.390119 -4.59647 0
M  V30 5074 H 467.215 -0.435972 -4.31604 0
M  V30 5075 H 467.886 0.717383 -5.47319 0
M  V30 5076 H 470.362 1.68273 -3.80557 0
M  V30 5077 H 469.238 2.61869 -4.82406 0
M  V30 5078 H 469.499 3.09764 -3.15434 0
M  V30 5079 N 468.558 1.5553 0.254621 0
M  V30 5080 C 469.521 1.88872 1.29846 0
M  V30 5081 C 470.521 0.764591 1.41459 0
M  V30 5082 O 471.711 1.03265 1.40293 0
M  V30 5083 C 468.843 2.11032 2.67728 0
M  V30 5084 H 470.036 2.82201 1.01502 0
M  V30 5085 H 467.589 1.48303 0.493556 0
M  V30 5086 H 468.324 1.20146 3.01223 0
M  V30 5087 H 468.109 2.92895 2.60682 0
M  V30 5088 H 469.599 2.38038 3.43115 0
M  V30 5089 N 470.036 -0.519951 1.48776 0
M  V30 5090 C 471.447 -1.10177 1.50725 0
M  V30 5091 C 471.798 -1.94153 0.282678 0
M  V30 5092 O 470.923 -2.07645 -0.609298 0
M  V30 5093 C 471.518 -2.00482 2.73116 0
M  V30 5094 C 470.077 -2.53862 2.77905 0
M  V30 5095 C 469.224 -1.31047 2.44381 0
M  V30 5096 H 472.175 -0.30473 1.55747 0
M  V30 5097 H 472.196 -2.8491 2.52203 0
M  V30 5098 H 471.708 -1.39335 3.62225 0
M  V30 5099 H 469.809 -3.18702 1.93029 0
M  V30 5100 H 469.922 -2.9231 3.79594 0
M  V30 5101 H 468.286 -1.62953 1.95751 0
M  V30 5102 H 469.069 -0.71637 3.35743 0
M  V30 5103 N 471.514 -1.37532 -0.769588 0
M  V30 5104 C 472.744 -1.35861 -1.55645 0
M  V30 5105 C 473.152 0.0574398 -1.89113 0
M  V30 5106 O 472.495 1.03021 -1.52093 0
M  V30 5107 C 472.557 -2.13431 -2.89288 0
M  V30 5108 C 472.221 -3.62378 -2.78444 0
M  V30 5109 C 473.218 -4.56215 -2.49326 0
M  V30 5110 C 470.903 -4.05529 -2.96398 0
M  V30 5111 C 472.897 -5.91181 -2.38294 0
M  V30 5112 C 470.584 -5.40579 -2.84987 0
M  V30 5113 C 471.582 -6.33218 -2.55975 0
M  V30 5114 O 471.27 -7.65787 -2.44594 0
M  V30 5115 H 471.002 -0.467001 -0.48876 0
M  V30 5116 H 473.556 -1.81505 -0.961515 0
M  V30 5117 H 471.786 -1.62481 -3.50909 0
M  V30 5118 H 473.475 -2.04368 -3.50697 0
M  V30 5119 H 474.241 -4.24187 -2.35139 0
M  V30 5120 H 470.12 -3.33781 -3.1798 0
M  V30 5121 H 473.664 -6.63457 -2.15571 0
M  V30 5122 H 469.561 -5.72209 -2.98743 0
M  V30 5123 H 470.329 -7.76132 -2.59927 0
M  V30 5124 N 472.992 0.995999 -1.22138 0
M  V30 5125 C 474.239 1.7351 -1.04406 0
M  V30 5126 C 474.567 1.89884 0.421244 0
M  V30 5127 O 473.822 1.43683 1.32867 0
M  V30 5128 C 474.121 3.14553 -1.6968 0
M  V30 5129 C 473.787 3.18102 -3.19565 0
M  V30 5130 C 472.449 3.18778 -3.60464 0
M  V30 5131 C 474.801 3.14636 -4.15516 0
M  V30 5132 C 472.129 3.13684 -4.95801 0
M  V30 5133 C 474.481 3.11084 -5.50826 0
M  V30 5134 C 473.145 3.10074 -5.91109 0
M  V30 5135 H 472.415 0.634916 -0.38205 0
M  V30 5136 H 475.062 1.1667 -1.51857 0
M  V30 5137 H 473.367 3.74682 -1.14546 0
M  V30 5138 H 475.064 3.70477 -1.53454 0
M  V30 5139 H 471.654 3.18324 -2.86998 0
M  V30 5140 H 475.838 3.13266 -3.84939 0
M  V30 5141 H 471.094 3.11245 -5.26247 0
M  V30 5142 H 475.268 3.07357 -6.24904 0
M  V30 5143 H 472.895 3.05882 -6.95946 0
M  V30 5144 N 474.47 1.03057 1.19235 0
M  V30 5145 C 475.38 0.622922 2.26179 0
M  V30 5146 C 476.396 -0.346113 1.70523 0
M  V30 5147 O 477.572 -0.203572 2.00369 0
M  V30 5148 C 474.637 -0.0182063 3.46695 0
M  V30 5149 C 473.698 0.998546 4.17526 0
M  V30 5150 C 472.931 0.387917 5.32288 0
M  V30 5151 O 473.154 -0.808668 5.64639 0
M  V30 5152 O 472.088 1.1116 5.91546 0
M  V30 5153 H 475.914 1.51363 2.63292 0
M  V30 5154 H 473.499 0.800856 1.26122 0
M  V30 5155 H 475.381 -0.375606 4.19723 0
M  V30 5156 H 474.056 -0.882895 3.11427 0
M  V30 5157 H 472.963 1.40756 3.4661 0
M  V30 5158 H 474.296 1.83366 4.56769 0
M  V30 5159 N 475.948 -1.35272 0.808662 0
M  V30 5160 C 477.364 -1.51806 0.492653 0
M  V30 5161 C 477.564 -1.7574 -0.985778 0
M  V30 5162 O 476.62 -1.80003 -1.77074 0
M  V30 5163 C 477.933 -2.69202 1.33981 0
M  V30 5164 C 479.481 -2.8308 1.33547 0
M  V30 5165 C 479.956 -4.03502 2.16679 0
M  V30 5166 N 481.447 -4.10684 2.14227 0
M  V30 5167 C 482.182 -5.02984 2.75308 0
M  V30 5168 N 481.678 -6.00603 3.45323 0
M  V30 5169 N 483.471 -4.95746 2.64938 0
M  V30 5170 H 475.622 -1.17993 1.76611 0
M  V30 5171 H 477.885 -0.577476 0.751814 0
M  V30 5172 H 477.591 -2.581 2.38909 0
M  V30 5173 H 477.465 -3.63854 0.994491 0
M  V30 5174 H 479.852 -2.93631 0.294036 0
M  V30 5175 H 479.933 -1.89278 1.72068 0
M  V30 5176 H 479.577 -3.93711 3.20864 0
M  V30 5177 H 479.507 -4.96489 1.75517 0
M  V30 5178 H 481.998 -3.40802 1.63285 0
M  V30 5179 H 482.311 -6.67633 3.89212 0
M  V30 5180 H 480.656 -6.0077 3.49428 0
M  V30 5181 H 483.847 -4.18439 2.09825 0
M  V30 5182 H 484.02 -5.67487 3.12829 0
M  V30 5183 N 477.426 -0.562348 -1.47226 0
M  V30 5184 C 478.651 -0.0432632 -2.07355 0
M  V30 5185 C 479.076 1.24332 -1.41149 0
M  V30 5186 O 478.434 1.74603 -0.488226 0
M  V30 5187 C 478.482 0.130288 -3.60365 0
M  V30 5188 O 477.586 1.19166 -3.94808 0
M  V30 5189 H 476.927 -0.0536334 -0.66183 0
M  V30 5190 H 479.457 -0.779495 -1.89169 0
M  V30 5191 H 479.467 0.342881 -4.06557 0
M  V30 5192 H 478.142 -0.809389 -4.07948 0
M  V30 5193 H 476.719 0.959153 -3.60354 0
M  V30 5194 N 478.904 1.54736 -0.299062 0
M  V30 5195 C 480.153 1.99279 0.311549 0
M  V30 5196 C 480.466 1.19107 1.55154 0
M  V30 5197 O 481.672 1.53908 2.23662 0
M  V30 5198 C 480.128 3.54768 0.605632 0
M  V30 5199 C 479.736 4.43746 -0.615914 0
M  V30 5200 C 481.48 4.07841 1.17754 0
M  V30 5201 C 479.387 5.90663 -0.29509 0
M  V30 5202 H 478.317 0.744359 0.120187 0
M  V30 5203 H 480.968 1.78919 -0.407464 0
M  V30 5204 H 479.35 3.71021 1.38419 0
M  V30 5205 H 480.524 4.39267 -1.39218 0
M  V30 5206 H 478.839 4.01434 -1.10633 0
M  V30 5207 H 481.436 5.15174 1.43179 0
M  V30 5208 H 481.779 3.58324 2.11918 0
M  V30 5209 H 482.312 3.95123 0.460739 0
M  V30 5210 H 479.051 6.44325 -1.20524 0
M  V30 5211 H 478.571 5.98155 0.44394 0
M  V30 5212 H 480.25 6.46916 0.104048 0
M  V30 5213 N 480.382 0.0267497 1.57577 0
M  V30 5214 C 481.628 -0.653371 1.91987 0
M  V30 5215 C 481.961 -1.71915 0.903263 0
M  V30 5216 O 481.236 -1.94358 -0.0743387 0
M  V30 5217 C 481.519 -1.272 3.36886 0
M  V30 5218 C 481.372 -0.215938 4.49281 0
M  V30 5219 C 482.691 -2.19069 3.81703 0
M  V30 5220 H 479.81 -0.236047 0.698177 0
M  V30 5221 H 482.452 0.0835236 1.89816 0
M  V30 5222 H 480.602 -1.90005 3.38866 0
M  V30 5223 H 482.274 0.41449 4.59434 0
M  V30 5224 H 480.517 0.458855 4.31366 0
M  V30 5225 H 481.188 -0.688347 5.47691 0
M  V30 5226 H 483.664 -1.66253 3.81444 0
M  V30 5227 H 482.54 -2.59307 4.83788 0
M  V30 5228 H 482.801 -3.08087 3.17072 0
M  V30 5229 N 481.861 -1.55662 -0.24637 0
M  V30 5230 C 483.138 -1.68272 -0.997198 0
M  V30 5231 C 483.518 -0.566785 -2.03349 0
M  V30 5232 O 482.866 0.429688 -2.24424 0
M  V30 5233 C 483.076 -3.08594 -1.63006 0
M  V30 5234 C 484.424 -3.6721 -2.13171 0
M  V30 5235 O 485.448 -3.11397 -1.72946 0
M  V30 5236 O 484.307 -4.65054 -2.87031 0
M  V30 5237 H 481.401 -0.684429 -0.464205 0
M  V30 5238 H 483.947 -1.67993 -0.240114 0
M  V30 5239 H 482.719 -3.81264 -0.880527 0
M  V30 5240 H 482.342 -3.12886 -2.45333 0
M  V30 5241 N 483.339 0.512053 -1.4905 0
M  V30 5242 C 484.269 1.62365 -1.67809 0
M  V30 5243 C 485.25 1.61737 -0.526809 0
M  V30 5244 O 486.435 1.78651 -0.761404 0
M  V30 5245 C 483.565 3.00895 -1.73435 0
M  V30 5246 C 482.519 3.16387 -2.88242 0
M  V30 5247 C 481.845 4.56157 -2.78971 0
M  V30 5248 C 483.145 2.97457 -4.29321 0
M  V30 5249 H 484.839 1.46921 -2.60873 0
M  V30 5250 H 482.385 0.705379 -1.2554 0
M  V30 5251 H 484.338 3.78549 -1.85145 0
M  V30 5252 H 483.062 3.17403 -0.769619 0
M  V30 5253 H 481.721 2.41155 -2.76116 0
M  V30 5254 H 481.369 4.69525 -1.8043 0
M  V30 5255 H 481.069 4.67465 -3.5602 0
M  V30 5256 H 482.593 5.35886 -2.92675 0
M  V30 5257 H 484.007 3.64888 -4.42187 0
M  V30 5258 H 482.404 3.20245 -5.07507 0
M  V30 5259 H 483.474 1.93692 -4.44535 0
M  V30 5260 N 484.817 1.37938 0.762283 0
M  V30 5261 C 486.047 1.36685 1.54922 0
M  V30 5262 C 486.455 -0.0474099 1.89141 0
M  V30 5263 O 485.798 -1.02213 1.52638 0
M  V30 5264 C 485.86 2.14963 2.88152 0
M  V30 5265 C 485.524 3.6385 2.76518 0
M  V30 5266 C 486.521 4.57531 2.46904 0
M  V30 5267 C 484.206 4.07095 2.94243 0
M  V30 5268 C 486.2 5.92436 2.35156 0
M  V30 5269 C 483.887 5.42083 2.82116 0
M  V30 5270 C 484.885 6.34567 2.52614 0
M  V30 5271 O 484.573 7.67073 2.40529 0
M  V30 5272 H 484.305 0.469586 0.486276 0
M  V30 5273 H 486.859 1.82012 0.951876 0
M  V30 5274 H 485.089 1.6434 3.50042 0
M  V30 5275 H 486.778 2.06224 3.49609 0
M  V30 5276 H 487.544 4.25428 2.32886 0
M  V30 5277 H 483.423 3.35462 3.16206 0
M  V30 5278 H 486.967 6.64591 2.12049 0
M  V30 5279 H 482.864 5.73785 2.95704 0
M  V30 5280 H 483.632 7.77499 2.55807 0
M  V30 5281 N 486.295 -0.989507 1.22664 0
M  V30 5282 C 487.523 -1.76496 1.07967 0
M  V30 5283 C 487.938 -1.85148 -0.369543 0
M  V30 5284 O 487.295 -1.32408 -1.25596 0
M  V30 5285 C 487.346 -3.19642 1.68853 0
M  V30 5286 O 487.067 -3.11453 3.08105 0
M  V30 5287 C 488.568 -4.13621 1.59475 0
M  V30 5288 H 485.788 -0.55418 0.378319 0
M  V30 5289 H 488.332 -1.24378 1.62328 0
M  V30 5290 H 486.487 -3.68816 1.18547 0
M  V30 5291 H 486.901 -4.01499 3.37489 0
M  V30 5292 H 488.375 -5.11801 2.06795 0
M  V30 5293 H 488.852 -4.35718 0.55191 0
M  V30 5294 H 489.458 -3.70346 2.09103 0
M  V30 5295 N 487.773 -1.03688 -1.18687 0
M  V30 5296 C 489.021 -0.736572 -1.88199 0
M  V30 5297 C 489.342 0.737665 -1.80509 0
M  V30 5298 O 488.612 1.53204 -1.22088 0
M  V30 5299 H 487.192 -0.269466 -0.696704 0
M  V30 5300 H 489.854 -1.31282 -1.44052 0
M  V30 5301 H 488.95 -1.03802 -2.94332 0
M  V30 5302 N 489.251 1.34841 -0.815825 0
M  V30 5303 C 490.199 2.31549 -0.220888 0
M  V30 5304 C 491.193 1.5707 0.634457 0
M  V30 5305 O 492.399 1.72125 0.526589 0
M  V30 5306 H 488.774 0.750153 -0.0526782 0
M  V30 5307 H 490.745 2.7926 -1.05149 0
M  V30 5308 C 489.494 3.42335 0.608427 0
M  V30 5309 H 488.817 3.9978 -0.0404121 0
M  V30 5310 H 490.257 4.12258 0.990931 0
M  V30 5311 C 488.716 2.86173 1.77782 0
M  V30 5312 O 489.246 2.80474 2.87571 0
M  V30 5313 N 487.452 2.43093 1.59229 0
M  V30 5314 H 486.999 2.47928 0.699237 0
M  V30 5315 H 486.957 2.05866 2.37627 0
M  V30 5316 N 490.729 0.570148 1.46925 0
M  V30 5317 C 491.692 -0.159933 2.28641 0
M  V30 5318 C 492.692 -0.830638 1.37685 0
M  V30 5319 O 493.882 -0.684516 1.60187 0
M  V30 5320 C 491.014 -1.2354 3.17727 0
M  V30 5321 H 492.207 0.558035 2.94662 0
M  V30 5322 H 489.76 0.327603 1.52828 0
M  V30 5323 H 490.495 -1.98535 2.56426 0
M  V30 5324 H 490.28 -0.759125 3.84681 0
M  V30 5325 H 491.77 -1.74782 3.79264 0
M  V30 5326 N 492.207 -1.54576 0.307264 0
M  V30 5327 C 493.117 -2.27435 -0.57536 0
M  V30 5328 C 494.133 -1.31183 -1.14311 0
M  V30 5329 O 495.309 -1.64175 -1.16656 0
M  V30 5330 C 492.374 -3.00566 -1.72803 0
M  V30 5331 C 491.435 -4.12369 -1.19373 0
M  V30 5332 C 490.668 -4.82003 -2.29147 0
M  V30 5333 O 490.891 -4.51038 -3.49171 0
M  V30 5334 O 489.825 -5.69271 -1.95485 0
M  V30 5335 H 493.651 -3.03696 0.0158558 0
M  V30 5336 H 491.236 -1.49219 0.0735064 0
M  V30 5337 H 493.118 -3.46416 -2.39946 0
M  V30 5338 H 491.793 -2.27195 -2.30574 0
M  V30 5339 H 490.7 -3.70905 -0.487851 0
M  V30 5340 H 492.033 -4.87736 -0.661376 0
M  V30 5341 N 493.685 -0.035106 -1.57561 0
M  V30 5342 C 494.595 0.960295 -2.14046 0
M  V30 5343 C 495.611 1.3529 -1.0942 0
M  V30 5344 O 496.787 1.43309 -1.41508 0
M  V30 5345 C 493.852 2.22214 -2.66124 0
M  V30 5346 C 492.913 1.8894 -3.85487 0
M  V30 5347 C 492.146 3.09109 -4.35072 0
M  V30 5348 O 492.369 4.21963 -3.83802 0
M  V30 5349 O 491.303 2.91058 -5.26848 0
M  V30 5350 H 495.129 0.509983 -2.99387 0
M  V30 5351 H 492.714 0.185853 -1.48239 0
M  V30 5352 H 494.596 2.96279 -2.99661 0
M  V30 5353 H 493.271 2.66414 -1.83862 0
M  V30 5354 H 492.178 1.12241 -3.56865 0
M  V30 5355 H 493.511 1.49551 -4.6893 0
M  V30 5356 N 495.163 1.55791 0.238111 0
M  V30 5357 C 496.44 1.68798 0.98826 0
M  V30 5358 C 496.82 0.577562 2.03045 0
M  V30 5359 O 496.168 -0.41778 2.24648 0
M  V30 5360 C 496.378 3.09454 1.61367 0
M  V30 5361 C 497.726 3.68335 2.11221 0
M  V30 5362 O 498.75 3.1231 1.71292 0
M  V30 5363 O 497.609 4.6657 2.84561 0
M  V30 5364 H 494.703 0.686881 0.460568 0
M  V30 5365 H 497.249 1.68118 0.231202 0
M  V30 5366 H 496.021 3.81726 0.860295 0
M  V30 5367 H 495.644 3.14182 2.4367 0
M  V30 5368 N 496.642 -0.504142 1.49319 0
M  V30 5369 C 497.605 -1.5883 1.65244 0
M  V30 5370 C 498.605 -1.52009 0.524386 0
M  V30 5371 O 499.795 -1.55218 0.79077 0
M  V30 5372 C 496.927 -2.98481 1.64687 0
M  V30 5373 H 498.12 -1.4604 2.61939 0
M  V30 5374 H 495.673 -0.728144 1.38303 0
M  V30 5375 H 496.408 -3.16751 0.695644 0
M  V30 5376 H 496.193 -3.0484 2.46607 0
M  V30 5377 H 497.683 -3.77256 1.79075 0
M  V30 5378 N 498.12 -1.38341 -0.754957 0
M  V30 5379 C 499.397 -1.24995 -1.50451 0
M  V30 5380 C 499.777 0.149244 -2.10572 0
M  V30 5381 O 499.125 1.15861 -1.96948 0
M  V30 5382 C 499.335 -2.35904 -2.57197 0
M  V30 5383 C 500.683 -2.74262 -3.24138 0
M  V30 5384 O 501.707 -2.35205 -2.67501 0
M  V30 5385 O 500.566 -3.4161 -4.26574 0
M  V30 5386 H 497.66 -0.48872 -0.667144 0
M  V30 5387 H 500.206 -1.50165 -0.790486 0
M  V30 5388 H 498.978 -3.2953 -2.11011 0
M  V30 5389 H 498.601 -2.12291 -3.36182 0
M  V30 5390 N 499.598 0.982988 -1.23187 0
M  V30 5391 C 500.826 1.75921 -1.08901 0
M  V30 5392 C 501.241 1.85341 0.359719 0
M  V30 5393 O 500.598 1.33072 1.24892 0
M  V30 5394 C 500.649 3.18742 -1.70545 0
M  V30 5395 O 500.37 3.09814 -3.09753 0
M  V30 5396 C 501.871 4.1277 -1.61667 0
M  V30 5397 H 499.091 0.552166 -0.381252 0
M  V30 5398 H 501.635 1.23516 -1.62985 0
M  V30 5399 H 499.79 3.68182 -1.20501 0
M  V30 5400 H 500.204 3.99703 -3.39614 0
M  V30 5401 H 501.678 5.10697 -2.09506 0
M  V30 5402 H 502.155 4.3542 -0.575009 0
M  V30 5403 H 502.761 3.69232 -2.11064 0
M  V30 5404 N 501.076 1.04316 1.18135 0
M  V30 5405 C 502.023 0.636398 2.21853 0
M  V30 5406 C 502.993 -0.357039 1.62217 0
M  V30 5407 O 504.178 -0.250453 1.89149 0
M  V30 5408 C 501.318 0.00812779 3.45099 0
M  V30 5409 C 500.431 1.04933 4.19062 0
M  V30 5410 C 499.566 0.389313 5.29771 0
M  V30 5411 C 498.605 1.41544 5.9551 0
M  V30 5412 N 497.742 0.78021 6.97751 0
M  V30 5413 H 502.582 1.52536 2.56002 0
M  V30 5414 H 500.119 0.76304 1.25762 0
M  V30 5415 H 502.077 -0.373497 4.15525 0
M  V30 5416 H 500.707 -0.844336 3.11562 0
M  V30 5417 H 499.759 1.54888 3.47439 0
M  V30 5418 H 501.071 1.82862 4.64072 0
M  V30 5419 H 500.225 -0.0463805 6.06682 0
M  V30 5420 H 498.964 -0.422038 4.8587 0
M  V30 5421 H 497.969 1.86124 5.17337 0
M  V30 5422 H 499.194 2.22854 6.41493 0
M  V30 5423 H 497.14 -0.0107899 6.55999 0
M  V30 5424 H 497.057 1.49716 7.41027 0
M  V30 5425 H 498.325 0.368996 7.78626 0
M  V30 5426 N 502.554 -1.34406 0.822964 0
M  V30 5427 C 503.782 -2.02508 0.424039 0
M  V30 5428 C 504.197 -1.61975 -0.970022 0
M  V30 5429 O 503.554 -0.825228 -1.62777 0
M  V30 5430 C 503.605 -3.57789 0.516657 0
M  V30 5431 O 503.326 -3.96853 1.85577 0
M  V30 5432 C 504.827 -4.43157 0.112637 0
M  V30 5433 H 502.047 -0.649063 0.170173 0
M  V30 5434 H 504.591 -1.7168 1.11113 0
M  V30 5435 H 502.746 -3.87207 -0.122353 0
M  V30 5436 H 503.16 -4.91538 1.83005 0
M  V30 5437 H 504.634 -5.51527 0.228526 0
M  V30 5438 H 505.111 -4.28939 -0.943837 0
M  V30 5439 H 505.717 -4.19067 0.725449 0
M  V30 5440 N 504.032 -0.577932 -1.46621 0
M  V30 5441 C 504.962 0.145917 -2.33044 0
M  V30 5442 C 505.943 0.888412 -1.45056 0
M  V30 5443 O 507.128 0.864812 -1.73881 0
M  V30 5444 C 504.258 1.16322 -3.27241 0
M  V30 5445 C 503.212 0.535868 -4.24632 0
M  V30 5446 C 502.538 1.65929 -5.08303 0
M  V30 5447 C 503.838 -0.523861 -5.19666 0
M  V30 5448 H 505.532 -0.575636 -2.93814 0
M  V30 5449 H 503.078 -0.278272 -1.41286 0
M  V30 5450 H 505.031 1.67793 -3.86553 0
M  V30 5451 H 503.755 1.91498 -2.64567 0
M  V30 5452 H 502.414 0.0422759 -3.66576 0
M  V30 5453 H 502.062 2.40061 -4.42018 0
M  V30 5454 H 501.762 1.2452 -5.74255 0
M  V30 5455 H 503.286 2.17686 -5.70478 0
M  V30 5456 H 504.7 -0.0944059 -5.73222 0
M  V30 5457 H 503.097 -0.858 -5.93935 0
M  V30 5458 H 504.167 -1.41197 -4.63887 0
M  V30 5459 N 505.51 1.54411 -0.315457 0
M  V30 5460 C 506.44 2.27002 0.547039 0
M  V30 5461 C 507.421 1.27492 1.12605 0
M  V30 5462 O 508.606 1.5629 1.15269 0
M  V30 5463 C 505.736 3.02171 1.71201 0
M  V30 5464 C 504.69 4.0895 1.26268 0
M  V30 5465 C 504.016 4.71915 2.51396 0
M  V30 5466 C 505.316 5.20891 0.383419 0
M  V30 5467 H 507.01 2.99343 -0.0584517 0
M  V30 5468 H 504.556 1.4397 -0.0295527 0
M  V30 5469 H 506.509 3.51681 2.32161 0
M  V30 5470 H 505.233 2.27433 2.34397 0
M  V30 5471 H 503.892 3.60312 0.676062 0
M  V30 5472 H 503.54 3.93801 3.12937 0
M  V30 5473 H 503.24 5.44039 2.22026 0
M  V30 5474 H 504.764 5.24195 3.13133 0
M  V30 5475 H 506.178 5.66206 0.899082 0
M  V30 5476 H 504.575 5.99821 0.182857 0
M  V30 5477 H 505.645 4.81324 -0.587821 0
M  V30 5478 N 506.988 0.0434614 1.5754 0
M  V30 5479 C 507.918 -0.931651 2.14109 0
M  V30 5480 C 508.899 -1.32971 1.06079 0
M  V30 5481 O 510.084 -1.40579 1.33982 0
M  V30 5482 C 507.214 -2.20914 2.67982 0
M  V30 5483 C 506.168 -1.95139 3.80926 0
M  V30 5484 C 505.494 -3.29276 4.21285 0
M  V30 5485 C 506.794 -1.27913 5.06395 0
M  V30 5486 H 508.488 -0.460497 2.95837 0
M  V30 5487 H 506.034 -0.220058 1.42309 0
M  V30 5488 H 507.987 -2.89522 3.06194 0
M  V30 5489 H 506.711 -2.70221 1.83434 0
M  V30 5490 H 505.37 -1.28945 3.43175 0
M  V30 5491 H 505.018 -3.76369 3.33699 0
M  V30 5492 H 504.718 -3.12831 4.97404 0
M  V30 5493 H 506.242 -3.99129 4.62091 0
M  V30 5494 H 507.656 -1.86544 5.42102 0
M  V30 5495 H 506.053 -1.2182 5.87605 0
M  V30 5496 H 507.123 -0.254066 4.84234 0
M  V30 5497 N 508.466 -1.55915 -0.229846 0
M  V30 5498 C 509.414 -1.9258 -1.30444 0
M  V30 5499 C 510.408 -0.806839 -1.48951 0
M  V30 5500 O 511.614 -0.991606 -1.50224 0
M  V30 5501 H 507.989 -0.611878 -0.437161 0
M  V30 5502 H 509.96 -2.82264 -0.96797 0
M  V30 5503 C 508.709 -2.25171 -2.6494 0
M  V30 5504 H 508.032 -3.10782 -2.51504 0
M  V30 5505 H 509.472 -2.54716 -3.38963 0
M  V30 5506 C 507.931 -1.07394 -3.19324 0
M  V30 5507 O 508.461 -0.330759 -4.00336 0
M  V30 5508 N 506.667 -0.859984 -2.77584 0
M  V30 5509 H 506.214 -1.46605 -2.11813 0
M  V30 5510 H 506.172 -0.0736671 -3.14314 0
M  V30 5511 N 509.944 0.496216 -1.49584 0
M  V30 5512 C 511.193 1.24668 -1.58558 0
M  V30 5513 C 511.506 1.9359 -0.279703 0
M  V30 5514 O 512.712 2.70365 -0.248048 0
M  V30 5515 C 511.168 2.26388 -2.79779 0
M  V30 5516 C 510.776 1.63384 -4.17145 0
M  V30 5517 C 512.52 3.02233 -2.98086 0
M  V30 5518 C 510.427 2.63243 -5.29582 0
M  V30 5519 H 509.357 0.468995 -0.590389 0
M  V30 5520 H 512.008 0.519985 -1.75978 0
M  V30 5521 H 510.39 3.02241 -2.55863 0
M  V30 5522 H 511.564 0.93491 -4.51216 0
M  V30 5523 H 509.879 0.999121 -4.04236 0
M  V30 5524 H 512.476 3.76919 -3.79257 0
M  V30 5525 H 512.819 3.60132 -2.08831 0
M  V30 5526 H 513.352 2.33495 -3.22063 0
M  V30 5527 H 510.091 2.10119 -6.20911 0
M  V30 5528 H 509.611 3.31363 -4.99959 0
M  V30 5529 H 511.29 3.25575 -5.59115 0
M  V30 5530 N 511.423 1.38739 0.74761 0
M  V30 5531 C 512.67 1.35274 1.50689 0
M  V30 5532 C 512.998 -0.0553359 1.94421 0
M  V30 5533 O 512.253 -1.03365 1.66175 0
M  V30 5534 C 512.552 2.25992 2.7688 0
M  V30 5535 C 512.218 3.73854 2.5208 0
M  V30 5536 C 510.88 4.14145 2.45025 0
M  V30 5537 C 513.232 4.67427 2.30568 0
M  V30 5538 C 510.56 5.4609 2.14483 0
M  V30 5539 C 512.912 5.99635 2.01545 0
M  V30 5540 C 511.576 6.39004 1.92951 0
M  V30 5541 H 510.846 0.495003 0.55141 0
M  V30 5542 H 513.493 1.71145 0.859158 0
M  V30 5543 H 511.798 1.83196 3.46333 0
M  V30 5544 H 513.495 2.20611 3.34861 0
M  V30 5545 H 510.085 3.41913 2.58444 0
M  V30 5546 H 514.269 4.3714 2.34994 0
M  V30 5547 H 509.525 5.75528 2.06342 0
M  V30 5548 H 513.699 6.71678 1.83906 0
M  V30 5549 H 511.326 7.41165 1.6905 0
M  V30 5550 N 512.901 -0.976442 1.23707 0
M  V30 5551 C 513.833 -2.07212 0.979574 0
M  V30 5552 C 514.846 -1.6273 -0.0478528 0
M  V30 5553 O 516.035 -1.77506 0.18815 0
M  V30 5554 C 513.135 -3.35835 0.45479 0
M  V30 5555 C 512.308 -4.09268 1.54331 0
M  V30 5556 C 511.367 -5.16166 1.02271 0
M  V30 5557 O 510.393 -5.42827 1.71254 0
M  V30 5558 N 511.595 -5.80313 -0.147419 0
M  V30 5559 H 514.36 -2.29878 1.92292 0
M  V30 5560 H 511.921 -1.14343 1.14618 0
M  V30 5561 H 513.913 -4.04597 0.0914631 0
M  V30 5562 H 512.483 -3.10106 -0.394068 0
M  V30 5563 H 511.703 -3.34906 2.07923 0
M  V30 5564 H 512.991 -4.55095 2.27522 0
M  V30 5565 H 512.389 -5.61043 -0.724353 0
M  V30 5566 H 510.946 -6.50231 -0.451972 0
M  V30 5567 N 514.379 -1.04941 -1.1758 0
M  V30 5568 C 515.656 -0.671918 -1.83697 0
M  V30 5569 C 516.036 0.847929 -1.93322 0
M  V30 5570 O 515.384 1.75287 -1.46583 0
M  V30 5571 C 515.594 -1.35797 -3.21497 0
M  V30 5572 C 516.942 -1.4944 -3.97433 0
M  V30 5573 O 517.966 -1.31678 -3.30967 0
M  V30 5574 O 516.825 -1.78463 -5.1654 0
M  V30 5575 H 513.919 -0.236212 -0.792548 0
M  V30 5576 H 516.465 -1.14884 -1.24899 0
M  V30 5577 H 515.237 -2.39498 -3.09446 0
M  V30 5578 H 514.86 -0.870236 -3.8796 0
M  V30 5579 N 515.857 1.33968 -0.830081 0
M  V30 5580 C 517.085 2.0228 -0.434773 0
M  V30 5581 C 517.5 1.62487 0.961419 0
M  V30 5582 O 516.857 0.833849 1.62337 0
M  V30 5583 C 516.908 3.5751 -0.535625 0
M  V30 5584 O 516.629 3.95864 -1.87679 0
M  V30 5585 C 518.13 4.43091 -0.136137 0
M  V30 5586 H 515.35 0.648151 -0.173613 0
M  V30 5587 H 517.894 1.71089 -1.12022 0
M  V30 5588 H 516.049 3.87266 0.101817 0
M  V30 5589 H 516.463 4.9056 -1.85609 0
M  V30 5590 H 517.937 5.51398 -0.257772 0
M  V30 5591 H 518.414 4.29433 0.921076 0
M  V30 5592 H 519.02 4.18677 -0.747662 0
M  V30 5593 N 517.335 0.585699 1.46312 0
M  V30 5594 C 518.282 -0.145835 2.30339 0
M  V30 5595 C 519.252 -0.881215 1.40797 0
M  V30 5596 O 520.437 -0.871293 1.69744 0
M  V30 5597 C 517.577 -1.15161 3.25318 0
M  V30 5598 C 516.69 -0.419367 4.2996 0
M  V30 5599 C 515.825 -1.41293 5.12064 0
M  V30 5600 C 514.864 -0.667261 6.08452 0
M  V30 5601 N 514.001 -1.60903 6.83414 0
M  V30 5602 H 518.841 0.576755 2.92365 0
M  V30 5603 H 516.378 0.296237 1.44086 0
M  V30 5604 H 518.336 -1.74763 3.78832 0
M  V30 5605 H 516.966 -1.84188 2.65094 0
M  V30 5606 H 516.018 0.291751 3.7928 0
M  V30 5607 H 517.33 0.163433 4.98532 0
M  V30 5608 H 516.484 -2.08167 5.6987 0
M  V30 5609 H 515.223 -2.02966 4.43459 0
M  V30 5610 H 514.228 0.0152356 5.49798 0
M  V30 5611 H 515.453 -0.0558817 6.79077 0
M  V30 5612 H 513.399 -2.21381 6.17516 0
M  V30 5613 H 513.316 -1.07911 7.48259 0
M  V30 5614 H 514.584 -2.26802 7.45775 0
M  V30 5615 N 518.813 -1.54241 0.323641 0
M  V30 5616 C 520.038 -2.05452 -0.283605 0
M  V30 5617 C 520.463 -1.19823 -1.44997 0
M  V30 5618 O 519.821 -0.207358 -1.8011 0
M  V30 5619 C 519.869 -3.53823 -0.695795 0
M  V30 5620 O 518.973 -3.71134 -1.79815 0
M  V30 5621 H 518.314 -0.662024 -0.0511917 0
M  V30 5622 H 520.844 -1.99079 0.472073 0
M  V30 5623 H 520.854 -3.96094 -0.978434 0
M  V30 5624 H 519.529 -4.15602 0.157287 0
M  V30 5625 H 518.106 -3.40768 -1.51431 0
M  V30 5626 N 520.291 -0.0518155 -1.57515 0
M  V30 5627 C 521.538 0.621823 -1.92716 0
M  V30 5628 C 521.866 1.70813 -0.930229 0
M  V30 5629 O 521.121 1.95616 0.0573708 0
M  V30 5630 C 521.42 1.25607 -3.34601 0
M  V30 5631 C 521.086 0.297901 -4.49915 0
M  V30 5632 C 519.748 0.034243 -4.81188 0
M  V30 5633 C 522.1 -0.358738 -5.19964 0
M  V30 5634 C 519.428 -0.893479 -5.79857 0
M  V30 5635 C 521.78 -1.27466 -6.19625 0
M  V30 5636 C 520.444 -1.54698 -6.49326 0
M  V30 5637 H 519.714 0.227541 -0.705199 0
M  V30 5638 H 522.361 -0.118432 -1.91133 0
M  V30 5639 H 520.666 2.07161 -3.32553 0
M  V30 5640 H 522.363 1.78424 -3.59118 0
M  V30 5641 H 518.953 0.513581 -4.25512 0
M  V30 5642 H 523.137 -0.168133 -4.96015 0
M  V30 5643 H 518.393 -1.11193 -6.01204 0
M  V30 5644 H 522.567 -1.78953 -6.73015 0
M  V30 5645 H 520.194 -2.26748 -7.25596 0
M  V30 5646 N 521.769 1.56035 0.221574 0
M  V30 5647 C 523.18 1.69229 0.788567 0
M  V30 5648 C 523.531 0.653814 1.84986 0
M  V30 5649 O 522.656 -0.195065 2.15519 0
M  V30 5650 C 523.251 3.06809 1.43713 0
M  V30 5651 C 521.81 3.21858 1.95152 0
M  V30 5652 C 520.957 2.65155 0.811685 0
M  V30 5653 H 523.908 1.587 -0.00307894 0
M  V30 5654 H 523.929 3.02666 2.30594 0
M  V30 5655 H 523.441 3.82369 0.664475 0
M  V30 5656 H 521.542 2.51167 2.7522 0
M  V30 5657 H 521.655 4.29073 2.1315 0
M  V30 5658 H 520.019 2.23635 1.21899 0
M  V30 5659 H 520.802 3.43261 0.0516987 0
M  V30 5660 N 523.247 -0.488276 1.49845 0
M  V30 5661 C 524.18 -1.60651 1.62069 0
M  V30 5662 C 525.158 -1.5568 0.469308 0
M  V30 5663 O 526.342 -1.75553 0.686551 0
M  V30 5664 C 523.469 -2.99197 1.58741 0
M  V30 5665 C 522.515 -3.22385 2.79232 0
M  V30 5666 S 523.348 -3.04133 4.40753 0
M  V30 5667 C 524.504 -4.45052 4.4009 0
M  V30 5668 H 524.737 -1.50039 2.56662 0
M  V30 5669 H 522.27 -0.674371 1.38894 0
M  V30 5670 H 524.228 -3.79081 1.57506 0
M  V30 5671 H 522.889 -3.07213 0.654136 0
M  V30 5672 H 522.082 -4.23557 2.73159 0
M  V30 5673 H 521.684 -2.50245 2.77945 0
M  V30 5674 H 523.976 -5.37375 4.12594 0
M  V30 5675 H 524.919 -4.56172 5.41583 0
M  V30 5676 H 525.327 -4.26327 3.70008 0
M  V30 5677 N 524.725 -1.39134 -0.740242 0
M  V30 5678 C 525.675 -1.33928 -1.84519 0
M  V30 5679 C 526.659 -0.221097 -1.59374 0
M  V30 5680 O 527.851 -0.458195 -1.70967 0
M  V30 5681 C 524.98 -1.17991 -3.22387 0
M  V30 5682 C 524.066 -2.34488 -3.53378 0
M  V30 5683 N 524.457 -3.59954 -3.5534 0
M  V30 5684 C 522.755 -2.27331 -3.83714 0
M  V30 5685 C 523.456 -4.36962 -3.83978 0
M  V30 5686 N 522.432 -3.66482 -4.01487 0
M  V30 5687 H 526.234 -2.28907 -1.84333 0
M  V30 5688 H 523.748 -1.32555 -0.938237 0
M  V30 5689 H 525.745 -1.12345 -4.01478 0
M  V30 5690 H 524.405 -0.23957 -3.23815 0
M  V30 5691 H 525.416 -3.93448 -3.36778 0
M  V30 5692 H 522.093 -1.41531 -3.92779 0
M  V30 5693 H 523.483 -5.45692 -3.92008 0
M  V30 5694 N 526.204 0.969867 -1.24223 0
M  V30 5695 C 527.451 1.71256 -1.08063 0
M  V30 5696 C 527.779 1.90734 0.380872 0
M  V30 5697 O 527.034 1.46469 1.29789 0
M  V30 5698 C 527.333 3.10883 -1.76314 0
M  V30 5699 C 526.999 3.11252 -3.26241 0
M  V30 5700 C 525.661 3.1106 -3.67144 0
M  V30 5701 C 528.013 3.05751 -4.22097 0
M  V30 5702 C 525.341 3.03097 -5.02344 0
M  V30 5703 C 527.693 2.9933 -5.57301 0
M  V30 5704 C 526.357 2.97466 -5.97554 0
M  V30 5705 H 525.627 0.62667 -0.395431 0
M  V30 5706 H 528.274 1.13422 -1.54297 0
M  V30 5707 H 526.579 3.72168 -1.22468 0
M  V30 5708 H 528.276 3.67138 -1.61277 0
M  V30 5709 H 524.866 3.12165 -2.93685 0
M  V30 5710 H 529.05 3.05031 -3.91497 0
M  V30 5711 H 524.306 3.00013 -5.32731 0
M  V30 5712 H 528.48 2.94033 -6.31283 0
M  V30 5713 H 526.107 2.91051 -7.02277 0
M  V30 5714 N 527.682 1.05563 1.17022 0
M  V30 5715 C 528.959 0.68165 1.83338 0
M  V30 5716 C 529.339 -0.837665 1.93769 0
M  V30 5717 O 528.687 -1.74507 1.47511 0
M  V30 5718 C 528.897 1.375 3.20772 0
M  V30 5719 C 530.245 1.51545 3.96635 0
M  V30 5720 O 531.269 1.33431 3.30264 0
M  V30 5721 O 530.128 1.812 5.15586 0
M  V30 5722 H 527.222 0.240412 0.791285 0
M  V30 5723 H 529.768 1.15545 1.24288 0
M  V30 5724 H 528.54 2.41135 3.08171 0
M  V30 5725 H 528.163 0.890798 3.87493 0
M  V30 5726 N 529.16 -1.33526 0.837174 0
M  V30 5727 C 530.07 -2.33023 0.271568 0
M  V30 5728 C 531.086 -1.63272 -0.601514 0
M  V30 5729 O 532.262 -1.94939 -0.506038 0
M  V30 5730 C 529.327 -3.42382 -0.545448 0
M  V30 5731 C 528.388 -4.27857 0.351709 0
M  V30 5732 C 527.621 -5.31994 -0.426409 0
M  V30 5733 O 527.844 -5.45763 -1.65828 0
M  V30 5734 O 526.778 -6.01572 0.1987 0
M  V30 5735 H 530.604 -2.83256 1.09545 0
M  V30 5736 H 528.189 -1.36837 0.599655 0
M  V30 5737 H 530.071 -4.09122 -1.00979 0
M  V30 5738 H 528.746 -2.94369 -1.34641 0
M  V30 5739 H 527.653 -3.6399 0.863853 0
M  V30 5740 H 528.986 -4.79349 1.1174 0
M  V30 5741 N 530.638 -0.59345 -1.46 0
M  V30 5742 C 531.585 0.133618 -2.30413 0
M  V30 5743 C 532.555 0.873736 -1.41262 0
M  V30 5744 O 533.74 0.862279 -1.70204 0
M  V30 5745 C 530.88 1.13434 -3.25924 0
M  V30 5746 C 529.993 0.39656 -4.30176 0
M  V30 5747 C 529.128 1.38575 -5.12806 0
M  V30 5748 C 528.167 0.634984 -6.08797 0
M  V30 5749 N 527.304 1.57276 -6.84258 0
M  V30 5750 H 532.144 -0.592252 -2.92055 0
M  V30 5751 H 529.681 -0.303874 -1.43927 0
M  V30 5752 H 531.639 1.72752 -3.79753 0
M  V30 5753 H 530.269 1.82779 -2.66067 0
M  V30 5754 H 529.321 -0.311861 -3.79119 0
M  V30 5755 H 530.633 -0.189869 -4.98438 0
M  V30 5756 H 529.787 2.05141 -5.70966 0
M  V30 5757 H 528.526 2.00611 -4.44529 0
M  V30 5758 H 527.531 -0.0443925 -5.49782 0
M  V30 5759 H 528.756 0.0198678 -6.79097 0
M  V30 5760 H 526.702 2.18103 -6.18682 0
M  V30 5761 H 526.619 1.03941 -7.48821 0
M  V30 5762 H 527.887 2.22844 -7.46968 0
M  V30 5763 N 532.116 1.54067 -0.331816 0
M  V30 5764 C 533.341 2.05599 0.272705 0
M  V30 5765 C 533.766 1.2059 1.44359 0
M  V30 5766 O 533.124 0.216907 1.79998 0
M  V30 5767 C 533.172 3.54188 0.677021 0
M  V30 5768 O 532.276 3.72082 1.77844 0
M  V30 5769 H 531.617 0.662286 0.0476801 0
M  V30 5770 H 534.147 1.98826 -0.482624 0
M  V30 5771 H 534.157 3.96608 0.957415 0
M  V30 5772 H 532.832 4.15513 -0.179325 0
M  V30 5773 H 531.409 3.41566 1.49622 0
M  V30 5774 N 533.594 0.0601682 1.57485 0
M  V30 5775 C 534.527 -0.94676 2.07634 0
M  V30 5776 C 535.505 -1.29837 0.978826 0
M  V30 5777 O 536.689 -1.40969 1.2514 0
M  V30 5778 C 533.816 -2.25822 2.52433 0
M  V30 5779 C 532.862 -2.05901 3.73507 0
M  V30 5780 S 533.695 -1.32907 5.18745 0
M  V30 5781 C 534.851 -2.65356 5.66866 0
M  V30 5782 H 535.084 -0.520003 2.92717 0
M  V30 5783 H 532.617 -0.152319 1.53647 0
M  V30 5784 H 534.575 -3.01201 2.78905 0
M  V30 5785 H 533.236 -2.65624 1.67639 0
M  V30 5786 H 532.429 -3.02929 4.02803 0
M  V30 5787 H 532.031 -1.38659 3.47347 0
M  V30 5788 H 534.323 -3.61492 5.73001 0
M  V30 5789 H 535.266 -2.40685 6.6594 0
M  V30 5790 H 535.674 -2.72028 4.94632 0
M  V30 5791 N 535.072 -1.5615 -0.213296 0
M  V30 5792 C 536.319 -1.79546 -0.936462 0
M  V30 5793 C 536.647 -0.630337 -1.84003 0
M  V30 5794 O 535.902 0.384883 -1.91878 0
M  V30 5795 C 536.201 -3.08772 -1.79985 0
M  V30 5796 C 535.867 -4.38532 -1.04882 0
M  V30 5797 C 534.529 -4.73787 -0.841393 0
M  V30 5798 C 536.881 -5.18609 -0.51907 0
M  V30 5799 C 534.209 -5.86627 -0.0924403 0
M  V30 5800 C 536.561 -6.32229 0.216581 0
M  V30 5801 C 535.225 -6.6608 0.435191 0
M  V30 5802 H 534.495 -0.657004 -0.342676 0
M  V30 5803 H 537.142 -1.9041 -0.204051 0
M  V30 5804 H 535.447 -2.93065 -2.60038 0
M  V30 5805 H 537.144 -3.24077 -2.36168 0
M  V30 5806 H 533.734 -4.10855 -1.22048 0
M  V30 5807 H 537.918 -4.91801 -0.666775 0
M  V30 5808 H 533.174 -6.11338 0.087081 0
M  V30 5809 H 537.348 -6.93503 0.634538 0
M  V30 5810 H 534.975 -7.5336 1.01746 0
M  V30 5811 N 536.55 0.480323 -1.50102 0
M  V30 5812 C 537.513 1.56181 -1.6775 0
M  V30 5813 C 538.513 1.51156 -0.548503 0
M  V30 5814 O 539.703 1.5394 -0.815363 0
M  V30 5815 C 536.835 2.95823 -1.69415 0
M  V30 5816 H 538.028 1.41855 -2.6423 0
M  V30 5817 H 535.581 0.70605 -1.39444 0
M  V30 5818 H 536.316 3.15604 -0.745948 0
M  V30 5819 H 536.101 3.00878 -2.51425 0
M  V30 5820 H 537.591 3.74359 -1.85054 0
M  V30 5821 N 538.028 1.39524 0.732853 0
M  V30 5822 C 539.276 1.36594 1.48951 0
M  V30 5823 C 539.597 -0.0367507 1.94965 0
M  V30 5824 O 538.867 -0.988391 1.69138 0
M  V30 5825 H 537.447 0.502673 0.552566 0
M  V30 5826 H 540.109 1.74411 0.869869 0
M  V30 5827 H 539.205 2.03 2.3706 0
M  V30 5828 N 539.506 -0.963266 1.24736 0
M  V30 5829 C 540.783 -1.68248 0.9976 0
M  V30 5830 C 541.163 -2.05599 -0.478776 0
M  V30 5831 O 540.511 -1.7626 -1.45412 0
M  V30 5832 C 540.721 -2.91118 1.92487 0
M  V30 5833 C 542.069 -3.63261 2.19833 0
M  V30 5834 O 543.093 -3.01184 1.90176 0
M  V30 5835 O 541.952 -4.75019 2.7022 0
M  V30 5836 H 539.046 -0.735744 0.377637 0
M  V30 5837 H 541.592 -1.01696 1.35853 0
M  V30 5838 H 540.364 -2.60242 2.92215 0
M  V30 5839 H 539.987 -3.65402 1.56738 0
M  V30 5840 N 540.985 -1.06182 -1.16461 0
M  V30 5841 C 541.932 -0.671613 -2.20812 0
M  V30 5842 C 542.902 0.331186 -1.62765 0
M  V30 5843 O 544.087 0.22033 -1.89524 0
M  V30 5844 C 541.227 -0.063029 -3.45042 0
M  V30 5845 C 540.34 -1.11587 -4.1734 0
M  V30 5846 C 539.475 -0.473546 -5.29085 0
M  V30 5847 C 538.514 -1.51 -5.93182 0
M  V30 5848 N 537.651 -0.891118 -6.96422 0
M  V30 5849 H 542.491 -1.56589 -2.53542 0
M  V30 5850 H 540.028 -0.782951 -1.24532 0
M  V30 5851 H 541.986 0.307344 -4.16066 0
M  V30 5852 H 540.616 0.794663 -3.12866 0
M  V30 5853 H 539.668 -1.60396 -3.44931 0
M  V30 5854 H 540.98 -1.90221 -4.61104 0
M  V30 5855 H 540.134 -0.0501432 -6.06679 0
M  V30 5856 H 538.873 0.344687 -4.8648 0
M  V30 5857 H 537.878 -1.94331 -5.14311 0
M  V30 5858 H 539.103 -2.33031 -6.37866 0
M  V30 5859 H 537.049 -0.0935753 -6.55933 0
M  V30 5860 H 536.966 -1.61486 -7.38551 0
M  V30 5861 H 538.234 -0.492822 -7.77941 0
M  V30 5862 N 542.463 1.3308 -0.844243 0
M  V30 5863 C 543.41 2.29104 -0.279323 0
M  V30 5864 C 544.38 1.54577 0.607882 0
M  V30 5865 O 545.565 1.8285 0.545009 0
M  V30 5866 C 542.705 3.40927 0.53508 0
M  V30 5867 C 541.818 4.30354 -0.376749 0
M  V30 5868 C 540.953 5.29297 0.449276 0
M  V30 5869 C 539.992 6.10365 -0.460606 0
M  V30 5870 N 539.129 7.01335 0.327612 0
M  V30 5871 H 543.969 2.76817 -1.10346 0
M  V30 5872 H 541.506 1.36203 -0.555611 0
M  V30 5873 H 543.464 4.04469 1.02278 0
M  V30 5874 H 542.094 2.94391 1.32414 0
M  V30 5875 H 541.146 3.67485 -0.982791 0
M  V30 5876 H 542.458 4.87067 -1.07549 0
M  V30 5877 H 541.612 5.98392 1.00058 0
M  V30 5878 H 540.351 4.73174 1.18143 0
M  V30 5879 H 539.356 5.40182 -1.02388 0
M  V30 5880 H 540.581 6.68571 -1.1912 0
M  V30 5881 H 538.527 6.47655 1.04305 0
M  V30 5882 H 538.444 7.55355 -0.3123 0
M  V30 5883 H 539.712 7.74731 0.86098 0
M  V30 5884 N 543.941 0.601185 1.45683 0
M  V30 5885 C 545.189 0.0936957 2.01883 0
M  V30 5886 C 545.51 -1.2779 1.47291 0
M  V30 5887 O 544.78 -1.84279 0.664691 0
M  V30 5888 H 543.36 0.0316466 0.746329 0
M  V30 5889 H 546.022 0.781137 1.78562 0
M  V30 5890 H 545.118 0.0386297 3.12076 0
M  V30 5891 N 545.419 -1.53889 0.339982 0
M  V30 5892 C 546.382 -2.23547 -0.50592 0
M  V30 5893 C 547.382 -1.23445 -1.03044 0
M  V30 5894 O 548.572 -1.47909 -0.920253 0
M  V30 5895 C 545.704 -2.95234 -1.7044 0
M  V30 5896 H 546.897 -2.99722 0.103247 0
M  V30 5897 H 544.45 -1.56033 0.0912804 0
M  V30 5898 H 545.185 -2.23236 -2.35236 0
M  V30 5899 H 544.97 -3.68654 -1.33553 0
M  V30 5900 H 546.46 -3.48258 -2.30447 0
M  V30 5901 N 546.897 -0.0685191 -1.57451 0
M  V30 5902 C 547.844 0.899861 -2.12535 0
M  V30 5903 C 548.814 1.29749 -1.03703 0
M  V30 5904 O 549.999 1.38392 -1.31348 0
M  V30 5905 C 547.139 2.16328 -2.6888 0
M  V30 5906 C 546.252 1.81857 -3.91857 0
M  V30 5907 C 545.387 3.02786 -4.36457 0
M  V30 5908 C 544.426 2.64317 -5.5209 0
M  V30 5909 N 543.563 3.77994 -5.91663 0
M  V30 5910 H 548.403 0.423243 -2.94979 0
M  V30 5911 H 545.94 0.197268 -1.45771 0
M  V30 5912 H 547.898 2.90281 -2.99655 0
M  V30 5913 H 546.528 2.61536 -1.89206 0
M  V30 5914 H 545.58 0.979808 -3.67565 0
M  V30 5915 H 546.892 1.49553 -4.75852 0
M  V30 5916 H 546.046 3.85021 -4.68875 0
M  V30 5917 H 544.785 3.38281 -3.51308 0
M  V30 5918 H 543.79 1.80503 -5.19325 0
M  V30 5919 H 545.015 2.29995 -6.38967 0
M  V30 5920 H 542.961 4.13258 -5.09464 0
M  V30 5921 H 542.878 3.49447 -6.7039 0
M  V30 5922 H 544.146 4.60818 -6.28703 0
M  V30 5923 N 548.375 1.56261 0.205012 0
M  V30 5924 C 549.6 1.84491 0.947512 0
M  V30 5925 C 550.025 0.650894 1.76479 0
M  V30 5926 O 549.383 -0.40035 1.76824 0
M  V30 5927 C 549.431 3.10863 1.82747 0
M  V30 5928 O 548.535 2.90719 2.925 0
M  V30 5929 H 547.876 0.607783 0.267386 0
M  V30 5930 H 550.406 2.03485 0.213323 0
M  V30 5931 H 550.416 3.41399 2.23407 0
M  V30 5932 H 549.091 3.97392 1.2269 0
M  V30 5933 H 547.668 2.71457 2.55667 0
M  V30 5934 N 549.853 -0.472356 1.50355 0
M  V30 5935 C 550.783 -1.57859 1.72055 0
M  V30 5936 C 551.764 -1.60283 0.569505 0
M  V30 5937 O 552.949 -1.7657 0.808503 0
M  V30 5938 C 550.079 -2.96191 1.81351 0
M  V30 5939 C 549.033 -3.08633 2.96529 0
M  V30 5940 C 548.359 -4.486 2.90968 0
M  V30 5941 C 549.659 -2.85969 4.37057 0
M  V30 5942 H 551.353 -1.39953 2.64676 0
M  V30 5943 H 548.899 -0.671846 1.27367 0
M  V30 5944 H 550.852 -3.73507 1.95117 0
M  V30 5945 H 549.576 -3.15251 0.853502 0
M  V30 5946 H 548.235 -2.33749 2.82413 0
M  V30 5947 H 547.883 -4.64577 1.92815 0
M  V30 5948 H 547.583 -4.57861 3.68289 0
M  V30 5949 H 549.107 -5.27938 3.0678 0
M  V30 5950 H 550.521 -3.53036 4.51706 0
M  V30 5951 H 548.918 -3.06677 5.15819 0
M  V30 5952 H 549.988 -1.81838 4.49514 0
M  V30 5953 N 551.331 -1.39911 -0.725443 0
M  V30 5954 C 552.278 -1.39393 -1.83952 0
M  V30 5955 C 553.248 -0.252249 -1.64173 0
M  V30 5956 O 554.433 -0.44882 -1.85446 0
M  V30 5957 C 551.573 -1.25262 -3.21564 0
M  V30 5958 C 550.686 -2.49054 -3.52982 0
M  V30 5959 C 549.821 -2.27439 -4.80047 0
M  V30 5960 C 548.86 -3.46857 -5.04338 0
M  V30 5961 N 547.997 -3.24499 -6.22611 0
M  V30 5962 H 552.837 -2.34622 -1.83729 0
M  V30 5963 H 550.374 -1.16537 -0.897636 0
M  V30 5964 H 552.332 -1.15077 -4.01015 0
M  V30 5965 H 550.962 -0.33657 -3.21041 0
M  V30 5966 H 550.014 -2.69805 -2.6816 0
M  V30 5967 H 551.326 -3.37973 -3.66846 0
M  V30 5968 H 550.48 -2.14551 -5.67497 0
M  V30 5969 H 549.219 -1.35929 -4.68374 0
M  V30 5970 H 548.224 -3.60232 -4.15346 0
M  V30 5971 H 549.449 -4.3928 -5.17889 0
M  V30 5972 H 547.395 -2.35663 -6.12208 0
M  V30 5973 H 547.312 -4.06978 -6.37106 0
M  V30 5974 H 548.58 -3.15325 -7.12875 0
M  V30 5975 N 552.809 0.956637 -1.25245 0
M  V30 5976 C 553.719 2.0868 -1.0719 0
M  V30 5977 C 554.735 1.73997 -0.00959074 0
M  V30 5978 O 555.911 2.00301 -0.210104 0
M  V30 5979 C 552.976 3.39754 -0.690526 0
M  V30 5980 C 552.037 3.88316 -1.83055 0
M  V30 5981 C 551.27 5.13134 -1.46728 0
M  V30 5982 O 551.493 5.6925 -0.362029 0
M  V30 5983 O 550.427 5.56356 -2.29677 0
M  V30 5984 H 554.253 2.26813 -2.01965 0
M  V30 5985 H 551.838 1.07098 -1.04165 0
M  V30 5986 H 553.72 4.18543 -0.489871 0
M  V30 5987 H 552.395 3.22896 0.227981 0
M  V30 5988 H 551.302 3.1054 -2.08604 0
M  V30 5989 H 552.635 4.09669 -2.72822 0
M  V30 5990 N 554.287 1.06798 1.15896 0
M  V30 5991 C 555.197 0.694564 2.24083 0
M  V30 5992 C 556.213 -0.291687 1.71538 0
M  V30 5993 O 557.389 -0.139723 2.00915 0
M  V30 5994 C 554.454 0.0921014 3.46578 0
M  V30 5995 C 553.515 1.13087 4.14137 0
M  V30 5996 C 552.748 0.557064 5.30785 0
M  V30 5997 O 552.971 -0.628623 5.66925 0
M  V30 5998 O 551.905 1.29924 5.8771 0
M  V30 5999 H 555.731 1.59663 2.58344 0
M  V30 6000 H 553.316 0.840575 1.2351 0
M  V30 6001 H 555.198 -0.241884 4.20705 0
M  V30 6002 H 553.873 -0.78337 3.14078 0
M  V30 6003 H 552.78 1.51712 3.41957 0
M  V30 6004 H 554.113 1.97805 4.50704 0
M  V30 6005 N 555.766 -1.3263 0.851289 0
M  V30 6006 C 557.013 -1.97368 0.453023 0
M  V30 6007 C 557.341 -1.67384 -0.990596 0
M  V30 6008 O 556.596 -0.952665 -1.70947 0
M  V30 6009 C 556.895 -3.51713 0.635015 0
M  V30 6010 C 556.561 -4.01676 2.04859 0
M  V30 6011 C 555.223 -4.15031 2.43522 0
M  V30 6012 C 557.575 -4.28206 2.97135 0
M  V30 6013 C 554.903 -4.52257 3.73739 0
M  V30 6014 C 557.255 -4.66889 4.26846 0
M  V30 6015 C 555.919 -4.7845 4.65448 0
M  V30 6016 H 555.189 -0.722219 0.165773 0
M  V30 6017 H 557.836 -1.58092 1.0807 0
M  V30 6018 H 556.141 -3.91726 -0.0759081 0
M  V30 6019 H 557.838 -3.99823 0.306964 0
M  V30 6020 H 554.428 -3.91764 1.73836 0
M  V30 6021 H 558.612 -4.174 2.68498 0
M  V30 6022 H 553.868 -4.59402 4.03435 0
M  V30 6023 H 558.042 -4.86372 4.98413 0
M  V30 6024 H 555.669 -5.07052 5.66395 0
M  V30 6025 N 557.244 -0.608902 -1.45362 0
M  V30 6026 C 558.66 -0.272659 -1.57254 0
M  V30 6027 C 558.86 1.22477 -1.60005 0
M  V30 6028 O 557.916 2.00785 -1.53106 0
M  V30 6029 C 559.229 -0.944991 -2.85465 0
M  V30 6030 C 560.777 -0.921033 -2.99142 0
M  V30 6031 C 561.252 -1.5734 -4.30126 0
M  V30 6032 N 562.743 -1.53895 -4.36887 0
M  V30 6033 C 563.478 -2.01286 -5.36909 0
M  V30 6034 N 562.974 -2.56768 -6.43461 0
M  V30 6035 N 564.767 -1.92046 -5.28275 0
M  V30 6036 H 556.918 -1.58117 -1.4182 0
M  V30 6037 H 559.181 -0.662437 -0.678146 0
M  V30 6038 H 558.887 -1.99941 -2.89338 0
M  V30 6039 H 558.761 -0.469079 -3.74272 0
M  V30 6040 H 561.148 0.124846 -2.94836 0
M  V30 6041 H 561.229 -1.43522 -2.11743 0
M  V30 6042 H 560.873 -2.61862 -4.35191 0
M  V30 6043 H 560.803 -1.03422 -5.16344 0
M  V30 6044 H 563.294 -1.13366 -3.60495 0
M  V30 6045 H 563.607 -2.9072 -7.16032 0
M  V30 6046 H 561.952 -2.60808 -6.44208 0
M  V30 6047 H 565.143 -1.48439 -4.43941 0
M  V30 6048 H 565.316 -2.29293 -6.06077 0
M  V30 6049 N 558.722 1.53707 -0.348139 0
M  V30 6050 C 559.652 2.28111 0.498766 0
M  V30 6051 C 560.633 1.29851 1.09876 0
M  V30 6052 O 561.818 1.587 1.11928 0
M  V30 6053 C 558.948 3.05735 1.64753 0
M  V30 6054 C 557.902 4.11537 1.17565 0
M  V30 6055 C 557.228 4.77142 2.4133 0
M  V30 6056 C 558.528 5.21587 0.272844 0
M  V30 6057 H 560.222 2.99152 -0.121934 0
M  V30 6058 H 557.768 1.43875 -0.0600842 0
M  V30 6059 H 559.721 3.56526 2.24649 0
M  V30 6060 H 558.445 2.32354 2.2952 0
M  V30 6061 H 557.104 3.61665 0.599483 0
M  V30 6062 H 556.752 4.0035 3.04514 0
M  V30 6063 H 556.452 5.48626 2.10436 0
M  V30 6064 H 557.976 5.30719 3.01943 0
M  V30 6065 H 559.39 5.67986 0.778779 0
M  V30 6066 H 557.787 6.00074 0.0555849 0
M  V30 6067 H 558.857 4.79969 -0.689785 0
M  V30 6068 N 560.2 0.0768682 1.57412 0
M  V30 6069 C 561.15 -0.898795 2.09537 0
M  V30 6070 C 562.134 -1.25556 1.0062 0
M  V30 6071 O 563.326 -1.23369 1.26921 0
M  V30 6072 C 560.455 -2.16453 2.66464 0
M  V30 6073 C 559.541 -1.83401 3.82393 0
M  V30 6074 N 559.932 -1.20823 4.91157 0
M  V30 6075 C 558.23 -2.13121 3.91785 0
M  V30 6076 C 558.931 -1.05976 5.71965 0
M  V30 6077 N 557.907 -1.57113 5.204 0
M  V30 6078 H 561.709 -0.410718 2.91016 0
M  V30 6079 H 559.223 -0.126878 1.61904 0
M  V30 6080 H 561.22 -2.87274 3.02125 0
M  V30 6081 H 559.88 -2.65844 1.86433 0
M  V30 6082 H 560.891 -0.877249 5.10416 0
M  V30 6083 H 557.568 -2.64854 3.22736 0
M  V30 6084 H 558.958 -0.571809 6.69462 0
M  V30 6085 N 561.678 -1.56367 -0.196722 0
M  V30 6086 C 562.925 -1.80529 -0.917366 0
M  V30 6087 C 563.253 -0.649817 -1.83324 0
M  V30 6088 O 562.508 0.36451 -1.92275 0
M  V30 6089 C 562.807 -3.10663 -1.767 0
M  V30 6090 C 562.473 -4.3962 -1.00225 0
M  V30 6091 C 561.135 -4.74653 -0.791095 0
M  V30 6092 C 563.487 -5.1913 -0.464035 0
M  V30 6093 C 560.815 -5.86692 -0.0302155 0
M  V30 6094 C 563.167 -6.31964 0.283625 0
M  V30 6095 C 561.831 -6.65581 0.505813 0
M  V30 6096 H 561.101 -0.660602 -0.335688 0
M  V30 6097 H 563.748 -1.90615 -0.183844 0
M  V30 6098 H 562.053 -2.95807 -2.56915 0
M  V30 6099 H 563.75 -3.26563 -2.32718 0
M  V30 6100 H 560.34 -4.12127 -1.17684 0
M  V30 6101 H 564.524 -4.9248 -0.614575 0
M  V30 6102 H 559.78 -6.11211 0.151917 0
M  V30 6103 H 563.954 -6.92791 0.708057 0
M  V30 6104 H 561.581 -7.52239 1.0973 0
M  V30 6105 N 563.156 0.464375 -1.50603 0
M  V30 6106 C 564.103 1.56152 -1.69956 0
M  V30 6107 C 565.073 1.57046 -0.54091 0
M  V30 6108 O 566.258 1.74473 -0.772258 0
M  V30 6109 C 563.398 2.94079 -1.80586 0
M  V30 6110 C 562.511 3.02923 -3.07996 0
M  V30 6111 C 561.646 4.31806 -3.09382 0
M  V30 6112 C 560.685 4.34417 -4.31218 0
M  V30 6113 N 559.822 5.54782 -4.30304 0
M  V30 6114 H 564.662 1.38955 -2.6362 0
M  V30 6115 H 562.199 0.675482 -1.30674 0
M  V30 6116 H 564.157 3.74073 -1.8473 0
M  V30 6117 H 562.787 3.09896 -0.903556 0
M  V30 6118 H 561.839 2.1576 -3.13292 0
M  V30 6119 H 563.151 3.00712 -3.97962 0
M  V30 6120 H 562.305 5.20153 -3.12292 0
M  V30 6121 H 561.044 4.36636 -2.17257 0
M  V30 6122 H 560.049 3.44467 -4.28512 0
M  V30 6123 H 561.274 4.31273 -5.24576 0
M  V30 6124 H 559.22 5.60384 -3.41037 0
M  V30 6125 H 559.137 5.54339 -5.14047 0
M  V30 6126 H 560.405 6.45235 -4.3737 0
M  V30 6127 N 564.634 1.40294 0.718013 0
M  V30 6128 C 565.582 1.40536 1.85344 0
M  V30 6129 C 566.576 0.286192 1.66965 0
M  V30 6130 O 567.782 0.457105 1.74099 0
M  V30 6131 H 564.157 0.439236 0.61039 0
M  V30 6132 H 566.128 2.36275 1.82255 0
M  V30 6133 C 564.877 1.28245 3.23185 0
M  V30 6134 H 564.2 2.1364 3.37932 0
M  V30 6135 H 565.64 1.32474 4.02774 0
M  V30 6136 C 564.099 -0.0075503 3.36899 0
M  V30 6137 O 564.629 -0.971391 3.89778 0
M  V30 6138 N 562.835 -0.0762479 2.905 0
M  V30 6139 H 562.382 0.708819 2.47656 0
M  V30 6140 H 562.34 -0.938846 3.00055 0
M  V30 6141 N 566.112 -0.949982 1.2575 0
M  V30 6142 C 567.361 -1.68956 1.10168 0
M  V30 6143 C 567.674 -1.92327 -0.356309 0
M  V30 6144 O 568.88 -2.64026 -0.632657 0
M  V30 6145 C 567.336 -3.04196 1.92336 0
M  V30 6146 C 566.944 -2.88603 3.42655 0
M  V30 6147 C 568.688 -3.81904 1.85336 0
M  V30 6148 C 566.595 -4.19262 4.17101 0
M  V30 6149 H 565.525 -0.633645 0.408668 0
M  V30 6150 H 568.176 -1.05719 1.49986 0
M  V30 6151 H 566.558 -3.68363 1.45344 0
M  V30 6152 H 567.732 -2.3334 3.97353 0
M  V30 6153 H 566.047 -2.24345 3.50796 0
M  V30 6154 H 568.644 -4.78688 2.38248 0
M  V30 6155 H 568.987 -4.08099 0.822226 0
M  V30 6156 H 569.52 -3.24495 2.30104 0
M  V30 6157 H 566.259 -3.98254 5.20648 0
M  V30 6158 H 565.779 -4.74273 3.67186 0
M  V30 6159 H 567.458 -4.87775 4.25071 0
M  V30 6160 N 567.59 -1.07411 -1.15328 0
M  V30 6161 C 568.815 -0.818856 -1.90551 0
M  V30 6162 C 569.24 0.622194 -1.77512 0
M  V30 6163 O 568.598 1.43484 -1.10824 0
M  V30 6164 C 568.646 -1.23267 -3.38877 0
M  V30 6165 O 567.75 -0.378345 -4.10661 0
M  V30 6166 H 567.091 -0.29827 -0.593238 0
M  V30 6167 H 569.621 -1.43289 -1.46046 0
M  V30 6168 H 569.631 -1.20912 -3.89672 0
M  V30 6169 H 568.306 -2.28226 -3.47686 0
M  V30 6170 H 566.883 -0.464437 -3.69996 0
M  V30 6171 N 569.068 1.32177 -0.85831 0
M  V30 6172 C 570.484 1.49873 -0.548656 0
M  V30 6173 C 570.684 1.79278 0.919874 0
M  V30 6174 O 569.74 1.86451 1.70271 0
M  V30 6175 C 571.053 2.64043 -1.4388 0
M  V30 6176 C 572.601 2.77928 -1.43961 0
M  V30 6177 C 573.076 3.95182 -2.31506 0
M  V30 6178 N 574.567 4.0245 -2.29321 0
M  V30 6179 C 575.302 4.9242 -2.93786 0
M  V30 6180 N 574.798 5.87373 -3.67376 0
M  V30 6181 N 576.591 4.85572 -2.83155 0
M  V30 6182 H 568.742 1.11357 -1.80868 0
M  V30 6183 H 571.005 0.549175 -0.772729 0
M  V30 6184 H 570.711 2.49055 -2.48324 0
M  V30 6185 H 570.585 3.59912 -1.12885 0
M  V30 6186 H 572.972 2.92338 -0.402813 0
M  V30 6187 H 573.053 1.82762 -1.78974 0
M  V30 6188 H 572.697 3.81531 -3.35256 0
M  V30 6189 H 572.627 4.89633 -1.93823 0
M  V30 6190 H 575.118 3.34507 -1.75822 0
M  V30 6191 H 575.431 6.52728 -4.13722 0
M  V30 6192 H 573.776 5.87388 -3.71484 0
M  V30 6193 H 576.967 4.10363 -2.25211 0
M  V30 6194 H 577.14 5.55486 -3.33676 0
M  V30 6195 N 570.547 0.616602 1.45037 0
M  V30 6196 C 571.796 0.112861 2.01384 0
M  V30 6197 C 572.109 -1.26758 1.48969 0
M  V30 6198 O 573.315 -1.86454 1.9735 0
M  V30 6199 C 571.771 0.151057 3.59583 0
M  V30 6200 C 571.379 1.53191 4.20995 0
M  V30 6201 C 573.123 -0.296974 4.2346 0
M  V30 6202 C 571.03 1.526 5.71373 0
M  V30 6203 H 569.96 0.0384254 0.75302 0
M  V30 6204 H 572.611 0.773262 1.66412 0
M  V30 6205 H 570.993 -0.57617 3.91786 0
M  V30 6206 H 572.167 2.28156 4.00352 0
M  V30 6207 H 570.482 1.92279 3.69348 0
M  V30 6208 H 573.079 -0.320712 5.33737 0
M  V30 6209 H 573.422 -1.32145 3.9477 0
M  V30 6210 H 573.955 0.377279 3.96007 0
M  V30 6211 H 570.694 2.52837 6.04776 0
M  V30 6212 H 570.214 0.819064 5.94181 0
M  V30 6213 H 571.893 1.25357 6.3474 0
M  V30 6214 N 572.025 -1.5352 0.356285 0
M  V30 6215 C 572.958 -2.2177 -0.537913 0
M  V30 6216 C 573.936 -1.20626 -1.09033 0
M  V30 6217 O 575.12 -1.49494 -1.1482 0
M  V30 6218 C 572.247 -2.90513 -1.74126 0
M  V30 6219 C 571.293 -4.05652 -1.31715 0
M  V30 6220 S 572.126 -5.34505 -0.326236 0
M  V30 6221 C 573.282 -6.06757 -1.53612 0
M  V30 6222 H 573.515 -2.97271 0.0417411 0
M  V30 6223 H 571.048 -1.53761 0.140372 0
M  V30 6224 H 573.006 -3.30735 -2.43155 0
M  V30 6225 H 571.667 -2.14754 -2.29215 0
M  V30 6226 H 570.86 -4.52733 -2.21471 0
M  V30 6227 H 570.462 -3.67272 -0.706183 0
M  V30 6228 H 572.754 -6.30924 -2.46863 0
M  V30 6229 H 573.697 -6.99395 -1.10687 0
M  V30 6230 H 574.105 -5.3708 -1.73796 0
M  V30 6231 N 573.503 -0.0852151 -1.57369 0
M  V30 6232 C 574.78 0.622534 -1.85429 0
M  V30 6233 C 575.16 1.86962 -0.980229 0
M  V30 6234 O 574.508 2.28445 -0.0500219 0
M  V30 6235 C 574.718 0.947374 -3.35896 0
M  V30 6236 C 576.066 1.31509 -4.03721 0
M  V30 6237 O 577.09 1.03869 -3.40719 0
M  V30 6238 O 575.949 1.83231 -5.14868 0
M  V30 6239 H 573.043 0.310513 -0.766492 0
M  V30 6240 H 575.589 -0.117164 -1.69295 0
M  V30 6241 H 574.361 0.0622264 -3.91251 0
M  V30 6242 H 573.984 1.74338 -3.5734 0
M  V30 6243 N 574.981 1.5647 0.188427 0
M  V30 6244 C 576.221 1.82803 0.914469 0
M  V30 6245 C 576.585 0.663681 1.80165 0
M  V30 6246 O 577.786 0.807059 2.56398 0
M  V30 6247 C 576.057 3.14187 1.70357 0
M  V30 6248 S 577.616 3.61947 2.48072 0
M  V30 6249 H 574.434 0.641497 0.306599 0
M  V30 6250 H 577.036 1.94694 0.177361 0
M  V30 6251 H 575.74 3.96937 1.04255 0
M  V30 6252 H 575.271 3.05192 2.48237 0
M  V30 6253 H 577.286 3.27913 3.72407 0
M  V30 6254 N 576.459 -0.456382 1.50847 0
M  V30 6255 C 577.705 -1.20914 1.62811 0
M  V30 6256 C 578.038 -1.91301 0.334304 0
M  V30 6257 O 577.313 -1.82775 -0.665098 0
M  V30 6258 C 577.596 -2.24122 2.81853 0
M  V30 6259 C 577.449 -1.57944 4.21158 0
M  V30 6260 C 578.768 -3.25295 2.96431 0
M  V30 6261 H 575.887 -0.438233 0.592554 0
M  V30 6262 H 578.529 -0.50091 1.83278 0
M  V30 6263 H 576.679 -2.84524 2.64534 0
M  V30 6264 H 578.351 -1.01025 4.50102 0
M  V30 6265 H 576.594 -0.882185 4.24735 0
M  V30 6266 H 577.265 -2.33014 5.00408 0
M  V30 6267 H 579.741 -2.7493 3.12335 0
M  V30 6268 H 578.617 -3.94822 3.81322 0
M  V30 6269 H 578.878 -3.90286 2.07676 0
M  V30 6270 N 577.937 -1.40673 -0.710563 0
M  V30 6271 C 579.185 -1.38947 -1.46759 0
M  V30 6272 C 579.506 0.00572879 -1.94999 0
M  V30 6273 O 578.776 0.961358 -1.70689 0
M  V30 6274 H 577.356 -0.5114 -0.544499 0
M  V30 6275 H 580.018 -1.75773 -0.842012 0
M  V30 6276 H 579.114 -2.06745 -2.33801 0
M  V30 6277 N 579.415 0.9433 -1.26252 0
M  V30 6278 C 580.655 1.70397 -1.1289 0
M  V30 6279 C 581.019 1.89268 0.322713 0
M  V30 6280 O 582.22 2.62503 0.578418 0
M  V30 6281 C 580.491 3.04296 -1.87453 0
M  V30 6282 S 582.05 3.95475 -1.90119 0
M  V30 6283 H 578.868 0.585559 -0.403289 0
M  V30 6284 H 581.47 1.12424 -1.59941 0
M  V30 6285 H 580.174 2.8824 -2.9214 0
M  V30 6286 H 579.705 3.67327 -1.40835 0
M  V30 6287 H 581.72 4.86297 -0.986373 0
M  V30 6288 N 580.893 1.08022 1.14757 0
M  V30 6289 C 582.17 0.720386 1.81851 0
M  V30 6290 C 582.55 -0.796375 1.95502 0
M  V30 6291 O 581.898 -1.71339 1.51179 0
M  V30 6292 C 582.108 1.44273 3.17783 0
M  V30 6293 C 583.456 1.59925 3.93331 0
M  V30 6294 O 584.48 1.40407 3.2736 0
M  V30 6295 O 583.339 1.92096 5.11626 0
M  V30 6296 H 580.433 0.257142 0.786007 0
M  V30 6297 H 582.979 1.18155 1.21809 0
M  V30 6298 H 581.751 2.47618 3.02987 0
M  V30 6299 H 581.374 0.97279 3.85516 0
M  V30 6300 N 582.371 -1.3172 0.865308 0
M  V30 6301 C 583.318 -2.2863 0.315736 0
M  V30 6302 C 584.288 -1.55524 -0.583213 0
M  V30 6303 O 585.473 -1.83694 -0.51585 0
M  V30 6304 C 582.613 -3.41735 -0.480773 0
M  V30 6305 C 581.726 -4.297 0.445167 0
M  V30 6306 C 580.861 -5.29944 -0.365012 0
M  V30 6307 C 579.9 -6.09554 0.557651 0
M  V30 6308 N 579.037 -7.01768 -0.215994 0
M  V30 6309 H 583.877 -2.75026 1.14736 0
M  V30 6310 H 581.414 -1.35302 0.577209 0
M  V30 6311 H 583.372 -4.06045 -0.958306 0
M  V30 6312 H 582.002 -2.96461 -1.27714 0
M  V30 6313 H 581.054 -3.65875 1.04113 0
M  V30 6314 H 582.366 -4.85295 1.15284 0
M  V30 6315 H 581.52 -5.99908 -0.905255 0
M  V30 6316 H 580.259 -4.74994 -1.106 0
M  V30 6317 H 579.264 -5.38485 1.10969 0
M  V30 6318 H 580.489 -6.66591 1.29742 0
M  V30 6319 H 578.435 -6.49232 -0.939878 0
M  V30 6320 H 578.352 -7.54762 0.432431 0
M  V30 6321 H 579.62 -7.76002 -0.737618 0
M  V30 6322 N 583.85 -0.624285 -1.44708 0
M  V30 6323 C 585.09 -0.129273 -2.03991 0
M  V30 6324 C 585.454 1.22321 -1.47992 0
M  V30 6325 O 586.654 1.80993 -1.98734 0
M  V30 6326 C 584.926 -0.108231 -3.57236 0
M  V30 6327 S 586.485 0.323158 -4.37608 0
M  V30 6328 H 583.303 -0.0577318 -0.708652 0
M  V30 6329 H 585.904 -0.826139 -1.77187 0
M  V30 6330 H 584.609 -1.0958 -3.955 0
M  V30 6331 H 584.139 0.610101 -3.8864 0
M  V30 6332 H 586.154 1.56894 -4.70743 0
M  V30 6333 N 585.328 1.53329 -0.364422 0
M  V30 6334 C 586.744 1.59594 -0.0133165 0
M  V30 6335 C 586.944 1.37959 1.46865 0
M  V30 6336 O 586 1.18418 2.2301 0
M  V30 6337 C 587.313 2.97032 -0.468213 0
M  V30 6338 C 588.861 3.10138 -0.422334 0
M  V30 6339 C 589.336 4.49986 -0.853024 0
M  V30 6340 N 590.827 4.56098 -0.808037 0
M  V30 6341 C 591.562 5.62495 -1.11299 0
M  V30 6342 N 591.058 6.7665 -1.48717 0
M  V30 6343 N 592.851 5.52473 -1.03586 0
M  V30 6344 H 585.002 1.65644 -1.32951 0
M  V30 6345 H 587.265 0.77684 -0.543345 0
M  V30 6346 H 586.971 3.18 -1.5023 0
M  V30 6347 H 586.845 3.76918 0.145775 0
M  V30 6348 H 589.232 2.88881 0.602622 0
M  V30 6349 H 589.313 2.32263 -1.0718 0
M  V30 6350 H 588.957 4.7198 -1.87609 0
M  V30 6351 H 588.887 5.26289 -0.180819 0
M  V30 6352 H 591.378 3.74131 -0.532361 0
M  V30 6353 H 591.691 7.53776 -1.70415 0
M  V30 6354 H 590.036 6.78044 -1.52581 0
M  V30 6355 H 593.227 4.6217 -0.742736 0
M  V30 6356 H 593.4 6.35295 -1.27686 0
M  V30 6357 N 586.806 0.0935595 1.57322 0
M  V30 6358 C 587.736 -0.863062 2.16964 0
M  V30 6359 C 588.717 -1.29528 1.10256 0
M  V30 6360 O 589.902 -1.36245 1.38387 0
M  V30 6361 C 587.032 -2.12276 2.74875 0
M  V30 6362 C 585.986 -1.82921 3.86942 0
M  V30 6363 C 585.312 -3.15707 4.31548 0
M  V30 6364 C 586.612 -1.11737 5.10208 0
M  V30 6365 H 588.306 -0.366145 2.97153 0
M  V30 6366 H 585.852 -0.174673 1.42937 0
M  V30 6367 H 587.805 -2.79634 3.1525 0
M  V30 6368 H 586.529 -2.64248 1.91938 0
M  V30 6369 H 585.188 -1.17961 3.47103 0
M  V30 6370 H 584.836 -3.65563 3.45504 0
M  V30 6371 H 584.536 -2.96849 5.07104 0
M  V30 6372 H 586.06 -3.84226 4.74555 0
M  V30 6373 H 587.474 -1.69203 5.47762 0
M  V30 6374 H 585.871 -1.03064 5.91183 0
M  V30 6375 H 586.941 -0.0998818 4.84797 0
M  V30 6376 N 588.284 -1.56567 -0.180126 0
M  V30 6377 C 589.53 -1.82658 -0.894859 0
M  V30 6378 C 589.885 -0.672826 -1.80252 0
M  V30 6379 O 589.178 0.331227 -1.88715 0
M  V30 6380 C 589.372 -3.1252 -1.73395 0
M  V30 6381 C 589.201 -4.40417 -0.909028 0
M  V30 6382 C 587.971 -5.01872 -0.587562 0
M  V30 6383 C 590.169 -5.13669 -0.254698 0
M  V30 6384 N 588.151 -6.13373 0.254428 0
M  V30 6385 C 589.522 -6.18373 0.448837 0
M  V30 6386 C 591.577 -4.97603 -0.171958 0
M  V30 6387 C 590.28 -7.08753 1.22725 0
M  V30 6388 C 592.306 -5.88418 0.593101 0
M  V30 6389 C 591.668 -6.92579 1.28503 0
M  V30 6390 H 587.767 -0.719493 -0.306356 0
M  V30 6391 H 590.351 -1.94021 -0.16247 0
M  V30 6392 H 588.522 -3.02365 -2.43783 0
M  V30 6393 H 590.254 -3.2664 -2.38931 0
M  V30 6394 H 587.009 -4.64666 -0.915557 0
M  V30 6395 H 587.433 -6.73721 0.665474 0
M  V30 6396 H 592.075 -4.17089 -0.692555 0
M  V30 6397 H 589.793 -7.88718 1.75923 0
M  V30 6398 H 593.379 -5.78059 0.658674 0
M  V30 6399 H 592.259 -7.61638 1.86754 0
M  V30 6400 N 589.762 0.448376 -1.51087 0
M  V30 6401 C 591.01 1.19635 -1.62886 0
M  V30 6402 C 591.331 1.91977 -0.342024 0
M  V30 6403 O 590.601 1.85094 0.641636 0
M  V30 6404 H 589.181 0.444598 -0.600285 0
M  V30 6405 H 591.843 0.515138 -1.87969 0
M  V30 6406 H 590.939 1.93194 -2.45117 0
M  V30 6407 N 591.24 1.41047 0.703093 0
M  V30 6408 C 592.187 1.42302 1.81711 0
M  V30 6409 C 593.157 0.278336 1.63751 0
M  V30 6410 O 594.342 0.478266 1.84709 0
M  V30 6411 C 591.482 1.30362 3.19531 0
M  V30 6412 C 590.595 2.54638 3.48975 0
M  V30 6413 C 589.73 2.35047 4.76368 0
M  V30 6414 C 588.769 3.54837 4.98756 0
M  V30 6415 N 587.906 3.34363 6.1737 0
M  V30 6416 H 592.746 2.37516 1.79973 0
M  V30 6417 H 590.283 1.1795 0.878983 0
M  V30 6418 H 592.241 1.21443 3.99134 0
M  V30 6419 H 590.871 0.387602 3.20464 0
M  V30 6420 H 589.923 2.74037 2.63833 0
M  V30 6421 H 591.235 3.43766 3.61423 0
M  V30 6422 H 590.389 2.23552 5.64012 0
M  V30 6423 H 589.128 1.43363 4.66153 0
M  V30 6424 H 588.133 3.66795 4.09563 0
M  V30 6425 H 589.358 4.47464 5.10835 0
M  V30 6426 H 587.304 2.45373 6.08382 0
M  V30 6427 H 587.221 4.17063 6.30551 0
M  V30 6428 H 588.489 3.26626 7.07768 0
M  V30 6429 N 592.718 -0.936591 1.26751 0
M  V30 6430 C 593.648 -2.05315 1.11212 0
M  V30 6431 C 594.629 -1.70092 0.0160262 0
M  V30 6432 O 595.814 -1.93279 0.188894 0
M  V30 6433 C 592.944 -3.39123 0.749171 0
M  V30 6434 C 591.898 -3.88425 1.79751 0
M  V30 6435 C 591.224 -5.18936 1.28876 0
M  V30 6436 C 592.524 -4.12798 3.19992 0
M  V30 6437 H 594.218 -2.18573 2.04613 0
M  V30 6438 H 591.764 -1.05027 0.985159 0
M  V30 6439 H 593.717 -4.16704 0.627323 0
M  V30 6440 H 592.441 -3.25855 -0.220543 0
M  V30 6441 H 591.1 -3.13028 1.90811 0
M  V30 6442 H 590.748 -5.02051 0.308757 0
M  V30 6443 H 590.448 -5.52892 1.98958 0
M  V30 6444 H 591.972 -5.99096 1.17967 0
M  V30 6445 H 593.386 -4.80977 3.11983 0
M  V30 6446 H 591.783 -4.58044 3.87705 0
M  V30 6447 H 592.853 -3.18412 3.65707 0
M  V30 6448 N 594.196 -1.08629 -1.14182 0
M  V30 6449 C 595.128 -0.676189 -2.18998 0
M  V30 6450 C 596.141 0.277871 -1.60411 0
M  V30 6451 O 597.33 0.0651771 -1.78381 0
M  V30 6452 C 594.43 0.0254916 -3.3889 0
M  V30 6453 C 593.603 -0.948039 -4.27002 0
M  V30 6454 C 592.662 -0.281268 -5.25448 0
M  V30 6455 O 591.688 -0.926378 -5.61611 0
M  V30 6456 N 592.89 0.967923 -5.72374 0
M  V30 6457 H 595.655 -1.57792 -2.54798 0
M  V30 6458 H 593.216 -0.972665 -1.29425 0
M  V30 6459 H 595.208 0.482554 -4.01813 0
M  V30 6460 H 593.778 0.829348 -3.01398 0
M  V30 6461 H 592.998 -1.58388 -3.6098 0
M  V30 6462 H 594.286 -1.60765 -4.82734 0
M  V30 6463 H 593.684 1.51175 -5.45126 0
M  V30 6464 H 592.241 1.36844 -6.37273 0
M  V30 6465 N 595.674 1.31259 -0.872281 0
M  V30 6466 C 596.902 2.00795 -0.498907 0
M  V30 6467 C 597.317 1.65464 0.909238 0
M  V30 6468 O 596.674 0.885073 1.59602 0
M  V30 6469 C 596.725 3.55625 -0.649092 0
M  V30 6470 O 596.446 3.89692 -2.00179 0
M  V30 6471 C 597.947 4.42434 -0.277034 0
M  V30 6472 H 595.167 0.642299 -0.194145 0
M  V30 6473 H 597.711 1.67438 -1.17408 0
M  V30 6474 H 595.866 3.87394 -0.0214402 0
M  V30 6475 H 596.28 4.84407 -2.01122 0
M  V30 6476 H 597.754 5.50299 -0.433064 0
M  V30 6477 H 598.231 4.32146 0.783989 0
M  V30 6478 H 598.837 4.16086 -0.880483 0
M  V30 6479 N 597.152 0.631951 1.44375 0
M  V30 6480 C 598.084 -0.110911 2.28931 0
M  V30 6481 C 599.097 -0.808086 1.41329 0
M  V30 6482 O 600.286 -0.669396 1.65473 0
M  V30 6483 C 597.386 -1.17928 3.1772 0
M  V30 6484 C 596.559 -0.564458 4.33743 0
M  V30 6485 C 595.618 -1.5269 5.0356 0
M  V30 6486 O 594.644 -1.04372 5.59549 0
M  V30 6487 N 595.846 -2.86123 5.05088 0
M  V30 6488 H 598.611 0.614758 2.93327 0
M  V30 6489 H 596.172 0.473171 1.54831 0
M  V30 6490 H 598.164 -1.82348 3.61291 0
M  V30 6491 H 596.734 -1.80717 2.55069 0
M  V30 6492 H 595.954 0.258373 3.93352 0
M  V30 6493 H 597.242 -0.134355 5.08623 0
M  V30 6494 H 596.64 -3.27959 4.60933 0
M  V30 6495 H 595.197 -3.45901 5.52445 0
M  V30 6496 N 598.631 -1.53133 0.372548 0
M  V30 6497 C 599.879 -2.00958 -0.214534 0
M  V30 6498 C 600.2 -1.26135 -1.48711 0
M  V30 6499 O 599.47 -0.376597 -1.92246 0
M  V30 6500 H 598.05 -0.742456 -0.0822664 0
M  V30 6501 H 600.712 -1.88367 0.500385 0
M  V30 6502 H 599.808 -3.09031 -0.436605 0
M  V30 6503 N 600.109 -0.101901 -1.5727 0
M  V30 6504 C 601.039 0.851544 -2.17419 0
M  V30 6505 C 602.02 1.28942 -1.10941 0
M  V30 6506 O 603.205 1.35509 -1.39107 0
M  V30 6507 C 600.335 2.10816 -2.75996 0
M  V30 6508 C 599.289 1.80867 -3.87906 0
M  V30 6509 C 598.615 3.13413 -4.33216 0
M  V30 6510 C 599.915 1.0903 -5.10793 0
M  V30 6511 H 601.609 0.350381 -2.97343 0
M  V30 6512 H 599.155 0.16709 -1.43027 0
M  V30 6513 H 601.108 2.77959 -3.16729 0
M  V30 6514 H 599.832 2.63227 -1.93337 0
M  V30 6515 H 598.491 1.16119 -3.47724 0
M  V30 6516 H 598.139 3.63725 -3.47438 0
M  V30 6517 H 597.839 2.94155 -5.08671 0
M  V30 6518 H 599.363 3.81704 -4.76586 0
M  V30 6519 H 600.777 1.66295 -5.48652 0
M  V30 6520 H 599.174 0.99927 -5.91722 0
M  V30 6521 H 600.244 0.0741704 -4.84843 0
M  V30 6522 N 601.587 1.56661 0.17182 0
M  V30 6523 C 602.835 1.81606 0.886774 0
M  V30 6524 C 603.156 0.678818 1.82803 0
M  V30 6525 O 602.426 -0.301354 1.93568 0
M  V30 6526 H 601.006 0.669934 0.330451 0
M  V30 6527 H 603.668 1.94142 0.171757 0
M  V30 6528 H 602.764 2.75634 1.46398 0
M  V30 6529 N 603.065 -0.440357 1.51323 0
M  V30 6530 C 604.293 -1.21255 1.67645 0
M  V30 6531 C 604.708 -1.85088 0.37252 0
M  V30 6532 O 604.065 -1.70582 -0.648683 0
M  V30 6533 C 604.116 -2.29881 2.78993 0
M  V30 6534 O 603.837 -1.68659 4.04334 0
M  V30 6535 C 605.338 -3.20214 3.06558 0
M  V30 6536 H 602.558 -0.36558 0.562666 0
M  V30 6537 H 605.102 -0.52214 1.97722 0
M  V30 6538 H 603.257 -2.94643 2.51524 0
M  V30 6539 H 603.671 -2.40426 4.6615 0
M  V30 6540 H 605.145 -3.92575 3.88058 0
M  V30 6541 H 605.622 -3.80794 2.18844 0
M  V30 6542 H 606.228 -2.61156 3.35675 0
M  V30 6543 N 604.543 -1.41418 -0.695603 0
M  V30 6544 C 605.506 -1.42988 -1.79129 0
M  V30 6545 C 606.506 -0.320514 -1.57573 0
M  V30 6546 O 607.696 -0.58039 -1.64247 0
M  V30 6547 C 604.828 -1.24122 -3.175 0
M  V30 6548 H 606.021 -2.40526 -1.7913 0
M  V30 6549 H 603.574 -1.2756 -0.903225 0
M  V30 6550 H 604.309 -0.274253 -3.23138 0
M  V30 6551 H 604.094 -2.045 -3.34547 0
M  V30 6552 H 605.584 -1.28056 -3.97481 0
M  V30 6553 N 606.021 0.929856 -1.27246 0
M  V30 6554 C 606.951 2.04722 -1.12299 0
M  V30 6555 C 607.932 1.70082 -0.0250464 0
M  V30 6556 O 609.117 1.93176 -0.199141 0
M  V30 6557 C 606.247 3.38721 -0.767145 0
M  V30 6558 C 605.201 3.87466 -1.81808 0
M  V30 6559 C 604.527 5.18246 -1.31626 0
M  V30 6560 C 605.827 4.11095 -3.22177 0
M  V30 6561 H 607.521 2.17485 -2.05769 0
M  V30 6562 H 605.067 1.04503 -0.990715 0
M  V30 6563 H 607.02 4.16366 -0.649413 0
M  V30 6564 H 605.744 3.25967 0.203259 0
M  V30 6565 H 604.403 3.12012 -1.92468 0
M  V30 6566 H 604.051 5.01881 -0.335378 0
M  V30 6567 H 603.751 5.51829 -2.01887 0
M  V30 6568 H 605.275 5.98462 -1.21143 0
M  V30 6569 H 606.689 4.79316 -3.1453 0
M  V30 6570 H 605.086 4.55982 -3.90129 0
M  V30 6571 H 606.156 3.16468 -3.67391 0
M  V30 6572 N 607.499 1.09233 1.13605 0
M  V30 6573 C 608.446 0.729921 2.18954 0
M  V30 6574 C 609.416 -0.287916 1.63586 0
M  V30 6575 O 610.601 -0.170003 1.90041 0
M  V30 6576 C 607.741 0.154489 3.44754 0
M  V30 6577 C 606.854 1.22613 4.14234 0
M  V30 6578 C 605.989 0.613657 5.27644 0
M  V30 6579 C 605.028 1.66674 5.8897 0
M  V30 6580 N 604.165 1.07545 6.93814 0
M  V30 6581 H 609.005 1.63257 2.49302 0
M  V30 6582 H 606.542 0.815693 1.22413 0
M  V30 6583 H 608.5 -0.196923 4.16735 0
M  V30 6584 H 607.13 -0.711433 3.14863 0
M  V30 6585 H 606.182 1.69485 3.40557 0
M  V30 6586 H 607.494 2.0238 4.55899 0
M  V30 6587 H 606.648 0.210976 6.06333 0
M  V30 6588 H 605.387 -0.215584 4.87223 0
M  V30 6589 H 604.392 2.07899 5.08978 0
M  V30 6590 H 605.617 2.49861 6.31464 0
M  V30 6591 H 603.563 0.267451 6.55455 0
M  V30 6592 H 603.48 1.81011 7.3401 0
M  V30 6593 H 604.748 0.698906 7.7636 0
M  V30 6594 N 608.977 -1.30795 0.87923 0
M  V30 6595 C 610.226 -1.95636 0.490875 0
M  V30 6596 C 610.539 -1.70214 -0.963674 0
M  V30 6597 O 611.745 -2.28991 -1.45861 0
M  V30 6598 C 610.201 -3.50271 0.826929 0
M  V30 6599 C 609.809 -3.84521 2.29886 0
M  V30 6600 C 611.553 -4.21456 0.507494 0
M  V30 6601 C 609.46 -5.32309 2.57685 0
M  V30 6602 H 608.39 -0.732238 0.179841 0
M  V30 6603 H 611.041 -1.48829 1.07341 0
M  V30 6604 H 609.423 -3.9562 0.173542 0
M  V30 6605 H 610.597 -3.50102 2.99609 0
M  V30 6606 H 608.912 -3.26425 2.58526 0
M  V30 6607 H 611.509 -5.30199 0.692293 0
M  V30 6608 H 611.852 -4.12614 -0.552718 0
M  V30 6609 H 612.385 -3.81772 1.11782 0
M  V30 6610 H 609.124 -5.46195 3.62424 0
M  V30 6611 H 608.644 -5.68048 1.92566 0
M  V30 6612 H 610.323 -5.99678 2.42889 0
M  V30 6613 N 610.455 -0.639598 -1.44038 0
M  V30 6614 C 611.385 0.0469443 -2.33453 0
M  V30 6615 C 612.366 0.82609 -1.48694 0
M  V30 6616 O 613.551 0.790285 -1.77393 0
M  V30 6617 C 610.681 1.02338 -3.3188 0
M  V30 6618 C 609.635 0.355284 -4.26523 0
M  V30 6619 C 608.961 1.44221 -5.14883 0
M  V30 6620 C 610.261 -0.743798 -5.16977 0
M  V30 6621 H 611.955 -0.699735 -2.91108 0
M  V30 6622 H 609.501 -0.337946 -1.39978 0
M  V30 6623 H 611.454 1.51247 -3.93322 0
M  V30 6624 H 610.178 1.80105 -2.72451 0
M  V30 6625 H 608.837 -0.113239 -3.66425 0
M  V30 6626 H 608.485 2.21097 -4.51802 0
M  V30 6627 H 608.185 1.00052 -5.79019 0
M  V30 6628 H 609.709 1.93295 -5.79197 0
M  V30 6629 H 611.123 -0.337444 -5.72306 0
M  V30 6630 H 609.52 -1.10914 -5.89761 0
M  V30 6631 H 610.59 -1.60745 -4.57481 0
M  V30 6632 N 611.933 1.52934 -0.380664 0
M  V30 6633 C 613.18 2.01467 0.204278 0
M  V30 6634 C 613.508 1.26744 1.47533 0
M  V30 6635 O 612.763 0.353723 1.92477 0
M  V30 6636 C 613.062 3.5349 0.527199 0
M  V30 6637 C 612.728 4.46171 -0.651295 0
M  V30 6638 C 611.39 4.71227 -0.974619 0
M  V30 6639 C 613.742 5.00909 -1.44012 0
M  V30 6640 C 611.07 5.4827 -2.08847 0
M  V30 6641 C 613.422 5.7917 -2.5445 0
M  V30 6642 C 612.086 6.02507 -2.87301 0
M  V30 6643 H 611.356 0.73722 0.0747504 0
M  V30 6644 H 614.003 1.84411 -0.516234 0
M  V30 6645 H 612.308 3.68574 1.32892 0
M  V30 6646 H 614.005 3.88529 0.992283 0
M  V30 6647 H 610.595 4.26829 -0.389276 0
M  V30 6648 H 614.779 4.81485 -1.20357 0
M  V30 6649 H 610.035 5.64567 -2.34679 0
M  V30 6650 H 614.209 6.20588 -3.1598 0
M  V30 6651 H 611.836 6.61989 -3.7373 0
M  V30 6652 N 613.412 0.11024 1.57214 0
M  V30 6653 C 614.637 -0.561179 1.99664 0
M  V30 6654 C 615.062 -1.59985 0.989266 0
M  V30 6655 O 614.42 -1.81255 -0.0402399 0
M  V30 6656 C 614.468 -1.17189 3.41027 0
M  V30 6657 O 613.572 -2.28755 3.4314 0
M  V30 6658 H 612.913 -0.14101 0.648855 0
M  V30 6659 H 615.443 0.196128 2.03658 0
M  V30 6660 H 615.453 -1.50954 3.79047 0
M  V30 6661 H 614.128 -0.411041 4.13864 0
M  V30 6662 H 612.705 -1.96495 3.16929 0
M  V30 6663 N 614.89 -1.56749 -0.16351 0
M  V30 6664 C 615.8 -2.00255 -1.2221 0
M  V30 6665 C 616.816 -0.915194 -1.47987 0
M  V30 6666 O 617.992 -1.22342 -1.59982 0
M  V30 6667 C 615.057 -2.36035 -2.53946 0
M  V30 6668 C 614.118 -3.58637 -2.35962 0
M  V30 6669 C 613.351 -3.92701 -3.61416 0
M  V30 6670 O 613.574 -3.27632 -4.66919 0
M  V30 6671 O 612.508 -4.86019 -3.55062 0
M  V30 6672 H 616.334 -2.90586 -0.882794 0
M  V30 6673 H 613.919 -1.44721 -0.370978 0
M  V30 6674 H 615.801 -2.59982 -3.31643 0
M  V30 6675 H 614.476 -1.48863 -2.8744 0
M  V30 6676 H 613.383 -3.39898 -1.5627 0
M  V30 6677 H 614.716 -4.46374 -2.0739 0
M  V30 6678 N 616.368 0.432326 -1.51554 0
M  V30 6679 C 617.315 1.52512 -1.7323 0
M  V30 6680 C 618.285 1.55863 -0.5741 0
M  V30 6681 O 619.47 1.72796 -0.809093 0
M  V30 6682 C 616.61 2.90183 -1.86783 0
M  V30 6683 C 615.723 2.96322 -3.14352 0
M  V30 6684 C 614.858 4.25147 -3.18471 0
M  V30 6685 C 613.897 4.25172 -4.40335 0
M  V30 6686 N 613.034 5.45529 -4.41975 0
M  V30 6687 H 617.874 1.33332 -2.66508 0
M  V30 6688 H 615.411 0.647613 -1.32077 0
M  V30 6689 H 617.369 3.70071 -1.92623 0
M  V30 6690 H 615.999 3.0791 -0.969087 0
M  V30 6691 H 615.051 2.09066 -3.17798 0
M  V30 6692 H 616.363 2.92203 -4.04251 0
M  V30 6693 H 615.517 5.13411 -3.23255 0
M  V30 6694 H 614.256 4.31929 -2.2647 0
M  V30 6695 H 613.261 3.353 -4.35723 0
M  V30 6696 H 614.486 4.20049 -5.33606 0
M  V30 6697 H 612.432 5.53024 -3.52847 0
M  V30 6698 H 612.349 5.43311 -5.25689 0
M  V30 6699 H 613.617 6.35812 -4.50958 0
M  V30 6700 N 617.846 1.41785 0.688094 0
M  V30 6701 C 618.756 1.46596 1.83158 0
M  V30 6702 C 619.772 0.355862 1.70322 0
M  V30 6703 O 620.948 0.604737 1.92106 0
M  V30 6704 C 618.013 1.35322 3.192 0
M  V30 6705 C 617.074 2.56711 3.4409 0
M  V30 6706 C 616.307 2.45965 4.73642 0
M  V30 6707 O 616.53 1.48827 5.50642 0
M  V30 6708 O 615.464 3.35859 4.99482 0
M  V30 6709 H 619.29 2.43083 1.82056 0
M  V30 6710 H 616.875 1.23404 0.842126 0
M  V30 6711 H 618.757 1.31347 4.00407 0
M  V30 6712 H 617.432 0.419536 3.2097 0
M  V30 6713 H 616.339 2.66262 2.62784 0
M  V30 6714 H 617.672 3.48933 3.47141 0
M  V30 6715 N 619.324 -0.923095 1.27737 0
M  V30 6716 C 620.573 -1.66581 1.13727 0
M  V30 6717 C 620.886 -1.9304 -0.315433 0
M  V30 6718 O 622.092 -2.65309 -0.57651 0
M  V30 6719 C 620.548 -3.00047 1.98745 0
M  V30 6720 C 620.156 -2.8127 3.48699 0
M  V30 6721 C 621.9 -3.77887 1.93395 0
M  V30 6722 C 619.807 -4.1032 4.25901 0
M  V30 6723 H 618.737 -0.624834 0.422017 0
M  V30 6724 H 621.388 -1.02514 1.52194 0
M  V30 6725 H 619.77 -3.65197 1.53125 0
M  V30 6726 H 620.944 -2.24859 4.02213 0
M  V30 6727 H 619.259 -2.16854 3.55476 0
M  V30 6728 H 621.856 -4.73526 2.48348 0
M  V30 6729 H 622.199 -4.06264 0.908605 0
M  V30 6730 H 622.732 -3.19541 2.36935 0
M  V30 6731 H 619.471 -3.8712 5.28978 0
M  V30 6732 H 618.991 -4.66377 3.77163 0
M  V30 6733 H 620.67 -4.78648 4.35321 0
M  V30 6734 N 620.802 -1.09834 -1.13024 0
M  V30 6735 C 621.734 -0.699379 -2.18269 0
M  V30 6736 C 622.747 0.260841 -1.60697 0
M  V30 6737 O 623.936 0.0462538 -1.7844 0
M  V30 6738 C 621.036 -0.0104537 -3.38898 0
M  V30 6739 C 620.209 -0.993275 -4.25973 0
M  V30 6740 C 619.268 -0.336982 -5.2512 0
M  V30 6741 O 618.294 -0.985892 -5.60597 0
M  V30 6742 N 619.496 0.90716 -5.73368 0
M  V30 6743 H 622.261 -1.60486 -2.5311 0
M  V30 6744 H 619.822 -0.986337 -1.28386 0
M  V30 6745 H 621.814 0.43991 -4.02302 0
M  V30 6746 H 620.384 0.797335 -3.0226 0
M  V30 6747 H 619.604 -1.62208 -3.5928 0
M  V30 6748 H 620.892 -1.65876 -4.81002 0
M  V30 6749 H 620.29 1.45384 -5.46699 0
M  V30 6750 H 618.847 1.30077 -6.38689 0
M  V30 6751 N 622.28 1.30327 -0.886154 0
M  V30 6752 C 623.227 2.28099 -0.352069 0
M  V30 6753 C 624.197 1.56433 0.558397 0
M  V30 6754 O 625.382 1.84492 0.486561 0
M  V30 6755 C 622.522 3.42456 0.426346 0
M  V30 6756 C 621.635 4.28938 -0.513472 0
M  V30 6757 C 620.77 5.30458 0.280657 0
M  V30 6758 C 619.809 6.0859 -0.654556 0
M  V30 6759 N 618.946 7.02022 0.104322 0
M  V30 6760 H 623.786 2.73166 -1.19097 0
M  V30 6761 H 621.323 1.34367 -0.598662 0
M  V30 6762 H 623.281 4.07518 0.893587 0
M  V30 6763 H 621.911 2.98455 1.22981 0
M  V30 6764 H 620.963 3.64173 -1.09921 0
M  V30 6765 H 622.275 4.83399 -1.2299 0
M  V30 6766 H 621.429 6.01273 0.8097 0
M  V30 6767 H 620.168 4.76693 1.03029 0
M  V30 6768 H 619.173 5.36651 -1.19522 0
M  V30 6769 H 620.398 6.64443 -1.4033 0
M  V30 6770 H 618.344 6.50645 0.836472 0
M  V30 6771 H 618.261 7.53979 -0.552453 0
M  V30 6772 H 619.529 7.77077 0.614069 0
M  V30 6773 N 623.758 0.647228 1.43697 0
M  V30 6774 C 624.688 -0.0345631 2.33474 0
M  V30 6775 C 625.669 -0.818193 1.4913 0
M  V30 6776 O 626.854 -0.780867 1.77809 0
M  V30 6777 C 623.984 -1.00576 3.32418 0
M  V30 6778 C 622.938 -0.33266 4.26705 0
M  V30 6779 C 622.264 -1.41489 5.1564 0
M  V30 6780 C 623.564 0.771204 5.16575 0
M  V30 6781 H 625.258 0.715163 2.90733 0
M  V30 6782 H 622.804 0.345364 1.39797 0
M  V30 6783 H 624.757 -1.49159 3.94119 0
M  V30 6784 H 623.481 -1.78657 2.73403 0
M  V30 6785 H 622.14 0.13267 3.6636 0
M  V30 6786 H 621.788 -2.18698 4.52968 0
M  V30 6787 H 621.488 -0.969799 5.79542 0
M  V30 6788 H 623.012 -1.9022 5.80214 0
M  V30 6789 H 624.426 0.36779 5.72119 0
M  V30 6790 H 622.823 1.1404 5.89165 0
M  V30 6791 H 623.893 1.63169 4.56622 0
M  V30 6792 N 625.236 -1.5273 0.388769 0
M  V30 6793 C 626.647 -1.86505 -0.0853788 0
M  V30 6794 C 626.998 -1.30847 -1.46197 0
M  V30 6795 O 626.123 -0.639609 -2.06732 0
M  V30 6796 C 626.718 -3.38414 -0.161703 0
M  V30 6797 C 625.277 -3.71902 -0.580144 0
M  V30 6798 C 624.424 -2.76095 0.258218 0
M  V30 6799 H 627.375 -1.46647 0.606665 0
M  V30 6800 H 627.396 -3.67638 -0.980936 0
M  V30 6801 H 626.908 -3.78893 0.840333 0
M  V30 6802 H 625.009 -3.36992 -1.58957 0
M  V30 6803 H 625.122 -4.77902 -0.338663 0
M  V30 6804 H 623.486 -2.53195 -0.276432 0
M  V30 6805 H 624.269 -3.19411 1.25822 0
M  V30 6806 N 626.714 -0.118576 -1.57153 0
M  V30 6807 C 627.624 0.845484 -2.18835 0
M  V30 6808 C 628.64 1.29299 -1.16438 0
M  V30 6809 O 629.816 1.35607 -1.48905 0
M  V30 6810 C 626.881 2.07795 -2.77529 0
M  V30 6811 C 625.942 1.6824 -3.9496 0
M  V30 6812 C 625.175 2.85612 -4.50845 0
M  V30 6813 O 625.398 4.01025 -4.05629 0
M  V30 6814 O 624.332 2.62721 -5.41536 0
M  V30 6815 H 628.158 0.350568 -3.0167 0
M  V30 6816 H 625.743 0.107013 -1.49016 0
M  V30 6817 H 627.625 2.79978 -3.14945 0
M  V30 6818 H 626.3 2.56294 -1.97725 0
M  V30 6819 H 625.207 0.931663 -3.62313 0
M  V30 6820 H 626.54 1.24484 -4.76198 0
M  V30 6821 N 628.193 1.56834 0.155195 0
M  V30 6822 C 629.141 1.98584 1.21107 0
M  V30 6823 C 630.135 0.876987 1.44932 0
M  V30 6824 O 631.341 1.06215 1.45322 0
M  V30 6825 H 627.716 0.632039 0.407469 0
M  V30 6826 H 629.687 2.86561 0.832195 0
M  V30 6827 C 628.436 2.37555 2.53895 0
M  V30 6828 H 627.759 3.22428 2.3639 0
M  V30 6829 H 629.199 2.70598 3.26424 0
M  V30 6830 C 627.658 1.22507 3.13837 0
M  V30 6831 O 628.188 0.521388 3.98302 0
M  V30 6832 N 626.394 0.991444 2.73164 0
M  V30 6833 H 625.941 1.56544 2.04577 0
M  V30 6834 H 625.899 0.223546 3.13604 0
M  V30 6835 N 629.671 -0.424282 1.51781 0
M  V30 6836 C 630.896 -1.19928 1.6921 0
M  V30 6837 C 631.321 -1.8392 0.394355 0
M  V30 6838 O 630.679 -1.69371 -0.646778 0
M  V30 6839 C 630.727 -2.24937 2.81843 0
M  V30 6840 O 629.831 -3.3073 2.46356 0
M  V30 6841 H 629.172 -0.35078 0.563781 0
M  V30 6842 H 631.702 -0.499401 1.98412 0
M  V30 6843 H 631.712 -2.69512 3.06312 0
M  V30 6844 H 630.387 -1.77742 3.76006 0
M  V30 6845 H 628.964 -2.9154 2.32505 0
M  V30 6846 N 631.149 -1.42148 -0.680565 0
M  V30 6847 C 632.56 -1.3768 -1.26099 0
M  V30 6848 C 632.911 -0.0672348 -1.96085 0
M  V30 6849 O 632.036 0.834172 -1.99676 0
M  V30 6850 C 632.631 -2.49387 -2.29328 0
M  V30 6851 C 631.19 -2.4827 -2.82911 0
M  V30 6852 C 630.337 -2.2847 -1.57152 0
M  V30 6853 H 633.288 -1.51446 -0.474326 0
M  V30 6854 H 633.309 -2.19307 -3.10941 0
M  V30 6855 H 632.821 -3.44686 -1.78363 0
M  V30 6856 H 630.922 -1.56773 -3.38013 0
M  V30 6857 H 631.035 -3.45109 -3.3232 0
M  V30 6858 H 629.399 -1.76623 -1.83511 0
M  V30 6859 H 630.182 -3.25816 -1.0816 0
M  V30 6860 N 632.627 0.916307 -1.28225 0
M  V30 6861 C 633.852 1.7043 -1.18188 0
M  V30 6862 C 634.277 1.86346 0.256274 0
M  V30 6863 O 633.635 1.37175 1.18544 0
M  V30 6864 C 633.683 3.07546 -1.88275 0
M  V30 6865 O 632.787 3.94904 -1.18848 0
M  V30 6866 H 632.128 0.521967 -0.410423 0
M  V30 6867 H 634.658 1.14589 -1.69501 0
M  V30 6868 H 634.668 3.57793 -1.96082 0
M  V30 6869 H 633.343 2.95279 -2.92887 0
M  V30 6870 H 631.92 3.53339 -1.19187 0
M  V30 6871 N 634.105 1.10431 1.1244 0
M  V30 6872 C 635.052 0.753103 2.18167 0
M  V30 6873 C 636.022 -0.270549 1.63882 0
M  V30 6874 O 637.207 -0.149837 1.90211 0
M  V30 6875 C 634.347 0.191046 3.44571 0
M  V30 6876 C 633.46 1.26999 4.12911 0
M  V30 6877 C 632.595 0.669586 5.26963 0
M  V30 6878 C 631.634 1.72912 5.87169 0
M  V30 6879 N 630.771 1.14898 6.92635 0
M  V30 6880 H 635.611 1.65892 2.47556 0
M  V30 6881 H 633.148 0.828631 1.21541 0
M  V30 6882 H 635.106 -0.152712 4.1692 0
M  V30 6883 H 633.736 -0.677997 3.15599 0
M  V30 6884 H 632.788 1.73087 3.3874 0
M  V30 6885 H 634.1 2.07204 4.53727 0
M  V30 6886 H 633.254 0.275274 6.06075 0
M  V30 6887 H 631.993 -0.163895 4.87425 0
M  V30 6888 H 630.998 2.13286 5.06744 0
M  V30 6889 H 632.223 2.56544 6.28778 0
M  V30 6890 H 630.169 0.336956 6.55134 0
M  V30 6891 H 630.086 1.88786 7.32049 0
M  V30 6892 H 631.354 0.78121 7.75576 0
M  V30 6893 N 635.583 -1.29855 0.893053 0
M  V30 6894 C 636.831 -1.9544 0.514566 0
M  V30 6895 C 637.152 -1.70795 -0.940959 0
M  V30 6896 O 636.422 -1.03601 -1.66264 0
M  V30 6897 H 635.002 -0.723137 0.187302 0
M  V30 6898 H 637.664 -1.58234 1.13789 0
M  V30 6899 H 636.76 -3.04341 0.691581 0
M  V30 6900 N 637.061 -0.65484 -1.43351 0
M  V30 6901 C 638.308 -0.168892 -2.01794 0
M  V30 6902 C 638.636 1.2177 -1.51665 0
M  V30 6903 O 637.891 1.82717 -0.70092 0
M  V30 6904 C 638.19 -0.130424 -3.57162 0
M  V30 6905 C 637.856 -1.45898 -4.26643 0
M  V30 6906 C 636.518 -1.82279 -4.4534 0
M  V30 6907 C 638.87 -2.33485 -4.65976 0
M  V30 6908 C 636.198 -3.0591 -5.00635 0
M  V30 6909 C 638.55 -3.5641 -5.22642 0
M  V30 6910 C 637.214 -3.92985 -5.39555 0
M  V30 6911 H 636.484 -0.061802 -0.738418 0
M  V30 6912 H 639.131 -0.845869 -1.71806 0
M  V30 6913 H 637.436 0.630008 -3.86702 0
M  V30 6914 H 639.133 0.262465 -4.0014 0
M  V30 6915 H 635.723 -1.16591 -4.12437 0
M  V30 6916 H 639.907 -2.06668 -4.51223 0
M  V30 6917 H 635.163 -3.34295 -5.11915 0
M  V30 6918 H 639.337 -4.24495 -5.52066 0
M  V30 6919 H 636.964 -4.88862 -5.82167 0
M  V30 6920 N 638.539 1.52521 -0.396863 0
M  V30 6921 C 639.471 2.24333 0.469814 0
M  V30 6922 C 640.484 1.2685 1.02043 0
M  V30 6923 O 641.673 1.52876 0.92147 0
M  V30 6924 C 638.773 2.95202 1.66461 0
M  V30 6925 C 637.946 4.19454 1.24003 0
M  V30 6926 C 637.005 4.73255 2.30036 0
M  V30 6927 O 636.031 5.36151 1.91131 0
M  V30 6928 N 637.233 4.53765 3.62047 0
M  V30 6929 H 639.998 2.99347 -0.145468 0
M  V30 6930 H 637.559 1.60348 -0.223606 0
M  V30 6931 H 639.551 3.28092 2.36934 0
M  V30 6932 H 638.121 2.2345 2.18607 0
M  V30 6933 H 637.341 3.92517 0.363892 0
M  V30 6934 H 638.629 5.0017 0.933135 0
M  V30 6935 H 638.027 4.03576 3.96412 0
M  V30 6936 H 636.584 4.91124 4.28533 0
M  V30 6937 N 640.017 0.126909 1.57088 0
M  V30 6938 C 640.947 -0.816847 2.18746 0
M  V30 6939 C 641.928 -1.27161 1.12979 0
M  V30 6940 O 643.113 -1.33279 1.41246 0
M  V30 6941 C 640.243 -2.06398 2.79315 0
M  V30 6942 C 639.197 -1.74673 3.90735 0
M  V30 6943 C 638.523 -3.06482 4.38147 0
M  V30 6944 C 639.823 -1.0089 5.12463 0
M  V30 6945 H 641.517 -0.303032 2.97863 0
M  V30 6946 H 639.063 -0.144314 1.43275 0
M  V30 6947 H 641.016 -2.72885 3.2111 0
M  V30 6948 H 639.74 -2.60118 1.975 0
M  V30 6949 H 638.399 -1.10572 3.49527 0
M  V30 6950 H 638.047 -3.58152 3.5318 0
M  V30 6951 H 637.747 -2.86025 5.13287 0
M  V30 6952 H 639.271 -3.74073 4.82599 0
M  V30 6953 H 640.685 -1.57546 5.51228 0
M  V30 6954 H 639.082 -0.905006 5.93237 0
M  V30 6955 H 640.152 0.00297335 4.849 0
M  V30 6956 N 641.495 -1.56914 -0.146875 0
M  V30 6957 C 642.723 -1.87515 -0.874394 0
M  V30 6958 C 643.138 -0.715116 -1.74733 0
M  V30 6959 O 642.495 0.315113 -1.79759 0
M  V30 6960 C 642.546 -3.17362 -1.731 0
M  V30 6961 O 642.267 -4.28897 -0.893245 0
M  V30 6962 C 643.768 -3.61479 -2.56609 0
M  V30 6963 H 640.988 -0.621546 -0.252827 0
M  V30 6964 H 643.532 -2.04023 -0.139627 0
M  V30 6965 H 641.687 -3.02608 -2.41883 0
M  V30 6966 H 642.101 -5.03146 -1.48137 0
M  V30 6967 H 643.575 -4.5517 -3.12289 0
M  V30 6968 H 644.052 -2.86773 -3.32653 0
M  V30 6969 H 644.658 -3.78927 -1.93117 0
M  V30 6970 N 642.974 0.416227 -1.52004 0
M  V30 6971 C 644.39 0.754319 -1.40649 0
M  V30 6972 C 644.59 1.95059 -0.505392 0
M  V30 6973 O 643.646 2.5248 0.0315057 0
M  V30 6974 C 644.959 1.0149 -2.83055 0
M  V30 6975 C 646.507 1.11805 -2.9235 0
M  V30 6976 C 646.982 1.41144 -4.35709 0
M  V30 6977 N 648.473 1.48024 -4.38911 0
M  V30 6978 C 649.208 1.72338 -5.46889 0
M  V30 6979 N 648.704 1.94303 -6.64995 0
M  V30 6980 N 650.497 1.74294 -5.34395 0
M  V30 6981 H 642.648 -0.371324 -2.09129 0
M  V30 6982 H 644.911 -0.103811 -0.942299 0
M  V30 6983 H 644.617 0.208345 -3.51082 0
M  V30 6984 H 644.491 1.93697 -3.23668 0
M  V30 6985 H 646.878 1.91521 -2.24508 0
M  V30 6986 H 646.959 0.17451 -2.55204 0
M  V30 6987 H 646.603 0.619484 -5.04108 0
M  V30 6988 H 646.533 2.36739 -4.70385 0
M  V30 6989 H 649.024 1.32868 -3.53772 0
M  V30 6990 H 649.337 2.12286 -7.43071 0
M  V30 6991 H 647.682 1.91582 -6.68073 0
M  V30 6992 H 650.873 1.56667 -4.41104 0
M  V30 6993 H 651.046 1.92904 -6.18621 0
M  V30 6994 N 644.452 1.42507 0.673017 0
M  V30 6995 C 645.384 1.42074 1.79854 0
M  V30 6996 C 646.397 0.319569 1.59633 0
M  V30 6997 O 647.586 0.582769 1.68719 0
M  V30 6998 C 644.686 1.19886 3.16987 0
M  V30 6999 C 643.859 2.42471 3.64042 0
M  V30 7000 C 642.918 2.15802 4.79913 0
M  V30 7001 O 641.944 2.89015 4.90366 0
M  V30 7002 N 643.146 1.16225 5.68746 0
M  V30 7003 H 645.911 2.3909 1.8071 0
M  V30 7004 H 643.472 1.37409 0.856171 0
M  V30 7005 H 645.464 0.999591 3.92161 0
M  V30 7006 H 644.034 0.313879 3.1102 0
M  V30 7007 H 643.254 2.77954 2.79526 0
M  V30 7008 H 644.542 3.24097 3.92223 0
M  V30 7009 H 643.94 0.556756 5.62954 0
M  V30 7010 H 642.497 1.02285 6.43724 0
M  V30 7011 N 645.93 -0.909495 1.28709 0
M  V30 7012 C 646.84 -2.04558 1.14861 0
M  V30 7013 C 647.856 -1.73842 0.0741621 0
M  V30 7014 O 649.032 -1.99383 0.2843 0
M  V30 7015 C 646.097 -3.36957 0.816148 0
M  V30 7016 C 645.158 -3.81255 1.97341 0
M  V30 7017 C 644.391 -5.07335 1.65671 0
M  V30 7018 O 644.614 -5.67514 0.573053 0
M  V30 7019 O 643.548 -5.47449 2.50167 0
M  V30 7020 H 647.374 -2.19161 2.10243 0
M  V30 7021 H 644.959 -1.03159 1.08068 0
M  V30 7022 H 646.841 -4.16436 0.644873 0
M  V30 7023 H 645.516 -3.2352 -0.107983 0
M  V30 7024 H 644.423 -3.02584 2.19986 0
M  V30 7025 H 645.756 -3.99261 2.87839 0
M  V30 7026 N 647.408 -1.11026 -1.11852 0
M  V30 7027 C 648.657 -0.851249 -1.82857 0
M  V30 7028 C 648.97 0.62514 -1.85341 0
M  V30 7029 O 650.176 1.00026 -2.52403 0
M  V30 7030 C 648.632 -1.47309 -3.28372 0
M  V30 7031 C 648.24 -2.9832 -3.34229 0
M  V30 7032 C 649.984 -1.29373 -4.04306 0
M  V30 7033 C 647.891 -3.53509 -4.74115 0
M  V30 7034 H 646.821 -0.314794 -0.685143 0
M  V30 7035 H 649.472 -1.33499 -1.25898 0
M  V30 7036 H 647.854 -0.917017 -3.85236 0
M  V30 7037 H 649.028 -3.60295 -2.87271 0
M  V30 7038 H 647.343 -3.15482 -2.71772 0
M  V30 7039 H 649.94 -1.68042 -5.07608 0
M  V30 7040 H 650.283 -0.235879 -4.15631 0
M  V30 7041 H 650.816 -1.8182 -3.53817 0
M  V30 7042 H 647.555 -4.58987 -4.67986 0
M  V30 7043 H 647.075 -2.96305 -5.21501 0
M  V30 7044 H 648.754 -3.51693 -5.43066 0
M  V30 7045 N 648.886 1.2938 -0.899927 0
M  V30 7046 C 650.132 1.9584 -0.526742 0
M  V30 7047 C 650.465 1.70774 0.924651 0
M  V30 7048 O 649.74 1.02084 1.65557 0
M  V30 7049 C 650.023 3.50638 -0.820062 0
M  V30 7050 C 649.876 3.85161 -2.32317 0
M  V30 7051 C 651.195 4.3903 -0.30671 0
M  V30 7052 H 648.314 0.711322 -0.192848 0
M  V30 7053 H 650.956 1.52992 -1.12665 0
M  V30 7054 H 649.106 3.87265 -0.309491 0
M  V30 7055 H 650.778 3.58477 -2.9033 0
M  V30 7056 H 649.021 3.32696 -2.78381 0
M  V30 7057 H 649.692 4.93204 -2.47898 0
M  V30 7058 H 652.168 4.09396 -0.743908 0
M  V30 7059 H 651.044 5.46226 -0.541144 0
M  V30 7060 H 651.305 4.34937 0.792588 0
M  V30 7061 N 650.364 0.662433 1.43002 0
M  V30 7062 C 651.327 -0.0142016 2.29196 0
M  V30 7063 C 652.327 -0.741394 1.42688 0
M  V30 7064 O 653.517 -0.581257 1.64216 0
M  V30 7065 C 650.649 -1.03084 3.24941 0
M  V30 7066 H 651.842 0.7443 2.90517 0
M  V30 7067 H 649.395 0.424133 1.50435 0
M  V30 7068 H 650.13 -1.81826 2.68533 0
M  V30 7069 H 649.915 -0.512946 3.8873 0
M  V30 7070 H 651.405 -1.50308 3.89612 0
M  V30 7071 N 651.842 -1.52309 0.404946 0
M  V30 7072 C 652.772 -2.29805 -0.41376 0
M  V30 7073 C 653.753 -1.3384 -1.0498 0
M  V30 7074 O 654.938 -1.62745 -1.05961 0
M  V30 7075 C 652.068 -3.11639 -1.53292 0
M  V30 7076 C 651.022 -4.15616 -1.02211 0
M  V30 7077 C 650.348 -4.8577 -2.23455 0
M  V30 7078 C 651.648 -5.2224 -0.0790725 0
M  V30 7079 H 653.342 -2.98493 0.232878 0
M  V30 7080 H 650.888 -1.43552 0.113441 0
M  V30 7081 H 652.841 -3.64618 -2.11262 0
M  V30 7082 H 651.565 -2.40712 -2.20738 0
M  V30 7083 H 650.224 -3.63641 -0.46484 0
M  V30 7084 H 649.872 -4.11376 -2.89445 0
M  V30 7085 H 649.572 -5.56058 -1.89929 0
M  V30 7086 H 651.096 -5.4156 -2.82038 0
M  V30 7087 H 652.51 -5.70485 -0.567438 0
M  V30 7088 H 650.907 -5.99867 0.167167 0
M  V30 7089 H 651.977 -4.77078 0.867447 0
M  V30 7090 N 653.32 -0.135238 -1.57019 0
M  V30 7091 C 654.25 0.805235 -2.19176 0
M  V30 7092 C 655.231 1.2656 -1.13651 0
M  V30 7093 O 656.416 1.32528 -1.4195 0
M  V30 7094 C 653.546 2.04914 -2.80406 0
M  V30 7095 C 652.5 1.72598 -3.91655 0
M  V30 7096 C 651.826 3.04154 -4.39766 0
M  V30 7097 C 653.126 0.981709 -5.12991 0
M  V30 7098 H 654.82 0.287232 -2.98019 0
M  V30 7099 H 652.366 0.136714 -1.4335 0
M  V30 7100 H 654.319 2.71178 -3.22553 0
M  V30 7101 H 653.043 2.59067 -1.98877 0
M  V30 7102 H 651.702 1.08717 -3.50109 0
M  V30 7103 H 651.35 3.56274 -3.55075 0
M  V30 7104 H 651.05 2.83299 -5.14796 0
M  V30 7105 H 652.574 3.71509 -4.84576 0
M  V30 7106 H 653.988 1.5462 -5.52056 0
M  V30 7107 H 652.385 0.873533 -5.93708 0
M  V30 7108 H 653.455 -0.0286887 -4.84892 0
M  V30 7109 N 654.798 1.5699 0.138552 0
M  V30 7110 C 655.746 1.99858 1.18994 0
M  V30 7111 C 656.74 0.89231 1.43994 0
M  V30 7112 O 657.946 1.0775 1.44187 0
M  V30 7113 H 654.321 0.636325 0.400743 0
M  V30 7114 H 656.292 2.87427 0.801755 0
M  V30 7115 C 655.041 2.40235 2.51361 0
M  V30 7116 H 654.364 3.24917 2.32957 0
M  V30 7117 H 655.804 2.74045 3.23535 0
M  V30 7118 C 654.263 1.25829 3.1252 0
M  V30 7119 O 654.793 0.563604 3.97727 0
M  V30 7120 N 652.999 1.02036 2.72097 0
M  V30 7121 H 652.546 1.58705 2.02905 0
M  V30 7122 H 652.504 0.256796 3.1335 0
M  V30 7123 N 656.276 -0.40816 1.52223 0
M  V30 7124 C 657.239 -1.48 1.7501 0
M  V30 7125 C 658.239 -1.48367 0.619996 0
M  V30 7126 O 659.429 -1.49874 0.887881 0
M  V30 7127 C 656.561 -2.87403 1.83336 0
M  V30 7128 H 657.754 -1.29086 2.70697 0
M  V30 7129 H 655.307 -0.638715 1.42654 0
M  V30 7130 H 656.042 -3.11686 0.895677 0
M  V30 7131 H 655.827 -2.8854 2.65494 0
M  V30 7132 H 657.317 -3.65103 2.02705 0
M  V30 7133 N 657.755 -1.42862 -0.66545 0
M  V30 7134 C 659.002 -1.4383 -1.42546 0
M  V30 7135 C 659.33 -0.0581114 -1.94413 0
M  V30 7136 O 658.585 0.935002 -1.71919 0
M  V30 7137 C 658.884 -2.4175 -2.63233 0
M  V30 7138 C 658.55 -3.87915 -2.29854 0
M  V30 7139 C 657.212 -4.27726 -2.20463 0
M  V30 7140 C 659.564 -4.80074 -2.02924 0
M  V30 7141 C 656.892 -5.57666 -1.82279 0
M  V30 7142 C 659.244 -6.10366 -1.66242 0
M  V30 7143 C 657.908 -6.49167 -1.55367 0
M  V30 7144 H 657.178 -0.52631 -0.521612 0
M  V30 7145 H 659.825 -1.75863 -0.757914 0
M  V30 7146 H 658.13 -2.03077 -3.35063 0
M  V30 7147 H 659.827 -2.39759 -3.21429 0
M  V30 7148 H 656.417 -3.564 -2.3807 0
M  V30 7149 H 660.601 -4.50097 -2.09108 0
M  V30 7150 H 655.857 -5.8658 -1.72436 0
M  V30 7151 H 660.031 -6.81258 -1.44432 0
M  V30 7152 H 657.658 -7.49761 -1.2555 0
M  V30 7153 N 659.233 0.902656 -1.29189 0
M  V30 7154 C 660.481 1.6496 -1.16758 0
M  V30 7155 C 660.802 1.92952 0.28188 0
M  V30 7156 O 660.072 1.55351 1.19344 0
M  V30 7157 H 658.652 0.611447 -0.429118 0
M  V30 7158 H 661.314 1.0825 -1.62074 0
M  V30 7159 H 660.41 2.60728 -1.71544 0
M  V30 7160 N 660.711 1.11618 1.11262 0
M  V30 7161 C 662.127 0.850468 1.35053 0
M  V30 7162 C 662.327 -0.523868 1.94571 0
M  V30 7163 O 661.383 -1.2743 2.17986 0
M  V30 7164 C 662.696 1.96005 2.28041 0
M  V30 7165 C 664.244 1.98993 2.416 0
M  V30 7166 C 664.719 3.0916 3.37911 0
M  V30 7167 N 666.21 3.08547 3.45475 0
M  V30 7168 C 666.945 3.9043 4.19943 0
M  V30 7169 N 666.441 4.8228 4.97371 0
M  V30 7170 N 668.234 3.786 4.15474 0
M  V30 7171 H 660.385 2.00184 0.709932 0
M  V30 7172 H 662.648 0.870635 0.375099 0
M  V30 7173 H 662.354 2.9499 1.91503 0
M  V30 7174 H 662.228 1.85782 3.28275 0
M  V30 7175 H 664.615 1.00633 2.77411 0
M  V30 7176 H 664.696 2.13292 1.4121 0
M  V30 7177 H 664.34 4.07748 3.02827 0
M  V30 7178 H 664.27 2.92102 4.3816 0
M  V30 7179 H 666.761 2.42 2.90249 0
M  V30 7180 H 667.074 5.41289 5.51567 0
M  V30 7181 H 665.419 4.863 4.96525 0
M  V30 7182 H 668.61 3.06185 3.54074 0
M  V30 7183 H 668.783 4.42647 4.73253 0
M  V30 7184 N 662.189 -1.289 0.906776 0
M  V30 7185 C 663.119 -2.29932 0.406659 0
M  V30 7186 C 664.1 -1.6189 -0.522061 0
M  V30 7187 O 665.285 -1.8935 -0.431283 0
M  V30 7188 C 662.415 -3.45425 -0.360366 0
M  V30 7189 C 661.369 -4.25316 0.478574 0
M  V30 7190 C 660.695 -5.33076 -0.416373 0
M  V30 7191 C 661.995 -4.92739 1.7322 0
M  V30 7192 H 663.689 -2.72013 1.25097 0
M  V30 7193 H 661.235 -1.30768 0.602977 0
M  V30 7194 H 663.188 -4.15186 -0.721029 0
M  V30 7195 H 661.912 -3.02206 -1.23852 0
M  V30 7196 H 660.571 -3.57273 0.821662 0
M  V30 7197 H 660.219 -4.86101 -1.29287 0
M  V30 7198 H 659.919 -5.8743 0.141309 0
M  V30 7199 H 661.443 -6.05686 -0.773072 0
M  V30 7200 H 662.857 -5.54898 1.44086 0
M  V30 7201 H 661.254 -5.57057 2.23175 0
M  V30 7202 H 662.324 -4.17625 2.46408 0
M  V30 7203 N 663.667 -0.670007 -1.42649 0
M  V30 7204 C 664.892 -0.196955 -2.06463 0
M  V30 7205 C 665.317 1.1352 -1.49983 0
M  V30 7206 O 664.675 1.705 -0.616397 0
M  V30 7207 C 664.723 -0.137381 -3.60338 0
M  V30 7208 O 663.827 0.895523 -4.02559 0
M  V30 7209 H 663.168 -0.102579 -0.656029 0
M  V30 7210 H 665.698 -0.917669 -1.82866 0
M  V30 7211 H 665.708 0.0403625 -4.0798 0
M  V30 7212 H 664.383 -1.10977 -4.0082 0
M  V30 7213 H 662.96 0.689209 -3.66476 0
M  V30 7214 N 665.145 1.52092 -0.413018 0
M  V30 7215 C 666.373 2.06274 0.160881 0
M  V30 7216 C 666.788 1.28273 1.38533 0
M  V30 7217 O 666.145 0.33563 1.79387 0
M  V30 7218 C 666.196 3.57921 0.507443 0
M  V30 7219 O 665.917 4.32971 -0.668388 0
M  V30 7220 C 667.418 4.28533 1.13465 0
M  V30 7221 H 664.638 0.67074 0.0186759 0
M  V30 7222 H 667.182 1.95951 -0.585092 0
M  V30 7223 H 665.337 3.68238 1.20331 0
M  V30 7224 H 665.751 5.23135 -0.378169 0
M  V30 7225 H 667.225 5.35804 1.32732 0
M  V30 7226 H 667.702 3.85258 2.10886 0
M  V30 7227 H 668.308 4.22595 0.478876 0
M  V30 7228 N 666.623 0.143563 1.56945 0
M  V30 7229 C 667.848 -0.518701 2.00809 0
M  V30 7230 C 668.273 -1.5785 1.02298 0
M  V30 7231 O 667.631 -1.813 -0.0017839 0
M  V30 7232 C 667.679 -1.09929 3.43436 0
M  V30 7233 O 666.783 -2.21425 3.47915 0
M  V30 7234 H 666.124 -0.127215 0.6517 0
M  V30 7235 H 668.654 0.239283 2.03196 0
M  V30 7236 H 668.664 -1.4288 3.82164 0
M  V30 7237 H 667.339 -0.323162 4.14643 0
M  V30 7238 H 665.916 -1.89728 3.21026 0
M  V30 7239 N 668.101 -1.57061 -0.130224 0
M  V30 7240 C 669.35 -1.83446 -0.838488 0
M  V30 7241 C 669.663 -0.727468 -1.81569 0
M  V30 7242 O 670.869 -0.877394 -2.56932 0
M  V30 7243 C 669.325 -3.25201 -1.54182 0
M  V30 7244 C 668.933 -4.4388 -0.606178 0
M  V30 7245 C 670.677 -3.60844 -2.23588 0
M  V30 7246 C 668.584 -5.76661 -1.31209 0
M  V30 7247 H 667.514 -0.684185 -0.316871 0
M  V30 7248 H 670.165 -1.83273 -0.0912059 0
M  V30 7249 H 668.547 -3.1981 -2.33533 0
M  V30 7250 H 669.721 -4.60545 0.153308 0
M  V30 7251 H 668.036 -4.16395 -0.0196705 0
M  V30 7252 H 670.633 -4.57313 -2.77072 0
M  V30 7253 H 670.976 -2.87724 -3.00867 0
M  V30 7254 H 671.509 -3.67971 -1.51137 0
M  V30 7255 H 668.248 -6.52922 -0.580823 0
M  V30 7256 H 667.768 -5.63902 -2.04387 0
M  V30 7257 H 669.447 -6.20035 -1.8484 0
M  V30 7258 N 669.579 0.400081 -1.52437 0
M  V30 7259 C 670.995 0.739359 -1.41441 0
M  V30 7260 C 671.195 1.94512 -0.526053 0
M  V30 7261 O 670.251 2.525 0.00472502 0
M  V30 7262 C 671.564 0.984824 -2.84116 0
M  V30 7263 C 673.112 1.08698 -2.93519 0
M  V30 7264 C 673.587 1.36515 -4.37181 0
M  V30 7265 N 675.078 1.43361 -4.40457 0
M  V30 7266 C 675.813 1.66528 -5.48686 0
M  V30 7267 N 675.309 1.87239 -6.67018 0
M  V30 7268 N 677.102 1.68617 -5.36213 0
M  V30 7269 H 669.253 -0.393484 -2.08723 0
M  V30 7270 H 671.516 -0.1138 -0.941145 0
M  V30 7271 H 671.222 0.171096 -3.51284 0
M  V30 7272 H 671.096 1.90253 -3.25705 0
M  V30 7273 H 673.483 1.89129 -2.26526 0
M  V30 7274 H 673.564 0.147432 -2.55375 0
M  V30 7275 H 673.208 0.565982 -5.04737 0
M  V30 7276 H 673.138 2.31737 -4.7287 0
M  V30 7277 H 675.629 1.29108 -3.55161 0
M  V30 7278 H 675.942 2.04392 -7.45281 0
M  V30 7279 H 674.287 1.84486 -6.70067 0
M  V30 7280 H 677.478 1.5198 -4.42741 0
M  V30 7281 H 677.651 1.86332 -6.20632 0
M  V30 7282 N 671.057 1.43213 0.657864 0
M  V30 7283 C 672.334 1.35063 1.41483 0
M  V30 7284 C 672.714 -0.0038314 2.111 0
M  V30 7285 O 672.062 -1.02018 2.04462 0
M  V30 7286 C 672.272 2.53061 2.40335 0
M  V30 7287 C 673.62 2.9594 3.04474 0
M  V30 7288 O 674.644 2.53074 2.50663 0
M  V30 7289 O 673.503 3.70184 4.02027 0
M  V30 7290 H 670.597 0.533517 0.631893 0
M  V30 7291 H 673.143 1.55253 0.685162 0
M  V30 7292 H 671.915 3.43283 1.87809 0
M  V30 7293 H 671.538 2.34945 3.20759 0
M  V30 7294 N 672.536 -0.895792 1.29666 0
M  V30 7295 C 673.466 -2.01673 1.17688 0
M  V30 7296 C 674.447 -1.69955 0.0701317 0
M  V30 7297 O 675.632 -1.9258 0.250289 0
M  V30 7298 C 672.762 -3.36568 0.856681 0
M  V30 7299 C 671.716 -3.82509 1.92017 0
M  V30 7300 C 671.042 -5.14574 1.4532 0
M  V30 7301 C 672.342 -4.02409 3.32963 0
M  V30 7302 H 674.036 -2.11953 2.11463 0
M  V30 7303 H 671.582 -1.01839 1.01807 0
M  V30 7304 H 673.535 -4.14498 0.759577 0
M  V30 7305 H 672.259 -3.26391 -0.116763 0
M  V30 7306 H 670.918 -3.068 2.00673 0
M  V30 7307 H 670.566 -5.00815 0.468325 0
M  V30 7308 H 670.266 -5.46283 2.16447 0
M  V30 7309 H 671.79 -5.9504 1.36968 0
M  V30 7310 H 673.204 -4.70808 3.27127 0
M  V30 7311 H 671.601 -4.45478 4.02082 0
M  V30 7312 H 672.671 -3.06616 3.75652 0
M  V30 7313 N 674.014 -1.12206 -1.10668 0
M  V30 7314 C 674.946 -0.74552 -2.16736 0
M  V30 7315 C 675.959 0.226696 -1.61214 0
M  V30 7316 O 677.148 0.0083936 -1.78498 0
M  V30 7317 C 674.248 -0.0823368 -3.388 0
M  V30 7318 C 673.421 -1.08341 -4.2377 0
M  V30 7319 C 672.48 -0.448292 -5.24287 0
M  V30 7320 O 671.506 -1.10458 -5.58379 0
M  V30 7321 N 672.708 0.785336 -5.75163 0
M  V30 7322 H 675.473 -1.65818 -2.49649 0
M  V30 7323 H 673.034 -1.01335 -1.26265 0
M  V30 7324 H 675.026 0.354476 -4.03145 0
M  V30 7325 H 673.596 0.733041 -3.03884 0
M  V30 7326 H 672.816 -1.69792 -3.55759 0
M  V30 7327 H 674.104 -1.76042 -4.77375 0
M  V30 7328 H 673.502 1.33755 -5.4966 0
M  V30 7329 H 672.059 1.16501 -6.41304 0
M  V30 7330 N 675.492 1.28418 -0.913599 0
M  V30 7331 C 676.44 2.29272 -0.392037 0
M  V30 7332 C 677.434 1.61344 0.516198 0
M  V30 7333 O 678.64 1.75557 0.39746 0
M  V30 7334 H 675.015 0.744178 -0.108178 0
M  V30 7335 H 676.986 2.70691 -1.25574 0
M  V30 7336 C 675.735 3.45905 0.352815 0
M  V30 7337 H 675.058 3.98378 -0.336848 0
M  V30 7338 H 676.498 4.18473 0.682398 0
M  V30 7339 C 674.957 2.98572 1.56065 0
M  V30 7340 O 675.487 3.01033 2.65974 0
M  V30 7341 N 673.693 2.54235 1.40759 0
M  V30 7342 H 673.24 2.52432 0.513403 0
M  V30 7343 H 673.198 2.22925 2.21702 0
M  V30 7344 N 676.97 0.677563 1.42291 0
M  V30 7345 C 678.217 0.200975 2.015 0
M  V30 7346 C 678.545 -1.19342 1.53583 0
M  V30 7347 O 677.8 -1.81579 0.7299 0
M  V30 7348 C 678.099 0.187229 3.56909 0
M  V30 7349 C 677.765 1.52667 4.24268 0
M  V30 7350 C 676.427 1.89341 4.42384 0
M  V30 7351 C 678.779 2.40869 4.62203 0
M  V30 7352 C 676.107 3.13836 4.95705 0
M  V30 7353 C 678.459 3.64679 5.16906 0
M  V30 7354 C 677.123 4.01519 5.33234 0
M  V30 7355 H 676.393 0.0735418 0.737342 0
M  V30 7356 H 679.04 0.873095 1.70439 0
M  V30 7357 H 677.345 -0.568407 3.87655 0
M  V30 7358 H 679.042 -0.198773 4.00507 0
M  V30 7359 H 675.632 1.23138 4.1053 0
M  V30 7360 H 679.816 2.1382 4.47878 0
M  V30 7361 H 675.072 3.42396 5.06532 0
M  V30 7362 H 679.246 4.33224 5.45243 0
M  V30 7363 H 676.873 4.98062 5.74316 0
M  V30 7364 N 678.448 -1.51871 0.421078 0
M  V30 7365 C 679.395 -2.27334 -0.398508 0
M  V30 7366 C 680.365 -1.30241 -1.03085 0
M  V30 7367 O 681.55 -1.59121 -1.05285 0
M  V30 7368 C 678.69 -3.10664 -1.50272 0
M  V30 7369 C 677.803 -4.2273 -0.890122 0
M  V30 7370 C 676.938 -4.93399 -1.96803 0
M  V30 7371 C 675.977 -5.97409 -1.333 0
M  V30 7372 N 675.114 -6.61548 -2.35156 0
M  V30 7373 H 679.954 -2.96938 0.251411 0
M  V30 7374 H 677.491 -1.46472 0.135825 0
M  V30 7375 H 679.449 -3.57292 -2.15403 0
M  V30 7376 H 678.079 -2.43207 -2.1225 0
M  V30 7377 H 677.131 -3.80186 -0.127537 0
M  V30 7378 H 678.443 -4.97302 -0.386349 0
M  V30 7379 H 677.597 -5.43491 -2.69633 0
M  V30 7380 H 676.336 -4.18421 -2.50549 0
M  V30 7381 H 675.341 -5.46624 -0.59008 0
M  V30 7382 H 676.566 -6.74335 -0.803076 0
M  V30 7383 H 674.512 -5.89394 -2.88012 0
M  V30 7384 H 674.429 -7.31832 -1.89624 0
M  V30 7385 H 675.697 -7.16276 -3.0752 0
M  V30 7386 N 679.926 -0.151884 -1.56866 0
M  V30 7387 C 681.172 0.498742 -1.96572 0
M  V30 7388 C 681.505 1.64194 -1.03702 0
M  V30 7389 O 680.78 1.94334 -0.0803432 0
M  V30 7390 C 681.063 1.00027 -3.45929 0
M  V30 7391 C 680.916 -0.141767 -4.49577 0
M  V30 7392 C 682.235 1.88044 -3.97904 0
M  V30 7393 H 679.354 0.17982 -0.714726 0
M  V30 7394 H 681.996 -0.234097 -1.88552 0
M  V30 7395 H 680.146 1.62476 -3.52894 0
M  V30 7396 H 681.818 -0.778269 -4.54687 0
M  V30 7397 H 680.061 -0.80019 -4.26356 0
M  V30 7398 H 680.732 0.250947 -5.51429 0
M  V30 7399 H 683.208 1.35416 -3.93449 0
M  V30 7400 H 682.084 2.20043 -5.02864 0
M  V30 7401 H 682.345 2.81916 -3.40552 0
M  V30 7402 N 681.404 1.57128 0.121893 0
M  V30 7403 C 682.334 2.03165 1.15092 0
M  V30 7404 C 683.315 0.915587 1.43356 0
M  V30 7405 O 684.5 1.1851 1.53847 0
M  V30 7406 C 681.63 2.43352 2.47784 0
M  V30 7407 C 680.584 3.58376 2.33989 0
M  V30 7408 C 679.91 3.84454 3.71617 0
M  V30 7409 C 681.21 4.90199 1.80283 0
M  V30 7410 H 682.904 2.89382 0.768023 0
M  V30 7411 H 680.45 1.39218 0.367998 0
M  V30 7412 H 682.403 2.74163 3.20019 0
M  V30 7413 H 681.127 1.54103 2.87958 0
M  V30 7414 H 679.786 3.2777 1.64202 0
M  V30 7415 H 679.434 2.92414 4.09271 0
M  V30 7416 H 679.134 4.61877 3.6324 0
M  V30 7417 H 680.658 4.17714 4.45362 0
M  V30 7418 H 682.072 5.19565 2.42333 0
M  V30 7419 H 680.469 5.71601 1.82735 0
M  V30 7420 H 681.539 4.78904 0.760184 0
M  V30 7421 N 682.882 -0.391992 1.52647 0
M  V30 7422 C 683.812 -1.48517 1.8018 0
M  V30 7423 C 684.793 -1.57039 0.653667 0
M  V30 7424 O 685.978 -1.72036 0.900962 0
M  V30 7425 C 683.108 -2.86161 1.96797 0
M  V30 7426 C 682.062 -2.92481 3.12472 0
M  V30 7427 C 681.388 -4.32546 3.14338 0
M  V30 7428 C 682.688 -2.624 4.51601 0
M  V30 7429 H 684.382 -1.25726 2.71723 0
M  V30 7430 H 681.928 -0.603387 1.30749 0
M  V30 7431 H 683.881 -3.62639 2.14641 0
M  V30 7432 H 682.605 -3.10283 1.01941 0
M  V30 7433 H 681.264 -2.18451 2.94406 0
M  V30 7434 H 680.912 -4.53703 2.1717 0
M  V30 7435 H 680.612 -4.37695 3.92042 0
M  V30 7436 H 682.136 -5.10934 3.34333 0
M  V30 7437 H 683.55 -3.28596 4.69785 0
M  V30 7438 H 681.947 -2.78903 5.3135 0
M  V30 7439 H 683.017 -1.57754 4.58521 0
M  V30 7440 N 684.36 -1.4356 -0.65026 0
M  V30 7441 C 685.292 -1.44918 -1.77571 0
M  V30 7442 C 686.305 -0.344925 -1.59104 0
M  V30 7443 O 687.494 -0.609537 -1.6777 0
M  V30 7444 C 684.594 -1.24914 -3.15039 0
M  V30 7445 C 683.767 -2.48232 -3.60138 0
M  V30 7446 C 682.826 -2.23409 -4.76419 0
M  V30 7447 O 681.852 -2.9678 -4.85706 0
M  V30 7448 N 683.054 -1.25259 -5.66825 0
M  V30 7449 H 685.819 -2.41935 -1.76883 0
M  V30 7450 H 683.38 -1.38754 -0.834202 0
M  V30 7451 H 685.372 -1.06185 -3.90521 0
M  V30 7452 H 683.942 -0.363319 -3.10481 0
M  V30 7453 H 683.162 -2.82366 -2.75069 0
M  V30 7454 H 684.45 -3.30296 -3.87017 0
M  V30 7455 H 683.848 -0.646246 -5.61997 0
M  V30 7456 H 682.405 -1.12513 -6.42016 0
M  V30 7457 N 685.838 0.888903 -1.30139 0
M  V30 7458 C 686.788 1.9814 -1.12803 0
M  V30 7459 C 687.772 1.60839 -0.0443137 0
M  V30 7460 O 688.964 1.74971 -0.267208 0
M  V30 7461 C 686.093 3.33416 -0.817849 0
M  V30 7462 C 685.179 3.77043 -1.94163 0
M  V30 7463 N 685.57 3.92805 -3.18651 0
M  V30 7464 C 683.868 4.06407 -1.8371 0
M  V30 7465 C 684.569 4.29746 -3.92038 0
M  V30 7466 N 683.545 4.3939 -3.20059 0
M  V30 7467 H 687.347 2.08411 -2.07225 0
M  V30 7468 H 684.861 1.07845 -1.21421 0
M  V30 7469 H 686.858 4.11405 -0.674668 0
M  V30 7470 H 685.518 3.24484 0.118344 0
M  V30 7471 H 686.529 3.78042 -3.53984 0
M  V30 7472 H 683.206 4.05972 -0.974331 0
M  V30 7473 H 684.596 4.49695 -4.99223 0
M  V30 7474 N 687.317 1.12792 1.10072 0
M  V30 7475 C 688.542 0.908838 1.86427 0
M  V30 7476 C 688.967 -0.536793 1.80278 0
M  V30 7477 O 688.325 -1.38033 1.17543 0
M  V30 7478 C 688.373 1.39295 3.3261 0
M  V30 7479 O 687.477 0.573846 4.08388 0
M  V30 7480 H 686.818 0.326234 0.578331 0
M  V30 7481 H 689.348 1.50094 1.39043 0
M  V30 7482 H 689.358 1.39366 3.83459 0
M  V30 7483 H 688.033 2.44555 3.36401 0
M  V30 7484 H 686.61 0.640438 3.67359 0
M  V30 7485 N 688.795 -1.27931 0.920396 0
M  V30 7486 C 690.211 -1.47085 0.619537 0
M  V30 7487 C 690.411 -1.83463 -0.833291 0
M  V30 7488 O 689.467 -1.94363 -1.61181 0
M  V30 7489 C 690.78 -2.56878 1.56314 0
M  V30 7490 C 692.328 -2.70743 1.57058 0
M  V30 7491 C 692.803 -3.83687 2.50097 0
M  V30 7492 N 694.294 -3.9105 2.48262 0
M  V30 7493 C 695.029 -4.77842 3.16945 0
M  V30 7494 N 694.525 -5.69176 3.94982 0
M  V30 7495 N 696.318 -4.71509 3.06 0
M  V30 7496 H 688.469 -1.02601 1.85975 0
M  V30 7497 H 690.732 -0.511682 0.798051 0
M  V30 7498 H 690.438 -2.36923 2.59923 0
M  V30 7499 H 690.312 -3.54117 1.29928 0
M  V30 7500 H 692.699 -2.90083 0.541832 0
M  V30 7501 H 692.78 -1.74015 1.8749 0
M  V30 7502 H 692.424 -3.65101 3.53077 0
M  V30 7503 H 692.354 -4.79827 2.16964 0
M  V30 7504 H 694.845 -3.25738 1.91581 0
M  V30 7505 H 695.158 -6.32245 4.44394 0
M  V30 7506 H 693.503 -5.68995 3.99086 0
M  V30 7507 H 696.694 -3.99151 2.44533 0
M  V30 7508 H 696.867 -5.38933 3.59799 0
M  V30 7509 O 690.312 -0.824023 -1.38896 0
M  V30 7510 H 691.003 -0.40654 -1.89386 0
M  V30 END ATOM
M  V30 BEGIN BOND
M  V30 END BOND
M  V30 END CTAB
M  END
$$$$
