drugbank_target|Q86YN6 Peroxisome proliferator-activated receptor gamma coactivator 1-beta (DB01118)
 OpenBabel12092121213D

  0  0  0     0  0            999 V3000
M  V30 BEGIN CTAB
M  V30 COUNTS 15547 15739 0 0 0
M  V30 BEGIN ATOM
M  V30 1 H -0.908 1.98254 -0.117106 0
M  V30 2 N 0 1.576 0 0
M  V30 3 C 0.933 2.03868 1.02534 0
M  V30 4 C 1.911 0.928543 1.3348 0
M  V30 5 O 3.095 1.19667 1.45644 0
M  V30 6 C 0.222 2.43627 2.35294 0
M  V30 7 C -0.732 3.65373 2.2001 0
M  V30 8 S 0.101 5.13292 1.52614 0
M  V30 9 C 1.257 5.56322 2.86805 0
M  V30 10 H 1.49 2.90518 0.631377 0
M  V30 11 H -0.977 1.52953 0.210867 0
M  V30 12 H 0.981 2.67203 3.11629 0
M  V30 13 H -0.358 1.57376 2.7183 0
M  V30 14 H -1.165 3.90944 3.18086 0
M  V30 15 H -1.563 3.418 1.51819 0
M  V30 16 H 0.729 5.58782 3.83104 0
M  V30 17 H 1.672 6.56266 2.65933 0
M  V30 18 H 2.08 4.83886 2.90714 0
M  V30 19 N 1.4781 -0.272755 1.55222 0
M  V30 20 C 2.4411 -1.32041 1.87344 0
M  V30 21 C 3.4411 -1.42342 0.74803 0
M  V30 22 O 4.6311 -1.41488 1.0162 0
M  V30 23 C 1.7631 -2.70173 2.07893 0
M  V30 24 H 2.9561 -1.04789 2.80997 0
M  V30 25 H 0.5091 -0.51083 1.47717 0
M  V30 26 H 1.2441 -3.02605 1.16622 0
M  V30 27 H 1.0291 -2.64082 2.89833 0
M  V30 28 H 2.5191 -3.45869 2.34017 0
M  V30 29 N 2.9562 -1.48159 -0.537278 0
M  V30 30 C 4.2042 -1.55497 -1.29094 0
M  V30 31 C 4.5252 -0.227454 -1.93669 0
M  V30 32 O 3.7952 0.750386 -1.80959 0
M  V30 33 H 2.3752 -0.572832 -0.47945 0
M  V30 34 H 5.0372 -1.84579 -0.625818 0
M  V30 35 H 4.1332 -2.33216 -2.07405 0
M  V30 36 N 4.4343 0.785586 -1.36625 0
M  V30 37 C 5.3823 1.91978 -1.31329 0
M  V30 38 C 6.3763 1.68162 -0.204416 0
M  V30 39 O 7.5823 1.76122 -0.371645 0
M  V30 40 H 3.9573 0.631087 -0.408942 0
M  V30 41 H 5.9283 1.93562 -2.27104 0
M  V30 42 C 4.6773 3.29055 -1.12329 0
M  V30 43 H 4.0003 3.4795 -1.96903 0
M  V30 44 H 5.4403 4.08756 -1.12671 0
M  V30 45 C 3.8993 3.36461 0.171861 0
M  V30 46 O 4.4293 3.84576 1.16035 0
M  V30 47 N 2.6353 2.89782 0.217846 0
M  V30 48 H 2.1823 2.50819 -0.587183 0
M  V30 49 H 2.1403 2.95119 1.08408 0
M  V30 50 N 5.9124 1.20967 1.01018 0
M  V30 51 C 7.1894 0.93264 1.71934 0
M  V30 52 C 7.5694 -0.55692 2.03621 0
M  V30 53 O 6.9174 -1.52035 1.7058 0
M  V30 54 C 7.1274 1.81233 2.98254 0
M  V30 55 C 8.4754 2.05804 3.71389 0
M  V30 56 O 9.4994 1.78539 3.08225 0
M  V30 57 O 8.3584 2.51888 4.84989 0
M  V30 58 H 5.4524 0.349272 0.749625 0
M  V30 59 H 7.9984 1.31871 1.06808 0
M  V30 60 H 6.7704 2.82067 2.71208 0
M  V30 61 H 6.3934 1.42674 3.7112 0
M  V30 62 N 7.3905 -1.2043 1.01659 0
M  V30 63 C 8.6305 -1.91507 0.714456 0
M  V30 64 C 8.9945 -1.77073 -0.742237 0
M  V30 65 O 10.1955 -2.42631 -1.15688 0
M  V30 66 C 8.4665 -3.38795 1.13809 0
M  V30 67 S 10.0255 -4.28216 0.957925 0
M  V30 68 H 6.8435 -0.661571 0.260471 0
M  V30 69 H 9.4455 -1.45671 1.30384 0
M  V30 70 H 8.1495 -3.46822 2.19415 0
M  V30 71 H 7.6805 -3.89656 0.541474 0
M  V30 72 H 9.6955 -4.96007 -0.138531 0
M  V30 73 N 8.8686 -0.792821 -1.36206 0
M  V30 74 C 10.1166 -0.366062 -1.98757 0
M  V30 75 C 10.4376 1.0668 -1.63231 0
M  V30 76 O 9.7076 1.73587 -0.907978 0
M  V30 77 H 8.2876 -0.132364 -0.735179 0
M  V30 78 H 10.9496 -1.01562 -1.66347 0
M  V30 79 H 10.0456 -0.460638 -3.08682 0
M  V30 80 N 10.3467 1.47872 -0.545128 0
M  V30 81 C 11.3097 2.28337 0.198717 0
M  V30 82 C 12.3097 1.36255 0.853888 0
M  V30 83 O 13.4997 1.59003 0.711606 0
M  V30 84 C 10.6317 3.15585 1.28915 0
M  V30 85 H 11.8247 2.95567 -0.507941 0
M  V30 86 H 9.3777 1.53362 -0.301616 0
M  V30 87 H 10.1127 2.53019 2.02859 0
M  V30 88 H 9.8977 3.83337 0.824309 0
M  V30 89 H 11.3877 3.76243 1.81194 0
M  V30 90 N 11.8248 0.280983 1.55075 0
M  V30 91 C 12.7548 -0.597469 2.25727 0
M  V30 92 C 13.7358 -1.15417 1.24952 0
M  V30 93 O 14.9208 -1.18722 1.53684 0
M  V30 94 C 12.0508 -1.7789 2.98283 0
M  V30 95 C 11.0048 -1.35347 4.06036 0
M  V30 96 C 10.3308 -2.61846 4.66198 0
M  V30 97 C 11.6308 -0.499354 5.19907 0
M  V30 98 H 13.3248 -0.00824265 2.99399 0
M  V30 99 H 10.8708 -0.0025244 1.44 0
M  V30 100 H 12.8238 -2.39937 3.46422 0
M  V30 101 H 11.5478 -2.39405 2.22155 0
M  V30 102 H 10.2068 -0.756156 3.58717 0
M  V30 103 H 9.8548 -3.21632 3.86732 0
M  V30 104 H 9.5548 -2.3409 5.38958 0
M  V30 105 H 11.0788 -3.24732 5.1709 0
M  V30 106 H 12.4928 -1.02498 5.64063 0
M  V30 107 H 10.8898 -0.316424 5.99265 0
M  V30 108 H 11.9598 0.480459 4.82514 0
M  V30 109 N 13.3029 -1.57598 0.00835791 0
M  V30 110 C 14.2329 -2.1198 -0.979113 0
M  V30 111 C 15.2139 -1.03091 -1.35301 0
M  V30 112 O 16.3989 -1.30818 -1.43528 0
M  V30 113 C 13.5289 -2.62995 -2.26828 0
M  V30 114 C 12.4829 -3.76485 -2.03576 0
M  V30 115 C 11.8089 -4.13846 -3.38579 0
M  V30 116 C 13.1089 -5.0342 -1.39161 0
M  V30 117 H 14.8029 -2.94738 -0.526281 0
M  V30 118 H 12.3489 -1.41783 -0.251704 0
M  V30 119 H 14.3019 -2.99669 -2.96271 0
M  V30 120 H 13.0259 -1.7737 -2.7424 0
M  V30 121 H 11.6849 -3.40217 -1.36557 0
M  V30 122 H 11.3329 -3.25232 -3.83709 0
M  V30 123 H 11.0329 -4.90312 -3.23834 0
M  V30 124 H 12.5569 -4.53086 -4.09323 0
M  V30 125 H 13.9709 -5.37812 -1.98573 0
M  V30 126 H 12.3679 -5.84746 -1.34878 0
M  V30 127 H 13.4379 -4.83548 -0.361868 0
M  V30 128 N 14.781 0.264519 -1.55364 0
M  V30 129 C 16.058 1.01677 -1.67096 0
M  V30 130 C 16.438 2.03996 -0.543015 0
M  V30 131 O 15.786 2.23907 0.45585 0
M  V30 132 C 15.996 1.66596 -3.0667 0
M  V30 133 C 17.344 2.17442 -3.64697 0
M  V30 134 O 18.368 1.76568 -3.09358 0
M  V30 135 O 17.227 2.92439 -4.61673 0
M  V30 136 H 14.321 0.472161 -0.678965 0
M  V30 137 H 16.867 0.259703 -1.67701 0
M  V30 138 H 15.639 0.924962 -3.80211 0
M  V30 139 H 15.262 2.48968 -3.10001 0
M  V30 140 N 16.2591 1.48442 0.529413 0
M  V30 141 C 17.1691 1.6569 1.66084 0
M  V30 142 C 18.1851 0.539432 1.65427 0
M  V30 143 O 19.3611 0.810572 1.84368 0
M  V30 144 C 16.4261 1.69315 3.02545 0
M  V30 145 C 15.4871 2.92694 3.14052 0
M  V30 146 C 14.7201 2.96137 4.44003 0
M  V30 147 O 14.9431 2.07973 5.31134 0
M  V30 148 O 13.8771 3.88312 4.59888 0
M  V30 149 H 17.7031 2.61483 1.54469 0
M  V30 150 H 15.2881 1.3185 0.702567 0
M  V30 151 H 17.1701 1.74217 3.83701 0
M  V30 152 H 15.8451 0.766966 3.14483 0
M  V30 153 H 14.7521 2.93324 2.32189 0
M  V30 154 H 16.0851 3.84699 3.0703 0
M  V30 155 N 17.7372 -0.778329 1.37039 0
M  V30 156 C 18.6472 -1.92253 1.34446 0
M  V30 157 C 19.6632 -1.72267 0.244991 0
M  V30 158 O 20.8392 -1.95615 0.479258 0
M  V30 159 C 17.9042 -3.27282 1.144 0
M  V30 160 C 16.9652 -3.59969 2.33925 0
M  V30 161 C 16.1982 -4.88555 2.14825 0
M  V30 162 O 16.4212 -5.59113 1.12912 0
M  V30 163 O 15.3552 -5.20153 3.02861 0
M  V30 164 H 19.1812 -1.97392 2.30803 0
M  V30 165 H 16.7662 -0.920154 1.17701 0
M  V30 166 H 18.6482 -4.08062 1.05182 0
M  V30 167 H 17.3232 -3.23011 0.211124 0
M  V30 168 H 16.2302 -2.7945 2.48714 0
M  V30 169 H 17.5632 -3.68976 3.25757 0
M  V30 170 N 19.2153 -1.21501 -1.00376 0
M  V30 171 C 20.1453 -0.999478 -2.11028 0
M  V30 172 C 21.1263 0.0759671 -1.6993 0
M  V30 173 O 22.3113 -0.0841106 -1.94018 0
M  V30 174 C 19.4413 -0.564709 -3.42678 0
M  V30 175 C 18.3953 -1.58486 -3.97576 0
M  V30 176 C 17.7213 -1.00628 -5.25146 0
M  V30 177 C 19.0213 -2.97204 -4.29496 0
M  V30 178 H 20.7153 -1.92495 -2.29317 0
M  V30 179 H 18.2613 -0.92693 -1.102 0
M  V30 180 H 20.2143 -0.401091 -4.19487 0
M  V30 181 H 18.9383 0.396411 -3.24185 0
M  V30 182 H 17.5973 -1.73606 -3.22888 0
M  V30 183 H 17.2453 -0.0368439 -5.02987 0
M  V30 184 H 16.9453 -1.68771 -5.62841 0
M  V30 185 H 18.4693 -0.854015 -6.04598 0
M  V30 186 H 19.8833 -2.8552 -4.97143 0
M  V30 187 H 18.2803 -3.62372 -4.78338 0
M  V30 188 H 19.3503 -3.47956 -3.3772 0
M  V30 189 N 20.6934 1.19889 -1.02296 0
M  V30 190 C 21.9184 1.9393 -0.735237 0
M  V30 191 C 22.3434 1.74639 0.698782 0
M  V30 192 O 21.7014 1.04481 1.48167 0
M  V30 193 C 21.7494 3.43916 -1.08417 0
M  V30 194 O 20.8534 4.11917 -0.199446 0
M  V30 195 H 20.1944 0.605645 -0.272196 0
M  V30 196 H 22.7244 1.52137 -1.36804 0
M  V30 197 H 22.7344 3.9456 -1.03856 0
M  V30 198 H 21.4094 3.5728 -2.12894 0
M  V30 199 H 19.9864 3.71666 -0.303136 0
M  V30 200 N 22.1715 0.800033 1.35784 0
M  V30 201 C 23.3965 0.388511 2.03729 0
M  V30 202 C 23.8215 -0.990481 1.5991 0
M  V30 203 O 23.1795 -1.64013 0.772612 0
M  V30 204 C 23.2275 0.4726 3.5749 0
M  V30 205 O 22.3315 -0.51646 4.09153 0
M  V30 206 H 21.6725 0.163271 0.643614 0
M  V30 207 H 24.2025 1.0841 1.73518 0
M  V30 208 H 24.2125 0.34003 4.06581 0
M  V30 209 H 22.8875 1.47848 3.88734 0
M  V30 210 H 21.4645 -0.344673 3.71304 0
M  V30 211 N 23.6496 -1.47581 0.552962 0
M  V30 212 C 24.8966 -2.02482 0.0273243 0
M  V30 213 C 25.2246 -1.42776 -1.32081 0
M  V30 214 O 24.4796 -0.571393 -1.87173 0
M  V30 215 C 24.7786 -3.57199 -0.119728 0
M  V30 216 C 24.4446 -4.35804 1.15697 0
M  V30 217 C 23.1066 -4.57 1.50681 0
M  V30 218 C 25.4586 -4.81167 2.00319 0
M  V30 219 C 22.7866 -5.20807 2.70142 0
M  V30 220 C 25.1386 -5.46293 3.18978 0
M  V30 221 C 23.8026 -5.65722 3.54281 0
M  V30 222 H 23.0726 -0.740933 0.00999866 0
M  V30 223 H 25.7196 -1.77302 0.72362 0
M  V30 224 H 24.0246 -3.81348 -0.89896 0
M  V30 225 H 25.7216 -3.97324 -0.541718 0
M  V30 226 H 22.3116 -4.19582 0.874561 0
M  V30 227 H 26.4956 -4.64574 1.74599 0
M  V30 228 H 21.7516 -5.34045 2.97668 0
M  V30 229 H 25.9256 -5.80407 3.84838 0
M  V30 230 H 23.5526 -6.14936 4.46942 0
M  V30 231 N 25.1277 -0.289203 -1.54924 0
M  V30 232 C 26.3747 0.323519 -1.99899 0
M  V30 233 C 26.7027 1.54797 -1.17762 0
M  V30 234 O 25.9577 1.94237 -0.238835 0
M  V30 235 C 26.2567 0.736119 -3.49737 0
M  V30 236 C 25.9227 -0.385276 -4.49251 0
M  V30 237 C 24.5847 -0.693156 -4.76181 0
M  V30 238 C 26.9367 -1.14021 -5.08575 0
M  V30 239 C 24.2647 -1.7593 -5.59701 0
M  V30 240 C 26.6167 -2.19619 -5.93254 0
M  V30 241 C 25.2807 -2.51026 -6.185 0
M  V30 242 H 24.5507 0.118384 -0.731482 0
M  V30 243 H 27.1977 -0.405847 -1.8715 0
M  V30 244 H 25.5027 1.54539 -3.60035 0
M  V30 245 H 27.1997 1.22118 -3.81953 0
M  V30 246 H 23.7897 -0.135202 -4.28387 0
M  V30 247 H 27.9737 -0.915611 -4.87781 0
M  V30 248 H 23.2297 -2.0075 -5.77503 0
M  V30 249 H 27.4037 -2.78581 -6.38252 0
M  V30 250 H 25.0307 -3.33772 -6.83008 0
M  V30 251 N 26.6058 1.57591 -0.0167156 0
M  V30 252 C 27.5358 2.12496 0.967858 0
M  V30 253 C 28.5168 1.03807 1.34752 0
M  V30 254 O 29.7018 1.31577 1.42833 0
M  V30 255 C 26.8318 2.64194 2.25431 0
M  V30 256 C 25.7858 3.77559 2.01576 0
M  V30 257 C 25.1118 4.15636 3.36379 0
M  V30 258 C 26.4118 5.04151 1.36489 0
M  V30 259 H 28.1058 2.95013 0.510643 0
M  V30 260 H 25.6518 1.41915 0.244181 0
M  V30 261 H 27.6048 3.01236 2.94678 0
M  V30 262 H 26.3288 1.78821 2.73296 0
M  V30 263 H 24.9878 3.40937 1.34751 0
M  V30 264 H 24.6358 3.27263 3.81979 0
M  V30 265 H 24.3358 4.92022 3.21229 0
M  V30 266 H 25.8598 4.5525 4.06915 0
M  V30 267 H 27.2738 5.38857 1.95718 0
M  V30 268 H 25.6708 5.85453 1.31776 0
M  V30 269 H 26.7408 4.83733 0.336219 0
M  V30 270 N 28.0839 -0.256276 1.55502 0
M  V30 271 C 29.0319 -1.33694 1.90338 0
M  V30 272 C 30.0259 -1.50299 0.781441 0
M  V30 273 O 31.2319 -1.51885 0.965966 0
M  V30 274 H 27.6069 -0.447483 0.60437 0
M  V30 275 H 29.5779 -1.01574 2.8058 0
M  V30 276 C 28.3269 -2.68724 2.20642 0
M  V30 277 H 27.6499 -2.56743 3.06469 0
M  V30 278 H 29.0899 -3.43237 2.48926 0
M  V30 279 C 27.5489 -3.21101 1.01959 0
M  V30 280 O 28.0789 -4.0084 0.262762 0
M  V30 281 N 26.2849 -2.79003 0.812746 0
M  V30 282 H 25.8319 -2.14271 1.42989 0
M  V30 283 H 25.7899 -3.14393 0.0203076 0
M  V30 284 N 29.562 -1.4872 -0.521534 0
M  V30 285 C 30.792 -1.6061 -1.29954 0
M  V30 286 C 31.2 -0.268728 -1.87282 0
M  V30 287 O 30.543 0.753221 -1.67548 0
M  V30 288 C 30.605 -2.60013 -2.48261 0
M  V30 289 C 30.269 -4.04874 -2.11957 0
M  V30 290 C 31.266 -4.92304 -1.67132 0
M  V30 291 C 28.951 -4.5047 -2.22221 0
M  V30 292 C 30.945 -6.2336 -1.33047 0
M  V30 293 C 28.632 -5.81544 -1.87748 0
M  V30 294 C 29.63 -6.67812 -1.43234 0
M  V30 295 O 29.318 -7.96446 -1.09217 0
M  V30 296 H 29.05 -0.544116 -0.401141 0
M  V30 297 H 31.604 -1.95339 -0.634958 0
M  V30 298 H 29.834 -2.20422 -3.17728 0
M  V30 299 H 31.523 -2.61648 -3.10315 0
M  V30 300 H 32.289 -4.58312 -1.58665 0
M  V30 301 H 28.168 -3.83504 -2.55823 0
M  V30 302 H 31.712 -6.90649 -0.982299 0
M  V30 303 H 27.609 -6.15069 -1.95858 0
M  V30 304 H 28.377 -8.09275 -1.22542 0
M  V30 305 N 31.0401 0.771051 -1.3745 0
M  V30 306 C 31.9701 1.89827 -1.3597 0
M  V30 307 C 32.9511 1.68562 -0.228216 0
M  V30 308 O 34.1361 1.8941 -0.428675 0
M  V30 309 C 31.2661 3.2712 -1.16662 0
M  V30 310 C 30.2201 3.6295 -2.2683 0
M  V30 311 C 29.5461 4.98791 -1.92644 0
M  V30 312 C 30.8461 3.69627 -3.69017 0
M  V30 313 H 32.5401 1.91323 -2.30295 0
M  V30 314 H 30.0861 0.919082 -1.10855 0
M  V30 315 H 32.0391 4.05615 -1.14256 0
M  V30 316 H 30.7631 3.26059 -0.187926 0
M  V30 317 H 29.4221 2.86763 -2.28392 0
M  V30 318 H 29.0701 4.94271 -0.933021 0
M  V30 319 H 28.7701 5.23733 -2.66416 0
M  V30 320 H 30.2941 5.79685 -1.91826 0
M  V30 321 H 31.7081 4.38273 -3.69581 0
M  V30 322 H 30.1051 4.06067 -4.41848 0
M  V30 323 H 31.1751 2.70273 -4.02592 0
M  V30 324 N 32.5182 1.22032 0.997298 0
M  V30 325 C 33.4812 0.987909 2.06816 0
M  V30 326 C 34.4812 -0.0440084 1.6074 0
M  V30 327 O 35.6712 0.194053 1.73116 0
M  V30 328 C 32.8032 0.49132 3.37341 0
M  V30 329 H 33.9962 1.93803 2.28868 0
M  V30 330 H 31.5492 1.03838 1.16822 0
M  V30 331 H 32.2842 -0.463364 3.20973 0
M  V30 332 H 32.0692 1.23575 3.72118 0
M  V30 333 H 33.5592 0.348824 4.16141 0
M  V30 334 N 33.9963 -1.19345 1.0293 0
M  V30 335 C 35.2733 -1.84811 0.640642 0
M  V30 336 C 35.6533 -1.91855 -0.88062 0
M  V30 337 O 35.0013 -1.43587 -1.7775 0
M  V30 338 C 35.2113 -3.23755 1.30321 0
M  V30 339 C 36.5593 -3.99912 1.42673 0
M  V30 340 O 37.5833 -3.33155 1.26041 0
M  V30 341 O 36.4423 -5.19494 1.6967 0
M  V30 342 H 33.5363 -0.796443 0.222726 0
M  V30 343 H 36.0823 -1.26831 1.12748 0
M  V30 344 H 34.8543 -3.13466 2.34211 0
M  V30 345 H 34.4773 -3.89381 0.804261 0
M  V30 346 N 35.4744 -0.807222 -1.35358 0
M  V30 347 C 36.7024 -0.400377 -2.02989 0
M  V30 348 C 37.1174 0.988859 -1.60832 0
M  V30 349 O 36.4744 1.63729 -0.806175 0
M  V30 350 C 36.5254 -0.474867 -3.58368 0
M  V30 351 O 36.2464 -1.80933 -3.98992 0
M  V30 352 C 37.7474 -0.0609112 -4.43258 0
M  V30 353 H 34.9674 -0.162587 -0.651004 0
M  V30 354 H 37.5114 -1.09102 -1.72965 0
M  V30 355 H 35.6664 0.167534 -3.87038 0
M  V30 356 H 36.0804 -1.77256 -4.9364 0
M  V30 357 H 37.5544 -0.164145 -5.51756 0
M  V30 358 H 38.0314 0.993831 -4.27808 0
M  V30 359 H 38.6374 -0.676492 -4.19885 0
M  V30 360 N 36.9525 1.47285 -0.560781 0
M  V30 361 C 37.8845 2.28118 0.222438 0
M  V30 362 C 38.8975 1.37219 0.876056 0
M  V30 363 O 40.0865 1.62011 0.749307 0
M  V30 364 C 37.1865 3.1159 1.33285 0
M  V30 365 C 36.3595 4.30473 0.77534 0
M  V30 366 C 35.4185 4.95513 1.77069 0
M  V30 367 O 34.4445 5.53792 1.31539 0
M  V30 368 N 35.6465 4.90531 3.10418 0
M  V30 369 H 38.4115 2.95976 -0.470958 0
M  V30 370 H 35.9725 1.56955 -0.39709 0
M  V30 371 H 37.9645 3.51967 1.99752 0
M  V30 372 H 36.5345 2.45951 1.92943 0
M  V30 373 H 35.7545 3.94144 -0.0662113 0
M  V30 374 H 37.0425 5.07362 0.382272 0
M  V30 375 H 36.4405 4.44389 3.5005 0
M  V30 376 H 34.9975 5.34917 3.72434 0
M  V30 377 N 38.4306 0.297415 1.54768 0
M  V30 378 C 39.6786 -0.312295 1.99673 0
M  V30 379 C 39.9996 -1.54686 1.18732 0
M  V30 380 O 39.2696 -1.93854 0.282382 0
M  V30 381 H 37.8496 -0.118381 0.73756 0
M  V30 382 H 40.5116 0.407915 1.90583 0
M  V30 383 H 39.6076 -0.586813 3.06534 0
M  V30 384 N 39.9087 -1.5758 0.0250728 0
M  V30 385 C 41.1567 -1.91255 -0.653151 0
M  V30 386 C 41.4777 -0.901691 -1.729 0
M  V30 387 O 40.7477 0.0573785 -1.95816 0
M  V30 388 H 39.3277 -0.705942 -0.244243 0
M  V30 389 H 41.9897 -1.94767 0.0719209 0
M  V30 390 H 41.0857 -2.91752 -1.10847 0
M  V30 391 N 41.3868 0.248026 -1.55636 0
M  V30 392 C 42.6348 0.974295 -1.77065 0
M  V30 393 C 42.9558 1.85897 -0.588849 0
M  V30 394 O 42.2258 1.91868 0.395407 0
M  V30 395 H 40.8058 0.362733 -0.653019 0
M  V30 396 H 43.4678 0.266244 -1.93073 0
M  V30 397 H 42.5638 1.59667 -2.68166 0
M  V30 398 N 42.8649 1.48995 0.513639 0
M  V30 399 C 44.0899 1.61792 1.29762 0
M  V30 400 C 44.5149 0.284475 1.85936 0
M  V30 401 O 43.8729 -0.746185 1.65232 0
M  V30 402 C 43.9209 2.67993 2.41272 0
M  V30 403 O 43.0249 2.26287 3.44772 0
M  V30 404 H 42.3659 0.541963 0.38363 0
M  V30 405 H 44.8959 1.95097 0.616307 0
M  V30 406 H 44.9059 2.89772 2.87221 0
M  V30 407 H 43.5809 3.64791 1.9975 0
M  V30 408 H 42.1579 2.14788 3.04829 0
M  V30 409 N 44.343 -0.763751 1.37857 0
M  V30 410 C 45.591 -1.51957 1.33243 0
M  V30 411 C 45.912 -1.94835 -0.0801709 0
M  V30 412 O 45.182 -1.66894 -1.02582 0
M  V30 413 H 43.762 -0.563626 0.49024 0
M  V30 414 H 46.424 -0.908504 1.7243 0
M  V30 415 H 45.52 -2.41523 1.97669 0
M  V30 416 N 45.8211 -1.22559 -0.990812 0
M  V30 417 C 46.7311 -1.01394 -2.11557 0
M  V30 418 C 47.7471 0.0383962 -1.73958 0
M  V30 419 O 48.9231 -0.154787 -2.00804 0
M  V30 420 C 45.9881 -0.596569 -3.41529 0
M  V30 421 C 45.0491 -1.72276 -3.93217 0
M  V30 422 C 44.2821 -1.32521 -5.16985 0
M  V30 423 O 44.5051 -0.204909 -5.70032 0
M  V30 424 O 43.4391 -2.14247 -5.62478 0
M  V30 425 H 47.2651 -1.95633 -2.32296 0
M  V30 426 H 44.8501 -1.01172 -1.0993 0
M  V30 427 H 46.7321 -0.374263 -4.19735 0
M  V30 428 H 45.4071 0.316939 -3.22145 0
M  V30 429 H 44.3141 -1.99961 -3.16174 0
M  V30 430 H 45.6471 -2.61421 -4.17037 0
M  V30 431 N 47.2992 1.18797 -1.03562 0
M  V30 432 C 48.2092 2.25913 -0.632505 0
M  V30 433 C 49.2252 1.70668 0.338882 0
M  V30 434 O 50.4012 2.00453 0.195076 0
M  V30 435 C 47.4662 3.467 0.00350942 0
M  V30 436 C 46.5272 4.17098 -1.01624 0
M  V30 437 C 45.7602 5.32119 -0.410478 0
M  V30 438 O 45.9832 5.64976 0.784725 0
M  V30 439 O 44.9172 5.9107 -1.13667 0
M  V30 440 H 48.7432 2.62648 -1.52478 0
M  V30 441 H 46.3282 1.25781 -0.806195 0
M  V30 442 H 48.2102 4.19878 0.35781 0
M  V30 443 H 46.8852 3.11798 0.869686 0
M  V30 444 H 45.7922 3.4601 -1.42224 0
M  V30 445 H 47.1252 4.55987 -1.85301 0
M  V30 446 N 48.7773 0.814389 1.34928 0
M  V30 447 C 49.7093 0.187834 2.28429 0
M  V30 448 C 50.7223 -0.617374 1.5064 0
M  V30 449 O 51.9113 -0.448454 1.72775 0
M  V30 450 C 49.0113 -0.755962 3.30361 0
M  V30 451 C 48.1843 0.00456686 4.374 0
M  V30 452 C 47.2433 -0.858876 5.19143 0
M  V30 453 O 46.2693 -0.306968 5.68372 0
M  V30 454 N 47.4713 -2.17988 5.38016 0
M  V30 455 H 50.2363 0.991105 2.82838 0
M  V30 456 H 47.7973 0.670561 1.4736 0
M  V30 457 H 49.7893 -1.338 3.81942 0
M  V30 458 H 48.3593 -1.46001 2.7641 0
M  V30 459 H 47.5793 0.767865 3.86649 0
M  V30 460 H 48.8673 0.528422 5.06049 0
M  V30 461 H 48.2653 -2.65212 4.99679 0
M  V30 462 H 46.8223 -2.71098 5.92747 0
M  V30 463 N 50.2554 -1.46986 0.568584 0
M  V30 464 C 51.1854 -2.32946 -0.160753 0
M  V30 465 C 52.1664 -1.44487 -0.897631 0
M  V30 466 O 53.3514 -1.73327 -0.875867 0
M  V30 467 C 50.4814 -3.26494 -1.18403 0
M  V30 468 C 49.4354 -4.24282 -0.562895 0
M  V30 469 C 48.7614 -5.07236 -1.69163 0
M  V30 470 C 50.0614 -5.19989 0.490761 0
M  V30 471 H 51.7554 -2.94175 0.556916 0
M  V30 472 H 49.3014 -1.4146 0.26927 0
M  V30 473 H 51.2544 -3.85477 -1.70251 0
M  V30 474 H 49.9784 -2.63343 -1.93179 0
M  V30 475 H 48.6374 -3.66541 -0.0656164 0
M  V30 476 H 48.2854 -4.4048 -2.42871 0
M  V30 477 H 47.9854 -5.7345 -1.28174 0
M  V30 478 H 49.5094 -5.6908 -2.21314 0
M  V30 479 H 50.9234 -5.73271 0.0579047 0
M  V30 480 H 49.3204 -5.94469 0.820165 0
M  V30 481 H 50.3904 -4.64777 1.3824 0
M  V30 482 N 51.7335 -0.305618 -1.54608 0
M  V30 483 C 52.9635 0.304333 -2.04346 0
M  V30 484 C 53.3715 1.47715 -1.18224 0
M  V30 485 O 52.7145 1.82591 -0.201577 0
M  V30 486 C 52.7765 0.819031 -3.50046 0
M  V30 487 C 52.4405 -0.22912 -4.56425 0
M  V30 488 C 53.4375 -1.05914 -5.08997 0
M  V30 489 C 51.1225 -0.372148 -5.0092 0
M  V30 490 C 53.1165 -2.01809 -6.04609 0
M  V30 491 C 50.8035 -1.33454 -5.9635 0
M  V30 492 C 51.8015 -2.15599 -6.48079 0
M  V30 493 O 51.4895 -3.10205 -7.41639 0
M  V30 494 H 51.2215 0.0693996 -0.672428 0
M  V30 495 H 53.7755 -0.444548 -2.00532 0
M  V30 496 H 52.0055 1.61852 -3.51199 0
M  V30 497 H 53.6945 1.34537 -3.82955 0
M  V30 498 H 54.4605 -0.959538 -4.75413 0
M  V30 499 H 50.3395 0.257304 -4.60281 0
M  V30 500 H 53.8835 -2.65966 -6.44909 0
M  V30 501 H 49.7805 -1.43485 -6.29351 0
M  V30 502 H 50.5485 -3.05237 -7.59455 0
M  V30 503 N 53.2116 1.57565 -0.0334293 0
M  V30 504 C 54.1746 2.09393 0.932048 0
M  V30 505 C 55.1746 1.00986 1.25134 0
M  V30 506 O 56.3646 1.27129 1.19096 0
M  V30 507 C 53.4966 2.56338 2.2473 0
M  V30 508 H 54.6896 2.95984 0.483085 0
M  V30 509 H 52.2426 1.54819 0.21468 0
M  V30 510 H 52.9776 1.7309 2.74245 0
M  V30 511 H 52.7626 3.35542 2.02865 0
M  V30 512 H 54.2526 2.96646 2.93923 0
M  V30 513 N 54.6897 -0.239769 1.55765 0
M  V30 514 C 55.9667 -0.990056 1.68693 0
M  V30 515 C 56.3467 -2.03107 0.5754 0
M  V30 516 O 55.6947 -2.24604 -0.42017 0
M  V30 517 C 55.9047 -1.61696 3.09282 0
M  V30 518 C 57.2527 -2.11613 3.6811 0
M  V30 519 O 58.2767 -1.71624 3.12127 0
M  V30 520 O 57.1357 -2.85057 4.66267 0
M  V30 521 H 54.2297 -0.461299 0.686391 0
M  V30 522 H 56.7757 -0.232991 1.68093 0
M  V30 523 H 55.5477 -0.864357 3.81634 0
M  V30 524 H 55.1707 -2.44005 3.13923 0
M  V30 525 N 56.1678 -1.49265 -0.50573 0
M  V30 526 C 57.4148 -1.58513 -1.26015 0
M  V30 527 C 57.7428 -0.26972 -1.92621 0
M  V30 528 O 56.9978 0.741997 -1.81088 0
M  V30 529 C 57.2968 -2.69008 -2.35308 0
M  V30 530 C 56.9628 -4.10662 -1.86192 0
M  V30 531 C 55.6248 -4.49212 -1.72516 0
M  V30 532 C 57.9768 -4.99336 -1.49375 0
M  V30 533 C 55.3048 -5.74214 -1.20394 0
M  V30 534 C 57.6568 -6.24852 -0.987072 0
M  V30 535 C 56.3208 -6.62236 -0.836669 0
M  V30 536 H 55.5908 -0.580041 -0.461122 0
M  V30 537 H 58.2378 -1.83078 -0.561665 0
M  V30 538 H 56.5428 -2.38396 -3.10926 0
M  V30 539 H 58.2398 -2.73373 -2.93374 0
M  V30 540 H 54.8298 -3.8023 -1.97795 0
M  V30 541 H 59.0138 -4.70212 -1.5879 0
M  V30 542 H 54.2698 -6.01883 -1.07458 0
M  V30 543 H 58.4438 -6.92944 -0.692983 0
M  V30 544 H 56.0708 -7.58979 -0.430607 0
M  V30 545 N 57.6459 0.756429 -1.3826 0
M  V30 546 C 59.0569 1.33359 -1.30661 0
M  V30 547 C 59.4079 1.96161 0.0388875 0
M  V30 548 O 58.5329 1.94874 0.940918 0
M  V30 549 C 59.1279 2.42477 -2.36622 0
M  V30 550 C 57.6869 2.95922 -2.3261 0
M  V30 551 C 56.8339 1.69275 -2.19639 0
M  V30 552 H 59.7849 0.55552 -1.4866 0
M  V30 553 H 59.8059 3.22345 -2.02174 0
M  V30 554 H 59.3179 1.96739 -3.34538 0
M  V30 555 H 57.4189 3.45996 -1.38267 0
M  V30 556 H 57.5319 3.50494 -3.26636 0
M  V30 557 H 55.8959 1.92793 -1.66442 0
M  V30 558 H 56.6789 1.25619 -3.19491 0
M  V30 559 N 59.124 1.23083 0.984299 0
M  V30 560 C 60.034 1.02515 2.11016 0
M  V30 561 C 61.05 -0.0291702 1.73976 0
M  V30 562 O 62.226 0.165434 2.00719 0
M  V30 563 C 59.291 0.614673 3.41208 0
M  V30 564 C 58.352 1.74359 3.92297 0
M  V30 565 C 57.585 1.35261 5.16275 0
M  V30 566 O 57.808 0.235136 5.69915 0
M  V30 567 O 56.742 2.17227 5.61334 0
M  V30 568 H 60.568 1.96862 2.31255 0
M  V30 569 H 58.153 1.01753 1.09392 0
M  V30 570 H 60.035 0.396518 4.1953 0
M  V30 571 H 58.71 -0.299851 3.22308 0
M  V30 572 H 57.617 2.01635 3.1511 0
M  V30 573 H 58.95 2.63629 4.15645 0
M  V30 574 N 60.6021 -1.18246 1.0419 0
M  V30 575 C 61.5321 -2.24127 0.654914 0
M  V30 576 C 62.5131 -1.66617 -0.342451 0
M  V30 577 O 63.6981 -1.92924 -0.222277 0
M  V30 578 C 60.8281 -3.47295 0.0183757 0
M  V30 579 C 59.7821 -4.17563 0.939414 0
M  V30 580 C 59.1081 -5.34438 0.167286 0
M  V30 581 C 60.4081 -4.70917 2.25908 0
M  V30 582 H 62.1021 -2.56753 1.54007 0
M  V30 583 H 59.6481 -1.23414 0.74195 0
M  V30 584 H 61.6011 -4.20572 -0.264082 0
M  V30 585 H 60.3251 -3.13907 -0.901664 0
M  V30 586 H 58.9841 -3.46186 1.20628 0
M  V30 587 H 58.6321 -4.97298 -0.7552 0
M  V30 588 H 58.3321 -5.82388 0.780901 0
M  V30 589 H 59.8561 -6.10504 -0.108125 0
M  V30 590 H 61.2701 -5.35882 2.03724 0
M  V30 591 H 59.6671 -5.29406 2.82577 0
M  V30 592 H 60.7371 -3.88272 2.9047 0
M  V30 593 N 62.0802 -0.821533 -1.34494 0
M  V30 594 C 63.3572 -0.33159 -1.92769 0
M  V30 595 C 63.7372 1.18088 -1.74981 0
M  V30 596 O 63.0852 1.98733 -1.12772 0
M  V30 597 C 63.2952 -0.759398 -3.40638 0
M  V30 598 C 64.6432 -0.757433 -4.1779 0
M  V30 599 O 65.6672 -0.70189 -3.49216 0
M  V30 600 O 64.5262 -0.829361 -5.4017 0
M  V30 601 H 61.6202 -0.0902502 -0.822061 0
M  V30 602 H 64.1662 -0.906231 -1.43477 0
M  V30 603 H 62.9382 -1.8012 -3.47379 0
M  V30 604 H 62.5612 -0.160378 -3.97276 0
M  V30 605 N 63.5583 1.46682 -0.576371 0
M  V30 606 C 64.4883 2.33028 0.148397 0
M  V30 607 C 65.4693 1.44961 0.889956 0
M  V30 608 O 66.6543 1.73789 0.866662 0
M  V30 609 C 63.7843 3.27117 1.1667 0
M  V30 610 C 62.7383 4.24575 0.540386 0
M  V30 611 C 62.0643 5.08126 1.6647 0
M  V30 612 C 63.3643 5.19722 -0.518331 0
M  V30 613 H 65.0583 2.93875 -0.572509 0
M  V30 614 H 62.6043 1.41315 -0.276768 0
M  V30 615 H 64.5573 3.86374 1.68204 0
M  V30 616 H 63.2813 2.64364 1.9178 0
M  V30 617 H 61.9403 3.66571 0.0461769 0
M  V30 618 H 61.5883 4.41762 2.40531 0
M  V30 619 H 61.2883 5.74122 1.25131 0
M  V30 620 H 62.8123 5.70246 2.18293 0
M  V30 621 H 64.2263 5.73232 -0.0883058 0
M  V30 622 H 62.6233 5.94026 -0.851679 0
M  V30 623 H 63.6933 4.64037 -1.40703 0
M  V30 624 N 65.0364 0.313813 1.54444 0
M  V30 625 C 66.2614 -0.296681 2.05267 0
M  V30 626 C 66.6864 -1.45757 1.18897 0
M  V30 627 O 66.0444 -1.80239 0.195886 0
M  V30 628 C 66.0924 -0.71831 3.53373 0
M  V30 629 O 65.1964 -1.82175 3.69981 0
M  V30 630 H 64.5374 -0.0554061 0.661684 0
M  V30 631 H 67.0674 0.459387 1.99376 0
M  V30 632 H 67.0774 -1.00364 3.95463 0
M  V30 633 H 65.7524 0.130821 4.15694 0
M  V30 634 H 64.3294 -1.53598 3.39797 0
M  V30 635 N 66.5145 -1.57545 0.0417849 0
M  V30 636 C 67.4465 -2.07904 -0.964799 0
M  V30 637 C 68.4595 -1.00497 -1.28079 0
M  V30 638 O 69.6485 -1.28087 -1.24322 0
M  V30 639 C 66.7485 -2.49928 -2.28887 0
M  V30 640 C 65.9215 -3.80562 -2.15619 0
M  V30 641 C 64.9805 -4.08999 -3.31069 0
M  V30 642 O 64.0065 -4.79061 -3.0739 0
M  V30 643 N 65.2085 -3.6017 -4.55256 0
M  V30 644 H 67.9735 -2.94886 -0.535029 0
M  V30 645 H 65.5345 -1.61252 -0.144681 0
M  V30 646 H 67.5265 -2.66034 -3.04972 0
M  V30 647 H 66.0965 -1.68245 -2.63463 0
M  V30 648 H 65.3165 -3.74129 -1.24183 0
M  V30 649 H 66.6045 -4.66126 -2.03971 0
M  V30 650 H 66.0025 -3.03512 -4.77386 0
M  V30 651 H 64.5595 -3.81532 -5.28466 0
M  V30 652 N 67.9926 0.231505 -1.5589 0
M  V30 653 C 68.9226 1.29022 -1.94617 0
M  V30 654 C 69.9036 1.4941 -0.813067 0
M  V30 655 O 71.0886 1.6176 -1.07459 0
M  V30 656 C 68.2186 2.64199 -2.25424 0
M  V30 657 C 67.1726 2.58484 -3.41131 0
M  V30 658 C 66.4986 3.97599 -3.57518 0
M  V30 659 C 67.7986 2.1413 -4.76388 0
M  V30 660 H 69.4926 0.968563 -2.83301 0
M  V30 661 H 67.0386 0.464479 -1.36303 0
M  V30 662 H 68.9916 3.38413 -2.51107 0
M  V30 663 H 67.7156 2.98032 -1.33583 0
M  V30 664 H 66.3746 1.86727 -3.15481 0
M  V30 665 H 66.0226 4.28723 -2.6307 0
M  V30 666 H 65.7226 3.94659 -4.35337 0
M  V30 667 H 67.2466 4.7349 -3.85538 0
M  V30 668 H 68.6606 2.78083 -5.01341 0
M  V30 669 H 67.0576 2.2227 -5.57419 0
M  V30 670 H 68.1276 1.09331 -4.72414 0
M  V30 671 N 69.4707 1.49531 0.497807 0
M  V30 672 C 70.7477 1.49682 1.25915 0
M  V30 673 C 71.1277 0.226339 2.09883 0
M  V30 674 O 70.4757 -0.791189 2.14365 0
M  V30 675 C 70.6857 2.77755 2.11313 0
M  V30 676 C 72.0337 3.27371 2.70395 0
M  V30 677 O 73.0577 2.78894 2.21578 0
M  V30 678 O 71.9167 4.11808 3.59272 0
M  V30 679 H 69.0107 0.599228 0.56996 0
M  V30 680 H 71.5567 1.61798 0.511816 0
M  V30 681 H 70.3287 3.61713 1.49264 0
M  V30 682 H 69.9517 2.68515 2.93233 0
M  V30 683 N 70.9488 -0.749086 1.3866 0
M  V30 684 C 71.9118 -1.84457 1.36045 0
M  V30 685 C 72.9118 -1.58682 0.260122 0
M  V30 686 O 74.1018 -1.66343 0.517261 0
M  V30 687 C 71.2338 -3.22008 1.11911 0
M  V30 688 H 72.4268 -1.88182 2.33512 0
M  V30 689 H 69.9798 -0.951266 1.24019 0
M  V30 690 H 70.7148 -3.2395 0.150686 0
M  V30 691 H 70.4998 -3.42111 1.91579 0
M  V30 692 H 71.9898 -4.0208 1.12788 0
M  V30 693 N 72.4269 -1.23603 -0.977757 0
M  V30 694 C 73.6519 -1.09735 -1.75991 0
M  V30 695 C 74.0769 0.346858 -1.84874 0
M  V30 696 O 73.4349 1.25093 -1.3123 0
M  V30 697 C 73.4829 -1.73051 -3.16363 0
M  V30 698 O 72.5869 -0.994452 -4.0023 0
M  V30 699 H 71.9279 -0.384476 -0.541364 0
M  V30 700 H 74.4579 -1.6371 -1.2272 0
M  V30 701 H 74.4679 -1.78398 -3.66931 0
M  V30 702 H 73.1429 -2.78137 -3.09213 0
M  V30 703 H 71.7199 -1.01812 -3.58732 0
M  V30 704 N 73.905 1.17692 -1.04816 0
M  V30 705 C 75.182 1.83768 -0.669963 0
M  V30 706 C 75.562 1.93232 0.849986 0
M  V30 707 O 74.91 1.46397 1.75443 0
M  V30 708 C 75.12 3.21641 -1.35455 0
M  V30 709 C 76.468 3.97592 -1.49017 0
M  V30 710 O 77.492 3.31107 -1.31326 0
M  V30 711 O 76.351 5.16729 -1.77914 0
M  V30 712 H 73.445 0.792799 -0.235368 0
M  V30 713 H 75.991 1.25021 -1.14751 0
M  V30 714 H 74.763 3.097 -2.39168 0
M  V30 715 H 74.386 3.88052 -0.866107 0
M  V30 716 N 75.3831 0.828654 1.34056 0
M  V30 717 C 76.6301 0.419458 1.98108 0
M  V30 718 C 76.9581 -1.01886 1.65679 0
M  V30 719 O 76.2131 -1.72539 0.923512 0
M  V30 720 C 76.5121 0.575226 3.52741 0
M  V30 721 C 76.1781 1.98012 4.05095 0
M  V30 722 C 74.8401 2.36442 4.19104 0
M  V30 723 C 77.1921 2.89824 4.33188 0
M  V30 724 C 74.5201 3.66009 4.58535 0
M  V30 725 C 76.8721 4.1886 4.74066 0
M  V30 726 C 75.5361 4.5726 4.86281 0
M  V30 727 H 74.8061 0.153491 0.724929 0
M  V30 728 H 77.4531 1.05371 1.59904 0
M  V30 729 H 75.7581 -0.142385 3.91541 0
M  V30 730 H 77.4551 0.239057 4.00287 0
M  V30 731 H 74.0451 1.67162 3.94658 0
M  V30 732 H 78.2291 2.61375 4.21897 0
M  V30 733 H 73.4851 3.95579 4.66184 0
M  V30 734 H 77.6591 4.90086 4.94761 0
M  V30 735 H 75.2861 5.57707 5.16592 0
M  V30 736 N 76.8612 -1.46375 0.584142 0
M  V30 737 C 78.1382 -1.956 0.0033388 0
M  V30 738 C 78.5182 -1.52679 -1.45782 0
M  V30 739 O 77.8662 -0.77816 -2.14842 0
M  V30 740 C 78.0762 -3.48551 0.176891 0
M  V30 741 C 79.4242 -4.24576 0.0454609 0
M  V30 742 O 80.4482 -3.56043 0.105801 0
M  V30 743 O 79.3072 -5.46427 -0.0890376 0
M  V30 744 H 76.4012 -0.825547 -0.0490066 0
M  V30 745 H 78.9472 -1.56652 0.65256 0
M  V30 746 H 77.7192 -3.72683 1.1926 0
M  V30 747 H 77.3422 -3.94332 -0.508695 0
M  V30 748 N 78.3393 -0.321999 -1.54275 0
M  V30 749 C 79.5643 0.285791 -2.05422 0
M  V30 750 C 79.9893 1.45124 -1.19669 0
M  V30 751 O 79.3473 1.80132 -0.205441 0
M  V30 752 C 79.3953 0.69956 -3.53749 0
M  V30 753 O 78.4993 1.8021 -3.70942 0
M  V30 754 H 77.8403 0.0518962 -0.661969 0
M  V30 755 H 80.3703 -0.469954 -1.9913 0
M  V30 756 H 80.3803 0.982649 -3.9599 0
M  V30 757 H 79.0553 -0.152864 -4.15619 0
M  V30 758 H 77.6323 1.51794 -3.40607 0
M  V30 759 N 79.8174 1.5752 -0.0501392 0
M  V30 760 C 80.7804 2.1037 0.909786 0
M  V30 761 C 81.7804 1.02308 1.24056 0
M  V30 762 O 82.9704 1.28385 1.17741 0
M  V30 763 C 80.1024 2.58708 2.21998 0
M  V30 764 H 81.2954 2.96479 0.451665 0
M  V30 765 H 78.8484 1.55038 0.198248 0
M  V30 766 H 79.5834 1.75989 2.72394 0
M  V30 767 H 79.3684 3.37675 1.99295 0
M  V30 768 H 80.8584 2.99747 2.9076 0
M  V30 769 N 81.2955 -0.223234 1.56011 0
M  V30 770 C 82.5235 -0.964812 1.83027 0
M  V30 771 C 82.9385 -1.78013 0.62904 0
M  V30 772 O 82.2955 -1.78008 -0.402414 0
M  V30 773 C 82.3465 -1.88373 3.08542 0
M  V30 774 O 82.0675 -1.10137 4.2403 0
M  V30 775 C 83.5685 -2.73934 3.48533 0
M  V30 776 H 80.7885 -0.282842 0.608475 0
M  V30 777 H 83.3325 -0.238971 2.03099 0
M  V30 778 H 81.4875 -2.56354 2.9045 0
M  V30 779 H 81.9015 -1.72501 4.95322 0
M  V30 780 H 83.3755 -3.34117 4.39397 0
M  V30 781 H 83.8525 -3.46244 2.70207 0
M  V30 782 H 84.4585 -2.11369 3.69057 0
M  V30 783 N 82.7736 -1.49793 -0.48987 0
M  V30 784 C 84.0136 -1.61466 -1.25332 0
M  V30 785 C 84.3776 -0.299688 -1.89647 0
M  V30 786 O 85.5786 -0.291687 -2.67213 0
M  V30 787 C 83.8496 -2.74944 -2.28343 0
M  V30 788 S 85.4086 -3.06637 -3.13878 0
M  V30 789 H 82.2266 -0.569411 -0.425784 0
M  V30 790 H 84.8286 -1.875 -0.553541 0
M  V30 791 H 83.5326 -3.68994 -1.79643 0
M  V30 792 H 83.0636 -2.50938 -3.02975 0
M  V30 793 H 85.0786 -2.49015 -4.29192 0
M  V30 794 N 84.2517 0.741722 -1.39055 0
M  V30 795 C 85.4987 1.50114 -1.35912 0
M  V30 796 C 85.8267 1.94443 0.0470937 0
M  V30 797 O 85.0817 1.66612 1.02659 0
M  V30 798 C 85.3807 2.7592 -2.27163 0
M  V30 799 C 85.0467 2.50493 -3.74919 0
M  V30 800 C 83.7087 2.43267 -4.1518 0
M  V30 801 C 86.0607 2.28585 -4.684 0
M  V30 802 C 83.3887 2.12166 -5.46994 0
M  V30 803 C 85.7407 1.99002 -6.00484 0
M  V30 804 C 84.4047 1.90241 -6.39816 0
M  V30 805 H 83.6747 0.549306 -0.497336 0
M  V30 806 H 86.3217 0.851896 -1.71508 0
M  V30 807 H 84.6267 3.45553 -1.84663 0
M  V30 808 H 86.3237 3.33923 -2.22028 0
M  V30 809 H 82.9137 2.56992 -3.43006 0
M  V30 810 H 87.0977 2.33139 -4.38132 0
M  V30 811 H 82.3537 2.03901 -5.76398 0
M  V30 812 H 86.5277 1.81057 -6.72452 0
M  V30 813 H 84.1547 1.65907 -7.41875 0
M  V30 814 N 85.7298 1.2412 0.971189 0
M  V30 815 C 86.9778 1.07668 1.71032 0
M  V30 816 C 87.2988 -0.385797 1.91146 0
M  V30 817 O 86.5688 -1.27569 1.4867 0
M  V30 818 H 85.1488 0.395429 0.633755 0
M  V30 819 H 87.8108 1.55984 1.16855 0
M  V30 820 H 86.9068 1.57195 2.69622 0
M  V30 821 N 87.2079 -1.17134 1.05439 0
M  V30 822 C 88.1179 -2.24878 0.668365 0
M  V30 823 C 89.1339 -1.71186 -0.311687 0
M  V30 824 O 90.3099 -2.00738 -0.163161 0
M  V30 825 C 87.3749 -3.46662 0.051648 0
M  V30 826 C 86.4359 -4.15429 1.08246 0
M  V30 827 C 85.6689 -5.31399 0.495082 0
M  V30 828 O 85.8919 -5.66153 -0.694743 0
M  V30 829 O 84.8259 -5.89187 1.23056 0
M  V30 830 H 88.6519 -2.60189 1.56637 0
M  V30 831 H 86.2369 -1.24482 0.826104 0
M  V30 832 H 88.1189 -4.20394 -0.290966 0
M  V30 833 H 86.7939 -3.13142 -0.819971 0
M  V30 834 H 85.7009 -3.43704 1.47711 0
M  V30 835 H 87.0339 -4.52982 1.92532 0
M  V30 836 N 88.686 -0.835752 -1.33615 0
M  V30 837 C 89.616 -0.281739 -2.31794 0
M  V30 838 C 90.597 0.608833 -1.58831 0
M  V30 839 O 91.782 0.533035 -1.86741 0
M  V30 840 C 88.912 0.546612 -3.42971 0
M  V30 841 C 87.866 -0.247904 -4.27281 0
M  V30 842 C 87.192 0.704001 -5.30045 0
M  V30 843 C 88.492 -1.46324 -5.01385 0
M  V30 844 H 90.186 -1.10206 -2.78379 0
M  V30 845 H 87.732 -0.531388 -1.33837 0
M  V30 846 H 89.685 0.944467 -4.1068 0
M  V30 847 H 88.409 1.40011 -2.95067 0
M  V30 848 H 87.068 -0.627281 -3.61194 0
M  V30 849 H 86.716 1.55381 -4.78399 0
M  V30 850 H 86.416 0.176524 -5.87335 0
M  V30 851 H 87.94 1.09944 -6.0062 0
M  V30 852 H 89.354 -1.13871 -5.61877 0
M  V30 853 H 87.751 -1.92728 -5.6831 0
M  V30 854 H 88.821 -2.23467 -4.30338 0
M  V30 855 N 90.1641 1.46063 -0.591896 0
M  V30 856 C 91.0961 2.28539 0.174001 0
M  V30 857 C 92.1091 1.39047 0.846753 0
M  V30 858 O 93.2981 1.63564 0.714774 0
M  V30 859 C 90.3981 3.14347 1.26645 0
M  V30 860 C 89.5711 4.32021 0.683856 0
M  V30 861 C 88.6301 4.99157 1.66518 0
M  V30 862 O 87.6561 5.56458 1.19763 0
M  V30 863 N 88.8581 4.97005 2.99943 0
M  V30 864 H 91.6231 2.94911 -0.533633 0
M  V30 865 H 89.1841 1.56077 -0.430294 0
M  V30 866 H 91.1761 3.56125 1.92242 0
M  V30 867 H 89.7461 2.49988 1.87682 0
M  V30 868 H 88.9661 3.93915 -0.1498 0
M  V30 869 H 90.2541 5.08059 0.274567 0
M  V30 870 H 89.6521 4.51714 3.40545 0
M  V30 871 H 88.2091 5.42696 3.61004 0
M  V30 872 N 91.6422 0.330177 1.54103 0
M  V30 873 C 92.8882 -0.263542 2.01685 0
M  V30 874 C 93.2432 -1.49258 1.21408 0
M  V30 875 O 92.5362 -1.89395 0.289852 0
M  V30 876 C 92.7302 -0.643134 3.51566 0
M  V30 877 C 92.5592 0.547571 4.46354 0
M  V30 878 C 91.3292 1.04873 4.94297 0
M  V30 879 C 93.5272 1.40184 4.94826 0
M  V30 880 N 91.5092 2.20316 5.73005 0
M  V30 881 C 92.8802 2.40335 5.71524 0
M  V30 882 C 94.9352 1.42884 4.76958 0
M  V30 883 C 93.6382 3.42998 6.32254 0
M  V30 884 C 95.6642 2.44421 5.38528 0
M  V30 885 C 95.0262 3.43298 6.15082 0
M  V30 886 H 91.1252 -0.0601026 0.779687 0
M  V30 887 H 93.7092 0.466714 1.89023 0
M  V30 888 H 91.8802 -1.34251 3.6446 0
M  V30 889 H 93.6122 -1.21889 3.85908 0
M  V30 890 H 90.3672 0.618956 4.69538 0
M  V30 891 H 90.7912 2.78565 6.17034 0
M  V30 892 H 95.4332 0.678049 4.17328 0
M  V30 893 H 93.1512 4.1898 6.91 0
M  V30 894 H 96.7372 2.4732 5.26616 0
M  V30 895 H 95.6172 4.20579 6.61878 0
M  V30 896 N 93.1203 -1.57491 0.0584922 0
M  V30 897 C 94.3603 -1.94851 -0.617458 0
M  V30 898 C 94.7243 -0.937165 -1.67575 0
M  V30 899 O 95.9253 -1.19795 -2.40629 0
M  V30 900 C 94.1963 -3.36955 -1.19147 0
M  V30 901 S 95.7553 -3.96277 -1.8844 0
M  V30 902 H 92.5733 -0.681539 -0.202547 0
M  V30 903 H 95.1753 -1.95073 0.129176 0
M  V30 904 H 93.8793 -4.08355 -0.409215 0
M  V30 905 H 93.4103 -3.40245 -1.97476 0
M  V30 906 H 95.4253 -3.82099 -3.16568 0
M  V30 907 N 94.5984 0.214957 -1.56127 0
M  V30 908 C 96.0094 0.781386 -1.69562 0
M  V30 909 C 96.3604 1.84707 -0.66165 0
M  V30 910 O 95.4854 2.156 0.185927 0
M  V30 911 C 96.0804 1.42411 -3.07416 0
M  V30 912 C 94.6394 1.93786 -3.22683 0
M  V30 913 C 93.7864 0.800438 -2.65496 0
M  V30 914 H 96.7374 -0.00980633 -1.58697 0
M  V30 915 H 96.7584 2.29309 -3.0364 0
M  V30 916 H 96.2704 0.64826 -3.82648 0
M  V30 917 H 94.3714 2.74152 -2.52332 0
M  V30 918 H 94.4844 2.1133 -4.29973 0
M  V30 919 H 92.8484 1.2095 -2.2415 0
M  V30 920 H 93.6314 0.0371471 -3.4328 0
M  V30 921 N 96.0765 1.50051 0.48192 0
M  V30 922 C 96.9865 1.7089 1.60728 0
M  V30 923 C 98.0025 0.591788 1.63627 0
M  V30 924 O 99.1785 0.868817 1.81696 0
M  V30 925 C 96.2435 1.78855 2.97005 0
M  V30 926 C 95.3045 3.02537 3.04581 0
M  V30 927 C 94.5375 3.10112 4.34357 0
M  V30 928 O 94.7605 2.24765 5.24249 0
M  V30 929 O 93.6945 4.02747 4.47301 0
M  V30 930 H 97.5205 2.66264 1.46072 0
M  V30 931 H 95.1055 1.34018 0.660264 0
M  V30 932 H 96.9875 1.86336 3.77964 0
M  V30 933 H 95.6625 0.866628 3.11883 0
M  V30 934 H 94.5695 3.00563 2.22739 0
M  V30 935 H 95.9025 3.94272 2.94636 0
M  V30 936 N 97.5546 -0.734337 1.39446 0
M  V30 937 C 98.5026 -1.86971 1.38364 0
M  V30 938 C 99.4966 -1.67288 0.266687 0
M  V30 939 O 100.703 -1.74621 0.436755 0
M  V30 940 H 97.0776 -0.615474 0.432082 0
M  V30 941 H 99.0486 -1.85 2.34132 0
M  V30 942 C 97.7976 -3.2466 1.24465 0
M  V30 943 H 97.1206 -3.40402 2.09682 0
M  V30 944 H 98.5606 -4.04292 1.27764 0
M  V30 945 C 97.0196 -3.36867 -0.0468674 0
M  V30 946 O 97.5496 -3.88618 -1.01681 0
M  V30 947 N 95.7556 -2.90391 -0.110145 0
M  V30 948 H 95.3026 -2.48466 0.679868 0
M  V30 949 H 95.2606 -2.98939 -0.973799 0
M  V30 950 N 99.0327 -1.24633 -0.964593 0
M  V30 951 C 100.258 -1.11596 -1.74818 0
M  V30 952 C 100.683 0.32723 -1.85232 0
M  V30 953 O 100.041 1.23695 -1.32549 0
M  V30 954 C 100.089 -1.76397 -3.1451 0
M  V30 955 O 99.1927 -1.03685 -3.99153 0
M  V30 956 H 98.5337 -0.390196 -0.537255 0
M  V30 957 H 101.064 -1.65002 -1.20977 0
M  V30 958 H 101.074 -1.8228 -3.65018 0
M  V30 959 H 99.7487 -2.81401 -3.06246 0
M  V30 960 H 98.3257 -1.05611 -3.57632 0
M  V30 961 N 100.511 1.16574 -1.06058 0
M  V30 962 C 101.421 2.2452 -0.680282 0
M  V30 963 C 102.437 1.71348 0.302604 0
M  V30 964 O 103.613 2.00822 0.152513 0
M  V30 965 C 100.678 3.46629 -0.0700315 0
M  V30 966 C 99.7388 4.14849 -1.10448 0
M  V30 967 C 98.9718 5.31129 -0.523256 0
M  V30 968 O 99.1948 5.66514 0.664709 0
M  V30 969 O 98.1288 5.88526 -1.26179 0
M  V30 970 H 101.955 2.59355 -1.58015 0
M  V30 971 H 99.5398 1.24043 -0.832694 0
M  V30 972 H 101.422 4.20543 0.268667 0
M  V30 973 H 100.097 3.13573 0.803353 0
M  V30 974 H 99.0038 3.42916 -1.49532 0
M  V30 975 H 100.337 4.51954 -1.94931 0
M  V30 976 N 101.989 0.842826 1.3317 0
M  V30 977 C 103.217 0.454055 2.01856 0
M  V30 978 C 103.632 -0.94587 1.63397 0
M  V30 979 O 102.989 -1.61534 0.849302 0
M  V30 980 C 103.04 0.569715 3.56982 0
M  V30 981 O 102.761 1.91448 3.94055 0
M  V30 982 C 104.262 0.178412 4.42941 0
M  V30 983 H 101.482 0.17979 0.646465 0
M  V30 984 H 104.026 1.1365 1.70012 0
M  V30 985 H 102.181 -0.0648587 3.87346 0
M  V30 986 H 102.595 1.90282 4.88767 0
M  V30 987 H 104.069 0.310376 5.51127 0
M  V30 988 H 104.546 -0.880056 4.30293 0
M  V30 989 H 105.152 0.787579 4.17944 0
M  V30 990 N 103.467 -1.45747 0.599634 0
M  V30 991 C 104.377 -2.34262 -0.125888 0
M  V30 992 C 105.393 -1.50768 -0.868625 0
M  V30 993 O 106.569 -1.83592 -0.828003 0
M  V30 994 C 103.634 -3.28252 -1.11587 0
M  V30 995 C 102.695 -4.27651 -0.375956 0
M  V30 996 C 101.928 -5.1715 -1.31877 0
M  V30 997 O 102.151 -5.09916 -2.55621 0
M  V30 998 O 101.085 -5.96286 -0.820157 0
M  V30 999 H 104.911 -2.97688 0.601315 0
M  V30 1000 H 102.496 -1.44999 0.359934 0
M  V30 1001 H 104.378 -3.86191 -1.68626 0
M  V30 1002 H 103.053 -2.67401 -1.82424 0
M  V30 1003 H 101.96 -3.7335 0.236698 0
M  V30 1004 H 103.293 -4.91334 0.29177 0
M  V30 1005 N 104.945 -0.338344 -1.53925 0
M  V30 1006 C 106.356 0.146651 -1.86123 0
M  V30 1007 C 106.707 1.5042 -1.2597 0
M  V30 1008 O 105.832 2.08723 -0.571294 0
M  V30 1009 C 106.427 0.272879 -3.37699 0
M  V30 1010 C 104.986 0.702103 -3.69794 0
M  V30 1011 C 104.133 -0.167304 -2.76795 0
M  V30 1012 H 107.084 -0.558123 -1.48562 0
M  V30 1013 H 107.105 1.10128 -3.64214 0
M  V30 1014 H 106.617 -0.715307 -3.81451 0
M  V30 1015 H 104.718 1.6995 -3.31584 0
M  V30 1016 H 104.831 0.495604 -4.7653 0
M  V30 1017 H 103.195 0.359527 -2.5215 0
M  V30 1018 H 103.978 -1.15253 -3.23375 0
M  V30 1019 N 106.423 1.57458 -0.0668435 0
M  V30 1020 C 107.371 2.13639 0.919851 0
M  V30 1021 C 108.365 1.07204 1.31163 0
M  V30 1022 O 109.571 1.25591 1.28945 0
M  V30 1023 H 105.946 0.683048 0.314562 0
M  V30 1024 H 107.917 2.95415 0.421047 0
M  V30 1025 C 106.666 2.70892 2.17975 0
M  V30 1026 H 105.989 3.5246 1.88711 0
M  V30 1027 H 107.429 3.13803 2.85138 0
M  V30 1028 C 105.888 1.65414 2.93496 0
M  V30 1029 O 106.418 1.07619 3.87015 0
M  V30 1030 N 104.624 1.36564 2.56512 0
M  V30 1031 H 104.171 1.83751 1.80536 0
M  V30 1032 H 104.129 0.66223 3.07347 0
M  V30 1033 N 107.901 -0.206675 1.56239 0
M  V30 1034 C 108.833 -1.27997 1.9013 0
M  V30 1035 C 109.846 -1.42299 0.790883 0
M  V30 1036 O 111.035 -1.42931 1.06925 0
M  V30 1037 C 108.135 -2.65368 2.10792 0
M  V30 1038 C 107.308 -2.72824 3.41886 0
M  V30 1039 C 106.367 -3.9131 3.51799 0
M  V30 1040 O 105.393 -3.78953 4.24716 0
M  V30 1041 N 106.595 -5.06265 2.84035 0
M  V30 1042 H 109.36 -0.992444 2.82791 0
M  V30 1043 H 106.921 -0.396652 1.56966 0
M  V30 1044 H 108.913 -3.43039 2.14724 0
M  V30 1045 H 107.483 -2.86657 1.24685 0
M  V30 1046 H 106.703 -1.81515 3.49923 0
M  V30 1047 H 107.991 -2.74786 4.28217 0
M  V30 1048 H 107.389 -5.19203 2.246 0
M  V30 1049 H 105.946 -5.81925 2.93609 0
M  V30 1050 N 109.379 -1.50304 -0.473955 0
M  V30 1051 C 110.609 -1.64663 -1.24778 0
M  V30 1052 C 111.017 -0.328174 -1.86332 0
M  V30 1053 O 110.36 0.699536 -1.69859 0
M  V30 1054 C 110.422 -2.6778 -2.39863 0
M  V30 1055 C 110.086 -4.11413 -1.98969 0
M  V30 1056 C 111.083 -4.97372 -1.51385 0
M  V30 1057 C 108.768 -4.57312 -2.07777 0
M  V30 1058 C 110.762 -6.27277 -1.13148 0
M  V30 1059 C 108.449 -5.87223 -1.69152 0
M  V30 1060 C 109.447 -6.72031 -1.21915 0
M  V30 1061 O 109.135 -7.99518 -0.838237 0
M  V30 1062 H 108.867 -0.556602 -0.383627 0
M  V30 1063 H 111.421 -1.9726 -0.572491 0
M  V30 1064 H 109.651 -2.30419 -3.10554 0
M  V30 1065 H 111.34 -2.71388 -3.01833 0
M  V30 1066 H 112.106 -4.63128 -1.44004 0
M  V30 1067 H 107.985 -3.91449 -2.43493 0
M  V30 1068 H 111.529 -6.93425 -0.762077 0
M  V30 1069 H 107.426 -6.20989 -1.76191 0
M  V30 1070 H 108.194 -8.12764 -0.967339 0
M  V30 1071 N 110.857 0.726932 -1.39834 0
M  V30 1072 C 112.082 1.52121 -1.40976 0
M  V30 1073 C 112.507 1.88098 -0.00826029 0
M  V30 1074 O 111.865 1.52479 0.980807 0
M  V30 1075 C 111.913 2.78021 -2.29644 0
M  V30 1076 O 111.017 3.74272 -1.73188 0
M  V30 1077 H 110.358 0.45908 -0.479731 0
M  V30 1078 H 112.888 0.896207 -1.83927 0
M  V30 1079 H 112.898 3.26671 -2.44438 0
M  V30 1080 H 111.573 2.51169 -3.31492 0
M  V30 1081 H 110.15 3.33073 -1.6768 0
M  V30 1082 N 112.336 1.25143 0.95797 0
M  V30 1083 C 113.747 1.08851 1.51685 0
M  V30 1084 C 114.098 -0.33687 1.93286 0
M  V30 1085 O 113.223 -1.22644 1.7829 0
M  V30 1086 C 113.818 1.96978 2.75654 0
M  V30 1087 C 112.377 1.84881 3.27866 0
M  V30 1088 C 111.524 1.91329 2.0072 0
M  V30 1089 H 114.475 1.38478 0.77522 0
M  V30 1090 H 114.496 1.5078 3.4935 0
M  V30 1091 H 114.008 3.00712 2.45345 0
M  V30 1092 H 112.109 0.840182 3.63004 0
M  V30 1093 H 112.222 2.6951 3.96107 0
M  V30 1094 H 110.586 1.35174 2.15871 0
M  V30 1095 H 111.369 2.96661 1.72764 0
M  V30 1096 N 113.814 -1.1601 1.06675 0
M  V30 1097 C 115.091 -1.82679 0.699114 0
M  V30 1098 C 115.471 -1.94559 -0.819137 0
M  V30 1099 O 114.819 -1.49169 -1.73092 0
M  V30 1100 C 115.029 -3.19445 1.40555 0
M  V30 1101 C 116.377 -3.95171 1.55323 0
M  V30 1102 O 117.401 -3.28976 1.36577 0
M  V30 1103 O 116.26 -5.13833 1.86112 0
M  V30 1104 H 113.354 -0.788954 0.247951 0
M  V30 1105 H 115.9 -1.23179 1.16726 0
M  V30 1106 H 114.672 -3.05856 2.44065 0
M  V30 1107 H 114.295 -3.86625 0.927733 0
M  V30 1108 N 115.292 -0.849877 -1.32721 0
M  V30 1109 C 116.569 -0.372405 -1.92022 0
M  V30 1110 C 116.949 1.1435 -1.77447 0
M  V30 1111 O 116.297 1.96296 -1.16962 0
M  V30 1112 C 116.507 -0.831482 -3.3895 0
M  V30 1113 C 117.855 -0.845882 -4.16089 0
M  V30 1114 O 118.879 -0.775806 -3.47649 0
M  V30 1115 O 117.738 -0.943753 -5.38289 0
M  V30 1116 H 114.832 -0.107667 -0.819961 0
M  V30 1117 H 117.378 -0.93646 -1.41522 0
M  V30 1118 H 116.15 -1.87448 -3.4348 0
M  V30 1119 H 115.773 -0.24461 -3.96847 0
M  V30 1120 N 116.77 1.45427 -0.607355 0
M  V30 1121 C 117.995 2.07124 -0.107006 0
M  V30 1122 C 118.42 1.44906 1.19933 0
M  V30 1123 O 117.778 0.541687 1.73019 0
M  V30 1124 C 117.826 3.60595 0.0194119 0
M  V30 1125 O 116.93 3.98285 1.0697 0
M  V30 1126 H 116.271 0.659868 -0.0739597 0
M  V30 1127 H 118.801 1.86683 -0.837297 0
M  V30 1128 H 118.811 4.07419 0.2177 0
M  V30 1129 H 117.486 4.05266 -0.934453 0
M  V30 1130 H 116.063 3.63133 0.847889 0
M  V30 1131 N 118.248 0.346503 1.53744 0
M  V30 1132 C 119.158 -0.517293 2.28826 0
M  V30 1133 C 120.174 -1.10935 1.3405 0
M  V30 1134 O 121.35 -1.1244 1.6709 0
M  V30 1135 C 118.415 -1.65098 3.04866 0
M  V30 1136 C 117.476 -1.0884 4.15274 0
M  V30 1137 C 116.709 -2.16806 4.87679 0
M  V30 1138 O 116.932 -3.3758 4.59778 0
M  V30 1139 O 115.866 -1.80934 5.74061 0
M  V30 1140 H 119.692 0.0931396 3.03557 0
M  V30 1141 H 117.277 0.111458 1.48984 0
M  V30 1142 H 119.159 -2.31053 3.5241 0
M  V30 1143 H 117.834 -2.24717 2.32989 0
M  V30 1144 H 116.741 -0.3933 3.72027 0
M  V30 1145 H 118.074 -0.537036 4.89261 0
M  V30 1146 N 119.726 -1.57421 0.075193 0
M  V30 1147 C 120.656 -2.15942 -0.888324 0
M  V30 1148 C 121.637 -1.08737 -1.30806 0
M  V30 1149 O 122.822 -1.36787 -1.37851 0
M  V30 1150 C 119.952 -2.72379 -2.1547 0
M  V30 1151 C 118.906 -3.8478 -1.87425 0
M  V30 1152 C 118.232 -4.27834 -3.20721 0
M  V30 1153 C 119.532 -5.08869 -1.17684 0
M  V30 1154 H 121.226 -2.96705 -0.400799 0
M  V30 1155 H 118.772 -1.42723 -0.191342 0
M  V30 1156 H 120.725 -3.11965 -2.83295 0
M  V30 1157 H 119.449 -1.88841 -2.6647 0
M  V30 1158 H 118.108 -3.45703 -1.22004 0
M  V30 1159 H 117.756 -3.41214 -3.6957 0
M  V30 1160 H 117.456 -5.03605 -3.02746 0
M  V30 1161 H 118.98 -4.70039 -3.89738 0
M  V30 1162 H 120.394 -5.4575 -1.75584 0
M  V30 1163 H 118.791 -5.8994 -1.09956 0
M  V30 1164 H 119.861 -4.84648 -0.156453 0
M  V30 1165 N 121.204 0.198386 -1.56346 0
M  V30 1166 C 122.451 0.919286 -1.80431 0
M  V30 1167 C 122.779 1.83393 -0.647866 0
M  V30 1168 O 122.034 1.92236 0.366556 0
M  V30 1169 C 122.333 1.77031 -3.10475 0
M  V30 1170 C 121.999 1.00693 -4.39513 0
M  V30 1171 C 120.661 0.796145 -4.74568 0
M  V30 1172 C 123.013 0.469559 -5.19081 0
M  V30 1173 C 120.341 0.0364588 -5.86689 0
M  V30 1174 C 122.693 -0.2769 -6.31994 0
M  V30 1175 C 121.357 -0.49873 -6.65634 0
M  V30 1176 H 120.627 0.336391 -0.660244 0
M  V30 1177 H 123.274 0.185872 -1.90596 0
M  V30 1178 H 121.579 2.5723 -2.95533 0
M  V30 1179 H 123.276 2.33065 -3.26315 0
M  V30 1180 H 119.866 1.18122 -4.12001 0
M  V30 1181 H 124.05 0.619816 -4.92414 0
M  V30 1182 H 119.306 -0.145412 -6.11227 0
M  V30 1183 H 123.48 -0.700684 -6.92866 0
M  V30 1184 H 121.107 -1.0893 -7.52355 0
M  V30 1185 N 122.682 1.50554 0.465978 0
M  V30 1186 C 123.614 1.65949 1.58093 0
M  V30 1187 C 124.627 0.540827 1.53554 0
M  V30 1188 O 125.816 0.814187 1.5885 0
M  V30 1189 C 122.916 1.63261 2.96983 0
M  V30 1190 C 122.089 2.91245 3.26336 0
M  V30 1191 C 121.148 2.8113 4.44806 0
M  V30 1192 O 120.174 3.55086 4.44862 0
M  V30 1193 N 121.376 1.95032 5.46756 0
M  V30 1194 H 124.141 2.62122 1.45301 0
M  V30 1195 H 121.702 1.48082 0.65448 0
M  V30 1196 H 123.694 1.54101 3.74212 0
M  V30 1197 H 122.264 0.748032 3.03518 0
M  V30 1198 H 121.484 3.14493 2.37672 0
M  V30 1199 H 122.772 3.76022 3.42761 0
M  V30 1200 H 122.17 1.3427 5.49534 0
M  V30 1201 H 120.727 1.91772 6.2295 0
M  V30 1202 N 124.16 -0.719506 1.40217 0
M  V30 1203 C 125.409 -1.47486 1.37589 0
M  V30 1204 C 125.722 -1.9559 -0.0201568 0
M  V30 1205 O 126.928 -2.70973 -0.169049 0
M  V30 1206 C 125.384 -2.66575 2.41796 0
M  V30 1207 C 124.992 -2.25358 3.87192 0
M  V30 1208 C 126.736 -3.4433 2.48269 0
M  V30 1209 C 124.643 -3.41262 4.83005 0
M  V30 1210 H 123.573 -0.553901 0.511576 0
M  V30 1211 H 126.224 -0.783427 1.65936 0
M  V30 1212 H 124.606 -3.3787 2.06543 0
M  V30 1213 H 125.78 -1.61509 4.31569 0
M  V30 1214 H 124.095 -1.60657 3.84159 0
M  V30 1215 H 126.692 -4.30569 3.17041 0
M  V30 1216 H 127.035 -3.87872 1.51198 0
M  V30 1217 H 127.568 -2.80076 2.82493 0
M  V30 1218 H 124.307 -3.02755 5.81394 0
M  V30 1219 H 123.827 -4.0404 4.43297 0
M  V30 1220 H 125.506 -4.07383 5.02641 0
M  V30 1221 N 125.638 -1.25649 -0.95132 0
M  V30 1222 C 126.915 -1.01361 -1.67288 0
M  V30 1223 C 127.295 0.459135 -2.06046 0
M  V30 1224 O 126.643 1.43723 -1.7764 0
M  V30 1225 C 126.853 -1.95256 -2.89268 0
M  V30 1226 C 128.201 -2.23289 -3.61147 0
M  V30 1227 O 129.225 -1.93041 -2.99355 0
M  V30 1228 O 128.084 -2.74741 -4.72419 0
M  V30 1229 H 125.178 -0.38464 -0.732107 0
M  V30 1230 H 127.724 -1.36817 -1.00395 0
M  V30 1231 H 126.496 -2.94685 -2.57442 0
M  V30 1232 H 126.119 -1.60218 -3.6389 0
M  V30 1233 N 127.117 1.15442 -1.07289 0
M  V30 1234 C 128.342 1.90638 -0.816828 0
M  V30 1235 C 128.767 1.77445 0.624083 0
M  V30 1236 O 128.125 1.10671 1.43602 0
M  V30 1237 C 128.173 3.39008 -1.22906 0
M  V30 1238 O 127.277 4.10701 -0.373975 0
M  V30 1239 H 126.618 0.593555 -0.297638 0
M  V30 1240 H 129.148 1.46198 -1.43134 0
M  V30 1241 H 129.158 3.89801 -1.20497 0
M  V30 1242 H 127.833 3.47929 -2.27856 0
M  V30 1243 H 126.41 3.70046 -0.460499 0
M  V30 1244 N 128.595 0.856903 1.32268 0
M  V30 1245 C 129.505 0.306131 2.32594 0
M  V30 1246 C 130.521 -0.577209 1.64147 0
M  V30 1247 O 131.697 -0.477043 1.95669 0
M  V30 1248 C 128.762 -0.494561 3.43154 0
M  V30 1249 C 127.823 0.415186 4.27288 0
M  V30 1250 C 127.056 -0.347387 5.32568 0
M  V30 1251 O 127.279 -1.57708 5.48165 0
M  V30 1252 O 126.213 0.287982 6.01211 0
M  V30 1253 H 130.039 1.13737 2.81598 0
M  V30 1254 H 127.624 0.619902 1.35932 0
M  V30 1255 H 129.506 -0.948944 4.10576 0
M  V30 1256 H 128.181 -1.30257 2.96336 0
M  V30 1257 H 127.088 0.917793 3.62667 0
M  V30 1258 H 128.421 1.18844 4.77637 0
M  V30 1259 N 130.073 -1.45103 0.615059 0
M  V30 1260 C 131.021 -2.32331 -0.111791 0
M  V30 1261 C 132.015 -1.46409 -0.852102 0
M  V30 1262 O 133.221 -1.62849 -0.766821 0
M  V30 1263 H 129.596 -0.749993 -0.0549072 0
M  V30 1264 H 131.567 -2.91407 0.642225 0
M  V30 1265 C 130.316 -3.3015 -1.09071 0
M  V30 1266 H 129.639 -3.96265 -0.530485 0
M  V30 1267 H 131.079 -3.93898 -1.56908 0
M  V30 1268 C 129.538 -2.57875 -2.168 0
M  V30 1269 O 130.068 -2.36567 -3.24652 0
M  V30 1270 N 128.274 -2.17884 -1.92289 0
M  V30 1271 H 127.821 -2.35413 -1.04587 0
M  V30 1272 H 127.779 -1.6985 -2.64572 0
M  V30 1273 N 131.551 -0.354651 -1.53558 0
M  V30 1274 C 132.461 0.50515 -2.29097 0
M  V30 1275 C 133.477 1.10223 -1.34636 0
M  V30 1276 O 134.653 1.11553 -1.67684 0
M  V30 1277 C 131.718 1.63479 -3.05738 0
M  V30 1278 C 130.779 1.06636 -4.15845 0
M  V30 1279 C 130.012 2.14217 -4.88822 0
M  V30 1280 O 130.235 3.35137 -4.61562 0
M  V30 1281 O 129.169 1.77887 -5.75013 0
M  V30 1282 H 132.995 -0.109237 -3.03503 0
M  V30 1283 H 130.58 -0.119357 -1.48922 0
M  V30 1284 H 132.462 2.2918 -3.5363 0
M  V30 1285 H 131.137 2.23478 -2.34178 0
M  V30 1286 H 130.044 0.373565 -3.7223 0
M  V30 1287 H 131.377 0.511081 -4.89539 0
M  V30 1288 N 133.029 1.57378 -0.0835403 0
M  V30 1289 C 133.992 2.12252 0.864959 0
M  V30 1290 C 134.992 1.04916 1.21858 0
M  V30 1291 O 136.182 1.30853 1.14991 0
M  V30 1292 C 133.314 2.63358 2.16461 0
M  V30 1293 H 134.507 2.97371 0.388676 0
M  V30 1294 H 132.06 1.55423 0.165317 0
M  V30 1295 H 132.795 1.81727 2.686 0
M  V30 1296 H 132.58 3.41826 1.92087 0
M  V30 1297 H 134.07 3.05847 2.84337 0
M  V30 1298 N 134.507 -0.190092 1.56449 0
M  V30 1299 C 135.437 -1.23816 1.97969 0
M  V30 1300 C 136.418 -1.47201 0.852395 0
M  V30 1301 O 137.603 -1.58854 1.1171 0
M  V30 1302 C 134.733 -2.5813 2.3235 0
M  V30 1303 C 133.687 -2.49348 3.47864 0
M  V30 1304 C 133.013 -3.8798 3.67934 0
M  V30 1305 C 134.313 -2.01424 4.81898 0
M  V30 1306 H 136.007 -0.89311 2.85769 0
M  V30 1307 H 133.553 -0.428177 1.37487 0
M  V30 1308 H 135.506 -3.31637 2.59991 0
M  V30 1309 H 134.23 -2.94386 1.41438 0
M  V30 1310 H 132.889 -1.78297 3.20321 0
M  V30 1311 H 132.537 -4.21597 2.74344 0
M  V30 1312 H 132.237 -3.82978 4.45648 0
M  V30 1313 H 133.761 -4.63101 3.97957 0
M  V30 1314 H 135.175 -2.64693 5.08538 0
M  V30 1315 H 133.572 -2.07413 5.63116 0
M  V30 1316 H 134.642 -0.967677 4.75146 0
M  V30 1317 N 135.985 -1.50799 -0.457987 0
M  V30 1318 C 136.915 -1.73553 -1.5621 0
M  V30 1319 C 137.896 -0.584774 -1.59732 0
M  V30 1320 O 139.081 -0.825314 -1.7579 0
M  V30 1321 C 136.211 -1.84169 -2.94447 0
M  V30 1322 C 135.165 -2.99461 -3.0579 0
M  V30 1323 C 134.491 -2.95235 -4.45803 0
M  V30 1324 C 135.791 -4.39766 -2.81786 0
M  V30 1325 H 137.485 -2.66 -1.37421 0
M  V30 1326 H 135.031 -1.28002 -0.659662 0
M  V30 1327 H 136.984 -1.98672 -3.71628 0
M  V30 1328 H 135.708 -0.883545 -3.14422 0
M  V30 1329 H 134.367 -2.8463 -2.31044 0
M  V30 1330 H 134.015 -1.97239 -4.62715 0
M  V30 1331 H 133.715 -3.72642 -4.54326 0
M  V30 1332 H 135.239 -3.11803 -5.24987 0
M  V30 1333 H 136.653 -4.55054 -3.4871 0
M  V30 1334 H 135.05 -5.18722 -3.0174 0
M  V30 1335 H 136.12 -4.51229 -1.7754 0
M  V30 1336 N 137.463 0.71206 -1.40597 0
M  V30 1337 C 138.426 1.80785 -1.40888 0
M  V30 1338 C 139.426 1.57937 -0.302103 0
M  V30 1339 O 140.616 1.64913 -0.561182 0
M  V30 1340 C 137.748 3.18927 -1.20409 0
M  V30 1341 H 138.941 1.81924 -2.38419 0
M  V30 1342 H 136.494 0.91805 -1.26497 0
M  V30 1343 H 137.229 3.23436 -0.236522 0
M  V30 1344 H 137.014 3.36911 -2.00582 0
M  V30 1345 H 138.504 3.98949 -1.23408 0
M  V30 1346 N 138.941 1.26152 0.944643 0
M  V30 1347 C 139.851 1.09176 2.07648 0
M  V30 1348 C 140.867 0.0261935 1.7398 0
M  V30 1349 O 142.043 0.229208 2.00091 0
M  V30 1350 C 139.108 0.722915 3.39079 0
M  V30 1351 C 138.169 1.86752 3.86552 0
M  V30 1352 C 137.402 1.51617 5.11711 0
M  V30 1353 O 137.625 0.416331 5.68879 0
M  V30 1354 O 136.559 2.34975 5.54139 0
M  V30 1355 H 140.385 2.0412 2.24875 0
M  V30 1356 H 137.97 1.05182 1.061 0
M  V30 1357 H 139.852 0.529787 4.18056 0
M  V30 1358 H 138.527 -0.197159 3.23099 0
M  V30 1359 H 137.434 2.11558 3.08535 0
M  V30 1360 H 138.767 2.76719 4.07047 0
M  V30 1361 N 140.419 -1.14872 1.07899 0
M  V30 1362 C 141.349 -2.2193 0.725887 0
M  V30 1363 C 142.33 -1.67622 -0.28927 0
M  V30 1364 O 143.515 -1.93533 -0.160787 0
M  V30 1365 C 140.645 -3.47061 0.128856 0
M  V30 1366 C 139.599 -4.14363 1.07178 0
M  V30 1367 C 138.925 -5.33636 0.337229 0
M  V30 1368 C 140.225 -4.63492 2.40775 0
M  V30 1369 H 141.919 -2.51724 1.62097 0
M  V30 1370 H 139.465 -1.20991 0.780838 0
M  V30 1371 H 141.418 -4.21199 -0.130147 0
M  V30 1372 H 140.142 -3.16617 -0.80134 0
M  V30 1373 H 138.801 -3.42173 1.3158 0
M  V30 1374 H 138.449 -4.99449 -0.596606 0
M  V30 1375 H 138.149 -5.79609 0.965788 0
M  V30 1376 H 139.673 -6.10539 0.0861567 0
M  V30 1377 H 141.087 -5.2913 2.20669 0
M  V30 1378 H 139.484 -5.20148 2.99276 0
M  V30 1379 H 140.554 -3.78834 3.02676 0
M  V30 1380 N 141.898 -0.863906 -1.31812 0
M  V30 1381 C 143.126 -0.486111 -2.01108 0
M  V30 1382 C 143.541 0.919755 -1.64882 0
M  V30 1383 O 142.898 1.60162 -0.874893 0
M  V30 1384 C 142.949 -0.626435 -3.56031 0
M  V30 1385 O 142.67 -1.97693 -3.90959 0
M  V30 1386 C 144.171 -0.248857 -4.42601 0
M  V30 1387 H 141.391 -0.190052 -0.643523 0
M  V30 1388 H 143.935 -1.1634 -1.68182 0
M  V30 1389 H 142.09 0.00322717 -3.874 0
M  V30 1390 H 142.504 -1.98034 -4.85678 0
M  V30 1391 H 143.978 -0.398016 -5.50563 0
M  V30 1392 H 144.455 0.811489 -4.31638 0
M  V30 1393 H 145.061 -0.853971 -4.16638 0
M  V30 1394 N 143.376 1.44774 -0.622745 0
M  V30 1395 C 144.323 2.30635 0.0871679 0
M  V30 1396 C 145.293 1.42994 0.845097 0
M  V30 1397 O 146.478 1.71907 0.827812 0
M  V30 1398 C 143.618 3.28144 1.06844 0
M  V30 1399 C 142.731 4.30888 0.309809 0
M  V30 1400 C 141.866 5.15494 1.28215 0
M  V30 1401 C 140.905 6.09953 0.512198 0
M  V30 1402 N 140.042 6.87287 1.43458 0
M  V30 1403 H 144.882 2.90803 -0.650974 0
M  V30 1404 H 142.419 1.43286 -0.33281 0
M  V30 1405 H 144.377 3.83157 1.65066 0
M  V30 1406 H 143.007 2.69695 1.77382 0
M  V30 1407 H 142.059 3.78414 -0.388181 0
M  V30 1408 H 143.371 4.97955 -0.290254 0
M  V30 1409 H 142.525 5.74983 1.93596 0
M  V30 1410 H 141.264 4.48481 1.91614 0
M  V30 1411 H 140.269 5.49581 -0.155151 0
M  V30 1412 H 141.494 6.78999 -0.116958 0
M  V30 1413 H 139.44 6.2295 2.05594 0
M  V30 1414 H 139.357 7.50763 0.888335 0
M  V30 1415 H 140.625 7.51306 2.07749 0
M  V30 1416 N 144.854 0.36279 1.53368 0
M  V30 1417 C 146.082 -0.228613 2.05633 0
M  V30 1418 C 146.497 -1.42676 1.23649 0
M  V30 1419 O 145.854 -1.80394 0.27647 0
M  V30 1420 C 145.905 -0.624845 3.56059 0
M  V30 1421 O 145.626 0.525675 4.34935 0
M  V30 1422 C 147.127 -1.27493 4.24571 0
M  V30 1423 H 144.347 -0.0407183 0.669763 0
M  V30 1424 H 146.891 0.520352 1.97769 0
M  V30 1425 H 145.046 -1.32373 3.64083 0
M  V30 1426 H 145.46 0.205969 5.24095 0
M  V30 1427 H 146.934 -1.50277 5.31151 0
M  V30 1428 H 147.411 -2.23439 3.78116 0
M  V30 1429 H 148.017 -0.617558 4.20792 0
M  V30 1430 N 146.332 -1.57332 0.0918853 0
M  V30 1431 C 147.262 -2.16872 -0.865371 0
M  V30 1432 C 148.243 -1.10118 -1.29646 0
M  V30 1433 O 149.428 -1.38242 -1.36392 0
M  V30 1434 C 146.558 -2.74649 -2.12569 0
M  V30 1435 C 145.512 -3.86747 -1.83333 0
M  V30 1436 C 144.838 -4.31212 -3.16166 0
M  V30 1437 C 146.138 -5.10089 -1.1228 0
M  V30 1438 H 147.832 -2.97114 -0.369307 0
M  V30 1439 H 145.378 -1.42918 -0.176194 0
M  V30 1440 H 147.331 -3.14952 -2.7997 0
M  V30 1441 H 146.055 -1.91657 -2.64452 0
M  V30 1442 H 144.714 -3.46978 -1.18331 0
M  V30 1443 H 144.362 -3.45115 -3.6593 0
M  V30 1444 H 144.062 -5.06788 -2.97388 0
M  V30 1445 H 145.586 -4.74146 -3.84731 0
M  V30 1446 H 147 -5.47582 -1.69785 0
M  V30 1447 H 145.397 -5.91073 -1.03693 0
M  V30 1448 H 146.467 -4.84786 -0.105041 0
M  V30 1449 N 147.81 0.181792 -1.56548 0
M  V30 1450 C 149.087 0.926765 -1.72251 0
M  V30 1451 C 149.467 2.00831 -0.650386 0
M  V30 1452 O 148.815 2.26008 0.336521 0
M  V30 1453 C 149.025 1.50106 -3.1507 0
M  V30 1454 C 150.373 1.97805 -3.75711 0
M  V30 1455 O 151.397 1.59922 -3.18282 0
M  V30 1456 O 150.256 2.67555 -4.76525 0
M  V30 1457 H 147.35 0.435506 -0.703039 0
M  V30 1458 H 149.896 0.170443 -1.68842 0
M  V30 1459 H 148.668 0.72212 -3.84579 0
M  V30 1460 H 148.291 2.32186 -3.22763 0
M  V30 1461 N 149.288 1.51039 0.449983 0
M  V30 1462 C 150.565 1.53612 1.21089 0
M  V30 1463 C 150.945 0.292997 2.09057 0
M  V30 1464 O 150.293 -0.72259 2.16774 0
M  V30 1465 C 150.503 2.84337 2.0237 0
M  V30 1466 C 151.851 3.35807 2.59843 0
M  V30 1467 O 152.875 2.85802 2.12593 0
M  V30 1468 O 151.734 4.23029 3.45989 0
M  V30 1469 H 148.828 0.617057 0.550608 0
M  V30 1470 H 151.374 1.63344 0.460082 0
M  V30 1471 H 150.146 3.66278 1.37681 0
M  V30 1472 H 149.769 2.77708 2.84542 0
M  V30 1473 N 150.766 -0.704594 1.40972 0
M  V30 1474 C 152.015 -1.46018 1.39146 0
M  V30 1475 C 152.328 -1.956 0.000589254 0
M  V30 1476 O 153.534 -2.71137 -0.1403 0
M  V30 1477 C 151.99 -2.63996 2.4461 0
M  V30 1478 C 151.598 -2.21238 3.89561 0
M  V30 1479 C 153.342 -3.41677 2.51907 0
M  V30 1480 C 151.249 -3.3612 4.86598 0
M  V30 1481 H 150.179 -0.548444 0.517422 0
M  V30 1482 H 152.83 -0.765784 1.66757 0
M  V30 1483 H 151.212 -3.3566 2.10115 0
M  V30 1484 H 152.386 -1.56923 4.33257 0
M  V30 1485 H 150.701 -1.56574 3.85841 0
M  V30 1486 H 153.298 -4.27182 3.2159 0
M  V30 1487 H 153.641 -3.86247 1.55303 0
M  V30 1488 H 154.174 -2.77064 2.85448 0
M  V30 1489 H 150.913 -2.96572 5.84573 0
M  V30 1490 H 150.433 -3.99315 4.47557 0
M  V30 1491 H 152.112 -4.02029 5.06934 0
M  V30 1492 N 152.244 -1.26651 -0.937939 0
M  V30 1493 C 153.655 -1.1125 -1.49934 0
M  V30 1494 C 154.006 0.306077 -1.93798 0
M  V30 1495 O 153.131 1.19792 -1.80219 0
M  V30 1496 C 153.726 -2.01339 -2.72485 0
M  V30 1497 C 152.285 -1.90074 -3.24883 0
M  V30 1498 C 151.432 -1.94498 -1.97651 0
M  V30 1499 H 154.383 -1.39693 -0.753091 0
M  V30 1500 H 154.404 -1.56319 -3.46907 0
M  V30 1501 H 153.916 -3.04577 -2.40529 0
M  V30 1502 H 152.017 -0.897827 -3.61621 0
M  V30 1503 H 152.13 -2.75778 -3.9177 0
M  V30 1504 H 150.494 -1.38591 -2.13693 0
M  V30 1505 H 151.277 -2.99372 -1.68022 0
M  V30 1506 N 153.722 1.14298 -1.08507 0
M  V30 1507 C 154.632 2.23027 -0.727753 0
M  V30 1508 C 155.648 1.71952 0.26619 0
M  V30 1509 O 156.824 2.011 0.109882 0
M  V30 1510 C 153.889 3.46403 -0.143541 0
M  V30 1511 C 152.95 4.12413 -1.19223 0
M  V30 1512 C 152.183 5.29899 -0.635798 0
M  V30 1513 O 152.406 5.67796 0.544393 0
M  V30 1514 O 151.34 5.85717 -1.38634 0
M  V30 1515 H 155.166 2.55945 -1.63481 0
M  V30 1516 H 152.751 1.22248 -0.858817 0
M  V30 1517 H 154.633 4.21018 0.179404 0
M  V30 1518 H 153.308 3.15206 0.736659 0
M  V30 1519 H 152.215 3.39667 -1.56772 0
M  V30 1520 H 153.548 4.47718 -2.04474 0
M  V30 1521 N 155.201 0.870884 1.31352 0
M  V30 1522 C 156.478 0.402907 1.91405 0
M  V30 1523 C 156.858 -1.11512 1.79244 0
M  V30 1524 O 156.206 -1.94411 1.2007 0
M  V30 1525 C 156.416 0.885301 3.37585 0
M  V30 1526 C 157.764 0.911971 4.14691 0
M  V30 1527 O 158.788 0.831016 3.46371 0
M  V30 1528 O 157.647 1.02927 5.3672 0
M  V30 1529 H 154.741 0.120698 0.818145 0
M  V30 1530 H 157.287 0.958857 1.40014 0
M  V30 1531 H 156.059 1.92889 3.40455 0
M  V30 1532 H 155.682 0.307714 3.96407 0
M  V30 1533 N 156.679 -1.44442 0.630414 0
M  V30 1534 C 157.956 -1.9549 0.0655657 0
M  V30 1535 C 158.336 -1.5724 -1.40851 0
M  V30 1536 O 157.684 -0.846116 -2.12257 0
M  V30 1537 C 157.894 -3.47812 0.287691 0
M  V30 1538 C 159.242 -4.24216 0.180513 0
M  V30 1539 O 160.266 -3.55526 0.219019 0
M  V30 1540 O 159.125 -5.46434 0.0848493 0
M  V30 1541 H 156.219 -0.826688 -0.0227177 0
M  V30 1542 H 158.765 -1.54496 0.702068 0
M  V30 1543 H 157.537 -3.687 1.31056 0
M  V30 1544 H 157.16 -3.95751 -0.382984 0
M  V30 1545 N 158.157 -0.370918 -1.53173 0
M  V30 1546 C 159.403 0.217423 -2.01631 0
M  V30 1547 C 159.736 1.47983 -1.25756 0
M  V30 1548 O 159.011 1.91274 -0.352764 0
M  V30 1549 C 159.294 0.503982 -3.56556 0
M  V30 1550 C 159.147 -0.77243 -4.43118 0
M  V30 1551 C 160.466 1.30234 -4.20389 0
M  V30 1552 H 157.585 0.0775486 -0.732909 0
M  V30 1553 H 160.227 -0.496863 -1.83388 0
M  V30 1554 H 158.377 1.11248 -3.72231 0
M  V30 1555 H 160.049 -1.4098 -4.39229 0
M  V30 1556 H 158.292 -1.39167 -4.10871 0
M  V30 1557 H 158.963 -0.526815 -5.4948 0
M  V30 1558 H 161.439 0.787546 -4.08579 0
M  V30 1559 H 160.315 1.47158 -5.28806 0
M  V30 1560 H 160.576 2.31237 -3.76805 0
M  V30 1561 N 159.635 1.57281 -0.100228 0
M  V30 1562 C 160.883 1.94153 0.561157 0
M  V30 1563 C 161.204 0.983157 1.68401 0
M  V30 1564 O 160.474 0.0361132 1.95867 0
M  V30 1565 H 159.054 0.716791 0.210283 0
M  V30 1566 H 161.716 1.94202 -0.164765 0
M  V30 1567 H 160.812 2.96709 0.968008 0
M  V30 1568 N 161.113 -0.173488 1.56642 0
M  V30 1569 C 162.043 -1.2171 1.99271 0
M  V30 1570 C 163.024 -1.46289 0.867959 0
M  V30 1571 O 164.209 -1.5766 1.13388 0
M  V30 1572 C 161.339 -2.55651 2.35074 0
M  V30 1573 C 160.293 -2.45645 3.50489 0
M  V30 1574 C 159.619 -3.84056 3.72028 0
M  V30 1575 C 160.919 -1.96302 4.84007 0
M  V30 1576 H 162.613 -0.86275 2.867 0
M  V30 1577 H 160.159 -0.413571 1.37933 0
M  V30 1578 H 162.112 -3.2886 2.63494 0
M  V30 1579 H 160.836 -2.92869 1.44552 0
M  V30 1580 H 159.495 -1.7489 3.22194 0
M  V30 1581 H 159.143 -4.18664 2.788 0
M  V30 1582 H 158.843 -3.7823 4.49684 0
M  V30 1583 H 160.367 -4.58854 4.02846 0
M  V30 1584 H 161.781 -2.59284 5.11317 0
M  V30 1585 H 160.178 -2.01429 5.65284 0
M  V30 1586 H 161.248 -0.917226 4.76146 0
M  V30 1587 N 162.591 -1.51276 -0.441967 0
M  V30 1588 C 163.554 -1.7167 -1.51862 0
M  V30 1589 C 164.554 -0.586793 -1.49711 0
M  V30 1590 O 165.744 -0.854276 -1.51815 0
M  V30 1591 C 162.876 -1.76889 -2.91416 0
M  V30 1592 H 164.069 -2.67754 -1.35084 0
M  V30 1593 H 161.622 -1.41196 -0.670333 0
M  V30 1594 H 162.357 -0.826026 -3.13604 0
M  V30 1595 H 162.142 -2.59001 -2.94382 0
M  V30 1596 H 163.632 -1.94522 -3.69528 0
M  V30 1597 N 164.069 0.697108 -1.41344 0
M  V30 1598 C 165.032 1.79281 -1.42797 0
M  V30 1599 C 166.032 1.57607 -0.318837 0
M  V30 1600 O 167.222 1.64309 -0.578642 0
M  V30 1601 C 164.354 3.17632 -1.23785 0
M  V30 1602 H 165.547 1.79385 -2.40335 0
M  V30 1603 H 163.1 0.904582 -1.27464 0
M  V30 1604 H 163.835 3.23167 -0.270814 0
M  V30 1605 H 163.62 3.34765 -2.04144 0
M  V30 1606 H 165.11 3.97617 -1.27633 0
M  V30 1607 N 165.547 1.27147 0.931209 0
M  V30 1608 C 166.794 1.13278 1.67852 0
M  V30 1609 C 167.122 -0.32204 1.91815 0
M  V30 1610 O 166.377 -1.25224 1.50391 0
M  V30 1611 C 166.676 1.8579 3.05314 0
M  V30 1612 C 166.342 3.35657 3.01073 0
M  V30 1613 C 165.004 3.76536 2.99623 0
M  V30 1614 C 167.356 4.31299 2.92627 0
M  V30 1615 C 164.684 5.11426 2.87506 0
M  V30 1616 C 167.036 5.66242 2.82051 0
M  V30 1617 C 165.7 6.06418 2.7895 0
M  V30 1618 H 164.97 0.414515 0.614214 0
M  V30 1619 H 167.617 1.57712 1.08624 0
M  V30 1620 H 165.922 1.33854 3.68226 0
M  V30 1621 H 167.619 1.72491 3.62005 0
M  V30 1622 H 164.209 3.03146 3.02986 0
M  V30 1623 H 168.393 4.00692 2.92848 0
M  V30 1624 H 163.649 5.41705 2.83489 0
M  V30 1625 H 167.823 6.40026 2.74481 0
M  V30 1626 H 165.45 7.10895 2.69318 0
M  V30 1627 N 167.025 -1.13721 1.09112 0
M  V30 1628 C 168.436 -1.6648 0.845068 0
M  V30 1629 C 168.787 -1.85911 -0.62701 0
M  V30 1630 O 167.912 -1.57556 -1.48341 0
M  V30 1631 C 168.507 -3.02413 1.52748 0
M  V30 1632 C 167.066 -3.52176 1.32849 0
M  V30 1633 C 166.213 -2.27492 1.58564 0
M  V30 1634 H 169.164 -0.976872 1.25072 0
M  V30 1635 H 169.185 -3.68223 0.958752 0
M  V30 1636 H 168.697 -2.88238 2.59885 0
M  V30 1637 H 166.798 -3.7156 0.278137 0
M  V30 1638 H 166.911 -4.32499 2.0611 0
M  V30 1639 H 165.275 -2.33923 1.00758 0
M  V30 1640 H 166.058 -2.15886 2.66924 0
M  V30 1641 N 168.503 -0.877838 -1.30888 0
M  V30 1642 C 169.466 -0.344265 -2.266 0
M  V30 1643 C 170.466 0.50922 -1.52524 0
M  V30 1644 O 171.656 0.317398 -1.71284 0
M  V30 1645 C 168.788 0.510198 -3.37061 0
M  V30 1646 H 169.981 -1.1893 -2.7531 0
M  V30 1647 H 167.534 -0.654088 -1.41956 0
M  V30 1648 H 168.269 1.37612 -2.93655 0
M  V30 1649 H 168.054 -0.101047 -3.9197 0
M  V30 1650 H 169.544 0.875537 -4.08319 0
M  V30 1651 N 169.982 1.44106 -0.638065 0
M  V30 1652 C 170.912 2.33448 0.0494287 0
M  V30 1653 C 171.893 1.48606 0.827672 0
M  V30 1654 O 173.078 1.77308 0.792173 0
M  V30 1655 C 170.208 3.31771 1.02691 0
M  V30 1656 C 169.162 4.26485 0.359823 0
M  V30 1657 C 168.488 5.14729 1.44769 0
M  V30 1658 C 169.788 5.17056 -0.738296 0
M  V30 1659 H 171.482 2.91183 -0.696636 0
M  V30 1660 H 169.028 1.40014 -0.336456 0
M  V30 1661 H 170.981 3.93161 1.51666 0
M  V30 1662 H 169.705 2.7226 1.80395 0
M  V30 1663 H 168.364 3.66437 -0.10934 0
M  V30 1664 H 168.012 4.51566 2.21578 0
M  V30 1665 H 167.712 5.78913 1.00668 0
M  V30 1666 H 169.236 5.78991 1.93911 0
M  V30 1667 H 170.65 5.72342 -0.331354 0
M  V30 1668 H 169.047 5.89879 -1.10286 0
M  V30 1669 H 170.117 4.57652 -1.60258 0
M  V30 1670 N 171.46 0.379036 1.52974 0
M  V30 1671 C 172.737 -0.263479 1.93817 0
M  V30 1672 C 173.117 -1.65244 1.31368 0
M  V30 1673 O 172.465 -2.23448 0.477856 0
M  V30 1674 C 172.675 -0.300166 3.47707 0
M  V30 1675 C 174.023 -0.534061 4.21228 0
M  V30 1676 O 175.047 -0.38081 3.54159 0
M  V30 1677 O 173.906 -0.833501 5.40106 0
M  V30 1678 H 171 -0.161149 0.811147 0
M  V30 1679 H 173.546 0.432798 1.64088 0
M  V30 1680 H 172.318 0.673138 3.85467 0
M  V30 1681 H 171.941 -1.04179 3.83709 0
M  V30 1682 N 172.938 -1.57226 0.108567 0
M  V30 1683 C 174.186 -1.94448 -0.550853 0
M  V30 1684 C 174.507 -0.992074 -1.67878 0
M  V30 1685 O 173.777 -0.0465 -1.95845 0
M  V30 1686 H 172.357 -0.717897 -0.206479 0
M  V30 1687 H 175.019 -1.94112 0.175062 0
M  V30 1688 H 174.115 -2.97218 -0.952259 0
M  V30 1689 N 174.416 0.165178 -1.56732 0
M  V30 1690 C 175.664 0.879068 -1.8198 0
M  V30 1691 C 175.985 1.82514 -0.686561 0
M  V30 1692 O 175.255 1.93694 0.293146 0
M  V30 1693 H 173.835 0.327608 -0.671329 0
M  V30 1694 H 176.497 0.163526 -1.94213 0
M  V30 1695 H 175.593 1.45228 -2.76252 0
M  V30 1696 N 175.894 1.51508 0.433938 0
M  V30 1697 C 177.171 1.54888 1.19453 0
M  V30 1698 C 177.551 0.315154 2.08734 0
M  V30 1699 O 176.899 -0.699558 2.17528 0
M  V30 1700 C 177.109 2.86467 1.99342 0
M  V30 1701 C 178.457 3.38545 2.56267 0
M  V30 1702 O 179.481 2.88041 2.0955 0
M  V30 1703 O 178.34 4.26675 3.41483 0
M  V30 1704 H 175.434 0.622863 0.544032 0
M  V30 1705 H 177.98 1.63823 0.442732 0
M  V30 1706 H 176.752 3.67718 1.33788 0
M  V30 1707 H 176.375 2.8071 2.8158 0
M  V30 1708 N 177.372 -0.689602 1.41712 0
M  V30 1709 C 178.335 -1.78521 1.43746 0
M  V30 1710 C 179.335 -1.57436 0.327191 0
M  V30 1711 O 180.525 -1.64 0.587348 0
M  V30 1712 C 177.657 -3.16971 1.25467 0
M  V30 1713 H 178.85 -1.78108 2.41283 0
M  V30 1714 H 176.403 -0.89781 1.27942 0
M  V30 1715 H 177.138 -3.23019 0.287948 0
M  V30 1716 H 176.923 -3.33678 2.05917 0
M  V30 1717 H 178.413 -3.96935 1.2974 0
M  V30 1718 N 178.85 -1.27639 -0.924453 0
M  V30 1719 C 179.78 -1.13166 -2.04244 0
M  V30 1720 C 180.761 -0.032256 -1.70069 0
M  V30 1721 O 181.946 -0.207328 -1.9309 0
M  V30 1722 C 179.076 -0.781496 -3.38393 0
M  V30 1723 C 178.03 -1.83449 -3.86692 0
M  V30 1724 C 177.356 -1.33822 -5.17683 0
M  V30 1725 C 178.656 -3.23917 -4.09726 0
M  V30 1726 H 180.35 -2.06689 -2.1661 0
M  V30 1727 H 177.896 -0.995136 -1.04082 0
M  V30 1728 H 179.849 -0.667057 -4.16087 0
M  V30 1729 H 178.573 0.189439 -3.2605 0
M  V30 1730 H 177.232 -1.93789 -3.11193 0
M  V30 1731 H 176.88 -0.35665 -5.01734 0
M  V30 1732 H 176.58 -2.04224 -5.50968 0
M  V30 1733 H 178.104 -1.23679 -5.97943 0
M  V30 1734 H 179.518 -3.16559 -4.77978 0
M  V30 1735 H 177.915 -3.92059 -4.54324 0
M  V30 1736 H 178.985 -3.68729 -3.14908 0
M  V30 1737 N 180.328 1.1314 -1.09713 0
M  V30 1738 C 181.553 1.88862 -0.857081 0
M  V30 1739 C 181.978 1.78729 0.586304 0
M  V30 1740 O 181.336 1.13692 1.41222 0
M  V30 1741 C 181.384 3.36325 -1.30069 0
M  V30 1742 O 180.488 4.09815 -0.461007 0
M  V30 1743 H 179.829 0.587108 -0.310162 0
M  V30 1744 H 182.359 1.43129 -1.46203 0
M  V30 1745 H 182.369 3.87157 -1.28738 0
M  V30 1746 H 181.044 3.43017 -2.35185 0
M  V30 1747 H 179.621 3.68986 -0.538888 0
M  V30 1748 N 181.806 0.884767 1.30421 0
M  V30 1749 C 183.046 0.509806 1.9794 0
M  V30 1750 C 183.41 -0.923736 1.68319 0
M  V30 1751 O 184.611 -1.40481 2.29169 0
M  V30 1752 C 182.882 0.776732 3.48858 0
M  V30 1753 S 184.441 0.503843 4.35898 0
M  V30 1754 H 181.259 0.189699 0.685227 0
M  V30 1755 H 183.861 1.14399 1.58535 0
M  V30 1756 H 182.565 1.81857 3.67908 0
M  V30 1757 H 182.096 0.1301 3.93185 0
M  V30 1758 H 184.111 -0.657625 4.91823 0
M  V30 1759 N 183.284 -1.43765 0.645699 0
M  V30 1760 C 184.512 -2.06253 0.163556 0
M  V30 1761 C 184.927 -1.48352 -1.16778 0
M  V30 1762 O 184.284 -0.611932 -1.71935 0
M  V30 1763 C 184.335 -3.61453 0.0583186 0
M  V30 1764 O 184.056 -4.172 1.33702 0
M  V30 1765 C 185.557 -4.41002 -0.450795 0
M  V30 1766 H 182.777 -0.665413 0.0864077 0
M  V30 1767 H 185.321 -1.84396 0.884222 0
M  V30 1768 H 183.476 -3.82522 -0.612865 0
M  V30 1769 H 183.89 -5.10791 1.19131 0
M  V30 1770 H 185.364 -5.49966 -0.473403 0
M  V30 1771 H 185.841 -4.13488 -1.48068 0
M  V30 1772 H 186.447 -4.24886 0.187637 0
M  V30 1773 N 184.763 -0.387143 -1.52771 0
M  V30 1774 C 185.988 0.198407 -2.06449 0
M  V30 1775 C 186.413 1.39918 -1.25716 0
M  V30 1776 O 185.771 1.79099 -0.281657 0
M  V30 1777 C 185.819 0.548893 -3.56398 0
M  V30 1778 O 184.923 1.64315 -3.78252 0
M  V30 1779 H 184.264 0.0237731 -0.663574 0
M  V30 1780 H 186.794 -0.553989 -1.96957 0
M  V30 1781 H 186.804 0.813812 -3.99801 0
M  V30 1782 H 185.479 -0.329005 -4.14597 0
M  V30 1783 H 184.056 1.37211 -3.46738 0
M  V30 1784 N 186.241 1.57166 -0.116904 0
M  V30 1785 C 187.204 2.14039 0.819742 0
M  V30 1786 C 188.204 1.07477 1.19605 0
M  V30 1787 O 189.394 1.33263 1.1219 0
M  V30 1788 C 186.526 2.67891 2.10826 0
M  V30 1789 H 187.719 2.98128 0.325511 0
M  V30 1790 H 185.272 1.55739 0.132312 0
M  V30 1791 H 186.007 1.87384 2.64685 0
M  V30 1792 H 185.792 3.45823 1.84793 0
M  V30 1793 H 187.282 3.11809 2.77785 0
M  V30 1794 N 187.719 -0.156864 1.56817 0
M  V30 1795 C 188.944 -0.890331 1.87318 0
M  V30 1796 C 189.369 -1.74394 0.704855 0
M  V30 1797 O 188.727 -1.77972 -0.345786 0
M  V30 1798 C 188.775 -1.73102 3.16336 0
M  V30 1799 O 187.879 -2.83422 2.99576 0
M  V30 1800 H 187.22 -0.24857 0.615718 0
M  V30 1801 H 189.75 -0.150649 2.04045 0
M  V30 1802 H 189.76 -2.12803 3.48107 0
M  V30 1803 H 188.435 -1.10412 4.00976 0
M  V30 1804 H 187.012 -2.47199 2.7919 0
M  V30 1805 N 189.197 -1.51736 -0.425897 0
M  V30 1806 C 190.608 -1.5732 -1.00536 0
M  V30 1807 C 190.959 -0.403537 -1.92005 0
M  V30 1808 O 190.084 0.478256 -2.11049 0
M  V30 1809 C 190.679 -2.85119 -1.8301 0
M  V30 1810 C 189.238 -2.93236 -2.35987 0
M  V30 1811 C 188.385 -2.52098 -1.15508 0
M  V30 1812 H 191.336 -1.57348 -0.206739 0
M  V30 1813 H 191.357 -2.69526 -2.68581 0
M  V30 1814 H 190.869 -3.7023 -1.16411 0
M  V30 1815 H 188.97 -2.12581 -3.06007 0
M  V30 1816 H 189.083 -3.9713 -2.68001 0
M  V30 1817 H 187.447 -2.05558 -1.50393 0
M  V30 1818 H 188.23 -3.39565 -0.505014 0
M  V30 1819 N 190.675 0.682077 -1.42076 0
M  V30 1820 C 191.638 1.77756 -1.44691 0
M  V30 1821 C 192.638 1.5726 -0.335535 0
M  V30 1822 O 193.828 1.63686 -0.596037 0
M  V30 1823 C 190.96 3.16301 -1.27146 0
M  V30 1824 H 192.153 1.76826 -2.42224 0
M  V30 1825 H 189.706 0.891012 -1.28416 0
M  V30 1826 H 190.441 3.22862 -0.305075 0
M  V30 1827 H 190.226 3.32581 -2.07683 0
M  V30 1828 H 191.716 3.96241 -1.31843 0
M  V30 1829 N 192.153 1.28127 0.917671 0
M  V30 1830 C 193.564 1.13622 1.48145 0
M  V30 1831 C 193.915 -0.275207 1.9426 0
M  V30 1832 O 193.04 -1.1691 1.82102 0
M  V30 1833 C 193.635 2.05648 2.69248 0
M  V30 1834 C 192.194 1.95219 3.21818 0
M  V30 1835 C 191.341 1.97618 1.94532 0
M  V30 1836 H 194.292 1.40874 0.730772 0
M  V30 1837 H 194.313 1.61818 3.44377 0
M  V30 1838 H 193.825 3.08365 2.35653 0
M  V30 1839 H 191.926 0.955244 3.60147 0
M  V30 1840 H 192.039 2.81976 3.87333 0
M  V30 1841 H 190.403 1.41973 2.11461 0
M  V30 1842 H 191.186 3.02007 1.63238 0
M  V30 1843 N 193.631 -1.12557 1.10312 0
M  V30 1844 C 194.856 -1.88405 0.867085 0
M  V30 1845 C 195.281 -1.79038 -0.576817 0
M  V30 1846 O 194.639 -1.14439 -1.40618 0
M  V30 1847 C 194.687 -3.3563 1.31851 0
M  V30 1848 O 193.791 -4.09565 0.482734 0
M  V30 1849 H 193.132 -0.585455 0.313271 0
M  V30 1850 H 195.662 -1.42352 1.4696 0
M  V30 1851 H 195.672 -3.86469 1.3079 0
M  V30 1852 H 194.347 -3.41765 2.37001 0
M  V30 1853 H 192.924 -3.68695 0.558448 0
M  V30 1854 N 195.109 -0.891671 -1.2995 0
M  V30 1855 C 196.334 -0.527932 -2.00568 0
M  V30 1856 C 196.759 0.877969 -1.66353 0
M  V30 1857 O 196.117 1.58301 -0.883762 0
M  V30 1858 C 196.165 -0.717745 -3.53385 0
M  V30 1859 O 195.269 0.233376 -4.11739 0
M  V30 1860 H 194.61 -0.20722 -0.630837 0
M  V30 1861 H 197.14 -1.20105 -1.65638 0
M  V30 1862 H 197.15 -0.619307 -4.03272 0
M  V30 1863 H 195.825 -1.74276 -3.77625 0
M  V30 1864 H 194.402 0.0880706 -3.72796 0
M  V30 1865 N 196.587 1.43421 -0.653314 0
M  V30 1866 C 197.55 2.29182 0.0287951 0
M  V30 1867 C 198.55 1.42213 0.750465 0
M  V30 1868 O 199.74 1.63843 0.591701 0
M  V30 1869 C 196.872 3.24278 1.05151 0
M  V30 1870 H 198.065 2.90985 -0.725786 0
M  V30 1871 H 195.618 1.50702 -0.414545 0
M  V30 1872 H 196.353 2.6737 1.83532 0
M  V30 1873 H 196.138 3.88396 0.537687 0
M  V30 1874 H 197.628 3.88647 1.52786 0
M  V30 1875 N 198.065 0.39524 1.52563 0
M  V30 1876 C 199.476 -0.0774719 1.86539 0
M  V30 1877 C 199.827 -1.45641 1.31466 0
M  V30 1878 O 198.952 -2.06459 0.648367 0
M  V30 1879 C 199.547 -0.147356 3.38479 0
M  V30 1880 C 198.106 -0.564373 3.72145 0
M  V30 1881 C 197.253 0.269919 2.75983 0
M  V30 1882 H 200.204 0.612876 1.46388 0
M  V30 1883 H 200.225 -0.965343 3.68051 0
M  V30 1884 H 199.737 0.856387 3.78534 0
M  V30 1885 H 197.838 -1.57527 3.37663 0
M  V30 1886 H 197.951 -0.318402 4.78041 0
M  V30 1887 H 196.315 -0.265696 2.5331 0
M  V30 1888 H 197.098 1.27175 3.18875 0
M  V30 1889 N 199.544 -1.57102 0.125237 0
M  V30 1890 C 200.955 -1.82384 -0.399142 0
M  V30 1891 C 201.306 -1.04276 -1.66195 0
M  V30 1892 O 200.431 -0.281269 -2.14564 0
M  V30 1893 C 201.026 -3.30821 -0.730932 0
M  V30 1894 C 199.585 -3.56762 -1.19992 0
M  V30 1895 C 198.732 -2.7649 -0.211792 0
M  V30 1896 H 201.683 -1.54786 0.350277 0
M  V30 1897 H 201.704 -3.4579 -1.58775 0
M  V30 1898 H 201.216 -3.87643 0.188345 0
M  V30 1899 H 199.317 -3.05305 -2.13588 0
M  V30 1900 H 199.43 -4.65317 -1.14093 0
M  V30 1901 H 197.794 -2.4489 -0.700085 0
M  V30 1902 H 198.577 -3.36073 0.700691 0
M  V30 1903 N 201.022 0.148545 -1.56898 0
M  V30 1904 C 202.247 0.880385 -1.87787 0
M  V30 1905 C 202.672 1.74018 -0.714093 0
M  V30 1906 O 202.03 1.78153 0.336343 0
M  V30 1907 C 202.078 1.71422 -3.17249 0
M  V30 1908 O 201.182 2.8183 -3.01074 0
M  V30 1909 H 200.523 0.245301 -0.617028 0
M  V30 1910 H 203.053 0.139826 -2.04122 0
M  V30 1911 H 203.063 2.10954 -3.49231 0
M  V30 1912 H 201.738 1.08284 -4.01556 0
M  V30 1913 H 200.315 2.45715 -2.80497 0
M  V30 1914 N 202.5 1.5196 0.417844 0
M  V30 1915 C 203.911 1.57851 0.997 0
M  V30 1916 C 204.262 0.413714 1.91789 0
M  V30 1917 O 203.387 -0.467057 2.113 0
M  V30 1918 C 203.982 2.86085 1.81496 0
M  V30 1919 C 202.541 2.94483 2.34428 0
M  V30 1920 C 201.688 2.52707 1.14169 0
M  V30 1921 H 204.639 1.57455 0.198392 0
M  V30 1922 H 204.66 2.70947 2.67148 0
M  V30 1923 H 204.172 3.70842 1.14446 0
M  V30 1924 H 202.273 2.142 3.04875 0
M  V30 1925 H 202.386 3.98546 2.65891 0
M  V30 1926 H 200.75 2.06353 1.49301 0
M  V30 1927 H 201.533 3.39828 0.486999 0
M  V30 1928 N 203.978 -0.674533 1.42435 0
M  V30 1929 C 204.941 -1.76986 1.45632 0
M  V30 1930 C 205.941 -1.5708 0.343871 0
M  V30 1931 O 207.131 -1.63367 0.604709 0
M  V30 1932 C 204.263 -3.15623 1.28822 0
M  V30 1933 H 205.456 -1.75539 2.43158 0
M  V30 1934 H 203.009 -0.884189 1.28887 0
M  V30 1935 H 203.744 -3.22696 0.322193 0
M  V30 1936 H 203.529 -3.31475 2.09444 0
M  V30 1937 H 205.019 -3.95537 1.33942 0
M  V30 1938 N 205.456 -1.28612 -0.910864 0
M  V30 1939 C 206.867 -1.14406 -1.47541 0
M  V30 1940 C 207.218 0.264901 -1.94403 0
M  V30 1941 O 206.343 1.15942 -1.82719 0
M  V30 1942 C 206.938 -2.07073 -2.68153 0
M  V30 1943 C 205.497 -1.96923 -3.20778 0
M  V30 1944 C 204.644 -1.98646 -1.93481 0
M  V30 1945 H 207.595 -1.41259 -0.723291 0
M  V30 1946 H 207.616 -1.63642 -3.43514 0
M  V30 1947 H 207.128 -3.09611 -2.34015 0
M  V30 1948 H 205.229 -0.97433 -3.59635 0
M  V30 1949 H 205.342 -2.84026 -3.85832 0
M  V30 1950 H 203.706 -1.43093 -2.10705 0
M  V30 1951 H 204.489 -3.02868 -1.61634 0
M  V30 1952 N 206.934 1.1197 -1.10907 0
M  V30 1953 C 207.844 2.21433 -0.774896 0
M  V30 1954 C 208.86 1.72478 0.229657 0
M  V30 1955 O 210.036 2.01288 0.0672008 0
M  V30 1956 C 207.101 3.4602 -0.216986 0
M  V30 1957 C 206.162 4.09791 -1.27944 0
M  V30 1958 C 205.395 5.28431 -0.748055 0
M  V30 1959 O 205.618 5.68823 0.423833 0
M  V30 1960 O 204.552 5.82644 -1.51027 0
M  V30 1961 H 208.378 2.5242 -1.68873 0
M  V30 1962 H 205.963 1.20399 -0.884555 0
M  V30 1963 H 207.845 4.21304 0.090059 0
M  V30 1964 H 206.52 3.16698 0.669633 0
M  V30 1965 H 205.427 3.36265 -1.63941 0
M  V30 1966 H 206.76 4.4328 -2.13925 0
M  V30 1967 N 208.412 0.89855 1.29475 0
M  V30 1968 C 209.359 0.373819 2.27753 0
M  V30 1969 C 210.329 -0.543444 1.56958 0
M  V30 1970 O 211.514 -0.468934 1.84948 0
M  V30 1971 C 208.654 -0.393648 3.42848 0
M  V30 1972 C 207.767 0.554379 4.28428 0
M  V30 1973 C 206.902 -0.230026 5.30702 0
M  V30 1974 C 205.941 0.712599 6.07938 0
M  V30 1975 N 205.078 -0.0373283 7.0209 0
M  V30 1976 H 209.918 1.21699 2.72017 0
M  V30 1977 H 207.455 0.611456 1.33789 0
M  V30 1978 H 209.413 -0.85466 4.08352 0
M  V30 1979 H 208.043 -1.20128 2.99615 0
M  V30 1980 H 207.095 1.13391 3.63107 0
M  V30 1981 H 208.407 1.27597 4.82204 0
M  V30 1982 H 207.561 -0.752288 6.02018 0
M  V30 1983 H 206.3 -0.984758 4.77654 0
M  V30 1984 H 205.305 1.24637 5.35486 0
M  V30 1985 H 206.53 1.46664 6.63074 0
M  V30 1986 H 204.476 -0.774348 6.51414 0
M  V30 1987 H 204.393 0.624374 7.53417 0
M  V30 1988 H 205.661 -0.539891 7.77628 0
M  V30 1989 N 209.89 -1.43072 0.660911 0
M  V30 1990 C 211.301 -1.84932 0.256348 0
M  V30 1991 C 211.652 -1.55325 -1.19868 0
M  V30 1992 O 210.777 -1.00607 -1.91591 0
M  V30 1993 C 211.372 -3.35684 0.458475 0
M  V30 1994 C 209.931 -3.76245 0.108161 0
M  V30 1995 C 209.078 -2.66749 0.757641 0
M  V30 1996 H 212.029 -1.33116 0.864051 0
M  V30 1997 H 212.05 -3.79365 -0.293683 0
M  V30 1998 H 211.562 -3.572 1.51755 0
M  V30 1999 H 209.663 -3.60338 -0.948014 0
M  V30 2000 H 209.776 -4.76058 0.538992 0
M  V30 2001 H 208.14 -2.53989 0.190185 0
M  V30 2002 H 208.923 -2.91092 1.81989 0
M  V30 2003 N 211.368 -0.403325 -1.52352 0
M  V30 2004 C 212.593 0.176499 -2.06648 0
M  V30 2005 C 213.018 1.38577 -1.27193 0
M  V30 2006 O 212.376 1.7879 -0.300637 0
M  V30 2007 C 212.424 0.511061 -3.5696 0
M  V30 2008 O 211.528 1.60294 -3.79973 0
M  V30 2009 H 210.869 0.0167337 -0.663789 0
M  V30 2010 H 213.399 -0.574848 -1.96359 0
M  V30 2011 H 213.409 0.771362 -4.00642 0
M  V30 2012 H 212.084 -0.37296 -4.14224 0
M  V30 2013 H 210.661 1.33526 -3.48174 0
M  V30 2014 N 212.846 1.57033 -0.133567 0
M  V30 2015 C 213.809 2.14897 0.796995 0
M  V30 2016 C 214.809 1.0874 1.18458 0
M  V30 2017 O 215.999 1.34446 1.1077 0
M  V30 2018 C 213.131 2.70112 2.07973 0
M  V30 2019 H 214.324 2.98457 0.293873 0
M  V30 2020 H 211.877 1.55871 0.115787 0
M  V30 2021 H 212.612 1.9018 2.62682 0
M  V30 2022 H 212.397 3.47764 1.81115 0
M  V30 2023 H 213.887 3.14738 2.74462 0
M  V30 2024 N 214.325 -0.140222 1.56975 0
M  V30 2025 C 215.736 -0.699596 1.73097 0
M  V30 2026 C 216.087 -1.8134 0.749022 0
M  V30 2027 O 215.212 -2.16241 -0.0828503 0
M  V30 2028 C 215.807 -1.27582 3.1386 0
M  V30 2029 C 214.366 -1.78169 3.31561 0
M  V30 2030 C 213.513 -0.672855 2.69013 0
M  V30 2031 H 216.464 0.0855115 1.58469 0
M  V30 2032 H 216.485 -2.14561 3.14235 0
M  V30 2033 H 215.997 -0.464955 3.85305 0
M  V30 2034 H 214.098 -2.61801 2.65124 0
M  V30 2035 H 214.211 -1.90574 4.39566 0
M  V30 2036 H 212.575 -1.10118 2.29665 0
M  V30 2037 H 213.358 0.126679 3.43066 0
M  V30 2038 N 215.803 -1.52179 -0.40978 0
M  V30 2039 C 216.766 -1.74853 -1.48186 0
M  V30 2040 C 217.766 -0.618417 -1.48433 0
M  V30 2041 O 218.956 -0.886286 -1.49969 0
M  V30 2042 C 216.088 -1.8303 -2.87598 0
M  V30 2043 H 217.281 -2.70559 -1.29374 0
M  V30 2044 H 214.834 -1.42586 -0.640233 0
M  V30 2045 H 215.569 -0.89236 -3.11781 0
M  V30 2046 H 215.354 -2.65187 -2.88822 0
M  V30 2047 H 216.844 -2.02316 -3.65319 0
M  V30 2048 N 217.281 0.66697 -1.42791 0
M  V30 2049 C 218.692 1.2478 -1.38877 0
M  V30 2050 C 219.043 1.96012 -0.0859426 0
M  V30 2051 O 218.168 2.00463 0.815081 0
M  V30 2052 C 218.763 2.26938 -2.51564 0
M  V30 2053 C 217.322 2.80529 -2.50959 0
M  V30 2054 C 216.469 1.54965 -2.29959 0
M  V30 2055 H 219.42 0.459853 -1.51892 0
M  V30 2056 H 219.441 3.08834 -2.22265 0
M  V30 2057 H 218.953 1.75065 -3.46372 0
M  V30 2058 H 217.054 3.36502 -1.59991 0
M  V30 2059 H 217.167 3.29012 -3.48265 0
M  V30 2060 H 215.531 1.81817 -1.78366 0
M  V30 2061 H 216.314 1.05047 -3.26833 0
M  V30 2062 N 218.759 1.29093 0.90403 0
M  V30 2063 C 219.669 1.15727 2.0407 0
M  V30 2064 C 220.685 0.0815308 1.73809 0
M  V30 2065 O 221.861 0.292749 1.99261 0
M  V30 2066 C 218.926 0.830424 3.36608 0
M  V30 2067 C 217.987 1.98955 3.80415 0
M  V30 2068 C 217.22 1.6782 5.06628 0
M  V30 2069 O 217.443 0.597105 5.67266 0
M  V30 2070 O 216.377 2.52486 5.46383 0
M  V30 2071 H 220.203 2.11171 2.18267 0
M  V30 2072 H 217.788 1.08504 1.027 0
M  V30 2073 H 219.67 0.662521 4.16159 0
M  V30 2074 H 218.345 -0.0942678 3.23563 0
M  V30 2075 H 217.252 2.21267 3.01648 0
M  V30 2076 H 218.585 2.89529 3.98037 0
M  V30 2077 N 220.237 -1.11381 1.11499 0
M  V30 2078 C 221.483 -1.83403 0.865512 0
M  V30 2079 C 221.816 -1.84459 -0.607329 0
M  V30 2080 O 221.091 -1.29811 -1.44842 0
M  V30 2081 C 221.374 -3.30552 1.42855 0
M  V30 2082 C 221.227 -3.37886 2.96906 0
M  V30 2083 C 222.546 -4.26643 1.08 0
M  V30 2084 H 219.665 -0.665879 0.31587 0
M  V30 2085 H 222.307 -1.30601 1.37998 0
M  V30 2086 H 220.457 -3.75648 0.990985 0
M  V30 2087 H 222.129 -3.01343 3.49271 0
M  V30 2088 H 220.372 -2.78088 3.32941 0
M  V30 2089 H 221.043 -4.41458 3.31389 0
M  V30 2090 H 223.519 -3.89729 1.45775 0
M  V30 2091 H 222.395 -5.27986 1.50072 0
M  V30 2092 H 222.656 -4.42099 -0.00915037 0
M  V30 2093 N 221.715 -0.905404 -1.28997 0
M  V30 2094 C 222.992 -0.453513 -1.9027 0
M  V30 2095 C 223.372 1.06721 -1.82137 0
M  V30 2096 O 222.72 1.91159 -1.25182 0
M  V30 2097 C 222.93 -0.974494 -3.35119 0
M  V30 2098 C 224.278 -1.0216 -4.12127 0
M  V30 2099 O 225.302 -0.922557 -3.44046 0
M  V30 2100 O 224.161 -1.17121 -5.33802 0
M  V30 2101 H 221.255 -0.142347 -0.814657 0
M  V30 2102 H 223.801 -0.995642 -1.37423 0
M  V30 2103 H 222.573 -2.01848 -3.35221 0
M  V30 2104 H 222.196 -0.412706 -3.95452 0
M  V30 2105 N 223.193 1.4272 -0.668489 0
M  V30 2106 C 224.103 2.34596 0.0139753 0
M  V30 2107 C 225.119 1.5474 0.795703 0
M  V30 2108 O 226.295 1.87334 0.739466 0
M  V30 2109 C 223.36 3.33202 0.957982 0
M  V30 2110 C 222.421 4.28957 0.17149 0
M  V30 2111 C 221.654 5.22853 1.07053 0
M  V30 2112 O 221.877 5.21531 2.31001 0
M  V30 2113 O 220.811 5.9952 0.534727 0
M  V30 2114 H 224.637 2.9448 -0.742661 0
M  V30 2115 H 222.222 1.43117 -0.428705 0
M  V30 2116 H 224.104 3.93796 1.50008 0
M  V30 2117 H 222.779 2.758 1.69458 0
M  V30 2118 H 221.686 3.71796 -0.414558 0
M  V30 2119 H 223.019 4.89383 -0.52586 0
M  V30 2120 N 224.671 0.411399 1.52136 0
M  V30 2121 C 225.601 -0.404015 2.29978 0
M  V30 2122 C 226.582 -1.04412 1.34284 0
M  V30 2123 O 227.767 -1.0527 1.63192 0
M  V30 2124 C 224.897 -1.5197 3.12286 0
M  V30 2125 C 223.851 -1.00448 4.16046 0
M  V30 2126 C 223.177 -2.21393 4.86712 0
M  V30 2127 C 224.477 -0.0569336 5.22269 0
M  V30 2128 H 226.171 0.245529 2.98392 0
M  V30 2129 H 223.717 0.119525 1.43503 0
M  V30 2130 H 225.67 -2.09715 3.6551 0
M  V30 2131 H 224.394 -2.19716 2.41646 0
M  V30 2132 H 223.053 -0.449421 3.63835 0
M  V30 2133 H 222.701 -2.87699 4.12599 0
M  V30 2134 H 222.401 -1.87571 5.56858 0
M  V30 2135 H 223.925 -2.7974 5.4275 0
M  V30 2136 H 225.339 -0.54325 5.7072 0
M  V30 2137 H 223.736 0.192594 5.99791 0
M  V30 2138 H 224.806 0.887663 4.76706 0
M  V30 2139 N 226.149 -1.5696 0.141893 0
M  V30 2140 C 227.374 -2.00754 -0.520838 0
M  V30 2141 C 227.799 -1.0213 -1.57959 0
M  V30 2142 O 227.157 0.00371324 -1.813 0
M  V30 2143 C 227.205 -3.43318 -1.10294 0
M  V30 2144 O 226.309 -3.47679 -2.21795 0
M  V30 2145 H 225.65 -0.651564 -0.127908 0
M  V30 2146 H 228.18 -2.03221 0.23712 0
M  V30 2147 H 228.19 -3.82012 -1.43287 0
M  V30 2148 H 226.865 -4.14608 -0.327574 0
M  V30 2149 H 225.442 -3.20824 -1.9007 0
M  V30 2150 N 227.627 0.131896 -1.57047 0
M  V30 2151 C 228.557 1.16384 -2.02428 0
M  V30 2152 C 229.538 1.43936 -0.90644 0
M  V30 2153 O 230.723 1.54599 -1.17528 0
M  V30 2154 C 227.853 2.49328 -2.4177 0
M  V30 2155 C 226.807 2.36266 -3.56879 0
M  V30 2156 C 226.133 3.74057 -3.8208 0
M  V30 2157 C 227.433 1.834 -4.89042 0
M  V30 2158 H 229.127 0.786433 -2.88887 0
M  V30 2159 H 226.673 0.376855 -1.38981 0
M  V30 2160 H 228.626 3.21759 -2.7212 0
M  V30 2161 H 227.35 2.88934 -1.52266 0
M  V30 2162 H 226.009 1.66286 -3.26718 0
M  V30 2163 H 225.657 4.11125 -2.89803 0
M  V30 2164 H 225.357 3.66174 -4.59554 0
M  V30 2165 H 226.881 4.48012 -4.1487 0
M  V30 2166 H 228.295 2.45636 -5.18011 0
M  V30 2167 H 226.692 1.8637 -5.70426 0
M  V30 2168 H 227.762 0.790662 -4.7841 0
M  V30 2169 N 229.106 1.52395 0.401703 0
M  V30 2170 C 230.036 1.79231 1.49661 0
M  V30 2171 C 231.017 0.643654 1.57452 0
M  V30 2172 O 232.202 0.889989 1.72606 0
M  V30 2173 C 229.332 1.94971 2.87409 0
M  V30 2174 C 228.286 3.10604 2.94465 0
M  V30 2175 C 227.612 3.11577 4.34538 0
M  V30 2176 C 228.912 4.49921 2.6527 0
M  V30 2177 H 230.606 2.70917 1.27454 0
M  V30 2178 H 228.152 1.30362 0.6117 0
M  V30 2179 H 230.105 2.12328 3.63999 0
M  V30 2180 H 228.829 0.999632 3.10926 0
M  V30 2181 H 227.488 2.93009 2.20321 0
M  V30 2182 H 227.136 2.14277 4.55076 0
M  V30 2183 H 226.836 3.89247 4.40183 0
M  V30 2184 H 228.36 3.31073 5.13053 0
M  V30 2185 H 229.774 4.67683 3.31581 0
M  V30 2186 H 228.171 5.29564 2.82281 0
M  V30 2187 H 229.241 4.57507 1.60671 0
M  V30 2188 N 230.584 -0.659388 1.43143 0
M  V30 2189 C 231.516 -1.7849 1.43784 0
M  V30 2190 C 232.529 -1.5932 0.334787 0
M  V30 2191 O 233.718 -1.68155 0.598842 0
M  V30 2192 C 230.818 -3.15828 1.22906 0
M  V30 2193 C 229.991 -3.61711 2.45934 0
M  V30 2194 C 229.05 -4.77831 2.20371 0
M  V30 2195 O 228.076 -4.87586 2.93681 0
M  V30 2196 N 229.278 -5.67611 1.21647 0
M  V30 2197 H 232.043 -1.7842 2.40803 0
M  V30 2198 H 229.604 -0.84302 1.3822 0
M  V30 2199 H 231.596 -3.91189 1.03697 0
M  V30 2200 H 230.166 -3.10707 0.343542 0
M  V30 2201 H 229.386 -2.76861 2.80609 0
M  V30 2202 H 230.674 -3.89112 3.27825 0
M  V30 2203 H 230.072 -5.62397 0.610449 0
M  V30 2204 H 228.629 -6.42719 1.08423 0
M  V30 2205 N 232.062 -1.29571 -0.897171 0
M  V30 2206 C 233.009 -1.14916 -2.00158 0
M  V30 2207 C 233.979 -0.0418149 -1.66047 0
M  V30 2208 O 235.164 -0.209793 -1.89643 0
M  V30 2209 C 232.304 -0.834307 -3.34863 0
M  V30 2210 C 231.417 -2.02234 -3.8174 0
M  V30 2211 C 230.552 -1.64664 -5.05034 0
M  V30 2212 C 229.591 -2.80033 -5.44286 0
M  V30 2213 N 228.728 -2.42843 -6.58765 0
M  V30 2214 H 233.568 -2.09403 -2.12025 0
M  V30 2215 H 231.105 -1.042 -1.0383 0
M  V30 2216 H 233.063 -0.632436 -4.12379 0
M  V30 2217 H 231.693 0.0736656 -3.22716 0
M  V30 2218 H 230.745 -2.33583 -3.00238 0
M  V30 2219 H 232.057 -2.88673 -4.06779 0
M  V30 2220 H 231.211 -1.4078 -5.9014 0
M  V30 2221 H 229.95 -0.753766 -4.8184 0
M  V30 2222 H 228.955 -3.04596 -4.57713 0
M  V30 2223 H 230.18 -3.69989 -5.6946 0
M  V30 2224 H 228.126 -1.56046 -6.3717 0
M  V30 2225 H 228.043 -3.22815 -6.83613 0
M  V30 2226 H 229.311 -2.22285 -7.47134 0
M  V30 2227 N 233.54 1.10788 -1.12088 0
M  V30 2228 C 234.47 2.19083 -0.807755 0
M  V30 2229 C 235.451 1.6858 0.226859 0
M  V30 2230 O 236.636 1.93997 0.0888475 0
M  V30 2231 C 233.766 3.46344 -0.257576 0
M  V30 2232 C 232.72 4.101 -1.22483 0
M  V30 2233 C 232.046 5.32016 -0.535052 0
M  V30 2234 C 233.346 4.54236 -2.57811 0
M  V30 2235 H 235.04 2.45534 -1.71328 0
M  V30 2236 H 232.586 1.1801 -0.825205 0
M  V30 2237 H 234.539 4.21392 -0.0262679 0
M  V30 2238 H 233.263 3.19373 0.683278 0
M  V30 2239 H 231.922 3.37054 -1.44189 0
M  V30 2240 H 231.57 5.01319 0.410827 0
M  V30 2241 H 231.27 5.75625 -1.18024 0
M  V30 2242 H 232.794 6.09799 -0.312695 0
M  V30 2243 H 234.208 5.20575 -2.40155 0
M  V30 2244 H 232.605 5.08682 -3.18375 0
M  V30 2245 H 233.675 3.6734 -3.16528 0
M  V30 2246 N 235.018 0.912232 1.28515 0
M  V30 2247 C 235.948 0.416403 2.29757 0
M  V30 2248 C 236.929 -0.515194 1.6211 0
M  V30 2249 O 238.114 -0.423253 1.89532 0
M  V30 2250 C 235.244 -0.34572 3.45575 0
M  V30 2251 C 234.198 0.496599 4.25109 0
M  V30 2252 C 233.524 -0.393771 5.33248 0
M  V30 2253 C 234.824 1.75307 4.92001 0
M  V30 2254 H 236.518 1.26249 2.7148 0
M  V30 2255 H 234.064 0.608515 1.30511 0
M  V30 2256 H 236.017 -0.703422 4.15488 0
M  V30 2257 H 234.741 -1.2257 3.02728 0
M  V30 2258 H 233.4 0.8368 3.56922 0
M  V30 2259 H 233.048 -1.27225 4.86644 0
M  V30 2260 H 232.748 0.166209 5.87365 0
M  V30 2261 H 234.272 -0.747389 6.06009 0
M  V30 2262 H 235.686 1.46437 5.54283 0
M  V30 2263 H 234.083 2.25534 5.56106 0
M  V30 2264 H 235.153 2.48176 4.16577 0
M  V30 2265 N 236.496 -1.42363 0.676048 0
M  V30 2266 C 237.426 -2.33497 0.0124832 0
M  V30 2267 C 238.407 -1.50748 -0.787981 0
M  V30 2268 O 239.592 -1.79346 -0.744884 0
M  V30 2269 C 236.722 -3.34377 -0.938582 0
M  V30 2270 C 235.676 -4.27289 -0.246622 0
M  V30 2271 C 235.002 -5.18386 -1.31071 0
M  V30 2272 C 236.302 -5.14916 0.875125 0
M  V30 2273 H 237.996 -2.89233 0.773593 0
M  V30 2274 H 235.542 -1.39073 0.37346 0
M  V30 2275 H 237.495 -3.97044 -1.41188 0
M  V30 2276 H 236.219 -2.76947 -1.73113 0
M  V30 2277 H 234.878 -3.66018 0.206456 0
M  V30 2278 H 234.526 -4.57282 -2.09528 0
M  V30 2279 H 234.226 -5.81378 -0.852839 0
M  V30 2280 H 235.75 -5.83929 -1.78492 0
M  V30 2281 H 237.164 -5.71262 0.482983 0
M  V30 2282 H 235.561 -5.86747 1.25887 0
M  V30 2283 H 236.631 -4.53242 1.72335 0
M  V30 2284 N 237.974 -0.419461 -1.51915 0
M  V30 2285 C 238.937 0.389116 -2.25873 0
M  V30 2286 C 239.937 0.964924 -1.28631 0
M  V30 2287 O 241.127 0.842179 -1.52489 0
M  V30 2288 C 238.259 1.54874 -3.03689 0
M  V30 2289 H 239.452 -0.258799 -2.98781 0
M  V30 2290 H 237.005 -0.172209 -1.55348 0
M  V30 2291 H 237.74 2.23323 -2.35154 0
M  V30 2292 H 237.525 1.14223 -3.75094 0
M  V30 2293 H 239.015 2.12046 -3.59759 0
M  V30 2294 N 239.452 1.56882 -0.150215 0
M  V30 2295 C 240.68 2.00593 0.506948 0
M  V30 2296 C 241.095 1.03033 1.58208 0
M  V30 2297 O 240.452 0.0278396 1.82479 0
M  V30 2298 C 240.503 3.44209 1.10465 0
M  V30 2299 O 240.224 4.3804 0.0724636 0
M  V30 2300 C 241.725 4.03214 1.84211 0
M  V30 2301 H 238.945 0.65795 0.13169 0
M  V30 2302 H 241.489 2.03018 -0.245743 0
M  V30 2303 H 239.644 3.42625 1.80795 0
M  V30 2304 H 240.058 5.22007 0.510793 0
M  V30 2305 H 241.532 5.0569 2.21318 0
M  V30 2306 H 242.009 3.44107 2.72923 0
M  V30 2307 H 242.615 4.08437 1.18572 0
M  V30 2308 N 240.93 -0.123565 1.57115 0
M  V30 2309 C 242.155 -0.850398 1.89164 0
M  V30 2310 C 242.58 -1.7286 0.741688 0
M  V30 2311 O 241.938 -1.78665 -0.307958 0
M  V30 2312 C 241.986 -1.66353 3.19936 0
M  V30 2313 O 241.09 -2.77004 3.0552 0
M  V30 2314 H 240.431 -0.235454 0.620852 0
M  V30 2315 H 242.961 -0.107335 2.04318 0
M  V30 2316 H 242.971 -2.05372 3.52543 0
M  V30 2317 H 241.646 -1.01881 4.03228 0
M  V30 2318 H 240.223 -2.41221 2.84371 0
M  V30 2319 N 242.408 -1.52605 -0.393616 0
M  V30 2320 C 243.638 -1.71046 -1.15874 0
M  V30 2321 C 244.046 -0.426483 -1.84331 0
M  V30 2322 O 243.389 0.608513 -1.73329 0
M  V30 2323 C 243.451 -2.80118 -2.25332 0
M  V30 2324 C 243.115 -4.21381 -1.76881 0
M  V30 2325 C 244.112 -5.04697 -1.24808 0
M  V30 2326 C 241.797 -4.67683 -1.83244 0
M  V30 2327 C 243.791 -6.32393 -0.797387 0
M  V30 2328 C 241.478 -5.95364 -1.37787 0
M  V30 2329 C 242.476 -6.77549 -0.861208 0
M  V30 2330 O 242.164 -8.02837 -0.413252 0
M  V30 2331 H 241.896 -0.576155 -0.353583 0
M  V30 2332 H 244.45 -2.00018 -0.467123 0
M  V30 2333 H 242.68 -2.46557 -2.97904 0
M  V30 2334 H 244.369 -2.87006 -2.87023 0
M  V30 2335 H 245.135 -4.70111 -1.19252 0
M  V30 2336 H 241.014 -4.03805 -2.22401 0
M  V30 2337 H 244.558 -6.9649 -0.393437 0
M  V30 2338 H 240.455 -6.29455 -1.43026 0
M  V30 2339 H 241.223 -8.16749 -0.53515 0
M  V30 2340 N 243.887 0.651787 -1.4349 0
M  V30 2341 C 245.298 1.233 -1.40193 0
M  V30 2342 C 245.649 1.9591 -0.106727 0
M  V30 2343 O 244.774 2.01316 0.793773 0
M  V30 2344 C 245.369 2.24257 -2.53957 0
M  V30 2345 C 243.928 2.77852 -2.5392 0
M  V30 2346 C 243.075 1.52517 -2.3159 0
M  V30 2347 H 246.026 0.443717 -1.52371 0
M  V30 2348 H 246.047 3.0646 -2.25528 0
M  V30 2349 H 245.559 1.71382 -3.4821 0
M  V30 2350 H 243.66 3.34786 -1.63551 0
M  V30 2351 H 243.773 3.25299 -3.51735 0
M  V30 2352 H 242.137 1.79915 -1.80285 0
M  V30 2353 H 242.92 1.01574 -3.27929 0
M  V30 2354 N 245.365 1.30045 0.890287 0
M  V30 2355 C 246.593 1.21472 1.67487 0
M  V30 2356 C 247.008 -0.223241 1.87476 0
M  V30 2357 O 246.365 -1.14828 1.41847 0
M  V30 2358 C 246.416 1.93394 3.05419 0
M  V30 2359 O 246.137 3.31576 2.86337 0
M  V30 2360 C 247.638 1.91414 3.99844 0
M  V30 2361 H 244.858 0.420604 0.522813 0
M  V30 2362 H 247.402 1.7158 1.11268 0
M  V30 2363 H 245.557 1.47099 3.58386 0
M  V30 2364 H 245.971 3.67929 3.73802 0
M  V30 2365 H 247.445 2.46285 4.94012 0
M  V30 2366 H 247.922 0.891833 4.3005 0
M  V30 2367 H 248.528 2.37496 3.52811 0
M  V30 2368 N 246.843 -1.10192 1.12674 0
M  V30 2369 C 248.068 -1.86523 0.906853 0
M  V30 2370 C 248.493 -1.80221 -0.538711 0
M  V30 2371 O 247.851 -1.17396 -1.38158 0
M  V30 2372 C 247.899 -3.32758 1.3894 0
M  V30 2373 O 247.003 -4.08449 0.5695 0
M  V30 2374 H 246.344 -0.578678 0.325619 0
M  V30 2375 H 248.874 -1.39203 1.49946 0
M  V30 2376 H 248.884 -3.83608 1.38958 0
M  V30 2377 H 247.559 -3.36661 2.44197 0
M  V30 2378 H 246.136 -3.67427 0.636528 0
M  V30 2379 N 248.321 -0.919034 -1.28029 0
M  V30 2380 C 249.546 -0.570357 -1.99403 0
M  V30 2381 C 249.971 0.842486 -1.68178 0
M  V30 2382 O 249.329 1.56391 -0.917141 0
M  V30 2383 C 249.377 -0.792541 -3.51783 0
M  V30 2384 O 248.481 0.145988 -4.12142 0
M  V30 2385 H 247.822 -0.220555 -0.6263 0
M  V30 2386 H 250.352 -1.23592 -1.63053 0
M  V30 2387 H 250.362 -0.704708 -4.01868 0
M  V30 2388 H 249.037 -1.82247 -3.73844 0
M  V30 2389 H 247.614 0.00897528 -3.72899 0
M  V30 2390 N 249.799 1.42003 -0.683588 0
M  V30 2391 C 251.024 2.06265 -0.216647 0
M  V30 2392 C 251.449 1.51059 1.12083 0
M  V30 2393 O 250.807 0.632638 1.69904 0
M  V30 2394 C 250.855 3.60191 -0.171759 0
M  V30 2395 O 249.959 4.03396 0.857069 0
M  V30 2396 H 249.3 0.65502 -0.108834 0
M  V30 2397 H 251.83 1.81982 -0.935077 0
M  V30 2398 H 251.84 4.08 0.0014303 0
M  V30 2399 H 250.515 3.99743 -1.14796 0
M  V30 2400 H 249.092 3.67117 0.654208 0
M  V30 2401 N 251.277 0.427512 1.51691 0
M  V30 2402 C 252.554 -0.201684 1.94557 0
M  V30 2403 C 252.934 -1.60981 1.36559 0
M  V30 2404 O 252.282 -2.21814 0.548702 0
M  V30 2405 C 252.492 -0.189394 3.48486 0
M  V30 2406 C 253.84 -0.39978 4.22714 0
M  V30 2407 O 254.864 -0.267945 3.55191 0
M  V30 2408 O 253.723 -0.661249 5.42485 0
M  V30 2409 H 250.817 -0.135261 0.815864 0
M  V30 2410 H 253.363 0.484782 1.62628 0
M  V30 2411 H 252.135 0.795431 3.8313 0
M  V30 2412 H 251.758 -0.919187 3.86829 0
M  V30 2413 N 252.755 -1.56801 0.158532 0
M  V30 2414 C 253.983 -2.00859 -0.496303 0
M  V30 2415 C 254.398 -1.03871 -1.57659 0
M  V30 2416 O 253.755 -0.0375165 -1.82461 0
M  V30 2417 C 253.806 -3.4479 -1.08638 0
M  V30 2418 O 253.527 -4.38072 -0.0492322 0
M  V30 2419 C 255.028 -4.04185 -1.8207 0
M  V30 2420 H 252.248 -0.65864 -0.128199 0
M  V30 2421 H 254.792 -2.02885 0.256506 0
M  V30 2422 H 252.947 -3.43579 -1.78975 0
M  V30 2423 H 253.361 -5.2227 -0.483102 0
M  V30 2424 H 254.835 -5.06857 -2.18633 0
M  V30 2425 H 255.312 -3.45549 -2.71095 0
M  V30 2426 H 255.918 -4.0906 -1.16405 0
M  V30 2427 N 254.233 0.115231 -1.57178 0
M  V30 2428 C 255.165 1.16694 -1.97269 0
M  V30 2429 C 256.178 1.37445 -0.872502 0
M  V30 2430 O 257.367 1.36454 -1.15077 0
M  V30 2431 C 254.467 2.52627 -2.25905 0
M  V30 2432 C 253.64 2.52427 -3.57211 0
M  V30 2433 C 252.699 3.70134 -3.74016 0
M  V30 2434 O 251.725 3.53546 -4.46087 0
M  V30 2435 N 252.927 4.88844 -3.13068 0
M  V30 2436 H 255.692 0.82588 -2.88096 0
M  V30 2437 H 253.253 0.304461 -1.59011 0
M  V30 2438 H 255.245 3.29937 -2.34359 0
M  V30 2439 H 253.815 2.789 -1.41186 0
M  V30 2440 H 253.035 1.60805 -3.5991 0
M  V30 2441 H 254.323 2.49353 -4.43509 0
M  V30 2442 H 253.721 5.05225 -2.54489 0
M  V30 2443 H 252.278 5.63817 -3.27037 0
M  V30 2444 N 255.711 1.52812 0.385517 0
M  V30 2445 C 256.658 1.77838 1.47113 0
M  V30 2446 C 257.628 0.621757 1.54024 0
M  V30 2447 O 258.813 0.861846 1.70226 0
M  V30 2448 C 255.953 1.95618 2.84302 0
M  V30 2449 C 255.066 3.23316 2.86515 0
M  V30 2450 C 254.201 3.31394 4.15152 0
M  V30 2451 C 253.24 4.53201 4.1143 0
M  V30 2452 N 252.377 4.58542 5.3168 0
M  V30 2453 H 257.217 2.70482 1.25073 0
M  V30 2454 H 254.754 1.34006 0.606692 0
M  V30 2455 H 256.712 2.03912 3.63972 0
M  V30 2456 H 255.342 1.06331 3.04784 0
M  V30 2457 H 254.394 3.24076 1.99195 0
M  V30 2458 H 255.706 4.13045 2.79634 0
M  V30 2459 H 254.86 3.3889 5.03228 0
M  V30 2460 H 253.599 2.39645 4.24761 0
M  V30 2461 H 252.604 4.45827 3.21742 0
M  V30 2462 H 253.829 5.46271 4.03442 0
M  V30 2463 H 251.775 3.69686 5.41912 0
M  V30 2464 H 251.692 5.42148 5.26889 0
M  V30 2465 H 252.96 4.70296 6.21644 0
M  V30 2466 N 257.189 -0.644168 1.43834 0
M  V30 2467 C 258.099 -1.78563 1.52159 0
M  V30 2468 C 259.115 -1.69147 0.408069 0
M  V30 2469 O 260.291 -1.90156 0.663524 0
M  V30 2470 C 257.356 -3.14888 1.45073 0
M  V30 2471 C 256.417 -3.36034 2.6717 0
M  V30 2472 C 255.65 -4.65855 2.60413 0
M  V30 2473 O 255.873 -5.45805 1.65689 0
M  V30 2474 O 254.807 -4.88918 3.5106 0
M  V30 2475 H 258.633 -1.74494 2.48567 0
M  V30 2476 H 256.218 -0.80378 1.25935 0
M  V30 2477 H 258.1 -3.96179 1.43597 0
M  V30 2478 H 256.775 -3.19528 0.518037 0
M  V30 2479 H 255.682 -2.54472 2.74217 0
M  V30 2480 H 257.015 -3.36247 3.59442 0
M  V30 2481 N 258.668 -1.30515 -0.883378 0
M  V30 2482 C 259.916 -1.19194 -1.63209 0
M  V30 2483 C 260.237 0.253205 -1.93349 0
M  V30 2484 O 259.507 1.17025 -1.57105 0
M  V30 2485 H 258.087 -0.438148 -0.605009 0
M  V30 2486 H 260.749 -1.63663 -1.05832 0
M  V30 2487 H 259.845 -1.75396 -2.58153 0
M  V30 2488 N 260.146 1.09593 -1.13257 0
M  V30 2489 C 261.374 1.855 -0.916378 0
M  V30 2490 C 261.789 1.81069 0.534738 0
M  V30 2491 O 261.146 1.20562 1.37007 0
M  V30 2492 C 261.197 3.33546 -1.39388 0
M  V30 2493 O 260.918 3.37927 -2.78813 0
M  V30 2494 C 262.419 4.26299 -1.21588 0
M  V30 2495 H 259.639 0.585991 -0.326887 0
M  V30 2496 H 262.183 1.38488 -1.5047 0
M  V30 2497 H 260.338 3.77992 -0.848597 0
M  V30 2498 H 260.752 4.30254 -2.9997 0
M  V30 2499 H 262.226 5.28341 -1.59876 0
M  V30 2500 H 262.703 4.38918 -0.157376 0
M  V30 2501 H 263.309 3.87668 -1.7491 0
M  V30 2502 N 261.624 0.925811 1.2754 0
M  V30 2503 C 262.587 0.428129 2.25166 0
M  V30 2504 C 263.587 -0.452261 1.54309 0
M  V30 2505 O 264.777 -0.253608 1.72344 0
M  V30 2506 C 261.909 -0.384749 3.38722 0
M  V30 2507 H 263.102 1.29066 2.70706 0
M  V30 2508 H 260.655 0.706323 1.3943 0
M  V30 2509 H 261.39 -1.26618 2.98561 0
M  V30 2510 H 261.175 0.246454 3.91325 0
M  V30 2511 H 262.665 -0.723389 4.11287 0
M  V30 2512 N 263.102 -1.41638 0.69111 0
M  V30 2513 C 264.348 -2.02104 0.229258 0
M  V30 2514 C 264.703 -1.53741 -1.15678 0
M  V30 2515 O 263.996 -0.736849 -1.76865 0
M  V30 2516 C 264.19 -3.56714 0.221277 0
M  V30 2517 C 264.019 -4.20083 1.605 0
M  V30 2518 C 262.789 -4.54566 2.20676 0
M  V30 2519 C 264.987 -4.46587 2.55078 0
M  V30 2520 N 262.969 -5.03199 3.5166 0
M  V30 2521 C 264.34 -4.96946 3.70735 0
M  V30 2522 C 266.395 -4.28593 2.53401 0
M  V30 2523 C 265.098 -5.31203 4.8499 0
M  V30 2524 C 267.124 -4.63936 3.66765 0
M  V30 2525 C 266.486 -5.14463 4.81152 0
M  V30 2526 H 262.585 -0.771256 0.12918 0
M  V30 2527 H 265.169 -1.72251 0.907626 0
M  V30 2528 H 263.34 -3.86051 -0.426562 0
M  V30 2529 H 265.072 -4.03896 -0.254983 0
M  V30 2530 H 261.827 -4.4087 1.73005 0
M  V30 2531 H 262.251 -5.31926 4.18789 0
M  V30 2532 H 266.893 -3.88771 1.66184 0
M  V30 2533 H 264.611 -5.69951 5.72871 0
M  V30 2534 H 268.197 -4.51677 3.66714 0
M  V30 2535 H 267.077 -5.41299 5.67419 0
M  V30 2536 N 264.58 -0.43555 -1.51462 0
M  V30 2537 C 265.996 -0.0877501 -1.59359 0
M  V30 2538 C 266.196 1.4027 -1.4466 0
M  V30 2539 O 265.252 2.17243 -1.28693 0
M  V30 2540 C 266.565 -0.606264 -2.94525 0
M  V30 2541 C 268.113 -0.566548 -3.0783 0
M  V30 2542 C 268.588 -1.06201 -4.45517 0
M  V30 2543 N 270.079 -1.01992 -4.51832 0
M  V30 2544 C 270.814 -1.37417 -5.5669 0
M  V30 2545 N 270.31 -1.80119 -6.68976 0
M  V30 2546 N 272.103 -1.29245 -5.47039 0
M  V30 2547 H 264.254 -1.40533 -1.59261 0
M  V30 2548 H 266.517 -0.578992 -0.750648 0
M  V30 2549 H 266.223 -1.64901 -3.10645 0
M  V30 2550 H 266.097 -0.0302097 -3.77188 0
M  V30 2551 H 268.484 0.467208 -2.91378 0
M  V30 2552 H 268.565 -1.17898 -2.2701 0
M  V30 2553 H 268.209 -2.09422 -4.62715 0
M  V30 2554 H 268.139 -0.426127 -5.24873 0
M  V30 2555 H 270.63 -0.706308 -3.71241 0
M  V30 2556 H 270.943 -2.05392 -7.45006 0
M  V30 2557 H 269.288 -1.84044 -6.70189 0
M  V30 2558 H 272.479 -0.957522 -4.58202 0
M  V30 2559 H 272.652 -1.57182 -6.28648 0
M  V30 2560 N 266.058 1.56714 -0.166846 0
M  V30 2561 C 266.99 2.14914 0.796537 0
M  V30 2562 C 268.003 1.10357 1.19688 0
M  V30 2563 O 269.192 1.37561 1.13751 0
M  V30 2564 C 266.292 2.67326 2.08303 0
M  V30 2565 C 265.465 3.96493 1.84696 0
M  V30 2566 C 264.524 4.34014 2.97521 0
M  V30 2567 O 263.55 5.01973 2.6835 0
M  V30 2568 N 264.752 3.95208 4.25196 0
M  V30 2569 H 267.517 2.98205 0.299006 0
M  V30 2570 H 265.078 1.61892 0.0160839 0
M  V30 2571 H 267.07 2.89428 2.82867 0
M  V30 2572 H 265.64 1.88649 2.4926 0
M  V30 2573 H 264.86 3.82814 0.940602 0
M  V30 2574 H 266.148 4.8086 1.66285 0
M  V30 2575 H 265.546 3.40487 4.51758 0
M  V30 2576 H 264.103 4.2232 4.96477 0
M  V30 2577 N 267.536 -0.106894 1.57237 0
M  V30 2578 C 268.499 -1.11466 2.0027 0
M  V30 2579 C 269.499 -1.33623 0.894519 0
M  V30 2580 O 270.689 -1.29935 1.16028 0
M  V30 2581 C 267.821 -2.46646 2.35327 0
M  V30 2582 H 269.014 -0.744516 2.90512 0
M  V30 2583 H 266.567 -0.351576 1.52295 0
M  V30 2584 H 267.302 -2.88558 1.48003 0
M  V30 2585 H 267.087 -2.31915 3.16161 0
M  V30 2586 H 268.577 -3.19151 2.69318 0
M  V30 2587 N 269.014 -1.53014 -0.377408 0
M  V30 2588 C 270.262 -1.6829 -1.11906 0
M  V30 2589 C 270.583 -0.431206 -1.90173 0
M  V30 2590 O 269.853 0.554595 -1.87886 0
M  V30 2591 H 268.433 -0.620371 -0.416112 0
M  V30 2592 H 271.095 -1.90167 -0.426893 0
M  V30 2593 H 270.191 -2.53862 -1.8155 0
M  V30 2594 N 270.492 0.636531 -1.44174 0
M  V30 2595 C 271.422 1.76003 -1.53444 0
M  V30 2596 C 272.403 1.65619 -0.387841 0
M  V30 2597 O 273.588 1.84461 -0.607257 0
M  V30 2598 C 270.718 3.14511 -1.4731 0
M  V30 2599 C 269.672 3.39677 -2.60391 0
M  V30 2600 C 268.998 4.78159 -2.39308 0
M  V30 2601 C 270.298 3.32772 -4.02567 0
M  V30 2602 H 271.992 1.68501 -2.47483 0
M  V30 2603 H 269.538 0.809237 -1.19111 0
M  V30 2604 H 271.491 3.92878 -1.52397 0
M  V30 2605 H 270.215 3.22783 -0.49785 0
M  V30 2606 H 268.874 2.63688 -2.54684 0
M  V30 2607 H 268.522 4.83128 -1.39988 0
M  V30 2608 H 268.222 4.95956 -3.15122 0
M  V30 2609 H 269.746 5.58762 -2.46205 0
M  V30 2610 H 271.16 4.01051 -4.09672 0
M  V30 2611 H 269.557 3.62104 -4.7854 0
M  V30 2612 H 270.627 2.30669 -4.2652 0
M  V30 2613 N 271.97 1.30982 0.876444 0
M  V30 2614 C 273.386 1.09498 1.16113 0
M  V30 2615 C 273.586 -0.13875 2.01022 0
M  V30 2616 O 272.642 -0.829935 2.38471 0
M  V30 2617 C 273.955 2.36308 1.85954 0
M  V30 2618 C 275.503 2.41856 1.98683 0
M  V30 2619 C 275.978 3.6853 2.71937 0
M  V30 2620 N 277.469 3.69387 2.79477 0
M  V30 2621 C 278.204 4.64096 3.36753 0
M  V30 2622 N 277.7 5.69155 3.95012 0
M  V30 2623 N 279.493 4.51626 3.3465 0
M  V30 2624 H 271.644 2.10118 0.310494 0
M  V30 2625 H 273.907 0.926634 0.200131 0
M  V30 2626 H 273.613 3.26388 1.31011 0
M  V30 2627 H 273.487 2.4561 2.86278 0
M  V30 2628 H 275.874 1.52249 2.52793 0
M  V30 2629 H 275.955 2.36523 0.9742 0
M  V30 2630 H 275.599 4.58499 2.18496 0
M  V30 2631 H 275.529 3.71127 3.73593 0
M  V30 2632 H 278.02 2.93438 2.38123 0
M  V30 2633 H 278.333 6.3751 4.36808 0
M  V30 2634 H 276.678 5.72937 3.93406 0
M  V30 2635 H 279.869 3.68728 2.8837 0
M  V30 2636 H 280.042 5.25614 3.7899 0
M  V30 2637 N 273.449 -1.08991 1.13837 0
M  V30 2638 C 274.674 -1.85551 0.926585 0
M  V30 2639 C 275.099 -1.80782 -0.519566 0
M  V30 2640 O 274.457 -1.18855 -1.36906 0
M  V30 2641 C 274.505 -3.31266 1.42462 0
M  V30 2642 O 273.609 -4.07822 0.612789 0
M  V30 2643 H 272.95 -0.575192 0.331738 0
M  V30 2644 H 275.48 -1.37604 1.51414 0
M  V30 2645 H 275.49 -3.82112 1.43019 0
M  V30 2646 H 274.165 -3.34052 2.47754 0
M  V30 2647 H 272.742 -3.66731 0.675463 0
M  V30 2648 N 274.927 -0.932562 -1.27047 0
M  V30 2649 C 275.874 -0.434072 -2.26681 0
M  V30 2650 C 276.844 0.501639 -1.58344 0
M  V30 2651 O 278.029 0.419734 -1.86126 0
M  V30 2652 C 275.169 0.30261 -3.43771 0
M  V30 2653 C 274.282 -0.667774 -4.26808 0
M  V30 2654 C 273.417 0.0892393 -5.31125 0
M  V30 2655 C 272.456 -0.873532 -6.05835 0
M  V30 2656 N 271.593 -0.148832 -7.01942 0
M  V30 2657 H 276.433 -1.28868 -2.68695 0
M  V30 2658 H 273.97 -0.646713 -1.32121 0
M  V30 2659 H 275.928 0.746092 -4.10474 0
M  V30 2660 H 274.558 1.12142 -3.02695 0
M  V30 2661 H 273.61 -1.22978 -3.59973 0
M  V30 2662 H 274.922 -1.40337 -4.78651 0
M  V30 2663 H 274.076 0.592409 -6.03801 0
M  V30 2664 H 272.815 0.85777 -4.80097 0
M  V30 2665 H 271.82 -1.38791 -5.31994 0
M  V30 2666 H 273.045 -1.64193 -6.58952 0
M  V30 2667 H 270.991 0.601365 -6.53238 0
M  V30 2668 H 270.908 -0.82391 -7.51497 0
M  V30 2669 H 272.176 0.333527 -7.78786 0
M  V30 2670 N 276.405 1.4127 -0.698611 0
M  V30 2671 C 277.63 2.06024 -0.238512 0
M  V30 2672 C 278.055 1.5224 1.10475 0
M  V30 2673 O 277.413 0.650623 1.69223 0
M  V30 2674 C 277.461 3.59988 -0.209952 0
M  V30 2675 O 276.565 4.04282 0.814235 0
M  V30 2676 H 275.906 0.653829 -0.115775 0
M  V30 2677 H 278.436 1.8098 -0.954326 0
M  V30 2678 H 278.446 4.07979 -0.0418436 0
M  V30 2679 H 277.121 3.98503 -1.1903 0
M  V30 2680 H 275.698 3.6779 0.615234 0
M  V30 2681 N 277.883 0.443576 1.51229 0
M  V30 2682 C 278.815 -0.400608 2.25672 0
M  V30 2683 C 279.828 -0.980945 1.29928 0
M  V30 2684 O 281.017 -0.874024 1.55638 0
M  V30 2685 C 278.117 -1.57304 3.00181 0
M  V30 2686 C 277.29 -1.11046 4.23069 0
M  V30 2687 C 276.349 -2.15374 4.80105 0
M  V30 2688 O 275.375 -1.74554 5.41774 0
M  V30 2689 N 276.577 -3.47922 4.64683 0
M  V30 2690 H 279.342 0.23745 2.98758 0
M  V30 2691 H 276.903 0.272809 1.59585 0
M  V30 2692 H 278.895 -2.26733 3.35223 0
M  V30 2693 H 277.465 -2.11632 2.30066 0
M  V30 2694 H 276.685 -0.243019 3.9345 0
M  V30 2695 H 277.973 -0.778888 5.02803 0
M  V30 2696 H 277.371 -3.83815 4.15575 0
M  V30 2697 H 275.928 -4.13228 5.0407 0
M  V30 2698 N 279.361 -1.56624 0.175154 0
M  V30 2699 C 280.777 -1.58571 -0.180966 0
M  V30 2700 C 280.977 -1.19065 -1.6256 0
M  V30 2701 O 280.033 -0.904044 -2.35761 0
M  V30 2702 C 281.346 -3.00522 0.103326 0
M  V30 2703 C 282.894 -3.12972 0.0418426 0
M  V30 2704 C 283.369 -4.57022 0.299175 0
M  V30 2705 N 284.86 -4.62541 0.247086 0
M  V30 2706 C 285.595 -5.71857 0.420318 0
M  V30 2707 N 285.091 -6.89717 0.652816 0
M  V30 2708 N 286.884 -5.60972 0.355957 0
M  V30 2709 H 279.035 -1.80589 1.11809 0
M  V30 2710 H 281.298 -0.837178 0.444788 0
M  V30 2711 H 281.004 -3.33916 1.10422 0
M  V30 2712 H 280.878 -3.72344 -0.603299 0
M  V30 2713 H 283.265 -2.79403 -0.949636 0
M  V30 2714 H 283.346 -2.43578 0.781238 0
M  V30 2715 H 282.99 -4.913 1.28788 0
M  V30 2716 H 282.92 -5.24579 -0.460876 0
M  V30 2717 H 285.411 -3.77829 0.0731895 0
M  V30 2718 H 285.724 -7.68911 0.774347 0
M  V30 2719 H 284.069 -6.91572 0.689476 0
M  V30 2720 H 287.26 -4.67773 0.174882 0
M  V30 2721 H 287.433 -6.46111 0.494388 0
M  V30 2722 N 280.839 0.0985539 -1.57292 0
M  V30 2723 C 282.25 0.653457 -1.74891 0
M  V30 2724 C 282.601 1.7929 -0.796838 0
M  V30 2725 O 281.726 2.16385 0.0254886 0
M  V30 2726 C 282.321 1.19216 -3.17133 0
M  V30 2727 C 280.88 1.69316 -3.36168 0
M  V30 2728 C 280.027 0.601294 -2.70702 0
M  V30 2729 H 282.978 -0.127497 -1.58187 0
M  V30 2730 H 282.999 2.06154 -3.19814 0
M  V30 2731 H 282.511 0.362635 -3.86402 0
M  V30 2732 H 280.612 2.5468 -2.71972 0
M  V30 2733 H 280.725 1.78853 -4.44464 0
M  V30 2734 H 279.089 1.0399 -2.32504 0
M  V30 2735 H 279.872 -0.217592 -3.4261 0
M  V30 2736 N 282.317 1.53212 0.369288 0
M  V30 2737 C 283.557 1.70915 1.12105 0
M  V30 2738 C 283.921 0.449444 1.86665 0
M  V30 2739 O 285.122 0.503105 2.6405 0
M  V30 2740 C 283.393 2.9222 2.05772 0
M  V30 2741 S 284.952 3.30609 2.88519 0
M  V30 2742 H 281.77 0.601445 0.379189 0
M  V30 2743 H 284.372 1.91306 0.402794 0
M  V30 2744 H 283.076 3.82103 1.49752 0
M  V30 2745 H 282.607 2.7422 2.82076 0
M  V30 2746 H 284.622 2.82333 4.08047 0
M  V30 2747 N 283.795 -0.628877 1.44509 0
M  V30 2748 C 285.041 -1.39045 1.47629 0
M  V30 2749 C 285.374 -1.93892 0.109343 0
M  V30 2750 O 284.649 -1.7379 -0.87334 0
M  V30 2751 C 284.932 -2.55408 2.53848 0
M  V30 2752 C 284.785 -2.05896 3.99909 0
M  V30 2753 C 286.104 -3.5759 2.56549 0
M  V30 2754 H 283.223 -0.504232 0.537512 0
M  V30 2755 H 285.865 -0.710854 1.76201 0
M  V30 2756 H 284.015 -3.13384 2.29615 0
M  V30 2757 H 285.687 -1.52734 4.35282 0
M  V30 2758 H 283.93 -1.37061 4.11578 0
M  V30 2759 H 284.601 -2.89681 4.69882 0
M  V30 2760 H 287.077 -3.09419 2.78207 0
M  V30 2761 H 285.953 -4.36527 3.32769 0
M  V30 2762 H 286.214 -4.11808 1.60832 0
M  V30 2763 N 285.273 -1.31445 -0.869486 0
M  V30 2764 C 286.22 -1.19135 -1.97675 0
M  V30 2765 C 287.19 -0.0770266 -1.65921 0
M  V30 2766 O 288.375 -0.249972 -1.89155 0
M  V30 2767 C 285.515 -0.905149 -3.33018 0
M  V30 2768 C 284.628 -2.10285 -3.77365 0
M  V30 2769 C 283.763 -1.75339 -5.01427 0
M  V30 2770 C 282.802 -2.91515 -5.38224 0
M  V30 2771 N 281.939 -2.56762 -6.53466 0
M  V30 2772 H 286.779 -2.13853 -2.07535 0
M  V30 2773 H 284.316 -1.06379 -1.01597 0
M  V30 2774 H 286.274 -0.719765 -4.10944 0
M  V30 2775 H 284.904 0.00519624 -3.228 0
M  V30 2776 H 283.956 -2.39899 -2.95216 0
M  V30 2777 H 285.268 -2.97237 -4.00564 0
M  V30 2778 H 284.422 -1.53266 -5.87022 0
M  V30 2779 H 283.161 -0.855801 -4.80133 0
M  V30 2780 H 282.166 -3.14237 -4.51149 0
M  V30 2781 H 283.391 -3.81985 -5.61484 0
M  V30 2782 H 281.337 -1.69526 -6.33717 0
M  V30 2783 H 281.254 -3.37243 -6.76612 0
M  V30 2784 H 282.522 -2.38083 -7.42251 0
M  V30 2785 N 286.751 1.08385 -1.14413 0
M  V30 2786 C 287.714 2.13486 -0.834048 0
M  V30 2787 C 288.714 1.59988 0.161418 0
M  V30 2788 O 289.904 1.74071 -0.0669575 0
M  V30 2789 C 287.036 3.4003 -0.243354 0
M  V30 2790 H 288.229 2.42425 -1.7655 0
M  V30 2791 H 285.782 1.24101 -0.950189 0
M  V30 2792 H 286.517 3.16726 0.696807 0
M  V30 2793 H 286.302 3.80157 -0.960367 0
M  V30 2794 H 287.792 4.17577 -0.0436242 0
M  V30 2795 N 288.23 0.939286 1.26551 0
M  V30 2796 C 289.507 0.5038 1.89001 0
M  V30 2797 C 289.887 -1.01854 1.84903 0
M  V30 2798 O 289.235 -1.87773 1.30206 0
M  V30 2799 C 289.445 1.063 3.32417 0
M  V30 2800 C 290.793 1.13051 4.09273 0
M  V30 2801 O 291.817 1.01345 3.41479 0
M  V30 2802 O 290.676 1.31233 5.30509 0
M  V30 2803 H 287.77 0.163897 0.810597 0
M  V30 2804 H 290.316 1.03173 1.34735 0
M  V30 2805 H 289.088 2.10665 3.29752 0
M  V30 2806 H 288.711 0.517408 3.94219 0
M  V30 2807 N 289.708 -1.40897 0.706093 0
M  V30 2808 C 290.933 -2.05895 0.249435 0
M  V30 2809 C 291.358 -1.52823 -1.09666 0
M  V30 2810 O 290.716 -0.659589 -1.68876 0
M  V30 2811 C 290.764 -3.59872 0.22904 0
M  V30 2812 O 289.868 -4.04708 -0.792784 0
M  V30 2813 H 289.209 -0.653206 0.119241 0
M  V30 2814 H 291.739 -1.80471 0.96391 0
M  V30 2815 H 291.749 -4.07951 0.0634791 0
M  V30 2816 H 290.424 -3.97866 1.21141 0
M  V30 2817 H 289.001 -3.68111 -0.59572 0
M  V30 2818 N 291.186 -0.45159 -1.50991 0
M  V30 2819 C 292.414 0.108334 -2.06616 0
M  V30 2820 C 292.829 1.35224 -1.31757 0
M  V30 2821 O 292.186 1.78475 -0.381174 0
M  V30 2822 C 292.237 0.41619 -3.59096 0
M  V30 2823 O 291.958 -0.778361 -4.3113 0
M  V30 2824 C 293.459 1.02523 -4.31282 0
M  V30 2825 H 290.679 0.00159995 -0.670998 0
M  V30 2826 H 293.223 -0.634771 -1.94399 0
M  V30 2827 H 291.378 1.10921 -3.71181 0
M  V30 2828 H 291.792 -0.511181 -5.22003 0
M  V30 2829 H 293.266 1.19053 -5.39009 0
M  V30 2830 H 293.743 2.01013 -3.905 0
M  V30 2831 H 294.349 0.371173 -4.23677 0
M  V30 2832 N 292.664 1.56529 -0.183458 0
M  V30 2833 C 293.596 2.15747 0.773697 0
M  V30 2834 C 294.609 1.1162 1.1851 0
M  V30 2835 O 295.798 1.3876 1.12285 0
M  V30 2836 C 292.898 2.6952 2.05456 0
M  V30 2837 C 292.071 3.98429 1.8048 0
M  V30 2838 C 291.13 4.37145 2.92901 0
M  V30 2839 O 290.156 5.04791 2.6301 0
M  V30 2840 N 291.358 3.99695 4.2098 0
M  V30 2841 H 294.123 2.98505 0.26736 0
M  V30 2842 H 291.684 1.619 -0.0010878 0
M  V30 2843 H 293.676 2.92412 2.79781 0
M  V30 2844 H 292.246 1.91282 2.47245 0
M  V30 2845 H 291.466 3.8379 0.899947 0
M  V30 2846 H 292.754 4.82597 1.61175 0
M  V30 2847 H 292.152 3.4526 4.48121 0
M  V30 2848 H 290.709 4.27562 4.9197 0
M  V30 2849 N 294.142 -0.090211 1.57342 0
M  V30 2850 C 295.419 -0.824761 1.77361 0
M  V30 2851 C 295.799 -1.96698 0.76637 0
M  V30 2852 O 295.147 -2.27586 -0.204179 0
M  V30 2853 C 295.357 -1.31481 3.23286 0
M  V30 2854 C 296.705 -1.75563 3.86604 0
M  V30 2855 O 297.729 -1.41093 3.27065 0
M  V30 2856 O 296.588 -2.39317 4.91314 0
M  V30 2857 H 293.682 -0.393776 0.727234 0
M  V30 2858 H 296.228 -0.0717138 1.69548 0
M  V30 2859 H 295 -0.496671 3.88135 0
M  V30 2860 H 294.623 -2.12973 3.35751 0
M  V30 2861 N 295.62 -1.53406 -0.361157 0
M  V30 2862 C 296.567 -1.80156 -1.44265 0
M  V30 2863 C 297.537 -0.646183 -1.53015 0
M  V30 2864 O 298.722 -0.888818 -1.68833 0
M  V30 2865 C 295.862 -2.00116 -2.81154 0
M  V30 2866 C 294.975 -3.27833 -2.81335 0
M  V30 2867 C 294.11 -3.37957 -4.09828 0
M  V30 2868 C 293.149 -4.59689 -4.04168 0
M  V30 2869 N 292.286 -4.66942 -5.24318 0
M  V30 2870 H 297.126 -2.72438 -1.20754 0
M  V30 2871 H 294.663 -1.34954 -0.585296 0
M  V30 2872 H 296.621 -2.09677 -3.60682 0
M  V30 2873 H 295.251 -1.11167 -3.03054 0
M  V30 2874 H 294.303 -3.27204 -1.94014 0
M  V30 2875 H 295.615 -4.17442 -2.73027 0
M  V30 2876 H 294.769 -3.46853 -4.97773 0
M  V30 2877 H 293.508 -2.46372 -4.20894 0
M  V30 2878 H 292.513 -4.50889 -3.14609 0
M  V30 2879 H 293.738 -5.5262 -3.947 0
M  V30 2880 H 291.684 -3.7826 -5.35962 0
M  V30 2881 H 291.601 -5.50462 -5.18197 0
M  V30 2882 H 292.869 -4.80127 -6.14084 0
M  V30 2883 N 297.098 0.621204 -1.44841 0
M  V30 2884 C 298.045 1.73267 -1.5247 0
M  V30 2885 C 299.015 1.6189 -0.371611 0
M  V30 2886 O 300.2 1.81668 -0.58321 0
M  V30 2887 C 297.34 3.11545 -1.48438 0
M  V30 2888 C 296.453 3.33827 -2.74196 0
M  V30 2889 C 295.588 4.62133 -2.61929 0
M  V30 2890 C 294.627 4.77627 -3.82804 0
M  V30 2891 N 293.764 5.97219 -3.69153 0
M  V30 2892 H 298.604 1.66082 -2.47428 0
M  V30 2893 H 296.141 0.810026 -1.22788 0
M  V30 2894 H 298.099 3.91528 -1.4409 0
M  V30 2895 H 296.729 3.1772 -0.570402 0
M  V30 2896 H 295.781 2.47715 -2.88689 0
M  V30 2897 H 297.093 3.41153 -3.6389 0
M  V30 2898 H 296.247 5.50291 -2.5547 0
M  V30 2899 H 294.986 4.57182 -1.69811 0
M  V30 2900 H 293.991 3.87896 -3.89637 0
M  V30 2901 H 295.216 4.84385 -4.75971 0
M  V30 2902 H 293.162 5.93339 -2.79794 0
M  V30 2903 H 293.079 6.05644 -4.52472 0
M  V30 2904 H 294.347 6.87912 -3.66603 0
M  V30 2905 N 298.576 1.31904 0.862503 0
M  V30 2906 C 299.539 1.20131 1.95195 0
M  V30 2907 C 300.539 0.126409 1.60302 0
M  V30 2908 O 301.729 0.376234 1.70089 0
M  V30 2909 C 298.861 0.845691 3.30244 0
M  V30 2910 H 300.054 2.16943 2.07064 0
M  V30 2911 H 297.607 1.15622 1.05172 0
M  V30 2912 H 298.342 -0.120957 3.24074 0
M  V30 2913 H 298.127 1.62276 3.56944 0
M  V30 2914 H 299.617 0.787418 4.10109 0
M  V30 2915 N 300.054 -1.07777 1.14986 0
M  V30 2916 C 301.465 -1.61766 0.932127 0
M  V30 2917 C 301.816 -1.88974 -0.527581 0
M  V30 2918 O 300.941 -1.65198 -1.39781 0
M  V30 2919 C 301.536 -2.93891 1.68563 0
M  V30 2920 C 300.095 -3.44639 1.5133 0
M  V30 2921 C 299.242 -2.18767 1.704 0
M  V30 2922 H 302.193 -0.909201 1.30074 0
M  V30 2923 H 302.214 -3.62623 1.15259 0
M  V30 2924 H 301.726 -2.74057 2.74799 0
M  V30 2925 H 299.827 -3.69564 0.474702 0
M  V30 2926 H 299.94 -4.20966 2.28746 0
M  V30 2927 H 298.304 -2.28253 1.13016 0
M  V30 2928 H 299.087 -2.01433 2.77992 0
M  V30 2929 N 301.532 -0.945985 -1.26051 0
M  V30 2930 C 302.465 -0.403619 -2.24602 0
M  V30 2931 C 303.443 0.510241 -1.54387 0
M  V30 2932 O 304.627 0.446593 -1.83133 0
M  V30 2933 C 301.754 0.419564 -3.36091 0
M  V30 2934 C 300.8 -0.433454 -4.24292 0
M  V30 2935 S 301.633 -1.86037 -5.02146 0
M  V30 2936 C 302.789 -1.04538 -6.17108 0
M  V30 2937 H 303.022 -1.23883 -2.7026 0
M  V30 2938 H 300.555 -0.749438 -1.34992 0
M  V30 2939 H 302.513 0.888595 -4.00767 0
M  V30 2940 H 301.174 1.22951 -2.89036 0
M  V30 2941 H 300.367 0.197486 -5.03613 0
M  V30 2942 H 299.969 -0.837357 -3.64506 0
M  V30 2943 H 302.261 -0.289923 -6.76879 0
M  V30 2944 H 303.204 -1.81222 -6.84518 0
M  V30 2945 H 303.612 -0.579319 -5.61519 0
M  V30 2946 N 303.011 1.40521 -0.713556 0
M  V30 2947 C 303.944 2.28198 -0.00881422 0
M  V30 2948 C 304.922 1.43227 0.769735 0
M  V30 2949 O 306.106 1.72641 0.756799 0
M  V30 2950 C 303.233 3.23758 0.994899 0
M  V30 2951 C 302.279 4.25391 0.3074 0
M  V30 2952 S 303.112 5.26765 -0.963247 0
M  V30 2953 C 304.268 6.25888 0.0384143 0
M  V30 2954 H 304.501 2.87622 -0.752407 0
M  V30 2955 H 302.034 1.45925 -0.504502 0
M  V30 2956 H 303.992 3.79341 1.56879 0
M  V30 2957 H 302.653 2.63396 1.71118 0
M  V30 2958 H 301.846 4.92596 1.0661 0
M  V30 2959 H 301.448 3.73497 -0.193879 0
M  V30 2960 H 303.74 6.71683 0.885912 0
M  V30 2961 H 304.683 7.05552 -0.60019 0
M  V30 2962 H 305.091 5.63072 0.401233 0
M  V30 2963 N 304.489 0.459591 1.5075 0
M  V30 2964 C 305.421 -0.37665 2.26084 0
M  V30 2965 C 306.434 -0.967109 1.30961 0
M  V30 2966 O 307.623 -0.857468 1.56556 0
M  V30 2967 C 304.723 -1.54112 3.01832 0
M  V30 2968 C 303.896 -1.06553 4.24223 0
M  V30 2969 C 302.955 -2.1027 4.82362 0
M  V30 2970 O 301.981 -1.68798 5.43595 0
M  V30 2971 N 303.183 -3.42974 4.68347 0
M  V30 2972 H 305.948 0.269124 2.98489 0
M  V30 2973 H 303.509 0.28972 1.59287 0
M  V30 2974 H 305.501 -2.23165 3.37608 0
M  V30 2975 H 304.071 -2.0918 2.32298 0
M  V30 2976 H 303.291 -0.201274 3.93686 0
M  V30 2977 H 304.579 -0.725516 5.03601 0
M  V30 2978 H 303.977 -3.79385 4.19623 0
M  V30 2979 H 302.534 -4.07858 5.08424 0
M  V30 2980 N 305.967 -1.56429 0.191757 0
M  V30 2981 C 307.192 -2.02309 -0.456706 0
M  V30 2982 C 307.617 -1.07103 -1.5463 0
M  V30 2983 O 306.975 -0.0539677 -1.8122 0
M  V30 2984 C 307.023 -3.46654 -0.993159 0
M  V30 2985 O 306.127 -3.54559 -2.10622 0
M  V30 2986 H 305.468 -0.655303 -0.107114 0
M  V30 2987 H 307.998 -2.02364 0.301653 0
M  V30 2988 H 308.008 -3.86377 -1.31061 0
M  V30 2989 H 306.683 -4.1544 -0.195504 0
M  V30 2990 H 305.26 -3.26708 -1.79767 0
M  V30 2991 N 307.445 0.0818655 -1.57387 0
M  V30 2992 C 308.377 1.12484 -1.997 0
M  V30 2993 C 309.39 1.35564 -0.90146 0
M  V30 2994 O 310.579 1.33982 -1.17945 0
M  V30 2995 C 307.679 2.47778 -2.31213 0
M  V30 2996 C 306.852 2.44793 -3.62485 0
M  V30 2997 C 305.911 3.62117 -3.81782 0
M  V30 2998 O 304.937 3.44005 -4.53486 0
M  V30 2999 N 306.139 4.82094 -3.23367 0
M  V30 3000 H 308.904 0.764585 -2.89783 0
M  V30 3001 H 306.465 0.270664 -1.59621 0
M  V30 3002 H 308.457 3.24891 -2.41304 0
M  V30 3003 H 307.027 2.75843 -1.4707 0
M  V30 3004 H 306.247 1.53134 -3.6324 0
M  V30 3005 H 307.535 2.39889 -4.48699 0
M  V30 3006 H 306.933 4.99713 -2.65148 0
M  V30 3007 H 305.49 5.56753 -3.38923 0
M  V30 3008 N 308.923 1.53595 0.353017 0
M  V30 3009 C 310.148 1.7462 1.11904 0
M  V30 3010 C 310.573 0.479721 1.8188 0
M  V30 3011 O 309.931 -0.567066 1.72204 0
M  V30 3012 C 309.979 2.92029 2.11545 0
M  V30 3013 O 309.083 2.61516 3.18878 0
M  V30 3014 H 308.424 0.579531 0.324099 0
M  V30 3015 H 310.954 2.00525 0.406301 0
M  V30 3016 H 310.964 3.18551 2.5493 0
M  V30 3017 H 309.639 3.83888 1.60008 0
M  V30 3018 H 308.216 2.45852 2.80377 0
M  V30 3019 N 310.401 -0.613514 1.45168 0
M  V30 3020 C 311.817 -0.933629 1.29443 0
M  V30 3021 C 312.017 -2.00028 0.243101 0
M  V30 3022 O 311.073 -2.49848 -0.364992 0
M  V30 3023 C 312.386 -1.38018 2.67155 0
M  V30 3024 C 313.934 -1.49471 2.75004 0
M  V30 3025 C 314.409 -1.97503 4.13227 0
M  V30 3026 N 315.9 -2.04746 4.15491 0
M  V30 3027 C 316.635 -2.43121 5.19307 0
M  V30 3028 N 316.131 -2.80506 6.33473 0
M  V30 3029 N 317.924 -2.43408 5.06664 0
M  V30 3030 H 310.075 0.0916097 2.12202 0
M  V30 3031 H 312.338 -0.0216655 0.947752 0
M  V30 3032 H 312.044 -0.670625 3.45247 0
M  V30 3033 H 311.918 -2.34784 2.95222 0
M  V30 3034 H 314.305 -2.19519 1.9722 0
M  V30 3035 H 314.386 -0.510342 2.50657 0
M  V30 3036 H 314.03 -1.28045 4.91495 0
M  V30 3037 H 313.96 -2.96843 4.34962 0
M  V30 3038 H 316.451 -1.78468 3.33103 0
M  V30 3039 H 316.764 -3.08652 7.08487 0
M  V30 3040 H 315.109 -2.78216 6.36884 0
M  V30 3041 H 318.3 -2.13604 4.16523 0
M  V30 3042 H 318.473 -2.72989 5.87691 0
M  V30 3043 N 311.879 -1.3236 -0.855495 0
M  V30 3044 C 313.104 -1.2601 -1.64731 0
M  V30 3045 C 313.529 0.169068 -1.87339 0
M  V30 3046 O 312.887 1.12016 -1.42556 0
M  V30 3047 C 312.935 -2.02417 -2.98429 0
M  V30 3048 O 312.039 -1.3714 -3.8893 0
M  V30 3049 H 311.38 -0.434325 -0.502253 0
M  V30 3050 H 313.91 -1.74661 -1.06558 0
M  V30 3051 H 313.92 -2.12559 -3.48257 0
M  V30 3052 H 312.595 -3.06343 -2.81295 0
M  V30 3053 H 311.172 -1.3554 -3.47395 0
M  V30 3054 N 313.357 1.07166 -1.15556 0
M  V30 3055 C 314.597 1.81391 -0.94216 0
M  V30 3056 C 314.961 1.84788 0.521272 0
M  V30 3057 O 316.162 2.54904 0.85307 0
M  V30 3058 C 314.433 3.22431 -1.54185 0
M  V30 3059 S 315.992 4.13379 -1.47183 0
M  V30 3060 H 312.81 0.624963 -0.339031 0
M  V30 3061 H 315.412 1.28725 -1.4714 0
M  V30 3062 H 314.116 3.17548 -2.59984 0
M  V30 3063 H 313.647 3.80172 -1.01156 0
M  V30 3064 H 315.662 4.94007 -0.466004 0
M  V30 3065 N 314.835 0.952656 1.25548 0
M  V30 3066 C 316.063 0.623496 1.97282 0
M  V30 3067 C 316.478 -0.803987 1.70826 0
M  V30 3068 O 315.835 -1.53755 0.983147 0
M  V30 3069 C 315.886 0.870209 3.5087 0
M  V30 3070 O 315.607 2.24156 3.76412 0
M  V30 3071 C 317.108 0.553164 4.39835 0
M  V30 3072 H 314.328 0.233931 0.628902 0
M  V30 3073 H 316.872 1.27649 1.59768 0
M  V30 3074 H 315.027 0.263652 3.86502 0
M  V30 3075 H 315.441 2.31021 4.70882 0
M  V30 3076 H 316.915 0.776342 5.46513 0
M  V30 3077 H 317.392 -0.512215 4.36203 0
M  V30 3078 H 317.998 1.13896 4.09766 0
M  V30 3079 N 316.313 -1.40141 0.720998 0
M  V30 3080 C 317.223 -2.34486 0.0731031 0
M  V30 3081 C 318.239 -1.57587 -0.737723 0
M  V30 3082 O 319.415 -1.89949 -0.669429 0
M  V30 3083 C 316.48 -3.36528 -0.833656 0
M  V30 3084 C 315.541 -4.29298 -0.0121673 0
M  V30 3085 C 314.774 -5.26466 -0.875742 0
M  V30 3086 O 314.997 -5.29745 -2.11485 0
M  V30 3087 O 313.931 -6.01092 -0.31185 0
M  V30 3088 H 317.757 -2.9152 0.851444 0
M  V30 3089 H 315.342 -1.41427 0.481527 0
M  V30 3090 H 317.224 -3.99093 -1.35289 0
M  V30 3091 H 315.899 -2.81899 -1.59105 0
M  V30 3092 H 314.806 -3.70001 0.552262 0
M  V30 3093 H 316.139 -4.87094 0.707129 0
M  V30 3094 N 317.792 -0.46758 -1.50504 0
M  V30 3095 C 318.722 0.318381 -2.31319 0
M  V30 3096 C 319.703 0.993564 -1.38066 0
M  V30 3097 O 320.888 0.991411 -1.66987 0
M  V30 3098 C 318.018 1.40275 -3.17711 0
M  V30 3099 C 316.972 0.849373 -4.19487 0
M  V30 3100 C 316.298 2.03177 -4.94594 0
M  V30 3101 C 317.598 -0.136942 -5.2212 0
M  V30 3102 H 319.292 -0.356106 -2.97275 0
M  V30 3103 H 316.838 -0.172703 -1.42961 0
M  V30 3104 H 318.791 1.96004 -3.73042 0
M  V30 3105 H 317.515 2.10596 -2.49634 0
M  V30 3106 H 316.174 0.314076 -3.65252 0
M  V30 3107 H 315.822 2.72187 -4.22993 0
M  V30 3108 H 315.522 1.66774 -5.63436 0
M  V30 3109 H 317.046 2.59403 -5.52759 0
M  V30 3110 H 318.46 0.331056 -5.72343 0
M  V30 3111 H 316.857 -0.41507 -5.98663 0
M  V30 3112 H 317.927 -1.06398 -4.73083 0
M  V30 3113 N 319.27 1.56325 -0.20005 0
M  V30 3114 C 320.22 2.15939 0.731743 0
M  V30 3115 C 321.204 1.10154 1.17281 0
M  V30 3116 O 322.396 1.36203 1.13038 0
M  V30 3117 C 319.525 2.82614 1.94895 0
M  V30 3118 C 318.611 3.95596 1.52855 0
M  V30 3119 N 319.002 4.99118 0.819418 0
M  V30 3120 C 317.3 4.07288 1.81748 0
M  V30 3121 C 318.001 5.78513 0.608053 0
M  V30 3122 N 316.977 5.31117 1.15828 0
M  V30 3123 H 320.779 2.9334 0.181285 0
M  V30 3124 H 318.293 1.624 -0.000452172 0
M  V30 3125 H 320.29 3.23718 2.62702 0
M  V30 3126 H 318.95 2.06702 2.50408 0
M  V30 3127 H 319.961 5.15723 0.47436 0
M  V30 3128 H 316.638 3.42509 2.38734 0
M  V30 3129 H 318.028 6.71885 0.0451619 0
M  V30 3130 N 320.748 -0.0735177 1.57428 0
M  V30 3131 C 321.695 -1.08756 2.0357 0
M  V30 3132 C 322.665 -1.38559 0.916 0
M  V30 3133 O 323.85 -1.49656 1.18354 0
M  V30 3134 C 320.99 -2.39657 2.48311 0
M  V30 3135 C 320.103 -2.16399 3.73892 0
M  V30 3136 C 319.238 -3.40852 4.07423 0
M  V30 3137 C 318.277 -3.1295 5.2605 0
M  V30 3138 N 317.414 -4.29729 5.55228 0
M  V30 3139 H 322.254 -0.687104 2.8997 0
M  V30 3140 H 319.791 -0.327709 1.43403 0
M  V30 3141 H 321.749 -3.16081 2.72303 0
M  V30 3142 H 320.379 -2.77508 1.64891 0
M  V30 3143 H 319.431 -1.30676 3.57251 0
M  V30 3144 H 320.743 -1.91788 4.60455 0
M  V30 3145 H 319.897 -4.25671 4.32306 0
M  V30 3146 H 318.636 -3.68537 3.19425 0
M  V30 3147 H 317.641 -2.26526 5.00965 0
M  V30 3148 H 318.866 -2.86589 6.15665 0
M  V30 3149 H 316.812 -4.57448 4.70188 0
M  V30 3150 H 316.729 -4.08385 6.36206 0
M  V30 3151 H 317.997 -5.1555 5.84661 0
M  V30 3152 N 322.226 -1.5378 -0.344866 0
M  V30 3153 C 323.176 -1.78057 -1.42407 0
M  V30 3154 C 324.16 -0.635732 -1.47808 0
M  V30 3155 O 325.352 -0.89508 -1.527 0
M  V30 3156 C 322.481 -1.99242 -2.79566 0
M  V30 3157 C 321.567 -3.19787 -2.78562 0
M  V30 3158 N 321.958 -4.41284 -2.47189 0
M  V30 3159 C 320.256 -3.2093 -3.0971 0
M  V30 3160 C 320.957 -5.23128 -2.54385 0
M  V30 3161 N 319.933 -4.59813 -2.89953 0
M  V30 3162 H 323.735 -2.69588 -1.17046 0
M  V30 3163 H 321.249 -1.52687 -0.553217 0
M  V30 3164 H 323.246 -2.14768 -3.57324 0
M  V30 3165 H 321.906 -1.08953 -3.05875 0
M  V30 3166 H 322.917 -4.68657 -2.20411 0
M  V30 3167 H 319.594 -2.40603 -3.41199 0
M  V30 3168 H 320.984 -6.30096 -2.333 0
M  V30 3169 N 323.704 0.605807 -1.45491 0
M  V30 3170 C 324.634 1.72709 -1.57143 0
M  V30 3171 C 325.615 1.6476 -0.422884 0
M  V30 3172 O 326.8 1.83132 -0.646247 0
M  V30 3173 C 323.93 3.11316 -1.53948 0
M  V30 3174 C 322.884 3.34077 -2.67537 0
M  V30 3175 C 322.21 4.72975 -2.49397 0
M  V30 3176 C 323.51 3.24158 -4.09535 0
M  V30 3177 H 325.204 1.63214 -2.51001 0
M  V30 3178 H 322.75 0.78379 -1.208 0
M  V30 3179 H 324.703 3.89557 -1.60696 0
M  V30 3180 H 323.427 3.21655 -0.566205 0
M  V30 3181 H 322.086 2.58227 -2.6022 0
M  V30 3182 H 321.734 4.8005 -1.50205 0
M  V30 3183 H 321.434 4.8916 -3.25571 0
M  V30 3184 H 322.958 5.53414 -2.58002 0
M  V30 3185 H 324.372 3.92271 -4.18086 0
M  V30 3186 H 322.769 3.51872 -4.86113 0
M  V30 3187 H 323.839 2.2157 -4.31317 0
M  V30 3188 N 325.182 1.32811 0.848464 0
M  V30 3189 C 326.41 1.26739 1.63538 0
M  V30 3190 C 326.825 -0.163484 1.88091 0
M  V30 3191 O 326.182 -1.10258 1.45429 0
M  V30 3192 C 326.233 2.03013 2.99112 0
M  V30 3193 O 325.954 3.40518 2.75643 0
M  V30 3194 C 327.455 2.04038 3.93552 0
M  V30 3195 H 324.675 0.437024 0.509167 0
M  V30 3196 H 327.219 1.75033 1.05753 0
M  V30 3197 H 325.374 1.58426 3.53525 0
M  V30 3198 H 325.788 3.79635 3.61908 0
M  V30 3199 H 327.262 2.61877 4.85926 0
M  V30 3200 H 327.739 1.0282 4.26995 0
M  V30 3201 H 328.345 2.486 3.45077 0
M  V30 3202 N 326.66 -1.06551 1.16123 0
M  V30 3203 C 327.885 -1.83544 0.965735 0
M  V30 3204 C 328.31 -1.81843 -0.481102 0
M  V30 3205 O 327.668 -1.21732 -1.34354 0
M  V30 3206 C 327.716 -3.28169 1.49457 0
M  V30 3207 O 326.82 -4.0643 0.699157 0
M  V30 3208 H 326.161 -0.568026 0.343864 0
M  V30 3209 H 328.691 -1.34362 1.54299 0
M  V30 3210 H 328.701 -3.78992 1.51092 0
M  V30 3211 H 327.376 -3.28722 2.54784 0
M  V30 3212 H 325.953 -3.65216 0.7531 0
M  V30 3213 N 328.138 -0.959301 -1.25041 0
M  V30 3214 C 329.101 -0.487677 -2.23952 0
M  V30 3215 C 330.101 0.41119 -1.55454 0
M  V30 3216 O 331.291 0.207825 -1.72956 0
M  V30 3217 C 328.423 0.294807 -3.39623 0
M  V30 3218 H 329.616 -1.36198 -2.67189 0
M  V30 3219 H 327.169 -0.743042 -1.37508 0
M  V30 3220 H 327.904 1.18658 -3.01813 0
M  V30 3221 H 327.689 -0.35012 -3.90534 0
M  V30 3222 H 329.179 0.614089 -4.1306 0
M  V30 3223 N 329.616 1.39756 -0.72842 0
M  V30 3224 C 330.548 2.29157 -0.0446202 0
M  V30 3225 C 331.561 1.46484 0.710367 0
M  V30 3226 O 332.75 1.69632 0.55562 0
M  V30 3227 C 329.85 3.24987 0.961071 0
M  V30 3228 C 329.023 4.36572 0.268967 0
M  V30 3229 C 328.082 5.12756 1.18184 0
M  V30 3230 O 327.108 5.6534 0.661794 0
M  V30 3231 N 328.31 5.23331 2.51206 0
M  V30 3232 H 331.075 2.88482 -0.812295 0
M  V30 3233 H 328.636 1.51265 -0.577098 0
M  V30 3234 H 330.628 3.72827 1.57423 0
M  V30 3235 H 329.198 2.66739 1.63 0
M  V30 3236 H 328.418 3.90694 -0.524574 0
M  V30 3237 H 329.706 5.08363 -0.210934 0
M  V30 3238 H 329.104 4.82116 2.9594 0
M  V30 3239 H 327.661 5.74634 3.07634 0
M  V30 3240 N 331.094 0.475555 1.50254 0
M  V30 3241 C 332.334 -0.0765802 2.04256 0
M  V30 3242 C 332.698 -1.36587 1.34937 0
M  V30 3243 O 333.899 -2.00066 1.79519 0
M  V30 3244 C 332.17 -0.251668 3.56513 0
M  V30 3245 S 333.729 -0.761716 4.32138 0
M  V30 3246 H 330.547 -0.0138456 0.710865 0
M  V30 3247 H 333.149 0.643714 1.84598 0
M  V30 3248 H 331.853 0.692404 4.04517 0
M  V30 3249 H 331.384 -0.997946 3.80532 0
M  V30 3250 H 333.399 -2.03451 4.52573 0
M  V30 3251 N 332.573 -1.56217 0.208337 0
M  V30 3252 C 333.813 -1.99849 -0.428927 0
M  V30 3253 C 334.177 -1.09262 -1.57879 0
M  V30 3254 O 335.378 -1.42185 -2.28116 0
M  V30 3255 C 333.649 -3.46777 -0.864879 0
M  V30 3256 S 335.208 -4.12434 -1.49811 0
M  V30 3257 H 332.026 -0.697742 -0.136665 0
M  V30 3258 H 334.628 -1.92953 0.314519 0
M  V30 3259 H 333.332 -4.10396 -0.0181326 0
M  V30 3260 H 332.863 -3.57518 -1.64147 0
M  V30 3261 H 334.878 -4.10532 -2.78707 0
M  V30 3262 N 334.051 0.0651679 -1.57465 0
M  V30 3263 C 334.981 1.07693 -2.07182 0
M  V30 3264 C 335.962 1.39962 -0.966673 0
M  V30 3265 O 337.147 1.49475 -1.2398 0
M  V30 3266 C 334.277 2.3885 -2.52127 0
M  V30 3267 C 333.231 2.20917 -3.66579 0
M  V30 3268 C 332.557 3.57515 -3.97601 0
M  V30 3269 C 333.857 1.62493 -4.9638 0
M  V30 3270 H 335.551 0.663199 -2.91962 0
M  V30 3271 H 333.097 0.317569 -1.40455 0
M  V30 3272 H 335.05 3.09928 -2.85522 0
M  V30 3273 H 333.774 2.82215 -1.64384 0
M  V30 3274 H 332.433 1.52279 -3.33477 0
M  V30 3275 H 332.081 3.98463 -3.06979 0
M  V30 3276 H 331.781 3.46353 -4.74672 0
M  V30 3277 H 333.305 4.30013 -4.33499 0
M  V30 3278 H 334.719 2.23445 -5.27963 0
M  V30 3279 H 333.116 1.62009 -5.77818 0
M  V30 3280 H 334.186 0.587041 -4.81333 0
M  V30 3281 N 335.529 1.53961 0.336706 0
M  V30 3282 C 336.461 1.78751 1.4346 0
M  V30 3283 C 337.474 0.669019 1.48418 0
M  V30 3284 O 338.663 0.945884 1.51378 0
M  V30 3285 C 335.763 1.87844 2.82078 0
M  V30 3286 C 334.936 3.17854 3.00479 0
M  V30 3287 C 333.995 3.17816 4.19379 0
M  V30 3288 O 333.021 3.91511 4.13168 0
M  V30 3289 N 334.223 2.40669 5.2826 0
M  V30 3290 H 336.988 2.73493 1.22563 0
M  V30 3291 H 334.549 1.53096 0.526625 0
M  V30 3292 H 336.541 1.85261 3.59806 0
M  V30 3293 H 335.111 1.00257 2.96086 0
M  V30 3294 H 334.331 3.33504 2.10163 0
M  V30 3295 H 335.619 4.03718 3.0966 0
M  V30 3296 H 335.017 1.8036 5.36178 0
M  V30 3297 H 333.574 2.43877 6.04456 0
M  V30 3298 N 337.007 -0.598083 1.45811 0
M  V30 3299 C 338.284 -1.35777 1.40797 0
M  V30 3300 C 338.664 -2.10935 0.083462 0
M  V30 3301 O 338.012 -2.08505 -0.934763 0
M  V30 3302 C 338.222 -2.29666 2.62783 0
M  V30 3303 C 339.57 -2.91977 3.08277 0
M  V30 3304 O 340.594 -2.39984 2.63223 0
M  V30 3305 O 339.453 -3.86376 3.86491 0
M  V30 3306 H 336.547 -0.609291 0.55919 0
M  V30 3307 H 339.093 -0.620379 1.57954 0
M  V30 3308 H 337.865 -1.73454 3.50756 0
M  V30 3309 H 337.488 -3.1077 2.48008 0
M  V30 3310 N 338.485 -1.33259 -0.841409 0
M  V30 3311 C 339.901 -1.12538 -1.13169 0
M  V30 3312 C 340.101 0.0854037 -2.01319 0
M  V30 3313 O 339.157 0.766417 -2.40587 0
M  V30 3314 C 340.47 -2.41156 -1.79623 0
M  V30 3315 C 342.018 -2.47038 -1.922 0
M  V30 3316 C 342.493 -3.7561 -2.6207 0
M  V30 3317 N 343.984 -3.76667 -2.69585 0
M  V30 3318 C 344.719 -4.72861 -3.2433 0
M  V30 3319 N 344.215 -5.79428 -3.79783 0
M  V30 3320 N 346.008 -4.6034 -3.22558 0
M  V30 3321 H 338.159 -2.10868 -0.254676 0
M  V30 3322 H 340.422 -0.931615 -0.175493 0
M  V30 3323 H 340.128 -3.29747 -1.22311 0
M  V30 3324 H 340.002 -2.53114 -2.79666 0
M  V30 3325 H 342.389 -1.58898 -2.48667 0
M  V30 3326 H 342.47 -2.39022 -0.911148 0
M  V30 3327 H 342.114 -4.64131 -2.06263 0
M  V30 3328 H 342.044 -3.80902 -3.63622 0
M  V30 3329 H 344.535 -2.99648 -2.30259 0
M  V30 3330 H 344.848 -6.48867 -4.19752 0
M  V30 3331 H 343.193 -5.83166 -3.78078 0
M  V30 3332 H 346.384 -3.76244 -2.78492 0
M  V30 3333 H 346.557 -5.35478 -3.64921 0
M  V30 3334 N 339.963 1.05934 -1.16686 0
M  V30 3335 C 341.211 1.78447 -0.948744 0
M  V30 3336 C 341.532 1.87813 0.524523 0
M  V30 3337 O 340.802 1.38945 1.38098 0
M  V30 3338 H 339.382 0.660971 -0.348033 0
M  V30 3339 H 342.044 1.27947 -1.47022 0
M  V30 3340 H 341.14 2.80394 -1.37061 0
M  V30 3341 N 341.441 0.965919 1.2453 0
M  V30 3342 C 342.371 0.513476 2.27784 0
M  V30 3343 C 343.352 -0.445974 1.6415 0
M  V30 3344 O 344.537 -0.342485 1.91156 0
M  V30 3345 C 341.667 -0.198839 3.4673 0
M  V30 3346 C 340.621 0.676456 4.2262 0
M  V30 3347 C 339.947 -0.167248 5.34438 0
M  V30 3348 C 341.247 1.96017 4.84123 0
M  V30 3349 H 342.941 1.3765 2.65881 0
M  V30 3350 H 340.487 0.663321 1.27813 0
M  V30 3351 H 342.44 -0.526567 4.18097 0
M  V30 3352 H 341.164 -1.0962 3.07654 0
M  V30 3353 H 339.823 0.98743 3.53052 0
M  V30 3354 H 339.471 -1.0647 4.91603 0
M  V30 3355 H 339.171 0.415181 5.86131 0
M  V30 3356 H 340.695 -0.489688 6.08633 0
M  V30 3357 H 342.109 1.69814 5.47573 0
M  V30 3358 H 340.506 2.48918 5.4604 0
M  V30 3359 H 341.576 2.65622 4.05676 0
M  V30 3360 N 342.919 -1.39368 0.735821 0
M  V30 3361 C 343.851 -2.2913 0.0567723 0
M  V30 3362 C 344.864 -1.46859 -0.702589 0
M  V30 3363 O 346.053 -1.69925 -0.546616 0
M  V30 3364 C 343.153 -3.25492 -0.943823 0
M  V30 3365 C 342.326 -4.36709 -0.24581 0
M  V30 3366 C 341.385 -5.13376 -1.15463 0
M  V30 3367 O 340.411 -5.65683 -0.631803 0
M  V30 3368 N 341.613 -5.24656 -2.48427 0
M  V30 3369 H 344.378 -2.88047 0.827582 0
M  V30 3370 H 341.939 -1.50957 0.585112 0
M  V30 3371 H 343.931 -3.73657 -1.55443 0
M  V30 3372 H 342.501 -2.676 -1.61583 0
M  V30 3373 H 341.721 -3.9041 0.545286 0
M  V30 3374 H 343.009 -5.08244 0.237891 0
M  V30 3375 H 342.407 -4.83679 -2.93379 0
M  V30 3376 H 340.964 -5.76258 -3.04582 0
M  V30 3377 N 344.397 -0.483516 -1.5 0
M  V30 3378 C 345.808 -0.0314176 -1.86674 0
M  V30 3379 C 346.159 1.37728 -1.39733 0
M  V30 3380 O 345.284 2.02327 -0.767635 0
M  V30 3381 C 345.879 -0.0502376 -3.38763 0
M  V30 3382 C 344.438 0.346442 -3.74802 0
M  V30 3383 C 343.585 -0.430366 -2.7394 0
M  V30 3384 H 346.536 -0.697182 -1.42566 0
M  V30 3385 H 346.557 0.749116 -3.73053 0
M  V30 3386 H 346.069 -1.07563 -3.72897 0
M  V30 3387 H 344.17 1.37572 -3.46273 0
M  V30 3388 H 344.283 0.0391486 -4.79084 0
M  V30 3389 H 342.647 0.117557 -2.54429 0
M  V30 3390 H 343.43 -1.4555 -3.10918 0
M  V30 3391 N 345.875 1.56104 -0.216619 0
M  V30 3392 C 347.286 1.844 0.292128 0
M  V30 3393 C 347.637 1.13788 1.59833 0
M  V30 3394 O 346.762 0.405888 2.12559 0
M  V30 3395 C 347.357 3.3452 0.53681 0
M  V30 3396 C 345.916 3.63151 0.989876 0
M  V30 3397 C 345.063 2.77255 0.0502302 0
M  V30 3398 H 348.014 1.52481 -0.439926 0
M  V30 3399 H 348.035 3.54459 1.38345 0
M  V30 3400 H 347.547 3.85885 -0.414031 0
M  V30 3401 H 345.648 3.17238 1.95425 0
M  V30 3402 H 345.761 4.71177 0.867698 0
M  V30 3403 H 344.125 2.48555 0.556117 0
M  V30 3404 H 344.908 3.31416 -0.89544 0
M  V30 3405 N 347.353 -0.0568162 1.57498 0
M  V30 3406 C 348.593 -0.758273 1.89815 0
M  V30 3407 C 348.957 -1.73978 0.812132 0
M  V30 3408 O 350.158 -2.48744 1.01881 0
M  V30 3409 C 348.429 -1.43465 3.27342 0
M  V30 3410 S 349.988 -2.1691 3.81439 0
M  V30 3411 H 346.806 -0.251836 0.664906 0
M  V30 3412 H 349.408 -0.0137997 1.95495 0
M  V30 3413 H 348.112 -0.706693 4.0427 0
M  V30 3414 H 347.643 -2.21825 3.24896 0
M  V30 3415 H 349.658 -3.43658 3.5793 0
M  V30 3416 N 348.832 -1.54138 -0.328536 0
M  V30 3417 C 349.762 -1.86167 -1.40939 0
M  V30 3418 C 350.743 -0.718044 -1.54202 0
M  V30 3419 O 351.928 -0.971328 -1.68163 0
M  V30 3420 C 349.058 -2.08461 -2.77779 0
M  V30 3421 C 348.012 -3.24299 -2.7931 0
M  V30 3422 C 347.338 -3.31955 -4.19178 0
M  V30 3423 C 348.638 -4.62065 -2.43502 0
M  V30 3424 H 350.332 -2.76689 -1.14383 0
M  V30 3425 H 347.878 -1.33132 -0.548806 0
M  V30 3426 H 349.831 -2.29453 -3.53454 0
M  V30 3427 H 348.555 -1.14684 -3.05802 0
M  V30 3428 H 347.214 -3.03187 -2.0609 0
M  V30 3429 H 346.862 -2.35745 -4.44335 0
M  V30 3430 H 346.562 -4.09805 -4.2111 0
M  V30 3431 H 348.086 -3.55175 -4.96672 0
M  V30 3432 H 349.5 -4.8297 -3.08889 0
M  V30 3433 H 347.897 -5.42429 -2.56693 0
M  V30 3434 H 348.967 -4.64652 -1.38659 0
M  V30 3435 N 350.31 0.590341 -1.46126 0
M  V30 3436 C 351.242 1.71427 -1.52136 0
M  V30 3437 C 352.255 1.57542 -0.41042 0
M  V30 3438 O 353.444 1.65106 -0.678389 0
M  V30 3439 C 350.544 3.09605 -1.37834 0
M  V30 3440 C 349.717 3.49566 -2.62912 0
M  V30 3441 C 348.776 4.66773 -2.42918 0
M  V30 3442 O 347.802 4.73019 -3.1661 0
M  V30 3443 N 349.004 5.61161 -1.4859 0
M  V30 3444 H 351.769 1.66728 -2.49042 0
M  V30 3445 H 349.33 0.776113 -1.42085 0
M  V30 3446 H 351.322 3.85796 -1.22243 0
M  V30 3447 H 349.892 3.08714 -0.491393 0
M  V30 3448 H 349.112 2.63158 -2.93499 0
M  V30 3449 H 350.4 3.73028 -3.46017 0
M  V30 3450 H 349.798 5.58844 -0.87808 0
M  V30 3451 H 348.355 6.36814 -1.38965 0
M  V30 3452 N 351.788 1.33704 0.83433 0
M  V30 3453 C 353.013 1.28615 1.62705 0
M  V30 3454 C 353.438 -0.139242 1.87584 0
M  V30 3455 O 352.796 -1.09734 1.4432 0
M  V30 3456 C 352.844 2.07139 2.95171 0
M  V30 3457 O 351.948 1.4331 3.86699 0
M  V30 3458 H 351.289 0.44226 0.49528 0
M  V30 3459 H 353.819 1.76335 1.03766 0
M  V30 3460 H 353.829 2.18073 3.44831 0
M  V30 3461 H 352.504 3.10779 2.76386 0
M  V30 3462 H 351.081 1.4105 3.45195 0
M  V30 3463 N 353.266 -1.05314 1.17247 0
M  V30 3464 C 354.677 -1.59753 0.96623 0
M  V30 3465 C 355.028 -1.9005 -0.487378 0
M  V30 3466 O 354.153 -1.68126 -1.36245 0
M  V30 3467 C 354.748 -2.90249 1.74759 0
M  V30 3468 C 353.307 -3.41352 1.58606 0
M  V30 3469 C 352.454 -2.15103 1.75002 0
M  V30 3470 H 355.405 -0.881406 1.31973 0
M  V30 3471 H 355.426 -3.60097 1.22925 0
M  V30 3472 H 354.938 -2.68166 2.8055 0
M  V30 3473 H 353.039 -3.68474 0.552985 0
M  V30 3474 H 353.152 -4.16019 2.37624 0
M  V30 3475 H 351.516 -2.25804 1.17833 0
M  V30 3476 H 352.299 -1.95491 2.82202 0
M  V30 3477 N 354.744 -0.972509 -1.24016 0
M  V30 3478 C 356.16 -0.679827 -1.44397 0
M  V30 3479 C 356.36 0.756716 -1.86751 0
M  V30 3480 O 355.416 1.53007 -2.00861 0
M  V30 3481 C 356.729 -1.66803 -2.50195 0
M  V30 3482 C 358.277 -1.68119 -2.64017 0
M  V30 3483 C 358.752 -2.65748 -3.73017 0
M  V30 3484 N 360.243 -2.64219 -3.8045 0
M  V30 3485 C 360.978 -3.36433 -4.64328 0
M  V30 3486 N 360.474 -4.1818 -5.52356 0
M  V30 3487 N 362.267 -3.25235 -4.58453 0
M  V30 3488 H 354.418 -1.90059 -0.948228 0
M  V30 3489 H 356.681 -0.818527 -0.478245 0
M  V30 3490 H 356.387 -2.69498 -2.25973 0
M  V30 3491 H 356.261 -1.4446 -3.48441 0
M  V30 3492 H 358.648 -0.661319 -2.87594 0
M  V30 3493 H 358.729 -1.94525 -1.66113 0
M  V30 3494 H 358.373 -3.67872 -3.50189 0
M  V30 3495 H 358.303 -2.36619 -4.70446 0
M  V30 3496 H 360.794 -2.04887 -3.17537 0
M  V30 3497 H 361.107 -4.70157 -6.13329 0
M  V30 3498 H 359.452 -4.22273 -5.52006 0
M  V30 3499 H 362.643 -2.60829 -3.88698 0
M  V30 3500 H 362.816 -3.81776 -5.23594 0
M  V30 3501 N 356.222 1.38976 -0.743202 0
M  V30 3502 C 357.152 2.33171 -0.123873 0
M  V30 3503 C 358.133 1.54336 0.71516 0
M  V30 3504 O 359.318 1.82696 0.658467 0
M  V30 3505 C 356.448 3.38474 0.777978 0
M  V30 3506 C 355.402 4.27979 0.0424758 0
M  V30 3507 C 354.728 5.2405 1.06189 0
M  V30 3508 C 356.028 5.10155 -1.1198 0
M  V30 3509 H 357.722 2.85213 -0.910709 0
M  V30 3510 H 355.268 1.37133 -0.439388 0
M  V30 3511 H 357.221 4.03328 1.22084 0
M  V30 3512 H 355.945 2.84891 1.59702 0
M  V30 3513 H 354.604 3.64616 -0.380853 0
M  V30 3514 H 354.252 4.66758 1.87472 0
M  V30 3515 H 353.952 5.84785 0.574485 0
M  V30 3516 H 355.476 5.9178 1.50428 0
M  V30 3517 H 356.89 5.68307 -0.75499 0
M  V30 3518 H 355.287 5.80073 -1.53738 0
M  V30 3519 H 356.357 4.44504 -1.93764 0
M  V30 3520 N 357.7 0.491464 1.49741 0
M  V30 3521 C 359.111 0.0413169 1.86654 0
M  V30 3522 C 359.462 -1.36985 1.40462 0
M  V30 3523 O 358.587 -2.01917 0.778354 0
M  V30 3524 C 359.182 0.0682023 3.38731 0
M  V30 3525 C 357.741 -0.32656 3.74981 0
M  V30 3526 C 356.888 0.444888 2.73708 0
M  V30 3527 H 359.839 0.704733 1.42194 0
M  V30 3528 H 359.86 -0.729322 3.73445 0
M  V30 3529 H 359.372 1.09539 3.72321 0
M  V30 3530 H 357.473 -1.35734 3.46997 0
M  V30 3531 H 357.586 -0.013741 4.79098 0
M  V30 3532 H 355.95 -0.104062 2.54487 0
M  V30 3533 H 356.733 1.47197 3.10142 0
M  V30 3534 N 359.178 -1.55987 0.224894 0
M  V30 3535 C 360.141 -2.19178 -0.670348 0
M  V30 3536 C 361.141 -1.15461 -1.11917 0
M  V30 3537 O 362.331 -1.40675 -1.02743 0
M  V30 3538 C 359.463 -2.81777 -1.9187 0
M  V30 3539 H 360.656 -2.99662 -0.119364 0
M  V30 3540 H 358.209 -1.5628 -0.0247128 0
M  V30 3541 H 358.944 -2.05172 -2.51147 0
M  V30 3542 H 358.729 -3.57732 -1.60531 0
M  V30 3543 H 360.219 -3.30205 -2.55645 0
M  V30 3544 N 360.656 0.0484629 -1.57525 0
M  V30 3545 C 361.603 1.05504 -2.05275 0
M  V30 3546 C 362.573 1.37084 -0.937927 0
M  V30 3547 O 363.758 1.47754 -1.2072 0
M  V30 3548 C 360.898 2.35676 -2.52093 0
M  V30 3549 C 360.011 2.10423 -3.77288 0
M  V30 3550 C 359.146 3.34327 -4.12794 0
M  V30 3551 C 358.185 3.04542 -5.30962 0
M  V30 3552 N 357.322 4.20841 -5.61994 0
M  V30 3553 H 362.162 0.640885 -2.91027 0
M  V30 3554 H 359.699 0.304854 -1.43906 0
M  V30 3555 H 361.657 3.11709 -2.77297 0
M  V30 3556 H 360.287 2.7485 -1.69285 0
M  V30 3557 H 359.339 1.24976 -3.59284 0
M  V30 3558 H 360.651 1.84438 -4.63448 0
M  V30 3559 H 359.805 4.1874 -4.39024 0
M  V30 3560 H 358.544 3.63408 -3.25247 0
M  V30 3561 H 357.549 2.18528 -5.04505 0
M  V30 3562 H 358.774 2.76758 -6.20146 0
M  V30 3563 H 356.72 4.4991 -4.77406 0
M  V30 3564 H 356.637 3.98212 -6.42622 0
M  V30 3565 H 357.905 5.06184 -5.92789 0
M  V30 3566 N 362.134 1.5431 0.320358 0
M  V30 3567 C 363.044 1.86946 1.41734 0
M  V30 3568 C 364.06 0.761689 1.56443 0
M  V30 3569 O 365.236 1.05629 1.71477 0
M  V30 3570 C 362.301 2.09293 2.76401 0
M  V30 3571 C 361.362 3.33082 2.70841 0
M  V30 3572 C 360.595 3.54353 3.99086 0
M  V30 3573 O 360.818 2.79002 4.97508 0
M  V30 3574 O 359.752 4.47838 4.0215 0
M  V30 3575 H 363.578 2.80232 1.17062 0
M  V30 3576 H 361.163 1.40255 0.514673 0
M  V30 3577 H 363.045 2.25303 3.56113 0
M  V30 3578 H 361.72 1.19194 3.00956 0
M  V30 3579 H 360.627 3.22454 1.89668 0
M  V30 3580 H 361.96 4.23249 2.5124 0
M  V30 3581 N 363.613 -0.582584 1.46437 0
M  V30 3582 C 364.89 -1.34276 1.4223 0
M  V30 3583 C 365.27 -2.10835 0.10583 0
M  V30 3584 O 364.618 -2.09485 -0.912596 0
M  V30 3585 C 364.828 -2.26865 2.65204 0
M  V30 3586 C 366.176 -2.88691 3.11356 0
M  V30 3587 O 367.2 -2.37178 2.65753 0
M  V30 3588 O 366.059 -3.82255 3.90568 0
M  V30 3589 H 363.153 -0.603326 0.565621 0
M  V30 3590 H 365.699 -0.603591 1.58603 0
M  V30 3591 H 364.471 -1.69724 3.52576 0
M  V30 3592 H 364.094 -3.08122 2.5129 0
M  V30 3593 N 365.091 -1.34144 -0.827227 0
M  V30 3594 C 366.038 -1.25364 -1.93785 0
M  V30 3595 C 367.008 -0.129774 -1.65592 0
M  V30 3596 O 368.193 -0.310024 -1.88264 0
M  V30 3597 C 365.333 -1.01064 -3.2997 0
M  V30 3598 C 364.446 -2.22185 -3.70484 0
M  V30 3599 C 363.581 -1.91203 -4.95595 0
M  V30 3600 C 362.62 -3.08491 -5.28677 0
M  V30 3601 N 361.757 -2.77421 -6.44967 0
M  V30 3602 H 366.597 -2.20347 -2.00627 0
M  V30 3603 H 364.134 -1.09558 -0.981608 0
M  V30 3604 H 366.092 -0.850139 -4.08446 0
M  V30 3605 H 364.722 -0.0975026 -3.22653 0
M  V30 3606 H 363.774 -2.4917 -2.87434 0
M  V30 3607 H 365.086 -3.0983 -3.90905 0
M  V30 3608 H 364.24 -1.71864 -5.81848 0
M  V30 3609 H 362.979 -1.00812 -4.77167 0
M  V30 3610 H 361.984 -3.28431 -4.40923 0
M  V30 3611 H 363.209 -3.99655 -5.49047 0
M  V30 3612 H 361.155 -1.89601 -6.28003 0
M  V30 3613 H 361.072 -3.58598 -6.6554 0
M  V30 3614 H 362.34 -2.61577 -7.34301 0
M  V30 3615 N 366.569 1.04691 -1.17803 0
M  V30 3616 C 367.479 2.16057 -0.914151 0
M  V30 3617 C 368.495 1.73589 0.119503 0
M  V30 3618 O 369.671 2.01308 -0.0609468 0
M  V30 3619 C 366.736 3.4394 -0.436603 0
M  V30 3620 C 365.797 4.00825 -1.53746 0
M  V30 3621 C 365.03 5.22604 -1.0826 0
M  V30 3622 O 365.253 5.70367 0.0612244 0
M  V30 3623 O 364.187 5.7186 -1.87775 0
M  V30 3624 H 368.013 2.41169 -1.84584 0
M  V30 3625 H 365.598 1.1453 -0.959334 0
M  V30 3626 H 367.48 4.21024 -0.178057 0
M  V30 3627 H 366.155 3.20316 0.466869 0
M  V30 3628 H 365.062 3.25158 -1.84995 0
M  V30 3629 H 366.395 4.28778 -2.41683 0
M  V30 3630 N 368.047 0.979072 1.23499 0
M  V30 3631 C 369.458 0.684391 1.73704 0
M  V30 3632 C 369.809 -0.799448 1.79174 0
M  V30 3633 O 368.934 -1.62531 1.42873 0
M  V30 3634 C 369.529 1.23564 3.15464 0
M  V30 3635 C 368.088 0.99063 3.6313 0
M  V30 3636 C 367.235 1.36416 2.41425 0
M  V30 3637 H 370.186 1.15307 1.09041 0
M  V30 3638 H 370.207 0.607417 3.7562 0
M  V30 3639 H 369.719 2.31561 3.1145 0
M  V30 3640 H 367.82 -0.0733136 3.72528 0
M  V30 3641 H 367.933 1.64427 4.5 0
M  V30 3642 H 366.297 0.782616 2.42378 0
M  V30 3643 H 367.08 2.45387 2.40083 0
M  V30 3644 N 369.525 -1.3858 0.750561 0
M  V30 3645 C 370.773 -1.99789 0.30477 0
M  V30 3646 C 371.094 -1.59874 -1.11649 0
M  V30 3647 O 370.364 -0.85417 -1.76297 0
M  V30 3648 H 368.944 -0.738902 0.109694 0
M  V30 3649 H 371.606 -1.69391 0.963983 0
M  V30 3650 H 370.702 -3.09952 0.365499 0
M  V30 3651 N 371.003 -0.499398 -1.49478 0
M  V30 3652 C 371.913 0.284489 -2.32869 0
M  V30 3653 C 372.929 0.968885 -1.44529 0
M  V30 3654 O 374.105 0.95062 -1.77553 0
M  V30 3655 C 371.17 1.33594 -3.19928 0
M  V30 3656 C 370.231 0.665149 -4.24116 0
M  V30 3657 C 369.464 1.6665 -5.07014 0
M  V30 3658 O 369.687 2.89618 -4.91404 0
M  V30 3659 O 368.621 1.22271 -5.8935 0
M  V30 3660 H 372.447 -0.39802 -3.01081 0
M  V30 3661 H 370.032 -0.260758 -1.47107 0
M  V30 3662 H 371.914 1.94431 -3.73864 0
M  V30 3663 H 370.589 2.0014 -2.54412 0
M  V30 3664 H 369.496 0.0170769 -3.74096 0
M  V30 3665 H 370.829 0.0421555 -4.92182 0
M  V30 3666 N 372.481 1.55866 -0.233164 0
M  V30 3667 C 373.758 1.90471 0.444988 0
M  V30 3668 C 374.138 1.15209 1.7689 0
M  V30 3669 O 373.486 0.265119 2.26957 0
M  V30 3670 C 373.696 3.4333 0.626559 0
M  V30 3671 C 375.044 4.14319 0.92871 0
M  V30 3672 O 376.068 3.48993 0.712926 0
M  V30 3673 O 374.927 5.29846 1.33887 0
M  V30 3674 H 372.021 0.792347 0.236885 0
M  V30 3675 H 374.567 1.67437 -0.276211 0
M  V30 3676 H 373.339 3.90095 -0.306822 0
M  V30 3677 H 372.962 3.72181 1.39881 0
M  V30 3678 N 373.959 -0.0401083 1.57549 0
M  V30 3679 C 375.199 -0.738098 1.90608 0
M  V30 3680 C 375.563 -1.73107 0.830539 0
M  V30 3681 O 376.764 -2.4765 1.04513 0
M  V30 3682 C 375.035 -1.39985 3.28845 0
M  V30 3683 S 376.594 -2.12852 3.83718 0
M  V30 3684 H 373.412 -0.24477 0.667539 0
M  V30 3685 H 376.014 0.00693599 1.95499 0
M  V30 3686 H 374.718 -0.663775 4.04997 0
M  V30 3687 H 374.249 -2.18366 3.2723 0
M  V30 3688 H 376.264 -3.39842 3.61555 0
M  V30 3689 N 375.437 -1.54477 -0.31217 0
M  V30 3690 C 376.848 -1.64344 -0.885891 0
M  V30 3691 C 377.199 -0.54485 -1.88483 0
M  V30 3692 O 376.324 0.320387 -2.14015 0
M  V30 3693 C 376.919 -2.97908 -1.61357 0
M  V30 3694 C 375.478 -3.09933 -2.13585 0
M  V30 3695 C 374.625 -2.59971 -0.964897 0
M  V30 3696 H 377.576 -1.58448 -0.0894528 0
M  V30 3697 H 377.597 -2.88706 -2.47848 0
M  V30 3698 H 377.109 -3.77845 -0.886277 0
M  V30 3699 H 375.21 -2.34694 -2.89395 0
M  V30 3700 H 375.323 -4.15916 -2.37804 0
M  V30 3701 H 373.687 -2.16147 -1.34731 0
M  V30 3702 H 374.47 -3.42376 -0.251742 0
M  V30 3703 N 376.915 0.57481 -1.46744 0
M  V30 3704 C 378.14 1.36341 -1.56288 0
M  V30 3705 C 378.565 1.86954 -0.207347 0
M  V30 3706 O 377.923 1.62006 0.813871 0
M  V30 3707 C 377.971 2.52147 -2.57787 0
M  V30 3708 O 377.075 3.53834 -2.11838 0
M  V30 3709 H 376.416 0.405713 -0.525636 0
M  V30 3710 H 378.946 0.696453 -1.92382 0
M  V30 3711 H 378.956 2.98958 -2.77648 0
M  V30 3712 H 377.631 2.14663 -3.5622 0
M  V30 3713 H 376.208 3.1345 -2.01999 0
M  V30 3714 N 378.394 1.34581 0.820102 0
M  V30 3715 C 379.805 1.24298 1.39309 0
M  V30 3716 C 380.156 -0.130351 1.95767 0
M  V30 3717 O 379.281 -1.0308 1.90272 0
M  V30 3718 C 379.876 2.25054 2.53251 0
M  V30 3719 C 378.435 2.18552 3.0645 0
M  V30 3720 C 377.582 2.11503 1.79337 0
M  V30 3721 H 380.533 1.45906 0.624262 0
M  V30 3722 H 380.554 1.86917 3.31425 0
M  V30 3723 H 380.066 3.24996 2.1213 0
M  V30 3724 H 378.167 1.21976 3.52069 0
M  V30 3725 H 378.28 3.0993 3.65349 0
M  V30 3726 H 376.644 1.57268 2.00347 0
M  V30 3727 H 377.427 3.13284 1.40386 0
M  V30 3728 N 379.872 -1.04064 1.18357 0
M  V30 3729 C 380.804 -2.12114 0.868358 0
M  V30 3730 C 381.817 -1.62247 -0.134045 0
M  V30 3731 O 383.006 -1.78253 0.0937933 0
M  V30 3732 C 380.106 -3.37773 0.276132 0
M  V30 3733 C 379.279 -4.16874 1.3242 0
M  V30 3734 C 378.338 -5.20861 0.747662 0
M  V30 3735 O 377.364 -5.51141 1.42239 0
M  V30 3736 N 378.566 -5.78715 -0.454823 0
M  V30 3737 H 381.331 -2.39748 1.79836 0
M  V30 3738 H 378.892 -1.20258 1.08396 0
M  V30 3739 H 380.884 -4.04513 -0.123133 0
M  V30 3740 H 379.454 -3.07581 -0.557895 0
M  V30 3741 H 378.674 -3.45456 1.89878 0
M  V30 3742 H 379.962 -4.66516 2.03078 0
M  V30 3743 H 379.36 -5.56415 -1.02073 0
M  V30 3744 H 377.917 -6.46921 -0.79601 0
M  V30 3745 N 381.35 -0.985608 -1.22978 0
M  V30 3746 C 382.761 -0.693593 -1.73338 0
M  V30 3747 C 383.112 0.789935 -1.79595 0
M  V30 3748 O 382.237 1.61771 -1.43733 0
M  V30 3749 C 382.832 -1.25235 -3.14804 0
M  V30 3750 C 381.391 -1.00987 -3.626 0
M  V30 3751 C 380.538 -1.37695 -2.40698 0
M  V30 3752 H 383.489 -1.15884 -1.08428 0
M  V30 3753 H 383.51 -0.627329 -3.75293 0
M  V30 3754 H 383.022 -2.33209 -3.10218 0
M  V30 3755 H 381.123 0.0535565 -3.72562 0
M  V30 3756 H 381.236 -1.66812 -4.49122 0
M  V30 3757 H 379.6 -0.795459 -2.4196 0
M  V30 3758 H 380.383 -2.46657 -2.38779 0
M  V30 3759 N 382.828 1.3818 -0.7579 0
M  V30 3760 C 383.791 2.28764 -0.141286 0
M  V30 3761 C 384.791 1.47388 0.642907 0
M  V30 3762 O 385.981 1.67781 0.468536 0
M  V30 3763 C 383.113 3.31184 0.808069 0
M  V30 3764 H 384.306 2.848 -0.939633 0
M  V30 3765 H 381.859 1.47212 -0.525191 0
M  V30 3766 H 382.594 2.80247 1.63193 0
M  V30 3767 H 382.379 3.91314 0.248104 0
M  V30 3768 H 383.869 3.98909 1.23536 0
M  V30 3769 N 384.306 0.507319 1.49211 0
M  V30 3770 C 385.717 0.0611118 1.866 0
M  V30 3771 C 386.068 -1.35488 1.41907 0
M  V30 3772 O 385.193 -2.0108 0.799726 0
M  V30 3773 C 385.788 0.104125 3.3864 0
M  V30 3774 C 384.347 -0.28677 3.75306 0
M  V30 3775 C 383.494 0.473893 2.73221 0
M  V30 3776 H 386.445 0.719775 1.41439 0
M  V30 3777 H 386.466 -0.689672 3.74198 0
M  V30 3778 H 385.978 1.13482 3.71138 0
M  V30 3779 H 384.079 -1.32046 3.48417 0
M  V30 3780 H 384.192 0.0370745 4.79086 0
M  V30 3781 H 382.556 -0.0770644 2.54583 0
M  V30 3782 H 383.339 1.50478 3.08563 0
M  V30 3783 N 385.784 -1.5574 0.241426 0
M  V30 3784 C 386.747 -2.19877 -0.647063 0
M  V30 3785 C 387.747 -1.16642 -1.10686 0
M  V30 3786 O 388.937 -1.41757 -1.01245 0
M  V30 3787 C 386.069 -2.83797 -1.88871 0
M  V30 3788 H 387.262 -2.99772 -0.087574 0
M  V30 3789 H 384.815 -1.56298 -0.00813574 0
M  V30 3790 H 385.55 -2.07824 -2.48957 0
M  V30 3791 H 385.335 -3.59414 -1.56728 0
M  V30 3792 H 386.825 -3.32898 -2.52129 0
M  V30 3793 N 387.262 0.0317525 -1.57568 0
M  V30 3794 C 388.487 0.738664 -1.938 0
M  V30 3795 C 388.912 1.68242 -0.841208 0
M  V30 3796 O 388.27 1.80157 0.203267 0
M  V30 3797 C 388.318 1.47417 -3.29091 0
M  V30 3798 O 387.422 2.5872 -3.2115 0
M  V30 3799 H 386.763 0.198856 -0.633524 0
M  V30 3800 H 389.293 -0.0119713 -2.04596 0
M  V30 3801 H 389.303 1.84468 -3.63917 0
M  V30 3802 H 387.978 0.781988 -4.08482 0
M  V30 3803 H 386.555 2.24231 -2.97951 0
M  V30 3804 N 388.74 1.54641 0.303973 0
M  V30 3805 C 390.151 1.64811 0.877163 0
M  V30 3806 C 390.502 0.554838 1.88191 0
M  V30 3807 O 389.627 -0.309033 2.14182 0
M  V30 3808 C 390.222 2.9876 1.59775 0
M  V30 3809 C 388.781 3.11061 2.11938 0
M  V30 3810 C 387.928 2.60479 0.951097 0
M  V30 3811 H 390.879 1.58493 0.0810486 0
M  V30 3812 H 390.9 2.90017 2.46314 0
M  V30 3813 H 390.412 3.7831 0.866226 0
M  V30 3814 H 388.513 2.36225 2.88146 0
M  V30 3815 H 388.626 4.17171 2.35595 0
M  V30 3816 H 386.99 2.16859 1.33583 0
M  V30 3817 H 387.773 3.42504 0.233581 0
M  V30 3818 N 390.218 -0.567019 1.47046 0
M  V30 3819 C 391.634 -0.891975 1.32348 0
M  V30 3820 C 391.834 -1.99154 0.306616 0
M  V30 3821 O 390.89 -2.50883 -0.28532 0
M  V30 3822 C 392.203 -1.29449 2.7141 0
M  V30 3823 C 393.751 -1.40646 2.79621 0
M  V30 3824 C 394.226 -1.84257 4.19301 0
M  V30 3825 N 395.717 -1.91424 4.21795 0
M  V30 3826 C 396.452 -2.26476 5.26779 0
M  V30 3827 N 395.948 -2.60211 6.42077 0
M  V30 3828 N 397.741 -2.27166 5.14152 0
M  V30 3829 H 389.892 0.159074 2.11803 0
M  V30 3830 H 392.155 0.00849752 0.947962 0
M  V30 3831 H 391.861 -0.560448 3.47206 0
M  V30 3832 H 391.735 -2.25273 3.02542 0
M  V30 3833 H 394.122 -2.13133 2.04104 0
M  V30 3834 H 394.203 -0.430339 2.52154 0
M  V30 3835 H 393.847 -1.12343 4.95319 0
M  V30 3836 H 393.777 -2.82855 4.44185 0
M  V30 3837 H 396.268 -1.6778 3.38612 0
M  V30 3838 H 396.581 -2.85956 7.17948 0
M  V30 3839 H 394.926 -2.57813 6.45413 0
M  V30 3840 H 398.117 -2.00244 4.23107 0
M  V30 3841 H 398.29 -2.54154 5.96079 0
M  V30 3842 N 391.696 -1.35014 -0.812953 0
M  V30 3843 C 392.973 -1.18502 -1.55617 0
M  V30 3844 C 393.353 0.238421 -2.09749 0
M  V30 3845 O 392.701 1.2411 -1.91857 0
M  V30 3846 C 392.911 -2.24783 -2.66971 0
M  V30 3847 C 394.259 -2.60268 -3.35478 0
M  V30 3848 O 395.283 -2.23648 -2.77236 0
M  V30 3849 O 394.142 -3.2321 -4.40678 0
M  V30 3850 H 391.236 -0.459984 -0.687272 0
M  V30 3851 H 393.782 -1.46677 -0.853464 0
M  V30 3852 H 392.554 -3.20284 -2.24798 0
M  V30 3853 H 392.177 -1.97841 -3.44884 0
M  V30 3854 N 393.175 1.03435 -1.18907 0
M  V30 3855 C 394.4 1.80919 -1.01406 0
M  V30 3856 C 394.825 1.83055 0.432721 0
M  V30 3857 O 394.183 1.25252 1.31079 0
M  V30 3858 C 394.231 3.24091 -1.58105 0
M  V30 3859 O 393.335 4.04434 -0.806669 0
M  V30 3860 H 392.676 0.558709 -0.358803 0
M  V30 3861 H 395.206 1.30223 -1.57807 0
M  V30 3862 H 395.216 3.74853 -1.61087 0
M  V30 3863 H 393.891 3.21851 -2.6341 0
M  V30 3864 H 392.468 3.63091 -0.849666 0
M  V30 3865 N 394.653 0.992116 1.22453 0
M  V30 3866 C 395.583 0.561677 2.26644 0
M  V30 3867 C 396.564 -0.411055 1.65059 0
M  V30 3868 O 397.749 -0.301861 1.9184 0
M  V30 3869 C 394.879 -0.125247 3.47074 0
M  V30 3870 C 393.833 0.765948 4.21091 0
M  V30 3871 C 393.159 -0.0538484 5.34673 0
M  V30 3872 C 394.459 2.06242 4.79856 0
M  V30 3873 H 396.153 1.43259 2.62902 0
M  V30 3874 H 393.699 0.690283 1.26377 0
M  V30 3875 H 395.652 -0.437764 4.1912 0
M  V30 3876 H 394.376 -1.03069 3.0991 0
M  V30 3877 H 393.035 1.0621 3.50878 0
M  V30 3878 H 392.683 -0.960188 4.9375 0
M  V30 3879 H 392.383 0.539415 5.85119 0
M  V30 3880 H 393.907 -0.360477 6.09535 0
M  V30 3881 H 395.321 1.8139 5.43848 0
M  V30 3882 H 393.718 2.60444 5.40638 0
M  V30 3883 H 394.788 2.74167 3.99951 0
M  V30 3884 N 396.131 -1.37776 0.765217 0
M  V30 3885 C 397.094 -2.28686 0.153416 0
M  V30 3886 C 398.094 -1.47727 -0.635081 0
M  V30 3887 O 399.284 -1.68027 -0.459632 0
M  V30 3888 C 396.416 -3.31608 -0.790495 0
M  V30 3889 H 397.609 -2.84297 0.954723 0
M  V30 3890 H 395.162 -1.46932 0.53299 0
M  V30 3891 H 395.897 -2.81109 -1.61705 0
M  V30 3892 H 395.682 -3.9144 -0.227348 0
M  V30 3893 H 397.172 -3.99559 -1.21419 0
M  V30 3894 N 397.609 -0.515225 -1.4894 0
M  V30 3895 C 398.539 0.244628 -2.32215 0
M  V30 3896 C 399.52 0.949136 -1.41157 0
M  V30 3897 O 400.705 0.937783 -1.70057 0
M  V30 3898 C 397.835 1.30096 -3.22013 0
M  V30 3899 C 396.789 0.715486 -4.21977 0
M  V30 3900 C 396.115 1.87339 -5.00808 0
M  V30 3901 C 397.415 -0.302982 -5.2142 0
M  V30 3902 H 399.109 -0.450501 -2.95991 0
M  V30 3903 H 396.655 -0.218098 -1.42339 0
M  V30 3904 H 398.608 1.84037 -3.79089 0
M  V30 3905 H 397.332 2.02547 -2.56207 0
M  V30 3906 H 395.991 0.197715 -3.66066 0
M  V30 3907 H 395.639 2.58592 -4.31438 0
M  V30 3908 H 395.339 1.48764 -5.68457 0
M  V30 3909 H 396.863 2.41686 -5.60732 0
M  V30 3910 H 398.277 0.148802 -5.73107 0
M  V30 3911 H 396.674 -0.60532 -5.97039 0
M  V30 3912 H 397.744 -1.21395 -4.69459 0
M  V30 3913 N 399.087 1.5561 -0.249682 0
M  V30 3914 C 400.335 1.98618 0.373548 0
M  V30 3915 C 400.656 1.13919 1.58264 0
M  V30 3916 O 399.926 0.222637 1.94631 0
M  V30 3917 H 398.506 0.733571 0.141006 0
M  V30 3918 H 401.168 1.91748 -0.349117 0
M  V30 3919 H 400.264 3.04584 0.680796 0
M  V30 3920 N 400.565 -0.0233959 1.57583 0
M  V30 3921 C 401.981 -0.379134 1.55031 0
M  V30 3922 C 402.181 -1.76255 0.976548 0
M  V30 3923 O 401.237 -2.45266 0.600078 0
M  V30 3924 C 402.55 -0.275792 2.99433 0
M  V30 3925 C 404.098 -0.352458 3.11009 0
M  V30 3926 C 404.573 -0.278501 4.57152 0
M  V30 3927 N 406.064 -0.337123 4.61972 0
M  V30 3928 C 406.799 -0.302876 5.726 0
M  V30 3929 N 406.295 -0.220589 6.92449 0
M  V30 3930 N 408.088 -0.353023 5.6099 0
M  V30 3931 H 400.239 0.881869 1.93227 0
M  V30 3932 H 402.502 0.335867 0.886509 0
M  V30 3933 H 402.208 0.675108 3.4516 0
M  V30 3934 H 402.082 -1.06721 3.61788 0
M  V30 3935 H 404.469 -1.29379 2.65226 0
M  V30 3936 H 404.55 0.468409 2.51475 0
M  V30 3937 H 404.194 0.659189 5.03604 0
M  V30 3938 H 404.124 -1.11755 5.14605 0
M  V30 3939 H 406.615 -0.403002 3.75745 0
M  V30 3940 H 406.928 -0.199713 7.72542 0
M  V30 3941 H 405.273 -0.186555 6.9475 0
M  V30 3942 H 408.464 -0.415339 4.66254 0
M  V30 3943 H 408.637 -0.322866 6.47195 0
M  V30 3944 N 402.043 -1.548 -0.295768 0
M  V30 3945 C 403.006 -1.85363 -1.34808 0
M  V30 3946 C 404.006 -0.726817 -1.43436 0
M  V30 3947 O 405.196 -0.995088 -1.42981 0
M  V30 3948 C 402.328 -2.03859 -2.73229 0
M  V30 3949 H 403.521 -2.7941 -1.08949 0
M  V30 3950 H 401.074 -1.46942 -0.532702 0
M  V30 3951 H 401.809 -1.12117 -3.04303 0
M  V30 3952 H 401.594 -2.8588 -2.68356 0
M  V30 3953 H 403.084 -2.28857 -3.49305 0
M  V30 3954 N 403.521 0.559213 -1.47345 0
M  V30 3955 C 404.798 1.31997 -1.44348 0
M  V30 3956 C 405.178 2.1064 -0.139358 0
M  V30 3957 O 404.526 2.1091 0.879153 0
M  V30 3958 C 404.736 2.22618 -2.68779 0
M  V30 3959 C 406.084 2.83701 -3.1591 0
M  V30 3960 O 407.108 2.32921 -2.69493 0
M  V30 3961 O 405.967 3.75993 -3.966 0
M  V30 3962 H 403.061 0.594251 -0.575147 0
M  V30 3963 H 405.607 0.578282 -1.59543 0
M  V30 3964 H 404.379 1.64093 -3.55231 0
M  V30 3965 H 404.002 3.04085 -2.5616 0
M  V30 3966 N 404.999 1.35443 0.805782 0
M  V30 3967 C 406.41 1.25768 1.37983 0
M  V30 3968 C 406.761 -0.10958 1.95894 0
M  V30 3969 O 405.886 -1.01056 1.91355 0
M  V30 3970 C 406.481 2.27727 2.5085 0
M  V30 3971 C 405.04 2.2179 3.04115 0
M  V30 3972 C 404.187 2.13393 1.77084 0
M  V30 3973 H 407.138 1.4656 0.608752 0
M  V30 3974 H 407.159 1.90422 3.29424 0
M  V30 3975 H 406.671 3.27227 2.08671 0
M  V30 3976 H 404.772 1.25703 3.50756 0
M  V30 3977 H 404.885 3.13788 3.62042 0
M  V30 3978 H 403.249 1.59384 1.98668 0
M  V30 3979 H 404.032 3.14755 1.37056 0
M  V30 3980 N 406.477 -1.02803 1.19454 0
M  V30 3981 C 407.725 -1.75869 0.995722 0
M  V30 3982 C 408.046 -1.89138 -0.474543 0
M  V30 3983 O 407.316 -1.42558 -1.34366 0
M  V30 3984 H 405.896 -0.651511 0.365435 0
M  V30 3985 H 408.558 -1.24004 1.50363 0
M  V30 3986 H 407.654 -2.76661 1.44447 0
M  V30 3987 N 407.956 -0.998596 -1.21925 0
M  V30 3988 C 408.919 -0.558679 -2.22287 0
M  V30 3989 C 409.919 0.361525 -1.56683 0
M  V30 3990 O 411.109 0.152695 -1.73529 0
M  V30 3991 C 408.241 0.18661 -3.40389 0
M  V30 3992 H 409.434 -1.4463 -2.62721 0
M  V30 3993 H 406.987 -0.786413 -1.35075 0
M  V30 3994 H 407.722 1.08996 -3.05435 0
M  V30 3995 H 407.507 -0.474188 -3.89222 0
M  V30 3996 H 408.997 0.482367 -4.14805 0
M  V30 3997 N 409.434 1.37368 -0.772513 0
M  V30 3998 C 410.845 1.8231 -0.402493 0
M  V30 3999 C 411.196 1.6436 1.07146 0
M  V30 4000 O 410.321 1.15514 1.82991 0
M  V30 4001 C 410.916 3.30979 -0.723776 0
M  V30 4002 C 409.475 3.74195 -0.406802 0
M  V30 4003 C 408.622 2.59885 -0.967218 0
M  V30 4004 H 411.573 1.25829 -0.967099 0
M  V30 4005 H 411.594 3.80499 -0.00870832 0
M  V30 4006 H 411.106 3.44011 -1.7966 0
M  V30 4007 H 409.207 3.66732 0.658673 0
M  V30 4008 H 409.32 4.7027 -0.915588 0
M  V30 4009 H 407.684 2.51674 -0.391416 0
M  V30 4010 H 408.467 2.7571 -2.04546 0
M  V30 4011 N 410.912 0.523116 1.48665 0
M  V30 4012 C 412.158 -0.0134963 2.02796 0
M  V30 4013 C 412.491 -1.34582 1.40004 0
M  V30 4014 O 411.766 -1.86756 0.543381 0
M  V30 4015 C 412.049 -0.14276 3.59817 0
M  V30 4016 C 411.902 1.21425 4.331 0
M  V30 4017 C 413.221 -0.872856 4.31357 0
M  V30 4018 H 410.34 -0.00343074 0.736992 0
M  V30 4019 H 412.982 0.678816 1.7746 0
M  V30 4020 H 411.132 -0.732401 3.81534 0
M  V30 4021 H 412.804 1.84447 4.2282 0
M  V30 4022 H 411.047 1.79791 3.94788 0
M  V30 4023 H 411.718 1.07687 5.41394 0
M  V30 4024 H 414.194 -0.372555 4.14429 0
M  V30 4025 H 413.07 -0.932185 5.40927 0
M  V30 4026 H 413.331 -1.92161 3.98154 0
M  V30 4027 N 412.39 -1.55475 0.257931 0
M  V30 4028 C 413.615 -2.04064 -0.370488 0
M  V30 4029 C 414.04 -1.13565 -1.49948 0
M  V30 4030 O 413.398 -0.130781 -1.80828 0
M  V30 4031 C 413.446 -3.50554 -0.845237 0
M  V30 4032 O 412.55 -3.63173 -1.95394 0
M  V30 4033 H 411.891 -0.659257 -0.0792243 0
M  V30 4034 H 414.421 -2.00903 0.387212 0
M  V30 4035 H 414.431 -3.91588 -1.14555 0
M  V30 4036 H 413.106 -4.15896 -0.0191259 0
M  V30 4037 H 411.683 -3.34039 -1.65748 0
M  V30 4038 N 413.868 0.0150385 -1.57593 0
M  V30 4039 C 414.8 1.03912 -2.04291 0
M  V30 4040 C 415.813 1.31618 -0.958146 0
M  V30 4041 O 417.002 1.28859 -1.23522 0
M  V30 4042 C 414.102 2.37749 -2.41514 0
M  V30 4043 C 413.275 2.29198 -3.72541 0
M  V30 4044 C 412.334 3.45598 -3.96797 0
M  V30 4045 O 411.36 3.24461 -4.67668 0
M  V30 4046 N 412.562 4.67945 -3.43523 0
M  V30 4047 H 415.327 0.64099 -2.92765 0
M  V30 4048 H 412.888 0.20272 -1.60626 0
M  V30 4049 H 414.88 3.14364 -2.54867 0
M  V30 4050 H 413.45 2.69357 -1.58637 0
M  V30 4051 H 412.67 1.3759 -3.69408 0
M  V30 4052 H 413.958 2.20642 -4.5847 0
M  V30 4053 H 413.356 4.88017 -2.86104 0
M  V30 4054 H 411.913 5.41878 -3.62232 0
M  V30 4055 N 415.346 1.54954 0.287554 0
M  V30 4056 C 416.256 1.8991 1.37736 0
M  V30 4057 C 417.272 0.794701 1.54792 0
M  V30 4058 O 418.448 1.09243 1.69198 0
M  V30 4059 C 415.513 2.15108 2.71899 0
M  V30 4060 C 414.574 3.38752 2.63715 0
M  V30 4061 C 413.807 3.62739 3.91479 0
M  V30 4062 O 414.03 2.89492 4.91478 0
M  V30 4063 O 412.964 4.56267 3.92561 0
M  V30 4064 H 416.79 2.82652 1.11092 0
M  V30 4065 H 414.375 1.41315 0.484807 0
M  V30 4066 H 416.257 2.32806 3.51254 0
M  V30 4067 H 414.932 1.25551 2.9836 0
M  V30 4068 H 413.839 3.26405 1.82786 0
M  V30 4069 H 415.172 4.28483 2.42205 0
M  V30 4070 N 416.824 -0.551391 1.4764 0
M  V30 4071 C 418.101 -1.31229 1.45046 0
M  V30 4072 C 418.481 -2.10563 0.150527 0
M  V30 4073 O 417.829 -2.11374 -0.867956 0
M  V30 4074 C 418.039 -2.21189 2.69956 0
M  V30 4075 C 419.387 -2.82021 3.1741 0
M  V30 4076 O 420.411 -2.31488 2.70724 0
M  V30 4077 O 419.27 -3.73885 3.98588 0
M  V30 4078 H 416.364 -0.591193 0.578291 0
M  V30 4079 H 418.91 -0.569813 1.59847 0
M  V30 4080 H 417.682 -1.62207 3.56096 0
M  V30 4081 H 417.305 -3.02722 2.57769 0
M  V30 4082 N 418.302 -1.35869 -0.798587 0
M  V30 4083 C 419.235 -1.23801 -1.91699 0
M  V30 4084 C 420.213 -0.124143 -1.62125 0
M  V30 4085 O 421.397 -0.293656 -1.86199 0
M  V30 4086 C 418.524 -0.908063 -3.263 0
M  V30 4087 C 417.57 -2.0351 -3.74815 0
M  V30 4088 S 418.403 -3.65183 -3.91665 0
M  V30 4089 C 419.559 -3.34283 -5.29156 0
M  V30 4090 H 419.792 -2.18466 -2.01643 0
M  V30 4091 H 417.325 -1.21178 -0.956833 0
M  V30 4092 H 419.283 -0.724506 -4.04056 0
M  V30 4093 H 417.944 0.0206584 -3.14093 0
M  V30 4094 H 417.137 -1.75858 -4.72324 0
M  V30 4095 H 416.739 -2.1774 -3.04081 0
M  V30 4096 H 419.031 -2.87607 -6.13424 0
M  V30 4097 H 419.974 -4.31022 -5.61806 0
M  V30 4098 H 420.382 -2.69854 -4.95822 0
M  V30 4099 N 419.78 1.02168 -1.19998 0
M  V30 4100 C 420.712 2.10705 -0.901994 0
M  V30 4101 C 421.725 1.6244 0.108216 0
M  V30 4102 O 422.914 1.78082 -0.12214 0
M  V30 4103 C 420.014 3.37291 -0.329834 0
M  V30 4104 C 419.187 4.14714 -1.39035 0
M  V30 4105 C 418.246 5.19606 -0.830432 0
M  V30 4106 O 417.272 5.48809 -1.50989 0
M  V30 4107 N 418.474 5.79366 0.362696 0
M  V30 4108 H 421.239 2.36856 -1.83628 0
M  V30 4109 H 418.8 1.18518 -1.10296 0
M  V30 4110 H 420.792 4.04657 0.0587633 0
M  V30 4111 H 419.362 3.0843 0.508891 0
M  V30 4112 H 418.582 3.42392 -1.9535 0
M  V30 4113 H 419.87 4.63226 -2.10474 0
M  V30 4114 H 419.268 5.57968 0.932081 0
M  V30 4115 H 417.825 6.48106 0.69299 0
M  V30 4116 N 421.258 1.00505 1.21394 0
M  V30 4117 C 422.221 0.570459 2.21987 0
M  V30 4118 C 423.221 -0.353211 1.56873 0
M  V30 4119 O 424.411 -0.14349 1.73608 0
M  V30 4120 C 421.543 -0.168555 3.40483 0
M  V30 4121 H 422.736 1.46021 2.6195 0
M  V30 4122 H 420.289 0.793565 1.34656 0
M  V30 4123 H 421.024 -1.07374 3.06009 0
M  V30 4124 H 420.809 0.494823 3.88965 0
M  V30 4125 H 422.299 -0.460362 4.15055 0
M  V30 4126 N 422.737 -1.36956 0.779787 0
M  V30 4127 C 423.67 -2.27896 0.117681 0
M  V30 4128 C 424.648 -1.46736 -0.700523 0
M  V30 4129 O 425.832 -1.76055 -0.673568 0
M  V30 4130 C 422.959 -3.28136 -0.839296 0
M  V30 4131 C 422.005 -4.26373 -0.10409 0
M  V30 4132 S 422.838 -5.2157 1.21348 0
M  V30 4133 C 423.994 -6.25359 0.260249 0
M  V30 4134 H 424.227 -2.83704 0.888778 0
M  V30 4135 H 421.76 -1.43352 0.57355 0
M  V30 4136 H 423.718 -3.86394 -1.38601 0
M  V30 4137 H 422.379 -2.7126 -1.58356 0
M  V30 4138 H 421.572 -4.97121 -0.82986 0
M  V30 4139 H 421.174 -3.72147 0.371858 0
M  V30 4140 H 423.466 -6.75145 -0.564435 0
M  V30 4141 H 424.409 -7.01885 0.936135 0
M  V30 4142 H 424.817 -5.64345 -0.132127 0
M  V30 4143 N 424.215 -0.530993 -1.48385 0
M  V30 4144 C 425.461 0.00274135 -2.028 0
M  V30 4145 C 425.794 1.33838 -1.40716 0
M  V30 4146 O 425.069 1.86465 -0.553277 0
M  V30 4147 C 425.352 0.123676 -3.59888 0
M  V30 4148 C 425.205 -1.2372 -4.3245 0
M  V30 4149 C 426.524 0.849967 -4.31814 0
M  V30 4150 H 423.643 -0.000477758 -0.737 0
M  V30 4151 H 426.285 -0.688217 -1.77098 0
M  V30 4152 H 424.435 0.712157 -3.81917 0
M  V30 4153 H 426.107 -1.86687 -4.21836 0
M  V30 4154 H 424.35 -1.81882 -3.93829 0
M  V30 4155 H 425.021 -1.10557 -5.40815 0
M  V30 4156 H 427.497 0.350572 -4.14621 0
M  V30 4157 H 426.373 0.903486 -5.41413 0
M  V30 4158 H 426.634 1.90047 -3.99167 0
M  V30 4159 N 425.693 1.55336 -0.266172 0
M  V30 4160 C 426.625 2.19544 0.658247 0
M  V30 4161 C 427.638 1.17746 1.12427 0
M  V30 4162 O 428.827 1.44517 1.04772 0
M  V30 4163 C 425.927 2.80032 1.9088 0
M  V30 4164 C 425.1 4.07436 1.59106 0
M  V30 4165 C 424.159 4.52056 2.69317 0
M  V30 4166 O 423.185 5.18023 2.35883 0
M  V30 4167 N 424.387 4.21448 3.99201 0
M  V30 4168 H 427.152 2.99503 0.108754 0
M  V30 4169 H 424.713 1.61667 -0.0869059 0
M  V30 4170 H 426.705 3.06831 2.63888 0
M  V30 4171 H 425.275 2.04119 2.36758 0
M  V30 4172 H 424.495 3.88021 0.695243 0
M  V30 4173 H 425.783 4.90462 1.35367 0
M  V30 4174 H 425.181 3.68528 4.29189 0
M  V30 4175 H 423.738 4.53039 4.68614 0
M  V30 4176 N 427.171 -0.0066808 1.57599 0
M  V30 4177 C 428.101 -0.999296 2.11036 0
M  V30 4178 C 429.082 -1.36278 1.01795 0
M  V30 4179 O 430.267 -1.4477 1.29442 0
M  V30 4180 C 427.397 -2.29328 2.60818 0
M  V30 4181 C 426.351 -2.07159 3.74525 0
M  V30 4182 C 425.677 -3.42512 4.10596 0
M  V30 4183 C 426.977 -1.43959 5.02069 0
M  V30 4184 H 428.671 -0.554382 2.94223 0
M  V30 4185 H 426.217 -0.265221 1.41536 0
M  V30 4186 H 428.17 -2.99117 2.96828 0
M  V30 4187 H 426.894 -2.7592 1.74745 0
M  V30 4188 H 425.553 -1.39797 3.38899 0
M  V30 4189 H 425.201 -3.86795 3.21556 0
M  V30 4190 H 424.901 -3.28498 4.87199 0
M  V30 4191 H 426.425 -4.13628 4.4916 0
M  V30 4192 H 427.839 -2.03696 5.35893 0
M  V30 4193 H 426.236 -1.40452 5.83432 0
M  V30 4194 H 427.306 -0.407992 4.83181 0
M  V30 4195 N 428.649 -1.55105 -0.279332 0
M  V30 4196 C 429.898 -1.74618 -1.00952 0
M  V30 4197 C 430.211 -0.551096 -1.87676 0
M  V30 4198 O 431.417 -0.628507 -2.64125 0
M  V30 4199 C 429.873 -3.09025 -1.84476 0
M  V30 4200 C 429.481 -4.36081 -1.0265 0
M  V30 4201 C 431.225 -3.37891 -2.56963 0
M  V30 4202 C 429.132 -5.6153 -1.85576 0
M  V30 4203 H 428.062 -0.650868 -0.38064 0
M  V30 4204 H 430.713 -1.81569 -0.265475 0
M  V30 4205 H 429.095 -2.96095 -2.62952 0
M  V30 4206 H 430.269 -4.59909 -0.286354 0
M  V30 4207 H 428.584 -4.14312 -0.416464 0
M  V30 4208 H 431.181 -4.28822 -3.19399 0
M  V30 4209 H 431.524 -2.57737 -3.26921 0
M  V30 4210 H 432.057 -3.5189 -1.85522 0
M  V30 4211 H 428.796 -6.44413 -1.2005 0
M  V30 4212 H 428.316 -5.41854 -2.57204 0
M  V30 4213 H 429.995 -5.99594 -2.43096 0
M  V30 4214 N 430.127 0.543554 -1.4793 0
M  V30 4215 C 431.543 0.870806 -1.3375 0
M  V30 4216 C 431.743 1.9864 -0.338261 0
M  V30 4217 O 430.799 2.51305 0.245371 0
M  V30 4218 C 432.112 1.25114 -2.73435 0
M  V30 4219 C 433.66 1.3618 -2.81823 0
M  V30 4220 C 434.135 1.77563 -4.22179 0
M  V30 4221 N 435.626 1.8469 -4.24787 0
M  V30 4222 C 436.361 2.18067 -5.30315 0
M  V30 4223 N 435.857 2.49963 -6.46135 0
M  V30 4224 N 437.65 2.18958 -5.17701 0
M  V30 4225 H 429.801 -0.19275 -2.11524 0
M  V30 4226 H 432.064 -0.0235777 -0.947707 0
M  V30 4227 H 431.77 0.50514 -3.48053 0
M  V30 4228 H 431.644 2.20431 -3.06088 0
M  V30 4229 H 434.031 2.09859 -2.07468 0
M  V30 4230 H 434.112 0.390169 -2.52807 0
M  V30 4231 H 433.756 1.04449 -4.97044 0
M  V30 4232 H 433.686 2.75753 -4.48629 0
M  V30 4233 H 436.177 1.62372 -3.41239 0
M  V30 4234 H 436.49 2.74497 -7.22406 0
M  V30 4235 H 434.835 2.47513 -6.49432 0
M  V30 4236 H 438.026 1.93488 -4.2624 0
M  V30 4237 H 438.199 2.44639 -6.00047 0
M  V30 4238 N 431.605 1.3629 0.791371 0
M  V30 4239 C 432.835 1.33368 1.57786 0
M  V30 4240 C 433.243 -0.0875188 1.88997 0
M  V30 4241 O 432.586 -1.05427 1.50435 0
M  V30 4242 C 432.648 2.08802 2.92646 0
M  V30 4243 C 432.312 3.57903 2.84174 0
M  V30 4244 C 433.309 4.52191 2.56553 0
M  V30 4245 C 430.994 4.00762 3.02812 0
M  V30 4246 C 432.988 5.87315 2.47669 0
M  V30 4247 C 430.675 5.35977 2.93551 0
M  V30 4248 C 431.673 6.29066 2.66017 0
M  V30 4249 O 431.361 7.61798 2.56746 0
M  V30 4250 H 431.093 0.459166 0.496128 0
M  V30 4251 H 433.647 1.79952 0.990269 0
M  V30 4252 H 431.877 1.56878 3.53449 0
M  V30 4253 H 433.566 1.98762 3.53904 0
M  V30 4254 H 434.332 4.20393 2.41858 0
M  V30 4255 H 430.211 3.2868 3.2325 0
M  V30 4256 H 433.755 6.59943 2.26099 0
M  V30 4257 H 429.652 5.67384 3.07808 0
M  V30 4258 H 430.42 7.71898 2.72242 0
M  V30 4259 N 433.083 -1.0153 1.20538 0
M  V30 4260 C 434.016 -2.09759 0.898695 0
M  V30 4261 C 434.994 -1.61909 -0.149733 0
M  V30 4262 O 436.178 -1.88486 -0.0230293 0
M  V30 4263 C 433.305 -3.36913 0.347512 0
M  V30 4264 C 432.351 -4.03655 1.37713 0
M  V30 4265 S 433.184 -4.47402 2.94265 0
M  V30 4266 C 434.34 -5.77756 2.40726 0
M  V30 4267 H 434.573 -2.3545 1.81523 0
M  V30 4268 H 432.106 -1.14665 1.03399 0
M  V30 4269 H 434.064 -4.10484 0.0360518 0
M  V30 4270 H 432.725 -3.09291 -0.547546 0
M  V30 4271 H 431.918 -4.9514 0.940872 0
M  V30 4272 H 431.52 -3.36313 1.63614 0
M  V30 4273 H 433.812 -6.52994 1.80569 0
M  V30 4274 H 434.755 -6.2618 3.30612 0
M  V30 4275 H 435.163 -5.34081 1.82806 0
M  V30 4276 N 434.561 -1.01147 -1.20859 0
M  V30 4277 C 435.511 -0.548247 -2.2131 0
M  V30 4278 C 436.495 0.393646 -1.5601 0
M  V30 4279 O 437.687 0.217445 -1.75659 0
M  V30 4280 C 434.816 0.117252 -3.431 0
M  V30 4281 C 433.902 -0.846043 -4.15575 0
M  V30 4282 N 434.293 -2.00149 -4.64515 0
M  V30 4283 C 432.591 -0.665783 -4.41003 0
M  V30 4284 C 433.292 -2.60764 -5.19978 0
M  V30 4285 N 432.268 -1.88868 -5.09735 0
M  V30 4286 H 436.07 -1.42921 -2.56809 0
M  V30 4287 H 433.584 -0.876142 -1.36739 0
M  V30 4288 H 435.581 0.46662 -4.1428 0
M  V30 4289 H 434.241 0.994115 -3.09107 0
M  V30 4290 H 435.252 -2.38162 -4.5989 0
M  V30 4291 H 431.929 0.163456 -4.1718 0
M  V30 4292 H 433.319 -3.58519 -5.68255 0
M  V30 4293 N 436.039 1.36541 -0.78704 0
M  V30 4294 C 437.267 2.03561 -0.370199 0
M  V30 4295 C 437.682 1.59347 1.01263 0
M  V30 4296 O 437.039 0.781781 1.64907 0
M  V30 4297 C 437.09 3.59033 -0.421614 0
M  V30 4298 O 436.811 4.01634 -1.7499 0
M  V30 4299 C 438.312 4.433 0.00489763 0
M  V30 4300 H 435.532 0.653346 -0.152904 0
M  V30 4301 H 438.076 1.74566 -1.06522 0
M  V30 4302 H 436.231 3.86746 0.224971 0
M  V30 4303 H 436.645 4.96217 -1.69909 0
M  V30 4304 H 438.119 5.51939 -0.0822184 0
M  V30 4305 H 438.596 4.26285 1.05723 0
M  V30 4306 H 439.202 4.20843 -0.614085 0
M  V30 4307 N 437.518 0.538854 1.48102 0
M  V30 4308 C 438.748 0.0122958 2.06596 0
M  V30 4309 C 439.156 -1.27861 1.39457 0
M  V30 4310 O 438.499 -1.77348 0.478907 0
M  V30 4311 C 438.561 -0.273131 3.58461 0
M  V30 4312 C 438.225 0.92561 4.47528 0
M  V30 4313 C 439.222 1.82637 4.86765 0
M  V30 4314 C 436.907 1.13511 4.89306 0
M  V30 4315 C 438.901 2.92047 5.66558 0
M  V30 4316 C 436.588 2.23233 5.68868 0
M  V30 4317 C 437.586 3.12333 6.07402 0
M  V30 4318 O 437.274 4.20155 6.85365 0
M  V30 4319 H 437.006 0.0344283 0.675123 0
M  V30 4320 H 439.56 0.746494 1.91355 0
M  V30 4321 H 437.79 -1.06141 3.71848 0
M  V30 4322 H 439.479 -0.742842 3.99045 0
M  V30 4323 H 440.245 1.67649 4.55103 0
M  V30 4324 H 436.124 0.450835 4.5879 0
M  V30 4325 H 439.668 3.6162 5.96554 0
M  V30 4326 H 435.565 2.38201 5.99942 0
M  V30 4327 H 436.333 4.17975 7.03732 0
M  V30 4328 N 438.996 -1.55193 0.274407 0
M  V30 4329 C 440.236 -2.01488 -0.343778 0
M  V30 4330 C 440.6 -1.1586 -1.53103 0
M  V30 4331 O 441.801 -1.51732 -2.2188 0
M  V30 4332 C 440.072 -3.50134 -0.717021 0
M  V30 4333 S 441.631 -4.18417 -1.32184 0
M  V30 4334 H 438.449 -0.70291 -0.106948 0
M  V30 4335 H 441.051 -1.91446 0.396075 0
M  V30 4336 H 439.755 -4.10104 0.155947 0
M  V30 4337 H 439.286 -3.64159 -1.48835 0
M  V30 4338 H 441.301 -4.21984 -2.61044 0
M  V30 4339 N 440.474 -0.00167713 -1.576 0
M  V30 4340 C 441.404 0.988091 -2.11563 0
M  V30 4341 C 442.385 1.35736 -1.02517 0
M  V30 4342 O 443.57 1.44082 -1.30208 0
M  V30 4343 C 440.7 2.27941 -2.62031 0
M  V30 4344 C 439.654 2.0517 -3.75619 0
M  V30 4345 C 438.98 3.4033 -4.12407 0
M  V30 4346 C 440.28 1.41294 -5.02825 0
M  V30 4347 H 441.974 0.538771 -2.94513 0
M  V30 4348 H 439.52 0.257712 -1.41675 0
M  V30 4349 H 441.473 2.97539 -2.9841 0
M  V30 4350 H 440.197 2.74989 -1.76205 0
M  V30 4351 H 438.856 1.37998 -3.39635 0
M  V30 4352 H 438.504 3.85085 -3.23603 0
M  V30 4353 H 438.204 3.25909 -4.88935 0
M  V30 4354 H 439.728 4.1124 -4.51347 0
M  V30 4355 H 441.142 2.00851 -5.36965 0
M  V30 4356 H 439.539 1.37356 -5.84169 0
M  V30 4357 H 440.609 0.382362 -4.8339 0
M  V30 4358 N 441.952 1.55251 0.271103 0
M  V30 4359 C 443.363 1.66635 0.842007 0
M  V30 4360 C 443.714 0.594631 1.86972 0
M  V30 4361 O 442.839 -0.263532 2.14789 0
M  V30 4362 C 443.434 3.02082 1.53401 0
M  V30 4363 C 441.993 3.15487 2.05293 0
M  V30 4364 C 441.14 2.62438 0.895631 0
M  V30 4365 H 444.091 1.58629 0.0474117 0
M  V30 4366 H 444.112 2.95176 2.40107 0
M  V30 4367 H 443.624 3.80062 0.785786 0
M  V30 4368 H 441.725 2.42284 2.83071 0
M  V30 4369 H 441.838 4.22075 2.26693 0
M  V30 4370 H 440.202 2.19644 1.28953 0
M  V30 4371 H 440.985 3.42923 0.160878 0
M  V30 4372 N 443.43 -0.535701 1.48216 0
M  V30 4373 C 444.362 -1.65662 1.58394 0
M  V30 4374 C 445.375 -1.5591 0.468607 0
M  V30 4375 O 446.564 -1.62475 0.7392 0
M  V30 4376 C 443.664 -3.04276 1.4923 0
M  V30 4377 C 442.837 -3.39567 2.75705 0
M  V30 4378 C 441.896 -4.57436 2.60075 0
M  V30 4379 O 440.922 -4.60942 3.33948 0
M  V30 4380 N 442.124 -5.55259 1.69315 0
M  V30 4381 H 444.889 -1.5737 2.55058 0
M  V30 4382 H 442.45 -0.722845 1.44867 0
M  V30 4383 H 444.442 -3.80994 1.36477 0
M  V30 4384 H 443.012 -3.06677 0.605632 0
M  V30 4385 H 442.232 -2.52083 3.03064 0
M  V30 4386 H 443.52 -3.59929 3.59623 0
M  V30 4387 H 442.918 -5.552 1.08489 0
M  V30 4388 H 441.475 -6.31218 1.62504 0
M  V30 4389 N 444.908 -1.36708 -0.784132 0
M  V30 4390 C 446.324 -1.17237 -1.08294 0
M  V30 4391 C 446.524 -5.93947e-05 -2.015 0
M  V30 4392 O 445.58 0.663686 -2.43622 0
M  V30 4393 C 446.893 -2.48557 -1.69233 0
M  V30 4394 C 448.441 -2.54968 -1.8155 0
M  V30 4395 C 448.916 -3.86388 -2.45904 0
M  V30 4396 N 450.407 -3.87762 -2.53367 0
M  V30 4397 C 451.142 -4.86191 -3.03983 0
M  V30 4398 N 450.638 -5.95015 -3.54866 0
M  V30 4399 N 452.431 -4.73606 -3.02743 0
M  V30 4400 H 444.582 -2.11758 -0.16501 0
M  V30 4401 H 446.845 -0.93822 -0.135822 0
M  V30 4402 H 446.551 -3.34638 -1.08215 0
M  V30 4403 H 446.425 -2.64748 -2.68679 0
M  V30 4404 H 448.812 -1.69302 -2.41704 0
M  V30 4405 H 448.893 -2.42672 -0.80895 0
M  V30 4406 H 448.537 -4.72462 -1.86392 0
M  V30 4407 H 448.467 -3.95982 -3.4714 0
M  V30 4408 H 450.958 -3.09145 -2.17343 0
M  V30 4409 H 451.271 -6.66086 -3.91854 0
M  V30 4410 H 449.616 -5.98676 -3.53003 0
M  V30 4411 H 452.807 -3.87717 -2.62284 0
M  V30 4412 H 452.98 -5.50473 -3.41881 0
M  V30 4413 N 446.386 1.0089 -1.21074 0
M  V30 4414 C 447.333 2.09588 -0.966512 0
M  V30 4415 C 448.303 1.65761 0.106089 0
M  V30 4416 O 449.488 1.90758 -0.0402287 0
M  V30 4417 C 446.628 3.40958 -0.533058 0
M  V30 4418 C 445.741 3.9822 -1.67467 0
M  V30 4419 C 444.876 5.17682 -1.19076 0
M  V30 4420 C 443.915 5.67043 -2.30496 0
M  V30 4421 N 443.052 6.77759 -1.83267 0
M  V30 4422 H 447.892 2.29815 -1.89708 0
M  V30 4423 H 445.429 1.12689 -0.945489 0
M  V30 4424 H 447.387 4.1637 -0.263019 0
M  V30 4425 H 446.017 3.20781 0.360505 0
M  V30 4426 H 445.069 3.1983 -2.05944 0
M  V30 4427 H 446.381 4.3085 -2.51336 0
M  V30 4428 H 445.535 6.00326 -0.877151 0
M  V30 4429 H 444.274 4.86635 -0.322066 0
M  V30 4430 H 443.279 4.82999 -2.62664 0
M  V30 4431 H 444.504 6.00121 -3.17855 0
M  V30 4432 H 442.45 6.48527 -0.987356 0
M  V30 4433 H 442.367 7.09624 -2.60711 0
M  V30 4434 H 443.635 7.63949 -1.54928 0
M  V30 4435 N 447.864 1.01787 1.20321 0
M  V30 4436 C 448.794 0.609625 2.25401 0
M  V30 4437 C 449.775 -0.375951 1.65893 0
M  V30 4438 O 450.96 -0.261101 1.92437 0
M  V30 4439 C 448.09 -0.0515995 3.47262 0
M  V30 4440 C 447.044 0.855095 4.19371 0
M  V30 4441 C 446.37 0.0595757 5.34667 0
M  V30 4442 C 447.67 2.16374 4.75373 0
M  V30 4443 H 449.364 1.48803 2.59804 0
M  V30 4444 H 446.91 0.716934 1.24884 0
M  V30 4445 H 448.863 -0.348764 4.19954 0
M  V30 4446 H 447.587 -0.964726 3.12027 0
M  V30 4447 H 446.246 1.13628 3.48546 0
M  V30 4448 H 445.894 -0.85524 4.95676 0
M  V30 4449 H 445.594 0.663406 5.83843 0
M  V30 4450 H 447.118 -0.231105 6.10162 0
M  V30 4451 H 448.532 1.92885 5.39878 0
M  V30 4452 H 446.929 2.71853 5.34991 0
M  V30 4453 H 447.999 2.82589 3.94045 0
M  V30 4454 N 449.342 -1.36122 0.79427 0
M  V30 4455 C 450.753 -1.81646 0.431446 0
M  V30 4456 C 451.104 -1.66043 -1.04518 0
M  V30 4457 O 450.229 -1.1841 -1.8113 0
M  V30 4458 C 450.824 -3.29785 0.776341 0
M  V30 4459 C 449.383 -3.73501 0.466282 0
M  V30 4460 C 448.53 -2.58313 1.00844 0
M  V30 4461 H 451.481 -1.24274 0.986995 0
M  V30 4462 H 451.502 -3.80437 0.0692413 0
M  V30 4463 H 451.014 -3.4111 1.8511 0
M  V30 4464 H 449.115 -3.67733 -0.600245 0
M  V30 4465 H 449.228 -4.68754 0.990288 0
M  V30 4466 H 447.592 -2.5102 0.431406 0
M  V30 4467 H 448.375 -2.72421 2.08906 0
M  V30 4468 N 450.82 -0.546701 -1.47814 0
M  V30 4469 C 452.231 -0.110564 -1.86372 0
M  V30 4470 C 452.582 1.31678 -1.45449 0
M  V30 4471 O 451.707 1.98889 -0.852758 0
M  V30 4472 C 452.302 -0.193873 -3.38245 0
M  V30 4473 C 450.861 0.187164 -3.75934 0
M  V30 4474 C 450.008 -0.546166 -2.71868 0
M  V30 4475 H 452.959 -0.757022 -1.39481 0
M  V30 4476 H 452.98 0.590218 -3.75895 0
M  V30 4477 H 452.492 -1.23282 -3.67999 0
M  V30 4478 H 450.593 1.22762 -3.51796 0
M  V30 4479 H 450.706 -0.164083 -4.78819 0
M  V30 4480 H 449.07 0.00953904 -2.54698 0
M  V30 4481 H 449.853 -1.58606 -3.04465 0
M  V30 4482 N 452.299 1.55045 -0.282633 0
M  V30 4483 C 453.231 2.2023 0.634924 0
M  V30 4484 C 454.244 1.18931 1.11172 0
M  V30 4485 O 455.433 1.4562 1.03233 0
M  V30 4486 C 452.533 2.82041 1.87899 0
M  V30 4487 C 451.706 4.091 1.54776 0
M  V30 4488 C 450.765 4.54887 2.64507 0
M  V30 4489 O 449.791 5.20496 2.30375 0
M  V30 4490 N 450.993 4.25659 3.94709 0
M  V30 4491 H 453.758 2.99601 0.0769811 0
M  V30 4492 H 451.319 1.61565 -0.104048 0
M  V30 4493 H 453.311 3.09613 2.60619 0
M  V30 4494 H 451.881 2.06618 2.3458 0
M  V30 4495 H 451.101 3.88736 0.654049 0
M  V30 4496 H 452.389 4.9187 1.30158 0
M  V30 4497 H 451.787 3.7306 4.25256 0
M  V30 4498 H 450.344 4.57984 4.63782 0
M  V30 4499 N 453.777 0.010035 1.57597 0
M  V30 4500 C 455.005 -0.683413 1.95287 0
M  V30 4501 C 455.42 -1.66747 0.885481 0
M  V30 4502 O 454.777 -1.82003 -0.134629 0
M  V30 4503 C 454.828 -1.40652 3.33015 0
M  V30 4504 O 454.549 -0.461916 4.35658 0
M  V30 4505 C 456.05 -2.19356 3.85225 0
M  V30 4506 H 453.27 -0.189708 0.643624 0
M  V30 4507 H 455.814 0.0641359 2.04399 0
M  V30 4508 H 453.969 -2.10562 3.2518 0
M  V30 4509 H 454.383 -0.973215 5.15392 0
M  V30 4510 H 455.857 -2.65433 4.83993 0
M  V30 4511 H 456.334 -3.02457 3.18459 0
M  V30 4512 H 456.94 -1.54442 3.96267 0
M  V30 4513 N 455.255 -1.55392 -0.262866 0
M  V30 4514 C 456.666 -1.67079 -0.833158 0
M  V30 4515 C 457.017 -0.604539 -1.86654 0
M  V30 4516 O 456.142 0.252138 -2.14926 0
M  V30 4517 C 456.737 -3.02891 -1.51797 0
M  V30 4518 C 455.296 -3.16571 -2.03617 0
M  V30 4519 C 454.443 -2.62909 -0.881701 0
M  V30 4520 H 457.394 -1.58652 -0.0389986 0
M  V30 4521 H 457.415 -2.96445 -2.38538 0
M  V30 4522 H 456.927 -3.80473 -0.765619 0
M  V30 4523 H 455.028 -2.43782 -2.81782 0
M  V30 4524 H 455.141 -4.23271 -2.24452 0
M  V30 4525 H 453.505 -2.20324 -1.27786 0
M  V30 4526 H 454.288 -3.43003 -0.14269 0
M  V30 4527 N 456.733 0.527833 -1.48498 0
M  V30 4528 C 457.643 1.65907 -1.65867 0
M  V30 4529 C 458.659 1.6537 -0.541192 0
M  V30 4530 O 459.835 1.84282 -0.812534 0
M  V30 4531 C 456.9 3.02364 -1.69637 0
M  V30 4532 C 455.961 3.1374 -2.93028 0
M  V30 4533 C 455.194 4.43688 -2.96609 0
M  V30 4534 O 455.417 5.30913 -2.08538 0
M  V30 4535 O 454.351 4.59475 -3.88802 0
M  V30 4536 H 458.177 1.5419 -2.61647 0
M  V30 4537 H 455.762 0.701163 -1.31924 0
M  V30 4538 H 457.644 3.83515 -1.74625 0
M  V30 4539 H 456.319 3.14401 -0.770312 0
M  V30 4540 H 455.226 2.31877 -2.93571 0
M  V30 4541 H 456.559 3.06621 -3.85026 0
M  V30 4542 N 458.211 1.37122 0.776871 0
M  V30 4543 C 459.622 1.28667 1.35284 0
M  V30 4544 C 459.973 -0.0680035 1.96082 0
M  V30 4545 O 459.098 -0.969743 1.93455 0
M  V30 4546 C 459.693 2.32997 2.45963 0
M  V30 4547 C 458.252 2.28191 2.99342 0
M  V30 4548 C 457.399 2.17101 1.72517 0
M  V30 4549 H 460.35 1.47819 0.577527 0
M  V30 4550 H 460.371 1.97366 3.2531 0
M  V30 4551 H 459.883 3.3158 2.01684 0
M  V30 4552 H 457.984 1.33115 3.4801 0
M  V30 4553 H 458.097 3.21397 3.55304 0
M  V30 4554 H 456.461 1.63562 1.95242 0
M  V30 4555 H 457.244 3.17591 1.30348 0
M  V30 4556 N 459.689 -1.00246 1.21608 0
M  V30 4557 C 460.619 -2.10921 1.00172 0
M  V30 4558 C 461.6 -1.69938 -0.0741587 0
M  V30 4559 O 462.785 -1.94009 0.0861753 0
M  V30 4560 C 459.915 -3.42618 0.568355 0
M  V30 4561 C 458.869 -3.97407 1.58909 0
M  V30 4562 C 458.195 -5.25038 1.01187 0
M  V30 4563 C 459.495 -4.2918 2.97661 0
M  V30 4564 H 461.189 -2.29112 1.92739 0
M  V30 4565 H 458.735 -1.10101 0.928102 0
M  V30 4566 H 460.688 -4.19444 0.405555 0
M  V30 4567 H 459.412 -3.24227 -0.392961 0
M  V30 4568 H 458.071 -3.22703 1.73949 0
M  V30 4569 H 457.719 -5.02982 0.0421965 0
M  V30 4570 H 457.419 -5.62661 1.6937 0
M  V30 4571 H 458.943 -6.04507 0.860448 0
M  V30 4572 H 460.357 -4.96839 2.86049 0
M  V30 4573 H 458.754 -4.77952 3.6288 0
M  V30 4574 H 459.824 -3.3735 3.48315 0
M  V30 4575 N 461.167 -1.02423 -1.1978 0
M  V30 4576 C 462.578 -0.748389 -1.71044 0
M  V30 4577 C 462.929 0.732398 -1.82017 0
M  V30 4578 O 462.054 1.57116 -1.48807 0
M  V30 4579 C 462.649 -1.35187 -3.1066 0
M  V30 4580 C 461.208 -1.12472 -3.59203 0
M  V30 4581 C 460.355 -1.45283 -2.36195 0
M  V30 4582 H 463.306 -1.19275 -1.04686 0
M  V30 4583 H 463.327 -0.746408 -3.73107 0
M  V30 4584 H 462.839 -2.4296 -3.02642 0
M  V30 4585 H 460.94 -0.0649983 -3.72543 0
M  V30 4586 H 461.053 -1.81016 -4.43588 0
M  V30 4587 H 459.417 -0.872034 -2.39307 0
M  V30 4588 H 460.2 -2.54129 -2.30811 0
M  V30 4589 N 462.645 1.35699 -0.801477 0
M  V30 4590 C 463.592 2.29876 -0.206294 0
M  V30 4591 C 464.562 1.52565 0.656752 0
M  V30 4592 O 465.747 1.81024 0.602906 0
M  V30 4593 C 462.887 3.39052 0.643272 0
M  V30 4594 C 462 4.31335 -0.239644 0
M  V30 4595 C 461.135 5.27599 0.61744 0
M  V30 4596 C 460.174 6.11521 -0.26619 0
M  V30 4597 N 459.311 6.99938 0.550571 0
M  V30 4598 H 464.151 2.80187 -1.01484 0
M  V30 4599 H 461.688 1.37902 -0.511997 0
M  V30 4600 H 463.646 4.0101 1.15094 0
M  V30 4601 H 462.276 2.9003 1.41713 0
M  V30 4602 H 461.328 3.70426 -0.865381 0
M  V30 4603 H 462.64 4.90243 -0.919985 0
M  V30 4604 H 461.794 5.94906 1.19045 0
M  V30 4605 H 460.533 4.69176 1.33137 0
M  V30 4606 H 459.538 5.43166 -0.851507 0
M  V30 4607 H 460.763 6.72022 -0.9779 0
M  V30 4608 H 458.709 6.44008 1.24856 0
M  V30 4609 H 458.626 7.55966 -0.071832 0
M  V30 4610 H 459.894 7.71599 1.10702 0
M  V30 4611 N 464.123 0.554532 1.47522 0
M  V30 4612 C 465.086 -0.184174 2.28459 0
M  V30 4613 C 466.086 -0.845195 1.36796 0
M  V30 4614 O 467.276 -0.701467 1.59452 0
M  V30 4615 C 464.408 -1.26903 3.16399 0
M  V30 4616 H 465.601 0.526751 2.95238 0
M  V30 4617 H 463.154 0.311375 1.53167 0
M  V30 4618 H 463.889 -2.01244 2.54306 0
M  V30 4619 H 463.674 -0.799883 3.83854 0
M  V30 4620 H 465.164 -1.78794 3.77389 0
M  V30 4621 N 465.601 -1.54893 0.290851 0
M  V30 4622 C 466.841 -2.01842 -0.322388 0
M  V30 4623 C 467.205 -1.17477 -1.51865 0
M  V30 4624 O 468.406 -1.54077 -2.20258 0
M  V30 4625 C 466.677 -3.50874 -0.679844 0
M  V30 4626 S 468.236 -4.19796 -1.27739 0
M  V30 4627 H 465.054 -0.704005 -0.0994866 0
M  V30 4628 H 467.656 -1.91015 0.416358 0
M  V30 4629 H 466.36 -4.09915 0.199435 0
M  V30 4630 H 465.891 -3.65717 -1.44964 0
M  V30 4631 H 467.906 -4.24729 -2.56554 0
M  V30 4632 N 467.08 -0.0183926 -1.57589 0
M  V30 4633 C 468.305 0.676634 -1.96052 0
M  V30 4634 C 468.73 1.6548 -0.894307 0
M  V30 4635 O 468.088 1.80712 0.145849 0
M  V30 4636 C 468.136 1.36872 -3.33614 0
M  V30 4637 O 467.24 2.48372 -3.29219 0
M  V30 4638 H 466.581 0.1786 -0.63953 0
M  V30 4639 H 469.111 -0.077056 -2.04455 0
M  V30 4640 H 469.121 1.72797 -3.69601 0
M  V30 4641 H 467.796 0.651636 -4.10763 0
M  V30 4642 H 466.373 2.14639 -3.04934 0
M  V30 4643 N 468.558 1.5553 0.254621 0
M  V30 4644 C 469.506 1.9048 1.33492 0
M  V30 4645 C 470.5 0.78304 1.50216 0
M  V30 4646 O 471.706 0.967582 1.51782 0
M  V30 4647 H 468.081 0.604846 0.44684 0
M  V30 4648 H 470.052 2.80688 1.01275 0
M  V30 4649 C 468.801 2.20928 2.68489 0
M  V30 4650 H 468.124 3.06742 2.56417 0
M  V30 4651 H 469.564 2.49291 3.42972 0
M  V30 4652 C 468.023 1.023 3.20993 0
M  V30 4653 O 468.553 0.267027 4.00811 0
M  V30 4654 N 466.759 0.815714 2.78917 0
M  V30 4655 H 466.306 1.43217 2.14119 0
M  V30 4656 H 466.264 0.0236532 3.14391 0
M  V30 4657 N 470.036 -0.519951 1.48776 0
M  V30 4658 C 471.447 -1.10177 1.50725 0
M  V30 4659 C 471.798 -1.94153 0.282678 0
M  V30 4660 O 470.923 -2.07645 -0.609298 0
M  V30 4661 C 471.518 -2.00482 2.73116 0
M  V30 4662 C 470.077 -2.53862 2.77905 0
M  V30 4663 C 469.224 -1.31047 2.44381 0
M  V30 4664 H 472.175 -0.30473 1.55747 0
M  V30 4665 H 472.196 -2.8491 2.52203 0
M  V30 4666 H 471.708 -1.39335 3.62225 0
M  V30 4667 H 469.809 -3.18702 1.93029 0
M  V30 4668 H 469.922 -2.9231 3.79594 0
M  V30 4669 H 468.286 -1.62953 1.95751 0
M  V30 4670 H 469.069 -0.71637 3.35743 0
M  V30 4671 N 471.514 -1.37532 -0.769588 0
M  V30 4672 C 472.739 -1.36231 -1.56384 0
M  V30 4673 C 473.164 0.0495849 -1.88035 0
M  V30 4674 O 472.522 1.02723 -1.49391 0
M  V30 4675 C 472.57 -2.20986 -2.84952 0
M  V30 4676 O 471.674 -1.61597 -3.79421 0
M  V30 4677 H 471.015 -0.465387 -0.473615 0
M  V30 4678 H 473.545 -1.81085 -0.952342 0
M  V30 4679 H 473.555 -2.34277 -3.34034 0
M  V30 4680 H 472.23 -3.23612 -2.61243 0
M  V30 4681 H 470.807 -1.57359 -3.38072 0
M  V30 4682 N 472.992 0.995999 -1.22138 0
M  V30 4683 C 473.924 2.08745 -0.946485 0
M  V30 4684 C 474.937 1.62633 0.0737356 0
M  V30 4685 O 476.126 1.77782 -0.159886 0
M  V30 4686 C 473.226 3.36516 -0.401305 0
M  V30 4687 C 472.399 4.11672 -1.47801 0
M  V30 4688 C 471.458 5.17728 -0.940461 0
M  V30 4689 O 470.484 5.45482 -1.62596 0
M  V30 4690 N 471.686 5.80005 0.239723 0
M  V30 4691 H 474.451 2.32908 -1.88611 0
M  V30 4692 H 472.012 1.16152 -1.12785 0
M  V30 4693 H 474.004 4.04691 -0.0270837 0
M  V30 4694 H 472.574 3.0944 0.443354 0
M  V30 4695 H 471.794 3.38171 -2.02568 0
M  V30 4696 H 473.082 4.58657 -2.20253 0
M  V30 4697 H 472.48 5.5982 0.813518 0
M  V30 4698 H 471.037 6.4943 0.555361 0
M  V30 4699 N 474.47 1.03057 1.19235 0
M  V30 4700 C 475.402 0.570932 2.21975 0
M  V30 4701 C 476.415 -0.354088 1.58903 0
M  V30 4702 O 477.604 -0.150211 1.77867 0
M  V30 4703 C 474.704 -0.187152 3.38383 0
M  V30 4704 C 473.877 0.743231 4.31039 0
M  V30 4705 C 472.936 0.0302493 5.26191 0
M  V30 4706 O 471.962 0.657371 5.65391 0
M  V30 4707 N 473.164 -1.23991 5.67104 0
M  V30 4708 H 475.929 1.45456 2.62036 0
M  V30 4709 H 473.49 0.909807 1.33918 0
M  V30 4710 H 475.482 -0.673715 3.99053 0
M  V30 4711 H 474.052 -0.972205 2.97098 0
M  V30 4712 H 473.272 1.40985 3.68126 0
M  V30 4713 H 474.56 1.3755 4.89854 0
M  V30 4714 H 473.958 -1.77011 5.37293 0
M  V30 4715 H 472.515 -1.67093 6.30018 0
M  V30 4716 N 475.948 -1.35272 0.808662 0
M  V30 4717 C 477.194 -1.99003 0.390581 0
M  V30 4718 C 477.527 -1.63999 -1.0401 0
M  V30 4719 O 476.802 -0.904368 -1.72196 0
M  V30 4720 C 477.085 -3.55454 0.576566 0
M  V30 4721 C 476.938 -4.00249 2.05233 0
M  V30 4722 C 478.257 -4.401 0.00354277 0
M  V30 4723 H 475.376 -0.722917 0.143388 0
M  V30 4724 H 478.018 -1.6039 1.01858 0
M  V30 4725 H 476.168 -3.88477 0.0419766 0
M  V30 4726 H 477.84 -3.77626 2.64946 0
M  V30 4727 H 476.083 -3.51082 2.54801 0
M  V30 4728 H 476.754 -5.0911 2.13333 0
M  V30 4729 H 479.23 -4.13548 0.460117 0
M  V30 4730 H 478.106 -5.48656 0.163575 0
M  V30 4731 H 478.367 -4.28444 -1.09032 0
M  V30 4732 N 477.426 -0.562348 -1.47226 0
M  V30 4733 C 478.842 -0.222492 -1.58042 0
M  V30 4734 C 479.042 1.27505 -1.56028 0
M  V30 4735 O 478.098 2.05555 -1.46641 0
M  V30 4736 C 479.411 -0.853694 -2.88327 0
M  V30 4737 C 480.959 -0.825397 -3.01921 0
M  V30 4738 C 481.434 -1.43576 -4.34914 0
M  V30 4739 N 482.925 -1.39918 -4.41562 0
M  V30 4740 C 483.66 -1.84103 -5.43041 0
M  V30 4741 N 483.156 -2.36167 -6.51304 0
M  V30 4742 N 484.949 -1.75142 -5.34118 0
M  V30 4743 H 477.1 -1.53525 -1.46778 0
M  V30 4744 H 479.363 -0.640527 -0.698877 0
M  V30 4745 H 479.069 -1.90635 -2.95552 0
M  V30 4746 H 478.943 -0.34977 -3.75575 0
M  V30 4747 H 481.33 0.218583 -2.94289 0
M  V30 4748 H 481.411 -1.36713 -2.16202 0
M  V30 4749 H 481.055 -2.47884 -4.43301 0
M  V30 4750 H 480.985 -0.869427 -5.19373 0
M  V30 4751 H 483.476 -1.0184 -3.63919 0
M  V30 4752 H 483.789 -2.67793 -7.24919 0
M  V30 4753 H 482.134 -2.40181 -6.52179 0
M  V30 4754 H 485.325 -1.34241 -4.48439 0
M  V30 4755 H 485.498 -2.09895 -6.13065 0
M  V30 4756 N 478.904 1.54736 -0.299062 0
M  V30 4757 C 480.129 2.04975 0.316254 0
M  V30 4758 C 480.554 1.17501 1.46885 0
M  V30 4759 O 479.912 0.178678 1.80417 0
M  V30 4760 C 479.96 3.52672 0.751997 0
M  V30 4761 O 479.064 3.68226 1.85697 0
M  V30 4762 H 478.405 0.661126 0.0617175 0
M  V30 4763 H 480.935 1.99805 -0.440341 0
M  V30 4764 H 480.945 3.94488 1.04133 0
M  V30 4765 H 479.62 4.158 -0.0911482 0
M  V30 4766 H 478.197 3.38316 1.56834 0
M  V30 4767 N 480.382 0.0267497 1.57577 0
M  V30 4768 C 481.798 -0.32962 1.56159 0
M  V30 4769 C 481.998 -1.73059 1.03213 0
M  V30 4770 O 481.054 -2.43233 0.677804 0
M  V30 4771 C 482.367 -0.18039 3.00158 0
M  V30 4772 C 483.915 -0.253334 3.11973 0
M  V30 4773 C 484.39 -0.132921 4.57807 0
M  V30 4774 N 485.881 -0.189979 4.6281 0
M  V30 4775 C 486.616 -0.120554 5.73273 0
M  V30 4776 N 486.112 -0.000180315 6.928 0
M  V30 4777 N 487.905 -0.174369 5.61829 0
M  V30 4778 H 480.056 0.942896 1.90324 0
M  V30 4779 H 482.319 0.3639 0.875375 0
M  V30 4780 H 482.025 0.784576 3.42837 0
M  V30 4781 H 481.899 -0.951565 3.65 0
M  V30 4782 H 484.286 -1.20876 2.69208 0
M  V30 4783 H 484.367 0.548177 2.49857 0
M  V30 4784 H 484.011 0.819073 5.01252 0
M  V30 4785 H 483.941 -0.953264 5.179 0
M  V30 4786 H 486.432 -0.283257 3.76837 0
M  V30 4787 H 486.745 0.0461666 7.72786 0
M  V30 4788 H 485.09 0.034569 6.94991 0
M  V30 4789 H 488.281 -0.266794 4.67339 0
M  V30 4790 H 488.454 -0.116802 6.47895 0
M  V30 4791 N 481.861 -1.55662 -0.24637 0
M  V30 4792 C 483.272 -1.67953 -0.81539 0
M  V30 4793 C 483.623 -0.624302 -1.86002 0
M  V30 4794 O 482.748 0.229328 -2.15181 0
M  V30 4795 C 483.343 -3.04484 -1.48576 0
M  V30 4796 C 481.902 -3.18713 -2.00248 0
M  V30 4797 C 481.049 -2.6383 -0.853766 0
M  V30 4798 H 484 -1.58685 -0.0221692 0
M  V30 4799 H 484.021 -2.98959 -2.3538 0
M  V30 4800 H 483.533 -3.81264 -0.725222 0
M  V30 4801 H 481.634 -2.46757 -2.79181 0
M  V30 4802 H 481.747 -4.25628 -2.1995 0
M  V30 4803 H 480.111 -2.21667 -1.25442 0
M  V30 4804 H 480.894 -3.43135 -0.106302 0
M  V30 4805 N 483.339 0.512053 -1.4905 0
M  V30 4806 C 484.585 1.26613 -1.59187 0
M  V30 4807 C 484.94 1.90494 -0.270163 0
M  V30 4808 O 484.233 1.77204 0.728648 0
M  V30 4809 C 484.427 2.36446 -2.68008 0
M  V30 4810 C 484.256 1.83334 -4.10632 0
M  V30 4811 C 483.026 1.65131 -4.77556 0
M  V30 4812 C 485.224 1.35153 -4.96224 0
M  V30 4813 N 483.206 1.06833 -6.04533 0
M  V30 4814 C 484.577 0.889186 -6.13591 0
M  V30 4815 C 486.632 1.23623 -4.82309 0
M  V30 4816 C 485.335 0.322953 -7.18575 0
M  V30 4817 C 487.361 0.683978 -5.87431 0
M  V30 4818 C 486.723 0.2318 -7.04018 0
M  V30 4819 H 482.822 0.453678 -0.636946 0
M  V30 4820 H 485.406 0.575217 -1.86009 0
M  V30 4821 H 483.577 3.03012 -2.42978 0
M  V30 4822 H 485.309 3.03485 -2.67729 0
M  V30 4823 H 482.064 1.89178 -4.34176 0
M  V30 4824 H 482.488 0.796425 -6.72299 0
M  V30 4825 H 487.13 1.57184 -3.92496 0
M  V30 4826 H 484.848 -0.024943 -8.08096 0
M  V30 4827 H 488.434 0.597694 -5.78722 0
M  V30 4828 H 487.314 -0.188869 -7.83973 0
M  V30 4829 N 484.817 1.37938 0.762283 0
M  V30 4830 C 486.042 1.37059 1.55659 0
M  V30 4831 C 486.467 -0.0396123 1.88058 0
M  V30 4832 O 485.825 -1.01929 1.49934 0
M  V30 4833 C 485.873 2.22494 2.83776 0
M  V30 4834 O 484.977 1.63607 3.78559 0
M  V30 4835 H 484.318 0.467892 0.47114 0
M  V30 4836 H 486.848 1.81587 0.942725 0
M  V30 4837 H 486.858 2.36045 3.32786 0
M  V30 4838 H 485.533 3.24993 2.59524 0
M  V30 4839 H 484.11 1.5915 3.37233 0
M  V30 4840 N 486.295 -0.989507 1.22664 0
M  V30 4841 C 487.711 -1.25395 0.987331 0
M  V30 4842 C 487.911 -1.9899 -0.317056 0
M  V30 4843 O 486.967 -2.30141 -1.03882 0
M  V30 4844 C 488.28 -2.06242 2.18826 0
M  V30 4845 C 489.828 -2.19413 2.23219 0
M  V30 4846 C 490.303 -3.03648 3.42873 0
M  V30 4847 N 491.794 -3.11234 3.43056 0
M  V30 4848 C 492.529 -3.7671 4.32293 0
M  V30 4849 N 492.025 -4.44085 5.31752 0
M  V30 4850 N 493.818 -3.73505 4.2006 0
M  V30 4851 H 485.969 -0.496212 2.06522 0
M  V30 4852 H 488.232 -0.281784 0.905153 0
M  V30 4853 H 487.938 -1.59531 3.13437 0
M  V30 4854 H 487.812 -3.06996 2.19165 0
M  V30 4855 H 490.199 -2.65336 1.29154 0
M  V30 4856 H 490.28 -1.18078 2.26917 0
M  V30 4857 H 489.924 -2.58424 4.37241 0
M  V30 4858 H 489.854 -4.05132 3.36416 0
M  V30 4859 H 492.345 -2.63287 2.71088 0
M  V30 4860 H 492.658 -4.91797 5.96117 0
M  V30 4861 H 491.003 -4.42822 5.35662 0
M  V30 4862 H 494.194 -3.20033 3.41609 0
M  V30 4863 H 494.367 -4.24253 4.8981 0
M  V30 4864 N 487.773 -1.03688 -1.18687 0
M  V30 4865 C 488.723 -0.595067 -2.20098 0
M  V30 4866 C 489.707 0.360465 -1.5681 0
M  V30 4867 O 490.899 0.180136 -1.76081 0
M  V30 4868 C 488.028 0.0444495 -3.43271 0
M  V30 4869 C 487.114 -0.934002 -4.13687 0
M  V30 4870 N 487.505 -2.09957 -4.60165 0
M  V30 4871 C 485.803 -0.759177 -4.39491 0
M  V30 4872 C 486.504 -2.71735 -5.1433 0
M  V30 4873 N 485.48 -1.99638 -5.05614 0
M  V30 4874 H 489.282 -1.48336 -2.5372 0
M  V30 4875 H 486.796 -0.904949 -1.3485 0
M  V30 4876 H 488.793 0.37864 -4.15177 0
M  V30 4877 H 487.453 0.928325 -3.11147 0
M  V30 4878 H 488.464 -2.47863 -4.54735 0
M  V30 4879 H 485.141 0.0749292 -4.17433 0
M  V30 4880 H 486.531 -3.70492 -5.60523 0
M  V30 4881 N 489.251 1.34841 -0.815825 0
M  V30 4882 C 490.201 2.27075 -0.205169 0
M  V30 4883 C 491.185 1.48205 0.626414 0
M  V30 4884 O 492.377 1.70306 0.482157 0
M  V30 4885 C 489.506 3.37322 0.637871 0
M  V30 4886 C 488.592 4.23609 -0.203948 0
M  V30 4887 N 488.983 4.89558 -1.27149 0
M  V30 4888 C 487.281 4.45998 0.0128971 0
M  V30 4889 C 487.982 5.53597 -1.7862 0
M  V30 4890 N 486.958 5.32535 -1.0912 0
M  V30 4891 H 490.76 2.75563 -1.02187 0
M  V30 4892 H 488.274 1.48477 -0.657912 0
M  V30 4893 H 490.271 4.02359 1.09146 0
M  V30 4894 H 488.931 2.90385 1.45281 0
M  V30 4895 H 489.942 4.9077 -1.65423 0
M  V30 4896 H 486.619 4.09837 0.79624 0
M  V30 4897 H 488.009 6.16184 -2.67892 0
M  V30 4898 N 490.729 0.570148 1.46925 0
M  V30 4899 C 491.954 0.0542592 2.07329 0
M  V30 4900 C 492.379 -1.23582 1.41806 0
M  V30 4901 O 491.737 -1.74341 0.497479 0
M  V30 4902 C 491.785 -0.111175 3.60429 0
M  V30 4903 O 490.889 -1.17071 3.95434 0
M  V30 4904 H 490.23 0.0571425 0.661537 0
M  V30 4905 H 492.76 0.789516 1.88753 0
M  V30 4906 H 492.77 -0.321315 4.06733 0
M  V30 4907 H 491.445 0.831012 4.07513 0
M  V30 4908 H 490.022 -0.940029 3.60857 0
M  V30 4909 N 492.207 -1.54576 0.307264 0
M  V30 4910 C 493.154 -2.23751 -0.56604 0
M  V30 4911 C 494.124 -1.22235 -1.12462 0
M  V30 4912 O 495.309 -1.50873 -1.16799 0
M  V30 4913 C 492.449 -2.98661 -1.72903 0
M  V30 4914 C 491.562 -4.14963 -1.20124 0
M  V30 4915 C 490.697 -4.77441 -2.3286 0
M  V30 4916 C 489.736 -5.85875 -1.77247 0
M  V30 4917 N 488.873 -6.42282 -2.8358 0
M  V30 4918 H 493.713 -2.97984 0.0304578 0
M  V30 4919 H 491.25 -1.47076 0.0268015 0
M  V30 4920 H 493.208 -3.40329 -2.41313 0
M  V30 4921 H 491.838 -2.26793 -2.29706 0
M  V30 4922 H 490.89 -3.78193 -0.409198 0
M  V30 4923 H 492.202 -4.93066 -0.754171 0
M  V30 4924 H 491.356 -5.21993 -3.09205 0
M  V30 4925 H 490.095 -3.98684 -2.80896 0
M  V30 4926 H 489.1 -5.40741 -0.993926 0
M  V30 4927 H 490.325 -6.6652 -1.30107 0
M  V30 4928 H 488.271 -5.66406 -3.30939 0
M  V30 4929 H 488.188 -7.1575 -2.43388 0
M  V30 4930 H 489.456 -6.91492 -3.59804 0
M  V30 4931 N 493.685 -0.035106 -1.57561 0
M  V30 4932 C 494.648 0.929819 -2.09492 0
M  V30 4933 C 495.648 1.25026 -1.01119 0
M  V30 4934 O 496.838 1.18961 -1.27255 0
M  V30 4935 C 493.97 2.24457 -2.56577 0
M  V30 4936 H 495.163 0.479935 -2.96035 0
M  V30 4937 H 492.716 0.213033 -1.54841 0
M  V30 4938 H 493.451 2.74061 -1.73382 0
M  V30 4939 H 493.236 2.02508 -3.35757 0
M  V30 4940 H 494.726 2.93607 -2.96959 0
M  V30 4941 N 495.163 1.55791 0.238111 0
M  V30 4942 C 496.388 1.8244 0.986432 0
M  V30 4943 C 496.813 0.613314 1.7782 0
M  V30 4944 O 496.171 -0.437767 1.75935 0
M  V30 4945 C 496.219 3.06917 1.893 0
M  V30 4946 O 495.323 2.84449 2.98601 0
M  V30 4947 H 494.664 0.601975 0.280218 0
M  V30 4948 H 497.194 2.02987 0.256437 0
M  V30 4949 H 497.204 3.36583 2.30598 0
M  V30 4950 H 495.879 3.947 1.31091 0
M  V30 4951 H 494.456 2.65972 2.61368 0
M  V30 4952 N 496.642 -0.504142 1.49319 0
M  V30 4953 C 497.888 -1.25767 1.59857 0
M  V30 4954 C 498.243 -1.90348 0.280262 0
M  V30 4955 O 497.536 -1.77588 -0.719241 0
M  V30 4956 C 497.73 -2.35021 2.69258 0
M  V30 4957 C 497.559 -1.81154 4.11598 0
M  V30 4958 C 496.329 -1.62596 4.78425 0
M  V30 4959 C 498.527 -1.3252 4.96934 0
M  V30 4960 N 496.509 -1.03625 6.05091 0
M  V30 4961 C 497.88 -0.856633 6.14054 0
M  V30 4962 C 499.935 -1.21063 4.82958 0
M  V30 4963 C 498.638 -0.284841 7.18736 0
M  V30 4964 C 500.664 -0.652815 5.87786 0
M  V30 4965 C 500.026 -0.194461 7.04132 0
M  V30 4966 H 496.125 -0.450293 0.639343 0
M  V30 4967 H 498.709 -0.565344 1.86311 0
M  V30 4968 H 496.88 -3.01719 2.44581 0
M  V30 4969 H 498.612 -3.02061 2.69335 0
M  V30 4970 H 495.367 -1.86873 4.35173 0
M  V30 4971 H 495.791 -0.76076 6.72712 0
M  V30 4972 H 500.433 -1.551 3.93324 0
M  V30 4973 H 498.151 0.0677979 8.08072 0
M  V30 4974 H 501.737 -0.566994 5.79031 0
M  V30 4975 H 500.617 0.230442 7.83861 0
M  V30 4976 N 498.12 -1.38341 -0.754957 0
M  V30 4977 C 499.083 -1.35262 -1.85032 0
M  V30 4978 C 500.083 -0.253393 -1.58791 0
M  V30 4979 O 501.273 -0.510205 -1.66561 0
M  V30 4980 C 498.405 -1.10544 -3.22479 0
M  V30 4981 H 499.598 -2.32712 -1.8917 0
M  V30 4982 H 497.151 -1.23614 -0.956515 0
M  V30 4983 H 497.886 -0.136952 -3.24011 0
M  V30 4984 H 497.671 -1.90127 -3.4292 0
M  V30 4985 H 499.161 -1.11082 -4.02555 0
M  V30 4986 N 499.598 0.982988 -1.23187 0
M  V30 4987 C 500.508 2.10907 -1.02739 0
M  V30 4988 C 501.524 1.73979 0.0273188 0
M  V30 4989 O 502.7 2.00702 -0.16757 0
M  V30 4990 C 499.765 3.41142 -0.618304 0
M  V30 4991 C 498.826 3.92112 -1.74777 0
M  V30 4992 C 498.059 5.16131 -1.3581 0
M  V30 4993 O 498.282 5.6989 -0.241201 0
M  V30 4994 O 497.216 5.61103 -2.17824 0
M  V30 4995 H 501.042 2.31046 -1.97108 0
M  V30 4996 H 498.627 1.09284 -1.01869 0
M  V30 4997 H 500.509 4.19488 -0.400982 0
M  V30 4998 H 499.184 3.2234 0.296421 0
M  V30 4999 H 498.091 3.14895 -2.0197 0
M  V30 5000 H 499.424 4.15364 -2.64071 0
M  V30 5001 N 501.076 1.04316 1.18135 0
M  V30 5002 C 502.323 0.74802 1.88178 0
M  V30 5003 C 502.651 -0.72441 1.80506 0
M  V30 5004 O 501.906 -1.54463 1.20165 0
M  V30 5005 C 502.205 1.16271 3.37958 0
M  V30 5006 C 501.871 2.63585 3.65833 0
M  V30 5007 C 500.533 3.03829 3.73151 0
M  V30 5008 C 502.885 3.58822 3.78016 0
M  V30 5009 C 500.213 4.38194 3.90132 0
M  V30 5010 C 502.565 4.92909 3.96514 0
M  V30 5011 C 501.229 5.3282 4.02068 0
M  V30 5012 H 500.499 0.27372 0.688592 0
M  V30 5013 H 503.146 1.30863 1.39811 0
M  V30 5014 H 501.451 0.520938 3.88321 0
M  V30 5015 H 503.148 0.911672 3.90499 0
M  V30 5016 H 499.738 2.31414 3.60757 0
M  V30 5017 H 503.922 3.28875 3.71692 0
M  V30 5018 H 499.178 4.68631 3.92677 0
M  V30 5019 H 503.352 5.66606 4.04883 0
M  V30 5020 H 500.979 6.36943 4.14979 0
M  V30 5021 N 502.554 -1.34406 0.822964 0
M  V30 5022 C 503.779 -2.0304 0.423034 0
M  V30 5023 C 504.204 -1.61568 -0.963196 0
M  V30 5024 O 503.562 -0.800339 -1.62678 0
M  V30 5025 C 503.61 -3.56636 0.53321 0
M  V30 5026 O 502.714 -4.09971 -0.446939 0
M  V30 5027 H 502.055 -0.64075 0.174171 0
M  V30 5028 H 504.585 -1.71653 1.11339 0
M  V30 5029 H 504.595 -4.05945 0.408991 0
M  V30 5030 H 503.27 -3.86168 1.54425 0
M  V30 5031 H 501.847 -3.71835 -0.281601 0
M  V30 5032 N 504.032 -0.577932 -1.46621 0
M  V30 5033 C 505.281 -0.0594281 -2.01612 0
M  V30 5034 C 505.594 1.30663 -1.45556 0
M  V30 5035 O 506.8 1.91621 -1.92337 0
M  V30 5036 C 505.256 -0.0556666 -3.59857 0
M  V30 5037 C 504.864 -1.41975 -4.24908 0
M  V30 5038 C 506.608 0.409143 -4.22524 0
M  V30 5039 C 504.515 -1.37397 -5.75218 0
M  V30 5040 H 503.445 -0.0184469 -0.753774 0
M  V30 5041 H 506.096 -0.728869 -1.68404 0
M  V30 5042 H 504.478 0.679843 -3.90121 0
M  V30 5043 H 505.652 -2.17461 -4.0626 0
M  V30 5044 H 503.967 -1.82419 -3.74316 0
M  V30 5045 H 506.564 0.46211 -5.32699 0
M  V30 5046 H 506.907 1.42565 -3.91128 0
M  V30 5047 H 507.44 -0.272152 -3.96868 0
M  V30 5048 H 504.179 -2.36714 -6.11267 0
M  V30 5049 H 503.699 -0.661239 -5.96144 0
M  V30 5050 H 505.378 -1.08484 -6.3784 0
M  V30 5051 N 505.51 1.54411 -0.315457 0
M  V30 5052 C 506.44 2.27002 0.547039 0
M  V30 5053 C 507.421 1.27492 1.12605 0
M  V30 5054 O 508.606 1.5629 1.15269 0
M  V30 5055 C 505.736 3.02171 1.71201 0
M  V30 5056 C 504.69 4.0895 1.26268 0
M  V30 5057 C 504.016 4.71915 2.51396 0
M  V30 5058 C 505.316 5.20891 0.383419 0
M  V30 5059 H 507.01 2.99343 -0.0584517 0
M  V30 5060 H 504.556 1.4397 -0.0295527 0
M  V30 5061 H 506.509 3.51681 2.32161 0
M  V30 5062 H 505.233 2.27433 2.34397 0
M  V30 5063 H 503.892 3.60312 0.676062 0
M  V30 5064 H 503.54 3.93801 3.12937 0
M  V30 5065 H 503.24 5.44039 2.22026 0
M  V30 5066 H 504.764 5.24195 3.13133 0
M  V30 5067 H 506.178 5.66206 0.899082 0
M  V30 5068 H 504.575 5.99821 0.182857 0
M  V30 5069 H 505.645 4.81324 -0.587821 0
M  V30 5070 N 506.988 0.0434614 1.5754 0
M  V30 5071 C 508.404 -0.313039 1.565 0
M  V30 5072 C 508.604 -1.71954 1.05043 0
M  V30 5073 O 507.66 -2.425 0.703564 0
M  V30 5074 C 508.973 -0.148544 3.00333 0
M  V30 5075 C 510.521 -0.220231 3.12224 0
M  V30 5076 C 510.996 -0.0843565 4.57922 0
M  V30 5077 N 512.487 -0.140881 4.62986 0
M  V30 5078 C 513.222 -0.0597443 5.73369 0
M  V30 5079 N 512.718 0.0733004 6.92761 0
M  V30 5080 N 514.511 -0.11477 5.61983 0
M  V30 5081 H 506.662 0.96303 1.89313 0
M  V30 5082 H 508.925 0.373164 0.871466 0
M  V30 5083 H 508.631 0.820894 3.41986 0
M  V30 5084 H 508.505 -0.912798 3.65989 0
M  V30 5085 H 510.892 -1.18014 2.70475 0
M  V30 5086 H 510.973 0.574646 2.49262 0
M  V30 5087 H 510.617 0.872192 5.00355 0
M  V30 5088 H 510.547 -0.898281 5.18882 0
M  V30 5089 H 513.038 -0.243273 3.77116 0
M  V30 5090 H 513.351 0.128128 7.72694 0
M  V30 5091 H 511.696 0.10828 6.94916 0
M  V30 5092 H 514.887 -0.217212 4.67596 0
M  V30 5093 H 515.06 -0.0480779 6.47982 0
M  V30 5094 N 508.466 -1.55915 -0.229846 0
M  V30 5095 C 509.376 -1.94891 -1.30593 0
M  V30 5096 C 510.392 -0.851604 -1.51736 0
M  V30 5097 O 511.568 -1.15447 -1.65027 0
M  V30 5098 C 508.633 -2.25052 -2.63728 0
M  V30 5099 C 507.694 -3.48306 -2.5096 0
M  V30 5100 C 506.927 -3.77019 -3.77747 0
M  V30 5101 O 507.15 -3.07534 -4.80395 0
M  V30 5102 O 506.084 -4.70523 -3.75356 0
M  V30 5103 H 509.91 -2.86581 -1.00525 0
M  V30 5104 H 507.495 -1.43017 -0.432025 0
M  V30 5105 H 509.377 -2.45682 -3.42372 0
M  V30 5106 H 508.052 -1.36538 -2.93495 0
M  V30 5107 H 506.959 -3.32964 -1.70546 0
M  V30 5108 H 508.292 -4.37177 -2.26136 0
M  V30 5109 N 509.944 0.496216 -1.49584 0
M  V30 5110 C 510.874 1.60576 -1.69521 0
M  V30 5111 C 511.855 1.61169 -0.543933 0
M  V30 5112 O 513.04 1.77834 -0.78031 0
M  V30 5113 C 510.17 2.99038 -1.76616 0
M  V30 5114 C 509.124 3.13312 -2.91581 0
M  V30 5115 C 508.45 4.53172 -2.83794 0
M  V30 5116 C 509.75 2.92886 -4.32452 0
M  V30 5117 H 511.444 1.44146 -2.62416 0
M  V30 5118 H 508.99 0.692024 -1.26282 0
M  V30 5119 H 510.943 3.76564 -1.8915 0
M  V30 5120 H 509.667 3.16568 -0.80324 0
M  V30 5121 H 508.326 2.38213 -2.78658 0
M  V30 5122 H 507.974 4.67585 -1.854 0
M  V30 5123 H 507.674 4.63662 -3.60958 0
M  V30 5124 H 509.198 5.32752 -2.98342 0
M  V30 5125 H 510.612 3.60178 -4.46032 0
M  V30 5126 H 509.009 3.14844 -5.10875 0
M  V30 5127 H 510.079 1.88966 -4.46565 0
M  V30 5128 N 511.423 1.38739 0.74761 0
M  V30 5129 C 512.353 1.39173 1.87492 0
M  V30 5130 C 513.334 0.256794 1.6815 0
M  V30 5131 O 514.519 0.460762 1.88655 0
M  V30 5132 C 511.649 1.22197 3.25093 0
M  V30 5133 C 510.603 2.32957 3.59047 0
M  V30 5134 C 509.929 2.01082 4.95449 0
M  V30 5135 C 511.229 3.75237 3.6331 0
M  V30 5136 H 512.923 2.3351 1.87386 0
M  V30 5137 H 510.469 1.12399 0.900134 0
M  V30 5138 H 512.422 1.21124 4.03617 0
M  V30 5139 H 511.146 0.243241 3.25693 0
M  V30 5140 H 509.805 2.33226 2.82845 0
M  V30 5141 H 509.453 1.01678 4.92616 0
M  V30 5142 H 509.153 2.75267 5.19136 0
M  V30 5143 H 510.677 2.01638 5.76346 0
M  V30 5144 H 512.091 3.76966 4.31937 0
M  V30 5145 H 510.488 4.48677 3.98509 0
M  V30 5146 H 511.558 4.07122 2.634 0
M  V30 5147 N 512.901 -0.976442 1.23707 0
M  V30 5148 C 513.864 -2.0511 1.02287 0
M  V30 5149 C 514.864 -1.60791 -0.0167195 0
M  V30 5150 O 516.054 -1.72761 0.223408 0
M  V30 5151 C 513.186 -3.36458 0.548507 0
M  V30 5152 H 514.379 -2.25545 1.9766 0
M  V30 5153 H 511.932 -1.15042 1.05806 0
M  V30 5154 H 512.667 -3.21713 -0.408818 0
M  V30 5155 H 512.452 -3.69967 1.29874 0
M  V30 5156 H 513.942 -4.15489 0.419406 0
M  V30 5157 N 514.379 -1.04941 -1.1758 0
M  V30 5158 C 515.311 -0.606174 -2.21039 0
M  V30 5159 C 516.324 0.328763 -1.59446 0
M  V30 5160 O 517.513 0.121895 -1.78083 0
M  V30 5161 C 514.613 0.133294 -3.38638 0
M  V30 5162 C 513.786 -0.811711 -4.29802 0
M  V30 5163 C 512.845 -0.113958 -5.26077 0
M  V30 5164 O 511.871 -0.747237 -5.64274 0
M  V30 5165 N 513.073 1.14953 -5.69004 0
M  V30 5166 H 515.838 -1.49606 -2.59689 0
M  V30 5167 H 513.399 -0.930997 -1.32454 0
M  V30 5168 H 515.391 0.610144 -4.00074 0
M  V30 5169 H 513.961 0.924816 -2.98607 0
M  V30 5170 H 513.181 -1.46824 -3.65837 0
M  V30 5171 H 514.469 -1.45326 -4.87604 0
M  V30 5172 H 513.867 1.68441 -5.40041 0
M  V30 5173 H 512.424 1.57049 -6.32597 0
M  V30 5174 N 515.857 1.33968 -0.830081 0
M  V30 5175 C 517.134 1.92554 -0.343858 0
M  V30 5176 C 517.514 1.7573 1.16971 0
M  V30 5177 O 516.862 1.14035 1.98011 0
M  V30 5178 C 517.072 3.40147 -0.781073 0
M  V30 5179 C 518.42 4.17299 -0.78402 0
M  V30 5180 O 519.444 3.48762 -0.724112 0
M  V30 5181 O 518.303 5.39631 -0.863739 0
M  V30 5182 H 515.397 0.821469 -0.0954827 0
M  V30 5183 H 517.943 1.42897 -0.915348 0
M  V30 5184 H 516.715 3.46225 -1.82329 0
M  V30 5185 H 516.338 3.97166 -0.18567 0
M  V30 5186 N 517.335 0.585699 1.46312 0
M  V30 5187 C 518.581 0.0725284 2.0267 0
M  V30 5188 C 518.914 -1.28523 1.45586 0
M  V30 5189 O 518.189 -1.84283 0.622101 0
M  V30 5190 C 518.472 0.0099788 3.60099 0
M  V30 5191 C 518.325 1.39685 4.27561 0
M  V30 5192 C 519.644 -0.689117 4.34671 0
M  V30 5193 H 516.763 0.0278307 0.736474 0
M  V30 5194 H 519.405 0.753472 1.74421 0
M  V30 5195 H 517.555 -0.56992 3.84297 0
M  V30 5196 H 519.227 2.02215 4.14617 0
M  V30 5197 H 517.47 1.96374 3.86807 0
M  V30 5198 H 518.141 1.30553 5.36339 0
M  V30 5199 H 520.617 -0.196446 4.15636 0
M  V30 5200 H 519.493 -0.701921 5.44393 0
M  V30 5201 H 519.754 -1.75101 4.05946 0
M  V30 5202 N 518.813 -1.54241 0.323641 0
M  V30 5203 C 519.743 -2.27289 -0.534993 0
M  V30 5204 C 520.724 -1.28087 -1.11927 0
M  V30 5205 O 521.909 -1.56899 -1.14439 0
M  V30 5206 C 519.039 -3.03075 -1.69596 0
M  V30 5207 C 517.993 -4.09614 -1.24098 0
M  V30 5208 C 517.319 -4.73242 -2.4889 0
M  V30 5209 C 518.619 -5.21087 -0.355789 0
M  V30 5210 H 520.313 -2.99308 0.0743257 0
M  V30 5211 H 517.859 -1.43952 0.0371874 0
M  V30 5212 H 519.812 -3.52907 -2.30293 0
M  V30 5213 H 518.536 -2.28673 -2.33187 0
M  V30 5214 H 517.195 -3.60666 -0.656945 0
M  V30 5215 H 516.843 -3.95455 -3.10845 0
M  V30 5216 H 516.543 -5.45209 -2.19138 0
M  V30 5217 H 518.067 -5.25848 -3.10348 0
M  V30 5218 H 519.481 -5.66675 -0.869042 0
M  V30 5219 H 517.878 -5.9991 -0.151045 0
M  V30 5220 H 518.948 -4.81005 0.613339 0
M  V30 5221 N 520.291 -0.0518155 -1.57515 0
M  V30 5222 C 521.531 0.625712 -1.94587 0
M  V30 5223 C 521.895 1.6797 -0.930053 0
M  V30 5224 O 523.096 2.41135 -1.18774 0
M  V30 5225 C 521.367 1.20574 -3.36447 0
M  V30 5226 S 522.926 1.90118 -3.95475 0
M  V30 5227 H 519.744 0.205434 -0.680675 0
M  V30 5228 H 522.346 -0.120906 -1.95126 0
M  V30 5229 H 521.05 0.426521 -4.08178 0
M  V30 5230 H 520.581 1.98916 -3.39405 0
M  V30 5231 H 522.596 3.18184 -3.80753 0
M  V30 5232 N 521.769 1.56035 0.221574 0
M  V30 5233 C 523.046 1.69837 0.970301 0
M  V30 5234 C 523.426 0.599065 2.02421 0
M  V30 5235 O 522.774 -0.393929 2.25079 0
M  V30 5236 C 522.984 3.11148 1.58076 0
M  V30 5237 C 524.332 3.70555 2.07302 0
M  V30 5238 O 525.356 3.14109 1.6797 0
M  V30 5239 O 524.215 4.69562 2.79596 0
M  V30 5240 H 521.309 0.691727 0.453257 0
M  V30 5241 H 523.855 1.68353 0.213358 0
M  V30 5242 H 522.627 3.82617 0.819759 0
M  V30 5243 H 522.25 3.16749 2.40324 0
M  V30 5244 N 523.247 -0.488276 1.49845 0
M  V30 5245 C 524.493 -1.24341 1.6021 0
M  V30 5246 C 524.826 -1.91967 0.293651 0
M  V30 5247 O 524.101 -1.81323 -0.703718 0
M  V30 5248 C 524.384 -2.3005 2.77036 0
M  V30 5249 C 524.237 -1.66842 4.17713 0
M  V30 5250 C 525.556 -3.31509 2.89464 0
M  V30 5251 H 522.675 -0.450704 0.583125 0
M  V30 5252 H 525.317 -0.539673 1.82174 0
M  V30 5253 H 523.467 -2.90071 2.58439 0
M  V30 5254 H 525.139 -1.1055 4.47858 0
M  V30 5255 H 523.382 -0.972079 4.22768 0
M  V30 5256 H 524.053 -2.43576 4.95353 0
M  V30 5257 H 526.529 -2.81493 3.06433 0
M  V30 5258 H 525.405 -4.02822 3.72861 0
M  V30 5259 H 525.666 -3.94603 1.99351 0
M  V30 5260 N 524.725 -1.39134 -0.740242 0
M  V30 5261 C 525.95 -1.39518 -1.53459 0
M  V30 5262 C 526.375 0.00968883 -1.88098 0
M  V30 5263 O 525.733 0.995312 -1.51536 0
M  V30 5264 C 525.781 -2.26981 -2.802 0
M  V30 5265 O 524.885 -1.69609 -3.75908 0
M  V30 5266 H 524.226 -0.475328 -0.463637 0
M  V30 5267 H 526.756 -1.83064 -0.913717 0
M  V30 5268 H 526.766 -2.41309 -3.28989 0
M  V30 5269 H 525.441 -3.29081 -2.5432 0
M  V30 5270 H 524.018 -1.64495 -3.34658 0
M  V30 5271 N 526.204 0.969867 -1.24223 0
M  V30 5272 C 527.151 2.06407 -1.0327 0
M  V30 5273 C 528.121 1.66014 0.0533 0
M  V30 5274 O 529.306 1.90533 -0.100896 0
M  V30 5275 C 526.446 3.3909 -0.641262 0
M  V30 5276 C 525.559 3.9269 -1.80051 0
M  V30 5277 C 524.694 5.13631 -1.35486 0
M  V30 5278 C 523.733 5.59423 -2.48419 0
M  V30 5279 N 522.87 6.71586 -2.04737 0
M  V30 5280 H 527.71 2.23663 -1.96923 0
M  V30 5281 H 525.247 1.09624 -0.980862 0
M  V30 5282 H 527.205 4.15323 -0.395351 0
M  V30 5283 H 525.835 3.21765 0.258269 0
M  V30 5284 H 524.887 3.13116 -2.16014 0
M  V30 5285 H 526.199 4.22636 -2.64916 0
M  V30 5286 H 525.353 5.97231 -1.0677 0
M  V30 5287 H 524.092 4.85364 -0.476722 0
M  V30 5288 H 523.097 4.74398 -2.77897 0
M  V30 5289 H 524.322 5.89705 -3.36786 0
M  V30 5290 H 522.268 6.45058 -1.19318 0
M  V30 5291 H 522.185 7.0097 -2.83156 0
M  V30 5292 H 523.453 7.58633 -1.79154 0
M  V30 5293 N 527.682 1.05563 1.17022 0
M  V30 5294 C 529.093 0.793475 1.69 0
M  V30 5295 C 529.444 -0.683882 1.83895 0
M  V30 5296 O 528.569 -1.53116 1.5292 0
M  V30 5297 C 529.164 1.43376 3.06967 0
M  V30 5298 C 527.723 1.21956 3.56095 0
M  V30 5299 C 526.87 1.51494 2.3226 0
M  V30 5300 H 529.821 1.22008 1.01487 0
M  V30 5301 H 529.842 0.845068 3.70997 0
M  V30 5302 H 529.354 2.50899 2.96093 0
M  V30 5303 H 527.455 0.163749 3.7224 0
M  V30 5304 H 527.568 1.92713 4.38633 0
M  V30 5305 H 525.932 0.935175 2.3691 0
M  V30 5306 H 526.715 2.60159 2.23992 0
M  V30 5307 N 529.16 -1.33526 0.837174 0
M  V30 5308 C 530.39 -2.01754 0.444848 0
M  V30 5309 C 530.798 -1.63149 -0.958072 0
M  V30 5310 O 530.141 -0.839827 -1.63379 0
M  V30 5311 C 530.203 -3.56228 0.483917 0
M  V30 5312 C 529.867 -4.18205 1.84265 0
M  V30 5313 C 530.864 -4.37699 2.80563 0
M  V30 5314 C 528.549 -4.54667 2.13503 0
M  V30 5315 C 530.543 -4.928 4.04261 0
M  V30 5316 C 528.23 -5.09475 3.37458 0
M  V30 5317 C 529.228 -5.28488 4.32654 0
M  V30 5318 O 528.916 -5.82132 5.54417 0
M  V30 5319 H 528.648 -0.652928 0.175104 0
M  V30 5320 H 531.202 -1.71469 1.13082 0
M  V30 5321 H 529.432 -3.85833 -0.258826 0
M  V30 5322 H 531.121 -4.05752 0.109653 0
M  V30 5323 H 531.887 -4.0988 2.59274 0
M  V30 5324 H 527.766 -4.39164 1.40201 0
M  V30 5325 H 531.31 -5.07555 4.78574 0
M  V30 5326 H 527.207 -5.36725 3.58604 0
M  V30 5327 H 527.975 -6.00548 5.56133 0
M  V30 5328 N 530.638 -0.59345 -1.46 0
M  V30 5329 C 532.054 -0.255965 -1.57534 0
M  V30 5330 C 532.254 1.24167 -1.58697 0
M  V30 5331 O 531.31 2.02398 -1.50968 0
M  V30 5332 C 532.623 -0.91466 -2.86451 0
M  V30 5333 C 534.171 -0.889253 -3.00102 0
M  V30 5334 C 534.646 -1.52769 -4.3177 0
M  V30 5335 N 536.137 -1.49253 -4.38495 0
M  V30 5336 C 536.872 -1.9558 -5.39014 0
M  V30 5337 N 536.368 -2.49929 -6.46148 0
M  V30 5338 N 538.161 -1.86432 -5.30282 0
M  V30 5339 H 530.312 -1.56604 -1.43489 0
M  V30 5340 H 532.575 -0.655207 -0.685133 0
M  V30 5341 H 532.281 -1.96861 -2.91442 0
M  V30 5342 H 532.155 -0.429356 -3.74748 0
M  V30 5343 H 534.542 0.156111 -2.94687 0
M  V30 5344 H 534.623 -1.41268 -2.13253 0
M  V30 5345 H 534.267 -2.57231 -4.37944 0
M  V30 5346 H 534.197 -0.979398 -5.17412 0
M  V30 5347 H 536.688 -1.09536 -3.61677 0
M  V30 5348 H 537.001 -2.83109 -7.19075 0
M  V30 5349 H 535.346 -2.53961 -6.46938 0
M  V30 5350 H 538.537 -1.43722 -4.4549 0
M  V30 5351 H 538.71 -2.22852 -6.08474 0
M  V30 5352 N 532.116 1.54067 -0.331816 0
M  V30 5353 C 533.046 2.27569 0.522932 0
M  V30 5354 C 534.027 1.28679 1.11247 0
M  V30 5355 O 535.212 1.57504 1.13605 0
M  V30 5356 C 532.342 3.0397 1.67987 0
M  V30 5357 C 531.296 4.10267 1.21924 0
M  V30 5358 C 530.622 4.74555 2.46377 0
M  V30 5359 C 531.922 5.21268 0.32815 0
M  V30 5360 H 533.616 2.99264 -0.0901977 0
M  V30 5361 H 531.162 1.4393 -0.044821 0
M  V30 5362 H 533.115 3.54123 2.28418 0
M  V30 5363 H 531.839 2.29906 2.31971 0
M  V30 5364 H 530.498 3.61009 0.637809 0
M  V30 5365 H 530.146 3.97098 3.08743 0
M  V30 5366 H 529.846 5.46363 2.16243 0
M  V30 5367 H 531.37 5.27487 3.07555 0
M  V30 5368 H 532.784 5.67128 0.838978 0
M  V30 5369 H 531.181 5.99982 0.119228 0
M  V30 5370 H 532.251 4.80673 -0.638839 0
M  V30 5371 N 533.594 0.0601682 1.57485 0
M  V30 5372 C 534.557 -0.896373 2.10945 0
M  V30 5373 C 535.557 -1.23402 1.03095 0
M  V30 5374 O 536.747 -1.16921 1.29132 0
M  V30 5375 C 533.879 -2.20346 2.60116 0
M  V30 5376 H 535.072 -0.432778 2.96761 0
M  V30 5377 H 532.625 -0.188372 1.55161 0
M  V30 5378 H 533.36 -2.71268 1.7772 0
M  V30 5379 H 533.145 -1.9714 3.38937 0
M  V30 5380 H 534.635 -2.88846 3.01592 0
M  V30 5381 N 535.072 -1.5615 -0.213296 0
M  V30 5382 C 536.3 -1.83638 -0.953139 0
M  V30 5383 C 536.715 -0.640362 -1.77609 0
M  V30 5384 O 536.072 0.391071 -1.78261 0
M  V30 5385 C 536.123 -3.09735 -1.86405 0
M  V30 5386 O 535.844 -4.24723 -1.07435 0
M  V30 5387 C 537.345 -3.5027 -2.71709 0
M  V30 5388 H 534.565 -0.610263 -0.278962 0
M  V30 5389 H 537.109 -2.03247 -0.226035 0
M  V30 5390 H 535.264 -2.92077 -2.545 0
M  V30 5391 H 535.678 -4.9641 -1.69343 0
M  V30 5392 H 537.152 -4.41515 -3.31313 0
M  V30 5393 H 537.629 -2.72406 -3.44516 0
M  V30 5394 H 538.235 -3.70396 -2.09015 0
M  V30 5395 N 536.55 0.480323 -1.50102 0
M  V30 5396 C 537.961 1.06142 -1.53593 0
M  V30 5397 C 538.312 1.93335 -0.334055 0
M  V30 5398 O 537.437 2.09188 0.55403 0
M  V30 5399 C 538.032 1.9317 -2.78336 0
M  V30 5400 C 536.591 2.46405 -2.84538 0
M  V30 5401 C 535.738 1.24521 -2.4777 0
M  V30 5402 H 538.689 0.26333 -1.565 0
M  V30 5403 H 538.71 2.78123 -2.59669 0
M  V30 5404 H 538.222 1.29683 -3.65792 0
M  V30 5405 H 536.323 3.13472 -2.01411 0
M  V30 5406 H 536.436 2.82143 -3.87211 0
M  V30 5407 H 534.8 1.57706 -2.00003 0
M  V30 5408 H 535.583 0.627102 -3.37524 0
M  V30 5409 N 538.028 1.39524 0.732853 0
M  V30 5410 C 539.274 1.37068 1.49467 0
M  V30 5411 C 539.607 -0.0327166 1.94172 0
M  V30 5412 O 538.882 -0.998071 1.66939 0
M  V30 5413 C 539.165 2.34494 2.73285 0
M  V30 5414 C 539.018 3.83784 2.34585 0
M  V30 5415 C 540.337 2.29717 3.75391 0
M  V30 5416 H 537.456 0.499206 0.542183 0
M  V30 5417 H 540.098 1.70532 0.837783 0
M  V30 5418 H 538.248 2.06087 3.29333 0
M  V30 5419 H 539.92 4.22949 1.84151 0
M  V30 5420 H 538.163 4.00455 1.66787 0
M  V30 5421 H 538.834 4.47444 3.23262 0
M  V30 5422 H 541.31 2.54839 3.28932 0
M  V30 5423 H 540.186 2.99962 4.59689 0
M  V30 5424 H 540.447 1.30291 4.22465 0
M  V30 5425 N 539.506 -0.963266 1.24736 0
M  V30 5426 C 540.736 -1.73913 1.11524 0
M  V30 5427 C 541.144 -1.86218 -0.334612 0
M  V30 5428 O 540.487 -1.3531 -1.24245 0
M  V30 5429 C 540.549 -3.17501 1.68622 0
M  V30 5430 C 540.213 -3.28655 3.17546 0
M  V30 5431 C 541.21 -3.13637 4.14642 0
M  V30 5432 C 538.895 -3.52753 3.5759 0
M  V30 5433 C 540.889 -3.2255 5.49764 0
M  V30 5434 C 538.576 -3.61303 4.92852 0
M  V30 5435 C 539.574 -3.46214 5.88748 0
M  V30 5436 O 539.262 -3.5443 7.2155 0
M  V30 5437 H 538.994 -0.552057 0.390139 0
M  V30 5438 H 541.548 -1.2177 1.65412 0
M  V30 5439 H 539.778 -3.70969 1.09172 0
M  V30 5440 H 541.467 -3.76914 1.50635 0
M  V30 5441 H 542.233 -2.94899 3.85045 0
M  V30 5442 H 538.112 -3.63561 2.83451 0
M  V30 5443 H 541.656 -3.1069 6.24594 0
M  V30 5444 H 537.553 -3.79556 5.22118 0
M  V30 5445 H 538.321 -3.71116 7.29531 0
M  V30 5446 N 540.985 -1.06182 -1.16461 0
M  V30 5447 C 541.948 -0.675723 -2.19013 0
M  V30 5448 C 542.948 0.277963 -1.58379 0
M  V30 5449 O 544.138 0.0604962 -1.74095 0
M  V30 5450 C 541.27 0.00591459 -3.40899 0
M  V30 5451 H 542.463 -1.58353 -2.54685 0
M  V30 5452 H 540.016 -0.856908 -1.30716 0
M  V30 5453 H 540.751 0.92652 -3.10783 0
M  V30 5454 H 540.536 -0.67984 -3.86161 0
M  V30 5455 H 542.026 0.26181 -4.16778 0
M  V30 5456 N 542.463 1.3308 -0.844243 0
M  V30 5457 C 543.688 2.02341 -0.455282 0
M  V30 5458 C 544.113 1.6308 0.93737 0
M  V30 5459 O 543.471 0.826118 1.61385 0
M  V30 5460 C 543.519 3.55743 -0.58988 0
M  V30 5461 O 542.623 4.1063 0.38166 0
M  V30 5462 H 541.964 0.637898 -0.184343 0
M  V30 5463 H 544.494 1.6986 -1.14056 0
M  V30 5464 H 544.504 4.05243 -0.473522 0
M  V30 5465 H 543.179 3.83662 -1.60549 0
M  V30 5466 H 541.756 3.72236 0.22241 0
M  V30 5467 N 543.941 0.601185 1.45683 0
M  V30 5468 C 544.871 -0.108824 2.33246 0
M  V30 5469 C 545.852 -0.865223 1.46451 0
M  V30 5470 O 547.037 -0.83704 1.75235 0
M  V30 5471 C 544.167 -1.11101 3.2905 0
M  V30 5472 C 543.121 -0.468244 4.25431 0
M  V30 5473 C 542.447 -1.57822 5.10878 0
M  V30 5474 C 543.747 0.606469 5.18767 0
M  V30 5475 H 545.441 0.622306 2.92861 0
M  V30 5476 H 542.987 0.300714 1.40825 0
M  V30 5477 H 544.94 -1.61622 3.89174 0
M  V30 5478 H 543.664 -1.87265 2.67581 0
M  V30 5479 H 542.323 0.0160484 3.66596 0
M  V30 5480 H 541.971 -2.32998 4.45781 0
M  V30 5481 H 541.671 -1.15369 5.76163 0
M  V30 5482 H 543.195 -2.08583 5.73869 0
M  V30 5483 H 544.609 0.185589 5.73 0
M  V30 5484 H 543.006 0.952381 5.92494 0
M  V30 5485 H 544.076 1.48559 4.61582 0
M  V30 5486 N 545.419 -1.53889 0.339982 0
M  V30 5487 C 546.647 -2.05271 -0.259114 0
M  V30 5488 C 547.062 -1.21517 -1.44496 0
M  V30 5489 O 546.419 -0.24966 -1.80784 0
M  V30 5490 C 546.47 -3.55092 -0.677634 0
M  V30 5491 O 546.191 -4.35667 0.461051 0
M  V30 5492 C 547.692 -4.22631 -1.33782 0
M  V30 5493 H 544.912 -0.669085 -0.0506566 0
M  V30 5494 H 547.456 -1.9852 0.490935 0
M  V30 5495 H 545.611 -3.62077 -1.37763 0
M  V30 5496 H 546.025 -5.24343 0.128144 0
M  V30 5497 H 547.499 -5.28861 -1.58145 0
M  V30 5498 H 547.976 -3.74758 -2.29027 0
M  V30 5499 H 548.582 -4.19829 -0.679957 0
M  V30 5500 N 546.897 -0.0685191 -1.57451 0
M  V30 5501 C 548.308 0.464634 -1.80826 0
M  V30 5502 C 548.659 1.69847 -0.982169 0
M  V30 5503 O 547.784 2.15439 -0.203734 0
M  V30 5504 C 548.379 0.849721 -3.27971 0
M  V30 5505 C 546.938 1.32776 -3.52204 0
M  V30 5506 C 546.085 0.311332 -2.75547 0
M  V30 5507 H 549.036 -0.294248 -1.55948 0
M  V30 5508 H 549.057 1.71138 -3.39841 0
M  V30 5509 H 548.569 -0.0484736 -3.8807 0
M  V30 5510 H 546.67 2.24456 -2.97406 0
M  V30 5511 H 546.783 1.30794 -4.60901 0
M  V30 5512 H 545.147 0.787915 -2.42206 0
M  V30 5513 H 545.93 -0.579078 -3.38381 0
M  V30 5514 N 548.375 1.56261 0.205012 0
M  V30 5515 C 549.791 1.49623 0.555433 0
M  V30 5516 C 549.991 0.766719 1.86343 0
M  V30 5517 O 549.047 0.313158 2.50551 0
M  V30 5518 C 550.36 2.94253 0.619347 0
M  V30 5519 C 551.908 3.04868 0.708855 0
M  V30 5520 C 552.383 4.50888 0.803969 0
M  V30 5521 N 553.874 4.54999 0.867758 0
M  V30 5522 C 554.609 5.65284 0.96135 0
M  V30 5523 N 554.105 6.85282 1.01786 0
M  V30 5524 N 555.898 5.53174 0.997771 0
M  V30 5525 H 548.049 2.0211 -0.653094 0
M  V30 5526 H 550.312 0.919333 -0.231366 0
M  V30 5527 H 550.018 3.50643 -0.272458 0
M  V30 5528 H 549.892 3.47063 1.47741 0
M  V30 5529 H 552.279 2.48532 1.5911 0
M  V30 5530 H 552.36 2.55199 -0.175205 0
M  V30 5531 H 552.004 5.07846 -0.0738798 0
M  V30 5532 H 551.934 4.98279 1.70369 0
M  V30 5533 H 554.425 3.68588 0.833735 0
M  V30 5534 H 554.738 7.65081 1.08951 0
M  V30 5535 H 553.083 6.8796 0.986706 0
M  V30 5536 H 556.274 4.5835 0.950392 0
M  V30 5537 H 556.447 6.39151 1.06725 0
M  V30 5538 N 549.853 -0.472356 1.50355 0
M  V30 5539 C 551.078 -1.25251 1.65309 0
M  V30 5540 C 551.503 -1.85081 0.335643 0
M  V30 5541 O 550.861 -1.67227 -0.700335 0
M  V30 5542 C 550.909 -2.3379 2.74544 0
M  V30 5543 O 550.013 -3.38401 2.35709 0
M  V30 5544 H 549.354 -0.368539 0.552336 0
M  V30 5545 H 551.884 -0.562271 1.96722 0
M  V30 5546 H 551.894 -2.79121 2.97583 0
M  V30 5547 H 550.569 -1.89614 3.70161 0
M  V30 5548 H 549.146 -2.9879 2.23112 0
M  V30 5549 N 551.331 -1.39911 -0.725443 0
M  V30 5550 C 552.747 -1.21725 -1.03224 0
M  V30 5551 C 552.947 -0.0855224 -2.01318 0
M  V30 5552 O 552.003 0.55976 -2.46217 0
M  V30 5553 C 553.316 -2.55511 -1.58539 0
M  V30 5554 C 554.864 -2.62439 -1.70572 0
M  V30 5555 C 555.339 -3.9647 -2.29294 0
M  V30 5556 N 556.83 -3.98159 -2.36692 0
M  V30 5557 C 557.565 -4.98647 -2.83088 0
M  V30 5558 N 557.061 -6.0953 -3.2931 0
M  V30 5559 N 558.854 -4.8602 -2.82384 0
M  V30 5560 H 551.005 -2.12267 -0.075048 0
M  V30 5561 H 553.268 -0.943136 -0.0959066 0
M  V30 5562 H 552.974 -3.38926 -0.939249 0
M  V30 5563 H 552.848 -2.75905 -2.57208 0
M  V30 5564 H 555.235 -1.79401 -2.34306 0
M  V30 5565 H 555.316 -2.45885 -0.705297 0
M  V30 5566 H 554.96 -4.79942 -1.66186 0
M  V30 5567 H 554.89 -4.10349 -3.30032 0
M  V30 5568 H 557.381 -3.18085 -2.04035 0
M  V30 5569 H 557.694 -6.82106 -3.6325 0
M  V30 5570 H 556.039 -6.1311 -3.27294 0
M  V30 5571 H 559.23 -3.98493 -2.45603 0
M  V30 5572 H 559.403 -5.64478 -3.18226 0
M  V30 5573 N 552.809 0.956637 -1.25245 0
M  V30 5574 C 554.22 1.51569 -1.09012 0
M  V30 5575 C 554.571 1.93322 0.334813 0
M  V30 5576 O 553.696 1.78421 1.22454 0
M  V30 5577 C 554.291 2.75444 -1.97271 0
M  V30 5578 C 552.85 3.27669 -1.8523 0
M  V30 5579 C 551.997 2.00517 -1.91542 0
M  V30 5580 H 554.948 0.773746 -1.3856 0
M  V30 5581 H 554.969 3.4919 -1.51151 0
M  V30 5582 H 554.481 2.45024 -3.00973 0
M  V30 5583 H 552.582 3.62914 -0.844045 0
M  V30 5584 H 552.695 3.9582 -2.69932 0
M  V30 5585 H 551.059 2.15727 -1.35404 0
M  V30 5586 H 551.842 1.72448 -2.96844 0
M  V30 5587 N 554.287 1.06798 1.15896 0
M  V30 5588 C 555.703 0.792423 1.38538 0
M  V30 5589 C 555.903 -0.60592 1.92174 0
M  V30 5590 O 554.959 -1.36561 2.12385 0
M  V30 5591 C 556.272 1.86157 2.36149 0
M  V30 5592 C 557.82 1.88567 2.49823 0
M  V30 5593 C 558.295 2.9455 3.5072 0
M  V30 5594 N 559.786 2.93616 3.58251 0
M  V30 5595 C 560.521 3.72267 4.36125 0
M  V30 5596 N 560.017 4.60751 5.17379 0
M  V30 5597 N 561.81 3.60637 4.31158 0
M  V30 5598 H 553.961 1.96993 0.794198 0
M  V30 5599 H 556.224 0.853942 0.411688 0
M  V30 5600 H 555.93 2.86603 2.03843 0
M  V30 5601 H 555.804 1.71692 3.3586 0
M  V30 5602 H 558.191 0.887765 2.8143 0
M  V30 5603 H 558.272 2.0711 1.5013 0
M  V30 5604 H 557.916 3.94537 3.19849 0
M  V30 5605 H 557.846 2.73255 4.50155 0
M  V30 5606 H 560.337 2.29472 3.00252 0
M  V30 5607 H 560.65 5.17408 5.74028 0
M  V30 5608 H 558.995 4.64803 5.16704 0
M  V30 5609 H 562.186 2.90892 3.66742 0
M  V30 5610 H 562.359 4.22176 4.91601 0
M  V30 5611 N 555.766 -1.3263 0.851289 0
M  V30 5612 C 557.177 -1.79653 0.5081 0
M  V30 5613 C 557.528 -1.70327 -0.973815 0
M  V30 5614 O 556.653 -1.25986 -1.75944 0
M  V30 5615 C 557.248 -3.26196 0.915515 0
M  V30 5616 C 555.807 -3.71187 0.624277 0
M  V30 5617 C 554.954 -2.53804 1.11709 0
M  V30 5618 H 557.905 -1.19976 1.03882 0
M  V30 5619 H 557.926 -3.79801 0.230535 0
M  V30 5620 H 557.438 -3.32952 1.99411 0
M  V30 5621 H 555.539 -3.69948 -0.443737 0
M  V30 5622 H 555.652 -4.64132 1.18821 0
M  V30 5623 H 554.016 -2.48964 0.537484 0
M  V30 5624 H 554.799 -2.63315 2.20272 0
M  V30 5625 N 557.244 -0.608902 -1.45362 0
M  V30 5626 C 558.655 -0.189511 -1.85736 0
M  V30 5627 C 559.006 1.2539 -1.50903 0
M  V30 5628 O 558.131 1.95094 -0.936347 0
M  V30 5629 C 558.726 -0.33716 -3.37118 0
M  V30 5630 C 557.285 0.0275487 -3.7639 0
M  V30 5631 C 556.432 -0.660983 -2.69307 0
M  V30 5632 H 559.383 -0.815499 -1.36144 0
M  V30 5633 H 559.404 0.430257 -3.7806 0
M  V30 5634 H 558.916 -1.38779 -3.62439 0
M  V30 5635 H 557.017 1.0773 -3.56686 0
M  V30 5636 H 557.13 -0.367018 -4.77692 0
M  V30 5637 H 555.494 -0.0984958 -2.54509 0
M  V30 5638 H 556.277 -1.71377 -2.97464 0
M  V30 5639 N 558.722 1.53707 -0.348139 0
M  V30 5640 C 559.669 2.25173 0.506518 0
M  V30 5641 C 560.639 1.25174 1.09182 0
M  V30 5642 O 561.824 1.53917 1.12757 0
M  V30 5643 C 558.964 3.03141 1.64923 0
M  V30 5644 C 558.077 4.18002 1.0908 0
M  V30 5645 C 557.212 4.83447 2.20119 0
M  V30 5646 C 556.251 5.90369 1.61651 0
M  V30 5647 N 555.388 6.49575 2.66451 0
M  V30 5648 H 560.228 2.97799 -0.109452 0
M  V30 5649 H 557.765 1.46953 -0.0657866 0
M  V30 5650 H 559.723 3.46607 2.32205 0
M  V30 5651 H 558.353 2.32803 2.23612 0
M  V30 5652 H 557.405 3.79145 0.308783 0
M  V30 5653 H 558.717 4.94892 0.623178 0
M  V30 5654 H 557.871 5.30008 2.95257 0
M  V30 5655 H 556.61 4.05991 2.70227 0
M  V30 5656 H 555.615 5.43186 0.850209 0
M  V30 5657 H 556.84 6.69735 1.1239 0
M  V30 5658 H 554.786 5.74981 3.15805 0
M  V30 5659 H 554.703 7.21952 2.24325 0
M  V30 5660 H 555.971 7.00789 3.41344 0
M  V30 5661 N 560.2 0.0768682 1.57412 0
M  V30 5662 C 561.477 -0.632359 1.85096 0
M  V30 5663 C 561.857 -1.87479 0.9703 0
M  V30 5664 O 561.205 -2.28469 0.0379062 0
M  V30 5665 C 561.415 -0.965174 3.35388 0
M  V30 5666 C 562.763 -1.33648 4.03018 0
M  V30 5667 O 563.787 -1.05675 3.40164 0
M  V30 5668 O 562.646 -1.85959 5.13889 0
M  V30 5669 H 559.74 -0.314574 0.764835 0
M  V30 5670 H 562.286 0.108184 1.69355 0
M  V30 5671 H 561.058 -0.0829745 3.91212 0
M  V30 5672 H 560.681 -1.76231 3.5641 0
M  V30 5673 N 561.678 -1.56367 -0.196722 0
M  V30 5674 C 562.903 -1.84991 -0.937714 0
M  V30 5675 C 563.328 -0.660244 -1.76132 0
M  V30 5676 O 562.686 0.390967 -1.77034 0
M  V30 5677 C 562.734 -3.11828 -1.81096 0
M  V30 5678 O 561.838 -2.92266 -2.90955 0
M  V30 5679 H 561.179 -0.609193 -0.264159 0
M  V30 5680 H 563.709 -2.03595 -0.202529 0
M  V30 5681 H 563.719 -3.42579 -2.21594 0
M  V30 5682 H 562.394 -3.98037 -1.2058 0
M  V30 5683 H 560.971 -2.72809 -2.54224 0
M  V30 5684 N 563.156 0.464375 -1.50603 0
M  V30 5685 C 564.088 1.57916 -1.66118 0
M  V30 5686 C 565.101 1.53497 -0.54246 0
M  V30 5687 O 566.29 1.58763 -0.815877 0
M  V30 5688 C 563.39 2.96809 -1.63577 0
M  V30 5689 C 562.563 3.26026 -2.91592 0
M  V30 5690 C 561.622 4.44506 -2.81604 0
M  V30 5691 O 560.648 4.44484 -3.55559 0
M  V30 5692 N 561.85 5.46549 -1.95614 0
M  V30 5693 H 564.615 1.45022 -2.62276 0
M  V30 5694 H 562.176 0.652903 -1.48151 0
M  V30 5695 H 564.168 3.74048 -1.54499 0
M  V30 5696 H 562.738 3.03438 -0.751262 0
M  V30 5697 H 561.958 2.37337 -3.14746 0
M  V30 5698 H 563.246 3.42361 -3.76386 0
M  V30 5699 H 562.644 5.49391 -1.34854 0
M  V30 5700 H 561.201 6.22746 -1.92435 0
M  V30 5701 N 564.634 1.40294 0.718013 0
M  V30 5702 C 565.597 1.4012 1.81381 0
M  V30 5703 C 566.597 0.295405 1.58063 0
M  V30 5704 O 567.787 0.554187 1.6515 0
M  V30 5705 C 564.919 1.19056 3.19435 0
M  V30 5706 H 566.112 2.37645 1.82933 0
M  V30 5707 H 563.665 1.26107 0.923405 0
M  V30 5708 H 564.4 0.222809 3.23534 0
M  V30 5709 H 564.185 1.99152 3.37758 0
M  V30 5710 H 565.675 1.21716 3.99468 0
M  V30 5711 N 566.112 -0.949982 1.2575 0
M  V30 5712 C 567.337 -1.73503 1.13628 0
M  V30 5713 C 567.762 -1.85601 -0.30559 0
M  V30 5714 O 567.12 -1.33984 -1.22139 0
M  V30 5715 C 567.168 -3.1243 1.80055 0
M  V30 5716 O 566.272 -3.97916 1.08336 0
M  V30 5717 H 565.613 -0.532665 0.396439 0
M  V30 5718 H 568.143 -1.19043 1.66403 0
M  V30 5719 H 568.153 -3.62866 1.86527 0
M  V30 5720 H 566.828 -3.02941 2.84956 0
M  V30 5721 H 565.405 -3.56375 1.09777 0
M  V30 5722 N 567.59 -1.07411 -1.15328 0
M  V30 5723 C 569.001 -0.820261 -1.67716 0
M  V30 5724 C 569.352 0.654539 -1.8496 0
M  V30 5725 O 568.477 1.50664 -1.55337 0
M  V30 5726 C 569.072 -1.48242 -3.04647 0
M  V30 5727 C 567.631 -1.27606 -3.5411 0
M  V30 5728 C 566.778 -1.5517 -2.29821 0
M  V30 5729 H 569.729 -1.23608 -0.995332 0
M  V30 5730 H 569.75 -0.903984 -3.69606 0
M  V30 5731 H 569.262 -2.55578 -2.92064 0
M  V30 5732 H 567.363 -0.222948 -3.71932 0
M  V30 5733 H 567.476 -1.99667 -4.35511 0
M  V30 5734 H 565.84 -0.972747 -2.35393 0
M  V30 5735 H 566.623 -2.63689 -2.19824 0
M  V30 5736 N 569.068 1.32177 -0.85831 0
M  V30 5737 C 570.316 1.96735 -0.462568 0
M  V30 5738 C 570.637 1.6824 0.985911 0
M  V30 5739 O 569.907 0.991564 1.68952 0
M  V30 5740 H 568.487 0.727849 -0.168064 0
M  V30 5741 H 571.149 1.61195 -1.09554 0
M  V30 5742 H 570.245 3.06068 -0.610647 0
M  V30 5743 N 570.547 0.616602 1.45037 0
M  V30 5744 C 571.963 0.280994 1.57107 0
M  V30 5745 C 572.163 -1.21627 1.60653 0
M  V30 5746 O 571.219 -1.9997 1.54169 0
M  V30 5747 C 572.532 0.960116 2.8496 0
M  V30 5748 C 574.08 0.936884 2.98649 0
M  V30 5749 C 574.555 1.59619 4.29285 0
M  V30 5750 N 576.046 1.5621 4.36065 0
M  V30 5751 C 576.781 2.04131 5.35834 0
M  V30 5752 N 576.277 2.60177 6.4209 0
M  V30 5753 N 578.07 1.94845 5.27249 0
M  V30 5754 H 570.221 1.58867 1.40979 0
M  V30 5755 H 572.484 0.666024 0.674623 0
M  V30 5756 H 572.19 2.01473 2.88273 0
M  V30 5757 H 572.064 0.488921 3.74018 0
M  V30 5758 H 574.451 -0.109209 2.94898 0
M  V30 5759 H 574.532 1.44643 2.10979 0
M  V30 5760 H 574.176 2.64166 4.33796 0
M  V30 5761 H 574.106 1.06159 5.15789 0
M  V30 5762 H 576.597 1.15276 3.59889 0
M  V30 5763 H 576.91 2.94513 7.1448 0
M  V30 5764 H 575.255 2.64221 6.42816 0
M  V30 5765 H 578.446 1.50792 4.43147 0
M  V30 5766 H 578.619 2.32504 6.04852 0
M  V30 5767 N 572.025 -1.5352 0.356285 0
M  V30 5768 C 573.436 -1.86282 -0.12492 0
M  V30 5769 C 573.787 -1.27717 -1.48939 0
M  V30 5770 O 572.912 -0.595614 -2.08042 0
M  V30 5771 C 573.507 -3.37995 -0.23345 0
M  V30 5772 C 572.066 -3.70588 -0.658899 0
M  V30 5773 C 571.213 -2.76581 0.199596 0
M  V30 5774 H 574.164 -1.47901 0.575423 0
M  V30 5775 H 574.185 -3.65475 -1.0587 0
M  V30 5776 H 573.697 -3.8059 0.759776 0
M  V30 5777 H 571.798 -3.33544 -1.66069 0
M  V30 5778 H 571.911 -4.77076 -0.439957 0
M  V30 5779 H 570.275 -2.52552 -0.330076 0
M  V30 5780 H 571.058 -3.22008 1.19019 0
M  V30 5781 N 573.503 -0.0852151 -1.57369 0
M  V30 5782 C 574.728 0.592872 -1.98746 0
M  V30 5783 C 575.153 1.61538 -0.963689 0
M  V30 5784 O 574.511 1.81168 0.069071 0
M  V30 5785 C 574.559 1.22599 -3.39119 0
M  V30 5786 O 573.663 2.34185 -3.39457 0
M  V30 5787 H 573.004 0.151314 -0.646529 0
M  V30 5788 H 575.534 -0.163703 -2.03944 0
M  V30 5789 H 575.544 1.56965 -3.76598 0
M  V30 5790 H 574.219 0.476831 -4.13158 0
M  V30 5791 H 572.796 2.01512 -3.13763 0
M  V30 5792 N 574.981 1.5647 0.188427 0
M  V30 5793 C 576.206 1.85486 0.927891 0
M  V30 5794 C 576.631 0.669575 1.75779 0
M  V30 5795 O 575.989 -0.381573 1.77239 0
M  V30 5796 C 576.037 3.12784 1.7944 0
M  V30 5797 O 575.141 2.93805 2.894 0
M  V30 5798 H 574.482 0.610585 0.260925 0
M  V30 5799 H 577.012 2.037 0.191729 0
M  V30 5800 H 577.022 3.43749 2.19774 0
M  V30 5801 H 575.697 3.98671 1.18468 0
M  V30 5802 H 574.274 2.74153 2.52774 0
M  V30 5803 N 576.459 -0.456382 1.50847 0
M  V30 5804 C 577.705 -1.20914 1.62811 0
M  V30 5805 C 578.038 -1.91301 0.334304 0
M  V30 5806 O 577.313 -1.82775 -0.665098 0
M  V30 5807 C 577.596 -2.24122 2.81853 0
M  V30 5808 C 577.449 -1.57944 4.21158 0
M  V30 5809 C 578.768 -3.25295 2.96431 0
M  V30 5810 H 575.887 -0.438233 0.592554 0
M  V30 5811 H 578.529 -0.50091 1.83278 0
M  V30 5812 H 576.679 -2.84524 2.64534 0
M  V30 5813 H 578.351 -1.01025 4.50102 0
M  V30 5814 H 576.594 -0.882185 4.24735 0
M  V30 5815 H 577.265 -2.33014 5.00408 0
M  V30 5816 H 579.741 -2.7493 3.12335 0
M  V30 5817 H 578.617 -3.94822 3.81322 0
M  V30 5818 H 578.878 -3.90286 2.07676 0
M  V30 5819 N 577.937 -1.40673 -0.710563 0
M  V30 5820 C 578.847 -1.43663 -1.85467 0
M  V30 5821 C 579.863 -0.328721 -1.70867 0
M  V30 5822 O 581.039 -0.574098 -1.93044 0
M  V30 5823 C 578.104 -1.30226 -3.21313 0
M  V30 5824 C 577.165 -2.51204 -3.48131 0
M  V30 5825 C 576.398 -2.38398 -4.77495 0
M  V30 5826 O 576.621 -1.40048 -5.5294 0
M  V30 5827 O 575.555 -3.2787 -5.04762 0
M  V30 5828 H 579.381 -2.40156 -1.859 0
M  V30 5829 H 576.966 -1.22049 -0.861652 0
M  V30 5830 H 578.848 -1.2496 -4.02446 0
M  V30 5831 H 577.523 -0.368419 -3.21597 0
M  V30 5832 H 576.43 -2.62048 -2.66987 0
M  V30 5833 H 577.763 -3.43366 -3.52648 0
M  V30 5834 N 579.415 0.9433 -1.26252 0
M  V30 5835 C 580.325 2.07532 -1.09397 0
M  V30 5836 C 581.341 1.73977 -0.0280449 0
M  V30 5837 O 582.517 2.00067 -0.231337 0
M  V30 5838 C 579.582 3.39002 -0.726523 0
M  V30 5839 C 578.643 3.86353 -1.87163 0
M  V30 5840 C 577.876 5.11549 -1.52162 0
M  V30 5841 O 578.099 5.68834 -0.422385 0
M  V30 5842 O 577.033 5.53889 -2.35565 0
M  V30 5843 H 580.859 2.24658 -2.04359 0
M  V30 5844 H 578.444 1.05988 -1.05295 0
M  V30 5845 H 580.326 4.18 -0.534236 0
M  V30 5846 H 579.001 3.2312 0.193721 0
M  V30 5847 H 577.908 3.0831 -2.11886 0
M  V30 5848 H 579.241 4.06752 -2.77152 0
M  V30 5849 N 580.893 1.08022 1.14757 0
M  V30 5850 C 582.139 0.808705 1.85978 0
M  V30 5851 C 582.472 -0.663764 1.82504 0
M  V30 5852 O 581.747 -1.48765 1.25296 0
M  V30 5853 C 582.03 1.32623 3.34788 0
M  V30 5854 C 581.883 2.86375 3.46856 0
M  V30 5855 C 583.202 0.948291 4.29762 0
M  V30 5856 H 580.321 0.295244 0.675278 0
M  V30 5857 H 582.963 1.33917 1.34783 0
M  V30 5858 H 581.113 0.875002 3.78518 0
M  V30 5859 H 582.785 3.39839 3.11941 0
M  V30 5860 H 581.028 3.24232 2.88194 0
M  V30 5861 H 581.699 3.17658 4.51439 0
M  V30 5862 H 584.175 1.33722 3.94028 0
M  V30 5863 H 583.051 1.33765 5.32352 0
M  V30 5864 H 583.312 -0.145094 4.41862 0
M  V30 5865 N 582.371 -1.3172 0.865308 0
M  V30 5866 C 583.787 -1.4958 0.556596 0
M  V30 5867 C 583.987 -1.79763 -0.910353 0
M  V30 5868 O 583.043 -1.87351 -1.6928 0
M  V30 5869 C 584.356 -2.63277 1.45279 0
M  V30 5870 C 585.904 -2.77161 1.45433 0
M  V30 5871 C 586.379 -3.93949 2.33598 0
M  V30 5872 N 587.87 -4.01228 2.31453 0
M  V30 5873 C 588.605 -4.90855 2.96393 0
M  V30 5874 N 588.101 -5.85416 3.70486 0
M  V30 5875 N 589.894 -4.84063 2.85726 0
M  V30 5876 H 582.045 -1.10396 1.81456 0
M  V30 5877 H 584.308 -0.54507 0.775631 0
M  V30 5878 H 584.014 -2.47734 2.49641 0
M  V30 5879 H 583.888 -3.59309 1.14792 0
M  V30 5880 H 586.275 -2.9212 0.41831 0
M  V30 5881 H 586.356 -1.8181 1.79941 0
M  V30 5882 H 586 -3.79748 3.37274 0
M  V30 5883 H 585.93 -4.88598 1.96417 0
M  V30 5884 H 588.421 -3.3357 1.77593 0
M  V30 5885 H 588.734 -6.50525 4.17178 0
M  V30 5886 H 587.079 -5.85409 3.74594 0
M  V30 5887 H 590.27 -4.09163 2.27384 0
M  V30 5888 H 590.443 -5.53708 3.36617 0
M  V30 5889 N 583.85 -0.624285 -1.44708 0
M  V30 5890 C 585.099 -0.123539 -2.01321 0
M  V30 5891 C 585.412 1.25966 -1.49639 0
M  V30 5892 O 586.618 1.85405 -1.98336 0
M  V30 5893 C 585.074 -0.170124 -3.59498 0
M  V30 5894 C 584.682 -1.55421 -4.20176 0
M  V30 5895 C 586.426 0.274513 -4.23611 0
M  V30 5896 C 584.332 -1.55628 -5.70556 0
M  V30 5897 H 583.263 -0.0424183 -0.752806 0
M  V30 5898 H 585.913 -0.782076 -1.65999 0
M  V30 5899 H 584.296 0.555385 -3.92086 0
M  V30 5900 H 585.47 -2.30276 -3.99136 0
M  V30 5901 H 583.784 -1.94235 -3.68323 0
M  V30 5902 H 586.382 0.292402 -5.339 0
M  V30 5903 H 586.725 1.3005 -3.95465 0
M  V30 5904 H 587.258 -0.398275 -3.95801 0
M  V30 5905 H 583.997 -2.56041 -6.03426 0
M  V30 5906 H 583.517 -0.850563 -5.93739 0
M  V30 5907 H 585.196 -1.28721 -6.34066 0
M  V30 5908 N 585.328 1.53329 -0.364422 0
M  V30 5909 C 586.291 2.24323 0.470292 0
M  V30 5910 C 587.291 1.25068 1.01067 0
M  V30 5911 O 588.481 1.49354 0.896605 0
M  V30 5912 C 585.613 2.97908 1.65722 0
M  V30 5913 H 586.806 2.9952 -0.150917 0
M  V30 5914 H 584.359 1.55868 -0.116092 0
M  V30 5915 H 585.094 2.2695 2.31655 0
M  V30 5916 H 584.879 3.70732 1.27671 0
M  V30 5917 H 586.369 3.5188 2.24878 0
M  V30 5918 N 586.806 0.0935595 1.57322 0
M  V30 5919 C 587.769 -0.851426 2.12799 0
M  V30 5920 C 588.769 -1.21187 1.0569 0
M  V30 5921 O 589.959 -1.14156 1.31583 0
M  V30 5922 C 587.091 -2.14779 2.64731 0
M  V30 5923 H 588.284 -0.369733 2.97612 0
M  V30 5924 H 585.837 -0.155417 1.55525 0
M  V30 5925 H 586.572 -2.67437 1.83434 0
M  V30 5926 H 586.357 -1.89907 3.43042 0
M  V30 5927 H 587.847 -2.82383 3.07651 0
M  V30 5928 N 588.284 -1.56567 -0.180126 0
M  V30 5929 C 589.509 -1.85975 -0.918041 0
M  V30 5930 C 589.934 -0.678888 -1.75422 0
M  V30 5931 O 589.292 0.372168 -1.77439 0
M  V30 5932 C 589.34 -3.13731 -1.77779 0
M  V30 5933 O 588.444 -2.95335 -2.87838 0
M  V30 5934 H 587.785 -0.61196 -0.257683 0
M  V30 5935 H 590.315 -2.03798 -0.180923 0
M  V30 5936 H 590.325 -3.4491 -2.17948 0
M  V30 5937 H 589 -3.99293 -1.16352 0
M  V30 5938 H 587.577 -2.7549 -2.51316 0
M  V30 5939 N 589.762 0.448376 -1.51087 0
M  V30 5940 C 591.173 1.0286 -1.5581 0
M  V30 5941 C 591.524 1.92583 -0.374989 0
M  V30 5942 O 590.649 2.10316 0.509533 0
M  V30 5943 C 591.244 1.87223 -2.8237 0
M  V30 5944 C 589.803 2.40314 -2.897 0
M  V30 5945 C 588.95 1.19238 -2.50355 0
M  V30 5946 H 591.901 0.230075 -1.57023 0
M  V30 5947 H 591.922 2.72553 -2.6551 0
M  V30 5948 H 591.434 1.21894 -3.68461 0
M  V30 5949 H 589.535 3.09129 -2.08014 0
M  V30 5950 H 589.648 2.73866 -3.93108 0
M  V30 5951 H 588.012 1.53428 -2.03303 0
M  V30 5952 H 588.795 0.555367 -3.38778 0
M  V30 5953 N 591.24 1.41047 0.703093 0
M  V30 5954 C 592.187 1.42302 1.81711 0
M  V30 5955 C 593.157 0.278336 1.63751 0
M  V30 5956 O 594.342 0.478266 1.84709 0
M  V30 5957 C 591.482 1.30362 3.19531 0
M  V30 5958 C 590.595 2.54638 3.48975 0
M  V30 5959 C 589.73 2.35047 4.76368 0
M  V30 5960 C 588.769 3.54837 4.98756 0
M  V30 5961 N 587.906 3.34363 6.1737 0
M  V30 5962 H 592.746 2.37516 1.79973 0
M  V30 5963 H 590.283 1.1795 0.878983 0
M  V30 5964 H 592.241 1.21443 3.99134 0
M  V30 5965 H 590.871 0.387602 3.20464 0
M  V30 5966 H 589.923 2.74037 2.63833 0
M  V30 5967 H 591.235 3.43766 3.61423 0
M  V30 5968 H 590.389 2.23552 5.64012 0
M  V30 5969 H 589.128 1.43363 4.66153 0
M  V30 5970 H 588.133 3.66795 4.09563 0
M  V30 5971 H 589.358 4.47464 5.10835 0
M  V30 5972 H 587.304 2.45373 6.08382 0
M  V30 5973 H 587.221 4.17063 6.30551 0
M  V30 5974 H 588.489 3.26626 7.07768 0
M  V30 5975 N 592.718 -0.936591 1.26751 0
M  V30 5976 C 593.943 -1.72288 1.15462 0
M  V30 5977 C 594.368 -1.85915 -0.285887 0
M  V30 5978 O 593.726 -1.35272 -1.20711 0
M  V30 5979 C 593.774 -3.10503 1.83359 0
M  V30 5980 O 592.878 -3.96745 1.1255 0
M  V30 5981 H 592.219 -0.52843 0.402067 0
M  V30 5982 H 594.749 -1.17271 1.67656 0
M  V30 5983 H 594.759 -3.60867 1.90365 0
M  V30 5984 H 593.434 -2.99901 2.88153 0
M  V30 5985 H 592.011 -3.55191 1.13551 0
M  V30 5986 N 594.196 -1.08629 -1.14182 0
M  V30 5987 C 595.424 -0.838889 -1.8913 0
M  V30 5988 C 595.839 0.609153 -1.78703 0
M  V30 5989 O 595.196 1.41876 -1.14794 0
M  V30 5990 C 595.247 -1.25477 -3.39025 0
M  V30 5991 O 594.968 -2.64601 -3.49167 0
M  V30 5992 C 596.469 -1.03856 -4.30963 0
M  V30 5993 H 593.689 -0.302377 -0.599007 0
M  V30 5994 H 596.233 -1.44615 -1.44592 0
M  V30 5995 H 594.388 -0.691571 -3.81177 0
M  V30 5996 H 594.802 -2.81922 -4.42289 0
M  V30 5997 H 596.276 -1.37892 -5.345 0
M  V30 5998 H 596.753 0.0242522 -4.39193 0
M  V30 5999 H 597.359 -1.58731 -3.94569 0
M  V30 6000 N 595.674 1.31259 -0.872281 0
M  V30 6001 C 596.922 1.96233 -0.483409 0
M  V30 6002 C 597.243 1.69276 0.968012 0
M  V30 6003 O 596.513 1.00943 1.67891 0
M  V30 6004 H 595.093 0.726025 -0.175774 0
M  V30 6005 H 597.755 1.60024 -1.11258 0
M  V30 6006 H 596.851 3.05403 -0.643075 0
M  V30 6007 N 597.152 0.631951 1.44375 0
M  V30 6008 C 598.563 0.219036 1.85411 0
M  V30 6009 C 598.914 -1.22974 1.52879 0
M  V30 6010 O 598.039 -1.93579 0.967266 0
M  V30 6011 C 598.634 0.39075 3.36539 0
M  V30 6012 C 597.193 0.0323351 3.76386 0
M  V30 6013 C 596.34 0.703744 2.68221 0
M  V30 6014 H 599.291 0.837056 1.3483 0
M  V30 6015 H 599.312 -0.370056 3.78696 0
M  V30 6016 H 598.824 1.44527 3.60185 0
M  V30 6017 H 596.925 -1.02042 3.58355 0
M  V30 6018 H 597.038 0.442969 4.77048 0
M  V30 6019 H 595.402 0.138974 2.54321 0
M  V30 6020 H 596.185 1.76088 2.947 0
M  V30 6021 N 598.631 -1.53133 0.372548 0
M  V30 6022 C 600.047 -1.59585 0.02178 0
M  V30 6023 C 600.247 -1.38736 -1.46132 0
M  V30 6024 O 599.303 -1.19599 -2.22379 0
M  V30 6025 C 600.616 -2.9678 0.483959 0
M  V30 6026 C 602.164 -3.09909 0.438775 0
M  V30 6027 C 602.639 -4.49527 0.876876 0
M  V30 6028 N 604.13 -4.55663 0.832214 0
M  V30 6029 C 604.865 -5.61896 1.14281 0
M  V30 6030 N 604.361 -6.75852 1.52303 0
M  V30 6031 N 606.154 -5.51916 1.06515 0
M  V30 6032 H 598.305 -1.64936 1.33827 0
M  V30 6033 H 600.568 -0.773947 0.547458 0
M  V30 6034 H 600.274 -3.17198 1.51915 0
M  V30 6035 H 600.148 -3.7699 -0.125784 0
M  V30 6036 H 602.535 -2.89197 -0.587294 0
M  V30 6037 H 602.616 -2.31691 1.0841 0
M  V30 6038 H 602.26 -4.70979 1.90109 0
M  V30 6039 H 602.19 -5.26186 0.208727 0
M  V30 6040 H 604.681 -3.73844 0.552195 0
M  V30 6041 H 604.994 -7.52862 1.7441 0
M  V30 6042 H 603.339 -6.77226 1.56175 0
M  V30 6043 H 606.53 -4.6177 0.767235 0
M  V30 6044 H 606.703 -6.34609 1.31053 0
M  V30 6045 N 600.109 -0.101901 -1.5727 0
M  V30 6046 C 601.52 0.426173 -1.81771 0
M  V30 6047 C 601.871 1.67725 -1.01797 0
M  V30 6048 O 600.996 2.14958 -0.249386 0
M  V30 6049 C 601.591 0.779962 -3.297 0
M  V30 6050 C 600.15 1.25275 -3.54941 0
M  V30 6051 C 599.297 0.252814 -2.76145 0
M  V30 6052 H 602.248 -0.32726 -1.55289 0
M  V30 6053 H 602.269 1.63891 -3.43395 0
M  V30 6054 H 601.781 -0.130778 -3.8788 0
M  V30 6055 H 599.882 2.18097 -3.021 0
M  V30 6056 H 599.995 1.20988 -4.63572 0
M  V30 6057 H 598.359 0.736362 -2.43823 0
M  V30 6058 H 599.142 -0.650724 -3.37076 0
M  V30 6059 N 601.587 1.56661 0.17182 0
M  V30 6060 C 602.812 1.86459 0.908165 0
M  V30 6061 C 603.237 0.688181 1.75059 0
M  V30 6062 O 602.595 -0.362753 1.77634 0
M  V30 6063 C 602.643 3.14669 1.76112 0
M  V30 6064 O 601.747 2.96858 2.86268 0
M  V30 6065 H 601.088 0.613318 0.254434 0
M  V30 6066 H 603.618 2.03892 0.170113 0
M  V30 6067 H 603.628 3.46061 2.16115 0
M  V30 6068 H 602.303 3.99905 1.14233 0
M  V30 6069 H 600.88 2.76819 2.49852 0
M  V30 6070 N 603.065 -0.440357 1.51323 0
M  V30 6071 C 603.995 -1.54174 1.75364 0
M  V30 6072 C 604.976 -1.59039 0.603375 0
M  V30 6073 O 606.161 -1.74815 0.845774 0
M  V30 6074 C 603.291 -2.92277 1.87593 0
M  V30 6075 C 602.245 -3.02274 3.03009 0
M  V30 6076 C 601.571 -4.42327 3.00418 0
M  V30 6077 C 602.871 -2.76634 4.43024 0
M  V30 6078 H 604.565 -1.34307 2.67585 0
M  V30 6079 H 602.111 -0.644678 1.28763 0
M  V30 6080 H 604.064 -3.69284 2.02995 0
M  V30 6081 H 602.788 -3.13369 0.920179 0
M  V30 6082 H 601.447 -2.27706 2.87307 0
M  V30 6083 H 601.095 -4.60382 2.02626 0
M  V30 6084 H 600.795 -4.49946 3.77918 0
M  V30 6085 H 602.319 -5.21312 3.17909 0
M  V30 6086 H 603.733 -3.43376 4.59093 0
M  V30 6087 H 602.13 -2.95666 5.22208 0
M  V30 6088 H 603.2 -1.72262 4.5327 0
M  V30 6089 N 604.543 -1.41418 -0.695603 0
M  V30 6090 C 605.959 -1.23887 -1.00619 0
M  V30 6091 C 606.159 -0.128206 -2.01092 0
M  V30 6092 O 605.215 0.507408 -2.47349 0
M  V30 6093 C 606.528 -2.58816 -1.53083 0
M  V30 6094 C 608.076 -2.65998 -1.64967 0
M  V30 6095 C 608.551 -4.01244 -2.20833 0
M  V30 6096 N 610.042 -4.0309 -2.28194 0
M  V30 6097 C 610.777 -5.04539 -2.72448 0
M  V30 6098 N 610.273 -6.16378 -3.16306 0
M  V30 6099 N 612.066 -4.91901 -2.72011 0
M  V30 6100 H 604.217 -2.12379 -0.0300061 0
M  V30 6101 H 606.48 -0.944958 -0.0758797 0
M  V30 6102 H 606.186 -3.40842 -0.867147 0
M  V30 6103 H 606.06 -2.81299 -2.51298 0
M  V30 6104 H 608.447 -1.84331 -2.30448 0
M  V30 6105 H 608.528 -2.47325 -0.652982 0
M  V30 6106 H 608.172 -4.83359 -1.55968 0
M  V30 6107 H 608.102 -4.17257 -3.21254 0
M  V30 6108 H 610.593 -3.22341 -1.97242 0
M  V30 6109 H 610.906 -6.89658 -3.487 0
M  V30 6110 H 609.251 -6.19914 -3.14215 0
M  V30 6111 H 612.442 -4.03613 -2.37095 0
M  V30 6112 H 612.615 -5.71102 -3.06181 0
M  V30 6113 N 606.021 0.929856 -1.27246 0
M  V30 6114 C 607.432 1.49223 -1.12203 0
M  V30 6115 C 607.783 1.93989 0.293731 0
M  V30 6116 O 606.908 1.80978 1.18642 0
M  V30 6117 C 607.503 2.71198 -2.0307 0
M  V30 6118 C 606.062 3.23666 -1.92139 0
M  V30 6119 C 605.209 1.96409 -1.95752 0
M  V30 6120 H 608.16 0.744181 -1.4017 0
M  V30 6121 H 608.181 3.45905 -1.58524 0
M  V30 6122 H 607.693 2.38585 -3.06102 0
M  V30 6123 H 605.794 3.61042 -0.920834 0
M  V30 6124 H 605.907 3.90006 -2.78267 0
M  V30 6125 H 604.271 2.12806 -1.39949 0
M  V30 6126 H 605.054 1.66113 -3.00436 0
M  V30 6127 N 607.499 1.09233 1.13605 0
M  V30 6128 C 608.429 0.751738 2.21068 0
M  V30 6129 C 609.41 -0.269688 1.67948 0
M  V30 6130 O 610.595 -0.13819 1.93708 0
M  V30 6131 C 607.725 0.16935 3.46887 0
M  V30 6132 C 606.679 1.12007 4.13084 0
M  V30 6133 C 606.005 0.399483 5.33206 0
M  V30 6134 C 607.305 2.46168 4.6065 0
M  V30 6135 H 608.999 1.65024 2.49815 0
M  V30 6136 H 606.545 0.794905 1.20072 0
M  V30 6137 H 608.498 -0.0809824 4.21322 0
M  V30 6138 H 607.222 -0.764335 3.1753 0
M  V30 6139 H 605.881 1.35564 3.40614 0
M  V30 6140 H 605.529 -0.538277 5.00112 0
M  V30 6141 H 605.229 1.03337 5.78442 0
M  V30 6142 H 606.753 0.157403 6.10397 0
M  V30 6143 H 608.167 2.26829 5.26518 0
M  V30 6144 H 606.564 3.05326 5.1662 0
M  V30 6145 H 607.634 3.07076 3.75276 0
M  V30 6146 N 608.977 -1.30795 0.87923 0
M  V30 6147 C 610.393 -1.48981 0.57243 0
M  V30 6148 C 610.593 -1.80719 -0.891236 0
M  V30 6149 O 609.649 -1.89136 -1.67283 0
M  V30 6150 C 610.962 -2.61721 1.48063 0
M  V30 6151 C 612.51 -2.75603 1.48365 0
M  V30 6152 C 612.985 -3.91449 2.37763 0
M  V30 6153 N 614.476 -3.98751 2.35695 0
M  V30 6154 C 615.211 -4.87684 3.01583 0
M  V30 6155 N 614.707 -5.81454 3.76674 0
M  V30 6156 N 616.5 -4.81005 2.90844 0
M  V30 6157 H 608.651 -1.08465 1.82617 0
M  V30 6158 H 610.914 -0.536813 0.781368 0
M  V30 6159 H 610.62 -2.45073 2.52254 0
M  V30 6160 H 610.494 -3.58071 1.18596 0
M  V30 6161 H 612.881 -2.9166 0.44927 0
M  V30 6162 H 612.962 -1.79891 1.81859 0
M  V30 6163 H 612.606 -3.76149 3.41283 0
M  V30 6164 H 612.536 -4.86487 2.01589 0
M  V30 6165 H 615.027 -3.31668 1.81121 0
M  V30 6166 H 615.34 -6.46063 4.24054 0
M  V30 6167 H 613.685 -5.81403 3.80782 0
M  V30 6168 H 616.876 -4.06728 2.31711 0
M  V30 6169 H 617.049 -5.50107 3.42471 0
M  V30 6170 N 610.455 -0.639598 -1.44038 0
M  V30 6171 C 611.385 0.0469443 -2.33453 0
M  V30 6172 C 612.366 0.82609 -1.48694 0
M  V30 6173 O 613.551 0.790285 -1.77393 0
M  V30 6174 C 610.681 1.02338 -3.3188 0
M  V30 6175 C 609.635 0.355284 -4.26523 0
M  V30 6176 C 608.961 1.44221 -5.14883 0
M  V30 6177 C 610.261 -0.743798 -5.16977 0
M  V30 6178 H 611.955 -0.699735 -2.91108 0
M  V30 6179 H 609.501 -0.337946 -1.39978 0
M  V30 6180 H 611.454 1.51247 -3.93322 0
M  V30 6181 H 610.178 1.80105 -2.72451 0
M  V30 6182 H 608.837 -0.113239 -3.66425 0
M  V30 6183 H 608.485 2.21097 -4.51802 0
M  V30 6184 H 608.185 1.00052 -5.79019 0
M  V30 6185 H 609.709 1.93295 -5.79197 0
M  V30 6186 H 611.123 -0.337444 -5.72306 0
M  V30 6187 H 609.52 -1.10914 -5.89761 0
M  V30 6188 H 610.59 -1.60745 -4.57481 0
M  V30 6189 N 611.933 1.52934 -0.380664 0
M  V30 6190 C 612.843 2.29921 0.466192 0
M  V30 6191 C 613.859 1.36488 1.07922 0
M  V30 6192 O 615.035 1.69553 1.0869 0
M  V30 6193 C 612.1 3.08468 1.58266 0
M  V30 6194 C 611.161 4.17595 0.995627 0
M  V30 6195 C 610.394 4.92387 2.05889 0
M  V30 6196 O 610.617 4.67184 3.27254 0
M  V30 6197 O 609.551 5.77949 1.68102 0
M  V30 6198 H 613.377 3.03274 -0.160735 0
M  V30 6199 H 610.962 1.48698 -0.144617 0
M  V30 6200 H 612.844 3.57469 2.23145 0
M  V30 6201 H 611.519 2.37937 2.19471 0
M  V30 6202 H 610.426 3.72811 0.310332 0
M  V30 6203 H 611.759 4.90336 0.427918 0
M  V30 6204 N 613.412 0.11024 1.57214 0
M  V30 6205 C 614.658 -0.550684 1.9518 0
M  V30 6206 C 614.991 -1.66885 0.993122 0
M  V30 6207 O 614.266 -1.94479 0.0287907 0
M  V30 6208 C 614.549 -1.09163 3.43155 0
M  V30 6209 C 614.402 0.0225198 4.49794 0
M  V30 6210 C 615.721 -1.98527 3.92778 0
M  V30 6211 H 612.84 -0.198706 0.709708 0
M  V30 6212 H 615.482 0.184024 1.89107 0
M  V30 6213 H 613.632 -1.71775 3.48462 0
M  V30 6214 H 615.304 0.657443 4.56591 0
M  V30 6215 H 613.547 0.686868 4.28328 0
M  V30 6216 H 614.218 -0.39706 5.5057 0
M  V30 6217 H 616.694 -1.458 3.8972 0
M  V30 6218 H 615.57 -2.33298 4.96853 0
M  V30 6219 H 615.831 -2.90846 3.32958 0
M  V30 6220 N 614.89 -1.56749 -0.16351 0
M  V30 6221 C 615.837 -1.97011 -1.2023 0
M  V30 6222 C 616.807 -0.835186 -1.43575 0
M  V30 6223 O 617.992 -1.09594 -1.56185 0
M  V30 6224 C 615.132 -2.34186 -2.53478 0
M  V30 6225 C 614.245 -3.60893 -2.37446 0
M  V30 6226 C 613.38 -3.87245 -3.63614 0
M  V30 6227 C 612.419 -5.07274 -3.42548 0
M  V30 6228 N 611.556 -5.29719 -4.60806 0
M  V30 6229 H 616.396 -2.85562 -0.851958 0
M  V30 6230 H 613.933 -1.41292 -0.409257 0
M  V30 6231 H 615.891 -2.53764 -3.31149 0
M  V30 6232 H 614.521 -1.48736 -2.86492 0
M  V30 6233 H 613.573 -3.49185 -1.50911 0
M  V30 6234 H 614.885 -4.48722 -2.1783 0
M  V30 6235 H 614.039 -4.07232 -4.49719 0
M  V30 6236 H 612.778 -2.97806 -3.86216 0
M  V30 6237 H 611.783 -4.87177 -2.5483 0
M  V30 6238 H 613.008 -5.98251 -3.2136 0
M  V30 6239 H 610.954 -4.43233 -4.83612 0
M  V30 6240 H 610.871 -6.11786 -4.44132 0
M  V30 6241 H 612.139 -5.54192 -5.48171 0
M  V30 6242 N 616.368 0.432326 -1.51554 0
M  V30 6243 C 617.784 0.769195 -1.39841 0
M  V30 6244 C 617.984 1.95584 -0.484675 0
M  V30 6245 O 617.04 2.52433 0.0582829 0
M  V30 6246 C 618.353 1.04487 -2.81963 0
M  V30 6247 C 619.901 1.149 -2.91148 0
M  V30 6248 C 620.376 1.45758 -4.34187 0
M  V30 6249 N 621.867 1.52671 -4.37317 0
M  V30 6250 C 622.602 1.78129 -5.4503 0
M  V30 6251 N 622.098 2.01345 -6.62897 0
M  V30 6252 N 623.891 1.79953 -5.32516 0
M  V30 6253 H 616.042 -0.349122 -2.09511 0
M  V30 6254 H 618.305 -0.0938113 -0.943347 0
M  V30 6255 H 618.011 0.24557 -3.50842 0
M  V30 6256 H 617.885 1.97119 -3.21596 0
M  V30 6257 H 620.272 1.93891 -2.22464 0
M  V30 6258 H 620.353 0.201568 -2.55005 0
M  V30 6259 H 619.997 0.672917 -5.03423 0
M  V30 6260 H 619.927 2.41715 -4.67848 0
M  V30 6261 H 622.418 1.36612 -3.52343 0
M  V30 6262 H 622.731 2.20155 -7.40778 0
M  V30 6263 H 621.076 1.98657 -6.66003 0
M  V30 6264 H 624.267 1.61337 -4.39418 0
M  V30 6265 H 624.44 1.99455 -6.1654 0
M  V30 6266 N 617.846 1.41785 0.688094 0
M  V30 6267 C 618.756 1.46596 1.83158 0
M  V30 6268 C 619.772 0.355862 1.70322 0
M  V30 6269 O 620.948 0.604737 1.92106 0
M  V30 6270 C 618.013 1.35322 3.192 0
M  V30 6271 C 617.074 2.56711 3.4409 0
M  V30 6272 C 616.307 2.45965 4.73642 0
M  V30 6273 O 616.53 1.48827 5.50642 0
M  V30 6274 O 615.464 3.35859 4.99482 0
M  V30 6275 H 619.29 2.43083 1.82056 0
M  V30 6276 H 616.875 1.23404 0.842126 0
M  V30 6277 H 618.757 1.31347 4.00407 0
M  V30 6278 H 617.432 0.419536 3.2097 0
M  V30 6279 H 616.339 2.66262 2.62784 0
M  V30 6280 H 617.672 3.48933 3.47141 0
M  V30 6281 N 619.324 -0.923095 1.27737 0
M  V30 6282 C 620.57 -1.67375 1.14514 0
M  V30 6283 C 620.903 -1.91751 -0.307424 0
M  V30 6284 O 620.178 -1.51119 -1.22447 0
M  V30 6285 C 620.461 -3.03745 1.9342 0
M  V30 6286 C 620.314 -2.86581 3.46686 0
M  V30 6287 C 621.633 -4.04144 1.74228 0
M  V30 6288 H 618.752 -0.607427 0.417374 0
M  V30 6289 H 621.394 -1.07089 1.56946 0
M  V30 6290 H 619.544 -3.55204 1.5736 0
M  V30 6291 H 621.216 -2.42203 3.92601 0
M  V30 6292 H 619.459 -2.21829 3.72793 0
M  V30 6293 H 620.13 -3.83381 3.97143 0
M  V30 6294 H 622.606 -3.61712 2.05678 0
M  V30 6295 H 621.482 -4.97543 2.31824 0
M  V30 6296 H 621.743 -4.36661 0.691373 0
M  V30 6297 N 620.802 -1.09834 -1.13024 0
M  V30 6298 C 622.218 -0.828875 -1.36388 0
M  V30 6299 C 622.418 0.554756 -1.93713 0
M  V30 6300 O 621.474 1.30882 -2.15931 0
M  V30 6301 C 622.787 -1.92352 -2.3113 0
M  V30 6302 C 624.335 -1.95124 -2.44735 0
M  V30 6303 C 624.81 -3.03745 -3.42787 0
M  V30 6304 N 626.301 -3.03012 -3.5034 0
M  V30 6305 C 627.036 -3.83699 -4.26101 0
M  V30 6306 N 626.532 -4.74306 -5.04981 0
M  V30 6307 N 628.325 -3.71942 -4.21445 0
M  V30 6308 H 620.476 -1.99029 -0.74169 0
M  V30 6309 H 622.739 -0.864557 -0.388903 0
M  V30 6310 H 622.445 -2.91906 -1.96172 0
M  V30 6311 H 622.319 -1.80536 -3.3119 0
M  V30 6312 H 624.706 -0.962069 -2.78977 0
M  V30 6313 H 624.787 -2.11018 -1.44586 0
M  V30 6314 H 624.431 -4.02878 -3.09276 0
M  V30 6315 H 624.361 -2.85094 -4.42752 0
M  V30 6316 H 626.852 -2.37352 -2.94062 0
M  V30 6317 H 627.165 -5.32446 -5.60108 0
M  V30 6318 H 625.51 -4.78339 -5.04199 0
M  V30 6319 H 628.701 -3.00513 -3.589 0
M  V30 6320 H 628.874 -4.35062 -4.80235 0
M  V30 6321 N 622.28 1.30327 -0.886154 0
M  V30 6322 C 623.696 1.48676 -0.580323 0
M  V30 6323 C 623.896 1.81189 0.881639 0
M  V30 6324 O 622.952 1.90021 1.66278 0
M  V30 6325 C 624.265 2.60932 -1.49449 0
M  V30 6326 C 625.813 2.74812 -1.49824 0
M  V30 6327 C 626.288 3.90183 -2.39836 0
M  V30 6328 N 627.779 3.97495 -2.37806 0
M  V30 6329 C 628.514 4.86078 -3.04165 0
M  V30 6330 N 628.01 5.79448 -3.79753 0
M  V30 6331 N 629.803 4.79456 -2.93391 0
M  V30 6332 H 621.954 1.07495 -1.8319 0
M  V30 6333 H 624.217 0.532661 -0.784204 0
M  V30 6334 H 623.923 2.43731 -2.5355 0
M  V30 6335 H 623.797 3.57437 -1.20494 0
M  V30 6336 H 626.184 2.91418 -0.464731 0
M  V30 6337 H 626.265 1.78924 -1.82811 0
M  V30 6338 H 625.909 3.74334 -3.43273 0
M  V30 6339 H 625.839 4.85411 -2.04166 0
M  V30 6340 H 628.33 3.30703 -1.82877 0
M  V30 6341 H 628.643 6.43805 -4.27475 0
M  V30 6342 H 626.988 5.79376 -3.8386 0
M  V30 6343 H 630.179 4.05494 -2.33864 0
M  V30 6344 H 630.352 5.48283 -3.45383 0
M  V30 6345 N 623.758 0.647228 1.43697 0
M  V30 6346 C 625.169 0.238689 1.85168 0
M  V30 6347 C 625.52 -1.21345 1.54175 0
M  V30 6348 O 624.645 -1.92542 0.987743 0
M  V30 6349 C 625.24 0.426422 3.36106 0
M  V30 6350 C 623.799 0.0722541 3.76331 0
M  V30 6351 C 622.946 0.732153 2.6746 0
M  V30 6352 H 625.897 0.851309 1.33934 0
M  V30 6353 H 625.918 -0.32987 3.79067 0
M  V30 6354 H 625.43 1.48339 3.58632 0
M  V30 6355 H 623.531 -0.982355 3.59417 0
M  V30 6356 H 623.644 0.493541 4.76551 0
M  V30 6357 H 622.008 0.16594 2.54159 0
M  V30 6358 H 622.791 1.79204 2.92816 0
M  V30 6359 N 625.236 -1.5273 0.388769 0
M  V30 6360 C 626.199 -2.25043 -0.434544 0
M  V30 6361 C 627.199 -1.26661 -0.990644 0
M  V30 6362 O 628.389 -1.50762 -0.872731 0
M  V30 6363 C 625.521 -3.00507 -1.60961 0
M  V30 6364 H 626.714 -2.99242 0.198549 0
M  V30 6365 H 624.267 -1.55664 0.140875 0
M  V30 6366 H 625.002 -2.30607 -2.28015 0
M  V30 6367 H 624.787 -3.72716 -1.21757 0
M  V30 6368 H 626.277 -3.55413 -2.19251 0
M  V30 6369 N 626.714 -0.118576 -1.57153 0
M  V30 6370 C 628.13 0.238014 -1.57815 0
M  V30 6371 C 628.33 1.66747 -1.13127 0
M  V30 6372 O 627.386 2.38867 -0.818462 0
M  V30 6373 C 628.699 0.00508207 -3.007 0
M  V30 6374 C 630.247 0.0710139 -3.12919 0
M  V30 6375 C 630.722 -0.13422 -4.57803 0
M  V30 6376 N 632.213 -0.0801755 -4.63131 0
M  V30 6377 C 632.948 -0.213885 -5.73001 0
M  V30 6378 N 632.444 -0.403742 -6.91623 0
M  V30 6379 N 634.237 -0.15349 -5.6189 0
M  V30 6380 H 626.388 -1.05226 -1.84503 0
M  V30 6381 H 628.651 -0.414318 -0.852669 0
M  V30 6382 H 628.357 -0.983125 -3.3768 0
M  V30 6383 H 628.231 0.73714 -3.69927 0
M  V30 6384 H 630.618 1.04975 -2.75798 0
M  V30 6385 H 630.699 -0.692918 -2.46236 0
M  V30 6386 H 630.343 -1.10992 -4.95624 0
M  V30 6387 H 630.273 0.649692 -5.22577 0
M  V30 6388 H 632.764 0.0630689 -3.77847 0
M  V30 6389 H 633.077 -0.496645 -7.71202 0
M  V30 6390 H 631.422 -0.43971 -6.93608 0
M  V30 6391 H 634.613 -0.00613174 -4.681 0
M  V30 6392 H 634.786 -0.261138 -6.47474 0
M  V30 6393 N 628.193 1.56834 0.155195 0
M  V30 6394 C 629.123 2.00678 1.19376 0
M  V30 6395 C 630.104 0.884973 1.45266 0
M  V30 6396 O 631.289 1.1522 1.56326 0
M  V30 6397 C 628.419 2.38042 2.5289 0
M  V30 6398 C 627.373 3.53332 2.41538 0
M  V30 6399 C 626.699 3.76485 3.79688 0
M  V30 6400 C 627.999 4.86265 1.9064 0
M  V30 6401 H 629.693 2.87688 0.829232 0
M  V30 6402 H 627.239 1.38407 0.397445 0
M  V30 6403 H 629.192 2.67314 3.25763 0
M  V30 6404 H 627.916 1.4796 2.91162 0
M  V30 6405 H 626.575 3.24213 1.71117 0
M  V30 6406 H 626.223 2.83667 4.15382 0
M  V30 6407 H 625.923 4.54068 3.72956 0
M  V30 6408 H 627.447 4.08174 4.54122 0
M  V30 6409 H 628.861 5.14308 2.53299 0
M  V30 6410 H 627.258 5.67597 1.94818 0
M  V30 6411 H 628.328 4.77184 0.861596 0
M  V30 6412 N 629.671 -0.424282 1.51781 0
M  V30 6413 C 630.603 -1.53457 1.70246 0
M  V30 6414 C 631.616 -1.52004 0.582967 0
M  V30 6415 O 632.805 -1.56544 0.857683 0
M  V30 6416 C 629.905 -2.92368 1.71389 0
M  V30 6417 C 629.078 -3.1818 3.00133 0
M  V30 6418 C 628.137 -4.36884 2.9329 0
M  V30 6419 O 627.163 -4.34901 3.67219 0
M  V30 6420 N 628.365 -5.4117 2.10036 0
M  V30 6421 H 631.13 -1.38017 2.66029 0
M  V30 6422 H 628.691 -0.613394 1.4983 0
M  V30 6423 H 630.683 -3.6982 1.64362 0
M  V30 6424 H 629.253 -3.0134 0.831449 0
M  V30 6425 H 628.473 -2.28908 3.20928 0
M  V30 6426 H 629.761 -3.32261 3.85331 0
M  V30 6427 H 629.159 -5.45623 1.49373 0
M  V30 6428 H 627.716 -6.17425 2.08878 0
M  V30 6429 N 631.149 -1.42148 -0.680565 0
M  V30 6430 C 632.081 -1.41119 -1.80605 0
M  V30 6431 C 633.094 -0.311099 -1.598 0
M  V30 6432 O 634.283 -0.573813 -1.69026 0
M  V30 6433 C 631.383 -1.18204 -3.17618 0
M  V30 6434 C 630.556 -2.40537 -3.65322 0
M  V30 6435 C 629.615 -2.13254 -4.8105 0
M  V30 6436 O 628.641 -2.8641 -4.91892 0
M  V30 6437 N 629.843 -1.13208 -5.69354 0
M  V30 6438 H 632.608 -2.38128 -1.81975 0
M  V30 6439 H 630.169 -1.36953 -0.863446 0
M  V30 6440 H 632.161 -0.97878 -3.92686 0
M  V30 6441 H 630.731 -0.29738 -3.11182 0
M  V30 6442 H 629.951 -2.76468 -2.80996 0
M  V30 6443 H 631.239 -3.22012 -3.93936 0
M  V30 6444 H 630.637 -0.526893 -5.63241 0
M  V30 6445 H 629.194 -0.988699 -6.44258 0
M  V30 6446 N 632.627 0.916307 -1.28225 0
M  V30 6447 C 633.559 2.02303 -1.07732 0
M  V30 6448 C 634.572 1.62773 -0.0298421 0
M  V30 6449 O 635.761 1.76406 -0.272626 0
M  V30 6450 C 632.861 3.33282 -0.614504 0
M  V30 6451 C 632.034 4.01439 -1.73682 0
M  V30 6452 C 631.093 5.10698 -1.26781 0
M  V30 6453 O 630.119 5.34038 -1.96958 0
M  V30 6454 N 631.321 5.80355 -0.129624 0
M  V30 6455 H 634.086 2.20442 -2.03041 0
M  V30 6456 H 631.647 1.08744 -1.19943 0
M  V30 6457 H 633.639 4.03699 -0.284397 0
M  V30 6458 H 632.209 3.11633 0.245664 0
M  V30 6459 H 631.429 3.24604 -2.23665 0
M  V30 6460 H 632.717 4.43721 -2.48976 0
M  V30 6461 H 632.115 5.6386 0.455847 0
M  V30 6462 H 630.672 6.51647 0.141224 0
M  V30 6463 N 634.105 1.10431 1.1244 0
M  V30 6464 C 635.015 0.765502 2.21759 0
M  V30 6465 C 636.031 -0.236966 1.72379 0
M  V30 6466 O 637.207 -0.0757329 2.01258 0
M  V30 6467 C 634.272 0.202316 3.46109 0
M  V30 6468 C 633.333 1.26205 4.1033 0
M  V30 6469 C 632.566 0.725648 5.28744 0
M  V30 6470 O 632.789 -0.447942 5.68638 0
M  V30 6471 O 631.723 1.48555 5.83279 0
M  V30 6472 H 635.549 1.67801 2.53133 0
M  V30 6473 H 633.134 0.879443 1.20773 0
M  V30 6474 H 635.016 -0.107918 4.21262 0
M  V30 6475 H 633.691 -0.683052 3.16411 0
M  V30 6476 H 632.598 1.62514 3.36957 0
M  V30 6477 H 633.931 2.12044 4.44183 0
M  V30 6478 N 635.583 -1.29855 0.893053 0
M  V30 6479 C 636.493 -2.31661 0.370157 0
M  V30 6480 C 637.509 -1.65677 -0.531723 0
M  V30 6481 O 638.685 -1.9691 -0.422902 0
M  V30 6482 C 635.75 -3.44388 -0.399741 0
M  V30 6483 C 634.811 -4.2598 0.532861 0
M  V30 6484 C 634.044 -5.33324 -0.200388 0
M  V30 6485 O 634.267 -5.52305 -1.42531 0
M  V30 6486 O 633.201 -6.00188 0.453668 0
M  V30 6487 H 637.027 -2.78354 1.2146 0
M  V30 6488 H 634.612 -1.34171 0.657153 0
M  V30 6489 H 636.494 -4.13037 -0.835358 0
M  V30 6490 H 635.169 -2.99815 -1.22035 0
M  V30 6491 H 634.076 -3.59998 1.01746 0
M  V30 6492 H 635.409 -4.74178 1.3197 0
M  V30 6493 N 637.061 -0.65484 -1.43351 0
M  V30 6494 C 637.971 0.0363603 -2.34572 0
M  V30 6495 C 638.987 0.810432 -1.53974 0
M  V30 6496 O 640.163 0.757308 -1.86619 0
M  V30 6497 C 637.228 0.989733 -3.32273 0
M  V30 6498 C 636.289 0.212414 -4.28774 0
M  V30 6499 C 635.522 1.12038 -5.21808 0
M  V30 6500 O 635.745 2.35967 -5.19303 0
M  V30 6501 O 634.679 0.59191 -5.98982 0
M  V30 6502 H 638.505 -0.714527 -2.95175 0
M  V30 6503 H 636.09 -0.415029 -1.4352 0
M  V30 6504 H 637.972 1.53759 -3.92347 0
M  V30 6505 H 636.647 1.72082 -2.74171 0
M  V30 6506 H 635.554 -0.379062 -3.72175 0
M  V30 6507 H 636.887 -0.479138 -4.89862 0
M  V30 6508 N 638.539 1.52521 -0.396863 0
M  V30 6509 C 639.816 1.94112 0.240842 0
M  V30 6510 C 640.196 1.33288 1.637 0
M  V30 6511 O 639.544 0.503901 2.22875 0
M  V30 6512 C 639.754 3.48033 0.259567 0
M  V30 6513 C 641.102 4.21822 0.484866 0
M  V30 6514 O 642.126 3.54579 0.339453 0
M  V30 6515 O 640.985 5.41042 0.770412 0
M  V30 6516 H 638.079 0.812973 0.151671 0
M  V30 6517 H 640.625 1.63572 -0.451918 0
M  V30 6518 H 639.397 3.84655 -0.718078 0
M  V30 6519 H 639.02 3.84899 0.996937 0
M  V30 6520 N 640.017 0.126909 1.57088 0
M  V30 6521 C 640.927 -0.833867 2.1928 0
M  V30 6522 C 641.943 -1.2868 1.17122 0
M  V30 6523 O 643.119 -1.34815 1.49622 0
M  V30 6524 C 640.184 -2.0632 2.78627 0
M  V30 6525 C 639.245 -1.66143 3.95847 0
M  V30 6526 C 638.478 -2.83217 4.52354 0
M  V30 6527 O 638.701 -3.98868 4.0775 0
M  V30 6528 O 637.635 -2.59846 5.42922 0
M  V30 6529 H 641.461 -0.334564 3.01852 0
M  V30 6530 H 639.046 -0.0991091 1.49071 0
M  V30 6531 H 640.928 -2.78304 3.16425 0
M  V30 6532 H 639.603 -2.55242 1.99082 0
M  V30 6533 H 638.51 -0.912435 3.62802 0
M  V30 6534 H 639.843 -1.21957 4.76852 0
M  V30 6535 N 641.495 -1.56914 -0.146875 0
M  V30 6536 C 642.405 -2.0154 -1.20079 0
M  V30 6537 C 643.421 -0.930838 -1.47008 0
M  V30 6538 O 644.597 -1.24032 -1.58676 0
M  V30 6539 C 641.662 -2.38715 -2.51428 0
M  V30 6540 C 640.723 -3.6112 -2.32145 0
M  V30 6541 C 639.956 -3.96512 -3.57231 0
M  V30 6542 O 640.179 -3.32566 -4.63418 0
M  V30 6543 O 639.113 -4.89758 -3.49887 0
M  V30 6544 H 642.939 -2.91506 -0.851924 0
M  V30 6545 H 640.524 -1.45106 -0.355607 0
M  V30 6546 H 642.406 -2.63485 -3.28867 0
M  V30 6547 H 641.081 -1.51903 -2.85845 0
M  V30 6548 H 639.988 -3.41536 -1.52656 0
M  V30 6549 H 641.321 -4.48549 -2.02644 0
M  V30 6550 N 642.974 0.416227 -1.52004 0
M  V30 6551 C 643.884 1.53147 -1.77717 0
M  V30 6552 C 644.9 1.609 -0.662368 0
M  V30 6553 O 646.076 1.77747 -0.946991 0
M  V30 6554 C 643.141 2.88948 -1.91598 0
M  V30 6555 C 642.202 2.9114 -3.15493 0
M  V30 6556 C 641.435 4.20464 -3.28703 0
M  V30 6557 O 641.658 5.13981 -2.47345 0
M  V30 6558 O 640.592 4.29368 -4.21813 0
M  V30 6559 H 644.418 1.34357 -2.72363 0
M  V30 6560 H 642.003 0.601373 -1.36762 0
M  V30 6561 H 643.885 3.69505 -2.02593 0
M  V30 6562 H 642.56 3.07821 -1.00141 0
M  V30 6563 H 641.467 2.09461 -3.09962 0
M  V30 6564 H 642.8 2.77216 -4.06709 0
M  V30 6565 N 644.452 1.42507 0.673017 0
M  V30 6566 C 645.362 1.4853 1.81593 0
M  V30 6567 C 646.378 0.373907 1.69935 0
M  V30 6568 O 647.554 0.625078 1.91454 0
M  V30 6569 C 644.619 1.387 3.17747 0
M  V30 6570 C 643.68 2.60346 3.41348 0
M  V30 6571 C 642.913 2.50975 4.71007 0
M  V30 6572 O 643.136 1.54659 5.49033 0
M  V30 6573 O 642.07 3.41138 4.95892 0
M  V30 6574 H 645.896 2.45001 1.79467 0
M  V30 6575 H 643.481 1.2429 0.82899 0
M  V30 6576 H 645.363 1.35586 3.98992 0
M  V30 6577 H 644.038 0.453555 3.20507 0
M  V30 6578 H 642.945 2.69034 2.59945 0
M  V30 6579 H 644.278 3.52595 3.43421 0
M  V30 6580 N 645.93 -0.909495 1.28709 0
M  V30 6581 C 646.84 -2.04558 1.14861 0
M  V30 6582 C 647.856 -1.73842 0.0741621 0
M  V30 6583 O 649.032 -1.99383 0.2843 0
M  V30 6584 C 646.097 -3.36957 0.816148 0
M  V30 6585 C 645.158 -3.81255 1.97341 0
M  V30 6586 C 644.391 -5.07335 1.65671 0
M  V30 6587 O 644.614 -5.67514 0.573053 0
M  V30 6588 O 643.548 -5.47449 2.50167 0
M  V30 6589 H 647.374 -2.19161 2.10243 0
M  V30 6590 H 644.959 -1.03159 1.08068 0
M  V30 6591 H 646.841 -4.16436 0.644873 0
M  V30 6592 H 645.516 -3.2352 -0.107983 0
M  V30 6593 H 644.423 -3.02584 2.19986 0
M  V30 6594 H 645.756 -3.99261 2.87839 0
M  V30 6595 N 647.408 -1.11026 -1.11852 0
M  V30 6596 C 648.318 -0.777252 -2.2135 0
M  V30 6597 C 649.334 0.227821 -1.72502 0
M  V30 6598 O 650.51 0.0650587 -2.01295 0
M  V30 6599 C 647.575 -0.220668 -3.45997 0
M  V30 6600 C 646.636 -1.2838 -4.09655 0
M  V30 6601 C 645.869 -0.753678 -5.28352 0
M  V30 6602 O 646.092 0.417779 -5.68868 0
M  V30 6603 O 645.026 -1.51647 -5.82483 0
M  V30 6604 H 648.852 -1.69141 -2.5224 0
M  V30 6605 H 646.437 -0.885836 -1.20305 0
M  V30 6606 H 648.319 0.0855756 -4.21313 0
M  V30 6607 H 646.994 0.666262 -3.16769 0
M  V30 6608 H 645.901 -1.64299 -3.3609 0
M  V30 6609 H 647.234 -2.14396 -4.43052 0
M  V30 6610 N 648.886 1.2938 -0.899927 0
M  V30 6611 C 649.796 2.31462 -0.382437 0
M  V30 6612 C 650.812 1.65956 0.522929 0
M  V30 6613 O 651.988 1.97131 0.412454 0
M  V30 6614 C 649.053 3.44595 0.381472 0
M  V30 6615 C 648.114 4.25692 -0.555444 0
M  V30 6616 C 647.347 5.33422 0.172102 0
M  V30 6617 O 647.57 5.53053 1.396 0
M  V30 6618 O 646.504 5.99939 -0.485491 0
M  V30 6619 H 650.33 2.77706 -1.22934 0
M  V30 6620 H 647.915 1.33821 -0.664259 0
M  V30 6621 H 649.797 4.13474 0.813442 0
M  V30 6622 H 648.472 3.00458 1.20443 0
M  V30 6623 H 647.379 3.59453 -1.03653 0
M  V30 6624 H 648.712 4.73471 -1.34483 0
M  V30 6625 N 650.364 0.662433 1.43002 0
M  V30 6626 C 651.274 -0.0239199 2.34588 0
M  V30 6627 C 652.29 -0.802255 1.54402 0
M  V30 6628 O 653.466 -0.747401 1.87018 0
M  V30 6629 C 650.531 -0.972098 3.32793 0
M  V30 6630 C 649.592 -0.189673 4.28881 0
M  V30 6631 C 648.825 -1.09269 5.22395 0
M  V30 6632 O 649.048 -2.33209 5.20547 0
M  V30 6633 O 647.982 -0.560136 5.99288 0
M  V30 6634 H 651.808 0.730171 2.94792 0
M  V30 6635 H 649.393 0.422635 1.43297 0
M  V30 6636 H 651.275 -1.51676 3.93157 0
M  V30 6637 H 649.95 -1.70626 2.75079 0
M  V30 6638 H 648.857 0.398794 3.71968 0
M  V30 6639 H 650.19 0.50511 4.89601 0
M  V30 6640 N 651.842 -1.52309 0.404946 0
M  V30 6641 C 652.752 -2.30634 -0.429555 0
M  V30 6642 C 653.768 -1.38187 -1.05737 0
M  V30 6643 O 654.944 -1.71261 -1.05979 0
M  V30 6644 C 652.009 -3.10947 -1.53339 0
M  V30 6645 C 651.07 -4.19126 -0.929065 0
M  V30 6646 C 650.303 -4.95601 -1.9803 0
M  V30 6647 O 650.526 -4.72331 -3.1978 0
M  V30 6648 O 649.46 -5.80551 -1.58886 0
M  V30 6649 H 653.286 -3.0298 0.208963 0
M  V30 6650 H 650.871 -1.4845 0.168255 0
M  V30 6651 H 652.753 -3.60974 -2.1743 0
M  V30 6652 H 651.428 -2.41399 -2.15658 0
M  V30 6653 H 650.335 -3.73257 -0.250982 0
M  V30 6654 H 651.668 -4.90955 -0.349855 0
M  V30 6655 N 653.32 -0.135238 -1.57019 0
M  V30 6656 C 654.23 0.822226 -2.19719 0
M  V30 6657 C 655.246 1.28057 -1.17802 0
M  V30 6658 O 656.422 1.3402 -1.50335 0
M  V30 6659 C 653.487 2.0484 -2.79717 0
M  V30 6660 C 652.548 1.64042 -3.96723 0
M  V30 6661 C 651.781 2.80814 -4.53849 0
M  V30 6662 O 652.004 3.967 -4.0986 0
M  V30 6663 O 650.938 2.56963 -5.44292 0
M  V30 6664 H 654.764 0.318552 -3.02025 0
M  V30 6665 H 652.349 0.0912021 -1.49121 0
M  V30 6666 H 654.231 2.76622 -3.17897 0
M  V30 6667 H 652.906 2.54182 -2.00432 0
M  V30 6668 H 651.813 0.893182 -3.63281 0
M  V30 6669 H 653.146 1.19426 -4.77492 0
M  V30 6670 N 654.798 1.5699 0.138552 0
M  V30 6671 C 655.708 2.02174 1.19008 0
M  V30 6672 C 656.724 0.938622 1.46512 0
M  V30 6673 O 657.9 1.24872 1.58016 0
M  V30 6674 C 654.965 2.40045 2.50159 0
M  V30 6675 C 654.026 3.62346 2.30226 0
M  V30 6676 C 653.259 3.98401 3.55123 0
M  V30 6677 O 653.482 3.35019 4.61647 0
M  V30 6678 O 652.416 4.91606 3.47285 0
M  V30 6679 H 656.242 2.91954 0.836452 0
M  V30 6680 H 653.827 1.45293 0.347907 0
M  V30 6681 H 655.709 2.65225 3.27465 0
M  V30 6682 H 654.384 1.53417 2.85035 0
M  V30 6683 H 653.291 3.42341 1.50843 0
M  V30 6684 H 654.624 4.49617 2.00262 0
M  V30 6685 N 656.276 -0.40816 1.52223 0
M  V30 6686 C 657.223 -1.49737 1.75635 0
M  V30 6687 C 658.193 -1.5493 0.598824 0
M  V30 6688 O 659.378 -1.71487 0.83648 0
M  V30 6689 C 656.518 -2.87174 1.91376 0
M  V30 6690 C 655.631 -2.91283 3.19027 0
M  V30 6691 C 654.766 -4.20026 3.25195 0
M  V30 6692 C 653.805 -4.18113 4.47044 0
M  V30 6693 N 652.942 -5.38429 4.50598 0
M  V30 6694 H 657.782 -1.29075 2.68596 0
M  V30 6695 H 655.319 -0.626518 1.33091 0
M  V30 6696 H 657.277 -3.66959 1.98486 0
M  V30 6697 H 655.907 -3.06329 1.01795 0
M  V30 6698 H 654.959 -2.03984 3.21084 0
M  V30 6699 H 656.271 -2.85734 4.08849 0
M  V30 6700 H 655.425 -5.08204 3.31382 0
M  V30 6701 H 654.164 -4.28271 2.33313 0
M  V30 6702 H 653.169 -3.28325 4.41002 0
M  V30 6703 H 654.394 -4.11507 5.40221 0
M  V30 6704 H 652.34 -5.4734 3.616 0
M  V30 6705 H 652.257 -5.34879 5.34266 0
M  V30 6706 H 653.525 -6.28557 4.61016 0
M  V30 6707 N 657.755 -1.42862 -0.66545 0
M  V30 6708 C 658.665 -1.49491 -1.80803 0
M  V30 6709 C 659.681 -0.382914 -1.69734 0
M  V30 6710 O 660.857 -0.635223 -1.9112 0
M  V30 6711 C 657.922 -1.40383 -3.17007 0
M  V30 6712 C 656.983 -2.62152 -3.39963 0
M  V30 6713 C 656.216 -2.53469 -4.69669 0
M  V30 6714 O 656.439 -1.57568 -5.48205 0
M  V30 6715 O 655.373 -3.43763 -4.94075 0
M  V30 6716 H 659.199 -2.45949 -1.78165 0
M  V30 6717 H 656.784 -1.24728 -0.822387 0
M  V30 6718 H 658.666 -1.377 -3.98267 0
M  V30 6719 H 657.341 -0.470546 -3.20262 0
M  V30 6720 H 656.248 -2.70409 -2.58515 0
M  V30 6721 H 657.581 -3.54411 -3.41546 0
M  V30 6722 N 659.233 0.902656 -1.29189 0
M  V30 6723 C 660.143 2.03946 -1.15944 0
M  V30 6724 C 661.159 1.738 -0.0833803 0
M  V30 6725 O 662.335 1.9923 -0.29487 0
M  V30 6726 C 659.4 3.36519 -0.834006 0
M  V30 6727 C 658.461 3.80203 -1.9936 0
M  V30 6728 C 657.694 5.06449 -1.68359 0
M  V30 6729 O 657.917 5.67202 -0.603141 0
M  V30 6730 O 656.851 5.46114 -2.53067 0
M  V30 6731 H 660.677 2.18043 -2.11403 0
M  V30 6732 H 658.262 1.02584 -1.08613 0
M  V30 6733 H 660.144 4.16089 -0.666949 0
M  V30 6734 H 658.819 3.23573 0.0908245 0
M  V30 6735 H 657.726 3.01413 -2.21588 0
M  V30 6736 H 659.059 3.97729 -2.89952 0
M  V30 6737 N 660.711 1.11618 1.11262 0
M  V30 6738 C 661.621 0.78898 2.20935 0
M  V30 6739 C 662.637 -0.21867 1.7262 0
M  V30 6740 O 663.813 -0.0543826 2.01327 0
M  V30 6741 C 660.878 0.239014 3.45875 0
M  V30 6742 C 659.939 1.3055 4.08968 0
M  V30 6743 C 659.172 0.781687 5.27944 0
M  V30 6744 O 659.395 -0.387605 5.69082 0
M  V30 6745 O 658.329 1.54734 5.81671 0
M  V30 6746 H 662.155 1.70477 2.51339 0
M  V30 6747 H 659.74 0.892203 1.19834 0
M  V30 6748 H 661.622 -0.0632312 4.21353 0
M  V30 6749 H 660.297 -0.649454 3.17118 0
M  V30 6750 H 659.204 1.66079 3.35214 0
M  V30 6751 H 660.537 2.16743 4.41909 0
M  V30 6752 N 662.189 -1.289 0.906776 0
M  V30 6753 C 663.099 -2.31256 0.394707 0
M  V30 6754 C 664.115 -1.66231 -0.514121 0
M  V30 6755 O 665.291 -1.97347 -0.401994 0
M  V30 6756 C 662.356 -3.44792 -0.363191 0
M  V30 6757 C 661.417 -4.25391 0.578012 0
M  V30 6758 C 660.65 -5.33506 -0.143811 0
M  V30 6759 O 660.873 -5.53786 -1.36665 0
M  V30 6760 O 659.807 -5.99673 0.5173 0
M  V30 6761 H 663.633 -2.77051 1.24405 0
M  V30 6762 H 661.218 -1.33466 0.671346 0
M  V30 6763 H 663.1 -4.139 -0.791503 0
M  V30 6764 H 661.775 -3.01093 -1.18848 0
M  V30 6765 H 660.682 -3.58899 1.05558 0
M  V30 6766 H 662.015 -4.72752 1.36992 0
M  V30 6767 N 663.667 -0.670007 -1.42649 0
M  V30 6768 C 664.577 0.0114788 -2.34597 0
M  V30 6769 C 665.593 0.794055 -1.54825 0
M  V30 6770 O 666.769 0.737472 -1.87412 0
M  V30 6771 C 663.834 0.954436 -3.33304 0
M  V30 6772 C 662.895 0.166925 -4.28975 0
M  V30 6773 C 662.128 1.06497 -5.22967 0
M  V30 6774 O 662.351 2.30446 -5.21777 0
M  V30 6775 O 661.285 0.528347 -5.99577 0
M  V30 6776 H 665.111 -0.745794 -2.944 0
M  V30 6777 H 662.696 -0.430228 -1.43071 0
M  V30 6778 H 664.578 1.49589 -3.93956 0
M  V30 6779 H 663.253 1.69164 -2.7598 0
M  V30 6780 H 662.16 -0.418515 -3.71752 0
M  V30 6781 H 663.493 -0.531067 -4.89327 0
M  V30 6782 N 665.145 1.52092 -0.413018 0
M  V30 6783 C 666.391 2.02815 0.154104 0
M  V30 6784 C 666.746 1.293 1.42475 0
M  V30 6785 O 666.039 0.391835 1.87551 0
M  V30 6786 C 666.233 3.54529 0.4521 0
M  V30 6787 C 666.062 4.4274 -0.788116 0
M  V30 6788 C 664.832 4.87903 -1.31447 0
M  V30 6789 C 667.03 4.86522 -1.66735 0
M  V30 6790 N 665.012 5.60254 -2.50976 0
M  V30 6791 C 666.383 5.57692 -2.70886 0
M  V30 6792 C 668.438 4.68534 -1.68465 0
M  V30 6793 C 667.141 6.12783 -3.76682 0
M  V30 6794 C 669.167 5.24524 -2.73182 0
M  V30 6795 C 668.529 5.9562 -3.76054 0
M  V30 6796 H 664.628 0.781796 0.0178567 0
M  V30 6797 H 667.212 1.86223 -0.568237 0
M  V30 6798 H 665.383 3.71186 1.14348 0
M  V30 6799 H 667.115 3.91934 1.00844 0
M  V30 6800 H 663.87 4.65504 -0.871931 0
M  V30 6801 H 664.294 6.01069 -3.11521 0
M  V30 6802 H 668.936 4.13051 -0.902708 0
M  V30 6803 H 666.654 6.67335 -4.55729 0
M  V30 6804 H 670.24 5.12473 -2.75433 0
M  V30 6805 H 669.12 6.38169 -4.55752 0
M  V30 6806 N 666.623 0.143563 1.56945 0
M  V30 6807 C 667.871 -0.507402 1.95627 0
M  V30 6808 C 668.192 -1.65626 1.02922 0
M  V30 6809 O 667.462 -1.95693 0.0901136 0
M  V30 6810 H 666.042 -0.190436 0.722318 0
M  V30 6811 H 668.704 0.218257 1.93674 0
M  V30 6812 H 667.8 -0.885816 2.99265 0
M  V30 6813 N 668.101 -1.57061 -0.130224 0
M  V30 6814 C 669.517 -1.52103 -0.483413 0
M  V30 6815 C 669.717 -0.854752 -1.82473 0
M  V30 6816 O 668.773 -0.432342 -2.48771 0
M  V30 6817 C 670.086 -2.96872 -0.47825 0
M  V30 6818 C 671.634 -3.07902 -0.562592 0
M  V30 6819 C 672.109 -4.54211 -0.587929 0
M  V30 6820 N 673.6 -4.58621 -0.649684 0
M  V30 6821 C 674.335 -5.69227 -0.690551 0
M  V30 6822 N 673.831 -6.89358 -0.689743 0
M  V30 6823 N 675.624 -5.57304 -0.732708 0
M  V30 6824 H 667.775 -1.98764 0.748779 0
M  V30 6825 H 670.038 -0.907248 0.274965 0
M  V30 6826 H 669.744 -3.48944 0.439444 0
M  V30 6827 H 669.618 -3.53716 -1.31013 0
M  V30 6828 H 672.005 -2.5584 -1.47071 0
M  V30 6829 H 672.086 -2.54073 0.296764 0
M  V30 6830 H 671.73 -5.06915 0.316096 0
M  V30 6831 H 671.66 -5.0584 -1.46401 0
M  V30 6832 H 674.151 -3.72146 -0.656927 0
M  V30 6833 H 674.464 -7.69408 -0.723239 0
M  V30 6834 H 672.809 -6.91884 -0.657347 0
M  V30 6835 H 676 -4.62363 -0.730625 0
M  V30 6836 H 676.173 -6.43515 -0.76109 0
M  V30 6837 N 669.579 0.400081 -1.52437 0
M  V30 6838 C 670.526 1.48803 -1.76426 0
M  V30 6839 C 671.496 1.5461 -0.607032 0
M  V30 6840 O 672.681 1.71041 -0.845563 0
M  V30 6841 C 669.821 2.86156 -1.92896 0
M  V30 6842 C 668.934 2.89587 -3.20567 0
M  V30 6843 C 668.069 4.18296 -3.27417 0
M  V30 6844 C 667.108 4.15736 -4.49255 0
M  V30 6845 N 666.245 5.36032 -4.53447 0
M  V30 6846 H 671.085 1.27649 -2.69276 0
M  V30 6847 H 668.622 0.619451 -1.33421 0
M  V30 6848 H 670.58 3.65901 -2.00429 0
M  V30 6849 H 669.21 3.05785 -1.03418 0
M  V30 6850 H 668.262 2.02278 -3.22161 0
M  V30 6851 H 669.574 2.83562 -4.10358 0
M  V30 6852 H 668.728 5.06439 -3.34072 0
M  V30 6853 H 667.467 4.27028 -2.35581 0
M  V30 6854 H 666.472 3.25982 -4.42737 0
M  V30 6855 H 667.697 4.08636 -5.42396 0
M  V30 6856 H 665.643 5.45415 -3.64498 0
M  V30 6857 H 665.56 5.32038 -5.37096 0
M  V30 6858 H 666.828 6.26104 -4.64343 0
M  V30 6859 N 671.057 1.43213 0.657864 0
M  V30 6860 C 672.473 1.26511 0.972992 0
M  V30 6861 C 672.673 0.181477 2.00681 0
M  V30 6862 O 671.729 -0.441649 2.48608 0
M  V30 6863 C 673.042 2.62784 1.46168 0
M  V30 6864 C 674.59 2.70278 1.57857 0
M  V30 6865 C 675.065 4.06958 2.10117 0
M  V30 6866 N 676.556 4.08999 2.17426 0
M  V30 6867 C 677.291 5.11585 2.58975 0
M  V30 6868 N 676.787 6.24548 2.99853 0
M  V30 6869 N 678.58 4.9894 2.58873 0
M  V30 6870 H 670.731 2.12384 -0.0263129 0
M  V30 6871 H 672.994 0.946638 0.0507992 0
M  V30 6872 H 672.7 3.43022 0.776474 0
M  V30 6873 H 672.574 2.87863 2.43751 0
M  V30 6874 H 674.961 1.90376 2.25479 0
M  V30 6875 H 675.042 2.4897 0.587179 0
M  V30 6876 H 674.686 4.87325 1.43098 0
M  V30 6877 H 674.616 4.25628 3.10078 0
M  V30 6878 H 677.107 3.27457 1.88627 0
M  V30 6879 H 677.42 6.98661 3.30292 0
M  V30 6880 H 675.765 6.28027 2.97669 0
M  V30 6881 H 678.956 4.09757 2.26311 0
M  V30 6882 H 679.129 5.79019 2.90932 0
M  V30 6883 N 672.536 -0.895792 1.29666 0
M  V30 6884 C 673.947 -1.46195 1.1612 0
M  V30 6885 C 674.298 -1.94699 -0.242195 0
M  V30 6886 O 673.423 -1.8406 -1.13802 0
M  V30 6887 C 674.018 -2.65718 2.10189 0
M  V30 6888 C 672.577 -3.18458 2.00653 0
M  V30 6889 C 671.724 -1.91149 2.00891 0
M  V30 6890 H 674.675 -0.706756 1.42094 0
M  V30 6891 H 674.696 -3.4158 1.6764 0
M  V30 6892 H 674.208 -2.30386 3.12321 0
M  V30 6893 H 672.309 -3.58474 1.01623 0
M  V30 6894 H 672.422 -3.82491 2.88509 0
M  V30 6895 H 670.786 -2.09021 1.45542 0
M  V30 6896 H 671.569 -1.58089 3.04734 0
M  V30 6897 N 674.014 -1.12206 -1.10668 0
M  V30 6898 C 675.262 -0.874144 -1.82217 0
M  V30 6899 C 675.583 0.601736 -1.85484 0
M  V30 6900 O 674.853 1.43725 -1.33116 0
M  V30 6901 H 673.433 -0.320404 -0.674797 0
M  V30 6902 H 676.095 -1.41606 -1.33917 0
M  V30 6903 H 675.191 -1.25349 -2.85822 0
M  V30 6904 N 675.492 1.28418 -0.913599 0
M  V30 6905 C 676.908 1.47411 -0.611728 0
M  V30 6906 C 677.108 1.83018 0.843008 0
M  V30 6907 O 676.164 1.93505 1.6221 0
M  V30 6908 C 677.477 2.57703 -1.5495 0
M  V30 6909 C 679.025 2.71572 -1.5562 0
M  V30 6910 C 679.5 3.85008 -2.48058 0
M  V30 6911 N 680.991 3.92361 -2.46184 0
M  V30 6912 C 681.726 4.79516 -3.14407 0
M  V30 6913 N 681.222 5.71262 -3.91958 0
M  V30 6914 N 683.015 4.73125 -3.03495 0
M  V30 6915 H 675.166 1.03585 -1.85429 0
M  V30 6916 H 677.429 0.515907 -0.795326 0
M  V30 6917 H 677.135 2.38298 -2.58663 0
M  V30 6918 H 677.009 3.54801 -1.28048 0
M  V30 6919 H 679.396 2.90366 -0.526441 0
M  V30 6920 H 679.477 1.75006 -1.86565 0
M  V30 6921 H 679.121 3.66969 -3.51136 0
M  V30 6922 H 679.051 4.80971 -2.14416 0
M  V30 6923 H 681.542 3.26749 -1.89851 0
M  V30 6924 H 681.855 6.34593 -4.41034 0
M  V30 6925 H 680.2 5.71103 -3.96063 0
M  V30 6926 H 683.391 4.00442 -2.42413 0
M  V30 6927 H 683.564 5.40834 -3.56935 0
M  V30 6928 N 676.97 0.677563 1.42291 0
M  V30 6929 C 678.218 0.200578 2.01102 0
M  V30 6930 C 678.539 -1.19803 1.53858 0
M  V30 6931 O 677.809 -1.80496 0.761439 0
M  V30 6932 H 676.389 0.0711634 0.743603 0
M  V30 6933 H 679.051 0.874691 1.7417 0
M  V30 6934 H 678.147 0.204 3.11433 0
M  V30 6935 N 678.448 -1.51871 0.421078 0
M  V30 6936 C 679.378 -2.30231 -0.389363 0
M  V30 6937 C 680.359 -1.34946 -1.03555 0
M  V30 6938 O 681.544 -1.63859 -1.04229 0
M  V30 6939 C 678.674 -3.13247 -1.49979 0
M  V30 6940 C 677.628 -4.16677 -0.977966 0
M  V30 6941 C 676.954 -4.88112 -2.1829 0
M  V30 6942 C 678.254 -5.22295 -0.0236775 0
M  V30 6943 H 679.948 -2.98229 0.264524 0
M  V30 6944 H 677.494 -1.43424 0.12866 0
M  V30 6945 H 679.447 -3.66838 -2.07383 0
M  V30 6946 H 678.171 -2.4304 -2.18173 0
M  V30 6947 H 676.83 -3.64114 -0.426245 0
M  V30 6948 H 676.478 -4.14423 -2.85066 0
M  V30 6949 H 676.178 -5.58041 -1.84021 0
M  V30 6950 H 677.702 -5.44521 -2.76278 0
M  V30 6951 H 679.116 -5.71055 -0.506899 0
M  V30 6952 H 677.513 -5.99656 0.230782 0
M  V30 6953 H 678.583 -4.76131 0.917999 0
M  V30 6954 N 679.926 -0.151884 -1.56866 0
M  V30 6955 C 681.337 0.368128 -1.83035 0
M  V30 6956 C 681.688 1.64402 -1.07082 0
M  V30 6957 O 680.813 2.14056 -0.317647 0
M  V30 6958 C 681.408 0.674676 -3.32014 0
M  V30 6959 C 679.967 1.13919 -3.58747 0
M  V30 6960 C 679.114 0.164833 -2.7681 0
M  V30 6961 H 682.065 -0.376499 -1.54169 0
M  V30 6962 H 682.086 1.52883 -3.48435 0
M  V30 6963 H 681.598 -0.254113 -3.87267 0
M  V30 6964 H 679.699 2.08375 -3.08886 0
M  V30 6965 H 679.812 1.06179 -4.67186 0
M  V30 6966 H 678.176 0.658419 -2.46043 0
M  V30 6967 H 678.959 -0.757633 -3.34836 0
M  V30 6968 N 681.404 1.57128 0.121893 0
M  V30 6969 C 682.65 1.85853 0.826451 0
M  V30 6970 C 683.005 0.739262 1.77631 0
M  V30 6971 O 682.298 -0.260959 1.89815 0
M  V30 6972 C 682.492 3.1874 1.61677 0
M  V30 6973 C 682.321 4.43487 0.744944 0
M  V30 6974 C 681.091 5.03707 0.400891 0
M  V30 6975 C 683.289 5.1426 0.0638779 0
M  V30 6976 N 681.271 6.12006 -0.481902 0
M  V30 6977 C 682.642 6.16281 -0.678033 0
M  V30 6978 C 684.697 4.97898 -0.0128424 0
M  V30 6979 C 683.4 7.0371 -1.48946 0
M  V30 6980 C 685.426 5.85812 -0.81108 0
M  V30 6981 C 684.788 6.87333 -1.54119 0
M  V30 6982 H 680.887 0.730367 0.279442 0
M  V30 6983 H 683.471 1.9449 0.0903486 0
M  V30 6984 H 681.642 3.11204 2.32393 0
M  V30 6985 H 683.374 3.35283 2.26644 0
M  V30 6986 H 680.129 4.67744 0.742469 0
M  V30 6987 H 680.553 6.70787 -0.915063 0
M  V30 6988 H 685.195 4.19372 0.537278 0
M  V30 6989 H 682.913 7.81646 -2.05074 0
M  V30 6990 H 686.499 5.75217 -0.872764 0
M  V30 6991 H 685.379 7.54182 -2.14893 0
M  V30 6992 N 682.882 -0.391992 1.52647 0
M  V30 6993 C 684.11 -1.1586 1.71418 0
M  V30 6994 C 684.525 -1.8381 0.431216 0
M  V30 6995 O 683.882 -1.7256 -0.594085 0
M  V30 6996 C 683.933 -2.20888 2.86165 0
M  V30 6997 O 683.654 -1.5571 4.09495 0
M  V30 6998 C 685.155 -3.103 3.1659 0
M  V30 6999 H 682.375 -0.347494 0.574011 0
M  V30 7000 H 684.919 -0.458972 1.99283 0
M  V30 7001 H 683.074 -2.86492 2.6077 0
M  V30 7002 H 683.488 -2.25474 4.73563 0
M  V30 7003 H 684.962 -3.8003 4.00351 0
M  V30 7004 H 685.439 -3.73639 2.30848 0
M  V30 7005 H 686.045 -2.50345 3.43813 0
M  V30 7006 N 684.36 -1.4356 -0.65026 0
M  V30 7007 C 685.307 -1.48948 -1.76304 0
M  V30 7008 C 686.277 -0.338919 -1.62605 0
M  V30 7009 O 687.462 -0.54649 -1.82806 0
M  V30 7010 C 684.602 -1.42131 -3.14472 0
M  V30 7011 C 683.715 -2.67415 -3.39284 0
M  V30 7012 C 682.85 -2.52565 -4.67316 0
M  V30 7013 C 681.889 -3.73103 -4.85243 0
M  V30 7014 N 681.026 -3.57046 -6.04535 0
M  V30 7015 H 685.866 -2.44032 -1.71034 0
M  V30 7016 H 683.403 -1.21131 -0.834601 0
M  V30 7017 H 685.361 -1.36172 -3.94351 0
M  V30 7018 H 683.991 -0.506273 -3.18805 0
M  V30 7019 H 683.043 -2.8364 -2.53481 0
M  V30 7020 H 684.355 -3.56943 -3.48415 0
M  V30 7021 H 683.509 -2.44331 -5.55326 0
M  V30 7022 H 682.248 -1.60566 -4.60511 0
M  V30 7023 H 681.253 -3.81743 -3.95667 0
M  V30 7024 H 682.478 -4.66115 -4.93876 0
M  V30 7025 H 680.424 -2.67783 -5.98856 0
M  V30 7026 H 680.341 -4.40178 -6.14638 0
M  V30 7027 H 681.609 -3.52669 -6.95158 0
M  V30 7028 N 685.838 0.888903 -1.30139 0
M  V30 7029 C 686.768 2.01046 -1.18755 0
M  V30 7030 C 687.749 1.69916 -0.0791438 0
M  V30 7031 O 688.934 1.92445 -0.260498 0
M  V30 7032 C 686.064 3.36109 -0.874518 0
M  V30 7033 C 685.018 3.81486 -1.94043 0
M  V30 7034 C 684.344 5.13796 -1.48047 0
M  V30 7035 C 685.644 4.00637 -3.35093 0
M  V30 7036 H 687.338 2.10828 -2.12584 0
M  V30 7037 H 684.884 1.01298 -1.02346 0
M  V30 7038 H 686.837 4.14089 -0.781548 0
M  V30 7039 H 685.561 3.26449 0.0994519 0
M  V30 7040 H 684.22 3.05731 -2.02297 0
M  V30 7041 H 683.868 5.0056 -0.494878 0
M  V30 7042 H 683.568 5.45127 -2.19341 0
M  V30 7043 H 685.092 5.94305 -1.40121 0
M  V30 7044 H 686.506 4.69067 -3.2962 0
M  V30 7045 H 684.903 4.43339 -4.04438 0
M  V30 7046 H 685.973 3.0462 -3.77273 0
M  V30 7047 N 687.317 1.12792 1.10072 0
M  V30 7048 C 688.565 0.883796 1.81751 0
M  V30 7049 C 688.886 -0.591891 1.858 0
M  V30 7050 O 688.156 -1.43017 1.33876 0
M  V30 7051 H 686.736 0.323978 0.673088 0
M  V30 7052 H 689.398 1.42314 1.33164 0
M  V30 7053 H 688.494 1.26863 2.85153 0
M  V30 7054 N 688.795 -1.27931 0.920396 0
M  V30 7055 C 690.211 -1.47085 0.619537 0
M  V30 7056 C 690.411 -1.83463 -0.833291 0
M  V30 7057 O 689.467 -1.94363 -1.61181 0
M  V30 7058 C 690.78 -2.56878 1.56314 0
M  V30 7059 C 692.328 -2.70743 1.57058 0
M  V30 7060 C 692.803 -3.83687 2.50097 0
M  V30 7061 N 694.294 -3.9105 2.48262 0
M  V30 7062 C 695.029 -4.77842 3.16945 0
M  V30 7063 N 694.525 -5.69176 3.94982 0
M  V30 7064 N 696.318 -4.71509 3.06 0
M  V30 7065 H 688.469 -1.02601 1.85975 0
M  V30 7066 H 690.732 -0.511682 0.798051 0
M  V30 7067 H 690.438 -2.36923 2.59923 0
M  V30 7068 H 690.312 -3.54117 1.29928 0
M  V30 7069 H 692.699 -2.90083 0.541832 0
M  V30 7070 H 692.78 -1.74015 1.8749 0
M  V30 7071 H 692.424 -3.65101 3.53077 0
M  V30 7072 H 692.354 -4.79827 2.16964 0
M  V30 7073 H 694.845 -3.25738 1.91581 0
M  V30 7074 H 695.158 -6.32245 4.44394 0
M  V30 7075 H 693.503 -5.68995 3.99086 0
M  V30 7076 H 696.694 -3.99151 2.44533 0
M  V30 7077 H 696.867 -5.38933 3.59799 0
M  V30 7078 N 690.273 -0.685099 -1.4193 0
M  V30 7079 C 691.22 -0.0131869 -2.30796 0
M  V30 7080 C 692.19 0.782129 -1.46533 0
M  V30 7081 O 693.375 0.75229 -1.75343 0
M  V30 7082 C 690.515 0.924768 -3.32479 0
M  V30 7083 C 689.628 0.122181 -4.31827 0
M  V30 7084 C 688.763 1.05682 -5.20581 0
M  V30 7085 C 687.802 0.246526 -6.11603 0
M  V30 7086 N 686.939 1.13442 -6.92875 0
M  V30 7087 H 691.779 -0.776789 -2.87698 0
M  V30 7088 H 689.316 -0.394791 -1.41703 0
M  V30 7089 H 691.274 1.48251 -3.89971 0
M  V30 7090 H 689.904 1.65488 -2.77152 0
M  V30 7091 H 688.956 -0.552335 -3.76369 0
M  V30 7092 H 690.268 -0.506473 -4.96222 0
M  V30 7093 H 689.422 1.68415 -5.82856 0
M  V30 7094 H 688.161 1.71935 -4.56388 0
M  V30 7095 H 687.166 -0.393944 -5.48387 0
M  V30 7096 H 688.391 -0.412053 -6.77849 0
M  V30 7097 H 686.337 1.78316 -6.313 0
M  V30 7098 H 686.254 0.561089 -7.53915 0
M  V30 7099 H 687.522 1.74889 -7.59628 0
M  V30 7100 N 691.751 1.51645 -0.429126 0
M  V30 7101 C 692.681 2.30434 0.377148 0
M  V30 7102 C 693.662 1.35493 1.02838 0
M  V30 7103 O 694.847 1.6441 1.03359 0
M  V30 7104 C 691.977 3.14038 1.48315 0
M  V30 7105 C 690.931 4.1719 0.955855 0
M  V30 7106 C 690.257 4.89263 2.15698 0
M  V30 7107 C 691.557 5.223 -0.00402136 0
M  V30 7108 H 693.251 2.98085 -0.280336 0
M  V30 7109 H 690.797 1.43354 -0.136265 0
M  V30 7110 H 692.75 3.67933 2.05435 0
M  V30 7111 H 691.474 2.44193 2.16881 0
M  V30 7112 H 690.133 3.64335 0.406929 0
M  V30 7113 H 689.781 4.15929 2.82864 0
M  V30 7114 H 689.481 5.59009 1.81059 0
M  V30 7115 H 691.005 5.45978 2.73387 0
M  V30 7116 H 692.419 5.71315 0.476607 0
M  V30 7117 H 690.816 5.99525 -0.26258 0
M  V30 7118 H 691.886 4.75638 -0.943236 0
M  V30 7119 N 693.229 0.160201 1.56784 0
M  V30 7120 C 694.139 -0.787167 2.21 0
M  V30 7121 C 695.155 -1.26167 1.19825 0
M  V30 7122 O 696.331 -1.31611 1.52448 0
M  V30 7123 C 693.396 -2.00364 2.8294 0
M  V30 7124 C 692.457 -1.5771 3.99282 0
M  V30 7125 C 691.69 -2.73558 4.58259 0
M  V30 7126 O 691.913 -3.90129 4.16119 0
M  V30 7127 O 690.847 -2.48271 5.48311 0
M  V30 7128 H 694.673 -0.270462 3.02493 0
M  V30 7129 H 692.258 -0.0674666 1.49248 0
M  V30 7130 H 694.14 -2.71529 3.22257 0
M  V30 7131 H 692.815 -2.50961 2.04451 0
M  V30 7132 H 691.722 -0.835274 3.64656 0
M  V30 7133 H 693.055 -1.11815 4.79331 0
M  V30 7134 N 694.707 -1.5719 -0.113559 0
M  V30 7135 C 695.932 -1.89702 -0.838336 0
M  V30 7136 C 696.357 -0.752679 -1.72384 0
M  V30 7137 O 695.715 0.296575 -1.78858 0
M  V30 7138 C 695.763 -3.20989 -1.64312 0
M  V30 7139 O 694.867 -3.07278 -2.75053 0
M  V30 7140 H 694.208 -0.622339 -0.231496 0
M  V30 7141 H 696.738 -2.04382 -0.0943228 0
M  V30 7142 H 696.748 -3.53843 -2.03123 0
M  V30 7143 H 695.423 -4.03869 -0.993119 0
M  V30 7144 H 694 -2.85901 -2.39406 0
M  V30 7145 N 696.185 0.383891 -1.52853 0
M  V30 7146 C 697.41 1.154 -1.7233 0
M  V30 7147 C 697.835 1.82809 -0.44298 0
M  V30 7148 O 697.193 1.71026 0.601645 0
M  V30 7149 C 697.241 2.17386 -2.87708 0
M  V30 7150 O 696.345 3.24082 -2.55038 0
M  V30 7151 H 695.686 0.335709 -0.572883 0
M  V30 7152 H 698.216 0.44662 -1.99666 0
M  V30 7153 H 698.226 2.61296 -3.1335 0
M  V30 7154 H 696.901 1.6771 -3.80587 0
M  V30 7155 H 695.478 2.85273 -2.40153 0
M  V30 7156 N 697.663 1.43903 0.642637 0
M  V30 7157 C 698.909 1.46296 1.40447 0
M  V30 7158 C 699.242 0.0908361 1.93987 0
M  V30 7159 O 698.517 -0.889884 1.72949 0
M  V30 7160 C 698.8 2.51399 2.57819 0
M  V30 7161 C 698.653 3.97926 2.09702 0
M  V30 7162 C 699.972 2.53125 3.60022 0
M  V30 7163 H 697.091 0.532676 0.509338 0
M  V30 7164 H 699.733 1.75515 0.727635 0
M  V30 7165 H 697.883 2.26614 3.1556 0
M  V30 7166 H 699.555 4.33804 1.5688 0
M  V30 7167 H 697.798 4.10252 1.40982 0
M  V30 7168 H 698.469 4.67096 2.94152 0
M  V30 7169 H 700.945 2.75242 3.12059 0
M  V30 7170 H 699.821 3.28589 4.39682 0
M  V30 7171 H 700.082 1.56895 4.13324 0
M  V30 7172 N 699.141 -0.881989 1.30609 0
M  V30 7173 C 700.381 -1.64817 1.20891 0
M  V30 7174 C 700.745 -1.90593 -0.232043 0
M  V30 7175 O 701.946 -2.64964 -0.452516 0
M  V30 7176 C 700.217 -2.95006 2.01758 0
M  V30 7177 S 701.776 -3.85953 2.08771 0
M  V30 7178 H 698.594 -0.565651 0.430767 0
M  V30 7179 H 701.196 -1.04665 1.65122 0
M  V30 7180 H 699.9 -2.73973 3.0556 0
M  V30 7181 H 699.431 -3.60189 1.582 0
M  V30 7182 H 701.446 -4.81037 1.21727 0
M  V30 7183 N 700.619 -1.13374 -1.09472 0
M  V30 7184 C 702.03 -0.90801 -1.63132 0
M  V30 7185 C 702.381 0.555576 -1.8817 0
M  V30 7186 O 701.506 1.42218 -1.63104 0
M  V30 7187 C 702.101 -1.64182 -2.96361 0
M  V30 7188 C 700.66 -1.46197 -3.46848 0
M  V30 7189 C 699.807 -1.67134 -2.21273 0
M  V30 7190 H 702.758 -1.2871 -0.928411 0
M  V30 7191 H 702.779 -1.09863 -3.64294 0
M  V30 7192 H 702.291 -2.707 -2.78106 0
M  V30 7193 H 700.392 -0.419788 -3.70228 0
M  V30 7194 H 700.505 -2.22472 -4.24315 0
M  V30 7195 H 698.869 -1.09616 -2.29905 0
M  V30 7196 H 699.652 -2.74971 -2.05538 0
M  V30 7197 N 702.098 1.27442 -0.927168 0
M  V30 7198 C 703.344 1.94679 -0.568164 0
M  V30 7199 C 703.677 1.72697 0.888219 0
M  V30 7200 O 702.952 1.05573 1.63354 0
M  V30 7201 C 703.235 3.4882 -0.894253 0
M  V30 7202 C 703.088 3.80146 -2.40435 0
M  V30 7203 C 704.407 4.38281 -0.399766 0
M  V30 7204 H 701.526 0.707071 -0.207892 0
M  V30 7205 H 704.168 1.50568 -1.15885 0
M  V30 7206 H 702.318 3.86522 -0.391566 0
M  V30 7207 H 703.99 3.52238 -2.97869 0
M  V30 7208 H 702.233 3.26716 -2.85375 0
M  V30 7209 H 702.904 4.87835 -2.58304 0
M  V30 7210 H 705.38 4.07726 -0.83058 0
M  V30 7211 H 704.256 5.44955 -0.656885 0
M  V30 7212 H 704.517 4.36521 0.700153 0
M  V30 7213 N 703.576 0.692616 1.41565 0
M  V30 7214 C 704.992 0.363878 1.55397 0
M  V30 7215 C 705.192 -1.1294 1.66874 0
M  V30 7216 O 704.248 -1.91517 1.64552 0
M  V30 7217 C 705.561 1.10982 2.7947 0
M  V30 7218 C 707.109 1.09387 2.93263 0
M  V30 7219 C 707.584 1.8215 4.20221 0
M  V30 7220 N 709.075 1.79105 4.27172 0
M  V30 7221 C 709.81 2.32247 5.2426 0
M  V30 7222 N 709.306 2.93847 6.27396 0
M  V30 7223 N 711.099 2.22519 5.1618 0
M  V30 7224 H 703.25 1.66116 1.3236 0
M  V30 7225 H 705.513 0.700848 0.63837 0
M  V30 7226 H 705.219 2.1647 2.77188 0
M  V30 7227 H 705.093 0.686492 3.709 0
M  V30 7228 H 707.48 0.0472638 2.95062 0
M  V30 7229 H 707.561 1.55623 2.03015 0
M  V30 7230 H 707.205 2.86789 4.19183 0
M  V30 7231 H 707.135 1.33351 5.09436 0
M  V30 7232 H 709.626 1.34191 3.53272 0
M  V30 7233 H 709.939 3.31972 6.97864 0
M  V30 7234 H 708.284 2.97924 6.27906 0
M  V30 7235 H 711.475 1.7407 4.34531 0
M  V30 7236 H 711.648 2.64239 5.91677 0
M  V30 7237 N 705.054 -1.51416 0.437162 0
M  V30 7238 C 706.47 -1.59349 0.0894459 0
M  V30 7239 C 706.67 -1.44809 -1.40116 0
M  V30 7240 O 705.726 -1.28924 -2.17106 0
M  V30 7241 C 707.039 -2.9446 0.609398 0
M  V30 7242 C 708.587 -3.07769 0.569824 0
M  V30 7243 C 709.062 -4.45404 1.06675 0
M  V30 7244 N 710.553 -4.51723 1.02473 0
M  V30 7245 C 711.288 -5.56544 1.3801 0
M  V30 7246 N 710.784 -6.68784 1.80831 0
M  V30 7247 N 712.577 -5.46901 1.29828 0
M  V30 7248 H 704.728 -1.59112 1.40703 0
M  V30 7249 H 706.991 -0.750031 0.579791 0
M  V30 7250 H 706.697 -3.1047 1.65231 0
M  V30 7251 H 706.571 -3.77184 0.0342236 0
M  V30 7252 H 708.958 -2.91428 -0.464107 0
M  V30 7253 H 709.039 -2.26885 1.1814 0
M  V30 7254 H 708.683 -4.62492 2.09914 0
M  V30 7255 H 708.613 -5.24827 0.431712 0
M  V30 7256 H 711.104 -3.71165 0.710258 0
M  V30 7257 H 711.417 -7.44787 2.06185 0
M  V30 7258 H 709.762 -6.69992 1.84757 0
M  V30 7259 H 712.953 -4.581 0.962397 0
M  V30 7260 H 713.126 -6.2848 1.57851 0
M  V30 7261 N 706.532 -0.168513 -1.56696 0
M  V30 7262 C 707.757 0.486688 -2.01609 0
M  V30 7263 C 708.182 1.56203 -1.04796 0
M  V30 7264 O 707.54 1.8128 -0.0270596 0
M  V30 7265 C 707.588 1.04451 -3.45141 0
M  V30 7266 O 706.692 2.15862 -3.51393 0
M  V30 7267 H 706.033 0.116831 -0.653641 0
M  V30 7268 H 708.563 -0.271579 -2.0279 0
M  V30 7269 H 708.573 1.36782 -3.84389 0
M  V30 7270 H 707.248 0.257155 -4.15104 0
M  V30 7271 H 705.825 1.84597 -3.24004 0
M  V30 7272 N 708.01 1.57248 0.105221 0
M  V30 7273 C 709.426 1.52853 0.459153 0
M  V30 7274 C 709.626 0.883674 1.8109 0
M  V30 7275 O 708.682 0.471864 2.48052 0
M  V30 7276 C 709.995 2.97596 0.43096 0
M  V30 7277 C 711.543 3.08758 0.513536 0
M  V30 7278 C 712.018 4.55089 0.515593 0
M  V30 7279 N 713.509 4.59597 0.576639 0
M  V30 7280 C 714.244 5.70253 0.599904 0
M  V30 7281 N 713.74 6.90368 0.579985 0
M  V30 7282 N 715.533 5.58399 0.643953 0
M  V30 7283 H 707.684 1.97547 -0.780306 0
M  V30 7284 H 709.947 0.902758 -0.289363 0
M  V30 7285 H 709.653 3.48201 -0.494903 0
M  V30 7286 H 709.527 3.55756 1.2537 0
M  V30 7287 H 711.914 2.58148 1.42982 0
M  V30 7288 H 711.995 2.53568 -0.337148 0
M  V30 7289 H 711.639 5.06348 -0.396701 0
M  V30 7290 H 711.569 5.08105 1.38335 0
M  V30 7291 H 714.06 3.73144 0.597639 0
M  V30 7292 H 714.373 7.70462 0.600741 0
M  V30 7293 H 712.718 6.92843 0.547191 0
M  V30 7294 H 715.909 4.63467 0.656975 0
M  V30 7295 H 716.082 6.44644 0.658616 0
M  V30 7296 N 709.488 -0.375779 1.53054 0
M  V30 7297 C 710.904 -0.716764 1.426 0
M  V30 7298 C 711.104 -1.93651 0.556931 0
M  V30 7299 O 710.16 -2.52475 0.0354461 0
M  V30 7300 C 711.473 -0.939499 2.85646 0
M  V30 7301 C 713.021 -1.04015 2.95212 0
M  V30 7302 C 713.496 -1.29543 4.39298 0
M  V30 7303 N 714.987 -1.36335 4.42682 0
M  V30 7304 C 715.722 -1.57778 5.51266 0
M  V30 7305 N 715.218 -1.76604 6.69913 0
M  V30 7306 N 717.011 -1.60065 5.38828 0
M  V30 7307 H 709.162 0.42664 2.08071 0
M  V30 7308 H 711.425 0.128758 0.939215 0
M  V30 7309 H 711.131 -0.115189 3.51511 0
M  V30 7310 H 711.005 -1.85048 3.2869 0
M  V30 7311 H 713.392 -1.85501 2.29507 0
M  V30 7312 H 713.473 -0.106785 2.55577 0
M  V30 7313 H 713.117 -0.485611 5.05573 0
M  V30 7314 H 713.047 -2.24184 4.76497 0
M  V30 7315 H 715.538 -1.23441 3.5717 0
M  V30 7316 H 715.851 -1.9251 7.48438 0
M  V30 7317 H 714.196 -1.73802 6.72917 0
M  V30 7318 H 717.387 -1.44917 4.45103 0
M  V30 7319 H 717.56 -1.76435 6.23518 0
M  V30 7320 N 710.966 -1.44241 -0.634997 0
M  V30 7321 C 711.896 -1.53632 -1.7584 0
M  V30 7322 C 712.877 -0.389603 -1.65578 0
M  V30 7323 O 714.062 -0.609219 -1.84397 0
M  V30 7324 C 711.192 -1.47644 -3.14354 0
M  V30 7325 C 710.146 -2.60752 -3.394 0
M  V30 7326 C 709.472 -2.39817 -4.77904 0
M  V30 7327 C 710.772 -4.02921 -3.32343 0
M  V30 7328 H 712.466 -2.47662 -1.68238 0
M  V30 7329 H 710.012 -1.19197 -0.807969 0
M  V30 7330 H 711.965 -1.52815 -3.92716 0
M  V30 7331 H 710.689 -0.501284 -3.2273 0
M  V30 7332 H 709.348 -2.54965 -2.63417 0
M  V30 7333 H 708.996 -1.40502 -4.82978 0
M  V30 7334 H 708.696 -3.15649 -4.9562 0
M  V30 7335 H 710.22 -2.46799 -5.585 0
M  V30 7336 H 711.634 -4.10098 -4.00615 0
M  V30 7337 H 710.031 -4.78925 -3.61595 0
M  V30 7338 H 711.101 -4.26766 -2.30215 0
M  V30 7339 N 712.444 0.87505 -1.31075 0
M  V30 7340 C 713.392 2.00317 -1.18219 0
M  V30 7341 C 714.386 1.69152 -0.0916872 0
M  V30 7342 O 715.592 1.7821 -0.253229 0
M  V30 7343 H 711.967 0.656981 -0.365895 0
M  V30 7344 H 713.938 2.08293 -2.13674 0
M  V30 7345 C 712.687 3.35821 -0.901095 0
M  V30 7346 H 712.01 3.6032 -1.73233 0
M  V30 7347 H 713.45 4.15366 -0.851295 0
M  V30 7348 C 711.909 3.34563 0.396114 0
M  V30 7349 O 712.439 3.75971 1.41452 0
M  V30 7350 N 710.645 2.87681 0.410832 0
M  V30 7351 H 710.192 2.54179 -0.418415 0
M  V30 7352 H 710.15 2.87223 1.27869 0
M  V30 7353 N 713.922 1.13953 1.08869 0
M  V30 7354 C 715.333 0.916649 1.62648 0
M  V30 7355 C 715.684 -0.545589 1.88462 0
M  V30 7356 O 714.809 -1.41351 1.63856 0
M  V30 7357 C 715.404 1.65751 2.95486 0
M  V30 7358 C 713.963 1.48034 3.46068 0
M  V30 7359 C 713.11 1.68305 2.20383 0
M  V30 7360 H 716.061 1.292 0.921572 0
M  V30 7361 H 716.082 1.11794 3.63707 0
M  V30 7362 H 715.594 2.72171 2.76667 0
M  V30 7363 H 713.695 0.439416 3.7 0
M  V30 7364 H 713.808 2.24719 4.23129 0
M  V30 7365 H 712.172 1.10833 2.29321 0
M  V30 7366 H 712.955 2.76057 2.04077 0
M  V30 7367 N 715.4 -1.26948 0.933913 0
M  V30 7368 C 716.31 -2.30366 0.443671 0
M  V30 7369 C 717.326 -1.67284 -0.478745 0
M  V30 7370 O 718.502 -1.98156 -0.360043 0
M  V30 7371 C 715.567 -3.45485 -0.289974 0
M  V30 7372 C 714.628 -4.24069 0.668114 0
M  V30 7373 C 713.861 -5.33691 -0.0306138 0
M  V30 7374 O 714.084 -5.5656 -1.24888 0
M  V30 7375 O 713.018 -5.98441 0.644384 0
M  V30 7376 H 716.844 -2.74349 1.30254 0
M  V30 7377 H 714.429 -1.32012 0.699506 0
M  V30 7378 H 716.311 -4.15486 -0.70353 0
M  V30 7379 H 714.986 -3.03546 -1.12435 0
M  V30 7380 H 713.893 -3.56579 1.13147 0
M  V30 7381 H 715.226 -4.69739 1.46989 0
M  V30 7382 N 716.879 -0.700114 -1.41195 0
M  V30 7383 C 717.809 -0.0521132 -2.33442 0
M  V30 7384 C 718.79 0.76228 -1.52063 0
M  V30 7385 O 719.975 0.714336 -1.80585 0
M  V30 7386 C 717.105 0.881693 -3.35922 0
M  V30 7387 C 716.059 0.174062 -4.27646 0
M  V30 7388 C 715.385 1.22254 -5.20536 0
M  V30 7389 C 716.685 -0.962396 -5.13357 0
M  V30 7390 H 718.379 -0.822574 -2.87879 0
M  V30 7391 H 715.925 -0.397011 -1.38419 0
M  V30 7392 H 717.878 1.34429 -3.99383 0
M  V30 7393 H 716.602 1.68387 -2.79845 0
M  V30 7394 H 715.261 -0.268551 -3.65615 0
M  V30 7395 H 714.909 2.01736 -4.60773 0
M  V30 7396 H 714.609 0.754038 -5.82742 0
M  V30 7397 H 716.133 1.68555 -5.86874 0
M  V30 7398 H 717.547 -0.579875 -5.7036 0
M  V30 7399 H 715.944 -1.35828 -5.84526 0
M  V30 7400 H 717.014 -1.80003 -4.50252 0
M  V30 7401 N 718.357 1.51182 -0.445186 0
M  V30 7402 C 719.605 2.01753 0.11841 0
M  V30 7403 C 719.926 1.33087 1.42523 0
M  V30 7404 O 719.196 0.467891 1.9023 0
M  V30 7405 H 717.776 0.745536 0.0467492 0
M  V30 7406 H 720.438 1.85765 -0.589688 0
M  V30 7407 H 719.534 3.10762 0.288665 0
M  V30 7408 N 719.835 0.176821 1.56605 0
M  V30 7409 C 721.246 -0.338963 1.83597 0
M  V30 7410 C 721.597 -1.62677 1.09684 0
M  V30 7411 O 720.722 -2.13524 0.351661 0
M  V30 7412 C 721.317 -0.62177 3.33046 0
M  V30 7413 C 719.876 -1.08198 3.60514 0
M  V30 7414 C 719.023 -0.120774 2.77037 0
M  V30 7415 H 721.974 0.400978 1.53551 0
M  V30 7416 H 721.995 -1.47321 3.50823 0
M  V30 7417 H 721.507 0.315692 3.86814 0
M  V30 7418 H 719.608 -2.03435 3.12162 0
M  V30 7419 H 719.721 -0.987329 4.68816 0
M  V30 7420 H 718.085 -0.619192 2.47059 0
M  V30 7421 H 718.868 0.810806 3.33588 0
M  V30 7422 N 721.313 -1.57302 -0.09688 0
M  V30 7423 C 722.559 -1.87144 -0.796778 0
M  V30 7424 C 722.914 -0.767428 -1.76432 0
M  V30 7425 O 722.207 0.230728 -1.90206 0
M  V30 7426 C 722.401 -3.21272 -1.56586 0
M  V30 7427 C 722.23 -4.44616 -0.674295 0
M  V30 7428 C 721 -5.04281 -0.320705 0
M  V30 7429 C 723.198 -5.14297 0.0179445 0
M  V30 7430 N 721.18 -6.11162 0.579206 0
M  V30 7431 C 722.551 -6.15125 0.775992 0
M  V30 7432 C 724.606 -4.97815 0.0920521 0
M  V30 7433 C 723.309 -7.01251 1.60122 0
M  V30 7434 C 725.335 -5.84447 0.904175 0
M  V30 7435 C 724.697 -6.84794 1.65035 0
M  V30 7436 H 720.796 -0.734721 -0.267787 0
M  V30 7437 H 723.38 -1.94609 -0.0593955 0
M  V30 7438 H 721.551 -3.14862 -2.27413 0
M  V30 7439 H 723.283 -3.38846 -2.21281 0
M  V30 7440 H 720.038 -4.68866 -0.667961 0
M  V30 7441 H 720.462 -6.69247 1.02166 0
M  V30 7442 H 725.104 -4.20174 -0.470492 0
M  V30 7443 H 722.822 -7.78284 2.17484 0
M  V30 7444 H 726.408 -5.73755 0.964165 0
M  V30 7445 H 725.288 -7.50668 2.26864 0
M  V30 7446 N 722.791 0.367657 -1.53252 0
M  V30 7447 C 723.721 1.45632 -1.8252 0
M  V30 7448 C 724.702 1.55979 -0.678568 0
M  V30 7449 O 725.887 1.70581 -0.928217 0
M  V30 7450 C 723.017 2.82994 -2.01325 0
M  V30 7451 C 721.971 2.87473 -3.17086 0
M  V30 7452 C 721.297 4.2749 -3.21179 0
M  V30 7453 C 722.597 2.55182 -4.55719 0
M  V30 7454 H 724.291 1.21387 -2.73689 0
M  V30 7455 H 721.837 0.58251 -1.31692 0
M  V30 7456 H 723.79 3.59179 -2.20383 0
M  V30 7457 H 722.514 3.08622 -1.06864 0
M  V30 7458 H 721.173 2.13739 -2.97844 0
M  V30 7459 H 720.821 4.5019 -2.24361 0
M  V30 7460 H 720.521 4.31403 -3.98955 0
M  V30 7461 H 722.045 5.0555 -3.42419 0
M  V30 7462 H 723.459 3.21081 -4.74953 0
M  V30 7463 H 721.856 2.70414 -5.3572 0
M  V30 7464 H 722.926 1.5044 -4.60973 0
M  V30 7465 N 724.269 1.44576 0.627338 0
M  V30 7466 C 725.497 1.51048 1.41394 0
M  V30 7467 C 725.912 0.136568 1.88305 0
M  V30 7468 O 725.269 -0.858251 1.6106 0
M  V30 7469 C 725.32 2.47837 2.63172 0
M  V30 7470 O 725.041 3.79887 2.18215 0
M  V30 7471 C 726.542 2.63811 3.56257 0
M  V30 7472 H 723.762 0.512171 0.4335 0
M  V30 7473 H 726.306 1.89576 0.766878 0
M  V30 7474 H 724.461 2.12433 3.23961 0
M  V30 7475 H 724.875 4.32177 2.97192 0
M  V30 7476 H 726.349 3.35554 4.38301 0
M  V30 7477 H 726.826 1.69169 4.05313 0
M  V30 7478 H 727.432 3.0013 3.01333 0
M  V30 7479 N 725.747 -0.868086 1.31537 0
M  V30 7480 C 726.994 -1.62127 1.2133 0
M  V30 7481 C 727.322 -1.93158 -0.2281 0
M  V30 7482 O 726.577 -1.5632 -1.1774 0
M  V30 7483 C 726.876 -2.95889 2.0046 0
M  V30 7484 C 726.542 -2.84343 3.49943 0
M  V30 7485 C 725.204 -2.80901 3.90702 0
M  V30 7486 C 727.556 -2.71243 4.45058 0
M  V30 7487 C 724.884 -2.6222 5.24841 0
M  V30 7488 C 727.236 -2.54098 5.79325 0
M  V30 7489 C 725.9 -2.4904 6.19302 0
M  V30 7490 H 725.17 -0.593265 0.443979 0
M  V30 7491 H 727.817 -1.00803 1.62822 0
M  V30 7492 H 726.122 -3.61259 1.51655 0
M  V30 7493 H 727.819 -3.53161 1.89942 0
M  V30 7494 H 724.409 -2.8784 3.17563 0
M  V30 7495 H 728.593 -2.72956 4.14498 0
M  V30 7496 H 723.849 -2.56731 5.54887 0
M  V30 7497 H 728.023 -2.42938 6.52652 0
M  V30 7498 H 725.65 -2.34324 7.23185 0
M  V30 7499 N 727.225 -1.14528 -1.08264 0
M  V30 7500 C 728.188 -0.83632 -2.13397 0
M  V30 7501 C 729.188 0.159715 -1.60005 0
M  V30 7502 O 730.378 -0.0688098 -1.74064 0
M  V30 7503 C 727.51 -0.246973 -3.40004 0
M  V30 7504 H 728.703 -1.76808 -2.42237 0
M  V30 7505 H 726.256 -0.951509 -1.24 0
M  V30 7506 H 726.991 0.693436 -3.168 0
M  V30 7507 H 726.776 -0.964412 -3.80055 0
M  V30 7508 H 728.266 -0.0480679 -4.17572 0
M  V30 7509 N 728.703 1.26451 -0.940633 0
M  V30 7510 C 729.98 1.88947 -0.505811 0
M  V30 7511 C 730.36 1.85011 1.01657 0
M  V30 7512 O 729.708 1.30406 1.87634 0
M  V30 7513 C 729.918 3.32304 -1.06654 0
M  V30 7514 C 731.266 4.09153 -1.13486 0
M  V30 7515 O 732.29 3.41371 -1.01708 0
M  V30 7516 O 731.149 5.30369 -1.31797 0
M  V30 7517 H 728.243 0.810422 -0.164759 0
M  V30 7518 H 730.789 1.34625 -1.03316 0
M  V30 7519 H 729.561 3.29527 -2.11015 0
M  V30 7520 H 729.184 3.94164 -0.521603 0
M  V30 7521 N 730.181 0.707592 1.40822 0
M  V30 7522 C 731.091 0.0507246 2.34545 0
M  V30 7523 C 732.107 -0.752727 1.56876 0
M  V30 7524 O 733.283 -0.687524 1.89302 0
M  V30 7525 C 730.348 -0.865731 3.35717 0
M  V30 7526 C 729.409 -0.0531313 4.29267 0
M  V30 7527 C 728.642 -0.925939 5.25606 0
M  V30 7528 O 728.865 -2.16531 5.27703 0
M  V30 7529 O 727.799 -0.369194 6.00767 0
M  V30 7530 H 731.625 0.823587 2.9232 0
M  V30 7531 H 729.21 0.46801 1.4188 0
M  V30 7532 H 731.092 -1.39091 3.97783 0
M  V30 7533 H 729.767 -1.61788 2.80368 0
M  V30 7534 H 728.674 0.516931 3.70511 0
M  V30 7535 H 730.007 0.660617 4.87747 0
M  V30 7536 N 731.66 -1.50943 0.453197 0
M  V30 7537 C 733.071 -1.86699 -0.00619892 0
M  V30 7538 C 733.422 -1.3693 -1.40515 0
M  V30 7539 O 732.547 -0.726715 -2.03833 0
M  V30 7540 C 733.142 -3.38795 -0.018025 0
M  V30 7541 C 731.701 -3.74028 -0.421885 0
M  V30 7542 C 730.848 -2.74752 0.375087 0
M  V30 7543 H 733.799 -1.43942 0.668317 0
M  V30 7544 H 733.82 -3.71468 -0.824125 0
M  V30 7545 H 733.332 -3.74988 1.00028 0
M  V30 7546 H 731.433 -3.43431 -1.44521 0
M  V30 7547 H 731.546 -4.78908 -0.135664 0
M  V30 7548 H 729.91 -2.5414 -0.168794 0
M  V30 7549 H 730.693 -3.13787 1.39256 0
M  V30 7550 N 733.138 -0.185124 -1.56509 0
M  V30 7551 C 734.068 0.735098 -2.21627 0
M  V30 7552 C 735.049 1.2288 -1.1762 0
M  V30 7553 O 736.234 1.27945 -1.46095 0
M  V30 7554 C 733.364 1.95889 -2.86783 0
M  V30 7555 C 732.318 1.6005 -3.96948 0
M  V30 7556 C 731.644 2.90009 -4.4922 0
M  V30 7557 C 732.944 0.818008 -5.15855 0
M  V30 7558 H 734.638 0.192274 -2.98782 0
M  V30 7559 H 732.184 0.0910393 -1.43712 0
M  V30 7560 H 734.137 2.60779 -3.31017 0
M  V30 7561 H 732.861 2.52608 -2.07018 0
M  V30 7562 H 731.52 0.975237 -3.5339 0
M  V30 7563 H 731.168 3.44797 -3.6623 0
M  V30 7564 H 730.868 2.66778 -5.23549 0
M  V30 7565 H 732.392 3.55904 -4.9615 0
M  V30 7566 H 733.806 1.36979 -5.56695 0
M  V30 7567 H 732.203 0.684207 -5.96187 0
M  V30 7568 H 733.273 -0.182939 -4.84555 0
M  V30 7569 N 734.616 1.57351 0.0885366 0
M  V30 7570 C 735.862 1.86696 0.791996 0
M  V30 7571 C 736.195 0.775148 1.78059 0
M  V30 7572 O 735.47 -0.216247 1.93294 0
M  V30 7573 C 735.753 3.26684 1.51491 0
M  V30 7574 C 735.606 4.465 0.543858 0
M  V30 7575 C 736.925 3.64664 2.46391 0
M  V30 7576 H 734.044 0.679049 0.286463 0
M  V30 7577 H 736.686 1.89919 0.0554866 0
M  V30 7578 H 734.836 3.24067 2.14273 0
M  V30 7579 H 736.508 4.61235 -0.0774597 0
M  V30 7580 H 734.751 4.33567 -0.142228 0
M  V30 7581 H 735.422 5.41192 1.08696 0
M  V30 7582 H 737.898 3.68267 1.93698 0
M  V30 7583 H 736.774 4.63534 2.93986 0
M  V30 7584 H 737.035 2.93698 3.30445 0
M  V30 7585 N 736.094 -0.359525 1.53444 0
M  V30 7586 C 737.505 -0.936009 1.61542 0
M  V30 7587 C 737.856 -1.90069 0.486633 0
M  V30 7588 O 736.981 -2.12929 -0.386047 0
M  V30 7589 C 737.576 -1.70441 2.92806 0
M  V30 7590 C 736.135 -2.23015 3.03218 0
M  V30 7591 C 735.282 -1.04438 2.56881 0
M  V30 7592 H 738.233 -0.138134 1.58098 0
M  V30 7593 H 738.254 -2.56609 2.80948 0
M  V30 7594 H 737.766 -1.00205 3.74941 0
M  V30 7595 H 735.867 -2.96475 2.25684 0
M  V30 7596 H 735.98 -2.50481 4.08407 0
M  V30 7597 H 734.344 -1.41314 2.11902 0
M  V30 7598 H 735.127 -0.356905 3.4144 0
M  V30 7599 N 737.572 -1.44907 -0.619662 0
M  V30 7600 C 738.797 -1.52021 -1.41083 0
M  V30 7601 C 739.222 -0.14976 -1.87503 0
M  V30 7602 O 738.58 0.863303 -1.59426 0
M  V30 7603 C 738.628 -2.49911 -2.59955 0
M  V30 7604 O 737.732 -2.00857 -3.60181 0
M  V30 7605 H 737.073 -0.512912 -0.421684 0
M  V30 7606 H 739.603 -1.90149 -0.755282 0
M  V30 7607 H 739.613 -2.68323 -3.07354 0
M  V30 7608 H 738.288 -3.4945 -2.25516 0
M  V30 7609 H 736.865 -1.92265 -3.19513 0
M  V30 7610 N 739.05 0.861098 -1.31996 0
M  V30 7611 C 739.96 2.00154 -1.22374 0
M  V30 7612 C 740.976 1.73447 -0.138631 0
M  V30 7613 O 742.152 1.98191 -0.358104 0
M  V30 7614 C 739.217 3.33696 -0.940645 0
M  V30 7615 C 738.278 3.73668 -2.11355 0
M  V30 7616 C 737.511 5.00837 -1.84386 0
M  V30 7617 O 737.734 5.64996 -0.783287 0
M  V30 7618 O 736.668 5.37787 -2.70313 0
M  V30 7619 H 740.494 2.11207 -2.18233 0
M  V30 7620 H 738.079 0.990768 -1.11822 0
M  V30 7621 H 739.961 4.13756 -0.798987 0
M  V30 7622 H 738.636 3.23698 -0.0121636 0
M  V30 7623 H 737.543 2.94211 -2.31065 0
M  V30 7624 H 738.876 3.88303 -3.02459 0
M  V30 7625 N 740.528 1.15101 1.07655 0
M  V30 7626 C 741.939 0.933848 1.61667 0
M  V30 7627 C 742.29 -0.525569 1.8903 0
M  V30 7628 O 741.415 -1.39605 1.65346 0
M  V30 7629 C 742.01 1.68876 2.93711 0
M  V30 7630 C 740.569 1.51697 3.44478 0
M  V30 7631 C 739.716 1.70633 2.18586 0
M  V30 7632 H 742.667 1.30171 0.907816 0
M  V30 7633 H 742.688 1.15645 3.625 0
M  V30 7634 H 742.2 2.7509 2.73764 0
M  V30 7635 H 740.301 0.478635 3.69513 0
M  V30 7636 H 740.414 2.29194 4.20722 0
M  V30 7637 H 738.778 1.13259 2.28132 0
M  V30 7638 H 739.561 2.78206 2.01137 0
M  V30 7639 N 742.006 -1.2595 0.947325 0
M  V30 7640 C 742.938 -2.25336 0.41906 0
M  V30 7641 C 743.951 -1.56135 -0.461051 0
M  V30 7642 O 745.14 -1.76438 -0.270505 0
M  V30 7643 C 742.24 -3.36334 -0.416233 0
M  V30 7644 C 741.413 -4.35088 0.449162 0
M  V30 7645 C 740.472 -5.25185 -0.326716 0
M  V30 7646 O 739.498 -5.68548 0.272374 0
M  V30 7647 N 740.7 -5.57388 -1.6217 0
M  V30 7648 H 743.465 -2.71298 1.27348 0
M  V30 7649 H 741.026 -1.39781 0.81688 0
M  V30 7650 H 743.018 -3.93564 -0.942826 0
M  V30 7651 H 741.588 -2.89819 -1.17148 0
M  V30 7652 H 740.808 -3.76841 1.15692 0
M  V30 7653 H 742.096 -4.98056 1.04008 0
M  V30 7654 H 741.494 -5.2405 -2.13046 0
M  V30 7655 H 740.051 -6.17234 -2.0944 0
M  V30 7656 N 743.484 -0.715051 -1.40445 0
M  V30 7657 C 744.732 -0.253826 -2.005 0
M  V30 7658 C 745.053 1.15681 -1.5698 0
M  V30 7659 O 744.323 1.78414 -0.809027 0
M  V30 7660 H 742.903 -0.0908537 -0.741454 0
M  V30 7661 H 745.565 -0.920561 -1.7179 0
M  V30 7662 H 744.661 -0.286499 -3.10782 0
M  V30 7663 N 744.962 1.50701 -0.461195 0
M  V30 7664 C 745.925 2.2686 0.326679 0
M  V30 7665 C 746.925 1.31243 0.929085 0
M  V30 7666 O 748.115 1.54754 0.799807 0
M  V30 7667 C 745.247 3.07844 1.46441 0
M  V30 7668 H 746.44 2.97954 -0.341095 0
M  V30 7669 H 743.993 1.54814 -0.214984 0
M  V30 7670 H 744.728 2.41223 2.16753 0
M  V30 7671 H 744.513 3.78101 1.03836 0
M  V30 7672 H 746.003 3.65469 2.02044 0
M  V30 7673 N 746.441 0.193421 1.56409 0
M  V30 7674 C 747.371 -0.723334 2.22014 0
M  V30 7675 C 748.352 -1.22254 1.1827 0
M  V30 7676 O 749.537 -1.27168 1.46771 0
M  V30 7677 C 746.667 -1.94366 2.87818 0
M  V30 7678 C 745.621 -1.57943 3.97791 0
M  V30 7679 C 744.947 -2.87623 4.50752 0
M  V30 7680 C 746.247 -0.790639 5.16281 0
M  V30 7681 H 747.941 -0.176426 2.9888 0
M  V30 7682 H 745.487 -0.0834166 1.43758 0
M  V30 7683 H 747.44 -2.5902 3.32396 0
M  V30 7684 H 746.164 -2.51507 2.08355 0
M  V30 7685 H 744.823 -0.956482 3.53903 0
M  V30 7686 H 744.471 -3.4285 3.68053 0
M  V30 7687 H 744.171 -2.63998 5.24956 0
M  V30 7688 H 745.695 -3.53268 4.9803 0
M  V30 7689 H 747.109 -1.34024 5.57414 0
M  V30 7690 H 745.506 -0.65258 5.96541 0
M  V30 7691 H 746.576 0.208633 4.84451 0
M  V30 7692 N 747.919 -1.57396 -0.0801906 0
M  V30 7693 C 749.33 -1.75642 -0.633002 0
M  V30 7694 C 749.681 -0.817708 -1.78348 0
M  V30 7695 O 748.806 0.000233743 -2.164 0
M  V30 7696 C 749.401 -3.18502 -1.15507 0
M  V30 7697 C 747.96 -3.38121 -1.65381 0
M  V30 7698 C 747.107 -2.71386 -0.569661 0
M  V30 7699 H 750.058 -1.58027 0.145949 0
M  V30 7700 H 750.079 -3.22198 -2.02408 0
M  V30 7701 H 749.591 -3.86799 -0.317515 0
M  V30 7702 H 747.692 -2.74926 -2.51488 0
M  V30 7703 H 747.805 -4.46521 -1.73654 0
M  V30 7704 H 746.169 -2.33702 -1.0127 0
M  V30 7705 H 746.952 -3.42332 0.257561 0
M  V30 7706 N 749.397 0.351382 -1.53633 0
M  V30 7707 C 750.622 1.11718 -1.74739 0
M  V30 7708 C 751.047 1.81829 -0.481657 0
M  V30 7709 O 750.405 1.72264 0.565233 0
M  V30 7710 C 750.453 2.11234 -2.92254 0
M  V30 7711 O 749.557 3.186 -2.61855 0
M  V30 7712 H 748.898 0.323482 -0.579875 0
M  V30 7713 H 751.428 0.404167 -2.00568 0
M  V30 7714 H 751.438 2.54591 -3.18822 0
M  V30 7715 H 750.113 1.59599 -3.84058 0
M  V30 7716 H 748.69 2.80115 -2.4615 0
M  V30 7717 N 750.875 1.45233 0.611969 0
M  V30 7718 C 751.805 1.5641 1.73373 0
M  V30 7719 C 752.786 0.415896 1.64937 0
M  V30 7720 O 753.971 0.638478 1.83404 0
M  V30 7721 C 751.101 1.52627 3.11965 0
M  V30 7722 C 750.055 2.66119 3.35208 0
M  V30 7723 C 749.381 2.4739 4.74028 0
M  V30 7724 C 750.681 4.08157 3.25891 0
M  V30 7725 H 752.375 2.50307 1.64277 0
M  V30 7726 H 749.921 1.20467 0.788904 0
M  V30 7727 H 751.874 1.59043 3.90235 0
M  V30 7728 H 750.598 0.552564 3.21892 0
M  V30 7729 H 749.257 2.59123 2.59327 0
M  V30 7730 H 748.905 1.48168 4.80682 0
M  V30 7731 H 748.605 3.23494 4.90536 0
M  V30 7732 H 750.129 2.55653 5.54503 0
M  V30 7733 H 751.543 4.1642 3.9404 0
M  V30 7734 H 749.94 4.84617 3.5393 0
M  V30 7735 H 751.01 4.30374 2.23397 0
M  V30 7736 N 752.353 -0.854086 1.3245 0
M  V30 7737 C 753.593 -1.62216 1.2436 0
M  V30 7738 C 753.957 -1.91042 -0.191564 0
M  V30 7739 O 755.158 -2.65864 -0.396211 0
M  V30 7740 C 753.429 -2.9066 2.0797 0
M  V30 7741 S 754.988 -3.81438 2.16911 0
M  V30 7742 H 751.806 -0.556386 0.442669 0
M  V30 7743 H 754.408 -1.01139 1.67305 0
M  V30 7744 H 753.112 -2.6743 3.11302 0
M  V30 7745 H 752.643 -3.56753 1.65805 0
M  V30 7746 H 754.658 -4.78347 1.31903 0
M  V30 7747 N 753.831 -1.1567 -1.07043 0
M  V30 7748 C 754.761 -0.879348 -2.16309 0
M  V30 7749 C 755.742 0.171311 -1.69235 0
M  V30 7750 O 756.927 0.0250175 -1.94184 0
M  V30 7751 C 754.057 -0.371307 -3.45309 0
M  V30 7752 C 753.011 -1.359 -4.05851 0
M  V30 7753 C 752.337 -0.709678 -5.29969 0
M  V30 7754 C 753.637 -2.72606 -4.45514 0
M  V30 7755 H 755.331 -1.79308 -2.39768 0
M  V30 7756 H 752.877 -0.863558 -1.15233 0
M  V30 7757 H 754.83 -0.164798 -4.21078 0
M  V30 7758 H 753.554 0.577906 -3.21446 0
M  V30 7759 H 752.213 -1.55193 -3.32131 0
M  V30 7760 H 751.861 0.245782 -5.02399 0
M  V30 7761 H 751.561 -1.36886 -5.71433 0
M  V30 7762 H 753.085 -0.513015 -6.08441 0
M  V30 7763 H 754.499 -2.57141 -5.12398 0
M  V30 7764 H 752.896 -3.34927 -4.97939 0
M  V30 7765 H 753.966 -3.28434 -3.56734 0
M  V30 7766 N 755.309 1.25446 -0.953992 0
M  V30 7767 C 756.272 2.24156 -0.478179 0
M  V30 7768 C 757.272 1.55278 0.417776 0
M  V30 7769 O 758.462 1.72866 0.215155 0
M  V30 7770 C 755.594 3.39495 0.309202 0
M  V30 7771 H 756.787 2.67764 -1.35064 0
M  V30 7772 H 754.34 1.37822 -0.737206 0
M  V30 7773 H 755.075 3.01307 1.19936 0
M  V30 7774 H 754.86 3.90679 -0.333562 0
M  V30 7775 H 756.35 4.12796 0.631594 0
M  V30 7776 N 756.787 0.722489 1.40064 0
M  V30 7777 C 758.198 0.336507 1.83642 0
M  V30 7778 C 758.549 -1.13002 1.6039 0
M  V30 7779 O 757.674 -1.87036 1.08842 0
M  V30 7780 C 758.269 0.603985 3.33373 0
M  V30 7781 C 756.828 0.271637 3.75419 0
M  V30 7782 C 755.975 0.872898 2.63203 0
M  V30 7783 H 758.926 0.921108 1.29233 0
M  V30 7784 H 758.947 -0.128471 3.80283 0
M  V30 7785 H 758.459 1.67141 3.50265 0
M  V30 7786 H 756.56 -0.790455 3.64119 0
M  V30 7787 H 756.673 0.745457 4.73265 0
M  V30 7788 H 755.037 0.300431 2.52922 0
M  V30 7789 H 755.82 1.94473 2.82905 0
M  V30 7790 N 758.265 -1.50454 0.469181 0
M  V30 7791 C 759.212 -2.28486 -0.325982 0
M  V30 7792 C 760.182 -1.33455 -0.988893 0
M  V30 7793 O 761.367 -1.6239 -1.0017 0
M  V30 7794 C 758.507 -3.15288 -1.40313 0
M  V30 7795 C 757.62 -4.25348 -0.755183 0
M  V30 7796 C 756.755 -4.9941 -1.81006 0
M  V30 7797 C 755.794 -6.01348 -1.14226 0
M  V30 7798 N 754.931 -6.68695 -2.1399 0
M  V30 7799 H 759.771 -2.95987 0.345753 0
M  V30 7800 H 757.308 -1.45965 0.182355 0
M  V30 7801 H 759.266 -3.63964 -2.03927 0
M  V30 7802 H 757.896 -2.49837 -2.04405 0
M  V30 7803 H 756.948 -3.80399 -0.00651901 0
M  V30 7804 H 758.26 -4.98279 -0.227941 0
M  V30 7805 H 757.414 -5.51794 -2.52206 0
M  V30 7806 H 756.153 -4.26181 -2.3711 0
M  V30 7807 H 755.158 -5.48225 -0.415876 0
M  V30 7808 H 756.383 -6.76548 -0.588135 0
M  V30 7809 H 754.329 -5.98258 -2.69115 0
M  V30 7810 H 754.246 -7.37495 -1.66246 0
M  V30 7811 H 755.514 -7.25697 -2.84576 0
M  V30 7812 N 759.743 -0.201713 -1.56304 0
M  V30 7813 C 760.706 0.702811 -2.18159 0
M  V30 7814 C 761.706 1.13619 -1.13787 0
M  V30 7815 O 762.896 1.0482 -1.39134 0
M  V30 7816 C 760.028 1.96032 -2.78898 0
M  V30 7817 H 761.221 0.163836 -2.99452 0
M  V30 7818 H 758.774 0.04791 -1.56227 0
M  V30 7819 H 759.509 2.54165 -2.01421 0
M  V30 7820 H 759.294 1.65824 -3.55309 0
M  V30 7821 H 760.784 2.60519 -3.26373 0
M  V30 7822 N 761.222 1.57436 0.0718424 0
M  V30 7823 C 762.452 1.91196 0.782795 0
M  V30 7824 C 762.86 0.795927 1.71644 0
M  V30 7825 O 762.203 -0.239604 1.82131 0
M  V30 7826 C 762.265 3.20421 1.63005 0
M  V30 7827 C 761.929 4.48724 0.865782 0
M  V30 7828 C 762.926 5.19571 0.185051 0
M  V30 7829 C 760.611 4.95345 0.832971 0
M  V30 7830 C 762.605 6.3529 -0.518264 0
M  V30 7831 C 760.292 6.1097 0.125884 0
M  V30 7832 C 761.29 6.80794 -0.548533 0
M  V30 7833 O 760.978 7.94213 -1.24423 0
M  V30 7834 H 760.71 0.636486 0.227731 0
M  V30 7835 H 763.264 2.05348 0.0464187 0
M  V30 7836 H 761.494 3.02478 2.40923 0
M  V30 7837 H 763.183 3.39831 2.21968 0
M  V30 7838 H 763.949 4.8458 0.201707 0
M  V30 7839 H 759.828 4.40871 1.34737 0
M  V30 7840 H 763.372 6.89725 -1.04523 0
M  V30 7841 H 759.269 6.45411 0.107155 0
M  V30 7842 H 760.037 8.10331 -1.1535 0
M  V30 7843 N 762.7 -0.34323 1.53817 0
M  V30 7844 C 763.977 -1.10047 1.61706 0
M  V30 7845 C 764.357 -2.06495 0.438514 0
M  V30 7846 O 763.705 -2.21297 -0.569188 0
M  V30 7847 C 763.915 -1.81985 2.97796 0
M  V30 7848 C 765.263 -2.35717 3.53161 0
M  V30 7849 O 766.287 -1.9208 2.99973 0
M  V30 7850 O 765.146 -3.15551 4.46195 0
M  V30 7851 H 762.24 -0.506096 0.654061 0
M  V30 7852 H 764.786 -0.344697 1.66162 0
M  V30 7853 H 763.558 -1.11722 3.75012 0
M  V30 7854 H 763.181 -2.64419 2.96931 0
M  V30 7855 N 764.178 -1.45556 -0.604258 0
M  V30 7856 C 765.424 -1.49968 -1.36519 0
M  V30 7857 C 765.757 -0.142236 -1.93678 0
M  V30 7858 O 765.032 0.843717 -1.75247 0
M  V30 7859 C 765.315 -2.58146 -2.51063 0
M  V30 7860 C 765.168 -4.03346 -1.99078 0
M  V30 7861 C 766.487 -2.62581 -3.53184 0
M  V30 7862 H 763.606 -0.545993 -0.495036 0
M  V30 7863 H 766.248 -1.77382 -0.680845 0
M  V30 7864 H 764.398 -2.34901 -3.09441 0
M  V30 7865 H 766.07 -4.37811 -1.45323 0
M  V30 7866 H 764.313 -4.13845 -1.30055 0
M  V30 7867 H 764.984 -4.74731 -2.81664 0
M  V30 7868 H 767.46 -2.83419 -3.04652 0
M  V30 7869 H 766.336 -3.40131 -4.30816 0
M  V30 7870 H 766.597 -1.67798 -4.09019 0
M  V30 7871 N 765.656 0.84705 -1.32902 0
M  V30 7872 C 766.566 1.98845 -1.2449 0
M  V30 7873 C 767.582 1.7329 -0.15702 0
M  V30 7874 O 768.758 1.978 -0.379104 0
M  V30 7875 C 765.823 3.32679 -0.975985 0
M  V30 7876 C 764.884 3.71405 -2.15306 0
M  V30 7877 C 764.117 4.98853 -1.89688 0
M  V30 7878 O 764.34 5.64134 -0.843168 0
M  V30 7879 O 763.274 5.34889 -2.76002 0
M  V30 7880 H 767.1 2.0888 -2.2046 0
M  V30 7881 H 764.685 0.978852 -1.12867 0
M  V30 7882 H 766.567 4.12885 -0.842826 0
M  V30 7883 H 765.242 3.23667 -0.0464954 0
M  V30 7884 H 764.149 2.91743 -2.34172 0
M  V30 7885 H 765.482 3.85073 -3.06561 0
M  V30 7886 N 767.134 1.16236 1.06428 0
M  V30 7887 C 768.55 0.906983 1.31324 0
M  V30 7888 C 768.75 -0.440872 1.96618 0
M  V30 7889 O 767.806 -1.1807 2.23194 0
M  V30 7890 C 769.119 2.05501 2.19522 0
M  V30 7891 C 770.667 2.09061 2.32943 0
M  V30 7892 C 771.142 3.23214 3.24495 0
M  V30 7893 N 772.633 3.22922 3.32078 0
M  V30 7894 C 773.368 4.07889 4.03006 0
M  V30 7895 N 772.864 5.02941 4.76469 0
M  V30 7896 N 774.657 3.95881 3.99043 0
M  V30 7897 H 766.808 2.03015 0.624388 0
M  V30 7898 H 769.071 0.88576 0.337835 0
M  V30 7899 H 768.777 3.02847 1.78819 0
M  V30 7900 H 768.651 1.99538 3.201 0
M  V30 7901 H 771.038 1.12308 2.72893 0
M  V30 7902 H 771.119 2.19089 1.32037 0
M  V30 7903 H 770.763 4.20225 2.85261 0
M  V30 7904 H 770.693 3.10423 4.25377 0
M  V30 7905 H 773.184 2.54093 2.79724 0
M  V30 7906 H 773.497 5.64196 5.28112 0
M  V30 7907 H 771.842 5.06922 4.75453 0
M  V30 7908 H 775.033 3.20927 3.40769 0
M  V30 7909 H 775.206 4.62321 4.54052 0
M  V30 7910 N 768.612 -1.24939 0.960631 0
M  V30 7911 C 769.522 -2.29374 0.492435 0
M  V30 7912 C 770.538 -1.68262 -0.443154 0
M  V30 7913 O 771.714 -1.98875 -0.31793 0
M  V30 7914 C 768.779 -3.46023 -0.216626 0
M  V30 7915 C 767.84 -4.22557 0.757915 0
M  V30 7916 C 767.073 -5.33636 0.0825969 0
M  V30 7917 O 767.296 -5.59084 -1.13054 0
M  V30 7918 O 766.23 -5.96939 0.771177 0
M  V30 7919 H 770.056 -2.71525 1.36044 0
M  V30 7920 H 767.641 -1.30499 0.72735 0
M  V30 7921 H 769.523 -4.16885 -0.615241 0
M  V30 7922 H 768.198 -3.05862 -1.05971 0
M  V30 7923 H 767.105 -3.54099 1.20685 0
M  V30 7924 H 768.438 -4.66516 1.5692 0
M  V30 7925 N 770.09 -0.729906 -1.39679 0
M  V30 7926 C 771.02 -0.101618 -2.33279 0
M  V30 7927 C 772.001 0.729854 -1.53646 0
M  V30 7928 O 773.186 0.67587 -1.82059 0
M  V30 7929 C 770.316 0.81024 -3.37716 0
M  V30 7930 C 769.27 0.0833126 -4.27919 0
M  V30 7931 C 768.596 1.11185 -5.23012 0
M  V30 7932 C 769.896 -1.07107 -5.112 0
M  V30 7933 H 771.59 -0.883452 -2.86069 0
M  V30 7934 H 769.136 -0.426283 -1.37546 0
M  V30 7935 H 771.089 1.25927 -4.02145 0
M  V30 7936 H 769.813 1.62413 -2.83354 0
M  V30 7937 H 768.472 -0.346043 -3.64963 0
M  V30 7938 H 768.12 1.91917 -4.64948 0
M  V30 7939 H 767.82 0.63026 -5.8421 0
M  V30 7940 H 769.344 1.56068 -5.90318 0
M  V30 7941 H 770.758 -0.700726 -5.69002 0
M  V30 7942 H 769.155 -1.48196 -5.81514 0
M  V30 7943 H 770.225 -1.89513 -4.46332 0
M  V30 7944 N 771.568 1.50203 -0.477153 0
M  V30 7945 C 772.816 2.01959 0.0755889 0
M  V30 7946 C 773.137 1.3608 1.39668 0
M  V30 7947 O 772.407 0.508136 1.89195 0
M  V30 7948 H 770.987 0.74636 0.0309248 0
M  V30 7949 H 773.649 1.84473 -0.628959 0
M  V30 7950 H 772.745 3.11305 0.222683 0
M  V30 7951 N 773.046 0.209999 1.56195 0
M  V30 7952 C 774.271 -0.433064 2.02828 0
M  V30 7953 C 774.696 -1.5337 1.08901 0
M  V30 7954 O 774.054 -1.81144 0.0751132 0
M  V30 7955 C 774.102 -0.952635 3.47789 0
M  V30 7956 O 773.206 -2.0647 3.56993 0
M  V30 7957 H 772.547 -0.0994594 0.656509 0
M  V30 7958 H 775.077 0.32525 2.01998 0
M  V30 7959 H 775.087 -1.26542 3.8788 0
M  V30 7960 H 773.762 -0.147007 4.1564 0
M  V30 7961 H 772.339 -1.75942 3.28784 0
M  V30 7962 N 774.524 -1.57472 -0.0634922 0
M  V30 7963 C 775.935 -1.76303 -0.614337 0
M  V30 7964 C 776.286 -0.836578 -1.77471 0
M  V30 7965 O 775.411 -0.0227184 -2.16388 0
M  V30 7966 C 776.006 -3.19709 -1.12122 0
M  V30 7967 C 774.565 -3.39856 -1.61786 0
M  V30 7968 C 773.712 -2.71975 -0.540845 0
M  V30 7969 H 776.663 -1.57864 0.162702 0
M  V30 7970 H 776.684 -3.24326 -1.98979 0
M  V30 7971 H 776.196 -3.87114 -0.276472 0
M  V30 7972 H 774.297 -2.77578 -2.48558 0
M  V30 7973 H 774.41 -4.48338 -1.68908 0
M  V30 7974 H 772.774 -2.34763 -0.987854 0
M  V30 7975 H 773.557 -3.4204 0.293856 0
M  V30 7976 N 776.003 0.335068 -1.53997 0
M  V30 7977 C 777.231 1.09418 -1.756 0
M  V30 7978 C 777.646 1.82083 -0.499138 0
M  V30 7979 O 777.003 1.74646 0.529631 0
M  V30 7980 C 777.054 2.10115 -2.94166 0
M  V30 7981 O 776.775 1.40404 -4.14992 0
M  V30 7982 C 778.276 2.98336 -3.27888 0
M  V30 7983 H 775.496 0.32595 -0.586513 0
M  V30 7984 H 778.04 0.384693 -2.00849 0
M  V30 7985 H 776.195 2.76616 -2.71224 0
M  V30 7986 H 776.609 2.07743 -4.81605 0
M  V30 7987 H 778.083 3.6491 -4.1418 0
M  V30 7988 H 778.56 3.64814 -2.44556 0
M  V30 7989 H 779.166 2.37412 -3.52868 0
M  V30 7990 N 777.481 1.45874 0.596531 0
M  V30 7991 C 778.758 1.40942 1.35627 0
M  V30 7992 C 779.138 0.0857066 2.10926 0
M  V30 7993 O 778.486 -0.932544 2.08605 0
M  V30 7994 C 778.696 2.63027 2.29386 0
M  V30 7995 C 780.044 3.08588 2.91649 0
M  V30 7996 O 781.068 2.63478 2.39704 0
M  V30 7997 O 779.927 3.86902 3.85965 0
M  V30 7998 H 777.021 0.559838 0.608696 0
M  V30 7999 H 779.567 1.5802 0.618698 0
M  V30 8000 H 778.339 3.5094 1.7308 0
M  V30 8001 H 777.962 2.48338 3.10506 0
M  V30 8002 N 778.959 -0.83999 1.33349 0
M  V30 8003 C 779.869 -1.98182 1.25543 0
M  V30 8004 C 780.885 -1.73204 0.166208 0
M  V30 8005 O 782.061 -1.97596 0.389589 0
M  V30 8006 C 779.126 -3.32157 0.993614 0
M  V30 8007 C 778.187 -3.70258 2.17273 0
M  V30 8008 C 777.42 -4.9784 1.92331 0
M  V30 8009 O 777.643 -5.63679 0.873074 0
M  V30 8010 O 776.577 -5.33418 2.78835 0
M  V30 8011 H 780.403 -2.07708 2.21565 0
M  V30 8012 H 777.988 -0.972852 1.13384 0
M  V30 8013 H 779.87 -4.12433 0.864711 0
M  V30 8014 H 778.545 -3.23637 0.0636596 0
M  V30 8015 H 777.452 -2.90497 2.35716 0
M  V30 8016 H 778.785 -3.83442 3.08598 0
M  V30 8017 N 780.437 -1.16799 -1.0581 0
M  V30 8018 C 781.714 -0.862616 -1.75551 0
M  V30 8019 C 782.094 0.6385 -2.01212 0
M  V30 8020 O 781.442 1.58784 -1.64317 0
M  V30 8021 C 781.652 -1.6907 -3.05314 0
M  V30 8022 C 783 -1.90675 -3.79379 0
M  V30 8023 O 784.024 -1.65976 -3.15167 0
M  V30 8024 O 782.883 -2.32145 -4.94743 0
M  V30 8025 H 779.977 -0.318789 -0.763088 0
M  V30 8026 H 782.523 -1.27461 -1.12034 0
M  V30 8027 H 781.295 -2.70912 -2.82352 0
M  V30 8028 H 780.918 -1.27606 -3.76567 0
M  V30 8029 N 781.915 1.24427 -0.967243 0
M  V30 8030 C 783.14 1.9708 -0.646069 0
M  V30 8031 C 783.565 1.71272 0.777665 0
M  V30 8032 O 782.923 0.976179 1.52776 0
M  V30 8033 C 782.971 3.48501 -0.926266 0
M  V30 8034 O 782.075 4.12398 -0.0114653 0
M  V30 8035 H 781.416 0.617423 -0.244304 0
M  V30 8036 H 783.946 1.58215 -1.29727 0
M  V30 8037 H 783.956 3.98885 -0.857619 0
M  V30 8038 H 782.631 3.66613 -1.96386 0
M  V30 8039 H 781.208 3.72661 -0.133396 0
M  V30 8040 N 783.393 0.737304 1.3929 0
M  V30 8041 C 784.641 0.285691 2.00071 0
M  V30 8042 C 784.962 -1.13169 1.58801 0
M  V30 8043 O 784.232 -1.77104 0.837308 0
M  V30 8044 H 782.812 0.102638 0.739915 0
M  V30 8045 H 785.474 0.947775 1.70303 0
M  V30 8046 H 784.57 0.335906 3.10287 0
M  V30 8047 N 784.871 -1.49948 0.485112 0
M  V30 8048 C 785.803 -2.26691 -0.338222 0
M  V30 8049 C 786.816 -1.32584 -0.944742 0
M  V30 8050 O 788.005 -1.57989 -0.830772 0
M  V30 8051 C 785.105 -3.04405 -1.48966 0
M  V30 8052 C 784.278 -4.25971 -0.993371 0
M  V30 8053 C 783.337 -4.85861 -2.02052 0
M  V30 8054 O 782.363 -5.46382 -1.59547 0
M  V30 8055 N 783.565 -4.74101 -3.34975 0
M  V30 8056 H 786.33 -2.97989 0.319748 0
M  V30 8057 H 783.891 -1.58772 0.316714 0
M  V30 8058 H 785.883 -3.41348 -2.17403 0
M  V30 8059 H 784.453 -2.35815 -2.05207 0
M  V30 8060 H 783.673 -3.93971 -0.134424 0
M  V30 8061 H 784.961 -5.0476 -0.639934 0
M  V30 8062 H 784.359 -4.26002 -3.72208 0
M  V30 8063 H 782.916 -5.15274 -3.9917 0
M  V30 8064 N 786.349 -0.21828 -1.56081 0
M  V30 8065 C 787.626 0.463143 -1.90038 0
M  V30 8066 C 788.006 1.77982 -1.13515 0
M  V30 8067 O 787.354 2.27199 -0.24345 0
M  V30 8068 C 787.564 0.659292 -3.42716 0
M  V30 8069 C 788.912 0.968203 -4.13414 0
M  V30 8070 O 789.936 0.746195 -3.48296 0
M  V30 8071 O 788.795 1.38936 -5.28544 0
M  V30 8072 H 785.889 0.244435 -0.790051 0
M  V30 8073 H 788.435 -0.260221 -1.67693 0
M  V30 8074 H 787.207 -0.269584 -3.9037 0
M  V30 8075 H 786.83 1.43426 -3.7083 0
M  V30 8076 N 787.827 1.57504 0.0551401 0
M  V30 8077 C 788.759 2.0158 1.09078 0
M  V30 8078 C 789.772 0.92434 1.34014 0
M  V30 8079 O 790.961 1.20202 1.31961 0
M  V30 8080 C 788.061 2.35385 2.43818 0
M  V30 8081 C 787.234 3.66588 2.38605 0
M  V30 8082 C 786.293 3.87874 3.55585 0
M  V30 8083 O 785.319 4.59259 3.36258 0
M  V30 8084 N 786.521 3.31503 4.76536 0
M  V30 8085 H 789.286 2.91039 0.71529 0
M  V30 8086 H 786.847 1.60058 0.243532 0
M  V30 8087 H 788.839 2.46784 3.20749 0
M  V30 8088 H 787.409 1.51731 2.73307 0
M  V30 8089 H 786.629 3.65787 1.46947 0
M  V30 8090 H 787.917 4.52706 2.32239 0
M  V30 8091 H 787.315 2.73592 4.9514 0
M  V30 8092 H 785.872 3.48324 5.50921 0
M  V30 8093 N 789.305 -0.326896 1.54172 0
M  V30 8094 C 790.237 -1.42319 1.79661 0
M  V30 8095 C 791.25 -1.47989 0.678456 0
M  V30 8096 O 792.439 -1.50773 0.955503 0
M  V30 8097 C 789.539 -2.80876 1.89636 0
M  V30 8098 C 788.712 -2.98449 3.19761 0
M  V30 8099 C 787.771 -4.17347 3.2048 0
M  V30 8100 O 786.797 -4.10667 3.94134 0
M  V30 8101 N 787.999 -5.26717 2.44027 0
M  V30 8102 H 790.764 -1.20819 2.74268 0
M  V30 8103 H 788.325 -0.516866 1.53428 0
M  V30 8104 H 790.317 -3.58619 1.87549 0
M  V30 8105 H 788.887 -2.95442 1.02141 0
M  V30 8106 H 788.107 -2.08035 3.34836 0
M  V30 8107 H 789.395 -3.07083 4.05681 0
M  V30 8108 H 788.793 -5.35019 1.8377 0
M  V30 8109 H 787.35 -6.02891 2.47721 0
M  V30 8110 N 790.784 -1.46188 -0.588786 0
M  V30 8111 C 791.714 -1.59148 -1.70863 0
M  V30 8112 C 792.695 -0.442083 -1.64255 0
M  V30 8113 O 793.88 -0.667575 -1.82365 0
M  V30 8114 C 791.01 -1.5757 -3.09498 0
M  V30 8115 C 789.964 -2.71418 -3.30932 0
M  V30 8116 C 789.29 -2.549 -4.70032 0
M  V30 8117 C 790.59 -4.1329 -3.19356 0
M  V30 8118 H 792.284 -2.52889 -1.60274 0
M  V30 8119 H 789.83 -1.21707 -0.769638 0
M  V30 8120 H 791.783 -1.65231 -3.87655 0
M  V30 8121 H 790.507 -0.603705 -3.20972 0
M  V30 8122 H 789.166 -2.63216 -2.55172 0
M  V30 8123 H 788.814 -1.55797 -4.78264 0
M  V30 8124 H 788.514 -3.31257 -4.85327 0
M  V30 8125 H 790.038 -2.64443 -5.50366 0
M  V30 8126 H 791.452 -4.22636 -3.87365 0
M  V30 8127 H 789.849 -4.90187 -3.46175 0
M  V30 8128 H 790.919 -4.33874 -2.16522 0
M  V30 8129 N 792.262 0.832906 -1.33792 0
M  V30 8130 C 793.192 1.95828 -1.27176 0
M  V30 8131 C 794.173 1.69427 -0.15114 0
M  V30 8132 O 795.358 1.91167 -0.341886 0
M  V30 8133 C 792.488 3.32098 -1.01629 0
M  V30 8134 C 791.442 3.72912 -2.10049 0
M  V30 8135 C 790.768 5.07054 -1.69706 0
M  V30 8136 C 792.068 3.86064 -3.51783 0
M  V30 8137 H 793.762 2.01622 -2.21334 0
M  V30 8138 H 791.308 0.96866 -1.0655 0
M  V30 8139 H 793.261 4.10402 -0.956474 0
M  V30 8140 H 791.985 3.26577 -0.0390956 0
M  V30 8141 H 790.644 2.96876 -2.15082 0
M  V30 8142 H 790.292 4.9801 -0.706737 0
M  V30 8143 H 789.992 5.35333 -2.42264 0
M  V30 8144 H 791.516 5.87827 -1.65202 0
M  V30 8145 H 792.93 4.54665 -3.49218 0
M  V30 8146 H 791.327 4.25787 -4.22878 0
M  V30 8147 H 792.397 2.88344 -3.89854 0
M  V30 8148 N 793.74 1.17359 1.05189 0
M  V30 8149 C 795.156 0.920861 1.30355 0
M  V30 8150 C 795.356 -0.419993 1.97074 0
M  V30 8151 O 794.412 -1.15696 2.24434 0
M  V30 8152 C 795.725 2.07818 2.1733 0
M  V30 8153 C 797.273 2.1152 2.30712 0
M  V30 8154 C 797.748 3.26637 3.21048 0
M  V30 8155 N 799.239 3.26426 3.28634 0
M  V30 8156 C 799.974 4.12141 3.98657 0
M  V30 8157 N 799.47 5.07966 4.71107 0
M  V30 8158 N 801.263 4.00091 3.94821 0
M  V30 8159 H 793.414 2.03666 0.602821 0
M  V30 8160 H 795.677 0.889294 0.328421 0
M  V30 8161 H 795.383 3.04727 1.75597 0
M  V30 8162 H 795.257 2.02922 3.17966 0
M  V30 8163 H 797.644 1.15196 2.71687 0
M  V30 8164 H 797.725 2.20477 1.29706 0
M  V30 8165 H 797.369 4.23227 2.80788 0
M  V30 8166 H 797.299 3.14917 4.2206 0
M  V30 8167 H 799.79 2.57045 2.77013 0
M  V30 8168 H 800.103 5.69766 5.22099 0
M  V30 8169 H 798.448 5.11936 4.7005 0
M  V30 8170 H 801.639 3.24523 3.37346 0
M  V30 8171 H 801.812 4.6711 4.49123 0
M  V30 8172 N 795.218 -1.23913 0.973828 0
M  V30 8173 C 796.466 -1.91771 0.637817 0
M  V30 8174 C 796.787 -1.76434 -0.830435 0
M  V30 8175 O 796.057 -1.13965 -1.59339 0
M  V30 8176 H 794.637 -0.709761 0.232912 0
M  V30 8177 H 797.299 -1.50677 1.23622 0
M  V30 8178 H 796.395 -2.99327 0.883731 0
M  V30 8179 N 796.696 -0.74468 -1.38897 0
M  V30 8180 C 798.107 -0.36568 -1.83084 0
M  V30 8181 C 798.458 1.10436 -1.62168 0
M  V30 8182 O 797.583 1.85281 -1.11804 0
M  V30 8183 C 798.178 -0.656946 -3.3237 0
M  V30 8184 C 796.737 -0.331329 -3.74939 0
M  V30 8185 C 795.884 -0.914661 -2.61781 0
M  V30 8186 H 798.835 -0.941551 -1.27752 0
M  V30 8187 H 798.856 0.0679546 -3.80439 0
M  V30 8188 H 798.368 -1.72693 -3.47561 0
M  V30 8189 H 796.469 0.732426 -3.6533 0
M  V30 8190 H 796.582 -0.820655 -4.72019 0
M  V30 8191 H 794.946 -0.34063 -2.52412 0
M  V30 8192 H 795.729 -1.98949 -2.79775 0
M  V30 8193 N 798.174 1.49689 -0.493057 0
M  V30 8194 C 799.106 2.26867 0.326195 0
M  V30 8195 C 800.119 1.33083 0.937697 0
M  V30 8196 O 801.308 1.58427 0.822382 0
M  V30 8197 C 798.408 3.0519 1.4735 0
M  V30 8198 C 797.581 4.26491 0.970767 0
M  V30 8199 C 796.64 4.86926 1.99473 0
M  V30 8200 O 795.666 5.47221 1.56647 0
M  V30 8201 N 796.868 4.75871 3.32456 0
M  V30 8202 H 799.633 2.97816 -0.335547 0
M  V30 8203 H 797.194 1.58602 -0.325129 0
M  V30 8204 H 799.186 3.42496 2.15589 0
M  V30 8205 H 797.756 2.369 2.03954 0
M  V30 8206 H 796.976 3.94036 0.113529 0
M  V30 8207 H 798.264 5.05092 0.613156 0
M  V30 8208 H 797.662 4.2797 3.69944 0
M  V30 8209 H 796.219 5.17383 3.96431 0
M  V30 8210 N 799.652 0.226554 1.55963 0
M  V30 8211 C 800.901 -0.40417 1.97609 0
M  V30 8212 C 801.214 -1.60541 1.1174 0
M  V30 8213 O 802.42 -2.30598 1.43307 0
M  V30 8214 C 800.876 -0.770466 3.51556 0
M  V30 8215 C 800.484 0.408244 4.46136 0
M  V30 8216 C 802.228 -1.36651 4.01904 0
M  V30 8217 C 800.135 0.0192347 5.91397 0
M  V30 8218 H 799.065 -0.15478 0.737943 0
M  V30 8219 H 801.716 0.323558 1.80625 0
M  V30 8220 H 800.098 -1.55575 3.6416 0
M  V30 8221 H 801.272 1.18575 4.45283 0
M  V30 8222 H 799.587 0.917859 4.06158 0
M  V30 8223 H 802.184 -1.67055 5.07934 0
M  V30 8224 H 802.527 -2.28403 3.48049 0
M  V30 8225 H 803.06 -0.644556 3.92543 0
M  V30 8226 H 799.799 0.90336 6.49245 0
M  V30 8227 H 799.319 -0.722485 5.95433 0
M  V30 8228 H 800.998 -0.405711 6.45727 0
M  V30 8229 N 801.13 -1.57531 -0.0467866 0
M  V30 8230 C 802.541 -1.76945 -0.595603 0
M  V30 8231 C 802.892 -0.855354 -1.76573 0
M  V30 8232 O 802.017 -0.045668 -2.16352 0
M  V30 8233 C 802.612 -3.20881 -1.08725 0
M  V30 8234 C 801.171 -3.41553 -1.58172 0
M  V30 8235 C 800.318 -2.72533 -0.511968 0
M  V30 8236 H 803.269 -1.57682 0.179436 0
M  V30 8237 H 803.29 -3.26419 -1.95528 0
M  V30 8238 H 802.802 -3.87385 -0.235398 0
M  V30 8239 H 800.903 -2.80199 -2.456 0
M  V30 8240 H 801.016 -4.50104 -1.64143 0
M  V30 8241 H 799.38 -2.35797 -0.962899 0
M  V30 8242 H 800.163 -3.41709 0.330117 0
M  V30 8243 N 802.608 0.318715 -1.54344 0
M  V30 8244 C 803.571 1.37545 -1.83342 0
M  V30 8245 C 804.571 1.445 -0.705444 0
M  V30 8246 O 805.761 1.44443 -0.973752 0
M  V30 8247 C 802.893 2.76225 -1.99781 0
M  V30 8248 H 804.086 1.13084 -2.77762 0
M  V30 8249 H 801.639 0.554457 -1.46135 0
M  V30 8250 H 802.374 3.05934 -1.07588 0
M  V30 8251 H 802.159 2.7257 -2.81865 0
M  V30 8252 H 803.649 3.52664 -2.23647 0
M  V30 8253 N 804.086 1.46499 0.581025 0
M  V30 8254 C 805.016 1.60052 1.70017 0
M  V30 8255 C 805.997 0.450788 1.64018 0
M  V30 8256 O 807.182 0.677237 1.82009 0
M  V30 8257 C 804.312 1.5921 3.08658 0
M  V30 8258 C 803.266 2.73169 3.29488 0
M  V30 8259 C 802.592 2.57389 4.68674 0
M  V30 8260 C 803.892 4.14978 3.1716 0
M  V30 8261 H 805.586 2.53735 1.5893 0
M  V30 8262 H 803.132 1.22113 0.763173 0
M  V30 8263 H 805.085 1.67285 3.86773 0
M  V30 8264 H 803.809 0.620718 3.20647 0
M  V30 8265 H 802.468 2.64566 2.53773 0
M  V30 8266 H 802.116 1.58331 4.77431 0
M  V30 8267 H 801.816 3.33826 4.83564 0
M  V30 8268 H 803.34 2.67358 5.48956 0
M  V30 8269 H 804.754 4.24684 3.85119 0
M  V30 8270 H 803.151 4.92016 3.4357 0
M  V30 8271 H 804.221 4.35016 2.14218 0
M  V30 8272 N 805.565 -0.825799 1.34232 0
M  V30 8273 C 806.475 -1.9684 1.27638 0
M  V30 8274 C 807.491 -1.73018 0.184569 0
M  V30 8275 O 808.667 -1.97172 0.410525 0
M  V30 8276 C 805.732 -3.31084 1.02879 0
M  V30 8277 C 804.793 -3.67933 2.21188 0
M  V30 8278 C 804.026 -4.95772 1.976 0
M  V30 8279 O 804.249 -5.62721 0.93281 0
M  V30 8280 O 803.183 -5.30431 2.84477 0
M  V30 8281 H 807.009 -2.05346 2.23756 0
M  V30 8282 H 804.594 -0.960772 1.1441 0
M  V30 8283 H 806.476 -4.11492 0.908406 0
M  V30 8284 H 805.151 -3.23552 0.0979821 0
M  V30 8285 H 804.058 -2.87981 2.38784 0
M  V30 8286 H 805.391 -3.80147 3.12648 0
M  V30 8287 N 807.043 -1.17915 -1.04565 0
M  V30 8288 C 808.268 -0.996749 -1.81878 0
M  V30 8289 C 808.693 0.450169 -1.82634 0
M  V30 8290 O 808.051 1.32268 -1.23995 0
M  V30 8291 C 808.099 -1.55005 -3.25585 0
M  V30 8292 O 807.203 -0.76804 -4.05185 0
M  V30 8293 H 806.544 -0.353456 -0.562108 0
M  V30 8294 H 809.074 -1.56557 -1.31723 0
M  V30 8295 H 809.084 -1.57503 -3.76373 0
M  V30 8296 H 807.759 -2.60327 -3.2435 0
M  V30 8297 H 806.336 -0.81498 -3.63885 0
M  V30 8298 N 808.521 1.23394 -0.980386 0
M  V30 8299 C 809.932 1.73631 -0.686239 0
M  V30 8300 C 810.283 1.79259 0.797541 0
M  V30 8301 O 809.408 1.43046 1.62379 0
M  V30 8302 C 810.003 3.15332 -1.239 0
M  V30 8303 C 808.562 3.63024 -0.994494 0
M  V30 8304 C 807.709 2.41279 -1.36673 0
M  V30 8305 H 810.66 1.08918 -1.15423 0
M  V30 8306 H 810.681 3.75556 -0.611414 0
M  V30 8307 H 810.193 3.11204 -2.31892 0
M  V30 8308 H 808.294 3.72535 0.0693492 0
M  V30 8309 H 808.407 4.49825 -1.64906 0
M  V30 8310 H 806.771 2.42295 -0.785195 0
M  V30 8311 H 807.554 2.39822 -2.45642 0
M  V30 8312 N 809.999 0.752036 1.385 0
M  V30 8313 C 811.239 0.312408 2.01998 0
M  V30 8314 C 811.603 -1.085 1.58404 0
M  V30 8315 O 812.804 -1.62365 2.14222 0
M  V30 8316 C 811.075 0.429423 3.54811 0
M  V30 8317 S 812.634 0.0721487 4.38741 0
M  V30 8318 H 809.452 0.1213 0.700576 0
M  V30 8319 H 812.054 0.982312 1.69029 0
M  V30 8320 H 810.758 1.44743 3.84028 0
M  V30 8321 H 810.289 -0.257716 3.92555 0
M  V30 8322 H 812.304 -1.13875 4.82957 0
M  V30 8323 N 811.477 -1.49425 0.500989 0
M  V30 8324 C 812.387 -2.32899 -0.282011 0
M  V30 8325 C 813.403 -1.44632 -0.967346 0
M  V30 8326 O 814.579 -1.77654 -0.94873 0
M  V30 8327 C 811.644 -3.20069 -1.33253 0
M  V30 8328 C 810.705 -4.24186 -0.660636 0
M  V30 8329 C 809.938 -5.07191 -1.6611 0
M  V30 8330 O 810.161 -4.91712 -2.89094 0
M  V30 8331 O 809.095 -5.8948 -1.21643 0
M  V30 8332 H 812.921 -3.01038 0.401224 0
M  V30 8333 H 810.506 -1.47079 0.262323 0
M  V30 8334 H 812.388 -3.74071 -1.94033 0
M  V30 8335 H 811.063 -2.54625 -1.9987 0
M  V30 8336 H 809.97 -3.74098 -0.0130959 0
M  V30 8337 H 811.303 -4.92186 -0.0369179 0
M  V30 8338 N 812.955 -0.234822 -1.55841 0
M  V30 8339 C 814.18 0.400741 -2.03492 0
M  V30 8340 C 814.605 1.51618 -1.11327 0
M  V30 8341 O 813.963 1.81002 -0.103922 0
M  V30 8342 C 814.011 0.897184 -3.49261 0
M  V30 8343 O 813.115 2.00764 -3.60233 0
M  V30 8344 H 812.456 0.0890023 -0.658008 0
M  V30 8345 H 814.986 -0.357345 -2.01455 0
M  V30 8346 H 814.996 1.20356 -3.89844 0
M  V30 8347 H 813.671 0.0808639 -4.15821 0
M  V30 8348 H 812.248 1.70689 -3.31541 0
M  V30 8349 N 814.433 1.57553 0.0384317 0
M  V30 8350 C 815.681 1.88468 0.729672 0
M  V30 8351 C 816.002 0.831302 1.76393 0
M  V30 8352 O 815.272 -0.13622 1.95426 0
M  V30 8353 H 813.852 0.695529 0.272485 0
M  V30 8354 H 816.514 1.94899 0.0066032 0
M  V30 8355 H 815.61 2.8705 1.22511 0
M  V30 8356 N 815.911 -0.310526 1.54511 0
M  V30 8357 C 817.151 -1.05498 1.7507 0
M  V30 8358 C 817.515 -1.84814 0.520381 0
M  V30 8359 O 818.716 -2.61937 0.603547 0
M  V30 8360 C 816.987 -1.94466 2.99863 0
M  V30 8361 S 818.546 -2.75686 3.41383 0
M  V30 8362 H 815.364 -0.355951 0.615483 0
M  V30 8363 H 817.966 -0.329464 1.92704 0
M  V30 8364 H 816.67 -1.35055 3.87541 0
M  V30 8365 H 816.201 -2.71401 2.84789 0
M  V30 8366 H 818.216 -3.96971 2.97706 0
M  V30 8367 N 817.389 -1.46805 -0.573248 0
M  V30 8368 C 818.637 -1.52302 -1.32847 0
M  V30 8369 C 818.958 -0.180159 -1.94166 0
M  V30 8370 O 818.228 0.794291 -1.79075 0
M  V30 8371 H 816.808 -0.56097 -0.493276 0
M  V30 8372 H 819.47 -1.82998 -0.670642 0
M  V30 8373 H 818.566 -2.28089 -2.13031 0
M  V30 8374 N 818.867 0.818669 -1.34668 0
M  V30 8375 C 820.144 1.56118 -1.17841 0
M  V30 8376 C 820.524 2.09646 0.24731 0
M  V30 8377 O 819.872 1.91329 1.24922 0
M  V30 8378 C 820.082 2.67922 -2.23649 0
M  V30 8379 C 821.43 3.36579 -2.58843 0
M  V30 8380 O 822.454 2.78182 -2.22471 0
M  V30 8381 O 821.313 4.42045 -3.21339 0
M  V30 8382 H 818.407 0.689216 -0.457067 0
M  V30 8383 H 820.953 0.859674 -1.46314 0
M  V30 8384 H 819.725 2.26153 -3.19328 0
M  V30 8385 H 819.348 3.45719 -1.96377 0
M  V30 8386 N 820.346 1.18468 1.03938 0
M  V30 8387 C 821.279 0.856251 2.11527 0
M  V30 8388 C 822.257 -0.182323 1.61575 0
M  V30 8389 O 823.441 -0.061 1.88401 0
M  V30 8390 C 820.568 0.279562 3.37544 0
M  V30 8391 C 819.614 1.29552 4.06348 0
M  V30 8392 S 820.447 2.85191 4.5324 0
M  V30 8393 C 821.603 2.29037 5.82489 0
M  V30 8394 H 821.836 1.76742 2.39059 0
M  V30 8395 H 819.369 1.01068 1.16725 0
M  V30 8396 H 821.327 -0.0466579 4.10473 0
M  V30 8397 H 819.988 -0.60975 3.08125 0
M  V30 8398 H 819.181 0.840922 4.96935 0
M  V30 8399 H 818.783 1.56804 3.39541 0
M  V30 8400 H 821.075 1.67376 6.565 0
M  V30 8401 H 822.018 3.17929 6.32714 0
M  V30 8402 H 822.426 1.72009 5.37655 0
M  V30 8403 N 821.824 -1.22873 0.986916 0
M  V30 8404 C 823.101 -1.86939 0.575589 0
M  V30 8405 C 823.481 -1.88656 -0.947205 0
M  V30 8406 O 822.829 -1.3728 -1.82665 0
M  V30 8407 C 823.039 -3.28117 1.18914 0
M  V30 8408 C 824.387 -4.04659 1.28593 0
M  V30 8409 O 825.411 -3.3736 1.14308 0
M  V30 8410 O 824.27 -5.25112 1.51391 0
M  V30 8411 H 821.364 -0.803748 0.194724 0
M  V30 8412 H 823.91 -1.30698 1.08241 0
M  V30 8413 H 822.682 -3.21468 2.231 0
M  V30 8414 H 822.305 -3.91956 0.667535 0
M  V30 8415 N 823.302 -0.75937 -1.38099 0
M  V30 8416 C 824.212 -0.13774 -2.34195 0
M  V30 8417 C 825.228 0.693985 -1.59561 0
M  V30 8418 O 826.404 0.616792 -1.91723 0
M  V30 8419 C 823.469 0.740535 -3.38699 0
M  V30 8420 C 822.53 -0.106225 -4.29169 0
M  V30 8421 C 821.763 0.730225 -5.28681 0
M  V30 8422 O 821.986 1.96796 -5.35376 0
M  V30 8423 O 820.92 0.145969 -6.01723 0
M  V30 8424 H 824.746 -0.931512 -2.89061 0
M  V30 8425 H 822.331 -0.520345 -1.40046 0
M  V30 8426 H 824.213 1.24232 -4.02672 0
M  V30 8427 H 822.888 1.51271 -2.8618 0
M  V30 8428 H 821.795 -0.654088 -3.68337 0
M  V30 8429 H 823.128 -0.841186 -4.84959 0
M  V30 8430 N 824.78 1.49157 -0.508906 0
M  V30 8431 C 826.057 1.95363 0.0961913 0
M  V30 8432 C 826.437 1.45064 1.53362 0
M  V30 8433 O 825.785 0.667835 2.18523 0
M  V30 8434 C 825.995 3.49 0.000688881 0
M  V30 8435 C 827.343 4.24257 0.170632 0
M  V30 8436 O 828.367 3.5612 0.0754994 0
M  V30 8437 O 827.226 5.45267 0.366957 0
M  V30 8438 H 824.32 0.821984 0.0909489 0
M  V30 8439 H 826.866 1.59769 -0.572007 0
M  V30 8440 H 825.638 3.78269 -1.00143 0
M  V30 8441 H 825.261 3.91233 0.708682 0
M  V30 8442 N 826.258 0.243083 1.55714 0
M  V30 8443 C 827.669 -0.260788 1.8487 0
M  V30 8444 C 828.02 -1.57879 1.16485 0
M  V30 8445 O 827.145 -2.1184 0.441908 0
M  V30 8446 C 827.74 -0.479954 3.35383 0
M  V30 8447 C 826.299 -0.928096 3.64778 0
M  V30 8448 C 825.446 -0.00316416 2.773 0
M  V30 8449 H 828.397 0.465743 1.51712 0
M  V30 8450 H 828.418 -1.32308 3.56756 0
M  V30 8451 H 827.93 0.479468 3.85127 0
M  V30 8452 H 826.031 -1.90012 3.20509 0
M  V30 8453 H 826.144 -0.7876 4.72582 0
M  V30 8454 H 824.508 -0.513849 2.49463 0
M  V30 8455 H 825.291 0.951562 3.29849 0
M  V30 8456 N 827.736 -1.57571 -0.0300757 0
M  V30 8457 C 828.961 -1.93879 -0.736601 0
M  V30 8458 C 829.386 -0.842998 -1.68152 0
M  V30 8459 O 828.744 0.20135 -1.80178 0
M  V30 8460 C 828.792 -3.29247 -1.47066 0
M  V30 8461 O 827.896 -3.21426 -2.58378 0
M  V30 8462 H 827.237 -0.633735 -0.198181 0
M  V30 8463 H 829.767 -2.04595 0.0141485 0
M  V30 8464 H 829.777 -3.64113 -1.84081 0
M  V30 8465 H 828.452 -4.08565 -0.77764 0
M  V30 8466 H 827.029 -2.98189 -2.23914 0
M  V30 8467 N 829.214 0.302327 -1.54673 0
M  V30 8468 C 830.454 1.04568 -1.75627 0
M  V30 8469 C 830.818 1.84535 -0.530175 0
M  V30 8470 O 832.019 2.61613 -0.61743 0
M  V30 8471 C 830.29 1.92873 -3.0089 0
M  V30 8472 S 831.849 2.73872 -3.4284 0
M  V30 8473 H 828.667 0.352682 -0.617362 0
M  V30 8474 H 831.269 0.319239 -1.92876 0
M  V30 8475 H 829.973 1.32998 -3.88252 0
M  V30 8476 H 829.504 2.69887 -2.86225 0
M  V30 8477 H 831.519 3.95386 -2.99807 0
M  V30 8478 N 830.692 1.47107 0.565454 0
M  V30 8479 C 832.103 1.47266 1.1476 0
M  V30 8480 C 832.454 0.222841 1.9493 0
M  V30 8481 O 831.579 -0.672862 2.05673 0
M  V30 8482 C 832.174 2.66822 2.08785 0
M  V30 8483 C 830.733 2.69967 2.62288 0
M  V30 8484 C 829.88 2.40236 1.38499 0
M  V30 8485 H 832.831 1.54736 0.352479 0
M  V30 8486 H 832.852 2.43323 2.92531 0
M  V30 8487 H 832.364 3.5777 1.50408 0
M  V30 8488 H 830.465 1.83137 3.24487 0
M  V30 8489 H 830.578 3.70426 3.03845 0
M  V30 8490 H 828.942 1.90648 1.68895 0
M  V30 8491 H 829.725 3.33381 0.819274 0
M  V30 8492 N 832.17 -0.811516 1.35101 0
M  V30 8493 C 833.102 -1.93102 1.23468 0
M  V30 8494 C 834.115 -1.62021 0.159095 0
M  V30 8495 O 835.304 -1.73682 0.411945 0
M  V30 8496 C 832.404 -3.27345 0.877404 0
M  V30 8497 C 831.577 -3.86368 2.05033 0
M  V30 8498 C 830.636 -4.99009 1.66963 0
M  V30 8499 O 829.662 -5.16698 2.38772 0
M  V30 8500 N 830.864 -5.7749 0.590394 0
M  V30 8501 H 833.629 -2.0361 2.19916 0
M  V30 8502 H 831.19 -0.988687 1.28205 0
M  V30 8503 H 833.182 -4.00163 0.604298 0
M  V30 8504 H 831.752 -3.126 0.00275267 0
M  V30 8505 H 830.972 -3.05804 2.48752 0
M  V30 8506 H 832.26 -4.22533 2.83449 0
M  V30 8507 H 831.658 -5.657 -0.00633259 0
M  V30 8508 H 830.215 -6.50708 0.377055 0
M  V30 8509 N 833.648 -1.19017 -1.03309 0
M  V30 8510 C 834.578 -0.94772 -2.13402 0
M  V30 8511 C 835.559 0.117383 -1.69694 0
M  V30 8512 O 836.744 -0.0367733 -1.94165 0
M  V30 8513 C 833.874 -0.480977 -3.43953 0
M  V30 8514 C 832.828 -1.48743 -4.01322 0
M  V30 8515 C 832.154 -0.877924 -5.27443 0
M  V30 8516 C 833.454 -2.86642 -4.36616 0
M  V30 8517 H 835.148 -1.86846 -2.33942 0
M  V30 8518 H 832.694 -0.899781 -1.12427 0
M  V30 8519 H 834.647 -0.298677 -4.2034 0
M  V30 8520 H 833.371 0.475348 -3.23122 0
M  V30 8521 H 832.03 -1.65681 -3.27025 0
M  V30 8522 H 831.678 0.0858232 -5.02927 0
M  V30 8523 H 831.378 -1.54996 -5.66789 0
M  V30 8524 H 832.902 -0.706326 -6.06501 0
M  V30 8525 H 834.316 -2.73312 -5.03958 0
M  V30 8526 H 832.713 -3.50599 -4.87032 0
M  V30 8527 H 833.783 -3.39617 -3.46105 0
M  V30 8528 N 835.127 1.22348 -0.993418 0
M  V30 8529 C 836.538 1.72893 -0.704616 0
M  V30 8530 C 836.889 1.80095 0.778483 0
M  V30 8531 O 836.014 1.4476 1.60853 0
M  V30 8532 C 836.609 3.14 -1.27237 0
M  V30 8533 C 835.168 3.61949 -1.03294 0
M  V30 8534 C 834.315 2.39816 -1.39225 0
M  V30 8535 H 837.266 1.07688 -1.16572 0
M  V30 8536 H 837.287 3.74886 -0.651212 0
M  V30 8537 H 836.799 3.08727 -2.3518 0
M  V30 8538 H 834.9 3.72588 0.0298329 0
M  V30 8539 H 835.013 4.48051 -1.69668 0
M  V30 8540 H 833.377 2.41448 -0.810849 0
M  V30 8541 H 834.16 2.37203 -2.48172 0
M  V30 8542 N 836.605 0.766683 1.37694 0
M  V30 8543 C 838.016 0.394761 1.82479 0
M  V30 8544 C 838.367 -1.07842 1.63904 0
M  V30 8545 O 837.492 -1.83479 1.14737 0
M  V30 8546 C 838.087 0.70974 3.31283 0
M  V30 8547 C 836.646 0.390936 3.74364 0
M  V30 8548 C 835.793 0.956192 2.60293 0
M  V30 8549 H 838.744 0.961756 1.26238 0
M  V30 8550 H 838.765 -0.00742144 3.80499 0
M  V30 8551 H 838.277 1.782 3.4477 0
M  V30 8552 H 836.378 -0.674213 3.66449 0
M  V30 8553 H 836.491 0.895645 4.70654 0
M  V30 8554 H 834.855 0.380744 2.51838 0
M  V30 8555 H 835.638 2.03375 2.76575 0
M  V30 8556 N 838.083 -1.48885 0.516809 0
M  V30 8557 C 839.499 -1.58651 0.173788 0
M  V30 8558 C 839.699 -1.52033 -1.32243 0
M  V30 8559 O 838.755 -1.40251 -2.09967 0
M  V30 8560 C 840.068 -2.90816 0.764628 0
M  V30 8561 C 841.616 -3.04316 0.732164 0
M  V30 8562 C 842.091 -4.39123 1.30135 0
M  V30 8563 N 843.582 -4.45656 1.26273 0
M  V30 8564 C 844.317 -5.48446 1.67317 0
M  V30 8565 N 843.813 -6.58258 2.16028 0
M  V30 8566 N 845.606 -5.39251 1.58635 0
M  V30 8567 H 837.757 -1.5143 1.48939 0
M  V30 8568 H 840.02 -0.718243 0.618733 0
M  V30 8569 H 839.726 -3.01275 1.81456 0
M  V30 8570 H 839.6 -3.76473 0.234113 0
M  V30 8571 H 841.987 -2.93478 -0.308975 0
M  V30 8572 H 842.068 -2.20303 1.3 0
M  V30 8573 H 841.712 -4.50714 2.34135 0
M  V30 8574 H 841.642 -5.21801 0.709305 0
M  V30 8575 H 844.133 -3.66879 0.906006 0
M  V30 8576 H 844.446 -7.32811 2.45374 0
M  V30 8577 H 842.791 -6.59257 2.20013 0
M  V30 8578 H 845.982 -4.52354 1.20387 0
M  V30 8579 H 846.155 -6.19229 1.90944 0
M  V30 8580 N 839.561 -0.251338 -1.55583 0
M  V30 8581 C 840.838 0.422729 -1.90977 0
M  V30 8582 C 841.218 1.75534 -1.17265 0
M  V30 8583 O 840.566 2.26632 -0.291588 0
M  V30 8584 C 840.776 0.586448 -3.44037 0
M  V30 8585 C 842.124 0.880294 -4.15375 0
M  V30 8586 O 843.148 0.672148 -3.49801 0
M  V30 8587 O 842.007 1.27694 -5.31372 0
M  V30 8588 H 839.101 0.227622 -0.795058 0
M  V30 8589 H 841.647 -0.295733 -1.67103 0
M  V30 8590 H 840.419 -0.352327 -3.89711 0
M  V30 8591 H 840.042 1.35528 -3.73789 0
M  V30 8592 N 841.039 1.57585 0.0217189 0
M  V30 8593 C 842.264 1.94267 0.726309 0
M  V30 8594 C 842.689 0.851904 1.67703 0
M  V30 8595 O 842.047 -0.191792 1.80283 0
M  V30 8596 C 842.095 3.30023 1.45318 0
M  V30 8597 O 841.199 3.22791 2.5667 0
M  V30 8598 H 840.54 0.634777 0.194818 0
M  V30 8599 H 843.07 2.04585 -0.0249985 0
M  V30 8600 H 843.08 3.65084 1.82147 0
M  V30 8601 H 841.755 4.08972 0.755962 0
M  V30 8602 H 840.332 2.99373 2.2233 0
M  V30 8603 N 842.517 -0.29412 1.54831 0
M  V30 8604 C 843.928 -0.866651 1.65366 0
M  V30 8605 C 844.279 -1.87834 0.56681 0
M  V30 8606 O 843.404 -2.14374 -0.295389 0
M  V30 8607 C 843.999 -1.57869 2.99771 0
M  V30 8608 C 842.558 -2.09954 3.12404 0
M  V30 8609 C 841.705 -0.934492 2.6108 0
M  V30 8610 H 844.656 -0.0709551 1.58541 0
M  V30 8611 H 844.677 -2.44462 2.91579 0
M  V30 8612 H 844.189 -0.84212 3.78853 0
M  V30 8613 H 842.29 -2.86637 2.38055 0
M  V30 8614 H 842.403 -2.32934 4.18663 0
M  V30 8615 H 840.767 -1.32199 2.17705 0
M  V30 8616 H 841.55 -0.211768 3.42646 0
M  V30 8617 N 843.995 -1.47404 -0.557645 0
M  V30 8618 C 845.411 -1.32913 -0.88353 0
M  V30 8619 C 845.611 -0.31929 -1.98954 0
M  V30 8620 O 844.667 0.26934 -2.51059 0
M  V30 8621 C 845.98 -2.72229 -1.27718 0
M  V30 8622 C 847.528 -2.8051 -1.38863 0
M  V30 8623 C 848.003 -4.20466 -1.81583 0
M  V30 8624 N 849.494 -4.23005 -1.88735 0
M  V30 8625 C 850.229 -5.2821 -2.23118 0
M  V30 8626 N 849.725 -6.4372 -2.56117 0
M  V30 8627 N 851.518 -5.15588 -2.23888 0
M  V30 8628 H 843.669 -2.11698 0.172557 0
M  V30 8629 H 845.932 -0.947889 0.0145334 0
M  V30 8630 H 845.638 -3.47556 -0.538329 0
M  V30 8631 H 845.512 -3.03971 -2.23342 0
M  V30 8632 H 847.899 -2.05457 -2.11829 0
M  V30 8633 H 847.98 -2.52423 -0.414274 0
M  V30 8634 H 847.624 -4.96025 -1.09187 0
M  V30 8635 H 847.554 -4.45977 -2.80021 0
M  V30 8636 H 850.045 -3.39674 -1.65621 0
M  V30 8637 H 850.358 -7.19754 -2.81378 0
M  V30 8638 H 848.703 -6.47041 -2.53698 0
M  V30 8639 H 851.894 -4.24374 -1.97546 0
M  V30 8640 H 852.067 -5.97685 -2.50353 0
M  V30 8641 N 845.473 0.80434 -1.35529 0
M  V30 8642 C 846.713 1.57489 -1.30295 0
M  V30 8643 C 847.077 1.91621 0.120528 0
M  V30 8644 O 848.278 2.67151 0.297265 0
M  V30 8645 C 846.549 2.82741 -2.18615 0
M  V30 8646 S 848.108 3.73125 -2.30918 0
M  V30 8647 H 844.926 0.539573 -0.463014 0
M  V30 8648 H 847.528 0.948601 -1.70944 0
M  V30 8649 H 846.232 2.55692 -3.21014 0
M  V30 8650 H 845.763 3.50353 -1.78931 0
M  V30 8651 H 847.778 4.73122 -1.49566 0
M  V30 8652 N 846.951 1.19563 1.02676 0
M  V30 8653 C 847.881 0.959024 2.12897 0
M  V30 8654 C 848.862 -0.108382 1.69754 0
M  V30 8655 O 850.047 0.0470698 1.94143 0
M  V30 8656 C 847.177 0.499211 3.43693 0
M  V30 8657 C 846.131 1.5087 4.00528 0
M  V30 8658 C 845.457 0.905884 5.2697 0
M  V30 8659 C 846.757 2.88954 4.3509 0
M  V30 8660 H 848.451 1.88084 2.32948 0
M  V30 8661 H 845.997 0.905731 1.11949 0
M  V30 8662 H 847.95 0.320965 4.20176 0
M  V30 8663 H 846.674 -0.458205 3.2337 0
M  V30 8664 H 845.333 1.67413 3.26142 0
M  V30 8665 H 844.981 -0.0591506 5.02965 0
M  V30 8666 H 844.681 1.58 5.65959 0
M  V30 8667 H 846.205 0.73848 6.06118 0
M  V30 8668 H 847.619 2.75981 5.02501 0
M  V30 8669 H 846.016 3.53177 4.85166 0
M  V30 8670 H 847.086 3.41447 3.44299 0
M  V30 8671 N 848.429 -1.21819 0.999893 0
M  V30 8672 C 849.362 -2.22635 0.500887 0
M  V30 8673 C 850.34 -1.56459 -0.442636 0
M  V30 8674 O 851.524 -1.84902 -0.366551 0
M  V30 8675 C 848.651 -3.37598 -0.273046 0
M  V30 8676 C 847.697 -4.22006 0.617511 0
M  V30 8677 S 848.53 -4.93583 2.07693 0
M  V30 8678 C 849.686 -6.1198 1.31269 0
M  V30 8679 H 849.919 -2.64618 1.35516 0
M  V30 8680 H 847.452 -1.31606 0.807419 0
M  V30 8681 H 849.41 -4.04251 -0.713515 0
M  V30 8682 H 848.071 -2.94108 -1.10268 0
M  V30 8683 H 847.264 -5.03995 0.0216543 0
M  V30 8684 H 846.866 -3.6052 0.99504 0
M  V30 8685 H 849.158 -6.74979 0.583933 0
M  V30 8686 H 850.101 -6.75991 2.10811 0
M  V30 8687 H 850.509 -5.5847 0.822901 0
M  V30 8688 N 849.908 -0.773975 -1.37286 0
M  V30 8689 C 850.838 -0.175782 -2.32837 0
M  V30 8690 C 851.819 0.680603 -1.5589 0
M  V30 8691 O 853.004 0.617607 -1.84117 0
M  V30 8692 C 850.134 0.702388 -3.40123 0
M  V30 8693 C 849.088 -0.0528687 -4.27967 0
M  V30 8694 C 848.414 0.944891 -5.26285 0
M  V30 8695 C 849.714 -1.23316 -5.07534 0
M  V30 8696 H 851.408 -0.974016 -2.83114 0
M  V30 8697 H 848.954 -0.469826 -1.3612 0
M  V30 8698 H 850.907 1.13069 -4.05947 0
M  V30 8699 H 849.631 1.53316 -2.88378 0
M  V30 8700 H 848.29 -0.461978 -3.63678 0
M  V30 8701 H 847.938 1.77028 -4.70819 0
M  V30 8702 H 847.638 0.444079 -5.8592 0
M  V30 8703 H 849.162 1.37209 -5.94984 0
M  V30 8704 H 850.576 -0.881395 -5.66484 0
M  V30 8705 H 848.973 -1.66621 -5.76504 0
M  V30 8706 H 850.043 -2.03617 -4.40077 0
M  V30 8707 N 851.386 1.48609 -0.524698 0
M  V30 8708 C 852.349 2.28041 0.230166 0
M  V30 8709 C 853.349 1.35065 0.872584 0
M  V30 8710 O 854.539 1.58007 0.73345 0
M  V30 8711 C 851.671 3.13778 1.33252 0
M  V30 8712 H 852.864 2.96239 -0.467161 0
M  V30 8713 H 850.417 1.53763 -0.280452 0
M  V30 8714 H 851.152 2.502 2.06327 0
M  V30 8715 H 850.937 3.82165 0.877058 0
M  V30 8716 H 852.427 3.7371 1.86362 0
M  V30 8717 N 852.864 0.259585 1.55447 0
M  V30 8718 C 853.794 -0.62852 2.24882 0
M  V30 8719 C 854.775 -1.17128 1.23349 0
M  V30 8720 O 855.96 -1.20829 1.52033 0
M  V30 8721 C 853.09 -1.81983 2.95803 0
M  V30 8722 C 852.044 -1.40929 4.04132 0
M  V30 8723 C 851.37 -2.68246 4.62545 0
M  V30 8724 C 852.67 -0.570956 5.1917 0
M  V30 8725 H 854.364 -0.0495021 2.99359 0
M  V30 8726 H 851.91 -0.0223688 1.43983 0
M  V30 8727 H 853.863 -2.44689 3.43082 0
M  V30 8728 H 852.587 -2.42444 2.18835 0
M  V30 8729 H 851.246 -0.805519 3.57641 0
M  V30 8730 H 850.894 -3.26931 3.82263 0
M  V30 8731 H 850.594 -2.41495 5.35681 0
M  V30 8732 H 852.118 -3.31827 5.12565 0
M  V30 8733 H 853.532 -1.10262 5.62597 0
M  V30 8734 H 851.929 -0.398979 5.98772 0
M  V30 8735 H 852.999 0.413918 4.8313 0
M  V30 8736 N 854.342 -1.57594 -0.0133615 0
M  V30 8737 C 855.567 -1.94649 -0.715996 0
M  V30 8738 C 855.992 -0.860786 -1.67249 0
M  V30 8739 O 855.35 0.182228 -1.80382 0
M  V30 8740 C 855.398 -3.30789 -1.43566 0
M  V30 8741 O 854.502 -3.24148 -2.54955 0
M  V30 8742 H 853.843 -0.635801 -0.191449 0
M  V30 8743 H 856.373 -2.04569 0.0358478 0
M  V30 8744 H 856.383 -3.66045 -1.80208 0
M  V30 8745 H 855.058 -4.09367 -0.734263 0
M  V30 8746 H 853.635 -3.00548 -2.20739 0
M  V30 8747 N 855.82 0.285905 -1.54985 0
M  V30 8748 C 856.752 1.37505 -1.83371 0
M  V30 8749 C 857.765 1.46138 -0.717454 0
M  V30 8750 O 858.954 1.48186 -0.995142 0
M  V30 8751 C 856.054 2.7575 -1.97016 0
M  V30 8752 C 855.227 2.89866 -3.27561 0
M  V30 8753 C 854.286 4.08704 -3.31433 0
M  V30 8754 O 853.312 4.00073 -4.04883 0
M  V30 8755 N 854.514 5.20062 -2.57907 0
M  V30 8756 H 857.279 1.13505 -2.77375 0
M  V30 8757 H 854.84 0.476006 -1.54744 0
M  V30 8758 H 856.832 3.5352 -1.96991 0
M  V30 8759 H 855.402 2.9263 -1.09938 0
M  V30 8760 H 854.622 1.99085 -3.40234 0
M  V30 8761 H 855.91 2.96219 -4.13681 0
M  V30 8762 H 855.308 5.29958 -1.97891 0
M  V30 8763 H 853.865 5.96111 -2.63619 0
M  V30 8764 N 857.298 1.47698 0.54982 0
M  V30 8765 C 858.523 1.58579 1.33669 0
M  V30 8766 C 858.948 0.239049 1.86575 0
M  V30 8767 O 858.306 -0.786256 1.63364 0
M  V30 8768 C 858.354 2.62029 2.47736 0
M  V30 8769 O 857.458 2.17813 3.50188 0
M  V30 8770 H 856.799 0.532447 0.396732 0
M  V30 8771 H 859.329 1.93536 0.6637 0
M  V30 8772 H 859.339 2.82682 2.94202 0
M  V30 8773 H 858.014 3.59812 2.08586 0
M  V30 8774 H 856.591 2.07291 3.09976 0
M  V30 8775 N 858.776 -0.797141 1.35954 0
M  V30 8776 C 860.053 -1.54224 1.2031 0
M  V30 8777 C 860.433 -2.10013 -0.213926 0
M  V30 8778 O 859.781 -1.93292 -1.21862 0
M  V30 8779 C 859.991 -2.6433 2.27883 0
M  V30 8780 C 861.339 -3.32418 2.64165 0
M  V30 8781 O 862.363 -2.74607 2.26868 0
M  V30 8782 O 861.222 -4.36876 3.28331 0
M  V30 8783 H 858.316 -0.681857 0.467974 0
M  V30 8784 H 860.862 -0.836288 1.47663 0
M  V30 8785 H 859.634 -2.21044 3.22885 0
M  V30 8786 H 859.257 -3.42551 2.01853 0
M  V30 8787 N 860.254 -1.20106 -1.0204 0
M  V30 8788 C 861.665 -1.00992 -1.57027 0
M  V30 8789 C 862.016 0.434782 -1.91322 0
M  V30 8790 O 861.141 1.31557 -1.71819 0
M  V30 8791 C 861.736 -1.82697 -2.85319 0
M  V30 8792 C 860.295 -1.67959 -3.36848 0
M  V30 8793 C 859.442 -1.80868 -2.10195 0
M  V30 8794 H 862.393 -1.34354 -0.844676 0
M  V30 8795 H 862.414 -1.32809 -3.5657 0
M  V30 8796 H 861.926 -2.87839 -2.60328 0
M  V30 8797 H 860.027 -0.654389 -3.66809 0
M  V30 8798 H 860.14 -2.49006 -4.09308 0
M  V30 8799 H 858.504 -1.24015 -2.22469 0
M  V30 8800 H 859.287 -2.87486 -1.87635 0
M  V30 8801 N 861.732 1.21287 -1.00634 0
M  V30 8802 C 862.96 1.94385 -0.708678 0
M  V30 8803 C 863.375 1.7416 0.728957 0
M  V30 8804 O 862.732 1.04906 1.49335 0
M  V30 8805 C 862.783 3.46755 -1.02193 0
M  V30 8806 O 862.504 3.6631 -2.40309 0
M  V30 8807 C 864.005 4.37014 -0.743867 0
M  V30 8808 H 861.225 0.618136 -0.261052 0
M  V30 8809 H 863.769 1.54067 -1.34475 0
M  V30 8810 H 861.924 3.8499 -0.431441 0
M  V30 8811 H 862.338 4.60393 -2.51274 0
M  V30 8812 H 863.812 5.42621 -1.01321 0
M  V30 8813 H 864.289 4.38017 0.322084 0
M  V30 8814 H 864.895 4.04426 -1.31603 0
M  V30 8815 N 863.21 0.781244 1.36873 0
M  V30 8816 C 864.457 0.349889 1.99454 0
M  V30 8817 C 864.785 -1.07621 1.62013 0
M  V30 8818 O 864.04 -1.75665 0.86258 0
M  V30 8819 C 864.339 0.45146 3.54537 0
M  V30 8820 C 864.005 1.83718 4.11775 0
M  V30 8821 C 862.667 2.21634 4.2712 0
M  V30 8822 C 865.019 2.7449 4.43063 0
M  V30 8823 C 862.347 3.49742 4.7106 0
M  V30 8824 C 864.699 4.02017 4.88431 0
M  V30 8825 C 863.363 4.39967 5.01982 0
M  V30 8826 H 862.633 0.128033 0.729855 0
M  V30 8827 H 865.28 0.997117 1.63493 0
M  V30 8828 H 863.585 -0.279288 3.90803 0
M  V30 8829 H 865.282 0.0988609 4.00878 0
M  V30 8830 H 861.872 1.53251 4.00265 0
M  V30 8831 H 866.056 2.46453 4.30783 0
M  V30 8832 H 861.312 3.79026 4.79738 0
M  V30 8833 H 865.486 4.72475 5.11605 0
M  V30 8834 H 863.113 5.39291 5.35788 0
M  V30 8835 N 864.689 -1.48329 0.532571 0
M  V30 8836 C 865.937 -2.021 -0.000581206 0
M  V30 8837 C 866.258 -1.4117 -1.34522 0
M  V30 8838 O 865.528 -0.578005 -1.87179 0
M  V30 8839 H 864.108 -0.746993 -0.00320281 0
M  V30 8840 H 866.77 -1.82011 0.696991 0
M  V30 8841 H 865.866 -3.11917 -0.106991 0
M  V30 8842 N 866.167 -0.267825 -1.55308 0
M  V30 8843 C 867.114 0.6228 -2.22238 0
M  V30 8844 C 868.084 1.15536 -1.19334 0
M  V30 8845 O 869.269 1.206 -1.47852 0
M  V30 8846 C 866.409 1.80447 -2.94164 0
M  V30 8847 C 865.522 1.30646 -4.11771 0
M  V30 8848 C 864.657 2.44935 -4.7136 0
M  V30 8849 C 863.696 1.92099 -5.81175 0
M  V30 8850 N 862.833 2.99834 -6.34857 0
M  V30 8851 H 867.673 0.0453874 -2.97965 0
M  V30 8852 H 865.21 0.0106371 -1.47096 0
M  V30 8853 H 867.168 2.49896 -3.34078 0
M  V30 8854 H 865.798 2.35403 -2.20874 0
M  V30 8855 H 864.85 0.505314 -3.77029 0
M  V30 8856 H 866.162 0.879409 -4.90987 0
M  V30 8857 H 865.316 3.2239 -5.13955 0
M  V30 8858 H 864.055 2.90951 -3.91406 0
M  V30 8859 H 863.06 1.13122 -5.38037 0
M  V30 8860 H 864.285 1.47027 -6.62993 0
M  V30 8861 H 862.231 3.45246 -5.578 0
M  V30 8862 H 862.148 2.61524 -7.09324 0
M  V30 8863 H 863.416 3.77286 -6.82111 0
M  V30 8864 N 867.645 1.57599 0.00500368 0
M  V30 8865 C 868.592 2.08106 0.998025 0
M  V30 8866 C 869.562 0.975374 1.34446 0
M  V30 8867 O 870.747 1.24749 1.44369 0
M  V30 8868 C 867.887 2.58496 2.28635 0
M  V30 8869 C 867 3.82947 1.99939 0
M  V30 8870 C 866.135 4.21857 3.22816 0
M  V30 8871 C 865.174 5.39159 2.89783 0
M  V30 8872 N 864.311 5.73386 4.05183 0
M  V30 8873 H 869.151 2.92684 0.560385 0
M  V30 8874 H 866.688 1.44692 0.265053 0
M  V30 8875 H 868.646 2.85787 3.03943 0
M  V30 8876 H 867.276 1.768 2.70077 0
M  V30 8877 H 866.328 3.62594 1.1502 0
M  V30 8878 H 867.64 4.68358 1.71588 0
M  V30 8879 H 866.794 4.50404 4.06474 0
M  V30 8880 H 865.533 3.35145 3.54301 0
M  V30 8881 H 864.538 5.1034 2.04532 0
M  V30 8882 H 865.763 6.27543 2.59551 0
M  V30 8883 H 863.709 4.89632 4.36574 0
M  V30 8884 H 863.626 6.53359 3.80339 0
M  V30 8885 H 864.894 6.06522 4.89644 0
M  V30 8886 N 869.123 -0.277682 1.55134 0
M  V30 8887 C 870.348 -1.03254 1.7987 0
M  V30 8888 C 870.773 -1.79324 0.567861 0
M  V30 8889 O 870.131 -1.74764 -0.4824 0
M  V30 8890 C 870.179 -1.9705 3.02 0
M  V30 8891 O 869.283 -3.05744 2.76757 0
M  V30 8892 H 868.624 -0.295447 0.594649 0
M  V30 8893 H 871.154 -0.308013 2.02268 0
M  V30 8894 H 871.164 -2.3909 3.30606 0
M  V30 8895 H 869.839 -1.41094 3.91236 0
M  V30 8896 H 868.416 -2.68052 2.59235 0
M  V30 8897 N 870.601 -1.47988 -0.541979 0
M  V30 8898 C 871.848 -1.55393 -1.29843 0
M  V30 8899 C 872.176 -0.222668 -1.93221 0
M  V30 8900 O 871.431 0.785936 -1.79225 0
M  V30 8901 C 871.73 -2.63189 -2.41798 0
M  V30 8902 C 871.396 -4.05999 -1.96151 0
M  V30 8903 C 870.058 -4.44872 -1.83419 0
M  V30 8904 C 872.41 -4.95545 -1.61507 0
M  V30 8905 C 869.738 -5.71108 -1.34361 0
M  V30 8906 C 872.09 -6.22259 -1.13915 0
M  V30 8907 C 870.754 -6.59998 -0.997911 0
M  V30 8908 H 870.024 -0.568623 -0.47513 0
M  V30 8909 H 872.671 -1.81654 -0.606142 0
M  V30 8910 H 870.976 -2.30743 -3.16647 0
M  V30 8911 H 872.673 -2.66138 -2.99953 0
M  V30 8912 H 869.263 -3.75294 -2.07008 0
M  V30 8913 H 873.447 -4.662 -1.70209 0
M  V30 8914 H 868.703 -5.99083 -1.22103 0
M  V30 8915 H 872.877 -6.91048 -0.861755 0
M  V30 8916 H 870.504 -7.57704 -0.615561 0
M  V30 8917 N 872.079 0.78992 -1.36375 0
M  V30 8918 C 872.989 1.93386 -1.32812 0
M  V30 8919 C 874.005 1.72468 -0.230377 0
M  V30 8920 O 875.181 1.96014 -0.462657 0
M  V30 8921 C 872.246 3.2824 -1.11621 0
M  V30 8922 C 871.307 3.61939 -2.30865 0
M  V30 8923 C 870.54 4.90359 -2.10675 0
M  V30 8924 O 870.763 5.6005 -1.08168 0
M  V30 8925 O 869.697 5.22702 -2.9844 0
M  V30 8926 H 873.523 1.99342 -2.29121 0
M  V30 8927 H 871.108 0.9301 -1.16917 0
M  V30 8928 H 872.99 4.08939 -1.01719 0
M  V30 8929 H 871.665 3.23178 -0.183732 0
M  V30 8930 H 870.572 2.81549 -2.46335 0
M  V30 8931 H 871.905 3.71725 -3.22617 0
M  V30 8932 N 873.557 1.20646 1.01402 0
M  V30 8933 C 874.489 0.915392 2.10127 0
M  V30 8934 C 875.502 -0.0978705 1.62506 0
M  V30 8935 O 876.691 0.133477 1.78 0
M  V30 8936 C 873.791 0.351304 3.37074 0
M  V30 8937 C 872.964 1.41673 4.13821 0
M  V30 8938 C 872.023 0.8635 5.19067 0
M  V30 8939 O 871.049 1.54481 5.47836 0
M  V30 8940 N 872.251 -0.325799 5.79585 0
M  V30 8941 H 875.016 1.85132 2.35682 0
M  V30 8942 H 872.577 1.11048 1.17813 0
M  V30 8943 H 874.569 -0.032996 4.04687 0
M  V30 8944 H 873.139 -0.489242 3.08748 0
M  V30 8945 H 872.359 1.97526 3.41141 0
M  V30 8946 H 873.647 2.1342 4.61876 0
M  V30 8947 H 873.045 -0.896534 5.58551 0
M  V30 8948 H 871.602 -0.651708 6.48534 0
M  V30 8949 N 875.035 -1.20752 1.01276 0
M  V30 8950 C 876.263 -1.94006 0.718976 0
M  V30 8951 C 876.678 -1.74544 -0.719711 0
M  V30 8952 O 876.035 -1.05697 -1.48776 0
M  V30 8953 C 876.086 -3.46208 1.04031 0
M  V30 8954 O 875.807 -3.65031 2.42248 0
M  V30 8955 C 877.308 -4.36614 0.767032 0
M  V30 8956 H 874.528 -0.616743 0.264327 0
M  V30 8957 H 877.072 -1.53352 1.3529 0
M  V30 8958 H 875.227 -3.84756 0.451852 0
M  V30 8959 H 875.641 -4.59054 2.53712 0
M  V30 8960 H 877.115 -5.42076 1.04198 0
M  V30 8961 H 877.592 -4.38182 -0.298851 0
M  V30 8962 H 878.198 -4.03723 1.33746 0
M  V30 8963 N 876.513 -0.788492 -1.36457 0
M  V30 8964 C 877.443 -0.200468 -2.32638 0
M  V30 8965 C 878.424 0.664031 -1.56603 0
M  V30 8966 O 879.609 0.598045 -1.84762 0
M  V30 8967 C 876.739 0.666274 -3.40849 0
M  V30 8968 C 875.693 -0.0982574 -4.27887 0
M  V30 8969 C 875.019 0.889018 -5.27258 0
M  V30 8970 C 876.319 -1.28692 -5.06197 0
M  V30 8971 H 878.013 -1.00399 -2.82065 0
M  V30 8972 H 875.559 -0.484237 -1.35614 0
M  V30 8973 H 877.512 1.08757 -4.07124 0
M  V30 8974 H 876.236 1.50249 -2.89987 0
M  V30 8975 H 874.895 -0.500525 -3.63167 0
M  V30 8976 H 874.543 1.72024 -4.7267 0
M  V30 8977 H 874.243 0.381909 -5.86358 0
M  V30 8978 H 875.767 1.30891 -5.96406 0
M  V30 8979 H 877.181 -0.941429 -5.65517 0
M  V30 8980 H 875.578 -1.72726 -5.74705 0
M  V30 8981 H 876.648 -2.08273 -4.37893 0
M  V30 8982 N 877.991 1.48044 -0.54043 0
M  V30 8983 C 879.219 2.06895 -0.0145153 0
M  V30 8984 C 879.634 1.39552 1.27164 0
M  V30 8985 O 878.991 0.486454 1.75897 0
M  V30 8986 C 879.042 3.60934 0.202278 0
M  V30 8987 O 878.763 4.25749 -1.03293 0
M  V30 8988 C 880.264 4.36607 0.767387 0
M  V30 8989 H 877.484 0.66991 -0.0382368 0
M  V30 8990 H 880.028 1.90288 -0.749057 0
M  V30 8991 H 878.183 3.77111 0.886897 0
M  V30 8992 H 878.597 5.18048 -0.820167 0
M  V30 8993 H 880.071 5.45126 0.86845 0
M  V30 8994 H 880.548 4.01745 1.77477 0
M  V30 8995 H 881.154 4.25133 0.119002 0
M  V30 8996 N 879.47 0.276058 1.55163 0
M  V30 8997 C 880.716 -0.340959 1.99913 0
M  V30 8998 C 881.049 -1.55434 1.16422 0
M  V30 8999 O 880.324 -1.93081 0.234517 0
M  V30 9000 C 880.607 -0.722211 3.52783 0
M  V30 9001 C 880.46 0.498575 4.47028 0
M  V30 9002 C 881.779 -1.5583 4.11589 0
M  V30 9003 H 878.898 -0.122455 0.726756 0
M  V30 9004 H 881.54 0.38319 1.86096 0
M  V30 9005 H 879.69 -1.33919 3.64689 0
M  V30 9006 H 881.362 1.13713 4.47065 0
M  V30 9007 H 879.605 1.13646 4.18649 0
M  V30 9008 H 880.276 0.188041 5.5168 0
M  V30 9009 H 882.752 -1.03722 4.02965 0
M  V30 9010 H 881.628 -1.79387 5.1876 0
M  V30 9011 H 881.889 -2.53963 3.61877 0
M  V30 9012 N 880.948 -1.576 0.00335426 0
M  V30 9013 C 881.858 -2.12067 -1.00322 0
M  V30 9014 C 882.874 -1.06672 -1.37467 0
M  V30 9015 O 884.05 -1.38592 -1.46131 0
M  V30 9016 C 881.115 -2.61593 -2.27531 0
M  V30 9017 C 880.176 -3.81602 -1.96668 0
M  V30 9018 C 879.409 -4.28756 -3.17811 0
M  V30 9019 O 879.632 -3.75222 -4.2961 0
M  V30 9020 O 878.566 -5.20877 -3.01613 0
M  V30 9021 H 882.392 -2.98299 -0.570199 0
M  V30 9022 H 879.977 -1.47835 -0.215682 0
M  V30 9023 H 881.859 -2.93631 -3.02256 0
M  V30 9024 H 880.534 -1.78457 -2.70065 0
M  V30 9025 H 879.441 -3.54531 -1.19408 0
M  V30 9026 H 880.774 -4.65822 -1.58968 0
M  V30 9027 N 882.426 0.269451 -1.5528 0
M  V30 9028 C 883.356 1.33729 -1.91413 0
M  V30 9029 C 884.337 1.51348 -0.776391 0
M  V30 9030 O 885.522 1.64332 -1.03482 0
M  V30 9031 C 882.652 2.69618 -2.18914 0
M  V30 9032 C 881.606 2.66725 -3.34726 0
M  V30 9033 C 880.932 4.06199 -3.47716 0
M  V30 9034 C 882.232 2.25684 -4.71025 0
M  V30 9035 H 883.926 1.03736 -2.80854 0
M  V30 9036 H 881.472 0.497579 -1.3513 0
M  V30 9037 H 883.425 3.44436 -2.42779 0
M  V30 9038 H 882.149 3.01201 -1.26275 0
M  V30 9039 H 880.808 1.94365 -3.10834 0
M  V30 9040 H 880.456 4.3501 -2.52537 0
M  V30 9041 H 880.156 4.05157 -4.25583 0
M  V30 9042 H 881.68 4.8275 -3.73877 0
M  V30 9043 H 883.094 2.90225 -4.94411 0
M  V30 9044 H 881.491 2.35797 -5.51833 0
M  V30 9045 H 882.561 1.20819 -4.69607 0
M  V30 9046 N 883.904 1.48273 0.534124 0
M  V30 9047 C 885.144 1.57674 1.3007 0
M  V30 9048 C 885.508 0.243256 1.90453 0
M  V30 9049 O 886.709 0.212231 2.67961 0
M  V30 9050 C 884.98 2.68044 2.36405 0
M  V30 9051 S 886.539 2.97183 3.22843 0
M  V30 9052 H 883.357 0.55652 0.442501 0
M  V30 9053 H 885.959 1.85774 0.60896 0
M  V30 9054 H 884.663 3.63498 1.90518 0
M  V30 9055 H 884.194 2.41833 3.10291 0
M  V30 9056 H 886.209 2.36164 4.36396 0
M  V30 9057 N 885.382 -0.782676 1.36792 0
M  V30 9058 C 886.63 -1.53778 1.31136 0
M  V30 9059 C 886.951 -1.94706 -0.107014 0
M  V30 9060 O 886.221 -1.65465 -1.04872 0
M  V30 9061 H 884.801 -0.570328 0.482426 0
M  V30 9062 H 887.463 -0.932181 1.71162 0
M  V30 9063 H 886.559 -2.44224 1.94321 0
M  V30 9064 N 886.86 -1.21182 -1.00761 0
M  V30 9065 C 888.088 -1.05335 -1.78079 0
M  V30 9066 C 888.503 0.396988 -1.84579 0
M  V30 9067 O 887.86 1.27548 -1.30529 0
M  V30 9068 C 887.911 -1.64089 -3.22113 0
M  V30 9069 O 887.632 -3.03448 -3.15992 0
M  V30 9070 C 889.133 -1.53318 -4.15943 0
M  V30 9071 H 886.353 -0.37005 -0.559736 0
M  V30 9072 H 888.897 -1.60463 -1.26775 0
M  V30 9073 H 887.052 -1.13059 -3.70535 0
M  V30 9074 H 887.466 -3.31492 -4.06465 0
M  V30 9075 H 888.94 -1.99174 -5.14814 0
M  V30 9076 H 889.417 -0.487166 -4.3649 0
M  V30 9077 H 890.023 -2.03582 -3.73409 0
M  V30 9078 N 888.338 1.20213 -1.01915 0
M  V30 9079 C 889.301 2.21307 -0.596327 0
M  V30 9080 C 890.301 1.57274 0.334879 0
M  V30 9081 O 891.491 1.73764 0.12322 0
M  V30 9082 C 888.623 3.40657 0.128808 0
M  V30 9083 H 889.816 2.60228 -1.49068 0
M  V30 9084 H 887.369 1.33721 -0.809226 0
M  V30 9085 H 888.104 3.07241 1.03796 0
M  V30 9086 H 887.889 3.88361 -0.540183 0
M  V30 9087 H 889.379 4.15564 0.411892 0
M  V30 9088 N 889.816 0.795718 1.36037 0
M  V30 9089 C 891.064 0.370291 1.98679 0
M  V30 9090 C 891.385 -1.06332 1.63458 0
M  V30 9091 O 890.655 -1.73394 0.911671 0
M  V30 9092 H 889.235 0.133928 0.734896 0
M  V30 9093 H 891.897 1.01915 1.6613 0
M  V30 9094 H 890.993 0.467207 3.08583 0
M  V30 9095 N 891.294 -1.47756 0.548274 0
M  V30 9096 C 892.224 -2.32702 -0.19284 0
M  V30 9097 C 893.205 -1.43237 -0.917457 0
M  V30 9098 O 894.39 -1.72103 -0.89967 0
M  V30 9099 C 891.52 -3.24831 -1.22891 0
M  V30 9100 C 890.474 -4.23466 -0.621312 0
M  V30 9101 C 889.8 -5.04856 -1.76137 0
M  V30 9102 C 891.1 -5.20616 0.419055 0
M  V30 9103 H 892.794 -2.94914 0.516323 0
M  V30 9104 H 890.34 -1.41818 0.24975 0
M  V30 9105 H 892.293 -3.83094 -1.75547 0
M  V30 9106 H 891.017 -2.60656 -1.9679 0
M  V30 9107 H 889.676 -3.66416 -0.116123 0
M  V30 9108 H 889.324 -4.37091 -2.48918 0
M  V30 9109 H 889.024 -5.71629 -1.36065 0
M  V30 9110 H 890.548 -5.65976 -2.29136 0
M  V30 9111 H 891.962 -5.73296 -0.0211034 0
M  V30 9112 H 890.359 -5.95543 0.738163 0
M  V30 9113 H 891.429 -4.66638 1.31822 0
M  V30 9114 N 892.772 -0.284283 -1.55015 0
M  V30 9115 C 894 0.332948 -2.04203 0
M  V30 9116 C 894.415 1.48783 -1.16229 0
M  V30 9117 O 893.772 1.81567 -0.184323 0
M  V30 9118 C 893.823 0.805207 -3.52418 0
M  V30 9119 O 893.544 -0.303689 -4.37046 0
M  V30 9120 C 895.045 1.48931 -4.17534 0
M  V30 9121 H 892.265 0.0747447 -0.666824 0
M  V30 9122 H 894.809 -0.419048 -2.00161 0
M  V30 9123 H 892.964 1.50727 -3.56876 0
M  V30 9124 H 893.378 0.0609703 -5.24465 0
M  V30 9125 H 894.852 1.77108 -5.22816 0
M  V30 9126 H 895.329 2.42389 -3.66257 0
M  V30 9127 H 895.935 0.830867 -4.17105 0
M  V30 9128 N 894.251 1.57596 -0.0117121 0
M  V30 9129 C 895.662 1.79033 0.529521 0
M  V30 9130 C 896.013 0.920299 1.73277 0
M  V30 9131 O 895.138 0.125934 2.16033 0
M  V30 9132 C 895.733 3.24695 0.967405 0
M  V30 9133 C 894.292 3.47188 1.45387 0
M  V30 9134 C 893.439 2.74245 0.410466 0
M  V30 9135 H 896.39 1.56908 -0.237836 0
M  V30 9136 H 896.411 3.33451 1.83278 0
M  V30 9137 H 895.923 3.87992 0.0914605 0
M  V30 9138 H 894.024 2.89121 2.35032 0
M  V30 9139 H 894.137 4.55886 1.47325 0
M  V30 9140 H 892.501 2.39209 0.874721 0
M  V30 9141 H 893.284 3.40248 -0.456713 0
M  V30 9142 N 895.729 -0.261212 1.5542 0
M  V30 9143 C 897.14 -0.83138 1.67167 0
M  V30 9144 C 897.491 -1.8659 0.606525 0
M  V30 9145 O 896.616 -2.14953 -0.24985 0
M  V30 9146 C 897.211 -1.51475 3.03052 0
M  V30 9147 C 895.77 -2.0328 3.16787 0
M  V30 9148 C 894.917 -0.878903 2.63003 0
M  V30 9149 H 897.868 -0.0373102 1.58656 0
M  V30 9150 H 897.889 -2.38222 2.96699 0
M  V30 9151 H 897.401 -0.76157 3.80554 0
M  V30 9152 H 895.502 -2.81523 2.44082 0
M  V30 9153 H 895.615 -2.24001 4.2351 0
M  V30 9154 H 893.979 -1.27551 2.2046 0
M  V30 9155 H 894.762 -0.13904 3.43018 0
M  V30 9156 N 897.207 -1.48554 -0.526253 0
M  V30 9157 C 898.435 -1.60429 -1.30652 0
M  V30 9158 C 898.85 -0.265963 -1.86917 0
M  V30 9159 O 898.207 0.745262 -1.6659 0
M  V30 9160 C 898.258 -2.65377 -2.45473 0
M  V30 9161 O 897.979 -3.94017 -1.91527 0
M  V30 9162 C 899.48 -2.87726 -3.37237 0
M  V30 9163 H 896.7 -0.540817 -0.397187 0
M  V30 9164 H 899.244 -1.94409 -0.634461 0
M  V30 9165 H 897.399 -2.34246 -3.08557 0
M  V30 9166 H 897.813 -4.51623 -2.66715 0
M  V30 9167 H 899.287 -3.64951 -4.14144 0
M  V30 9168 H 899.764 -1.96688 -3.92696 0
M  V30 9169 H 900.37 -3.20176 -2.79942 0
M  V30 9170 N 898.685 0.775411 -1.37205 0
M  V30 9171 C 899.913 1.56446 -1.35397 0
M  V30 9172 C 900.328 1.887 0.0615437 0
M  V30 9173 O 899.685 1.51178 1.02233 0
M  V30 9174 C 899.736 2.87697 -2.18889 0
M  V30 9175 O 899.457 2.56828 -3.54924 0
M  V30 9176 C 900.958 3.81944 -2.25019 0
M  V30 9177 H 898.178 0.484792 -0.463916 0
M  V30 9178 H 900.722 0.961346 -1.80495 0
M  V30 9179 H 898.877 3.44442 -1.7731 0
M  V30 9180 H 899.291 3.40851 -3.98649 0
M  V30 9181 H 900.765 4.71055 -2.87769 0
M  V30 9182 H 901.242 4.20811 -1.25757 0
M  V30 9183 H 901.848 3.3113 -2.66895 0
M  V30 9184 N 900.163 1.21714 1.00117 0
M  V30 9185 C 901.574 1.03477 1.55401 0
M  V30 9186 C 901.925 -0.40429 1.91989 0
M  V30 9187 O 901.05 -1.28807 1.7389 0
M  V30 9188 C 901.645 1.87213 2.82377 0
M  V30 9189 C 900.204 1.73297 3.34133 0
M  V30 9190 C 899.351 1.84189 2.07291 0
M  V30 9191 H 902.302 1.3568 0.823195 0
M  V30 9192 H 902.323 1.38465 3.54412 0
M  V30 9193 H 901.835 2.91944 2.55715 0
M  V30 9194 H 899.936 0.712662 3.65721 0
M  V30 9195 H 900.049 2.55486 4.05294 0
M  V30 9196 H 898.413 1.27538 2.20468 0
M  V30 9197 H 899.196 2.90435 1.83037 0
M  V30 9198 N 901.641 -1.19671 1.02551 0
M  V30 9199 C 903.052 -1.70964 0.750208 0
M  V30 9200 C 903.403 -1.82095 -0.730461 0
M  V30 9201 O 902.528 -1.48974 -1.56958 0
M  V30 9202 C 903.123 -3.10516 1.35518 0
M  V30 9203 C 901.682 -3.59083 1.12854 0
M  V30 9204 C 900.829 -2.36041 1.45534 0
M  V30 9205 H 903.78 -1.04559 1.19386 0
M  V30 9206 H 903.801 -3.73028 0.750378 0
M  V30 9207 H 903.313 -3.02383 2.43282 0
M  V30 9208 H 901.414 -3.72536 0.0689627 0
M  V30 9209 H 901.527 -4.43395 1.81488 0
M  V30 9210 H 899.891 -2.39214 0.87458 0
M  V30 9211 H 900.674 -2.3054 2.54374 0
M  V30 9212 N 903.119 -0.802921 -1.35613 0
M  V30 9213 C 904.349 -0.393359 -2.02821 0
M  V30 9214 C 904.757 0.999282 -1.60658 0
M  V30 9215 O 904.1 1.65463 -0.797977 0
M  V30 9216 C 904.162 -0.393102 -3.57344 0
M  V30 9217 C 903.826 -1.73563 -4.22759 0
M  V30 9218 C 904.823 -2.69333 -4.44698 0
M  V30 9219 C 902.508 -2.01863 -4.59953 0
M  V30 9220 C 904.502 -3.91589 -5.02928 0
M  V30 9221 C 902.189 -3.24383 -5.17898 0
M  V30 9222 C 903.187 -4.19064 -5.39328 0
M  V30 9223 O 902.875 -5.39422 -5.96053 0
M  V30 9224 H 902.607 -0.158431 -0.657172 0
M  V30 9225 H 905.161 -1.08682 -1.74291 0
M  V30 9226 H 903.391 0.356934 -3.85049 0
M  V30 9227 H 905.08 -0.00635596 -4.059 0
M  V30 9228 H 905.846 -2.48759 -4.16346 0
M  V30 9229 H 901.725 -1.28979 -4.42589 0
M  V30 9230 H 905.269 -4.65502 -5.1957 0
M  V30 9231 H 901.166 -3.44829 -5.45677 0
M  V30 9232 H 901.934 -5.40669 -6.14507 0
M  V30 9233 N 904.597 1.47463 -0.556102 0
M  V30 9234 C 905.544 2.29998 0.192213 0
M  V30 9235 C 906.514 1.38993 0.909403 0
M  V30 9236 O 907.699 1.67954 0.905316 0
M  V30 9237 C 904.839 3.22932 1.21692 0
M  V30 9238 C 903.952 4.29027 0.505908 0
M  V30 9239 C 903.087 5.09114 1.51581 0
M  V30 9240 C 902.126 6.06984 0.789714 0
M  V30 9241 N 901.263 6.80033 1.74639 0
M  V30 9242 H 906.103 2.93468 -0.517734 0
M  V30 9243 H 903.64 1.44654 -0.267147 0
M  V30 9244 H 905.598 3.75234 1.8236 0
M  V30 9245 H 904.228 2.61329 1.89491 0
M  V30 9246 H 903.28 3.7979 -0.215276 0
M  V30 9247 H 904.592 4.9876 -0.062958 0
M  V30 9248 H 903.746 5.6556 2.19606 0
M  V30 9249 H 902.485 4.3928 2.11859 0
M  V30 9250 H 901.49 5.49717 0.0955382 0
M  V30 9251 H 902.715 6.78827 0.192688 0
M  V30 9252 H 900.661 6.12931 2.33777 0
M  V30 9253 H 900.578 7.45933 1.22965 0
M  V30 9254 H 901.846 7.41054 2.41782 0
M  V30 9255 N 906.075 0.2925 1.54862 0
M  V30 9256 C 907.486 -0.201841 1.85606 0
M  V30 9257 C 907.837 -1.54093 1.21449 0
M  V30 9258 O 906.962 -2.10327 0.509079 0
M  V30 9259 C 907.557 -0.373011 3.3674 0
M  V30 9260 C 906.116 -0.811574 3.67547 0
M  V30 9261 C 905.263 0.0850583 2.7717 0
M  V30 9262 H 908.214 0.513774 1.50153 0
M  V30 9263 H 908.235 -1.20892 3.60785 0
M  V30 9264 H 907.747 0.601751 3.83407 0
M  V30 9265 H 905.848 -1.79719 3.26392 0
M  V30 9266 H 905.961 -0.636853 4.74848 0
M  V30 9267 H 904.325 -0.434224 2.50971 0
M  V30 9268 H 905.108 1.05602 3.26654 0
M  V30 9269 N 907.553 -1.57587 0.0200696 0
M  V30 9270 C 908.781 -1.95718 -0.670964 0
M  V30 9271 C 909.196 -0.896081 -1.6618 0
M  V30 9272 O 908.553 0.123037 -1.82085 0
M  V30 9273 C 908.604 -3.33904 -1.38529 0
M  V30 9274 O 908.325 -4.35943 -0.434167 0
M  V30 9275 C 909.826 -3.86614 -2.16898 0
M  V30 9276 H 907.046 -0.644819 -0.185606 0
M  V30 9277 H 909.59 -2.04354 0.0771495 0
M  V30 9278 H 907.745 -3.26515 -2.08487 0
M  V30 9279 H 908.159 -5.16001 -0.940378 0
M  V30 9280 H 909.633 -4.85673 -2.62346 0
M  V30 9281 H 910.11 -3.20379 -3.00423 0
M  V30 9282 H 910.716 -3.97243 -1.51916 0
M  V30 9283 N 909.032 0.252966 -1.55557 0
M  V30 9284 C 909.942 1.33472 -1.92931 0
M  V30 9285 C 910.958 1.52983 -0.828985 0
M  V30 9286 O 912.134 1.66723 -1.12984 0
M  V30 9287 C 909.199 2.6704 -2.21112 0
M  V30 9288 C 908.26 2.56103 -3.44542 0
M  V30 9289 C 907.493 3.83302 -3.71369 0
M  V30 9290 O 907.716 4.84907 -3.00368 0
M  V30 9291 O 906.65 3.823 -4.64898 0
M  V30 9292 H 910.476 1.04768 -2.85057 0
M  V30 9293 H 908.061 0.453208 -1.4236 0
M  V30 9294 H 909.943 3.45981 -2.40572 0
M  V30 9295 H 908.618 2.95489 -1.32166 0
M  V30 9296 H 907.525 1.7547 -3.30396 0
M  V30 9297 H 908.858 2.32601 -4.33772 0
M  V30 9298 N 910.51 1.48831 0.518367 0
M  V30 9299 C 911.42 1.6692 1.64848 0
M  V30 9300 C 912.436 0.551711 1.65022 0
M  V30 9301 O 913.612 0.824251 1.83761 0
M  V30 9302 C 910.677 1.71559 3.01278 0
M  V30 9303 C 909.738 2.9502 3.11868 0
M  V30 9304 C 908.971 2.99428 4.4179 0
M  V30 9305 O 909.194 2.11914 5.29574 0
M  V30 9306 O 908.128 3.91719 4.5699 0
M  V30 9307 H 911.954 2.62623 1.52521 0
M  V30 9308 H 909.539 1.32368 0.692749 0
M  V30 9309 H 911.421 1.77064 3.82396 0
M  V30 9310 H 910.096 0.790316 3.13904 0
M  V30 9311 H 909.003 2.95042 2.30003 0
M  V30 9312 H 910.336 3.8697 3.04163 0
M  V30 9313 N 911.988 -0.768124 1.37614 0
M  V30 9314 C 913.265 -1.51637 1.23554 0
M  V30 9315 C 913.645 -2.1042 -0.169331 0
M  V30 9316 O 912.993 -1.95834 -1.17735 0
M  V30 9317 C 913.203 -2.59436 2.33439 0
M  V30 9318 C 914.551 -3.2674 2.71157 0
M  V30 9319 O 915.575 -2.69733 2.32642 0
M  V30 9320 O 914.434 -4.29814 3.37524 0
M  V30 9321 H 911.528 -0.671778 0.482332 0
M  V30 9322 H 914.074 -0.804779 1.49403 0
M  V30 9323 H 912.846 -2.14146 3.27502 0
M  V30 9324 H 912.469 -3.38192 2.09073 0
M  V30 9325 N 913.466 -1.22244 -0.994698 0
M  V30 9326 C 914.877 -1.043 -1.5485 0
M  V30 9327 C 915.228 0.394102 -1.92201 0
M  V30 9328 O 914.353 1.27883 -1.74571 0
M  V30 9329 C 914.948 -1.88708 -2.8138 0
M  V30 9330 C 913.507 -1.75067 -3.3321 0
M  V30 9331 C 912.654 -1.85286 -2.06312 0
M  V30 9332 H 915.605 -1.36115 -0.815988 0
M  V30 9333 H 915.626 -1.40342 -3.53673 0
M  V30 9334 H 915.138 -2.93296 -2.54164 0
M  V30 9335 H 913.239 -0.732047 -3.65338 0
M  V30 9336 H 913.352 -2.57632 -4.03934 0
M  V30 9337 H 911.716 -1.28706 -2.19788 0
M  V30 9338 H 912.499 -2.91401 -1.81494 0
M  V30 9339 N 914.944 1.19125 -1.03184 0
M  V30 9340 C 916.191 1.88883 -0.730029 0
M  V30 9341 C 916.519 1.79807 0.741602 0
M  V30 9342 O 915.774 1.18686 1.55603 0
M  V30 9343 C 916.073 3.39052 -1.13041 0
M  V30 9344 C 915.739 3.68332 -2.60082 0
M  V30 9345 C 914.401 3.76033 -3.00254 0
M  V30 9346 C 916.753 3.81423 -3.55199 0
M  V30 9347 C 914.081 3.94296 -4.34451 0
M  V30 9348 C 916.433 4.012 -4.89103 0
M  V30 9349 C 915.097 4.07134 -5.28959 0
M  V30 9350 H 914.367 0.691172 -0.267137 0
M  V30 9351 H 917.014 1.41053 -1.29523 0
M  V30 9352 H 915.319 3.88801 -0.48386 0
M  V30 9353 H 917.016 3.91351 -0.874368 0
M  V30 9354 H 913.606 3.62948 -2.27961 0
M  V30 9355 H 917.79 3.74814 -3.25313 0
M  V30 9356 H 913.046 3.97131 -4.64863 0
M  V30 9357 H 917.22 4.10271 -5.62717 0
M  V30 9358 H 914.847 4.21038 -6.32954 0
M  V30 9359 N 916.422 0.810101 1.35185 0
M  V30 9360 C 917.369 0.220927 2.2974 0
M  V30 9361 C 918.339 -0.647024 1.5298 0
M  V30 9362 O 919.524 -0.591367 1.81404 0
M  V30 9363 C 916.664 -0.62167 3.39454 0
M  V30 9364 C 915.777 0.267104 4.31173 0
M  V30 9365 C 914.912 -0.583833 5.27982 0
M  V30 9366 C 913.951 0.305123 6.11339 0
M  V30 9367 N 913.088 -0.505992 7.00274 0
M  V30 9368 H 917.928 1.03266 2.79536 0
M  V30 9369 H 915.465 0.520768 1.37573 0
M  V30 9370 H 917.423 -1.12539 4.01735 0
M  V30 9371 H 916.053 -1.39863 2.90926 0
M  V30 9372 H 915.105 0.88895 3.69867 0
M  V30 9373 H 916.417 0.951182 4.89647 0
M  V30 9374 H 915.571 -1.15254 5.95652 0
M  V30 9375 H 914.31 -1.30146 4.70014 0
M  V30 9376 H 913.315 0.886075 5.42613 0
M  V30 9377 H 914.54 1.02067 6.71386 0
M  V30 9378 H 912.486 -1.20753 6.4479 0
M  V30 9379 H 912.403 0.119966 7.55905 0
M  V30 9380 H 913.671 -1.05787 7.72288 0
M  V30 9381 N 917.9 -1.47166 0.563914 0
M  V30 9382 C 919.311 -1.86231 0.132307 0
M  V30 9383 C 919.662 -1.46976 -1.29971 0
M  V30 9384 O 918.787 -0.875911 -1.97881 0
M  V30 9385 C 919.382 -3.37996 0.233335 0
M  V30 9386 C 917.941 -3.76127 -0.143278 0
M  V30 9387 C 917.088 -2.71212 0.577857 0
M  V30 9388 H 920.039 -1.38588 0.773249 0
M  V30 9389 H 920.06 -3.76558 -0.546309 0
M  V30 9390 H 919.572 -3.66535 1.27568 0
M  V30 9391 H 917.673 -3.53205 -1.18648 0
M  V30 9392 H 917.786 -4.78595 0.219952 0
M  V30 9393 H 916.15 -2.54692 0.020186 0
M  V30 9394 H 916.933 -3.02593 1.62149 0
M  V30 9395 N 919.378 -0.300708 -1.54705 0
M  V30 9396 C 920.655 0.361757 -1.92226 0
M  V30 9397 C 921.035 1.71714 -1.2279 0
M  V30 9398 O 920.383 2.2559 -0.363542 0
M  V30 9399 C 920.593 0.476699 -3.45729 0
M  V30 9400 C 921.941 0.7477 -4.17965 0
M  V30 9401 O 922.965 0.560521 -3.51762 0
M  V30 9402 O 921.824 1.10724 -5.35166 0
M  V30 9403 H 918.918 0.202213 -0.801897 0
M  V30 9404 H 921.464 -0.348746 -1.66078 0
M  V30 9405 H 920.236 -0.476132 -3.88392 0
M  V30 9406 H 919.859 1.23568 -3.77911 0
M  V30 9407 N 920.856 1.57574 -0.0284266 0
M  V30 9408 C 922.105 1.9095 0.649704 0
M  V30 9409 C 922.418 0.906421 1.7333 0
M  V30 9410 O 923.624 1.1314 2.46803 0
M  V30 9411 C 922.08 3.39061 1.20687 0
M  V30 9412 C 921.688 4.47726 0.156597 0
M  V30 9413 C 923.432 3.81505 1.86156 0
M  V30 9414 C 921.339 5.86935 0.725365 0
M  V30 9415 H 920.269 0.712589 0.24644 0
M  V30 9416 H 922.92 1.83261 -0.0936143 0
M  V30 9417 H 921.302 3.41679 2.00178 0
M  V30 9418 H 922.476 4.56667 -0.6158 0
M  V30 9419 H 920.791 4.14481 -0.399288 0
M  V30 9420 H 923.388 4.82865 2.29665 0
M  V30 9421 H 923.731 3.16529 2.70398 0
M  V30 9422 H 924.264 3.81307 1.13356 0
M  V30 9423 H 921.003 6.55453 -0.0789081 0
M  V30 9424 H 920.523 5.81602 1.46627 0
M  V30 9425 H 922.202 6.35483 1.21532 0
M  V30 9426 N 922.334 -0.244713 1.55689 0
M  V30 9427 C 923.281 -1.30301 1.905 0
M  V30 9428 C 924.251 -1.4772 0.759478 0
M  V30 9429 O 925.436 -1.61667 1.01333 0
M  V30 9430 C 922.576 -2.653 2.20703 0
M  V30 9431 C 921.689 -2.55872 3.48071 0
M  V30 9432 C 920.824 -3.83238 3.67834 0
M  V30 9433 C 919.863 -3.68436 4.88796 0
M  V30 9434 N 919 -4.877 5.05068 0
M  V30 9435 H 923.84 -0.999143 2.80751 0
M  V30 9436 H 921.377 -0.482099 1.38976 0
M  V30 9437 H 923.335 -3.43884 2.36219 0
M  V30 9438 H 921.965 -2.93831 1.33653 0
M  V30 9439 H 921.017 -1.68846 3.40874 0
M  V30 9440 H 922.329 -2.40845 4.36801 0
M  V30 9441 H 921.483 -4.70266 3.83321 0
M  V30 9442 H 920.222 -4.01165 2.77341 0
M  V30 9443 H 919.227 -2.79793 4.73282 0
M  V30 9444 H 920.452 -3.52003 5.8075 0
M  V30 9445 H 918.398 -5.05983 4.17513 0
M  V30 9446 H 918.315 -4.75312 5.8789 0
M  V30 9447 H 919.583 -5.76219 5.24969 0
M  V30 9448 N 923.813 -1.49104 -0.510467 0
M  V30 9449 C 924.763 -1.6147 -1.6097 0
M  V30 9450 C 925.747 -0.470797 -1.53858 0
M  V30 9451 O 926.939 -0.723266 -1.61548 0
M  V30 9452 C 924.068 -1.67575 -2.99622 0
M  V30 9453 C 923.154 -2.87511 -3.11766 0
M  V30 9454 N 923.545 -4.11704 -2.93826 0
M  V30 9455 C 921.843 -2.85251 -3.42852 0
M  V30 9456 C 922.544 -4.92276 -3.09902 0
M  V30 9457 N 921.52 -4.2546 -3.38355 0
M  V30 9458 H 925.322 -2.5522 -1.45739 0
M  V30 9459 H 922.836 -1.45745 -0.716383 0
M  V30 9460 H 924.833 -1.74531 -3.78609 0
M  V30 9461 H 923.493 -0.749557 -3.1593 0
M  V30 9462 H 924.504 -4.41834 -2.70191 0
M  V30 9463 H 921.181 -2.0197 -3.65396 0
M  V30 9464 H 922.571 -6.00905 -3.00604 0
M  V30 9465 N 925.291 0.760815 -1.38019 0
M  V30 9466 C 926.516 1.55513 -1.37224 0
M  V30 9467 C 926.941 1.88062 0.037611 0
M  V30 9468 O 926.299 1.50042 1.0177 0
M  V30 9469 C 926.347 2.83539 -2.22796 0
M  V30 9470 O 925.451 3.78384 -1.64009 0
M  V30 9471 H 924.792 0.470642 -0.468393 0
M  V30 9472 H 927.322 0.940792 -1.81687 0
M  V30 9473 H 927.332 3.32535 -2.36399 0
M  V30 9474 H 926.007 2.59178 -3.25269 0
M  V30 9475 H 924.584 3.37063 -1.59508 0
M  V30 9476 N 926.769 1.22769 0.988202 0
M  V30 9477 C 927.699 1.02627 2.09738 0
M  V30 9478 C 928.68 -0.0543211 1.70013 0
M  V30 9479 O 929.865 0.108811 1.93895 0
M  V30 9480 C 926.995 0.608302 3.41931 0
M  V30 9481 C 925.949 1.63536 3.95525 0
M  V30 9482 C 925.275 1.07308 5.23822 0
M  V30 9483 C 926.575 3.02649 4.25677 0
M  V30 9484 H 928.269 1.954 2.26847 0
M  V30 9485 H 925.815 0.940888 1.09011 0
M  V30 9486 H 927.768 0.454478 4.18942 0
M  V30 9487 H 926.492 -0.355095 3.24664 0
M  V30 9488 H 925.151 1.77704 3.20651 0
M  V30 9489 H 924.799 0.100894 5.02899 0
M  V30 9490 H 924.499 1.75925 5.60646 0
M  V30 9491 H 926.023 0.930938 6.03462 0
M  V30 9492 H 927.437 2.91828 4.93467 0
M  V30 9493 H 925.834 3.68434 4.73684 0
M  V30 9494 H 926.904 3.52228 3.33262 0
M  V30 9495 N 928.247 -1.18576 1.03814 0
M  V30 9496 C 929.495 -1.88121 0.738574 0
M  V30 9497 C 929.816 -1.80587 -0.735744 0
M  V30 9498 O 929.086 -1.22251 -1.53074 0
M  V30 9499 H 927.666 -0.696417 0.270208 0
M  V30 9500 H 930.328 -1.43912 1.31435 0
M  V30 9501 H 929.424 -2.94222 1.04115 0
M  V30 9502 N 929.725 -0.817259 -1.34754 0
M  V30 9503 C 930.672 -0.233108 -2.2962 0
M  V30 9504 C 931.642 0.638902 -1.53321 0
M  V30 9505 O 932.827 0.581739 -1.81715 0
M  V30 9506 C 929.967 0.603659 -3.39779 0
M  V30 9507 C 929.08 -0.289967 -4.31026 0
M  V30 9508 C 928.215 0.555825 -5.28284 0
M  V30 9509 C 927.254 -0.337539 -6.11169 0
M  V30 9510 N 926.391 0.468847 -7.00533 0
M  V30 9511 H 931.231 -1.04747 -2.78984 0
M  V30 9512 H 928.768 -0.528056 -1.37295 0
M  V30 9513 H 930.726 1.10407 -4.02326 0
M  V30 9514 H 929.356 1.38319 -2.91664 0
M  V30 9515 H 928.408 -0.908552 -3.69391 0
M  V30 9516 H 929.72 -0.977136 -4.89135 0
M  V30 9517 H 928.874 1.12094 -5.96255 0
M  V30 9518 H 927.613 1.27652 -4.70698 0
M  V30 9519 H 926.618 -0.914839 -5.42135 0
M  V30 9520 H 927.843 -1.05626 -6.70835 0
M  V30 9521 H 925.789 1.17332 -6.45422 0
M  V30 9522 H 925.706 -0.160052 -7.55831 0
M  V30 9523 H 926.974 1.01689 -7.72839 0
M  V30 9524 N 931.203 1.46865 -0.571711 0
M  V30 9525 C 932.113 2.33979 0.170571 0
M  V30 9526 C 933.129 1.49083 0.897239 0
M  V30 9527 O 934.305 1.81979 0.862888 0
M  V30 9528 C 931.37 3.26063 1.17831 0
M  V30 9529 C 930.431 4.26855 0.457499 0
M  V30 9530 C 929.664 5.14539 1.41722 0
M  V30 9531 O 929.887 5.04945 2.65305 0
M  V30 9532 O 928.821 5.94612 0.9338 0
M  V30 9533 H 932.647 2.98781 -0.544396 0
M  V30 9534 H 930.232 1.4566 -0.332198 0
M  V30 9535 H 932.114 3.82903 1.75965 0
M  V30 9536 H 930.789 2.63871 1.87493 0
M  V30 9537 H 929.696 3.73734 -0.165406 0
M  V30 9538 H 931.029 4.91802 -0.197953 0
M  V30 9539 N 932.681 0.308908 1.54543 0
M  V30 9540 C 933.93 -0.298854 1.99474 0
M  V30 9541 C 934.243 -1.54393 1.20093 0
M  V30 9542 O 935.449 -2.22677 1.55329 0
M  V30 9543 C 933.905 -0.58303 3.55146 0
M  V30 9544 C 933.513 0.644157 4.43345 0
M  V30 9545 C 935.257 -1.15155 4.08582 0
M  V30 9546 C 933.164 0.332694 5.90463 0
M  V30 9547 H 932.094 -0.115445 0.74511 0
M  V30 9548 H 934.745 0.418848 1.78656 0
M  V30 9549 H 933.127 -1.36053 3.71894 0
M  V30 9550 H 934.301 1.42012 4.38371 0
M  V30 9551 H 932.616 1.13186 4.00722 0
M  V30 9552 H 935.213 -1.39896 5.16075 0
M  V30 9553 H 935.556 -2.09632 3.59667 0
M  V30 9554 H 936.089 -0.435571 3.95408 0
M  V30 9555 H 932.828 1.24624 6.43544 0
M  V30 9556 H 932.348 -0.405844 5.98425 0
M  V30 9557 H 934.027 -0.0628545 6.46969 0
M  V30 9558 N 934.159 -1.57557 0.0367827 0
M  V30 9559 C 935.122 -2.09591 -0.927589 0
M  V30 9560 C 936.122 -1.01252 -1.24919 0
M  V30 9561 O 937.312 -1.27382 -1.18825 0
M  V30 9562 C 934.444 -2.56816 -2.24184 0
M  V30 9563 H 935.637 -2.96086 -0.476784 0
M  V30 9564 H 933.19 -1.54864 -0.211385 0
M  V30 9565 H 933.925 -1.73673 -2.73876 0
M  V30 9566 H 933.71 -3.35973 -2.0215 0
M  V30 9567 H 935.2 -2.97271 -2.93291 0
M  V30 9568 N 935.637 0.236453 -1.55816 0
M  V30 9569 C 936.567 1.29639 -1.94206 0
M  V30 9570 C 937.548 1.49667 -0.808319 0
M  V30 9571 O 938.733 1.621 -1.06945 0
M  V30 9572 C 935.863 2.64914 -2.24584 0
M  V30 9573 C 934.817 2.59565 -3.40308 0
M  V30 9574 C 934.143 3.98732 -3.56254 0
M  V30 9575 C 935.443 2.15642 -4.75706 0
M  V30 9576 H 937.137 0.977552 -2.82992 0
M  V30 9577 H 934.683 0.468804 -1.36155 0
M  V30 9578 H 936.636 3.39209 -2.50031 0
M  V30 9579 H 935.36 2.98455 -1.32636 0
M  V30 9580 H 934.019 1.87728 -3.14887 0
M  V30 9581 H 933.667 4.29556 -2.61707 0
M  V30 9582 H 933.367 3.96039 -4.34082 0
M  V30 9583 H 934.891 4.74711 -3.84033 0
M  V30 9584 H 936.305 2.79673 -5.00456 0
M  V30 9585 H 934.702 2.24039 -5.56711 0
M  V30 9586 H 935.772 1.10831 -4.72064 0
M  V30 9587 N 937.115 1.49373 0.502552 0
M  V30 9588 C 938.34 1.62752 1.28556 0
M  V30 9589 C 938.765 0.298285 1.8572 0
M  V30 9590 O 938.123 -0.733885 1.65782 0
M  V30 9591 C 938.171 2.69778 2.39274 0
M  V30 9592 O 937.275 2.28843 3.43081 0
M  V30 9593 H 936.616 0.544799 0.379592 0
M  V30 9594 H 939.146 1.9555 0.601792 0
M  V30 9595 H 939.156 2.91899 2.8506 0
M  V30 9596 H 937.831 3.66266 1.97033 0
M  V30 9597 H 936.408 2.17047 3.03224 0
M  V30 9598 N 938.594 -0.753485 1.38421 0
M  V30 9599 C 939.524 -1.8808 1.38377 0
M  V30 9600 C 940.505 -1.68258 0.249664 0
M  V30 9601 O 941.69 -1.88848 0.45276 0
M  V30 9602 C 938.82 -3.25608 1.20818 0
M  V30 9603 C 937.774 -3.60032 2.31433 0
M  V30 9604 C 937.1 -4.96297 1.9898 0
M  V30 9605 C 938.4 -3.64898 3.73694 0
M  V30 9606 H 940.094 -1.88375 2.32713 0
M  V30 9607 H 937.64 -0.90489 1.12017 0
M  V30 9608 H 939.593 -4.04127 1.19412 0
M  V30 9609 H 938.317 -3.25793 0.229433 0
M  V30 9610 H 936.976 -2.83831 2.32025 0
M  V30 9611 H 936.624 -4.93043 0.995889 0
M  V30 9612 H 936.324 -5.20298 2.73063 0
M  V30 9613 H 937.848 -5.77196 1.99193 0
M  V30 9614 H 939.262 -4.33531 3.75132 0
M  V30 9615 H 937.659 -4.00407 4.46983 0
M  V30 9616 H 938.729 -2.65124 4.06002 0
M  V30 9617 N 940.072 -1.23292 -0.981677 0
M  V30 9618 C 941.483 -1.05936 -1.53735 0
M  V30 9619 C 941.834 0.373695 -1.92608 0
M  V30 9620 O 940.959 1.26024 -1.75917 0
M  V30 9621 C 941.554 -1.91682 -2.79363 0
M  V30 9622 C 940.113 -1.78591 -3.31334 0
M  V30 9623 C 939.26 -1.87463 -2.04335 0
M  V30 9624 H 942.211 -1.36973 -0.801505 0
M  V30 9625 H 942.232 -1.44085 -3.52164 0
M  V30 9626 H 941.744 -2.95975 -2.51039 0
M  V30 9627 H 939.845 -0.770755 -3.64541 0
M  V30 9628 H 939.958 -2.61902 -4.01179 0
M  V30 9629 H 938.322 -1.3103 -2.18411 0
M  V30 9630 H 939.105 -2.9331 -1.78394 0
M  V30 9631 N 941.55 1.18024 -1.04442 0
M  V30 9632 C 942.775 1.92573 -0.770097 0
M  V30 9633 C 943.2 1.75871 0.667169 0
M  V30 9634 O 942.558 1.07136 1.46258 0
M  V30 9635 C 942.606 3.41904 -1.14602 0
M  V30 9636 O 941.71 4.11491 -0.273712 0
M  V30 9637 H 941.051 0.600636 -0.283076 0
M  V30 9638 H 943.581 1.49645 -1.39526 0
M  V30 9639 H 943.591 3.92623 -1.10956 0
M  V30 9640 H 942.266 3.53382 -2.19304 0
M  V30 9641 H 940.843 3.71059 -0.370124 0
M  V30 9642 N 943.028 0.824394 1.34319 0
M  V30 9643 C 944.439 0.471802 1.8064 0
M  V30 9644 C 944.79 -1.00793 1.6833 0
M  V30 9645 O 943.915 -1.78447 1.22416 0
M  V30 9646 C 944.51 0.849609 3.27974 0
M  V30 9647 C 943.069 0.549365 3.72369 0
M  V30 9648 C 942.216 1.06573 2.56003 0
M  V30 9649 H 945.167 1.01443 1.22045 0
M  V30 9650 H 945.188 0.153968 3.80188 0
M  V30 9651 H 944.7 1.92663 3.36902 0
M  V30 9652 H 942.801 -0.518182 3.68979 0
M  V30 9653 H 942.914 1.09446 4.66432 0
M  V30 9654 H 941.278 0.487214 2.49997 0
M  V30 9655 H 942.061 2.14923 2.677 0
M  V30 9656 N 944.506 -1.46559 0.579492 0
M  V30 9657 C 945.416 -2.34066 -0.15816 0
M  V30 9658 C 946.432 -1.49556 -0.88932 0
M  V30 9659 O 947.608 -1.82434 -0.853226 0
M  V30 9660 C 944.673 -3.26683 -1.161 0
M  V30 9661 C 943.734 -4.27092 -0.434855 0
M  V30 9662 C 942.967 -5.15283 -1.38992 0
M  V30 9663 O 943.19 -5.06345 -2.62623 0
M  V30 9664 O 942.124 -5.95099 -0.902253 0
M  V30 9665 H 945.95 -2.98488 0.560234 0
M  V30 9666 H 943.535 -1.45482 0.339918 0
M  V30 9667 H 945.417 -3.8383 -1.73932 0
M  V30 9668 H 944.092 -2.64862 -1.86091 0
M  V30 9669 H 942.999 -3.73641 0.185224 0
M  V30 9670 H 944.332 -4.9169 0.224031 0
M  V30 9671 N 945.984 -0.3171 -1.54377 0
M  V30 9672 C 947.232 0.286842 -2.00054 0
M  V30 9673 C 947.553 1.53161 -1.20692 0
M  V30 9674 O 946.823 1.93479 -0.307045 0
M  V30 9675 H 945.403 0.108979 -0.739008 0
M  V30 9676 H 948.065 -0.432152 -1.90049 0
M  V30 9677 H 947.161 0.547729 -3.07256 0
M  V30 9678 N 947.462 1.57535 -0.0451378 0
M  V30 9679 C 948.392 2.14208 0.929372 0
M  V30 9680 C 949.373 1.06221 1.32858 0
M  V30 9681 O 950.558 1.34132 1.40436 0
M  V30 9682 C 947.688 2.68217 2.20629 0
M  V30 9683 C 946.642 3.81134 1.94734 0
M  V30 9684 C 945.968 4.21636 3.28828 0
M  V30 9685 C 947.268 5.06531 1.27374 0
M  V30 9686 H 948.962 2.95886 0.457348 0
M  V30 9687 H 946.508 1.42332 0.218544 0
M  V30 9688 H 948.461 3.06502 2.89196 0
M  V30 9689 H 947.185 1.83722 2.70026 0
M  V30 9690 H 945.844 3.43312 1.28579 0
M  V30 9691 H 945.492 3.34099 3.76014 0
M  V30 9692 H 945.192 4.97736 3.12302 0
M  V30 9693 H 946.716 4.62516 3.98637 0
M  V30 9694 H 948.13 5.423 1.85967 0
M  V30 9695 H 946.527 5.87735 1.21194 0
M  V30 9696 H 947.597 4.84261 0.248913 0
M  V30 9697 N 948.94 -0.228186 1.55939 0
M  V30 9698 C 950.165 -0.974795 1.83064 0
M  V30 9699 C 950.59 -1.77426 0.624624 0
M  V30 9700 O 949.948 -1.76211 -0.426556 0
M  V30 9701 C 949.996 -1.87342 3.08116 0
M  V30 9702 O 949.1 -2.96784 2.86344 0
M  V30 9703 H 948.441 -0.276379 0.603747 0
M  V30 9704 H 950.971 -0.243507 2.03146 0
M  V30 9705 H 950.981 -2.28451 3.38045 0
M  V30 9706 H 949.656 -1.28575 3.95526 0
M  V30 9707 H 948.233 -2.59669 2.67631 0
M  V30 9708 N 950.418 -1.49637 -0.494624 0
M  V30 9709 C 951.348 -1.69692 -1.60396 0
M  V30 9710 C 952.329 -0.545648 -1.61111 0
M  V30 9711 O 953.514 -0.782202 -1.77751 0
M  V30 9712 C 950.644 -1.76934 -2.9885 0
M  V30 9713 C 949.598 -2.91915 -3.13001 0
M  V30 9714 C 948.924 -2.84276 -4.5287 0
M  V30 9715 C 950.224 -4.32764 -2.92426 0
M  V30 9716 H 951.918 -2.6257 -1.43866 0
M  V30 9717 H 949.464 -1.26355 -0.690679 0
M  V30 9718 H 951.417 -1.8955 -3.76362 0
M  V30 9719 H 950.141 -0.806609 -3.16483 0
M  V30 9720 H 948.8 -2.78911 -2.37916 0
M  V30 9721 H 948.448 -1.85897 -4.67388 0
M  V30 9722 H 948.148 -3.61452 -4.63278 0
M  V30 9723 H 949.672 -2.98909 -5.32434 0
M  V30 9724 H 951.086 -4.46415 -3.59703 0
M  V30 9725 H 949.483 -5.1121 -3.143 0
M  V30 9726 H 950.553 -4.46765 -1.88491 0
M  V30 9727 N 951.896 0.746133 -1.38819 0
M  V30 9728 C 952.843 1.86001 -1.36647 0
M  V30 9729 C 953.813 1.6453 -0.227849 0
M  V30 9730 O 954.998 1.86092 -0.421241 0
M  V30 9731 C 952.138 3.23388 -1.20474 0
M  V30 9732 C 951.251 3.5664 -2.43786 0
M  V30 9733 C 950.386 4.8337 -2.20287 0
M  V30 9734 C 949.425 5.09431 -3.39332 0
M  V30 9735 N 948.562 6.2736 -3.1522 0
M  V30 9736 H 953.402 1.87192 -2.31869 0
M  V30 9737 H 950.939 0.914838 -1.15192 0
M  V30 9738 H 952.897 4.02679 -1.09112 0
M  V30 9739 H 951.527 3.21505 -0.288874 0
M  V30 9740 H 950.579 2.72135 -2.65794 0
M  V30 9741 H 951.891 3.71823 -3.3249 0
M  V30 9742 H 951.045 5.70619 -2.06103 0
M  V30 9743 H 949.784 4.70341 -1.28961 0
M  V30 9744 H 948.789 4.20648 -3.54027 0
M  V30 9745 H 950.014 5.24354 -4.31544 0
M  V30 9746 H 947.96 6.15639 -2.26549 0
M  V30 9747 H 947.877 6.43078 -3.97476 0
M  V30 9748 H 949.145 7.17477 -3.04707 0
M  V30 9749 N 953.375 1.23811 0.975125 0
M  V30 9750 C 954.338 1.02505 2.05001 0
M  V30 9751 C 955.338 -0.0150084 1.60793 0
M  V30 9752 O 956.528 0.225246 1.72738 0
M  V30 9753 C 953.66 0.552087 3.364 0
M  V30 9754 H 954.853 1.979 2.25335 0
M  V30 9755 H 952.406 1.05929 1.1493 0
M  V30 9756 H 953.141 -0.405394 3.21756 0
M  V30 9757 H 952.926 1.30267 3.69828 0
M  V30 9758 H 954.416 0.423828 4.15444 0
M  V30 9759 N 954.853 -1.17469 1.05066 0
M  V30 9760 C 956.081 -1.9162 0.780334 0
M  V30 9761 C 956.496 -1.76745 -0.663817 0
M  V30 9762 O 955.853 -1.10377 -1.45338 0
M  V30 9763 C 955.904 -3.42723 1.14992 0
M  V30 9764 O 955.625 -3.57139 2.53739 0
M  V30 9765 C 957.126 -4.33952 0.905549 0
M  V30 9766 H 954.346 -0.608022 0.283814 0
M  V30 9767 H 956.89 -1.4897 1.401 0
M  V30 9768 H 955.045 -3.83124 0.57403 0
M  V30 9769 H 955.459 -4.5075 2.68189 0
M  V30 9770 H 956.933 -5.38487 1.21391 0
M  V30 9771 H 957.41 -4.38911 -0.159295 0
M  V30 9772 H 958.016 -3.99263 1.46522 0
M  V30 9773 N 956.331 -0.831506 -1.3388 0
M  V30 9774 C 957.742 -0.481375 -1.80388 0
M  V30 9775 C 958.093 0.998993 -1.68863 0
M  V30 9776 O 957.218 1.77795 -1.2336 0
M  V30 9777 C 957.813 -0.86699 -3.27519 0
M  V30 9778 C 956.372 -0.569105 -3.72073 0
M  V30 9779 C 955.519 -1.07929 -2.55434 0
M  V30 9780 H 958.47 -1.02089 -1.21505 0
M  V30 9781 H 958.491 -0.174128 -3.80101 0
M  V30 9782 H 958.003 -1.94447 -3.35875 0
M  V30 9783 H 956.104 0.498607 -3.69249 0
M  V30 9784 H 956.217 -1.11918 -4.65845 0
M  V30 9785 H 954.581 -0.500465 -2.49735 0
M  V30 9786 H 955.364 -2.16339 -2.66556 0
M  V30 9787 N 957.809 1.4625 -0.587256 0
M  V30 9788 C 959.057 2.01963 -0.0744273 0
M  V30 9789 C 959.378 1.46065 1.29189 0
M  V30 9790 O 958.648 0.647077 1.84905 0
M  V30 9791 H 957.228 0.746597 -0.0245236 0
M  V30 9792 H 959.89 1.79299 -0.764063 0
M  V30 9793 H 958.986 3.12099 -0.00884894 0
M  V30 9794 N 959.287 0.325282 1.54207 0
M  V30 9795 C 960.25 -0.527228 2.23054 0
M  V30 9796 C 961.25 -1.04217 1.22456 0
M  V30 9797 O 962.44 -0.934325 1.47024 0
M  V30 9798 C 959.572 -1.7325 2.93594 0
M  V30 9799 H 960.765 0.0746423 2.99807 0
M  V30 9800 H 958.318 0.0763872 1.56113 0
M  V30 9801 H 959.053 -2.37356 2.20981 0
M  V30 9802 H 958.838 -1.37065 3.67363 0
M  V30 9803 H 960.328 -2.3376 3.46043 0
M  V30 9804 N 960.765 -1.57509 0.0534917 0
M  V30 9805 C 961.728 -2.10563 -0.905307 0
M  V30 9806 C 962.728 -1.02571 -1.23838 0
M  V30 9807 O 963.918 -1.28635 -1.17468 0
M  V30 9808 C 961.05 -2.5918 -2.21447 0
M  V30 9809 H 962.243 -2.96575 -0.445354 0
M  V30 9810 H 959.796 -1.55079 -0.194947 0
M  V30 9811 H 960.531 -1.76568 -2.72019 0
M  V30 9812 H 960.316 -3.38098 -1.98575 0
M  V30 9813 H 961.806 -3.00365 -2.90122 0
M  V30 9814 N 962.243 0.219913 -1.56058 0
M  V30 9815 C 963.193 1.27606 -1.88946 0
M  V30 9816 C 964.177 1.42209 -0.752691 0
M  V30 9817 O 965.369 1.44996 -1.01514 0
M  V30 9818 C 962.498 2.62614 -2.21108 0
M  V30 9819 C 961.584 2.51906 -3.4118 0
M  V30 9820 N 961.975 2.10851 -4.59756 0
M  V30 9821 C 960.273 2.82861 -3.44827 0
M  V30 9822 C 960.974 2.11434 -5.41914 0
M  V30 9823 N 959.95 2.51985 -4.81669 0
M  V30 9824 H 963.752 0.94957 -2.78137 0
M  V30 9825 H 961.266 0.428468 -1.56646 0
M  V30 9826 H 963.263 3.38869 -2.42844 0
M  V30 9827 H 961.923 2.96108 -1.3323 0
M  V30 9828 H 962.934 1.81956 -4.84884 0
M  V30 9829 H 959.611 3.20716 -2.67297 0
M  V30 9830 H 961.001 1.81803 -6.46836 0
M  V30 9831 N 963.721 1.49897 0.486681 0
M  V30 9832 C 964.668 1.67619 1.58658 0
M  V30 9833 C 965.638 0.517537 1.57831 0
M  V30 9834 O 966.823 0.746272 1.756 0
M  V30 9835 C 963.963 1.762 2.96728 0
M  V30 9836 C 963.076 3.03465 3.07462 0
M  V30 9837 C 962.211 3.02937 4.36351 0
M  V30 9838 C 961.25 4.24721 4.4077 0
M  V30 9839 N 960.387 4.22021 5.61108 0
M  V30 9840 H 965.227 2.61528 1.42853 0
M  V30 9841 H 962.764 1.29657 0.694807 0
M  V30 9842 H 964.722 1.79156 3.76774 0
M  V30 9843 H 963.352 0.857452 3.11203 0
M  V30 9844 H 962.404 3.10054 2.20387 0
M  V30 9845 H 963.716 3.93454 3.06586 0
M  V30 9846 H 962.87 3.04536 5.24731 0
M  V30 9847 H 961.609 2.10751 4.39813 0
M  V30 9848 H 960.614 4.23352 3.5079 0
M  V30 9849 H 961.839 5.18116 4.39013 0
M  V30 9850 H 959.785 3.3268 5.65385 0
M  V30 9851 H 959.702 5.05761 5.61909 0
M  V30 9852 H 960.97 4.27743 6.51656 0
M  V30 9853 N 965.199 -0.738761 1.39212 0
M  V30 9854 C 966.129 -1.86602 1.40364 0
M  V30 9855 C 967.11 -1.67984 0.267495 0
M  V30 9856 O 968.295 -1.88358 0.472765 0
M  V30 9857 C 965.425 -3.24308 1.24265 0
M  V30 9858 C 964.379 -3.57557 2.35239 0
M  V30 9859 C 963.705 -4.94159 2.04233 0
M  V30 9860 C 965.005 -3.60914 3.77543 0
M  V30 9861 H 966.699 -1.85896 2.34698 0
M  V30 9862 H 964.245 -0.892959 1.1297 0
M  V30 9863 H 966.198 -4.02838 1.23692 0
M  V30 9864 H 964.922 -3.25531 0.263974 0
M  V30 9865 H 963.581 -2.81354 2.35022 0
M  V30 9866 H 963.229 -4.91959 1.04813 0
M  V30 9867 H 962.929 -5.17373 2.78567 0
M  V30 9868 H 964.453 -5.7505 2.05303 0
M  V30 9869 H 965.867 -4.29528 3.79709 0
M  V30 9870 H 964.264 -3.95644 4.51205 0
M  V30 9871 H 965.334 -2.60803 4.08791 0
M  V30 9872 N 966.677 -1.24326 -0.968545 0
M  V30 9873 C 968.088 -1.07561 -1.52603 0
M  V30 9874 C 968.439 0.353245 -1.92994 0
M  V30 9875 O 967.564 1.24151 -1.77244 0
M  V30 9876 C 968.159 -1.94634 -2.77314 0
M  V30 9877 C 966.718 -1.82095 -3.29421 0
M  V30 9878 C 965.865 -1.8962 -2.02335 0
M  V30 9879 H 968.816 -1.37815 -0.786932 0
M  V30 9880 H 968.837 -1.47812 -3.50616 0
M  V30 9881 H 968.349 -2.98621 -2.47885 0
M  V30 9882 H 966.45 -0.809376 -3.63703 0
M  V30 9883 H 966.563 -2.66142 -3.98378 0
M  V30 9884 H 964.927 -1.33339 -2.17009 0
M  V30 9885 H 965.71 -2.95185 -1.75273 0
M  V30 9886 N 968.156 1.1691 -1.05688 0
M  V30 9887 C 969.103 2.21095 -0.662246 0
M  V30 9888 C 970.073 1.62623 0.338083 0
M  V30 9889 O 971.258 1.89428 0.228362 0
M  V30 9890 C 968.398 3.45066 -0.0484018 0
M  V30 9891 C 967.511 4.17809 -1.09817 0
M  V30 9892 C 966.646 5.29281 -0.451114 0
M  V30 9893 C 965.685 5.93817 -1.48484 0
M  V30 9894 N 964.822 6.96793 -0.861588 0
M  V30 9895 H 969.662 2.54204 -1.55513 0
M  V30 9896 H 967.199 1.24863 -0.777665 0
M  V30 9897 H 969.157 4.15932 0.324978 0
M  V30 9898 H 967.787 3.12526 0.807918 0
M  V30 9899 H 966.839 3.45608 -1.58932 0
M  V30 9900 H 968.151 4.61907 -1.88265 0
M  V30 9901 H 967.305 6.06695 -0.0244251 0
M  V30 9902 H 966.044 4.8633 0.365306 0
M  V30 9903 H 965.049 5.1513 -1.92149 0
M  V30 9904 H 966.274 6.38848 -2.30325 0
M  V30 9905 H 964.22 6.55967 -0.0657688 0
M  V30 9906 H 964.137 7.39229 -1.58354 0
M  V30 9907 H 965.405 7.78142 -0.45984 0
M  V30 9908 N 969.634 0.838594 1.33437 0
M  V30 9909 C 970.581 0.269609 2.2922 0
M  V30 9910 C 971.551 -0.614429 1.54318 0
M  V30 9911 O 972.736 -0.552756 1.82618 0
M  V30 9912 C 969.876 -0.549527 3.40697 0
M  V30 9913 C 968.989 0.358502 4.3051 0
M  V30 9914 C 968.124 -0.471709 5.29101 0
M  V30 9915 C 967.163 0.434728 6.10554 0
M  V30 9916 N 966.3 -0.357339 7.0119 0
M  V30 9917 H 971.14 1.09172 2.77282 0
M  V30 9918 H 968.677 0.549832 1.36438 0
M  V30 9919 H 970.635 -1.03992 4.04032 0
M  V30 9920 H 969.265 -1.33661 2.93828 0
M  V30 9921 H 968.317 0.967204 3.67899 0
M  V30 9922 H 969.629 1.05483 4.87519 0
M  V30 9923 H 968.783 -1.02594 5.97963 0
M  V30 9924 H 967.522 -1.20147 4.72669 0
M  V30 9925 H 966.527 1.00097 5.40611 0
M  V30 9926 H 967.752 1.16285 6.6907 0
M  V30 9927 H 965.698 -1.07049 6.47207 0
M  V30 9928 H 965.615 0.280277 7.5548 0
M  V30 9929 H 966.883 -0.893814 7.74359 0
M  V30 9930 N 971.112 -1.45937 0.595003 0
M  V30 9931 C 972.062 -2.27491 -0.152331 0
M  V30 9932 C 973.046 -1.36591 -0.850396 0
M  V30 9933 O 974.238 -1.60675 -0.742462 0
M  V30 9934 C 971.367 -3.23203 -1.15735 0
M  V30 9935 C 970.453 -4.2159 -0.46077 0
M  V30 9936 N 970.844 -5.03416 0.490555 0
M  V30 9937 C 969.142 -4.40313 -0.709949 0
M  V30 9938 C 969.843 -5.74714 0.898825 0
M  V30 9939 N 968.819 -5.43046 0.24529 0
M  V30 9940 H 972.621 -2.8815 0.578526 0
M  V30 9941 H 970.135 -1.56936 0.417716 0
M  V30 9942 H 972.132 -3.8035 -1.70704 0
M  V30 9943 H 970.792 -2.64104 -1.8889 0
M  V30 9944 H 971.803 -5.10597 0.866692 0
M  V30 9945 H 968.48 -3.92351 -1.42713 0
M  V30 9946 H 969.87 -6.50487 1.68273 0
M  V30 9947 N 972.59 -0.333456 -1.54032 0
M  V30 9948 C 974.001 0.15256 -1.86076 0
M  V30 9949 C 974.352 1.50819 -1.25492 0
M  V30 9950 O 973.477 2.08903 -0.564665 0
M  V30 9951 C 974.072 0.283599 -3.37611 0
M  V30 9952 C 972.631 0.713841 -3.69569 0
M  V30 9953 C 971.778 -0.158515 -2.76847 0
M  V30 9954 H 974.729 -0.553404 -1.48738 0
M  V30 9955 H 974.75 1.11284 -3.63863 0
M  V30 9956 H 974.262 -0.703193 -3.81676 0
M  V30 9957 H 972.363 1.71002 -3.31042 0
M  V30 9958 H 972.476 0.510731 -4.7637 0
M  V30 9959 H 970.84 0.367531 -2.52034 0
M  V30 9960 H 971.623 -1.14226 -3.2374 0
M  V30 9961 N 974.068 1.57479 -0.061844 0
M  V30 9962 C 974.978 2.15645 0.923826 0
M  V30 9963 C 975.994 1.117 1.33413 0
M  V30 9964 O 977.17 1.4392 1.40887 0
M  V30 9965 C 974.235 2.69857 2.17665 0
M  V30 9966 C 973.296 3.88638 1.8237 0
M  V30 9967 C 972.529 4.40256 3.01679 0
M  V30 9968 O 972.752 3.90908 4.15388 0
M  V30 9969 O 971.686 5.31713 2.82073 0
M  V30 9970 H 975.512 3.0021 0.459094 0
M  V30 9971 H 973.097 1.48534 0.160665 0
M  V30 9972 H 974.979 3.04647 2.9115 0
M  V30 9973 H 973.654 1.88357 2.63255 0
M  V30 9974 H 972.561 3.58719 1.06167 0
M  V30 9975 H 973.894 4.71401 1.4157 0
M  V30 9976 N 975.546 -0.211634 1.56173 0
M  V30 9977 C 976.962 -0.56177 1.49386 0
M  V30 9978 C 977.162 -1.86666 0.758813 0
M  V30 9979 O 976.218 -2.50681 0.302534 0
M  V30 9980 C 977.531 -0.631815 2.93987 0
M  V30 9981 C 979.079 -0.721773 3.04564 0
M  V30 9982 C 979.554 -0.823075 4.50544 0
M  V30 9983 N 981.045 -0.887038 4.54627 0
M  V30 9984 C 981.78 -0.985304 5.64871 0
M  V30 9985 N 981.276 -1.0469 6.84844 0
M  V30 9986 N 983.069 -1.02121 5.52746 0
M  V30 9987 H 975.22 0.64452 2.02385 0
M  V30 9988 H 977.483 0.227466 0.920306 0
M  V30 9989 H 977.189 0.257592 3.50755 0
M  V30 9990 H 977.063 -1.4921 3.46433 0
M  V30 9991 H 979.45 -1.60162 2.47855 0
M  V30 9992 H 979.531 0.164385 2.55271 0
M  V30 9993 H 979.175 0.0523511 5.07873 0
M  V30 9994 H 979.105 -1.72479 4.97552 0
M  V30 9995 H 981.596 -0.849352 3.68231 0
M  V30 9996 H 981.909 -1.12193 7.64613 0
M  V30 9997 H 980.254 -1.01586 6.87536 0
M  V30 9998 H 983.445 -0.969814 4.57943 0
M  V30 9999 H 983.618 -1.09434 6.38693 0
M  V30 10000 N 977.024 -1.50153 -0.478725 0
M  V30 10001 C 978.249 -1.64776 -1.2595 0
M  V30 10002 C 978.674 -0.327794 -1.85222 0
M  V30 10003 O 978.032 0.707418 -1.66929 0
M  V30 10004 C 978.08 -2.73551 -2.34952 0
M  V30 10005 O 977.184 -2.34273 -3.39397 0
M  V30 10006 H 976.525 -0.550769 -0.370877 0
M  V30 10007 H 979.055 -1.96482 -0.570605 0
M  V30 10008 H 979.065 -2.96397 -2.8038 0
M  V30 10009 H 977.74 -3.69354 -1.91181 0
M  V30 10010 H 976.317 -2.21844 -2.99733 0
M  V30 10011 N 978.502 0.731368 -1.39602 0
M  V30 10012 C 979.412 1.87579 -1.40894 0
M  V30 10013 C 980.428 1.71336 -0.303319 0
M  V30 10014 O 981.604 1.93875 -0.545377 0
M  V30 10015 C 978.669 3.23211 -1.25442 0
M  V30 10016 C 977.73 3.51822 -2.46008 0
M  V30 10017 C 976.963 4.80982 -2.31284 0
M  V30 10018 O 977.186 5.54958 -1.31824 0
M  V30 10019 O 976.12 5.09574 -3.20341 0
M  V30 10020 H 979.946 1.89444 -2.3737 0
M  V30 10021 H 977.531 0.879675 -1.20756 0
M  V30 10022 H 979.413 4.04257 -1.18972 0
M  V30 10023 H 978.088 3.22108 -0.320637 0
M  V30 10024 H 976.995 2.70847 -2.58055 0
M  V30 10025 H 978.328 3.57707 -3.38093 0
M  V30 10026 N 979.98 1.24838 0.961938 0
M  V30 10027 C 980.91 1.07053 2.07514 0
M  V30 10028 C 981.891 -0.0182465 1.7009 0
M  V30 10029 O 983.076 0.149915 1.9362 0
M  V30 10030 C 980.206 0.680693 3.40564 0
M  V30 10031 C 979.16 1.71889 3.91967 0
M  V30 10032 C 978.486 1.18395 5.21428 0
M  V30 10033 C 979.786 3.1161 4.19161 0
M  V30 10034 H 981.48 2.00167 2.22651 0
M  V30 10035 H 979.026 0.963799 1.0699 0
M  V30 10036 H 980.979 0.54324 4.17884 0
M  V30 10037 H 979.703 -0.28615 3.25344 0
M  V30 10038 H 978.362 1.84465 3.16809 0
M  V30 10039 H 978.01 0.207543 5.02572 0
M  V30 10040 H 977.71 1.87778 5.56788 0
M  V30 10041 H 979.234 1.05873 6.01351 0
M  V30 10042 H 980.648 3.0223 4.87165 0
M  V30 10043 H 979.045 3.78398 4.65763 0
M  V30 10044 H 980.115 3.59218 3.25715 0
M  V30 10045 N 981.458 -1.16348 1.06306 0
M  V30 10046 C 982.388 -2.2291 0.695234 0
M  V30 10047 C 983.369 -1.67208 -0.312343 0
M  V30 10048 O 984.554 -1.93293 -0.187442 0
M  V30 10049 C 981.684 -3.47205 0.0810149 0
M  V30 10050 C 980.638 -4.15801 1.01458 0
M  V30 10051 C 979.964 -5.3405 0.263656 0
M  V30 10052 C 981.264 -4.66766 2.34365 0
M  V30 10053 H 982.958 -2.53934 1.58613 0
M  V30 10054 H 980.504 -1.22056 0.76409 0
M  V30 10055 H 982.457 -4.2098 -0.18818 0
M  V30 10056 H 981.181 -3.15482 -0.844897 0
M  V30 10057 H 979.84 -3.43954 1.26852 0
M  V30 10058 H 979.488 -4.9858 -0.665378 0
M  V30 10059 H 979.188 -5.80885 0.88582 0
M  V30 10060 H 980.712 -6.106 0.00200994 0
M  V30 10061 H 982.126 -5.3212 2.13356 0
M  V30 10062 H 980.523 -5.24223 2.9208 0
M  V30 10063 H 981.593 -3.82969 2.97426 0
M  V30 10064 N 982.937 -0.845659 -1.3299 0
M  V30 10065 C 984.162 -0.457435 -2.02293 0
M  V30 10066 C 984.587 0.935634 -1.63179 0
M  V30 10067 O 983.945 1.61297 -0.827835 0
M  V30 10068 C 983.993 -0.593665 -3.5568 0
M  V30 10069 O 983.097 0.37729 -4.10671 0
M  V30 10070 H 982.438 -0.185022 -0.637701 0
M  V30 10071 H 984.968 -1.14237 -1.69738 0
M  V30 10072 H 984.978 -0.477834 -4.05192 0
M  V30 10073 H 983.653 -1.60957 -3.83491 0
M  V30 10074 H 982.23 0.218448 -3.7226 0
M  V30 10075 N 984.415 1.45619 -0.602734 0
M  V30 10076 C 985.365 2.27568 0.140264 0
M  V30 10077 C 986.349 1.3704 0.84314 0
M  V30 10078 O 987.541 1.61067 0.733931 0
M  V30 10079 C 984.67 3.23812 1.14019 0
M  V30 10080 C 983.756 4.21828 0.438406 0
M  V30 10081 N 984.147 5.03148 -0.517245 0
M  V30 10082 C 982.445 4.40684 0.686588 0
M  V30 10083 C 983.146 5.74229 -0.929291 0
M  V30 10084 N 982.122 5.42909 -0.274086 0
M  V30 10085 H 985.924 2.87839 -0.5938 0
M  V30 10086 H 983.438 1.56712 -0.426033 0
M  V30 10087 H 985.435 3.8125 1.68684 0
M  V30 10088 H 984.095 2.65102 1.87486 0
M  V30 10089 H 985.106 5.1013 -0.893758 0
M  V30 10090 H 981.783 3.93102 1.4063 0
M  V30 10091 H 983.173 6.49586 -1.7172 0
M  V30 10092 N 985.893 0.34162 1.53853 0
M  V30 10093 C 986.823 -0.508431 2.27897 0
M  V30 10094 C 987.804 -1.10425 1.29384 0
M  V30 10095 O 988.989 -1.126 1.58224 0
M  V30 10096 C 986.119 -1.66048 3.05034 0
M  V30 10097 C 985.073 -1.19309 4.11035 0
M  V30 10098 C 984.399 -2.4335 4.76114 0
M  V30 10099 C 985.699 -0.294952 5.21467 0
M  V30 10100 H 987.393 0.109251 2.99201 0
M  V30 10101 H 984.939 0.0539847 1.43899 0
M  V30 10102 H 986.892 -2.26158 3.5557 0
M  V30 10103 H 985.616 -2.30503 2.31379 0
M  V30 10104 H 984.275 -0.614809 3.61408 0
M  V30 10105 H 983.923 -3.06208 3.99056 0
M  V30 10106 H 983.623 -2.1276 5.47729 0
M  V30 10107 H 985.147 -3.0419 5.29434 0
M  V30 10108 H 986.561 -0.80285 5.67651 0
M  V30 10109 H 984.958 -0.0810221 6.00045 0
M  V30 10110 H 986.028 0.669433 4.80257 0
M  V30 10111 N 987.371 -1.57444 0.0701946 0
M  V30 10112 C 988.787 -1.57009 -0.286431 0
M  V30 10113 C 988.987 -1.07946 -1.70147 0
M  V30 10114 O 988.043 -0.744622 -2.41271 0
M  V30 10115 C 989.356 -3.00542 -0.0975466 0
M  V30 10116 C 990.904 -3.12553 -0.167205 0
M  V30 10117 C 991.379 -4.58 -0.00662047 0
M  V30 10118 N 992.87 -4.63158 -0.0622778 0
M  V30 10119 C 993.605 -5.73388 0.0375831 0
M  V30 10120 N 993.101 -6.92537 0.190873 0
M  V30 10121 N 994.894 -5.62097 -0.0193672 0
M  V30 10122 H 987.045 -1.87651 0.995023 0
M  V30 10123 H 989.308 -0.865006 0.387902 0
M  V30 10124 H 989.014 -3.40543 0.878822 0
M  V30 10125 H 988.888 -3.67485 -0.850547 0
M  V30 10126 H 991.275 -2.72439 -1.13406 0
M  V30 10127 H 991.356 -2.48251 0.616871 0
M  V30 10128 H 991 -4.98803 0.956992 0
M  V30 10129 H 990.93 -5.20332 -0.810081 0
M  V30 10130 H 993.421 -3.77475 -0.179229 0
M  V30 10131 H 993.734 -7.72365 0.25926 0
M  V30 10132 H 992.079 -6.94632 0.226214 0
M  V30 10133 H 995.27 -4.67897 -0.137815 0
M  V30 10134 H 995.443 -6.4797 0.0619121 0
M  V30 10135 N 988.849 0.203349 -1.56283 0
M  V30 10136 C 989.799 1.25595 -1.90289 0
M  V30 10137 C 990.783 1.41403 -0.767732 0
M  V30 10138 O 991.975 1.43912 -1.03046 0
M  V30 10139 C 989.104 2.60255 -2.23881 0
M  V30 10140 C 988.19 2.48274 -3.43833 0
M  V30 10141 N 988.581 2.05963 -4.61966 0
M  V30 10142 C 986.879 2.79188 -3.47808 0
M  V30 10143 C 987.58 2.05674 -5.44126 0
M  V30 10144 N 986.556 2.46862 -4.84314 0
M  V30 10145 H 990.358 0.920016 -2.79129 0
M  V30 10146 H 987.872 0.411829 -1.57091 0
M  V30 10147 H 989.869 3.36274 -2.46425 0
M  V30 10148 H 988.529 2.94678 -1.36363 0
M  V30 10149 H 989.54 1.76803 -4.86787 0
M  V30 10150 H 986.217 3.17863 -2.70684 0
M  V30 10151 H 987.607 1.74932 -6.48728 0
M  V30 10152 N 990.327 1.50405 0.470755 0
M  V30 10153 C 991.29 1.68741 1.5511 0
M  V30 10154 C 992.29 0.558116 1.50804 0
M  V30 10155 O 993.48 0.825149 1.53418 0
M  V30 10156 C 990.612 1.71295 2.94739 0
M  V30 10157 H 991.805 2.65127 1.40169 0
M  V30 10158 H 989.358 1.39891 0.697156 0
M  V30 10159 H 990.093 0.766029 3.15123 0
M  V30 10160 H 989.878 2.53336 2.99271 0
M  V30 10161 H 991.368 1.87434 3.73173 0
M  V30 10162 N 991.805 -0.723954 1.39988 0
M  V30 10163 C 993.033 -1.51313 1.4111 0
M  V30 10164 C 993.448 -1.88798 0.00853333 0
M  V30 10165 O 992.805 -1.54868 -0.965516 0
M  V30 10166 C 992.856 -2.79375 2.29416 0
M  V30 10167 O 992.577 -2.43478 3.64211 0
M  V30 10168 C 994.078 -3.7333 2.3904 0
M  V30 10169 H 991.298 -0.46724 0.481589 0
M  V30 10170 H 993.842 -0.893694 1.83938 0
M  V30 10171 H 991.997 -3.37624 1.89971 0
M  V30 10172 H 992.411 -3.25821 4.11024 0
M  V30 10173 H 993.885 -4.60051 3.05053 0
M  V30 10174 H 994.362 -4.15854 1.41289 0
M  V30 10175 H 994.968 -3.20996 2.79001 0
M  V30 10176 N 993.283 -1.25346 -0.955304 0
M  V30 10177 C 994.246 -1.05754 -2.03344 0
M  V30 10178 C 995.246 -0.0105743 -1.60797 0
M  V30 10179 O 996.436 -0.252699 -1.72357 0
M  V30 10180 C 993.568 -0.605536 -3.35479 0
M  V30 10181 H 994.761 -2.01459 -2.22158 0
M  V30 10182 H 992.314 -1.07744 -1.1323 0
M  V30 10183 H 993.049 0.354154 -3.2236 0
M  V30 10184 H 992.834 -1.36134 -3.67709 0
M  V30 10185 H 994.324 -0.489867 -4.14717 0
M  V30 10186 N 994.761 1.15782 -1.06922 0
M  V30 10187 C 995.693 2.19978 -0.643604 0
M  V30 10188 C 996.706 1.59981 0.301653 0
M  V30 10189 O 997.895 1.78265 0.0916508 0
M  V30 10190 C 994.995 3.38815 0.0757973 0
M  V30 10191 C 994.168 4.28363 -0.884545 0
M  V30 10192 C 993.227 5.25807 -0.203233 0
M  V30 10193 O 992.253 5.62924 -0.842904 0
M  V30 10194 N 993.455 5.70874 1.05279 0
M  V30 10195 H 996.22 2.57112 -1.53992 0
M  V30 10196 H 993.781 1.30855 -0.953344 0
M  V30 10197 H 995.773 4.01052 0.542151 0
M  V30 10198 H 994.343 3.00133 0.874 0
M  V30 10199 H 993.563 3.63292 -1.53012 0
M  V30 10200 H 994.851 4.85067 -1.53581 0
M  V30 10201 H 994.249 5.42822 1.5925 0
M  V30 10202 H 992.806 6.35171 1.46289 0
M  V30 10203 N 996.239 0.8527 1.3254 0
M  V30 10204 C 997.65 0.510012 1.79599 0
M  V30 10205 C 998.001 -0.972002 1.70431 0
M  V30 10206 O 997.126 -1.7581 1.26173 0
M  V30 10207 C 997.721 0.918986 3.26098 0
M  V30 10208 C 996.28 0.628227 3.7112 0
M  V30 10209 C 995.427 1.11979 2.53685 0
M  V30 10210 H 998.378 1.04009 1.19866 0
M  V30 10211 H 998.399 0.234577 3.79776 0
M  V30 10212 H 997.911 1.99765 3.32739 0
M  V30 10213 H 996.012 -0.4398 3.69995 0
M  V30 10214 H 996.125 1.19315 4.64005 0
M  V30 10215 H 994.489 0.540133 2.48907 0
M  V30 10216 H 995.272 2.20552 2.63081 0
M  V30 10217 N 997.718 -1.45297 0.610449 0
M  V30 10218 C 998.681 -2.28995 -0.0968194 0
M  V30 10219 C 999.681 -1.39923 -0.792353 0
M  V30 10220 O 1000.87 -1.62014 -0.64008 0
M  V30 10221 C 998.003 -3.21013 -1.14731 0
M  V30 10222 H 999.196 -2.93012 0.639082 0
M  V30 10223 H 996.749 -1.51867 0.369624 0
M  V30 10224 H 997.484 -2.61803 -1.91388 0
M  V30 10225 H 997.269 -3.86628 -0.652753 0
M  V30 10226 H 998.759 -3.8394 -1.64256 0
M  V30 10227 N 999.196 -0.349774 -1.5367 0
M  V30 10228 C 1000.42 0.248692 -2.05904 0
M  V30 10229 C 1000.85 1.42942 -1.22267 0
M  V30 10230 O 1000.2 1.79732 -0.237899 0
M  V30 10231 C 1000.25 0.635639 -3.54953 0
M  V30 10232 O 999.356 1.7349 -3.74132 0
M  V30 10233 H 998.697 0.0399477 -0.662797 0
M  V30 10234 H 1001.23 -0.505795 -1.9825 0
M  V30 10235 H 1001.24 0.911064 -3.97698 0
M  V30 10236 H 999.912 -0.227805 -4.15276 0
M  V30 10237 H 998.489 1.45626 -3.43289 0
M  V30 10238 N 1000.67 1.57404 -0.0785433 0
M  V30 10239 C 1001.61 2.101 0.916013 0
M  V30 10240 C 1002.62 1.03459 1.25698 0
M  V30 10241 O 1003.81 1.30954 1.21299 0
M  V30 10242 C 1000.91 2.55202 2.22992 0
M  V30 10243 C 1000.08 3.85491 2.06678 0
M  V30 10244 C 999.14 4.16614 3.21433 0
M  V30 10245 O 998.166 4.86105 2.96126 0
M  V30 10246 N 999.368 3.70697 4.46726 0
M  V30 10247 H 1002.13 2.96054 0.466059 0
M  V30 10248 H 999.694 1.61546 0.107006 0
M  V30 10249 H 1001.69 2.7308 2.9868 0
M  V30 10250 H 1000.26 1.74348 2.59464 0
M  V30 10251 H 999.476 3.76925 1.15417 0
M  V30 10252 H 1000.76 4.70759 1.93036 0
M  V30 10253 H 1000.16 3.14571 4.70172 0
M  V30 10254 H 998.719 3.93762 5.19418 0
M  V30 10255 N 1002.15 -0.195058 1.56388 0
M  V30 10256 C 1003.11 -1.2254 1.93692 0
M  V30 10257 C 1004.11 -1.38437 0.81804 0
M  V30 10258 O 1005.3 -1.36248 1.08545 0
M  V30 10259 C 1002.44 -2.59476 2.21099 0
M  V30 10260 H 1003.63 -0.906544 2.8587 0
M  V30 10261 H 1001.18 -0.436577 1.50079 0
M  V30 10262 H 1001.92 -2.96417 1.31558 0
M  V30 10263 H 1001.7 -2.4931 3.02634 0
M  V30 10264 H 1003.19 -3.33777 2.50964 0
M  V30 10265 N 1003.63 -1.50653 -0.462772 0
M  V30 10266 C 1004.88 -1.61737 -1.21184 0
M  V30 10267 C 1005.2 -0.32369 -1.92295 0
M  V30 10268 O 1004.47 0.659269 -1.84473 0
M  V30 10269 H 1003.05 -0.596015 -0.450306 0
M  V30 10270 H 1005.71 -1.87469 -0.533051 0
M  V30 10271 H 1004.81 -2.43262 -1.95525 0
M  V30 10272 N 1005.11 0.71652 -1.4037 0
M  V30 10273 C 1006.04 1.84138 -1.36477 0
M  V30 10274 C 1007.05 1.6054 -0.27033 0
M  V30 10275 O 1008.24 1.70431 -0.530612 0
M  V30 10276 C 1005.34 3.20523 -1.10082 0
M  V30 10277 C 1004.52 3.71326 -2.31162 0
M  V30 10278 C 1003.57 4.86322 -2.00942 0
M  V30 10279 O 1002.6 4.99022 -2.73799 0
M  V30 10280 N 1003.8 5.72051 -0.986812 0
M  V30 10281 H 1006.57 1.87977 -2.3342 0
M  V30 10282 H 1004.13 0.89802 -1.34712 0
M  V30 10283 H 1006.12 3.95049 -0.878526 0
M  V30 10284 H 1004.69 3.11838 -0.21809 0
M  V30 10285 H 1003.91 2.87941 -2.69227 0
M  V30 10286 H 1005.2 4.02003 -3.11883 0
M  V30 10287 H 1004.6 5.64399 -0.383381 0
M  V30 10288 H 1003.15 6.46565 -0.824419 0
M  V30 10289 N 1006.59 1.25851 0.948643 0
M  V30 10290 C 1007.53 1.06759 2.04625 0
M  V30 10291 C 1008.5 -0.0251144 1.66081 0
M  V30 10292 O 1009.69 0.133221 1.90334 0
M  V30 10293 C 1006.83 0.698724 3.37952 0
M  V30 10294 C 1005.94 1.8669 3.89578 0
M  V30 10295 C 1005.08 1.44184 5.11258 0
M  V30 10296 C 1004.12 2.57878 5.55126 0
M  V30 10297 N 1003.25 2.16106 6.68014 0
M  V30 10298 H 1008.09 2.00691 2.20289 0
M  V30 10299 H 1005.63 0.999327 1.07944 0
M  V30 10300 H 1007.59 0.465788 4.14592 0
M  V30 10301 H 1006.22 -0.203618 3.22157 0
M  V30 10302 H 1005.27 2.21298 3.09405 0
M  V30 10303 H 1006.58 2.72051 4.18079 0
M  V30 10304 H 1005.74 1.16891 5.95333 0
M  V30 10305 H 1004.47 0.559035 4.84485 0
M  V30 10306 H 1003.48 2.85909 4.69612 0
M  V30 10307 H 1004.7 3.46747 5.83904 0
M  V30 10308 H 1002.65 1.3025 6.42939 0
M  V30 10309 H 1002.57 2.95012 6.96063 0
M  V30 10310 H 1003.84 1.92005 7.55483 0
M  V30 10311 N 1008.06 -1.15214 1.07534 0
M  V30 10312 C 1009.48 -1.38031 0.801228 0
M  V30 10313 C 1009.68 -1.92556 -0.593672 0
M  V30 10314 O 1008.74 -2.1325 -1.35206 0
M  V30 10315 C 1010.05 -2.34958 1.87657 0
M  V30 10316 C 1011.6 -2.48617 1.90154 0
M  V30 10317 C 1012.07 -3.48837 2.96777 0
M  V30 10318 N 1013.56 -3.56374 2.95892 0
M  V30 10319 C 1014.3 -4.33746 3.75036 0
M  V30 10320 N 1013.79 -5.14435 4.64036 0
M  V30 10321 N 1015.59 -4.28853 3.63375 0
M  V30 10322 H 1007.74 -0.781639 1.97495 0
M  V30 10323 H 1010 -0.406243 0.856546 0
M  V30 10324 H 1009.71 -2.02013 2.87895 0
M  V30 10325 H 1009.58 -3.3476 1.73827 0
M  V30 10326 H 1011.97 -2.80859 0.905666 0
M  V30 10327 H 1012.05 -1.48808 2.08062 0
M  V30 10328 H 1011.69 -3.1733 3.96565 0
M  V30 10329 H 1011.62 -4.48406 2.76116 0
M  V30 10330 H 1014.11 -2.98784 2.31379 0
M  V30 10331 H 1014.43 -5.70722 5.21053 0
M  V30 10332 H 1012.77 -5.13734 4.68084 0
M  V30 10333 H 1015.96 -3.64882 2.93221 0
M  V30 10334 H 1016.14 -4.88903 4.25298 0
M  V30 10335 N 1009.54 -0.859717 -1.32086 0
M  V30 10336 C 1010.95 -0.519529 -1.79326 0
M  V30 10337 C 1011.3 0.96295 -1.70944 0
M  V30 10338 O 1010.43 1.75139 -1.27104 0
M  V30 10339 C 1011.02 -0.936267 -3.25606 0
M  V30 10340 C 1009.58 -0.647899 -3.70782 0
M  V30 10341 C 1008.73 -1.13323 -2.53087 0
M  V30 10342 H 1011.68 -1.04643 -1.19312 0
M  V30 10343 H 1011.7 -0.254714 -3.79646 0
M  V30 10344 H 1011.21 -2.01527 -3.31675 0
M  V30 10345 H 1009.32 0.420172 -3.70223 0
M  V30 10346 H 1009.43 -1.21774 -4.63366 0
M  V30 10347 H 1007.79 -0.553325 -2.48617 0
M  V30 10348 H 1008.58 -2.21945 -2.61907 0
M  V30 10349 N 1011.02 1.44971 -0.618145 0
M  V30 10350 C 1012.27 2.02159 -0.117482 0
M  V30 10351 C 1012.6 1.48517 1.2559 0
M  V30 10352 O 1011.85 0.654192 1.84442 0
M  V30 10353 C 1012.15 3.57378 -0.0394861 0
M  V30 10354 C 1011.82 4.30218 -1.34993 0
M  V30 10355 C 1010.48 4.49835 -1.70886 0
M  V30 10356 C 1012.83 4.71768 -2.21551 0
M  V30 10357 C 1010.16 5.08258 -2.9307 0
M  V30 10358 C 1012.51 5.31543 -3.42993 0
M  V30 10359 C 1011.17 5.49381 -3.79126 0
M  V30 10360 H 1010.44 0.739752 -0.0429897 0
M  V30 10361 H 1013.09 1.73903 -0.801871 0
M  V30 10362 H 1011.4 3.84973 0.728217 0
M  V30 10363 H 1013.09 3.99343 0.364213 0
M  V30 10364 H 1009.68 4.15271 -1.06057 0
M  V30 10365 H 1013.87 4.56336 -1.95117 0
M  V30 10366 H 1009.12 5.20257 -3.21158 0
M  V30 10367 H 1013.3 5.62691 -4.10308 0
M  V30 10368 H 1010.92 5.94419 -4.73888 0
M  V30 10369 N 1012.5 0.357919 1.53482 0
M  V30 10370 C 1013.72 -0.237769 2.06033 0
M  V30 10371 C 1014.15 -1.42292 1.23023 0
M  V30 10372 O 1013.51 -1.79604 0.247427 0
M  V30 10373 C 1013.55 -0.616806 3.55286 0
M  V30 10374 O 1012.66 -1.71503 3.75047 0
M  V30 10375 H 1012 -0.0364322 0.663 0
M  V30 10376 H 1014.53 0.516301 1.97979 0
M  V30 10377 H 1014.54 -0.88996 3.98175 0
M  V30 10378 H 1013.21 0.249825 4.15149 0
M  V30 10379 H 1011.79 -1.43803 3.44057 0
M  V30 10380 N 1013.98 -1.5736 0.0868897 0
M  V30 10381 C 1015.22 -1.95933 -0.582212 0
M  V30 10382 C 1015.58 -0.967238 -1.65857 0
M  V30 10383 O 1016.78 -1.24116 -2.3843 0
M  V30 10384 C 1015.05 -3.39049 -1.1305 0
M  V30 10385 S 1016.61 -3.99612 -1.81262 0
M  V30 10386 H 1013.43 -0.685082 -0.190221 0
M  V30 10387 H 1016.03 -1.94808 0.164341 0
M  V30 10388 H 1014.74 -4.09026 -0.335492 0
M  V30 10389 H 1014.27 -3.43752 -1.91307 0
M  V30 10390 H 1016.28 -3.87747 -3.09624 0
M  V30 10391 N 1015.45 0.186762 -1.56489 0
M  V30 10392 C 1016.68 0.925916 -1.85584 0
M  V30 10393 C 1017.1 1.75708 -0.671446 0
M  V30 10394 O 1016.46 1.7728 0.379687 0
M  V30 10395 C 1016.51 1.79107 -3.12975 0
M  V30 10396 O 1015.61 2.89088 -2.94112 0
M  V30 10397 H 1014.96 0.260275 -0.610863 0
M  V30 10398 H 1017.49 0.189561 -2.0372 0
M  V30 10399 H 1017.5 2.19408 -3.43983 0
M  V30 10400 H 1016.17 1.18044 -3.98796 0
M  V30 10401 H 1014.75 2.52482 -2.74422 0
M  V30 10402 N 1016.93 1.50896 0.454776 0
M  V30 10403 C 1018.18 1.62699 1.20562 0
M  V30 10404 C 1018.51 0.334943 1.91594 0
M  V30 10405 O 1017.76 -0.680106 1.83502 0
M  V30 10406 C 1018.06 2.76839 2.26042 0
M  V30 10407 C 1017.73 4.16745 1.72147 0
M  V30 10408 C 1016.39 4.54809 1.5717 0
M  V30 10409 C 1018.74 5.04118 1.32341 0
M  V30 10410 C 1016.07 5.7797 1.00835 0
M  V30 10411 C 1018.42 6.27842 0.774419 0
M  V30 10412 C 1017.09 6.64694 0.611415 0
M  V30 10413 H 1016.36 0.595358 0.441169 0
M  V30 10414 H 1019 1.84879 0.499202 0
M  V30 10415 H 1017.31 2.48812 3.02655 0
M  V30 10416 H 1019 2.83173 2.83926 0
M  V30 10417 H 1015.59 3.86725 1.84775 0
M  V30 10418 H 1019.78 4.75331 1.42739 0
M  V30 10419 H 1015.03 6.05183 0.869669 0
M  V30 10420 H 1019.21 6.94896 0.457389 0
M  V30 10421 H 1016.84 7.60004 0.172751 0
M  V30 10422 N 1018.41 -0.709066 1.40748 0
M  V30 10423 C 1019.66 -1.46611 1.39103 0
M  V30 10424 C 1019.98 -1.95 -0.00365366 0
M  V30 10425 O 1019.25 -1.70791 -0.959541 0
M  V30 10426 H 1017.83 -0.543954 0.511979 0
M  V30 10427 H 1020.49 -0.840141 1.75863 0
M  V30 10428 H 1019.59 -2.33581 2.06994 0
M  V30 10429 N 1019.89 -1.26353 -0.941956 0
M  V30 10430 C 1021.17 -1.02601 -1.6653 0
M  V30 10431 C 1021.55 0.44381 -2.06382 0
M  V30 10432 O 1020.89 1.42399 -1.78703 0
M  V30 10433 C 1021.1 -1.97401 -2.87809 0
M  V30 10434 C 1022.45 -2.25967 -3.59478 0
M  V30 10435 O 1023.48 -1.95261 -2.97912 0
M  V30 10436 O 1022.34 -2.78244 -4.70364 0
M  V30 10437 H 1019.43 -0.39007 -0.729228 0
M  V30 10438 H 1021.98 -1.37559 -0.993754 0
M  V30 10439 H 1020.75 -2.9659 -2.55245 0
M  V30 10440 H 1020.37 -1.62918 -3.62689 0
M  V30 10441 N 1021.37 1.14642 -1.08144 0
M  V30 10442 C 1022.32 2.17665 -0.678661 0
M  V30 10443 C 1023.3 1.58072 0.300336 0
M  V30 10444 O 1024.49 1.7664 0.112781 0
M  V30 10445 C 1021.62 3.43191 -0.0866362 0
M  V30 10446 C 1020.71 4.0982 -1.09126 0
M  V30 10447 N 1021.1 4.51814 -2.27372 0
M  V30 10448 C 1019.4 4.36272 -0.926411 0
M  V30 10449 C 1020.1 5.03581 -2.91172 0
M  V30 10450 N 1019.07 4.97624 -2.18795 0
M  V30 10451 H 1022.88 2.47872 -1.57914 0
M  V30 10452 H 1020.39 1.31296 -0.955772 0
M  V30 10453 H 1022.39 4.1632 0.219859 0
M  V30 10454 H 1021.05 3.14464 0.80886 0
M  V30 10455 H 1022.06 4.44941 -2.65044 0
M  V30 10456 H 1018.74 4.17414 -0.084492 0
M  V30 10457 H 1020.13 5.45969 -3.91621 0
M  V30 10458 N 1022.85 0.866709 1.31628 0
M  V30 10459 C 1024.12 0.396828 1.91532 0
M  V30 10460 C 1024.5 -1.12081 1.78889 0
M  V30 10461 O 1023.85 -1.94791 1.19452 0
M  V30 10462 C 1024.06 0.874578 3.37864 0
M  V30 10463 C 1025.41 0.8988 4.14978 0
M  V30 10464 O 1026.43 0.820014 3.46633 0
M  V30 10465 O 1025.29 1.01223 5.37044 0
M  V30 10466 H 1022.39 0.1181 0.818524 0
M  V30 10467 H 1024.93 0.954407 1.40318 0
M  V30 10468 H 1023.7 1.91807 3.41066 0
M  V30 10469 H 1023.33 0.295126 3.96503 0
M  V30 10470 N 1024.32 -1.44642 0.625825 0
M  V30 10471 C 1025.55 -2.06159 0.13492 0
M  V30 10472 C 1025.96 -1.46801 -1.19357 0
M  V30 10473 O 1025.3 -0.583345 -1.74192 0
M  V30 10474 C 1025.37 -3.5945 -0.0598481 0
M  V30 10475 C 1025.03 -4.41244 1.18965 0
M  V30 10476 C 1026.03 -4.75064 2.11212 0
M  V30 10477 C 1023.71 -4.81705 1.42359 0
M  V30 10478 C 1025.71 -5.48221 3.25165 0
M  V30 10479 C 1023.39 -5.54612 2.5661 0
M  V30 10480 C 1024.39 -5.87789 3.4784 0
M  V30 10481 O 1024.08 -6.59213 4.60101 0
M  V30 10482 H 1023.81 -0.671888 0.0744464 0
M  V30 10483 H 1026.37 -1.86586 0.858775 0
M  V30 10484 H 1024.6 -3.77493 -0.838792 0
M  V30 10485 H 1026.28 -4.02751 -0.504639 0
M  V30 10486 H 1027.05 -4.44348 1.94371 0
M  V30 10487 H 1022.93 -4.55305 0.722401 0
M  V30 10488 H 1026.47 -5.74035 3.96396 0
M  V30 10489 H 1022.37 -5.84743 2.73396 0
M  V30 10490 H 1023.14 -6.77678 4.59015 0
M  V30 10491 N 1025.8 -0.366053 -1.5329 0
M  V30 10492 C 1027.04 0.223558 -2.03174 0
M  V30 10493 C 1027.41 1.45955 -1.24745 0
M  V30 10494 O 1028.61 2.12481 -1.64637 0
M  V30 10495 C 1026.88 0.507899 -3.53773 0
M  V30 10496 S 1028.44 1.07111 -4.25526 0
M  V30 10497 H 1025.25 0.0650309 -0.70802 0
M  V30 10498 H 1027.86 -0.509028 -1.88757 0
M  V30 10499 H 1026.56 -0.39913 -4.08455 0
M  V30 10500 H 1026.09 1.26954 -3.72352 0
M  V30 10501 H 1028.11 2.35533 -4.36737 0
M  V30 10502 N 1027.28 1.57312 -0.0952337 0
M  V30 10503 C 1028.21 2.11059 0.893678 0
M  V30 10504 C 1029.22 1.04787 1.24594 0
M  V30 10505 O 1030.41 1.32233 1.19903 0
M  V30 10506 C 1027.51 2.57552 2.20272 0
M  V30 10507 C 1026.69 3.87661 2.02578 0
M  V30 10508 C 1025.75 4.2 3.16996 0
M  V30 10509 O 1024.77 4.89219 2.90953 0
M  V30 10510 N 1025.97 3.75414 4.42769 0
M  V30 10511 H 1028.74 2.96532 0.434632 0
M  V30 10512 H 1026.3 1.6165 0.0898661 0
M  V30 10513 H 1028.29 2.76232 2.95766 0
M  V30 10514 H 1026.86 1.7709 2.576 0
M  V30 10515 H 1026.08 3.78128 1.11413 0
M  V30 10516 H 1027.37 4.7278 1.88032 0
M  V30 10517 H 1026.77 3.1954 4.66809 0
M  V30 10518 H 1025.32 3.99249 5.15212 0
M  V30 10519 N 1028.76 -0.17846 1.56586 0
M  V30 10520 C 1030 -0.897562 1.81856 0
M  V30 10521 C 1030.34 -1.82204 0.671955 0
M  V30 10522 O 1029.61 -1.91739 -0.326535 0
M  V30 10523 C 1029.89 -1.69942 3.17477 0
M  V30 10524 C 1029.75 -0.798545 4.42655 0
M  V30 10525 C 1031.07 -2.66861 3.49962 0
M  V30 10526 H 1028.19 -0.324863 0.661539 0
M  V30 10527 H 1030.83 -0.164106 1.8929 0
M  V30 10528 H 1028.98 -2.32471 3.11271 0
M  V30 10529 H 1030.65 -0.18668 4.60922 0
M  V30 10530 H 1028.89 -0.106181 4.3367 0
M  V30 10531 H 1029.56 -1.39496 5.34083 0
M  V30 10532 H 1032.04 -2.1446 3.56576 0
M  V30 10533 H 1030.92 -3.20037 4.45946 0
M  V30 10534 H 1031.18 -3.46715 2.74301 0
M  V30 10535 N 1030.24 -1.51135 -0.446768 0
M  V30 10536 C 1031.17 -1.74709 -1.54916 0
M  V30 10537 C 1032.15 -0.596628 -1.59293 0
M  V30 10538 O 1033.33 -0.838356 -1.75172 0
M  V30 10539 C 1030.46 -1.86353 -2.9307 0
M  V30 10540 C 1029.42 -3.01725 -3.03556 0
M  V30 10541 C 1028.74 -2.9854 -4.43597 0
M  V30 10542 C 1030.04 -4.41848 -2.7851 0
M  V30 10543 H 1031.74 -2.67014 -1.3544 0
M  V30 10544 H 1029.28 -1.28489 -0.650131 0
M  V30 10545 H 1031.23 -2.01428 -3.70141 0
M  V30 10546 H 1029.96 -0.906887 -3.13756 0
M  V30 10547 H 1028.62 -2.86339 -2.28922 0
M  V30 10548 H 1028.27 -2.00673 -4.61237 0
M  V30 10549 H 1027.97 -3.76008 -4.51544 0
M  V30 10550 H 1029.49 -3.15696 -5.22655 0
M  V30 10551 H 1030.9 -4.57633 -3.45319 0
M  V30 10552 H 1029.3 -5.2095 -2.97877 0
M  V30 10553 H 1030.37 -4.52536 -1.74182 0
M  V30 10554 N 1031.71 0.701592 -1.41122 0
M  V30 10555 C 1033.13 1.01143 -1.23459 0
M  V30 10556 C 1033.33 2.01144 -0.11968 0
M  V30 10557 O 1032.39 2.47132 0.517889 0
M  V30 10558 C 1033.7 1.54179 -2.58165 0
M  V30 10559 C 1035.25 1.66093 -2.65296 0
M  V30 10560 C 1035.72 2.22532 -4.00304 0
M  V30 10561 N 1037.21 2.299 -4.0212 0
M  V30 10562 C 1037.95 2.74584 -5.0338 0
M  V30 10563 N 1037.44 3.18917 -6.15032 0
M  V30 10564 N 1039.24 2.74094 -4.90743 0
M  V30 10565 H 1031.39 0.0390087 -2.12364 0
M  V30 10566 H 1033.65 0.0798848 -0.944628 0
M  V30 10567 H 1033.36 0.881587 -3.40472 0
M  V30 10568 H 1033.23 2.52488 -2.80231 0
M  V30 10569 H 1035.62 2.31227 -1.83352 0
M  V30 10570 H 1035.7 0.663461 -2.47046 0
M  V30 10571 H 1035.34 1.58016 -4.82694 0
M  V30 10572 H 1035.27 3.2302 -4.15891 0
M  V30 10573 H 1037.76 1.98607 -3.21502 0
M  V30 10574 H 1038.08 3.5162 -6.88174 0
M  V30 10575 H 1036.42 3.1684 -6.18577 0
M  V30 10576 H 1039.61 2.38804 -4.02604 0
M  V30 10577 H 1039.79 3.086 -5.69798 0
M  V30 10578 N 1033.19 1.2685 0.935242 0
M  V30 10579 C 1034.6 1.11569 1.49697 0
M  V30 10580 C 1034.95 -0.301952 1.93863 0
M  V30 10581 O 1034.08 -1.19408 1.80473 0
M  V30 10582 C 1034.67 2.01918 2.72056 0
M  V30 10583 C 1033.23 1.90765 3.24477 0
M  V30 10584 C 1032.38 1.94918 1.97237 0
M  V30 10585 H 1035.33 1.39853 0.750116 0
M  V30 10586 H 1035.35 1.57056 3.46574 0
M  V30 10587 H 1034.86 3.05088 2.39881 0
M  V30 10588 H 1032.96 0.905521 3.61429 0
M  V30 10589 H 1033.08 2.76611 3.91182 0
M  V30 10590 H 1031.44 1.39046 2.13397 0
M  V30 10591 H 1032.22 2.99729 1.67385 0
M  V30 10592 N 1034.67 -1.14067 1.0875 0
M  V30 10593 C 1035.58 -2.22871 0.732498 0
M  V30 10594 C 1036.6 -1.72008 -0.26253 0
M  V30 10595 O 1037.77 -2.01123 -0.105601 0
M  V30 10596 C 1034.84 -3.46371 0.150913 0
M  V30 10597 C 1033.9 -4.12158 1.201 0
M  V30 10598 C 1033.13 -5.29763 0.647075 0
M  V30 10599 O 1033.35 -5.67911 -0.532307 0
M  V30 10600 O 1032.29 -5.8542 1.3988 0
M  V30 10601 H 1036.11 -2.55596 1.64025 0
M  V30 10602 H 1033.7 -1.22065 0.861417 0
M  V30 10603 H 1035.58 -4.21055 -0.170442 0
M  V30 10604 H 1034.26 -3.15362 -0.729948 0
M  V30 10605 H 1033.16 -3.39332 1.57494 0
M  V30 10606 H 1034.5 -4.47282 2.05426 0
M  V30 10607 N 1036.15 -0.873678 -1.31166 0
M  V30 10608 C 1037.4 -0.485497 -1.96182 0
M  V30 10609 C 1037.72 0.96621 -1.69379 0
M  V30 10610 O 1036.99 1.67783 -1.01121 0
M  V30 10611 H 1035.57 -0.176547 -0.725838 0
M  V30 10612 H 1038.23 -1.11428 -1.59906 0
M  V30 10613 H 1037.33 -0.646325 -3.05334 0
M  V30 10614 N 1037.63 1.44308 -0.633487 0
M  V30 10615 C 1038.87 2.02322 -0.139123 0
M  V30 10616 C 1039.21 1.49733 1.23667 0
M  V30 10617 O 1038.48 0.682353 1.82138 0
M  V30 10618 C 1038.76 3.59871 -0.128366 0
M  V30 10619 C 1038.62 4.22737 -1.53667 0
M  V30 10620 C 1039.94 4.36702 0.545834 0
M  V30 10621 H 1037.05 0.735161 -0.0520293 0
M  V30 10622 H 1039.7 1.7185 -0.810411 0
M  V30 10623 H 1037.85 3.85963 0.443263 0
M  V30 10624 H 1039.52 4.07744 -2.15737 0
M  V30 10625 H 1037.76 3.80142 -2.08985 0
M  V30 10626 H 1038.43 5.31757 -1.48116 0
M  V30 10627 H 1040.91 4.16057 0.0596879 0
M  V30 10628 H 1039.78 5.46407 0.522557 0
M  V30 10629 H 1040.05 4.11483 1.6166 0
M  V30 10630 N 1039.1 0.374177 1.53094 0
M  V30 10631 C 1040.03 -0.459976 2.28925 0
M  V30 10632 C 1041.02 -1.07656 1.31698 0
M  V30 10633 O 1042.2 -1.09219 1.60577 0
M  V30 10634 C 1039.33 -1.5954 3.08487 0
M  V30 10635 C 1038.28 -1.10563 4.13473 0
M  V30 10636 C 1037.61 -2.33196 4.81169 0
M  V30 10637 C 1038.91 -0.184275 5.21975 0
M  V30 10638 H 1040.6 0.172692 2.98902 0
M  V30 10639 H 1038.15 0.0844956 1.43752 0
M  V30 10640 H 1040.1 -2.18565 3.60288 0
M  V30 10641 H 1038.83 -2.25543 2.36216 0
M  V30 10642 H 1037.49 -0.53801 3.62631 0
M  V30 10643 H 1037.13 -2.97675 4.05461 0
M  V30 10644 H 1036.83 -2.01094 5.52119 0
M  V30 10645 H 1038.36 -2.92892 5.35767 0
M  V30 10646 H 1039.77 -0.682262 5.69226 0
M  V30 10647 H 1038.17 0.0462746 6.00082 0
M  V30 10648 H 1039.24 0.771152 4.78729 0
M  V30 10649 N 1040.58 -1.57259 0.103575 0
M  V30 10650 C 1041.51 -2.1153 -0.882472 0
M  V30 10651 C 1042.53 -1.05446 -1.24036 0
M  V30 10652 O 1043.72 -1.32867 -1.192 0
M  V30 10653 C 1040.82 -2.58717 -2.18903 0
M  V30 10654 C 1039.99 -3.8873 -2.00519 0
M  V30 10655 C 1039.05 -4.21675 -3.14764 0
M  V30 10656 O 1038.07 -4.90755 -2.88355 0
M  V30 10657 N 1039.28 -3.77757 -4.40772 0
M  V30 10658 H 1042.04 -2.96758 -0.418901 0
M  V30 10659 H 1039.6 -1.61696 -0.0812921 0
M  V30 10660 H 1041.59 -2.77797 -2.94297 0
M  V30 10661 H 1040.16 -1.78454 -2.56657 0
M  V30 10662 H 1039.38 -3.78714 -1.09406 0
M  V30 10663 H 1040.67 -4.73771 -1.85522 0
M  V30 10664 H 1040.07 -3.22011 -4.65108 0
M  V30 10665 H 1038.63 -4.01975 -5.13088 0
M  V30 10666 N 1042.06 0.170153 -1.56679 0
M  V30 10667 C 1043.48 0.521966 -1.50823 0
M  V30 10668 C 1043.68 1.84589 -0.808037 0
M  V30 10669 O 1042.73 2.49791 -0.368891 0
M  V30 10670 C 1044.05 0.553648 -2.95559 0
M  V30 10671 C 1045.59 0.640769 -3.06371 0
M  V30 10672 C 1046.07 0.703332 -4.52567 0
M  V30 10673 N 1047.56 0.76619 -4.56819 0
M  V30 10674 C 1048.29 0.835192 -5.67285 0
M  V30 10675 N 1047.79 0.864957 -6.87379 0
M  V30 10676 N 1049.58 0.874302 -5.55259 0
M  V30 10677 H 1041.73 -0.697952 -2.00605 0
M  V30 10678 H 1044 -0.251787 -0.913952 0
M  V30 10679 H 1043.7 -0.350498 -3.49949 0
M  V30 10680 H 1043.58 1.39973 -3.50268 0
M  V30 10681 H 1045.96 1.53534 -2.52015 0
M  V30 10682 H 1046.05 -0.232008 -2.54746 0
M  V30 10683 H 1045.69 -0.186986 -5.07556 0
M  V30 10684 H 1045.62 1.59227 -5.0195 0
M  V30 10685 H 1048.11 0.751424 -3.70354 0
M  V30 10686 H 1048.42 0.918814 -7.67318 0
M  V30 10687 H 1046.77 0.833215 -6.89987 0
M  V30 10688 H 1049.96 0.848057 -4.60354 0
M  V30 10689 H 1050.13 0.924615 -6.4137 0
M  V30 10690 N 1043.54 1.5137 0.438746 0
M  V30 10691 C 1044.49 1.72582 1.53245 0
M  V30 10692 C 1045.46 0.567488 1.56105 0
M  V30 10693 O 1046.64 0.80176 1.73137 0
M  V30 10694 C 1043.78 1.85551 2.90972 0
M  V30 10695 C 1042.89 3.13094 2.97652 0
M  V30 10696 C 1042.03 3.16666 4.26493 0
M  V30 10697 C 1041.07 4.38529 4.27035 0
M  V30 10698 N 1040.2 4.39659 5.47398 0
M  V30 10699 H 1045.04 2.65941 1.3446 0
M  V30 10700 H 1042.58 1.31801 0.653206 0
M  V30 10701 H 1044.54 1.91053 3.70884 0
M  V30 10702 H 1043.17 0.956025 3.08318 0
M  V30 10703 H 1042.22 3.16909 2.10412 0
M  V30 10704 H 1043.53 4.03009 2.93914 0
M  V30 10705 H 1042.69 3.21075 5.14777 0
M  V30 10706 H 1041.43 2.24637 4.32885 0
M  V30 10707 H 1040.43 4.34297 3.37144 0
M  V30 10708 H 1041.66 5.31821 4.22307 0
M  V30 10709 H 1039.6 3.50499 5.54514 0
M  V30 10710 H 1039.52 5.23382 5.45534 0
M  V30 10711 H 1040.79 4.48259 6.37718 0
M  V30 10712 N 1045.02 -0.694098 1.41492 0
M  V30 10713 C 1046.26 -1.4563 1.41137 0
M  V30 10714 C 1046.6 -1.94189 0.0208428 0
M  V30 10715 O 1045.87 -1.69628 -0.951655 0
M  V30 10716 C 1046.15 -2.66714 2.41941 0
M  V30 10717 C 1046.01 -2.23912 3.90107 0
M  V30 10718 C 1047.33 -3.68913 2.39981 0
M  V30 10719 H 1044.44 -0.52821 0.513968 0
M  V30 10720 H 1047.09 -0.790437 1.72778 0
M  V30 10721 H 1045.24 -3.23525 2.1509 0
M  V30 10722 H 1046.91 -1.72417 4.27867 0
M  V30 10723 H 1045.15 -1.5568 4.04903 0
M  V30 10724 H 1045.82 -3.108 4.56188 0
M  V30 10725 H 1048.3 -3.21779 2.63813 0
M  V30 10726 H 1047.17 -4.51242 3.12524 0
M  V30 10727 H 1047.44 -4.18711 1.41892 0
M  V30 10728 N 1046.49 -1.27344 -0.928501 0
M  V30 10729 C 1047.42 -1.12517 -2.04602 0
M  V30 10730 C 1048.41 -0.0268563 -1.70079 0
M  V30 10731 O 1049.59 -0.201197 -1.93155 0
M  V30 10732 C 1046.72 -0.770749 -3.3864 0
M  V30 10733 C 1045.67 -1.8222 -3.87272 0
M  V30 10734 C 1045 -1.32178 -5.18105 0
M  V30 10735 C 1046.3 -3.22614 -4.10752 0
M  V30 10736 H 1047.99 -2.06 -2.17265 0
M  V30 10737 H 1045.54 -0.991827 -1.04397 0
M  V30 10738 H 1047.49 -0.653843 -4.16297 0
M  V30 10739 H 1046.22 0.19979 -3.25988 0
M  V30 10740 H 1044.88 -1.928 -3.11807 0
M  V30 10741 H 1044.52 -0.340719 -5.01845 0
M  V30 10742 H 1044.22 -2.02474 -5.51614 0
M  V30 10743 H 1045.75 -1.2178 -5.98333 0
M  V30 10744 H 1047.16 -3.1504 -4.78981 0
M  V30 10745 H 1045.56 -3.90614 -4.55566 0
M  V30 10746 H 1046.63 -3.67727 -3.16077 0
M  V30 10747 N 1047.97 1.13488 -1.09353 0
M  V30 10748 C 1049.39 1.36739 -0.823086 0
M  V30 10749 C 1049.59 1.93476 0.562963 0
M  V30 10750 O 1048.64 2.15374 1.31796 0
M  V30 10751 C 1049.96 2.31943 -1.91371 0
M  V30 10752 C 1051.51 2.4556 -1.94085 0
M  V30 10753 C 1051.98 3.44072 -3.02289 0
M  V30 10754 N 1053.47 3.51622 -3.01524 0
M  V30 10755 C 1054.21 4.27724 -3.8189 0
M  V30 10756 N 1053.7 5.06987 -4.72161 0
M  V30 10757 N 1055.5 4.23018 -3.70152 0
M  V30 10758 H 1047.65 0.75012 -1.98713 0
M  V30 10759 H 1049.91 0.392564 -0.862901 0
M  V30 10760 H 1049.62 1.97408 -2.91072 0
M  V30 10761 H 1049.49 3.31952 -1.79131 0
M  V30 10762 H 1051.88 2.79382 -0.950234 0
M  V30 10763 H 1051.96 1.45479 -2.10403 0
M  V30 10764 H 1051.6 3.10981 -4.01564 0
M  V30 10765 H 1051.53 4.43956 -2.83214 0
M  V30 10766 H 1054.02 2.95066 -2.36103 0
M  V30 10767 H 1054.34 5.6236 -5.30067 0
M  V30 10768 H 1052.68 5.06222 -4.76197 0
M  V30 10769 H 1055.87 3.60171 -2.98989 0
M  V30 10770 H 1056.04 4.82075 -4.33022 0
M  V30 10771 N 1049.45 0.880621 1.30701 0
M  V30 10772 C 1050.68 0.510909 2.01009 0
M  V30 10773 C 1051.1 -0.892041 1.65603 0
M  V30 10774 O 1050.46 -1.59045 0.870309 0
M  V30 10775 C 1050.51 0.687759 3.53981 0
M  V30 10776 O 1049.61 -0.268275 4.11526 0
M  V30 10777 H 1048.95 0.201864 0.632572 0
M  V30 10778 H 1051.48 1.18697 1.6665 0
M  V30 10779 H 1051.49 0.585095 4.03783 0
M  V30 10780 H 1050.17 1.71068 3.79089 0
M  V30 10781 H 1048.74 -0.119673 3.72708 0
M  V30 10782 N 1050.93 -1.4397 0.641131 0
M  V30 10783 C 1052.18 -2.02782 0.158406 0
M  V30 10784 C 1052.53 -1.496 -1.20986 0
M  V30 10785 O 1051.82 -0.674517 -1.79334 0
M  V30 10786 C 1052.02 -3.5727 0.0963368 0
M  V30 10787 C 1051.85 -4.25441 1.45704 0
M  V30 10788 C 1050.62 -4.62008 2.04637 0
M  V30 10789 C 1052.81 -4.55238 2.39297 0
M  V30 10790 N 1050.8 -5.15194 3.33839 0
M  V30 10791 C 1052.17 -5.09613 3.53121 0
M  V30 10792 C 1054.22 -4.37197 2.38251 0
M  V30 10793 C 1052.93 -5.47847 4.66108 0
M  V30 10794 C 1054.95 -4.76485 3.50309 0
M  V30 10795 C 1054.31 -5.30982 4.62858 0
M  V30 10796 H 1050.41 -0.775304 0.102117 0
M  V30 10797 H 1053 -1.75321 0.846805 0
M  V30 10798 H 1051.17 -3.84322 -0.561369 0
M  V30 10799 H 1052.9 -4.02757 -0.39614 0
M  V30 10800 H 1049.65 -4.46653 1.57474 0
M  V30 10801 H 1050.08 -5.46253 3.99921 0
M  V30 10802 H 1054.72 -3.94347 1.5248 0
M  V30 10803 H 1052.44 -5.89646 5.52579 0
M  V30 10804 H 1056.02 -4.6423 3.50687 0
M  V30 10805 H 1054.9 -5.6082 5.48133 0
M  V30 10806 N 1052.41 -0.382291 -1.52893 0
M  V30 10807 C 1053.32 0.463745 -2.29971 0
M  V30 10808 C 1054.33 1.07777 -1.36602 0
M  V30 10809 O 1055.51 1.0851 -1.69669 0
M  V30 10810 C 1052.57 1.57938 -3.08637 0
M  V30 10811 C 1051.64 0.991182 -4.17701 0
M  V30 10812 C 1050.87 2.05365 -4.92606 0
M  V30 10813 O 1051.09 3.26757 -4.67532 0
M  V30 10814 O 1050.03 1.67487 -5.78128 0
M  V30 10815 H 1053.85 -0.163962 -3.03257 0
M  V30 10816 H 1051.44 -0.146199 -1.48683 0
M  V30 10817 H 1053.32 2.22765 -3.57706 0
M  V30 10818 H 1051.99 2.19218 -2.3817 0
M  V30 10819 H 1050.9 0.306364 -3.72843 0
M  V30 10820 H 1052.23 0.422699 -4.90382 0
M  V30 10821 N 1053.89 1.57202 -0.111913 0
M  V30 10822 C 1055.3 1.82039 0.414591 0
M  V30 10823 C 1055.65 1.02863 1.67074 0
M  V30 10824 O 1054.77 0.263068 2.14795 0
M  V30 10825 C 1055.37 3.3019 0.758953 0
M  V30 10826 C 1053.93 3.55732 1.23012 0
M  V30 10827 C 1053.07 2.76301 0.235226 0
M  V30 10828 H 1056.02 1.55078 -0.337142 0
M  V30 10829 H 1056.05 3.44431 1.61701 0
M  V30 10830 H 1055.56 3.87788 -0.155473 0
M  V30 10831 H 1053.66 3.03483 2.16169 0
M  V30 10832 H 1053.77 4.64333 1.18034 0
M  V30 10833 H 1052.14 2.44287 0.720822 0
M  V30 10834 H 1052.92 3.36655 -0.672173 0
M  V30 10835 N 1055.36 -0.161842 1.56767 0
M  V30 10836 C 1056.59 -0.896274 1.87034 0
M  V30 10837 C 1057.01 -1.74617 0.699314 0
M  V30 10838 O 1056.37 -1.77861 -0.351435 0
M  V30 10839 C 1056.42 -1.74105 3.15784 0
M  V30 10840 O 1055.52 -2.84372 2.98674 0
M  V30 10841 H 1054.86 -0.250523 0.614926 0
M  V30 10842 H 1057.39 -0.157127 2.03996 0
M  V30 10843 H 1057.4 -2.13907 3.4743 0
M  V30 10844 H 1056.08 -1.11684 4.00624 0
M  V30 10845 H 1054.66 -2.48084 2.78404 0
M  V30 10846 N 1056.84 -1.516 -0.430713 0
M  V30 10847 C 1058.09 -1.64271 -1.17726 0
M  V30 10848 C 1058.41 -0.364406 -1.91565 0
M  V30 10849 O 1057.68 0.619991 -1.8583 0
M  V30 10850 H 1056.26 -0.605432 -0.437562 0
M  V30 10851 H 1058.92 -1.88557 -0.493166 0
M  V30 10852 H 1058.02 -2.47355 -1.90321 0
M  V30 10853 N 1058.32 0.686584 -1.41858 0
M  V30 10854 C 1059.57 1.44879 -1.41908 0
M  V30 10855 C 1059.9 1.94175 -0.0311408 0
M  V30 10856 O 1059.17 1.70131 0.942646 0
M  V30 10857 C 1059.46 2.65428 -2.43352 0
M  V30 10858 C 1059.31 2.2184 -3.91289 0
M  V30 10859 C 1060.63 3.67635 -2.41934 0
M  V30 10860 H 1057.75 0.525477 -0.516762 0
M  V30 10861 H 1060.39 0.781263 -1.73194 0
M  V30 10862 H 1058.54 3.2238 -2.16803 0
M  V30 10863 H 1060.21 1.70146 -4.28775 0
M  V30 10864 H 1058.45 1.53531 -4.05722 0
M  V30 10865 H 1059.13 3.08376 -4.5783 0
M  V30 10866 H 1061.6 3.20376 -2.65516 0
M  V30 10867 H 1060.48 4.49579 -3.14913 0
M  V30 10868 H 1060.74 4.17953 -1.44111 0
M  V30 10869 N 1059.8 1.27835 0.921735 0
M  V30 10870 C 1060.75 1.07723 2.00947 0
M  V30 10871 C 1061.73 0.00336676 1.609 0
M  V30 10872 O 1062.92 0.222593 1.75595 0
M  V30 10873 C 1060.05 0.732732 3.35389 0
M  V30 10874 C 1059.14 1.84504 3.81863 0
M  V30 10875 N 1059.53 3.08551 4.00787 0
M  V30 10876 C 1057.83 1.73308 4.10951 0
M  V30 10877 C 1058.53 3.80974 4.39584 0
M  V30 10878 N 1057.5 3.08773 4.47393 0
M  V30 10879 H 1061.31 2.01854 2.13617 0
M  V30 10880 H 1058.82 1.18637 1.109 0
M  V30 10881 H 1060.82 0.56975 4.12988 0
M  V30 10882 H 1059.48 -0.200885 3.24078 0
M  V30 10883 H 1060.49 3.44248 3.86928 0
M  V30 10884 H 1057.17 0.870698 4.0832 0
M  V30 10885 H 1058.56 4.87617 4.62255 0
M  V30 10886 N 1061.28 -1.12907 1.09954 0
M  V30 10887 C 1062.21 -2.20585 0.765799 0
M  V30 10888 C 1063.19 -1.68117 -0.258989 0
M  V30 10889 O 1064.37 -1.93792 -0.125853 0
M  V30 10890 C 1061.5 -3.46772 0.191435 0
M  V30 10891 C 1060.46 -4.12363 1.14635 0
M  V30 10892 C 1059.78 -5.3294 0.433426 0
M  V30 10893 C 1061.08 -4.59073 2.49096 0
M  V30 10894 H 1062.78 -2.48759 1.66612 0
M  V30 10895 H 1060.32 -1.19563 0.802534 0
M  V30 10896 H 1062.27 -4.21365 -0.0541535 0
M  V30 10897 H 1061 -3.18011 -0.744101 0
M  V30 10898 H 1059.66 -3.39744 1.37731 0
M  V30 10899 H 1059.31 -5.00444 -0.506422 0
M  V30 10900 H 1059.01 -5.77772 1.07018 0
M  V30 10901 H 1060.53 -6.10284 0.196267 0
M  V30 10902 H 1061.94 -5.25063 2.30177 0
M  V30 10903 H 1060.34 -5.14665 3.0861 0
M  V30 10904 H 1061.41 -3.73313 3.0946 0
M  V30 10905 N 1062.75 -0.88754 -1.30232 0
M  V30 10906 C 1063.66 -0.360333 -2.31816 0
M  V30 10907 C 1064.68 0.538741 -1.6545 0
M  V30 10908 O 1065.86 0.431246 -1.96729 0
M  V30 10909 C 1062.92 0.414336 -3.44215 0
M  V30 10910 C 1061.98 -0.514799 -4.26202 0
M  V30 10911 C 1061.21 0.222994 -5.33234 0
M  V30 10912 O 1061.44 1.44871 -5.51696 0
M  V30 10913 O 1060.37 -0.428221 -6.00375 0
M  V30 10914 H 1064.2 -1.20279 -2.78867 0
M  V30 10915 H 1061.78 -0.651459 -1.34448 0
M  V30 10916 H 1063.66 0.852859 -4.12679 0
M  V30 10917 H 1062.34 1.23305 -2.99295 0
M  V30 10918 H 1061.25 -1.00219 -3.60426 0
M  V30 10919 H 1062.58 -1.29959 -4.74733 0
M  V30 10920 N 1064.23 1.43628 -0.648757 0
M  V30 10921 C 1065.51 1.95391 -0.0904551 0
M  V30 10922 C 1065.89 1.59021 1.38837 0
M  V30 10923 O 1065.24 0.873078 2.11163 0
M  V30 10924 C 1065.45 3.47418 -0.33196 0
M  V30 10925 C 1066.8 4.23952 -0.234521 0
M  V30 10926 O 1067.82 3.55218 -0.264276 0
M  V30 10927 O 1066.68 5.46282 -0.154428 0
M  V30 10928 H 1063.77 0.82691 0.0121884 0
M  V30 10929 H 1066.32 1.5359 -0.721685 0
M  V30 10930 H 1065.09 3.67001 -1.35741 0
M  V30 10931 H 1064.71 3.96207 0.332556 0
M  V30 10932 N 1065.71 0.390394 1.52688 0
M  V30 10933 C 1066.96 -0.184195 2.02564 0
M  V30 10934 C 1067.31 -1.44379 1.27171 0
M  V30 10935 O 1066.6 -1.88112 0.36395 0
M  V30 10936 C 1066.8 -0.50468 3.53819 0
M  V30 10937 C 1066.63 0.722304 4.43861 0
M  V30 10938 C 1065.4 1.24189 4.89801 0
M  V30 10939 C 1067.6 1.59494 4.88944 0
M  V30 10940 N 1065.58 2.42631 5.63918 0
M  V30 10941 C 1066.95 2.62577 5.61652 0
M  V30 10942 C 1069 1.61491 4.70983 0
M  V30 10943 C 1067.71 3.67544 6.18307 0
M  V30 10944 C 1069.73 2.65365 5.28522 0
M  V30 10945 C 1069.09 3.6717 6.01137 0
M  V30 10946 H 1065.19 -0.0294605 0.781445 0
M  V30 10947 H 1067.78 0.54053 1.87046 0
M  V30 10948 H 1065.95 -1.19846 3.69448 0
M  V30 10949 H 1067.68 -1.06652 3.90394 0
M  V30 10950 H 1064.44 0.802731 4.66747 0
M  V30 10951 H 1064.86 3.02564 6.05627 0
M  V30 10952 H 1069.5 0.841291 4.14345 0
M  V30 10953 H 1067.22 4.45773 6.74027 0
M  V30 10954 H 1070.81 2.67795 5.16505 0
M  V30 10955 H 1069.69 4.46228 6.44864 0
M  V30 10956 N 1067.19 -1.57141 0.120249 0
M  V30 10957 C 1068.6 -1.82256 -0.404931 0
M  V30 10958 C 1068.95 -1.03748 -1.66526 0
M  V30 10959 O 1068.08 -0.274456 -2.14653 0
M  V30 10960 C 1068.67 -3.30588 -0.741431 0
M  V30 10961 C 1067.23 -3.56379 -1.21124 0
M  V30 10962 C 1066.38 -2.76421 -0.220569 0
M  V30 10963 H 1069.33 -1.54897 0.345361 0
M  V30 10964 H 1069.35 -3.45284 -1.59872 0
M  V30 10965 H 1068.86 -3.87701 0.176036 0
M  V30 10966 H 1066.96 -3.04625 -2.14556 0
M  V30 10967 H 1067.07 -4.64952 -1.1557 0
M  V30 10968 H 1065.44 -2.44666 -0.707857 0
M  V30 10969 H 1066.22 -3.36294 0.690018 0
M  V30 10970 N 1068.67 0.153526 -1.5685 0
M  V30 10971 C 1069.6 1.2147 -1.94365 0
M  V30 10972 C 1070.61 1.39532 -0.838726 0
M  V30 10973 O 1071.8 1.39219 -1.11715 0
M  V30 10974 C 1068.9 2.5806 -2.19677 0
M  V30 10975 C 1068.07 2.61062 -3.50949 0
M  V30 10976 C 1067.13 3.79144 -3.64878 0
M  V30 10977 O 1066.16 3.64319 -4.37333 0
M  V30 10978 N 1067.36 4.96333 -3.01054 0
M  V30 10979 H 1070.13 0.895889 -2.85996 0
M  V30 10980 H 1067.69 0.343147 -1.58222 0
M  V30 10981 H 1069.68 3.35553 -2.26243 0
M  V30 10982 H 1068.25 2.8226 -1.34343 0
M  V30 10983 H 1067.47 1.69533 -3.55882 0
M  V30 10984 H 1068.76 2.60094 -4.37297 0
M  V30 10985 H 1068.15 5.1128 -2.42093 0
M  V30 10986 H 1066.71 5.71625 -3.13191 0
M  V30 10987 N 1070.14 1.51827 0.422667 0
M  V30 10988 C 1071.08 1.70409 1.53275 0
M  V30 10989 C 1072.09 0.584584 1.51942 0
M  V30 10990 O 1073.28 0.859349 1.56453 0
M  V30 10991 C 1070.38 1.717 2.92185 0
M  V30 10992 C 1069.55 3.00472 3.17861 0
M  V30 10993 C 1068.61 2.93755 4.36571 0
M  V30 10994 O 1067.64 3.67682 4.3451 0
M  V30 10995 N 1068.84 2.10612 5.40946 0
M  V30 10996 H 1071.6 2.66176 1.37734 0
M  V30 10997 H 1069.16 1.49895 0.611799 0
M  V30 10998 H 1071.16 1.64756 3.69645 0
M  V30 10999 H 1069.73 0.834655 3.01251 0
M  V30 11000 H 1068.95 3.21171 2.28567 0
M  V30 11001 H 1070.23 3.85684 3.31851 0
M  V30 11002 H 1069.63 1.49954 5.45463 0
M  V30 11003 H 1068.19 2.09535 6.17202 0
M  V30 11004 N 1071.62 -0.679052 1.4222 0
M  V30 11005 C 1072.87 -1.43627 1.42182 0
M  V30 11006 C 1073.19 -1.94964 0.0377095 0
M  V30 11007 O 1072.46 -1.72788 -0.923098 0
M  V30 11008 H 1071.04 -0.532972 0.523402 0
M  V30 11009 H 1073.7 -0.802649 1.77605 0
M  V30 11010 H 1072.8 -2.29137 2.11902 0
M  V30 11011 N 1073.1 -1.28322 -0.914942 0
M  V30 11012 C 1074.06 -1.12169 -1.99877 0
M  V30 11013 C 1075.06 -0.0617252 -1.60681 0
M  V30 11014 O 1076.25 -0.307405 -1.71466 0
M  V30 11015 C 1073.39 -0.711959 -3.33383 0
M  V30 11016 H 1074.58 -2.08425 -2.15636 0
M  V30 11017 H 1072.13 -1.11291 -1.09745 0
M  V30 11018 H 1072.87 0.251418 -3.23324 0
M  V30 11019 H 1072.65 -1.47764 -3.63192 0
M  V30 11020 H 1074.14 -0.621558 -4.12948 0
M  V30 11021 N 1074.58 1.12322 -1.10551 0
M  V30 11022 C 1075.99 1.6539 -0.8662 0
M  V30 11023 C 1076.34 1.86695 0.603284 0
M  V30 11024 O 1075.47 1.59432 1.46323 0
M  V30 11025 C 1076.06 3.00443 -1.56587 0
M  V30 11026 C 1074.62 3.50456 -1.37323 0
M  V30 11027 C 1073.77 2.25454 -1.61449 0
M  V30 11028 H 1076.72 0.960866 -1.26305 0
M  V30 11029 H 1076.74 3.66972 -1.00557 0
M  V30 11030 H 1076.25 2.84905 -2.63535 0
M  V30 11031 H 1074.35 3.71176 -0.325431 0
M  V30 11032 H 1074.46 4.29839 -2.11601 0
M  V30 11033 H 1072.83 2.32621 -1.03729 0
M  V30 11034 H 1073.61 2.12469 -2.69651 0
M  V30 11035 N 1076.06 0.894434 1.2976 0
M  V30 11036 C 1077.3 0.527831 1.96432 0
M  V30 11037 C 1077.66 -0.914793 1.69261 0
M  V30 11038 O 1076.95 -1.63911 0.99215 0
M  V30 11039 C 1077.14 0.750307 3.49435 0
M  V30 11040 C 1076.97 2.213 3.91479 0
M  V30 11041 C 1075.74 2.85943 4.16611 0
M  V30 11042 C 1077.94 3.18771 4.03595 0
M  V30 11043 N 1075.92 4.2271 4.45185 0
M  V30 11044 C 1077.29 4.40641 4.3616 0
M  V30 11045 C 1079.35 3.14432 3.86053 0
M  V30 11046 C 1078.05 5.58725 4.53011 0
M  V30 11047 C 1080.08 4.31797 4.0411 0
M  V30 11048 C 1079.44 5.52435 4.37029 0
M  V30 11049 H 1075.54 0.242654 0.7434 0
M  V30 11050 H 1078.12 1.15415 1.56804 0
M  V30 11051 H 1076.29 0.153411 3.88097 0
M  V30 11052 H 1078.03 0.349663 4.03187 0
M  V30 11053 H 1074.78 2.36763 4.10171 0
M  V30 11054 H 1075.21 4.9337 4.63589 0
M  V30 11055 H 1079.85 2.22255 3.5967 0
M  V30 11056 H 1077.57 6.51398 4.78232 0
M  V30 11057 H 1081.15 4.2992 3.91995 0
M  V30 11058 H 1080.03 6.41738 4.50712 0
M  V30 11059 N 1077.53 -1.43282 0.656365 0
M  V30 11060 C 1078.5 -2.29188 -0.0239173 0
M  V30 11061 C 1079.5 -1.42373 -0.747436 0
M  V30 11062 O 1080.69 -1.63969 -0.588213 0
M  V30 11063 C 1077.82 -3.24501 -1.0446 0
M  V30 11064 H 1079.01 -2.9083 0.731978 0
M  V30 11065 H 1076.57 -1.50614 0.417752 0
M  V30 11066 H 1077.3 -2.6776 -1.82962 0
M  V30 11067 H 1077.09 -3.88509 -0.52942 0
M  V30 11068 H 1078.58 -3.88971 -1.51958 0
M  V30 11069 N 1079.01 -0.398486 -1.52479 0
M  V30 11070 C 1079.92 0.439328 -2.3045 0
M  V30 11071 C 1080.94 1.06322 -1.37738 0
M  V30 11072 O 1082.12 1.06704 -1.7081 0
M  V30 11073 C 1079.18 1.54655 -3.10294 0
M  V30 11074 C 1078.24 0.946824 -4.18729 0
M  V30 11075 C 1077.47 2.00129 -4.94757 0
M  V30 11076 O 1077.7 3.2178 -4.70971 0
M  V30 11077 O 1076.63 1.61345 -5.79872 0
M  V30 11078 H 1080.46 -0.196118 -3.03066 0
M  V30 11079 H 1078.04 -0.161961 -1.4852 0
M  V30 11080 H 1079.92 2.18958 -3.60049 0
M  V30 11081 H 1078.6 2.1668 -2.40482 0
M  V30 11082 H 1077.51 0.266802 -3.73147 0
M  V30 11083 H 1078.84 0.370664 -4.90802 0
M  V30 11084 N 1080.49 1.57075 -0.12858 0
M  V30 11085 C 1081.45 2.14643 0.803813 0
M  V30 11086 C 1082.45 1.08363 1.18803 0
M  V30 11087 O 1083.64 1.34093 1.11197 0
M  V30 11088 C 1080.78 2.6945 2.08829 0
M  V30 11089 H 1081.97 2.98362 0.303347 0
M  V30 11090 H 1079.52 1.55833 0.120735 0
M  V30 11091 H 1080.26 1.89345 2.63285 0
M  V30 11092 H 1080.04 3.47187 1.82218 0
M  V30 11093 H 1081.53 3.13865 2.7546 0
M  V30 11094 N 1081.97 -0.145205 1.5693 0
M  V30 11095 C 1082.9 -1.20438 1.95006 0
M  V30 11096 C 1083.91 -1.39085 0.846114 0
M  V30 11097 O 1085.1 -1.38625 1.12452 0
M  V30 11098 C 1082.2 -2.56892 2.21043 0
M  V30 11099 C 1081.38 -2.59197 3.52329 0
M  V30 11100 C 1080.44 -3.77204 3.66884 0
M  V30 11101 O 1079.46 -3.61995 4.39259 0
M  V30 11102 N 1080.66 -4.9473 3.03682 0
M  V30 11103 H 1083.43 -0.880709 2.86467 0
M  V30 11104 H 1080.99 -0.334751 1.58401 0
M  V30 11105 H 1082.98 -3.34349 2.2802 0
M  V30 11106 H 1081.55 -2.81544 1.35838 0
M  V30 11107 H 1080.77 -1.67644 3.56776 0
M  V30 11108 H 1082.06 -2.57771 4.3867 0
M  V30 11109 H 1081.46 -5.09989 2.44801 0
M  V30 11110 H 1080.01 -5.69956 3.16218 0
M  V30 11111 N 1083.45 -1.52049 -0.414609 0
M  V30 11112 C 1084.41 -1.74382 -1.4874 0
M  V30 11113 C 1085.41 -0.613701 -1.48628 0
M  V30 11114 O 1086.6 -0.88152 -1.50249 0
M  V30 11115 C 1083.73 -1.82116 -2.88178 0
M  V30 11116 H 1084.93 -2.70147 -1.30233 0
M  V30 11117 H 1082.48 -1.42382 -0.644756 0
M  V30 11118 H 1083.21 -0.882457 -3.12063 0
M  V30 11119 H 1083 -2.64268 -2.89663 0
M  V30 11120 H 1084.49 -2.01155 -3.65959 0
M  V30 11121 N 1084.93 0.6715 -1.42579 0
M  V30 11122 C 1086.34 1.2522 -1.38481 0
M  V30 11123 C 1086.69 1.96038 -0.079719 0
M  V30 11124 O 1085.81 2.00203 0.821441 0
M  V30 11125 C 1086.41 2.27736 -2.50842 0
M  V30 11126 C 1084.97 2.81325 -2.50067 0
M  V30 11127 C 1084.11 1.55694 -2.29466 0
M  V30 11128 H 1087.06 0.464673 -1.51745 0
M  V30 11129 H 1087.09 3.09539 -2.21283 0
M  V30 11130 H 1086.6 1.76164 -3.45815 0
M  V30 11131 H 1084.7 3.37008 -1.58922 0
M  V30 11132 H 1084.81 3.30116 -3.47218 0
M  V30 11133 H 1083.18 1.82383 -1.77788 0
M  V30 11134 H 1083.96 1.06084 -3.26498 0
M  V30 11135 N 1086.4 1.28806 0.908124 0
M  V30 11136 C 1087.65 1.16058 1.65454 0
M  V30 11137 C 1087.97 -0.290057 1.92831 0
M  V30 11138 O 1087.24 -1.20001 1.54843 0
M  V30 11139 H 1085.82 0.426522 0.61326 0
M  V30 11140 H 1088.48 1.61614 1.08936 0
M  V30 11141 H 1087.58 1.70437 2.61453 0
M  V30 11142 N 1087.88 -1.11734 1.11145 0
M  V30 11143 C 1089.3 -1.35412 0.844736 0
M  V30 11144 C 1089.5 -1.94347 -0.532111 0
M  V30 11145 O 1088.55 -2.17443 -1.28353 0
M  V30 11146 C 1089.87 -2.28869 1.95037 0
M  V30 11147 C 1091.41 -2.42442 1.97967 0
M  V30 11148 C 1091.89 -3.39219 3.07725 0
M  V30 11149 N 1093.38 -3.4678 3.07079 0
M  V30 11150 C 1094.12 -4.21595 3.88646 0
M  V30 11151 N 1093.61 -4.99411 4.80167 0
M  V30 11152 N 1095.4 -4.17075 3.76835 0
M  V30 11153 H 1087.56 -0.718412 1.99881 0
M  V30 11154 H 1089.82 -0.378787 0.869037 0
M  V30 11155 H 1089.52 -1.92752 2.94176 0
M  V30 11156 H 1089.4 -3.2906 1.84389 0
M  V30 11157 H 1091.79 -2.77835 0.994561 0
M  V30 11158 H 1091.87 -1.42113 2.12691 0
M  V30 11159 H 1091.51 -3.04553 4.0646 0
M  V30 11160 H 1091.44 -4.39394 2.90242 0
M  V30 11161 H 1093.93 -2.91272 2.40767 0
M  V30 11162 H 1094.24 -5.53856 5.38946 0
M  V30 11163 H 1092.59 -4.98582 4.84191 0
M  V30 11164 H 1095.78 -3.55369 3.04681 0
M  V30 11165 H 1095.95 -4.75125 4.40637 0
M  V30 11166 N 1089.36 -0.901303 -1.29284 0
M  V30 11167 C 1090.27 -0.3849 -2.31421 0
M  V30 11168 C 1091.29 0.521163 -1.66012 0
M  V30 11169 O 1092.46 0.410356 -1.97175 0
M  V30 11170 C 1089.53 0.377804 -3.44635 0
M  V30 11171 C 1088.59 -0.559974 -4.25632 0
M  V30 11172 C 1087.82 0.166425 -5.3344 0
M  V30 11173 O 1088.04 1.39012 -5.53202 0
M  V30 11174 O 1086.98 -0.491875 -5.99887 0
M  V30 11175 H 1090.8 -1.2323 -2.77575 0
M  V30 11176 H 1088.39 -0.665683 -1.3375 0
M  V30 11177 H 1090.27 0.809041 -4.13561 0
M  V30 11178 H 1088.95 1.20124 -3.00586 0
M  V30 11179 H 1087.85 -1.04036 -3.59343 0
M  V30 11180 H 1089.19 -1.34987 -4.73328 0
M  V30 11181 N 1090.84 1.42931 -0.663954 0
M  V30 11182 C 1091.75 2.3459 0.0214234 0
M  V30 11183 C 1092.76 1.54487 0.800611 0
M  V30 11184 O 1093.94 1.87098 0.74541 0
M  V30 11185 C 1091 3.32896 0.968556 0
M  V30 11186 C 1090.07 4.28901 0.185108 0
M  V30 11187 C 1089.3 5.2251 1.08713 0
M  V30 11188 O 1089.52 5.20795 2.32655 0
M  V30 11189 O 1088.46 5.99347 0.553758 0
M  V30 11190 H 1092.28 2.94714 -0.733308 0
M  V30 11191 H 1089.87 1.43252 -0.424159 0
M  V30 11192 H 1091.75 3.93318 1.51257 0
M  V30 11193 H 1090.42 2.75261 1.70333 0
M  V30 11194 H 1089.33 3.71926 -0.402752 0
M  V30 11195 H 1090.66 4.89547 -0.510319 0
M  V30 11196 N 1092.32 0.406567 1.52266 0
M  V30 11197 C 1093.59 -0.228477 1.94261 0
M  V30 11198 C 1093.97 -1.62848 1.34328 0
M  V30 11199 O 1093.32 -2.22549 0.518082 0
M  V30 11200 C 1093.53 -0.237401 3.48192 0
M  V30 11201 C 1094.88 -0.457997 4.22123 0
M  V30 11202 O 1095.9 -0.316868 3.54788 0
M  V30 11203 O 1094.76 -0.735946 5.41522 0
M  V30 11204 H 1091.86 -0.146492 0.813922 0
M  V30 11205 H 1094.4 0.462325 1.63281 0
M  V30 11206 H 1093.17 0.742556 3.8419 0
M  V30 11207 H 1092.8 -0.972408 3.85526 0
M  V30 11208 N 1093.79 -1.57004 0.136909 0
M  V30 11209 C 1095.21 -1.58082 -0.21958 0
M  V30 11210 C 1095.41 -1.15065 -1.65415 0
M  V30 11211 O 1094.47 -0.846284 -2.37896 0
M  V30 11212 C 1095.78 -3.00685 0.0300112 0
M  V30 11213 C 1097.33 -3.12981 -0.0344899 0
M  V30 11214 C 1097.8 -4.57615 0.187639 0
M  V30 11215 N 1099.29 -4.63005 0.134219 0
M  V30 11216 C 1100.03 -5.72712 0.280743 0
M  V30 11217 N 1099.52 -6.91104 0.48443 0
M  V30 11218 N 1101.32 -5.61673 0.219055 0
M  V30 11219 H 1093.47 -1.83262 1.07372 0
M  V30 11220 H 1095.73 -0.847776 0.424241 0
M  V30 11221 H 1095.44 -3.36509 1.02247 0
M  V30 11222 H 1095.31 -3.70762 -0.693918 0
M  V30 11223 H 1097.7 -2.77004 -1.01749 0
M  V30 11224 H 1097.78 -2.45411 0.721608 0
M  V30 11225 H 1097.42 -4.94295 1.16769 0
M  V30 11226 H 1097.35 -5.23299 -0.588661 0
M  V30 11227 H 1099.84 -3.77895 -0.0189681 0
M  V30 11228 H 1100.16 -7.7057 0.586613 0
M  V30 11229 H 1098.5 -6.93047 0.520627 0
M  V30 11230 H 1101.69 -4.68061 0.0607606 0
M  V30 11231 H 1101.87 -6.47125 0.336683 0
M  V30 11232 N 1095.27 0.136881 -1.57004 0
M  V30 11233 C 1096.5 0.866405 -1.88436 0
M  V30 11234 C 1096.92 1.73483 -0.727006 0
M  V30 11235 O 1096.28 1.78398 0.323094 0
M  V30 11236 C 1096.33 1.69059 -3.18514 0
M  V30 11237 O 1095.43 2.79584 -3.03161 0
M  V30 11238 H 1094.77 0.240709 -0.618834 0
M  V30 11239 H 1097.3 0.124653 -2.0422 0
M  V30 11240 H 1097.31 2.08353 -3.50789 0
M  V30 11241 H 1095.99 1.05296 -4.0235 0
M  V30 11242 H 1094.57 2.43623 -2.82315 0
M  V30 11243 N 1096.75 1.52266 0.40654 0
M  V30 11244 C 1097.99 1.6813 1.16239 0
M  V30 11245 C 1098.35 0.403791 1.87706 0
M  V30 11246 O 1099.56 0.438566 2.65198 0
M  V30 11247 C 1097.83 2.87115 2.12837 0
M  V30 11248 S 1099.39 3.23475 2.96495 0
M  V30 11249 H 1096.2 0.59202 0.393743 0
M  V30 11250 H 1098.81 1.90266 0.449325 0
M  V30 11251 H 1097.51 3.78337 1.59026 0
M  V30 11252 H 1097.04 2.6726 2.88679 0
M  V30 11253 H 1099.06 2.72299 4.14811 0
M  V30 11254 N 1098.23 -0.663929 1.42933 0
M  V30 11255 C 1099.51 -1.42054 1.34462 0
M  V30 11256 C 1099.89 -2.11096 -0.0127801 0
M  V30 11257 O 1099.23 -2.04027 -1.02884 0
M  V30 11258 C 1099.44 -2.41406 2.5204 0
M  V30 11259 C 1100.79 -3.05726 2.94647 0
M  V30 11260 O 1101.82 -2.51733 2.52009 0
M  V30 11261 O 1100.67 -4.03593 3.68477 0
M  V30 11262 H 1097.77 -0.634149 0.530834 0
M  V30 11263 H 1100.31 -0.691738 1.54962 0
M  V30 11264 H 1099.09 -1.89263 3.42484 0
M  V30 11265 H 1098.71 -3.21752 2.33584 0
M  V30 11266 N 1099.71 -1.29285 -0.901281 0
M  V30 11267 C 1100.67 -1.14283 -1.98676 0
M  V30 11268 C 1101.67 -0.0787641 -1.60607 0
M  V30 11269 O 1102.86 -0.325574 -1.71131 0
M  V30 11270 C 1099.99 -0.747279 -3.32609 0
M  V30 11271 H 1101.18 -2.10701 -2.13413 0
M  V30 11272 H 1098.74 -1.12449 -1.08558 0
M  V30 11273 H 1099.47 0.217111 -3.23572 0
M  V30 11274 H 1099.26 -1.51608 -3.61604 0
M  V30 11275 H 1100.75 -0.665322 -4.12266 0
M  V30 11276 N 1101.18 1.11143 -1.11736 0
M  V30 11277 C 1102.43 1.82586 -0.866412 0
M  V30 11278 C 1102.75 1.85227 0.609593 0
M  V30 11279 O 1102.02 1.32505 1.44288 0
M  V30 11280 H 1100.6 0.676149 -0.31754 0
M  V30 11281 H 1103.27 1.34516 -1.41037 0
M  V30 11282 H 1102.36 2.8635 -1.24136 0
M  V30 11283 N 1102.66 0.908147 1.28804 0
M  V30 11284 C 1103.63 0.397058 2.25735 0
M  V30 11285 C 1104.63 -0.473483 1.53671 0
M  V30 11286 O 1105.82 -0.277335 1.71978 0
M  V30 11287 C 1102.95 -0.431392 3.38159 0
M  V30 11288 H 1104.14 1.25323 2.72459 0
M  V30 11289 H 1101.69 0.687041 1.4039 0
M  V30 11290 H 1102.43 -1.3072 2.96787 0
M  V30 11291 H 1102.21 0.192502 3.91627 0
M  V30 11292 H 1103.7 -0.78 4.10251 0
M  V30 11293 N 1104.14 -1.42577 0.671525 0
M  V30 11294 C 1105.55 -1.84736 0.270084 0
M  V30 11295 C 1105.9 -1.56212 -1.18711 0
M  V30 11296 O 1105.03 -1.02028 -1.90838 0
M  V30 11297 C 1105.62 -3.35334 0.483409 0
M  V30 11298 C 1104.18 -3.76154 0.136119 0
M  V30 11299 C 1103.33 -2.66179 0.777444 0
M  V30 11300 H 1106.28 -1.3247 0.873919 0
M  V30 11301 H 1106.3 -3.79573 -0.265483 0
M  V30 11302 H 1105.81 -3.56063 1.54405 0
M  V30 11303 H 1103.91 -3.61033 -0.921209 0
M  V30 11304 H 1104.03 -4.75645 0.574356 0
M  V30 11305 H 1102.39 -2.53841 0.209055 0
M  V30 11306 H 1103.17 -2.89732 1.84148 0
M  V30 11307 N 1105.62 -0.414636 -1.52048 0
M  V30 11308 C 1107.03 0.0537107 -1.86623 0
M  V30 11309 C 1107.38 1.43955 -1.3331 0
M  V30 11310 O 1106.51 2.05616 -0.674606 0
M  V30 11311 C 1107.1 0.104241 -3.3864 0
M  V30 11312 C 1105.66 0.516936 -3.72833 0
M  V30 11313 C 1104.81 -0.305042 -2.75617 0
M  V30 11314 H 1107.76 -0.631469 -1.45596 0
M  V30 11315 H 1107.78 0.918395 -3.6925 0
M  V30 11316 H 1107.29 -0.904523 -3.77412 0
M  V30 11317 H 1105.39 1.53214 -3.39641 0
M  V30 11318 H 1105.5 0.2575 -4.78408 0
M  V30 11319 H 1103.87 0.233416 -2.53628 0
M  V30 11320 H 1104.65 -1.31226 -3.1723 0
M  V30 11321 N 1107.1 1.56929 -0.145233 0
M  V30 11322 C 1108.04 2.16671 0.795128 0
M  V30 11323 C 1109.01 1.09908 1.24537 0
M  V30 11324 O 1110.2 1.37941 1.31821 0
M  V30 11325 C 1107.34 2.79111 2.02956 0
M  V30 11326 C 1106.45 4.00261 1.62528 0
M  V30 11327 C 1105.59 4.50705 2.81137 0
M  V30 11328 C 1104.63 5.64324 2.37075 0
M  V30 11329 N 1103.76 6.09395 3.48687 0
M  V30 11330 H 1108.6 2.96692 0.278865 0
M  V30 11331 H 1106.14 1.4656 0.125934 0
M  V30 11332 H 1108.1 3.13456 2.7532 0
M  V30 11333 H 1106.73 2.01737 2.51996 0
M  V30 11334 H 1105.78 3.71906 0.799365 0
M  V30 11335 H 1107.09 4.8258 1.26166 0
M  V30 11336 H 1106.25 4.87096 3.61693 0
M  V30 11337 H 1104.98 3.67389 3.20744 0
M  V30 11338 H 1103.99 5.27511 1.54958 0
M  V30 11339 H 1105.21 6.49425 1.98556 0
M  V30 11340 H 1103.16 5.29014 3.87917 0
M  V30 11341 H 1103.08 6.86636 3.16333 0
M  V30 11342 H 1104.35 6.50431 4.29605 0
M  V30 11343 N 1108.58 -0.128553 1.57075 0
M  V30 11344 C 1109.85 -0.867766 1.75297 0
M  V30 11345 C 1110.23 -1.98508 0.718176 0
M  V30 11346 O 1109.58 -2.2702 -0.259616 0
M  V30 11347 C 1109.79 -1.39326 3.19983 0
M  V30 11348 C 1111.14 -1.84939 3.82208 0
M  V30 11349 O 1112.16 -1.49027 3.23527 0
M  V30 11350 O 1111.02 -2.51227 4.85332 0
M  V30 11351 H 1108.12 -0.411393 0.717415 0
M  V30 11352 H 1110.66 -0.113038 1.69323 0
M  V30 11353 H 1109.43 -0.591172 3.86809 0
M  V30 11354 H 1109.06 -2.21097 3.30457 0
M  V30 11355 N 1110.05 -1.5248 -0.398459 0
M  V30 11356 C 1111.28 -1.71221 -1.17039 0
M  V30 11357 C 1111.7 -0.425515 -1.83224 0
M  V30 11358 O 1111.06 0.617938 -1.70444 0
M  V30 11359 C 1111.11 -2.8562 -2.20121 0
M  V30 11360 O 1110.21 -2.51934 -3.26501 0
M  V30 11361 H 1109.55 -0.569654 -0.34116 0
M  V30 11362 H 1112.08 -1.99231 -0.465652 0
M  V30 11363 H 1112.09 -3.10842 -2.64275 0
M  V30 11364 H 1110.77 -3.78969 -1.71334 0
M  V30 11365 H 1109.35 -2.3742 -2.87552 0
M  V30 11366 N 1111.53 0.65634 -1.43283 0
M  V30 11367 C 1112.76 1.44408 -1.48168 0
M  V30 11368 C 1113.17 1.88542 -0.0986016 0
M  V30 11369 O 1112.53 1.59298 0.890527 0
M  V30 11370 C 1112.58 2.68111 -2.42484 0
M  V30 11371 O 1112.3 2.25824 -3.75413 0
M  V30 11372 C 1113.8 3.61499 -2.56579 0
M  V30 11373 H 1111.02 0.443731 -0.503333 0
M  V30 11374 H 1113.57 0.804917 -1.87993 0
M  V30 11375 H 1111.72 3.28175 -2.05863 0
M  V30 11376 H 1112.14 3.05839 -4.26102 0
M  V30 11377 H 1113.61 4.44972 -3.26655 0
M  V30 11378 H 1114.09 4.08639 -1.60969 0
M  V30 11379 H 1114.69 3.07319 -2.93998 0
M  V30 11380 N 1113.01 1.29761 0.894412 0
M  V30 11381 C 1113.94 1.17902 2.01547 0
M  V30 11382 C 1114.92 0.0719402 1.69948 0
M  V30 11383 O 1116.11 0.252338 1.92554 0
M  V30 11384 C 1113.24 0.860262 3.36477 0
M  V30 11385 C 1112.19 1.92424 3.82305 0
M  V30 11386 C 1111.52 1.45868 5.14419 0
M  V30 11387 C 1112.82 3.33391 4.02054 0
M  V30 11388 H 1114.51 2.11688 2.11727 0
M  V30 11389 H 1112.06 1.01916 1.01731 0
M  V30 11390 H 1114.01 0.763987 4.14417 0
M  V30 11391 H 1112.73 -0.113289 3.26403 0
M  V30 11392 H 1111.39 2.00999 3.06586 0
M  V30 11393 H 1111.04 0.473654 5.00765 0
M  V30 11394 H 1110.74 2.17028 5.46052 0
M  V30 11395 H 1112.26 1.37601 5.94894 0
M  V30 11396 H 1113.68 3.27628 4.7046 0
M  V30 11397 H 1112.07 4.02555 4.4505 0
M  V30 11398 H 1113.14 3.75978 3.06216 0
M  V30 11399 N 1114.49 -1.10549 1.12324 0
M  V30 11400 C 1115.42 -2.18911 0.812416 0
M  V30 11401 C 1116.4 -1.68628 -0.22327 0
M  V30 11402 O 1117.58 -1.94015 -0.0847184 0
M  V30 11403 C 1114.71 -3.46288 0.264947 0
M  V30 11404 C 1113.67 -4.09838 1.23356 0
M  V30 11405 C 1112.99 -5.31901 0.546374 0
M  V30 11406 C 1114.29 -4.53686 2.58778 0
M  V30 11407 H 1115.99 -2.45169 1.71851 0
M  V30 11408 H 1113.53 -1.17834 0.827715 0
M  V30 11409 H 1115.49 -4.21385 0.0352364 0
M  V30 11410 H 1114.21 -3.19517 -0.676479 0
M  V30 11411 H 1112.87 -3.36746 1.44906 0
M  V30 11412 H 1112.52 -5.01406 -0.400157 0
M  V30 11413 H 1112.22 -5.75372 1.19249 0
M  V30 11414 H 1113.74 -6.09731 0.325673 0
M  V30 11415 H 1115.16 -5.20063 2.41263 0
M  V30 11416 H 1113.55 -5.08003 3.19457 0
M  V30 11417 H 1114.62 -3.66665 3.17309 0
M  V30 11418 N 1115.97 -0.914965 -1.28321 0
M  V30 11419 C 1117.38 -0.613297 -1.47346 0
M  V30 11420 C 1117.58 0.84106 -1.83108 0
M  V30 11421 O 1116.64 1.62004 -1.93678 0
M  V30 11422 C 1117.95 -1.55224 -2.57538 0
M  V30 11423 C 1119.5 -1.55909 -2.71407 0
M  V30 11424 C 1119.97 -2.48468 -3.84744 0
M  V30 11425 N 1121.46 -2.46602 -3.92099 0
M  V30 11426 C 1122.2 -3.14917 -4.79182 0
M  V30 11427 N 1121.7 -3.92566 -5.70845 0
M  V30 11428 N 1123.49 -3.03998 -4.72802 0
M  V30 11429 H 1115.64 -1.85539 -1.03388 0
M  V30 11430 H 1117.9 -0.795875 -0.515061 0
M  V30 11431 H 1117.61 -2.58917 -2.38023 0
M  V30 11432 H 1117.48 -1.28426 -3.54664 0
M  V30 11433 H 1119.87 -0.52953 -2.9031 0
M  V30 11434 H 1119.95 -1.86751 -1.74808 0
M  V30 11435 H 1119.59 -3.51526 -3.66595 0
M  V30 11436 H 1119.52 -2.14928 -4.80743 0
M  V30 11437 H 1122.02 -1.90199 -3.26547 0
M  V30 11438 H 1122.33 -4.41709 -6.34123 0
M  V30 11439 H 1120.67 -3.96671 -5.70681 0
M  V30 11440 H 1123.86 -2.42839 -4.00184 0
M  V30 11441 H 1124.04 -3.57511 -5.40454 0
M  V30 11442 N 1117.44 1.42219 -0.679077 0
M  V30 11443 C 1118.72 1.95155 -0.13188 0
M  V30 11444 C 1119.1 1.6193 1.35433 0
M  V30 11445 O 1118.45 0.917672 2.09263 0
M  V30 11446 C 1118.66 3.46635 -0.405578 0
M  V30 11447 C 1120.01 4.23359 -0.324394 0
M  V30 11448 O 1121.03 3.54578 -0.339564 0
M  V30 11449 O 1119.89 5.45831 -0.270268 0
M  V30 11450 H 1116.98 0.826983 -0.00535438 0
M  V30 11451 H 1119.53 1.52024 -0.754101 0
M  V30 11452 H 1118.3 3.6404 -1.43495 0
M  V30 11453 H 1117.92 3.96823 0.248439 0
M  V30 11454 N 1118.92 0.422693 1.51826 0
M  V30 11455 C 1119.87 -0.413725 2.24215 0
M  V30 11456 C 1120.86 -1.00228 1.2587 0
M  V30 11457 O 1122.05 -0.922845 1.51038 0
M  V30 11458 C 1119.18 -1.52244 3.07696 0
M  V30 11459 C 1118.26 -0.943999 4.1346 0
M  V30 11460 N 1118.65 -0.0934117 5.05714 0
M  V30 11461 C 1116.95 -1.21311 4.29185 0
M  V30 11462 C 1117.65 0.229891 5.81246 0
M  V30 11463 N 1116.63 -0.382753 5.42251 0
M  V30 11464 H 1120.43 0.242283 2.929 0
M  V30 11465 H 1117.94 0.233902 1.60707 0
M  V30 11466 H 1119.94 -2.13438 3.5812 0
M  V30 11467 H 1118.6 -2.18093 2.40552 0
M  V30 11468 H 1119.61 0.271932 5.17186 0
M  V30 11469 H 1116.29 -1.87018 3.7327 0
M  V30 11470 H 1117.68 0.921159 6.65556 0
M  V30 11471 N 1120.4 -1.5685 0.153553 0
M  V30 11472 C 1121.31 -2.20664 -0.796528 0
M  V30 11473 C 1122.33 -1.19289 -1.26674 0
M  V30 11474 O 1123.5 -1.51889 -1.32256 0
M  V30 11475 C 1120.57 -2.82088 -2.01561 0
M  V30 11476 C 1119.63 -3.9861 -1.59401 0
M  V30 11477 C 1118.86 -4.57096 -2.75498 0
M  V30 11478 O 1119.08 -4.14462 -3.9189 0
M  V30 11479 O 1118.02 -5.47254 -2.50593 0
M  V30 11480 H 1121.84 -3.02376 -0.283282 0
M  V30 11481 H 1119.43 -1.49218 -0.0737927 0
M  V30 11482 H 1121.31 -3.21103 -2.72893 0
M  V30 11483 H 1119.99 -2.03385 -2.51826 0
M  V30 11484 H 1118.89 -3.64299 -0.850725 0
M  V30 11485 H 1120.23 -4.78853 -1.13845 0
M  V30 11486 N 1121.88 0.120221 -1.57141 0
M  V30 11487 C 1123.13 0.826791 -1.83976 0
M  V30 11488 C 1123.44 1.81102 -0.739014 0
M  V30 11489 O 1124.65 2.56368 -0.893736 0
M  V30 11490 C 1123.1 1.52108 -3.26176 0
M  V30 11491 C 1122.71 0.577902 -4.44257 0
M  V30 11492 C 1124.45 2.21286 -3.62261 0
M  V30 11493 C 1122.36 1.27535 -5.77485 0
M  V30 11494 H 1121.29 0.312508 -0.686189 0
M  V30 11495 H 1123.94 0.0795343 -1.83328 0
M  V30 11496 H 1122.32 2.31492 -3.2129 0
M  V30 11497 H 1123.5 -0.182629 -4.60438 0
M  V30 11498 H 1121.81 -0.00684348 -4.16399 0
M  V30 11499 H 1124.41 2.74154 -4.59068 0
M  V30 11500 H 1124.75 2.99029 -2.89634 0
M  V30 11501 H 1125.29 1.48791 -3.68925 0
M  V30 11502 H 1122.02 0.539237 -6.53278 0
M  V30 11503 H 1121.54 2.00792 -5.65192 0
M  V30 11504 H 1123.22 1.80888 -6.21199 0
M  V30 11505 N 1123.36 1.52689 0.390367 0
M  V30 11506 C 1124.77 1.41909 0.730338 0
M  V30 11507 C 1124.97 0.538427 1.94173 0
M  V30 11508 O 1124.03 0.0113527 2.52497 0
M  V30 11509 C 1125.34 2.84737 0.966714 0
M  V30 11510 C 1126.89 2.94206 1.06827 0
M  V30 11511 C 1127.36 4.38042 1.33728 0
M  V30 11512 N 1128.86 4.4136 1.40553 0
M  V30 11513 C 1129.59 5.49735 1.63031 0
M  V30 11514 N 1129.09 6.68197 1.82988 0
M  V30 11515 N 1130.88 5.37276 1.65199 0
M  V30 11516 H 1123.03 2.08469 -0.406766 0
M  V30 11517 H 1125.29 0.940401 -0.11979 0
M  V30 11518 H 1125 3.51385 0.148725 0
M  V30 11519 H 1124.87 3.26909 1.88176 0
M  V30 11520 H 1127.26 2.27726 1.87683 0
M  V30 11521 H 1127.34 2.55463 0.131168 0
M  V30 11522 H 1126.99 5.05087 0.533832 0
M  V30 11523 H 1126.92 4.74336 2.28721 0
M  V30 11524 H 1129.41 3.55976 1.26844 0
M  V30 11525 H 1129.72 7.46567 1.99643 0
M  V30 11526 H 1128.06 6.71228 1.80215 0
M  V30 11527 H 1131.26 4.437 1.49158 0
M  V30 11528 H 1131.43 6.21806 1.82377 0
M  V30 11529 N 1124.83 -0.648732 1.43629 0
M  V30 11530 C 1125.8 -1.74331 1.488 0
M  V30 11531 C 1126.8 -1.56434 0.372147 0
M  V30 11532 O 1127.99 -1.6225 0.634078 0
M  V30 11533 C 1125.12 -3.13248 1.34494 0
M  V30 11534 H 1126.31 -1.71125 2.46285 0
M  V30 11535 H 1123.87 -0.860798 1.30461 0
M  V30 11536 H 1124.6 -3.22062 0.380345 0
M  V30 11537 H 1124.39 -3.27643 2.15389 0
M  V30 11538 H 1125.88 -3.93056 1.41055 0
M  V30 11539 N 1126.31 -1.30234 -0.887518 0
M  V30 11540 C 1127.54 -1.21955 -1.67755 0
M  V30 11541 C 1127.96 0.214701 -1.86871 0
M  V30 11542 O 1127.32 1.15459 -1.39782 0
M  V30 11543 C 1127.37 -1.95079 -3.03276 0
M  V30 11544 O 1126.47 -1.27615 -3.92158 0
M  V30 11545 H 1125.81 -0.421948 -0.512695 0
M  V30 11546 H 1128.34 -1.72011 -1.10785 0
M  V30 11547 H 1128.35 -2.04004 -3.53336 0
M  V30 11548 H 1127.03 -2.99392 -2.88682 0
M  V30 11549 H 1125.61 -1.27029 -3.50597 0
M  V30 11550 N 1127.79 1.09952 -1.12909 0
M  V30 11551 C 1128.72 2.18477 -0.824014 0
M  V30 11552 C 1129.7 1.68744 0.214324 0
M  V30 11553 O 1130.89 1.94057 0.0744281 0
M  V30 11554 C 1128.02 3.46143 -0.283308 0
M  V30 11555 C 1126.97 4.09178 -1.25528 0
M  V30 11556 C 1126.3 5.31604 -0.574574 0
M  V30 11557 C 1127.6 4.52308 -2.6118 0
M  V30 11558 H 1129.29 2.44254 -1.73148 0
M  V30 11559 H 1126.84 1.17394 -0.833952 0
M  V30 11560 H 1128.79 4.21361 -0.057583 0
M  V30 11561 H 1127.51 3.19872 0.659525 0
M  V30 11562 H 1126.17 3.35973 -1.4669 0
M  V30 11563 H 1125.82 5.01611 0.37356 0
M  V30 11564 H 1125.52 5.74732 -1.22299 0
M  V30 11565 H 1127.04 6.0955 -0.358004 0
M  V30 11566 H 1128.46 5.18776 -2.44017 0
M  V30 11567 H 1126.86 5.06302 -3.22147 0
M  V30 11568 H 1127.93 3.64977 -3.19249 0
M  V30 11569 N 1129.27 0.921757 1.27833 0
M  V30 11570 C 1130.5 0.575202 1.98744 0
M  V30 11571 C 1130.91 -0.845405 1.68815 0
M  V30 11572 O 1130.27 -1.56106 0.94536 0
M  V30 11573 C 1130.32 0.784389 3.52888 0
M  V30 11574 O 1130.04 2.1491 3.81766 0
M  V30 11575 C 1131.54 0.445744 4.41053 0
M  V30 11576 H 1128.76 0.218525 0.634419 0
M  V30 11577 H 1131.31 1.23715 1.62834 0
M  V30 11578 H 1129.46 0.169323 3.8703 0
M  V30 11579 H 1129.87 2.19469 4.76375 0
M  V30 11580 H 1131.35 0.64284 5.48244 0
M  V30 11581 H 1131.83 -0.618433 4.34824 0
M  V30 11582 H 1132.43 1.03869 4.12421 0
M  V30 11583 N 1130.75 -1.41857 0.686609 0
M  V30 11584 C 1131.69 -2.30795 0.015643 0
M  V30 11585 C 1132.66 -1.46616 -0.780569 0
M  V30 11586 O 1133.85 -1.75423 -0.750424 0
M  V30 11587 C 1130.99 -3.32577 -0.921229 0
M  V30 11588 C 1130.1 -4.3184 -0.117585 0
M  V30 11589 C 1129.24 -5.20693 -1.05128 0
M  V30 11590 C 1128.28 -6.11629 -0.240018 0
M  V30 11591 N 1127.41 -6.92995 -1.12704 0
M  V30 11592 H 1132.25 -2.87615 0.77985 0
M  V30 11593 H 1129.79 -1.41661 0.396298 0
M  V30 11594 H 1131.75 -3.90129 -1.47836 0
M  V30 11595 H 1130.38 -2.77328 -1.65193 0
M  V30 11596 H 1129.43 -3.7631 0.55634 0
M  V30 11597 H 1130.74 -4.96168 0.511753 0
M  V30 11598 H 1129.9 -5.83035 -1.67795 0
M  V30 11599 H 1128.63 -4.5657 -1.71449 0
M  V30 11600 H 1127.64 -5.48345 0.399779 0
M  V30 11601 H 1128.86 -6.77805 0.419266 0
M  V30 11602 H 1126.81 -6.31489 -1.77644 0
M  V30 11603 H 1126.73 -7.53974 -0.553065 0
M  V30 11604 H 1128 -7.59813 -1.7408 0
M  V30 11605 N 1132.22 -0.430739 -1.51599 0
M  V30 11606 C 1133.17 0.401828 -2.24431 0
M  V30 11607 C 1134.16 0.995588 -1.264 0
M  V30 11608 O 1135.35 0.914822 -1.51526 0
M  V30 11609 C 1132.48 1.5061 -3.08499 0
M  V30 11610 C 1131.57 0.922059 -4.13955 0
M  V30 11611 N 1131.96 0.0665912 -5.05756 0
M  V30 11612 C 1130.25 1.19034 -4.29822 0
M  V30 11613 C 1130.96 -0.260713 -5.81115 0
M  V30 11614 N 1129.93 0.353991 -5.42446 0
M  V30 11615 H 1133.73 -0.257813 -2.92767 0
M  V30 11616 H 1131.25 -0.242421 -1.6058 0
M  V30 11617 H 1133.24 2.11535 -3.59247 0
M  V30 11618 H 1131.9 2.16815 -2.41706 0
M  V30 11619 H 1132.92 -0.299356 -5.17034 0
M  V30 11620 H 1129.59 1.85036 -3.74256 0
M  V30 11621 H 1130.98 -0.956442 -6.65058 0
M  V30 11622 N 1133.7 1.56767 -0.161869 0
M  V30 11623 C 1134.95 1.96594 0.485496 0
M  V30 11624 C 1135.28 1.04743 1.63887 0
M  V30 11625 O 1134.53 0.079602 1.95538 0
M  V30 11626 C 1134.83 3.42567 1.01894 0
M  V30 11627 C 1134.5 4.50897 -0.0175419 0
M  V30 11628 C 1133.16 4.80249 -0.302429 0
M  V30 11629 C 1135.51 5.16181 -0.721572 0
M  V30 11630 C 1132.84 5.72187 -1.2969 0
M  V30 11631 C 1135.19 6.09191 -1.70496 0
M  V30 11632 C 1133.86 6.36915 -1.99739 0
M  V30 11633 H 1133.13 0.719388 0.177656 0
M  V30 11634 H 1135.77 1.89837 -0.251839 0
M  V30 11635 H 1134.08 3.4623 1.83391 0
M  V30 11636 H 1135.77 3.70719 1.52867 0
M  V30 11637 H 1132.36 4.28062 0.21468 0
M  V30 11638 H 1136.55 4.93624 -0.514681 0
M  V30 11639 H 1131.8 5.91953 -1.52974 0
M  V30 11640 H 1135.98 6.58849 -2.25591 0
M  V30 11641 H 1133.61 7.07958 -2.76948 0
M  V30 11642 N 1135.18 -0.111886 1.57202 0
M  V30 11643 C 1136.43 -0.816794 1.84859 0
M  V30 11644 C 1136.75 -1.80079 0.748113 0
M  V30 11645 O 1136.02 -1.94578 -0.227235 0
M  V30 11646 H 1134.6 -0.304633 0.682061 0
M  V30 11647 H 1137.26 -0.097513 1.94656 0
M  V30 11648 H 1136.36 -1.35768 2.81022 0
M  V30 11649 N 1136.66 -1.52894 -0.382264 0
M  V30 11650 C 1137.59 -1.81122 -1.47367 0
M  V30 11651 C 1138.57 -0.663653 -1.56619 0
M  V30 11652 O 1139.75 -0.911898 -1.71459 0
M  V30 11653 C 1136.88 -1.98615 -2.84902 0
M  V30 11654 C 1135.84 -3.14328 -2.90485 0
M  V30 11655 C 1135.16 -3.17086 -4.30535 0
M  V30 11656 C 1136.46 -4.53263 -2.59519 0
M  V30 11657 H 1138.16 -2.72518 -1.23993 0
M  V30 11658 H 1135.7 -1.3113 -0.595049 0
M  V30 11659 H 1137.66 -2.16946 -3.61265 0
M  V30 11660 H 1136.38 -1.03915 -3.09628 0
M  V30 11661 H 1135.04 -2.95791 -2.16572 0
M  V30 11662 H 1134.69 -2.20055 -4.52311 0
M  V30 11663 H 1134.39 -3.94821 -4.3519 0
M  V30 11664 H 1135.91 -3.3758 -5.08795 0
M  V30 11665 H 1137.33 -4.71867 -3.25598 0
M  V30 11666 H 1135.72 -5.33115 -2.75514 0
M  V30 11667 H 1136.79 -4.59516 -1.54831 0
M  V30 11668 N 1138.14 0.641106 -1.43971 0
M  V30 11669 C 1139.07 1.76489 -1.52885 0
M  V30 11670 C 1140.05 1.65742 -0.38258 0
M  V30 11671 O 1141.23 1.84653 -0.601397 0
M  V30 11672 C 1138.36 3.14977 -1.4631 0
M  V30 11673 C 1137.32 3.40502 -2.59311 0
M  V30 11674 C 1136.64 4.78916 -2.37789 0
M  V30 11675 C 1137.94 3.34048 -4.01509 0
M  V30 11676 H 1139.64 1.69286 -2.46946 0
M  V30 11677 H 1137.18 0.813015 -1.18853 0
M  V30 11678 H 1139.14 3.9336 -1.51149 0
M  V30 11679 H 1137.86 3.2294 -0.487599 0
M  V30 11680 H 1136.52 2.64495 -2.53846 0
M  V30 11681 H 1136.17 4.8357 -1.38454 0
M  V30 11682 H 1135.87 4.96954 -3.13545 0
M  V30 11683 H 1137.39 5.59541 -2.4443 0
M  V30 11684 H 1138.81 4.0235 -4.08396 0
M  V30 11685 H 1137.2 3.63622 -4.77388 0
M  V30 11686 H 1138.27 2.32022 -4.25786 0
M  V30 11687 N 1139.62 1.30703 0.880598 0
M  V30 11688 C 1140.53 1.19389 2.01949 0
M  V30 11689 C 1141.54 0.112868 1.73634 0
M  V30 11690 O 1142.72 0.328643 1.98701 0
M  V30 11691 C 1139.78 0.891004 3.35055 0
M  V30 11692 C 1138.84 2.05784 3.76764 0
M  V30 11693 C 1138.08 1.76931 5.03519 0
M  V30 11694 O 1138.3 0.699326 5.66097 0
M  V30 11695 O 1137.23 2.623 5.4174 0
M  V30 11696 H 1141.06 2.15073 2.14423 0
M  V30 11697 H 1138.64 1.10339 1.00726 0
M  V30 11698 H 1140.53 0.737476 4.14897 0
M  V30 11699 H 1139.2 -0.0358909 3.2368 0
M  V30 11700 H 1138.11 2.26672 2.97608 0
M  V30 11701 H 1139.44 2.96661 3.9275 0
M  V30 11702 N 1141.09 -1.09351 1.1349 0
M  V30 11703 C 1142.32 -1.85304 0.920324 0
M  V30 11704 C 1142.74 -1.81182 -0.530883 0
M  V30 11705 O 1142.09 -1.20853 -1.36751 0
M  V30 11706 C 1142.14 -3.33249 1.40098 0
M  V30 11707 O 1141.87 -3.37333 2.79531 0
M  V30 11708 C 1143.37 -4.2604 1.22495 0
M  V30 11709 H 1140.59 -0.585294 0.328134 0
M  V30 11710 H 1143.13 -1.38168 1.50765 0
M  V30 11711 H 1141.29 -3.7781 0.85664 0
M  V30 11712 H 1141.7 -4.29614 3.00885 0
M  V30 11713 H 1143.17 -5.27999 1.61 0
M  V30 11714 H 1143.65 -4.38883 0.166717 0
M  V30 11715 H 1144.26 -3.87295 1.75735 0
M  V30 11716 N 1142.57 -0.928524 -1.27343 0
M  V30 11717 C 1143.53 -0.43292 -2.25074 0
M  V30 11718 C 1144.53 0.448976 -1.54405 0
M  V30 11719 O 1145.72 0.249939 -1.72398 0
M  V30 11720 C 1142.86 0.377539 -3.38803 0
M  V30 11721 H 1144.05 -1.29642 -2.70431 0
M  V30 11722 H 1141.6 -0.709289 -1.3928 0
M  V30 11723 H 1142.34 1.25982 -2.98829 0
M  V30 11724 H 1142.12 -0.254782 -3.91271 0
M  V30 11725 H 1143.61 0.714634 -4.1144 0
M  V30 11726 N 1144.05 1.41491 -0.694123 0
M  V30 11727 C 1144.98 2.33462 -0.0422169 0
M  V30 11728 C 1145.96 1.51739 0.76872 0
M  V30 11729 O 1147.15 1.8028 0.721985 0
M  V30 11730 C 1144.28 3.35545 0.895925 0
M  V30 11731 C 1143.23 4.27568 0.192188 0
M  V30 11732 C 1142.56 5.20014 1.24459 0
M  V30 11733 C 1143.86 5.1376 -0.940626 0
M  V30 11734 H 1145.55 2.88225 -0.810363 0
M  V30 11735 H 1143.1 1.38586 -0.39114 0
M  V30 11736 H 1145.05 3.9881 1.36121 0
M  V30 11737 H 1143.77 2.79129 1.69572 0
M  V30 11738 H 1142.43 3.65726 -0.25305 0
M  V30 11739 H 1142.08 4.59913 2.03687 0
M  V30 11740 H 1141.78 5.82417 0.778734 0
M  V30 11741 H 1143.3 5.86155 1.71041 0
M  V30 11742 H 1144.72 5.70601 -0.555692 0
M  V30 11743 H 1143.11 5.85097 -1.33349 0
M  V30 11744 H 1144.18 4.51011 -1.78093 0
M  V30 11745 N 1145.53 0.438773 1.51369 0
M  V30 11746 C 1146.44 -0.378074 2.31534 0
M  V30 11747 C 1147.45 -1.02632 1.40508 0
M  V30 11748 O 1148.63 -1.02138 1.73579 0
M  V30 11749 C 1145.69 -1.46374 3.14286 0
M  V30 11750 C 1144.76 -0.835473 4.21092 0
M  V30 11751 C 1143.99 -1.86941 4.99889 0
M  V30 11752 O 1144.21 -3.0918 4.79337 0
M  V30 11753 O 1143.15 -1.45914 5.83946 0
M  V30 11754 H 1146.97 0.276401 3.0244 0
M  V30 11755 H 1144.56 0.201281 1.48038 0
M  V30 11756 H 1146.44 -2.09335 3.65728 0
M  V30 11757 H 1145.11 -2.10227 2.46143 0
M  V30 11758 H 1144.02 -0.167775 3.73724 0
M  V30 11759 H 1145.35 -0.240406 4.91613 0
M  V30 11760 N 1147.01 -1.56678 0.170181 0
M  V30 11761 C 1147.92 -2.21496 -0.773079 0
M  V30 11762 C 1148.93 -1.20626 -1.25401 0
M  V30 11763 O 1150.11 -1.53283 -1.30638 0
M  V30 11764 C 1147.17 -2.8421 -1.98558 0
M  V30 11765 C 1146.23 -4.00278 -1.55164 0
M  V30 11766 C 1145.47 -4.59992 -2.70634 0
M  V30 11767 O 1145.69 -4.18595 -3.87472 0
M  V30 11768 O 1144.62 -5.49881 -2.44775 0
M  V30 11769 H 1148.45 -3.02659 -0.251195 0
M  V30 11770 H 1146.03 -1.49288 -0.0579621 0
M  V30 11771 H 1147.92 -3.2398 -2.69472 0
M  V30 11772 H 1146.59 -2.06045 -2.49654 0
M  V30 11773 H 1145.5 -3.6518 -0.812038 0
M  V30 11774 H 1146.83 -4.80033 -1.0876 0
M  V30 11775 N 1148.48 0.103547 -1.57259 0
M  V30 11776 C 1149.39 1.14475 -2.04774 0
M  V30 11777 C 1150.41 1.44385 -0.971025 0
M  V30 11778 O 1151.59 1.55195 -1.28361 0
M  V30 11779 C 1148.65 2.4475 -2.45558 0
M  V30 11780 C 1147.71 2.22098 -3.67384 0
M  V30 11781 C 1146.94 3.4616 -4.06213 0
M  V30 11782 O 1147.17 4.5407 -3.45219 0
M  V30 11783 O 1146.1 3.36248 -4.9922 0
M  V30 11784 H 1149.93 0.771211 -2.93745 0
M  V30 11785 H 1147.51 0.315456 -1.46032 0
M  V30 11786 H 1149.39 3.21476 -2.72454 0
M  V30 11787 H 1148.07 2.81547 -1.59728 0
M  V30 11788 H 1146.98 1.43179 -3.45616 0
M  V30 11789 H 1148.31 1.90197 -4.53967 0
M  V30 11790 N 1149.96 1.53094 0.37415 0
M  V30 11791 C 1151.24 1.59456 1.13283 0
M  V30 11792 C 1151.62 0.396821 2.07337 0
M  V30 11793 O 1150.97 -0.613659 2.20106 0
M  V30 11794 C 1151.18 2.94069 1.87948 0
M  V30 11795 C 1152.52 3.4834 2.42785 0
M  V30 11796 O 1153.55 2.96042 1.98085 0
M  V30 11797 O 1152.41 4.39747 3.24477 0
M  V30 11798 H 1149.5 0.643731 0.519171 0
M  V30 11799 H 1152.05 1.65434 0.378105 0
M  V30 11800 H 1150.82 3.72685 1.19255 0
M  V30 11801 H 1150.44 2.91544 2.70348 0
M  V30 11802 N 1151.44 -0.633461 1.44309 0
M  V30 11803 C 1152.37 -1.75676 1.53819 0
M  V30 11804 C 1153.35 -1.65537 0.391365 0
M  V30 11805 O 1154.54 -1.84332 0.611181 0
M  V30 11806 C 1151.67 -3.14197 1.47979 0
M  V30 11807 C 1150.62 -3.39122 2.61113 0
M  V30 11808 C 1149.95 -4.77648 2.40325 0
M  V30 11809 C 1151.25 -3.31914 4.03274 0
M  V30 11810 H 1152.94 -1.67974 2.47841 0
M  V30 11811 H 1150.49 -0.8067 1.19283 0
M  V30 11812 H 1152.44 -3.92553 1.53233 0
M  V30 11813 H 1151.16 -3.22677 0.504718 0
M  V30 11814 H 1149.82 -2.63145 2.55245 0
M  V30 11815 H 1149.47 -4.82829 1.41016 0
M  V30 11816 H 1149.17 -4.95284 3.16177 0
M  V30 11817 H 1150.69 -5.58237 2.47394 0
M  V30 11818 H 1152.11 -4.00178 4.10524 0
M  V30 11819 H 1150.5 -3.61085 4.7931 0
M  V30 11820 H 1151.57 -2.29761 4.2701 0
M  V30 11821 N 1152.92 -1.31168 -0.873655 0
M  V30 11822 C 1153.88 -1.18471 -1.96207 0
M  V30 11823 C 1154.88 -0.112814 -1.60404 0
M  V30 11824 O 1156.07 -0.3618 -1.70401 0
M  V30 11825 C 1153.2 -0.817662 -3.30949 0
M  V30 11826 H 1154.4 -2.1518 -2.08896 0
M  V30 11827 H 1151.95 -1.14727 -1.06149 0
M  V30 11828 H 1152.68 0.148428 -3.2396 0
M  V30 11829 H 1152.47 -1.59244 -3.58307 0
M  V30 11830 H 1153.96 -0.75262 -4.10762 0
M  V30 11831 N 1154.4 1.08748 -1.14068 0
M  V30 11832 C 1155.62 1.85353 -0.930532 0
M  V30 11833 C 1156.05 1.80892 0.515717 0
M  V30 11834 O 1155.4 1.19146 1.36652 0
M  V30 11835 C 1155.45 3.30962 -1.43167 0
M  V30 11836 O 1154.56 4.0769 -0.621468 0
M  V30 11837 H 1153.9 0.574485 -0.332962 0
M  V30 11838 H 1156.43 1.37282 -1.51707 0
M  V30 11839 H 1156.44 3.81807 -1.43832 0
M  V30 11840 H 1155.11 3.33524 -2.48464 0
M  V30 11841 H 1153.69 3.66587 -0.683267 0
M  V30 11842 N 1155.87 0.935264 1.26849 0
M  V30 11843 C 1157.11 0.587087 1.95787 0
M  V30 11844 C 1157.48 -0.856974 1.71814 0
M  V30 11845 O 1158.68 -1.3138 2.34505 0
M  V30 11846 C 1156.95 0.91303 3.45541 0
M  V30 11847 S 1158.51 0.674506 4.33585 0
M  V30 11848 H 1155.33 0.216442 0.677255 0
M  V30 11849 H 1157.93 1.20532 1.53923 0
M  V30 11850 H 1156.63 1.96154 3.60488 0
M  V30 11851 H 1156.16 0.28429 3.92371 0
M  V30 11852 H 1158.18 -0.464121 4.94025 0
M  V30 11853 N 1157.35 -1.41121 0.701616 0
M  V30 11854 C 1158.3 -2.30765 0.040121 0
M  V30 11855 C 1159.27 -1.47436 -0.764975 0
M  V30 11856 O 1160.45 -1.76209 -0.731775 0
M  V30 11857 C 1157.59 -3.33535 -0.885903 0
M  V30 11858 C 1156.71 -4.3194 -0.0717765 0
M  V30 11859 C 1155.84 -5.21779 -0.995996 0
M  V30 11860 C 1154.88 -6.11849 -0.175133 0
M  V30 11861 N 1154.02 -6.94151 -1.05348 0
M  V30 11862 H 1158.86 -2.86772 0.810312 0
M  V30 11863 H 1156.4 -1.41233 0.411301 0
M  V30 11864 H 1158.35 -3.91675 -1.4369 0
M  V30 11865 H 1156.98 -2.79065 -1.62243 0
M  V30 11866 H 1156.04 -3.75698 0.596221 0
M  V30 11867 H 1157.35 -4.95597 0.56435 0
M  V30 11868 H 1156.5 -5.84782 -1.61601 0
M  V30 11869 H 1155.24 -4.58363 -1.66597 0
M  V30 11870 H 1154.25 -5.4789 0.457916 0
M  V30 11871 H 1155.47 -6.77322 0.491133 0
M  V30 11872 H 1153.42 -6.33338 -1.70936 0
M  V30 11873 H 1153.33 -7.54518 -0.473065 0
M  V30 11874 H 1154.6 -7.61617 -1.66012 0
M  V30 11875 N 1158.83 -0.446794 -1.51134 0
M  V30 11876 C 1160.06 0.117242 -2.07068 0
M  V30 11877 C 1160.48 1.34877 -1.3111 0
M  V30 11878 O 1159.84 1.77856 -0.35172 0
M  V30 11879 C 1159.89 0.408616 -3.58277 0
M  V30 11880 O 1158.99 1.49345 -3.84408 0
M  V30 11881 H 1158.33 -0.00228458 -0.663996 0
M  V30 11882 H 1160.86 -0.63085 -1.94632 0
M  V30 11883 H 1160.87 0.656298 -4.02687 0
M  V30 11884 H 1159.55 -0.491444 -4.12986 0
M  V30 11885 H 1158.12 1.23499 -3.51856 0
M  V30 11886 N 1160.31 1.56586 -0.178487 0
M  V30 11887 C 1161.72 1.83633 0.337009 0
M  V30 11888 C 1162.07 1.09857 1.6256 0
M  V30 11889 O 1161.2 0.353933 2.13486 0
M  V30 11890 C 1161.79 3.33112 0.618225 0
M  V30 11891 C 1160.35 3.60629 1.07814 0
M  V30 11892 C 1159.5 2.7705 0.117825 0
M  V30 11893 H 1162.45 1.53508 -0.402612 0
M  V30 11894 H 1162.47 3.5098 1.46947 0
M  V30 11895 H 1161.98 3.8678 -0.319808 0
M  V30 11896 H 1160.08 3.12378 2.03103 0
M  V30 11897 H 1160.19 4.68921 0.982339 0
M  V30 11898 H 1158.56 2.47125 0.616563 0
M  V30 11899 H 1159.34 3.33501 -0.814356 0
M  V30 11900 N 1161.79 -0.095206 1.57312 0
M  V30 11901 C 1162.7 -1.13388 2.05379 0
M  V30 11902 C 1163.71 -1.43868 0.978668 0
M  V30 11903 O 1164.89 -1.54512 1.29182 0
M  V30 11904 C 1161.95 -2.43444 2.46852 0
M  V30 11905 C 1161.01 -2.20146 3.68557 0
M  V30 11906 C 1160.25 -3.44001 4.08043 0
M  V30 11907 O 1160.47 -4.52233 3.47623 0
M  V30 11908 O 1159.4 -3.33596 5.00997 0
M  V30 11909 H 1163.23 -0.755622 2.9415 0
M  V30 11910 H 1160.82 -0.307707 1.46197 0
M  V30 11911 H 1162.7 -3.20027 2.74155 0
M  V30 11912 H 1161.37 -2.80696 1.61219 0
M  V30 11913 H 1160.28 -1.41345 3.46371 0
M  V30 11914 H 1161.61 -1.87787 4.54969 0
M  V30 11915 N 1163.26 -1.53291 -0.366026 0
M  V30 11916 C 1164.49 -1.73108 -1.1277 0
M  V30 11917 C 1164.9 -0.459662 -1.83531 0
M  V30 11918 O 1164.25 0.577151 -1.74398 0
M  V30 11919 C 1164.31 -2.84137 -2.20242 0
M  V30 11920 C 1163.97 -4.24503 -1.69252 0
M  V30 11921 C 1164.97 -5.06866 -1.15684 0
M  V30 11922 C 1162.65 -4.70912 -1.74778 0
M  V30 11923 C 1164.65 -6.33728 -0.683191 0
M  V30 11924 C 1162.33 -5.97752 -1.27025 0
M  V30 11925 C 1163.33 -6.78992 -0.738858 0
M  V30 11926 O 1163.02 -8.03452 -0.268375 0
M  V30 11927 H 1162.75 -0.582439 -0.343134 0
M  V30 11928 H 1165.31 -2.00828 -0.430969 0
M  V30 11929 H 1163.54 -2.5189 -2.93408 0
M  V30 11930 H 1165.23 -2.92136 -2.818 0
M  V30 11931 H 1165.99 -4.72185 -1.10753 0
M  V30 11932 H 1161.87 -4.07751 -2.15081 0
M  V30 11933 H 1165.41 -6.97086 -0.267746 0
M  V30 11934 H 1161.31 -6.31933 -1.31649 0
M  V30 11935 H 1162.08 -8.17581 -0.387745 0
M  V30 11936 N 1164.74 0.6258 -1.44643 0
M  V30 11937 C 1166.02 1.38439 -1.38181 0
M  V30 11938 C 1166.4 2.11056 -0.0431928 0
M  V30 11939 O 1165.75 2.06683 0.974383 0
M  V30 11940 C 1165.96 2.34639 -2.58352 0
M  V30 11941 C 1167.31 2.97807 -3.02649 0
M  V30 11942 O 1168.33 2.44963 -2.58595 0
M  V30 11943 O 1167.19 3.93682 -3.79048 0
M  V30 11944 H 1164.28 0.619852 -0.54746 0
M  V30 11945 H 1166.83 0.650409 -1.56741 0
M  V30 11946 H 1165.6 1.80116 -3.47382 0
M  V30 11947 H 1165.22 3.15446 -2.42032 0
M  V30 11948 N 1166.22 1.31629 0.866686 0
M  V30 11949 C 1167.45 1.24474 1.65269 0
M  V30 11950 C 1167.86 -0.18939 1.87848 0
M  V30 11951 O 1167.22 -1.12251 1.43895 0
M  V30 11952 C 1167.27 1.98872 3.01881 0
M  V30 11953 O 1166.99 3.36687 2.8031 0
M  V30 11954 C 1168.49 1.98595 3.96327 0
M  V30 11955 H 1165.71 0.429966 0.515141 0
M  V30 11956 H 1168.26 1.73559 1.08156 0
M  V30 11957 H 1166.41 1.53539 3.55675 0
M  V30 11958 H 1166.83 3.74612 3.67105 0
M  V30 11959 H 1168.3 2.55156 4.89489 0
M  V30 11960 H 1168.78 0.969257 4.28371 0
M  V30 11961 H 1169.38 2.43821 3.4847 0
M  V30 11962 N 1167.7 -1.08142 1.14644 0
M  V30 11963 C 1168.95 -1.80849 0.917685 0
M  V30 11964 C 1169.28 -1.86123 -0.554249 0
M  V30 11965 O 1168.55 -1.33907 -1.41065 0
M  V30 11966 C 1168.84 -3.26325 1.52264 0
M  V30 11967 C 1168.69 -3.29244 3.06461 0
M  V30 11968 C 1170.01 -4.23375 1.20175 0
M  V30 11969 H 1167.13 -0.656559 0.334812 0
M  V30 11970 H 1169.77 -1.26595 1.41682 0
M  V30 11971 H 1167.92 -3.72656 1.09817 0
M  V30 11972 H 1169.59 -2.91216 3.57758 0
M  V30 11973 H 1167.83 -2.68438 3.40769 0
M  V30 11974 H 1168.51 -4.31785 3.43897 0
M  V30 11975 H 1170.98 -3.85394 1.56877 0
M  V30 11976 H 1169.86 -5.23472 1.65132 0
M  V30 11977 H 1170.12 -4.41944 0.117474 0
M  V30 11978 N 1169.18 -0.941978 -1.26351 0
M  V30 11979 C 1170.42 -0.589971 -1.93715 0
M  V30 11980 C 1170.75 0.871085 -1.73903 0
M  V30 11981 O 1170.01 1.63864 -1.06991 0
M  V30 11982 C 1170.31 -0.879481 -3.4641 0
M  V30 11983 C 1169.97 -2.32454 -3.86362 0
M  V30 11984 C 1168.63 -2.71957 -3.9698 0
M  V30 11985 C 1170.99 -3.2636 -4.06373 0
M  V30 11986 C 1168.31 -4.04459 -4.25006 0
M  V30 11987 C 1170.67 -4.58459 -4.35887 0
M  V30 11988 C 1169.33 -4.97775 -4.4472 0
M  V30 11989 H 1168.6 -0.215886 -0.708854 0
M  V30 11990 H 1171.25 -1.18863 -1.50146 0
M  V30 11991 H 1169.55 -0.198289 -3.91298 0
M  V30 11992 H 1171.25 -0.585887 -3.96697 0
M  V30 11993 H 1167.84 -2.00814 -3.78645 0
M  V30 11994 H 1172.02 -2.97037 -3.97596 0
M  V30 11995 H 1167.28 -4.34582 -4.30057 0
M  V30 11996 H 1171.45 -5.31213 -4.50317 0
M  V30 11997 H 1169.08 -6.00475 -4.66191 0
M  V30 11998 N 1170.66 1.40747 -0.709091 0
M  V30 11999 C 1171.57 2.3454 -0.0532205 0
M  V30 12000 C 1172.58 1.56956 0.751057 0
M  V30 12001 O 1173.76 1.89375 0.685509 0
M  V30 12002 C 1170.82 3.35809 0.862157 0
M  V30 12003 C 1169.88 4.29273 0.0485632 0
M  V30 12004 C 1169.12 5.25705 0.920345 0
M  V30 12005 O 1169.34 5.27933 2.15969 0
M  V30 12006 O 1168.27 6.00806 0.3628 0
M  V30 12007 H 1172.1 2.92232 -0.826698 0
M  V30 12008 H 1169.68 1.4183 -0.469519 0
M  V30 12009 H 1171.57 3.97931 1.38668 0
M  V30 12010 H 1170.24 2.8054 1.61489 0
M  V30 12011 H 1169.15 3.70456 -0.520873 0
M  V30 12012 H 1170.48 4.87676 -0.665807 0
M  V30 12013 N 1172.13 0.454803 1.50895 0
M  V30 12014 C 1173.41 -0.166559 1.9489 0
M  V30 12015 C 1173.79 -1.58492 1.3944 0
M  V30 12016 O 1173.14 -2.20788 0.588622 0
M  V30 12017 C 1173.35 -0.126506 3.48771 0
M  V30 12018 C 1174.7 -0.32347 4.23366 0
M  V30 12019 O 1175.72 -0.203835 3.55616 0
M  V30 12020 O 1174.58 -0.563292 5.43589 0
M  V30 12021 H 1171.67 -0.120523 0.818171 0
M  V30 12022 H 1174.22 0.514037 1.61727 0
M  V30 12023 H 1172.99 0.864407 3.81633 0
M  V30 12024 H 1172.61 -0.849264 3.88424 0
M  V30 12025 N 1173.61 -1.56489 0.186789 0
M  V30 12026 C 1174.84 -2.02163 -0.463126 0
M  V30 12027 C 1175.26 -1.06612 -1.54969 0
M  V30 12028 O 1174.62 -0.0482139 -1.81236 0
M  V30 12029 C 1174.67 -3.46337 -1.00416 0
M  V30 12030 O 1173.77 -3.53889 -2.11747 0
M  V30 12031 H 1173.11 -0.65496 -0.109194 0
M  V30 12032 H 1175.64 -2.02459 0.295227 0
M  V30 12033 H 1175.65 -3.85959 -1.32287 0
M  V30 12034 H 1174.33 -4.15376 -0.208693 0
M  V30 12035 H 1172.9 -3.26136 -1.80803 0
M  V30 12036 N 1175.09 0.086862 -1.5736 0
M  V30 12037 C 1176.31 0.806017 -1.91097 0
M  V30 12038 C 1176.74 1.71082 -0.78183 0
M  V30 12039 O 1176.1 1.79335 0.266175 0
M  V30 12040 C 1176.15 1.5884 -3.23732 0
M  V30 12041 O 1175.25 2.69798 -3.11902 0
M  V30 12042 H 1174.59 0.220899 -0.626179 0
M  V30 12043 H 1177.12 0.059619 -2.04513 0
M  V30 12044 H 1177.13 1.97088 -3.5724 0
M  V30 12045 H 1175.81 0.924426 -4.05496 0
M  V30 12046 H 1174.38 2.34519 -2.89923 0
M  V30 12047 N 1176.57 1.53483 0.357892 0
M  V30 12048 C 1177.79 1.74264 1.12458 0
M  V30 12049 C 1178.22 0.473944 1.82031 0
M  V30 12050 O 1177.58 -0.57253 1.72023 0
M  V30 12051 C 1177.62 2.91356 2.12471 0
M  V30 12052 O 1176.73 2.60502 3.19707 0
M  V30 12053 H 1176.07 0.578499 0.325937 0
M  V30 12054 H 1178.6 2.00395 0.412666 0
M  V30 12055 H 1178.61 3.1774 2.5594 0
M  V30 12056 H 1177.28 3.83378 1.61226 0
M  V30 12057 H 1175.86 2.44961 2.81156 0
M  V30 12058 N 1178.05 -0.61812 1.44973 0
M  V30 12059 C 1179.27 -1.40921 1.52171 0
M  V30 12060 C 1179.7 -1.87487 0.151755 0
M  V30 12061 O 1179.05 -1.59518 -0.861606 0
M  V30 12062 C 1179.1 -2.59689 2.50188 0
M  V30 12063 O 1178.21 -3.59967 2.0124 0
M  V30 12064 H 1177.55 -0.421138 0.51336 0
M  V30 12065 H 1180.08 -0.753258 1.90229 0
M  V30 12066 H 1180.09 -3.07069 2.6865 0
M  V30 12067 H 1178.76 -2.25144 3.4969 0
M  V30 12068 H 1177.34 -3.19308 1.92605 0
M  V30 12069 N 1179.52 -1.32087 -0.859693 0
M  V30 12070 C 1180.75 -1.25486 -1.6513 0
M  V30 12071 C 1181.17 0.175015 -1.87284 0
M  V30 12072 O 1180.53 1.12468 -1.42199 0
M  V30 12073 C 1180.58 -2.01469 -2.9907 0
M  V30 12074 O 1179.68 -1.35904 -3.89363 0
M  V30 12075 H 1179.02 -0.432728 -0.503629 0
M  V30 12076 H 1181.55 -1.74322 -1.07112 0
M  V30 12077 H 1181.56 -2.11452 -3.4893 0
M  V30 12078 H 1180.24 -3.05448 -2.82266 0
M  V30 12079 H 1178.82 -1.34437 -3.47823 0
M  V30 12080 N 1181 1.07532 -1.15215 0
M  V30 12081 C 1182.25 1.79737 -0.924062 0
M  V30 12082 C 1182.57 1.87072 0.550356 0
M  V30 12083 O 1181.84 1.37029 1.4 0
M  V30 12084 H 1180.42 0.665704 -0.338891 0
M  V30 12085 H 1183.08 1.29961 -1.45245 0
M  V30 12086 H 1182.18 2.82256 -1.33184 0
M  V30 12087 N 1182.48 0.948665 1.2585 0
M  V30 12088 C 1183.39 0.470525 2.29833 0
M  V30 12089 C 1184.41 -0.45919 1.67832 0
M  V30 12090 O 1185.58 -0.336893 1.98562 0
M  V30 12091 C 1182.65 -0.249635 3.458 0
M  V30 12092 C 1181.71 0.717559 4.23261 0
M  V30 12093 C 1180.94 0.0316724 5.33691 0
M  V30 12094 O 1181.16 -1.18384 5.5798 0
M  V30 12095 O 1180.1 0.71418 5.97648 0
M  V30 12096 H 1183.92 1.33447 2.72811 0
M  V30 12097 H 1181.51 0.714864 1.31187 0
M  V30 12098 H 1183.39 -0.654993 4.16279 0
M  V30 12099 H 1182.07 -1.08885 3.04837 0
M  V30 12100 H 1180.97 1.17301 3.55234 0
M  V30 12101 H 1182.31 1.52461 4.67992 0
M  V30 12102 N 1183.96 -1.40369 0.716545 0
M  V30 12103 C 1185.18 -2.05704 0.264729 0
M  V30 12104 C 1185.61 -1.53634 -1.08527 0
M  V30 12105 O 1184.97 -0.67212 -1.68381 0
M  V30 12106 C 1185.01 -3.59692 0.255778 0
M  V30 12107 O 1184.12 -4.05286 -0.762686 0
M  V30 12108 H 1183.46 -0.652301 0.124092 0
M  V30 12109 H 1185.99 -1.7975 0.977295 0
M  V30 12110 H 1186 -4.07892 0.0937944 0
M  V30 12111 H 1184.67 -3.96955 1.24095 0
M  V30 12112 H 1183.25 -3.68543 -0.568347 0
M  V30 12113 N 1185.44 -0.462799 -1.50652 0
M  V30 12114 C 1186.66 0.0952726 -2.07181 0
M  V30 12115 C 1187.09 1.33479 -1.32533 0
M  V30 12116 O 1186.44 1.77473 -0.370564 0
M  V30 12117 C 1186.49 0.370592 -3.58691 0
M  V30 12118 O 1185.6 1.4526 -3.85971 0
M  V30 12119 H 1184.94 -0.00932702 -0.663934 0
M  V30 12120 H 1187.47 -0.651458 -1.93951 0
M  V30 12121 H 1187.48 0.613551 -4.0336 0
M  V30 12122 H 1186.15 -0.535219 -4.12442 0
M  V30 12123 H 1184.73 1.1976 -3.53146 0
M  V30 12124 N 1186.91 1.56388 -0.195085 0
M  V30 12125 C 1188.16 1.9758 0.443686 0
M  V30 12126 C 1188.49 1.08196 1.61629 0
M  V30 12127 O 1187.74 0.121061 1.95325 0
M  V30 12128 C 1188.04 3.44651 0.946051 0
M  V30 12129 C 1187.71 4.50758 -0.11318 0
M  V30 12130 C 1186.37 4.79499 -0.404229 0
M  V30 12131 C 1188.72 5.14534 -0.830899 0
M  V30 12132 C 1186.05 5.69307 -1.41797 0
M  V30 12133 C 1188.4 6.05438 -1.83379 0
M  V30 12134 C 1187.07 6.32535 -2.13204 0
M  V30 12135 H 1186.34 0.722995 0.162356 0
M  V30 12136 H 1188.98 1.8926 -0.292049 0
M  V30 12137 H 1187.29 3.50042 1.76006 0
M  V30 12138 H 1188.99 3.73878 1.44969 0
M  V30 12139 H 1185.58 4.28421 0.123833 0
M  V30 12140 H 1189.76 4.92421 -0.61927 0
M  V30 12141 H 1185.02 5.88575 -1.65496 0
M  V30 12142 H 1189.19 6.53915 -2.39516 0
M  V30 12143 H 1186.82 7.01924 -2.91902 0
M  V30 12144 N 1188.39 -0.0785156 1.57404 0
M  V30 12145 C 1189.32 -1.09446 2.06262 0
M  V30 12146 C 1190.3 -1.40777 0.954772 0
M  V30 12147 O 1191.49 -1.5052 1.22708 0
M  V30 12148 C 1188.62 -2.40979 2.50093 0
M  V30 12149 C 1187.57 -2.24017 3.64692 0
M  V30 12150 C 1186.9 -3.60873 3.94556 0
M  V30 12151 C 1188.2 -1.66696 4.94985 0
M  V30 12152 H 1189.89 -0.687928 2.9139 0
M  V30 12153 H 1187.44 -0.329466 1.4018 0
M  V30 12154 H 1189.39 -3.12337 2.82884 0
M  V30 12155 H 1188.12 -2.83599 1.61985 0
M  V30 12156 H 1186.77 -1.55101 3.32174 0
M  V30 12157 H 1186.42 -4.01051 3.0359 0
M  V30 12158 H 1186.12 -3.50365 4.71718 0
M  V30 12159 H 1187.65 -4.33673 4.29837 0
M  V30 12160 H 1189.06 -2.27913 5.2605 0
M  V30 12161 H 1187.46 -1.66902 5.76423 0
M  V30 12162 H 1188.53 -0.627827 4.80818 0
M  V30 12163 N 1189.87 -1.5367 -0.349747 0
M  V30 12164 C 1191.28 -1.62135 -0.925704 0
M  V30 12165 C 1191.63 -0.498725 -1.89756 0
M  V30 12166 O 1190.76 0.372481 -2.1317 0
M  V30 12167 C 1191.35 -2.93885 -1.68573 0
M  V30 12168 C 1189.91 -3.04632 -2.2108 0
M  V30 12169 C 1189.06 -2.57541 -1.02801 0
M  V30 12170 H 1192.01 -1.58182 -0.128065 0
M  V30 12171 H 1192.03 -2.82577 -2.54815 0
M  V30 12172 H 1191.54 -3.75571 -0.978153 0
M  V30 12173 H 1189.64 -2.27567 -2.95032 0
M  V30 12174 H 1189.76 -4.09993 -2.47876 0
M  V30 12175 H 1188.12 -2.12798 -1.39962 0
M  V30 12176 H 1188.9 -3.4166 -0.335157 0
M  V30 12177 N 1191.35 0.610423 -1.45298 0
M  V30 12178 C 1192.26 1.74964 -1.56285 0
M  V30 12179 C 1193.27 1.68149 -0.447436 0
M  V30 12180 O 1194.45 1.88556 -0.707725 0
M  V30 12181 C 1191.52 3.11417 -1.52383 0
M  V30 12182 C 1190.58 3.29707 -2.7494 0
M  V30 12183 C 1189.81 4.5965 -2.71215 0
M  V30 12184 O 1190.03 5.41789 -1.78383 0
M  V30 12185 O 1188.97 4.80591 -3.62375 0
M  V30 12186 H 1192.79 1.68646 -2.52571 0
M  V30 12187 H 1190.38 0.774168 -1.27777 0
M  V30 12188 H 1192.26 3.9272 -1.52805 0
M  V30 12189 H 1190.93 3.18232 -0.592472 0
M  V30 12190 H 1189.84 2.48003 -2.80081 0
M  V30 12191 H 1191.17 3.27766 -3.67192 0
M  V30 12192 N 1192.83 1.32541 0.852676 0
M  V30 12193 C 1193.74 1.23646 1.99371 0
M  V30 12194 C 1194.75 0.149673 1.73355 0
M  V30 12195 O 1195.93 0.370716 1.97959 0
M  V30 12196 C 1192.99 0.961873 3.3309 0
M  V30 12197 C 1192.05 2.1373 3.72315 0
M  V30 12198 C 1191.29 1.87572 4.99652 0
M  V30 12199 O 1191.51 0.819247 5.64486 0
M  V30 12200 O 1190.44 2.73732 5.36054 0
M  V30 12201 H 1194.27 2.19573 2.09813 0
M  V30 12202 H 1191.86 1.12451 0.983627 0
M  V30 12203 H 1193.74 0.825316 4.13239 0
M  V30 12204 H 1192.41 0.0327745 3.23683 0
M  V30 12205 H 1191.32 2.32933 2.92733 0
M  V30 12206 H 1192.65 3.04925 3.86369 0
M  V30 12207 N 1194.3 -1.0692 1.15784 0
M  V30 12208 C 1195.21 -2.17762 0.872753 0
M  V30 12209 C 1196.23 -1.73329 -0.152608 0
M  V30 12210 O 1197.41 -2.01387 0.022519 0
M  V30 12211 C 1194.47 -3.4471 0.370887 0
M  V30 12212 C 1193.53 -4.03686 1.46069 0
M  V30 12213 C 1192.77 -5.24575 0.982675 0
M  V30 12214 O 1192.99 -5.70146 -0.17006 0
M  V30 12215 O 1191.92 -5.7534 1.76828 0
M  V30 12216 H 1195.75 -2.44648 1.79948 0
M  V30 12217 H 1193.33 -1.1634 0.937303 0
M  V30 12218 H 1195.22 -4.21287 0.0976779 0
M  V30 12219 H 1193.89 -3.19366 -0.527912 0
M  V30 12220 H 1192.8 -3.28629 1.78756 0
M  V30 12221 H 1194.13 -4.33312 2.33456 0
M  V30 12222 N 1195.78 -0.955326 -1.25345 0
M  V30 12223 C 1196.69 -0.482707 -2.2958 0
M  V30 12224 C 1197.71 0.450283 -1.68073 0
M  V30 12225 O 1198.88 0.326358 -1.98738 0
M  V30 12226 C 1195.95 0.231293 -3.45928 0
M  V30 12227 C 1195.01 -0.739995 -4.22874 0
M  V30 12228 C 1194.24 -0.0599748 -5.33666 0
M  V30 12229 O 1194.47 1.15423 -5.586 0
M  V30 12230 O 1193.4 -0.745865 -5.97261 0
M  V30 12231 H 1197.23 -1.34892 -2.72099 0
M  V30 12232 H 1194.81 -0.721812 -1.30806 0
M  V30 12233 H 1196.69 0.632908 -4.1662 0
M  V30 12234 H 1195.37 1.07267 -3.0541 0
M  V30 12235 H 1194.28 -1.19183 -3.54607 0
M  V30 12236 H 1195.61 -1.54941 -4.67177 0
M  V30 12237 N 1197.26 1.39987 -0.723979 0
M  V30 12238 C 1198.17 2.3447 -0.0780936 0
M  V30 12239 C 1199.19 1.57744 0.734368 0
M  V30 12240 O 1200.36 1.90091 0.665385 0
M  V30 12241 C 1197.43 3.36705 0.826492 0
M  V30 12242 C 1196.49 4.293 0.00303036 0
M  V30 12243 C 1195.72 5.26651 0.864535 0
M  V30 12244 O 1195.95 5.30194 2.10357 0
M  V30 12245 O 1194.88 6.01157 0.299057 0
M  V30 12246 H 1198.71 2.91338 -0.857646 0
M  V30 12247 H 1196.29 1.41324 -0.484536 0
M  V30 12248 H 1198.17 3.9938 1.34439 0
M  V30 12249 H 1196.85 2.82237 1.58505 0
M  V30 12250 H 1195.75 3.69883 -0.560136 0
M  V30 12251 H 1197.09 4.86942 -0.717494 0
M  V30 12252 N 1198.74 0.470782 1.50404 0
M  V30 12253 C 1199.65 -0.328877 2.32283 0
M  V30 12254 C 1200.67 -0.99629 1.42654 0
M  V30 12255 O 1201.84 -0.984331 1.75707 0
M  V30 12256 C 1198.91 -1.39675 3.1732 0
M  V30 12257 C 1197.97 -0.745965 4.22769 0
M  V30 12258 C 1197.2 -1.76295 5.03742 0
M  V30 12259 O 1197.42 -2.98943 4.85788 0
M  V30 12260 O 1196.36 -1.33495 5.86909 0
M  V30 12261 H 1200.18 0.340491 3.01785 0
M  V30 12262 H 1197.77 0.232637 1.47578 0
M  V30 12263 H 1199.65 -2.0153 3.70086 0
M  V30 12264 H 1198.33 -2.04959 2.50546 0
M  V30 12265 H 1197.23 -0.0884647 3.73995 0
M  V30 12266 H 1198.57 -0.136074 4.92012 0
M  V30 12267 N 1200.22 -1.56282 0.203376 0
M  V30 12268 C 1201.47 -1.97421 -0.432346 0
M  V30 12269 C 1201.79 -1.0917 -1.61576 0
M  V30 12270 O 1201.06 -0.164759 -1.95206 0
M  V30 12271 H 1199.64 -0.729062 -0.162721 0
M  V30 12272 H 1202.3 -1.927 0.292039 0
M  V30 12273 H 1201.39 -3.02429 -0.770918 0
M  V30 12274 N 1201.7 0.070167 -1.57444 0
M  V30 12275 C 1202.61 1.10106 -2.07157 0
M  V30 12276 C 1203.62 1.42293 -1.00143 0
M  V30 12277 O 1204.8 1.52437 -1.31624 0
M  V30 12278 C 1201.86 2.39486 -2.50694 0
M  V30 12279 C 1200.92 2.14255 -3.72012 0
M  V30 12280 C 1200.16 3.37466 -4.13464 0
M  V30 12281 O 1200.38 4.46645 -3.54773 0
M  V30 12282 O 1199.31 3.25583 -5.0624 0
M  V30 12283 H 1203.14 0.70873 -2.95315 0
M  V30 12284 H 1200.72 0.28441 -1.46668 0
M  V30 12285 H 1202.61 3.15625 -2.79212 0
M  V30 12286 H 1201.28 2.78095 -1.65664 0
M  V30 12287 H 1200.19 1.35816 -3.48575 0
M  V30 12288 H 1201.52 1.80525 -4.57899 0
M  V30 12289 N 1203.17 1.53854 0.341593 0
M  V30 12290 C 1204.08 1.84975 1.44297 0
M  V30 12291 C 1205.1 0.740057 1.57477 0
M  V30 12292 O 1206.28 1.03256 1.72917 0
M  V30 12293 C 1203.34 2.05464 2.79259 0
M  V30 12294 C 1202.4 3.29318 2.75405 0
M  V30 12295 C 1201.63 3.4882 4.03931 0
M  V30 12296 O 1201.86 2.7212 5.01305 0
M  V30 12297 O 1200.79 4.42253 4.08284 0
M  V30 12298 H 1204.62 2.78592 1.20913 0
M  V30 12299 H 1202.2 1.39532 0.533953 0
M  V30 12300 H 1204.08 2.20374 3.59184 0
M  V30 12301 H 1202.76 1.15035 3.0257 0
M  V30 12302 H 1201.67 3.1981 1.94094 0
M  V30 12303 H 1203 4.19746 2.57049 0
M  V30 12304 N 1204.65 -0.602709 1.4562 0
M  V30 12305 C 1205.56 -1.74132 1.5721 0
M  V30 12306 C 1206.58 -1.67909 0.456347 0
M  V30 12307 O 1207.75 -1.88178 0.717714 0
M  V30 12308 C 1204.82 -3.10604 1.54032 0
M  V30 12309 C 1203.88 -3.28244 2.76685 0
M  V30 12310 C 1203.11 -4.58205 2.73649 0
M  V30 12311 O 1203.34 -5.40836 1.81254 0
M  V30 12312 O 1202.27 -4.78663 3.64919 0
M  V30 12313 H 1206.1 -1.67304 2.53462 0
M  V30 12314 H 1203.68 -0.767381 1.28186 0
M  V30 12315 H 1205.56 -3.91904 1.54885 0
M  V30 12316 H 1204.24 -3.17913 0.60934 0
M  V30 12317 H 1203.14 -2.46514 2.81393 0
M  V30 12318 H 1204.48 -3.25814 3.68925 0
M  V30 12319 N 1206.13 -1.32992 -0.845635 0
M  V30 12320 C 1207.04 -1.24701 -1.98713 0
M  V30 12321 C 1208.06 -0.158864 -1.73273 0
M  V30 12322 O 1209.23 -0.381209 -1.97759 0
M  V30 12323 C 1206.3 -0.979524 -3.32575 0
M  V30 12324 C 1205.36 -2.15701 -3.71176 0
M  V30 12325 C 1204.59 -1.90219 -4.98651 0
M  V30 12326 O 1204.81 -0.849171 -5.64044 0
M  V30 12327 O 1203.75 -2.76571 -5.34595 0
M  V30 12328 H 1207.57 -2.20683 -2.08645 0
M  V30 12329 H 1205.16 -1.12971 -0.97765 0
M  V30 12330 H 1207.04 -0.847219 -4.12796 0
M  V30 12331 H 1205.72 -0.0499398 -3.23661 0
M  V30 12332 H 1204.62 -2.34483 -2.91494 0
M  V30 12333 H 1205.96 -3.0697 -3.84747 0
M  V30 12334 N 1207.61 1.06304 -1.1635 0
M  V30 12335 C 1208.52 2.17296 -0.884289 0
M  V30 12336 C 1209.53 1.73408 0.143414 0
M  V30 12337 O 1210.71 2.01373 -0.0331987 0
M  V30 12338 C 1207.77 3.44509 -0.389163 0
M  V30 12339 C 1206.84 4.02906 -1.48208 0
M  V30 12340 C 1206.07 5.24047 -1.01048 0
M  V30 12341 O 1206.29 5.70229 0.139821 0
M  V30 12342 O 1205.23 5.74394 -1.79876 0
M  V30 12343 H 1209.05 2.4369 -1.81243 0
M  V30 12344 H 1206.64 1.15841 -0.943459 0
M  V30 12345 H 1208.52 4.21229 -0.120018 0
M  V30 12346 H 1207.19 3.19642 0.510968 0
M  V30 12347 H 1206.1 3.27677 -1.80496 0
M  V30 12348 H 1207.43 4.32068 -2.35751 0
M  V30 12349 N 1209.09 0.96196 1.24836 0
M  V30 12350 C 1210.36 0.537809 1.88061 0
M  V30 12351 C 1210.74 -0.985023 1.8671 0
M  V30 12352 O 1210.09 -1.85394 1.33572 0
M  V30 12353 C 1210.3 1.12279 3.30446 0
M  V30 12354 C 1211.65 1.20414 4.07168 0
M  V30 12355 O 1212.67 1.07488 3.39595 0
M  V30 12356 O 1211.53 1.4078 5.28056 0
M  V30 12357 H 1208.63 0.178491 0.807509 0
M  V30 12358 H 1211.17 1.05586 1.32852 0
M  V30 12359 H 1209.94 2.16578 3.25898 0
M  V30 12360 H 1209.57 0.58843 3.93222 0
M  V30 12361 N 1210.56 -1.39601 0.731392 0
M  V30 12362 C 1211.84 -1.94531 0.20422 0
M  V30 12363 C 1212.22 -1.66845 -1.29329 0
M  V30 12364 O 1211.57 -0.994706 -2.05713 0
M  V30 12365 C 1211.78 -3.44891 0.53395 0
M  V30 12366 C 1213.13 -4.21863 0.481298 0
M  V30 12367 O 1214.15 -3.53073 0.470929 0
M  V30 12368 O 1213.01 -5.44452 0.472663 0
M  V30 12369 H 1210.1 -0.826214 0.0360436 0
M  V30 12370 H 1212.65 -1.49121 0.810005 0
M  V30 12371 H 1211.42 -3.58463 1.56907 0
M  V30 12372 H 1211.04 -3.97472 -0.10099 0
M  V30 12373 N 1212.04 -0.478751 -1.50152 0
M  V30 12374 C 1212.95 0.316554 -2.32455 0
M  V30 12375 C 1213.97 0.98871 -1.4318 0
M  V30 12376 O 1215.14 0.974998 -1.76226 0
M  V30 12377 C 1212.21 1.3799 -3.18056 0
M  V30 12378 C 1211.27 0.723534 -4.23159 0
M  V30 12379 C 1210.5 1.73621 -5.0467 0
M  V30 12380 O 1210.73 2.96362 -4.87366 0
M  V30 12381 O 1209.66 1.30381 -5.87609 0
M  V30 12382 H 1213.49 -0.356491 -3.016 0
M  V30 12383 H 1211.07 -0.24046 -1.47452 0
M  V30 12384 H 1212.95 1.99565 -3.71149 0
M  V30 12385 H 1211.63 2.03627 -2.5163 0
M  V30 12386 H 1210.54 0.0686296 -3.74037 0
M  V30 12387 H 1211.87 0.109979 -4.92077 0
M  V30 12388 N 1213.52 1.56172 -0.211661 0
M  V30 12389 C 1214.43 2.23468 0.714081 0
M  V30 12390 C 1215.45 1.23908 1.22159 0
M  V30 12391 O 1216.62 1.56693 1.26528 0
M  V30 12392 C 1213.69 2.89375 1.90953 0
M  V30 12393 C 1212.75 4.04251 1.44497 0
M  V30 12394 C 1211.98 4.67006 2.58343 0
M  V30 12395 O 1212.2 4.28721 3.76237 0
M  V30 12396 O 1211.14 5.56177 2.3011 0
M  V30 12397 H 1214.96 3.03219 0.170862 0
M  V30 12398 H 1212.55 1.49389 0.0183607 0
M  V30 12399 H 1214.43 3.3101 2.60787 0
M  V30 12400 H 1213.11 2.12591 2.44104 0
M  V30 12401 H 1212.01 3.67205 0.714932 0
M  V30 12402 H 1213.35 4.82748 0.959947 0
M  V30 12403 N 1215 -0.0618163 1.57479 0
M  V30 12404 C 1215.91 -1.09006 2.07738 0
M  V30 12405 C 1216.92 -1.4176 1.00896 0
M  V30 12406 O 1218.1 -1.51737 1.32431 0
M  V30 12407 C 1215.17 -2.38153 2.5196 0
M  V30 12408 C 1214.23 -2.12279 3.73143 0
M  V30 12409 C 1213.46 -3.35269 4.15248 0
M  V30 12410 O 1213.68 -4.44758 3.57137 0
M  V30 12411 O 1212.62 -3.22894 5.0796 0
M  V30 12412 H 1216.44 -0.693059 2.95686 0
M  V30 12413 H 1214.03 -0.276628 1.46817 0
M  V30 12414 H 1215.91 -3.14139 2.80882 0
M  V30 12415 H 1214.58 -2.77213 1.67137 0
M  V30 12416 H 1213.49 -1.33966 3.49291 0
M  V30 12417 H 1214.82 -1.78094 4.5885 0
M  V30 12418 N 1216.48 -1.54033 -0.333429 0
M  V30 12419 C 1217.75 -1.62404 -1.09015 0
M  V30 12420 C 1218.13 -0.451653 -2.06212 0
M  V30 12421 O 1217.48 0.555086 -2.21655 0
M  V30 12422 C 1217.69 -2.98949 -1.80085 0
M  V30 12423 C 1219.04 -3.54655 -2.33464 0
M  V30 12424 O 1220.06 -3.0119 -1.90166 0
M  V30 12425 O 1218.92 -4.48195 -3.12703 0
M  V30 12426 H 1216.02 -0.65727 -0.501921 0
M  V30 12427 H 1218.56 -1.66378 -0.33411 0
M  V30 12428 H 1217.33 -3.75716 -1.09332 0
M  V30 12429 H 1216.96 -2.98609 -2.62523 0
M  V30 12430 N 1217.95 0.594978 -1.45938 0
M  V30 12431 C 1219.18 1.38482 -1.54394 0
M  V30 12432 C 1219.6 1.87222 -0.181563 0
M  V30 12433 O 1218.96 1.60869 0.836119 0
M  V30 12434 C 1219.01 2.55676 -2.54287 0
M  V30 12435 O 1218.11 3.5672 -2.06941 0
M  V30 12436 H 1217.46 0.412918 -0.519995 0
M  V30 12437 H 1219.99 0.722899 -1.91404 0
M  V30 12438 H 1220 3.02756 -2.73501 0
M  V30 12439 H 1218.67 2.19552 -3.53228 0
M  V30 12440 H 1217.25 3.16204 -1.97661 0
M  V30 12441 N 1219.43 1.33438 0.838571 0
M  V30 12442 C 1220.68 1.24665 1.59069 0
M  V30 12443 C 1221 -0.187433 1.94097 0
M  V30 12444 O 1220.27 -1.11625 1.60987 0
M  V30 12445 H 1218.85 0.45843 0.589789 0
M  V30 12446 H 1221.51 1.67161 1.00216 0
M  V30 12447 H 1220.61 1.84057 2.52051 0
M  V30 12448 N 1220.91 -1.05686 1.16912 0
M  V30 12449 C 1222.16 -1.78862 0.955839 0
M  V30 12450 C 1222.49 -1.87257 -0.514645 0
M  V30 12451 O 1221.76 -1.36869 -1.38193 0
M  V30 12452 C 1222.05 -3.23021 1.59152 0
M  V30 12453 C 1221.9 -3.22669 3.13376 0
M  V30 12454 C 1223.22 -4.2073 1.29128 0
M  V30 12455 H 1220.34 -0.64931 0.348663 0
M  V30 12456 H 1222.98 -1.23561 1.44335 0
M  V30 12457 H 1221.13 -3.70243 1.17697 0
M  V30 12458 H 1222.8 -2.83562 3.63855 0
M  V30 12459 H 1221.05 -2.61149 3.46386 0
M  V30 12460 H 1221.72 -4.24394 3.52979 0
M  V30 12461 H 1224.19 -3.8198 1.65017 0
M  V30 12462 H 1223.07 -5.19851 1.76198 0
M  V30 12463 H 1223.33 -4.41595 0.21119 0
M  V30 12464 N 1222.39 -0.968567 -1.24324 0
M  V30 12465 C 1223.61 -0.648166 -1.97012 0
M  V30 12466 C 1224.04 0.775842 -1.71354 0
M  V30 12467 O 1223.4 1.52672 -0.977804 0
M  V30 12468 C 1223.44 -0.929974 -3.48402 0
M  V30 12469 O 1222.55 -0.015854 -4.12397 0
M  V30 12470 H 1221.89 -0.244961 -0.617163 0
M  V30 12471 H 1224.42 -1.29895 -1.58077 0
M  V30 12472 H 1224.43 -0.861863 -3.98793 0
M  V30 12473 H 1223.1 -1.96776 -3.66404 0
M  V30 12474 H 1221.68 -0.137361 -3.72647 0
M  V30 12475 N 1223.87 1.39211 -0.738786 0
M  V30 12476 C 1225.28 1.83237 -0.357916 0
M  V30 12477 C 1225.63 1.61698 1.11123 0
M  V30 12478 O 1224.75 1.11017 1.85753 0
M  V30 12479 C 1225.35 3.32645 -0.64285 0
M  V30 12480 C 1223.91 3.75076 -0.315432 0
M  V30 12481 C 1223.05 2.62166 -0.903556 0
M  V30 12482 H 1226.01 1.2815 -0.936127 0
M  V30 12483 H 1226.03 3.80407 0.0840812 0
M  V30 12484 H 1225.54 3.4829 -1.71218 0
M  V30 12485 H 1223.64 3.65017 0.747907 0
M  V30 12486 H 1223.75 4.72363 -0.800638 0
M  V30 12487 H 1222.12 2.52554 -0.329927 0
M  V30 12488 H 1222.9 2.80616 -1.97761 0
M  V30 12489 N 1225.34 0.486708 1.49896 0
M  V30 12490 C 1226.57 -0.0600816 2.06813 0
M  V30 12491 C 1226.99 -1.32112 1.34877 0
M  V30 12492 O 1226.34 -1.77537 0.422725 0
M  V30 12493 C 1226.4 -0.332266 3.5997 0
M  V30 12494 O 1226.12 0.878771 4.29196 0
M  V30 12495 C 1227.62 -0.924289 4.33557 0
M  V30 12496 H 1224.84 0.0140611 0.670853 0
M  V30 12497 H 1227.38 0.67997 1.92864 0
M  V30 12498 H 1225.54 -1.02227 3.73669 0
M  V30 12499 H 1225.95 0.632873 5.20668 0
M  V30 12500 H 1227.42 -1.06441 5.4164 0
M  V30 12501 H 1227.9 -1.91844 3.95085 0
M  V30 12502 H 1228.51 -0.272189 4.24428 0
M  V30 12503 N 1226.82 -1.56058 0.219941 0
M  V30 12504 C 1228.06 -2.00162 -0.414063 0
M  V30 12505 C 1228.43 -1.10432 -1.57063 0
M  V30 12506 O 1229.63 -1.43877 -2.27053 0
M  V30 12507 C 1227.9 -3.47411 -0.839084 0
M  V30 12508 S 1229.46 -4.13536 -1.46742 0
M  V30 12509 H 1226.28 -0.698738 -0.131475 0
M  V30 12510 H 1228.88 -1.92714 0.32885 0
M  V30 12511 H 1227.58 -4.10398 0.0123666 0
M  V30 12512 H 1227.11 -3.58728 -1.61485 0
M  V30 12513 H 1229.13 -4.12592 -2.75648 0
M  V30 12514 N 1228.3 0.053464 -1.57509 0
M  V30 12515 C 1229.53 0.765301 -1.92764 0
M  V30 12516 C 1229.95 1.69385 -0.817943 0
M  V30 12517 O 1229.31 1.7986 0.228075 0
M  V30 12518 C 1229.36 1.51938 -3.27028 0
M  V30 12519 O 1228.46 2.63121 -3.17555 0
M  V30 12520 H 1227.8 0.207567 -0.630723 0
M  V30 12521 H 1230.33 0.0162254 -2.04594 0
M  V30 12522 H 1230.34 1.89466 -3.6134 0
M  V30 12523 H 1229.02 0.838207 -4.07366 0
M  V30 12524 H 1227.59 2.28316 -2.94832 0
M  V30 12525 N 1229.78 1.54207 0.325255 0
M  V30 12526 C 1231.06 1.6298 1.08153 0
M  V30 12527 C 1231.44 0.462583 2.05969 0
M  V30 12528 O 1230.78 -0.543323 2.21947 0
M  V30 12529 C 1230.99 2.999 1.78497 0
M  V30 12530 C 1232.34 3.55888 2.3158 0
M  V30 12531 O 1233.37 3.02194 1.88566 0
M  V30 12532 O 1232.23 4.49847 3.10322 0
M  V30 12533 H 1229.32 0.659923 0.498429 0
M  V30 12534 H 1231.87 1.66553 0.325282 0
M  V30 12535 H 1230.64 3.7629 1.07338 0
M  V30 12536 H 1230.26 2.99997 2.60936 0
M  V30 12537 N 1231.26 -0.58723 1.46251 0
M  V30 12538 C 1232.21 -1.69141 1.5289 0
M  V30 12539 C 1233.19 -1.56096 0.39024 0
M  V30 12540 O 1234.38 -1.65087 0.638373 0
M  V30 12541 C 1231.51 -3.07922 1.51785 0
M  V30 12542 C 1230.6 -3.2628 2.70928 0
M  V30 12543 N 1230.99 -3.14815 3.95885 0
M  V30 12544 C 1229.29 -3.57207 2.67056 0
M  V30 12545 C 1229.99 -3.35055 4.75514 0
M  V30 12546 N 1228.96 -3.59999 4.0731 0
M  V30 12547 H 1232.77 -1.588 2.47305 0
M  V30 12548 H 1230.28 -0.791124 1.41827 0
M  V30 12549 H 1232.28 -3.87164 1.54628 0
M  V30 12550 H 1230.94 -3.19397 0.584435 0
M  V30 12551 H 1231.95 -2.92778 4.27202 0
M  V30 12552 H 1228.63 -3.75394 1.82717 0
M  V30 12553 H 1230.02 -3.31412 5.84479 0
M  V30 12554 N 1232.74 -1.33881 -0.831482 0
M  V30 12555 C 1233.98 -1.27095 -1.60082 0
M  V30 12556 C 1234.34 0.15911 -1.9134 0
M  V30 12557 O 1235.54 0.351029 -2.66498 0
M  V30 12558 C 1233.81 -2.12874 -2.87088 0
M  V30 12559 S 1235.37 -2.23354 -3.77702 0
M  V30 12560 H 1232.19 -0.452049 -0.548792 0
M  V30 12561 H 1234.79 -1.68998 -0.98285 0
M  V30 12562 H 1233.49 -3.15797 -2.62108 0
M  V30 12563 H 1233.03 -1.71836 -3.53887 0
M  V30 12564 H 1235.04 -1.40003 -4.76039 0
M  V30 12565 N 1234.21 1.05064 -1.1747 0
M  V30 12566 C 1235.62 1.59547 -0.969628 0
M  V30 12567 C 1235.98 1.90153 0.483332 0
M  V30 12568 O 1235.1 1.68415 1.35887 0
M  V30 12569 C 1235.7 2.89877 -1.75377 0
M  V30 12570 C 1234.25 3.41013 -1.59332 0
M  V30 12571 C 1233.4 2.1473 -1.7546 0
M  V30 12572 H 1236.35 0.878595 -1.3216 0
M  V30 12573 H 1236.37 3.59834 -1.23691 0
M  V30 12574 H 1235.89 2.67569 -2.8112 0
M  V30 12575 H 1233.99 3.68355 -0.560827 0
M  V30 12576 H 1234.1 4.15512 -2.38509 0
M  V30 12577 H 1232.46 2.25553 -1.18313 0
M  V30 12578 H 1233.25 1.9489 -2.82618 0
M  V30 12579 N 1235.69 0.975146 1.23809 0
M  V30 12580 C 1236.92 0.658023 1.95841 0
M  V30 12581 C 1237.33 -0.778132 1.72458 0
M  V30 12582 O 1236.67 -1.53462 1.00971 0
M  V30 12583 C 1236.73 0.862038 3.49012 0
M  V30 12584 C 1236.4 2.27925 3.96105 0
M  V30 12585 C 1237.4 3.25755 4.05191 0
M  V30 12586 C 1235.08 2.60894 4.29231 0
M  V30 12587 C 1237.07 4.54636 4.46749 0
M  V30 12588 C 1234.76 3.89999 4.70472 0
M  V30 12589 C 1235.76 4.86682 4.79197 0
M  V30 12590 O 1235.45 6.13483 5.19513 0
M  V30 12591 H 1235.18 0.243915 0.630461 0
M  V30 12592 H 1237.73 1.30768 1.58395 0
M  V30 12593 H 1235.96 0.155209 3.86388 0
M  V30 12594 H 1237.65 0.542873 4.02253 0
M  V30 12595 H 1238.42 3.01614 3.79808 0
M  V30 12596 H 1234.3 1.86355 4.21655 0
M  V30 12597 H 1237.84 5.30101 4.53474 0
M  V30 12598 H 1233.74 4.13937 4.95304 0
M  V30 12599 H 1234.51 6.17158 5.37641 0
M  V30 12600 N 1237.17 -1.38817 0.746158 0
M  V30 12601 C 1238.1 -2.29081 0.0737986 0
M  V30 12602 C 1239.11 -1.47377 -0.691656 0
M  V30 12603 O 1240.3 -1.70326 -0.533973 0
M  V30 12604 C 1237.4 -3.26185 -0.919607 0
M  V30 12605 C 1236.58 -4.36879 -0.213349 0
M  V30 12606 C 1235.64 -5.1422 -1.11644 0
M  V30 12607 O 1234.66 -5.66137 -0.589747 0
M  V30 12608 N 1235.86 -5.26488 -2.44521 0
M  V30 12609 H 1238.63 -2.87424 0.848966 0
M  V30 12610 H 1236.19 -1.50518 0.596314 0
M  V30 12611 H 1238.18 -3.74802 -1.52662 0
M  V30 12612 H 1236.75 -2.68793 -1.5959 0
M  V30 12613 H 1235.97 -3.89994 0.574285 0
M  V30 12614 H 1237.26 -5.08053 0.275655 0
M  V30 12615 H 1236.66 -4.85846 -2.89777 0
M  V30 12616 H 1235.21 -5.78505 -3.00291 0
M  V30 12617 N 1238.65 -0.49465 -1.49636 0
M  V30 12618 C 1239.87 0.051305 -2.07337 0
M  V30 12619 C 1240.3 1.30637 -1.35335 0
M  V30 12620 O 1239.66 1.76647 -0.408126 0
M  V30 12621 C 1239.7 0.294425 -3.59396 0
M  V30 12622 O 1238.81 1.3704 -3.88965 0
M  V30 12623 H 1238.15 -0.023408 -0.663587 0
M  V30 12624 H 1240.68 -0.692451 -1.92526 0
M  V30 12625 H 1240.69 0.527854 -4.04571 0
M  V30 12626 H 1239.36 -0.622583 -4.11214 0
M  V30 12627 H 1237.94 1.12242 -3.55607 0
M  V30 12628 N 1240.13 1.55939 -0.228214 0
M  V30 12629 C 1241.54 1.84612 0.278417 0
M  V30 12630 C 1241.89 1.14973 1.58983 0
M  V30 12631 O 1241.01 0.421673 2.12252 0
M  V30 12632 C 1241.61 3.3491 0.511935 0
M  V30 12633 C 1240.17 3.63876 0.962861 0
M  V30 12634 C 1239.31 2.77284 0.0296246 0
M  V30 12635 H 1242.26 1.52149 -0.451245 0
M  V30 12636 H 1242.29 3.55477 1.35707 0
M  V30 12637 H 1241.8 3.85567 -0.442697 0
M  V30 12638 H 1239.9 3.18682 1.93062 0
M  V30 12639 H 1240.01 4.71809 0.832659 0
M  V30 12640 H 1238.38 2.48961 0.53763 0
M  V30 12641 H 1239.16 3.30742 -0.920044 0
M  V30 12642 N 1241.6 -0.0451101 1.57535 0
M  V30 12643 C 1243.02 -0.59372 1.77008 0
M  V30 12644 C 1243.37 -1.76482 0.857233 0
M  V30 12645 O 1242.49 -2.16347 0.0479703 0
M  V30 12646 C 1243.09 -1.08383 3.20996 0
M  V30 12647 C 1241.65 -1.57808 3.41721 0
M  V30 12648 C 1240.79 -0.509067 2.72587 0
M  V30 12649 H 1243.74 0.181114 1.57663 0
M  V30 12650 H 1243.76 -1.95181 3.26626 0
M  V30 12651 H 1243.28 -0.231276 3.8741 0
M  V30 12652 H 1241.38 -2.45302 2.8046 0
M  V30 12653 H 1241.49 -1.63664 4.50279 0
M  V30 12654 H 1239.85 -0.960389 2.359 0
M  V30 12655 H 1240.64 0.333753 3.41674 0
M  V30 12656 N 1243.08 -1.54377 -0.317073 0
M  V30 12657 C 1244.31 -1.77184 -1.07798 0
M  V30 12658 C 1244.73 -0.52204 -1.80711 0
M  V30 12659 O 1244.09 0.52672 -1.7348 0
M  V30 12660 C 1244.14 -2.96887 -2.04671 0
M  V30 12661 O 1243.24 -2.68887 -3.12688 0
M  V30 12662 H 1242.58 -0.586937 -0.310485 0
M  V30 12663 H 1245.11 -2.01419 -0.35939 0
M  V30 12664 H 1245.12 -3.24414 -2.47426 0
M  V30 12665 H 1243.8 -3.87518 -1.51005 0
M  V30 12666 H 1242.38 -2.52329 -2.74562 0
M  V30 12667 N 1244.56 0.579466 -1.4656 0
M  V30 12668 C 1245.51 1.68829 -1.5737 0
M  V30 12669 C 1246.48 1.60759 -0.417825 0
M  V30 12670 O 1247.66 1.79923 -0.635001 0
M  V30 12671 C 1244.8 3.07166 -1.573 0
M  V30 12672 C 1243.92 3.25837 -2.83645 0
M  V30 12673 C 1243.05 4.54441 -2.75057 0
M  V30 12674 C 1242.09 4.66467 -3.96327 0
M  V30 12675 N 1241.23 5.86401 -3.86107 0
M  V30 12676 H 1246.07 1.58928 -2.52083 0
M  V30 12677 H 1243.6 0.774526 -1.25058 0
M  V30 12678 H 1245.56 3.8724 -1.55245 0
M  V30 12679 H 1244.19 3.15956 -0.661166 0
M  V30 12680 H 1243.24 2.39345 -2.95666 0
M  V30 12681 H 1244.56 3.30591 -3.73512 0
M  V30 12682 H 1243.71 5.42748 -2.71126 0
M  V30 12683 H 1242.45 4.52131 -1.82836 0
M  V30 12684 H 1241.45 3.76577 -4.00587 0
M  V30 12685 H 1242.68 4.70554 -4.89649 0
M  V30 12686 H 1240.62 5.85082 -2.96673 0
M  V30 12687 H 1240.54 5.92437 -4.69632 0
M  V30 12688 H 1241.81 6.7713 -3.86155 0
M  V30 12689 N 1246.04 1.3432 0.824371 0
M  V30 12690 C 1247 1.25672 1.91675 0
M  V30 12691 C 1248 0.172269 1.59875 0
M  V30 12692 O 1249.19 0.424794 1.68941 0
M  V30 12693 C 1246.32 0.939928 3.27686 0
M  V30 12694 H 1247.52 2.22785 2.00766 0
M  V30 12695 H 1245.07 1.18587 1.01817 0
M  V30 12696 H 1245.8 -0.0280898 3.24288 0
M  V30 12697 H 1245.59 1.72432 3.5215 0
M  V30 12698 H 1247.08 0.904553 4.07686 0
M  V30 12699 N 1247.52 -1.0444 1.18026 0
M  V30 12700 C 1248.46 -2.14474 0.900202 0
M  V30 12701 C 1249.46 -1.68836 -0.138086 0
M  V30 12702 O 1250.66 -1.79997 0.00971011 0
M  V30 12703 H 1247.04 -0.700457 0.273613 0
M  V30 12704 H 1249.01 -2.35295 1.83518 0
M  V30 12705 C 1247.76 -3.44926 0.438305 0
M  V30 12706 H 1247.08 -3.8045 1.22874 0
M  V30 12707 H 1248.52 -4.23066 0.281306 0
M  V30 12708 C 1246.98 -3.26124 -0.845268 0
M  V30 12709 O 1247.51 -3.53368 -1.91034 0
M  V30 12710 N 1245.72 -2.79474 -0.7964 0
M  V30 12711 H 1245.26 -2.57503 0.0705595 0
M  V30 12712 H 1245.22 -2.67274 -1.65566 0
M  V30 12713 N 1248.99 -0.981699 -1.2329 0
M  V30 12714 C 1250.41 -0.690539 -1.43888 0
M  V30 12715 C 1250.61 0.742816 -1.87309 0
M  V30 12716 O 1249.67 1.5151 -2.01993 0
M  V30 12717 C 1250.98 -1.68657 -2.48948 0
M  V30 12718 C 1252.53 -1.70076 -2.62761 0
M  V30 12719 C 1253 -2.68513 -3.71032 0
M  V30 12720 N 1254.49 -2.67039 -3.78476 0
M  V30 12721 C 1255.23 -3.39874 -4.61815 0
M  V30 12722 N 1254.72 -4.22273 -5.49233 0
M  V30 12723 N 1256.52 -3.28633 -4.56023 0
M  V30 12724 H 1248.67 -1.90758 -0.934077 0
M  V30 12725 H 1250.93 -0.822058 -0.472149 0
M  V30 12726 H 1250.64 -2.7117 -2.23964 0
M  V30 12727 H 1250.51 -1.47045 -3.47358 0
M  V30 12728 H 1252.9 -0.682673 -2.87095 0
M  V30 12729 H 1252.98 -1.95754 -1.64663 0
M  V30 12730 H 1252.62 -3.70464 -3.47446 0
M  V30 12731 H 1252.55 -2.40109 -4.68674 0
M  V30 12732 H 1255.04 -2.07241 -3.16006 0
M  V30 12733 H 1255.36 -4.74702 -6.09818 0
M  V30 12734 H 1253.7 -4.26364 -5.48852 0
M  V30 12735 H 1256.89 -2.6371 -3.86749 0
M  V30 12736 H 1257.07 -3.85656 -5.20743 0
M  V30 12737 N 1250.47 1.3842 -0.753509 0
M  V30 12738 C 1251.4 2.29039 -0.0859463 0
M  V30 12739 C 1252.42 1.47742 0.68383 0
M  V30 12740 O 1253.61 1.70607 0.524933 0
M  V30 12741 C 1250.71 3.26668 0.902296 0
M  V30 12742 C 1249.88 4.36986 0.190178 0
M  V30 12743 C 1248.94 5.14805 1.08916 0
M  V30 12744 O 1247.96 5.66441 0.559715 0
M  V30 12745 N 1249.17 5.27777 2.41726 0
M  V30 12746 H 1251.93 2.8697 -0.864196 0
M  V30 12747 H 1249.49 1.502 -0.604288 0
M  V30 12748 H 1251.48 3.75606 1.50672 0
M  V30 12749 H 1250.05 2.69636 1.58163 0
M  V30 12750 H 1249.27 3.89684 -0.594959 0
M  V30 12751 H 1250.56 5.07899 -0.302594 0
M  V30 12752 H 1249.96 4.87376 2.87196 0
M  V30 12753 H 1248.52 5.8009 2.97219 0
M  V30 12754 N 1251.95 0.502579 1.49372 0
M  V30 12755 C 1252.88 -0.264307 2.31999 0
M  V30 12756 C 1253.86 -0.96107 1.40348 0
M  V30 12757 O 1255.05 -0.952167 1.69255 0
M  V30 12758 C 1252.18 -1.32822 3.20898 0
M  V30 12759 C 1251.13 -0.751236 4.21355 0
M  V30 12760 C 1250.46 -1.91578 4.99201 0
M  V30 12761 C 1251.76 0.258764 5.21659 0
M  V30 12762 H 1253.45 0.425391 2.96363 0
M  V30 12763 H 1251 0.206022 1.42519 0
M  V30 12764 H 1252.95 -1.87245 3.77515 0
M  V30 12765 H 1251.67 -2.04712 2.54481 0
M  V30 12766 H 1250.33 -0.228743 3.65886 0
M  V30 12767 H 1249.98 -2.62241 4.2923 0
M  V30 12768 H 1249.68 -1.53578 5.67175 0
M  V30 12769 H 1251.2 -2.46432 5.58663 0
M  V30 12770 H 1252.62 -0.197385 5.7296 0
M  V30 12771 H 1251.02 0.554681 5.97531 0
M  V30 12772 H 1252.09 1.1741 4.70471 0
M  V30 12773 N 1253.43 -1.55816 0.23648 0
M  V30 12774 C 1254.67 -2.0059 -0.39281 0
M  V30 12775 C 1255.03 -1.12092 -1.55883 0
M  V30 12776 O 1256.23 -1.46277 -2.25514 0
M  V30 12777 C 1254.5 -3.48281 -0.80219 0
M  V30 12778 S 1256.06 -4.15069 -1.42348 0
M  V30 12779 H 1252.88 -0.700093 -0.124057 0
M  V30 12780 H 1255.48 -1.92355 0.349272 0
M  V30 12781 H 1254.19 -4.10362 0.0558941 0
M  V30 12782 H 1253.72 -3.60421 -1.57671 0
M  V30 12783 H 1255.73 -4.15493 -2.71257 0
M  V30 12784 N 1254.91 0.036755 -1.57557 0
M  V30 12785 C 1256.13 0.744813 -1.93565 0
M  V30 12786 C 1256.56 1.68508 -0.835863 0
M  V30 12787 O 1255.91 1.80091 0.208986 0
M  V30 12788 C 1255.96 1.48461 -3.28621 0
M  V30 12789 O 1255.07 2.59739 -3.20327 0
M  V30 12790 H 1254.41 0.200866 -0.632889 0
M  V30 12791 H 1256.94 -0.00547543 -2.04599 0
M  V30 12792 H 1256.95 1.85622 -3.63329 0
M  V30 12793 H 1255.62 0.794953 -4.08232 0
M  V30 12794 H 1254.2 2.25176 -2.97237 0
M  V30 12795 N 1256.39 1.54543 0.308881 0
M  V30 12796 C 1257.8 1.45581 0.654088 0
M  V30 12797 C 1258 0.640597 1.91046 0
M  V30 12798 O 1257.06 0.14518 2.52082 0
M  V30 12799 C 1258.37 2.89461 0.814422 0
M  V30 12800 C 1259.92 2.99455 0.910817 0
M  V30 12801 C 1260.39 4.44515 1.10321 0
M  V30 12802 N 1261.88 4.4819 1.1696 0
M  V30 12803 C 1262.62 5.57604 1.33661 0
M  V30 12804 N 1262.12 6.76957 1.47311 0
M  V30 12805 N 1263.91 5.45278 1.36487 0
M  V30 12806 H 1256.06 2.06019 -0.516699 0
M  V30 12807 H 1258.32 0.932729 -0.169471 0
M  V30 12808 H 1258.03 3.5168 -0.0377455 0
M  V30 12809 H 1257.9 3.36425 1.70582 0
M  V30 12810 H 1260.29 2.37355 1.75348 0
M  V30 12811 H 1260.37 2.558 -0.00443172 0
M  V30 12812 H 1260.01 5.07206 0.265346 0
M  V30 12813 H 1259.94 4.85793 2.03256 0
M  V30 12814 H 1262.44 3.62199 1.07796 0
M  V30 12815 H 1262.75 7.561 1.59788 0
M  V30 12816 H 1261.09 6.79837 1.44382 0
M  V30 12817 H 1264.28 4.50983 1.25429 0
M  V30 12818 H 1264.46 6.30599 1.4916 0
M  V30 12819 N 1257.86 -0.571685 1.46866 0
M  V30 12820 C 1259.09 -1.36008 1.56578 0
M  V30 12821 C 1259.51 -1.86909 0.211326 0
M  V30 12822 O 1258.87 -1.62179 -0.810421 0
M  V30 12823 C 1258.92 -2.51598 2.58323 0
M  V30 12824 O 1258.02 -3.53383 2.1259 0
M  V30 12825 H 1257.36 -0.404593 0.526498 0
M  V30 12826 H 1259.89 -0.692357 1.92529 0
M  V30 12827 H 1259.9 -2.98366 2.78283 0
M  V30 12828 H 1258.58 -2.13904 3.56676 0
M  V30 12829 H 1257.16 -3.13019 2.02666 0
M  V30 12830 N 1259.34 -1.34755 -0.817236 0
M  V30 12831 C 1260.76 -1.14561 -1.11121 0
M  V30 12832 C 1260.96 0.0490776 -2.0144 0
M  V30 12833 O 1260.01 0.722897 -2.41931 0
M  V30 12834 C 1261.33 -2.44356 -1.75244 0
M  V30 12835 C 1262.87 -2.50465 -1.87713 0
M  V30 12836 C 1263.35 -3.80276 -2.55253 0
M  V30 12837 N 1264.84 -3.81468 -2.62747 0
M  V30 12838 C 1265.58 -4.78634 -3.15749 0
M  V30 12839 N 1265.07 -5.86184 -3.6927 0
M  V30 12840 N 1266.86 -4.66083 -3.14203 0
M  V30 12841 H 1259.02 -2.11293 -0.2166 0
M  V30 12842 H 1261.28 -0.934629 -0.158661 0
M  V30 12843 H 1260.98 -3.31899 -1.16344 0
M  V30 12844 H 1260.86 -2.58117 -2.75055 0
M  V30 12845 H 1263.25 -1.63358 -2.45761 0
M  V30 12846 H 1263.33 -2.40627 -0.867887 0
M  V30 12847 H 1262.97 -4.67776 -1.97858 0
M  V30 12848 H 1262.9 -3.87399 -3.56693 0
M  V30 12849 H 1265.39 -3.03753 -2.24817 0
M  V30 12850 H 1265.7 -6.56332 -4.0798 0
M  V30 12851 H 1264.05 -5.8989 -3.67498 0
M  V30 12852 H 1267.24 -3.81206 -2.7166 0
M  V30 12853 H 1267.41 -5.41973 -3.55203 0
M  V30 12854 N 1260.82 1.03812 -1.18578 0
M  V30 12855 C 1262.04 1.8124 -1.00831 0
M  V30 12856 C 1262.47 1.82917 0.43853 0
M  V30 12857 O 1261.83 1.24835 1.31476 0
M  V30 12858 C 1261.88 3.24592 -1.57075 0
M  V30 12859 O 1260.98 4.04688 -0.793824 0
M  V30 12860 H 1260.32 0.559846 -0.357028 0
M  V30 12861 H 1262.85 1.30724 -1.57393 0
M  V30 12862 H 1262.86 3.75363 -1.59896 0
M  V30 12863 H 1261.54 3.22686 -2.62387 0
M  V30 12864 H 1260.11 3.63359 -0.838134 0
M  V30 12865 N 1262.3 0.988223 1.22768 0
M  V30 12866 C 1263.52 0.679426 1.95955 0
M  V30 12867 C 1263.95 -0.748483 1.72567 0
M  V30 12868 O 1263.31 -1.51097 1.00197 0
M  V30 12869 C 1263.35 0.985284 3.46878 0
M  V30 12870 O 1262.46 0.0814607 4.1232 0
M  V30 12871 H 1261.8 0.254749 0.613188 0
M  V30 12872 H 1264.33 1.32393 1.55991 0
M  V30 12873 H 1264.34 0.925198 3.97371 0
M  V30 12874 H 1263.01 2.02581 3.63227 0
M  V30 12875 H 1261.59 0.196629 3.72381 0
M  V30 12876 N 1263.78 -1.38018 0.760839 0
M  V30 12877 C 1265 -2.04757 0.330038 0
M  V30 12878 C 1265.43 -1.57009 -1.03585 0
M  V30 12879 O 1264.78 -0.725349 -1.66158 0
M  V30 12880 C 1264.83 -3.58696 0.370082 0
M  V30 12881 O 1263.94 -4.07507 -0.633361 0
M  V30 12882 H 1263.28 -0.648023 0.144782 0
M  V30 12883 H 1265.81 -1.7655 1.03399 0
M  V30 12884 H 1265.82 -4.07387 0.223515 0
M  V30 12885 H 1264.49 -3.92806 1.36661 0
M  V30 12886 H 1263.07 -3.70165 -0.45081 0
M  V30 12887 N 1265.25 -0.510493 -1.49103 0
M  V30 12888 C 1266.5 0.0305831 -2.02077 0
M  V30 12889 C 1266.82 1.36602 -1.39157 0
M  V30 12890 O 1266.09 1.88016 -0.550154 0
M  V30 12891 H 1264.67 0.0142916 -0.746863 0
M  V30 12892 H 1267.33 -0.669895 -1.83026 0
M  V30 12893 H 1266.43 0.153283 -3.11723 0
M  V30 12894 N 1266.73 1.55688 -0.24474 0
M  V30 12895 C 1267.96 2.03743 0.387776 0
M  V30 12896 C 1268.38 1.1229 1.50906 0
M  V30 12897 O 1267.74 0.115445 1.80932 0
M  V30 12898 C 1267.79 3.49825 0.874927 0
M  V30 12899 O 1266.89 3.61504 1.98466 0
M  V30 12900 H 1266.23 0.658561 0.0848107 0
M  V30 12901 H 1268.76 2.01224 -0.370165 0
M  V30 12902 H 1268.77 3.90603 1.17871 0
M  V30 12903 H 1267.45 4.15864 0.0543852 0
M  V30 12904 H 1266.02 3.32622 1.68574 0
M  V30 12905 N 1268.21 -0.0283989 1.57574 0
M  V30 12906 C 1269.43 -0.734537 1.93957 0
M  V30 12907 C 1269.86 -1.68062 0.844787 0
M  V30 12908 O 1269.22 -1.802 -0.199432 0
M  V30 12909 C 1269.27 -1.46716 3.29404 0
M  V30 12910 O 1268.37 -2.58036 3.217 0
M  V30 12911 H 1267.71 -0.197507 0.633946 0
M  V30 12912 H 1270.24 0.0163258 2.04593 0
M  V30 12913 H 1270.25 -1.83693 3.64309 0
M  V30 12914 H 1268.93 -0.773292 4.08648 0
M  V30 12915 H 1267.5 -2.23597 2.98427 0
M  V30 12916 N 1269.69 -1.54705 -0.300681 0
M  V30 12917 C 1271.1 -1.64998 -0.873654 0
M  V30 12918 C 1271.45 -0.558842 -1.88073 0
M  V30 12919 O 1270.57 0.304474 -2.14247 0
M  V30 12920 C 1271.17 -2.99099 -1.59138 0
M  V30 12921 C 1269.73 -3.11512 -2.11276 0
M  V30 12922 C 1268.88 -2.60681 -0.945551 0
M  V30 12923 H 1271.83 -1.5851 -0.0776752 0
M  V30 12924 H 1271.85 -2.9054 -2.45696 0
M  V30 12925 H 1271.36 -3.78493 -0.858172 0
M  V30 12926 H 1269.46 -2.36838 -2.87643 0
M  V30 12927 H 1269.57 -4.17672 -2.34707 0
M  V30 12928 H 1267.94 -2.17143 -1.33121 0
M  V30 12929 H 1268.72 -3.42553 -0.226291 0
M  V30 12930 N 1271.17 0.563888 -1.47167 0
M  V30 12931 C 1272.41 1.33221 -1.55021 0
M  V30 12932 C 1272.77 1.90904 -0.204835 0
M  V30 12933 O 1273.97 2.68334 -0.158201 0
M  V30 12934 C 1272.24 2.41757 -2.63227 0
M  V30 12935 S 1273.8 3.28765 -2.90619 0
M  V30 12936 H 1270.62 0.453623 -0.547491 0
M  V30 12937 H 1273.22 0.646265 -1.84509 0
M  V30 12938 H 1271.93 1.97803 -3.59586 0
M  V30 12939 H 1271.46 3.151 -2.35532 0
M  V30 12940 H 1273.47 4.41065 -2.27323 0
M  V30 12941 N 1272.64 1.35187 0.810078 0
M  V30 12942 C 1273.59 1.24366 1.91094 0
M  V30 12943 C 1274.58 0.139718 1.60292 0
M  V30 12944 O 1275.77 0.370609 1.73077 0
M  V30 12945 C 1272.9 1.01434 3.27973 0
M  V30 12946 C 1271.99 2.16203 3.64852 0
M  V30 12947 N 1272.38 3.41408 3.73195 0
M  V30 12948 C 1270.67 2.07512 3.94784 0
M  V30 12949 C 1271.38 4.16858 4.05714 0
M  V30 12950 N 1270.35 3.45579 4.19614 0
M  V30 12951 H 1274.15 2.19232 1.95741 0
M  V30 12952 H 1271.67 1.2761 1.00447 0
M  V30 12953 H 1273.66 0.91771 4.06674 0
M  V30 12954 H 1272.32 0.074495 3.24615 0
M  V30 12955 H 1273.34 3.75802 3.56361 0
M  V30 12956 H 1270.01 1.21362 3.99472 0
M  V30 12957 H 1271.4 5.25039 4.19266 0
M  V30 12958 N 1274.12 -1.03182 1.19127 0
M  V30 12959 C 1275.35 -1.80703 1.01791 0
M  V30 12960 C 1275.77 -1.83147 -0.428824 0
M  V30 12961 O 1275.13 -1.2553 -1.30812 0
M  V30 12962 C 1275.18 -3.23754 1.58794 0
M  V30 12963 O 1274.28 -4.04261 0.815274 0
M  V30 12964 H 1273.62 -0.557944 0.359992 0
M  V30 12965 H 1276.15 -1.29887 1.58084 0
M  V30 12966 H 1276.16 -3.7451 1.61884 0
M  V30 12967 H 1274.84 -3.2129 2.64094 0
M  V30 12968 H 1273.42 -3.62909 0.857392 0
M  V30 12969 N 1275.6 -0.99472 -1.22242 0
M  V30 12970 C 1276.85 -0.682256 -1.91616 0
M  V30 12971 C 1277.2 0.777397 -1.75995 0
M  V30 12972 O 1276.49 1.55509 -1.11926 0
M  V30 12973 C 1276.69 -1.02561 -3.42368 0
M  V30 12974 C 1276.52 -2.5171 -3.72656 0
M  V30 12975 C 1275.29 -3.18144 -3.92571 0
M  V30 12976 C 1277.49 -3.49835 -3.76988 0
M  V30 12977 N 1275.47 -4.5675 -4.10186 0
M  V30 12978 C 1276.84 -4.73907 -3.99765 0
M  V30 12979 C 1278.89 -3.44116 -3.59845 0
M  V30 12980 C 1277.6 -5.92957 -4.07179 0
M  V30 12981 C 1279.62 -4.62545 -3.68519 0
M  V30 12982 C 1278.98 -5.85417 -3.91748 0
M  V30 12983 H 1275.08 -0.300961 -0.721766 0
M  V30 12984 H 1277.67 -1.2751 -1.47137 0
M  V30 12985 H 1275.84 -0.461327 -3.85651 0
M  V30 12986 H 1277.57 -0.66895 -3.99133 0
M  V30 12987 H 1274.33 -2.68608 -3.9006 0
M  V30 12988 H 1274.75 -5.28649 -4.22917 0
M  V30 12989 H 1279.39 -2.50134 -3.40871 0
M  V30 12990 H 1277.11 -6.87341 -4.24956 0
M  V30 12991 H 1280.7 -4.59711 -3.56591 0
M  V30 12992 H 1279.58 -6.75525 -3.98291 0
M  V30 12993 N 1277.08 1.37613 -0.768148 0
M  V30 12994 C 1278.3 2.04579 -0.340892 0
M  V30 12995 C 1278.73 1.57556 1.02751 0
M  V30 12996 O 1278.09 0.734151 1.65771 0
M  V30 12997 C 1278.13 3.58495 -0.389099 0
M  V30 12998 O 1277.24 4.07838 0.611741 0
M  V30 12999 H 1276.58 0.647246 -0.148216 0
M  V30 13000 H 1279.11 1.75999 -1.04333 0
M  V30 13001 H 1279.12 4.07263 -0.245116 0
M  V30 13002 H 1277.79 3.92076 -1.38742 0
M  V30 13003 H 1276.37 3.70399 0.431173 0
M  V30 13004 N 1278.56 0.518393 1.4883 0
M  V30 13005 C 1279.97 0.0749773 1.86549 0
M  V30 13006 C 1280.32 -1.34429 1.4291 0
M  V30 13007 O 1279.44 -2.00481 0.814648 0
M  V30 13008 C 1280.04 0.129289 3.38553 0
M  V30 13009 C 1278.6 -0.258871 3.75509 0
M  V30 13010 C 1277.74 0.494185 2.72861 0
M  V30 13011 H 1280.7 0.730266 1.409 0
M  V30 13012 H 1280.72 -0.661844 3.747 0
M  V30 13013 H 1280.23 1.16237 3.70285 0
M  V30 13014 H 1278.33 -1.29453 3.49389 0
M  V30 13015 H 1278.44 0.0726769 4.79045 0
M  V30 13016 H 1276.81 -0.0581428 2.54634 0
M  V30 13017 H 1277.59 1.52767 3.07436 0
M  V30 13018 N 1280.03 -1.55556 0.252993 0
M  V30 13019 C 1281 -2.20351 -0.630705 0
M  V30 13020 C 1282 -1.17461 -1.09816 0
M  V30 13021 O 1283.19 -1.42505 -1.00189 0
M  V30 13022 C 1280.32 -2.85192 -1.86757 0
M  V30 13023 H 1281.51 -2.99829 -0.0652939 0
M  V30 13024 H 1279.07 -1.563 0.00347982 0
M  V30 13025 H 1279.8 -2.09669 -2.47406 0
M  V30 13026 H 1279.59 -3.60569 -1.54053 0
M  V30 13027 H 1281.08 -3.34762 -2.49648 0
M  V30 13028 N 1281.51 0.0200419 -1.57587 0
M  V30 13029 C 1282.74 0.720556 -1.93947 0
M  V30 13030 C 1283.16 1.68407 -0.853499 0
M  V30 13031 O 1282.51 1.81713 0.169337 0
M  V30 13032 C 1282.56 1.46982 -3.3027 0
M  V30 13033 O 1282.28 0.544971 -4.34697 0
M  V30 13034 C 1283.79 2.26667 -3.80968 0
M  V30 13035 H 1281.01 0.201956 -0.639887 0
M  V30 13036 H 1283.55 -0.0251175 -2.04485 0
M  V30 13037 H 1281.7 2.16729 -3.21103 0
M  V30 13038 H 1282.12 1.07139 -5.13441 0
M  V30 13039 H 1283.59 2.74621 -4.78839 0
M  V30 13040 H 1284.07 3.0848 -3.12629 0
M  V30 13041 H 1284.68 1.61976 -3.93248 0
M  V30 13042 N 1282.99 1.54862 0.292472 0
M  V30 13043 C 1284.41 1.46267 0.638611 0
M  V30 13044 C 1284.61 0.660824 1.90356 0
M  V30 13045 O 1283.66 0.171909 2.51914 0
M  V30 13046 C 1284.98 2.90309 0.783675 0
M  V30 13047 C 1286.52 3.00404 0.879004 0
M  V30 13048 C 1287 4.4566 1.056 0
M  V30 13049 N 1288.49 4.49406 1.122 0
M  V30 13050 C 1289.22 5.5899 1.2774 0
M  V30 13051 N 1288.72 6.78482 1.40123 0
M  V30 13052 N 1290.51 5.46695 1.30696 0
M  V30 13053 H 1282.66 2.0546 -0.538521 0
M  V30 13054 H 1284.93 0.930879 -0.179354 0
M  V30 13055 H 1284.63 3.5162 -0.0750437 0
M  V30 13056 H 1284.51 3.38215 1.67004 0
M  V30 13057 H 1286.89 2.39201 1.7282 0
M  V30 13058 H 1286.98 2.55781 -0.0315624 0
M  V30 13059 H 1286.62 5.07459 0.211535 0
M  V30 13060 H 1286.55 4.87921 1.98092 0
M  V30 13061 H 1289.04 3.63322 1.03948 0
M  V30 13062 H 1289.35 7.57752 1.5176 0
M  V30 13063 H 1287.7 6.81331 1.37163 0
M  V30 13064 H 1290.89 4.52288 1.20638 0
M  V30 13065 H 1291.06 6.32146 1.42463 0
M  V30 13066 N 1284.47 -0.556076 1.47464 0
M  V30 13067 C 1285.88 -0.882115 1.33007 0
M  V30 13068 C 1286.08 -1.9892 0.321407 0
M  V30 13069 O 1285.14 -2.51088 -0.266668 0
M  V30 13070 C 1286.45 -1.27428 2.72365 0
M  V30 13071 C 1288 -1.38564 2.80658 0
M  V30 13072 C 1288.48 -1.81136 4.20659 0
M  V30 13073 N 1289.97 -1.88284 4.23206 0
M  V30 13074 C 1290.7 -2.22555 5.28447 0
M  V30 13075 N 1290.2 -2.55432 6.43993 0
M  V30 13076 N 1291.99 -2.23339 5.15826 0
M  V30 13077 H 1284.14 0.17481 2.11679 0
M  V30 13078 H 1286.41 0.0155421 0.947873 0
M  V30 13079 H 1286.11 -0.53463 3.47613 0
M  V30 13080 H 1285.99 -2.23019 3.04208 0
M  V30 13081 H 1288.37 -2.1161 2.05682 0
M  V30 13082 H 1288.45 -0.411588 2.52467 0
M  V30 13083 H 1288.1 -1.08659 4.96141 0
M  V30 13084 H 1288.03 -2.79546 4.46275 0
M  V30 13085 H 1290.52 -1.65259 3.3985 0
M  V30 13086 H 1290.83 -2.80612 7.20053 0
M  V30 13087 H 1289.18 -2.5301 6.47311 0
M  V30 13088 H 1292.37 -1.97094 4.24584 0
M  V30 13089 H 1292.54 -2.49717 5.97951 0
M  V30 13090 N 1285.95 -1.35615 -0.802897 0
M  V30 13091 C 1286.9 -1.28877 -1.93632 0
M  V30 13092 C 1287.89 -0.183014 -1.68408 0
M  V30 13093 O 1289.1 -0.349218 -1.7658 0
M  V30 13094 H 1285.47 -0.400883 -0.636236 0
M  V30 13095 H 1287.44 -2.24624 -1.96435 0
M  V30 13096 C 1286.19 -1.08136 -3.30457 0
M  V30 13097 H 1285.51 -1.92463 -3.50426 0
M  V30 13098 H 1286.95 -1.07464 -4.10155 0
M  V30 13099 C 1285.41 0.214635 -3.36216 0
M  V30 13100 O 1285.94 1.20916 -3.8307 0
M  V30 13101 N 1284.15 0.25468 -2.89482 0
M  V30 13102 H 1283.7 -0.555239 -2.51545 0
M  V30 13103 H 1283.65 1.12152 -2.93716 0
M  V30 13104 N 1287.43 1.02549 -1.19673 0
M  V30 13105 C 1288.67 1.76004 -1.00144 0
M  V30 13106 C 1289 1.888 0.467423 0
M  V30 13107 O 1288.26 1.404 1.36331 0
M  V30 13108 C 1288.55 3.18597 -1.61959 0
M  V30 13109 C 1288.22 3.258 -3.11713 0
M  V30 13110 C 1286.88 3.27473 -3.52583 0
M  V30 13111 C 1289.23 3.24675 -4.0772 0
M  V30 13112 C 1286.56 3.25681 -4.88005 0
M  V30 13113 C 1288.91 3.24424 -5.43076 0
M  V30 13114 C 1287.58 3.24396 -5.83372 0
M  V30 13115 H 1286.85 0.644044 -0.366453 0
M  V30 13116 H 1289.5 1.20338 -1.48966 0
M  V30 13117 H 1287.8 3.77364 -1.05375 0
M  V30 13118 H 1289.5 3.74109 -1.44374 0
M  V30 13119 H 1286.09 3.25228 -2.7915 0
M  V30 13120 H 1290.27 3.2256 -3.77185 0
M  V30 13121 H 1285.53 3.23986 -5.18501 0
M  V30 13122 H 1289.7 3.22504 -6.17223 0
M  V30 13123 H 1287.33 3.22762 -6.8828 0
M  V30 13124 N 1288.9 1.00119 1.21713 0
M  V30 13125 C 1290.32 0.713343 1.42771 0
M  V30 13126 C 1290.52 -0.712923 1.88467 0
M  V30 13127 O 1289.58 -1.48277 2.04378 0
M  V30 13128 C 1290.89 1.72596 2.46234 0
M  V30 13129 C 1292.44 1.74235 2.60022 0
M  V30 13130 C 1292.91 2.74382 3.66713 0
M  V30 13131 N 1294.4 2.73027 3.7418 0
M  V30 13132 C 1295.14 3.47178 4.56349 0
M  V30 13133 N 1294.63 4.30958 5.42446 0
M  V30 13134 N 1296.43 3.35846 4.50737 0
M  V30 13135 H 1288.58 1.9222 0.903611 0
M  V30 13136 H 1290.84 0.829466 0.459011 0
M  V30 13137 H 1290.55 2.74699 2.19621 0
M  V30 13138 H 1290.42 1.52553 3.44975 0
M  V30 13139 H 1292.81 0.728261 2.85973 0
M  V30 13140 H 1292.89 1.98349 1.61528 0
M  V30 13141 H 1292.53 3.75945 3.41508 0
M  V30 13142 H 1292.46 2.47534 4.64795 0
M  V30 13143 H 1294.95 2.12242 3.12669 0
M  V30 13144 H 1295.27 4.84344 6.02189 0
M  V30 13145 H 1293.61 4.35042 5.42 0
M  V30 13146 H 1296.8 2.6983 3.82504 0
M  V30 13147 H 1296.98 3.93892 5.14541 0
M  V30 13148 N 1290.38 -1.37203 0.775435 0
M  V30 13149 C 1291.62 -2.01439 0.346649 0
M  V30 13150 C 1291.99 -1.60223 -1.05795 0
M  V30 13151 O 1293.19 -2.16947 -1.58706 0
M  V30 13152 C 1291.46 -3.54031 0.489584 0
M  V30 13153 S 1293.02 -4.38555 0.146606 0
M  V30 13154 H 1289.83 -0.698417 0.133173 0
M  V30 13155 H 1292.44 -1.67338 1.01086 0
M  V30 13156 H 1291.14 -3.81516 1.51241 0
M  V30 13157 H 1290.67 -3.92936 -0.19105 0
M  V30 13158 H 1292.69 -4.8482 -1.05661 0
M  V30 13159 N 1291.86 -0.526279 -1.48553 0
M  V30 13160 C 1292.77 0.24244 -2.33344 0
M  V30 13161 C 1293.79 0.942658 -1.46253 0
M  V30 13162 O 1294.96 0.91844 -1.79239 0
M  V30 13163 C 1292.03 1.27801 -3.22285 0
M  V30 13164 C 1291.09 0.588543 -4.25247 0
M  V30 13165 C 1290.32 1.57478 -5.09938 0
M  V30 13166 O 1290.54 2.80707 -4.96548 0
M  V30 13167 O 1289.48 1.11621 -5.9146 0
M  V30 13168 H 1293.3 -0.452262 -3.00314 0
M  V30 13169 H 1290.89 -0.287249 -1.46613 0
M  V30 13170 H 1292.77 1.87656 -3.7731 0
M  V30 13171 H 1291.45 1.95519 -2.57981 0
M  V30 13172 H 1290.35 -0.0504022 -3.74066 0
M  V30 13173 H 1291.69 -0.046627 -4.92178 0
M  V30 13174 N 1293.34 1.5542 -0.261239 0
M  V30 13175 C 1294.56 2.04142 0.366144 0
M  V30 13176 C 1294.99 1.13884 1.49706 0
M  V30 13177 O 1294.35 0.134629 1.80799 0
M  V30 13178 C 1294.39 3.50733 0.837774 0
M  V30 13179 O 1293.5 3.63588 1.94621 0
M  V30 13180 H 1292.84 0.659424 0.077821 0
M  V30 13181 H 1295.37 2.0082 -0.391487 0
M  V30 13182 H 1295.38 3.91831 1.13721 0
M  V30 13183 H 1294.05 4.15899 0.0102742 0
M  V30 13184 H 1292.63 3.34391 1.65037 0
M  V30 13185 N 1294.82 -0.0116844 1.57596 0
M  V30 13186 C 1296.23 -0.367602 1.55309 0
M  V30 13187 C 1296.43 -1.75524 0.98962 0
M  V30 13188 O 1295.49 -2.44813 0.618289 0
M  V30 13189 C 1296.8 -0.253532 2.99629 0
M  V30 13190 C 1298.35 -0.329335 3.11263 0
M  V30 13191 C 1298.82 -0.24452 4.57347 0
M  V30 13192 N 1300.31 -0.302782 4.62209 0
M  V30 13193 C 1301.05 -0.260315 5.72809 0
M  V30 13194 N 1300.55 -0.169124 6.92594 0
M  V30 13195 N 1302.34 -0.311323 5.61237 0
M  V30 13196 H 1294.49 0.896204 1.92567 0
M  V30 13197 H 1296.75 0.342445 0.883988 0
M  V30 13198 H 1296.46 0.70074 3.44648 0
M  V30 13199 H 1296.33 -1.04029 3.62571 0
M  V30 13200 H 1298.72 -1.27405 2.66181 0
M  V30 13201 H 1298.8 0.487084 2.5112 0
M  V30 13202 H 1298.44 0.696597 5.031 0
M  V30 13203 H 1298.37 -1.07927 5.15421 0
M  V30 13204 H 1300.87 -0.375067 3.76034 0
M  V30 13205 H 1301.18 -0.142296 7.72669 0
M  V30 13206 H 1299.52 -0.134919 6.94869 0
M  V30 13207 H 1302.71 -0.380678 4.6655 0
M  V30 13208 H 1302.89 -0.274761 6.47417 0
M  V30 13209 N 1296.29 -1.55015 -0.284256 0
M  V30 13210 C 1297.54 -1.74744 -1.01532 0
M  V30 13211 C 1297.86 -0.545334 -1.87219 0
M  V30 13212 O 1297.13 0.440046 -1.90894 0
M  V30 13213 H 1295.71 -0.644382 -0.377864 0
M  V30 13214 H 1298.37 -1.92399 -0.311199 0
M  V30 13215 H 1297.47 -2.64369 -1.65878 0
M  V30 13216 N 1297.77 0.548248 -1.47757 0
M  V30 13217 C 1299.18 1.13033 -1.48595 0
M  V30 13218 C 1299.53 1.94657 -0.245575 0
M  V30 13219 O 1298.66 2.06445 0.648813 0
M  V30 13220 C 1299.25 2.05657 -2.69241 0
M  V30 13221 C 1297.81 2.59119 -2.73009 0
M  V30 13222 C 1296.96 1.35686 -2.41836 0
M  V30 13223 H 1299.91 0.334397 -1.55137 0
M  V30 13224 H 1299.93 2.89671 -2.4672 0
M  V30 13225 H 1299.44 1.46222 -3.595 0
M  V30 13226 H 1297.54 3.22327 -1.86912 0
M  V30 13227 H 1297.66 2.99501 -3.73946 0
M  V30 13228 H 1296.02 1.66659 -1.92606 0
M  V30 13229 H 1296.8 0.780311 -3.34314 0
M  V30 13230 N 1299.25 1.36039 0.795694 0
M  V30 13231 C 1300.49 1.31295 1.56656 0
M  V30 13232 C 1300.85 -0.108324 1.91694 0
M  V30 13233 O 1302.05 -0.280248 2.67335 0
M  V30 13234 C 1300.33 2.20411 2.81343 0
M  V30 13235 S 1301.88 2.33289 3.71647 0
M  V30 13236 H 1298.7 0.46644 0.536614 0
M  V30 13237 H 1301.3 1.71544 0.937697 0
M  V30 13238 H 1300.01 3.22635 2.53643 0
M  V30 13239 H 1299.54 1.81158 3.49207 0
M  V30 13240 H 1301.55 1.52575 4.7216 0
M  V30 13241 N 1300.73 -1.01913 1.20215 0
M  V30 13242 C 1301.95 -1.79613 1.03702 0
M  V30 13243 C 1302.38 -1.83591 -0.409374 0
M  V30 13244 O 1301.74 -1.26911 -1.29473 0
M  V30 13245 C 1301.78 -3.22052 1.62219 0
M  V30 13246 O 1300.89 -4.03374 0.858106 0
M  V30 13247 H 1300.23 -0.554095 0.365889 0
M  V30 13248 H 1302.76 -1.28203 1.59452 0
M  V30 13249 H 1302.77 -3.72772 1.65847 0
M  V30 13250 H 1301.44 -3.18471 2.67487 0
M  V30 13251 H 1300.02 -3.6198 0.895835 0
M  V30 13252 N 1302.21 -1.00763 -1.2118 0
M  V30 13253 C 1303.48 -0.607236 -1.85935 0
M  V30 13254 C 1303.86 0.915048 -1.90237 0
M  V30 13255 O 1303.21 1.80308 -1.40361 0
M  V30 13256 C 1303.42 -1.24466 -3.26051 0
M  V30 13257 C 1304.77 -1.35443 -4.02418 0
M  V30 13258 O 1305.79 -1.20018 -3.35372 0
M  V30 13259 O 1304.65 -1.60282 -5.22467 0
M  V30 13260 H 1301.75 -0.208338 -0.800328 0
M  V30 13261 H 1304.29 -1.10444 -1.28842 0
M  V30 13262 H 1303.06 -2.28524 -3.17635 0
M  V30 13263 H 1302.69 -0.733966 -3.90767 0
M  V30 13264 N 1303.68 1.3679 -0.7827 0
M  V30 13265 C 1305.1 1.52719 -0.463594 0
M  V30 13266 C 1305.3 1.73827 1.01914 0
M  V30 13267 O 1304.36 1.76591 1.80477 0
M  V30 13268 C 1305.67 2.71709 -1.2882 0
M  V30 13269 C 1307.22 2.85577 -1.2812 0
M  V30 13270 C 1307.69 4.07564 -2.0894 0
M  V30 13271 N 1309.18 4.14697 -2.0635 0
M  V30 13272 C 1309.92 5.08147 -2.65659 0
M  V30 13273 N 1309.41 6.07083 -3.33799 0
M  V30 13274 N 1311.21 5.00712 -2.55429 0
M  V30 13275 H 1303.36 1.21342 -1.74327 0
M  V30 13276 H 1305.62 0.591719 -0.740657 0
M  V30 13277 H 1305.33 2.62612 -2.3394 0
M  V30 13278 H 1305.2 3.65686 -0.924873 0
M  V30 13279 H 1307.59 2.94139 -0.237947 0
M  V30 13280 H 1307.67 1.92528 -1.68424 0
M  V30 13281 H 1307.31 3.99763 -3.13293 0
M  V30 13282 H 1307.24 4.99748 -1.66011 0
M  V30 13283 H 1309.73 3.43856 -1.56752 0
M  V30 13284 H 1310.05 6.74939 -3.764 0
M  V30 13285 H 1308.39 6.07329 -3.379 0
M  V30 13286 H 1311.58 4.22367 -2.01802 0
M  V30 13287 H 1311.76 5.73354 -3.01943 0
M  V30 13288 N 1305.16 0.53415 1.48272 0
M  V30 13289 C 1306.39 0.00574475 2.06899 0
M  V30 13290 C 1306.81 -1.27754 1.39012 0
M  V30 13291 O 1306.16 -1.76102 0.478993 0
M  V30 13292 C 1306.21 -0.217576 3.60845 0
M  V30 13293 O 1305.93 1.01487 4.26183 0
M  V30 13294 C 1307.44 -0.785888 4.36278 0
M  V30 13295 H 1304.66 0.0353967 0.670066 0
M  V30 13296 H 1307.2 0.740984 1.90603 0
M  V30 13297 H 1305.35 -0.902875 3.76732 0
M  V30 13298 H 1305.77 0.7982 5.18391 0
M  V30 13299 H 1307.24 -0.891551 5.44753 0
M  V30 13300 H 1307.72 -1.79178 4.00989 0
M  V30 13301 H 1308.33 -0.137022 4.25079 0
M  V30 13302 N 1306.64 -1.55279 0.269478 0
M  V30 13303 C 1308.05 -1.85286 -0.229372 0
M  V30 13304 C 1308.4 -1.19148 -1.55879 0
M  V30 13305 O 1307.53 -0.4778 -2.11059 0
M  V30 13306 C 1308.12 -3.3615 -0.42296 0
M  V30 13307 C 1306.68 -3.66301 -0.866047 0
M  V30 13308 C 1305.83 -2.77265 0.0439028 0
M  V30 13309 H 1308.78 -1.509 0.491427 0
M  V30 13310 H 1308.8 -3.5895 -1.26234 0
M  V30 13311 H 1308.31 -3.84258 0.544768 0
M  V30 13312 H 1306.41 -3.23688 -1.84545 0
M  V30 13313 H 1306.53 -4.73851 -0.707274 0
M  V30 13314 H 1304.89 -2.50299 -0.471433 0
M  V30 13315 H 1305.67 -3.28186 1.00741 0
M  V30 13316 N 1308.12 0.00332656 -1.576 0
M  V30 13317 C 1309.34 0.703587 -1.95101 0
M  V30 13318 C 1309.77 1.66697 -0.871418 0
M  V30 13319 O 1309.13 1.80494 0.170739 0
M  V30 13320 C 1309.17 1.41457 -3.31696 0
M  V30 13321 O 1308.28 2.52885 -3.25765 0
M  V30 13322 H 1307.62 0.187396 -0.637008 0
M  V30 13323 H 1310.15 -0.0488727 -2.04542 0
M  V30 13324 H 1310.16 1.77874 -3.67185 0
M  V30 13325 H 1308.83 0.708182 -4.09826 0
M  V30 13326 H 1307.41 2.18821 -3.01947 0
M  V30 13327 N 1309.6 1.55164 0.276031 0
M  V30 13328 C 1310.85 1.74833 1.0058 0
M  V30 13329 C 1311.16 0.555089 1.87558 0
M  V30 13330 O 1312.36 0.634127 2.63991 0
M  V30 13331 C 1310.82 3.09417 1.83818 0
M  V30 13332 C 1310.43 4.36299 1.01721 0
M  V30 13333 C 1312.17 3.38437 2.56244 0
M  V30 13334 C 1310.08 5.61923 1.8438 0
M  V30 13335 H 1309.01 0.651676 0.379254 0
M  V30 13336 H 1311.66 1.81626 0.26161 0
M  V30 13337 H 1310.04 2.96654 2.62321 0
M  V30 13338 H 1311.22 4.59969 0.276565 0
M  V30 13339 H 1309.53 4.144 0.407645 0
M  V30 13340 H 1312.13 4.29501 3.18485 0
M  V30 13341 H 1312.47 2.58432 3.26372 0
M  V30 13342 H 1313 3.52284 1.84773 0
M  V30 13343 H 1309.74 6.44667 1.18679 0
M  V30 13344 H 1309.26 5.424 2.56051 0
M  V30 13345 H 1310.94 6.0011 2.4182 0
M  V30 13346 N 1311.07 -0.540404 1.48045 0
M  V30 13347 C 1312.49 -0.867958 1.33935 0
M  V30 13348 C 1312.69 -1.98568 0.342488 0
M  V30 13349 O 1311.75 -2.51357 -0.240022 0
M  V30 13350 C 1313.06 -1.24532 2.73701 0
M  V30 13351 C 1314.61 -1.3558 2.82112 0
M  V30 13352 C 1315.08 -1.76664 4.22556 0
M  V30 13353 N 1316.57 -1.83785 4.25179 0
M  V30 13354 C 1317.31 -2.16938 5.30778 0
M  V30 13355 N 1316.8 -2.48587 6.46666 0
M  V30 13356 N 1318.6 -2.17855 5.18166 0
M  V30 13357 H 1310.75 0.197251 2.11482 0
M  V30 13358 H 1313.01 0.0255947 0.947654 0
M  V30 13359 H 1312.72 -0.497731 3.4816 0
M  V30 13360 H 1312.59 -2.19779 3.06556 0
M  V30 13361 H 1314.98 -2.09417 2.07915 0
M  V30 13362 H 1315.06 -0.384787 2.52889 0
M  V30 13363 H 1314.7 -1.03391 4.97265 0
M  V30 13364 H 1314.63 -2.74797 4.49215 0
M  V30 13365 H 1317.12 -1.61645 3.41583 0
M  V30 13366 H 1317.44 -2.72959 7.22989 0
M  V30 13367 H 1315.78 -2.4613 6.49958 0
M  V30 13368 H 1318.97 -1.9258 4.2665 0
M  V30 13369 H 1319.15 -2.43361 6.00566 0
M  V30 13370 N 1312.55 -1.36459 -0.788468 0
M  V30 13371 C 1313.5 -1.27391 -1.89092 0
M  V30 13372 C 1314.49 -0.165201 -1.6005 0
M  V30 13373 O 1315.68 -0.398097 -1.72465 0
M  V30 13374 C 1312.81 -1.06639 -3.26317 0
M  V30 13375 C 1311.89 -2.21981 -3.61366 0
M  V30 13376 N 1312.28 -3.47302 -3.67716 0
M  V30 13377 C 1310.58 -2.13767 -3.91433 0
M  V30 13378 C 1311.28 -4.2326 -3.99031 0
M  V30 13379 N 1310.26 -3.52211 -4.14063 0
M  V30 13380 H 1314.06 -2.22318 -1.92229 0
M  V30 13381 H 1311.58 -1.29191 -0.98404 0
M  V30 13382 H 1313.57 -0.982292 -4.05162 0
M  V30 13383 H 1312.23 -0.126129 -3.24455 0
M  V30 13384 H 1313.24 -3.81424 -3.50337 0
M  V30 13385 H 1309.92 -1.27702 -3.9749 0
M  V30 13386 H 1311.31 -5.31643 -4.1086 0
M  V30 13387 N 1314.03 1.01274 -1.20754 0
M  V30 13388 C 1314.99 2.08056 -0.961528 0
M  V30 13389 C 1315.99 1.60671 0.0644461 0
M  V30 13390 O 1317.18 1.73349 -0.172022 0
M  V30 13391 C 1314.32 3.37938 -0.448381 0
M  V30 13392 H 1315.51 2.31314 -1.90877 0
M  V30 13393 H 1313.06 1.18133 -1.02344 0
M  V30 13394 H 1313.8 3.20357 0.504144 0
M  V30 13395 H 1313.58 3.73659 -1.18833 0
M  V30 13396 H 1315.07 4.16551 -0.295876 0
M  V30 13397 N 1315.51 1.01404 1.20644 0
M  V30 13398 C 1316.93 0.728446 1.42006 0
M  V30 13399 C 1317.13 -0.692894 1.89212 0
M  V30 13400 O 1316.18 -1.46101 2.05939 0
M  V30 13401 C 1317.49 1.75198 2.44389 0
M  V30 13402 C 1319.04 1.76983 2.58159 0
M  V30 13403 C 1319.52 2.78256 3.63782 0
M  V30 13404 N 1321.01 2.7698 3.71263 0
M  V30 13405 C 1321.74 3.51999 4.52641 0
M  V30 13406 N 1321.24 4.36687 5.37844 0
M  V30 13407 N 1323.03 3.40608 4.47149 0
M  V30 13408 H 1315.18 1.93168 0.883172 0
M  V30 13409 H 1317.45 0.834287 0.450187 0
M  V30 13410 H 1317.15 2.77013 2.16695 0
M  V30 13411 H 1317.03 1.56203 3.43337 0
M  V30 13412 H 1319.41 0.758551 2.85184 0
M  V30 13413 H 1319.49 2.00051 1.59415 0
M  V30 13414 H 1319.14 3.79546 3.37501 0
M  V30 13415 H 1319.07 2.5245 4.62143 0
M  V30 13416 H 1321.56 2.15546 3.104 0
M  V30 13417 H 1321.87 4.90703 5.97018 0
M  V30 13418 H 1320.22 4.40766 5.37355 0
M  V30 13419 H 1323.41 2.73872 3.79621 0
M  V30 13420 H 1323.58 3.99327 5.10335 0
M  V30 13421 N 1316.99 -1.36373 0.789944 0
M  V30 13422 C 1317.93 -2.30043 0.186798 0
M  V30 13423 C 1318.9 -1.52002 -0.669663 0
M  V30 13424 O 1320.09 -1.80506 -0.618232 0
M  V30 13425 C 1317.23 -3.38494 -0.671994 0
M  V30 13426 C 1316.34 -4.31522 0.203067 0
M  V30 13427 C 1315.48 -5.27057 -0.662148 0
M  V30 13428 C 1314.52 -6.11725 0.214335 0
M  V30 13429 N 1313.65 -6.99446 -0.609892 0
M  V30 13430 H 1318.49 -2.81038 0.991048 0
M  V30 13431 H 1316.03 -1.38331 0.500288 0
M  V30 13432 H 1317.99 -4.0002 -1.1849 0
M  V30 13433 H 1316.62 -2.88818 -1.44167 0
M  V30 13434 H 1315.67 -3.71146 0.833945 0
M  V30 13435 H 1316.98 -4.91005 0.878389 0
M  V30 13436 H 1316.14 -5.93875 -1.24084 0
M  V30 13437 H 1314.88 -4.6803 -1.37109 0
M  V30 13438 H 1313.88 -5.43868 0.805426 0
M  V30 13439 H 1315.11 -6.72827 0.92089 0
M  V30 13440 H 1313.05 -6.42927 -1.30312 0
M  V30 13441 H 1312.97 -7.56 0.00773786 0
M  V30 13442 H 1314.24 -7.70633 -1.1724 0
M  V30 13443 N 1318.47 -0.542005 -1.47987 0
M  V30 13444 C 1319.88 -0.200691 -1.58333 0
M  V30 13445 C 1320.08 1.29643 -1.54256 0
M  V30 13446 O 1319.14 2.07556 -1.43794 0
M  V30 13447 C 1320.45 -0.813878 -2.89476 0
M  V30 13448 C 1322 -0.783711 -3.0303 0
M  V30 13449 C 1322.47 -1.37569 -4.36851 0
M  V30 13450 N 1323.96 -1.33819 -4.43449 0
M  V30 13451 C 1324.7 -1.76602 -5.45527 0
M  V30 13452 N 1324.2 -2.27169 -6.54497 0
M  V30 13453 N 1325.99 -1.67765 -5.3648 0
M  V30 13454 H 1318.14 -1.51488 -1.4888 0
M  V30 13455 H 1320.4 -0.630835 -0.707638 0
M  V30 13456 H 1320.11 -1.86544 -2.98151 0
M  V30 13457 H 1319.98 -0.297978 -3.76021 0
M  V30 13458 H 1322.37 0.259118 -2.9396 0
M  V30 13459 H 1322.45 -1.33721 -2.18065 0
M  V30 13460 H 1322.09 -2.41751 -4.46675 0
M  V30 13461 H 1322.02 -0.797769 -5.20522 0
M  V30 13462 H 1324.52 -0.968147 -3.65288 0
M  V30 13463 H 1324.83 -2.57777 -7.2854 0
M  V30 13464 H 1323.17 -2.31171 -6.55427 0
M  V30 13465 H 1326.36 -1.28048 -4.50246 0
M  V30 13466 H 1326.54 -2.01426 -6.15899 0
M  V30 13467 N 1319.94 1.55134 -0.277709 0
M  V30 13468 C 1321.36 1.59417 0.0763615 0
M  V30 13469 C 1321.56 1.29491 1.54384 0
M  V30 13470 O 1320.62 1.05703 2.2931 0
M  V30 13471 C 1321.93 2.99194 -0.300607 0
M  V30 13472 C 1323.48 3.1202 -0.247438 0
M  V30 13473 C 1323.95 4.54068 -0.598884 0
M  V30 13474 N 1325.44 4.59917 -0.550534 0
M  V30 13475 C 1326.18 5.67859 -0.795235 0
M  V30 13476 N 1325.67 6.83936 -1.10469 0
M  V30 13477 N 1327.47 5.5742 -0.723859 0
M  V30 13478 H 1319.62 1.72851 -1.23435 0
M  V30 13479 H 1321.88 0.806137 -0.498846 0
M  V30 13480 H 1321.59 3.25937 -1.32129 0
M  V30 13481 H 1321.46 3.75504 0.35729 0
M  V30 13482 H 1323.85 2.8504 0.763959 0
M  V30 13483 H 1323.93 2.37917 -0.939629 0
M  V30 13484 H 1323.57 4.81774 -1.60798 0
M  V30 13485 H 1323.5 5.26474 0.115126 0
M  V30 13486 H 1325.99 3.76531 -0.321341 0
M  V30 13487 H 1326.31 7.62159 -1.278 0
M  V30 13488 H 1324.65 6.85545 -1.14249 0
M  V30 13489 H 1327.84 4.65613 -0.481925 0
M  V30 13490 H 1328.02 6.41465 -0.917944 0
M  V30 13491 N 1321.42 0.00503138 1.57599 0
M  V30 13492 C 1322.33 -1.00097 2.12174 0
M  V30 13493 C 1323.35 -1.37353 1.06818 0
M  V30 13494 O 1324.52 -1.45984 1.38747 0
M  V30 13495 C 1321.59 -2.27252 2.61835 0
M  V30 13496 C 1320.65 -1.96262 3.81811 0
M  V30 13497 C 1319.88 -3.17355 4.29094 0
M  V30 13498 O 1320.11 -4.2921 3.75679 0
M  V30 13499 O 1319.04 -3.01059 5.21198 0
M  V30 13500 H 1322.87 -0.567024 2.9836 0
M  V30 13501 H 1320.45 -0.214109 1.47858 0
M  V30 13502 H 1322.33 -3.01944 2.93952 0
M  V30 13503 H 1321.01 -2.69875 1.78744 0
M  V30 13504 H 1319.91 -1.19031 3.54658 0
M  V30 13505 H 1321.25 -1.58473 4.65991 0
M  V30 13506 N 1322.9 -1.55308 -0.267798 0
M  V30 13507 C 1323.85 -1.88544 -1.33115 0
M  V30 13508 C 1324.82 -0.737465 -1.48831 0
M  V30 13509 O 1326 -0.989215 -1.63154 0
M  V30 13510 C 1323.14 -2.1674 -2.68547 0
M  V30 13511 C 1322.25 -3.44234 -2.61011 0
M  V30 13512 C 1321.39 -3.62104 -3.88657 0
M  V30 13513 C 1320.43 -4.83272 -3.75652 0
M  V30 13514 N 1319.57 -4.97772 -4.95144 0
M  V30 13515 H 1324.41 -2.79237 -1.04071 0
M  V30 13516 H 1321.94 -1.38245 -0.502677 0
M  V30 13517 H 1323.9 -2.31088 -3.47353 0
M  V30 13518 H 1322.53 -1.29276 -2.95783 0
M  V30 13519 H 1321.58 -3.3833 -1.73887 0
M  V30 13520 H 1322.89 -4.33177 -2.47303 0
M  V30 13521 H 1322.05 -3.76298 -4.75904 0
M  V30 13522 H 1320.79 -2.71356 -4.05238 0
M  V30 13523 H 1319.79 -4.69076 -2.86788 0
M  V30 13524 H 1321.02 -5.75461 -3.60585 0
M  V30 13525 H 1318.96 -4.09956 -5.12125 0
M  V30 13526 H 1318.88 -5.80769 -4.83987 0
M  V30 13527 H 1320.15 -5.16357 -5.83949 0
M  V30 13528 N 1324.38 0.532545 -1.4833 0
M  V30 13529 C 1325.34 1.61955 -1.62183 0
M  V30 13530 C 1326.34 1.52982 -0.495281 0
M  V30 13531 O 1327.53 1.56698 -0.761005 0
M  V30 13532 C 1324.66 3.0157 -1.58961 0
M  V30 13533 H 1325.86 1.51013 -2.59105 0
M  V30 13534 H 1323.41 0.754405 -1.36888 0
M  V30 13535 H 1324.14 3.18021 -0.635069 0
M  V30 13536 H 1323.93 3.09491 -2.40744 0
M  V30 13537 H 1325.42 3.80604 -1.71843 0
M  V30 13538 N 1325.86 1.36875 0.78122 0
M  V30 13539 C 1327.1 1.30886 1.53466 0
M  V30 13540 C 1327.42 -0.107218 1.95306 0
M  V30 13541 O 1328.62 -0.289525 2.69952 0
M  V30 13542 C 1327.08 2.29688 2.77076 0
M  V30 13543 C 1326.69 3.76775 2.42373 0
M  V30 13544 C 1328.43 2.32692 3.55042 0
M  V30 13545 C 1326.34 4.67332 3.62428 0
M  V30 13546 H 1325.27 0.486408 0.576128 0
M  V30 13547 H 1327.92 1.62283 0.856529 0
M  V30 13548 H 1326.3 1.91296 3.4673 0
M  V30 13549 H 1327.48 4.2395 1.80563 0
M  V30 13550 H 1325.79 3.76625 1.77602 0
M  V30 13551 H 1328.39 2.97556 4.44257 0
M  V30 13552 H 1328.73 1.33779 3.94219 0
M  V30 13553 H 1329.26 2.69743 2.92375 0
M  V30 13554 H 1326 5.67339 3.2834 0
M  V30 13555 H 1325.52 4.24868 4.23376 0
M  V30 13556 H 1327.2 4.84005 4.29358 0
M  V30 13557 N 1327.33 -1.00632 1.21289 0
M  V30 13558 C 1328.58 -1.74044 1.02728 0
M  V30 13559 C 1328.9 -1.89963 -0.440351 0
M  V30 13560 O 1328.17 -1.44958 -1.31772 0
M  V30 13561 H 1326.75 -0.644813 0.377127 0
M  V30 13562 H 1329.41 -1.21272 1.52575 0
M  V30 13563 H 1328.51 -2.74011 1.49413 0
M  V30 13564 N 1328.81 -1.02043 -1.20104 0
M  V30 13565 C 1329.72 -0.603724 -2.26699 0
M  V30 13566 C 1330.74 0.360558 -1.70223 0
M  V30 13567 O 1331.91 0.220552 -2.00189 0
M  V30 13568 C 1328.98 0.0475988 -3.46667 0
M  V30 13569 C 1328.04 -0.963111 -4.18357 0
M  V30 13570 C 1327.27 -0.342775 -5.32598 0
M  V30 13571 O 1327.5 0.856509 -5.63933 0
M  V30 13572 O 1326.43 -1.06141 -5.92467 0
M  V30 13573 H 1330.26 -1.49125 -2.64566 0
M  V30 13574 H 1327.84 -0.790134 -1.26796 0
M  V30 13575 H 1329.72 0.411177 -4.19389 0
M  V30 13576 H 1328.4 0.909266 -3.10667 0
M  V30 13577 H 1327.3 -1.37813 -3.47791 0
M  V30 13578 H 1328.64 -1.79487 -4.58307 0
M  V30 13579 N 1330.29 1.35952 -0.797165 0
M  V30 13580 C 1331.54 1.98639 -0.372405 0
M  V30 13581 C 1331.86 1.63571 1.06158 0
M  V30 13582 O 1331.13 0.913516 1.73297 0
M  V30 13583 H 1329.71 0.734753 -0.13471 0
M  V30 13584 H 1332.37 1.66022 -1.02092 0
M  V30 13585 H 1331.47 3.08533 -0.47049 0
M  V30 13586 N 1331.77 0.549846 1.47697 0
M  V30 13587 C 1333.18 0.209085 1.58225 0
M  V30 13588 C 1333.38 -1.28823 1.54941 0
M  V30 13589 O 1332.44 -2.0679 1.44893 0
M  V30 13590 C 1333.75 0.829219 2.89041 0
M  V30 13591 C 1335.3 0.79977 3.0261 0
M  V30 13592 C 1335.78 1.39884 4.36115 0
M  V30 13593 N 1337.27 1.36169 4.42733 0
M  V30 13594 C 1338 1.79492 5.44583 0
M  V30 13595 N 1337.5 2.30637 6.53283 0
M  V30 13596 N 1339.29 1.70608 5.35583 0
M  V30 13597 H 1331.44 1.52275 1.48074 0
M  V30 13598 H 1333.71 0.634579 0.704283 0
M  V30 13599 H 1333.41 1.88122 2.97158 0
M  V30 13600 H 1333.29 0.317916 3.75858 0
M  V30 13601 H 1335.67 -0.243525 2.94093 0
M  V30 13602 H 1335.75 1.34875 2.17353 0
M  V30 13603 H 1335.4 2.44116 4.45387 0
M  V30 13604 H 1335.33 0.825362 5.20092 0
M  V30 13605 H 1337.82 0.987505 3.64769 0
M  V30 13606 H 1338.13 2.61637 7.27163 0
M  V30 13607 H 1336.48 2.34643 6.54192 0
M  V30 13608 H 1339.67 1.30434 4.4956 0
M  V30 13609 H 1339.84 2.0469 6.14822 0
M  V30 13610 N 1333.25 -1.54984 0.285932 0
M  V30 13611 C 1334.49 -2.00126 -0.328223 0
M  V30 13612 C 1334.83 -1.17409 -1.54689 0
M  V30 13613 O 1334.1 -0.246806 -1.92928 0
M  V30 13614 C 1334.38 -3.53236 -0.699733 0
M  V30 13615 C 1334.24 -4.46702 0.527029 0
M  V30 13616 C 1335.56 -4.12572 -1.53206 0
M  V30 13617 H 1332.67 -0.727521 -0.117825 0
M  V30 13618 H 1335.32 -1.85848 0.395032 0
M  V30 13619 H 1333.47 -3.65534 -1.31594 0
M  V30 13620 H 1335.14 -4.46332 1.16557 0
M  V30 13621 H 1333.38 -4.17917 1.1631 0
M  V30 13622 H 1334.05 -5.51549 0.223165 0
M  V30 13623 H 1336.53 -4.03618 -1.01154 0
M  V30 13624 H 1335.4 -5.19891 -1.7608 0
M  V30 13625 H 1335.67 -3.63487 -2.51654 0
M  V30 13626 N 1334.72 -0.0133892 -1.57594 0
M  V30 13627 C 1335.97 0.669624 -1.91426 0
M  V30 13628 C 1336.3 1.72675 -0.888656 0
M  V30 13629 O 1335.58 1.94288 0.0908138 0
M  V30 13630 C 1335.86 1.30051 -3.35796 0
M  V30 13631 C 1335.71 0.254021 -4.49082 0
M  V30 13632 C 1337.03 2.22297 -3.79832 0
M  V30 13633 H 1334.15 0.241958 -0.69615 0
M  V30 13634 H 1336.79 -0.0674278 -1.8988 0
M  V30 13635 H 1334.94 1.92871 -3.37243 0
M  V30 13636 H 1336.62 -0.375524 -4.59769 0
M  V30 13637 H 1334.86 -0.422267 -4.3174 0
M  V30 13638 H 1335.53 0.734756 -5.47088 0
M  V30 13639 H 1338.01 1.69481 -3.8002 0
M  V30 13640 H 1336.88 2.634 -4.81572 0
M  V30 13641 H 1337.14 3.10764 -3.14449 0
M  V30 13642 N 1336.2 1.55448 0.259558 0
M  V30 13643 C 1337.43 1.80465 1.00577 0
M  V30 13644 C 1337.84 0.585001 1.79929 0
M  V30 13645 O 1337.18 -0.455641 1.7796 0
M  V30 13646 C 1337.25 2.98634 2.00146 0
M  V30 13647 C 1336.91 4.35154 1.39607 0
M  V30 13648 C 1337.91 5.13631 0.804923 0
M  V30 13649 C 1335.59 4.81833 1.41923 0
M  V30 13650 C 1337.59 6.36929 0.245007 0
M  V30 13651 C 1335.27 6.05083 0.855458 0
M  V30 13652 C 1336.27 6.82469 0.269359 0
M  V30 13653 O 1335.96 8.03392 -0.285743 0
M  V30 13654 H 1335.69 0.604693 0.302196 0
M  V30 13655 H 1338.24 2.0332 0.291599 0
M  V30 13656 H 1336.47 2.71504 2.75359 0
M  V30 13657 H 1338.16 3.10855 2.61006 0
M  V30 13658 H 1338.93 4.78693 0.779625 0
M  V30 13659 H 1334.81 4.21599 1.86481 0
M  V30 13660 H 1338.35 6.97274 -0.213098 0
M  V30 13661 H 1334.25 6.395 0.878041 0
M  V30 13662 H 1335.02 8.1831 -0.17639 0
M  V30 13663 N 1337.68 -0.524672 1.4861 0
M  V30 13664 C 1338.93 -1.27671 1.5615 0
M  V30 13665 C 1339.24 -1.94088 0.242709 0
M  V30 13666 O 1340.45 -2.70789 0.196407 0
M  V30 13667 C 1338.9 -2.31686 2.75408 0
M  V30 13668 C 1338.51 -1.71315 4.13951 0
M  V30 13669 C 1340.26 -3.07867 2.92264 0
M  V30 13670 C 1338.16 -2.73302 5.24462 0
M  V30 13671 H 1337.09 -0.480177 0.581332 0
M  V30 13672 H 1339.74 -0.553473 1.74954 0
M  V30 13673 H 1338.13 -3.07069 2.50049 0
M  V30 13674 H 1339.3 -1.02085 4.4935 0
M  V30 13675 H 1337.62 -1.07608 4.02255 0
M  V30 13676 H 1340.21 -3.84088 3.71995 0
M  V30 13677 H 1340.56 -3.64052 2.01921 0
M  V30 13678 H 1341.09 -2.39599 3.17549 0
M  V30 13679 H 1337.83 -2.21929 6.16788 0
M  V30 13680 H 1337.35 -3.40843 4.93544 0
M  V30 13681 H 1339.03 -3.36186 5.528 0
M  V30 13682 N 1339.16 -1.37287 -0.77395 0
M  V30 13683 C 1340.09 -1.28746 -1.89624 0
M  V30 13684 C 1341.1 -0.203715 -1.6152 0
M  V30 13685 O 1342.29 -0.459684 -1.72479 0
M  V30 13686 C 1339.39 -0.967342 -3.24801 0
M  V30 13687 C 1338.57 -2.1561 -3.80567 0
M  V30 13688 C 1337.62 -1.80661 -4.94215 0
M  V30 13689 O 1336.65 -2.5293 -5.09917 0
M  V30 13690 N 1337.85 -0.749424 -5.75642 0
M  V30 13691 H 1340.62 -2.25447 -1.97468 0
M  V30 13692 H 1338.18 -1.30883 -0.952956 0
M  V30 13693 H 1340.17 -0.714421 -3.98344 0
M  V30 13694 H 1338.74 -0.0889573 -3.12473 0
M  V30 13695 H 1337.96 -2.57091 -2.98828 0
M  V30 13696 H 1339.25 -2.94993 -4.14556 0
M  V30 13697 H 1338.65 -0.149673 -5.65502 0
M  V30 13698 H 1337.2 -0.556358 -6.49421 0
M  V30 13699 N 1340.64 0.999871 -1.21821 0
M  V30 13700 C 1341.58 2.10985 -0.979183 0
M  V30 13701 C 1342.58 1.69232 0.0753287 0
M  V30 13702 O 1343.78 1.79837 -0.0765083 0
M  V30 13703 H 1340.16 0.689819 -0.299421 0
M  V30 13704 H 1342.13 2.28322 -1.92124 0
M  V30 13705 C 1340.88 3.43062 -0.56602 0
M  V30 13706 H 1340.2 3.75627 -1.36909 0
M  V30 13707 H 1341.64 4.2173 -0.43813 0
M  V30 13708 C 1340.1 3.29036 0.723647 0
M  V30 13709 O 1340.63 3.60214 1.77788 0
M  V30 13710 N 1338.84 2.82237 0.692126 0
M  V30 13711 H 1338.38 2.57064 -0.166082 0
M  V30 13712 H 1338.34 2.73235 1.55532 0
M  V30 13713 N 1342.11 1.02678 1.19562 0
M  V30 13714 C 1343.04 0.626359 2.24942 0
M  V30 13715 C 1344.03 -0.363612 1.66168 0
M  V30 13716 O 1345.21 -0.246793 1.92625 0
M  V30 13717 C 1342.34 -0.0257912 3.4729 0
M  V30 13718 C 1341.29 0.886237 4.18724 0
M  V30 13719 C 1340.62 0.0993081 5.34608 0
M  V30 13720 C 1341.92 2.19901 4.73752 0
M  V30 13721 H 1343.61 1.50729 2.58691 0
M  V30 13722 H 1341.16 0.726195 1.24348 0
M  V30 13723 H 1343.11 -0.317545 4.20202 0
M  V30 13724 H 1341.84 -0.941511 3.12735 0
M  V30 13725 H 1340.5 1.16215 3.47692 0
M  V30 13726 H 1340.14 -0.81838 4.96298 0
M  V30 13727 H 1339.84 0.706776 5.83334 0
M  V30 13728 H 1341.37 -0.185754 6.10317 0
M  V30 13729 H 1342.78 1.96892 5.3843 0
M  V30 13730 H 1341.18 2.75821 5.32956 0
M  V30 13731 H 1342.25 2.85509 3.91934 0
M  V30 13732 N 1343.59 -1.35528 0.804364 0
M  V30 13733 C 1344.82 -2.03604 0.395013 0
M  V30 13734 C 1345.24 -1.60225 -0.985371 0
M  V30 13735 O 1344.6 -0.777844 -1.63766 0
M  V30 13736 C 1344.65 -3.57337 0.484011 0
M  V30 13737 O 1343.75 -4.09316 -0.503395 0
M  V30 13738 H 1343.09 -0.643089 0.165325 0
M  V30 13739 H 1345.62 -1.73171 1.08963 0
M  V30 13740 H 1345.63 -4.0647 0.353009 0
M  V30 13741 H 1344.31 -3.8826 1.49088 0
M  V30 13742 H 1342.89 -3.71412 -0.332817 0
M  V30 13743 N 1345.07 -0.557671 -1.47404 0
M  V30 13744 C 1346.3 -0.0366797 -2.07368 0
M  V30 13745 C 1346.72 1.2478 -1.40754 0
M  V30 13746 O 1346.08 1.74757 -0.48268 0
M  V30 13747 C 1346.13 0.141728 -3.60321 0
M  V30 13748 O 1345.23 1.20419 -3.94427 0
M  V30 13749 H 1344.57 -0.0515319 -0.661997 0
M  V30 13750 H 1347.1 -0.773485 -1.89416 0
M  V30 13751 H 1347.11 0.355787 -4.06446 0
M  V30 13752 H 1345.79 -0.796433 -4.08203 0
M  V30 13753 H 1344.36 0.970589 -3.60047 0
M  V30 13754 N 1346.55 1.54831 -0.294147 0
M  V30 13755 C 1347.83 1.92071 0.369902 0
M  V30 13756 C 1348.21 1.22061 1.72233 0
M  V30 13757 O 1347.55 0.353975 2.25742 0
M  V30 13758 C 1347.76 3.45524 0.49135 0
M  V30 13759 C 1349.11 4.17644 0.765411 0
M  V30 13760 O 1350.14 3.51521 0.575428 0
M  V30 13761 O 1349 5.34692 1.12992 0
M  V30 13762 H 1346.09 0.801033 0.20561 0
M  V30 13763 H 1348.64 1.66224 -0.341702 0
M  V30 13764 H 1347.41 3.88591 -0.459663 0
M  V30 13765 H 1347.03 3.77384 1.25169 0
M  V30 13766 N 1348.03 0.0217466 1.57585 0
M  V30 13767 C 1348.96 -0.997112 2.05263 0
M  V30 13768 C 1349.94 -1.32186 0.946873 0
M  V30 13769 O 1351.12 -1.43979 1.21665 0
M  V30 13770 C 1348.25 -2.3191 2.46851 0
M  V30 13771 C 1347.3 -2.14948 3.68375 0
M  V30 13772 S 1348.13 -1.45517 5.15349 0
M  V30 13773 C 1349.28 -2.79101 5.60226 0
M  V30 13774 H 1349.52 -0.591229 2.91362 0
M  V30 13775 H 1347.05 -0.189741 1.5323 0
M  V30 13776 H 1349.01 -3.07913 2.71477 0
M  V30 13777 H 1347.67 -2.69633 1.61112 0
M  V30 13778 H 1346.86 -3.12661 3.95296 0
M  V30 13779 H 1346.46 -1.47088 3.43862 0
M  V30 13780 H 1348.76 -3.75357 5.64015 0
M  V30 13781 H 1349.7 -2.56853 6.59873 0
M  V30 13782 H 1350.11 -2.84009 4.87851 0
M  V30 13783 N 1349.51 -1.55583 -0.251311 0
M  V30 13784 C 1350.73 -1.81597 -1.00186 0
M  V30 13785 C 1351.16 -0.598216 -1.78334 0
M  V30 13786 O 1350.51 0.452667 -1.75558 0
M  V30 13787 C 1350.56 -3.05301 -1.91895 0
M  V30 13788 O 1349.67 -2.81907 -3.01002 0
M  V30 13789 H 1349.01 -0.599578 -0.285311 0
M  V30 13790 H 1351.54 -2.02762 -0.273638 0
M  V30 13791 H 1351.55 -3.34616 -2.33444 0
M  V30 13792 H 1350.22 -3.93574 -1.34433 0
M  V30 13793 H 1348.8 -2.63747 -2.63613 0
M  V30 13794 N 1350.98 0.516783 -1.48886 0
M  V30 13795 C 1352.21 1.30103 -1.61518 0
M  V30 13796 C 1352.63 1.85996 -0.28055 0
M  V30 13797 O 1351.99 1.65075 0.749671 0
M  V30 13798 C 1352.04 2.41837 -2.67483 0
M  V30 13799 O 1351.14 3.45249 -2.25559 0
M  V30 13800 H 1350.48 0.384774 -0.541152 0
M  V30 13801 H 1353.01 0.620424 -1.94966 0
M  V30 13802 H 1353.02 2.87832 -2.89165 0
M  V30 13803 H 1351.7 2.00519 -3.64369 0
M  V30 13804 H 1350.28 3.05281 -2.14144 0
M  V30 13805 N 1352.46 1.37696 0.766659 0
M  V30 13806 C 1353.88 1.18607 1.06792 0
M  V30 13807 C 1354.08 0.0257195 2.01484 0
M  V30 13808 O 1353.13 -0.632608 2.44447 0
M  V30 13809 C 1354.45 2.50692 1.66054 0
M  V30 13810 C 1355.99 2.57259 1.78288 0
M  V30 13811 C 1356.47 3.89488 2.40963 0
M  V30 13812 N 1357.96 3.90957 2.48408 0
M  V30 13813 C 1358.7 4.90023 2.97767 0
M  V30 13814 N 1358.19 5.99485 3.4726 0
M  V30 13815 N 1359.98 4.77423 2.96688 0
M  V30 13816 H 1352.14 2.11951 0.138031 0
M  V30 13817 H 1354.4 0.939873 0.123863 0
M  V30 13818 H 1354.1 3.35989 1.03945 0
M  V30 13819 H 1353.98 2.68148 2.65286 0
M  V30 13820 H 1356.37 1.72366 2.39528 0
M  V30 13821 H 1356.45 2.43682 0.777981 0
M  V30 13822 H 1356.09 4.74797 1.8036 0
M  V30 13823 H 1356.02 4.0037 3.42069 0
M  V30 13824 H 1358.51 3.11888 2.13388 0
M  V30 13825 H 1358.82 6.71022 3.8334 0
M  V30 13826 H 1357.17 6.03123 3.45351 0
M  V30 13827 H 1360.36 3.91026 2.57325 0
M  V30 13828 H 1360.53 5.54783 3.34844 0
M  V30 13829 N 1353.94 -0.993397 1.22349 0
M  V30 13830 C 1354.85 -2.11771 1.00947 0
M  V30 13831 C 1355.87 -1.73949 -0.0420679 0
M  V30 13832 O 1357.04 -2.00837 0.150548 0
M  V30 13833 C 1354.11 -3.41654 0.589359 0
M  V30 13834 C 1353.17 -3.93579 1.71446 0
M  V30 13835 C 1352.4 -5.17264 1.3143 0
M  V30 13836 O 1352.62 -5.70074 0.192876 0
M  V30 13837 O 1351.56 -5.62929 2.13059 0
M  V30 13838 H 1355.38 -2.32708 1.95142 0
M  V30 13839 H 1352.97 -1.10144 1.00939 0
M  V30 13840 H 1354.85 -4.19813 0.365403 0
M  V30 13841 H 1353.53 -3.22077 -0.323738 0
M  V30 13842 H 1352.43 -3.16596 1.99294 0
M  V30 13843 H 1353.77 -4.17588 2.6054 0
M  V30 13844 N 1355.42 -1.03311 -1.19015 0
M  V30 13845 C 1356.35 -0.638279 -2.24607 0
M  V30 13846 C 1357.33 0.354795 -1.66359 0
M  V30 13847 O 1358.51 0.236574 -1.92754 0
M  V30 13848 C 1355.64 0.00737316 -3.47299 0
M  V30 13849 C 1354.6 -0.908431 -4.18248 0
M  V30 13850 C 1353.92 -0.127658 -5.34548 0
M  V30 13851 C 1355.22 -2.2241 -4.72579 0
M  V30 13852 H 1356.92 -1.52099 -2.57888 0
M  V30 13853 H 1354.46 -0.732779 -1.23961 0
M  V30 13854 H 1356.42 0.295256 -4.20364 0
M  V30 13855 H 1355.14 0.924912 -3.1323 0
M  V30 13856 H 1353.8 -1.18058 -3.47071 0
M  V30 13857 H 1353.45 0.792048 -4.96725 0
M  V30 13858 H 1353.15 -0.737702 -5.82951 0
M  V30 13859 H 1354.67 0.153385 -6.10407 0
M  V30 13860 H 1356.09 -1.99745 -5.37378 0
M  V30 13861 H 1354.48 -2.78644 -5.31486 0
M  V30 13862 H 1355.55 -2.87584 -3.90415 0
M  V30 13863 N 1356.9 1.35099 -0.81154 0
M  V30 13864 C 1357.84 2.29717 -0.223372 0
M  V30 13865 C 1358.81 1.53049 0.645396 0
M  V30 13866 O 1360 1.81467 0.589436 0
M  V30 13867 C 1357.14 3.3952 0.618057 0
M  V30 13868 C 1356.25 4.31145 -0.271693 0
M  V30 13869 C 1355.39 5.28044 0.578214 0
M  V30 13870 C 1354.42 6.11306 -0.311628 0
M  V30 13871 N 1353.56 7.00328 0.498539 0
M  V30 13872 H 1358.4 2.79426 -1.03563 0
M  V30 13873 H 1355.94 1.37518 -0.522231 0
M  V30 13874 H 1357.9 4.01854 1.12111 0
M  V30 13875 H 1356.53 2.91075 1.39554 0
M  V30 13876 H 1355.58 3.69773 -0.892885 0
M  V30 13877 H 1356.89 4.89545 -0.956392 0
M  V30 13878 H 1356.04 5.95774 1.1462 0
M  V30 13879 H 1354.78 4.70152 1.29646 0
M  V30 13880 H 1353.79 5.42518 -0.891849 0
M  V30 13881 H 1355.01 6.71277 -1.02781 0
M  V30 13882 H 1352.96 6.44919 1.20067 0
M  V30 13883 H 1352.88 7.55892 -0.12801 0
M  V30 13884 H 1354.14 7.72401 1.04965 0
M  V30 13885 N 1358.37 0.56548 1.47106 0
M  V30 13886 C 1359.79 0.225855 1.57994 0
M  V30 13887 C 1359.99 -1.27173 1.56299 0
M  V30 13888 O 1359.05 -2.05242 1.47078 0
M  V30 13889 C 1360.36 0.859829 2.88145 0
M  V30 13890 C 1361.91 0.831821 3.01744 0
M  V30 13891 C 1362.38 1.44502 4.34607 0
M  V30 13892 N 1363.87 1.40857 4.41263 0
M  V30 13893 C 1364.61 1.85258 5.42648 0
M  V30 13894 N 1364.1 2.37553 6.508 0
M  V30 13895 N 1365.9 1.76279 5.33744 0
M  V30 13896 H 1358.05 1.53837 1.46451 0
M  V30 13897 H 1360.31 0.642013 0.697512 0
M  V30 13898 H 1360.02 1.91264 2.95146 0
M  V30 13899 H 1359.89 0.357762 3.755 0
M  V30 13900 H 1362.28 -0.212319 2.94335 0
M  V30 13901 H 1362.36 1.37173 2.1591 0
M  V30 13902 H 1362 2.48827 4.42773 0
M  V30 13903 H 1361.93 0.880479 5.19187 0
M  V30 13904 H 1364.42 1.02614 3.63702 0
M  V30 13905 H 1364.74 2.69335 7.24347 0
M  V30 13906 H 1363.08 2.41569 6.51667 0
M  V30 13907 H 1366.27 1.35195 4.48152 0
M  V30 13908 H 1366.45 2.11199 6.12616 0
M  V30 13909 N 1359.85 -1.54672 0.302354 0
M  V30 13910 C 1361.27 -1.59519 -0.0509899 0
M  V30 13911 C 1361.47 -1.31931 -1.52304 0
M  V30 13912 O 1360.52 -1.09338 -2.27599 0
M  V30 13913 C 1361.84 -2.98678 0.348168 0
M  V30 13914 C 1363.39 -3.11587 0.297046 0
M  V30 13915 C 1363.86 -4.53057 0.671046 0
M  V30 13916 N 1365.35 -4.58983 0.623633 0
M  V30 13917 C 1366.09 -5.66522 0.885476 0
M  V30 13918 N 1365.58 -6.82092 1.21336 0
M  V30 13919 N 1367.38 -5.56198 0.812448 0
M  V30 13920 H 1359.53 -1.70865 1.2617 0
M  V30 13921 H 1361.79 -0.798099 0.511608 0
M  V30 13922 H 1361.5 -3.23794 1.37297 0
M  V30 13923 H 1361.37 -3.76025 -0.297505 0
M  V30 13924 H 1363.76 -2.86219 -0.718515 0
M  V30 13925 H 1363.84 -2.36392 0.977361 0
M  V30 13926 H 1363.48 -4.79155 1.68442 0
M  V30 13927 H 1363.41 -5.26591 -0.0313537 0
M  V30 13928 H 1365.9 -3.75972 0.381203 0
M  V30 13929 H 1366.22 -7.6003 1.39909 0
M  V30 13930 H 1364.56 -6.83641 1.25141 0
M  V30 13931 H 1367.75 -4.64787 0.555939 0
M  V30 13932 H 1367.92 -6.39924 1.01988 0
M  V30 13933 N 1361.33 -0.0301034 -1.57571 0
M  V30 13934 C 1362.58 0.648323 -1.91841 0
M  V30 13935 C 1362.91 1.72078 -0.906601 0
M  V30 13936 O 1362.16 1.95518 0.0843233 0
M  V30 13937 C 1362.46 1.30206 -3.32838 0
M  V30 13938 C 1362.13 0.359876 -4.49462 0
M  V30 13939 C 1360.79 0.100552 -4.81095 0
M  V30 13940 C 1363.14 -0.287048 -5.20409 0
M  V30 13941 C 1360.47 -0.813484 -5.81033 0
M  V30 13942 C 1362.82 -1.18914 -6.21323 0
M  V30 13943 C 1361.48 -1.45735 -6.51397 0
M  V30 13944 H 1360.75 0.237238 -0.701997 0
M  V30 13945 H 1363.4 -0.0920804 -1.91278 0
M  V30 13946 H 1361.71 2.11724 -3.29667 0
M  V30 13947 H 1363.4 1.83356 -3.56625 0
M  V30 13948 H 1359.99 0.572172 -4.24764 0
M  V30 13949 H 1364.18 -0.0997611 -4.962 0
M  V30 13950 H 1359.43 -1.02897 -6.02679 0
M  V30 13951 H 1363.61 -1.69661 -6.75417 0
M  V30 13952 H 1361.23 -2.16727 -7.28652 0
M  V30 13953 N 1362.81 1.55714 0.243056 0
M  V30 13954 C 1363.72 1.93777 1.32241 0
M  V30 13955 C 1364.73 0.838709 1.52452 0
M  V30 13956 O 1365.91 1.14044 1.66 0
M  V30 13957 C 1362.98 2.22808 2.65627 0
M  V30 13958 C 1362.04 3.46166 2.53904 0
M  V30 13959 C 1361.27 3.73802 3.8093 0
M  V30 13960 O 1361.49 3.0345 4.82985 0
M  V30 13961 O 1360.43 4.67323 3.79332 0
M  V30 13962 H 1364.25 2.85718 1.02951 0
M  V30 13963 H 1361.84 1.42646 0.444135 0
M  V30 13964 H 1363.72 2.4277 3.44442 0
M  V30 13965 H 1362.39 1.34045 2.94642 0
M  V30 13966 H 1361.3 3.31506 1.73362 0
M  V30 13967 H 1362.63 4.35244 2.29834 0
M  V30 13968 N 1364.29 -0.50888 1.49158 0
M  V30 13969 C 1365.53 -1.26537 1.58481 0
M  V30 13970 C 1365.87 -1.92353 0.267168 0
M  V30 13971 O 1365.14 -1.80336 -0.728639 0
M  V30 13972 C 1365.42 -2.33846 2.73839 0
M  V30 13973 C 1365.28 -1.72582 4.15374 0
M  V30 13974 C 1366.6 -3.35467 2.84868 0
M  V30 13975 H 1363.71 -0.458697 0.576859 0
M  V30 13976 H 1366.36 -0.564728 1.81413 0
M  V30 13977 H 1364.51 -2.93605 2.54417 0
M  V30 13978 H 1366.18 -1.16711 4.46292 0
M  V30 13979 H 1364.42 -1.03025 4.21389 0
M  V30 13980 H 1365.09 -2.5038 4.91949 0
M  V30 13981 H 1367.57 -2.85689 3.02524 0
M  V30 13982 H 1366.44 -4.07922 3.67275 0
M  V30 13983 H 1366.71 -3.97313 1.93894 0
M  V30 13984 N 1365.76 -1.381 -0.759346 0
M  V30 13985 C 1367.01 -1.33992 -1.5183 0
M  V30 13986 C 1367.34 0.0718172 -1.94367 0
M  V30 13987 O 1366.59 1.0477 -1.65293 0
M  V30 13988 C 1366.89 -2.23636 -2.78786 0
M  V30 13989 C 1366.56 -3.71703 -2.5524 0
M  V30 13990 C 1365.22 -4.12053 -2.48528 0
M  V30 13991 C 1367.57 -4.65455 -2.34523 0
M  V30 13992 C 1364.9 -5.44252 -2.19105 0
M  V30 13993 C 1367.25 -5.97905 -2.06622 0
M  V30 13994 C 1365.92 -6.37345 -1.98362 0
M  V30 13995 H 1365.19 -0.490311 -0.555587 0
M  V30 13996 H 1367.83 -1.70411 -0.873637 0
M  V30 13997 H 1366.14 -1.80253 -3.47874 0
M  V30 13998 H 1367.84 -2.17764 -3.36719 0
M  V30 13999 H 1364.43 -3.3971 -2.61333 0
M  V30 14000 H 1368.61 -4.35132 -2.38691 0
M  V30 14001 H 1363.87 -5.73758 -2.11214 0
M  V30 14002 H 1368.04 -6.70095 -1.89594 0
M  V30 14003 H 1365.67 -7.39706 -1.75328 0
M  V30 14004 N 1367.24 0.986894 -1.22875 0
M  V30 14005 C 1368.49 1.72388 -1.05484 0
M  V30 14006 C 1368.81 1.90639 0.410074 0
M  V30 14007 O 1368.08 1.47036 1.2945 0
M  V30 14008 H 1366.66 0.638732 -0.387337 0
M  V30 14009 H 1369.32 1.18829 -1.54485 0
M  V30 14010 H 1368.42 2.71599 -1.53754 0
M  V30 14011 N 1368.72 1.0394 1.18466 0
M  V30 14012 C 1369.63 0.639714 2.2571 0
M  V30 14013 C 1370.65 -0.333431 1.70775 0
M  V30 14014 O 1371.82 -0.188676 2.00514 0
M  V30 14015 C 1368.89 0.007559 3.46699 0
M  V30 14016 C 1367.95 1.02955 4.16772 0
M  V30 14017 C 1367.18 0.427464 5.31985 0
M  V30 14018 O 1367.4 -0.766684 5.65224 0
M  V30 14019 O 1366.34 1.15553 5.90704 0
M  V30 14020 H 1370.16 1.53316 2.6216 0
M  V30 14021 H 1367.75 0.810206 1.25523 0
M  V30 14022 H 1369.63 -0.344404 4.1999 0
M  V30 14023 H 1368.31 -0.859727 3.12074 0
M  V30 14024 H 1367.21 1.43328 3.45554 0
M  V30 14025 H 1368.55 1.86756 4.55393 0
M  V30 14026 N 1370.2 -1.34667 0.818693 0
M  V30 14027 C 1371.45 -1.9767 0.401184 0
M  V30 14028 C 1371.76 -1.65644 -1.04027 0
M  V30 14029 O 1372.97 -2.22104 -1.56148 0
M  V30 14030 C 1371.42 -3.53677 0.666398 0
M  V30 14031 C 1371.03 -3.94601 2.12119 0
M  V30 14032 C 1372.77 -4.23331 0.314845 0
M  V30 14033 C 1370.68 -5.43502 2.33151 0
M  V30 14034 H 1369.61 -0.739675 0.146275 0
M  V30 14035 H 1372.26 -1.53568 1.00445 0
M  V30 14036 H 1370.64 -3.95999 -0.00698307 0
M  V30 14037 H 1371.82 -3.63396 2.83338 0
M  V30 14038 H 1370.13 -3.37871 2.43377 0
M  V30 14039 H 1372.73 -5.32804 0.449881 0
M  V30 14040 H 1373.07 -4.09666 -0.740235 0
M  V30 14041 H 1373.61 -3.8647 0.942631 0
M  V30 14042 H 1370.35 -5.62148 3.37149 0
M  V30 14043 H 1369.87 -5.76236 1.66471 0
M  V30 14044 H 1371.54 -6.10127 2.153 0
M  V30 14045 N 1371.68 -0.573274 -1.46804 0
M  V30 14046 C 1372.59 0.168081 -2.33997 0
M  V30 14047 C 1373.6 0.895652 -1.49178 0
M  V30 14048 O 1374.78 0.860951 -1.8207 0
M  V30 14049 C 1371.84 1.17483 -3.26188 0
M  V30 14050 C 1370.9 0.452956 -4.26904 0
M  V30 14051 C 1370.14 1.41175 -5.1469 0
M  V30 14052 O 1370.36 2.64767 -5.05227 0
M  V30 14053 O 1369.29 0.927472 -5.94711 0
M  V30 14054 H 1373.12 -0.547576 -2.98723 0
M  V30 14055 H 1370.71 -0.333747 -1.45624 0
M  V30 14056 H 1372.59 1.75557 -3.8309 0
M  V30 14057 H 1371.26 1.87213 -2.6407 0
M  V30 14058 H 1370.17 -0.169383 -3.73716 0
M  V30 14059 H 1371.5 -0.203186 -4.9178 0
M  V30 14060 N 1373.15 1.5451 -0.310553 0
M  V30 14061 C 1374.06 2.27557 0.570518 0
M  V30 14062 C 1375.08 1.31426 1.14032 0
M  V30 14063 O 1376.26 1.64423 1.16306 0
M  V30 14064 C 1373.32 3.00933 1.72163 0
M  V30 14065 C 1372.38 4.12623 1.18495 0
M  V30 14066 C 1371.62 4.8249 2.28121 0
M  V30 14067 O 1371.84 4.5178 3.48211 0
M  V30 14068 O 1370.77 5.69686 1.94273 0
M  V30 14069 H 1374.6 3.03692 -0.0223195 0
M  V30 14070 H 1372.18 1.49203 -0.0766821 0
M  V30 14071 H 1374.07 3.46925 2.39208 0
M  V30 14072 H 1372.74 2.27685 2.3009 0
M  V30 14073 H 1371.65 3.71008 0.479956 0
M  V30 14074 H 1372.98 4.87876 0.650994 0
M  V30 14075 N 1374.63 0.0384594 1.57553 0
M  V30 14076 C 1375.87 -0.642187 1.9405 0
M  V30 14077 C 1376.24 -1.68753 0.915779 0
M  V30 14078 O 1377.44 -2.42133 1.16726 0
M  V30 14079 C 1375.71 -1.23422 3.35413 0
M  V30 14080 S 1377.27 -1.93464 3.93849 0
M  V30 14081 H 1374.09 -0.211198 0.678908 0
M  V30 14082 H 1376.69 0.104358 1.95221 0
M  V30 14083 H 1375.39 -0.461112 4.07801 0
M  V30 14084 H 1374.92 -2.01787 3.37707 0
M  V30 14085 H 1376.94 -3.21401 3.78042 0
M  V30 14086 N 1376.11 -1.55841 -0.234795 0
M  V30 14087 C 1377.02 -1.94476 -1.31211 0
M  V30 14088 C 1378.04 -0.846782 -1.52005 0
M  V30 14089 O 1379.21 -1.14922 -1.65393 0
M  V30 14090 C 1376.28 -2.24213 -2.64442 0
M  V30 14091 C 1375.34 -3.47508 -2.52065 0
M  V30 14092 C 1374.57 -3.75817 -3.78942 0
M  V30 14093 O 1374.8 -3.06007 -4.81369 0
M  V30 14094 O 1373.73 -4.69328 -3.76848 0
M  V30 14095 H 1377.56 -2.8626 -1.01434 0
M  V30 14096 H 1375.14 -1.42879 -0.436563 0
M  V30 14097 H 1377.02 -2.44594 -3.4315 0
M  V30 14098 H 1375.7 -1.35605 -2.93927 0
M  V30 14099 H 1374.6 -3.32421 -1.71602 0
M  V30 14100 H 1375.94 -4.36457 -2.27523 0
M  V30 14101 N 1377.59 0.500963 -1.49426 0
M  V30 14102 C 1378.84 1.25694 -1.5915 0
M  V30 14103 C 1379.17 1.92209 -0.277365 0
M  V30 14104 O 1378.44 1.8072 0.719065 0
M  V30 14105 C 1378.73 2.32391 -2.75076 0
M  V30 14106 C 1378.58 1.70377 -4.16283 0
M  V30 14107 C 1379.9 3.33952 -2.86643 0
M  V30 14108 H 1377.02 0.455631 -0.579283 0
M  V30 14109 H 1379.66 0.555099 -1.8171 0
M  V30 14110 H 1377.81 2.92252 -2.55971 0
M  V30 14111 H 1379.48 1.14343 -4.46904 0
M  V30 14112 H 1377.72 1.00789 -4.21929 0
M  V30 14113 H 1378.4 2.47767 -4.9327 0
M  V30 14114 H 1380.87 2.84081 -3.04035 0
M  V30 14115 H 1379.75 4.05969 -3.69433 0
M  V30 14116 H 1380.01 3.96279 -1.95998 0
M  V30 14117 N 1379.07 1.38501 0.752011 0
M  V30 14118 C 1380 1.38577 1.87933 0
M  V30 14119 C 1380.98 0.251454 1.68231 0
M  V30 14120 O 1382.16 0.45477 1.888 0
M  V30 14121 C 1379.29 1.21164 3.25479 0
M  V30 14122 C 1378.25 2.31816 3.59785 0
M  V30 14123 C 1377.57 1.99508 4.96085 0
M  V30 14124 C 1378.87 3.74082 3.645 0
M  V30 14125 H 1380.57 2.32913 1.88127 0
M  V30 14126 H 1378.11 1.12113 0.903698 0
M  V30 14127 H 1380.07 1.19842 4.04 0
M  V30 14128 H 1378.79 0.232899 3.25769 0
M  V30 14129 H 1377.45 2.32327 2.83584 0
M  V30 14130 H 1377.1 1.00114 4.92936 0
M  V30 14131 H 1376.8 2.73617 5.20007 0
M  V30 14132 H 1378.32 1.99807 5.76983 0
M  V30 14133 H 1379.74 3.75593 4.33131 0
M  V30 14134 H 1378.13 4.47409 3.99931 0
M  V30 14135 H 1379.2 4.06284 2.64692 0
M  V30 14136 N 1380.55 -0.980364 1.23396 0
M  V30 14137 C 1381.77 -1.75689 1.09275 0
M  V30 14138 C 1382.19 -1.85418 -0.355773 0
M  V30 14139 O 1381.55 -1.33337 -1.24609 0
M  V30 14140 C 1381.6 -3.18378 1.71223 0
M  V30 14141 O 1381.32 -3.09154 3.10411 0
M  V30 14142 C 1382.82 -4.12425 1.62545 0
M  V30 14143 H 1380.04 -0.551354 0.382427 0
M  V30 14144 H 1382.58 -1.23169 1.63247 0
M  V30 14145 H 1380.74 -3.67925 1.21285 0
M  V30 14146 H 1381.15 -3.9898 3.40464 0
M  V30 14147 H 1382.63 -5.1025 2.10592 0
M  V30 14148 H 1383.1 -4.35296 0.584275 0
M  V30 14149 H 1383.71 -3.68782 2.1185 0
M  V30 14150 N 1382.02 -1.04567 -1.17913 0
M  V30 14151 C 1383.44 -0.76584 -1.40025 0
M  V30 14152 C 1383.64 0.642484 -1.90983 0
M  V30 14153 O 1382.7 1.40589 -2.0974 0
M  V30 14154 C 1384.01 -1.81616 -2.39658 0
M  V30 14155 C 1385.56 -1.83765 -2.53376 0
M  V30 14156 C 1386.03 -2.87803 -3.56277 0
M  V30 14157 N 1387.52 -2.86726 -3.63789 0
M  V30 14158 C 1388.26 -3.63876 -4.4315 0
M  V30 14159 N 1387.75 -4.50793 -5.26077 0
M  V30 14160 N 1389.55 -3.52344 -4.37962 0
M  V30 14161 H 1381.7 -1.95442 -0.831647 0
M  V30 14162 H 1383.96 -0.84593 -0.42791 0
M  V30 14163 H 1383.67 -2.8266 -2.09275 0
M  V30 14164 H 1383.54 -1.65251 -3.39075 0
M  V30 14165 H 1385.93 -0.833896 -2.83073 0
M  V30 14166 H 1386.01 -2.04208 -1.54055 0
M  V30 14167 H 1385.65 -3.88361 -3.2732 0
M  V30 14168 H 1385.58 -2.64614 -4.55288 0
M  V30 14169 H 1388.07 -2.237 -3.04576 0
M  V30 14170 H 1388.39 -5.0636 -5.83798 0
M  V30 14171 H 1386.73 -4.54858 -5.2548 0
M  V30 14172 H 1389.92 -2.8384 -3.72226 0
M  V30 14173 H 1390.1 -4.12718 -4.99568 0
M  V30 14174 N 1383.5 1.34231 -0.825823 0
M  V30 14175 C 1384.45 2.31378 -0.23809 0
M  V30 14176 C 1385.44 1.57537 0.622767 0
M  V30 14177 O 1386.65 1.72512 0.513783 0
M  V30 14178 H 1383.02 0.74974 -0.0582516 0
M  V30 14179 H 1385 2.78471 -1.07221 0
M  V30 14180 C 1383.74 3.42778 0.582969 0
M  V30 14181 H 1383.07 3.99739 -0.0701208 0
M  V30 14182 H 1384.51 4.12983 0.960266 0
M  V30 14183 C 1382.97 2.87486 1.75651 0
M  V30 14184 O 1383.5 2.82603 2.85479 0
M  V30 14185 N 1381.7 2.4427 1.57418 0
M  V30 14186 H 1381.25 2.48441 0.680792 0
M  V30 14187 H 1381.21 2.07626 2.36091 0
M  V30 14188 N 1384.98 0.581051 1.46498 0
M  V30 14189 C 1386.4 0.242599 1.57745 0
M  V30 14190 C 1386.6 -1.25508 1.57639 0
M  V30 14191 O 1385.65 -2.0367 1.49247 0
M  V30 14192 C 1386.96 0.890342 2.87217 0
M  V30 14193 C 1388.51 0.863778 3.00845 0
M  V30 14194 C 1388.99 1.49103 4.3305 0
M  V30 14195 N 1390.48 1.4553 4.39745 0
M  V30 14196 C 1391.21 1.91003 5.40653 0
M  V30 14197 N 1390.71 2.44442 6.48244 0
M  V30 14198 N 1392.5 1.8193 5.31844 0
M  V30 14199 H 1384.65 1.55382 1.44811 0
M  V30 14200 H 1386.92 0.649375 0.690664 0
M  V30 14201 H 1386.62 1.94383 2.93101 0
M  V30 14202 H 1386.5 0.397569 3.75099 0
M  V30 14203 H 1388.88 -0.181089 2.94544 0
M  V30 14204 H 1388.96 1.39455 2.14443 0
M  V30 14205 H 1388.61 2.53509 4.40109 0
M  V30 14206 H 1388.54 0.935496 5.18224 0
M  V30 14207 H 1391.03 1.06466 3.62593 0
M  V30 14208 H 1391.34 2.77002 7.2145 0
M  V30 14209 H 1389.69 2.48467 6.49068 0
M  V30 14210 H 1392.88 1.3994 4.46693 0
M  V30 14211 H 1393.05 2.17685 6.10342 0
M  V30 14212 N 1386.46 -1.54343 0.318742 0
M  V30 14213 C 1387.87 -1.59564 -0.034068 0
M  V30 14214 C 1388.07 -1.33539 -1.50896 0
M  V30 14215 O 1387.13 -1.11746 -2.26427 0
M  V30 14216 C 1388.44 -2.98291 0.379827 0
M  V30 14217 C 1389.99 -3.11255 0.330078 0
M  V30 14218 C 1390.47 -4.5232 0.719061 0
M  V30 14219 N 1391.96 -4.58295 0.67228 0
M  V30 14220 C 1392.69 -5.65551 0.945513 0
M  V30 14221 N 1392.19 -6.80767 1.28563 0
M  V30 14222 N 1393.98 -5.55305 0.871394 0
M  V30 14223 H 1386.13 -1.69518 1.27975 0
M  V30 14224 H 1388.39 -0.792627 0.520044 0
M  V30 14225 H 1388.1 -3.22319 1.40724 0
M  V30 14226 H 1387.97 -3.76319 -0.257606 0
M  V30 14227 H 1390.36 -2.86965 -0.688117 0
M  V30 14228 H 1390.44 -2.35342 1.00238 0
M  V30 14229 H 1390.09 -4.77342 1.73515 0
M  V30 14230 H 1390.02 -5.26594 0.0245001 0
M  V30 14231 H 1392.51 -3.75547 0.421059 0
M  V30 14232 H 1392.82 -7.58503 1.47963 0
M  V30 14233 H 1391.17 -6.82275 1.32385 0
M  V30 14234 H 1394.36 -4.64171 0.605205 0
M  V30 14235 H 1394.53 -6.38806 1.08769 0
M  V30 14236 N 1387.94 -0.0468143 -1.5753 0
M  V30 14237 C 1389.18 0.626699 -1.92138 0
M  V30 14238 C 1389.5 1.7164 -0.925463 0
M  V30 14239 O 1388.77 1.95876 0.0303531 0
M  V30 14240 H 1387.35 0.234479 -0.709245 0
M  V30 14241 H 1390.02 -0.0987892 -1.94649 0
M  V30 14242 H 1389.11 1.06811 -2.93254 0
M  V30 14243 N 1389.41 1.55964 0.226527 0
M  V30 14244 C 1390.32 1.95169 1.30178 0
M  V30 14245 C 1391.34 0.854831 1.51554 0
M  V30 14246 O 1392.52 1.15798 1.64781 0
M  V30 14247 C 1389.58 2.25612 2.63249 0
M  V30 14248 C 1388.64 3.4884 2.50219 0
M  V30 14249 C 1387.88 3.77822 3.76944 0
M  V30 14250 O 1388.1 3.08556 4.79739 0
M  V30 14251 O 1387.03 4.7132 3.74354 0
M  V30 14252 H 1390.86 2.86794 0.999145 0
M  V30 14253 H 1388.44 1.43109 0.42898 0
M  V30 14254 H 1390.33 2.4641 3.41848 0
M  V30 14255 H 1389 1.37162 2.93203 0
M  V30 14256 H 1387.91 3.33326 1.69836 0
M  V30 14257 H 1389.24 4.37657 2.25205 0
M  V30 14258 N 1390.89 -0.493031 1.4969 0
M  V30 14259 C 1391.84 -1.59367 1.66945 0
M  V30 14260 C 1392.81 -1.58049 0.510842 0
M  V30 14261 O 1393.99 -1.75915 0.738822 0
M  V30 14262 C 1391.13 -2.97472 1.74941 0
M  V30 14263 C 1390.25 -3.08745 3.02159 0
M  V30 14264 C 1389.38 -4.37632 3.01085 0
M  V30 14265 C 1388.42 -4.42567 4.22849 0
M  V30 14266 N 1387.56 -5.62892 4.19639 0
M  V30 14267 H 1392.4 -1.4396 2.6092 0
M  V30 14268 H 1389.94 -0.700297 1.29361 0
M  V30 14269 H 1391.89 -3.7753 1.77558 0
M  V30 14270 H 1390.52 -3.11564 0.844252 0
M  V30 14271 H 1389.58 -2.217 3.09117 0
M  V30 14272 H 1390.89 -3.08251 3.92151 0
M  V30 14273 H 1390.04 -5.26018 3.02309 0
M  V30 14274 H 1388.78 -4.40702 2.08885 0
M  V30 14275 H 1387.79 -3.52581 4.21861 0
M  V30 14276 H 1389.01 -4.41205 5.1625 0
M  V30 14277 H 1386.96 -5.6679 3.30281 0
M  V30 14278 H 1386.87 -5.64048 5.03374 0
M  V30 14279 H 1388.14 -6.53464 4.24977 0
M  V30 14280 N 1392.37 -1.38898 -0.744656 0
M  V30 14281 C 1393.6 -1.38647 -1.53169 0
M  V30 14282 C 1394.01 0.0233199 -1.89186 0
M  V30 14283 O 1393.35 1.00261 -1.53927 0
M  V30 14284 C 1393.41 -2.18615 -2.85391 0
M  V30 14285 C 1393.08 -3.67342 -2.71862 0
M  V30 14286 C 1394.07 -4.60638 -2.41057 0
M  V30 14287 C 1391.76 -4.10809 -2.89035 0
M  V30 14288 C 1393.75 -5.95383 -2.27592 0
M  V30 14289 C 1391.44 -5.45632 -2.7519 0
M  V30 14290 C 1392.44 -6.37733 -2.44512 0
M  V30 14291 O 1392.13 -7.70074 -2.30741 0
M  V30 14292 H 1391.86 -0.475741 -0.480257 0
M  V30 14293 H 1394.41 -1.8321 -0.928621 0
M  V30 14294 H 1392.64 -1.68784 -3.47921 0
M  V30 14295 H 1394.33 -2.1066 -3.46954 0
M  V30 14296 H 1395.1 -4.28359 -2.2745 0
M  V30 14297 H 1390.98 -3.39462 -3.11908 0
M  V30 14298 H 1394.52 -6.67237 -2.03569 0
M  V30 14299 H 1390.42 -5.77504 -2.88373 0
M  V30 14300 H 1391.19 -7.80694 -2.45885 0
M  V30 14301 N 1393.85 0.973806 -1.23914 0
M  V30 14302 C 1395.1 1.71259 -1.07307 0
M  V30 14303 C 1395.42 1.91064 0.389831 0
M  V30 14304 O 1394.69 1.48401 1.27883 0
M  V30 14305 H 1393.27 0.634588 -0.39409 0
M  V30 14306 H 1395.93 1.17184 -1.55737 0
M  V30 14307 H 1395.03 2.69953 -1.56626 0
M  V30 14308 N 1395.33 1.05191 1.17357 0
M  V30 14309 C 1396.57 0.761984 1.87617 0
M  V30 14310 C 1396.9 -0.710976 1.8104 0
M  V30 14311 O 1396.16 -1.53566 1.21309 0
M  V30 14312 C 1396.46 1.18779 3.37085 0
M  V30 14313 C 1396.12 2.66296 3.63864 0
M  V30 14314 C 1394.78 3.06594 3.70882 0
M  V30 14315 C 1397.14 3.61622 3.75339 0
M  V30 14316 C 1394.46 4.41081 3.86865 0
M  V30 14317 C 1396.82 4.95842 3.9284 0
M  V30 14318 C 1395.48 5.35793 3.98097 0
M  V30 14319 H 1394.75 0.27883 0.686538 0
M  V30 14320 H 1397.4 1.31899 1.38834 0
M  V30 14321 H 1395.7 0.549782 3.87923 0
M  V30 14322 H 1397.4 0.940667 3.89811 0
M  V30 14323 H 1393.99 2.34089 3.59027 0
M  V30 14324 H 1398.17 3.31628 3.69238 0
M  V30 14325 H 1393.43 4.71536 3.89183 0
M  V30 14326 H 1397.6 5.696 4.00661 0
M  V30 14327 H 1395.23 6.40009 4.10234 0
M  V30 14328 N 1396.8 -1.33791 0.83293 0
M  V30 14329 C 1398.05 -1.97233 0.422127 0
M  V30 14330 C 1398.37 -1.66738 -1.02264 0
M  V30 14331 O 1399.57 -2.23747 -1.53783 0
M  V30 14332 C 1398.03 -3.5295 0.703872 0
M  V30 14333 C 1397.64 -3.92329 2.16292 0
M  V30 14334 C 1399.38 -4.22973 0.359727 0
M  V30 14335 C 1397.29 -5.40999 2.38903 0
M  V30 14336 H 1396.22 -0.738082 0.154112 0
M  V30 14337 H 1398.87 -1.52494 1.02068 0
M  V30 14338 H 1397.25 -3.95985 0.0350184 0
M  V30 14339 H 1398.42 -3.6037 2.87176 0
M  V30 14340 H 1396.74 -3.35271 2.46947 0
M  V30 14341 H 1399.34 -5.32297 0.506366 0
M  V30 14342 H 1399.68 -4.10428 -0.696743 0
M  V30 14343 H 1400.21 -3.85449 0.983568 0
M  V30 14344 H 1396.95 -5.58541 3.43093 0
M  V30 14345 H 1396.47 -5.74438 1.72573 0
M  V30 14346 H 1398.15 -6.07809 2.2176 0
M  V30 14347 N 1398.28 -0.588812 -1.46187 0
M  V30 14348 C 1399.51 -0.0825301 -2.06735 0
M  V30 14349 C 1399.93 1.22507 -1.43658 0
M  V30 14350 O 1399.28 1.74203 -0.544022 0
M  V30 14351 C 1399.33 0.083501 -3.61404 0
M  V30 14352 O 1399.05 -1.17235 -4.22123 0
M  V30 14353 C 1400.56 0.623425 -4.38894 0
M  V30 14354 H 1397.78 -0.0602413 -0.66829 0
M  V30 14355 H 1400.32 -0.811215 -1.87722 0
M  V30 14356 H 1398.47 0.762432 -3.79823 0
M  V30 14357 H 1398.89 -0.990047 -5.15071 0
M  V30 14358 H 1400.36 0.688755 -5.47686 0
M  V30 14359 H 1400.84 1.64172 -4.07362 0
M  V30 14360 H 1401.45 -0.0208373 -4.25295 0
M  V30 14361 N 1399.76 1.54172 -0.326923 0
M  V30 14362 C 1400.99 2.04747 0.276107 0
M  V30 14363 C 1401.4 1.20251 1.4607 0
M  V30 14364 O 1400.74 0.226753 1.82295 0
M  V30 14365 C 1400.8 3.51143 0.770651 0
M  V30 14366 C 1400.47 4.56066 -0.292079 0
M  V30 14367 C 1401.46 5.07487 -1.12928 0
M  V30 14368 C 1399.15 5.00358 -0.441232 0
M  V30 14369 C 1401.14 6.01767 -2.10133 0
M  V30 14370 C 1398.83 5.94452 -1.4167 0
M  V30 14371 C 1399.83 6.45042 -2.24521 0
M  V30 14372 O 1399.52 7.37288 -3.20409 0
M  V30 14373 H 1399.25 0.673322 0.0601144 0
M  V30 14374 H 1401.8 1.99899 -0.472176 0
M  V30 14375 H 1400.03 3.53399 1.5699 0
M  V30 14376 H 1401.72 3.84775 1.2924 0
M  V30 14377 H 1402.49 4.74044 -1.02505 0
M  V30 14378 H 1398.37 4.60593 0.193767 0
M  V30 14379 H 1401.91 6.41178 -2.74839 0
M  V30 14380 H 1397.81 6.27311 -1.52155 0
M  V30 14381 H 1398.58 7.55171 -3.15687 0
M  V30 14382 N 1401.24 0.0551678 1.57503 0
M  V30 14383 C 1402.65 -0.3014 1.56728 0
M  V30 14384 C 1402.85 -1.71169 1.06317 0
M  V30 14385 O 1401.91 -2.4197 0.721566 0
M  V30 14386 C 1403.22 -0.12622 3.00435 0
M  V30 14387 C 1404.77 -0.197022 3.12379 0
M  V30 14388 C 1405.25 -0.0503235 4.57972 0
M  V30 14389 N 1406.74 -0.106471 4.63078 0
M  V30 14390 C 1407.47 -0.0171325 5.73397 0
M  V30 14391 N 1406.97 0.124781 6.92688 0
M  V30 14392 N 1408.76 -0.0730028 5.62053 0
M  V30 14393 H 1400.91 0.977072 1.88592 0
M  V30 14394 H 1403.18 0.37963 0.868668 0
M  V30 14395 H 1402.88 0.846286 3.41366 0
M  V30 14396 H 1402.76 -0.885574 3.66657 0
M  V30 14397 H 1405.14 -1.16 2.71345 0
M  V30 14398 H 1405.22 0.593155 2.48828 0
M  V30 14399 H 1404.87 0.909352 4.99693 0
M  V30 14400 H 1404.8 -0.859695 5.19535 0
M  V30 14401 H 1407.29 -0.215241 3.77287 0
M  V30 14402 H 1407.6 0.185548 7.72577 0
M  V30 14403 H 1405.95 0.15992 6.94816 0
M  V30 14404 H 1409.14 -0.182456 4.67744 0
M  V30 14405 H 1409.31 7.85052e-05 6.48 0
M  V30 14406 N 1402.72 -1.56081 -0.218252 0
M  V30 14407 C 1403.96 -1.81024 -0.949188 0
M  V30 14408 C 1404.32 -0.629178 -1.81398 0
M  V30 14409 O 1405.52 -0.757982 -2.57892 0
M  V30 14410 C 1403.79 -3.10878 -1.76322 0
M  V30 14411 S 1405.35 -3.57147 -2.54934 0
M  V30 14412 H 1402.17 -0.635529 -0.318785 0
M  V30 14413 H 1404.77 -1.9432 -0.214484 0
M  V30 14414 H 1403.48 -3.94875 -1.11811 0
M  V30 14415 H 1403.01 -3.00399 -2.54016 0
M  V30 14416 H 1405.02 -3.20747 -3.78597 0
M  V30 14417 N 1404.2 0.485086 -1.49949 0
M  V30 14418 C 1405.42 1.26648 -1.64241 0
M  V30 14419 C 1405.85 1.85359 -0.319939 0
M  V30 14420 O 1405.2 1.66628 0.714487 0
M  V30 14421 C 1405.25 2.36109 -2.72552 0
M  V30 14422 O 1404.36 3.40387 -2.32832 0
M  V30 14423 H 1403.7 0.373208 -0.549192 0
M  V30 14424 H 1406.23 0.578929 -1.96239 0
M  V30 14425 H 1406.24 2.81634 -2.95205 0
M  V30 14426 H 1404.91 1.92745 -3.6854 0
M  V30 14427 H 1403.49 3.0067 -2.20571 0
M  V30 14428 N 1405.67 1.39291 0.737279 0
M  V30 14429 C 1406.58 1.40098 1.88175 0
M  V30 14430 C 1407.6 0.296053 1.71463 0
M  V30 14431 O 1408.78 0.537153 1.94105 0
M  V30 14432 C 1405.84 1.24071 3.2374 0
M  V30 14433 C 1404.9 2.44515 3.52861 0
M  V30 14434 C 1404.13 2.29243 4.81958 0
M  V30 14435 O 1404.36 1.2947 5.55512 0
M  V30 14436 O 1403.29 3.18178 5.10927 0
M  V30 14437 H 1407.12 2.36565 1.90449 0
M  V30 14438 H 1404.7 1.20382 0.884786 0
M  V30 14439 H 1406.58 1.17257 4.04758 0
M  V30 14440 H 1405.26 0.30698 3.22241 0
M  V30 14441 H 1404.17 2.56905 2.71939 0
M  V30 14442 H 1405.5 3.36573 3.59137 0
M  V30 14443 N 1407.15 -0.967221 1.24429 0
M  V30 14444 C 1408.1 -2.047 1.00409 0
M  V30 14445 C 1409.09 -1.60807 -0.0546412 0
M  V30 14446 O 1410.28 -1.76283 0.159145 0
M  V30 14447 C 1407.41 -3.37813 0.611345 0
M  V30 14448 C 1406.49 -3.88266 1.70618 0
M  V30 14449 N 1406.88 -4.1165 2.93901 0
M  V30 14450 C 1405.18 -4.16931 1.5838 0
M  V30 14451 C 1405.88 -4.53032 3.64879 0
M  V30 14452 N 1404.86 -4.58233 2.92444 0
M  V30 14453 H 1408.66 -2.20755 1.94021 0
M  V30 14454 H 1406.17 -1.15105 1.14562 0
M  V30 14455 H 1408.17 -4.14774 0.420493 0
M  V30 14456 H 1406.83 -3.23143 -0.317588 0
M  V30 14457 H 1407.84 -3.99087 3.30075 0
M  V30 14458 H 1404.52 -4.11193 0.722929 0
M  V30 14459 H 1405.91 -4.79533 4.70635 0
M  V30 14460 N 1408.63 -1.05812 -1.16797 0
M  V30 14461 C 1409.59 -0.668766 -2.19226 0
M  V30 14462 C 1410.59 0.28299 -1.5829 0
M  V30 14463 O 1411.78 0.0660233 -1.74075 0
M  V30 14464 C 1408.91 0.0167379 -3.40896 0
M  V30 14465 H 1410.11 -1.57543 -2.55187 0
M  V30 14466 H 1407.66 -0.852753 -1.30988 0
M  V30 14467 H 1408.4 0.936382 -3.10487 0
M  V30 14468 H 1408.18 -0.667576 -3.86375 0
M  V30 14469 H 1409.67 0.275041 -4.16693 0
M  V30 14470 N 1410.11 1.33347 -0.840014 0
M  V30 14471 C 1411.07 2.27492 -0.279264 0
M  V30 14472 C 1412.07 1.51004 0.552669 0
M  V30 14473 O 1413.26 1.70305 0.366295 0
M  V30 14474 C 1410.39 3.35462 0.606466 0
M  V30 14475 H 1411.59 2.78601 -1.11001 0
M  V30 14476 H 1409.14 1.4377 -0.613187 0
M  V30 14477 H 1409.87 2.89596 1.45961 0
M  V30 14478 H 1409.66 3.92098 0.0111889 0
M  V30 14479 H 1411.15 4.05645 0.992052 0
M  V30 14480 N 1411.59 0.596556 1.45873 0
M  V30 14481 C 1412.52 -0.116229 2.33211 0
M  V30 14482 C 1413.5 -0.869868 1.46176 0
M  V30 14483 O 1414.68 -0.842599 1.74968 0
M  V30 14484 C 1411.81 -1.12145 3.28696 0
M  V30 14485 C 1410.77 -0.481749 4.2528 0
M  V30 14486 C 1410.09 -1.59443 5.10374 0
M  V30 14487 C 1411.39 0.589996 5.18957 0
M  V30 14488 H 1413.09 0.613005 2.93057 0
M  V30 14489 H 1410.63 0.296242 1.4092 0
M  V30 14490 H 1412.58 -1.62857 3.88659 0
M  V30 14491 H 1411.31 -1.88114 2.66985 0
M  V30 14492 H 1409.97 0.0044092 3.666 0
M  V30 14493 H 1409.62 -2.34413 4.45039 0
M  V30 14494 H 1409.32 -1.17197 5.75794 0
M  V30 14495 H 1410.84 -2.10404 5.73204 0
M  V30 14496 H 1412.25 0.167395 5.73056 0
M  V30 14497 H 1410.65 0.933565 5.92794 0
M  V30 14498 H 1411.72 1.47093 4.62052 0
M  V30 14499 N 1413.06 -1.53996 0.335095 0
M  V30 14500 C 1414.29 -2.05657 -0.268328 0
M  V30 14501 C 1414.71 -1.20897 -1.44102 0
M  V30 14502 O 1414.07 -0.220737 -1.79951 0
M  V30 14503 C 1414.12 -3.54331 -0.669481 0
M  V30 14504 O 1413.22 -3.7246 -1.77052 0
M  V30 14505 H 1412.56 -0.662386 -0.0462705 0
M  V30 14506 H 1415.09 -1.98723 0.486854 0
M  V30 14507 H 1415.1 -3.9681 -0.948971 0
M  V30 14508 H 1413.78 -4.15474 0.188168 0
M  V30 14509 H 1412.36 -3.41884 -1.48895 0
M  V30 14510 N 1414.54 -0.0635198 -1.57472 0
M  V30 14511 C 1415.47 0.90431 -2.15278 0
M  V30 14512 C 1416.45 1.31609 -1.07764 0
M  V30 14513 O 1417.64 1.38861 -1.35762 0
M  V30 14514 C 1414.77 2.17483 -2.70774 0
M  V30 14515 C 1413.72 1.90272 -3.8338 0
M  V30 14516 C 1413.05 3.23885 -4.25444 0
M  V30 14517 C 1414.35 1.21454 -5.07983 0
M  V30 14518 H 1416.04 0.422786 -2.964 0
M  V30 14519 H 1413.59 0.201918 -1.42577 0
M  V30 14520 H 1415.54 2.856 -3.09856 0
M  V30 14521 H 1414.26 2.67863 -1.86861 0
M  V30 14522 H 1412.92 1.24564 -3.44789 0
M  V30 14523 H 1412.57 3.72089 -3.38465 0
M  V30 14524 H 1412.27 3.06472 -5.01347 0
M  V30 14525 H 1413.8 3.93212 -4.67137 0
M  V30 14526 H 1415.21 1.79625 -5.44433 0
M  V30 14527 H 1413.61 1.14327 -5.89109 0
M  V30 14528 H 1414.68 0.19238 -4.84518 0
M  V30 14529 N 1416.02 1.56195 0.209972 0
M  V30 14530 C 1417.25 1.8384 0.949228 0
M  V30 14531 C 1417.66 0.644141 1.77472 0
M  V30 14532 O 1417.02 -0.387276 1.78344 0
M  V30 14533 C 1417.07 3.10131 1.85745 0
M  V30 14534 O 1416.79 4.2495 1.06531 0
M  V30 14535 C 1418.29 3.50847 2.70963 0
M  V30 14536 H 1415.51 0.610856 0.277662 0
M  V30 14537 H 1418.06 2.03295 0.221708 0
M  V30 14538 H 1416.21 2.92618 2.53877 0
M  V30 14539 H 1416.63 4.96769 1.68287 0
M  V30 14540 H 1418.1 4.4222 3.30372 0
M  V30 14541 H 1418.58 2.73139 3.43936 0
M  V30 14542 H 1419.18 3.7084 2.08226 0
M  V30 14543 N 1417.5 -0.477127 1.50204 0
M  V30 14544 C 1418.44 -1.57587 1.68626 0
M  V30 14545 C 1419.41 -1.57499 0.527576 0
M  V30 14546 O 1420.6 -1.75121 0.757438 0
M  V30 14547 C 1417.74 -2.956 1.78086 0
M  V30 14548 C 1416.85 -3.05523 3.05417 0
M  V30 14549 C 1415.99 -4.34414 3.05709 0
M  V30 14550 C 1415.03 -4.38057 4.27519 0
M  V30 14551 N 1414.16 -5.5841 4.25585 0
M  V30 14552 H 1419 -1.41185 2.62433 0
M  V30 14553 H 1416.54 -0.686537 1.30096 0
M  V30 14554 H 1418.5 -3.75626 1.81552 0
M  V30 14555 H 1417.13 -3.10651 0.877251 0
M  V30 14556 H 1416.18 -2.18409 3.11451 0
M  V30 14557 H 1417.49 -3.04075 3.95398 0
M  V30 14558 H 1416.65 -5.22782 3.07871 0
M  V30 14559 H 1415.39 -4.38462 2.13548 0
M  V30 14560 H 1414.39 -3.48087 4.25577 0
M  V30 14561 H 1415.62 -4.35705 5.20901 0
M  V30 14562 H 1413.56 -5.63255 3.36274 0
M  V30 14563 H 1413.48 -5.58677 5.09328 0
M  V30 14564 H 1414.75 -6.4892 4.31884 0
M  V30 14565 N 1418.98 -1.3968 -0.729882 0
M  V30 14566 C 1420.22 -1.36911 -1.4866 0
M  V30 14567 C 1420.55 0.0326011 -1.94973 0
M  V30 14568 O 1419.82 0.984789 -1.69348 0
M  V30 14569 H 1418.4 -0.503848 -0.551495 0
M  V30 14570 H 1421.06 -1.74596 -0.866155 0
M  V30 14571 H 1420.15 -2.03504 -2.36628 0
M  V30 14572 N 1420.45 0.960609 -1.2494 0
M  V30 14573 C 1421.42 2.03791 -1.04891 0
M  V30 14574 C 1422.42 1.608 -0.00375792 0
M  V30 14575 O 1423.61 1.72463 -0.24539 0
M  V30 14576 C 1420.74 3.35733 -0.591309 0
M  V30 14577 H 1421.93 2.2301 -2.00516 0
M  V30 14578 H 1419.49 1.13686 -1.07263 0
M  V30 14579 H 1420.22 3.22207 0.367816 0
M  V30 14580 H 1420.01 3.68283 -1.34574 0
M  V30 14581 H 1421.5 4.14921 -0.472283 0
M  V30 14582 N 1421.93 1.0643 1.16234 0
M  V30 14583 C 1422.9 0.680383 2.18869 0
M  V30 14584 C 1423.9 -0.274591 1.58438 0
M  V30 14585 O 1425.09 -0.0567907 1.74107 0
M  V30 14586 C 1422.22 0.00134091 3.409 0
M  V30 14587 H 1423.41 1.58894 2.54347 0
M  V30 14588 H 1420.96 0.859688 1.30534 0
M  V30 14589 H 1421.7 -0.919903 3.1098 0
M  V30 14590 H 1421.48 0.688057 3.86016 0
M  V30 14591 H 1422.97 -0.252938 4.16833 0
M  V30 14592 N 1423.41 -1.329 0.847073 0
M  V30 14593 C 1424.34 -2.31546 0.301422 0
M  V30 14594 C 1425.32 -1.59342 -0.595317 0
M  V30 14595 O 1426.51 -1.87188 -0.517151 0
M  V30 14596 C 1423.64 -3.43423 -0.517454 0
M  V30 14597 C 1422.59 -4.27055 0.284195 0
M  V30 14598 C 1421.92 -5.30624 -0.658944 0
M  V30 14599 C 1423.22 -5.00123 1.50578 0
M  V30 14600 H 1424.91 -2.77433 1.12567 0
M  V30 14601 H 1422.46 -1.3338 0.542739 0
M  V30 14602 H 1424.41 -4.11467 -0.909543 0
M  V30 14603 H 1423.13 -2.96246 -1.37499 0
M  V30 14604 H 1421.79 -3.60648 0.657944 0
M  V30 14605 H 1421.44 -4.79702 -1.51311 0
M  V30 14606 H 1421.14 -5.87464 -0.12662 0
M  V30 14607 H 1422.66 -6.01533 -1.04837 0
M  V30 14608 H 1424.08 -5.6089 1.18641 0
M  V30 14609 H 1422.48 -5.66652 1.97549 0
M  V30 14610 H 1423.55 -4.28424 2.27115 0
M  V30 14611 N 1424.89 -0.604284 -1.45555 0
M  V30 14612 C 1426.3 -0.267665 -1.57339 0
M  V30 14613 C 1426.5 1.22984 -1.59616 0
M  V30 14614 O 1425.56 2.0127 -1.52468 0
M  V30 14615 C 1426.87 -0.935923 -2.85764 0
M  V30 14616 C 1428.42 -0.911531 -2.99433 0
M  V30 14617 C 1428.9 -1.55974 -4.30623 0
M  V30 14618 N 1430.39 -1.52507 -4.37374 0
M  V30 14619 C 1431.12 -1.9958 -5.37546 0
M  V30 14620 N 1430.62 -2.54724 -6.44273 0
M  V30 14621 N 1432.41 -1.90368 -5.28882 0
M  V30 14622 H 1424.56 -1.57666 -1.42321 0
M  V30 14623 H 1426.83 -0.66028 -0.680245 0
M  V30 14624 H 1426.53 -1.99022 -2.89971 0
M  V30 14625 H 1426.41 -0.457194 -3.74419 0
M  V30 14626 H 1428.79 0.134206 -2.94795 0
M  V30 14627 H 1428.87 -1.42849 -2.12197 0
M  V30 14628 H 1428.52 -2.60479 -4.3602 0
M  V30 14629 H 1428.45 -1.01782 -5.1667 0
M  V30 14630 H 1430.94 -1.12221 -3.60853 0
M  V30 14631 H 1431.25 -2.88445 -7.16951 0
M  V30 14632 H 1429.6 -2.58761 -6.45033 0
M  V30 14633 H 1432.79 -1.47029 -4.4441 0
M  V30 14634 H 1432.96 -2.27367 -6.06802 0
M  V30 14635 N 1426.37 1.53816 -0.343257 0
M  V30 14636 C 1427.31 2.25011 0.513664 0
M  V30 14637 C 1428.28 1.24827 1.09578 0
M  V30 14638 O 1429.47 1.53558 1.13245 0
M  V30 14639 C 1426.61 3.02616 1.65885 0
M  V30 14640 C 1425.72 4.17653 1.10406 0
M  V30 14641 C 1424.86 4.82746 2.21653 0
M  V30 14642 C 1423.9 5.89853 1.63524 0
M  V30 14643 N 1423.03 6.48726 2.68512 0
M  V30 14644 H 1427.87 2.97832 -0.099997 0
M  V30 14645 H 1425.41 1.46973 -0.0611206 0
M  V30 14646 H 1427.37 3.45868 2.33304 0
M  V30 14647 H 1426 2.32092 2.2435 0
M  V30 14648 H 1425.05 3.79045 0.320819 0
M  V30 14649 H 1426.36 4.94691 0.638887 0
M  V30 14650 H 1425.52 5.29068 2.96938 0
M  V30 14651 H 1424.25 4.05131 2.71515 0
M  V30 14652 H 1423.26 5.42914 0.86745 0
M  V30 14653 H 1424.48 6.69375 1.14515 0
M  V30 14654 H 1422.43 5.73975 3.17629 0
M  V30 14655 H 1422.35 7.21236 2.26616 0
M  V30 14656 H 1423.62 6.99701 3.43567 0
M  V30 14657 N 1427.84 0.0718701 1.57436 0
M  V30 14658 C 1429.26 -0.28476 1.57039 0
M  V30 14659 C 1429.46 -1.70032 1.08127 0
M  V30 14660 O 1428.52 -2.41191 0.747189 0
M  V30 14661 C 1429.83 -0.0943482 3.00552 0
M  V30 14662 C 1431.38 -0.163879 3.12571 0
M  V30 14663 C 1431.85 -0.00174658 4.58 0
M  V30 14664 N 1433.34 -0.0573489 4.63164 0
M  V30 14665 C 1434.08 0.0436849 5.73383 0
M  V30 14666 N 1433.57 0.198243 6.92516 0
M  V30 14667 N 1435.37 -0.0133856 5.62098 0
M  V30 14668 H 1427.52 0.99702 1.87545 0
M  V30 14669 H 1429.78 0.388822 0.864593 0
M  V30 14670 H 1429.49 0.882445 3.40449 0
M  V30 14671 H 1429.36 -0.846636 3.67576 0
M  V30 14672 H 1431.75 -1.13116 2.7256 0
M  V30 14673 H 1431.83 0.619513 2.48185 0
M  V30 14674 H 1431.47 0.9623 4.98701 0
M  V30 14675 H 1431.4 -0.804543 5.20418 0
M  V30 14676 H 1433.89 -0.175212 3.77494 0
M  V30 14677 H 1434.21 0.267479 7.72337 0
M  V30 14678 H 1432.55 0.233606 6.94607 0
M  V30 14679 H 1435.74 -0.132835 4.67911 0
M  V30 14680 H 1435.92 0.0688076 6.47963 0
M  V30 14681 N 1429.32 -1.56304 -0.201686 0
M  V30 14682 C 1430.27 -1.94901 -1.26949 0
M  V30 14683 C 1431.26 -0.833574 -1.47472 0
M  V30 14684 O 1432.47 -1.01854 -1.48411 0
M  V30 14685 H 1428.85 -0.619663 -0.426053 0
M  V30 14686 H 1430.82 -2.83964 -0.9169 0
M  V30 14687 C 1429.57 -2.29913 -2.60835 0
M  V30 14688 H 1428.89 -3.15268 -2.45858 0
M  V30 14689 H 1430.33 -2.60789 -3.34313 0
M  V30 14690 C 1428.79 -1.13136 -3.17335 0
M  V30 14691 O 1429.32 -0.402915 -3.99674 0
M  V30 14692 N 1427.52 -0.909912 -2.75987 0
M  V30 14693 H 1427.07 -1.50402 -2.09134 0
M  V30 14694 H 1427.03 -0.130348 -3.1413 0
M  V30 14695 N 1430.8 0.469154 -1.50455 0
M  V30 14696 C 1431.71 1.59271 -1.7225 0
M  V30 14697 C 1432.73 1.63119 -0.605668 0
M  V30 14698 O 1433.9 1.80952 -0.884222 0
M  V30 14699 C 1430.97 2.95475 -1.81372 0
M  V30 14700 C 1430.03 3.02 -3.05114 0
M  V30 14701 C 1429.26 4.31707 -3.13791 0
M  V30 14702 O 1429.48 5.2232 -2.29211 0
M  V30 14703 O 1428.42 4.43864 -4.06532 0
M  V30 14704 H 1432.24 1.43804 -2.67496 0
M  V30 14705 H 1429.83 0.648855 -1.34574 0
M  V30 14706 H 1431.71 3.76367 -1.89541 0
M  V30 14707 H 1430.39 3.11136 -0.893094 0
M  V30 14708 H 1429.29 2.20178 -3.02444 0
M  V30 14709 H 1430.63 2.91275 -3.96761 0
M  V30 14710 N 1432.28 1.40065 0.722464 0
M  V30 14711 C 1433.69 1.33876 1.30131 0
M  V30 14712 C 1434.04 0.00899369 1.96198 0
M  V30 14713 O 1433.17 -0.893082 1.97112 0
M  V30 14714 C 1433.76 2.42469 2.36631 0
M  V30 14715 C 1432.32 2.39762 2.90157 0
M  V30 14716 C 1431.47 2.23704 1.63865 0
M  V30 14717 H 1434.42 1.49971 0.519077 0
M  V30 14718 H 1434.44 2.0998 3.17315 0
M  V30 14719 H 1433.95 3.39239 1.88517 0
M  V30 14720 H 1432.05 1.46669 3.42519 0
M  V30 14721 H 1432.16 3.35092 3.42419 0
M  V30 14722 H 1430.53 1.71098 1.88674 0
M  V30 14723 H 1431.31 3.22462 1.17785 0
M  V30 14724 N 1433.76 -0.95397 1.25448 0
M  V30 14725 C 1434.98 -1.73863 1.13077 0
M  V30 14726 C 1435.41 -1.85503 -0.311481 0
M  V30 14727 O 1434.77 -1.33596 -1.22564 0
M  V30 14728 C 1434.81 -3.13 1.79062 0
M  V30 14729 O 1433.92 -3.98258 1.07072 0
M  V30 14730 H 1433.26 -0.533921 0.394746 0
M  V30 14731 H 1435.79 -1.19571 1.66024 0
M  V30 14732 H 1435.8 -3.63456 1.85374 0
M  V30 14733 H 1434.47 -3.03844 2.83992 0
M  V30 14734 H 1433.05 -3.56722 1.08645 0
M  V30 14735 N 1435.24 -1.07045 -1.15668 0
M  V30 14736 C 1436.48 -0.791735 -1.86381 0
M  V30 14737 C 1436.81 0.682084 -1.82148 0
M  V30 14738 O 1436.07 1.51617 -1.23737 0
M  V30 14739 C 1436.36 -1.24127 -3.35153 0
M  V30 14740 C 1436.03 -2.72051 -3.59582 0
M  V30 14741 C 1434.69 -3.12455 -3.65958 0
M  V30 14742 C 1437.04 -3.67547 -3.69538 0
M  V30 14743 C 1434.37 -4.4718 -3.79799 0
M  V30 14744 C 1436.72 -5.02029 -3.84902 0
M  V30 14745 C 1435.39 -5.42059 -3.89523 0
M  V30 14746 H 1434.66 -0.289717 -0.682016 0
M  V30 14747 H 1437.31 -1.34091 -1.36718 0
M  V30 14748 H 1435.61 -0.611428 -3.87 0
M  V30 14749 H 1437.31 -1.00256 -3.88265 0
M  V30 14750 H 1433.9 -2.39771 -3.55257 0
M  V30 14751 H 1438.08 -3.3746 -3.63915 0
M  V30 14752 H 1433.34 -4.77668 -3.81632 0
M  V30 14753 H 1437.51 -5.75902 -3.91548 0
M  V30 14754 H 1435.14 -6.46455 -4 0
M  V30 14755 N 1436.71 1.32449 -0.85411 0
M  V30 14756 C 1437.65 2.2777 -0.255605 0
M  V30 14757 C 1438.66 1.52407 0.572355 0
M  V30 14758 O 1439.85 1.74031 0.396935 0
M  V30 14759 C 1436.95 3.32461 0.657496 0
M  V30 14760 C 1436.12 4.37193 -0.134492 0
M  V30 14761 C 1435.18 5.21465 0.704288 0
M  V30 14762 O 1434.21 5.69033 0.138001 0
M  V30 14763 N 1435.41 5.44254 2.01911 0
M  V30 14764 H 1438.17 2.79769 -1.07468 0
M  V30 14765 H 1435.73 1.45304 -0.714038 0
M  V30 14766 H 1437.73 3.85748 1.22396 0
M  V30 14767 H 1436.3 2.80625 1.37726 0
M  V30 14768 H 1435.52 3.84198 -0.882378 0
M  V30 14769 H 1436.8 5.04256 -0.678508 0
M  V30 14770 H 1436.2 5.07336 2.50252 0
M  V30 14771 H 1434.76 6.00538 2.53371 0
M  V30 14772 N 1438.19 0.611994 1.45232 0
M  V30 14773 C 1439.12 -0.0914869 2.33321 0
M  V30 14774 C 1440.1 -0.854315 1.4709 0
M  V30 14775 O 1441.29 -0.823994 1.75852 0
M  V30 14776 C 1438.42 -1.08652 3.29867 0
M  V30 14777 C 1437.37 -0.436615 4.25767 0
M  V30 14778 C 1436.7 -1.54021 5.12037 0
M  V30 14779 C 1438 0.645005 5.18302 0
M  V30 14780 H 1439.69 0.644053 2.92391 0
M  V30 14781 H 1437.24 0.311171 1.40598 0
M  V30 14782 H 1439.19 -1.58726 3.90364 0
M  V30 14783 H 1437.91 -1.85271 2.68965 0
M  V30 14784 H 1436.57 0.0432918 3.66574 0
M  V30 14785 H 1436.22 -2.29679 4.475 0
M  V30 14786 H 1435.92 -1.11084 5.77005 0
M  V30 14787 H 1437.45 -2.04313 5.75403 0
M  V30 14788 H 1438.86 0.228166 5.72846 0
M  V30 14789 H 1437.26 0.996387 5.9177 0
M  V30 14790 H 1438.33 1.51985 4.60466 0
M  V30 14791 N 1439.67 -1.53632 0.351409 0
M  V30 14792 C 1440.89 -2.0593 -0.246501 0
M  V30 14793 C 1441.32 -1.22419 -1.42812 0
M  V30 14794 O 1440.68 -0.239811 -1.79707 0
M  V30 14795 C 1440.73 -3.55021 -0.631862 0
M  V30 14796 O 1439.83 -3.74317 -1.73092 0
M  V30 14797 H 1439.17 -0.662839 -0.0392424 0
M  V30 14798 H 1441.7 -1.98196 0.507904 0
M  V30 14799 H 1441.71 -3.97795 -0.906831 0
M  V30 14800 H 1440.39 -4.15251 0.232224 0
M  V30 14801 H 1438.96 -3.43444 -1.4526 0
M  V30 14802 N 1441.15 -0.0802183 -1.57396 0
M  V30 14803 C 1442.38 0.59489 -1.9785 0
M  V30 14804 C 1442.79 1.63174 -0.957641 0
M  V30 14805 O 1442.13 1.83592 0.0629632 0
M  V30 14806 C 1442.19 1.31367 -3.34639 0
M  V30 14807 C 1441.85 0.429303 -4.54979 0
M  V30 14808 C 1442.85 -0.316537 -5.18935 0
M  V30 14809 C 1440.54 0.351714 -5.01067 0
M  V30 14810 C 1442.53 -1.1281 -6.27338 0
M  V30 14811 C 1440.22 -0.463513 -6.0934 0
M  V30 14812 C 1441.22 -1.20208 -6.72338 0
M  V30 14813 O 1440.9 -2.00385 -7.78525 0
M  V30 14814 H 1440.64 0.165331 -0.655471 0
M  V30 14815 H 1443.19 -0.151697 -2.04839 0
M  V30 14816 H 1441.42 2.10651 -3.24289 0
M  V30 14817 H 1443.11 1.88184 -3.59641 0
M  V30 14818 H 1443.87 -0.266237 -4.84269 0
M  V30 14819 H 1439.75 0.916218 -4.51804 0
M  V30 14820 H 1443.3 -1.70508 -6.76441 0
M  V30 14821 H 1439.19 -0.515347 -6.4344 0
M  V30 14822 H 1439.96 -1.92907 -7.95443 0
M  V30 14823 N 1442.63 1.56409 0.193394 0
M  V30 14824 C 1443.87 1.80367 0.911717 0
M  V30 14825 C 1444.19 0.653561 1.83721 0
M  V30 14826 O 1443.46 -0.328001 1.93135 0
M  V30 14827 H 1442.04 0.665316 0.339652 0
M  V30 14828 H 1444.71 1.93887 0.198496 0
M  V30 14829 H 1443.8 2.7359 1.50182 0
M  V30 14830 N 1444.1 -0.461169 1.50702 0
M  V30 14831 C 1445.35 -1.21012 1.61866 0
M  V30 14832 C 1445.67 -1.9226 0.325736 0
M  V30 14833 O 1444.94 -1.84543 -0.657306 0
M  V30 14834 H 1443.52 -0.449671 0.596494 0
M  V30 14835 H 1446.18 -0.531056 1.87525 0
M  V30 14836 H 1445.28 -1.95266 2.4347 0
M  V30 14837 N 1445.58 -1.40446 -0.715026 0
M  V30 14838 C 1446.51 -1.43511 -1.84193 0
M  V30 14839 C 1447.49 -0.295969 -1.67505 0
M  V30 14840 O 1448.68 -0.504667 -1.87528 0
M  V30 14841 C 1445.81 -1.29751 -3.22152 0
M  V30 14842 C 1444.76 -2.41274 -3.53512 0
M  V30 14843 C 1444.09 -2.12591 -4.90621 0
M  V30 14844 C 1445.39 -3.83614 -3.54454 0
M  V30 14845 H 1447.08 -2.37819 -1.81885 0
M  V30 14846 H 1444.63 -1.14469 -0.873655 0
M  V30 14847 H 1446.58 -1.30511 -4.0068 0
M  V30 14848 H 1445.3 -0.319189 -3.25037 0
M  V30 14849 H 1443.96 -2.39764 -2.77324 0
M  V30 14850 H 1443.61 -1.13148 -4.90109 0
M  V30 14851 H 1443.31 -2.87308 -5.1257 0
M  V30 14852 H 1444.84 -2.15034 -5.71483 0
M  V30 14853 H 1446.25 -3.86945 -4.23021 0
M  V30 14854 H 1444.65 -4.57855 -3.87929 0
M  V30 14855 H 1445.72 -4.13159 -2.53827 0
M  V30 14856 N 1447.06 0.947303 -1.25952 0
M  V30 14857 C 1448.48 1.21972 -1.02932 0
M  V30 14858 C 1448.68 1.99951 0.249333 0
M  V30 14859 O 1447.73 2.33534 0.960108 0
M  V30 14860 C 1449.04 1.98695 -2.257 0
M  V30 14861 C 1450.59 2.11711 -2.30538 0
M  V30 14862 C 1451.07 2.91835 -3.52982 0
M  V30 14863 N 1452.56 2.99411 -3.53422 0
M  V30 14864 C 1453.29 3.6182 -4.4483 0
M  V30 14865 N 1452.79 4.25781 -5.46519 0
M  V30 14866 N 1454.58 3.59033 -4.32495 0
M  V30 14867 H 1446.73 0.42583 -2.08088 0
M  V30 14868 H 1449 0.250899 -0.914196 0
M  V30 14869 H 1448.7 1.48801 -3.18671 0
M  V30 14870 H 1448.58 2.9938 -2.29459 0
M  V30 14871 H 1450.96 2.608 -1.38085 0
M  V30 14872 H 1451.04 1.10308 -2.30794 0
M  V30 14873 H 1450.69 2.43435 -4.4576 0
M  V30 14874 H 1450.62 3.9348 -3.49973 0
M  V30 14875 H 1453.11 2.53934 -2.79868 0
M  V30 14876 H 1453.42 4.71281 -6.12466 0
M  V30 14877 H 1451.77 4.24386 -5.50383 0
M  V30 14878 H 1454.96 3.08254 -3.52274 0
M  V30 14879 H 1455.13 4.07384 -5.03927 0
M  V30 14880 N 1448.54 1.07657 1.15099 0
M  V30 14881 C 1449.49 0.669428 2.17951 0
M  V30 14882 C 1450.47 -0.307034 1.57943 0
M  V30 14883 O 1451.66 -0.120267 1.76591 0
M  V30 14884 C 1448.79 0.0720873 3.43224 0
M  V30 14885 C 1447.88 1.07388 4.10279 0
M  V30 14886 N 1448.27 2.25455 4.52773 0
M  V30 14887 C 1446.57 0.907909 4.36661 0
M  V30 14888 C 1447.27 2.89035 5.0481 0
M  V30 14889 N 1446.25 2.16684 4.98547 0
M  V30 14890 H 1450.05 1.56862 2.48539 0
M  V30 14891 H 1447.56 0.950198 1.317 0
M  V30 14892 H 1449.56 -0.237505 4.16223 0
M  V30 14893 H 1448.22 -0.822183 3.14118 0
M  V30 14894 H 1449.23 2.63155 4.4606 0
M  V30 14895 H 1445.91 0.0667966 4.17447 0
M  V30 14896 H 1447.3 3.89303 5.47625 0
M  V30 14897 N 1450.02 -1.31994 0.861122 0
M  V30 14898 C 1451.26 -1.97025 0.467678 0
M  V30 14899 C 1451.59 -1.68116 -0.978129 0
M  V30 14900 O 1450.85 -0.965342 -1.70234 0
M  V30 14901 C 1451.15 -3.51232 0.661135 0
M  V30 14902 C 1450.81 -4.00142 2.07839 0
M  V30 14903 C 1449.47 -4.1321 2.466 0
M  V30 14904 C 1451.83 -4.25986 3.00309 0
M  V30 14905 C 1449.15 -4.49467 3.7709 0
M  V30 14906 C 1451.51 -4.63704 4.30304 0
M  V30 14907 C 1450.17 -4.74978 4.68991 0
M  V30 14908 H 1449.44 -0.720967 0.171136 0
M  V30 14909 H 1452.09 -1.57285 1.09242 0
M  V30 14910 H 1450.39 -3.91772 -0.0467947 0
M  V30 14911 H 1452.09 -3.99584 0.336669 0
M  V30 14912 H 1448.68 -3.90461 1.76743 0
M  V30 14913 H 1452.86 -4.15393 2.71592 0
M  V30 14914 H 1448.12 -4.56391 4.06838 0
M  V30 14915 H 1452.29 -4.82654 5.02014 0
M  V30 14916 H 1449.92 -5.02828 5.70147 0
M  V30 14917 N 1451.49 -0.619688 -1.44906 0
M  V30 14918 C 1452.73 -0.122796 -2.04031 0
M  V30 14919 C 1453.1 1.2279 -1.47603 0
M  V30 14920 O 1454.3 1.81623 -1.98158 0
M  V30 14921 C 1452.57 -0.0968883 -3.57269 0
M  V30 14922 S 1454.13 0.33705 -4.37504 0
M  V30 14923 H 1450.95 -0.0554816 -0.708832 0
M  V30 14924 H 1453.55 -0.82051 -1.77448 0
M  V30 14925 H 1452.25 -1.08324 -3.95846 0
M  V30 14926 H 1451.78 0.622437 -3.88445 0
M  V30 14927 H 1453.8 1.58388 -4.70242 0
M  V30 14928 N 1452.97 1.53444 -0.359552 0
M  V30 14929 C 1454.22 2.02152 0.224969 0
M  V30 14930 C 1454.57 1.24236 1.46912 0
M  V30 14931 O 1453.87 0.325976 1.88807 0
M  V30 14932 C 1454.06 3.5273 0.575863 0
M  V30 14933 C 1453.89 4.45226 -0.63273 0
M  V30 14934 C 1452.66 4.92204 -1.14296 0
M  V30 14935 C 1454.86 4.92058 -1.49611 0
M  V30 14936 N 1452.84 5.68692 -2.31221 0
M  V30 14937 C 1454.21 5.66829 -2.51208 0
M  V30 14938 C 1456.27 4.74141 -1.51969 0
M  V30 14939 C 1454.97 6.25587 -3.55012 0
M  V30 14940 C 1456.99 5.33761 -2.54663 0
M  V30 14941 C 1456.36 6.08412 -3.54984 0
M  V30 14942 H 1452.46 0.780693 0.0451987 0
M  V30 14943 H 1455.04 1.88097 -0.502735 0
M  V30 14944 H 1453.21 3.66958 1.27265 0
M  V30 14945 H 1454.94 3.88166 1.14495 0
M  V30 14946 H 1451.7 4.6827 -0.70853 0
M  V30 14947 H 1452.12 6.116 -2.90301 0
M  V30 14948 H 1456.76 4.15956 -0.757639 0
M  V30 14949 H 1454.48 6.82871 -4.32102 0
M  V30 14950 H 1458.07 5.21795 -2.57334 0
M  V30 14951 H 1456.95 6.53724 -4.33145 0
M  V30 14952 N 1454.45 0.0885642 1.57351 0
M  V30 14953 C 1455.86 -0.441569 1.81403 0
M  V30 14954 C 1456.21 -1.68582 1.00372 0
M  V30 14955 O 1455.34 -2.15162 0.231153 0
M  V30 14956 C 1455.93 -0.807886 3.29027 0
M  V30 14957 C 1454.49 -1.2828 3.53866 0
M  V30 14958 C 1453.64 -0.276217 2.75921 0
M  V30 14959 H 1456.59 0.314083 1.55561 0
M  V30 14960 H 1456.61 -1.66797 3.41993 0
M  V30 14961 H 1456.12 0.0978886 3.87977 0
M  V30 14962 H 1454.22 -2.2065 3.0024 0
M  V30 14963 H 1454.34 -1.24914 4.62529 0
M  V30 14964 H 1452.7 -0.757007 2.4319 0
M  V30 14965 H 1453.48 0.622123 3.37616 0
M  V30 14966 N 1455.93 -1.56509 -0.185096 0
M  V30 14967 C 1457.34 -1.50318 -0.536334 0
M  V30 14968 C 1457.54 -0.790387 -1.85351 0
M  V30 14969 O 1456.6 -0.345039 -2.50131 0
M  V30 14970 C 1457.91 -2.95017 -0.581825 0
M  V30 14971 C 1459.46 -3.05746 -0.669974 0
M  V30 14972 C 1459.94 -4.51876 -0.746485 0
M  V30 14973 N 1461.43 -4.56067 -0.809746 0
M  V30 14974 C 1462.16 -5.66462 -0.889286 0
M  V30 14975 N 1461.66 -6.86523 -0.930509 0
M  V30 14976 N 1463.45 -5.54399 -0.927246 0
M  V30 14977 H 1455.6 -2.01262 0.678778 0
M  V30 14978 H 1457.87 -0.916313 0.243054 0
M  V30 14979 H 1457.57 -3.50268 0.317089 0
M  V30 14980 H 1457.45 -3.48916 -1.43309 0
M  V30 14981 H 1459.83 -2.50538 -1.55932 0
M  V30 14982 H 1459.91 -2.54955 0.207689 0
M  V30 14983 H 1459.56 -5.07711 0.138546 0
M  V30 14984 H 1459.49 -5.00408 -1.6401 0
M  V30 14985 H 1461.98 -3.6962 -0.786729 0
M  V30 14986 H 1462.29 -7.66407 -0.991992 0
M  V30 14987 H 1460.64 -6.89161 -0.899017 0
M  V30 14988 H 1463.83 -4.59524 -0.891947 0
M  V30 14989 H 1464 -6.40458 -0.985773 0
M  V30 14990 N 1457.41 0.45317 -1.50944 0
M  V30 14991 C 1458.64 1.22494 -1.66369 0
M  V30 14992 C 1459.04 1.85862 -0.353854 0
M  V30 14993 O 1458.39 1.70808 0.676031 0
M  V30 14994 C 1458.45 2.36145 -2.71064 0
M  V30 14995 C 1458.11 1.93273 -4.14119 0
M  V30 14996 C 1459.11 1.44508 -4.99413 0
M  V30 14997 C 1456.8 2.01447 -4.60135 0
M  V30 14998 C 1458.79 1.04482 -6.28778 0
M  V30 14999 C 1456.48 1.61033 -5.89501 0
M  V30 15000 C 1457.47 1.1263 -6.73649 0
M  V30 15001 O 1457.16 0.727835 -8.00598 0
M  V30 15002 H 1456.89 0.37591 -0.561843 0
M  V30 15003 H 1459.45 0.545218 -1.98032 0
M  V30 15004 H 1457.68 3.07345 -2.34682 0
M  V30 15005 H 1459.37 2.9806 -2.75527 0
M  V30 15006 H 1460.13 1.376 -4.65071 0
M  V30 15007 H 1456.01 2.38068 -3.94771 0
M  V30 15008 H 1459.56 0.666322 -6.9441 0
M  V30 15009 H 1455.45 1.67606 -6.23361 0
M  V30 15010 H 1456.22 0.855097 -8.14021 0
M  V30 15011 N 1458.88 1.40823 0.707568 0
M  V30 15012 C 1460.11 1.42866 1.49656 0
M  V30 15013 C 1460.53 0.0305663 1.88775 0
M  V30 15014 O 1459.88 -0.947376 1.55984 0
M  V30 15015 C 1459.94 2.32661 2.76679 0
M  V30 15016 O 1459.66 3.67028 2.39211 0
M  V30 15017 C 1461.16 2.4338 3.70514 0
M  V30 15018 H 1458.38 0.487009 0.461588 0
M  V30 15019 H 1460.92 1.84969 0.872167 0
M  V30 15020 H 1459.08 1.93898 3.35384 0
M  V30 15021 H 1459.49 4.14799 3.21002 0
M  V30 15022 H 1460.96 3.10401 4.56459 0
M  V30 15023 H 1461.44 1.46132 4.14176 0
M  V30 15024 H 1462.05 2.82728 3.17718 0
M  V30 15025 N 1460.36 -0.94061 1.26453 0
M  V30 15026 C 1461.64 -1.66421 1.02779 0
M  V30 15027 C 1462.02 -2.06429 -0.441614 0
M  V30 15028 O 1461.37 -1.78854 -1.42209 0
M  V30 15029 C 1461.58 -2.87599 1.97707 0
M  V30 15030 C 1462.93 -3.59237 2.26349 0
M  V30 15031 O 1463.95 -2.97704 1.95577 0
M  V30 15032 O 1462.81 -4.70068 2.78744 0
M  V30 15033 H 1459.9 -0.728813 0.390846 0
M  V30 15034 H 1462.45 -0.99229 1.37665 0
M  V30 15035 H 1461.22 -2.54929 2.96862 0
M  V30 15036 H 1460.84 -3.62516 1.63303 0
M  V30 15037 N 1461.84 -1.08266 -1.14527 0
M  V30 15038 C 1463.07 -0.831673 -1.89121 0
M  V30 15039 C 1463.48 0.619702 -1.78763 0
M  V30 15040 O 1462.82 1.43748 -1.14377 0
M  V30 15041 C 1462.88 -1.17276 -3.39833 0
M  V30 15042 C 1462.55 -2.62662 -3.73975 0
M  V30 15043 C 1463.54 -3.60913 -3.74216 0
M  V30 15044 C 1461.23 -2.9848 -4.03999 0
M  V30 15045 C 1463.22 -4.93012 -4.04002 0
M  V30 15046 C 1460.91 -4.30773 -4.33448 0
M  V30 15047 C 1461.91 -5.27849 -4.33433 0
M  V30 15048 O 1461.6 -6.57765 -4.6217 0
M  V30 15049 H 1461.33 -0.299687 -0.60594 0
M  V30 15050 H 1463.88 -1.44498 -1.45978 0
M  V30 15051 H 1462.11 -0.502458 -3.83422 0
M  V30 15052 H 1463.8 -0.902831 -3.95732 0
M  V30 15053 H 1464.57 -3.34585 -3.5111 0
M  V30 15054 H 1460.45 -2.23561 -4.03164 0
M  V30 15055 H 1463.99 -5.68776 -4.03906 0
M  V30 15056 H 1459.89 -4.5685 -4.56024 0
M  V30 15057 H 1460.66 -6.63057 -4.79893 0
M  V30 15058 N 1463.32 1.31536 -0.86811 0
M  V30 15059 C 1464.6 1.9149 -0.398866 0
M  V30 15060 C 1464.98 1.79008 1.1189 0
M  V30 15061 O 1464.32 1.19659 1.94664 0
M  V30 15062 C 1464.53 3.37771 -0.878173 0
M  V30 15063 C 1465.88 4.14882 -0.903216 0
M  V30 15064 O 1466.91 3.46545 -0.823703 0
M  V30 15065 O 1465.77 5.36936 -1.01794 0
M  V30 15066 H 1462.86 0.818398 -0.118971 0
M  V30 15067 H 1465.41 1.40216 -0.955899 0
M  V30 15068 H 1464.18 3.40861 -1.9217 0
M  V30 15069 H 1463.8 3.96472 -0.299346 0
M  V30 15070 N 1464.8 0.627364 1.44575 0
M  V30 15071 C 1466.02 0.135576 2.06956 0
M  V30 15072 C 1466.45 -1.17922 1.46547 0
M  V30 15073 O 1465.81 -1.72255 0.565509 0
M  V30 15074 C 1465.85 0.030347 3.60587 0
M  V30 15075 O 1464.96 -1.01464 3.99724 0
M  V30 15076 H 1464.3 0.083058 0.658785 0
M  V30 15077 H 1466.83 0.862977 1.8551 0
M  V30 15078 H 1466.84 -0.161461 4.0768 0
M  V30 15079 H 1465.51 0.990285 4.03938 0
M  V30 15080 H 1464.09 -0.797701 3.64268 0
M  V30 15081 N 1466.28 -1.53251 0.367684 0
M  V30 15082 C 1467.22 -2.27318 -0.4929 0
M  V30 15083 C 1468.22 -1.30376 -1.08159 0
M  V30 15084 O 1469.42 -1.47996 -1.02455 0
M  V30 15085 H 1465.8 -0.730709 -0.177677 0
M  V30 15086 H 1467.77 -2.98005 0.153525 0
M  V30 15087 C 1466.52 -3.07678 -1.61955 0
M  V30 15088 H 1465.84 -3.82117 -1.17587 0
M  V30 15089 H 1467.28 -3.62678 -2.19638 0
M  V30 15090 C 1465.74 -2.18648 -2.5631 0
M  V30 15091 O 1466.27 -1.79869 -3.5918 0
M  V30 15092 N 1464.48 -1.83239 -2.25548 0
M  V30 15093 H 1464.02 -2.14973 -1.4193 0
M  V30 15094 H 1463.98 -1.23957 -2.88933 0
M  V30 15095 N 1467.75 -0.0969077 -1.57302 0
M  V30 15096 C 1468.98 0.578086 -1.99181 0
M  V30 15097 C 1469.4 1.60818 -0.975667 0
M  V30 15098 O 1468.76 1.81215 0.0556054 0
M  V30 15099 C 1468.81 1.20076 -3.40021 0
M  V30 15100 O 1467.91 2.31656 -3.41188 0
M  V30 15101 H 1467.25 0.146506 -0.647636 0
M  V30 15102 H 1469.78 -0.178855 -2.03817 0
M  V30 15103 H 1469.79 1.54162 -3.77754 0
M  V30 15104 H 1468.47 0.446114 -4.135 0
M  V30 15105 H 1467.05 1.99175 -3.15252 0
M  V30 15106 N 1469.23 1.56605 0.176793 0
M  V30 15107 C 1470.14 1.99211 1.23903 0
M  V30 15108 C 1471.16 0.902614 1.48758 0
M  V30 15109 O 1472.33 1.20982 1.61014 0
M  V30 15110 C 1469.4 2.33873 2.55938 0
M  V30 15111 C 1468.46 3.56624 2.38994 0
M  V30 15112 C 1467.69 3.89623 3.64733 0
M  V30 15113 O 1467.92 3.23662 4.6968 0
M  V30 15114 O 1466.85 4.82992 3.5917 0
M  V30 15115 H 1470.68 2.89827 0.907398 0
M  V30 15116 H 1468.26 1.44401 0.383234 0
M  V30 15117 H 1470.14 2.57161 3.33836 0
M  V30 15118 H 1468.82 1.46421 2.88691 0
M  V30 15119 H 1467.72 3.38561 1.59146 0
M  V30 15120 H 1469.06 4.446 2.11167 0
M  V30 15121 N 1470.71 -0.445159 1.51182 0
M  V30 15122 C 1471.62 -1.5651 1.74762 0
M  V30 15123 C 1472.64 -1.62134 0.631542 0
M  V30 15124 O 1473.81 -1.79522 0.912898 0
M  V30 15125 C 1470.88 -2.92552 1.86049 0
M  V30 15126 C 1469.94 -2.97108 3.0988 0
M  V30 15127 C 1469.17 -4.2666 3.2062 0
M  V30 15128 O 1469.39 -5.18608 2.37491 0
M  V30 15129 O 1468.33 -4.3734 4.13542 0
M  V30 15130 H 1472.15 -1.3953 2.6975 0
M  V30 15131 H 1469.74 -0.627363 1.3559 0
M  V30 15132 H 1471.62 -3.73304 1.95504 0
M  V30 15133 H 1470.3 -3.09676 0.94248 0
M  V30 15134 H 1469.2 -2.15338 3.05909 0
M  V30 15135 H 1470.54 -2.84927 4.01345 0
M  V30 15136 N 1472.19 -1.41197 -0.700089 0
M  V30 15137 C 1473.15 -1.42419 -1.79582 0
M  V30 15138 C 1474.15 -0.31551 -1.57674 0
M  V30 15139 O 1475.34 -0.575173 -1.64431 0
M  V30 15140 C 1472.47 -1.23114 -3.17893 0
M  V30 15141 H 1473.67 -2.39956 -1.79892 0
M  V30 15142 H 1471.22 -1.27273 -0.907271 0
M  V30 15143 H 1471.95 -0.263992 -3.23224 0
M  V30 15144 H 1471.74 -2.03437 -3.35195 0
M  V30 15145 H 1473.23 -1.26793 -3.97886 0
M  V30 15146 N 1473.67 0.933891 -1.2695 0
M  V30 15147 C 1474.6 2.05078 -1.11649 0
M  V30 15148 C 1475.58 1.70089 -0.0196463 0
M  V30 15149 O 1476.76 1.93239 -0.193007 0
M  V30 15150 C 1473.89 3.38963 -0.756387 0
M  V30 15151 C 1472.85 3.88041 -1.80577 0
M  V30 15152 C 1472.17 5.18661 -1.2998 0
M  V30 15153 C 1473.47 4.12116 -3.2087 0
M  V30 15154 H 1475.17 2.18137 -2.05077 0
M  V30 15155 H 1472.71 1.04817 -0.987392 0
M  V30 15156 H 1474.66 4.1657 -0.63619 0
M  V30 15157 H 1473.39 3.25901 0.213607 0
M  V30 15158 H 1472.05 3.12622 -1.91477 0
M  V30 15159 H 1471.7 5.01985 -0.319442 0
M  V30 15160 H 1471.4 5.52467 -2.00134 0
M  V30 15161 H 1472.92 5.98844 -1.19242 0
M  V30 15162 H 1474.33 4.80312 -3.13006 0
M  V30 15163 H 1472.73 4.57218 -3.88679 0
M  V30 15164 H 1473.8 3.17633 -3.66384 0
M  V30 15165 N 1475.14 1.08871 1.13951 0
M  V30 15166 C 1476.55 0.841552 1.66658 0
M  V30 15167 C 1476.91 -0.630932 1.85779 0
M  V30 15168 O 1476.03 -1.48673 1.57243 0
M  V30 15169 C 1476.63 1.52109 3.02735 0
M  V30 15170 C 1475.18 1.32105 3.52456 0
M  V30 15171 C 1474.33 1.58084 2.27826 0
M  V30 15172 H 1477.28 1.24865 0.97951 0
M  V30 15173 H 1477.3 0.950978 3.68425 0
M  V30 15174 H 1476.82 2.59276 2.88786 0
M  V30 15175 H 1474.92 0.270294 3.71618 0
M  V30 15176 H 1475.03 2.05197 4.32933 0
M  V30 15177 H 1473.39 1.00264 2.34135 0
M  V30 15178 H 1474.18 2.66467 2.16449 0
M  V30 15179 N 1476.62 -1.31073 0.875073 0
M  V30 15180 C 1477.58 -2.26672 0.339481 0
M  V30 15181 C 1478.58 -1.52416 -0.512439 0
M  V30 15182 O 1479.77 -1.71217 -0.321012 0
M  V30 15183 C 1476.91 -3.36952 -0.517311 0
M  V30 15184 H 1478.1 -2.7556 1.18349 0
M  V30 15185 H 1475.65 -1.42093 0.65109 0
M  V30 15186 H 1476.39 -2.93364 -1.38231 0
M  V30 15187 H 1476.17 -3.9199 0.092773 0
M  V30 15188 H 1477.66 -4.08133 -0.884154 0
M  V30 15189 N 1478.1 -0.635022 -1.4424 0
M  V30 15190 C 1479.33 -0.146549 -2.06882 0
M  V30 15191 C 1479.75 1.17143 -1.4717 0
M  V30 15192 O 1479.11 1.71952 -0.574636 0
M  V30 15193 C 1479.16 -0.0494694 -3.60566 0
M  V30 15194 O 1478.26 0.993423 -4.00256 0
M  V30 15195 H 1477.6 -0.0865505 -0.658335 0
M  V30 15196 H 1480.13 -0.872803 -1.85049 0
M  V30 15197 H 1480.14 0.139839 -4.0776 0
M  V30 15198 H 1478.82 -1.01169 -4.03407 0
M  V30 15199 H 1477.39 0.778372 -3.64686 0
M  V30 15200 N 1479.58 1.53054 -0.375806 0
M  V30 15201 C 1480.83 2.01003 0.210257 0
M  V30 15202 C 1481.15 1.26451 1.48442 0
M  V30 15203 O 1480.42 0.380687 1.92166 0
M  V30 15204 H 1479 0.74263 0.0806861 0
M  V30 15205 H 1481.66 1.8826 -0.504393 0
M  V30 15206 H 1480.76 3.09123 0.430027 0
M  V30 15207 N 1481.06 0.105248 1.57248 0
M  V30 15208 C 1482 -0.850012 2.14577 0
M  V30 15209 C 1482.97 -1.27294 1.06703 0
M  V30 15210 O 1484.16 -1.35289 1.34542 0
M  V30 15211 C 1481.3 -2.09993 2.73856 0
M  V30 15212 C 1480.41 -1.72662 3.95995 0
M  V30 15213 C 1479.55 -2.92517 4.43404 0
M  V30 15214 C 1478.59 -2.5136 5.58108 0
M  V30 15215 N 1477.72 -3.64082 6.00324 0
M  V30 15216 H 1482.56 -0.354282 2.95887 0
M  V30 15217 H 1480.1 -0.163192 1.46192 0
M  V30 15218 H 1482.06 -2.83208 3.06348 0
M  V30 15219 H 1480.69 -2.57048 1.95259 0
M  V30 15220 H 1479.74 -0.893754 3.69752 0
M  V30 15221 H 1481.05 -1.38406 4.79213 0
M  V30 15222 H 1480.21 -3.73973 4.77734 0
M  V30 15223 H 1478.94 -3.2999 3.59107 0
M  V30 15224 H 1477.95 -1.68333 5.23397 0
M  V30 15225 H 1479.17 -2.15019 6.44161 0
M  V30 15226 H 1477.12 -4.01255 5.18971 0
M  V30 15227 H 1477.04 -3.33705 6.78363 0
M  V30 15228 H 1478.31 -4.46019 6.39287 0
M  V30 15229 N 1482.53 -1.56697 -0.168486 0
M  V30 15230 C 1483.76 -1.86652 -0.904195 0
M  V30 15231 C 1484.18 -0.691906 -1.74912 0
M  V30 15232 O 1483.54 0.358971 -1.77711 0
M  V30 15233 C 1483.59 -3.15043 -1.75442 0
M  V30 15234 O 1482.69 -2.97466 -2.85636 0
M  V30 15235 H 1482.04 -0.613859 -0.253128 0
M  V30 15236 H 1484.57 -2.03927 -0.165773 0
M  V30 15237 H 1484.58 -3.4652 -2.15378 0
M  V30 15238 H 1483.25 -4.00147 -1.13381 0
M  V30 15239 H 1481.83 -2.7735 -2.49262 0
M  V30 15240 N 1484.01 0.437135 -1.51416 0
M  V30 15241 C 1484.96 1.53061 -1.72745 0
M  V30 15242 C 1485.93 1.56045 -0.569149 0
M  V30 15243 O 1487.11 1.73052 -0.803602 0
M  V30 15244 C 1484.25 2.90774 -1.85861 0
M  V30 15245 C 1483.37 2.97318 -3.1341 0
M  V30 15246 C 1482.5 4.26156 -3.1712 0
M  V30 15247 C 1481.54 4.26568 -4.38983 0
M  V30 15248 N 1480.68 5.4693 -4.40241 0
M  V30 15249 H 1485.52 1.34177 -2.66084 0
M  V30 15250 H 1483.06 0.651803 -1.31871 0
M  V30 15251 H 1485.01 3.7068 -1.91447 0
M  V30 15252 H 1483.64 3.08216 -0.959306 0
M  V30 15253 H 1482.7 2.10074 -3.17132 0
M  V30 15254 H 1484.01 2.93485 -4.03321 0
M  V30 15255 H 1483.16 5.14435 -3.21623 0
M  V30 15256 H 1481.9 4.32646 -2.25098 0
M  V30 15257 H 1480.91 3.36681 -4.34656 0
M  V30 15258 H 1482.13 4.21741 -5.3227 0
M  V30 15259 H 1480.08 5.54141 -3.51089 0
M  V30 15260 H 1479.99 5.44977 -5.23962 0
M  V30 15261 H 1481.26 6.37241 -4.48937 0
M  V30 15262 N 1485.49 1.41566 0.692592 0
M  V30 15263 C 1486.72 1.44236 1.47917 0
M  V30 15264 C 1487.13 0.0469112 1.89142 0
M  V30 15265 O 1486.47 -0.944788 1.57542 0
M  V30 15266 C 1486.53 2.29056 2.7708 0
M  V30 15267 C 1486.2 3.77179 2.58041 0
M  V30 15268 C 1487.19 4.69267 2.23795 0
M  V30 15269 C 1484.88 4.21253 2.73589 0
M  V30 15270 C 1486.87 6.03419 2.05338 0
M  V30 15271 C 1484.56 5.55469 2.54749 0
M  V30 15272 C 1485.56 6.46368 2.20675 0
M  V30 15273 O 1485.25 7.78107 2.02002 0
M  V30 15274 H 1484.98 0.493237 0.462269 0
M  V30 15275 H 1487.53 1.8653 0.859984 0
M  V30 15276 H 1485.76 1.8158 3.41417 0
M  V30 15277 H 1487.45 2.23392 3.38897 0
M  V30 15278 H 1488.22 4.36506 2.11395 0
M  V30 15279 H 1484.1 3.50804 2.99094 0
M  V30 15280 H 1487.64 6.74333 1.78665 0
M  V30 15281 H 1483.54 5.87809 2.66741 0
M  V30 15282 H 1484.31 7.89282 2.16741 0
M  V30 15283 N 1486.97 -0.927146 1.27443 0
M  V30 15284 C 1487.88 -2.06122 1.12031 0
M  V30 15285 C 1488.89 -1.73928 0.0501979 0
M  V30 15286 O 1490.07 -1.99756 0.256796 0
M  V30 15287 C 1487.14 -3.3805 0.769634 0
M  V30 15288 C 1486.2 -3.83938 1.92068 0
M  V30 15289 C 1485.43 -5.0957 1.58664 0
M  V30 15290 O 1485.65 -5.6825 0.494789 0
M  V30 15291 O 1484.59 -5.50844 2.42599 0
M  V30 15292 H 1488.41 -2.22037 2.07203 0
M  V30 15293 H 1486 -1.04638 1.06636 0
M  V30 15294 H 1487.88 -4.17286 0.587423 0
M  V30 15295 H 1486.55 -3.2334 -0.152557 0
M  V30 15296 H 1485.46 -3.05587 2.15795 0
M  V30 15297 H 1486.79 -4.0319 2.8231 0
M  V30 15298 N 1488.45 -1.09474 -1.13372 0
M  V30 15299 C 1489.41 -0.738173 -2.16988 0
M  V30 15300 C 1490.41 0.232488 -1.5911 0
M  V30 15301 O 1491.6 0.0106093 -1.74197 0
M  V30 15302 C 1488.73 -0.091724 -3.40777 0
M  V30 15303 H 1489.92 -1.65582 -2.50045 0
M  V30 15304 H 1487.48 -0.893994 -1.28209 0
M  V30 15305 H 1488.21 0.837129 -3.13309 0
M  V30 15306 H 1488 -0.790161 -3.84056 0
M  V30 15307 H 1489.49 0.142334 -4.17357 0
M  V30 15308 N 1489.92 1.30607 -0.882012 0
M  V30 15309 C 1490.86 2.26334 -0.291222 0
M  V30 15310 C 1491.84 1.51653 0.586522 0
M  V30 15311 O 1493.02 1.80681 0.537275 0
M  V30 15312 C 1490.15 3.33584 0.586482 0
M  V30 15313 C 1489.19 4.25924 -0.221535 0
M  V30 15314 S 1490.03 5.10791 -1.6079 0
M  V30 15315 C 1491.18 6.2155 -0.736638 0
M  V30 15316 H 1491.41 2.76096 -1.10265 0
M  V30 15317 H 1488.95 1.38558 -0.681255 0
M  V30 15318 H 1490.91 3.95842 1.08715 0
M  V30 15319 H 1489.57 2.82552 1.37198 0
M  V30 15320 H 1488.76 5.02004 0.448139 0
M  V30 15321 H 1488.36 3.68225 -0.654722 0
M  V30 15322 H 1490.65 6.77483 0.0476549 0
M  V30 15323 H 1491.6 6.92696 -1.46894 0
M  V30 15324 H 1492 5.63708 -0.298853 0
M  V30 15325 N 1491.4 0.642663 1.43901 0
M  V30 15326 C 1492.68 0.0821715 1.95427 0
M  V30 15327 C 1493.06 -1.3951 1.58431 0
M  V30 15328 O 1492.41 -2.11531 0.864118 0
M  V30 15329 C 1492.62 0.317229 3.47555 0
M  V30 15330 C 1493.97 0.216547 4.24047 0
M  V30 15331 O 1494.99 0.249216 3.55327 0
M  V30 15332 O 1493.85 0.131269 5.46342 0
M  V30 15333 H 1490.94 -0.0156936 0.826851 0
M  V30 15334 H 1493.49 0.715168 1.53894 0
M  V30 15335 H 1492.26 1.34184 3.67574 0
M  V30 15336 H 1491.88 -0.349348 3.96062 0
M  V30 15337 N 1492.88 -1.52852 0.383918 0
M  V30 15338 C 1494.13 -2.0151 -0.199989 0
M  V30 15339 C 1494.46 -1.27058 -1.47263 0
M  V30 15340 O 1493.71 -0.357819 -1.92401 0
M  V30 15341 C 1494.01 -3.53602 -0.519674 0
M  V30 15342 C 1493.68 -4.46032 0.660789 0
M  V30 15343 C 1492.34 -4.71018 0.984646 0
M  V30 15344 C 1494.69 -5.00602 1.45077 0
M  V30 15345 C 1492.02 -5.47824 2.10013 0
M  V30 15346 C 1494.37 -5.78627 2.55682 0
M  V30 15347 C 1493.03 -6.01894 2.88582 0
M  V30 15348 H 1492.3 -0.737377 -0.0731812 0
M  V30 15349 H 1494.95 -1.843 0.520157 0
M  V30 15350 H 1493.26 -3.68856 -1.32108 0
M  V30 15351 H 1494.95 -3.88739 -0.984011 0
M  V30 15352 H 1491.54 -4.26745 0.398359 0
M  V30 15353 H 1495.73 -4.81228 1.21381 0
M  V30 15354 H 1490.98 -5.64066 2.3588 0
M  V30 15355 H 1495.16 -6.19914 3.173 0
M  V30 15356 H 1492.78 -6.61192 3.75138 0
M  V30 15357 N 1494.36 -0.113586 -1.5719 0
M  V30 15358 C 1495.64 0.588987 -1.86522 0
M  V30 15359 C 1496.02 1.85163 -1.01379 0
M  V30 15360 O 1495.36 2.28318 -0.0912188 0
M  V30 15361 C 1495.57 0.886633 -3.3755 0
M  V30 15362 C 1496.92 1.24206 -4.06027 0
M  V30 15363 O 1497.95 0.977068 -3.42537 0
M  V30 15364 O 1496.81 1.73914 -5.18089 0
M  V30 15365 H 1493.9 0.296637 -0.771968 0
M  V30 15366 H 1496.45 -0.147681 -1.69056 0
M  V30 15367 H 1495.22 -0.00835421 -3.91299 0
M  V30 15368 H 1494.84 1.67865 -3.60426 0
M  V30 15369 N 1495.84 1.56784 0.160173 0
M  V30 15370 C 1497.06 1.87129 0.894283 0
M  V30 15371 C 1497.49 0.701172 1.74543 0
M  V30 15372 O 1496.85 -0.349542 1.77899 0
M  V30 15373 C 1496.89 3.15969 1.73769 0
M  V30 15374 O 1496 2.98977 2.84054 0
M  V30 15375 H 1495.34 0.615192 0.249869 0
M  V30 15376 H 1497.87 2.04012 0.154956 0
M  V30 15377 H 1497.88 3.47657 2.13538 0
M  V30 15378 H 1496.55 4.00742 1.11258 0
M  V30 15379 H 1495.13 2.78668 2.47788 0
M  V30 15380 N 1497.32 -0.429099 1.51646 0
M  V30 15381 C 1498.25 -1.52867 1.76505 0
M  V30 15382 C 1499.23 -1.58586 0.615178 0
M  V30 15383 O 1500.41 -1.74182 0.858742 0
M  V30 15384 C 1497.54 -2.90875 1.8976 0
M  V30 15385 C 1496.5 -3.00014 3.05247 0
M  V30 15386 C 1495.82 -4.40082 3.03696 0
M  V30 15387 C 1497.12 -2.73334 4.45068 0
M  V30 15388 H 1498.82 -1.32315 2.68576 0
M  V30 15389 H 1496.36 -0.635091 1.29238 0
M  V30 15390 H 1498.31 -3.67765 2.05734 0
M  V30 15391 H 1497.04 -3.12677 0.943442 0
M  V30 15392 H 1495.7 -2.25565 2.88991 0
M  V30 15393 H 1495.35 -4.58864 2.06042 0
M  V30 15394 H 1495.05 -4.47125 3.81252 0
M  V30 15395 H 1496.57 -5.18935 3.21774 0
M  V30 15396 H 1497.98 -3.39954 4.61632 0
M  V30 15397 H 1496.38 -2.91777 5.24391 0
M  V30 15398 H 1497.45 -1.68889 4.54538 0
M  V30 15399 N 1498.79 -1.41931 -0.685074 0
M  V30 15400 C 1499.72 -1.47385 -1.81107 0
M  V30 15401 C 1500.7 -0.331433 -1.6684 0
M  V30 15402 O 1501.89 -0.544331 -1.86415 0
M  V30 15403 C 1499.02 -1.36555 -3.19327 0
M  V30 15404 C 1497.97 -2.48718 -3.48315 0
M  V30 15405 C 1497.3 -2.2295 -4.86002 0
M  V30 15406 C 1498.6 -3.91047 -3.46237 0
M  V30 15407 H 1500.29 -2.41624 -1.768 0
M  V30 15408 H 1497.84 -1.16297 -0.849178 0
M  V30 15409 H 1499.79 -1.38981 -3.97822 0
M  V30 15410 H 1498.52 -0.388063 -3.24286 0
M  V30 15411 H 1497.18 -2.45592 -2.72176 0
M  V30 15412 H 1496.82 -1.23518 -4.87598 0
M  V30 15413 H 1496.52 -2.98116 -5.0636 0
M  V30 15414 H 1498.05 -2.27108 -5.66793 0
M  V30 15415 H 1499.46 -3.95831 -4.14718 0
M  V30 15416 H 1497.86 -4.65981 -3.7813 0
M  V30 15417 H 1498.93 -4.1845 -2.45006 0
M  V30 15418 N 1500.27 0.920374 -1.27933 0
M  V30 15419 C 1501.22 2.02196 -1.1129 0
M  V30 15420 C 1502.19 1.66096 -0.0118871 0
M  V30 15421 O 1503.37 1.8999 -0.175586 0
M  V30 15422 C 1500.51 3.36312 -0.77383 0
M  V30 15423 C 1499.63 3.85322 -1.95322 0
M  V30 15424 C 1498.76 5.07919 -1.55537 0
M  V30 15425 C 1497.8 5.49244 -2.7018 0
M  V30 15426 N 1496.94 6.63034 -2.30933 0
M  V30 15427 H 1501.78 2.15764 -2.05548 0
M  V30 15428 H 1499.31 1.05691 -1.02312 0
M  V30 15429 H 1501.27 4.13451 -0.558024 0
M  V30 15430 H 1499.9 3.22531 0.131806 0
M  V30 15431 H 1498.95 3.04399 -2.28135 0
M  V30 15432 H 1500.27 4.11915 -2.81296 0
M  V30 15433 H 1499.42 5.92581 -1.30123 0
M  V30 15434 H 1498.16 4.8312 -0.666818 0
M  V30 15435 H 1497.16 4.63127 -2.96299 0
M  V30 15436 H 1498.39 5.76035 -3.59667 0
M  V30 15437 H 1496.34 6.39878 -1.44539 0
M  V30 15438 H 1496.25 6.89319 -3.10444 0
M  V30 15439 H 1497.52 7.51018 -2.08786 0
M  V30 15440 N 1501.75 1.10074 1.1279 0
M  V30 15441 C 1502.66 0.758458 2.22001 0
M  V30 15442 C 1503.68 -0.242438 1.72303 0
M  V30 15443 O 1504.85 -0.0821223 2.01233 0
M  V30 15444 C 1501.92 0.191326 3.46172 0
M  V30 15445 C 1500.98 1.24902 4.10729 0
M  V30 15446 C 1500.21 0.708857 5.28972 0
M  V30 15447 O 1500.43 -0.465993 5.68493 0
M  V30 15448 O 1499.37 1.46703 5.83748 0
M  V30 15449 H 1503.19 1.66997 2.53665 0
M  V30 15450 H 1500.78 0.875604 1.21052 0
M  V30 15451 H 1502.66 -0.121292 4.21225 0
M  V30 15452 H 1501.34 -0.693094 3.16193 0
M  V30 15453 H 1500.24 1.61444 3.37471 0
M  V30 15454 H 1501.58 2.10632 4.44854 0
M  V30 15455 N 1503.23 -1.30138 0.888926 0
M  V30 15456 C 1504.19 -2.26299 0.363504 0
M  V30 15457 C 1505.19 -1.52951 -0.496244 0
M  V30 15458 O 1506.38 -1.71548 -0.302834 0
M  V30 15459 C 1503.51 -3.37482 -0.481544 0
M  V30 15460 H 1504.71 -2.7429 1.21265 0
M  V30 15461 H 1502.26 -1.41395 0.666124 0
M  V30 15462 H 1502.99 -2.94814 -1.35112 0
M  V30 15463 H 1502.78 -3.9187 0.134344 0
M  V30 15464 H 1504.27 -4.09048 -0.840816 0
M  V30 15465 N 1504.71 -0.650285 -1.43559 0
M  V30 15466 C 1505.64 0.0817484 -2.29054 0
M  V30 15467 C 1506.65 0.790023 -1.42346 0
M  V30 15468 O 1507.84 0.648269 -1.66312 0
M  V30 15469 C 1504.94 1.13873 -3.19196 0
M  V30 15470 C 1504.11 0.509177 -4.34426 0
M  V30 15471 C 1503.17 1.46265 -5.05463 0
M  V30 15472 O 1502.2 0.972378 -5.60833 0
M  V30 15473 N 1503.4 2.79668 -5.08691 0
M  V30 15474 H 1506.16 -0.652062 -2.92521 0
M  V30 15475 H 1503.73 -0.49285 -1.54216 0
M  V30 15476 H 1505.72 1.77732 -3.63584 0
M  V30 15477 H 1504.29 1.77454 -2.5735 0
M  V30 15478 H 1503.51 -0.308444 -3.92991 0
M  V30 15479 H 1504.8 0.0695732 -5.08752 0
M  V30 15480 H 1504.19 3.22062 -4.65072 0
M  V30 15481 H 1502.75 3.38838 -5.56805 0
M  V30 15482 N 1506.18 1.52647 -0.392018 0
M  V30 15483 C 1507.12 2.24183 0.476934 0
M  V30 15484 C 1508.13 1.26526 1.02446 0
M  V30 15485 O 1509.32 1.52583 0.92632 0
M  V30 15486 C 1506.42 2.94672 1.67397 0
M  V30 15487 C 1505.59 4.19058 1.25335 0
M  V30 15488 C 1504.65 4.72522 2.31537 0
M  V30 15489 O 1503.68 5.35541 1.92833 0
M  V30 15490 N 1504.88 4.52613 3.63486 0
M  V30 15491 H 1507.64 2.99391 -0.135963 0
M  V30 15492 H 1505.2 1.60419 -0.218514 0
M  V30 15493 H 1507.2 3.27338 2.37975 0
M  V30 15494 H 1505.77 2.22755 2.19315 0
M  V30 15495 H 1504.99 3.92399 0.376352 0
M  V30 15496 H 1506.27 4.99871 0.94901 0
M  V30 15497 H 1505.67 4.02316 3.97692 0
M  V30 15498 H 1504.23 4.89761 4.3009 0
M  V30 15499 N 1507.66 0.121921 1.57128 0
M  V30 15500 C 1508.89 -0.546325 2.00075 0
M  V30 15501 C 1509.31 -1.59245 1.00113 0
M  V30 15502 O 1508.67 -1.8128 -0.0267687 0
M  V30 15503 C 1508.72 -1.14651 3.41888 0
M  V30 15504 O 1507.82 -2.26199 3.4483 0
M  V30 15505 H 1507.16 -0.136184 0.649885 0
M  V30 15506 H 1509.69 0.211257 2.03506 0
M  V30 15507 H 1509.7 -1.48133 3.80159 0
M  V30 15508 H 1508.38 -0.380273 4.14158 0
M  V30 15509 H 1506.96 -1.94134 3.18381 0
M  V30 15510 N 1509.14 -1.56867 -0.151857 0
M  V30 15511 C 1510.07 -2.00932 -1.18949 0
M  V30 15512 C 1511.05 -0.888062 -1.45077 0
M  V30 15513 O 1512.24 -1.15553 -1.56081 0
M  V30 15514 C 1509.37 -2.3858 -2.52383 0
M  V30 15515 C 1508.32 -3.53845 -2.40785 0
M  V30 15516 C 1507.65 -3.77292 -3.78886 0
M  V30 15517 C 1508.95 -4.8667 -1.89605 0
M  V30 15518 H 1510.64 -2.87863 -0.823107 0
M  V30 15519 H 1508.19 -1.38491 -0.394499 0
M  V30 15520 H 1510.14 -2.68006 -3.25193 0
M  V30 15521 H 1508.86 -1.48579 -2.90847 0
M  V30 15522 H 1507.52 -3.24577 -1.70427 0
M  V30 15523 H 1507.17 -2.84551 -4.14777 0
M  V30 15524 H 1506.87 -4.54861 -3.71989 0
M  V30 15525 H 1508.39 -4.09139 -4.53252 0
M  V30 15526 H 1509.81 -5.14846 -2.52204 0
M  V30 15527 H 1508.21 -5.6801 -1.93609 0
M  V30 15528 H 1509.28 -4.77366 -0.851438 0
M  V30 15529 N 1510.62 0.421051 -1.51871 0
M  V30 15530 C 1511.57 1.51101 -1.70741 0
M  V30 15531 C 1512.55 1.50792 -0.561305 0
M  V30 15532 O 1513.74 1.5697 -0.817894 0
M  V30 15533 C 1510.87 2.89145 -1.85067 0
M  V30 15534 C 1509.96 2.94148 -3.05512 0
M  V30 15535 N 1510.35 2.68866 -4.28421 0
M  V30 15536 C 1508.65 3.25314 -3.05101 0
M  V30 15537 C 1509.35 2.80131 -5.09805 0
M  V30 15538 N 1508.33 3.12501 -4.44797 0
M  V30 15539 H 1512.13 1.30331 -2.63422 0
M  V30 15540 H 1509.64 0.628598 -1.49741 0
M  V30 15541 H 1511.64 3.6758 -1.96699 0
M  V30 15542 H 1510.3 3.10923 -0.935788 0
M  V30 15543 H 1511.31 2.43485 -4.57094 0
M  V30 15544 H 1507.99 3.52762 -2.23306 0
M  V30 15545 H 1509.38 2.64401 -6.17691 0
M  V30 15546 O 1512.14 1.51224 0.566886 0
M  V30 15547 H 1512.83 1.50292 1.22196 0
M  V30 END ATOM
M  V30 BEGIN BOND
M  V30 END BOND
M  V30 END CTAB
M  END
$$$$
