drugbank_target|Q87MW5 Uncharacterized protein (DB02580)
 OpenBabel12092120513D

  0  0  0     0  0            999 V3000
M  V30 BEGIN CTAB
M  V30 COUNTS 3363 3406 0 0 0
M  V30 BEGIN ATOM
M  V30 1 H -0.908 1.98254 -0.117106 0
M  V30 2 N 0 1.576 0 0
M  V30 3 C 0.933 2.03868 1.02534 0
M  V30 4 C 1.911 0.928543 1.3348 0
M  V30 5 O 3.095 1.19667 1.45644 0
M  V30 6 C 0.222 2.43627 2.35294 0
M  V30 7 C -0.732 3.65373 2.2001 0
M  V30 8 S 0.101 5.13292 1.52614 0
M  V30 9 C 1.257 5.56322 2.86805 0
M  V30 10 H 1.49 2.90518 0.631377 0
M  V30 11 H -0.977 1.52953 0.210867 0
M  V30 12 H 0.981 2.67203 3.11629 0
M  V30 13 H -0.358 1.57376 2.7183 0
M  V30 14 H -1.165 3.90944 3.18086 0
M  V30 15 H -1.563 3.418 1.51819 0
M  V30 16 H 0.729 5.58782 3.83104 0
M  V30 17 H 1.672 6.56266 2.65933 0
M  V30 18 H 2.08 4.83886 2.90714 0
M  V30 19 N 1.4781 -0.272755 1.55222 0
M  V30 20 C 2.4261 -1.35705 1.88909 0
M  V30 21 C 3.4201 -1.5112 0.765456 0
M  V30 22 O 4.6261 -1.52901 0.949802 0
M  V30 23 H 1.0011 -0.453868 0.59959 0
M  V30 24 H 2.9721 -1.04544 2.79487 0
M  V30 25 C 1.7211 -2.71049 2.17779 0
M  V30 26 H 1.0441 -2.59979 3.03728 0
M  V30 27 H 2.4841 -3.45858 2.45272 0
M  V30 28 C 0.9431 -3.22165 0.985473 0
M  V30 29 O 1.4731 -4.01096 0.220233 0
M  V30 30 N -0.3209 -2.7985 0.783108 0
M  V30 31 H -0.7739 -2.15775 1.40708 0
M  V30 32 H -0.8159 -3.14397 -0.0130392 0
M  V30 33 N 2.9562 -1.48159 -0.537278 0
M  V30 34 C 4.2052 -1.5506 -1.28993 0
M  V30 35 C 4.5182 -0.226211 -1.94288 0
M  V30 36 O 5.7242 -0.173395 -2.70946 0
M  V30 37 C 4.1802 -2.73429 -2.34018 0
M  V30 38 C 3.7882 -4.1248 -1.74825 0
M  V30 39 C 5.5322 -2.89638 -3.10339 0
M  V30 40 C 3.4392 -5.22121 -2.77747 0
M  V30 41 H 2.3692 -0.577231 -0.485098 0
M  V30 42 H 5.0202 -1.74478 -0.568317 0
M  V30 43 H 3.4022 -2.47431 -3.09182 0
M  V30 44 H 4.5762 -4.48466 -1.05899 0
M  V30 45 H 2.8912 -4.01327 -1.11022 0
M  V30 46 H 5.4882 -3.68718 -3.87235 0
M  V30 47 H 5.8312 -1.9882 -3.65754 0
M  V30 48 H 6.3642 -3.15502 -2.42288 0
M  V30 49 H 3.1032 -6.1488 -2.27161 0
M  V30 50 H 2.6232 -4.90631 -3.45024 0
M  V30 51 H 4.3022 -5.49924 -3.4087 0
M  V30 52 N 4.4343 0.785586 -1.36625 0
M  V30 53 C 5.3813 1.89838 -1.31264 0
M  V30 54 C 6.3513 1.65115 -0.180633 0
M  V30 55 O 7.5363 1.87222 -0.36777 0
M  V30 56 C 4.6763 3.26706 -1.11163 0
M  V30 57 C 3.7893 3.63476 -2.33472 0
M  V30 58 C 2.9243 4.89481 -2.06353 0
M  V30 59 C 1.9633 5.18941 -3.24602 0
M  V30 60 N 1.1003 6.36131 -2.97123 0
M  V30 61 H 5.9403 1.93756 -2.26413 0
M  V30 62 H 3.4773 0.947454 -1.12524 0
M  V30 63 H 5.4353 4.05639 -0.975337 0
M  V30 64 H 4.0653 3.222 -0.196674 0
M  V30 65 H 3.1173 2.79636 -2.57891 0
M  V30 66 H 4.4293 3.81193 -3.21704 0
M  V30 67 H 3.5833 5.76288 -1.89675 0
M  V30 68 H 2.3223 4.73841 -1.15437 0
M  V30 69 H 1.3273 4.30615 -3.41834 0
M  V30 70 H 2.5523 5.36498 -4.16349 0
M  V30 71 H 0.4983 6.21875 -2.08823 0
M  V30 72 H 0.4153 6.54198 -3.78894 0
M  V30 73 H 1.6833 7.2591 -2.84033 0
M  V30 74 N 5.9124 1.20967 1.01018 0
M  V30 75 C 6.8424 0.988272 2.11555 0
M  V30 76 C 7.8234 -0.0849778 1.69888 0
M  V30 77 O 9.0084 0.0738202 1.9406 0
M  V30 78 C 6.1384 0.546528 3.42973 0
M  V30 79 C 5.0924 1.56375 3.9841 0
M  V30 80 C 4.4184 0.97842 5.25672 0
M  V30 81 C 5.7184 2.94922 4.31066 0
M  V30 82 H 7.4124 1.91276 2.30334 0
M  V30 83 H 4.9584 0.921073 1.1069 0
M  V30 84 H 6.9114 0.378839 4.19694 0
M  V30 85 H 5.6354 -0.413598 3.23971 0
M  V30 86 H 4.2944 1.71891 3.23804 0
M  V30 87 H 3.9424 0.0101688 5.02999 0
M  V30 88 H 3.6424 1.65784 5.63728 0
M  V30 89 H 5.1664 0.821939 6.05043 0
M  V30 90 H 6.5804 2.8288 4.9865 0
M  V30 91 H 4.9774 3.5983 4.80253 0
M  V30 92 H 6.0474 3.4616 3.39561 0
M  V30 93 N 7.3905 -1.2043 1.01659 0
M  V30 94 C 8.6205 -1.93496 0.724081 0
M  V30 95 C 9.0285 -1.74998 -0.71918 0
M  V30 96 O 8.3715 -1.06118 -1.49949 0
M  V30 97 C 8.4335 -3.45886 0.97994 0
M  V30 98 C 8.0975 -3.88145 2.41232 0
M  V30 99 C 9.0945 -3.93907 3.39313 0
M  V30 100 C 6.7795 -4.20134 2.75305 0
M  V30 101 C 8.7735 -4.31069 4.6953 0
M  V30 102 C 6.4605 -4.56971 4.05735 0
M  V30 103 C 7.4585 -4.62411 5.02658 0
M  V30 104 O 7.1465 -4.98403 6.30754 0
M  V30 105 H 6.8785 -0.621824 0.265162 0
M  V30 106 H 9.4325 -1.53867 1.36066 0
M  V30 107 H 7.6625 -3.85639 0.286198 0
M  V30 108 H 9.3515 -4.0018 0.679021 0
M  V30 109 H 10.1175 -3.69357 3.14325 0
M  V30 110 H 5.9965 -4.1509 2.00551 0
M  V30 111 H 9.5405 -4.3523 5.45179 0
M  V30 112 H 5.4375 -4.80977 4.30502 0
M  V30 113 H 6.2055 -5.16395 6.35042 0
M  V30 114 N 8.8686 -0.792821 -1.36206 0
M  V30 115 C 10.0986 -0.378275 -2.03107 0
M  V30 116 C 10.5066 1.01119 -1.59911 0
M  V30 117 O 9.8496 1.66052 -0.785658 0
M  V30 118 C 9.9116 -0.366535 -3.57627 0
M  V30 119 C 9.5756 -1.70416 -4.24037 0
M  V30 120 C 10.5726 -2.6602 -4.46687 0
M  V30 121 C 8.2576 -1.98439 -4.6144 0
M  V30 122 C 10.2516 -3.8784 -5.05825 0
M  V30 123 C 7.9386 -3.20525 -5.20295 0
M  V30 124 C 8.9366 -4.15044 -5.42427 0
M  V30 125 O 8.6246 -5.34978 -6.00045 0
M  V30 126 H 8.3566 -0.153543 -0.658332 0
M  V30 127 H 10.9106 -1.07383 -1.75094 0
M  V30 128 H 9.1406 0.385539 -3.84773 0
M  V30 129 H 10.8296 0.0238088 -4.05893 0
M  V30 130 H 11.5956 -2.45658 -4.18183 0
M  V30 131 H 7.4746 -1.25686 -4.43536 0
M  V30 132 H 11.0186 -4.61628 -5.23015 0
M  V30 133 H 6.9156 -3.40764 -5.48225 0
M  V30 134 H 7.6836 -5.36088 -6.18508 0
M  V30 135 N 10.3467 1.47872 -0.545128 0
M  V30 136 C 11.5927 2.02793 -0.0166104 0
M  V30 137 C 11.9257 1.41987 1.32489 0
M  V30 138 O 11.2007 0.571045 1.85928 0
M  V30 139 C 11.4837 3.59989 0.0893294 0
M  V30 140 C 11.3367 4.3125 -1.27841 0
M  V30 141 C 12.6557 4.32606 0.808724 0
M  V30 142 H 9.7747 0.736962 -0.00751035 0
M  V30 143 H 12.4167 1.76433 -0.705085 0
M  V30 144 H 10.5667 3.82579 0.675681 0
M  V30 145 H 12.2387 4.20035 -1.90704 0
M  V30 146 H 10.4817 3.92076 -1.85632 0
M  V30 147 H 11.1527 5.39736 -1.15713 0
M  V30 148 H 13.6287 4.14936 0.310992 0
M  V30 149 H 12.5047 5.42251 0.851782 0
M  V30 150 H 12.7657 4.00963 1.86229 0
M  V30 151 N 11.8248 0.280983 1.55075 0
M  V30 152 C 12.7748 -0.618585 2.19448 0
M  V30 153 C 13.7588 -1.11401 1.16098 0
M  V30 154 O 14.9508 -1.0581 1.41891 0
M  V30 155 C 12.0798 -1.79951 2.92357 0
M  V30 156 C 11.1658 -1.321 4.03002 0
M  V30 157 N 11.5568 -0.559044 5.02701 0
M  V30 158 C 9.8548 -1.60346 4.16179 0
M  V30 159 C 10.5558 -0.306722 5.80891 0
M  V30 160 N 9.5318 -0.880825 5.36416 0
M  V30 161 H 13.3338 -0.0286638 2.93886 0
M  V30 162 H 10.8478 0.0848104 1.62178 0
M  V30 163 H 12.8448 -2.45531 3.36927 0
M  V30 164 H 11.5048 -2.39333 2.19431 0
M  V30 165 H 12.5158 -0.205827 5.17491 0
M  V30 166 H 9.1928 -2.20621 3.54447 0
M  V30 167 H 10.5828 0.30391 6.71212 0
M  V30 168 N 13.3029 -1.57598 0.00835791 0
M  V30 169 C 14.5799 -1.82172 -0.712235 0
M  V30 170 C 14.9599 -0.887873 -1.9152 0
M  V30 171 O 14.3079 0.06146 -2.28417 0
M  V30 172 C 14.5179 -3.30875 -1.11008 0
M  V30 173 C 15.8659 -3.96826 -1.51044 0
M  V30 174 O 16.8899 -3.35248 -1.20364 0
M  V30 175 O 15.7489 -5.05318 -2.08125 0
M  V30 176 H 12.8429 -0.750435 -0.347529 0
M  V30 177 H 15.3889 -1.69665 0.0344523 0
M  V30 178 H 14.1609 -3.90481 -0.252982 0
M  V30 179 H 13.7839 -3.48412 -1.9156 0
M  V30 180 N 14.781 0.264519 -1.55364 0
M  V30 181 C 16.192 0.834936 -1.6699 0
M  V30 182 C 16.543 1.86718 -0.602552 0
M  V30 183 O 15.668 2.14899 0.254425 0
M  V30 184 C 16.263 1.5212 -3.02729 0
M  V30 185 C 14.822 2.03954 -3.16354 0
M  V30 186 C 13.969 0.884498 -2.62815 0
M  V30 187 H 16.92 0.0406869 -1.58648 0
M  V30 188 H 16.941 2.38853 -2.96191 0
M  V30 189 H 16.453 0.769668 -3.80392 0
M  V30 190 H 14.554 2.82041 -2.43482 0
M  V30 191 H 14.667 2.24902 -4.23032 0
M  V30 192 H 13.031 1.2802 -2.20188 0
M  V30 193 H 13.814 0.14634 -3.42988 0
M  V30 194 N 16.2591 1.48442 0.529413 0
M  V30 195 C 17.1921 1.57577 1.65059 0
M  V30 196 C 18.1701 0.426198 1.56915 0
M  V30 197 O 19.3541 0.637877 1.77379 0
M  V30 198 C 16.4811 1.5043 3.03461 0
M  V30 199 C 15.5271 2.70235 3.29962 0
M  V30 200 S 16.3601 4.32198 3.16172 0
M  V30 201 C 17.5161 4.2765 4.57019 0
M  V30 202 H 17.7491 2.52427 1.5706 0
M  V30 203 H 15.2821 1.36982 0.712417 0
M  V30 204 H 17.2401 1.46992 3.8328 0
M  V30 205 H 15.9011 0.569167 3.089 0
M  V30 206 H 15.0941 2.61374 4.30929 0
M  V30 207 H 14.6961 2.70938 2.57815 0
M  V30 208 H 16.9881 3.97618 5.48549 0
M  V30 209 H 17.9311 5.28797 4.70934 0
M  V30 210 H 18.3391 3.5811 4.36368 0
M  V30 211 N 17.7372 -0.778329 1.37039 0
M  V30 212 C 18.9772 -1.54973 1.33276 0
M  V30 213 C 19.3412 -1.91816 -0.0839376 0
M  V30 214 O 20.5422 -2.6767 -0.246228 0
M  V30 215 C 18.8132 -2.78517 2.23971 0
M  V30 216 S 20.3722 -3.6865 2.37997 0
M  V30 217 H 17.1902 -0.530639 0.473226 0
M  V30 218 H 19.7922 -0.915806 1.72723 0
M  V30 219 H 18.4962 -2.4952 3.25835 0
M  V30 220 H 18.0272 -3.46875 1.85584 0
M  V30 221 H 20.0422 -4.70182 1.58567 0
M  V30 222 N 19.2153 -1.21501 -1.00376 0
M  V30 223 C 20.4403 -1.05977 -1.78279 0
M  V30 224 C 20.8653 0.385994 -1.84097 0
M  V30 225 O 20.2233 1.27849 -1.28547 0
M  V30 226 C 20.2713 -1.66302 -3.19963 0
M  V30 227 O 19.3753 -0.909333 -4.0225 0
M  V30 228 H 18.7163 -0.372906 -0.549397 0
M  V30 229 H 21.2463 -1.6107 -1.26165 0
M  V30 230 H 21.2563 -1.70574 -3.70632 0
M  V30 231 H 19.9313 -2.71515 -3.15043 0
M  V30 232 H 18.5083 -0.941795 -3.60811 0
M  V30 233 N 20.6934 1.19889 -1.02296 0
M  V30 234 C 21.9394 1.89973 -0.726759 0
M  V30 235 C 22.2944 1.7776 0.73614 0
M  V30 236 O 21.5874 1.15523 1.52856 0
M  V30 237 C 21.7814 3.39883 -1.10518 0
M  V30 238 C 21.6104 3.66684 -2.60332 0
M  V30 239 C 20.3804 3.85045 -3.27213 0
M  V30 240 C 22.5784 3.68727 -3.58532 0
M  V30 241 N 20.5604 3.99422 -4.66192 0
M  V30 242 C 21.9314 3.88604 -4.83101 0
M  V30 243 C 23.9864 3.51722 -3.52414 0
M  V30 244 C 22.6894 3.9324 -6.02292 0
M  V30 245 C 24.7154 3.57632 -4.71013 0
M  V30 246 C 24.0774 3.77988 -5.94394 0
M  V30 247 H 20.1764 0.714551 -0.317712 0
M  V30 248 H 22.7604 1.44123 -1.30907 0
M  V30 249 H 20.9314 3.8447 -0.551142 0
M  V30 250 H 22.6634 3.97464 -0.761853 0
M  V30 251 H 19.4184 3.83689 -2.77632 0
M  V30 252 H 19.8424 4.10473 -5.38368 0
M  V30 253 H 24.4844 3.34945 -2.58015 0
M  V30 254 H 22.2024 4.08811 -6.97065 0
M  V30 255 H 25.7884 3.45773 -4.67902 0
M  V30 256 H 24.6684 3.82428 -6.8463 0
M  V30 257 N 22.1715 0.800033 1.35784 0
M  V30 258 C 23.4115 0.382891 2.00782 0
M  V30 259 C 23.7755 -1.02891 1.62103 0
M  V30 260 O 24.9765 -1.54771 2.19771 0
M  V30 261 C 23.2475 0.553299 3.53091 0
M  V30 262 S 24.8065 0.225608 4.3822 0
M  V30 263 H 21.6245 0.145737 0.695904 0
M  V30 264 H 24.2265 1.04085 1.65489 0
M  V30 265 H 22.9305 1.58091 3.78729 0
M  V30 266 H 22.4615 -0.120214 3.93216 0
M  V30 267 H 24.4765 -0.969074 4.86645 0
M  V30 268 N 23.6496 -1.47581 0.552962 0
M  V30 269 C 24.8956 -2.03369 0.0355807 0
M  V30 270 C 25.2506 -1.42016 -1.29805 0
M  V30 271 O 24.5436 -0.564917 -1.83083 0
M  V30 272 C 24.7376 -3.57199 -0.119728 0
M  V30 273 C 24.5666 -4.33468 1.1973 0
M  V30 274 C 23.3366 -4.7353 1.76345 0
M  V30 275 C 25.5346 -4.68866 2.11351 0
M  V30 276 N 23.5166 -5.34426 3.02097 0
M  V30 277 C 24.8876 -5.3002 3.21681 0
M  V30 278 C 26.9426 -4.50795 2.11397 0
M  V30 279 C 25.6456 -5.75011 4.32151 0
M  V30 280 C 27.6716 -4.96782 3.20876 0
M  V30 281 C 27.0336 -5.57981 4.29926 0
M  V30 282 H 23.1326 -0.780058 0.0550806 0
M  V30 283 H 25.7166 -1.80117 0.739315 0
M  V30 284 H 23.8876 -3.80227 -0.792579 0
M  V30 285 H 25.6196 -3.99627 -0.638792 0
M  V30 286 H 22.3746 -4.55352 1.30196 0
M  V30 287 H 22.7986 -5.69421 3.66182 0
M  V30 288 H 27.4406 -4.0284 1.28372 0
M  V30 289 H 25.1586 -6.21959 5.15938 0
M  V30 290 H 28.7446 -4.84573 3.21994 0
M  V30 291 H 27.6246 -5.92918 5.13243 0
M  V30 292 N 25.1277 -0.289203 -1.54924 0
M  V30 293 C 26.3757 0.322879 -1.99504 0
M  V30 294 C 26.6967 1.55313 -1.1791 0
M  V30 295 O 25.9667 1.94001 -0.272097 0
M  V30 296 H 24.5467 0.122291 -0.736922 0
M  V30 297 H 27.2087 -0.397802 -1.90797 0
M  V30 298 H 26.3047 0.603061 -3.06218 0
M  V30 299 N 26.6058 1.57591 -0.0167156 0
M  V30 300 C 27.8358 1.95292 0.674149 0
M  V30 301 C 28.2438 0.891097 1.66901 0
M  V30 302 O 27.5868 -0.136908 1.83189 0
M  V30 303 C 27.6488 3.29072 1.44747 0
M  V30 304 C 27.3128 4.52879 0.612331 0
M  V30 305 C 28.3098 5.1979 -0.107126 0
M  V30 306 C 25.9948 4.99242 0.553381 0
M  V30 307 C 27.9888 6.31375 -0.874339 0
M  V30 308 C 25.6758 6.10713 -0.217546 0
M  V30 309 C 26.6738 6.76637 -0.930123 0
M  V30 310 O 26.3618 7.85969 -1.68844 0
M  V30 311 H 26.0938 0.648275 0.191615 0
M  V30 312 H 28.6478 2.05284 -0.0690148 0
M  V30 313 H 26.8778 3.15535 2.2355 0
M  V30 314 H 28.5668 3.51764 2.02526 0
M  V30 315 H 29.3328 4.84948 -0.0708392 0
M  V30 316 H 25.2118 4.47744 1.09757 0
M  V30 317 H 28.7558 6.82764 -1.43106 0
M  V30 318 H 24.6528 6.44994 -0.255593 0
M  V30 319 H 25.4208 8.02571 -1.6069 0
M  V30 320 N 28.0839 -0.256276 1.55502 0
M  V30 321 C 29.0309 -1.31714 1.89526 0
M  V30 322 C 30.0009 -1.4828 0.748479 0
M  V30 323 O 31.1859 -1.62416 1.00128 0
M  V30 324 C 28.3259 -2.66933 2.18725 0
M  V30 325 C 27.4389 -2.58452 3.4616 0
M  V30 326 C 26.5739 -3.85961 3.64976 0
M  V30 327 C 25.6129 -3.72059 4.86044 0
M  V30 328 N 24.7499 -4.9144 5.01429 0
M  V30 329 H 29.5899 -1.01998 2.80001 0
M  V30 330 H 27.1269 -0.492413 1.38613 0
M  V30 331 H 29.0849 -3.4563 2.33657 0
M  V30 332 H 27.7149 -2.94816 1.31466 0
M  V30 333 H 26.7669 -1.71374 3.3961 0
M  V30 334 H 28.0789 -2.44085 4.34999 0
M  V30 335 H 27.2329 -4.73101 3.79816 0
M  V30 336 H 25.9719 -4.03215 2.74353 0
M  V30 337 H 24.9769 -2.83302 4.7119 0
M  V30 338 H 26.2019 -3.56309 5.78118 0
M  V30 339 H 24.1479 -5.09072 4.13741 0
M  V30 340 H 24.0649 -4.79668 5.84341 0
M  V30 341 H 25.3329 -5.80104 5.20672 0
M  V30 342 N 29.562 -1.4872 -0.521534 0
M  V30 343 C 30.973 -1.50607 -1.10337 0
M  V30 344 C 31.324 -0.280612 -1.94183 0
M  V30 345 O 30.449 0.611507 -2.0758 0
M  V30 346 C 31.044 -2.72903 -2.00772 0
M  V30 347 C 29.603 -2.77634 -2.54158 0
M  V30 348 C 28.75 -2.44241 -1.31307 0
M  V30 349 H 31.701 -1.55714 -0.306388 0
M  V30 350 H 31.722 -2.519 -2.85178 0
M  V30 351 H 31.234 -3.62077 -1.39721 0
M  V30 352 H 29.335 -1.92689 -3.18907 0
M  V30 353 H 29.448 -3.79283 -2.92714 0
M  V30 354 H 27.812 -1.95577 -1.63161 0
M  V30 355 H 28.595 -3.35666 -0.719943 0
M  V30 356 N 31.0401 0.771051 -1.3745 0
M  V30 357 C 32.2681 1.56015 -1.35893 0
M  V30 358 C 32.6831 1.88718 0.0555523 0
M  V30 359 O 32.0401 1.51502 1.01752 0
M  V30 360 C 32.0911 2.87001 -2.19801 0
M  V30 361 O 31.8121 2.557 -3.55738 0
M  V30 362 C 33.3131 3.81228 -2.26231 0
M  V30 363 H 30.5331 0.483317 -0.465453 0
M  V30 364 H 33.0771 0.955611 -1.80799 0
M  V30 365 H 31.2321 3.43877 -1.78402 0
M  V30 366 H 31.6461 3.39584 -3.99729 0
M  V30 367 H 33.1201 4.70139 -2.89263 0
M  V30 368 H 33.5971 4.20409 -1.27093 0
M  V30 369 H 34.2031 3.30281 -2.67945 0
M  V30 370 N 32.5182 1.22032 0.997298 0
M  V30 371 C 33.7672 1.03637 1.73038 0
M  V30 372 C 34.0802 -0.429475 1.90827 0
M  V30 373 O 35.2862 -0.732995 2.61418 0
M  V30 374 C 33.7422 1.80582 3.11317 0
M  V30 375 C 33.3502 3.31387 3.01474 0
M  V30 376 C 35.0942 1.70621 3.88701 0
M  V30 377 C 33.0012 4.00791 4.3488 0
M  V30 378 H 31.9312 0.384179 0.648785 0
M  V30 379 H 34.5822 1.4584 1.11368 0
M  V30 380 H 32.9642 1.31175 3.73643 0
M  V30 381 H 34.1382 3.88155 2.4834 0
M  V30 382 H 32.4532 3.41976 2.37575 0
M  V30 383 H 35.0502 2.19799 4.87434 0
M  V30 384 H 35.3932 0.665823 4.10941 0
M  V30 385 H 35.9262 2.17547 3.33044 0
M  V30 386 H 32.6652 5.05064 4.1784 0
M  V30 387 H 32.1852 3.48811 4.87945 0
M  V30 388 H 33.8642 4.06139 5.03647 0
M  V30 389 N 33.9963 -1.19345 1.0293 0
M  V30 390 C 34.9063 -2.26245 0.620515 0
M  V30 391 C 35.9223 -1.70486 -0.347928 0
M  V30 392 O 37.0983 -2.00347 -0.205704 0
M  V30 393 C 34.1633 -3.46693 -0.0218957 0
M  V30 394 C 33.2243 -4.17632 0.994102 0
M  V30 395 C 32.4573 -5.32329 0.382253 0
M  V30 396 O 32.6803 -5.64552 -0.814676 0
M  V30 397 O 31.6143 -5.91664 1.10531 0
M  V30 398 H 35.4403 -2.63453 1.51083 0
M  V30 399 H 33.0253 -1.26207 0.799513 0
M  V30 400 H 34.9073 -4.19683 -0.380072 0
M  V30 401 H 33.5823 -3.11333 -0.886209 0
M  V30 402 H 32.4893 -3.4676 1.40387 0
M  V30 403 H 33.8223 -4.56964 1.8288 0
M  V30 404 N 35.4744 -0.807222 -1.35358 0
M  V30 405 C 36.4214 -0.216037 -2.29787 0
M  V30 406 C 37.3914 0.650278 -1.52842 0
M  V30 407 O 38.5764 0.595227 -1.81278 0
M  V30 408 C 35.7164 0.628893 -3.39321 0
M  V30 409 C 34.8294 -0.257927 -4.31229 0
M  V30 410 C 33.9644 0.595069 -5.27856 0
M  V30 411 C 33.0034 -0.292111 -6.11403 0
M  V30 412 N 32.1404 0.520895 -7.00165 0
M  V30 413 H 36.9804 -1.02671 -2.79755 0
M  V30 414 H 34.5174 -0.517839 -1.37684 0
M  V30 415 H 36.4754 1.13393 -4.01494 0
M  V30 416 H 35.1054 1.40482 -2.90628 0
M  V30 417 H 34.1574 -0.881076 -3.70056 0
M  V30 418 H 35.4694 -0.940759 -4.89848 0
M  V30 419 H 34.6234 1.16522 -5.95405 0
M  V30 420 H 33.3624 1.31146 -4.69736 0
M  V30 421 H 32.3674 -0.874525 -5.428 0
M  V30 422 H 33.5924 -1.00638 -6.71602 0
M  V30 423 H 31.5384 1.22125 -6.44532 0
M  V30 424 H 31.4554 -0.103877 -7.55929 0
M  V30 425 H 32.7234 1.0743 -7.72062 0
M  V30 426 N 36.9525 1.47285 -0.560781 0
M  V30 427 C 37.8825 2.32857 0.173105 0
M  V30 428 C 38.8635 1.44009 0.905281 0
M  V30 429 O 40.0485 1.7286 0.885046 0
M  V30 430 C 37.1785 3.25861 1.20133 0
M  V30 431 C 36.1325 4.23978 0.585388 0
M  V30 432 C 35.4585 5.06332 1.7185 0
M  V30 433 C 36.7585 5.20242 -0.463178 0
M  V30 434 H 38.4525 2.94466 -0.541307 0
M  V30 435 H 35.9985 1.41601 -0.261764 0
M  V30 436 H 37.9515 3.84569 1.72293 0
M  V30 437 H 36.6755 2.62315 1.94573 0
M  V30 438 H 35.3345 3.66501 0.085054 0
M  V30 439 H 34.9825 4.39186 2.45203 0
M  V30 440 H 34.6825 5.72762 1.31213 0
M  V30 441 H 36.2065 5.67899 2.24329 0
M  V30 442 H 37.6205 5.73293 -0.027502 0
M  V30 443 H 36.0175 5.94896 -0.788627 0
M  V30 444 H 37.0875 4.65504 -1.35773 0
M  V30 445 N 38.4306 0.297415 1.54768 0
M  V30 446 C 39.3776 -0.580276 2.23386 0
M  V30 447 C 40.3476 -1.13238 1.21517 0
M  V30 448 O 41.5326 -1.17757 1.50126 0
M  V30 449 C 38.6726 -1.74801 2.97555 0
M  V30 450 C 37.7856 -1.22764 4.1419 0
M  V30 451 C 36.9206 -2.35895 4.75949 0
M  V30 452 C 35.9596 -1.80974 5.84735 0
M  V30 453 N 35.0966 -2.87664 6.40464 0
M  V30 454 H 39.9366 0.0114833 2.97998 0
M  V30 455 H 37.4736 0.0174361 1.4709 0
M  V30 456 H 39.4316 -2.43475 3.38786 0
M  V30 457 H 38.0616 -2.31145 2.25326 0
M  V30 458 H 37.1136 -0.433271 3.77924 0
M  V30 459 H 38.4256 -0.785551 4.92575 0
M  V30 460 H 37.5796 -3.12523 5.20014 0
M  V30 461 H 36.3186 -2.83429 3.96887 0
M  V30 462 H 35.3236 -1.02834 5.40097 0
M  V30 463 H 36.5486 -1.34348 6.65678 0
M  V30 464 H 34.4946 -3.34538 5.64287 0
M  V30 465 H 34.4116 -2.4794 7.14186 0
M  V30 466 H 35.6796 -3.642 6.89187 0
M  V30 467 N 39.9087 -1.5758 0.0250728 0
M  V30 468 C 40.8407 -2.06869 -0.986796 0
M  V30 469 C 41.8537 -0.991332 -1.29137 0
M  V30 470 O 43.0427 -1.26761 -1.25674 0
M  V30 471 C 40.1427 -2.47486 -2.31525 0
M  V30 472 C 39.3157 -3.78253 -2.19643 0
M  V30 473 C 38.3747 -4.05464 -3.35388 0
M  V30 474 O 37.4007 -4.75774 -3.12454 0
M  V30 475 N 38.6027 -3.55321 -4.59051 0
M  V30 476 H 41.3677 -2.94302 -0.566276 0
M  V30 477 H 38.9287 -1.6109 -0.161776 0
M  V30 478 H 40.9207 -2.62785 -3.07776 0
M  V30 479 H 39.4907 -1.65441 -2.65232 0
M  V30 480 H 38.7107 -3.7279 -1.28144 0
M  V30 481 H 39.9987 -4.63936 -2.08903 0
M  V30 482 H 39.3967 -2.98431 -4.80578 0
M  V30 483 H 37.9537 -3.75905 -5.32483 0
M  V30 484 N 41.3868 0.248026 -1.55636 0
M  V30 485 C 42.3188 1.32993 -1.8667 0
M  V30 486 C 43.3318 1.44345 -0.752877 0
M  V30 487 O 44.5208 1.45715 -1.03098 0
M  V30 488 C 41.6208 2.70863 -2.03682 0
M  V30 489 C 40.7938 2.81792 -3.34532 0
M  V30 490 C 39.8528 4.005 -3.41301 0
M  V30 491 O 38.8788 3.9008 -4.14519 0
M  V30 492 N 40.0808 5.13618 -2.70512 0
M  V30 493 H 42.8458 1.06707 -2.8006 0
M  V30 494 H 40.4068 0.438129 -1.55859 0
M  V30 495 H 42.3988 3.48612 -2.05553 0
M  V30 496 H 40.9688 2.89862 -1.17041 0
M  V30 497 H 40.1888 1.90729 -3.44987 0
M  V30 498 H 41.4768 2.86043 -4.20781 0
M  V30 499 H 40.8748 5.24975 -2.10755 0
M  V30 500 H 39.4318 5.89505 -2.78077 0
M  V30 501 N 42.8649 1.48995 0.513639 0
M  V30 502 C 43.7949 1.67636 1.62544 0
M  V30 503 C 44.7759 0.525087 1.61793 0
M  V30 504 O 45.9609 0.759502 1.78732 0
M  V30 505 C 43.0909 1.73114 3.01079 0
M  V30 506 C 42.0449 2.87905 3.16693 0
M  V30 507 C 41.3709 2.78486 4.56453 0
M  V30 508 C 42.6709 4.29005 2.97913 0
M  V30 509 H 44.3649 2.60716 1.47198 0
M  V30 510 H 41.9109 1.25465 0.706714 0
M  V30 511 H 43.8639 1.84742 3.78746 0
M  V30 512 H 42.5879 0.766241 3.17484 0
M  V30 513 H 41.2469 2.75859 2.41448 0
M  V30 514 H 40.8949 1.7993 4.69717 0
M  V30 515 H 40.5949 3.55523 4.67843 0
M  V30 516 H 42.1189 2.92104 5.36197 0
M  V30 517 H 43.5329 4.41798 3.65359 0
M  V30 518 H 41.9299 5.07166 3.20785 0
M  V30 519 H 42.9999 4.44329 1.94165 0
M  V30 520 N 44.343 -0.763751 1.37857 0
M  V30 521 C 45.754 -1.3405 1.29952 0
M  V30 522 C 46.105 -1.96138 -0.0492898 0
M  V30 523 O 45.23 -1.94372 -0.951239 0
M  V30 524 C 45.825 -2.43729 2.35333 0
M  V30 525 C 44.384 -2.97151 2.31037 0
M  V30 526 C 43.531 -1.70438 2.18738 0
M  V30 527 H 46.482 -0.563396 1.48363 0
M  V30 528 H 46.503 -3.23412 2.00462 0
M  V30 529 H 46.015 -1.9851 3.33489 0
M  V30 530 H 44.116 -3.46724 1.3643 0
M  V30 531 H 44.229 -3.52221 3.24772 0
M  V30 532 H 42.593 -1.93673 1.65418 0
M  V30 533 H 43.376 -1.27312 3.18821 0
M  V30 534 N 45.8211 -1.22559 -0.990812 0
M  V30 535 C 47.0691 -1.04933 -1.72724 0
M  V30 536 C 47.3901 0.416158 -1.90508 0
M  V30 537 O 46.6601 1.29918 -1.46622 0
M  V30 538 H 45.2401 -0.385296 -0.639965 0
M  V30 539 H 47.9021 -1.54105 -1.19322 0
M  V30 540 H 46.9981 -1.52886 -2.72089 0
M  V30 541 N 47.2992 1.18797 -1.03562 0
M  V30 542 C 48.5452 1.8893 -0.737113 0
M  V30 543 C 48.8782 1.79837 0.732956 0
M  V30 544 O 48.1532 1.19525 1.5344 0
M  V30 545 C 48.4362 3.39607 -1.19745 0
M  V30 546 C 48.2892 3.57537 -2.72924 0
M  V30 547 C 49.6082 4.33069 -0.783526 0
M  V30 548 H 46.7272 0.686057 -0.269249 0
M  V30 549 H 49.3692 1.39797 -1.28673 0
M  V30 550 H 47.5192 3.81583 -0.729855 0
M  V30 551 H 49.1912 3.24688 -3.27682 0
M  V30 552 H 47.4342 3.00363 -3.12993 0
M  V30 553 H 48.1052 4.63238 -3.00191 0
M  V30 554 H 50.5812 3.98846 -1.18581 0
M  V30 555 H 49.4572 5.3707 -1.13343 0
M  V30 556 H 49.7182 4.40986 0.313681 0
M  V30 557 N 48.7773 0.814389 1.34928 0
M  V30 558 C 50.0263 0.394871 1.97797 0
M  V30 559 C 50.3393 -1.04555 1.65311 0
M  V30 560 O 51.5453 -1.56856 2.21604 0
M  V30 561 C 50.0013 0.655103 3.53888 0
M  V30 562 C 49.6093 2.10858 3.95276 0
M  V30 563 C 51.3533 0.301329 4.23429 0
M  V30 564 C 49.2603 2.31415 5.44244 0
M  V30 565 H 48.1903 0.143913 0.740139 0
M  V30 566 H 50.8413 0.999544 1.53888 0
M  V30 567 H 49.2233 -0.0196253 3.95995 0
M  V30 568 H 50.3973 2.82176 3.64298 0
M  V30 569 H 48.7123 2.42297 3.38646 0
M  V30 570 H 51.3093 0.432869 5.32945 0
M  V30 571 H 51.6523 -0.75331 4.09428 0
M  V30 572 H 52.1853 0.930288 3.86769 0
M  V30 573 H 48.9243 3.35353 5.63222 0
M  V30 574 H 48.4443 1.6463 5.76764 0
M  V30 575 H 50.1233 2.13352 6.10811 0
M  V30 576 N 50.2554 -1.46986 0.568584 0
M  V30 577 C 51.1874 -2.28233 -0.210337 0
M  V30 578 C 52.2004 -1.37682 -0.868767 0
M  V30 579 O 53.3894 -1.62406 -0.740705 0
M  V30 580 C 50.4894 -3.12293 -1.3163 0
M  V30 581 C 49.6624 -4.30878 -0.7525 0
M  V30 582 C 48.7214 -4.96445 -1.74439 0
M  V30 583 O 47.7474 -5.54482 -1.286 0
M  V30 584 N 48.9494 -4.92171 -3.07812 0
M  V30 585 H 51.7144 -2.95723 0.486648 0
M  V30 586 H 49.2754 -1.56742 0.405409 0
M  V30 587 H 51.2674 -3.53022 -1.97883 0
M  V30 588 H 49.8374 -2.46971 -1.91636 0
M  V30 589 H 49.0574 -3.94104 0.0871128 0
M  V30 590 H 50.3454 -5.07558 -0.35536 0
M  V30 591 H 49.7434 -4.46239 -3.47688 0
M  V30 592 H 48.3004 -5.36884 -3.69592 0
M  V30 593 N 51.7335 -0.305618 -1.54608 0
M  V30 594 C 52.9805 0.302298 -2.00231 0
M  V30 595 C 53.3085 1.5354 -1.19398 0
M  V30 596 O 52.5635 1.93973 -0.259423 0
M  V30 597 C 52.8625 0.698983 -3.50498 0
M  V30 598 C 52.5285 -0.432903 -4.48817 0
M  V30 599 C 51.1905 -0.743622 -4.75419 0
M  V30 600 C 53.5425 -1.19409 -5.07337 0
M  V30 601 C 50.8705 -1.81857 -5.57804 0
M  V30 602 C 53.2225 -2.25899 -5.90891 0
M  V30 603 C 51.8865 -2.57572 -6.15803 0
M  V30 604 H 51.1565 0.110619 -0.732697 0
M  V30 605 H 53.8035 -0.425674 -1.86709 0
M  V30 606 H 52.1085 1.50711 -3.61654 0
M  V30 607 H 53.8055 1.1806 -3.83227 0
M  V30 608 H 50.3955 -0.18063 -4.28219 0
M  V30 609 H 54.5795 -0.967295 -4.86782 0
M  V30 610 H 49.8355 -2.06864 -5.75341 0
M  V30 611 H 54.0095 -2.85335 -6.35261 0
M  V30 612 H 51.6365 -3.40998 -6.7943 0
M  V30 613 N 53.2116 1.57565 -0.0334293 0
M  V30 614 C 54.1216 2.13943 0.962572 0
M  V30 615 C 55.1376 1.09276 1.35406 0
M  V30 616 O 56.3136 1.41355 1.4346 0
M  V30 617 C 53.3786 2.65887 2.22497 0
M  V30 618 C 52.4396 3.85286 1.8935 0
M  V30 619 C 51.6726 4.34743 3.09571 0
M  V30 620 O 51.8956 3.83352 4.22371 0
M  V30 621 O 50.8296 5.26538 2.91618 0
M  V30 622 H 54.6556 2.99333 0.513169 0
M  V30 623 H 52.2406 1.4822 0.18743 0
M  V30 624 H 54.1226 2.99346 2.96598 0
M  V30 625 H 52.7976 1.83578 2.6661 0
M  V30 626 H 51.7046 3.56746 1.1262 0
M  V30 627 H 53.0376 4.68771 1.5005 0
M  V30 628 N 54.6897 -0.239769 1.55765 0
M  V30 629 C 55.9197 -0.982743 1.8173 0
M  V30 630 C 56.3277 -1.7917 0.607835 0
M  V30 631 O 55.6707 -1.78525 -0.432973 0
M  V30 632 C 55.7327 -1.96332 3.01155 0
M  V30 633 C 55.3967 -1.34062 4.36894 0
M  V30 634 C 56.3937 -0.739539 5.14613 0
M  V30 635 C 54.0787 -1.35784 4.83599 0
M  V30 636 C 56.0727 -0.163989 6.37189 0
M  V30 637 C 53.7597 -0.778441 6.06122 0
M  V30 638 C 54.7577 -0.182548 6.82756 0
M  V30 639 O 54.4457 0.387887 8.02964 0
M  V30 640 H 54.1777 -0.294481 0.608487 0
M  V30 641 H 56.7317 -0.26572 2.03674 0
M  V30 642 H 54.9617 -2.71884 2.74984 0
M  V30 643 H 56.6507 -2.57032 3.14149 0
M  V30 644 H 57.4167 -0.718687 4.79646 0
M  V30 645 H 53.2957 -1.81105 4.23936 0
M  V30 646 H 56.8397 0.301753 6.96947 0
M  V30 647 H 52.7367 -0.796645 6.40565 0
M  V30 648 H 53.5047 0.28044 8.18019 0
M  V30 649 N 56.1678 -1.49265 -0.50573 0
M  V30 650 C 57.4138 -1.58748 -1.26202 0
M  V30 651 C 57.7468 -0.271227 -1.92297 0
M  V30 652 O 57.0218 0.724831 -1.80489 0
M  V30 653 C 57.3048 -2.74332 -2.33268 0
M  V30 654 C 57.1578 -4.15737 -1.71705 0
M  V30 655 C 58.4768 -2.85576 -3.34865 0
M  V30 656 H 55.5958 -0.577826 -0.457478 0
M  V30 657 H 58.2378 -1.81532 -0.560897 0
M  V30 658 H 56.3878 -2.55036 -2.93068 0
M  V30 659 H 58.0598 -4.46537 -1.15769 0
M  V30 660 H 56.3028 -4.21605 -1.02135 0
M  V30 661 H 56.9738 -4.92477 -2.49341 0
M  V30 662 H 59.4498 -3.03127 -2.8505 0
M  V30 663 H 58.3258 -3.68135 -4.07146 0
M  V30 664 H 58.5868 -1.94732 -3.96903 0
M  V30 665 N 57.6459 0.756429 -1.3826 0
M  V30 666 C 58.8919 1.51772 -1.34511 0
M  V30 667 C 59.2249 1.94089 0.0656691 0
M  V30 668 O 58.4999 1.65221 1.02626 0
M  V30 669 C 58.7829 2.77226 -2.29821 0
M  V30 670 C 58.6359 2.41065 -3.79747 0
M  V30 671 C 59.9549 3.79236 -2.23312 0
M  V30 672 H 57.0739 0.550578 -0.489931 0
M  V30 673 H 59.7159 0.866607 -1.69086 0
M  V30 674 H 57.8659 3.32784 -2.00467 0
M  V30 675 H 59.5379 1.91303 -4.19763 0
M  V30 676 H 57.7809 1.7356 -3.97567 0
M  V30 677 H 58.4519 3.3081 -4.41892 0
M  V30 678 H 60.9279 3.3321 -2.49219 0
M  V30 679 H 59.8039 4.64714 -2.92116 0
M  V30 680 H 60.0649 4.24615 -1.23102 0
M  V30 681 N 59.124 1.23083 0.984299 0
M  V30 682 C 60.372 1.05848 1.72165 0
M  V30 683 C 60.693 -0.406049 1.90726 0
M  V30 684 O 59.963 -1.29139 1.47309 0
M  V30 685 H 58.543 0.388685 0.637913 0
M  V30 686 H 61.205 1.54736 1.18503 0
M  V30 687 H 60.301 1.54327 2.71274 0
M  V30 688 N 60.6021 -1.18246 1.0419 0
M  V30 689 C 61.8501 -1.87886 0.744543 0
M  V30 690 C 62.1711 -1.8082 -0.730006 0
M  V30 691 O 61.4411 -1.22736 -1.52685 0
M  V30 692 H 60.0211 -0.695556 0.272417 0
M  V30 693 H 62.6831 -1.43494 1.31892 0
M  V30 694 H 61.7791 -2.9389 1.05049 0
M  V30 695 N 62.0802 -0.821533 -1.34494 0
M  V30 696 C 63.0102 -0.257138 -2.3208 0
M  V30 697 C 63.9912 0.625645 -1.58176 0
M  V30 698 O 65.1762 0.552811 -1.86166 0
M  V30 699 C 62.3062 0.582958 -3.42372 0
M  V30 700 C 61.2602 -0.202571 -4.2752 0
M  V30 701 C 60.5862 0.760179 -5.29269 0
M  V30 702 C 61.8862 -1.40998 -5.02908 0
M  V30 703 H 63.5802 -1.07247 -2.79532 0
M  V30 704 H 61.1262 -0.517163 -1.34393 0
M  V30 705 H 63.0792 0.987972 -4.09655 0
M  V30 706 H 61.8032 1.43133 -2.93565 0
M  V30 707 H 60.4622 -0.588936 -3.61838 0
M  V30 708 H 60.1102 1.60447 -4.76724 0
M  V30 709 H 59.8102 0.238809 -5.87115 0
M  V30 710 H 61.3342 1.16308 -5.9942 0
M  V30 711 H 62.7482 -1.07905 -5.63054 0
M  V30 712 H 61.1452 -1.86689 -5.70322 0
M  V30 713 H 62.2152 -2.1889 -4.32684 0
M  V30 714 N 63.5583 1.46682 -0.576371 0
M  V30 715 C 64.5213 2.28707 0.150239 0
M  V30 716 C 65.5213 1.38035 0.824794 0
M  V30 717 O 66.7113 1.60476 0.677719 0
M  V30 718 C 63.8433 3.18248 1.22192 0
M  V30 719 H 65.0363 2.94423 -0.570521 0
M  V30 720 H 62.5893 1.52688 -0.334078 0
M  V30 721 H 63.3243 2.57265 1.97447 0
M  V30 722 H 63.1093 3.85 0.742812 0
M  V30 723 H 64.5993 3.80001 1.73172 0
M  V30 724 N 65.0364 0.313813 1.54444 0
M  V30 725 C 66.4474 -0.176243 1.85866 0
M  V30 726 C 66.7984 -1.52405 1.23561 0
M  V30 727 O 65.9234 -2.09605 0.538016 0
M  V30 728 C 66.5184 -0.32657 3.37222 0
M  V30 729 C 65.0774 -0.760846 3.6863 0
M  V30 730 C 64.2244 0.123247 2.77026 0
M  V30 731 H 67.1754 0.534418 1.49431 0
M  V30 732 H 67.1964 -1.15908 3.62416 0
M  V30 733 H 66.7084 0.654531 3.82541 0
M  V30 734 H 64.8094 -1.75204 3.28838 0
M  V30 735 H 64.9224 -0.571353 4.75681 0
M  V30 736 H 63.2864 -0.399597 2.51546 0
M  V30 737 H 64.0694 1.10094 3.25168 0
M  V30 738 N 66.5145 -1.57545 0.0417849 0
M  V30 739 C 67.7915 -1.83642 -0.673433 0
M  V30 740 C 68.1715 -0.928298 -1.89594 0
M  V30 741 O 67.5195 0.0129955 -2.28496 0
M  V30 742 C 67.7295 -3.33155 -1.03964 0
M  V30 743 C 69.0775 -3.99941 -1.42592 0
M  V30 744 O 70.1015 -3.37725 -1.13226 0
M  V30 745 O 68.9605 -5.09619 -1.9736 0
M  V30 746 H 66.0545 -0.757638 -0.331533 0
M  V30 747 H 68.6005 -1.69554 0.070433 0
M  V30 748 H 67.3725 -3.9093 -0.170098 0
M  V30 749 H 66.9955 -3.52396 -1.84126 0
M  V30 750 N 67.9926 0.231505 -1.5589 0
M  V30 751 C 69.2206 0.974505 -1.82513 0
M  V30 752 C 69.6356 1.78344 -0.619591 0
M  V30 753 O 68.9926 1.77792 0.411848 0
M  V30 754 C 69.0436 1.90007 -3.07538 0
M  V30 755 O 68.7646 1.12385 -4.2344 0
M  V30 756 C 70.2656 2.75779 -3.47075 0
M  V30 757 H 67.4856 0.286065 -0.606966 0
M  V30 758 H 70.0296 0.249739 -2.02969 0
M  V30 759 H 68.1846 2.57891 -2.89086 0
M  V30 760 H 68.5986 1.75125 -4.944 0
M  V30 761 H 70.0726 3.36443 -4.37619 0
M  V30 762 H 70.5496 3.47672 -2.68367 0
M  V30 763 H 71.1556 2.13323 -3.67931 0
M  V30 764 N 69.4707 1.49531 0.497807 0
M  V30 765 C 70.4187 1.66926 1.61983 0
M  V30 766 C 71.4127 0.535167 1.60724 0
M  V30 767 O 72.6187 0.714896 1.65195 0
M  V30 768 H 68.9937 0.526415 0.537021 0
M  V30 769 H 70.9647 2.61098 1.44465 0
M  V30 770 C 69.7137 1.75602 3.00099 0
M  V30 771 H 69.0367 2.62244 3.01775 0
M  V30 772 H 70.4767 1.91807 3.78135 0
M  V30 773 C 68.9357 0.501543 3.33146 0
M  V30 774 O 69.4657 -0.371342 3.9998 0
M  V30 775 N 67.6717 0.363531 2.88317 0
M  V30 776 H 67.2187 1.07485 2.34104 0
M  V30 777 H 67.1767 -0.474728 3.10795 0
M  V30 778 N 70.9488 -0.749086 1.3866 0
M  V30 779 C 71.8788 -1.8764 1.38973 0
M  V30 780 C 72.8598 -1.68178 0.255004 0
M  V30 781 O 74.0448 -1.88704 0.458754 0
M  V30 782 C 71.1748 -3.25222 1.21851 0
M  V30 783 C 70.1288 -3.59295 2.32575 0
M  V30 784 C 69.4548 -4.95663 2.00555 0
M  V30 785 C 70.7548 -3.63709 3.7485 0
M  V30 786 H 72.4488 -1.87635 2.3331 0
M  V30 787 H 69.9948 -0.901329 1.12303 0
M  V30 788 H 71.9478 -4.03746 1.20695 0
M  V30 789 H 70.6718 -3.25719 0.239775 0
M  V30 790 H 69.3308 -2.83093 2.32925 0
M  V30 791 H 68.9788 -4.92724 1.01154 0
M  V30 792 H 68.6788 -5.19429 2.74714 0
M  V30 793 H 70.2028 -5.7656 2.01024 0
M  V30 794 H 71.6168 -4.32338 3.76506 0
M  V30 795 H 70.0138 -3.98986 4.48252 0
M  V30 796 H 71.0838 -2.63834 4.06841 0
M  V30 797 N 72.4269 -1.23603 -0.977757 0
M  V30 798 C 73.8379 -1.06424 -1.53398 0
M  V30 799 C 74.1889 0.367578 -1.92726 0
M  V30 800 O 73.3139 1.25465 -1.76316 0
M  V30 801 C 73.9089 -1.92568 -2.78753 0
M  V30 802 C 72.4679 -1.79642 -3.30765 0
M  V30 803 C 71.6149 -1.88111 -2.03739 0
M  V30 804 H 74.5659 -1.37227 -0.797152 0
M  V30 805 H 74.5869 -1.45203 -3.51705 0
M  V30 806 H 74.0989 -2.96771 -2.50098 0
M  V30 807 H 72.1999 -0.782325 -3.64294 0
M  V30 808 H 72.3129 -2.63174 -4.00345 0
M  V30 809 H 70.6769 -1.31723 -2.17994 0
M  V30 810 H 71.4599 -2.93875 -1.77461 0
M  V30 811 N 73.905 1.17692 -1.04816 0
M  V30 812 C 74.838 2.20436 -0.590173 0
M  V30 813 C 75.816 1.58115 0.379244 0
M  V30 814 O 77 1.86228 0.291762 0
M  V30 815 C 74.127 3.38424 0.136817 0
M  V30 816 C 73.173 4.19176 -0.787023 0
M  V30 817 S 74.006 4.84815 -2.27409 0
M  V30 818 C 75.162 6.06195 -1.55817 0
M  V30 819 H 75.395 2.58944 -1.46067 0
M  V30 820 H 72.928 1.28246 -0.859784 0
M  V30 821 H 74.886 4.06798 0.550076 0
M  V30 822 H 73.547 2.98312 0.983299 0
M  V30 823 H 72.74 5.03499 -0.224681 0
M  V30 824 H 72.342 3.56219 -1.13947 0
M  V30 825 H 74.634 6.72078 -0.855387 0
M  V30 826 H 75.577 6.6695 -2.37873 0
M  V30 827 H 75.985 5.54701 -1.04722 0
M  V30 828 N 75.3831 0.828654 1.34056 0
M  V30 829 C 76.7941 0.477534 1.8049 0
M  V30 830 C 77.1451 -1.00258 1.6865 0
M  V30 831 O 76.2701 -1.78057 1.22982 0
M  V30 832 C 76.8651 0.860018 3.27703 0
M  V30 833 C 75.4241 0.561185 3.72193 0
M  V30 834 C 74.5711 1.07385 2.55663 0
M  V30 835 H 77.5221 1.0183 1.21722 0
M  V30 836 H 77.5431 0.166038 3.80138 0
M  V30 837 H 77.0551 1.93731 3.36288 0
M  V30 838 H 75.1561 -0.506465 3.69142 0
M  V30 839 H 75.2691 1.10926 4.66082 0
M  V30 840 H 73.6331 0.495149 2.49841 0
M  V30 841 H 74.4161 2.15771 2.67016 0
M  V30 842 N 76.8612 -1.46375 0.584142 0
M  V30 843 C 78.2722 -1.86031 0.157959 0
M  V30 844 C 78.6232 -1.48753 -1.27933 0
M  V30 845 O 77.7482 -0.903098 -1.96655 0
M  V30 846 C 78.3432 -3.37642 0.279892 0
M  V30 847 C 76.9022 -3.76289 -0.09143 0
M  V30 848 C 76.0492 -2.7039 0.615178 0
M  V30 849 H 79.0002 -1.37509 0.792274 0
M  V30 850 H 79.0212 -3.77275 -0.494364 0
M  V30 851 H 78.5332 -3.64742 1.32607 0
M  V30 852 H 76.6342 -3.54806 -1.13769 0
M  V30 853 H 76.7472 -4.78246 0.285886 0
M  V30 854 H 75.1112 -2.5464 0.0552833 0
M  V30 855 H 75.8942 -3.0033 1.66303 0
M  V30 856 N 78.3393 -0.321999 -1.54275 0
M  V30 857 C 79.2493 0.553631 -2.27974 0
M  V30 858 C 80.2653 1.13054 -1.32268 0
M  V30 859 O 81.4413 1.15084 -1.6528 0
M  V30 860 C 78.5063 1.69927 -3.02201 0
M  V30 861 C 77.5673 1.15433 -4.1349 0
M  V30 862 C 76.8003 2.24537 -4.84168 0
M  V30 863 O 77.0233 3.44852 -4.5435 0
M  V30 864 O 75.9573 1.90044 -5.7111 0
M  V30 865 H 79.7833 -0.0448345 -3.03667 0
M  V30 866 H 77.3683 -0.0877418 -1.49142 0
M  V30 867 H 79.2503 2.3663 -3.48689 0
M  V30 868 H 77.9253 2.28395 -2.29385 0
M  V30 869 H 76.8323 0.452436 -3.71354 0
M  V30 870 H 78.1653 0.614805 -4.88345 0
M  V30 871 N 79.8174 1.5752 -0.0501392 0
M  V30 872 C 80.7504 2.07026 0.959962 0
M  V30 873 C 81.7284 0.970539 1.30458 0
M  V30 874 O 82.9124 1.2424 1.41763 0
M  V30 875 C 80.0394 2.5099 2.27424 0
M  V30 876 C 79.0854 3.72188 2.08275 0
M  V30 877 S 79.9184 5.17888 1.36207 0
M  V30 878 C 81.0744 5.65165 2.6896 0
M  V30 879 H 81.3074 2.9238 0.538631 0
M  V30 880 H 78.8404 1.53547 0.162099 0
M  V30 881 H 80.7984 2.76982 3.02971 0
M  V30 882 H 79.4594 1.65944 2.66686 0
M  V30 883 H 78.6524 4.00866 3.05487 0
M  V30 884 H 78.2544 3.46457 1.40868 0
M  V30 885 H 80.5464 5.70687 3.65133 0
M  V30 886 H 81.4894 6.64394 2.4492 0
M  V30 887 H 81.8974 4.9289 2.75172 0
M  V30 888 N 81.2955 -0.223234 1.56011 0
M  V30 889 C 82.2275 -1.30006 1.88762 0
M  V30 890 C 83.2405 -1.43129 0.775746 0
M  V30 891 O 84.4295 -1.44057 1.05403 0
M  V30 892 C 81.5295 -2.67589 2.07965 0
M  V30 893 C 80.7025 -2.76434 3.38973 0
M  V30 894 C 79.7615 -3.95019 3.47629 0
M  V30 895 O 78.7875 -3.83436 4.20672 0
M  V30 896 N 79.9895 -5.09249 2.78649 0
M  V30 897 H 82.7545 -1.02238 2.81722 0
M  V30 898 H 80.3155 -0.413278 1.56536 0
M  V30 899 H 82.3075 -3.45297 2.11073 0
M  V30 900 H 80.8775 -2.87964 1.21638 0
M  V30 901 H 80.0975 -1.85216 3.47978 0
M  V30 902 H 81.3855 -2.79313 4.25278 0
M  V30 903 H 80.7835 -5.21556 2.19081 0
M  V30 904 H 79.3405 -5.85007 2.8742 0
M  V30 905 N 82.7736 -1.49793 -0.48987 0
M  V30 906 C 83.7056 -1.63413 -1.60713 0
M  V30 907 C 84.7186 -0.516329 -1.54395 0
M  V30 908 O 85.9076 -0.788812 -1.60125 0
M  V30 909 C 83.0076 -1.58516 -2.99543 0
M  V30 910 C 82.1806 -2.86016 -3.30928 0
M  V30 911 C 81.2396 -2.74018 -4.49222 0
M  V30 912 O 80.2656 -3.47964 -4.50455 0
M  V30 913 N 81.4676 -1.86309 -5.4979 0
M  V30 914 H 84.2326 -2.59777 -1.49452 0
M  V30 915 H 81.7936 -1.47022 -0.677955 0
M  V30 916 H 83.7856 -1.48128 -3.76617 0
M  V30 917 H 82.3556 -0.69965 -3.0467 0
M  V30 918 H 81.5756 -3.10672 -2.42645 0
M  V30 919 H 82.8636 -3.70521 -3.487 0
M  V30 920 H 82.2616 -1.2551 -5.51601 0
M  V30 921 H 80.8186 -1.81837 -6.25922 0
M  V30 922 N 84.2517 0.741722 -1.39055 0
M  V30 923 C 85.1987 1.85566 -1.37237 0
M  V30 924 C 86.1687 1.64457 -0.233072 0
M  V30 925 O 87.3537 1.85957 -0.427147 0
M  V30 926 C 84.4937 3.23004 -1.215 0
M  V30 927 C 83.6067 3.55864 -2.44918 0
M  V30 928 C 82.7417 4.82669 -2.21821 0
M  V30 929 C 81.7807 5.08351 -3.40948 0
M  V30 930 N 80.9177 6.26356 -3.17211 0
M  V30 931 H 85.7577 1.86455 -2.32462 0
M  V30 932 H 83.2947 0.911176 -1.15482 0
M  V30 933 H 85.2527 4.02331 -1.10389 0
M  V30 934 H 83.8827 3.21411 -0.29908 0
M  V30 935 H 82.9347 2.7129 -2.66657 0
M  V30 936 H 84.2467 3.70765 -3.33668 0
M  V30 937 H 83.4007 5.69962 -2.07914 0
M  V30 938 H 82.1397 4.69929 -1.30454 0
M  V30 939 H 81.1447 4.19522 -3.55361 0
M  V30 940 H 82.3697 5.22981 -4.33207 0
M  V30 941 H 80.3157 6.14917 -2.28502 0
M  V30 942 H 80.2327 6.41813 -3.99515 0
M  V30 943 H 81.5007 7.16506 -3.06984 0
M  V30 944 N 85.7298 1.2412 0.971189 0
M  V30 945 C 86.6598 1.05508 2.08304 0
M  V30 946 C 87.6408 -0.0308864 1.70072 0
M  V30 947 O 88.8258 0.135521 1.93727 0
M  V30 948 C 85.9558 0.655365 3.4106 0
M  V30 949 C 84.9098 1.68971 3.93234 0
M  V30 950 C 84.2358 1.14516 5.22293 0
M  V30 951 C 85.5358 3.08487 4.21465 0
M  V30 952 H 87.2298 1.98507 2.24132 0
M  V30 953 H 84.7758 0.955821 1.07704 0
M  V30 954 H 86.7288 0.51217 4.18276 0
M  V30 955 H 85.4528 -0.31032 3.25122 0
M  V30 956 H 84.1118 1.82106 3.18171 0
M  V30 957 H 83.7598 0.170189 5.02712 0
M  V30 958 H 83.4598 1.83635 5.58168 0
M  V30 959 H 84.9838 1.01401 6.02121 0
M  V30 960 H 86.3978 2.98601 4.89398 0
M  V30 961 H 84.7948 3.74926 4.68562 0
M  V30 962 H 85.8648 3.56787 3.28376 0
M  V30 963 N 87.2079 -1.17134 1.05439 0
M  V30 964 C 88.1179 -2.24878 0.668365 0
M  V30 965 C 89.1339 -1.71186 -0.311687 0
M  V30 966 O 90.3099 -2.00738 -0.163161 0
M  V30 967 C 87.3749 -3.46662 0.051648 0
M  V30 968 C 86.4359 -4.15429 1.08246 0
M  V30 969 C 85.6689 -5.31399 0.495082 0
M  V30 970 O 85.8919 -5.66153 -0.694743 0
M  V30 971 O 84.8259 -5.89187 1.23056 0
M  V30 972 H 88.6519 -2.60189 1.56637 0
M  V30 973 H 86.2369 -1.24482 0.826104 0
M  V30 974 H 88.1189 -4.20394 -0.290966 0
M  V30 975 H 86.7939 -3.13142 -0.819971 0
M  V30 976 H 85.7009 -3.43704 1.47711 0
M  V30 977 H 87.0339 -4.52982 1.92532 0
M  V30 978 N 88.686 -0.835752 -1.33615 0
M  V30 979 C 89.934 -0.429109 -1.97492 0
M  V30 980 C 90.255 1.01433 -1.66543 0
M  V30 981 O 89.525 1.70611 -0.962744 0
M  V30 982 H 88.105 -0.155686 -0.730596 0
M  V30 983 H 90.767 -1.06802 -1.63031 0
M  V30 984 H 89.863 -0.55861 -3.0706 0
M  V30 985 N 90.1641 1.46063 -0.591896 0
M  V30 986 C 91.4131 2.01547 -0.0786637 0
M  V30 987 C 91.7261 1.46796 1.29268 0
M  V30 988 O 92.9321 1.94157 1.89777 0
M  V30 989 C 91.3881 3.59787 -0.0900024 0
M  V30 990 C 90.9961 4.23534 -1.46023 0
M  V30 991 C 92.7401 4.22895 0.368806 0
M  V30 992 C 90.6471 5.73881 -1.4288 0
M  V30 993 H 89.5771 0.753564 -0.0256388 0
M  V30 994 H 92.2281 1.677 -0.744905 0
M  V30 995 H 90.6101 3.90752 0.642586 0
M  V30 996 H 91.7841 4.04167 -2.21328 0
M  V30 997 H 90.0991 3.72558 -1.85982 0
M  V30 998 H 92.6961 5.33116 0.411258 0
M  V30 999 H 93.0391 3.9247 1.38827 0
M  V30 1000 H 93.5721 3.9659 -0.31001 0
M  V30 1001 H 90.3111 6.0898 -2.42536 0
M  V30 1002 H 89.8311 5.95486 -0.718095 0
M  V30 1003 H 91.5101 6.36776 -1.14565 0
M  V30 1004 N 91.6422 0.330177 1.54103 0
M  V30 1005 C 92.8882 -0.263542 2.01685 0
M  V30 1006 C 93.2432 -1.49258 1.21408 0
M  V30 1007 O 92.5362 -1.89395 0.289852 0
M  V30 1008 C 92.7302 -0.643134 3.51566 0
M  V30 1009 C 92.5592 0.547571 4.46354 0
M  V30 1010 C 91.3292 1.04873 4.94297 0
M  V30 1011 C 93.5272 1.40184 4.94826 0
M  V30 1012 N 91.5092 2.20316 5.73005 0
M  V30 1013 C 92.8802 2.40335 5.71524 0
M  V30 1014 C 94.9352 1.42884 4.76958 0
M  V30 1015 C 93.6382 3.42998 6.32254 0
M  V30 1016 C 95.6642 2.44421 5.38528 0
M  V30 1017 C 95.0262 3.43298 6.15082 0
M  V30 1018 H 91.1252 -0.0601026 0.779687 0
M  V30 1019 H 93.7092 0.466714 1.89023 0
M  V30 1020 H 91.8802 -1.34251 3.6446 0
M  V30 1021 H 93.6122 -1.21889 3.85908 0
M  V30 1022 H 90.3672 0.618956 4.69538 0
M  V30 1023 H 90.7912 2.78565 6.17034 0
M  V30 1024 H 95.4332 0.678049 4.17328 0
M  V30 1025 H 93.1512 4.1898 6.91 0
M  V30 1026 H 96.7372 2.4732 5.26616 0
M  V30 1027 H 95.6172 4.20579 6.61878 0
M  V30 1028 N 93.1203 -1.57491 0.0584922 0
M  V30 1029 C 94.0673 -2.11958 -0.913376 0
M  V30 1030 C 95.0373 -1.02875 -1.30407 0
M  V30 1031 O 96.2223 -1.30464 -1.39226 0
M  V30 1032 C 93.3623 -2.67497 -2.18035 0
M  V30 1033 C 92.4753 -3.90691 -1.84349 0
M  V30 1034 C 91.6103 -4.3452 -3.05559 0
M  V30 1035 C 90.6493 -5.50395 -2.67827 0
M  V30 1036 N 89.7863 -5.89244 -3.81754 0
M  V30 1037 H 94.6263 -2.94704 -0.442017 0
M  V30 1038 H 92.1633 -1.45643 -0.206545 0
M  V30 1039 H 94.1213 -2.978 -2.92183 0
M  V30 1040 H 92.7513 -1.87537 -2.62735 0
M  V30 1041 H 91.8033 -3.66934 -1.00319 0
M  V30 1042 H 93.1153 -4.7489 -1.5258 0
M  V30 1043 H 92.2693 -4.66414 -3.87998 0
M  V30 1044 H 91.0083 -3.49147 -3.40511 0
M  V30 1045 H 90.0133 -5.18165 -1.83806 0
M  V30 1046 H 91.2383 -6.3749 -2.34059 0
M  V30 1047 H 89.1843 -5.06823 -4.16493 0
M  V30 1048 H 89.1013 -6.68151 -3.53708 0
M  V30 1049 H 90.3693 -6.25756 -4.64811 0
M  V30 1050 N 94.5984 0.214957 -1.56127 0
M  V30 1051 C 95.5304 1.29004 -1.89448 0
M  V30 1052 C 96.5434 1.42716 -0.783326 0
M  V30 1053 O 97.7324 1.43496 -1.06166 0
M  V30 1054 C 94.8324 2.66482 -2.09381 0
M  V30 1055 C 94.0054 2.74633 -3.40434 0
M  V30 1056 C 93.0644 3.9317 -3.49719 0
M  V30 1057 O 92.0904 3.812 -4.227 0
M  V30 1058 N 93.2924 5.07765 -2.81346 0
M  V30 1059 H 96.0574 1.00743 -2.82261 0
M  V30 1060 H 93.6184 0.40497 -1.56753 0
M  V30 1061 H 95.6104 3.44173 -2.12901 0
M  V30 1062 H 94.1804 2.87314 -1.23163 0
M  V30 1063 H 93.4004 1.83368 -3.48955 0
M  V30 1064 H 94.6884 2.77054 -4.26754 0
M  V30 1065 H 94.0864 5.20386 -2.21843 0
M  V30 1066 H 92.6434 5.83474 -2.90519 0
M  V30 1067 N 96.0765 1.50051 0.48192 0
M  V30 1068 C 97.3255 1.59741 1.23149 0
M  V30 1069 C 97.6385 0.298163 1.93314 0
M  V30 1070 O 98.8445 0.273835 2.70116 0
M  V30 1071 C 97.3005 2.81926 2.23708 0
M  V30 1072 C 96.9085 4.18685 1.59396 0
M  V30 1073 C 98.6525 3.00956 2.99375 0
M  V30 1074 C 96.5595 5.3207 2.58178 0
M  V30 1075 H 95.4895 0.594838 0.46334 0
M  V30 1076 H 98.1405 1.76467 0.503169 0
M  V30 1077 H 96.5225 2.58736 2.99786 0
M  V30 1078 H 97.6965 4.52088 0.891811 0
M  V30 1079 H 96.0115 4.05171 0.960503 0
M  V30 1080 H 98.6085 3.82836 3.73283 0
M  V30 1081 H 98.9515 2.12258 3.58123 0
M  V30 1082 H 99.4845 3.24277 2.30411 0
M  V30 1083 H 96.2235 6.22888 2.04184 0
M  V30 1084 H 95.7435 5.03098 3.26577 0
M  V30 1085 H 97.4225 5.62196 3.20225 0
M  V30 1086 N 97.5546 -0.734337 1.39446 0
M  V30 1087 C 98.4646 -1.87879 1.40495 0
M  V30 1088 C 99.4806 -1.714 0.299672 0
M  V30 1089 O 100.657 -1.93991 0.541249 0
M  V30 1090 C 97.7216 -3.23477 1.24754 0
M  V30 1091 C 96.7826 -3.52344 2.45259 0
M  V30 1092 C 96.0156 -4.81473 2.30259 0
M  V30 1093 O 96.2386 -5.55237 1.30643 0
M  V30 1094 O 95.1726 -5.10254 3.19256 0
M  V30 1095 H 98.9986 -1.89949 2.36966 0
M  V30 1096 H 96.5836 -0.882243 1.20569 0
M  V30 1097 H 98.4656 -4.04509 1.18111 0
M  V30 1098 H 97.1406 -3.22176 0.313781 0
M  V30 1099 H 96.0476 -2.71396 2.57478 0
M  V30 1100 H 97.3806 -3.58426 3.37331 0
M  V30 1101 N 99.0327 -1.24633 -0.964593 0
M  V30 1102 C 100.261 -1.11501 -1.74285 0
M  V30 1103 C 100.676 0.332165 -1.85855 0
M  V30 1104 O 100.033 1.22903 -1.34911 0
M  V30 1105 C 100.084 -1.75258 -3.16175 0
M  V30 1106 O 99.8047 -3.14318 -3.05182 0
M  V30 1107 C 101.306 -1.67776 -4.10324 0
M  V30 1108 H 98.5257 -0.389407 -0.546446 0
M  V30 1109 H 101.07 -1.64801 -1.21083 0
M  V30 1110 H 99.2247 -1.25954 -3.66353 0
M  V30 1111 H 99.6387 -3.4551 -3.94618 0
M  V30 1112 H 101.113 -2.17064 -5.0753 0
M  V30 1113 H 101.59 -0.639584 -4.34518 0
M  V30 1114 H 102.196 -2.16522 -3.66058 0
M  V30 1115 N 100.511 1.16574 -1.06058 0
M  V30 1116 C 101.443 2.2045 -0.627239 0
M  V30 1117 C 102.456 1.59752 0.313534 0
M  V30 1118 O 103.645 1.78192 0.104896 0
M  V30 1119 C 100.745 3.3875 0.100974 0
M  V30 1120 C 99.9178 4.29008 -0.852687 0
M  V30 1121 C 98.9768 5.25944 -0.164152 0
M  V30 1122 O 98.0028 5.63535 -0.801047 0
M  V30 1123 N 99.2048 5.70075 1.09518 0
M  V30 1124 H 101.97 2.58249 -1.52077 0
M  V30 1125 H 99.5308 1.3156 -0.943594 0
M  V30 1126 H 101.523 4.00638 0.57194 0
M  V30 1127 H 100.093 2.99476 0.89628 0
M  V30 1128 H 99.3128 3.64419 -1.50308 0
M  V30 1129 H 100.601 4.86195 -1.49972 0
M  V30 1130 H 99.9988 5.41624 1.6328 0
M  V30 1131 H 98.5558 6.34067 1.51006 0
M  V30 1132 N 101.989 0.842826 1.3317 0
M  V30 1133 C 102.919 0.294028 2.31641 0
M  V30 1134 C 103.9 -0.600401 1.59151 0
M  V30 1135 O 105.085 -0.523124 1.87022 0
M  V30 1136 C 102.215 -0.528416 3.43257 0
M  V30 1137 C 101.169 0.27056 4.27144 0
M  V30 1138 C 100.495 -0.675881 5.30411 0
M  V30 1139 C 101.795 1.48981 5.00602 0
M  V30 1140 H 103.489 1.11681 2.77791 0
M  V30 1141 H 101.035 0.538478 1.33553 0
M  V30 1142 H 102.988 -0.922674 4.11175 0
M  V30 1143 H 101.712 -1.38445 2.95805 0
M  V30 1144 H 100.371 0.646427 3.60856 0
M  V30 1145 H 100.019 -1.52842 4.79216 0
M  V30 1146 H 99.7189 -0.145374 5.8742 0
M  V30 1147 H 101.243 -1.06757 6.01195 0
M  V30 1148 H 102.657 1.16849 5.61266 0
M  V30 1149 H 101.054 1.95739 5.6728 0
M  V30 1150 H 102.124 2.25746 4.29147 0
M  V30 1151 N 103.467 -1.45747 0.599634 0
M  V30 1152 C 104.715 -2.01893 0.0915472 0
M  V30 1153 C 105.036 -1.47155 -1.27946 0
M  V30 1154 O 104.306 -0.66273 -1.84349 0
M  V30 1155 H 102.886 -0.746363 0.0308524 0
M  V30 1156 H 105.548 -1.78645 0.779237 0
M  V30 1157 H 104.644 -3.1208 0.0353086 0
M  V30 1158 N 104.945 -0.338344 -1.53925 0
M  V30 1159 C 106.173 0.261298 -2.05243 0
M  V30 1160 C 106.588 1.44625 -1.21363 0
M  V30 1161 O 105.945 1.80811 -0.247736 0
M  V30 1162 C 105.996 0.681412 -3.5502 0
M  V30 1163 O 105.717 -0.456414 -4.35716 0
M  V30 1164 C 107.218 1.34232 -4.22489 0
M  V30 1165 H 104.438 0.0513685 -0.669031 0
M  V30 1166 H 106.982 -0.488822 -1.98572 0
M  V30 1167 H 105.137 1.38148 -3.61931 0
M  V30 1168 H 105.551 -0.122564 -5.24357 0
M  V30 1169 H 107.025 1.58708 -5.28693 0
M  V30 1170 H 107.502 2.29426 -3.74514 0
M  V30 1171 H 108.108 0.684424 -4.19757 0
M  V30 1172 N 106.423 1.57458 -0.0668435 0
M  V30 1173 C 107.37 2.12439 0.902122 0
M  V30 1174 C 108.34 1.03565 1.2986 0
M  V30 1175 O 109.525 1.312 1.38532 0
M  V30 1176 C 106.665 2.6865 2.16614 0
M  V30 1177 C 105.778 3.91663 1.82274 0
M  V30 1178 C 104.913 4.36134 3.0325 0
M  V30 1179 C 103.952 5.51808 2.64904 0
M  V30 1180 N 103.089 5.9126 3.78624 0
M  V30 1181 H 107.929 2.94934 0.426382 0
M  V30 1182 H 105.466 1.4575 0.198819 0
M  V30 1183 H 107.424 2.99346 2.90599 0
M  V30 1184 H 106.054 1.88928 2.61737 0
M  V30 1185 H 105.106 3.6746 0.983719 0
M  V30 1186 H 106.418 4.75693 1.50059 0
M  V30 1187 H 105.572 4.68465 3.85519 0
M  V30 1188 H 104.311 3.50948 3.38655 0
M  V30 1189 H 103.316 5.19133 1.81055 0
M  V30 1190 H 104.541 6.38722 2.30675 0
M  V30 1191 H 102.487 5.09024 4.138 0
M  V30 1192 H 102.404 6.70018 3.5016 0
M  V30 1193 H 103.672 6.28212 4.61486 0
M  V30 1194 N 107.901 -0.206675 1.56239 0
M  V30 1195 C 109.148 -0.928842 1.79941 0
M  V30 1196 C 109.476 -1.83734 0.638131 0
M  V30 1197 O 108.731 -1.92039 -0.376746 0
M  V30 1198 C 109.03 -1.78675 3.09532 0
M  V30 1199 C 108.696 -1.03022 4.38973 0
M  V30 1200 C 107.358 -0.821302 4.74139 0
M  V30 1201 C 109.71 -0.497081 5.18824 0
M  V30 1202 C 107.038 -0.0675719 5.86661 0
M  V30 1203 C 109.39 0.24338 6.32132 0
M  V30 1204 C 108.054 0.463422 6.65889 0
M  V30 1205 H 107.324 -0.339887 0.658451 0
M  V30 1206 H 109.971 -0.195977 1.90495 0
M  V30 1207 H 108.276 -2.58794 2.94165 0
M  V30 1208 H 109.973 -2.34792 3.25075 0
M  V30 1209 H 106.563 -1.20306 4.11369 0
M  V30 1210 H 110.747 -0.645921 4.92079 0
M  V30 1211 H 106.003 0.112995 6.11296 0
M  V30 1212 H 110.177 0.66393 6.93228 0
M  V30 1213 H 107.804 1.04938 7.52922 0
M  V30 1214 N 109.379 -1.50304 -0.473955 0
M  V30 1215 C 110.327 -1.69482 -1.59307 0
M  V30 1216 C 111.321 -0.560669 -1.59853 0
M  V30 1217 O 112.527 -0.741087 -1.64036 0
M  V30 1218 H 108.902 -0.534892 -0.528578 0
M  V30 1219 H 110.873 -2.63364 -1.40293 0
M  V30 1220 C 109.622 -1.80354 -2.97267 0
M  V30 1221 H 108.945 -2.67012 -2.97564 0
M  V30 1222 H 110.385 -1.97798 -3.75036 0
M  V30 1223 C 108.844 -0.55448 -3.32306 0
M  V30 1224 O 109.374 0.307661 -4.0052 0
M  V30 1225 N 107.58 -0.409354 -2.87702 0
M  V30 1226 H 107.127 -1.11196 -2.32364 0
M  V30 1227 H 107.085 0.425223 -3.11511 0
M  V30 1228 N 110.857 0.726932 -1.39834 0
M  V30 1229 C 112.087 1.51393 -1.40583 0
M  V30 1230 C 112.495 1.892 -0.000740625 0
M  V30 1231 O 111.838 1.55189 0.982951 0
M  V30 1232 C 111.9 2.82588 -2.22226 0
M  V30 1233 C 111.564 2.67169 -3.70769 0
M  V30 1234 C 112.561 2.3518 -4.63666 0
M  V30 1235 C 110.246 2.83788 -4.14451 0
M  V30 1236 C 112.24 2.20002 -5.98229 0
M  V30 1237 C 109.927 2.68229 -5.49087 0
M  V30 1238 C 110.925 2.36382 -6.4079 0
M  V30 1239 O 110.613 2.2093 -7.72946 0
M  V30 1240 H 110.345 0.474168 -0.48181 0
M  V30 1241 H 112.899 0.905247 -1.84376 0
M  V30 1242 H 111.129 3.45746 -1.73195 0
M  V30 1243 H 112.818 3.44247 -2.15055 0
M  V30 1244 H 113.584 2.21984 -4.31217 0
M  V30 1245 H 109.463 3.07566 -3.43401 0
M  V30 1246 H 113.007 1.95067 -6.69772 0
M  V30 1247 H 108.904 2.81006 -5.81125 0
M  V30 1248 H 109.672 2.35937 -7.83757 0
M  V30 1249 N 112.336 1.25143 0.95797 0
M  V30 1250 C 113.613 1.00472 1.67823 0
M  V30 1251 C 113.993 -0.470056 2.058 0
M  V30 1252 O 113.341 -1.44663 1.76875 0
M  V30 1253 C 113.551 1.9372 2.90299 0
M  V30 1254 C 114.899 2.21371 3.62326 0
M  V30 1255 O 115.923 1.91451 3.00375 0
M  V30 1256 O 114.782 2.72231 4.7387 0
M  V30 1257 H 111.876 0.380752 0.734137 0
M  V30 1258 H 114.422 1.36283 1.01119 0
M  V30 1259 H 113.194 2.93316 2.59001 0
M  V30 1260 H 112.817 1.58286 3.64735 0
M  V30 1261 N 113.814 -1.1601 1.06675 0
M  V30 1262 C 115.061 -1.86633 0.785781 0
M  V30 1263 C 115.389 -1.81929 -0.687896 0
M  V30 1264 O 114.644 -1.23253 -1.52011 0
M  V30 1265 C 114.943 -3.35547 1.23057 0
M  V30 1266 C 114.609 -3.60448 2.70902 0
M  V30 1267 C 113.271 -3.66954 3.11285 0
M  V30 1268 C 115.623 -3.7071 3.66365 0
M  V30 1269 C 112.951 -3.81225 4.45965 0
M  V30 1270 C 115.303 -3.86503 5.00797 0
M  V30 1271 C 113.967 -3.91252 5.40813 0
M  V30 1272 H 113.237 -0.682937 0.287538 0
M  V30 1273 H 115.884 -1.37146 1.33654 0
M  V30 1274 H 114.189 -3.87193 0.59907 0
M  V30 1275 H 115.886 -3.88583 0.990163 0
M  V30 1276 H 112.476 -3.56021 2.38636 0
M  V30 1277 H 116.66 -3.64991 3.36296 0
M  V30 1278 H 111.916 -3.83155 4.76447 0
M  V30 1279 H 116.09 -3.93385 5.74649 0
M  V30 1280 H 113.717 -4.02062 6.45174 0
M  V30 1281 N 115.292 -0.849877 -1.32721 0
M  V30 1282 C 116.538 -0.460855 -1.9811 0
M  V30 1283 C 116.893 0.971716 -1.66059 0
M  V30 1284 O 116.186 1.67184 -0.935944 0
M  V30 1285 C 116.38 -0.631272 -3.51781 0
M  V30 1286 C 116.209 -2.07886 -3.98765 0
M  V30 1287 C 114.979 -2.71637 -4.26077 0
M  V30 1288 C 117.177 -3.04889 -4.14182 0
M  V30 1289 N 115.159 -4.07356 -4.59276 0
M  V30 1290 C 116.53 -4.25583 -4.50865 0
M  V30 1291 C 118.585 -3.01148 -3.96503 0
M  V30 1292 C 117.288 -5.43027 -4.71714 0
M  V30 1293 C 119.314 -4.17832 -4.18533 0
M  V30 1294 C 118.676 -5.37284 -4.55528 0
M  V30 1295 H 114.775 -0.217283 -0.751207 0
M  V30 1296 H 117.359 -1.10026 -1.60631 0
M  V30 1297 H 115.53 -0.0215966 -3.88394 0
M  V30 1298 H 117.262 -0.212614 -4.04141 0
M  V30 1299 H 114.017 -2.22705 -4.17971 0
M  V30 1300 H 114.441 -4.77351 -4.80068 0
M  V30 1301 H 119.083 -2.0992 -3.67006 0
M  V30 1302 H 116.801 -6.34791 -5.00066 0
M  V30 1303 H 120.387 -4.16368 -4.06361 0
M  V30 1304 H 119.267 -6.26071 -4.72234 0
M  V30 1305 N 116.77 1.45427 -0.607355 0
M  V30 1306 C 117.717 2.3053 0.111625 0
M  V30 1307 C 118.687 1.4209 0.860216 0
M  V30 1308 O 119.872 1.71019 0.845998 0
M  V30 1309 C 117.012 3.26992 1.10319 0
M  V30 1310 C 116.125 4.30535 0.355493 0
M  V30 1311 C 115.26 5.14105 1.33676 0
M  V30 1312 C 114.299 6.09376 0.576862 0
M  V30 1313 N 113.436 6.85727 1.5074 0
M  V30 1314 H 118.276 2.91477 -0.620093 0
M  V30 1315 H 115.813 1.43631 -0.317594 0
M  V30 1316 H 117.771 3.81385 1.6912 0
M  V30 1317 H 116.401 2.67799 1.80232 0
M  V30 1318 H 115.453 3.78805 -0.348023 0
M  V30 1319 H 116.765 4.98235 -0.237423 0
M  V30 1320 H 115.919 5.72897 1.99684 0
M  V30 1321 H 114.658 4.46423 1.9636 0
M  V30 1322 H 113.663 5.49715 -0.0968519 0
M  V30 1323 H 114.888 6.79085 -0.0449341 0
M  V30 1324 H 112.834 6.20735 2.12189 0
M  V30 1325 H 112.751 7.49778 0.967913 0
M  V30 1326 H 114.019 7.4906 2.15706 0
M  V30 1327 N 118.248 0.346503 1.53744 0
M  V30 1328 C 119.178 -0.501193 2.28058 0
M  V30 1329 C 120.159 -1.10014 1.29734 0
M  V30 1330 O 121.344 -1.12097 1.58581 0
M  V30 1331 C 118.474 -1.65078 3.05559 0
M  V30 1332 C 117.428 -1.18003 4.11411 0
M  V30 1333 C 116.754 -2.41837 4.76884 0
M  V30 1334 C 118.054 -0.278394 5.21558 0
M  V30 1335 H 119.748 0.11875 2.99164 0
M  V30 1336 H 117.294 0.0585531 1.43881 0
M  V30 1337 H 119.247 -2.25028 3.56287 0
M  V30 1338 H 117.971 -2.29767 2.32109 0
M  V30 1339 H 116.63 -0.603331 3.61601 0
M  V30 1340 H 116.278 -3.0494 4.00026 0
M  V30 1341 H 115.978 -2.1102 5.48402 0
M  V30 1342 H 117.502 -3.02508 5.30397 0
M  V30 1343 H 118.916 -0.784823 5.67903 0
M  V30 1344 H 117.313 -0.0619707 6.00068 0
M  V30 1345 H 118.383 0.684677 4.80042 0
M  V30 1346 N 119.726 -1.57421 0.075193 0
M  V30 1347 C 120.966 -1.95495 -0.596757 0
M  V30 1348 C 121.33 -0.954886 -1.66571 0
M  V30 1349 O 122.531 -1.22341 -2.39345 0
M  V30 1350 C 120.802 -3.382 -1.15566 0
M  V30 1351 S 122.361 -3.98254 -1.84226 0
M  V30 1352 H 119.179 -0.683649 -0.195307 0
M  V30 1353 H 121.781 -1.94925 0.149859 0
M  V30 1354 H 120.485 -4.08766 -0.36588 0
M  V30 1355 H 120.016 -3.42321 -1.93856 0
M  V30 1356 H 122.031 -3.85435 -3.12497 0
M  V30 1357 N 121.204 0.198386 -1.56346 0
M  V30 1358 C 122.432 0.935572 -1.84539 0
M  V30 1359 C 122.847 1.76989 -0.657281 0
M  V30 1360 O 122.204 1.78626 0.374043 0
M  V30 1361 C 122.255 1.8344 -3.11499 0
M  V30 1362 O 121.976 1.03377 -4.25728 0
M  V30 1363 C 123.477 2.68355 -3.52846 0
M  V30 1364 H 120.697 0.273126 -0.612897 0
M  V30 1365 H 123.241 0.20663 -2.03453 0
M  V30 1366 H 121.396 2.51701 -2.94492 0
M  V30 1367 H 121.81 1.64599 -4.98003 0
M  V30 1368 H 123.284 3.27085 -4.44657 0
M  V30 1369 H 123.761 3.41901 -2.75681 0
M  V30 1370 H 124.367 2.05471 -3.72373 0
M  V30 1371 N 122.682 1.50554 0.465978 0
M  V30 1372 C 124.093 1.54599 1.04671 0
M  V30 1373 C 124.444 0.352488 1.93008 0
M  V30 1374 O 123.569 -0.534044 2.09707 0
M  V30 1375 C 124.164 2.80166 1.90505 0
M  V30 1376 C 122.723 2.86876 2.43678 0
M  V30 1377 C 121.87 2.48947 1.22151 0
M  V30 1378 H 124.821 1.56744 0.248384 0
M  V30 1379 H 124.842 2.62311 2.75633 0
M  V30 1380 H 124.354 3.67013 1.26186 0
M  V30 1381 H 122.455 2.04393 3.11536 0
M  V30 1382 H 122.568 3.89885 2.78436 0
M  V30 1383 H 120.932 2.01498 1.5579 0
M  V30 1384 H 121.715 3.38107 0.594866 0
M  V30 1385 N 124.16 -0.719506 1.40217 0
M  V30 1386 C 125.406 -1.48152 1.38488 0
M  V30 1387 C 125.739 -1.94195 -0.0141867 0
M  V30 1388 O 125.014 -1.67884 -0.982096 0
M  V30 1389 C 125.297 -2.71035 2.37091 0
M  V30 1390 C 125.15 -2.30912 3.86005 0
M  V30 1391 C 126.469 -3.73182 2.33288 0
M  V30 1392 H 123.588 -0.537395 0.504357 0
M  V30 1393 H 126.23 -0.821472 1.71324 0
M  V30 1394 H 124.38 -3.27352 2.0922 0
M  V30 1395 H 126.052 -1.80107 4.24687 0
M  V30 1396 H 124.295 -1.62958 4.02029 0
M  V30 1397 H 124.966 -3.18978 4.50508 0
M  V30 1398 H 127.442 -3.26485 2.57966 0
M  V30 1399 H 126.318 -4.56806 3.04334 0
M  V30 1400 H 126.579 -4.21202 1.34317 0
M  V30 1401 N 125.638 -1.25649 -0.95132 0
M  V30 1402 C 127.054 -1.02542 -1.223 0
M  V30 1403 C 127.254 0.255715 -1.99871 0
M  V30 1404 O 126.31 0.967558 -2.33226 0
M  V30 1405 C 127.623 -2.25065 -1.99415 0
M  V30 1406 C 129.171 -2.29861 -2.12446 0
M  V30 1407 C 129.646 -3.52048 -2.92961 0
M  V30 1408 N 131.137 -3.52465 -3.00538 0
M  V30 1409 C 131.872 -4.43672 -3.63239 0
M  V30 1410 N 131.368 -5.45157 -4.27523 0
M  V30 1411 N 133.161 -4.31346 -3.60412 0
M  V30 1412 H 125.312 -2.07951 -0.432471 0
M  V30 1413 H 127.575 -0.91339 -0.253816 0
M  V30 1414 H 127.281 -3.18194 -1.49817 0
M  V30 1415 H 127.155 -2.28502 -3.00111 0
M  V30 1416 H 129.542 -1.37252 -2.61239 0
M  V30 1417 H 129.623 -2.3044 -1.11044 0
M  V30 1418 H 129.267 -4.44981 -2.44856 0
M  V30 1419 H 129.197 -3.48715 -3.94596 0
M  V30 1420 H 131.688 -2.79056 -2.54826 0
M  V30 1421 H 132.001 -6.10958 -4.73234 0
M  V30 1422 H 130.346 -5.49025 -4.26141 0
M  V30 1423 H 133.537 -3.51288 -3.09377 0
M  V30 1424 H 133.71 -5.02624 -4.0899 0
M  V30 1425 N 127.117 1.15442 -1.07289 0
M  V30 1426 C 128.342 1.90638 -0.816828 0
M  V30 1427 C 128.767 1.77445 0.624083 0
M  V30 1428 O 128.125 1.10671 1.43602 0
M  V30 1429 C 128.173 3.39008 -1.22906 0
M  V30 1430 O 127.277 4.10701 -0.373975 0
M  V30 1431 H 126.618 0.593555 -0.297638 0
M  V30 1432 H 129.148 1.46198 -1.43134 0
M  V30 1433 H 129.158 3.89801 -1.20497 0
M  V30 1434 H 127.833 3.47929 -2.27856 0
M  V30 1435 H 126.41 3.70046 -0.460499 0
M  V30 1436 N 128.595 0.856903 1.32268 0
M  V30 1437 C 129.823 0.475439 2.01363 0
M  V30 1438 C 130.238 -0.928486 1.64392 0
M  V30 1439 O 129.595 -1.60624 0.866387 0
M  V30 1440 C 129.646 0.607545 3.56358 0
M  V30 1441 O 129.367 1.95617 3.92002 0
M  V30 1442 C 130.868 0.225382 4.42727 0
M  V30 1443 H 128.088 0.186636 0.644521 0
M  V30 1444 H 130.632 1.15446 1.68797 0
M  V30 1445 H 128.787 -0.0237719 3.87393 0
M  V30 1446 H 129.201 1.95455 4.86721 0
M  V30 1447 H 130.675 0.368813 5.50767 0
M  V30 1448 H 131.152 -0.834369 4.31202 0
M  V30 1449 H 131.758 0.831864 4.17085 0
M  V30 1450 N 130.073 -1.45103 0.615059 0
M  V30 1451 C 131.303 -2.06254 0.119596 0
M  V30 1452 C 131.711 -1.4591 -1.20445 0
M  V30 1453 O 131.054 -0.570384 -1.7462 0
M  V30 1454 C 131.116 -3.59396 -0.0865591 0
M  V30 1455 C 130.78 -4.42116 1.15683 0
M  V30 1456 C 131.777 -4.7662 2.07676 0
M  V30 1457 C 129.462 -4.82749 1.38775 0
M  V30 1458 C 131.456 -5.50622 3.21082 0
M  V30 1459 C 129.143 -5.56504 2.52481 0
M  V30 1460 C 130.141 -5.90358 3.43463 0
M  V30 1461 O 129.829 -6.62615 4.55189 0
M  V30 1462 H 129.561 -0.672423 0.0694512 0
M  V30 1463 H 132.115 -1.87219 0.844885 0
M  V30 1464 H 130.345 -3.76859 -0.866823 0
M  V30 1465 H 132.034 -4.02365 -0.534555 0
M  V30 1466 H 132.8 -4.4578 1.91063 0
M  V30 1467 H 128.679 -4.55829 0.688545 0
M  V30 1468 H 132.223 -5.76965 3.92119 0
M  V30 1469 H 128.12 -5.86759 2.69043 0
M  V30 1470 H 128.888 -6.81071 4.53966 0
M  V30 1471 N 131.551 -0.354651 -1.53558 0
M  V30 1472 C 132.483 0.5315 -2.22952 0
M  V30 1473 C 133.496 1.05503 -1.23988 0
M  V30 1474 O 134.685 0.963279 -1.50277 0
M  V30 1475 C 131.785 1.74538 -2.90499 0
M  V30 1476 C 130.958 1.35524 -4.15875 0
M  V30 1477 C 130.017 2.42999 -4.66731 0
M  V30 1478 O 129.043 2.05844 -5.30676 0
M  V30 1479 N 130.245 3.74423 -4.43608 0
M  V30 1480 H 133.01 -0.0628615 -2.99634 0
M  V30 1481 H 130.571 -0.179302 -1.60904 0
M  V30 1482 H 132.563 2.45892 -3.21433 0
M  V30 1483 H 131.133 2.24686 -2.17336 0
M  V30 1484 H 130.353 0.471998 -3.91364 0
M  V30 1485 H 131.641 1.07071 -4.97406 0
M  V30 1486 H 131.039 4.07391 -3.92491 0
M  V30 1487 H 129.596 4.41913 -4.7912 0
M  V30 1488 N 133.029 1.57378 -0.0835403 0
M  V30 1489 C 134.254 1.98682 0.594987 0
M  V30 1490 C 134.679 0.961969 1.61641 0
M  V30 1491 O 134.037 -0.0709989 1.81161 0
M  V30 1492 C 134.085 3.38988 1.2296 0
M  V30 1493 O 133.189 3.39208 2.34546 0
M  V30 1494 H 132.53 0.646368 0.152002 0
M  V30 1495 H 135.06 2.03961 -0.161533 0
M  V30 1496 H 135.07 3.76431 1.57366 0
M  V30 1497 H 133.745 4.13107 0.481228 0
M  V30 1498 H 132.322 3.13548 2.01846 0
M  V30 1499 N 134.507 -0.190092 1.56449 0
M  V30 1500 C 135.747 -0.916414 1.82705 0
M  V30 1501 C 136.111 -1.80235 0.661763 0
M  V30 1502 O 137.312 -2.56484 0.80433 0
M  V30 1503 C 135.583 -1.70691 3.14005 0
M  V30 1504 S 137.142 -2.48457 3.61683 0
M  V30 1505 H 133.96 -0.307281 0.64117 0
M  V30 1506 H 136.562 -0.179433 1.94675 0
M  V30 1507 H 135.266 -1.04677 3.96826 0
M  V30 1508 H 134.797 -2.48562 3.04927 0
M  V30 1509 H 136.812 -3.72756 3.27517 0
M  V30 1510 N 135.985 -1.50799 -0.457987 0
M  V30 1511 C 137.401 -1.38515 -0.792819 0
M  V30 1512 C 137.601 -0.451409 -1.96379 0
M  V30 1513 O 136.657 0.10112 -2.52297 0
M  V30 1514 C 137.97 -2.80149 -1.09258 0
M  V30 1515 C 139.518 -2.89156 -1.19825 0
M  V30 1516 C 139.993 -4.31651 -1.53106 0
M  V30 1517 N 141.484 -4.34662 -1.60072 0
M  V30 1518 C 142.219 -5.41928 -1.87354 0
M  V30 1519 N 141.715 -6.59384 -2.12568 0
M  V30 1520 N 143.508 -5.29385 -1.88965 0
M  V30 1521 H 135.659 -2.10073 0.313511 0
M  V30 1522 H 137.922 -0.944803 0.0777862 0
M  V30 1523 H 137.628 -3.50374 -0.305084 0
M  V30 1524 H 137.502 -3.18204 -2.02549 0
M  V30 1525 H 139.889 -2.19141 -1.97639 0
M  V30 1526 H 139.97 -2.54626 -0.244821 0
M  V30 1527 H 139.614 -5.02208 -0.758266 0
M  V30 1528 H 139.544 -4.63678 -2.49621 0
M  V30 1529 H 142.035 -3.49973 -1.42573 0
M  V30 1530 H 142.348 -7.36934 -2.32696 0
M  V30 1531 H 140.693 -6.62535 -2.09933 0
M  V30 1532 H 143.884 -4.36616 -1.68772 0
M  V30 1533 H 144.057 -6.13066 -2.09891 0
M  V30 1534 N 137.463 0.71206 -1.40597 0
M  V30 1535 C 138.426 1.80785 -1.40888 0
M  V30 1536 C 139.426 1.57937 -0.302103 0
M  V30 1537 O 140.616 1.64913 -0.561182 0
M  V30 1538 C 137.748 3.18927 -1.20409 0
M  V30 1539 H 138.941 1.81924 -2.38419 0
M  V30 1540 H 136.494 0.91805 -1.26497 0
M  V30 1541 H 137.229 3.23436 -0.236522 0
M  V30 1542 H 137.014 3.36911 -2.00582 0
M  V30 1543 H 138.504 3.98949 -1.23408 0
M  V30 1544 N 138.941 1.26152 0.944643 0
M  V30 1545 C 140.187 1.11657 1.69294 0
M  V30 1546 C 140.52 -0.339926 1.91202 0
M  V30 1547 O 139.795 -1.24994 1.49019 0
M  V30 1548 C 140.078 1.88236 3.06984 0
M  V30 1549 C 139.931 3.41772 2.92424 0
M  V30 1550 C 141.25 1.67343 4.07043 0
M  V30 1551 H 138.369 0.407004 0.614424 0
M  V30 1552 H 141.011 1.55106 1.09737 0
M  V30 1553 H 139.161 1.51308 3.57824 0
M  V30 1554 H 140.833 3.88433 2.48832 0
M  V30 1555 H 139.076 3.68974 2.28124 0
M  V30 1556 H 139.747 3.90579 3.90067 0
M  V30 1557 H 142.223 1.99509 3.65151 0
M  V30 1558 H 141.099 2.23346 5.01406 0
M  V30 1559 H 141.36 0.617158 4.37771 0
M  V30 1560 N 140.419 -1.14872 1.07899 0
M  V30 1561 C 141.668 -1.85135 0.800499 0
M  V30 1562 C 141.981 -1.83547 -0.676014 0
M  V30 1563 O 143.187 -2.49548 -1.06948 0
M  V30 1564 C 141.643 -3.3231 1.38197 0
M  V30 1565 C 141.251 -3.42329 2.8899 0
M  V30 1566 C 142.995 -4.0772 1.18174 0
M  V30 1567 C 140.902 -4.83684 3.403 0
M  V30 1568 H 139.832 -0.693563 0.29578 0
M  V30 1569 H 142.483 -1.29532 1.29976 0
M  V30 1570 H 140.865 -3.87618 0.810431 0
M  V30 1571 H 142.039 -2.97097 3.52236 0
M  V30 1572 H 140.354 -2.80369 3.07867 0
M  V30 1573 H 142.951 -5.12049 1.5398 0
M  V30 1574 H 143.294 -4.16124 0.12117 0
M  V30 1575 H 143.827 -3.58696 1.71994 0
M  V30 1576 H 140.566 -4.80465 4.45907 0
M  V30 1577 H 140.086 -5.29474 2.81811 0
M  V30 1578 H 141.765 -5.52558 3.36584 0
M  V30 1579 N 141.898 -0.863906 -1.31812 0
M  V30 1580 C 142.861 -0.320212 -2.26952 0
M  V30 1581 C 143.861 0.525369 -1.51975 0
M  V30 1582 O 145.051 0.335547 -1.70938 0
M  V30 1583 C 142.183 0.545919 -3.365 0
M  V30 1584 H 143.376 -1.16004 -2.76556 0
M  V30 1585 H 140.929 -0.638995 -1.42641 0
M  V30 1586 H 141.664 1.40718 -2.92179 0
M  V30 1587 H 141.449 -0.0594674 -3.92055 0
M  V30 1588 H 142.939 0.918796 -4.07367 0
M  V30 1589 N 143.376 1.44774 -0.622745 0
M  V30 1590 C 144.339 2.29069 0.0774015 0
M  V30 1591 C 145.339 1.4059 0.780461 0
M  V30 1592 O 146.529 1.62551 0.626322 0
M  V30 1593 C 143.661 3.21974 1.12006 0
M  V30 1594 H 144.854 2.92459 -0.663901 0
M  V30 1595 H 142.407 1.51548 -0.382486 0
M  V30 1596 H 143.142 2.63417 1.89162 0
M  V30 1597 H 142.927 3.87168 0.619951 0
M  V30 1598 H 144.417 3.85318 1.60995 0
M  V30 1599 N 144.854 0.36279 1.53368 0
M  V30 1600 C 146.102 -0.227326 2.00817 0
M  V30 1601 C 146.423 -1.49511 1.25186 0
M  V30 1602 O 145.693 -1.92482 0.364348 0
M  V30 1603 H 144.273 -0.0869923 0.741917 0
M  V30 1604 H 146.935 0.488381 1.88682 0
M  V30 1605 H 146.031 -0.456273 3.08747 0
M  V30 1606 N 146.332 -1.57332 0.0918853 0
M  V30 1607 C 147.579 -1.94236 -0.572577 0
M  V30 1608 C 147.907 -0.973398 -1.6839 0
M  V30 1609 O 147.162 0.00756912 -1.95699 0
M  V30 1610 C 147.461 -3.37689 -1.17051 0
M  V30 1611 C 147.127 -4.50527 -0.183304 0
M  V30 1612 C 145.789 -4.81119 0.0882276 0
M  V30 1613 C 148.141 -5.18883 0.49095 0
M  V30 1614 C 145.469 -5.77395 1.04076 0
M  V30 1615 C 147.821 -6.1618 1.43193 0
M  V30 1616 C 146.485 -6.45179 1.71173 0
M  V30 1617 H 145.755 -0.710762 -0.209521 0
M  V30 1618 H 148.402 -1.9077 0.167036 0
M  V30 1619 H 146.707 -3.37718 -1.9863 0
M  V30 1620 H 148.404 -3.63543 -1.69227 0
M  V30 1621 H 144.994 -4.26681 -0.405124 0
M  V30 1622 H 149.178 -4.95427 0.294312 0
M  V30 1623 H 144.434 -5.98179 1.26457 0
M  V30 1624 H 148.608 -6.68243 1.96023 0
M  V30 1625 H 146.235 -7.1959 2.4514 0
M  V30 1626 N 147.81 0.181792 -1.56548 0
M  V30 1627 C 148.742 1.24956 -1.92142 0
M  V30 1628 C 149.755 1.41022 -0.813422 0
M  V30 1629 O 150.944 1.41212 -1.09186 0
M  V30 1630 C 148.044 2.61981 -2.14987 0
M  V30 1631 C 147.217 2.6735 -3.46183 0
M  V30 1632 C 146.276 3.85664 -3.5798 0
M  V30 1633 O 145.302 3.72148 -4.30691 0
M  V30 1634 N 146.504 5.01683 -2.92053 0
M  V30 1635 H 149.269 0.947329 -2.84334 0
M  V30 1636 H 146.83 0.371629 -1.57577 0
M  V30 1637 H 148.822 3.3958 -2.20154 0
M  V30 1638 H 147.392 2.84637 -1.2923 0
M  V30 1639 H 146.612 1.75925 -3.52766 0
M  V30 1640 H 147.9 2.67939 -4.32534 0
M  V30 1641 H 147.298 5.15564 -2.32832 0
M  V30 1642 H 145.855 5.77181 -3.0283 0
M  V30 1643 N 149.288 1.51039 0.449983 0
M  V30 1644 C 150.565 1.53612 1.21089 0
M  V30 1645 C 150.945 0.292997 2.09057 0
M  V30 1646 O 150.293 -0.72259 2.16774 0
M  V30 1647 C 150.503 2.84337 2.0237 0
M  V30 1648 C 151.851 3.35807 2.59843 0
M  V30 1649 O 152.875 2.85802 2.12593 0
M  V30 1650 O 151.734 4.23029 3.45989 0
M  V30 1651 H 148.828 0.617057 0.550608 0
M  V30 1652 H 151.374 1.63344 0.460082 0
M  V30 1653 H 150.146 3.66278 1.37681 0
M  V30 1654 H 149.769 2.77708 2.84542 0
M  V30 1655 N 150.766 -0.704594 1.40972 0
M  V30 1656 C 151.991 -1.49858 1.43378 0
M  V30 1657 C 152.416 -1.88061 0.038184 0
M  V30 1658 O 151.774 -1.5402 -0.956425 0
M  V30 1659 C 151.822 -2.74333 2.34038 0
M  V30 1660 O 150.926 -3.7147 1.7912 0
M  V30 1661 H 150.267 -0.45139 0.486974 0
M  V30 1662 H 152.797 -0.866832 1.8533 0
M  V30 1663 H 152.807 -3.22741 2.49604 0
M  V30 1664 H 151.482 -2.45863 3.35446 0
M  V30 1665 H 150.059 -3.30363 1.72958 0
M  V30 1666 N 152.244 -1.26651 -0.937939 0
M  V30 1667 C 153.474 -1.15006 -1.71631 0
M  V30 1668 C 153.882 0.297026 -1.86854 0
M  V30 1669 O 153.225 1.21493 -1.37786 0
M  V30 1670 C 153.287 -1.74984 -3.14039 0
M  V30 1671 C 152.951 -3.24103 -3.2219 0
M  V30 1672 C 153.948 -4.20877 -3.05219 0
M  V30 1673 C 151.633 -3.64625 -3.45476 0
M  V30 1674 C 153.627 -5.56151 -3.11408 0
M  V30 1675 C 151.314 -5.00032 -3.513 0
M  V30 1676 C 152.312 -5.95604 -3.34282 0
M  V30 1677 O 152 -7.28545 -3.3982 0
M  V30 1678 H 151.732 -0.401183 -0.544085 0
M  V30 1679 H 154.286 -1.67832 -1.18413 0
M  V30 1680 H 152.516 -1.16624 -3.68695 0
M  V30 1681 H 154.205 -1.58199 -3.73802 0
M  V30 1682 H 154.971 -3.90908 -2.87081 0
M  V30 1683 H 150.85 -2.90718 -3.57777 0
M  V30 1684 H 154.394 -6.30727 -2.98043 0
M  V30 1685 H 150.291 -5.29659 -3.68959 0
M  V30 1686 H 151.059 -7.3686 -3.56343 0
M  V30 1687 N 153.722 1.14298 -1.08507 0
M  V30 1688 C 154.632 2.23027 -0.727753 0
M  V30 1689 C 155.648 1.71952 0.26619 0
M  V30 1690 O 156.824 2.011 0.109882 0
M  V30 1691 C 153.889 3.46403 -0.143541 0
M  V30 1692 C 152.95 4.12413 -1.19223 0
M  V30 1693 C 152.183 5.29899 -0.635798 0
M  V30 1694 O 152.406 5.67796 0.544393 0
M  V30 1695 O 151.34 5.85717 -1.38634 0
M  V30 1696 H 155.166 2.55945 -1.63481 0
M  V30 1697 H 152.751 1.22248 -0.858817 0
M  V30 1698 H 154.633 4.21018 0.179404 0
M  V30 1699 H 153.308 3.15206 0.736659 0
M  V30 1700 H 152.215 3.39667 -1.56772 0
M  V30 1701 H 153.548 4.47718 -2.04474 0
M  V30 1702 N 155.201 0.870884 1.31352 0
M  V30 1703 C 156.133 0.28455 2.27427 0
M  V30 1704 C 157.146 -0.552927 1.53123 0
M  V30 1705 O 158.335 -0.374771 1.74521 0
M  V30 1706 C 155.435 -0.615164 3.3327 0
M  V30 1707 C 154.608 0.190079 4.36987 0
M  V30 1708 C 153.667 -0.637917 5.22319 0
M  V30 1709 O 152.693 -0.065626 5.69162 0
M  V30 1710 N 153.895 -1.94973 5.46778 0
M  V30 1711 H 156.66 1.11017 2.7838 0
M  V30 1712 H 154.221 0.732458 1.44384 0
M  V30 1713 H 156.213 -1.1748 3.87273 0
M  V30 1714 H 154.783 -1.34146 2.82354 0
M  V30 1715 H 154.003 0.931165 3.83044 0
M  V30 1716 H 155.291 0.742579 5.03352 0
M  V30 1717 H 154.689 -2.4378 5.10478 0
M  V30 1718 H 153.246 -2.45713 6.03712 0
M  V30 1719 N 156.679 -1.44442 0.630414 0
M  V30 1720 C 157.612 -2.27862 -0.124247 0
M  V30 1721 C 158.59 -1.38495 -0.851931 0
M  V30 1722 O 159.774 -1.67935 -0.856166 0
M  V30 1723 C 156.901 -3.17407 -1.18197 0
M  V30 1724 C 155.947 -4.22875 -0.554892 0
M  V30 1725 S 156.78 -5.31485 0.654489 0
M  V30 1726 C 157.936 -6.246 -0.40326 0
M  V30 1727 H 158.169 -2.91519 0.583435 0
M  V30 1728 H 155.702 -1.48618 0.418565 0
M  V30 1729 H 157.66 -3.69549 -1.78728 0
M  V30 1730 H 156.321 -2.52971 -1.86184 0
M  V30 1731 H 155.514 -4.85542 -1.35148 0
M  V30 1732 H 155.116 -3.73992 -0.0242105 0
M  V30 1733 H 157.408 -6.65375 -1.27602 0
M  V30 1734 H 158.351 -7.07851 0.187813 0
M  V30 1735 H 158.759 -5.59775 -0.728837 0
M  V30 1736 N 158.157 -0.370918 -1.53173 0
M  V30 1737 C 159.087 0.464847 -2.28826 0
M  V30 1738 C 160.068 1.07936 -1.31468 0
M  V30 1739 O 161.253 1.0956 -1.60344 0
M  V30 1740 C 158.383 1.60196 -3.08147 0
M  V30 1741 C 157.337 1.11443 -4.13237 0
M  V30 1742 C 156.663 2.3422 -4.80672 0
M  V30 1743 C 157.963 0.195384 -5.21934 0
M  V30 1744 H 159.657 -0.166329 -2.98938 0
M  V30 1745 H 157.203 -0.0814359 -1.4377 0
M  V30 1746 H 159.156 2.19332 -3.59822 0
M  V30 1747 H 157.88 2.26045 -2.35735 0
M  V30 1748 H 156.539 0.545727 -3.62515 0
M  V30 1749 H 156.187 2.98537 -4.04827 0
M  V30 1750 H 155.887 2.02269 -5.51689 0
M  V30 1751 H 157.411 2.94032 -5.35143 0
M  V30 1752 H 158.825 0.694375 -5.69079 0
M  V30 1753 H 157.222 -0.0335027 -6.00091 0
M  V30 1754 H 158.292 -0.760961 -4.78892 0
M  V30 1755 N 159.635 1.57281 -0.100228 0
M  V30 1756 C 160.545 2.17833 0.870965 0
M  V30 1757 C 161.561 1.14921 1.30649 0
M  V30 1758 O 162.737 1.47313 1.37335 0
M  V30 1759 C 159.802 2.75085 2.1102 0
M  V30 1760 C 158.863 3.9297 1.72838 0
M  V30 1761 C 158.096 4.47482 2.90854 0
M  V30 1762 O 158.319 4.00922 4.05731 0
M  V30 1763 O 157.253 5.38433 2.69023 0
M  V30 1764 H 161.079 3.0124 0.38575 0
M  V30 1765 H 158.664 1.48881 0.124397 0
M  V30 1766 H 160.546 3.11656 2.83634 0
M  V30 1767 H 159.221 1.94721 2.58584 0
M  V30 1768 H 158.128 3.61201 0.973883 0
M  V30 1769 H 159.461 4.74713 1.30033 0
M  V30 1770 N 161.113 -0.173488 1.56642 0
M  V30 1771 C 162.076 -1.19859 1.95362 0
M  V30 1772 C 163.076 -1.37296 0.83704 0
M  V30 1773 O 164.266 -1.34739 1.10413 0
M  V30 1774 C 161.398 -2.56405 2.24654 0
M  V30 1775 H 162.591 -0.867062 2.87092 0
M  V30 1776 H 160.144 -0.415853 1.50666 0
M  V30 1777 H 160.879 -2.94576 1.35631 0
M  V30 1778 H 160.664 -2.45115 3.06041 0
M  V30 1779 H 162.154 -3.30287 2.5554 0
M  V30 1780 N 162.591 -1.51276 -0.441967 0
M  V30 1781 C 163.84 -1.6295 -1.18871 0
M  V30 1782 C 164.153 -0.349312 -1.92456 0
M  V30 1783 O 165.359 -0.345355 -2.69295 0
M  V30 1784 C 163.815 -2.87759 -2.16155 0
M  V30 1785 C 163.423 -4.22764 -1.48239 0
M  V30 1786 C 165.167 -3.08788 -2.91291 0
M  V30 1787 C 163.074 -5.38728 -2.4398 0
M  V30 1788 H 162.004 -0.606913 -0.447406 0
M  V30 1789 H 164.655 -1.77739 -0.456205 0
M  V30 1790 H 163.037 -2.66593 -2.92821 0
M  V30 1791 H 164.211 -4.54293 -0.771635 0
M  V30 1792 H 162.526 -4.07575 -0.852741 0
M  V30 1793 H 165.123 -3.92599 -3.63002 0
M  V30 1794 H 165.466 -2.21679 -3.5237 0
M  V30 1795 H 165.999 -3.30272 -2.21733 0
M  V30 1796 H 162.738 -6.28082 -1.87598 0
M  V30 1797 H 162.258 -5.1158 -3.13123 0
M  V30 1798 H 163.937 -5.70489 -3.05207 0
M  V30 1799 N 164.069 0.697108 -1.41344 0
M  V30 1800 C 165.001 1.8224 -1.39001 0
M  V30 1801 C 166.014 1.60152 -0.292428 0
M  V30 1802 O 167.203 1.69684 -0.554048 0
M  V30 1803 C 164.303 3.18976 -1.14489 0
M  V30 1804 C 163.476 3.68105 -2.36258 0
M  V30 1805 C 162.535 4.83506 -2.07625 0
M  V30 1806 O 161.561 4.95201 -2.8065 0
M  V30 1807 N 162.763 5.70637 -1.06555 0
M  V30 1808 H 165.528 1.84742 -2.35988 0
M  V30 1809 H 163.089 0.87937 -1.35936 0
M  V30 1810 H 165.081 3.93801 -0.932885 0
M  V30 1811 H 163.651 3.11508 -0.261043 0
M  V30 1812 H 162.871 2.84204 -2.7317 0
M  V30 1813 H 164.159 3.97667 -3.17393 0
M  V30 1814 H 163.557 5.63817 -0.461125 0
M  V30 1815 H 162.114 6.45368 -0.913444 0
M  V30 1816 N 165.547 1.27147 0.931209 0
M  V30 1817 C 166.497 1.06227 2.01742 0
M  V30 1818 C 167.481 -0.00859065 1.60898 0
M  V30 1819 O 168.673 0.209537 1.75755 0
M  V30 1820 C 165.802 0.707787 3.35924 0
M  V30 1821 C 164.888 1.81661 3.83223 0
M  V30 1822 N 165.279 3.05564 4.03069 0
M  V30 1823 C 163.577 1.70249 4.12227 0
M  V30 1824 C 164.278 3.77697 4.42403 0
M  V30 1825 N 163.254 3.0544 4.49675 0
M  V30 1826 H 167.056 2.00261 2.15111 0
M  V30 1827 H 164.57 1.1781 1.11779 0
M  V30 1828 H 166.567 0.539043 4.134 0
M  V30 1829 H 165.227 -0.224964 3.2392 0
M  V30 1830 H 166.238 3.41363 3.89476 0
M  V30 1831 H 162.915 0.840329 4.08956 0
M  V30 1832 H 164.305 4.84168 4.65866 0
M  V30 1833 N 167.025 -1.13721 1.09112 0
M  V30 1834 C 167.988 -2.17222 0.731241 0
M  V30 1835 C 168.988 -1.59035 -0.237566 0
M  V30 1836 O 170.178 -1.74192 -0.0161704 0
M  V30 1837 C 167.31 -3.40804 0.0808443 0
M  V30 1838 H 168.503 -2.50573 1.64783 0
M  V30 1839 H 166.056 -1.28493 0.889897 0
M  V30 1840 H 166.791 -3.1304 -0.847127 0
M  V30 1841 H 166.576 -3.84306 0.777896 0
M  V30 1842 H 168.066 -4.1731 -0.155657 0
M  V30 1843 N 168.503 -0.877838 -1.30888 0
M  V30 1844 C 169.733 -0.506678 -2.00291 0
M  V30 1845 C 170.141 0.907449 -1.66018 0
M  V30 1846 O 169.484 1.60719 -0.88967 0
M  V30 1847 C 169.546 -0.59323 -3.54572 0
M  V30 1848 C 169.21 -1.97038 -4.12341 0
M  V30 1849 C 170.207 -2.93889 -4.28865 0
M  V30 1850 C 167.892 -2.27383 -4.47886 0
M  V30 1851 C 169.886 -4.19224 -4.80136 0
M  V30 1852 C 167.573 -3.52965 -4.98857 0
M  V30 1853 C 168.571 -4.48701 -5.14934 0
M  V30 1854 O 168.259 -5.72056 -5.64808 0
M  V30 1855 H 167.991 -0.1951 -0.647234 0
M  V30 1856 H 170.545 -1.18301 -1.6791 0
M  V30 1857 H 168.775 0.140057 -3.86446 0
M  V30 1858 H 170.464 -0.234372 -4.05223 0
M  V30 1859 H 171.23 -2.71756 -4.01714 0
M  V30 1860 H 167.109 -1.53639 -4.34645 0
M  V30 1861 H 170.653 -4.93956 -4.92599 0
M  V30 1862 H 166.55 -3.74939 -5.25443 0
M  V30 1863 H 167.318 -5.74337 -5.83163 0
M  V30 1864 N 169.982 1.44106 -0.638065 0
M  V30 1865 C 171.212 2.06037 -0.152394 0
M  V30 1866 C 171.62 1.47808 1.18108 0
M  V30 1867 O 170.963 0.598092 1.73691 0
M  V30 1868 C 171.025 3.59488 0.0293714 0
M  V30 1869 C 170.689 4.4022 -1.22702 0
M  V30 1870 C 171.686 4.73256 -2.15232 0
M  V30 1871 C 169.371 4.8048 -1.46437 0
M  V30 1872 C 171.365 5.45444 -3.29802 0
M  V30 1873 C 169.052 5.52417 -2.61303 0
M  V30 1874 C 170.05 5.84819 -3.52811 0
M  V30 1875 O 169.738 6.55289 -4.65673 0
M  V30 1876 H 169.47 0.671233 -0.0801401 0
M  V30 1877 H 172.024 1.85851 -0.874563 0
M  V30 1878 H 170.254 3.78191 0.806758 0
M  V30 1879 H 171.943 4.03164 0.470475 0
M  V30 1880 H 172.709 4.42684 -1.98131 0
M  V30 1881 H 168.588 4.54676 -0.760977 0
M  V30 1882 H 172.132 5.70653 -4.01249 0
M  V30 1883 H 168.029 5.82404 -2.78344 0
M  V30 1884 H 168.797 6.73762 -4.64744 0
M  V30 1885 N 171.46 0.379036 1.52974 0
M  V30 1886 C 172.39 -0.452706 2.29069 0
M  V30 1887 C 173.371 -1.07237 1.32039 0
M  V30 1888 O 174.556 -1.08708 1.60923 0
M  V30 1889 C 171.686 -1.5856 3.08992 0
M  V30 1890 C 170.64 -1.0925 4.13822 0
M  V30 1891 C 169.966 -2.31668 4.81907 0
M  V30 1892 C 171.266 -0.167702 5.22031 0
M  V30 1893 H 172.96 0.182181 2.98845 0
M  V30 1894 H 170.506 0.0890592 1.43724 0
M  V30 1895 H 172.459 -2.1742 3.6098 0
M  V30 1896 H 171.183 -2.24792 2.36931 0
M  V30 1897 H 169.842 -0.526494 3.628 0
M  V30 1898 H 169.49 -2.96386 4.06404 0
M  V30 1899 H 169.19 -1.9934 5.52754 0
M  V30 1900 H 170.714 -2.91189 5.36695 0
M  V30 1901 H 172.128 -0.664186 5.6944 0
M  V30 1902 H 170.525 0.0653265 6.00064 0
M  V30 1903 H 171.595 0.786347 4.78482 0
M  V30 1904 N 172.938 -1.57226 0.108567 0
M  V30 1905 C 174.354 -1.5766 -0.248058 0
M  V30 1906 C 174.554 -1.12063 -1.67464 0
M  V30 1907 O 173.61 -0.803236 -2.39383 0
M  V30 1908 C 174.923 -3.0069 -0.0242287 0
M  V30 1909 C 176.471 -3.12868 -0.0909372 0
M  V30 1910 C 176.946 -4.57879 0.105067 0
M  V30 1911 N 178.437 -4.63172 0.0506846 0
M  V30 1912 C 179.172 -5.73126 0.177396 0
M  V30 1913 N 178.668 -6.91866 0.359696 0
M  V30 1914 N 180.461 -5.61977 0.117709 0
M  V30 1915 H 172.612 -1.85169 1.04049 0
M  V30 1916 H 174.875 -0.85529 0.40888 0
M  V30 1917 H 174.581 -3.38299 0.961604 0
M  V30 1918 H 174.455 -3.6945 -0.76068 0
M  V30 1919 H 176.842 -2.75124 -1.06729 0
M  V30 1920 H 176.923 -2.46672 0.677225 0
M  V30 1921 H 176.567 -4.96321 1.07834 0
M  V30 1922 H 176.497 -5.22153 -0.682954 0
M  V30 1923 H 178.988 -3.778 -0.0871266 0
M  V30 1924 H 179.301 -7.71503 0.447529 0
M  V30 1925 H 177.646 -6.93874 0.395536 0
M  V30 1926 H 180.837 -4.68094 -0.0236741 0
M  V30 1927 H 181.01 -6.47627 0.219905 0
M  V30 1928 N 174.416 0.165178 -1.56732 0
M  V30 1929 C 175.379 1.18822 -1.95995 0
M  V30 1930 C 176.379 1.3685 -0.84431 0
M  V30 1931 O 177.569 1.34152 -1.11126 0
M  V30 1932 C 174.701 2.5521 -2.26011 0
M  V30 1933 H 175.894 0.851825 -2.87548 0
M  V30 1934 H 173.447 0.407857 -1.50885 0
M  V30 1935 H 174.182 2.93852 -1.37191 0
M  V30 1936 H 173.967 2.43489 -3.07336 0
M  V30 1937 H 175.457 3.28927 -2.57288 0
M  V30 1938 N 175.894 1.51508 0.433938 0
M  V30 1939 C 176.827 1.67756 1.54704 0
M  V30 1940 C 177.805 0.525127 1.53887 0
M  V30 1941 O 178.989 0.749393 1.72963 0
M  V30 1942 C 176.116 1.69424 2.9328 0
M  V30 1943 C 175.162 2.90673 3.12108 0
M  V30 1944 S 175.995 4.51431 2.88046 0
M  V30 1945 C 177.151 4.55849 4.28897 0
M  V30 1946 H 177.384 2.61904 1.40689 0
M  V30 1947 H 174.917 1.41235 0.62386 0
M  V30 1948 H 176.875 1.7107 3.73156 0
M  V30 1949 H 175.536 0.764464 3.04655 0
M  V30 1950 H 174.729 2.88251 4.13434 0
M  V30 1951 H 174.331 2.86786 2.40062 0
M  V30 1952 H 176.623 4.31699 5.22152 0
M  V30 1953 H 177.566 5.57676 4.36351 0
M  V30 1954 H 177.974 3.85137 4.12711 0
M  V30 1955 N 177.372 -0.689602 1.41712 0
M  V30 1956 C 178.783 -1.26973 1.36875 0
M  V30 1957 C 179.134 -1.96124 0.054748 0
M  V30 1958 O 178.259 -1.99141 -0.84687 0
M  V30 1959 C 178.854 -2.30912 2.47922 0
M  V30 1960 C 177.413 -2.84486 2.46464 0
M  V30 1961 C 176.56 -1.58603 2.27465 0
M  V30 1962 H 179.511 -0.48396 1.51141 0
M  V30 1963 H 179.532 -3.12331 2.17323 0
M  V30 1964 H 179.044 -1.80554 3.43543 0
M  V30 1965 H 177.145 -3.39005 1.54617 0
M  V30 1966 H 177.258 -3.34511 3.42986 0
M  V30 1967 H 175.622 -1.84632 1.75451 0
M  V30 1968 H 176.405 -1.10233 3.25121 0
M  V30 1969 N 178.85 -1.27639 -0.924453 0
M  V30 1970 C 180.261 -1.12834 -1.48746 0
M  V30 1971 C 180.612 0.285505 -1.94112 0
M  V30 1972 O 179.737 1.17874 -1.81479 0
M  V30 1973 C 180.332 -2.04217 -2.70334 0
M  V30 1974 C 178.891 -1.93509 -3.22848 0
M  V30 1975 C 178.038 -1.96583 -1.95577 0
M  V30 1976 H 180.989 -1.40484 -0.738233 0
M  V30 1977 H 181.01 -1.59989 -3.4523 0
M  V30 1978 H 180.522 -3.07111 -2.37285 0
M  V30 1979 H 178.623 -0.936131 -3.60649 0
M  V30 1980 H 178.736 -2.79917 -3.88823 0
M  V30 1981 H 177.1 -1.4085 -2.12211 0
M  V30 1982 H 177.883 -3.01137 -1.64837 0
M  V30 1983 N 180.328 1.1314 -1.09713 0
M  V30 1984 C 181.278 2.16709 -0.708593 0
M  V30 1985 C 182.262 1.58471 0.278523 0
M  V30 1986 O 183.454 1.76779 0.088427 0
M  V30 1987 C 180.583 3.43039 -0.133923 0
M  V30 1988 C 179.669 4.08277 -1.14763 0
M  V30 1989 N 180.06 4.48637 -2.33577 0
M  V30 1990 C 178.358 4.34954 -0.986446 0
M  V30 1991 C 179.059 4.9952 -2.98085 0
M  V30 1992 N 178.035 4.94561 -2.25632 0
M  V30 1993 H 181.837 2.45672 -1.61315 0
M  V30 1994 H 179.351 1.29967 -0.973775 0
M  V30 1995 H 181.348 4.16583 0.162465 0
M  V30 1996 H 180.008 3.15549 0.765447 0
M  V30 1997 H 181.019 4.41246 -2.7115 0
M  V30 1998 H 177.696 4.17258 -0.142008 0
M  V30 1999 H 179.086 5.40521 -3.99108 0
M  V30 2000 N 181.806 0.884767 1.30421 0
M  V30 2001 C 182.716 0.355398 2.31892 0
M  V30 2002 C 183.732 -0.542261 1.65335 0
M  V30 2003 O 184.908 -0.435432 1.96637 0
M  V30 2004 C 181.973 -0.421661 3.44126 0
M  V30 2005 C 181.034 0.505727 4.26311 0
M  V30 2006 C 180.267 -0.234343 5.33185 0
M  V30 2007 O 180.49 -1.46045 5.51386 0
M  V30 2008 O 179.424 0.415443 6.00465 0
M  V30 2009 H 183.25 1.19685 2.79122 0
M  V30 2010 H 180.835 0.648596 1.34587 0
M  V30 2011 H 182.717 -0.861641 4.12497 0
M  V30 2012 H 181.392 -1.23942 2.99032 0
M  V30 2013 H 180.299 0.994513 3.60639 0
M  V30 2014 H 181.632 1.28948 4.75009 0
M  V30 2015 N 183.284 -1.43765 0.645699 0
M  V30 2016 C 184.194 -2.34544 -0.0512957 0
M  V30 2017 C 185.21 -1.53455 -0.82022 0
M  V30 2018 O 186.386 -1.86133 -0.769176 0
M  V30 2019 C 183.451 -3.31636 -1.01087 0
M  V30 2020 C 182.512 -4.2863 -0.239712 0
M  V30 2021 C 181.745 -5.21084 -1.15358 0
M  V30 2022 O 181.968 -5.1779 -2.39269 0
M  V30 2023 O 180.902 -5.98593 -0.630038 0
M  V30 2024 H 184.728 -2.95624 0.695718 0
M  V30 2025 H 182.313 -1.43781 0.405882 0
M  V30 2026 H 184.195 -3.9136 -1.56254 0
M  V30 2027 H 182.87 -2.73069 -1.73824 0
M  V30 2028 H 181.777 -3.72408 0.355356 0
M  V30 2029 H 183.11 -4.90157 0.447936 0
M  V30 2030 N 184.763 -0.387143 -1.52771 0
M  V30 2031 C 185.726 0.436939 -2.24997 0
M  V30 2032 C 186.726 0.991991 -1.26555 0
M  V30 2033 O 187.916 0.874335 -1.50669 0
M  V30 2034 C 185.048 1.61281 -3.00335 0
M  V30 2035 H 186.241 -0.195365 -2.99263 0
M  V30 2036 H 183.794 -0.139218 -1.55679 0
M  V30 2037 H 184.529 2.2826 -2.30364 0
M  V30 2038 H 184.314 1.22154 -3.72587 0
M  V30 2039 H 185.804 2.19629 -3.5518 0
M  V30 2040 N 186.241 1.57166 -0.116904 0
M  V30 2041 C 187.469 1.99473 0.549383 0
M  V30 2042 C 187.884 0.996541 1.60357 0
M  V30 2043 O 187.241 -0.0108731 1.82497 0
M  V30 2044 C 187.292 3.41788 1.17741 0
M  V30 2045 O 187.013 4.37788 0.165362 0
M  V30 2046 C 188.514 3.99216 1.92722 0
M  V30 2047 H 185.734 0.655009 0.145616 0
M  V30 2048 H 188.278 2.03494 -0.202625 0
M  V30 2049 H 186.433 3.38713 1.88021 0
M  V30 2050 H 186.847 5.20806 0.621403 0
M  V30 2051 H 188.321 5.00882 2.31995 0
M  V30 2052 H 188.798 3.3824 2.80161 0
M  V30 2053 H 189.404 4.0583 1.27209 0
M  V30 2054 N 187.719 -0.156864 1.56817 0
M  V30 2055 C 188.669 -1.19891 1.93934 0
M  V30 2056 C 189.653 -1.39061 0.809372 0
M  V30 2057 O 190.845 -1.40789 1.07273 0
M  V30 2058 C 187.974 -2.53493 2.31508 0
M  V30 2059 C 187.06 -2.37957 3.51052 0
M  V30 2060 N 187.451 -1.92158 4.67877 0
M  V30 2061 C 185.749 -2.68739 3.55943 0
M  V30 2062 C 186.45 -1.8943 5.49992 0
M  V30 2063 N 185.426 -2.32375 4.91429 0
M  V30 2064 H 189.228 -0.836746 2.81737 0
M  V30 2065 H 186.742 -0.365012 1.58245 0
M  V30 2066 H 188.739 -3.28811 2.56299 0
M  V30 2067 H 187.399 -2.905 1.45051 0
M  V30 2068 H 188.41 -1.62274 4.91821 0
M  V30 2069 H 185.087 -3.09687 2.80001 0
M  V30 2070 H 186.477 -1.55596 6.53636 0
M  V30 2071 N 189.197 -1.51736 -0.425897 0
M  V30 2072 C 190.127 -1.76827 -1.52494 0
M  V30 2073 C 191.108 -0.618524 -1.58456 0
M  V30 2074 O 192.293 -0.862416 -1.74 0
M  V30 2075 C 189.423 -1.90374 -2.90474 0
M  V30 2076 C 188.377 -3.0588 -2.99369 0
M  V30 2077 C 187.703 -3.04625 -4.3944 0
M  V30 2078 C 189.003 -4.45644 -2.72394 0
M  V30 2079 H 190.697 -2.68855 -1.31748 0
M  V30 2080 H 188.243 -1.29372 -0.632362 0
M  V30 2081 H 190.196 -2.0651 -3.6733 0
M  V30 2082 H 188.92 -0.95004 -3.12477 0
M  V30 2083 H 187.579 -2.89467 -2.24954 0
M  V30 2084 H 187.227 -2.0701 -4.58428 0
M  V30 2085 H 186.927 -3.82195 -4.46319 0
M  V30 2086 H 188.451 -3.22869 -5.18255 0
M  V30 2087 H 189.865 -4.62348 -3.38979 0
M  V30 2088 H 188.262 -5.25006 -2.9067 0
M  V30 2089 H 189.332 -4.54893 -1.67929 0
M  V30 2090 N 190.675 0.682077 -1.42076 0
M  V30 2091 C 191.607 1.80755 -1.40926 0
M  V30 2092 C 192.62 1.59833 -0.309398 0
M  V30 2093 O 193.809 1.69087 -0.572014 0
M  V30 2094 C 190.909 3.17744 -1.17865 0
M  V30 2095 C 190.082 3.65578 -2.40149 0
M  V30 2096 C 189.141 4.81277 -2.12742 0
M  V30 2097 O 188.167 4.92197 -2.85887 0
M  V30 2098 N 189.369 5.69474 -1.12602 0
M  V30 2099 H 192.134 1.82229 -2.37935 0
M  V30 2100 H 189.695 0.864903 -1.36861 0
M  V30 2101 H 191.687 3.9279 -0.9746 0
M  V30 2102 H 190.257 3.11214 -0.294068 0
M  V30 2103 H 189.477 2.81291 -2.76169 0
M  V30 2104 H 190.765 3.94278 -3.21593 0
M  V30 2105 H 190.163 5.63297 -0.520899 0
M  V30 2106 H 188.72 6.44363 -0.981842 0
M  V30 2107 N 192.153 1.28127 0.917671 0
M  V30 2108 C 193.083 1.14248 2.03641 0
M  V30 2109 C 194.064 0.0412748 1.7005 0
M  V30 2110 O 195.249 0.217566 1.92977 0
M  V30 2111 C 192.379 0.799431 3.37974 0
M  V30 2112 C 191.333 1.85497 3.85713 0
M  V30 2113 C 190.659 1.36565 5.16966 0
M  V30 2114 C 191.959 3.26085 4.08002 0
M  V30 2115 H 193.653 2.07835 2.15511 0
M  V30 2116 H 191.199 1.00064 1.03553 0
M  V30 2117 H 193.152 0.689114 4.15727 0
M  V30 2118 H 191.876 -0.172145 3.26146 0
M  V30 2119 H 190.535 1.95437 3.10161 0
M  V30 2120 H 190.183 0.383253 5.01538 0
M  V30 2121 H 189.883 2.07143 5.49878 0
M  V30 2122 H 191.407 1.26848 5.97279 0
M  V30 2123 H 192.821 3.19089 4.76293 0
M  V30 2124 H 191.218 3.94462 4.52238 0
M  V30 2125 H 192.288 3.70394 3.12948 0
M  V30 2126 N 193.631 -1.12557 1.10312 0
M  V30 2127 C 194.594 -2.16434 0.75424 0
M  V30 2128 C 195.594 -1.59278 -0.220685 0
M  V30 2129 O 196.784 -1.742 0.00230591 0
M  V30 2130 C 193.916 -3.40699 0.116987 0
M  V30 2131 H 195.109 -2.48811 1.67431 0
M  V30 2132 H 192.662 -1.27542 0.903475 0
M  V30 2133 H 193.397 -3.13921 -0.813877 0
M  V30 2134 H 193.182 -3.83459 0.818613 0
M  V30 2135 H 194.672 -4.17451 -0.111387 0
M  V30 2136 N 195.109 -0.891671 -1.2995 0
M  V30 2137 C 196.056 -0.361736 -2.27948 0
M  V30 2138 C 197.026 0.551761 -1.56668 0
M  V30 2139 O 198.211 0.478736 -1.84696 0
M  V30 2140 C 195.351 0.411825 -3.42634 0
M  V30 2141 C 194.464 -0.531651 -4.28716 0
M  V30 2142 C 193.599 0.258167 -5.30572 0
M  V30 2143 C 192.638 -0.680349 -6.08307 0
M  V30 2144 N 191.775 0.0745613 -7.0206 0
M  V30 2145 H 196.615 -1.20254 -2.72659 0
M  V30 2146 H 194.152 -0.604352 -1.34112 0
M  V30 2147 H 196.11 0.876304 -4.07893 0
M  V30 2148 H 194.74 1.21715 -2.98974 0
M  V30 2149 H 193.792 -1.11463 -3.63703 0
M  V30 2150 H 195.104 -1.25038 -4.82874 0
M  V30 2151 H 194.258 0.784204 -6.0161 0
M  V30 2152 H 192.997 1.01008 -4.77126 0
M  V30 2153 H 192.002 -1.21796 -5.3614 0
M  V30 2154 H 193.227 -1.43145 -6.63842 0
M  V30 2155 H 191.173 0.808883 -6.50994 0
M  V30 2156 H 191.09 -0.584409 -7.53738 0
M  V30 2157 H 192.358 0.581123 -7.77331 0
M  V30 2158 N 196.587 1.43421 -0.653314 0
M  V30 2159 C 197.497 2.34568 0.0388565 0
M  V30 2160 C 198.513 1.53888 0.81207 0
M  V30 2161 O 199.689 1.86539 0.759294 0
M  V30 2162 C 196.754 3.32167 0.993269 0
M  V30 2163 C 195.815 4.28751 0.216977 0
M  V30 2164 C 195.048 5.21688 1.12593 0
M  V30 2165 O 195.271 5.19052 2.36519 0
M  V30 2166 O 194.205 5.98919 0.598284 0
M  V30 2167 H 198.031 2.95251 -0.711386 0
M  V30 2168 H 195.616 1.43564 -0.413502 0
M  V30 2169 H 197.498 3.92183 1.54176 0
M  V30 2170 H 196.173 2.73987 1.72374 0
M  V30 2171 H 195.08 3.72215 -0.375101 0
M  V30 2172 H 196.413 4.89913 -0.473924 0
M  V30 2173 N 198.065 0.39524 1.52563 0
M  V30 2174 C 199.314 -0.186321 2.00838 0
M  V30 2175 C 199.627 -1.47402 1.28577 0
M  V30 2176 O 200.833 -2.13599 1.67593 0
M  V30 2177 C 199.289 -0.382595 3.57861 0
M  V30 2178 C 198.897 0.892202 4.39026 0
M  V30 2179 C 200.641 -0.9202 4.14406 0
M  V30 2180 C 198.548 0.66388 5.87662 0
M  V30 2181 H 197.478 -0.0734041 0.750418 0
M  V30 2182 H 200.129 0.518552 1.76021 0
M  V30 2183 H 198.511 -1.14946 3.7895 0
M  V30 2184 H 199.685 1.66414 4.29701 0
M  V30 2185 H 198 1.35519 3.9373 0
M  V30 2186 H 200.597 -1.10683 5.23119 0
M  V30 2187 H 200.94 -1.89096 3.70875 0
M  V30 2188 H 201.473 -0.212751 3.97231 0
M  V30 2189 H 198.212 1.6058 6.35527 0
M  V30 2190 H 197.732 -0.0690193 5.9976 0
M  V30 2191 H 199.411 0.300699 6.46301 0
M  V30 2192 N 199.544 -1.57102 0.125237 0
M  V30 2193 C 200.792 -1.95021 -0.530198 0
M  V30 2194 C 201.113 -1.00982 -1.66816 0
M  V30 2195 O 200.383 -0.0672693 -1.95784 0
M  V30 2196 H 198.963 -0.720046 -0.198853 0
M  V30 2197 H 201.625 -1.93916 0.19564 0
M  V30 2198 H 200.721 -2.98211 -0.920681 0
M  V30 2199 N 201.022 0.148545 -1.56898 0
M  V30 2200 C 201.952 1.18524 -2.01182 0
M  V30 2201 C 202.933 1.4489 -0.891123 0
M  V30 2202 O 204.118 1.55836 -1.15882 0
M  V30 2203 C 201.248 2.51879 -2.39112 0
M  V30 2204 C 200.202 2.40038 -3.54353 0
M  V30 2205 C 199.528 3.78089 -3.78091 0
M  V30 2206 C 200.828 1.88577 -4.87069 0
M  V30 2207 H 202.522 0.817029 -2.88036 0
M  V30 2208 H 200.068 0.391575 -1.38574 0
M  V30 2209 H 202.021 3.24627 -2.68692 0
M  V30 2210 H 200.745 2.90532 -1.49193 0
M  V30 2211 H 199.404 1.69742 -3.24936 0
M  V30 2212 H 199.052 4.14175 -2.85426 0
M  V30 2213 H 198.752 3.71028 -4.55645 0
M  V30 2214 H 200.276 4.52387 -4.10095 0
M  V30 2215 H 201.69 2.51117 -5.15377 0
M  V30 2216 H 200.087 1.9241 -5.68417 0
M  V30 2217 H 201.157 0.84136 -4.77545 0
M  V30 2218 N 202.5 1.5196 0.417844 0
M  V30 2219 C 203.448 1.75278 1.52907 0
M  V30 2220 C 204.442 0.619611 1.57662 0
M  V30 2221 O 205.648 0.801457 1.61173 0
M  V30 2222 H 202.023 0.554141 0.508362 0
M  V30 2223 H 203.994 2.68389 1.30422 0
M  V30 2224 C 202.743 1.91262 2.90369 0
M  V30 2225 H 202.066 2.77872 2.8745 0
M  V30 2226 H 203.506 2.11581 3.67436 0
M  V30 2227 C 201.965 0.677431 3.30019 0
M  V30 2228 O 202.495 -0.158799 4.01386 0
M  V30 2229 N 200.701 0.515851 2.85985 0
M  V30 2230 H 200.248 1.19744 2.28077 0
M  V30 2231 H 200.206 -0.309315 3.12875 0
M  V30 2232 N 203.978 -0.674533 1.42435 0
M  V30 2233 C 205.224 -1.43671 1.43131 0
M  V30 2234 C 205.557 -1.94142 0.0476021 0
M  V30 2235 O 204.832 -1.70924 -0.928188 0
M  V30 2236 C 205.115 -2.63355 2.45594 0
M  V30 2237 C 204.968 -2.18514 3.93156 0
M  V30 2238 C 206.287 -3.65571 2.45043 0
M  V30 2239 H 203.406 -0.521077 0.521198 0
M  V30 2240 H 206.048 -0.766551 1.7385 0
M  V30 2241 H 204.198 -3.2053 2.19528 0
M  V30 2242 H 205.87 -1.66504 4.30202 0
M  V30 2243 H 204.113 -1.50086 4.07009 0
M  V30 2244 H 204.784 -3.04484 4.60428 0
M  V30 2245 H 207.26 -3.18113 2.68223 0
M  V30 2246 H 206.136 -4.46893 3.18713 0
M  V30 2247 H 206.397 -4.16716 1.47649 0
M  V30 2248 N 205.456 -1.28612 -0.910864 0
M  V30 2249 C 206.388 -1.08589 -2.01844 0
M  V30 2250 C 207.401 -0.0367419 -1.62759 0
M  V30 2251 O 208.59 -0.280101 -1.76289 0
M  V30 2252 C 205.69 -0.628626 -3.33019 0
M  V30 2253 C 204.863 -1.75382 -4.00699 0
M  V30 2254 C 203.922 -1.28945 -5.10156 0
M  V30 2255 O 202.948 -1.9922 -5.33198 0
M  V30 2256 N 204.15 -0.154224 -5.80295 0
M  V30 2257 H 206.915 -2.03973 -2.19579 0
M  V30 2258 H 204.476 -1.20403 -1.08234 0
M  V30 2259 H 206.468 -0.301508 -4.03575 0
M  V30 2260 H 205.038 0.232451 -3.11735 0
M  V30 2261 H 204.258 -2.25039 -3.23653 0
M  V30 2262 H 205.546 -2.50854 -4.42662 0
M  V30 2263 H 204.944 0.43194 -5.64049 0
M  V30 2264 H 203.501 0.113599 -6.51701 0
M  V30 2265 N 206.934 1.1197 -1.10907 0
M  V30 2266 C 207.866 2.17592 -0.720175 0
M  V30 2267 C 208.879 1.60938 0.245495 0
M  V30 2268 O 210.068 1.78476 0.0292245 0
M  V30 2269 C 207.168 3.38873 -0.0427917 0
M  V30 2270 C 206.341 4.25006 -1.03388 0
M  V30 2271 C 205.4 5.24774 -0.387075 0
M  V30 2272 O 204.426 5.59631 -1.03934 0
M  V30 2273 N 205.628 5.74208 0.852407 0
M  V30 2274 H 208.393 2.51567 -1.62893 0
M  V30 2275 H 205.954 1.27439 -0.998543 0
M  V30 2276 H 207.946 4.02703 0.401501 0
M  V30 2277 H 206.516 3.03007 0.768456 0
M  V30 2278 H 205.736 3.57716 -1.65629 0
M  V30 2279 H 207.024 4.79397 -1.70458 0
M  V30 2280 H 206.422 5.48062 1.40161 0
M  V30 2281 H 204.979 6.39901 1.23977 0
M  V30 2282 N 208.412 0.89855 1.29475 0
M  V30 2283 C 209.659 0.523882 1.95606 0
M  V30 2284 C 209.987 -0.929608 1.70847 0
M  V30 2285 O 209.242 -1.67401 1.01367 0
M  V30 2286 C 209.541 0.761398 3.49195 0
M  V30 2287 C 209.207 2.19207 3.94029 0
M  V30 2288 C 207.869 2.58326 4.05982 0
M  V30 2289 C 210.221 3.12379 4.17216 0
M  V30 2290 C 207.549 3.898 4.38489 0
M  V30 2291 C 209.901 4.43401 4.51197 0
M  V30 2292 C 208.565 4.82394 4.61359 0
M  V30 2293 H 207.835 0.191702 0.715773 0
M  V30 2294 H 210.482 1.13699 1.54094 0
M  V30 2295 H 208.787 0.0653622 3.91745 0
M  V30 2296 H 210.484 0.450904 3.98457 0
M  V30 2297 H 207.074 1.87846 3.85242 0
M  V30 2298 H 211.258 2.83371 4.07449 0
M  V30 2299 H 206.514 4.19734 4.44559 0
M  V30 2300 H 210.688 5.15623 4.68087 0
M  V30 2301 H 208.315 5.84306 4.86303 0
M  V30 2302 N 209.89 -1.43072 0.660911 0
M  V30 2303 C 210.837 -2.30785 -0.0259884 0
M  V30 2304 C 211.807 -1.45184 -0.806888 0
M  V30 2305 O 212.992 -1.74041 -0.781943 0
M  V30 2306 C 210.132 -3.30861 -0.981067 0
M  V30 2307 C 209.245 -4.31558 -0.195458 0
M  V30 2308 C 208.38 -5.18712 -1.14503 0
M  V30 2309 C 207.419 -6.11097 -0.350299 0
M  V30 2310 N 206.556 -6.90849 -1.25186 0
M  V30 2311 H 211.396 -2.88975 0.727846 0
M  V30 2312 H 208.933 -1.42353 0.370682 0
M  V30 2313 H 210.891 -3.87399 -1.54849 0
M  V30 2314 H 209.521 -2.74304 -1.70169 0
M  V30 2315 H 208.573 -3.77252 0.488374 0
M  V30 2316 H 209.885 -4.9701 0.422176 0
M  V30 2317 H 209.039 -5.79914 -1.78284 0
M  V30 2318 H 207.778 -4.53404 -1.79656 0
M  V30 2319 H 206.783 -5.48976 0.300808 0
M  V30 2320 H 208.008 -6.7845 0.296941 0
M  V30 2321 H 205.954 -6.28182 -1.89005 0
M  V30 2322 H 205.871 -7.52854 -0.688971 0
M  V30 2323 H 207.139 -7.5655 -1.87757 0
M  V30 2324 N 211.368 -0.403325 -1.52352 0
M  V30 2325 C 212.316 0.439752 -2.28405 0
M  V30 2326 C 213.31 1.05089 -1.32863 0
M  V30 2327 O 214.516 0.989759 -1.50345 0
M  V30 2328 H 210.891 0.160587 -0.734653 0
M  V30 2329 H 212.862 -0.222983 -2.97566 0
M  V30 2330 C 211.611 1.54736 -3.11371 0
M  V30 2331 H 210.934 1.08643 -3.84755 0
M  V30 2332 H 212.374 2.1112 -3.67701 0
M  V30 2333 C 210.833 2.51141 -2.24566 0
M  V30 2334 O 211.363 3.54887 -1.88196 0
M  V30 2335 N 209.569 2.21213 -1.8845 0
M  V30 2336 H 209.116 1.36878 -2.18225 0
M  V30 2337 H 209.074 2.85963 -1.30662 0
M  V30 2338 N 212.846 1.57033 -0.133567 0
M  V30 2339 C 214.123 1.87256 0.56522 0
M  V30 2340 C 214.503 1.03726 1.83859 0
M  V30 2341 O 213.851 0.120247 2.28183 0
M  V30 2342 C 214.061 3.3865 0.843636 0
M  V30 2343 C 215.409 4.07574 1.19032 0
M  V30 2344 O 216.433 3.43752 0.933429 0
M  V30 2345 O 215.292 5.20259 1.67312 0
M  V30 2346 H 212.386 0.775678 0.286796 0
M  V30 2347 H 214.932 1.68855 -0.169168 0
M  V30 2348 H 213.704 3.91257 -0.0581149 0
M  V30 2349 H 213.327 3.62532 1.63268 0
M  V30 2350 N 214.325 -0.140222 1.56975 0
M  V30 2351 C 215.258 -1.20266 1.93936 0
M  V30 2352 C 216.236 -1.41212 0.806099 0
M  V30 2353 O 217.42 -1.55713 1.06234 0
M  V30 2354 C 214.547 -2.56037 2.21726 0
M  V30 2355 C 213.593 -2.51646 3.44349 0
M  V30 2356 S 214.426 -1.97678 4.97678 0
M  V30 2357 C 215.582 -3.35165 5.28597 0
M  V30 2358 H 215.815 -0.887358 2.83749 0
M  V30 2359 H 213.348 -0.346119 1.50471 0
M  V30 2360 H 215.306 -3.34167 2.38416 0
M  V30 2361 H 213.967 -2.84755 1.32566 0
M  V30 2362 H 213.16 -3.51608 3.61092 0
M  V30 2363 H 212.762 -1.81628 3.26936 0
M  V30 2364 H 215.054 -4.31302 5.2248 0
M  V30 2365 H 215.997 -3.23269 6.30002 0
M  V30 2366 H 216.405 -3.32614 4.56101 0
M  V30 2367 N 215.803 -1.52179 -0.40978 0
M  V30 2368 C 217.08 -1.56769 -1.16974 0
M  V30 2369 C 217.46 -0.348322 -2.08206 0
M  V30 2370 O 216.808 0.664862 -2.18613 0
M  V30 2371 C 217.018 -2.89603 -1.9476 0
M  V30 2372 C 218.366 -3.42579 -2.50849 0
M  V30 2373 O 219.39 -2.91338 -2.04941 0
M  V30 2374 O 218.249 -4.32054 -3.34652 0
M  V30 2375 H 215.343 -0.631439 -0.534054 0
M  V30 2376 H 217.889 -1.64507 -0.416613 0
M  V30 2377 H 216.661 -3.698 -1.27921 0
M  V30 2378 H 216.284 -2.85155 -2.77079 0
M  V30 2379 N 217.281 0.66697 -1.42791 0
M  V30 2380 C 218.529 1.42417 -1.43394 0
M  V30 2381 C 218.85 1.94925 -0.0542373 0
M  V30 2382 O 218.12 1.73564 0.908415 0
M  V30 2383 H 216.7 0.528515 -0.527902 0
M  V30 2384 H 219.362 0.787562 -1.78279 0
M  V30 2385 H 218.458 2.27333 -2.13837 0
M  V30 2386 N 218.759 1.29093 0.90403 0
M  V30 2387 C 219.987 1.19689 1.68766 0
M  V30 2388 C 220.402 -0.243113 1.87228 0
M  V30 2389 O 219.759 -1.16326 1.40621 0
M  V30 2390 C 219.81 1.90144 3.07453 0
M  V30 2391 O 219.531 3.2852 2.89838 0
M  V30 2392 C 221.032 1.87162 4.01852 0
M  V30 2393 H 218.252 0.415035 0.527244 0
M  V30 2394 H 220.796 1.7039 1.13082 0
M  V30 2395 H 218.951 1.43289 3.59926 0
M  V30 2396 H 219.365 3.63944 3.77684 0
M  V30 2397 H 220.839 2.41032 4.96596 0
M  V30 2398 H 221.316 0.84617 4.30972 0
M  V30 2399 H 221.922 2.33741 3.5531 0
M  V30 2400 N 220.237 -1.11381 1.11499 0
M  V30 2401 C 221.167 -2.19509 0.796125 0
M  V30 2402 C 222.148 -1.68458 -0.235796 0
M  V30 2403 O 223.333 -1.93947 -0.0991344 0
M  V30 2404 C 220.463 -3.46475 0.239205 0
M  V30 2405 C 219.417 -4.10744 1.20307 0
M  V30 2406 C 218.743 -5.32293 0.50683 0
M  V30 2407 C 220.043 -4.55597 2.55399 0
M  V30 2408 H 221.737 -2.46439 1.70024 0
M  V30 2409 H 219.283 -1.18446 0.818935 0
M  V30 2410 H 221.236 -4.214 0.00392006 0
M  V30 2411 H 219.96 -3.19006 -0.700206 0
M  V30 2412 H 218.619 -3.37813 1.42399 0
M  V30 2413 H 218.267 -5.01095 -0.437408 0
M  V30 2414 H 217.967 -5.76243 1.1497 0
M  V30 2415 H 219.491 -6.09956 0.280351 0
M  V30 2416 H 220.905 -5.21841 2.37391 0
M  V30 2417 H 219.302 -5.10363 3.15673 0
M  V30 2418 H 220.372 -3.69013 3.14575 0
M  V30 2419 N 221.715 -0.905404 -1.28997 0
M  V30 2420 C 222.645 -0.404212 -2.29975 0
M  V30 2421 C 223.626 0.523784 -1.61835 0
M  V30 2422 O 224.811 0.433298 -1.89304 0
M  V30 2423 C 221.941 0.364042 -3.45387 0
M  V30 2424 C 220.895 -0.474048 -4.25367 0
M  V30 2425 C 220.221 0.422045 -5.33032 0
M  V30 2426 C 221.521 -1.72696 -4.92923 0
M  V30 2427 H 223.215 -1.24807 -2.72146 0
M  V30 2428 H 220.761 -0.601585 -1.30832 0
M  V30 2429 H 222.714 0.725447 -4.15109 0
M  V30 2430 H 221.438 1.24174 -3.02074 0
M  V30 2431 H 220.097 -0.81786 -3.57361 0
M  V30 2432 H 219.745 1.29804 -4.85963 0
M  V30 2433 H 219.445 -0.135057 -5.87445 0
M  V30 2434 H 220.969 0.779517 -6.05604 0
M  V30 2435 H 222.383 -1.43495 -5.55051 0
M  V30 2436 H 220.78 -2.22582 -5.57295 0
M  V30 2437 H 221.85 -2.45964 -4.17887 0
M  V30 2438 N 223.193 1.4272 -0.668489 0
M  V30 2439 C 224.103 2.34596 0.0139753 0
M  V30 2440 C 225.119 1.5474 0.795703 0
M  V30 2441 O 226.295 1.87334 0.739466 0
M  V30 2442 C 223.36 3.33202 0.957982 0
M  V30 2443 C 222.421 4.28957 0.17149 0
M  V30 2444 C 221.654 5.22853 1.07053 0
M  V30 2445 O 221.877 5.21531 2.31001 0
M  V30 2446 O 220.811 5.9952 0.534727 0
M  V30 2447 H 224.637 2.9448 -0.742661 0
M  V30 2448 H 222.222 1.43117 -0.428705 0
M  V30 2449 H 224.104 3.93796 1.50008 0
M  V30 2450 H 222.779 2.758 1.69458 0
M  V30 2451 H 221.686 3.71796 -0.414558 0
M  V30 2452 H 223.019 4.89383 -0.52586 0
M  V30 2453 N 224.671 0.411399 1.52136 0
M  V30 2454 C 225.919 -0.163322 2.01439 0
M  V30 2455 C 226.24 -1.45453 1.29879 0
M  V30 2456 O 225.51 -1.91225 0.4254 0
M  V30 2457 H 224.09 -0.0633447 0.744309 0
M  V30 2458 H 226.752 0.548161 1.87033 0
M  V30 2459 H 225.848 -0.357817 3.10042 0
M  V30 2460 N 226.149 -1.5696 0.141893 0
M  V30 2461 C 227.395 -1.9625 -0.511248 0
M  V30 2462 C 227.728 -1.02654 -1.64851 0
M  V30 2463 O 227.003 -0.0679676 -1.94381 0
M  V30 2464 C 227.286 -3.45285 -1.02227 0
M  V30 2465 C 227.139 -4.49658 0.113138 0
M  V30 2466 C 228.458 -3.96698 -1.90574 0
M  V30 2467 H 225.577 -0.713567 -0.184367 0
M  V30 2468 H 228.219 -1.88698 0.222087 0
M  V30 2469 H 226.369 -3.51852 -1.64719 0
M  V30 2470 H 228.041 -4.55174 0.749302 0
M  V30 2471 H 226.284 -4.26857 0.773026 0
M  V30 2472 H 226.955 -5.51258 -0.286053 0
M  V30 2473 H 229.431 -3.92578 -1.37918 0
M  V30 2474 H 228.307 -5.01453 -2.2324 0
M  V30 2475 H 228.568 -3.3875 -2.84079 0
M  V30 2476 N 227.627 0.131896 -1.57047 0
M  V30 2477 C 228.874 0.841932 -1.84168 0
M  V30 2478 C 229.202 1.8048 -0.725066 0
M  V30 2479 O 228.457 1.93618 0.284692 0
M  V30 2480 C 228.756 1.63703 -3.17704 0
M  V30 2481 C 228.422 0.81961 -4.43388 0
M  V30 2482 C 227.084 0.594148 -4.77518 0
M  V30 2483 C 229.436 0.248977 -5.20605 0
M  V30 2484 C 226.764 -0.212409 -5.86315 0
M  V30 2485 C 229.116 -0.544701 -6.30251 0
M  V30 2486 C 227.78 -0.780599 -6.6292 0
M  V30 2487 H 227.05 0.308085 -0.673917 0
M  V30 2488 H 229.697 0.104867 -1.91213 0
M  V30 2489 H 228.002 2.44464 -3.06177 0
M  V30 2490 H 229.699 2.19015 -3.35907 0
M  V30 2491 H 226.289 1.00542 -4.16641 0
M  V30 2492 H 230.473 0.410408 -4.946 0
M  V30 2493 H 225.729 -0.404524 -6.1006 0
M  V30 2494 H 229.903 -0.993922 -6.89271 0
M  V30 2495 H 227.53 -1.40742 -7.47058 0
M  V30 2496 N 229.106 1.52395 0.401703 0
M  V30 2497 C 230.038 1.72505 1.50912 0
M  V30 2498 C 231.051 0.605468 1.51122 0
M  V30 2499 O 232.24 0.880828 1.55254 0
M  V30 2500 C 229.34 1.75711 2.89791 0
M  V30 2501 C 228.513 3.04824 3.1369 0
M  V30 2502 C 227.572 2.99743 4.32482 0
M  V30 2503 O 226.598 3.73635 4.29402 0
M  V30 2504 N 227.8 2.18047 5.37992 0
M  V30 2505 H 230.565 2.68049 1.34052 0
M  V30 2506 H 228.126 1.50724 0.591084 0
M  V30 2507 H 230.118 1.69834 3.6734 0
M  V30 2508 H 228.688 0.876092 3.00072 0
M  V30 2509 H 227.908 3.2429 2.24119 0
M  V30 2510 H 229.196 3.90221 3.26504 0
M  V30 2511 H 228.594 1.57456 5.43345 0
M  V30 2512 H 227.151 2.18021 6.14256 0
M  V30 2513 N 230.584 -0.659388 1.43143 0
M  V30 2514 C 231.861 -1.41627 1.34912 0
M  V30 2515 C 232.241 -2.11099 -0.00607785 0
M  V30 2516 O 231.589 -2.04353 -1.02236 0
M  V30 2517 C 231.799 -2.40604 2.52805 0
M  V30 2518 C 233.147 -3.04789 2.95616 0
M  V30 2519 O 234.171 -2.50932 2.52807 0
M  V30 2520 O 233.03 -4.02421 3.69756 0
M  V30 2521 H 230.124 -0.63246 0.532844 0
M  V30 2522 H 232.67 -0.686814 1.5518 0
M  V30 2523 H 231.442 -1.88174 3.43083 0
M  V30 2524 H 231.065 -3.21009 2.34604 0
M  V30 2525 N 232.062 -1.29571 -0.897171 0
M  V30 2526 C 232.994 -1.10724 -2.00681 0
M  V30 2527 C 234.007 -0.0540026 -1.6271 0
M  V30 2528 O 235.196 -0.298783 -1.75982 0
M  V30 2529 C 232.296 -0.663912 -3.32333 0
M  V30 2530 C 231.469 -1.79622 -3.98816 0
M  V30 2531 C 230.528 -1.34349 -5.0876 0
M  V30 2532 O 229.554 -2.04864 -5.31055 0
M  V30 2533 N 230.756 -0.215764 -5.80099 0
M  V30 2534 H 233.521 -2.06291 -2.17403 0
M  V30 2535 H 231.082 -1.21544 -1.06951 0
M  V30 2536 H 233.074 -0.344295 -4.03233 0
M  V30 2537 H 231.644 0.199375 -3.11964 0
M  V30 2538 H 230.864 -2.28459 -3.21248 0
M  V30 2539 H 232.152 -2.55535 -4.39976 0
M  V30 2540 H 231.55 0.372091 -5.64475 0
M  V30 2541 H 230.107 0.0444707 -6.51785 0
M  V30 2542 N 233.54 1.10788 -1.12088 0
M  V30 2543 C 234.47 2.19083 -0.807755 0
M  V30 2544 C 235.451 1.6858 0.226859 0
M  V30 2545 O 236.636 1.93997 0.0888475 0
M  V30 2546 C 233.766 3.46344 -0.257576 0
M  V30 2547 C 232.72 4.101 -1.22483 0
M  V30 2548 C 232.046 5.32016 -0.535052 0
M  V30 2549 C 233.346 4.54236 -2.57811 0
M  V30 2550 H 235.04 2.45534 -1.71328 0
M  V30 2551 H 232.586 1.1801 -0.825205 0
M  V30 2552 H 234.539 4.21392 -0.0262679 0
M  V30 2553 H 233.263 3.19373 0.683278 0
M  V30 2554 H 231.922 3.37054 -1.44189 0
M  V30 2555 H 231.57 5.01319 0.410827 0
M  V30 2556 H 231.27 5.75625 -1.18024 0
M  V30 2557 H 232.794 6.09799 -0.312695 0
M  V30 2558 H 234.208 5.20575 -2.40155 0
M  V30 2559 H 232.605 5.08682 -3.18375 0
M  V30 2560 H 233.675 3.6734 -3.16528 0
M  V30 2561 N 235.018 0.912232 1.28515 0
M  V30 2562 C 236.243 0.559774 1.99703 0
M  V30 2563 C 236.668 -0.851393 1.67729 0
M  V30 2564 O 236.026 -1.56875 0.908834 0
M  V30 2565 C 236.074 0.773874 3.52198 0
M  V30 2566 O 235.178 -0.167842 4.12058 0
M  V30 2567 H 234.519 0.21723 0.627461 0
M  V30 2568 H 237.049 1.22725 1.63706 0
M  V30 2569 H 237.059 0.683386 4.02236 0
M  V30 2570 H 235.734 1.80261 3.74805 0
M  V30 2571 H 234.311 -0.0287509 3.72889 0
M  V30 2572 N 236.496 -1.42363 0.676048 0
M  V30 2573 C 237.426 -2.33497 0.0124832 0
M  V30 2574 C 238.407 -1.50748 -0.787981 0
M  V30 2575 O 239.592 -1.79346 -0.744884 0
M  V30 2576 C 236.722 -3.34377 -0.938582 0
M  V30 2577 C 235.676 -4.27289 -0.246622 0
M  V30 2578 C 235.002 -5.18386 -1.31071 0
M  V30 2579 C 236.302 -5.14916 0.875125 0
M  V30 2580 H 237.996 -2.89233 0.773593 0
M  V30 2581 H 235.542 -1.39073 0.37346 0
M  V30 2582 H 237.495 -3.97044 -1.41188 0
M  V30 2583 H 236.219 -2.76947 -1.73113 0
M  V30 2584 H 234.878 -3.66018 0.206456 0
M  V30 2585 H 234.526 -4.57282 -2.09528 0
M  V30 2586 H 234.226 -5.81378 -0.852839 0
M  V30 2587 H 235.75 -5.83929 -1.78492 0
M  V30 2588 H 237.164 -5.71262 0.482983 0
M  V30 2589 H 235.561 -5.86747 1.25887 0
M  V30 2590 H 236.631 -4.53242 1.72335 0
M  V30 2591 N 237.974 -0.419461 -1.51915 0
M  V30 2592 C 238.937 0.389116 -2.25873 0
M  V30 2593 C 239.937 0.964924 -1.28631 0
M  V30 2594 O 241.127 0.842179 -1.52489 0
M  V30 2595 C 238.259 1.54874 -3.03689 0
M  V30 2596 H 239.452 -0.258799 -2.98781 0
M  V30 2597 H 237.005 -0.172209 -1.55348 0
M  V30 2598 H 237.74 2.23323 -2.35154 0
M  V30 2599 H 237.525 1.14223 -3.75094 0
M  V30 2600 H 239.015 2.12046 -3.59759 0
M  V30 2601 N 239.452 1.56882 -0.150215 0
M  V30 2602 C 240.399 2.16922 0.788244 0
M  V30 2603 C 241.369 1.10303 1.24187 0
M  V30 2604 O 242.554 1.38359 1.31383 0
M  V30 2605 C 239.694 2.79754 2.02068 0
M  V30 2606 C 238.807 4.00775 1.61257 0
M  V30 2607 C 237.942 4.51595 2.79705 0
M  V30 2608 C 236.981 5.65074 2.35282 0
M  V30 2609 N 236.118 6.10499 3.4675 0
M  V30 2610 H 240.958 2.96779 0.269444 0
M  V30 2611 H 238.495 1.46599 0.12128 0
M  V30 2612 H 240.453 3.14329 2.74323 0
M  V30 2613 H 239.083 2.02536 2.51354 0
M  V30 2614 H 238.135 3.72158 0.787553 0
M  V30 2615 H 239.447 4.82978 1.24633 0
M  V30 2616 H 238.601 4.88242 3.60145 0
M  V30 2617 H 237.34 3.68406 3.19576 0
M  V30 2618 H 236.345 5.28 1.53283 0
M  V30 2619 H 237.57 6.50052 1.96493 0
M  V30 2620 H 235.516 5.30243 3.86236 0
M  V30 2621 H 235.433 6.87637 3.14152 0
M  V30 2622 H 236.701 6.51791 4.27537 0
M  V30 2623 N 240.93 -0.123565 1.57115 0
M  V30 2624 C 242.155 -0.850398 1.89164 0
M  V30 2625 C 242.58 -1.7286 0.741688 0
M  V30 2626 O 241.938 -1.78665 -0.307958 0
M  V30 2627 C 241.986 -1.66353 3.19936 0
M  V30 2628 O 241.09 -2.77004 3.0552 0
M  V30 2629 H 240.431 -0.235454 0.620852 0
M  V30 2630 H 242.961 -0.107335 2.04318 0
M  V30 2631 H 242.971 -2.05372 3.52543 0
M  V30 2632 H 241.646 -1.01881 4.03228 0
M  V30 2633 H 240.223 -2.41221 2.84371 0
M  V30 2634 N 242.408 -1.52605 -0.393616 0
M  V30 2635 C 243.338 -1.80022 -1.48709 0
M  V30 2636 C 244.319 -0.651995 -1.57108 0
M  V30 2637 O 245.504 -0.89913 -1.72132 0
M  V30 2638 C 242.634 -1.96492 -2.86371 0
M  V30 2639 C 241.588 -3.12161 -2.92813 0
M  V30 2640 C 240.914 -3.13877 -4.3288 0
M  V30 2641 C 242.214 -4.51322 -2.6288 0
M  V30 2642 H 243.908 -2.71589 -1.26015 0
M  V30 2643 H 241.454 -1.30684 -0.604778 0
M  V30 2644 H 243.407 -2.14255 -3.62867 0
M  V30 2645 H 242.131 -1.01611 -3.10391 0
M  V30 2646 H 240.79 -2.94173 -2.18764 0
M  V30 2647 H 240.438 -2.16687 -4.53933 0
M  V30 2648 H 240.138 -3.91576 -4.38112 0
M  V30 2649 H 241.662 -3.33789 -5.1129 0
M  V30 2650 H 243.076 -4.69435 -3.29096 0
M  V30 2651 H 241.473 -5.31053 -2.79468 0
M  V30 2652 H 242.543 -4.58353 -1.58242 0
M  V30 2653 N 243.887 0.651787 -1.4349 0
M  V30 2654 C 245.135 1.40888 -1.44897 0
M  V30 2655 C 245.456 1.94856 -0.0749086 0
M  V30 2656 O 244.726 1.74518 0.889956 0
M  V30 2657 H 243.306 0.522887 -0.533478 0
M  V30 2658 H 245.968 0.768609 -1.79104 0
M  V30 2659 H 245.064 2.25052 -2.16236 0
M  V30 2660 N 245.365 1.30045 0.890287 0
M  V30 2661 C 246.611 1.18737 1.64406 0
M  V30 2662 C 246.944 -0.258525 1.92472 0
M  V30 2663 O 246.219 -1.18562 1.54186 0
M  V30 2664 C 246.502 2.01087 2.98724 0
M  V30 2665 C 246.355 3.53867 2.77665 0
M  V30 2666 C 247.674 1.84457 3.9958 0
M  V30 2667 H 244.793 0.432698 0.596608 0
M  V30 2668 H 247.435 1.5962 1.0306 0
M  V30 2669 H 245.585 1.66349 3.51084 0
M  V30 2670 H 247.257 3.98637 2.32133 0
M  V30 2671 H 245.5 3.78318 2.12269 0
M  V30 2672 H 246.171 4.06772 3.7315 0
M  V30 2673 H 248.647 2.14817 3.56361 0
M  V30 2674 H 247.523 2.44411 4.91482 0
M  V30 2675 H 247.784 0.802276 4.3476 0
M  V30 2676 N 246.843 -1.10192 1.12674 0
M  V30 2677 C 247.791 -2.18694 0.792196 0
M  V30 2678 C 248.785 -1.67938 -0.222058 0
M  V30 2679 O 249.991 -1.79822 -0.0800074 0
M  V30 2680 H 246.366 -0.713223 0.238364 0
M  V30 2681 H 248.337 -2.44149 1.71564 0
M  V30 2682 C 247.086 -3.46682 0.265859 0
M  V30 2683 H 246.409 -3.86101 1.03761 0
M  V30 2684 H 247.849 -4.23942 0.0701128 0
M  V30 2685 C 246.308 -3.21506 -1.00675 0
M  V30 2686 O 246.838 -3.43408 -2.08408 0
M  V30 2687 N 245.044 -2.75158 -0.934692 0
M  V30 2688 H 244.591 -2.57535 -0.0578604 0
M  V30 2689 H 244.549 -2.58691 -1.7868 0
M  V30 2690 N 248.321 -0.919034 -1.28029 0
M  V30 2691 C 249.546 -0.570357 -1.99403 0
M  V30 2692 C 249.971 0.842486 -1.68178 0
M  V30 2693 O 249.329 1.56391 -0.917141 0
M  V30 2694 C 249.377 -0.792541 -3.51783 0
M  V30 2695 O 248.481 0.145988 -4.12142 0
M  V30 2696 H 247.822 -0.220555 -0.6263 0
M  V30 2697 H 250.352 -1.23592 -1.63053 0
M  V30 2698 H 250.362 -0.704708 -4.01868 0
M  V30 2699 H 249.037 -1.82247 -3.73844 0
M  V30 2700 H 247.614 0.00897528 -3.72899 0
M  V30 2701 N 249.799 1.42003 -0.683588 0
M  V30 2702 C 251.029 2.05448 -0.217866 0
M  V30 2703 C 251.437 1.51491 1.13346 0
M  V30 2704 O 250.78 0.653048 1.717 0
M  V30 2705 C 250.842 3.59399 -0.0850118 0
M  V30 2706 C 250.506 4.36093 -1.36645 0
M  V30 2707 C 251.503 4.66169 -2.30179 0
M  V30 2708 C 249.188 4.75578 -1.61649 0
M  V30 2709 C 251.182 5.34676 -3.46988 0
M  V30 2710 C 248.869 5.43824 -2.78745 0
M  V30 2711 C 249.867 5.73299 -3.71238 0
M  V30 2712 O 249.555 6.40142 -4.86285 0
M  V30 2713 H 249.287 0.668344 -0.101454 0
M  V30 2714 H 251.841 1.82974 -0.933248 0
M  V30 2715 H 250.071 3.80566 0.686031 0
M  V30 2716 H 251.76 4.04457 0.341973 0
M  V30 2717 H 252.526 4.36156 -2.12115 0
M  V30 2718 H 248.405 4.52025 -0.905243 0
M  V30 2719 H 251.949 5.57599 -4.19201 0
M  V30 2720 H 247.846 5.73254 -2.96732 0
M  V30 2721 H 248.614 6.58636 -4.85944 0
M  V30 2722 N 251.277 0.427512 1.51691 0
M  V30 2723 C 252.688 -0.0378867 1.86662 0
M  V30 2724 C 253.039 -1.42819 1.34525 0
M  V30 2725 O 252.164 -2.05037 0.692014 0
M  V30 2726 C 252.759 -0.0755266 3.38716 0
M  V30 2727 C 251.318 -0.485309 3.73258 0
M  V30 2728 C 250.465 0.328399 2.75349 0
M  V30 2729 H 253.416 0.64379 1.45055 0
M  V30 2730 H 253.437 -0.887056 3.70016 0
M  V30 2731 H 252.949 0.936487 3.76632 0
M  V30 2732 H 251.05 -1.50329 3.40928 0
M  V30 2733 H 251.163 -0.21693 4.78609 0
M  V30 2734 H 249.527 -0.211905 2.53817 0
M  V30 2735 H 250.31 1.3391 3.16106 0
M  V30 2736 N 252.755 -1.56801 0.158532 0
M  V30 2737 C 253.98 -2.01295 -0.499516 0
M  V30 2738 C 254.405 -1.03799 -1.56867 0
M  V30 2739 O 253.763 -0.0155162 -1.81293 0
M  V30 2740 C 253.811 -3.44469 -1.06647 0
M  V30 2741 O 252.915 -3.50012 -2.18095 0
M  V30 2742 H 252.256 -0.652884 -0.12099 0
M  V30 2743 H 254.786 -2.02958 0.258661 0
M  V30 2744 H 254.796 -3.8351 -1.39227 0
M  V30 2745 H 253.471 -4.14932 -0.283581 0
M  V30 2746 H 252.048 -3.22822 -1.86656 0
M  V30 2747 N 254.233 0.115231 -1.57178 0
M  V30 2748 C 255.163 1.1423 -2.03651 0
M  V30 2749 C 256.144 1.42967 -0.921655 0
M  V30 2750 O 257.329 1.53343 -1.19162 0
M  V30 2751 C 254.459 2.4675 -2.44401 0
M  V30 2752 C 253.413 2.32467 -3.59365 0
M  V30 2753 C 252.739 3.69984 -3.86026 0
M  V30 2754 C 254.039 1.78203 -4.90959 0
M  V30 2755 H 255.733 0.755749 -2.89705 0
M  V30 2756 H 253.279 0.362093 -1.39373 0
M  V30 2757 H 255.232 3.18854 -2.75517 0
M  V30 2758 H 253.956 2.87302 -1.55322 0
M  V30 2759 H 252.615 1.62811 -3.28463 0
M  V30 2760 H 252.263 4.08028 -2.94147 0
M  V30 2761 H 251.963 3.61279 -4.63412 0
M  V30 2762 H 253.487 4.43587 -4.19599 0
M  V30 2763 H 254.901 2.40128 -5.20587 0
M  V30 2764 H 253.298 1.8031 -5.72371 0
M  V30 2765 H 254.368 0.739876 -4.79222 0
M  V30 2766 N 255.711 1.52812 0.385517 0
M  V30 2767 C 256.957 1.68275 1.13188 0
M  V30 2768 C 257.29 0.423179 1.89533 0
M  V30 2769 O 256.565 -0.579113 1.85679 0
M  V30 2770 C 256.848 2.92001 2.1073 0
M  V30 2771 C 256.701 4.28067 1.38125 0
M  V30 2772 C 258.02 3.11283 3.11113 0
M  V30 2773 H 255.139 0.612352 0.410115 0
M  V30 2774 H 257.781 1.85415 0.414869 0
M  V30 2775 H 255.931 2.77519 2.71874 0
M  V30 2776 H 257.603 4.54324 0.799187 0
M  V30 2777 H 255.846 4.28388 0.683092 0
M  V30 2778 H 256.517 5.10733 2.09417 0
M  V30 2779 H 258.993 3.2482 2.6006 0
M  V30 2780 H 257.869 3.99325 3.76605 0
M  V30 2781 H 258.13 2.25656 3.80173 0
M  V30 2782 N 257.189 -0.644168 1.43834 0
M  V30 2783 C 258.119 -1.76814 1.52509 0
M  V30 2784 C 259.1 -1.65823 0.379052 0
M  V30 2785 O 260.285 -1.84781 0.597466 0
M  V30 2786 C 257.415 -3.15288 1.4564 0
M  V30 2787 C 256.369 -3.41053 2.58586 0
M  V30 2788 C 255.695 -4.79421 2.36769 0
M  V30 2789 C 256.995 -3.34902 4.00797 0
M  V30 2790 H 258.689 -1.69812 2.46586 0
M  V30 2791 H 256.235 -0.815542 1.1868 0
M  V30 2792 H 258.188 -3.93681 1.50311 0
M  V30 2793 H 256.912 -3.23043 0.480725 0
M  V30 2794 H 255.571 -2.65035 2.53282 0
M  V30 2795 H 255.219 -4.83863 1.37424 0
M  V30 2796 H 254.919 -4.9762 3.12487 0
M  V30 2797 H 256.443 -5.6006 2.43238 0
M  V30 2798 H 257.857 -4.03218 4.07539 0
M  V30 2799 H 256.254 -3.64637 4.76613 0
M  V30 2800 H 257.324 -2.32928 4.25291 0
M  V30 2801 N 258.668 -1.30515 -0.883378 0
M  V30 2802 C 259.6 -1.12846 -1.99496 0
M  V30 2803 C 260.613 -0.0712571 -1.62644 0
M  V30 2804 O 261.802 -0.317432 -1.75655 0
M  V30 2805 C 258.902 -0.699123 -3.3161 0
M  V30 2806 C 258.075 -1.83842 -3.96889 0
M  V30 2807 C 257.134 -1.39737 -5.07307 0
M  V30 2808 O 256.16 -2.10485 -5.28852 0
M  V30 2809 N 257.362 -0.277279 -5.79837 0
M  V30 2810 H 260.127 -2.08585 -2.15203 0
M  V30 2811 H 257.688 -1.22672 -1.05656 0
M  V30 2812 H 259.68 -0.387044 -4.02845 0
M  V30 2813 H 258.25 0.166276 -3.12157 0
M  V30 2814 H 257.47 -2.31853 -3.18807 0
M  V30 2815 H 258.758 -2.60187 -4.37241 0
M  V30 2816 H 258.156 0.3122 -5.64838 0
M  V30 2817 H 256.713 -0.0246623 -6.51795 0
M  V30 2818 N 260.146 1.09593 -1.13257 0
M  V30 2819 C 261.395 1.81105 -0.887917 0
M  V30 2820 C 261.708 1.86563 0.587672 0
M  V30 2821 O 262.914 2.54367 0.949204 0
M  V30 2822 C 261.37 3.25338 -1.53895 0
M  V30 2823 C 260.978 3.28151 -3.04994 0
M  V30 2824 C 262.722 4.01617 -1.37492 0
M  V30 2825 C 260.629 4.66897 -3.6299 0
M  V30 2826 H 259.559 0.678661 -0.328534 0
M  V30 2827 H 262.21 1.23183 -1.36008 0
M  V30 2828 H 260.592 3.8331 -0.994446 0
M  V30 2829 H 261.766 2.79953 -3.66009 0
M  V30 2830 H 260.081 2.65361 -3.20893 0
M  V30 2831 H 262.678 5.04119 -1.78235 0
M  V30 2832 H 263.021 4.15072 -0.31957 0
M  V30 2833 H 263.554 3.50082 -1.88912 0
M  V30 2834 H 260.293 4.58643 -4.68323 0
M  V30 2835 H 259.813 5.15426 -3.06752 0
M  V30 2836 H 261.492 5.3587 -3.62563 0
M  V30 2837 N 261.624 0.925811 1.2754 0
M  V30 2838 C 262.572 0.413897 2.28888 0
M  V30 2839 C 263.566 -0.500779 1.61829 0
M  V30 2840 O 264.772 -0.38069 1.75928 0
M  V30 2841 H 261.147 0.115274 0.743112 0
M  V30 2842 H 263.118 1.28151 2.69481 0
M  V30 2843 C 261.867 -0.319792 3.46226 0
M  V30 2844 H 261.19 0.374846 3.98039 0
M  V30 2845 H 262.63 -0.642435 4.19105 0
M  V30 2846 C 261.089 -1.53209 3.00048 0
M  V30 2847 O 261.619 -2.6309 3.03557 0
M  V30 2848 N 259.825 -1.38326 2.55566 0
M  V30 2849 H 259.372 -0.489292 2.5291 0
M  V30 2850 H 259.33 -2.19564 2.25031 0
M  V30 2851 N 263.102 -1.41638 0.69111 0
M  V30 2852 C 264.379 -1.95036 0.148421 0
M  V30 2853 C 264.759 -1.63072 -1.34055 0
M  V30 2854 O 264.107 -0.93538 -2.08478 0
M  V30 2855 C 264.317 -3.46279 0.434951 0
M  V30 2856 C 265.665 -4.23069 0.360275 0
M  V30 2857 O 266.689 -3.54277 0.369613 0
M  V30 2858 O 265.548 -5.45583 0.316534 0
M  V30 2859 H 262.642 -0.826908 0.0123654 0
M  V30 2860 H 265.188 -1.5138 0.766963 0
M  V30 2861 H 263.96 -3.6281 1.46576 0
M  V30 2862 H 263.583 -3.97019 -0.214787 0
M  V30 2863 N 264.58 -0.43555 -1.51462 0
M  V30 2864 C 265.543 0.365137 -2.26273 0
M  V30 2865 C 266.543 0.951227 -1.29647 0
M  V30 2866 O 267.733 0.825958 -1.53374 0
M  V30 2867 C 264.865 1.51645 -3.05314 0
M  V30 2868 H 266.058 -0.290474 -2.9849 0
M  V30 2869 H 263.611 -0.188676 -1.55157 0
M  V30 2870 H 264.346 2.20816 -2.3751 0
M  V30 2871 H 264.131 1.10238 -3.76284 0
M  V30 2872 H 265.621 2.08218 -3.61987 0
M  V30 2873 N 266.058 1.56714 -0.166846 0
M  V30 2874 C 267.288 2.00828 0.48494 0
M  V30 2875 C 267.696 1.04612 1.57648 0
M  V30 2876 O 267.039 0.0383201 1.8366 0
M  V30 2877 C 267.101 3.4137 1.12723 0
M  V30 2878 C 266.765 4.56654 0.177886 0
M  V30 2879 C 267.762 5.16402 -0.60207 0
M  V30 2880 C 265.447 5.02244 0.0750139 0
M  V30 2881 C 267.441 6.20167 -1.47215 0
M  V30 2882 C 265.128 6.05859 -0.798649 0
M  V30 2883 C 266.126 6.64691 -1.57082 0
M  V30 2884 O 265.814 7.66297 -2.42989 0
M  V30 2885 H 265.546 0.663587 0.128953 0
M  V30 2886 H 268.1 2.03692 -0.264365 0
M  V30 2887 H 266.33 3.35406 1.92457 0
M  V30 2888 H 268.019 3.69466 1.68076 0
M  V30 2889 H 268.785 4.82065 -0.53274 0
M  V30 2890 H 264.664 4.56167 0.665812 0
M  V30 2891 H 268.208 6.66016 -2.07531 0
M  V30 2892 H 264.105 6.39621 -0.869199 0
M  V30 2893 H 264.873 7.83601 -2.36455 0
M  V30 2894 N 267.536 -0.106894 1.57237 0
M  V30 2895 C 268.783 -0.812526 1.85484 0
M  V30 2896 C 269.111 -1.79304 0.753687 0
M  V30 2897 O 268.366 -1.94047 -0.253853 0
M  V30 2898 C 268.665 -1.58628 3.20268 0
M  V30 2899 C 268.331 -0.748967 4.44636 0
M  V30 2900 C 266.993 -0.518104 4.78403 0
M  V30 2901 C 269.345 -0.166122 5.20935 0
M  V30 2902 C 266.673 0.305659 5.85903 0
M  V30 2903 C 269.025 0.644899 6.29304 0
M  V30 2904 C 267.689 0.885965 6.61594 0
M  V30 2905 H 266.959 -0.297324 0.678734 0
M  V30 2906 H 269.606 -0.0744332 1.91355 0
M  V30 2907 H 267.911 -2.39562 3.10028 0
M  V30 2908 H 269.608 -2.13643 3.39349 0
M  V30 2909 H 266.198 -0.939006 4.18187 0
M  V30 2910 H 270.382 -0.33167 4.95191 0
M  V30 2911 H 265.638 0.501528 6.0934 0
M  V30 2912 H 269.812 1.10345 6.87602 0
M  V30 2913 H 267.439 1.52609 7.44725 0
M  V30 2914 N 269.014 -1.53014 -0.377408 0
M  V30 2915 C 270.425 -1.60438 -0.954798 0
M  V30 2916 C 270.776 -0.464418 -1.90624 0
M  V30 2917 O 269.901 0.41087 -2.12464 0
M  V30 2918 C 270.496 -2.90797 -1.73847 0
M  V30 2919 C 269.055 -3.00595 -2.26538 0
M  V30 2920 C 268.202 -2.55645 -1.07429 0
M  V30 2921 H 271.153 -1.57926 -0.156575 0
M  V30 2922 H 271.174 -2.77935 -2.5987 0
M  V30 2923 H 270.686 -3.73746 -1.04574 0
M  V30 2924 H 268.787 -2.22208 -2.99089 0
M  V30 2925 H 268.9 -4.05456 -2.5523 0
M  V30 2926 H 267.264 -2.10239 -1.43777 0
M  V30 2927 H 268.047 -3.41 -0.396728 0
M  V30 2928 N 270.492 0.636531 -1.44174 0
M  V30 2929 C 271.741 1.39213 -1.45954 0
M  V30 2930 C 272.054 1.95374 -0.0939119 0
M  V30 2931 O 273.26 2.71498 0.0107767 0
M  V30 2932 C 271.716 2.52025 -2.56927 0
M  V30 2933 C 271.324 2.024 -3.99673 0
M  V30 2934 C 273.068 3.29269 -2.67922 0
M  V30 2935 C 270.975 3.12521 -5.0208 0
M  V30 2936 H 269.905 0.523132 -0.542999 0
M  V30 2937 H 272.556 0.685349 -1.70221 0
M  V30 2938 H 270.938 3.25253 -2.25891 0
M  V30 2939 H 272.112 1.36073 -4.40251 0
M  V30 2940 H 270.427 1.37987 -3.92872 0
M  V30 2941 H 273.024 4.11352 -3.41605 0
M  V30 2942 H 273.367 3.78397 -1.73555 0
M  V30 2943 H 273.9 2.63129 -2.98342 0
M  V30 2944 H 270.639 2.68343 -5.98057 0
M  V30 2945 H 270.159 3.77507 -4.66099 0
M  V30 2946 H 271.838 3.77385 -5.25538 0
M  V30 2947 N 271.97 1.30982 0.876444 0
M  V30 2948 C 272.88 1.2003 2.01569 0
M  V30 2949 C 273.896 0.11838 1.73597 0
M  V30 2950 O 275.072 0.33495 1.98595 0
M  V30 2951 C 272.137 0.901637 3.34771 0
M  V30 2952 C 271.198 2.06979 3.76109 0
M  V30 2953 C 270.431 1.78529 5.02954 0
M  V30 2954 O 270.654 0.717296 5.65872 0
M  V30 2955 O 269.588 2.64019 5.40905 0
M  V30 2956 H 273.414 2.15753 2.13739 0
M  V30 2957 H 270.999 1.10658 1.00375 0
M  V30 2958 H 272.881 0.750645 4.1466 0
M  V30 2959 H 271.556 -0.0256141 3.2369 0
M  V30 2960 H 270.463 2.27616 2.96887 0
M  V30 2961 H 271.796 2.97907 3.91807 0
M  V30 2962 N 273.449 -1.08991 1.13837 0
M  V30 2963 C 274.695 -1.81526 0.90422 0
M  V30 2964 C 275.028 -1.85706 -0.568066 0
M  V30 2965 O 274.303 -1.32855 -1.42056 0
M  V30 2966 C 274.586 -3.27447 1.49835 0
M  V30 2967 C 274.439 -3.31512 3.04006 0
M  V30 2968 C 275.758 -4.24256 1.17025 0
M  V30 2969 H 272.877 -0.659029 0.329923 0
M  V30 2970 H 275.519 -1.27644 1.40737 0
M  V30 2971 H 273.669 -3.73462 1.07044 0
M  V30 2972 H 275.341 -2.93867 3.55584 0
M  V30 2973 H 273.584 -2.70963 3.38765 0
M  V30 2974 H 274.255 -4.34329 3.40679 0
M  V30 2975 H 276.731 -3.86549 1.54009 0
M  V30 2976 H 275.607 -5.24684 1.61237 0
M  V30 2977 H 275.868 -4.42019 0.0846274 0
M  V30 2978 N 274.927 -0.932562 -1.27047 0
M  V30 2979 C 276.204 -0.49377 -1.89265 0
M  V30 2980 C 276.584 1.02833 -1.8436 0
M  V30 2981 O 275.932 1.88461 -1.29209 0
M  V30 2982 C 276.142 -1.04536 -3.32976 0
M  V30 2983 C 277.49 -1.10879 -4.09867 0
M  V30 2984 O 278.514 -0.995327 -3.42011 0
M  V30 2985 O 277.373 -1.28417 -5.31198 0
M  V30 2986 H 274.467 -0.159596 -0.811454 0
M  V30 2987 H 277.013 -1.02457 -1.3528 0
M  V30 2988 H 275.785 -2.08913 -3.30864 0
M  V30 2989 H 275.408 -0.496494 -3.94488 0
M  V30 2990 N 276.405 1.4127 -0.698611 0
M  V30 2991 C 277.635 2.05205 -0.239644 0
M  V30 2992 C 278.043 1.52684 1.11733 0
M  V30 2993 O 277.386 0.671222 1.70998 0
M  V30 2994 C 277.448 3.59289 -0.123126 0
M  V30 2995 C 277.112 4.34619 -1.41263 0
M  V30 2996 C 278.109 4.63701 -2.35111 0
M  V30 2997 C 275.794 4.73837 -1.66684 0
M  V30 2998 C 277.788 5.30966 -3.52639 0
M  V30 2999 C 275.475 5.40837 -2.84498 0
M  V30 3000 C 276.473 5.69329 -3.77298 0
M  V30 3001 O 276.161 6.34949 -4.93047 0
M  V30 3002 H 275.893 0.66723 -0.108537 0
M  V30 3003 H 278.447 1.81974 -0.952602 0
M  V30 3004 H 276.677 3.81272 0.645628 0
M  V30 3005 H 278.366 4.04797 0.299056 0
M  V30 3006 H 279.132 4.33882 -2.16729 0
M  V30 3007 H 275.011 4.51039 -0.953135 0
M  V30 3008 H 278.555 5.53121 -4.25091 0
M  V30 3009 H 274.452 5.70075 -3.02795 0
M  V30 3010 H 275.22 6.53445 -4.92902 0
M  V30 3011 N 277.883 0.443576 1.51229 0
M  V30 3012 C 278.813 -0.355142 2.30783 0
M  V30 3013 C 279.794 -1.0154 1.36468 0
M  V30 3014 O 280.979 -1.01785 1.65389 0
M  V30 3015 C 278.109 -1.45312 3.15439 0
M  V30 3016 C 277.063 -0.916002 4.18083 0
M  V30 3017 C 276.389 -2.1102 4.91299 0
M  V30 3018 C 277.689 0.0538602 5.22272 0
M  V30 3019 H 279.383 0.308767 2.97804 0
M  V30 3020 H 276.929 0.149937 1.43217 0
M  V30 3021 H 278.882 -2.01914 3.69876 0
M  V30 3022 H 277.606 -2.14541 2.46252 0
M  V30 3023 H 276.265 -0.372145 3.64706 0
M  V30 3024 H 275.913 -2.78882 4.18609 0
M  V30 3025 H 275.613 -1.75717 5.60712 0
M  V30 3026 H 277.137 -2.68164 5.48562 0
M  V30 3027 H 278.551 -0.422069 5.71744 0
M  V30 3028 H 276.948 0.319776 5.99247 0
M  V30 3029 H 278.018 0.98858 4.74716 0
M  V30 3030 N 279.361 -1.56624 0.175154 0
M  V30 3031 C 280.586 -2.01813 -0.478137 0
M  V30 3032 C 281.011 -1.05457 -1.55757 0
M  V30 3033 O 280.369 -0.0347439 -1.81267 0
M  V30 3034 C 280.417 -3.45581 -1.02987 0
M  V30 3035 O 279.521 -3.52305 -2.14371 0
M  V30 3036 H 278.862 -0.65413 -0.114059 0
M  V30 3037 H 281.392 -2.02673 0.280173 0
M  V30 3038 H 281.402 -3.84965 -1.35151 0
M  V30 3039 H 280.077 -4.1521 -0.239556 0
M  V30 3040 H 278.654 -3.24783 -1.83222 0
M  V30 3041 N 280.839 0.0985539 -1.57292 0
M  V30 3042 C 282.067 0.816318 -1.90115 0
M  V30 3043 C 282.482 1.72451 -0.768509 0
M  V30 3044 O 281.839 1.80643 0.259687 0
M  V30 3045 C 281.89 1.63259 -3.22535 0
M  V30 3046 O 281.611 0.760934 -4.31441 0
M  V30 3047 C 283.112 2.45372 -3.69199 0
M  V30 3048 H 280.332 0.233595 -0.629027 0
M  V30 3049 H 282.876 0.0768229 -2.04356 0
M  V30 3050 H 281.031 2.32463 -3.09903 0
M  V30 3051 H 281.445 1.32595 -5.07463 0
M  V30 3052 H 282.919 2.98144 -4.64558 0
M  V30 3053 H 283.396 3.23677 -2.96867 0
M  V30 3054 H 284.002 1.81373 -3.84687 0
M  V30 3055 N 282.317 1.53212 0.369288 0
M  V30 3056 C 283.227 1.82342 1.47609 0
M  V30 3057 C 284.243 0.711532 1.58787 0
M  V30 3058 O 285.419 1.0012 1.74751 0
M  V30 3059 C 282.484 2.00393 2.8292 0
M  V30 3060 C 281.545 3.24297 2.81301 0
M  V30 3061 C 280.778 3.41478 4.10157 0
M  V30 3062 O 281.001 2.63033 5.06132 0
M  V30 3063 O 279.935 4.34817 4.16194 0
M  V30 3064 H 283.761 2.76366 1.25918 0
M  V30 3065 H 281.346 1.38547 0.559034 0
M  V30 3066 H 283.228 2.13859 3.63101 0
M  V30 3067 H 281.903 1.09559 3.04596 0
M  V30 3068 H 280.81 3.16257 1.99831 0
M  V30 3069 H 282.143 4.15041 2.64578 0
M  V30 3070 N 283.795 -0.628877 1.44509 0
M  V30 3071 C 285.206 -1.21054 1.42137 0
M  V30 3072 C 285.557 -1.95715 0.137881 0
M  V30 3073 O 284.682 -2.02554 -0.761645 0
M  V30 3074 C 285.277 -2.20189 2.57493 0
M  V30 3075 C 283.836 -2.73777 2.58308 0
M  V30 3076 C 282.983 -1.48813 2.33987 0
M  V30 3077 H 285.934 -0.41942 1.53057 0
M  V30 3078 H 285.955 -3.02833 2.30375 0
M  V30 3079 H 285.467 -1.6582 3.50892 0
M  V30 3080 H 283.568 -3.32142 1.68856 0
M  V30 3081 H 283.681 -3.19662 3.56865 0
M  V30 3082 H 282.045 -1.77024 1.83124 0
M  V30 3083 H 282.828 -0.963442 3.29504 0
M  V30 3084 N 285.273 -1.31445 -0.869486 0
M  V30 3085 C 286.501 -1.24122 -1.65534 0
M  V30 3086 C 286.916 0.193387 -1.87807 0
M  V30 3087 O 286.273 1.12557 -1.43656 0
M  V30 3088 C 286.324 -1.98229 -3.02304 0
M  V30 3089 O 286.045 -3.3609 -2.81026 0
M  V30 3090 C 287.546 -1.97751 -3.96749 0
M  V30 3091 H 284.766 -0.428868 -0.516055 0
M  V30 3092 H 287.31 -1.73328 -1.08525 0
M  V30 3093 H 285.465 -1.52782 -3.56001 0
M  V30 3094 H 285.879 -3.7383 -3.67902 0
M  V30 3095 H 287.353 -2.54114 -4.90031 0
M  V30 3096 H 287.83 -0.960137 -4.28577 0
M  V30 3097 H 288.436 -2.43079 -3.48988 0
M  V30 3098 N 286.751 1.08385 -1.14413 0
M  V30 3099 C 287.681 2.17321 -0.854044 0
M  V30 3100 C 288.662 1.69024 0.191049 0
M  V30 3101 O 289.847 1.94141 0.0476779 0
M  V30 3102 C 286.977 3.45719 -0.330983 0
M  V30 3103 C 285.931 4.07409 -1.31155 0
M  V30 3104 C 285.257 5.30762 -0.64778 0
M  V30 3105 C 286.557 4.48665 -2.67388 0
M  V30 3106 H 288.251 2.41845 -1.76498 0
M  V30 3107 H 285.797 1.16233 -0.850051 0
M  V30 3108 H 287.75 4.21241 -0.115645 0
M  V30 3109 H 286.474 3.2075 0.615381 0
M  V30 3110 H 285.133 3.33919 -1.51306 0
M  V30 3111 H 284.781 5.02078 0.304398 0
M  V30 3112 H 284.481 5.72992 -1.30207 0
M  V30 3113 H 286.005 6.08998 -0.441972 0
M  V30 3114 H 287.419 5.15364 -2.51143 0
M  V30 3115 H 285.816 5.01814 -3.29093 0
M  V30 3116 H 286.886 3.60543 -3.24248 0
M  V30 3117 N 288.23 0.939286 1.26551 0
M  V30 3118 C 289.177 0.446088 2.26448 0
M  V30 3119 C 290.147 -0.493234 1.58608 0
M  V30 3120 O 291.332 -0.409857 1.86346 0
M  V30 3121 C 288.472 -0.284375 3.43926 0
M  V30 3122 C 287.585 0.690399 4.26448 0
M  V30 3123 C 286.72 -0.0610712 5.31165 0
M  V30 3124 C 285.759 0.905649 6.05363 0
M  V30 3125 N 284.896 0.186055 7.01853 0
M  V30 3126 H 289.736 1.30291 2.68008 0
M  V30 3127 H 287.273 0.65371 1.31776 0
M  V30 3128 H 289.231 -0.724313 4.10864 0
M  V30 3129 H 287.861 -1.10535 3.03285 0
M  V30 3130 H 286.913 1.24885 3.59316 0
M  V30 3131 H 288.225 1.42873 4.779 0
M  V30 3132 H 287.379 -0.56038 6.04106 0
M  V30 3133 H 286.118 -0.832297 4.80546 0
M  V30 3134 H 285.123 1.4161 5.3125 0
M  V30 3135 H 286.348 1.67685 6.58072 0
M  V30 3136 H 284.294 -0.566714 6.53548 0
M  V30 3137 H 284.211 0.863752 7.51049 0
M  V30 3138 H 285.479 -0.292221 7.78952 0
M  V30 3139 N 289.708 -1.40897 0.706093 0
M  V30 3140 C 290.638 -2.33418 0.0620085 0
M  V30 3141 C 291.619 -1.52385 -0.755827 0
M  V30 3142 O 292.804 -1.80886 -0.706674 0
M  V30 3143 C 289.934 -3.36293 -0.867445 0
M  V30 3144 C 288.888 -4.27716 -0.155932 0
M  V30 3145 C 288.214 -5.2105 -1.20046 0
M  V30 3146 C 289.514 -5.12944 0.984149 0
M  V30 3147 H 291.208 -2.87527 0.83477 0
M  V30 3148 H 288.754 -1.38249 0.402875 0
M  V30 3149 H 290.707 -3.99949 -1.32735 0
M  V30 3150 H 289.431 -2.80556 -1.67199 0
M  V30 3151 H 288.09 -3.65498 0.284047 0
M  V30 3152 H 287.738 -4.61624 -1.99781 0
M  V30 3153 H 287.438 -5.83056 -0.729328 0
M  V30 3154 H 288.962 -5.87584 -1.66066 0
M  V30 3155 H 290.376 -5.70109 0.604048 0
M  V30 3156 H 288.773 -5.83945 1.38304 0
M  V30 3157 H 289.843 -4.49485 1.81911 0
M  V30 3158 N 291.186 -0.45159 -1.50991 0
M  V30 3159 C 292.435 0.111653 -2.01391 0
M  V30 3160 C 292.748 1.42529 -1.33959 0
M  V30 3161 O 293.954 2.07232 -1.75405 0
M  V30 3162 C 292.41 0.249514 -3.59034 0
M  V30 3163 C 292.018 -1.05453 -4.35412 0
M  V30 3164 C 293.762 0.765762 -4.17536 0
M  V30 3165 C 291.669 -0.881529 -5.84793 0
M  V30 3166 H 290.599 0.0455022 -0.752626 0
M  V30 3167 H 293.25 -0.583524 -1.73975 0
M  V30 3168 H 291.632 1.00803 -3.82955 0
M  V30 3169 H 292.806 -1.82248 -4.23229 0
M  V30 3170 H 291.121 -1.50039 -3.88429 0
M  V30 3171 H 293.718 0.911913 -5.26866 0
M  V30 3172 H 294.061 1.75201 -3.77638 0
M  V30 3173 H 294.594 0.0651744 -3.97747 0
M  V30 3174 H 291.333 -1.84057 -6.29129 0
M  V30 3175 H 290.853 -0.153625 -5.99603 0
M  V30 3176 H 292.532 -0.540363 -6.4474 0
M  V30 3177 N 292.664 1.56529 -0.183458 0
M  V30 3178 C 294.08 1.58664 0.172554 0
M  V30 3179 C 294.28 1.19925 1.61926 0
M  V30 3180 O 293.336 0.916534 2.35278 0
M  V30 3181 C 294.649 3.00463 -0.119262 0
M  V30 3182 C 296.197 3.12945 -0.0584396 0
M  V30 3183 C 296.672 4.56857 -0.323408 0
M  V30 3184 N 298.163 4.62403 -0.271612 0
M  V30 3185 C 298.898 5.71626 -0.450639 0
M  V30 3186 N 298.394 6.89362 -0.689384 0
M  V30 3187 N 300.187 5.60775 -0.385701 0
M  V30 3188 H 292.338 1.79994 -1.12765 0
M  V30 3189 H 294.601 0.834808 -0.449222 0
M  V30 3190 H 294.307 3.33326 -1.12192 0
M  V30 3191 H 294.181 3.72659 0.583544 0
M  V30 3192 H 296.568 2.79902 0.934805 0
M  V30 3193 H 296.649 2.4316 -0.794144 0
M  V30 3194 H 296.293 4.9061 -1.31392 0
M  V30 3195 H 296.223 5.24816 0.43305 0
M  V30 3196 H 298.714 3.77785 -0.0932256 0
M  V30 3197 H 299.027 7.68489 -0.815113 0
M  V30 3198 H 297.372 6.91196 -0.726142 0
M  V30 3199 H 300.563 4.67674 -0.199687 0
M  V30 3200 H 300.736 6.4584 -0.528646 0
M  V30 3201 N 294.142 -0.090211 1.57342 0
M  V30 3202 C 295.052 -1.12735 2.05738 0
M  V30 3203 C 296.068 -1.43557 0.983231 0
M  V30 3204 O 297.244 -1.54101 1.29672 0
M  V30 3205 C 294.309 -2.42659 2.47624 0
M  V30 3206 C 293.37 -2.18975 3.69254 0
M  V30 3207 C 292.603 -3.42704 4.09133 0
M  V30 3208 O 292.826 -4.51127 3.49057 0
M  V30 3209 O 291.76 -3.32003 5.02053 0
M  V30 3210 H 295.586 -0.746279 2.94388 0
M  V30 3211 H 293.171 -0.303064 1.46294 0
M  V30 3212 H 295.053 -3.19155 2.7517 0
M  V30 3213 H 293.728 -2.80182 1.62109 0
M  V30 3214 H 292.635 -1.40244 3.46818 0
M  V30 3215 H 293.968 -1.86342 4.55563 0
M  V30 3216 N 295.62 -1.53406 -0.361157 0
M  V30 3217 C 297.036 -1.43277 -0.703124 0
M  V30 3218 C 297.236 -0.575384 -1.9311 0
M  V30 3219 O 296.292 -0.0595362 -2.5243 0
M  V30 3220 C 297.605 -2.8653 -0.9122 0
M  V30 3221 C 299.153 -2.96191 -1.01193 0
M  V30 3222 C 299.628 -4.40514 -1.25345 0
M  V30 3223 N 301.119 -4.43962 -1.32105 0
M  V30 3224 C 301.854 -5.52746 -1.5251 0
M  V30 3225 N 301.35 -6.71567 -1.70203 0
M  V30 3226 N 303.143 -5.40331 -1.54916 0
M  V30 3227 H 295.294 -2.07654 0.446475 0
M  V30 3228 H 297.557 -0.937944 0.137715 0
M  V30 3229 H 297.263 -3.51605 -0.0816414 0
M  V30 3230 H 297.137 -3.30441 -1.81903 0
M  V30 3231 H 299.524 -2.31266 -1.83303 0
M  V30 3232 H 299.605 -2.55667 -0.0823929 0
M  V30 3233 H 299.249 -5.06014 -0.437346 0
M  V30 3234 H 299.179 -4.78614 -2.19627 0
M  V30 3235 H 301.67 -3.58332 -1.20028 0
M  V30 3236 H 301.983 -7.50241 -1.85359 0
M  V30 3237 H 300.328 -6.74545 -1.67373 0
M  V30 3238 H 303.519 -4.46465 -1.40663 0
M  V30 3239 H 303.692 -6.25173 -1.70477 0
M  V30 3240 N 297.098 0.621204 -1.44841 0
M  V30 3241 C 298.347 1.37658 -1.47422 0
M  V30 3242 C 298.66 1.95264 -0.114629 0
M  V30 3243 O 299.866 2.71494 -0.0180199 0
M  V30 3244 C 298.322 2.49285 -2.59586 0
M  V30 3245 C 297.93 1.98149 -4.01797 0
M  V30 3246 C 299.674 3.26409 -2.71399 0
M  V30 3247 C 297.581 3.07178 -5.05367 0
M  V30 3248 H 296.511 0.517344 -0.548517 0
M  V30 3249 H 299.162 0.667257 -1.70938 0
M  V30 3250 H 297.544 3.22839 -2.29328 0
M  V30 3251 H 298.718 1.31395 -4.41669 0
M  V30 3252 H 297.033 1.33812 -3.94314 0
M  V30 3253 H 299.63 4.07706 -3.45948 0
M  V30 3254 H 299.973 3.76535 -1.77559 0
M  V30 3255 H 300.506 2.5995 -3.01116 0
M  V30 3256 H 297.245 2.61985 -6.00869 0
M  V30 3257 H 296.765 3.72542 -4.70077 0
M  V30 3258 H 298.444 3.71789 -5.29511 0
M  V30 3259 N 298.576 1.31904 0.862503 0
M  V30 3260 C 299.825 1.21373 1.61094 0
M  V30 3261 C 300.138 -0.22504 1.94301 0
M  V30 3262 O 301.344 -0.452121 2.67709 0
M  V30 3263 C 299.8 2.12525 2.9045 0
M  V30 3264 C 299.408 3.61441 2.64697 0
M  V30 3265 C 301.152 2.10813 3.68454 0
M  V30 3266 C 299.059 4.44578 3.90006 0
M  V30 3267 H 297.989 0.450705 0.604468 0
M  V30 3268 H 300.64 1.56811 0.953027 0
M  V30 3269 H 299.022 1.69994 3.57656 0
M  V30 3270 H 300.196 4.12264 2.05851 0
M  V30 3271 H 298.511 3.65205 2.00036 0
M  V30 3272 H 301.108 2.70167 4.61426 0
M  V30 3273 H 301.451 1.09713 4.01583 0
M  V30 3274 H 301.984 2.51583 3.08141 0
M  V30 3275 H 298.723 5.46461 3.62023 0
M  V30 3276 H 298.243 3.98508 4.48276 0
M  V30 3277 H 299.922 4.57176 4.5782 0
M  V30 3278 N 300.054 -1.07777 1.14986 0
M  V30 3279 C 300.964 -2.18404 0.856546 0
M  V30 3280 C 301.98 -1.73211 -0.165485 0
M  V30 3281 O 303.156 -2.01399 0.00755219 0
M  V30 3282 C 300.221 -3.44977 0.34526 0
M  V30 3283 C 299.282 -4.0476 1.43065 0
M  V30 3284 C 298.515 -5.25291 0.943663 0
M  V30 3285 O 298.738 -5.70004 -0.212426 0
M  V30 3286 O 297.672 -5.76638 1.72547 0
M  V30 3287 H 301.498 -2.45978 1.78125 0
M  V30 3288 H 299.083 -1.17033 0.928631 0
M  V30 3289 H 300.965 -4.21348 0.0663671 0
M  V30 3290 H 299.64 -3.18965 -0.551631 0
M  V30 3291 H 298.547 -3.29949 1.76309 0
M  V30 3292 H 299.88 -4.35035 2.30229 0
M  V30 3293 N 301.532 -0.945985 -1.26051 0
M  V30 3294 C 302.48 -0.450259 -2.282 0
M  V30 3295 C 303.474 0.47497 -1.62605 0
M  V30 3296 O 304.68 0.352653 -1.76512 0
M  V30 3297 H 301.055 -0.127081 -0.741184 0
M  V30 3298 H 303.026 -1.32422 -2.67408 0
M  V30 3299 C 301.775 0.26467 -3.46691 0
M  V30 3300 H 301.098 -0.438123 -3.97392 0
M  V30 3301 H 302.538 0.575678 -4.20074 0
M  V30 3302 C 300.997 1.48416 -3.02447 0
M  V30 3303 O 301.527 2.58227 -3.07704 0
M  V30 3304 N 299.733 1.34243 -2.57735 0
M  V30 3305 H 299.28 0.448994 -2.53657 0
M  V30 3306 H 299.238 2.15957 -2.28495 0
M  V30 3307 N 303.011 1.40521 -0.713556 0
M  V30 3308 C 303.944 2.28198 -0.00881422 0
M  V30 3309 C 304.922 1.43227 0.769735 0
M  V30 3310 O 306.106 1.72641 0.756799 0
M  V30 3311 C 303.233 3.23758 0.994899 0
M  V30 3312 C 302.279 4.25391 0.3074 0
M  V30 3313 S 303.112 5.26765 -0.963247 0
M  V30 3314 C 304.268 6.25888 0.0384143 0
M  V30 3315 H 304.501 2.87622 -0.752407 0
M  V30 3316 H 302.034 1.45925 -0.504502 0
M  V30 3317 H 303.992 3.79341 1.56879 0
M  V30 3318 H 302.653 2.63396 1.71118 0
M  V30 3319 H 301.846 4.92596 1.0661 0
M  V30 3320 H 301.448 3.73497 -0.193879 0
M  V30 3321 H 303.74 6.71683 0.885912 0
M  V30 3322 H 304.683 7.05552 -0.60019 0
M  V30 3323 H 305.091 5.63072 0.401233 0
M  V30 3324 N 304.489 0.459591 1.5075 0
M  V30 3325 C 305.714 -0.0996819 2.0716 0
M  V30 3326 C 306.139 -1.33761 1.32249 0
M  V30 3327 O 305.497 -1.77551 0.366786 0
M  V30 3328 C 305.545 -0.378226 3.58611 0
M  V30 3329 O 304.649 -1.46081 3.85661 0
M  V30 3330 H 303.99 0.00791392 0.663953 0
M  V30 3331 H 306.52 0.647329 1.9409 0
M  V30 3332 H 306.53 -0.622135 4.03229 0
M  V30 3333 H 305.205 0.526439 4.12555 0
M  V30 3334 H 303.782 -1.20511 3.5289 0
M  V30 3335 N 305.967 -1.56429 0.191757 0
M  V30 3336 C 306.93 -2.17707 -0.716688 0
M  V30 3337 C 307.93 -1.13061 -1.14341 0
M  V30 3338 O 309.12 -1.38464 -1.05704 0
M  V30 3339 C 306.252 -2.77644 -1.97804 0
M  V30 3340 H 307.445 -2.99342 -0.1829 0
M  V30 3341 H 304.998 -1.56193 -0.0578566 0
M  V30 3342 H 305.733 -1.99799 -2.55443 0
M  V30 3343 H 305.518 -3.54246 -1.68083 0
M  V30 3344 H 307.008 -3.24708 -2.62592 0
M  V30 3345 N 307.445 0.0818655 -1.57387 0
M  V30 3346 C 308.377 1.12484 -1.997 0
M  V30 3347 C 309.39 1.35564 -0.90146 0
M  V30 3348 O 310.579 1.33982 -1.17945 0
M  V30 3349 C 307.679 2.47778 -2.31213 0
M  V30 3350 C 306.852 2.44793 -3.62485 0
M  V30 3351 C 305.911 3.62117 -3.81782 0
M  V30 3352 O 304.937 3.44005 -4.53486 0
M  V30 3353 N 306.139 4.82094 -3.23367 0
M  V30 3354 H 308.904 0.764585 -2.89783 0
M  V30 3355 H 306.465 0.270664 -1.59621 0
M  V30 3356 H 308.457 3.24891 -2.41304 0
M  V30 3357 H 307.027 2.75843 -1.4707 0
M  V30 3358 H 306.247 1.53134 -3.6324 0
M  V30 3359 H 307.535 2.39889 -4.48699 0
M  V30 3360 H 306.933 4.99713 -2.65148 0
M  V30 3361 H 305.49 5.56753 -3.38923 0
M  V30 3362 O 308.962 1.59916 0.225637 0
M  V30 3363 H 309.653 1.73205 0.867161 0
M  V30 END ATOM
M  V30 BEGIN BOND
M  V30 END BOND
M  V30 END CTAB
M  END
$$$$
