drugbank_target|Q888A4 Amine oxidase, flavin-containing protein (DB03147)
 OpenBabel12092120263D

  0  0  0     0  0            999 V3000
M  V30 BEGIN CTAB
M  V30 COUNTS 4974 5043 0 0 0
M  V30 BEGIN ATOM
M  V30 1 H -0.908 1.98254 -0.117106 0
M  V30 2 N 0 1.576 0 0
M  V30 3 C 0.933 2.03868 1.02534 0
M  V30 4 C 1.911 0.928543 1.3348 0
M  V30 5 O 3.095 1.19667 1.45644 0
M  V30 6 C 0.222 2.43627 2.35294 0
M  V30 7 C -0.732 3.65373 2.2001 0
M  V30 8 S 0.101 5.13292 1.52614 0
M  V30 9 C 1.257 5.56322 2.86805 0
M  V30 10 H 1.49 2.90518 0.631377 0
M  V30 11 H -0.977 1.52953 0.210867 0
M  V30 12 H 0.981 2.67203 3.11629 0
M  V30 13 H -0.358 1.57376 2.7183 0
M  V30 14 H -1.165 3.90944 3.18086 0
M  V30 15 H -1.563 3.418 1.51819 0
M  V30 16 H 0.729 5.58782 3.83104 0
M  V30 17 H 1.672 6.56266 2.65933 0
M  V30 18 H 2.08 4.83886 2.90714 0
M  V30 19 N 1.4781 -0.272755 1.55222 0
M  V30 20 C 2.7061 -1.02255 1.79865 0
M  V30 21 C 3.1211 -1.79924 0.572088 0
M  V30 22 O 2.4781 -1.76638 -0.458842 0
M  V30 23 C 2.5291 -1.98094 3.02392 0
M  V30 24 O 2.2501 -1.23572 4.20311 0
M  V30 25 C 3.7511 -2.84884 3.39641 0
M  V30 26 H 0.9711 -0.302057 0.599168 0
M  V30 27 H 3.5151 -0.303465 2.02236 0
M  V30 28 H 1.6701 -2.65465 2.82147 0
M  V30 29 H 2.0841 -1.88172 4.89583 0
M  V30 30 H 3.5581 -3.47927 4.28545 0
M  V30 31 H 4.0351 -3.54665 2.59055 0
M  V30 32 H 4.6411 -2.23003 3.62146 0
M  V30 33 N 2.9562 -1.48159 -0.537278 0
M  V30 34 C 4.2022 -1.56035 -1.29541 0
M  V30 35 C 4.5352 -0.230377 -1.92829 0
M  V30 36 O 3.8102 0.762952 -1.78911 0
M  V30 37 C 4.0932 -2.69323 -2.39034 0
M  V30 38 C 3.9462 -4.12002 -1.80485 0
M  V30 39 C 5.2652 -2.78408 -3.40847 0
M  V30 40 H 2.3842 -0.567992 -0.469632 0
M  V30 41 H 5.0262 -1.80302 -0.599277 0
M  V30 42 H 3.1762 -2.48763 -2.98412 0
M  V30 43 H 4.8482 -4.43981 -1.25215 0
M  V30 44 H 3.0912 -4.19344 -1.11055 0
M  V30 45 H 3.7622 -4.87077 -2.59731 0
M  V30 46 H 6.2382 -2.97012 -2.91416 0
M  V30 47 H 5.1142 -3.59416 -4.14863 0
M  V30 48 H 5.3752 -1.86269 -4.00944 0
M  V30 49 N 4.4343 0.785586 -1.36625 0
M  V30 50 C 5.8453 1.36101 -1.27803 0
M  V30 51 C 6.1963 1.96035 0.0804875 0
M  V30 52 O 5.3213 1.92834 0.982042 0
M  V30 53 C 5.9163 2.47442 -2.31426 0
M  V30 54 C 4.4753 3.00789 -2.26281 0
M  V30 55 C 3.6223 1.73896 -2.15999 0
M  V30 56 H 6.5733 0.586928 -1.47448 0
M  V30 57 H 6.5943 3.2656 -1.95291 0
M  V30 58 H 6.1063 2.03791 -3.30289 0
M  V30 59 H 4.2073 3.48851 -1.30896 0
M  V30 60 H 4.3203 3.57343 -3.19128 0
M  V30 61 H 2.6843 1.9628 -1.62316 0
M  V30 62 H 3.4673 1.32368 -3.16755 0
M  V30 63 N 5.9124 1.20967 1.01018 0
M  V30 64 C 7.1614 1.01796 1.74128 0
M  V30 65 C 7.4744 -0.449691 1.90361 0
M  V30 66 O 8.6804 -0.76068 2.60626 0
M  V30 67 C 7.1364 1.7727 3.13215 0
M  V30 68 C 6.7444 3.28171 3.04972 0
M  V30 69 C 8.4884 1.66489 3.90489 0
M  V30 70 C 6.3954 3.96156 4.39107 0
M  V30 71 H 5.3254 0.377276 0.652824 0
M  V30 72 H 7.9764 1.44651 1.12909 0
M  V30 73 H 6.3584 1.27205 3.75013 0
M  V30 74 H 7.5324 3.85499 2.52443 0
M  V30 75 H 5.8474 3.39437 2.41188 0
M  V30 76 H 8.4444 2.14617 4.89738 0
M  V30 77 H 8.7874 0.6222 4.11624 0
M  V30 78 H 9.3204 2.14003 3.35332 0
M  V30 79 H 6.0594 5.00604 4.23174 0
M  V30 80 H 5.5794 3.43617 4.91617 0
M  V30 81 H 7.2584 4.00774 5.07926 0
M  V30 82 N 7.3905 -1.2043 1.01659 0
M  V30 83 C 8.3535 -2.21433 0.591616 0
M  V30 84 C 9.3535 -1.57203 -0.338226 0
M  V30 85 O 10.5435 -1.73737 -0.126918 0
M  V30 86 C 7.6755 -3.40628 -0.136058 0
M  V30 87 H 8.8685 -2.60545 1.48514 0
M  V30 88 H 6.4215 -1.33893 0.806379 0
M  V30 89 H 7.1565 -3.07019 -1.04449 0
M  V30 90 H 6.9415 -3.88475 0.531917 0
M  V30 91 H 8.4315 -4.15475 -0.420735 0
M  V30 92 N 8.8686 -0.792821 -1.36206 0
M  V30 93 C 10.1176 -0.363353 -1.984 0
M  V30 94 C 10.4306 1.07172 -1.63626 0
M  V30 95 O 11.6366 1.60362 -2.19081 0
M  V30 96 C 10.0926 -0.59872 -3.54885 0
M  V30 97 C 9.7006 -2.04543 -3.9858 0
M  V30 98 C 11.4446 -0.233926 -4.23855 0
M  V30 99 C 9.3516 -2.22727 -5.47856 0
M  V30 100 H 8.2816 -0.13212 -0.742334 0
M  V30 101 H 10.9326 -0.974935 -1.55458 0
M  V30 102 H 9.3146 0.0826222 -3.95914 0
M  V30 103 H 10.4886 -2.76345 -3.68741 0
M  V30 104 H 8.8036 -2.36879 -3.42458 0
M  V30 105 H 11.4006 -0.348027 -5.33566 0
M  V30 106 H 11.7436 0.818351 -4.08177 0
M  V30 107 H 12.2766 -0.868639 -3.882 0
M  V30 108 H 9.0156 -3.2635 -5.68486 0
M  V30 109 H 8.5356 -1.55434 -5.7931 0
M  V30 110 H 10.2146 -2.03607 -6.14128 0
M  V30 111 N 10.3467 1.47872 -0.545128 0
M  V30 112 C 11.5957 2.01695 -0.0145033 0
M  V30 113 C 11.9087 1.42609 1.33873 0
M  V30 114 O 13.1147 1.88021 1.95858 0
M  V30 115 C 11.5707 3.59892 0.0245068 0
M  V30 116 C 11.1787 4.27966 -1.32475 0
M  V30 117 C 12.9227 4.21507 0.50316 0
M  V30 118 C 10.8297 5.78136 -1.2455 0
M  V30 119 H 9.7597 0.753998 -0.00165172 0
M  V30 120 H 12.4107 1.69985 -0.691175 0
M  V30 121 H 10.7927 3.88509 0.766575 0
M  V30 122 H 11.9667 4.11003 -2.08357 0
M  V30 123 H 10.2817 3.78286 -1.74036 0
M  V30 124 H 12.8787 5.31538 0.580656 0
M  V30 125 H 13.2217 3.87855 1.51243 0
M  V30 126 H 13.7547 3.97376 -0.183681 0
M  V30 127 H 10.4937 6.16388 -2.23039 0
M  V30 128 H 10.0137 5.97469 -0.528282 0
M  V30 129 H 11.6927 6.40099 -0.942488 0
M  V30 130 N 11.8248 0.280983 1.55075 0
M  V30 131 C 13.0728 -0.333455 1.9933 0
M  V30 132 C 13.3938 -1.55937 1.17085 0
M  V30 133 O 12.6638 -1.94143 0.261805 0
M  V30 134 H 11.2438 -0.126197 0.736263 0
M  V30 135 H 13.9058 0.387678 1.91005 0
M  V30 136 H 13.0018 -0.619292 3.05894 0
M  V30 137 N 13.3029 -1.57598 0.00835791 0
M  V30 138 C 14.5309 -1.95214 -0.68549 0
M  V30 139 C 14.9459 -0.883706 -1.66841 0
M  V30 140 O 14.3029 0.136565 -1.81988 0
M  V30 141 C 14.3539 -3.32865 -1.41007 0
M  V30 142 O 14.0749 -4.35609 -0.466552 0
M  V30 143 C 15.5759 -3.84991 -2.19765 0
M  V30 144 H 12.7959 -0.643422 -0.190392 0
M  V30 145 H 15.3399 -2.04406 0.0619607 0
M  V30 146 H 13.4949 -3.24956 -2.10908 0
M  V30 147 H 13.9089 -5.15288 -0.978699 0
M  V30 148 H 15.3829 -4.8371 -2.65948 0
M  V30 149 H 15.8599 -3.18137 -3.02796 0
M  V30 150 H 16.4659 -3.96103 -1.54864 0
M  V30 151 N 14.781 0.264519 -1.55364 0
M  V30 152 C 16.029 0.993021 -1.76021 0
M  V30 153 C 16.35 1.86511 -0.569099 0
M  V30 154 O 15.62 1.91438 0.415735 0
M  V30 155 H 14.2 0.369639 -0.649135 0
M  V30 156 H 16.862 0.286707 -1.9278 0
M  V30 157 H 15.958 1.62502 -2.66457 0
M  V30 158 N 16.2591 1.48442 0.529413 0
M  V30 159 C 17.5081 1.55742 1.28169 0
M  V30 160 C 17.8211 0.236511 1.94165 0
M  V30 161 O 19.0271 0.187761 2.7085 0
M  V30 162 C 17.4831 2.74667 2.32564 0
M  V30 163 C 17.0911 4.13402 1.72636 0
M  V30 164 C 18.8351 2.9128 3.08798 0
M  V30 165 C 16.7421 5.23587 2.74975 0
M  V30 166 H 15.6721 0.579796 0.48203 0
M  V30 167 H 18.3231 1.74776 0.559056 0
M  V30 168 H 16.7051 2.49067 3.07866 0
M  V30 169 H 17.8791 4.49022 1.03519 0
M  V30 170 H 16.1941 4.0191 1.08892 0
M  V30 171 H 18.7911 3.70767 3.85274 0
M  V30 172 H 19.1341 2.00757 3.64695 0
M  V30 173 H 19.6671 3.16782 2.40611 0
M  V30 174 H 16.4061 6.16076 2.23897 0
M  V30 175 H 15.9261 4.92454 3.42417 0
M  V30 176 H 17.6051 5.51724 3.37949 0
M  V30 177 N 17.7372 -0.778329 1.37039 0
M  V30 178 C 18.7002 -1.87301 1.32102 0
M  V30 179 C 19.7002 -1.59198 0.226405 0
M  V30 180 O 20.8902 -1.67403 0.481861 0
M  V30 181 C 18.0222 -3.24309 1.05055 0
M  V30 182 H 19.2152 -1.93093 2.29467 0
M  V30 183 H 16.7682 -0.977358 1.21973 0
M  V30 184 H 17.5032 -3.24196 0.0819373 0
M  V30 185 H 17.2882 -3.46098 1.84279 0
M  V30 186 H 18.7782 -4.04382 1.04234 0
M  V30 187 N 19.2153 -1.21501 -1.00376 0
M  V30 188 C 20.4633 -1.03095 -1.73827 0
M  V30 189 C 20.7843 0.436341 -1.90055 0
M  V30 190 O 20.0543 1.31466 -1.45236 0
M  V30 191 H 18.6343 -0.378487 -0.644016 0
M  V30 192 H 21.2963 -1.52831 -1.20949 0
M  V30 193 H 20.3923 -1.49991 -2.73695 0
M  V30 194 N 20.6934 1.19889 -1.02296 0
M  V30 195 C 21.6234 2.25141 -0.619174 0
M  V30 196 C 22.6044 1.66051 0.368915 0
M  V30 197 O 23.7894 1.92546 0.252941 0
M  V30 198 C 20.9194 3.4728 0.0368783 0
M  V30 199 C 19.8734 4.19005 -0.872865 0
M  V30 200 C 19.1994 5.34637 -0.0822402 0
M  V30 201 C 20.4994 4.74452 -2.18387 0
M  V30 202 H 22.1934 2.59171 -1.49903 0
M  V30 203 H 19.7394 1.24579 -0.722222 0
M  V30 204 H 21.6924 4.20098 0.330958 0
M  V30 205 H 20.4164 3.12433 0.95149 0
M  V30 206 H 19.0754 3.48061 -1.15105 0
M  V30 207 H 18.7234 4.96034 0.83422 0
M  V30 208 H 18.4234 5.83557 -0.688149 0
M  V30 209 H 19.9474 6.10255 0.205238 0
M  V30 210 H 21.3614 5.39055 -1.95172 0
M  V30 211 H 19.7584 5.33834 -2.74119 0
M  V30 212 H 20.8284 3.92844 -2.84257 0
M  V30 213 N 22.1715 0.800033 1.35784 0
M  V30 214 C 23.3965 0.388511 2.03729 0
M  V30 215 C 23.8215 -0.990481 1.5991 0
M  V30 216 O 23.1795 -1.64013 0.772612 0
M  V30 217 C 23.2275 0.4726 3.5749 0
M  V30 218 O 22.3315 -0.51646 4.09153 0
M  V30 219 H 21.6725 0.163271 0.643614 0
M  V30 220 H 24.2025 1.0841 1.73518 0
M  V30 221 H 24.2125 0.34003 4.06581 0
M  V30 222 H 22.8875 1.47848 3.88734 0
M  V30 223 H 21.4645 -0.344673 3.71304 0
M  V30 224 N 23.6496 -1.47581 0.552962 0
M  V30 225 C 24.6126 -2.28439 -0.186605 0
M  V30 226 C 25.6126 -1.36706 -0.84665 0
M  V30 227 O 26.8026 -1.59378 -0.703164 0
M  V30 228 C 23.9346 -3.16264 -1.2724 0
M  V30 229 H 25.1276 -2.95294 0.523609 0
M  V30 230 H 22.6806 -1.532 0.309745 0
M  V30 231 H 23.4156 -2.54091 -2.01514 0
M  V30 232 H 23.2006 -3.83769 -0.803968 0
M  V30 233 H 24.6906 -3.77198 -1.79196 0
M  V30 234 N 25.1277 -0.289203 -1.54924 0
M  V30 235 C 26.0907 0.579144 -2.21762 0
M  V30 236 C 27.0907 1.07047 -1.1999 0
M  V30 237 O 28.2807 0.968384 -1.44803 0
M  V30 238 C 25.4127 1.80055 -2.8947 0
M  V30 239 H 26.6057 -0.00464908 -2.999 0
M  V30 240 H 24.1587 -0.0399306 -1.56249 0
M  V30 241 H 24.8937 2.42449 -2.15381 0
M  V30 242 H 24.6787 1.45602 -3.64064 0
M  V30 243 H 26.1687 2.41773 -3.40493 0
M  V30 244 N 26.6058 1.57591 -0.0167156 0
M  V30 245 C 27.5378 2.06343 0.997753 0
M  V30 246 C 28.5508 0.984469 1.29661 0
M  V30 247 O 29.7398 1.26093 1.26344 0
M  V30 248 C 26.8398 2.46255 2.32834 0
M  V30 249 C 26.0128 3.77083 2.21646 0
M  V30 250 C 25.0718 4.0368 3.37534 0
M  V30 251 O 24.0978 4.7411 3.14973 0
M  V30 252 N 25.2998 3.52881 4.60929 0
M  V30 253 H 28.0648 2.93997 0.581875 0
M  V30 254 H 25.6258 1.61002 0.170316 0
M  V30 255 H 27.6178 2.61149 3.09166 0
M  V30 256 H 26.1878 1.64032 2.66106 0
M  V30 257 H 25.4078 3.72106 1.30119 0
M  V30 258 H 26.6958 4.62822 2.11361 0
M  V30 259 H 26.0938 2.95878 4.82154 0
M  V30 260 H 24.6508 3.73076 5.34469 0
M  V30 261 N 28.0839 -0.256276 1.55502 0
M  V30 262 C 29.0469 -1.30047 1.88734 0
M  V30 263 C 30.0469 -1.4154 0.763086 0
M  V30 264 O 31.2369 -1.40403 1.03115 0
M  V30 265 C 28.3689 -2.67953 2.10747 0
M  V30 266 H 29.5619 -1.01802 2.82093 0
M  V30 267 H 27.1149 -0.495134 1.4825 0
M  V30 268 H 27.8499 -3.01351 1.19825 0
M  V30 269 H 27.6349 -2.60993 2.92617 0
M  V30 270 H 29.1249 -3.43368 2.37673 0
M  V30 271 N 29.562 -1.4872 -0.521534 0
M  V30 272 C 30.492 -1.66771 -1.63431 0
M  V30 273 C 31.473 -0.516499 -1.62069 0
M  V30 274 O 32.658 -0.750013 -1.79132 0
M  V30 275 C 29.788 -1.71515 -3.01993 0
M  V30 276 C 28.742 -2.86222 -3.18216 0
M  V30 277 C 28.068 -2.76061 -4.57924 0
M  V30 278 C 29.368 -4.27419 -3.00184 0
M  V30 279 H 31.062 -2.59932 -1.48579 0
M  V30 280 H 28.608 -1.25089 -0.713358 0
M  V30 281 H 30.561 -1.82731 -3.7972 0
M  V30 282 H 29.285 -0.749393 -3.17886 0
M  V30 283 H 27.944 -2.74575 -2.42908 0
M  V30 284 H 27.592 -1.77437 -4.70665 0
M  V30 285 H 27.292 -3.53037 -4.69722 0
M  V30 286 H 28.816 -2.89256 -5.37739 0
M  V30 287 H 30.23 -4.39855 -3.67697 0
M  V30 288 H 28.627 -5.05458 -3.2347 0
M  V30 289 H 29.697 -4.43293 -1.96518 0
M  V30 290 N 31.0401 0.771051 -1.3745 0
M  V30 291 C 32.2681 1.56015 -1.35893 0
M  V30 292 C 32.6831 1.88718 0.0555523 0
M  V30 293 O 32.0401 1.51502 1.01752 0
M  V30 294 C 32.0911 2.87001 -2.19801 0
M  V30 295 O 31.8121 2.557 -3.55738 0
M  V30 296 C 33.3131 3.81228 -2.26231 0
M  V30 297 H 30.5331 0.483317 -0.465453 0
M  V30 298 H 33.0771 0.955611 -1.80799 0
M  V30 299 H 31.2321 3.43877 -1.78402 0
M  V30 300 H 31.6461 3.39584 -3.99729 0
M  V30 301 H 33.1201 4.70139 -2.89263 0
M  V30 302 H 33.5971 4.20409 -1.27093 0
M  V30 303 H 34.2031 3.30281 -2.67945 0
M  V30 304 N 32.5182 1.22032 0.997298 0
M  V30 305 C 33.4812 0.987909 2.06816 0
M  V30 306 C 34.4812 -0.0440084 1.6074 0
M  V30 307 O 35.6712 0.194053 1.73116 0
M  V30 308 C 32.8032 0.49132 3.37341 0
M  V30 309 H 33.9962 1.93803 2.28868 0
M  V30 310 H 31.5492 1.03838 1.16822 0
M  V30 311 H 32.2842 -0.463364 3.20973 0
M  V30 312 H 32.0692 1.23575 3.72118 0
M  V30 313 H 33.5592 0.348824 4.16141 0
M  V30 314 N 33.9963 -1.19345 1.0293 0
M  V30 315 C 34.9593 -2.20793 0.615069 0
M  V30 316 C 35.9593 -1.57553 -0.321533 0
M  V30 317 O 37.1493 -1.73862 -0.108483 0
M  V30 318 C 34.2813 -3.40754 -0.0999222 0
M  V30 319 H 35.4743 -2.58955 1.51269 0
M  V30 320 H 33.0273 -1.3303 0.820534 0
M  V30 321 H 33.7623 -3.0811 -1.01187 0
M  V30 322 H 33.5473 -3.87889 0.57309 0
M  V30 323 H 35.0373 -4.15898 -0.376645 0
M  V30 324 N 35.4744 -0.807222 -1.35358 0
M  V30 325 C 36.7224 -0.387122 -1.98358 0
M  V30 326 C 37.0434 1.04942 -1.64354 0
M  V30 327 O 36.3134 1.72615 -0.926339 0
M  V30 328 H 34.8934 -0.140154 -0.733734 0
M  V30 329 H 37.5554 -1.0332 -1.6526 0
M  V30 330 H 36.6514 -0.493352 -3.08176 0
M  V30 331 N 36.9525 1.47285 -0.560781 0
M  V30 332 C 37.9025 2.27073 0.205384 0
M  V30 333 C 38.8865 1.34569 0.882044 0
M  V30 334 O 40.0785 1.58899 0.77976 0
M  V30 335 C 37.2075 3.20414 1.23247 0
M  V30 336 C 36.2935 4.20399 0.559041 0
M  V30 337 N 36.6845 5.04423 -0.372927 0
M  V30 338 C 34.9825 4.38536 0.812522 0
M  V30 339 C 35.6835 5.76655 -0.764446 0
M  V30 340 N 34.6595 5.43471 -0.11848 0
M  V30 341 H 38.4615 2.89422 -0.511117 0
M  V30 342 H 35.9755 1.57868 -0.380975 0
M  V30 343 H 37.9725 3.76262 1.79534 0
M  V30 344 H 36.6325 2.59623 1.95002 0
M  V30 345 H 37.6435 5.1248 -0.747287 0
M  V30 346 H 34.3205 3.88913 1.51832 0
M  V30 347 H 35.7105 6.54238 -1.53045 0
M  V30 348 N 38.4306 0.297415 1.54768 0
M  V30 349 C 39.3626 -0.613881 2.20826 0
M  V30 350 C 40.3756 -1.10032 1.19987 0
M  V30 351 O 41.5646 -1.01839 1.46598 0
M  V30 352 C 38.6646 -1.852 2.83821 0
M  V30 353 C 37.8376 -1.50865 4.10559 0
M  V30 354 C 36.8966 -2.60154 4.57391 0
M  V30 355 O 35.9226 -2.25398 5.2267 0
M  V30 356 N 37.1246 -3.90629 4.29406 0
M  V30 357 H 39.8896 -0.048389 2.99661 0
M  V30 358 H 37.4506 0.11946 1.61459 0
M  V30 359 H 39.4426 -2.57652 3.12086 0
M  V30 360 H 38.0126 -2.32597 2.08847 0
M  V30 361 H 37.2326 -0.616925 3.89343 0
M  V30 362 H 38.5206 -1.25458 4.9309 0
M  V30 363 H 37.9186 -4.21677 3.77101 0
M  V30 364 H 36.4756 -4.59391 4.62388 0
M  V30 365 N 39.9087 -1.5758 0.0250728 0
M  V30 366 C 41.1547 -1.91917 -0.655413 0
M  V30 367 C 41.4877 -0.901433 -1.72011 0
M  V30 368 O 40.7627 0.0764069 -1.9435 0
M  V30 369 C 41.0457 -3.36751 -1.27558 0
M  V30 370 C 40.8987 -4.49258 -0.220719 0
M  V30 371 C 42.2177 -3.81469 -2.19475 0
M  V30 372 H 39.3367 -0.697925 -0.23679 0
M  V30 373 H 41.9787 -1.89825 0.0815036 0
M  V30 374 H 40.1287 -3.38664 -1.90365 0
M  V30 375 H 41.8007 -4.59478 0.409601 0
M  V30 376 H 40.0437 -4.31415 0.454264 0
M  V30 377 H 40.7147 -5.47618 -0.694175 0
M  V30 378 H 43.1907 -3.81266 -1.66659 0
M  V30 379 H 42.0667 -4.83512 -2.59822 0
M  V30 380 H 42.3277 -3.16744 -3.08424 0
M  V30 381 N 41.3868 0.248026 -1.55636 0
M  V30 382 C 42.3368 1.30994 -1.86614 0
M  V30 383 C 43.3208 1.43543 -0.726918 0
M  V30 384 O 44.5128 1.46804 -0.988818 0
M  V30 385 C 41.6418 2.6656 -2.16335 0
M  V30 386 C 40.7278 2.58019 -3.36581 0
M  V30 387 N 41.1188 2.1911 -4.55878 0
M  V30 388 C 39.4168 2.89035 -3.39669 0
M  V30 389 C 40.1178 2.21174 -5.38012 0
M  V30 390 N 39.0938 2.60632 -4.77045 0
M  V30 391 H 42.8958 0.999583 -2.76379 0
M  V30 392 H 40.4098 0.456652 -1.55848 0
M  V30 393 H 42.4068 3.43194 -2.36692 0
M  V30 394 H 41.0668 2.98463 -1.27867 0
M  V30 395 H 42.0778 1.90672 -4.81523 0
M  V30 396 H 38.7548 3.25485 -2.61469 0
M  V30 397 H 40.1448 1.9344 -6.43452 0
M  V30 398 N 42.8649 1.48995 0.513639 0
M  V30 399 C 43.7949 1.67636 1.62544 0
M  V30 400 C 44.7759 0.525087 1.61793 0
M  V30 401 O 45.9609 0.759502 1.78732 0
M  V30 402 C 43.0909 1.73114 3.01079 0
M  V30 403 C 42.0449 2.87905 3.16693 0
M  V30 404 C 41.3709 2.78486 4.56453 0
M  V30 405 C 42.6709 4.29005 2.97913 0
M  V30 406 H 44.3649 2.60716 1.47198 0
M  V30 407 H 41.9109 1.25465 0.706714 0
M  V30 408 H 43.8639 1.84742 3.78746 0
M  V30 409 H 42.5879 0.766241 3.17484 0
M  V30 410 H 41.2469 2.75859 2.41448 0
M  V30 411 H 40.8949 1.7993 4.69717 0
M  V30 412 H 40.5949 3.55523 4.67843 0
M  V30 413 H 42.1189 2.92104 5.36197 0
M  V30 414 H 43.5329 4.41798 3.65359 0
M  V30 415 H 41.9299 5.07166 3.20785 0
M  V30 416 H 42.9999 4.44329 1.94165 0
M  V30 417 N 44.343 -0.763751 1.37857 0
M  V30 418 C 45.59 -1.52257 1.33506 0
M  V30 419 C 45.918 -1.94343 -0.078022 0
M  V30 420 O 45.173 -1.64958 -1.05297 0
M  V30 421 C 45.472 -2.79499 2.22745 0
M  V30 422 C 45.138 -2.56426 3.70886 0
M  V30 423 C 43.8 -2.49842 4.11257 0
M  V30 424 C 46.152 -2.36008 4.64704 0
M  V30 425 C 43.48 -2.20841 5.43549 0
M  V30 426 C 45.832 -2.0853 5.97242 0
M  V30 427 C 44.496 -2.00396 6.36709 0
M  V30 428 H 43.766 -0.557149 0.488534 0
M  V30 429 H 46.413 -0.879073 1.70131 0
M  V30 430 H 44.718 -3.48447 1.79142 0
M  V30 431 H 46.415 -3.37413 2.16688 0
M  V30 432 H 43.005 -2.62416 3.38874 0
M  V30 433 H 47.189 -2.40079 4.34368 0
M  V30 434 H 42.445 -2.13045 5.73081 0
M  V30 435 H 46.619 -1.91732 6.69486 0
M  V30 436 H 44.246 -1.77688 7.39142 0
M  V30 437 N 45.8211 -1.22559 -0.990812 0
M  V30 438 C 47.0981 -0.959875 -1.70428 0
M  V30 439 C 47.4781 0.524455 -2.04481 0
M  V30 440 O 46.8261 1.49302 -1.72977 0
M  V30 441 C 47.0361 -1.85955 -2.95333 0
M  V30 442 C 48.3841 -2.11687 -3.68068 0
M  V30 443 O 49.4081 -1.8342 -3.05345 0
M  V30 444 O 48.2671 -2.59572 -4.80921 0
M  V30 445 H 45.3611 -0.361154 -0.743974 0
M  V30 446 H 47.9071 -1.33554 -1.04697 0
M  V30 447 H 46.6791 -2.86346 -2.66687 0
M  V30 448 H 46.3021 -1.4856 -3.68803 0
M  V30 449 N 47.2992 1.18797 -1.03562 0
M  V30 450 C 48.2462 2.22253 -0.622259 0
M  V30 451 C 49.2162 1.61987 0.36736 0
M  V30 452 O 50.4012 1.88986 0.262492 0
M  V30 453 C 47.5412 3.45097 0.0138462 0
M  V30 454 C 46.6542 4.19722 -1.02263 0
M  V30 455 C 45.7892 5.30009 -0.355573 0
M  V30 456 C 44.8282 5.96399 -1.37749 0
M  V30 457 N 43.9652 6.98234 -0.735766 0
M  V30 458 H 48.8052 2.56968 -1.50903 0
M  V30 459 H 46.3422 1.26245 -0.755017 0
M  V30 460 H 48.3002 4.15279 0.399948 0
M  V30 461 H 46.9302 3.11018 0.864158 0
M  V30 462 H 45.9822 3.48418 -1.52673 0
M  V30 463 H 47.2942 4.65227 -1.79903 0
M  V30 464 H 46.4482 6.0664 0.0850095 0
M  V30 465 H 45.1872 4.85592 0.452967 0
M  V30 466 H 44.1922 5.18512 -1.82826 0
M  V30 467 H 45.4172 6.42899 -2.18764 0
M  V30 468 H 43.3632 6.55979 0.0525597 0
M  V30 469 H 43.2802 7.41965 -1.44995 0
M  V30 470 H 44.5482 7.78845 -0.31941 0
M  V30 471 N 48.7773 0.814389 1.34928 0
M  V30 472 C 50.0023 0.410097 2.03305 0
M  V30 473 C 50.4273 -0.973464 1.60951 0
M  V30 474 O 49.7853 -1.63185 0.789964 0
M  V30 475 C 49.8333 0.51049 3.56968 0
M  V30 476 O 48.9373 -0.473035 4.09678 0
M  V30 477 H 48.2783 0.170088 0.641846 0
M  V30 478 H 50.8083 1.10244 1.72358 0
M  V30 479 H 50.8183 0.383135 4.06197 0
M  V30 480 H 49.4933 1.51963 3.87144 0
M  V30 481 H 48.0703 -0.305272 3.71648 0
M  V30 482 N 50.2554 -1.46986 0.568584 0
M  V30 483 C 51.6714 -1.57946 0.229189 0
M  V30 484 C 51.8714 -1.56567 -1.26843 0
M  V30 485 O 50.9274 -1.47511 -2.04931 0
M  V30 486 C 52.2404 -2.87963 0.865909 0
M  V30 487 C 53.7884 -3.01568 0.838188 0
M  V30 488 C 54.2634 -4.34301 1.45419 0
M  V30 489 N 55.7544 -4.40965 1.41788 0
M  V30 490 C 56.4894 -5.42256 1.86403 0
M  V30 491 N 55.9854 -6.50297 2.38926 0
M  V30 492 N 57.7784 -5.3337 1.77405 0
M  V30 493 H 49.9294 -1.46126 1.54146 0
M  V30 494 H 52.1924 -0.696156 0.643484 0
M  V30 495 H 51.8984 -2.94742 1.91886 0
M  V30 496 H 51.7724 -3.75423 0.365687 0
M  V30 497 H 54.1594 -2.94379 -0.206106 0
M  V30 498 H 54.2404 -2.1562 1.37629 0
M  V30 499 H 53.8844 -4.42247 2.49761 0
M  V30 500 H 53.8144 -5.19 0.891435 0
M  V30 501 H 56.3054 -3.63484 1.03381 0
M  V30 502 H 56.6184 -7.23777 2.70863 0
M  V30 503 H 54.9634 -6.51155 2.42944 0
M  V30 504 H 58.1544 -4.47865 1.3614 0
M  V30 505 H 58.3274 -6.12169 2.12492 0
M  V30 506 N 51.7335 -0.305618 -1.54608 0
M  V30 507 C 52.9815 0.301701 -1.99835 0
M  V30 508 C 53.3025 1.54054 -1.19551 0
M  V30 509 O 52.5725 1.93702 -0.292658 0
M  V30 510 H 51.1525 0.114468 -0.738178 0
M  V30 511 H 53.8145 -0.418016 -1.90364 0
M  V30 512 H 52.9105 0.570548 -3.06841 0
M  V30 513 N 53.2116 1.57565 -0.0334293 0
M  V30 514 C 54.4366 1.96689 0.657895 0
M  V30 515 C 54.8616 0.910057 1.64619 0
M  V30 516 O 54.2196 -0.128598 1.80843 0
M  V30 517 C 54.2676 3.34905 1.33683 0
M  V30 518 O 53.3716 3.31574 2.45219 0
M  V30 519 H 52.7126 0.641205 0.172489 0
M  V30 520 H 55.2426 2.04372 -0.0965621 0
M  V30 521 H 55.2526 3.71234 1.69262 0
M  V30 522 H 53.9276 4.11366 0.612411 0
M  V30 523 H 52.5046 3.06968 2.11719 0
M  V30 524 N 54.6897 -0.239769 1.55765 0
M  V30 525 C 55.9377 -0.964892 1.77579 0
M  V30 526 C 56.2587 -1.85582 0.598699 0
M  V30 527 O 55.5287 -1.92075 -0.385226 0
M  V30 528 H 54.1087 -0.359265 0.654933 0
M  V30 529 H 56.7707 -0.256001 1.93211 0
M  V30 530 H 55.8667 -1.58243 2.69009 0
M  V30 531 N 56.1678 -1.49265 -0.50573 0
M  V30 532 C 57.4158 -1.582 -1.25766 0
M  V30 533 C 57.7368 -0.268482 -1.93143 0
M  V30 534 O 57.0068 0.711833 -1.8251 0
M  V30 535 H 55.5868 -0.582873 -0.467191 0
M  V30 536 H 58.2488 -1.85865 -0.586525 0
M  V30 537 H 57.3448 -2.37563 -2.02412 0
M  V30 538 N 57.6459 0.756429 -1.3826 0
M  V30 539 C 59.0619 1.0591 -1.19395 0
M  V30 540 C 59.2619 2.01459 -0.0406567 0
M  V30 541 O 58.3179 2.44909 0.614467 0
M  V30 542 C 59.6309 1.64191 -2.51916 0
M  V30 543 C 61.1789 1.76376 -2.58574 0
M  V30 544 C 61.6539 2.38069 -3.91264 0
M  V30 545 N 63.1449 2.45503 -3.92788 0
M  V30 546 C 63.8799 2.94126 -4.92217 0
M  V30 547 N 63.3759 3.42805 -6.02043 0
M  V30 548 N 65.1689 2.9314 -4.7961 0
M  V30 549 H 57.3199 0.122313 -2.12048 0
M  V30 550 H 59.5829 0.116892 -0.940766 0
M  V30 551 H 59.2889 1.01451 -3.3675 0
M  V30 552 H 59.1629 2.6329 -2.70108 0
M  V30 553 H 61.5499 2.38244 -1.74137 0
M  V30 554 H 61.6309 0.759894 -2.44252 0
M  V30 555 H 61.2749 1.76835 -4.76121 0
M  V30 556 H 61.2049 3.39091 -4.02895 0
M  V30 557 H 63.6959 2.1107 -3.13461 0
M  V30 558 H 64.0089 3.78354 -6.73846 0
M  V30 559 H 62.3539 3.4087 -6.05667 0
M  V30 560 H 65.5449 2.54419 -3.92923 0
M  V30 561 H 65.7179 3.30721 -5.5725 0
M  V30 562 N 59.124 1.23083 0.984299 0
M  V30 563 C 60.057 0.951786 2.07404 0
M  V30 564 C 61.035 -0.10848 1.62238 0
M  V30 565 O 62.219 0.0249467 1.88483 0
M  V30 566 C 59.346 0.433142 3.35919 0
M  V30 567 C 58.392 1.47941 4.0002 0
M  V30 568 S 59.225 3.05556 4.39768 0
M  V30 569 C 60.381 2.55351 5.71442 0
M  V30 570 H 60.614 1.87456 2.30754 0
M  V30 571 H 58.147 1.06284 1.11996 0
M  V30 572 H 60.105 0.140506 4.10259 0
M  V30 573 H 58.766 -0.468656 3.10584 0
M  V30 574 H 57.959 1.06658 4.92585 0
M  V30 575 H 57.561 1.7212 3.3204 0
M  V30 576 H 59.853 1.97128 6.48187 0
M  V30 577 H 60.796 3.46441 6.17563 0
M  V30 578 H 61.204 1.96339 5.29255 0
M  V30 579 N 60.6021 -1.18246 1.0419 0
M  V30 580 C 61.8271 -1.92736 0.765996 0
M  V30 581 C 62.2521 -1.75728 -0.67091 0
M  V30 582 O 61.6101 -1.06825 -1.46486 0
M  V30 583 C 61.6581 -3.42148 1.13875 0
M  V30 584 O 60.7621 -4.11548 0.264954 0
M  V30 585 H 60.1031 -0.601238 0.281797 0
M  V30 586 H 62.6331 -1.49942 1.39207 0
M  V30 587 H 62.6431 -3.92858 1.1012 0
M  V30 588 H 61.3181 -3.53848 2.18551 0
M  V30 589 H 59.8951 -3.71137 0.362226 0
M  V30 590 N 62.0802 -0.821533 -1.34494 0
M  V30 591 C 63.3052 -0.420873 -2.03085 0
M  V30 592 C 63.7302 0.964915 -1.61465 0
M  V30 593 O 63.0882 1.62763 -0.798607 0
M  V30 594 C 63.1362 -0.529414 -3.56693 0
M  V30 595 O 62.2402 0.451302 -4.09923 0
M  V30 596 H 61.5812 -0.173489 -0.640935 0
M  V30 597 H 64.1112 -1.11157 -1.71771 0
M  V30 598 H 64.1212 -0.404671 -4.05988 0
M  V30 599 H 62.7962 -1.54014 -3.86332 0
M  V30 600 H 61.3732 0.285558 -3.71805 0
M  V30 601 N 63.5583 1.46682 -0.576371 0
M  V30 602 C 64.5053 2.30241 0.160499 0
M  V30 603 C 65.4753 1.40233 0.890162 0
M  V30 604 O 66.6603 1.69186 0.882084 0
M  V30 605 C 63.8003 3.24578 1.1723 0
M  V30 606 C 62.9133 4.29684 0.446736 0
M  V30 607 C 62.0483 5.11154 1.44551 0
M  V30 608 C 61.0873 6.08015 0.70599 0
M  V30 609 N 60.2243 6.82376 1.65251 0
M  V30 610 H 65.0643 2.92727 -0.558127 0
M  V30 611 H 62.6013 1.44272 -0.287056 0
M  V30 612 H 64.5593 3.77711 1.77172 0
M  V30 613 H 63.1893 2.63916 1.85872 0
M  V30 614 H 62.2413 3.79458 -0.267594 0
M  V30 615 H 63.5533 4.98626 -0.131686 0
M  V30 616 H 62.7073 5.68533 2.11791 0
M  V30 617 H 61.4463 4.42158 2.05786 0
M  V30 618 H 60.4513 5.49796 0.0197725 0
M  V30 619 H 61.6763 6.79028 0.09912 0
M  V30 620 H 59.6223 6.16094 2.25308 0
M  V30 621 H 59.5393 7.47556 1.12673 0
M  V30 622 H 60.8073 7.44316 2.31546 0
M  V30 623 N 65.0364 0.313813 1.54444 0
M  V30 624 C 66.4524 -0.0391619 1.59552 0
M  V30 625 C 66.6524 -1.51322 1.33056 0
M  V30 626 O 65.7084 -2.26782 1.11022 0
M  V30 627 C 67.0214 0.370302 2.98411 0
M  V30 628 C 68.5694 0.320139 3.11358 0
M  V30 629 C 69.0444 0.704617 4.52547 0
M  V30 630 N 70.5354 0.657645 4.58508 0
M  V30 631 C 71.2704 0.927453 5.6585 0
M  V30 632 N 70.7664 1.26389 6.81174 0
M  V30 633 N 72.5594 0.853662 5.5558 0
M  V30 634 H 64.7104 1.27433 1.69925 0
M  V30 635 H 66.9734 0.517511 0.794284 0
M  V30 636 H 66.6794 1.39694 3.22767 0
M  V30 637 H 66.5534 -0.269619 3.76235 0
M  V30 638 H 68.9404 -0.697275 2.86744 0
M  V30 639 H 69.0214 0.99486 2.35661 0
M  V30 640 H 68.6654 1.7199 4.77893 0
M  V30 641 H 68.5954 0.00768843 5.26599 0
M  V30 642 H 71.0864 0.409067 3.75679 0
M  V30 643 H 71.3994 1.4554 7.58972 0
M  V30 644 H 69.7444 1.30206 6.82694 0
M  V30 645 H 72.9354 0.590383 4.64362 0
M  V30 646 H 73.1084 1.0673 6.3915 0
M  V30 647 N 66.5145 -1.57545 0.0417849 0
M  V30 648 C 67.7395 -1.97035 -0.647455 0
M  V30 649 C 68.1645 -0.918775 -1.64135 0
M  V30 650 O 67.5225 0.119006 -1.80909 0
M  V30 651 C 67.5705 -3.35609 -1.31905 0
M  V30 652 O 66.6745 -3.3287 -2.43457 0
M  V30 653 H 66.0155 -0.64211 -0.169086 0
M  V30 654 H 68.5455 -2.04318 0.107399 0
M  V30 655 H 68.5555 -3.72126 -1.67291 0
M  V30 656 H 67.2305 -4.11685 -0.590586 0
M  V30 657 H 65.8075 -3.08087 -2.10088 0
M  V30 658 N 67.9926 0.231505 -1.5589 0
M  V30 659 C 69.2696 0.981096 -1.69215 0
M  V30 660 C 69.6496 2.02799 -0.586164 0
M  V30 661 O 68.9976 2.24823 0.408253 0
M  V30 662 C 69.2076 1.60054 -3.10135 0
M  V30 663 C 70.5556 2.09658 -3.69227 0
M  V30 664 O 71.5796 1.69967 -3.13033 0
M  V30 665 O 70.4386 2.8258 -4.67772 0
M  V30 666 H 67.5326 0.457653 -0.688827 0
M  V30 667 H 70.0786 0.224073 -1.68214 0
M  V30 668 H 68.8506 0.844105 -3.82087 0
M  V30 669 H 68.4736 2.42336 -3.15212 0
M  V30 670 N 69.4707 1.49531 0.497807 0
M  V30 671 C 70.4337 1.65916 1.58128 0
M  V30 672 C 71.4337 0.530825 1.51786 0
M  V30 673 O 72.6237 0.797342 1.54881 0
M  V30 674 C 69.7557 1.65951 2.9778 0
M  V30 675 H 70.9487 2.62556 1.44929 0
M  V30 676 H 68.5017 1.38611 0.722275 0
M  V30 677 H 69.2367 0.709065 3.16453 0
M  V30 678 H 69.0217 2.47897 3.03792 0
M  V30 679 H 70.5117 1.80673 3.76493 0
M  V30 680 N 70.9488 -0.749086 1.3866 0
M  V30 681 C 72.1968 -1.50535 1.34847 0
M  V30 682 C 72.5178 -1.94909 -0.0595016 0
M  V30 683 O 71.7878 -1.67973 -1.00806 0
M  V30 684 H 70.3678 -0.558395 0.49619 0
M  V30 685 H 73.0298 -0.890165 1.73384 0
M  V30 686 H 72.1258 -2.39413 2.00219 0
M  V30 687 N 72.4269 -1.23603 -0.977757 0
M  V30 688 C 73.3899 -1.02069 -2.05218 0
M  V30 689 C 74.3899 0.0184305 -1.60789 0
M  V30 690 O 75.5799 -0.221569 -1.72785 0
M  V30 691 C 72.7119 -0.544926 -3.36517 0
M  V30 692 H 73.9049 -1.9742 -2.25755 0
M  V30 693 H 71.4579 -1.05684 -1.15155 0
M  V30 694 H 72.1929 0.412241 -3.21669 0
M  V30 695 H 71.9779 -1.2948 -3.70105 0
M  V30 696 H 73.4679 -0.414985 -4.15533 0
M  V30 697 N 73.905 1.17692 -1.04816 0
M  V30 698 C 74.835 2.23777 -0.666791 0
M  V30 699 C 75.816 1.66796 0.33361 0
M  V30 700 O 77.001 1.93039 0.212042 0
M  V30 701 C 74.131 3.47281 -0.0367933 0
M  V30 702 C 73.085 4.17059 -0.961546 0
M  V30 703 C 72.411 5.34342 -0.195626 0
M  V30 704 C 73.711 4.69713 -2.28402 0
M  V30 705 H 75.405 2.55933 -1.55367 0
M  V30 706 H 72.951 1.23019 -0.748484 0
M  V30 707 H 74.904 4.20706 0.241775 0
M  V30 708 H 73.628 3.14381 0.885004 0
M  V30 709 H 72.287 3.45541 -1.22462 0
M  V30 710 H 71.935 4.97692 0.728816 0
M  V30 711 H 71.635 5.81966 -0.811775 0
M  V30 712 H 73.159 6.10553 0.0757473 0
M  V30 713 H 74.573 5.34794 -2.06563 0
M  V30 714 H 72.97 5.279 -2.8538 0
M  V30 715 H 74.04 3.86726 -2.92525 0
M  V30 716 N 75.3831 0.828654 1.34056 0
M  V30 717 C 76.6601 0.341809 1.9259 0
M  V30 718 C 77.0401 -1.17158 1.75605 0
M  V30 719 O 76.3881 -1.98132 1.13824 0
M  V30 720 C 76.5981 0.777453 3.4023 0
M  V30 721 C 77.9461 0.779579 4.17382 0
M  V30 722 O 78.9701 0.7204 3.48839 0
M  V30 723 O 77.8291 0.857996 5.39723 0
M  V30 724 H 74.9231 0.0946085 0.821571 0
M  V30 725 H 77.4691 0.913827 1.42994 0
M  V30 726 H 76.2411 1.8196 3.46419 0
M  V30 727 H 75.8641 0.181444 3.97186 0
M  V30 728 N 76.8612 -1.46375 0.584142 0
M  V30 729 C 77.7942 -2.27351 -0.196676 0
M  V30 730 C 78.7722 -1.35715 -0.895561 0
M  V30 731 O 79.9562 -1.65126 -0.90916 0
M  V30 732 C 77.0832 -3.13486 -1.28235 0
M  V30 733 C 76.1292 -4.20896 -0.689145 0
M  V30 734 S 76.9622 -5.33299 0.48507 0
M  V30 735 C 78.1182 -6.23 -0.601767 0
M  V30 736 H 78.3512 -2.93228 0.490395 0
M  V30 737 H 75.8842 -1.49875 0.371071 0
M  V30 738 H 77.8422 -3.63676 -1.90395 0
M  V30 739 H 76.5032 -2.4692 -1.94138 0
M  V30 740 H 75.6962 -4.80997 -1.50527 0
M  V30 741 H 75.2982 -3.73726 -0.143181 0
M  V30 742 H 77.5902 -6.60979 -1.48705 0
M  V30 743 H 78.5332 -7.0809 -0.0374799 0
M  V30 744 H 78.9412 -5.57173 -0.906557 0
M  V30 745 N 78.3393 -0.321999 -1.54275 0
M  V30 746 C 79.5873 0.280489 -2.00144 0
M  V30 747 C 79.9083 1.52777 -1.21178 0
M  V30 748 O 79.1783 1.9338 -0.313187 0
M  V30 749 H 77.7583 0.106632 -0.73935 0
M  V30 750 H 80.4203 -0.438184 -1.8991 0
M  V30 751 H 79.5163 0.537972 -3.07428 0
M  V30 752 N 79.8174 1.5752 -0.0501392 0
M  V30 753 C 80.7804 2.1037 0.909786 0
M  V30 754 C 81.7804 1.02308 1.24056 0
M  V30 755 O 82.9704 1.28385 1.17741 0
M  V30 756 C 80.1024 2.58708 2.21998 0
M  V30 757 H 81.2954 2.96479 0.451665 0
M  V30 758 H 78.8484 1.55038 0.198248 0
M  V30 759 H 79.5834 1.75989 2.72394 0
M  V30 760 H 79.3684 3.37675 1.99295 0
M  V30 761 H 80.8584 2.99747 2.9076 0
M  V30 762 N 81.2955 -0.223234 1.56011 0
M  V30 763 C 82.2275 -1.30006 1.88762 0
M  V30 764 C 83.2405 -1.43129 0.775746 0
M  V30 765 O 84.4295 -1.44057 1.05403 0
M  V30 766 C 81.5295 -2.67589 2.07965 0
M  V30 767 C 80.7025 -2.76434 3.38973 0
M  V30 768 C 79.7615 -3.95019 3.47629 0
M  V30 769 O 78.7875 -3.83436 4.20672 0
M  V30 770 N 79.9895 -5.09249 2.78649 0
M  V30 771 H 82.7545 -1.02238 2.81722 0
M  V30 772 H 80.3155 -0.413278 1.56536 0
M  V30 773 H 82.3075 -3.45297 2.11073 0
M  V30 774 H 80.8775 -2.87964 1.21638 0
M  V30 775 H 80.0975 -1.85216 3.47978 0
M  V30 776 H 81.3855 -2.79313 4.25278 0
M  V30 777 H 80.7835 -5.21556 2.19081 0
M  V30 778 H 79.3405 -5.85007 2.8742 0
M  V30 779 N 82.7736 -1.49793 -0.48987 0
M  V30 780 C 84.0036 -1.6333 -1.26518 0
M  V30 781 C 84.4116 -0.308392 -1.8667 0
M  V30 782 O 83.7546 0.717512 -1.69108 0
M  V30 783 C 83.8166 -2.6522 -2.4269 0
M  V30 784 C 83.4806 -4.09279 -2.03321 0
M  V30 785 C 84.4776 -4.95738 -1.56652 0
M  V30 786 C 82.1626 -4.55082 -2.12616 0
M  V30 787 C 84.1566 -6.26041 -1.19795 0
M  V30 788 C 81.8436 -5.85396 -1.75371 0
M  V30 789 C 82.8416 -6.707 -1.29036 0
M  V30 790 O 82.5296 -7.98584 -0.92299 0
M  V30 791 H 82.2616 -0.552502 -0.389509 0
M  V30 792 H 84.8156 -1.96642 -0.593381 0
M  V30 793 H 83.0456 -2.27112 -3.12981 0
M  V30 794 H 84.7346 -2.68171 -3.04695 0
M  V30 795 H 85.5006 -4.61575 -1.48908 0
M  V30 796 H 81.3796 -3.88844 -2.47631 0
M  V30 797 H 84.9236 -6.92578 -0.835582 0
M  V30 798 H 80.8206 -6.19085 -1.82768 0
M  V30 799 H 81.5886 -8.11692 -1.05349 0
M  V30 800 N 84.2517 0.741722 -1.39055 0
M  V30 801 C 85.4987 1.50114 -1.35912 0
M  V30 802 C 85.8267 1.94443 0.0470937 0
M  V30 803 O 85.0817 1.66612 1.02659 0
M  V30 804 C 85.3807 2.7592 -2.27163 0
M  V30 805 C 85.0467 2.50493 -3.74919 0
M  V30 806 C 83.7087 2.43267 -4.1518 0
M  V30 807 C 86.0607 2.28585 -4.684 0
M  V30 808 C 83.3887 2.12166 -5.46994 0
M  V30 809 C 85.7407 1.99002 -6.00484 0
M  V30 810 C 84.4047 1.90241 -6.39816 0
M  V30 811 H 83.6747 0.549306 -0.497336 0
M  V30 812 H 86.3217 0.851896 -1.71508 0
M  V30 813 H 84.6267 3.45553 -1.84663 0
M  V30 814 H 86.3237 3.33923 -2.22028 0
M  V30 815 H 82.9137 2.56992 -3.43006 0
M  V30 816 H 87.0977 2.33139 -4.38132 0
M  V30 817 H 82.3537 2.03901 -5.76398 0
M  V30 818 H 86.5277 1.81057 -6.72452 0
M  V30 819 H 84.1547 1.65907 -7.41875 0
M  V30 820 N 85.7298 1.2412 0.971189 0
M  V30 821 C 86.9578 1.10575 1.74874 0
M  V30 822 C 87.3728 -0.342017 1.85676 0
M  V30 823 O 86.7298 -1.23617 1.34258 0
M  V30 824 C 86.7808 1.73579 3.171 0
M  V30 825 O 86.5018 3.12695 3.06844 0
M  V30 826 C 88.0028 1.65598 4.11208 0
M  V30 827 H 85.2228 0.386504 0.548503 0
M  V30 828 H 87.7668 1.64156 1.21955 0
M  V30 829 H 85.9218 1.24009 3.67016 0
M  V30 830 H 86.3358 3.43412 3.96445 0
M  V30 831 H 87.8098 2.1437 5.08674 0
M  V30 832 H 88.2868 0.616532 4.34851 0
M  V30 833 H 88.8928 2.14578 3.67201 0
M  V30 834 N 87.2079 -1.17134 1.05439 0
M  V30 835 C 88.1709 -2.19439 0.661764 0
M  V30 836 C 89.1709 -1.58199 -0.288042 0
M  V30 837 O 90.3609 -1.74053 -0.0715803 0
M  V30 838 C 87.4929 -3.40889 -0.0276209 0
M  V30 839 H 88.6859 -2.55688 1.56728 0
M  V30 840 H 86.2389 -1.31259 0.848567 0
M  V30 841 H 86.9739 -3.10187 -0.94629 0
M  V30 842 H 86.7589 -3.86586 0.655238 0
M  V30 843 H 88.2489 -4.16603 -0.288342 0
M  V30 844 N 88.686 -0.835752 -1.33615 0
M  V30 845 C 90.102 -0.523139 -1.50783 0
M  V30 846 C 90.302 0.950171 -1.77691 0
M  V30 847 O 89.358 1.73411 -1.83534 0
M  V30 848 C 90.671 -1.39378 -2.66448 0
M  V30 849 C 92.219 -1.39223 -2.80332 0
M  V30 850 C 92.694 -2.24765 -3.99055 0
M  V30 851 N 94.185 -2.22458 -4.06284 0
M  V30 852 C 94.92 -2.85386 -4.97336 0
M  V30 853 N 94.416 -3.57354 -5.93523 0
M  V30 854 N 96.209 -2.74872 -4.90308 0
M  V30 855 H 88.36 -1.78952 -1.14411 0
M  V30 856 H 90.623 -0.763297 -0.562212 0
M  V30 857 H 90.329 -2.44061 -2.53234 0
M  V30 858 H 90.203 -1.0676 -3.61776 0
M  V30 859 H 92.59 -0.353136 -2.92979 0
M  V30 860 H 92.671 -1.75846 -1.85773 0
M  V30 861 H 92.315 -3.28732 -3.87167 0
M  V30 862 H 92.245 -1.85485 -4.92852 0
M  V30 863 H 94.736 -1.70119 -3.37443 0
M  V30 864 H 95.049 -4.02584 -6.59656 0
M  V30 865 H 93.394 -3.61461 -5.93608 0
M  V30 866 H 96.585 -2.18213 -4.14126 0
M  V30 867 H 96.758 -3.24199 -5.61069 0
M  V30 868 N 90.1641 1.46063 -0.591896 0
M  V30 869 C 91.4411 1.95595 -0.0137119 0
M  V30 870 C 91.8211 1.5345 1.4497 0
M  V30 871 O 91.1691 0.789543 2.14426 0
M  V30 872 C 91.3791 3.48453 -0.195373 0
M  V30 873 C 92.7271 4.24546 -0.0679765 0
M  V30 874 O 93.7511 3.55982 -0.124681 0
M  V30 875 O 92.6101 5.46467 0.0600579 0
M  V30 876 H 89.7041 0.825795 0.0446279 0
M  V30 877 H 92.2501 1.56303 -0.660859 0
M  V30 878 H 91.0221 3.72045 -1.21235 0
M  V30 879 H 90.6451 3.94597 0.487775 0
M  V30 880 N 91.6422 0.330177 1.54103 0
M  V30 881 C 93.0582 -0.0222371 1.59585 0
M  V30 882 C 93.2582 -1.49902 1.34654 0
M  V30 883 O 92.3142 -2.25592 1.13421 0
M  V30 884 C 93.6272 0.401932 2.98002 0
M  V30 885 C 95.1752 0.353145 3.11001 0
M  V30 886 C 95.6502 0.752576 4.51775 0
M  V30 887 N 97.1412 0.706239 4.57784 0
M  V30 888 C 97.8762 0.987417 5.64834 0
M  V30 889 N 97.3722 1.33607 6.79795 0
M  V30 890 N 99.1652 0.91254 5.54643 0
M  V30 891 H 91.3162 1.29228 1.68564 0
M  V30 892 H 93.5792 0.525906 0.78875 0
M  V30 893 H 93.2852 1.4311 3.21267 0
M  V30 894 H 93.1592 -0.229699 3.765 0
M  V30 895 H 95.5462 -0.666822 2.87467 0
M  V30 896 H 95.6272 1.0198 2.34593 0
M  V30 897 H 95.2712 1.77049 4.76042 0
M  V30 898 H 95.2012 0.0635409 5.26562 0
M  V30 899 H 97.6922 0.44889 3.75224 0
M  V30 900 H 98.0052 1.53582 7.57385 0
M  V30 901 H 96.3502 1.37439 6.81275 0
M  V30 902 H 99.5412 0.639601 4.6371 0
M  V30 903 H 99.7142 1.13503 6.37982 0
M  V30 904 N 93.1203 -1.57491 0.0584922 0
M  V30 905 C 94.5363 -1.56792 -0.298091 0
M  V30 906 C 94.7363 -1.06679 -1.70944 0
M  V30 907 O 93.7923 -0.726672 -2.41818 0
M  V30 908 C 95.1053 -3.00461 -0.119879 0
M  V30 909 C 96.6533 -3.1242 -0.190428 0
M  V30 910 C 97.1283 -4.57982 -0.0406567 0
M  V30 911 N 98.6193 -4.63099 -0.0966958 0
M  V30 912 C 99.3543 -5.734 -0.00502943 0
M  V30 913 N 98.8503 -6.9266 0.139402 0
M  V30 914 N 100.643 -5.62067 -0.0611391 0
M  V30 915 H 92.7943 -1.88386 0.98105 0
M  V30 916 H 95.0573 -0.867865 0.381463 0
M  V30 917 H 94.7633 -3.41187 0.85349 0
M  V30 918 H 94.6373 -3.66843 -0.877833 0
M  V30 919 H 97.0243 -2.71589 -1.15427 0
M  V30 920 H 97.1053 -2.48702 0.598405 0
M  V30 921 H 96.7493 -4.995 0.919897 0
M  V30 922 H 96.6793 -5.19715 -0.848727 0
M  V30 923 H 99.1703 -3.77331 -0.207277 0
M  V30 924 H 99.4833 -7.72536 0.201855 0
M  V30 925 H 97.8283 -6.94781 0.174586 0
M  V30 926 H 101.019 -4.67782 -0.172583 0
M  V30 927 H 101.192 -6.47999 0.0137562 0
M  V30 928 N 94.5984 0.214957 -1.56127 0
M  V30 929 C 95.8454 0.938372 -1.79446 0
M  V30 930 C 96.1734 1.8407 -0.628378 0
M  V30 931 O 95.4284 1.91837 0.386925 0
M  V30 932 C 95.7274 1.80314 -3.0858 0
M  V30 933 C 95.3934 1.05349 -4.3842 0
M  V30 934 C 94.0554 0.846435 -4.73697 0
M  V30 935 C 96.4074 0.524588 -5.18553 0
M  V30 936 C 93.7354 0.098683 -5.86617 0
M  V30 937 C 96.0874 -0.209853 -6.32252 0
M  V30 938 C 94.7514 -0.428102 -6.66126 0
M  V30 939 H 94.0214 0.343375 -0.656639 0
M  V30 940 H 96.6684 0.206077 -1.90388 0
M  V30 941 H 94.9734 2.6035 -2.92789 0
M  V30 942 H 96.6704 2.36513 -3.23825 0
M  V30 943 H 93.2604 1.22486 -4.10725 0
M  V30 944 H 97.4444 0.672008 -4.91729 0
M  V30 945 H 92.7004 -0.0805753 -6.11347 0
M  V30 946 H 96.8744 -0.627157 -6.9357 0
M  V30 947 H 94.5014 -1.00944 -7.53468 0
M  V30 948 N 96.0765 1.50051 0.48192 0
M  V30 949 C 97.0395 1.67584 1.5636 0
M  V30 950 C 98.0395 0.546894 1.51214 0
M  V30 951 O 99.2295 0.813725 1.54026 0
M  V30 952 C 96.3615 1.691 2.96003 0
M  V30 953 H 97.5545 2.64078 1.42136 0
M  V30 954 H 95.1075 1.39369 0.707533 0
M  V30 955 H 95.8425 0.742589 3.15684 0
M  V30 956 H 95.6275 2.51105 3.01146 0
M  V30 957 H 97.1175 1.84656 3.74556 0
M  V30 958 N 97.5546 -0.734337 1.39446 0
M  V30 959 C 98.7826 -1.52358 1.39981 0
M  V30 960 C 99.1976 -1.88799 -0.0054975 0
M  V30 961 O 98.5546 -1.54146 -0.976998 0
M  V30 962 C 98.6056 -2.81072 2.27333 0
M  V30 963 O 98.3266 -2.46178 3.62392 0
M  V30 964 C 99.8276 -3.75096 2.36259 0
M  V30 965 H 97.0476 -0.470806 0.478103 0
M  V30 966 H 99.5916 -0.907339 1.83269 0
M  V30 967 H 97.7466 -3.39026 1.87457 0
M  V30 968 H 98.1606 -3.28866 4.08592 0
M  V30 969 H 99.6346 -4.62305 3.01626 0
M  V30 970 H 100.112 -4.16892 1.38194 0
M  V30 971 H 100.718 -3.23061 2.76608 0
M  V30 972 N 99.0327 -1.24633 -0.964593 0
M  V30 973 C 99.9957 -1.0424 -2.04124 0
M  V30 974 C 100.996 0.00137563 -1.608 0
M  V30 975 O 102.186 -0.239883 -1.7254 0
M  V30 976 C 99.3177 -0.580588 -3.3592 0
M  V30 977 H 100.511 -1.99803 -2.23649 0
M  V30 978 H 98.0637 -1.06899 -1.14027 0
M  V30 979 H 98.7987 0.3781 -3.22088 0
M  V30 980 H 98.5837 -1.33398 -3.6871 0
M  V30 981 H 100.074 -0.459034 -4.15069 0
M  V30 982 N 100.511 1.16574 -1.06058 0
M  V30 983 C 101.757 1.87324 -0.777022 0
M  V30 984 C 102.09 1.81351 0.694645 0
M  V30 985 O 101.365 1.22753 1.50871 0
M  V30 986 C 101.648 3.36991 -1.26922 0
M  V30 987 C 101.501 3.51667 -2.80447 0
M  V30 988 C 102.82 4.3131 -0.87521 0
M  V30 989 H 99.9388 0.680191 -0.28374 0
M  V30 990 H 102.581 1.37036 -1.3161 0
M  V30 991 H 100.731 3.79949 -0.81063 0
M  V30 992 H 102.403 3.17664 -3.34495 0
M  V30 993 H 100.646 2.93656 -3.19294 0
M  V30 994 H 101.317 4.56766 -3.0995 0
M  V30 995 H 103.793 3.9624 -1.27014 0
M  V30 996 H 102.669 5.34545 -1.2471 0
M  V30 997 H 102.93 4.41552 0.220071 0
M  V30 998 N 101.989 0.842826 1.3317 0
M  V30 999 C 102.936 0.276885 2.29133 0
M  V30 1000 C 103.906 -0.609527 1.54512 0
M  V30 1001 O 105.091 -0.546955 1.82792 0
M  V30 1002 C 102.231 -0.538707 3.40869 0
M  V30 1003 C 101.344 0.372169 4.30394 0
M  V30 1004 C 100.479 -0.454908 5.29249 0
M  V30 1005 C 99.5179 0.45411 6.10413 0
M  V30 1006 N 98.6549 -0.335075 7.013 0
M  V30 1007 H 103.495 1.10052 2.76934 0
M  V30 1008 H 101.032 0.554161 1.36262 0
M  V30 1009 H 102.99 -1.02709 4.0436 0
M  V30 1010 H 101.62 -1.32727 2.9425 0
M  V30 1011 H 100.672 0.97888 3.6759 0
M  V30 1012 H 101.984 1.0703 4.87182 0
M  V30 1013 H 101.138 -1.00695 5.98285 0
M  V30 1014 H 99.8769 -1.18646 4.73048 0
M  V30 1015 H 98.8819 1.01813 5.40291 0
M  V30 1016 H 100.107 1.18409 6.68697 0
M  V30 1017 H 98.0529 -1.04994 6.47543 0
M  V30 1018 H 97.9699 0.304262 7.55387 0
M  V30 1019 H 99.2379 -0.869224 7.74638 0
M  V30 1020 N 103.467 -1.45747 0.599634 0
M  V30 1021 C 104.399 -2.28628 -0.161879 0
M  V30 1022 C 105.412 -1.39494 -0.839367 0
M  V30 1023 O 106.601 -1.63941 -0.706089 0
M  V30 1024 C 103.701 -3.15014 -1.24976 0
M  V30 1025 C 102.874 -4.32378 -0.660935 0
M  V30 1026 C 101.933 -5.00033 -1.63869 0
M  V30 1027 O 100.959 -5.57085 -1.1681 0
M  V30 1028 N 102.161 -4.98589 -2.97303 0
M  V30 1029 H 104.926 -2.94624 0.549265 0
M  V30 1030 H 102.487 -1.55847 0.438565 0
M  V30 1031 H 104.479 -3.5714 -1.9035 0
M  V30 1032 H 103.049 -2.5098 -1.86354 0
M  V30 1033 H 102.269 -3.9383 0.170688 0
M  V30 1034 H 103.557 -5.08197 -0.247619 0
M  V30 1035 H 102.955 -4.53514 -3.38145 0
M  V30 1036 H 101.512 -5.44603 -3.58121 0
M  V30 1037 N 104.945 -0.338344 -1.53925 0
M  V30 1038 C 106.191 0.252842 -2.01822 0
M  V30 1039 C 106.546 1.48612 -1.22197 0
M  V30 1040 O 105.839 1.89238 -0.299892 0
M  V30 1041 C 106.033 0.62448 -3.51902 0
M  V30 1042 C 105.862 -0.571235 -4.46057 0
M  V30 1043 C 104.632 -1.07493 -4.93734 0
M  V30 1044 C 106.83 -1.42807 -4.94076 0
M  V30 1045 N 104.812 -2.23351 -5.71828 0
M  V30 1046 C 106.183 -2.43362 -5.70241 0
M  V30 1047 C 108.238 -1.45412 -4.76193 0
M  V30 1048 C 106.941 -3.46346 -6.30426 0
M  V30 1049 C 108.967 -2.47274 -5.37224 0
M  V30 1050 C 108.329 -3.46555 -6.13253 0
M  V30 1051 H 104.428 0.0559669 -0.779995 0
M  V30 1052 H 107.012 -0.476732 -1.88773 0
M  V30 1053 H 105.183 1.32317 -3.65167 0
M  V30 1054 H 106.915 1.19841 -3.86549 0
M  V30 1055 H 103.67 -0.643848 -4.69203 0
M  V30 1056 H 104.094 -2.81834 -6.15548 0
M  V30 1057 H 108.736 -0.700171 -4.16962 0
M  V30 1058 H 106.454 -4.22638 -6.88769 0
M  V30 1059 H 110.04 -2.50109 -5.25297 0
M  V30 1060 H 108.92 -4.24083 -6.59638 0
M  V30 1061 N 106.423 1.57458 -0.0668435 0
M  V30 1062 C 107.355 2.09413 0.931601 0
M  V30 1063 C 108.368 1.02522 1.26464 0
M  V30 1064 O 109.557 1.30049 1.22269 0
M  V30 1065 C 106.657 2.53537 2.24882 0
M  V30 1066 C 105.83 3.83944 2.09537 0
M  V30 1067 C 104.889 4.14214 3.2452 0
M  V30 1068 O 103.915 4.83891 2.9973 0
M  V30 1069 N 105.117 3.67367 4.49469 0
M  V30 1070 H 107.882 2.95699 0.488048 0
M  V30 1071 H 105.443 1.61462 0.119009 0
M  V30 1072 H 107.435 2.70853 3.00701 0
M  V30 1073 H 106.005 1.72415 2.60753 0
M  V30 1074 H 105.225 3.76057 1.18215 0
M  V30 1075 H 106.513 4.69312 1.96529 0
M  V30 1076 H 105.911 3.11068 4.72497 0
M  V30 1077 H 104.468 3.89891 5.2233 0
M  V30 1078 N 107.901 -0.206675 1.56239 0
M  V30 1079 C 108.864 -1.23976 1.92776 0
M  V30 1080 C 109.864 -1.39041 0.807729 0
M  V30 1081 O 111.054 -1.37051 1.0753 0
M  V30 1082 C 108.186 -2.61112 2.19165 0
M  V30 1083 H 109.379 -0.927764 2.85189 0
M  V30 1084 H 106.932 -0.447718 1.4975 0
M  V30 1085 H 107.667 -2.97386 1.29352 0
M  V30 1086 H 107.452 -2.51552 3.00772 0
M  V30 1087 H 108.942 -3.35633 2.48476 0
M  V30 1088 N 109.379 -1.50304 -0.473955 0
M  V30 1089 C 110.311 -1.65109 -1.58971 0
M  V30 1090 C 111.324 -0.532676 -1.53839 0
M  V30 1091 O 112.513 -0.805751 -1.59279 0
M  V30 1092 C 109.613 -1.61684 -2.97845 0
M  V30 1093 C 108.786 -2.8951 -3.27876 0
M  V30 1094 C 107.845 -2.78768 -4.4629 0
M  V30 1095 O 106.871 -3.52722 -4.46739 0
M  V30 1096 N 108.073 -1.9213 -5.47783 0
M  V30 1097 H 110.838 -2.61347 -1.46689 0
M  V30 1098 H 108.399 -1.47732 -0.662324 0
M  V30 1099 H 110.391 -1.52114 -3.75024 0
M  V30 1100 H 108.961 -0.731925 -3.03911 0
M  V30 1101 H 108.181 -3.13228 -2.39336 0
M  V30 1102 H 109.469 -3.74199 -3.4475 0
M  V30 1103 H 108.867 -1.31353 -5.50239 0
M  V30 1104 H 107.424 -1.88466 -6.23958 0
M  V30 1105 N 110.857 0.726932 -1.39834 0
M  V30 1106 C 112.105 1.4837 -1.37225 0
M  V30 1107 C 112.426 1.94979 0.0284857 0
M  V30 1108 O 111.696 1.69555 0.981213 0
M  V30 1109 H 110.276 0.55043 -0.505011 0
M  V30 1110 H 112.938 0.862468 -1.74778 0
M  V30 1111 H 112.034 2.36198 -2.04003 0
M  V30 1112 N 112.336 1.25143 0.95797 0
M  V30 1113 C 113.286 1.01924 2.0395 0
M  V30 1114 C 114.27 -0.0427175 1.60843 0
M  V30 1115 O 115.462 0.17221 1.7616 0
M  V30 1116 C 112.591 0.636373 3.3735 0
M  V30 1117 C 111.677 1.73492 3.8699 0
M  V30 1118 N 112.068 2.96945 4.0946 0
M  V30 1119 C 110.366 1.61467 4.15746 0
M  V30 1120 C 111.067 3.68228 4.50315 0
M  V30 1121 N 110.043 2.95833 4.56053 0
M  V30 1122 H 113.845 1.95653 2.19311 0
M  V30 1123 H 111.359 1.15413 1.14253 0
M  V30 1124 H 113.356 0.451233 4.14451 0
M  V30 1125 H 112.016 -0.293621 3.2337 0
M  V30 1126 H 113.027 3.33025 3.96629 0
M  V30 1127 H 109.704 0.753394 4.10646 0
M  V30 1128 H 111.094 4.74178 4.76031 0
M  V30 1129 N 113.814 -1.1601 1.06675 0
M  V30 1130 C 115.06 -1.86909 0.786945 0
M  V30 1131 C 115.393 -1.81717 -0.685018 0
M  V30 1132 O 114.668 -1.23551 -1.50218 0
M  V30 1133 C 114.951 -3.36313 1.28707 0
M  V30 1134 C 114.804 -3.50175 2.82308 0
M  V30 1135 C 116.123 -4.3084 0.898071 0
M  V30 1136 H 113.242 -0.678677 0.287343 0
M  V30 1137 H 115.884 -1.36336 1.32334 0
M  V30 1138 H 114.034 -3.79513 0.830768 0
M  V30 1139 H 115.706 -3.15886 3.36175 0
M  V30 1140 H 113.949 -2.91959 3.20847 0
M  V30 1141 H 114.62 -4.55116 3.12368 0
M  V30 1142 H 117.096 -3.95561 1.29114 0
M  V30 1143 H 115.972 -5.33876 1.27543 0
M  V30 1144 H 116.233 -4.41662 -0.196651 0
M  V30 1145 N 115.292 -0.849877 -1.32721 0
M  V30 1146 C 116.255 -0.296122 -2.27279 0
M  V30 1147 C 117.255 0.541458 -1.5141 0
M  V30 1148 O 118.445 0.353658 -1.70572 0
M  V30 1149 C 115.577 0.581579 -3.35902 0
M  V30 1150 H 116.77 -1.13064 -2.77771 0
M  V30 1151 H 114.323 -0.62383 -1.43311 0
M  V30 1152 H 115.058 1.43809 -2.9067 0
M  V30 1153 H 114.843 -0.0178814 -3.92096 0
M  V30 1154 H 116.333 0.961951 -4.0637 0
M  V30 1155 N 116.77 1.45427 -0.607355 0
M  V30 1156 C 117.68 2.34325 0.113463 0
M  V30 1157 C 118.696 1.51226 0.860617 0
M  V30 1158 O 119.872 1.84029 0.818255 0
M  V30 1159 C 116.937 3.28839 1.09844 0
M  V30 1160 C 115.998 4.27844 0.353271 0
M  V30 1161 C 115.231 5.17842 1.29133 0
M  V30 1162 O 115.454 5.11264 2.52913 0
M  V30 1163 O 114.388 5.96713 0.788523 0
M  V30 1164 H 118.214 2.97364 -0.617094 0
M  V30 1165 H 115.799 1.44807 -0.367619 0
M  V30 1166 H 117.681 3.8708 1.66575 0
M  V30 1167 H 116.356 2.68365 1.81003 0
M  V30 1168 H 115.263 3.7322 -0.256494 0
M  V30 1169 H 116.596 4.91173 -0.317822 0
M  V30 1170 N 118.248 0.346503 1.53744 0
M  V30 1171 C 119.494 -0.242135 2.01954 0
M  V30 1172 C 119.849 -1.47962 1.22984 0
M  V30 1173 O 119.142 -1.89077 0.309924 0
M  V30 1174 C 119.336 -0.605809 3.52228 0
M  V30 1175 C 119.165 0.594882 4.45748 0
M  V30 1176 C 117.935 1.1011 4.93157 0
M  V30 1177 C 120.133 1.45425 4.93311 0
M  V30 1178 N 118.115 2.26381 5.70636 0
M  V30 1179 C 119.486 2.46383 5.68942 0
M  V30 1180 C 121.541 1.47935 4.75415 0
M  V30 1181 C 120.244 3.49684 6.28581 0
M  V30 1182 C 122.27 2.50119 5.35905 0
M  V30 1183 C 121.632 3.49803 6.11406 0
M  V30 1184 H 117.731 -0.0518296 0.780281 0
M  V30 1185 H 120.315 0.486736 1.88518 0
M  V30 1186 H 118.486 -1.30378 3.65864 0
M  V30 1187 H 120.218 -1.17789 3.87179 0
M  V30 1188 H 116.973 0.668721 4.68855 0
M  V30 1189 H 117.397 2.85094 6.14044 0
M  V30 1190 H 122.039 0.722274 4.16585 0
M  V30 1191 H 119.757 4.26285 6.86518 0
M  V30 1192 H 123.343 2.52892 5.23963 0
M  V30 1193 H 122.223 4.27576 6.5738 0
M  V30 1194 N 119.726 -1.57421 0.075193 0
M  V30 1195 C 120.954 -1.97946 -0.602076 0
M  V30 1196 C 121.369 -0.953674 -1.62943 0
M  V30 1197 O 120.726 0.0592551 -1.82404 0
M  V30 1198 C 120.777 -3.38546 -1.26762 0
M  V30 1199 O 120.498 -4.37195 -0.281376 0
M  V30 1200 C 121.999 -3.93966 -2.03239 0
M  V30 1201 H 119.219 -0.650918 -0.162931 0
M  V30 1202 H 121.763 -2.03959 0.148601 0
M  V30 1203 H 119.918 -3.33609 -1.96936 0
M  V30 1204 H 120.332 -5.18975 -0.759267 0
M  V30 1205 H 121.806 -4.94555 -2.45193 0
M  V30 1206 H 122.283 -3.30693 -2.8903 0
M  V30 1207 H 122.889 -4.02315 -1.37924 0
M  V30 1208 N 121.204 0.198386 -1.56346 0
M  V30 1209 C 122.615 0.763358 -1.70381 0
M  V30 1210 C 122.966 1.83995 -0.681203 0
M  V30 1211 O 122.091 2.15785 0.16305 0
M  V30 1212 C 122.686 1.39143 -3.08909 0
M  V30 1213 C 121.245 1.90352 -3.2472 0
M  V30 1214 C 120.392 0.772233 -2.6633 0
M  V30 1215 H 123.343 -0.0266377 -1.58678 0
M  V30 1216 H 123.364 2.26076 -3.06055 0
M  V30 1217 H 122.876 0.607638 -3.83314 0
M  V30 1218 H 120.977 2.71461 -2.55225 0
M  V30 1219 H 121.09 2.06757 -4.3219 0
M  V30 1220 H 119.454 1.18566 -2.2542 0
M  V30 1221 H 120.237 0.00073556 -3.433 0
M  V30 1222 N 122.682 1.50554 0.465978 0
M  V30 1223 C 123.612 1.72722 1.57128 0
M  V30 1224 C 124.593 0.576294 1.6004 0
M  V30 1225 O 125.778 0.81598 1.76225 0
M  V30 1226 C 122.908 1.82605 2.95419 0
M  V30 1227 C 121.862 2.97835 3.07373 0
M  V30 1228 C 121.188 2.92867 4.47363 0
M  V30 1229 C 122.488 4.38265 2.84114 0
M  V30 1230 H 124.182 2.65267 1.38829 0
M  V30 1231 H 121.728 1.2765 0.666441 0
M  V30 1232 H 123.681 1.96698 3.72677 0
M  V30 1233 H 122.405 0.866858 3.14886 0
M  V30 1234 H 121.064 2.83401 2.3255 0
M  V30 1235 H 120.712 1.94783 4.63755 0
M  V30 1236 H 120.412 3.70227 4.56296 0
M  V30 1237 H 121.936 3.09015 5.26633 0
M  V30 1238 H 123.35 4.53198 3.51118 0
M  V30 1239 H 121.747 5.17115 3.04487 0
M  V30 1240 H 122.817 4.50281 1.7993 0
M  V30 1241 N 124.16 -0.719506 1.40217 0
M  V30 1242 C 125.09 -1.8465 1.42922 0
M  V30 1243 C 126.071 -1.67599 0.29062 0
M  V30 1244 O 127.256 -1.87688 0.498677 0
M  V30 1245 C 124.386 -3.22565 1.28722 0
M  V30 1246 C 123.34 -3.54281 2.40144 0
M  V30 1247 C 122.666 -4.91298 2.11023 0
M  V30 1248 C 123.966 -3.55676 3.82481 0
M  V30 1249 H 125.66 -1.82644 2.37237 0
M  V30 1250 H 123.206 -0.877305 1.1419 0
M  V30 1251 H 125.159 -4.01095 1.29232 0
M  V30 1252 H 123.883 -3.25137 0.308811 0
M  V30 1253 H 122.542 -2.78088 2.38877 0
M  V30 1254 H 122.19 -4.90468 1.11582 0
M  V30 1255 H 121.89 -5.13485 2.8567 0
M  V30 1256 H 123.414 -5.72166 2.13209 0
M  V30 1257 H 124.828 -4.24254 3.85592 0
M  V30 1258 H 123.225 -3.89388 4.56614 0
M  V30 1259 H 124.295 -2.55144 4.12346 0
M  V30 1260 N 125.638 -1.25649 -0.95132 0
M  V30 1261 C 126.868 -1.13179 -1.72841 0
M  V30 1262 C 127.276 0.316827 -1.86528 0
M  V30 1263 O 126.619 1.22948 -1.3649 0
M  V30 1264 C 126.681 -1.71644 -3.15878 0
M  V30 1265 C 126.345 -3.20667 -3.25609 0
M  V30 1266 C 127.342 -4.17616 -3.09666 0
M  V30 1267 C 125.027 -3.6094 -3.49324 0
M  V30 1268 C 127.021 -5.52817 -3.17289 0
M  V30 1269 C 124.708 -4.96278 -3.56584 0
M  V30 1270 C 125.706 -5.92025 -3.40581 0
M  V30 1271 O 125.394 -7.24899 -3.47528 0
M  V30 1272 H 125.126 -0.395389 -0.54831 0
M  V30 1273 H 127.68 -1.66566 -1.20187 0
M  V30 1274 H 125.91 -1.12707 -3.69911 0
M  V30 1275 H 127.599 -1.54225 -3.75459 0
M  V30 1276 H 128.365 -3.87842 -2.91211 0
M  V30 1277 H 124.244 -2.86907 -3.6084 0
M  V30 1278 H 127.788 -6.2753 -3.04716 0
M  V30 1279 H 123.685 -5.25716 -3.74556 0
M  V30 1280 H 124.453 -7.33039 -3.64138 0
M  V30 1281 N 127.117 1.15442 -1.07289 0
M  V30 1282 C 128.065 2.22225 -0.686952 0
M  V30 1283 C 129.059 1.66688 0.30193 0
M  V30 1284 O 130.265 1.79236 0.165712 0
M  V30 1285 H 126.64 0.723783 -0.204064 0
M  V30 1286 H 128.611 2.52056 -1.5972 0
M  V30 1287 C 127.36 3.47556 -0.100149 0
M  V30 1288 H 126.683 3.90612 -0.852211 0
M  V30 1289 H 128.123 4.23794 0.132235 0
M  V30 1290 C 126.582 3.16337 1.159 0
M  V30 1291 O 127.112 3.33074 2.24555 0
M  V30 1292 N 125.318 2.70385 1.06491 0
M  V30 1293 H 124.865 2.56966 0.180668 0
M  V30 1294 H 124.823 2.49871 1.90819 0
M  V30 1295 N 128.595 0.856903 1.32268 0
M  V30 1296 C 129.842 0.461386 1.97174 0
M  V30 1297 C 130.17 -0.983491 1.67803 0
M  V30 1298 O 129.425 -1.70541 0.959903 0
M  V30 1299 C 129.724 0.649919 3.51441 0
M  V30 1300 C 129.39 2.0656 4.00804 0
M  V30 1301 C 128.052 2.45279 4.13995 0
M  V30 1302 C 130.404 2.98947 4.26943 0
M  V30 1303 C 127.732 3.75653 4.50668 0
M  V30 1304 C 130.084 4.28822 4.65075 0
M  V30 1305 C 128.748 4.67472 4.76472 0
M  V30 1306 H 128.018 0.168833 0.72151 0
M  V30 1307 H 130.665 1.08739 1.57633 0
M  V30 1308 H 128.97 -0.0593018 3.91755 0
M  V30 1309 H 130.667 0.32391 3.9969 0
M  V30 1310 H 127.257 1.75495 3.91024 0
M  V30 1311 H 131.441 2.70265 4.16258 0
M  V30 1312 H 126.697 4.05379 4.57688 0
M  V30 1313 H 130.871 5.0047 4.84255 0
M  V30 1314 H 128.498 5.68539 5.04646 0
M  V30 1315 N 130.073 -1.45103 0.615059 0
M  V30 1316 C 131.023 -2.27679 -0.120966 0
M  V30 1317 C 132.007 -1.3775 -0.831491 0
M  V30 1318 O 133.199 -1.61683 -0.720249 0
M  V30 1319 C 130.328 -3.24767 -1.1127 0
M  V30 1320 C 129.414 -4.22184 -0.402627 0
M  V30 1321 N 129.805 -5.02692 0.559884 0
M  V30 1322 C 128.103 -4.4125 -0.649202 0
M  V30 1323 C 128.804 -5.73421 0.977942 0
M  V30 1324 N 127.78 -5.42657 0.320104 0
M  V30 1325 H 131.582 -2.87325 0.618181 0
M  V30 1326 H 129.096 -1.56345 0.439304 0
M  V30 1327 H 131.093 -3.82666 -1.65446 0
M  V30 1328 H 129.753 -2.66682 -1.85232 0
M  V30 1329 H 130.764 -5.09354 0.936976 0
M  V30 1330 H 127.441 -3.9428 -1.37293 0
M  V30 1331 H 128.831 -6.48107 1.77222 0
M  V30 1332 N 131.551 -0.354651 -1.53558 0
M  V30 1333 C 132.514 0.484566 -2.24019 0
M  V30 1334 C 133.514 1.01861 -1.24422 0
M  V30 1335 O 134.704 0.906097 -1.4878 0
M  V30 1336 C 131.836 1.67615 -2.96847 0
M  V30 1337 H 133.029 -0.131843 -2.9961 0
M  V30 1338 H 130.582 -0.106165 -1.55939 0
M  V30 1339 H 131.317 2.33095 -2.25471 0
M  V30 1340 H 131.102 1.30029 -3.69912 0
M  V30 1341 H 132.592 2.27114 -3.50441 0
M  V30 1342 N 133.029 1.57378 -0.0835403 0
M  V30 1343 C 134.277 1.93547 0.581718 0
M  V30 1344 C 134.598 0.96524 1.69435 0
M  V30 1345 O 133.868 0.0153369 1.95894 0
M  V30 1346 H 132.448 0.714521 0.217874 0
M  V30 1347 H 135.11 1.94366 -0.144158 0
M  V30 1348 H 134.206 2.95665 0.999423 0
M  V30 1349 N 134.507 -0.190092 1.56449 0
M  V30 1350 C 135.923 -0.54113 1.50146 0
M  V30 1351 C 136.123 -1.85603 0.784465 0
M  V30 1352 O 135.179 -2.5024 0.337051 0
M  V30 1353 C 136.492 -0.591241 2.9483 0
M  V30 1354 C 138.04 -0.679732 3.0553 0
M  V30 1355 C 138.515 -0.760908 4.51635 0
M  V30 1356 N 140.006 -0.824302 4.55806 0
M  V30 1357 C 140.741 -0.907365 5.66175 0
M  V30 1358 N 140.237 -0.952422 6.86222 0
M  V30 1359 N 142.03 -0.94494 5.541 0
M  V30 1360 H 134.181 0.67235 2.01478 0
M  V30 1361 H 136.444 0.240127 0.917084 0
M  V30 1362 H 136.15 0.305905 3.50367 0
M  V30 1363 H 136.024 -1.44422 3.48457 0
M  V30 1364 H 138.411 -1.56731 2.50039 0
M  V30 1365 H 138.492 0.199549 2.5502 0
M  V30 1366 H 138.136 0.122336 5.07753 0
M  V30 1367 H 138.066 -1.65606 4.99882 0
M  V30 1368 H 140.557 -0.798526 3.69367 0
M  V30 1369 H 140.87 -1.01645 7.66086 0
M  V30 1370 H 139.215 -0.921014 6.8887 0
M  V30 1371 H 142.406 -0.906612 4.59236 0
M  V30 1372 H 142.579 -1.00622 6.4014 0
M  V30 1373 N 135.985 -1.50799 -0.457987 0
M  V30 1374 C 136.915 -1.73553 -1.5621 0
M  V30 1375 C 137.896 -0.584774 -1.59732 0
M  V30 1376 O 139.081 -0.825314 -1.7579 0
M  V30 1377 C 136.211 -1.84169 -2.94447 0
M  V30 1378 C 135.165 -2.99461 -3.0579 0
M  V30 1379 C 134.491 -2.95235 -4.45803 0
M  V30 1380 C 135.791 -4.39766 -2.81786 0
M  V30 1381 H 137.485 -2.66 -1.37421 0
M  V30 1382 H 135.031 -1.28002 -0.659662 0
M  V30 1383 H 136.984 -1.98672 -3.71628 0
M  V30 1384 H 135.708 -0.883545 -3.14422 0
M  V30 1385 H 134.367 -2.8463 -2.31044 0
M  V30 1386 H 134.015 -1.97239 -4.62715 0
M  V30 1387 H 133.715 -3.72642 -4.54326 0
M  V30 1388 H 135.239 -3.11803 -5.24987 0
M  V30 1389 H 136.653 -4.55054 -3.4871 0
M  V30 1390 H 135.05 -5.18722 -3.0174 0
M  V30 1391 H 136.12 -4.51229 -1.7754 0
M  V30 1392 N 137.463 0.71206 -1.40597 0
M  V30 1393 C 138.688 1.50617 -1.42581 0
M  V30 1394 C 139.113 1.88079 -0.0282102 0
M  V30 1395 O 138.471 1.53511 0.964579 0
M  V30 1396 C 138.519 2.7557 -2.3258 0
M  V30 1397 O 137.623 3.72414 -1.77148 0
M  V30 1398 H 136.964 0.453966 -0.484573 0
M  V30 1399 H 139.494 0.876649 -1.84868 0
M  V30 1400 H 139.504 3.2406 -2.47889 0
M  V30 1401 H 138.179 2.47639 -3.34138 0
M  V30 1402 H 136.756 3.31276 -1.71204 0
M  V30 1403 N 138.941 1.26152 0.944643 0
M  V30 1404 C 140.352 1.10454 1.50522 0
M  V30 1405 C 140.703 -0.31635 1.93633 0
M  V30 1406 O 139.828 -1.20746 1.79581 0
M  V30 1407 C 140.423 1.99891 2.73549 0
M  V30 1408 C 138.982 1.88348 3.25886 0
M  V30 1409 C 138.129 1.93447 1.9868 0
M  V30 1410 H 141.08 1.39292 0.760489 0
M  V30 1411 H 141.101 1.54477 3.47732 0
M  V30 1412 H 140.613 3.03297 2.42141 0
M  V30 1413 H 138.714 0.878636 3.62092 0
M  V30 1414 H 138.827 2.73696 3.93227 0
M  V30 1415 H 137.191 1.37456 2.14425 0
M  V30 1416 H 137.974 2.98476 1.69607 0
M  V30 1417 N 140.419 -1.14872 1.07899 0
M  V30 1418 C 141.644 -1.90202 0.826926 0
M  V30 1419 C 142.069 -1.77774 -0.614664 0
M  V30 1420 O 141.427 -1.11431 -1.43013 0
M  V30 1421 C 141.475 -3.38352 1.24702 0
M  V30 1422 O 140.579 -4.10497 0.39575 0
M  V30 1423 H 139.92 -0.591968 0.300782 0
M  V30 1424 H 142.45 -1.45437 1.43907 0
M  V30 1425 H 142.46 -3.89156 1.22563 0
M  V30 1426 H 141.135 -3.46715 2.29698 0
M  V30 1427 H 139.712 -3.69796 0.480117 0
M  V30 1428 N 141.898 -0.863906 -1.31812 0
M  V30 1429 C 143.309 -0.52522 -1.7916 0
M  V30 1430 C 143.66 0.957518 -1.71248 0
M  V30 1431 O 142.785 1.74734 -1.27659 0
M  V30 1432 C 143.38 -0.9466 -3.25307 0
M  V30 1433 C 141.939 -0.659668 -3.70574 0
M  V30 1434 C 141.086 -1.14126 -2.52726 0
M  V30 1435 H 144.037 -1.05022 -1.1898 0
M  V30 1436 H 144.058 -0.266766 -3.79564 0
M  V30 1437 H 143.57 -2.02579 -3.31034 0
M  V30 1438 H 141.671 0.408416 -3.70355 0
M  V30 1439 H 141.784 -1.23245 -4.62977 0
M  V30 1440 H 140.148 -0.561216 -2.4844 0
M  V30 1441 H 140.931 -2.22775 -2.61201 0
M  V30 1442 N 143.376 1.44774 -0.622745 0
M  V30 1443 C 144.653 1.95522 -0.0551974 0
M  V30 1444 C 145.033 1.5649 1.41683 0
M  V30 1445 O 144.381 0.834848 2.12703 0
M  V30 1446 C 144.591 3.4796 -0.269242 0
M  V30 1447 C 145.939 4.24306 -0.158014 0
M  V30 1448 O 146.963 3.55637 -0.200162 0
M  V30 1449 O 145.822 5.46471 -0.0558693 0
M  V30 1450 H 142.916 0.826556 0.0271015 0
M  V30 1451 H 145.462 1.54866 -0.693864 0
M  V30 1452 H 144.234 3.6939 -1.29099 0
M  V30 1453 H 143.857 3.95543 0.403966 0
M  V30 1454 N 144.854 0.36279 1.53368 0
M  V30 1455 C 145.764 -0.492994 2.29362 0
M  V30 1456 C 146.78 -1.09507 1.35219 0
M  V30 1457 O 147.956 -1.10662 1.68273 0
M  V30 1458 C 145.021 -1.61855 3.066 0
M  V30 1459 C 144.082 -1.04429 4.16405 0
M  V30 1460 C 143.315 -2.11621 4.89951 0
M  V30 1461 O 143.538 -3.32684 4.63333 0
M  V30 1462 O 142.472 -1.74835 5.75948 0
M  V30 1463 H 146.298 0.125331 3.03441 0
M  V30 1464 H 143.883 0.127253 1.48857 0
M  V30 1465 H 145.765 -2.27302 3.54841 0
M  V30 1466 H 144.44 -2.22233 2.3536 0
M  V30 1467 H 143.347 -0.353819 3.72423 0
M  V30 1468 H 144.68 -0.485113 4.89804 0
M  V30 1469 N 146.332 -1.57332 0.0918853 0
M  V30 1470 C 147.264 -2.10869 -0.898168 0
M  V30 1471 C 148.277 -1.04521 -1.24817 0
M  V30 1472 O 149.466 -1.31977 -1.20184 0
M  V30 1473 C 146.566 -2.57083 -2.2082 0
M  V30 1474 C 145.739 -3.87229 -2.03402 0
M  V30 1475 C 144.798 -4.19324 -3.17889 0
M  V30 1476 O 143.824 -4.88598 -2.91994 0
M  V30 1477 N 145.026 -3.74471 -4.43567 0
M  V30 1478 H 147.791 -2.96439 -0.440943 0
M  V30 1479 H 145.352 -1.61631 -0.0933064 0
M  V30 1480 H 147.344 -2.75602 -2.96354 0
M  V30 1481 H 145.914 -1.76541 -2.57977 0
M  V30 1482 H 145.134 -3.7789 -1.12218 0
M  V30 1483 H 146.422 -4.72379 -1.89038 0
M  V30 1484 H 145.82 -3.18546 -4.67488 0
M  V30 1485 H 144.377 -3.98151 -5.16061 0
M  V30 1486 N 147.81 0.181792 -1.56548 0
M  V30 1487 C 149.056 0.901431 -1.81665 0
M  V30 1488 C 149.389 1.82347 -0.668075 0
M  V30 1489 O 148.664 1.91669 0.330615 0
M  V30 1490 C 148.947 1.70618 -3.17115 0
M  V30 1491 C 148.8 0.807964 -4.42484 0
M  V30 1492 C 150.119 2.67605 -3.49393 0
M  V30 1493 H 147.238 0.32627 -0.660846 0
M  V30 1494 H 149.88 0.168134 -1.89255 0
M  V30 1495 H 148.03 2.33133 -3.10775 0
M  V30 1496 H 149.702 0.19649 -4.60881 0
M  V30 1497 H 147.945 0.115411 -4.33646 0
M  V30 1498 H 148.616 1.40632 -5.33785 0
M  V30 1499 H 151.092 2.15218 -3.56118 0
M  V30 1500 H 149.968 3.20985 -4.45264 0
M  V30 1501 H 150.229 3.47298 -2.73563 0
M  V30 1502 N 149.288 1.51039 0.449983 0
M  V30 1503 C 150.704 1.38934 0.785462 0
M  V30 1504 C 150.904 0.461817 1.96136 0
M  V30 1505 O 149.96 -0.0877389 2.52348 0
M  V30 1506 C 151.273 2.80724 1.0777 0
M  V30 1507 C 152.821 2.89787 1.1829 0
M  V30 1508 C 153.296 4.32457 1.50815 0
M  V30 1509 N 154.787 4.35505 1.57764 0
M  V30 1510 C 155.522 5.42914 1.84477 0
M  V30 1511 N 155.018 6.60502 2.09068 0
M  V30 1512 N 156.811 5.3038 1.86155 0
M  V30 1513 H 148.962 2.09904 -0.324647 0
M  V30 1514 H 151.225 0.944378 -0.0827957 0
M  V30 1515 H 150.931 3.50531 0.286498 0
M  V30 1516 H 150.805 3.19273 2.00859 0
M  V30 1517 H 153.192 2.20186 1.96474 0
M  V30 1518 H 153.273 2.54752 0.231314 0
M  V30 1519 H 152.917 5.02603 0.731622 0
M  V30 1520 H 152.847 4.64995 2.47158 0
M  V30 1521 H 155.338 3.50724 1.40715 0
M  V30 1522 H 155.651 7.38158 2.28785 0
M  V30 1523 H 153.996 6.63639 2.06416 0
M  V30 1524 H 157.187 4.37505 1.66454 0
M  V30 1525 H 157.36 6.1417 2.06637 0
M  V30 1526 N 150.766 -0.704594 1.40972 0
M  V30 1527 C 152.012 -1.46546 1.41053 0
M  V30 1528 C 152.367 -1.92393 0.0159714 0
M  V30 1529 O 151.66 -1.66017 -0.956506 0
M  V30 1530 C 151.854 -2.698 2.34399 0
M  V30 1531 C 151.683 -2.36008 3.82793 0
M  V30 1532 C 150.453 -2.26812 4.51536 0
M  V30 1533 C 152.651 -1.99565 4.74003 0
M  V30 1534 N 150.633 -1.8581 5.85105 0
M  V30 1535 C 152.004 -1.69251 5.96451 0
M  V30 1536 C 154.059 -1.86296 4.61734 0
M  V30 1537 C 152.762 -1.27003 7.07999 0
M  V30 1538 C 154.788 -1.45452 5.73234 0
M  V30 1539 C 154.15 -1.16043 6.94776 0
M  V30 1540 H 150.249 -0.533896 0.571383 0
M  V30 1541 H 152.833 -0.816061 1.76773 0
M  V30 1542 H 151.004 -3.32473 2.00789 0
M  V30 1543 H 152.736 -3.36214 2.25261 0
M  V30 1544 H 149.491 -2.44913 4.05357 0
M  V30 1545 H 149.915 -1.67817 6.55871 0
M  V30 1546 H 154.557 -2.0769 3.68273 0
M  V30 1547 H 152.275 -1.04353 8.01334 0
M  V30 1548 H 155.861 -1.35748 5.65742 0
M  V30 1549 H 154.741 -0.84915 7.79589 0
M  V30 1550 N 152.244 -1.26651 -0.937939 0
M  V30 1551 C 153.49 -1.12553 -1.687 0
M  V30 1552 C 153.823 0.329782 -1.91379 0
M  V30 1553 O 153.098 1.24202 -1.4968 0
M  V30 1554 C 153.381 -1.89862 -3.05981 0
M  V30 1555 C 153.234 -3.43318 -2.90607 0
M  V30 1556 C 154.553 -1.69499 -4.0615 0
M  V30 1557 H 151.672 -0.410257 -0.612257 0
M  V30 1558 H 154.314 -1.55685 -1.08913 0
M  V30 1559 H 152.464 -1.53204 -3.57017 0
M  V30 1560 H 154.136 -3.89747 -2.46769 0
M  V30 1561 H 152.379 -3.70179 -2.26164 0
M  V30 1562 H 153.05 -3.92642 -3.8799 0
M  V30 1563 H 155.526 -2.01442 -3.64088 0
M  V30 1564 H 154.402 -2.26002 -5.00214 0
M  V30 1565 H 154.663 -0.640365 -4.37438 0
M  V30 1566 N 153.722 1.14298 -1.08507 0
M  V30 1567 C 154.97 1.84993 -0.813763 0
M  V30 1568 C 155.291 1.83405 0.662393 0
M  V30 1569 O 154.561 1.28319 1.48024 0
M  V30 1570 H 153.141 0.684966 -0.298045 0
M  V30 1571 H 155.803 1.385 -1.37126 0
M  V30 1572 H 154.899 2.89788 -1.15884 0
M  V30 1573 N 155.201 0.870884 1.31352 0
M  V30 1574 C 156.148 0.325425 2.28494 0
M  V30 1575 C 157.118 -0.576615 1.5577 0
M  V30 1576 O 158.303 -0.508059 1.83911 0
M  V30 1577 C 155.443 -0.466283 3.41935 0
M  V30 1578 C 154.556 0.463378 4.29508 0
M  V30 1579 C 153.691 -0.342544 5.30094 0
M  V30 1580 C 152.73 0.583486 6.09313 0
M  V30 1581 N 151.867 -0.186244 7.01853 0
M  V30 1582 H 156.707 1.15901 2.74538 0
M  V30 1583 H 154.244 0.58294 1.35056 0
M  V30 1584 H 156.202 -0.941085 4.06447 0
M  V30 1585 H 154.832 -1.26456 2.97 0
M  V30 1586 H 153.884 1.05663 3.65431 0
M  V30 1587 H 155.196 1.1734 4.84802 0
M  V30 1588 H 154.35 -0.879816 6.00287 0
M  V30 1589 H 153.089 -1.08585 4.75458 0
M  V30 1590 H 152.094 1.13251 5.3801 0
M  V30 1591 H 153.319 1.32566 6.66035 0
M  V30 1592 H 151.265 -0.912348 6.49625 0
M  V30 1593 H 151.182 0.464422 7.54572 0
M  V30 1594 H 152.45 -0.704716 7.76308 0
M  V30 1595 N 156.679 -1.44442 0.630414 0
M  V30 1596 C 158.09 -1.85434 0.217063 0
M  V30 1597 C 158.441 -1.52748 -1.23136 0
M  V30 1598 O 157.566 -0.965205 -1.93682 0
M  V30 1599 C 158.161 -3.36581 0.387168 0
M  V30 1600 C 156.72 -3.76389 0.0283297 0
M  V30 1601 C 155.867 -2.68296 0.700889 0
M  V30 1602 H 158.818 -1.34919 0.83562 0
M  V30 1603 H 158.839 -3.78657 -0.374086 0
M  V30 1604 H 158.351 -3.60339 1.44144 0
M  V30 1605 H 156.452 -3.58246 -1.02423 0
M  V30 1606 H 156.565 -4.77095 0.437892 0
M  V30 1607 H 154.929 -2.54335 0.136267 0
M  V30 1608 H 155.712 -2.94887 1.75774 0
M  V30 1609 N 158.157 -0.370918 -1.53173 0
M  V30 1610 C 159.405 0.216673 -2.00935 0
M  V30 1611 C 159.726 1.48845 -1.25977 0
M  V30 1612 O 158.996 1.92286 -0.374551 0
M  V30 1613 H 157.576 0.0830565 -0.742368 0
M  V30 1614 H 160.238 -0.49838 -1.8842 0
M  V30 1615 H 159.334 0.439893 -3.08984 0
M  V30 1616 N 159.635 1.57281 -0.100228 0
M  V30 1617 C 160.568 2.09976 0.893612 0
M  V30 1618 C 161.546 1.01155 1.27304 0
M  V30 1619 O 162.73 1.28687 1.37739 0
M  V30 1620 C 159.857 2.58098 2.19324 0
M  V30 1621 C 158.903 3.78626 1.96328 0
M  V30 1622 S 159.736 5.21959 1.19662 0
M  V30 1623 C 160.892 5.73435 2.50844 0
M  V30 1624 H 161.125 2.93946 0.44534 0
M  V30 1625 H 158.658 1.53985 0.113167 0
M  V30 1626 H 160.616 2.8648 2.94005 0
M  V30 1627 H 159.277 1.74344 2.61272 0
M  V30 1628 H 158.47 4.10382 2.92579 0
M  V30 1629 H 158.072 3.50763 1.29775 0
M  V30 1630 H 160.364 5.82015 3.46792 0
M  V30 1631 H 161.307 6.7185 2.23659 0
M  V30 1632 H 161.715 5.01395 2.59352 0
M  V30 1633 N 161.113 -0.173488 1.56642 0
M  V30 1634 C 162.338 -0.910149 1.86363 0
M  V30 1635 C 162.763 -1.75132 0.686318 0
M  V30 1636 O 162.121 -1.77595 -0.364643 0
M  V30 1637 C 162.169 -1.76447 3.14482 0
M  V30 1638 O 161.273 -2.86584 2.96553 0
M  V30 1639 H 160.614 -0.255086 0.613047 0
M  V30 1640 H 163.144 -0.172283 2.03873 0
M  V30 1641 H 163.154 -2.16483 3.45831 0
M  V30 1642 H 161.829 -1.14658 3.99783 0
M  V30 1643 H 160.406 -2.50146 2.76553 0
M  V30 1644 N 162.591 -1.51276 -0.441967 0
M  V30 1645 C 163.554 -1.7167 -1.51862 0
M  V30 1646 C 164.554 -0.586793 -1.49711 0
M  V30 1647 O 165.744 -0.854276 -1.51815 0
M  V30 1648 C 162.876 -1.76889 -2.91416 0
M  V30 1649 H 164.069 -2.67754 -1.35084 0
M  V30 1650 H 161.622 -1.41196 -0.670333 0
M  V30 1651 H 162.357 -0.826026 -3.13604 0
M  V30 1652 H 162.142 -2.59001 -2.94382 0
M  V30 1653 H 163.632 -1.94522 -3.69528 0
M  V30 1654 N 164.069 0.697108 -1.41344 0
M  V30 1655 C 165.318 1.45279 -1.39918 0
M  V30 1656 C 165.631 1.95597 -0.0109624 0
M  V30 1657 O 166.837 2.71208 0.125919 0
M  V30 1658 C 165.293 2.62695 -2.46007 0
M  V30 1659 C 164.901 2.19169 -3.90729 0
M  V30 1660 C 166.645 3.40336 -2.53715 0
M  V30 1661 C 164.552 3.33535 -4.88373 0
M  V30 1662 H 163.482 0.545692 -0.520323 0
M  V30 1663 H 166.133 0.756929 -1.67161 0
M  V30 1664 H 164.515 3.34541 -2.11892 0
M  V30 1665 H 165.689 1.54623 -4.34083 0
M  V30 1666 H 164.004 1.54525 -3.86666 0
M  V30 1667 H 166.601 4.2547 -3.2385 0
M  V30 1668 H 166.944 3.85418 -1.5735 0
M  V30 1669 H 167.477 2.75546 -2.86913 0
M  V30 1670 H 164.216 2.93468 -5.86137 0
M  V30 1671 H 163.736 3.96936 -4.49668 0
M  V30 1672 H 165.415 3.99335 -5.09059 0
M  V30 1673 N 165.547 1.27147 0.931209 0
M  V30 1674 C 166.775 1.16082 1.71267 0
M  V30 1675 C 167.19 -0.282772 1.8667 0
M  V30 1676 O 166.547 -1.19283 1.38122 0
M  V30 1677 C 166.598 1.8358 3.11417 0
M  V30 1678 O 166.319 3.22299 2.96741 0
M  V30 1679 C 167.82 1.78597 4.05732 0
M  V30 1680 H 165.04 0.403758 0.535929 0
M  V30 1681 H 167.584 1.67953 1.16671 0
M  V30 1682 H 165.739 1.35623 3.62885 0
M  V30 1683 H 166.153 3.55851 3.85319 0
M  V30 1684 H 167.627 2.30444 5.01597 0
M  V30 1685 H 168.104 0.754564 4.3267 0
M  V30 1686 H 168.71 2.26152 3.60188 0
M  V30 1687 N 167.025 -1.13721 1.09112 0
M  V30 1688 C 168.441 -1.36914 0.820174 0
M  V30 1689 C 168.641 -1.93356 -0.567079 0
M  V30 1690 O 167.697 -2.15093 -1.32255 0
M  V30 1691 C 169.01 -2.3235 1.90877 0
M  V30 1692 C 170.558 -2.45973 1.93562 0
M  V30 1693 C 171.033 -3.44714 3.01556 0
M  V30 1694 N 172.524 -3.52263 3.00775 0
M  V30 1695 C 173.259 -4.28536 3.80978 0
M  V30 1696 N 172.755 -5.07991 4.71081 0
M  V30 1697 N 174.548 -4.23804 3.69251 0
M  V30 1698 H 166.699 -0.754348 1.98553 0
M  V30 1699 H 168.962 -0.3944 0.862063 0
M  V30 1700 H 168.668 -1.98027 2.90651 0
M  V30 1701 H 168.542 -3.32332 1.78424 0
M  V30 1702 H 170.929 -2.79584 0.944286 0
M  V30 1703 H 171.01 -1.45926 2.10093 0
M  V30 1704 H 170.654 -3.11835 4.00901 0
M  V30 1705 H 170.584 -4.44558 2.82269 0
M  V30 1706 H 173.075 -2.95567 2.35475 0
M  V30 1707 H 173.388 -5.63487 5.28869 0
M  V30 1708 H 171.733 -5.07235 4.75119 0
M  V30 1709 H 174.924 -3.60806 2.98222 0
M  V30 1710 H 175.097 -4.82995 4.31995 0
M  V30 1711 N 168.503 -0.877838 -1.30888 0
M  V30 1712 C 169.466 -0.344265 -2.266 0
M  V30 1713 C 170.466 0.50922 -1.52524 0
M  V30 1714 O 171.656 0.317398 -1.71284 0
M  V30 1715 C 168.788 0.510198 -3.37061 0
M  V30 1716 H 169.981 -1.1893 -2.7531 0
M  V30 1717 H 167.534 -0.654088 -1.41956 0
M  V30 1718 H 168.269 1.37612 -2.93655 0
M  V30 1719 H 168.054 -0.101047 -3.9197 0
M  V30 1720 H 169.544 0.875537 -4.08319 0
M  V30 1721 N 169.982 1.44106 -0.638065 0
M  V30 1722 C 170.915 2.27924 0.112161 0
M  V30 1723 C 171.893 1.38945 0.844574 0
M  V30 1724 O 173.077 1.68386 0.847248 0
M  V30 1725 C 170.204 3.18029 1.16512 0
M  V30 1726 C 169.25 4.23163 0.532458 0
M  V30 1727 S 170.083 5.31131 -0.682666 0
M  V30 1728 C 171.239 6.24805 0.37013 0
M  V30 1729 H 171.472 2.91205 -0.598887 0
M  V30 1730 H 169.005 1.48394 -0.426441 0
M  V30 1731 H 170.963 3.70492 1.76766 0
M  V30 1732 H 169.624 2.53955 1.8484 0
M  V30 1733 H 168.817 4.86252 1.32571 0
M  V30 1734 H 168.419 3.74 0.00437644 0
M  V30 1735 H 170.711 6.66042 1.24071 0
M  V30 1736 H 171.654 7.07741 -0.225349 0
M  V30 1737 H 172.062 5.60154 0.699141 0
M  V30 1738 N 171.46 0.379036 1.52974 0
M  V30 1739 C 172.876 0.0285448 1.59574 0
M  V30 1740 C 173.076 -1.45542 1.39355 0
M  V30 1741 O 172.132 -2.2187 1.20541 0
M  V30 1742 C 173.445 0.496535 2.96572 0
M  V30 1743 C 174.993 0.451909 3.0972 0
M  V30 1744 C 175.468 0.895924 4.49152 0
M  V30 1745 N 176.959 0.851522 4.55306 0
M  V30 1746 C 177.694 1.16661 5.61407 0
M  V30 1747 N 177.19 1.55166 6.752 0
M  V30 1748 N 178.983 1.08853 5.51459 0
M  V30 1749 H 171.134 1.34525 1.64367 0
M  V30 1750 H 173.397 0.550733 0.771619 0
M  V30 1751 H 173.103 1.53258 3.16552 0
M  V30 1752 H 172.977 -0.109802 3.7704 0
M  V30 1753 H 175.364 -0.575029 2.89443 0
M  V30 1754 H 175.445 1.09392 2.3123 0
M  V30 1755 H 175.089 1.92104 4.70168 0
M  V30 1756 H 175.019 0.23103 5.26093 0
M  V30 1757 H 177.51 0.568038 3.73606 0
M  V30 1758 H 177.823 1.776 7.52116 0
M  V30 1759 H 176.168 1.59044 6.76557 0
M  V30 1760 H 179.359 0.786803 4.6144 0
M  V30 1761 H 179.532 1.33742 6.34048 0
M  V30 1762 N 172.938 -1.57226 0.108567 0
M  V30 1763 C 174.186 -1.94448 -0.550853 0
M  V30 1764 C 174.507 -0.992074 -1.67878 0
M  V30 1765 O 173.777 -0.0465 -1.95845 0
M  V30 1766 H 172.357 -0.717897 -0.206479 0
M  V30 1767 H 175.019 -1.94112 0.175062 0
M  V30 1768 H 174.115 -2.97218 -0.952259 0
M  V30 1769 N 174.416 0.165178 -1.56732 0
M  V30 1770 C 175.693 0.908443 -1.73224 0
M  V30 1771 C 176.073 2.0013 -0.67165 0
M  V30 1772 O 175.421 2.26353 0.31253 0
M  V30 1773 C 175.631 1.46756 -3.16644 0
M  V30 1774 C 176.979 1.93809 -3.77787 0
M  V30 1775 O 178.003 1.56537 -3.1996 0
M  V30 1776 O 176.862 2.62486 -4.79336 0
M  V30 1777 H 173.956 0.428025 -0.707618 0
M  V30 1778 H 176.502 0.152526 -1.69013 0
M  V30 1779 H 175.274 0.68129 -3.85323 0
M  V30 1780 H 174.897 2.28749 -3.25207 0
M  V30 1781 N 175.894 1.51508 0.433938 0
M  V30 1782 C 176.827 1.67756 1.54704 0
M  V30 1783 C 177.805 0.525127 1.53887 0
M  V30 1784 O 178.989 0.749393 1.72963 0
M  V30 1785 C 176.116 1.69424 2.9328 0
M  V30 1786 C 175.162 2.90673 3.12108 0
M  V30 1787 S 175.995 4.51431 2.88046 0
M  V30 1788 C 177.151 4.55849 4.28897 0
M  V30 1789 H 177.384 2.61904 1.40689 0
M  V30 1790 H 174.917 1.41235 0.62386 0
M  V30 1791 H 176.875 1.7107 3.73156 0
M  V30 1792 H 175.536 0.764464 3.04655 0
M  V30 1793 H 174.729 2.88251 4.13434 0
M  V30 1794 H 174.331 2.86786 2.40062 0
M  V30 1795 H 176.623 4.31699 5.22152 0
M  V30 1796 H 177.566 5.57676 4.36351 0
M  V30 1797 H 177.974 3.85137 4.12711 0
M  V30 1798 N 177.372 -0.689602 1.41712 0
M  V30 1799 C 178.783 -1.26973 1.36875 0
M  V30 1800 C 179.134 -1.96124 0.054748 0
M  V30 1801 O 178.259 -1.99141 -0.84687 0
M  V30 1802 C 178.854 -2.30912 2.47922 0
M  V30 1803 C 177.413 -2.84486 2.46464 0
M  V30 1804 C 176.56 -1.58603 2.27465 0
M  V30 1805 H 179.511 -0.48396 1.51141 0
M  V30 1806 H 179.532 -3.12331 2.17323 0
M  V30 1807 H 179.044 -1.80554 3.43543 0
M  V30 1808 H 177.145 -3.39005 1.54617 0
M  V30 1809 H 177.258 -3.34511 3.42986 0
M  V30 1810 H 175.622 -1.84632 1.75451 0
M  V30 1811 H 176.405 -1.10233 3.25121 0
M  V30 1812 N 178.85 -1.27639 -0.924453 0
M  V30 1813 C 180.096 -1.14336 -1.67497 0
M  V30 1814 C 180.429 0.309465 -1.91718 0
M  V30 1815 O 179.704 1.22608 -1.50989 0
M  V30 1816 C 179.987 -1.93096 -3.0395 0
M  V30 1817 C 179.84 -3.46381 -2.8695 0
M  V30 1818 C 181.159 -1.73798 -4.0433 0
M  V30 1819 H 178.278 -0.416728 -0.607871 0
M  V30 1820 H 180.92 -1.56832 -1.07256 0
M  V30 1821 H 179.07 -1.56982 -3.55372 0
M  V30 1822 H 180.742 -3.92343 -2.42621 0
M  V30 1823 H 178.985 -3.72557 -2.22225 0
M  V30 1824 H 179.656 -3.96735 -3.83804 0
M  V30 1825 H 182.132 -2.05293 -3.61931 0
M  V30 1826 H 181.008 -2.31294 -4.97789 0
M  V30 1827 H 181.269 -0.686725 -4.36734 0
M  V30 1828 N 180.328 1.1314 -1.09713 0
M  V30 1829 C 181.553 1.88862 -0.857081 0
M  V30 1830 C 181.978 1.78729 0.586304 0
M  V30 1831 O 181.336 1.13692 1.41222 0
M  V30 1832 C 181.384 3.36325 -1.30069 0
M  V30 1833 O 180.488 4.09815 -0.461007 0
M  V30 1834 H 179.829 0.587108 -0.310162 0
M  V30 1835 H 182.359 1.43129 -1.46203 0
M  V30 1836 H 182.369 3.87157 -1.28738 0
M  V30 1837 H 181.044 3.43017 -2.35185 0
M  V30 1838 H 179.621 3.68986 -0.538888 0
M  V30 1839 N 181.806 0.884767 1.30421 0
M  V30 1840 C 183.053 0.503105 1.96151 0
M  V30 1841 C 183.381 -0.947676 1.69851 0
M  V30 1842 O 182.636 -1.68467 0.995861 0
M  V30 1843 C 182.935 0.724318 3.49983 0
M  V30 1844 C 182.601 2.15015 3.96332 0
M  V30 1845 C 181.263 2.54005 4.08699 0
M  V30 1846 C 183.615 3.07936 4.20505 0
M  V30 1847 C 180.943 3.85128 4.42599 0
M  V30 1848 C 183.295 4.3859 4.55874 0
M  V30 1849 C 181.959 4.77474 4.66449 0
M  V30 1850 H 181.229 0.184099 0.717766 0
M  V30 1851 H 183.876 1.12058 1.55291 0
M  V30 1852 H 182.181 0.0238086 3.91793 0
M  V30 1853 H 183.878 0.408617 3.98913 0
M  V30 1854 H 180.468 1.8375 3.87213 0
M  V30 1855 H 184.652 2.79033 4.10431 0
M  V30 1856 H 179.908 4.14996 4.48986 0
M  V30 1857 H 184.082 5.10629 4.7353 0
M  V30 1858 H 181.709 5.79115 4.92473 0
M  V30 1859 N 183.284 -1.43765 0.645699 0
M  V30 1860 C 184.509 -2.06767 0.161883 0
M  V30 1861 C 184.934 -1.48034 -1.16049 0
M  V30 1862 O 184.292 -0.587369 -1.71522 0
M  V30 1863 C 184.34 -3.60519 0.0762003 0
M  V30 1864 O 183.444 -4.00982 -0.963721 0
M  V30 1865 H 182.785 -0.657675 0.091429 0
M  V30 1866 H 185.315 -1.84397 0.886499 0
M  V30 1867 H 185.325 -4.07853 -0.109604 0
M  V30 1868 H 184 -4.02646 1.04157 0
M  V30 1869 H 182.577 -3.65253 -0.751312 0
M  V30 1870 N 184.763 -0.387143 -1.52771 0
M  V30 1871 C 186.003 0.195537 -2.03463 0
M  V30 1872 C 186.367 1.44222 -1.26744 0
M  V30 1873 O 187.568 2.10192 -1.67549 0
M  V30 1874 C 185.839 0.459097 -3.54439 0
M  V30 1875 S 187.398 1.01237 -4.26962 0
M  V30 1876 H 184.216 0.0552675 -0.708849 0
M  V30 1877 H 186.818 -0.534992 -1.88037 0
M  V30 1878 H 185.522 -0.455382 -4.07866 0
M  V30 1879 H 185.053 1.21811 -3.74066 0
M  V30 1880 H 187.068 2.29492 -4.39941 0
M  V30 1881 N 186.241 1.57166 -0.116904 0
M  V30 1882 C 187.657 1.5779 0.239693 0
M  V30 1883 C 187.857 1.1295 1.66867 0
M  V30 1884 O 186.913 0.81592 2.38954 0
M  V30 1885 C 188.226 3.00699 0.00828202 0
M  V30 1886 C 189.774 3.12912 0.0743438 0
M  V30 1887 C 190.249 4.57817 -0.129348 0
M  V30 1888 N 191.74 4.63139 -0.075247 0
M  V30 1889 C 192.475 5.73023 -0.207788 0
M  V30 1890 N 191.971 6.91665 -0.396382 0
M  V30 1891 N 193.764 5.61906 -0.14751 0
M  V30 1892 H 185.915 1.84615 -1.05029 0
M  V30 1893 H 188.178 0.85311 -0.41341 0
M  V30 1894 H 187.884 3.37784 -0.979531 0
M  V30 1895 H 187.758 3.69848 0.741077 0
M  V30 1896 H 190.145 2.75686 1.05268 0
M  V30 1897 H 190.226 2.4631 -0.690297 0
M  V30 1898 H 189.87 4.95742 -1.10465 0
M  V30 1899 H 189.8 5.22507 0.655253 0
M  V30 1900 H 192.291 3.7784 0.0670898 0
M  V30 1901 H 192.604 7.71255 -0.488437 0
M  V30 1902 H 190.949 6.93654 -0.432329 0
M  V30 1903 H 194.14 4.681 -0.00115036 0
M  V30 1904 H 194.313 6.47501 -0.254247 0
M  V30 1905 N 187.719 -0.156864 1.56817 0
M  V30 1906 C 188.968 -0.869504 1.81996 0
M  V30 1907 C 189.281 -1.82777 0.696545 0
M  V30 1908 O 190.487 -2.58384 0.833658 0
M  V30 1909 C 188.943 -1.59679 3.22538 0
M  V30 1910 C 188.551 -0.681431 4.42787 0
M  V30 1911 C 190.295 -2.2968 3.56997 0
M  V30 1912 C 188.202 -1.40978 5.74351 0
M  V30 1913 H 187.132 -0.328438 0.678708 0
M  V30 1914 H 189.783 -0.1223 1.83092 0
M  V30 1915 H 188.165 -2.38927 3.158 0
M  V30 1916 H 189.339 0.0751166 4.60739 0
M  V30 1917 H 187.654 -0.0903431 4.16302 0
M  V30 1918 H 190.251 -2.84794 4.52544 0
M  V30 1919 H 190.594 -3.05707 2.82576 0
M  V30 1920 H 191.127 -1.57361 3.65352 0
M  V30 1921 H 187.866 -0.691561 6.51842 0
M  V30 1922 H 187.386 -2.13929 5.60352 0
M  V30 1923 H 189.065 -1.95337 6.16808 0
M  V30 1924 N 189.197 -1.51736 -0.425897 0
M  V30 1925 C 190.425 -1.68794 -1.1965 0
M  V30 1926 C 190.84 -0.390164 -1.84725 0
M  V30 1927 O 190.197 0.632376 -1.71194 0
M  V30 1928 C 190.248 -2.81174 -2.27208 0
M  V30 1929 O 189.969 -4.05925 -1.64793 0
M  V30 1930 C 191.47 -3.09599 -3.17275 0
M  V30 1931 H 188.69 -0.566128 -0.360194 0
M  V30 1932 H 191.234 -1.98211 -0.503249 0
M  V30 1933 H 189.389 -2.54324 -2.9223 0
M  V30 1934 H 189.803 -4.68423 -2.35967 0
M  V30 1935 H 191.277 -3.91786 -3.88854 0
M  V30 1936 H 191.754 -2.22468 -3.78688 0
M  V30 1937 H 192.36 -3.38151 -2.57941 0
M  V30 1938 N 190.675 0.682077 -1.42076 0
M  V30 1939 C 191.585 1.82535 -1.47371 0
M  V30 1940 C 192.601 1.7017 -0.363079 0
M  V30 1941 O 193.777 1.91848 -0.612875 0
M  V30 1942 C 190.842 3.18624 -1.36674 0
M  V30 1943 C 189.903 3.42999 -2.58167 0
M  V30 1944 C 189.136 4.72595 -2.4797 0
M  V30 1945 O 189.359 5.50006 -1.5116 0
M  V30 1946 O 188.293 4.98054 -3.37974 0
M  V30 1947 H 192.119 1.81023 -2.43853 0
M  V30 1948 H 189.704 0.836887 -1.2376 0
M  V30 1949 H 191.586 3.99847 -1.33043 0
M  V30 1950 H 190.261 3.20789 -0.433138 0
M  V30 1951 H 189.168 2.61653 -2.67373 0
M  V30 1952 H 190.501 3.45659 -3.50401 0
M  V30 1953 N 192.153 1.28127 0.917671 0
M  V30 1954 C 193.399 1.15223 1.66888 0
M  V30 1955 C 193.732 -0.299293 1.9188 0
M  V30 1956 O 193.007 -1.21805 1.51637 0
M  V30 1957 C 193.29 1.94706 3.02922 0
M  V30 1958 C 193.143 3.47898 2.85109 0
M  V30 1959 C 194.462 1.75939 4.03402 0
M  V30 1960 H 191.581 0.419946 0.605652 0
M  V30 1961 H 194.223 1.57398 1.06423 0
M  V30 1962 H 192.373 1.58864 3.54534 0
M  V30 1963 H 194.045 3.93624 2.40537 0
M  V30 1964 H 192.288 3.7373 2.20246 0
M  V30 1965 H 192.959 3.98765 3.81694 0
M  V30 1966 H 195.435 2.07209 3.60837 0
M  V30 1967 H 194.311 2.33931 4.96556 0
M  V30 1968 H 194.572 0.709877 4.36364 0
M  V30 1969 N 193.631 -1.12557 1.10312 0
M  V30 1970 C 194.878 -1.84038 0.844759 0
M  V30 1971 C 195.206 -1.84026 -0.629668 0
M  V30 1972 O 194.461 -1.28026 -1.48013 0
M  V30 1973 C 194.76 -3.31462 1.33669 0
M  V30 1974 C 194.426 -3.51647 2.82232 0
M  V30 1975 C 193.088 -3.56864 3.22802 0
M  V30 1976 C 195.44 -3.58867 3.77974 0
M  V30 1977 C 192.768 -3.66844 4.57867 0
M  V30 1978 C 195.12 -3.70375 5.1284 0
M  V30 1979 C 193.784 -3.73848 5.52986 0
M  V30 1980 H 193.054 -0.673444 0.309119 0
M  V30 1981 H 195.701 -1.32824 1.37949 0
M  V30 1982 H 194.006 -3.85091 0.721949 0
M  V30 1983 H 195.703 -3.85236 1.11329 0
M  V30 1984 H 192.293 -3.48249 2.49842 0
M  V30 1985 H 196.477 -3.54107 3.47738 0
M  V30 1986 H 191.733 -3.67804 4.88396 0
M  V30 1987 H 195.907 -3.74904 5.86873 0
M  V30 1988 H 193.534 -3.81333 6.57639 0
M  V30 1989 N 195.109 -0.891671 -1.2995 0
M  V30 1990 C 196.525 -0.58662 -1.48428 0
M  V30 1991 C 196.725 0.873951 -1.81561 0
M  V30 1992 O 195.781 1.65471 -1.90724 0
M  V30 1993 C 197.094 -1.50553 -2.60296 0
M  V30 1994 C 198.642 -1.50988 -2.74175 0
M  V30 1995 C 199.117 -2.41488 -3.89163 0
M  V30 1996 N 200.608 -2.39489 -3.96483 0
M  V30 1997 C 201.343 -3.06223 -4.84784 0
M  V30 1998 N 200.839 -3.82206 -5.77833 0
M  V30 1999 N 202.632 -2.95421 -4.78208 0
M  V30 2000 H 194.783 -1.83644 -1.06718 0
M  V30 2001 H 197.046 -0.786455 -0.529332 0
M  V30 2002 H 196.752 -2.54581 -2.42654 0
M  V30 2003 H 196.626 -1.22008 -3.56923 0
M  V30 2004 H 199.013 -0.47708 -2.91218 0
M  V30 2005 H 199.094 -1.83567 -1.78148 0
M  V30 2006 H 198.738 -3.44857 -3.72876 0
M  V30 2007 H 198.668 -2.06222 -4.84541 0
M  V30 2008 H 201.159 -1.84278 -3.29924 0
M  V30 2009 H 201.472 -4.302 -6.41988 0
M  V30 2010 H 199.817 -3.86313 -5.77743 0
M  V30 2011 H 203.008 -2.35581 -4.04499 0
M  V30 2012 H 203.181 -3.47704 -5.46814 0
M  V30 2013 N 196.587 1.43421 -0.653314 0
M  V30 2014 C 197.835 2.01414 -0.166415 0
M  V30 2015 C 198.156 1.51803 1.22397 0
M  V30 2016 O 197.426 0.730693 1.81763 0
M  V30 2017 H 196.006 0.744703 -0.0585319 0
M  V30 2018 H 198.668 1.75629 -0.845003 0
M  V30 2019 H 197.764 3.11734 -0.151111 0
M  V30 2020 N 198.065 0.39524 1.52563 0
M  V30 2021 C 198.975 -0.444232 2.30356 0
M  V30 2022 C 199.991 -1.06615 1.37511 0
M  V30 2023 O 201.167 -1.07067 1.70583 0
M  V30 2024 C 198.232 -1.55315 3.09964 0
M  V30 2025 C 197.293 -0.955734 4.18526 0
M  V30 2026 C 196.526 -2.01181 4.9433 0
M  V30 2027 O 196.749 -3.22781 4.70285 0
M  V30 2028 O 195.683 -1.62579 5.79527 0
M  V30 2029 H 199.509 0.189667 3.03107 0
M  V30 2030 H 197.094 0.1588 1.48554 0
M  V30 2031 H 198.976 -2.19724 3.59582 0
M  V30 2032 H 197.651 -2.17191 2.4002 0
M  V30 2033 H 196.558 -0.274743 3.7309 0
M  V30 2034 H 197.891 -0.381109 4.90722 0
M  V30 2035 N 199.544 -1.57102 0.125237 0
M  V30 2036 C 200.454 -2.19191 -0.8362 0
M  V30 2037 C 201.47 -1.16985 -1.28805 0
M  V30 2038 O 202.646 -1.49479 -1.34974 0
M  V30 2039 C 199.711 -2.78407 -2.06617 0
M  V30 2040 C 198.772 -3.9567 -1.66565 0
M  V30 2041 C 198.005 -4.52052 -2.83698 0
M  V30 2042 O 198.228 -4.07326 -3.99302 0
M  V30 2043 O 197.162 -5.42645 -2.60423 0
M  V30 2044 H 200.988 -3.01816 -0.337776 0
M  V30 2045 H 198.573 -1.4906 -0.100695 0
M  V30 2046 H 200.455 -3.16129 -2.7864 0
M  V30 2047 H 199.13 -1.9881 -2.55453 0
M  V30 2048 H 198.037 -3.62705 -0.916296 0
M  V30 2049 H 199.37 -4.76722 -1.22464 0
M  V30 2050 N 201.022 0.148545 -1.56898 0
M  V30 2051 C 201.972 1.1886 -1.94567 0
M  V30 2052 C 202.956 1.3863 -0.816735 0
M  V30 2053 O 204.148 1.40218 -1.08018 0
M  V30 2054 C 201.277 2.52262 -2.32849 0
M  V30 2055 C 200.363 2.36092 -3.52309 0
M  V30 2056 N 200.754 1.89674 -4.6889 0
M  V30 2057 C 199.052 2.66848 -3.57363 0
M  V30 2058 C 199.753 1.86511 -5.50989 0
M  V30 2059 N 198.729 2.29766 -4.92655 0
M  V30 2060 H 202.531 0.821793 -2.82177 0
M  V30 2061 H 200.045 0.356615 -1.58436 0
M  V30 2062 H 202.042 3.27447 -2.58039 0
M  V30 2063 H 200.702 2.89727 -1.46589 0
M  V30 2064 H 201.713 1.59663 -4.92674 0
M  V30 2065 H 198.39 3.08198 -2.81639 0
M  V30 2066 H 199.78 1.52128 -6.54452 0
M  V30 2067 N 202.5 1.5196 0.417844 0
M  V30 2068 C 203.746 1.66793 1.16411 0
M  V30 2069 C 204.101 0.388758 1.88432 0
M  V30 2070 O 203.394 -0.616409 1.81414 0
M  V30 2071 C 203.588 2.82269 2.19223 0
M  V30 2072 C 203.417 4.21293 1.57297 0
M  V30 2073 C 202.187 4.86948 1.34944 0
M  V30 2074 C 204.385 5.03704 1.03858 0
M  V30 2075 N 202.367 6.1003 0.688195 0
M  V30 2076 C 203.738 6.1795 0.503742 0
M  V30 2077 C 205.793 4.89095 0.932203 0
M  V30 2078 C 204.496 7.19188 -0.127034 0
M  V30 2079 C 206.522 5.90559 0.315293 0
M  V30 2080 C 205.884 7.0409 -0.208906 0
M  V30 2081 H 201.983 0.66407 0.412959 0
M  V30 2082 H 204.567 1.89242 0.457772 0
M  V30 2083 H 202.738 2.61451 2.87225 0
M  V30 2084 H 204.47 2.86183 2.86149 0
M  V30 2085 H 201.225 4.45156 1.61657 0
M  V30 2086 H 201.649 6.75964 0.374449 0
M  V30 2087 H 206.291 4.01557 1.32332 0
M  V30 2088 H 204.009 8.06359 -0.530231 0
M  V30 2089 H 207.595 5.81327 0.234625 0
M  V30 2090 H 206.475 7.81257 -0.67875 0
M  V30 2091 N 203.978 -0.674533 1.42435 0
M  V30 2092 C 204.926 -1.80934 1.46169 0
M  V30 2093 C 205.92 -1.66006 0.3374 0
M  V30 2094 O 207.126 -1.72611 0.510425 0
M  V30 2095 H 203.501 -0.596594 0.457798 0
M  V30 2096 H 205.472 -1.74903 2.41767 0
M  V30 2097 C 204.221 -3.19088 1.38123 0
M  V30 2098 H 203.544 -3.31203 2.23931 0
M  V30 2099 H 204.984 -3.9851 1.44797 0
M  V30 2100 C 203.443 -3.36763 0.0960517 0
M  V30 2101 O 203.973 -3.92581 -0.851073 0
M  V30 2102 N 202.179 -2.90597 0.0131186 0
M  V30 2103 H 201.726 -2.45359 0.784639 0
M  V30 2104 H 201.684 -3.028 -0.846133 0
M  V30 2105 N 205.456 -1.28612 -0.910864 0
M  V30 2106 C 206.386 -1.15326 -2.03032 0
M  V30 2107 C 207.367 -0.0502924 -1.70026 0
M  V30 2108 O 208.552 -0.227797 -1.92859 0
M  V30 2109 C 205.682 -0.817343 -3.37545 0
M  V30 2110 C 204.636 -1.8754 -3.84724 0
M  V30 2111 C 203.962 -1.39305 -5.16235 0
M  V30 2112 C 205.262 -3.28244 -4.06267 0
M  V30 2113 H 206.956 -2.08975 -2.14406 0
M  V30 2114 H 204.502 -1.00612 -1.03021 0
M  V30 2115 H 206.455 -0.711151 -4.15356 0
M  V30 2116 H 205.179 0.154846 -3.26233 0
M  V30 2117 H 203.838 -1.97079 -3.09121 0
M  V30 2118 H 203.486 -0.409846 -5.01328 0
M  V30 2119 H 203.186 -2.10057 -5.48771 0
M  V30 2120 H 204.71 -1.30014 -5.96598 0
M  V30 2121 H 206.124 -3.21611 -4.74594 0
M  V30 2122 H 204.521 -3.96855 -4.5014 0
M  V30 2123 H 205.591 -3.72048 -3.10979 0
M  V30 2124 N 206.934 1.1197 -1.10907 0
M  V30 2125 C 207.864 2.19928 -0.784473 0
M  V30 2126 C 208.845 1.6833 0.244726 0
M  V30 2127 O 210.03 1.93892 0.109418 0
M  V30 2128 C 207.16 3.46597 -0.220827 0
M  V30 2129 C 206.114 4.11376 -1.18127 0
M  V30 2130 C 205.44 5.32554 -0.478594 0
M  V30 2131 C 206.74 4.56945 -2.52979 0
M  V30 2132 H 208.434 2.47337 -1.68715 0
M  V30 2133 H 205.98 1.18879 -0.812642 0
M  V30 2134 H 207.933 4.21396 0.0184278 0
M  V30 2135 H 206.657 3.1863 0.717113 0
M  V30 2136 H 205.316 3.38564 -1.40606 0
M  V30 2137 H 204.964 5.00856 0.463976 0
M  V30 2138 H 204.664 5.76844 -1.11912 0
M  V30 2139 H 206.188 6.10096 -0.248 0
M  V30 2140 H 207.602 5.23093 -2.3462 0
M  V30 2141 H 205.999 5.1203 -3.12962 0
M  V30 2142 H 207.069 3.70676 -3.12614 0
M  V30 2143 N 208.412 0.89855 1.29475 0
M  V30 2144 C 209.689 0.443416 1.90508 0
M  V30 2145 C 210.069 -1.07685 1.81569 0
M  V30 2146 O 209.417 -1.9182 1.24166 0
M  V30 2147 C 209.627 0.956708 3.35631 0
M  V30 2148 C 210.975 0.999728 4.12663 0
M  V30 2149 O 211.999 0.904299 3.4453 0
M  V30 2150 O 210.858 1.14289 5.34416 0
M  V30 2151 H 207.952 0.138025 0.815401 0
M  V30 2152 H 210.498 0.98834 1.37949 0
M  V30 2153 H 209.27 2.00067 3.36287 0
M  V30 2154 H 208.893 0.391728 3.95666 0
M  V30 2155 N 209.89 -1.43072 0.660911 0
M  V30 2156 C 210.853 -2.29194 -0.0166406 0
M  V30 2157 C 211.853 -1.42609 -0.742912 0
M  V30 2158 O 213.043 -1.64155 -0.583004 0
M  V30 2159 C 210.175 -3.24831 -1.0343 0
M  V30 2160 H 211.368 -2.90596 0.741208 0
M  V30 2161 H 208.921 -1.5048 0.422532 0
M  V30 2162 H 209.656 -2.68339 -1.82111 0
M  V30 2163 H 209.441 -3.88676 -0.517082 0
M  V30 2164 H 210.931 -3.89451 -1.50723 0
M  V30 2165 N 211.368 -0.403325 -1.52352 0
M  V30 2166 C 212.278 0.432009 -2.30588 0
M  V30 2167 C 213.294 1.05884 -1.38075 0
M  V30 2168 O 214.47 1.06161 -1.71148 0
M  V30 2169 C 211.535 1.53669 -3.10784 0
M  V30 2170 C 210.596 0.933525 -4.19027 0
M  V30 2171 C 209.829 1.98557 -4.9539 0
M  V30 2172 O 210.052 3.20283 -4.71991 0
M  V30 2173 O 208.986 1.59504 -5.80381 0
M  V30 2174 H 212.812 -0.205739 -3.03002 0
M  V30 2175 H 210.397 -0.166675 -1.48467 0
M  V30 2176 H 212.279 2.17814 -3.60742 0
M  V30 2177 H 210.954 2.15915 -2.41169 0
M  V30 2178 H 209.861 0.254954 -3.7323 0
M  V30 2179 H 211.194 0.35508 -4.90918 0
M  V30 2180 N 212.846 1.57033 -0.133567 0
M  V30 2181 C 214.094 1.953 0.519848 0
M  V30 2182 C 214.415 1.01866 1.66278 0
M  V30 2183 O 213.685 0.0776513 1.95746 0
M  V30 2184 H 212.265 0.721091 0.195032 0
M  V30 2185 H 214.927 1.93809 -0.205921 0
M  V30 2186 H 214.023 2.98695 0.904854 0
M  V30 2187 N 214.325 -0.140222 1.56975 0
M  V30 2188 C 215.257 -1.19818 1.95388 0
M  V30 2189 C 216.27 -1.38816 0.850525 0
M  V30 2190 O 217.459 -1.38267 1.12891 0
M  V30 2191 C 214.559 -2.56189 2.21857 0
M  V30 2192 C 213.732 -2.58077 3.5315 0
M  V30 2193 C 212.791 -3.76037 3.6808 0
M  V30 2194 O 211.817 -3.60598 4.40406 0
M  V30 2195 N 213.019 -4.93763 3.05251 0
M  V30 2196 H 215.784 -0.871609 2.86746 0
M  V30 2197 H 213.345 -0.32972 1.58507 0
M  V30 2198 H 215.337 -3.33623 2.2908 0
M  V30 2199 H 213.907 -2.81111 1.36731 0
M  V30 2200 H 213.127 -1.6651 3.57307 0
M  V30 2201 H 214.415 -2.56377 4.39486 0
M  V30 2202 H 213.813 -5.09209 2.46419 0
M  V30 2203 H 212.37 -5.68949 3.18026 0
M  V30 2204 N 215.803 -1.52179 -0.40978 0
M  V30 2205 C 216.751 -1.76086 -1.51975 0
M  V30 2206 C 217.745 -0.627964 -1.57331 0
M  V30 2207 O 218.951 -0.809993 -1.60745 0
M  V30 2208 H 215.326 -0.556829 -0.505416 0
M  V30 2209 H 217.297 -2.69077 -1.28996 0
M  V30 2210 C 216.046 -1.92799 -2.8935 0
M  V30 2211 H 215.369 -2.79392 -2.85972 0
M  V30 2212 H 216.809 -2.13527 -3.66309 0
M  V30 2213 C 215.268 -0.694923 -3.29655 0
M  V30 2214 O 215.798 0.13751 -4.01465 0
M  V30 2215 N 214.004 -0.53101 -2.85707 0
M  V30 2216 H 213.551 -1.20952 -2.27439 0
M  V30 2217 H 213.509 0.292718 -3.13034 0
M  V30 2218 N 217.281 0.66697 -1.42791 0
M  V30 2219 C 218.231 1.77313 -1.43332 0
M  V30 2220 C 219.215 1.5801 -0.303586 0
M  V30 2221 O 220.407 1.68356 -0.546385 0
M  V30 2222 C 217.536 3.15822 -1.34578 0
M  V30 2223 C 216.622 3.40721 -2.52528 0
M  V30 2224 N 217.013 3.36162 -3.77927 0
M  V30 2225 C 215.311 3.71387 -2.46956 0
M  V30 2226 C 216.012 3.60762 -4.56318 0
M  V30 2227 N 214.988 3.81908 -3.86843 0
M  V30 2228 H 218.79 1.72193 -2.38174 0
M  V30 2229 H 216.304 0.868114 -1.3725 0
M  V30 2230 H 218.301 3.951 -1.33048 0
M  V30 2231 H 216.961 3.22133 -0.407453 0
M  V30 2232 H 217.972 3.15885 -4.10411 0
M  V30 2233 H 214.649 3.84897 -1.61743 0
M  V30 2234 H 216.039 3.63132 -5.65318 0
M  V30 2235 N 218.759 1.29093 0.90403 0
M  V30 2236 C 220.007 1.16583 1.65085 0
M  V30 2237 C 220.328 -0.283933 1.92922 0
M  V30 2238 O 219.598 -1.19509 1.55224 0
M  V30 2239 H 218.178 0.428467 0.611903 0
M  V30 2240 H 220.84 1.61959 1.08422 0
M  V30 2241 H 219.936 1.71266 2.6091 0
M  V30 2242 N 220.237 -1.11381 1.11499 0
M  V30 2243 C 221.648 -1.6465 0.880191 0
M  V30 2244 C 221.999 -1.87199 -0.587434 0
M  V30 2245 O 221.124 -1.60667 -1.44966 0
M  V30 2246 C 221.719 -2.99105 1.59128 0
M  V30 2247 C 220.278 -3.49279 1.40289 0
M  V30 2248 C 219.425 -2.24077 1.63354 0
M  V30 2249 H 222.376 -0.950123 1.27116 0
M  V30 2250 H 222.397 -3.66107 1.03664 0
M  V30 2251 H 221.909 -2.82661 2.65941 0
M  V30 2252 H 220.01 -3.70887 0.356888 0
M  V30 2253 H 220.123 -4.2803 2.15238 0
M  V30 2254 H 218.487 -2.31733 1.05698 0
M  V30 2255 H 219.27 -2.10175 2.71443 0
M  V30 2256 N 221.715 -0.905404 -1.28997 0
M  V30 2257 C 222.962 -0.534248 -1.95325 0
M  V30 2258 C 223.29 0.920535 -1.71337 0
M  V30 2259 O 222.545 1.66861 -1.02254 0
M  V30 2260 C 222.844 -0.779906 -3.48787 0
M  V30 2261 C 222.51 -2.21293 -3.92861 0
M  V30 2262 C 221.172 -2.60475 -4.04606 0
M  V30 2263 C 223.524 -3.14587 -4.15553 0
M  V30 2264 C 220.852 -3.9212 -4.36416 0
M  V30 2265 C 223.204 -4.45787 -4.48839 0
M  V30 2266 C 221.868 -4.84834 -4.58794 0
M  V30 2267 H 221.138 -0.195495 -0.714747 0
M  V30 2268 H 223.785 -1.14514 -1.53488 0
M  V30 2269 H 222.09 -0.0861365 -3.91705 0
M  V30 2270 H 223.787 -0.472029 -3.98212 0
M  V30 2271 H 220.377 -1.89887 -3.84241 0
M  V30 2272 H 224.561 -2.85528 -4.0594 0
M  V30 2273 H 219.817 -4.22086 -4.42327 0
M  V30 2274 H 223.991 -5.18098 -4.65346 0
M  V30 2275 H 221.618 -5.86877 -4.83197 0
M  V30 2276 N 223.193 1.4272 -0.668489 0
M  V30 2277 C 224.418 2.06484 -0.194758 0
M  V30 2278 C 224.843 1.49862 1.13679 0
M  V30 2279 O 224.201 0.614582 1.70565 0
M  V30 2280 C 224.249 3.60353 -0.133546 0
M  V30 2281 O 223.353 4.02464 0.899806 0
M  V30 2282 H 222.694 0.656137 -0.10188 0
M  V30 2283 H 225.224 1.82964 -0.915722 0
M  V30 2284 H 225.234 4.07976 0.0447041 0
M  V30 2285 H 223.909 4.00938 -1.1055 0
M  V30 2286 H 222.486 3.66402 0.693109 0
M  V30 2287 N 224.671 0.411399 1.52136 0
M  V30 2288 C 225.621 -0.430376 2.23901 0
M  V30 2289 C 226.605 -1.0116 1.25121 0
M  V30 2290 O 227.797 -0.934044 1.50348 0
M  V30 2291 C 224.926 -1.54527 3.06556 0
M  V30 2292 C 224.012 -0.9747 4.12747 0
M  V30 2293 N 224.403 -0.130991 5.0563 0
M  V30 2294 C 222.701 -1.24497 4.28271 0
M  V30 2295 C 223.402 0.186689 5.814 0
M  V30 2296 N 222.378 -0.42304 5.41951 0
M  V30 2297 H 226.18 0.220509 2.93072 0
M  V30 2298 H 223.694 0.221952 1.60876 0
M  V30 2299 H 225.691 -2.16093 3.56524 0
M  V30 2300 H 224.351 -2.19875 2.38925 0
M  V30 2301 H 225.362 0.23349 5.17373 0
M  V30 2302 H 222.039 -1.89787 3.7187 0
M  V30 2303 H 223.429 0.871673 6.66222 0
M  V30 2304 N 226.149 -1.5696 0.141893 0
M  V30 2305 C 227.395 -1.9625 -0.511248 0
M  V30 2306 C 227.728 -1.02654 -1.64851 0
M  V30 2307 O 227.003 -0.0679676 -1.94381 0
M  V30 2308 C 227.286 -3.45285 -1.02227 0
M  V30 2309 C 227.139 -4.49658 0.113138 0
M  V30 2310 C 228.458 -3.96698 -1.90574 0
M  V30 2311 H 225.577 -0.713567 -0.184367 0
M  V30 2312 H 228.219 -1.88698 0.222087 0
M  V30 2313 H 226.369 -3.51852 -1.64719 0
M  V30 2314 H 228.041 -4.55174 0.749302 0
M  V30 2315 H 226.284 -4.26857 0.773026 0
M  V30 2316 H 226.955 -5.51258 -0.286053 0
M  V30 2317 H 229.431 -3.92578 -1.37918 0
M  V30 2318 H 228.307 -5.01453 -2.2324 0
M  V30 2319 H 228.568 -3.3875 -2.84079 0
M  V30 2320 N 227.627 0.131896 -1.57047 0
M  V30 2321 C 228.876 0.84044 -1.83356 0
M  V30 2322 C 229.189 1.81646 -0.725535 0
M  V30 2323 O 230.395 2.57025 -0.874659 0
M  V30 2324 C 228.851 1.54528 -3.25037 0
M  V30 2325 C 228.459 0.610902 -4.43815 0
M  V30 2326 C 230.203 2.23972 -3.60606 0
M  V30 2327 C 228.11 1.31823 -5.76521 0
M  V30 2328 H 227.04 0.317599 -0.683847 0
M  V30 2329 H 229.691 0.0931561 -1.83263 0
M  V30 2330 H 228.073 2.33873 -3.19561 0
M  V30 2331 H 229.247 -0.148407 -4.60561 0
M  V30 2332 H 227.562 0.0241016 -4.16393 0
M  V30 2333 H 230.159 2.77558 -4.57018 0
M  V30 2334 H 230.502 3.01173 -2.87403 0
M  V30 2335 H 231.035 1.51529 -3.6781 0
M  V30 2336 H 227.774 0.587771 -6.52859 0
M  V30 2337 H 227.294 2.04987 -5.63685 0
M  V30 2338 H 228.973 1.855 -6.19838 0
M  V30 2339 N 229.106 1.52395 0.401703 0
M  V30 2340 C 230.355 1.66044 1.14509 0
M  V30 2341 C 230.668 0.400216 1.91462 0
M  V30 2342 O 231.874 0.416632 2.68284 0
M  V30 2343 C 230.33 2.93388 2.0845 0
M  V30 2344 C 229.938 4.26545 1.36978 0
M  V30 2345 C 231.682 3.16402 2.83001 0
M  V30 2346 C 229.589 5.45007 2.29611 0
M  V30 2347 H 228.519 0.618562 0.431158 0
M  V30 2348 H 231.17 1.78886 0.40892 0
M  V30 2349 H 229.552 2.74263 2.8565 0
M  V30 2350 H 230.726 4.56179 0.650916 0
M  V30 2351 H 229.041 4.09692 0.74438 0
M  V30 2352 H 231.638 4.02085 3.52465 0
M  V30 2353 H 231.981 2.30943 3.46368 0
M  V30 2354 H 232.514 3.36034 2.12898 0
M  V30 2355 H 229.253 6.32835 1.70879 0
M  V30 2356 H 228.773 5.19702 2.9945 0
M  V30 2357 H 230.452 5.7838 2.89974 0
M  V30 2358 N 230.584 -0.659388 1.43143 0
M  V30 2359 C 231.547 -1.75432 1.47501 0
M  V30 2360 C 232.547 -1.56707 0.360512 0
M  V30 2361 O 233.737 -1.62717 0.622002 0
M  V30 2362 C 230.869 -3.14239 1.32162 0
M  V30 2363 H 232.062 -1.7295 2.45006 0
M  V30 2364 H 229.615 -0.870469 1.29817 0
M  V30 2365 H 230.35 -3.22336 0.356401 0
M  V30 2366 H 230.135 -3.29235 2.12948 0
M  V30 2367 H 231.625 -3.94094 1.3813 0
M  V30 2368 N 232.062 -1.29571 -0.897171 0
M  V30 2369 C 233.29 -1.20583 -1.68129 0
M  V30 2370 C 233.705 0.233181 -1.87354 0
M  V30 2371 O 233.062 1.15579 -1.41236 0
M  V30 2372 C 233.113 -1.91772 -3.06441 0
M  V30 2373 O 232.834 -3.30053 -2.88091 0
M  V30 2374 C 234.335 -1.89291 -4.00854 0
M  V30 2375 H 231.555 -0.417826 -0.525036 0
M  V30 2376 H 234.099 -1.70987 -1.12177 0
M  V30 2377 H 232.254 -1.45196 -3.59161 0
M  V30 2378 H 232.668 -3.65942 -3.75748 0
M  V30 2379 H 234.142 -2.43662 -4.95311 0
M  V30 2380 H 234.619 -0.869014 -4.30517 0
M  V30 2381 H 235.225 -2.35622 -3.54066 0
M  V30 2382 N 233.54 1.10788 -1.12088 0
M  V30 2383 C 234.951 1.64181 -0.88891 0
M  V30 2384 C 235.302 1.87508 0.577498 0
M  V30 2385 O 234.427 1.61434 1.44112 0
M  V30 2386 C 235.022 2.98257 -1.60712 0
M  V30 2387 C 233.581 3.4853 -1.42139 0
M  V30 2388 C 232.728 2.23208 -1.6454 0
M  V30 2389 H 235.679 0.943368 -1.27618 0
M  V30 2390 H 235.7 3.65552 -1.05604 0
M  V30 2391 H 235.212 2.81246 -2.67436 0
M  V30 2392 H 233.313 3.70692 -0.376552 0
M  V30 2393 H 233.426 4.26882 -2.17505 0
M  V30 2394 H 231.79 2.31169 -1.06925 0
M  V30 2395 H 232.573 2.08733 -2.72554 0
M  V30 2396 N 235.018 0.912232 1.28515 0
M  V30 2397 C 235.981 0.404223 2.25607 0
M  V30 2398 C 236.981 -0.468602 1.53821 0
M  V30 2399 O 238.171 -0.271873 1.72065 0
M  V30 2400 C 235.303 -0.420653 3.38295 0
M  V30 2401 H 236.496 1.26188 2.7206 0
M  V30 2402 H 234.049 0.691495 1.40171 0
M  V30 2403 H 234.784 -1.29777 2.97201 0
M  V30 2404 H 234.569 0.204935 3.91564 0
M  V30 2405 H 236.059 -0.766971 4.10496 0
M  V30 2406 N 236.496 -1.42363 0.676048 0
M  V30 2407 C 237.907 -1.84649 0.275948 0
M  V30 2408 C 238.258 -1.56588 -1.18214 0
M  V30 2409 O 237.383 -1.02634 -1.90513 0
M  V30 2410 C 237.978 -3.35178 0.494053 0
M  V30 2411 C 236.537 -3.76109 0.148061 0
M  V30 2412 C 235.684 -2.65931 0.785891 0
M  V30 2413 H 238.635 -1.32192 0.878121 0
M  V30 2414 H 238.656 -3.79655 -0.25343 0
M  V30 2415 H 238.168 -3.55571 1.55535 0
M  V30 2416 H 236.269 -3.61323 -0.909742 0
M  V30 2417 H 236.382 -4.7546 0.589454 0
M  V30 2418 H 234.746 -2.53773 0.217113 0
M  V30 2419 H 235.529 -2.89146 1.85067 0
M  V30 2420 N 237.974 -0.419461 -1.51915 0
M  V30 2421 C 238.906 0.43646 -2.25006 0
M  V30 2422 C 239.919 1.00149 -1.28351 0
M  V30 2423 O 241.108 0.898674 -1.54227 0
M  V30 2424 C 238.208 1.6206 -2.9764 0
M  V30 2425 C 237.381 1.17763 -4.21249 0
M  V30 2426 C 236.44 2.22985 -4.76617 0
M  V30 2427 O 235.466 1.83151 -5.38929 0
M  V30 2428 N 236.668 3.55271 -4.59089 0
M  V30 2429 H 239.433 -0.18989 -2.99098 0
M  V30 2430 H 236.994 -0.247386 -1.59999 0
M  V30 2431 H 238.986 2.32038 -3.31573 0
M  V30 2432 H 237.556 2.15266 -2.2667 0
M  V30 2433 H 236.776 0.305582 -3.93014 0
M  V30 2434 H 238.064 0.858781 -5.015 0
M  V30 2435 H 237.462 3.90377 -4.09417 0
M  V30 2436 H 236.019 4.21195 -4.97432 0
M  V30 2437 N 239.452 1.56882 -0.150215 0
M  V30 2438 C 240.415 2.1573 0.774157 0
M  V30 2439 C 241.415 1.0999 1.17298 0
M  V30 2440 O 242.605 1.35613 1.09338 0
M  V30 2441 C 239.737 2.72302 2.05096 0
M  V30 2442 H 240.93 2.98752 0.262201 0
M  V30 2443 H 238.483 1.55985 0.099248 0
M  V30 2444 H 239.218 1.92956 2.6065 0
M  V30 2445 H 239.003 3.49665 1.77416 0
M  V30 2446 H 240.493 3.17632 2.71109 0
M  V30 2447 N 240.93 -0.123565 1.57115 0
M  V30 2448 C 242.155 -0.850398 1.89164 0
M  V30 2449 C 242.58 -1.7286 0.741688 0
M  V30 2450 O 241.938 -1.78665 -0.307958 0
M  V30 2451 C 241.986 -1.66353 3.19936 0
M  V30 2452 O 241.09 -2.77004 3.0552 0
M  V30 2453 H 240.431 -0.235454 0.620852 0
M  V30 2454 H 242.961 -0.107335 2.04318 0
M  V30 2455 H 242.971 -2.05372 3.52543 0
M  V30 2456 H 241.646 -1.01881 4.03228 0
M  V30 2457 H 240.223 -2.41221 2.84371 0
M  V30 2458 N 242.408 -1.52605 -0.393616 0
M  V30 2459 C 243.636 -1.71294 -1.16043 0
M  V30 2460 C 244.051 -0.429259 -1.83855 0
M  V30 2461 O 243.408 0.595921 -1.72496 0
M  V30 2462 C 243.459 -2.8593 -2.21193 0
M  V30 2463 O 243.18 -4.09329 -1.56146 0
M  V30 2464 C 244.681 -3.16259 -3.10636 0
M  V30 2465 H 241.901 -0.573641 -0.348104 0
M  V30 2466 H 244.445 -1.99234 -0.461092 0
M  V30 2467 H 242.6 -2.60465 -2.86769 0
M  V30 2468 H 243.014 -4.73323 -2.25978 0
M  V30 2469 H 244.488 -3.99946 -3.80456 0
M  V30 2470 H 244.965 -2.3045 -3.73884 0
M  V30 2471 H 245.571 -3.43547 -2.50711 0
M  V30 2472 N 243.887 0.651787 -1.4349 0
M  V30 2473 C 244.817 1.77621 -1.51569 0
M  V30 2474 C 245.798 1.66022 -0.370253 0
M  V30 2475 O 246.983 1.85095 -0.587658 0
M  V30 2476 C 244.113 3.16056 -1.43966 0
M  V30 2477 C 243.067 3.4242 -2.56774 0
M  V30 2478 C 242.393 4.8067 -2.34223 0
M  V30 2479 C 243.693 3.37023 -3.99015 0
M  V30 2480 H 245.387 1.71117 -2.45681 0
M  V30 2481 H 242.933 0.821825 -1.18246 0
M  V30 2482 H 244.886 3.94472 -1.48221 0
M  V30 2483 H 243.61 3.23293 -0.463586 0
M  V30 2484 H 242.269 2.66375 -2.51873 0
M  V30 2485 H 241.917 4.84585 -1.34856 0
M  V30 2486 H 241.617 4.9927 -3.09844 0
M  V30 2487 H 243.141 5.61342 -2.40265 0
M  V30 2488 H 244.555 4.05374 -4.05395 0
M  V30 2489 H 242.952 3.67159 -4.74673 0
M  V30 2490 H 244.022 2.3518 -4.2405 0
M  V30 2491 N 245.365 1.30045 0.890287 0
M  V30 2492 C 246.295 1.18541 2.01172 0
M  V30 2493 C 247.276 0.0773356 1.69924 0
M  V30 2494 O 248.461 0.25845 1.92473 0
M  V30 2495 C 245.591 0.870941 3.36202 0
M  V30 2496 C 244.545 1.93637 3.81692 0
M  V30 2497 C 243.871 1.475 5.13953 0
M  V30 2498 C 245.171 3.34666 4.00994 0
M  V30 2499 H 246.865 2.12359 2.11054 0
M  V30 2500 H 244.411 1.02238 1.01407 0
M  V30 2501 H 246.364 0.777141 4.14172 0
M  V30 2502 H 245.088 -0.102926 3.26438 0
M  V30 2503 H 243.747 2.01972 3.05946 0
M  V30 2504 H 243.395 0.489551 5.00612 0
M  V30 2505 H 243.095 2.1876 5.4536 0
M  V30 2506 H 244.619 1.39489 5.94454 0
M  V30 2507 H 246.033 3.2912 4.69417 0
M  V30 2508 H 244.43 4.03966 4.43769 0
M  V30 2509 H 245.5 3.76949 3.05021 0
M  V30 2510 N 246.843 -1.10192 1.12674 0
M  V30 2511 C 247.806 -2.14786 0.799979 0
M  V30 2512 C 248.806 -1.59711 -0.18685 0
M  V30 2513 O 249.996 -1.74156 0.0392558 0
M  V30 2514 C 247.128 -3.40374 0.189228 0
M  V30 2515 H 248.321 -2.45203 1.72671 0
M  V30 2516 H 245.874 -1.25597 0.930326 0
M  V30 2517 H 246.609 -3.15577 -0.747107 0
M  V30 2518 H 246.394 -3.81637 0.899766 0
M  V30 2519 H 247.884 -4.17594 -0.0228143 0
M  V30 2520 N 248.321 -0.919034 -1.28029 0
M  V30 2521 C 249.284 -0.416182 -2.2539 0
M  V30 2522 C 250.284 0.460438 -1.54067 0
M  V30 2523 O 251.474 0.262744 -1.72207 0
M  V30 2524 C 248.606 0.402707 -3.38513 0
M  V30 2525 H 249.799 -1.27629 -2.71387 0
M  V30 2526 H 247.352 -0.698919 -1.39803 0
M  V30 2527 H 248.087 1.282 -2.97885 0
M  V30 2528 H 247.872 -0.225698 -3.9145 0
M  V30 2529 H 249.362 0.745191 -4.10897 0
M  V30 2530 N 249.799 1.42003 -0.683588 0
M  V30 2531 C 250.762 2.29191 -0.0198243 0
M  V30 2532 C 251.762 1.43773 0.72013 0
M  V30 2533 O 252.952 1.65061 0.556815 0
M  V30 2534 C 250.084 3.26435 0.982487 0
M  V30 2535 H 251.277 2.8938 -0.787345 0
M  V30 2536 H 248.83 1.49789 -0.446418 0
M  V30 2537 H 249.565 2.71203 1.77819 0
M  V30 2538 H 249.35 3.89449 0.455182 0
M  V30 2539 H 250.84 3.918 1.44508 0
M  V30 2540 N 251.277 0.427512 1.51691 0
M  V30 2541 C 252.688 -0.0378867 1.86662 0
M  V30 2542 C 253.039 -1.42819 1.34525 0
M  V30 2543 O 252.164 -2.05037 0.692014 0
M  V30 2544 C 252.759 -0.0755266 3.38716 0
M  V30 2545 C 251.318 -0.485309 3.73258 0
M  V30 2546 C 250.465 0.328399 2.75349 0
M  V30 2547 H 253.416 0.64379 1.45055 0
M  V30 2548 H 253.437 -0.887056 3.70016 0
M  V30 2549 H 252.949 0.936487 3.76632 0
M  V30 2550 H 251.05 -1.50329 3.40928 0
M  V30 2551 H 251.163 -0.21693 4.78609 0
M  V30 2552 H 249.527 -0.211905 2.53817 0
M  V30 2553 H 250.31 1.3391 3.16106 0
M  V30 2554 N 252.755 -1.56801 0.158532 0
M  V30 2555 C 253.702 -2.17337 -0.776729 0
M  V30 2556 C 254.672 -1.1096 -1.23601 0
M  V30 2557 O 255.857 -1.39054 -1.30647 0
M  V30 2558 C 252.997 -2.80822 -2.00582 0
M  V30 2559 C 252.11 -4.01624 -1.59129 0
M  V30 2560 C 251.245 -4.53072 -2.77306 0
M  V30 2561 C 250.284 -5.66314 -2.32282 0
M  V30 2562 N 249.421 -6.12329 -3.43508 0
M  V30 2563 H 254.261 -2.96918 -0.253701 0
M  V30 2564 H 251.798 -1.46661 -0.113504 0
M  V30 2565 H 253.756 -3.15779 -2.72652 0
M  V30 2566 H 252.386 -2.03866 -2.50277 0
M  V30 2567 H 251.438 -3.72571 -0.767806 0
M  V30 2568 H 252.75 -4.83633 -1.2207 0
M  V30 2569 H 251.904 -4.90145 -3.57551 0
M  V30 2570 H 250.643 -3.70095 -3.17617 0
M  V30 2571 H 249.648 -5.28806 -1.5048 0
M  V30 2572 H 250.873 -6.51085 -1.93043 0
M  V30 2573 H 248.819 -5.32284 -3.83418 0
M  V30 2574 H 248.736 -6.89293 -3.105 0
M  V30 2575 H 250.004 -6.5405 -4.24075 0
M  V30 2576 N 254.233 0.115231 -1.57178 0
M  V30 2577 C 255.163 1.1423 -2.03651 0
M  V30 2578 C 256.144 1.42967 -0.921655 0
M  V30 2579 O 257.329 1.53343 -1.19162 0
M  V30 2580 C 254.459 2.4675 -2.44401 0
M  V30 2581 C 253.413 2.32467 -3.59365 0
M  V30 2582 C 252.739 3.69984 -3.86026 0
M  V30 2583 C 254.039 1.78203 -4.90959 0
M  V30 2584 H 255.733 0.755749 -2.89705 0
M  V30 2585 H 253.279 0.362093 -1.39373 0
M  V30 2586 H 255.232 3.18854 -2.75517 0
M  V30 2587 H 253.956 2.87302 -1.55322 0
M  V30 2588 H 252.615 1.62811 -3.28463 0
M  V30 2589 H 252.263 4.08028 -2.94147 0
M  V30 2590 H 251.963 3.61279 -4.63412 0
M  V30 2591 H 253.487 4.43587 -4.19599 0
M  V30 2592 H 254.901 2.40128 -5.20587 0
M  V30 2593 H 253.298 1.8031 -5.72371 0
M  V30 2594 H 254.368 0.739876 -4.79222 0
M  V30 2595 N 255.711 1.52812 0.385517 0
M  V30 2596 C 256.674 1.77188 1.45386 0
M  V30 2597 C 257.674 0.641953 1.4743 0
M  V30 2598 O 258.864 0.910033 1.4854 0
M  V30 2599 C 255.996 1.87582 2.8465 0
M  V30 2600 H 257.189 2.72583 1.25054 0
M  V30 2601 H 254.742 1.43586 0.617467 0
M  V30 2602 H 255.477 0.941849 3.10322 0
M  V30 2603 H 255.262 2.69748 2.84567 0
M  V30 2604 H 256.752 2.08102 3.62054 0
M  V30 2605 N 257.189 -0.644168 1.43834 0
M  V30 2606 C 258.414 -1.43642 1.49605 0
M  V30 2607 C 258.839 -1.8773 0.117913 0
M  V30 2608 O 258.197 -1.57938 -0.890239 0
M  V30 2609 C 258.245 -2.6416 2.45463 0
M  V30 2610 O 257.349 -3.63538 1.94714 0
M  V30 2611 H 256.69 -0.430329 0.50568 0
M  V30 2612 H 259.22 -0.787448 1.8884 0
M  V30 2613 H 259.23 -3.11864 2.63068 0
M  V30 2614 H 257.905 -2.31414 3.45572 0
M  V30 2615 H 256.482 -3.2273 1.86814 0
M  V30 2616 N 258.668 -1.30515 -0.883378 0
M  V30 2617 C 259.914 -1.19607 -1.63774 0
M  V30 2618 C 260.247 0.248314 -1.92606 0
M  V30 2619 O 259.522 1.17742 -1.54813 0
M  V30 2620 C 259.805 -2.02669 -2.97653 0
M  V30 2621 C 259.658 -3.55335 -2.75784 0
M  V30 2622 C 260.977 -1.86573 -3.98596 0
M  V30 2623 H 258.096 -0.435856 -0.594305 0
M  V30 2624 H 260.738 -1.60165 -1.02212 0
M  V30 2625 H 258.888 -1.68208 -3.50197 0
M  V30 2626 H 260.56 -3.99863 -2.30016 0
M  V30 2627 H 258.803 -3.79438 -2.1026 0
M  V30 2628 H 259.474 -4.08745 -3.70988 0
M  V30 2629 H 261.95 -2.16703 -3.55217 0
M  V30 2630 H 260.826 -2.47014 -4.90179 0
M  V30 2631 H 261.087 -0.825321 -4.34328 0
M  V30 2632 N 260.146 1.09593 -1.13257 0
M  V30 2633 C 261.392 1.82003 -0.89458 0
M  V30 2634 C 261.725 1.85402 0.577906 0
M  V30 2635 O 261 1.32099 1.42759 0
M  V30 2636 C 261.283 3.28237 -1.48096 0
M  V30 2637 C 261.136 3.3312 -3.02244 0
M  V30 2638 C 262.455 4.24871 -1.14774 0
M  V30 2639 H 259.574 0.66077 -0.326424 0
M  V30 2640 H 262.216 1.28389 -1.40058 0
M  V30 2641 H 260.366 3.74024 -1.05062 0
M  V30 2642 H 262.038 2.95748 -3.54021 0
M  V30 2643 H 260.281 2.72756 -3.37323 0
M  V30 2644 H 260.952 4.3613 -3.38371 0
M  V30 2645 H 263.428 3.87361 -1.51957 0
M  V30 2646 H 262.304 5.25532 -1.58452 0
M  V30 2647 H 262.565 4.42058 -0.0611849 0
M  V30 2648 N 261.624 0.925811 1.2754 0
M  V30 2649 C 262.587 0.428129 2.25166 0
M  V30 2650 C 263.587 -0.452261 1.54309 0
M  V30 2651 O 264.777 -0.253608 1.72344 0
M  V30 2652 C 261.909 -0.384749 3.38722 0
M  V30 2653 H 263.102 1.29066 2.70706 0
M  V30 2654 H 260.655 0.706323 1.3943 0
M  V30 2655 H 261.39 -1.26618 2.98561 0
M  V30 2656 H 261.175 0.246454 3.91325 0
M  V30 2657 H 262.665 -0.723389 4.11287 0
M  V30 2658 N 263.102 -1.41638 0.69111 0
M  V30 2659 C 264.35 -2.00902 0.219758 0
M  V30 2660 C 264.671 -1.54994 -1.18329 0
M  V30 2661 O 263.941 -0.778628 -1.79762 0
M  V30 2662 H 262.521 -0.74289 0.0782558 0
M  V30 2663 H 265.183 -1.73327 0.891271 0
M  V30 2664 H 264.279 -3.11224 0.233708 0
M  V30 2665 N 264.58 -0.43555 -1.51462 0
M  V30 2666 C 265.826 0.131709 -2.02372 0
M  V30 2667 C 266.159 1.42516 -1.3192 0
M  V30 2668 O 265.434 1.89606 -0.433573 0
M  V30 2669 C 265.717 0.352301 -3.58373 0
M  V30 2670 C 265.57 -0.959676 -4.39443 0
M  V30 2671 C 266.889 1.12286 -4.25535 0
M  V30 2672 H 264.008 0.0463936 -0.735538 0
M  V30 2673 H 266.65 -0.574197 -1.81116 0
M  V30 2674 H 264.8 0.9536 -3.76615 0
M  V30 2675 H 266.472 -1.59482 -4.32855 0
M  V30 2676 H 264.715 -1.56468 -4.04599 0
M  V30 2677 H 265.386 -0.759394 -5.46752 0
M  V30 2678 H 267.862 0.613545 -4.11552 0
M  V30 2679 H 266.738 1.24598 -5.34571 0
M  V30 2680 H 266.999 2.15048 -3.86273 0
M  V30 2681 N 266.058 1.56714 -0.166846 0
M  V30 2682 C 267.005 2.17746 0.765193 0
M  V30 2683 C 267.975 1.11614 1.23011 0
M  V30 2684 O 269.16 1.39745 1.29908 0
M  V30 2685 C 266.3 2.81882 1.9909 0
M  V30 2686 C 265.413 4.02462 1.56997 0
M  V30 2687 C 264.548 4.54537 2.749 0
M  V30 2688 C 263.587 5.67538 2.29275 0
M  V30 2689 N 262.724 6.14142 3.40255 0
M  V30 2690 H 267.564 2.97048 0.237952 0
M  V30 2691 H 265.101 1.4672 0.105725 0
M  V30 2692 H 267.059 3.17221 2.70974 0
M  V30 2693 H 265.689 2.05191 2.49192 0
M  V30 2694 H 264.741 3.72973 0.748037 0
M  V30 2695 H 266.053 4.84273 1.19503 0
M  V30 2696 H 265.207 4.92035 3.54946 0
M  V30 2697 H 263.946 3.71774 3.1565 0
M  V30 2698 H 262.951 5.29597 1.47674 0
M  V30 2699 H 264.176 6.52099 1.89588 0
M  V30 2700 H 262.122 5.3431 3.8059 0
M  V30 2701 H 262.039 6.9093 3.06841 0
M  V30 2702 H 263.307 6.56289 4.206 0
M  V30 2703 N 267.536 -0.106894 1.57237 0
M  V30 2704 C 268.469 -1.16125 1.96444 0
M  V30 2705 C 269.447 -1.3947 0.835871 0
M  V30 2706 O 270.631 -1.53425 1.09513 0
M  V30 2707 C 267.758 -2.51277 2.27107 0
M  V30 2708 C 266.804 -2.44285 3.4961 0
M  V30 2709 S 267.637 -1.87077 5.01759 0
M  V30 2710 C 268.793 -3.23877 5.35588 0
M  V30 2711 H 269.026 -0.826971 2.85567 0
M  V30 2712 H 266.559 -0.314124 1.51171 0
M  V30 2713 H 268.517 -3.29035 2.45451 0
M  V30 2714 H 267.178 -2.81879 1.38576 0
M  V30 2715 H 266.371 -3.4387 3.68469 0
M  V30 2716 H 265.973 -1.74652 3.30715 0
M  V30 2717 H 268.265 -4.20122 5.31511 0
M  V30 2718 H 269.208 -3.09833 6.36717 0
M  V30 2719 H 269.616 -3.22864 4.63054 0
M  V30 2720 N 269.014 -1.53014 -0.377408 0
M  V30 2721 C 270.291 -1.59215 -1.13622 0
M  V30 2722 C 270.671 -0.392407 -2.07421 0
M  V30 2723 O 270.019 0.618342 -2.19975 0
M  V30 2724 C 270.229 -2.93669 -1.88573 0
M  V30 2725 C 271.577 -3.47822 -2.43526 0
M  V30 2726 O 272.601 -2.9562 -1.98715 0
M  V30 2727 O 271.46 -4.39055 -3.25412 0
M  V30 2728 H 268.554 -0.642625 -0.52054 0
M  V30 2729 H 271.1 -1.65353 -0.381625 0
M  V30 2730 H 269.872 -3.7243 -1.20048 0
M  V30 2731 H 269.495 -2.90968 -2.70968 0
M  V30 2732 N 270.492 0.636531 -1.44174 0
M  V30 2733 C 271.903 1.21806 -1.41493 0
M  V30 2734 C 272.254 1.95785 -0.1275 0
M  V30 2735 O 271.379 2.02147 0.772376 0
M  V30 2736 C 271.974 2.21551 -2.56321 0
M  V30 2737 C 270.533 2.75143 -2.56853 0
M  V30 2738 C 269.68 1.50052 -2.33195 0
M  V30 2739 H 272.631 0.427531 -1.52833 0
M  V30 2740 H 272.652 3.0405 -2.28765 0
M  V30 2741 H 272.164 1.67679 -3.50008 0
M  V30 2742 H 270.265 3.33033 -1.67093 0
M  V30 2743 H 270.378 3.2155 -3.55165 0
M  V30 2744 H 268.742 1.77993 -1.82183 0
M  V30 2745 H 269.525 0.980903 -3.28988 0
M  V30 2746 N 271.97 1.30982 0.876444 0
M  V30 2747 C 273.198 1.23242 1.6619 0
M  V30 2748 C 273.613 -0.203345 1.87702 0
M  V30 2749 O 272.97 -1.13317 1.43057 0
M  V30 2750 C 273.021 1.96623 3.03351 0
M  V30 2751 O 272.742 3.34594 2.82804 0
M  V30 2752 C 274.243 1.95644 3.97792 0
M  V30 2753 H 271.463 0.426126 0.518322 0
M  V30 2754 H 274.007 1.7275 1.09442 0
M  V30 2755 H 272.162 1.50892 3.56806 0
M  V30 2756 H 272.576 3.71873 3.69879 0
M  V30 2757 H 274.05 2.51511 4.91372 0
M  V30 2758 H 274.527 0.937395 4.2908 0
M  V30 2759 H 275.133 2.41225 3.50272 0
M  V30 2760 N 273.449 -1.08991 1.13837 0
M  V30 2761 C 274.695 -1.81699 0.91417 0
M  V30 2762 C 275.05 -1.84264 -0.553594 0
M  V30 2763 O 274.343 -1.30313 -1.4046 0
M  V30 2764 C 274.537 -3.27042 1.44147 0
M  V30 2765 C 274.366 -3.38637 2.95897 0
M  V30 2766 C 273.136 -3.50177 3.64286 0
M  V30 2767 C 275.334 -3.30791 3.93804 0
M  V30 2768 N 273.316 -3.50501 5.04006 0
M  V30 2769 C 274.687 -3.38037 5.19741 0
M  V30 2770 C 276.742 -3.14488 3.86007 0
M  V30 2771 C 275.445 -3.30659 6.38793 0
M  V30 2772 C 277.471 -3.08438 5.04599 0
M  V30 2773 C 276.833 -3.1628 6.29402 0
M  V30 2774 H 272.932 -0.678967 0.387979 0
M  V30 2775 H 275.516 -1.30224 1.4474 0
M  V30 2776 H 273.687 -3.76976 0.935091 0
M  V30 2777 H 275.419 -3.87785 1.1578 0
M  V30 2778 H 272.174 -3.53815 3.1482 0
M  V30 2779 H 272.598 -3.54236 5.76928 0
M  V30 2780 H 277.24 -3.07291 2.90399 0
M  V30 2781 H 274.958 -3.36618 7.34652 0
M  V30 2782 H 278.544 -2.96952 5.0031 0
M  V30 2783 H 277.424 -3.1162 7.19627 0
M  V30 2784 N 274.927 -0.932562 -1.27047 0
M  V30 2785 C 275.89 -0.440064 -2.24936 0
M  V30 2786 C 276.89 0.444071 -1.54547 0
M  V30 2787 O 278.08 0.244465 -1.72476 0
M  V30 2788 C 275.212 0.36678 -3.38921 0
M  V30 2789 H 276.405 -1.305 -2.70018 0
M  V30 2790 H 273.958 -0.713707 -1.39054 0
M  V30 2791 H 274.693 1.25033 -2.99228 0
M  V30 2792 H 274.478 -0.267204 -3.91188 0
M  V30 2793 H 275.968 0.701567 -4.11665 0
M  V30 2794 N 276.405 1.4127 -0.698611 0
M  V30 2795 C 277.651 2.01478 -0.231207 0
M  V30 2796 C 277.984 1.55215 1.16713 0
M  V30 2797 O 277.259 0.764672 1.78838 0
M  V30 2798 C 277.542 3.58912 -0.292281 0
M  V30 2799 C 277.395 4.15293 -1.72778 0
M  V30 2800 C 278.714 4.38736 0.346194 0
M  V30 2801 H 275.833 0.732025 -0.0854878 0
M  V30 2802 H 278.475 1.67977 -0.887906 0
M  V30 2803 H 276.625 3.87582 0.26686 0
M  V30 2804 H 278.297 3.97486 -2.341 0
M  V30 2805 H 276.54 3.7022 -2.26096 0
M  V30 2806 H 277.211 5.24452 -1.72202 0
M  V30 2807 H 279.687 4.15897 -0.130035 0
M  V30 2808 H 278.563 5.48221 0.272932 0
M  V30 2809 H 278.824 4.18425 1.42734 0
M  V30 2810 N 277.883 0.443576 1.51229 0
M  V30 2811 C 278.846 -0.353132 2.26463 0
M  V30 2812 C 279.846 -0.944338 1.3015 0
M  V30 2813 O 281.036 -0.817813 1.5381 0
M  V30 2814 C 278.168 -1.50023 3.06114 0
M  V30 2815 H 279.361 0.3063 2.98332 0
M  V30 2816 H 276.914 0.196902 1.55055 0
M  V30 2817 H 277.649 -2.19553 2.38677 0
M  V30 2818 H 277.434 -1.08241 3.76864 0
M  V30 2819 H 278.924 -2.06296 3.63087 0
M  V30 2820 N 279.361 -1.56624 0.175154 0
M  V30 2821 C 280.291 -2.21155 -0.749195 0
M  V30 2822 C 281.272 -1.16836 -1.23626 0
M  V30 2823 O 282.457 -1.45277 -1.28873 0
M  V30 2824 C 279.587 -2.8553 -1.97711 0
M  V30 2825 C 278.541 -3.95921 -1.62575 0
M  V30 2826 C 277.867 -4.47365 -2.92864 0
M  V30 2827 C 279.167 -5.15323 -0.850838 0
M  V30 2828 H 280.861 -2.98653 -0.211295 0
M  V30 2829 H 278.407 -1.43651 -0.100188 0
M  V30 2830 H 280.36 -3.2935 -2.62881 0
M  V30 2831 H 279.084 -2.05406 -2.53921 0
M  V30 2832 H 277.743 -3.52762 -0.997719 0
M  V30 2833 H 277.391 -3.64027 -3.47122 0
M  V30 2834 H 277.091 -5.21839 -2.70106 0
M  V30 2835 H 278.615 -4.93873 -3.59056 0
M  V30 2836 H 280.029 -5.55812 -1.40521 0
M  V30 2837 H 278.426 -5.95739 -0.722154 0
M  V30 2838 H 279.496 -4.84661 0.152082 0
M  V30 2839 N 280.839 0.0985539 -1.57292 0
M  V30 2840 C 281.802 1.10402 -2.00858 0
M  V30 2841 C 282.802 1.33146 -0.901593 0
M  V30 2842 O 283.992 1.29318 -1.16716 0
M  V30 2843 C 281.124 2.45394 -2.36632 0
M  V30 2844 H 282.317 0.729099 -2.90902 0
M  V30 2845 H 279.87 0.343495 -1.52479 0
M  V30 2846 H 280.605 2.87769 -1.49531 0
M  V30 2847 H 280.39 2.30235 -3.17387 0
M  V30 2848 H 281.88 3.17718 -2.71007 0
M  V30 2849 N 282.317 1.53212 0.369288 0
M  V30 2850 C 283.564 1.69215 1.11232 0
M  V30 2851 C 283.892 0.442048 1.8941 0
M  V30 2852 O 283.147 -0.575944 1.87033 0
M  V30 2853 C 283.446 2.89101 2.10132 0
M  V30 2854 C 283.112 4.25758 1.48463 0
M  V30 2855 C 281.774 4.6292 1.31372 0
M  V30 2856 C 284.126 5.10757 1.03811 0
M  V30 2857 C 281.454 5.82722 0.68207 0
M  V30 2858 C 283.806 6.31201 0.420487 0
M  V30 2859 C 282.47 6.67079 0.237038 0
M  V30 2860 H 281.74 0.619201 0.407027 0
M  V30 2861 H 284.387 1.87391 0.394552 0
M  V30 2862 H 282.692 2.65421 2.88199 0
M  V30 2863 H 284.389 2.98676 2.6757 0
M  V30 2864 H 280.979 3.96494 1.62758 0
M  V30 2865 H 285.163 4.82599 1.1581 0
M  V30 2866 H 280.419 6.09113 0.528316 0
M  V30 2867 H 284.593 6.96368 0.0662874 0
M  V30 2868 H 282.22 7.59774 -0.254477 0
M  V30 2869 N 283.795 -0.628877 1.44509 0
M  V30 2870 C 284.705 -1.7694 1.54044 0
M  V30 2871 C 285.721 -1.68705 0.425987 0
M  V30 2872 O 286.897 -1.89442 0.683656 0
M  V30 2873 C 283.962 -3.13332 1.48405 0
M  V30 2874 C 283.023 -3.33181 2.70719 0
M  V30 2875 C 282.256 -4.63067 2.6534 0
M  V30 2876 O 282.479 -5.44017 1.71469 0
M  V30 2877 O 281.413 -4.85167 3.56226 0
M  V30 2878 H 285.239 -1.71848 2.50403 0
M  V30 2879 H 282.824 -0.790378 1.26781 0
M  V30 2880 H 284.706 -3.94634 1.47791 0
M  V30 2881 H 283.381 -3.1896 0.551898 0
M  V30 2882 H 282.288 -2.51549 2.769 0
M  V30 2883 H 283.621 -3.32416 3.62988 0
M  V30 2884 N 285.273 -1.31445 -0.869486 0
M  V30 2885 C 286.501 -1.24122 -1.65534 0
M  V30 2886 C 286.916 0.193387 -1.87807 0
M  V30 2887 O 286.273 1.12557 -1.43656 0
M  V30 2888 C 286.324 -1.98229 -3.02304 0
M  V30 2889 O 286.045 -3.3609 -2.81026 0
M  V30 2890 C 287.546 -1.97751 -3.96749 0
M  V30 2891 H 284.766 -0.428868 -0.516055 0
M  V30 2892 H 287.31 -1.73328 -1.08525 0
M  V30 2893 H 285.465 -1.52782 -3.56001 0
M  V30 2894 H 285.879 -3.7383 -3.67902 0
M  V30 2895 H 287.353 -2.54114 -4.90031 0
M  V30 2896 H 287.83 -0.960137 -4.28577 0
M  V30 2897 H 288.436 -2.43079 -3.48988 0
M  V30 2898 N 286.751 1.08385 -1.14413 0
M  V30 2899 C 288.162 1.62258 -0.923535 0
M  V30 2900 C 288.513 1.88691 0.537595 0
M  V30 2901 O 287.638 1.64454 1.40655 0
M  V30 2902 C 288.233 2.94781 -1.67002 0
M  V30 2903 C 286.792 3.45437 -1.495 0
M  V30 2904 C 285.939 2.19668 -1.69238 0
M  V30 2905 H 288.89 0.916086 -1.2959 0
M  V30 2906 H 288.911 3.63229 -1.13334 0
M  V30 2907 H 288.423 2.7551 -2.73342 0
M  V30 2908 H 286.524 3.6981 -0.455097 0
M  V30 2909 H 286.637 4.22173 -2.2651 0
M  V30 2910 H 285.001 2.28849 -1.11804 0
M  V30 2911 H 285.784 2.02905 -2.7692 0
M  V30 2912 N 288.23 0.939286 1.26551 0
M  V30 2913 C 289.16 0.465044 2.28822 0
M  V30 2914 C 290.141 -0.480692 1.63167 0
M  V30 2915 O 291.326 -0.382955 1.90387 0
M  V30 2916 C 288.456 -0.27234 3.46231 0
M  V30 2917 C 287.41 0.58666 4.2396 0
M  V30 2918 C 286.736 -0.280573 5.33963 0
M  V30 2919 C 288.036 1.85704 4.88171 0
M  V30 2920 H 289.73 1.31979 2.68741 0
M  V30 2921 H 287.276 0.636061 1.29191 0
M  V30 2922 H 289.229 -0.615133 4.16886 0
M  V30 2923 H 287.953 -1.16121 3.0526 0
M  V30 2924 H 286.612 0.91232 3.55067 0
M  V30 2925 H 286.26 -1.16874 4.89234 0
M  V30 2926 H 285.96 0.29076 5.8688 0
M  V30 2927 H 287.484 -0.618678 6.07458 0
M  V30 2928 H 288.898 1.58161 5.51052 0
M  V30 2929 H 287.295 2.37279 5.51197 0
M  V30 2930 H 288.365 2.56957 4.11219 0
M  V30 2931 N 289.708 -1.40897 0.706093 0
M  V30 2932 C 290.64 -2.29199 0.00815776 0
M  V30 2933 C 291.653 -1.45336 -0.733582 0
M  V30 2934 O 292.842 -1.68727 -0.582537 0
M  V30 2935 C 289.942 -3.23417 -1.01265 0
M  V30 2936 C 289.115 -4.36089 -0.338387 0
M  V30 2937 C 288.174 -5.10811 -1.26326 0
M  V30 2938 O 287.2 -5.64215 -0.751651 0
M  V30 2939 N 288.402 -5.19269 -2.595 0
M  V30 2940 H 291.167 -2.89738 0.766297 0
M  V30 2941 H 288.728 -1.52164 0.55296 0
M  V30 2942 H 290.72 -3.70276 -1.63334 0
M  V30 2943 H 289.29 -2.64112 -1.67223 0
M  V30 2944 H 288.51 -3.91479 0.462352 0
M  V30 2945 H 289.798 -5.08634 0.130031 0
M  V30 2946 H 289.196 -4.77347 -3.03573 0
M  V30 2947 H 287.753 -5.69667 -3.16737 0
M  V30 2948 N 291.186 -0.45159 -1.50991 0
M  V30 2949 C 292.414 0.108334 -2.06616 0
M  V30 2950 C 292.829 1.35224 -1.31757 0
M  V30 2951 O 292.186 1.78475 -0.381174 0
M  V30 2952 C 292.237 0.41619 -3.59096 0
M  V30 2953 O 291.958 -0.778361 -4.3113 0
M  V30 2954 C 293.459 1.02523 -4.31282 0
M  V30 2955 H 290.679 0.00159995 -0.670998 0
M  V30 2956 H 293.223 -0.634771 -1.94399 0
M  V30 2957 H 291.378 1.10921 -3.71181 0
M  V30 2958 H 291.792 -0.511181 -5.22003 0
M  V30 2959 H 293.266 1.19053 -5.39009 0
M  V30 2960 H 293.743 2.01013 -3.905 0
M  V30 2961 H 294.349 0.371173 -4.23677 0
M  V30 2962 N 292.664 1.56529 -0.183458 0
M  V30 2963 C 294.075 1.83739 0.331177 0
M  V30 2964 C 294.426 1.10373 1.62211 0
M  V30 2965 O 293.551 0.36071 2.13373 0
M  V30 2966 C 294.146 3.33306 0.607646 0
M  V30 2967 C 292.705 3.60969 1.06668 0
M  V30 2968 C 291.852 2.77086 0.109029 0
M  V30 2969 H 294.803 1.53379 -0.407484 0
M  V30 2970 H 294.824 3.51444 1.45832 0
M  V30 2971 H 294.336 3.86677 -0.332086 0
M  V30 2972 H 292.437 3.13021 2.0211 0
M  V30 2973 H 292.55 4.69231 0.967447 0
M  V30 2974 H 290.914 2.47319 0.608714 0
M  V30 2975 H 291.697 3.33241 -0.82494 0
M  V30 2976 N 294.142 -0.090211 1.57342 0
M  V30 2977 C 295.075 -1.14035 1.97664 0
M  V30 2978 C 296.053 -1.38576 0.850616 0
M  V30 2979 O 297.237 -1.52255 1.11134 0
M  V30 2980 C 294.364 -2.48854 2.2976 0
M  V30 2981 C 293.41 -2.40564 3.52181 0
M  V30 2982 S 294.243 -1.81745 5.03715 0
M  V30 2983 C 295.399 -3.18178 5.38993 0
M  V30 2984 H 295.632 -0.796636 2.86428 0
M  V30 2985 H 293.165 -0.298072 1.51496 0
M  V30 2986 H 295.123 -3.26413 2.48927 0
M  V30 2987 H 293.784 -2.80393 1.41558 0
M  V30 2988 H 292.977 -3.39942 3.72096 0
M  V30 2989 H 292.579 -1.71135 3.32549 0
M  V30 2990 H 294.871 -4.14461 5.35937 0
M  V30 2991 H 295.814 -3.03062 6.39968 0
M  V30 2992 H 296.222 -3.17935 4.66452 0
M  V30 2993 N 295.62 -1.53406 -0.361157 0
M  V30 2994 C 296.552 -1.76446 -1.46286 0
M  V30 2995 C 297.565 -0.645322 -1.49464 0
M  V30 2996 O 298.754 -0.921681 -1.52864 0
M  V30 2997 C 295.854 -1.83332 -2.85031 0
M  V30 2998 C 295.027 -3.13033 -3.05498 0
M  V30 2999 C 294.086 -3.11104 -4.24383 0
M  V30 3000 O 293.112 -3.84888 -4.19344 0
M  V30 3001 N 294.314 -2.32234 -5.32022 0
M  V30 3002 H 297.079 -2.71508 -1.26899 0
M  V30 3003 H 294.64 -1.52238 -0.550915 0
M  V30 3004 H 296.632 -1.79514 -3.62708 0
M  V30 3005 H 295.202 -0.955342 -2.97644 0
M  V30 3006 H 294.422 -3.30119 -2.15442 0
M  V30 3007 H 295.71 -3.9874 -3.16044 0
M  V30 3008 H 295.108 -1.71807 -5.38979 0
M  V30 3009 H 293.665 -2.3423 -6.08259 0
M  V30 3010 N 297.098 0.621204 -1.44841 0
M  V30 3011 C 298.346 1.37783 -1.47852 0
M  V30 3012 C 298.667 1.94653 -0.116224 0
M  V30 3013 O 297.937 1.76367 0.852737 0
M  V30 3014 H 296.517 0.511453 -0.544449 0
M  V30 3015 H 299.179 0.730446 -1.80694 0
M  V30 3016 H 298.275 2.20414 -2.20961 0
M  V30 3017 N 298.576 1.31904 0.862503 0
M  V30 3018 C 299.816 1.23324 1.63004 0
M  V30 3019 C 300.18 -0.203724 1.90916 0
M  V30 3020 O 301.381 -0.413132 2.65606 0
M  V30 3021 C 299.652 2.06116 2.91978 0
M  V30 3022 S 301.211 2.14478 3.82812 0
M  V30 3023 H 298.029 0.439117 0.559193 0
M  V30 3024 H 300.631 1.66658 1.02202 0
M  V30 3025 H 299.335 3.09593 2.69407 0
M  V30 3026 H 298.866 1.6353 3.57801 0
M  V30 3027 H 300.881 1.28855 4.79177 0
M  V30 3028 N 300.054 -1.07777 1.14986 0
M  V30 3029 C 301.301 -1.8029 0.922056 0
M  V30 3030 C 301.629 -1.86531 -0.55105 0
M  V30 3031 O 300.884 -1.34189 -1.42449 0
M  V30 3032 C 301.183 -3.25495 1.47608 0
M  V30 3033 C 300.849 -3.39361 2.96893 0
M  V30 3034 C 299.511 -3.42852 3.37647 0
M  V30 3035 C 301.863 -3.42512 3.92854 0
M  V30 3036 C 299.191 -3.47094 4.73015 0
M  V30 3037 C 301.543 -3.4829 5.28088 0
M  V30 3038 C 300.207 -3.50058 5.68345 0
M  V30 3039 H 299.477 -0.659727 0.337404 0
M  V30 3040 H 302.124 -1.26854 1.43459 0
M  V30 3041 H 300.429 -3.81683 0.88463 0
M  V30 3042 H 302.126 -3.80168 1.27568 0
M  V30 3043 H 298.716 -3.37339 2.64387 0
M  V30 3044 H 302.9 -3.3904 3.62444 0
M  V30 3045 H 298.156 -3.46758 5.03556 0
M  V30 3046 H 302.33 -3.49675 6.02246 0
M  V30 3047 H 299.957 -3.53097 6.73221 0
M  V30 3048 N 301.532 -0.945985 -1.26051 0
M  V30 3049 C 302.778 -0.597002 -1.93814 0
M  V30 3050 C 303.111 0.862484 -1.73997 0
M  V30 3051 O 302.386 1.61769 -1.07986 0
M  V30 3052 C 302.669 -0.945937 -3.47454 0
M  V30 3053 C 302.522 -2.46052 -3.76535 0
M  V30 3054 C 303.841 -0.464785 -4.37639 0
M  V30 3055 H 300.96 -0.218366 -0.703907 0
M  V30 3056 H 303.602 -1.18107 -1.48831 0
M  V30 3057 H 301.752 -0.448902 -3.85898 0
M  V30 3058 H 303.424 -3.03065 -3.47778 0
M  V30 3059 H 301.667 -2.90194 -3.22444 0
M  V30 3060 H 302.338 -2.65517 -4.83947 0
M  V30 3061 H 304.814 -0.891016 -4.06448 0
M  V30 3062 H 303.69 -0.737712 -5.4392 0
M  V30 3063 H 303.951 0.635274 -4.37512 0
M  V30 3064 N 303.011 1.40521 -0.713556 0
M  V30 3065 C 303.943 2.29191 -0.0203126 0
M  V30 3066 C 304.956 1.45723 0.725864 0
M  V30 3067 O 306.145 1.69033 0.573581 0
M  V30 3068 C 303.245 3.2395 0.995486 0
M  V30 3069 C 302.418 4.36262 0.315256 0
M  V30 3070 C 301.477 5.11474 1.23616 0
M  V30 3071 O 300.503 5.64606 0.721719 0
M  V30 3072 N 301.705 5.20638 2.56743 0
M  V30 3073 H 304.47 2.89327 -0.781652 0
M  V30 3074 H 302.031 1.51869 -0.561022 0
M  V30 3075 H 304.023 3.71137 1.61368 0
M  V30 3076 H 302.593 2.64995 1.6582 0
M  V30 3077 H 301.813 3.91228 -0.483106 0
M  V30 3078 H 303.101 5.08558 -0.157004 0
M  V30 3079 H 302.499 4.7895 3.01037 0
M  V30 3080 H 301.056 5.71339 3.13712 0
M  V30 3081 N 304.489 0.459591 1.5075 0
M  V30 3082 C 305.766 -0.160371 1.94941 0
M  V30 3083 C 306.146 -1.58048 1.39943 0
M  V30 3084 O 305.494 -2.206 0.595629 0
M  V30 3085 C 305.704 -0.115432 3.48809 0
M  V30 3086 C 307.052 -0.310026 4.23467 0
M  V30 3087 O 308.076 -0.192543 3.55679 0
M  V30 3088 O 306.935 -0.546031 5.43765 0
M  V30 3089 H 304.029 -0.117925 0.818549 0
M  V30 3090 H 306.575 0.519169 1.61563 0
M  V30 3091 H 305.347 0.87652 3.81357 0
M  V30 3092 H 304.97 -0.836928 3.88692 0
M  V30 3093 N 305.967 -1.56429 0.191757 0
M  V30 3094 C 307.192 -2.02309 -0.456706 0
M  V30 3095 C 307.617 -1.07103 -1.5463 0
M  V30 3096 O 306.975 -0.0539677 -1.8122 0
M  V30 3097 C 307.023 -3.46654 -0.993159 0
M  V30 3098 O 306.127 -3.54559 -2.10622 0
M  V30 3099 H 305.468 -0.655303 -0.107114 0
M  V30 3100 H 307.998 -2.02364 0.301653 0
M  V30 3101 H 308.008 -3.86377 -1.31061 0
M  V30 3102 H 306.683 -4.1544 -0.195504 0
M  V30 3103 H 305.26 -3.26708 -1.79767 0
M  V30 3104 N 307.445 0.0818655 -1.57387 0
M  V30 3105 C 308.856 0.634871 -1.75574 0
M  V30 3106 C 309.207 1.78435 -0.815809 0
M  V30 3107 O 308.332 2.164 0.0025366 0
M  V30 3108 C 308.927 1.15845 -3.18379 0
M  V30 3109 C 307.486 1.65741 -3.37945 0
M  V30 3110 C 306.633 0.572549 -2.71325 0
M  V30 3111 H 309.584 -0.144268 -1.58043 0
M  V30 3112 H 309.605 2.02751 -3.21982 0
M  V30 3113 H 309.117 0.321631 -3.86765 0
M  V30 3114 H 307.218 2.51781 -2.74658 0
M  V30 3115 H 307.331 1.74129 -4.46336 0
M  V30 3116 H 305.695 1.01518 -2.33594 0
M  V30 3117 H 306.478 -0.253918 -3.4236 0
M  V30 3118 N 308.923 1.53595 0.353017 0
M  V30 3119 C 309.853 1.83902 1.43883 0
M  V30 3120 C 310.834 0.693421 1.55324 0
M  V30 3121 O 312.019 0.944452 1.69687 0
M  V30 3122 C 309.149 2.04016 2.8106 0
M  V30 3123 C 308.103 3.19814 2.84434 0
M  V30 3124 C 307.429 3.25244 4.24406 0
M  V30 3125 C 308.729 4.58133 2.50822 0
M  V30 3126 H 310.423 2.74835 1.1877 0
M  V30 3127 H 307.969 1.32242 0.569917 0
M  V30 3128 H 309.922 2.238 3.57059 0
M  V30 3129 H 308.646 1.09804 3.07588 0
M  V30 3130 H 307.305 2.9987 2.10887 0
M  V30 3131 H 306.953 2.28646 4.48029 0
M  V30 3132 H 306.653 4.03054 4.27576 0
M  V30 3133 H 308.177 3.47228 5.0226 0
M  V30 3134 H 309.591 4.77995 3.16534 0
M  V30 3135 H 307.988 5.38276 2.6529 0
M  V30 3136 H 309.058 4.62387 1.46034 0
M  V30 3137 N 310.401 -0.613514 1.45168 0
M  V30 3138 C 311.678 -1.37263 1.39349 0
M  V30 3139 C 312.058 -2.11012 0.0610848 0
M  V30 3140 O 311.406 -2.07502 -0.956825 0
M  V30 3141 C 311.616 -2.3244 2.60332 0
M  V30 3142 C 312.964 -2.9523 3.05163 0
M  V30 3143 O 313.988 -2.42762 2.60663 0
M  V30 3144 O 312.847 -3.90454 3.82372 0
M  V30 3145 H 309.941 -0.615188 0.552696 0
M  V30 3146 H 312.487 -0.637097 1.57287 0
M  V30 3147 H 311.259 -1.77164 3.48896 0
M  V30 3148 H 310.882 -3.13383 2.44698 0
M  V30 3149 N 311.879 -1.3236 -0.855495 0
M  V30 3150 C 313.125 -1.24064 -1.61182 0
M  V30 3151 C 313.48 0.195914 -1.914 0
M  V30 3152 O 312.773 1.13345 -1.54478 0
M  V30 3153 C 312.967 -2.03275 -2.93963 0
M  V30 3154 C 312.796 -3.54486 -2.76712 0
M  V30 3155 C 311.566 -4.23824 -2.75139 0
M  V30 3156 C 313.764 -4.49154 -2.50531 0
M  V30 3157 N 311.746 -5.61095 -2.4909 0
M  V30 3158 C 313.117 -5.74195 -2.3388 0
M  V30 3159 C 315.172 -4.3842 -2.35992 0
M  V30 3160 C 313.875 -6.89716 -2.04168 0
M  V30 3161 C 315.901 -5.53739 -2.0767 0
M  V30 3162 C 315.263 -6.77779 -1.9182 0
M  V30 3163 H 311.362 -0.509139 -0.59355 0
M  V30 3164 H 313.946 -1.66715 -1.00569 0
M  V30 3165 H 312.117 -1.6297 -3.52555 0
M  V30 3166 H 313.849 -1.86881 -3.58967 0
M  V30 3167 H 310.604 -3.75934 -2.88047 0
M  V30 3168 H 311.028 -6.33411 -2.38996 0
M  V30 3169 H 315.67 -3.43172 -2.46967 0
M  V30 3170 H 313.388 -7.84977 -1.9193 0
M  V30 3171 H 316.974 -5.4736 -1.97201 0
M  V30 3172 H 315.854 -7.65504 -1.70217 0
M  V30 3173 N 313.357 1.07166 -1.15556 0
M  V30 3174 C 314.287 2.16403 -0.877046 0
M  V30 3175 C 315.268 1.69217 0.173111 0
M  V30 3176 O 316.453 1.94181 0.027084 0
M  V30 3177 C 313.583 3.45349 -0.367632 0
M  V30 3178 C 312.537 4.05995 -1.35468 0
M  V30 3179 C 311.863 5.30045 -0.704038 0
M  V30 3180 C 313.163 4.45804 -2.72132 0
M  V30 3181 H 314.857 2.39959 -1.79053 0
M  V30 3182 H 312.403 1.15325 -0.862331 0
M  V30 3183 H 314.356 4.21095 -0.160317 0
M  V30 3184 H 313.08 3.21385 0.581326 0
M  V30 3185 H 311.739 3.32296 -1.54839 0
M  V30 3186 H 311.387 5.02373 0.251128 0
M  V30 3187 H 311.087 5.71579 -1.36277 0
M  V30 3188 H 312.611 6.08495 -0.50654 0
M  V30 3189 H 314.025 5.12671 -2.56595 0
M  V30 3190 H 312.422 4.98296 -3.34397 0
M  V30 3191 H 313.492 3.57083 -3.28054 0
M  V30 3192 N 314.835 0.952656 1.25548 0
M  V30 3193 C 315.798 0.475794 2.24207 0
M  V30 3194 C 316.798 -0.419428 1.55234 0
M  V30 3195 O 317.988 -0.216994 1.72843 0
M  V30 3196 C 315.12 -0.312814 3.39462 0
M  V30 3197 H 316.313 1.34779 2.67908 0
M  V30 3198 H 313.866 0.735739 1.37901 0
M  V30 3199 H 314.601 -1.20257 3.01179 0
M  V30 3200 H 314.386 0.329404 3.90714 0
M  V30 3201 H 315.876 -0.635986 4.12729 0
M  V30 3202 N 316.313 -1.40141 0.720998 0
M  V30 3203 C 317.729 -1.54632 0.395113 0
M  V30 3204 C 317.929 -1.69115 -1.09555 0
M  V30 3205 O 316.985 -1.68377 -1.88163 0
M  V30 3206 C 318.298 -2.77177 1.1659 0
M  V30 3207 C 319.846 -2.91 1.15274 0
M  V30 3208 C 320.321 -4.16465 1.90579 0
M  V30 3209 N 321.812 -4.23476 1.87675 0
M  V30 3210 C 322.547 -5.19475 2.42762 0
M  V30 3211 N 322.043 -6.21348 3.06428 0
M  V30 3212 N 323.836 -5.11592 2.32874 0
M  V30 3213 H 315.987 -1.28986 1.68749 0
M  V30 3214 H 318.25 -0.62412 0.713567 0
M  V30 3215 H 317.956 -2.72771 2.22011 0
M  V30 3216 H 317.83 -3.69442 0.76108 0
M  V30 3217 H 320.217 -2.94907 0.106702 0
M  V30 3218 H 320.298 -1.99838 1.59682 0
M  V30 3219 H 319.942 -4.1332 2.95176 0
M  V30 3220 H 319.872 -5.06646 1.43587 0
M  V30 3221 H 322.363 -3.50497 1.41281 0
M  V30 3222 H 322.676 -6.91034 3.45965 0
M  V30 3223 H 321.021 -6.21777 3.10514 0
M  V30 3224 H 324.212 -4.30936 1.82789 0
M  V30 3225 H 324.385 -5.86233 2.76106 0
M  V30 3226 N 317.792 -0.46758 -1.50504 0
M  V30 3227 C 318.74 0.342482 -2.30065 0
M  V30 3228 C 319.734 0.993596 -1.37201 0
M  V30 3229 O 320.94 0.925102 -1.54408 0
M  V30 3230 H 317.315 0.129283 -0.740803 0
M  V30 3231 H 319.286 -0.34899 -2.96352 0
M  V30 3232 C 318.035 1.4139 -3.17654 0
M  V30 3233 H 317.358 0.922264 -3.89017 0
M  V30 3234 H 318.798 1.95335 -3.76325 0
M  V30 3235 C 317.257 2.4139 -2.35016 0
M  V30 3236 O 317.787 3.46586 -2.03079 0
M  V30 3237 N 315.993 2.13021 -1.97662 0
M  V30 3238 H 315.54 1.27499 -2.23834 0
M  V30 3239 H 315.498 2.80164 -1.42673 0
M  V30 3240 N 319.27 1.56325 -0.20005 0
M  V30 3241 C 320.686 1.58839 0.155716 0
M  V30 3242 C 320.886 1.21636 1.60645 0
M  V30 3243 O 319.942 0.941437 2.34293 0
M  V30 3244 C 321.255 3.0032 -0.151124 0
M  V30 3245 C 322.803 3.12866 -0.0916284 0
M  V30 3246 C 323.278 4.56488 -0.371845 0
M  V30 3247 N 324.769 4.62089 -0.320641 0
M  V30 3248 C 325.504 5.71116 -0.511243 0
M  V30 3249 N 325 6.88592 -0.762461 0
M  V30 3250 N 326.793 5.60335 -0.445157 0
M  V30 3251 H 318.944 1.78788 -1.14668 0
M  V30 3252 H 321.207 0.829996 -0.458051 0
M  V30 3253 H 320.913 3.32117 -1.15721 0
M  V30 3254 H 320.787 3.73257 0.543986 0
M  V30 3255 H 323.174 2.80878 0.905065 0
M  V30 3256 H 323.255 2.42304 -0.81989 0
M  V30 3257 H 322.899 4.89189 -1.36588 0
M  V30 3258 H 322.829 5.25246 0.377362 0
M  V30 3259 H 325.32 3.77665 -0.13329 0
M  V30 3260 H 325.633 7.67581 -0.896576 0
M  V30 3261 H 323.978 6.90387 -0.799412 0
M  V30 3262 H 327.169 4.67436 -0.249278 0
M  V30 3263 H 327.342 6.45243 -0.597116 0
M  V30 3264 N 320.748 -0.0735177 1.57428 0
M  V30 3265 C 321.973 -0.789787 1.91774 0
M  V30 3266 C 322.398 -1.70413 0.796306 0
M  V30 3267 O 321.756 -1.79555 -0.250961 0
M  V30 3268 C 321.804 -1.5609 3.25067 0
M  V30 3269 O 320.908 -2.67144 3.14178 0
M  V30 3270 H 320.249 -0.215582 0.628029 0
M  V30 3271 H 322.779 -0.0422781 2.04556 0
M  V30 3272 H 322.789 -1.94052 3.58898 0
M  V30 3273 H 321.464 -0.890015 4.06265 0
M  V30 3274 H 320.041 -2.32052 2.91901 0
M  V30 3275 N 322.226 -1.5378 -0.344866 0
M  V30 3276 C 323.173 -1.81676 -1.42346 0
M  V30 3277 C 324.143 -0.662376 -1.52321 0
M  V30 3278 O 325.328 -0.906675 -1.67881 0
M  V30 3279 C 322.468 -2.03087 -2.79015 0
M  V30 3280 C 321.581 -3.30799 -2.77842 0
M  V30 3281 C 320.716 -3.42285 -4.0622 0
M  V30 3282 C 319.755 -4.6395 -3.9927 0
M  V30 3283 N 318.892 -4.72477 -5.19336 0
M  V30 3284 H 323.732 -2.73703 -1.17858 0
M  V30 3285 H 321.269 -1.35568 -0.570949 0
M  V30 3286 H 323.227 -2.1349 -3.58438 0
M  V30 3287 H 321.857 -1.14375 -3.01858 0
M  V30 3288 H 320.909 -3.29244 -1.90533 0
M  V30 3289 H 322.221 -4.20314 -2.68584 0
M  V30 3290 H 321.375 -3.52113 -4.94066 0
M  V30 3291 H 320.114 -2.50823 -4.18258 0
M  V30 3292 H 319.119 -4.54201 -3.09809 0
M  V30 3293 H 320.344 -5.56775 -3.88817 0
M  V30 3294 H 318.29 -3.83924 -5.3192 0
M  V30 3295 H 318.207 -5.55927 -5.12329 0
M  V30 3296 H 319.475 -4.86613 -6.08957 0
M  V30 3297 N 323.704 0.605807 -1.45491 0
M  V30 3298 C 325.115 1.18777 -1.44045 0
M  V30 3299 C 325.466 1.95471 -0.169001 0
M  V30 3300 O 324.591 2.0374 0.729324 0
M  V30 3301 C 325.186 2.16064 -2.60963 0
M  V30 3302 C 323.745 2.69633 -2.62631 0
M  V30 3303 C 322.892 1.45072 -2.36325 0
M  V30 3304 H 325.843 0.395017 -1.53705 0
M  V30 3305 H 325.864 2.9913 -2.35163 0
M  V30 3306 H 325.376 1.60217 -3.53486 0
M  V30 3307 H 323.477 3.29414 -1.74119 0
M  V30 3308 H 323.59 3.13944 -3.61906 0
M  V30 3309 H 321.954 1.74089 -1.85917 0
M  V30 3310 H 322.737 0.910899 -3.30995 0
M  V30 3311 N 325.182 1.32811 0.848464 0
M  V30 3312 C 326.092 1.24278 1.98978 0
M  V30 3313 C 327.108 0.155176 1.73307 0
M  V30 3314 O 328.284 0.376999 1.9784 0
M  V30 3315 C 325.349 0.972444 3.32783 0
M  V30 3316 C 324.41 2.14911 3.71634 0
M  V30 3317 C 323.643 1.89157 4.99054 0
M  V30 3318 O 323.866 0.837165 5.64223 0
M  V30 3319 O 322.8 2.75433 5.35183 0
M  V30 3320 H 326.626 2.20238 2.09115 0
M  V30 3321 H 324.211 1.12762 0.980052 0
M  V30 3322 H 326.093 0.838432 4.12975 0
M  V30 3323 H 324.768 0.043051 3.23671 0
M  V30 3324 H 323.675 2.33862 2.91992 0
M  V30 3325 H 325.008 3.06151 3.85399 0
M  V30 3326 N 326.66 -1.06551 1.16123 0
M  V30 3327 C 328.076 -1.3142 0.905585 0
M  V30 3328 C 328.276 -1.96571 -0.442964 0
M  V30 3329 O 327.332 -2.23068 -1.18308 0
M  V30 3330 C 328.645 -2.19741 2.05267 0
M  V30 3331 C 330.193 -2.33165 2.08813 0
M  V30 3332 C 330.668 -3.24838 3.22868 0
M  V30 3333 N 332.159 -3.32421 3.22568 0
M  V30 3334 C 332.894 -4.0344 4.0746 0
M  V30 3335 N 332.39 -4.77003 5.02434 0
M  V30 3336 N 334.183 -3.99464 3.95456 0
M  V30 3337 H 326.334 -0.626548 2.02949 0
M  V30 3338 H 328.597 -0.338777 0.8854 0
M  V30 3339 H 328.303 -1.79142 3.02657 0
M  V30 3340 H 328.177 -3.20313 1.99198 0
M  V30 3341 H 330.564 -2.73013 1.12018 0
M  V30 3342 H 330.645 -1.3227 2.18948 0
M  V30 3343 H 330.289 -2.85708 4.19921 0
M  V30 3344 H 330.219 -4.25707 3.0997 0
M  V30 3345 H 332.71 -2.79994 2.53795 0
M  V30 3346 H 333.023 -5.28712 5.63634 0
M  V30 3347 H 331.368 -4.75992 5.06415 0
M  V30 3348 H 334.559 -3.4111 3.20564 0
M  V30 3349 H 334.732 -4.54544 4.61837 0
M  V30 3350 N 328.138 -0.959301 -1.25041 0
M  V30 3351 C 329.415 -0.533805 -1.88175 0
M  V30 3352 C 329.795 0.988994 -1.865 0
M  V30 3353 O 329.143 1.85677 -1.33177 0
M  V30 3354 C 329.353 -1.11575 -3.30684 0
M  V30 3355 C 330.701 -1.19548 -4.07423 0
M  V30 3356 O 331.725 -1.06765 -3.39823 0
M  V30 3357 O 330.584 -1.39656 -5.28354 0
M  V30 3358 H 327.678 -0.176772 -0.807887 0
M  V30 3359 H 330.224 -1.05303 -1.33076 0
M  V30 3360 H 328.996 -2.15884 -3.26358 0
M  V30 3361 H 328.619 -0.580059 -3.93346 0
M  V30 3362 N 329.616 1.39756 -0.72842 0
M  V30 3363 C 330.893 1.94574 -0.200079 0
M  V30 3364 C 331.273 1.66569 1.29684 0
M  V30 3365 O 330.621 0.990326 2.05924 0
M  V30 3366 C 330.831 3.45004 -0.526608 0
M  V30 3367 C 332.179 4.21965 -0.472318 0
M  V30 3368 O 333.203 3.53173 -0.463413 0
M  V30 3369 O 332.062 5.44552 -0.461075 0
M  V30 3370 H 329.156 0.826289 -0.0342851 0
M  V30 3371 H 331.702 1.49293 -0.806829 0
M  V30 3372 H 330.474 3.58796 -1.56144 0
M  V30 3373 H 330.097 3.97449 0.109449 0
M  V30 3374 N 331.094 0.475555 1.50254 0
M  V30 3375 C 332.322 -0.0754493 2.06762 0
M  V30 3376 C 332.737 -1.33111 1.33891 0
M  V30 3377 O 332.094 -1.77846 0.40952 0
M  V30 3378 C 332.145 -0.359008 3.59713 0
M  V30 3379 O 331.866 0.846851 4.29837 0
M  V30 3380 C 333.367 -0.956484 4.32858 0
M  V30 3381 H 330.587 0.00907525 0.670939 0
M  V30 3382 H 333.131 0.665618 1.93364 0
M  V30 3383 H 331.286 -1.05001 3.72899 0
M  V30 3384 H 331.7 0.594162 5.21124 0
M  V30 3385 H 333.174 -1.10463 5.40834 0
M  V30 3386 H 333.651 -1.94775 3.93649 0
M  V30 3387 H 334.257 -0.303723 4.24214 0
M  V30 3388 N 332.573 -1.56217 0.208337 0
M  V30 3389 C 333.503 -2.22694 -0.702116 0
M  V30 3390 C 334.484 -1.19432 -1.2112 0
M  V30 3391 O 335.669 -1.47978 -1.25762 0
M  V30 3392 C 332.799 -2.8966 -1.9161 0
M  V30 3393 C 331.753 -3.9928 -1.5414 0
M  V30 3394 C 331.079 -4.53476 -2.83308 0
M  V30 3395 C 332.379 -5.17012 -0.741339 0
M  V30 3396 H 334.073 -2.99034 -0.147898 0
M  V30 3397 H 331.619 -1.43831 -0.0696951 0
M  V30 3398 H 333.572 -3.34852 -2.55836 0
M  V30 3399 H 332.296 -2.10746 -2.49507 0
M  V30 3400 H 330.955 -3.54799 -0.922668 0
M  V30 3401 H 330.603 -3.71308 -3.39322 0
M  V30 3402 H 330.303 -5.27451 -2.58976 0
M  V30 3403 H 331.827 -5.01378 -3.485 0
M  V30 3404 H 333.241 -5.58667 -1.28699 0
M  V30 3405 H 331.638 -5.97137 -0.595627 0
M  V30 3406 H 332.708 -4.8423 0.254851 0
M  V30 3407 N 334.051 0.0651679 -1.57465 0
M  V30 3408 C 335.328 0.79644 -1.78651 0
M  V30 3409 C 335.708 1.95454 -0.797566 0
M  V30 3410 O 335.056 2.27882 0.167946 0
M  V30 3411 C 335.266 1.26322 -3.25337 0
M  V30 3412 C 336.614 1.6939 -3.89348 0
M  V30 3413 O 337.638 1.35872 -3.29268 0
M  V30 3414 O 336.497 2.31471 -4.95059 0
M  V30 3415 H 333.591 0.382157 -0.733407 0
M  V30 3416 H 336.137 0.0447311 -1.69641 0
M  V30 3417 H 334.909 0.434859 -3.88876 0
M  V30 3418 H 334.532 2.07604 -3.39096 0
M  V30 3419 N 335.529 1.53961 0.336706 0
M  V30 3420 C 336.757 1.75483 1.09605 0
M  V30 3421 C 337.172 0.4972 1.82136 0
M  V30 3422 O 336.529 -0.53149 1.74589 0
M  V30 3423 C 336.58 2.93943 2.10428 0
M  V30 3424 O 336.301 4.14842 1.40846 0
M  V30 3425 C 337.802 3.27571 2.98684 0
M  V30 3426 H 335.022 0.586166 0.326574 0
M  V30 3427 H 337.566 2.00808 0.38683 0
M  V30 3428 H 335.721 2.70929 2.76905 0
M  V30 3429 H 336.135 4.81383 2.08255 0
M  V30 3430 H 337.609 4.13791 3.6535 0
M  V30 3431 H 338.086 2.44168 3.65074 0
M  V30 3432 H 338.692 3.52615 2.37787 0
M  V30 3433 N 337.007 -0.598083 1.45811 0
M  V30 3434 C 338.253 -1.35679 1.51535 0
M  V30 3435 C 338.608 -1.91745 0.15864 0
M  V30 3436 O 337.901 -1.72654 -0.830724 0
M  V30 3437 C 338.095 -2.51669 2.53766 0
M  V30 3438 C 337.924 -2.06963 3.99245 0
M  V30 3439 C 336.694 -1.92693 4.67116 0
M  V30 3440 C 338.892 -1.63855 4.875 0
M  V30 3441 N 336.874 -1.41897 5.97276 0
M  V30 3442 C 338.245 -1.24541 6.07363 0
M  V30 3443 C 340.3 -1.51533 4.74281 0
M  V30 3444 C 339.003 -0.741354 7.15469 0
M  V30 3445 C 341.029 -1.0253 5.82444 0
M  V30 3446 C 340.391 -0.641869 7.01469 0
M  V30 3447 H 336.49 -0.490042 0.609412 0
M  V30 3448 H 339.074 -0.682687 1.82339 0
M  V30 3449 H 337.245 -3.16663 2.24898 0
M  V30 3450 H 338.977 -3.18578 2.4958 0
M  V30 3451 H 335.732 -2.1417 4.22408 0
M  V30 3452 H 336.156 -1.18704 6.66512 0
M  V30 3453 H 340.798 -1.798 3.82664 0
M  V30 3454 H 338.516 -0.446243 8.06867 0
M  V30 3455 H 342.102 -0.934088 5.74253 0
M  V30 3456 H 340.982 -0.268531 7.8374 0
M  V30 3457 N 338.485 -1.33259 -0.841409 0
M  V30 3458 C 339.734 -1.23921 -1.59143 0
M  V30 3459 C 340.047 0.1941 -1.94635 0
M  V30 3460 O 341.253 0.409474 -2.68394 0
M  V30 3461 C 339.709 -2.17119 -2.87032 0
M  V30 3462 C 339.317 -3.65606 -2.58914 0
M  V30 3463 C 341.061 -2.16648 -3.65053 0
M  V30 3464 C 338.968 -4.50726 -3.82884 0
M  V30 3465 H 337.898 -0.460264 -0.597221 0
M  V30 3466 H 340.549 -1.58307 -0.927959 0
M  V30 3467 H 338.931 -1.75663 -3.54906 0
M  V30 3468 H 340.105 -4.15487 -1.99267 0
M  V30 3469 H 338.42 -3.68341 -1.942 0
M  V30 3470 H 341.017 -2.77474 -4.57069 0
M  V30 3471 H 341.36 -1.16088 -3.99787 0
M  V30 3472 H 341.893 -2.56453 -3.041 0
M  V30 3473 H 338.632 -5.52151 -3.53283 0
M  V30 3474 H 338.152 -4.0559 -4.41879 0
M  V30 3475 H 339.831 -4.64401 -4.50489 0
M  V30 3476 N 339.963 1.05934 -1.16686 0
M  V30 3477 C 340.893 2.1546 -0.899949 0
M  V30 3478 C 341.874 1.69391 0.155154 0
M  V30 3479 O 343.059 1.94199 0.00648693 0
M  V30 3480 C 340.189 3.44939 -0.404241 0
M  V30 3481 C 339.143 4.04536 -1.39767 0
M  V30 3482 C 338.469 5.29268 -0.760216 0
M  V30 3483 C 339.769 4.42893 -2.76845 0
M  V30 3484 H 341.463 2.38046 -1.81588 0
M  V30 3485 H 339.009 1.14404 -0.874514 0
M  V30 3486 H 340.962 4.20901 -0.204971 0
M  V30 3487 H 339.686 3.21983 0.547206 0
M  V30 3488 H 338.345 3.30635 -1.58355 0
M  V30 3489 H 337.993 5.02611 0.197831 0
M  V30 3490 H 337.693 5.70101 -1.42332 0
M  V30 3491 H 339.217 6.07924 -0.57105 0
M  V30 3492 H 340.631 5.09921 -2.62019 0
M  V30 3493 H 339.028 4.94721 -3.39663 0
M  V30 3494 H 340.098 3.53584 -3.31823 0
M  V30 3495 N 341.441 0.965919 1.2453 0
M  V30 3496 C 342.391 0.465731 2.23193 0
M  V30 3497 C 343.375 -0.451277 1.54442 0
M  V30 3498 O 344.567 -0.282489 1.74731 0
M  V30 3499 C 341.696 -0.244511 3.42428 0
M  V30 3500 C 340.782 0.691222 4.18429 0
M  V30 3501 N 341.173 1.82771 4.71623 0
M  V30 3502 C 339.471 0.501649 4.4317 0
M  V30 3503 C 340.172 2.41285 5.29298 0
M  V30 3504 N 339.148 1.69819 5.16394 0
M  V30 3505 H 342.95 1.33291 2.61937 0
M  V30 3506 H 340.464 0.824789 1.39896 0
M  V30 3507 H 342.461 -0.620056 4.12263 0
M  V30 3508 H 341.121 -1.10815 3.05205 0
M  V30 3509 H 342.132 2.20929 4.68413 0
M  V30 3510 H 338.809 -0.318177 4.16286 0
M  V30 3511 H 340.199 3.37181 5.8117 0
M  V30 3512 N 342.919 -1.39368 0.735821 0
M  V30 3513 C 343.882 -2.2896 0.104874 0
M  V30 3514 C 344.882 -1.46347 -0.666274 0
M  V30 3515 O 346.072 -1.67014 -0.49517 0
M  V30 3516 C 343.204 -3.29857 -0.860656 0
M  V30 3517 H 344.397 -2.86259 0.894205 0
M  V30 3518 H 341.95 -1.48029 0.501704 0
M  V30 3519 H 342.685 -2.77615 -1.67631 0
M  V30 3520 H 342.47 -3.9087 -0.310327 0
M  V30 3521 H 343.96 -3.96893 -1.29867 0
M  V30 3522 N 344.397 -0.483516 -1.5 0
M  V30 3523 C 345.625 0.0644831 -2.06799 0
M  V30 3524 C 346.04 1.32399 -1.34596 0
M  V30 3525 O 345.397 1.77626 -0.418946 0
M  V30 3526 C 345.448 0.339927 -3.59898 0
M  V30 3527 O 345.169 -0.869635 -4.29382 0
M  V30 3528 C 346.67 0.933515 -4.33359 0
M  V30 3529 H 343.89 -0.0126333 -0.670881 0
M  V30 3530 H 346.434 -0.675864 -1.93009 0
M  V30 3531 H 344.589 1.03022 -3.7345 0
M  V30 3532 H 345.003 -0.62179 -5.20801 0
M  V30 3533 H 346.477 1.07593 -5.41413 0
M  V30 3534 H 346.954 1.92685 -3.94676 0
M  V30 3535 H 347.56 0.281221 -4.24369 0
M  V30 3536 N 345.875 1.56104 -0.216619 0
M  V30 3537 C 347.1 2.0301 0.424462 0
M  V30 3538 C 347.525 1.0955 1.52907 0
M  V30 3539 O 346.883 0.0827914 1.81111 0
M  V30 3540 C 346.931 3.4819 0.937883 0
M  V30 3541 O 346.035 3.57865 2.04955 0
M  V30 3542 H 345.376 0.656925 0.0966755 0
M  V30 3543 H 347.906 2.01859 -0.33381 0
M  V30 3544 H 347.916 3.88413 1.24897 0
M  V30 3545 H 346.591 4.15699 0.129387 0
M  V30 3546 H 345.168 3.29527 1.74546 0
M  V30 3547 N 347.353 -0.0568162 1.57498 0
M  V30 3548 C 348.285 -1.09292 2.01464 0
M  V30 3549 C 349.298 -1.34112 0.922913 0
M  V30 3550 O 350.487 -1.32089 1.20062 0
M  V30 3551 C 347.587 -2.44068 2.35125 0
M  V30 3552 C 346.76 -2.38995 3.66333 0
M  V30 3553 C 345.819 -3.55997 3.87495 0
M  V30 3554 O 344.845 -3.36746 4.58901 0
M  V30 3555 N 346.047 -4.76888 3.30996 0
M  V30 3556 H 348.812 -0.718386 2.90963 0
M  V30 3557 H 346.373 -0.245235 1.60032 0
M  V30 3558 H 348.365 -3.21011 2.46443 0
M  V30 3559 H 346.935 -2.73468 1.5144 0
M  V30 3560 H 346.155 -1.47336 3.65631 0
M  V30 3561 H 347.443 -2.3272 4.52458 0
M  V30 3562 H 346.841 -4.95431 2.73065 0
M  V30 3563 H 345.398 -5.51291 3.47738 0
M  V30 3564 N 348.832 -1.54138 -0.328536 0
M  V30 3565 C 350.078 -1.73297 -1.06488 0
M  V30 3566 C 350.433 -0.497958 -1.85844 0
M  V30 3567 O 349.726 0.509591 -1.84699 0
M  V30 3568 C 349.92 -2.9457 -2.02393 0
M  V30 3569 C 349.749 -4.29747 -1.32467 0
M  V30 3570 C 348.519 -4.93987 -1.06324 0
M  V30 3571 C 350.717 -5.08903 -0.743137 0
M  V30 3572 N 348.699 -6.13005 -0.331359 0
M  V30 3573 C 350.07 -6.19836 -0.142602 0
M  V30 3574 C 352.125 -4.93699 -0.64546 0
M  V30 3575 C 350.828 -7.17224 0.546125 0
M  V30 3576 C 352.854 -5.91393 0.0295558 0
M  V30 3577 C 352.216 -7.01674 0.619056 0
M  V30 3578 H 348.315 -0.687017 -0.373539 0
M  V30 3579 H 350.899 -1.91589 -0.346659 0
M  V30 3580 H 349.07 -2.77752 -2.71493 0
M  V30 3581 H 350.802 -3.0238 -2.68977 0
M  V30 3582 H 347.557 -4.53824 -1.35428 0
M  V30 3583 H 347.981 -6.76997 0.0202939 0
M  V30 3584 H 352.623 -4.08589 -1.08695 0
M  V30 3585 H 350.341 -8.01896 0.999459 0
M  V30 3586 H 353.927 -5.81706 0.104705 0
M  V30 3587 H 352.807 -7.75971 1.13309 0
M  V30 3588 N 350.31 0.590341 -1.46126 0
M  V30 3589 C 351.535 1.37991 -1.54833 0
M  V30 3590 C 351.96 1.87163 -0.187506 0
M  V30 3591 O 351.318 1.61133 0.831008 0
M  V30 3592 C 351.366 2.54867 -2.55098 0
M  V30 3593 O 350.47 3.56061 -2.08073 0
M  V30 3594 H 349.811 0.411265 -0.521303 0
M  V30 3595 H 352.341 0.716819 -1.91632 0
M  V30 3596 H 352.351 3.01886 -2.74461 0
M  V30 3597 H 351.026 2.18429 -3.53923 0
M  V30 3598 H 349.603 3.15574 -1.98664 0
M  V30 3599 N 351.788 1.33704 0.83433 0
M  V30 3600 C 353.204 1.13137 1.12571 0
M  V30 3601 C 353.404 -0.0747261 2.01361 0
M  V30 3602 O 352.46 -0.753647 2.4099 0
M  V30 3603 C 353.773 2.42105 1.78342 0
M  V30 3604 C 355.321 2.48054 1.90888 0
M  V30 3605 C 355.796 3.76995 2.60075 0
M  V30 3606 N 357.287 3.78092 2.67584 0
M  V30 3607 C 358.022 4.74574 3.21818 0
M  V30 3608 N 357.518 5.81434 3.76705 0
M  V30 3609 N 359.311 4.62044 3.20112 0
M  V30 3610 H 351.462 2.11 0.243489 0
M  V30 3611 H 353.725 0.932532 0.17055 0
M  V30 3612 H 353.431 3.30391 1.20561 0
M  V30 3613 H 353.305 2.54594 2.7832 0
M  V30 3614 H 355.692 1.60215 2.47821 0
M  V30 3615 H 355.773 2.39502 0.898459 0
M  V30 3616 H 355.417 4.65219 2.03799 0
M  V30 3617 H 355.347 3.82825 3.61597 0
M  V30 3618 H 357.838 3.00865 2.28667 0
M  V30 3619 H 358.151 6.51084 4.16305 0
M  V30 3620 H 356.496 5.85163 3.7498 0
M  V30 3621 H 359.687 3.77716 2.76493 0
M  V30 3622 H 359.86 5.37406 3.62076 0
M  V30 3623 N 353.266 -1.05314 1.17247 0
M  V30 3624 C 354.198 -2.13023 0.845812 0
M  V30 3625 C 355.211 -1.62096 -0.151246 0
M  V30 3626 O 356.4 -1.78343 0.0748818 0
M  V30 3627 C 353.5 -3.38047 0.240292 0
M  V30 3628 C 352.673 -4.18255 1.27991 0
M  V30 3629 C 351.732 -5.21625 0.692375 0
M  V30 3630 O 350.758 -5.52619 1.36385 0
M  V30 3631 N 351.96 -5.78201 -0.516178 0
M  V30 3632 H 354.725 -2.41642 1.77283 0
M  V30 3633 H 352.286 -1.21401 1.07115 0
M  V30 3634 H 354.278 -4.04359 -0.16603 0
M  V30 3635 H 352.848 -3.06972 -0.590487 0
M  V30 3636 H 352.068 -3.47451 1.86203 0
M  V30 3637 H 353.356 -4.68643 1.98119 0
M  V30 3638 H 352.754 -5.55301 -1.07969 0
M  V30 3639 H 351.311 -6.4604 -0.86458 0
M  V30 3640 N 354.744 -0.972509 -1.24016 0
M  V30 3641 C 355.692 -0.498562 -2.27194 0
M  V30 3642 C 356.686 0.440372 -1.63576 0
M  V30 3643 O 357.892 0.315133 -1.7722 0
M  V30 3644 H 354.267 -0.142775 -0.738322 0
M  V30 3645 H 356.238 -1.38065 -2.64539 0
M  V30 3646 C 354.987 0.191072 -3.47175 0
M  V30 3647 H 354.31 -0.522318 -3.96373 0
M  V30 3648 H 355.75 0.486445 -4.212 0
M  V30 3649 C 354.209 1.41967 -3.05527 0
M  V30 3650 O 354.739 2.51642 -3.13112 0
M  V30 3651 N 352.945 1.28746 -2.60524 0
M  V30 3652 H 352.492 0.395089 -2.54552 0
M  V30 3653 H 352.45 2.11061 -2.33025 0
M  V30 3654 N 356.222 1.38976 -0.743202 0
M  V30 3655 C 357.152 2.33171 -0.123873 0
M  V30 3656 C 358.133 1.54336 0.71516 0
M  V30 3657 O 359.318 1.82696 0.658467 0
M  V30 3658 C 356.448 3.38474 0.777978 0
M  V30 3659 C 355.402 4.27979 0.0424758 0
M  V30 3660 C 354.728 5.2405 1.06189 0
M  V30 3661 C 356.028 5.10155 -1.1198 0
M  V30 3662 H 357.722 2.85213 -0.910709 0
M  V30 3663 H 355.268 1.37133 -0.439388 0
M  V30 3664 H 357.221 4.03328 1.22084 0
M  V30 3665 H 355.945 2.84891 1.59702 0
M  V30 3666 H 354.604 3.64616 -0.380853 0
M  V30 3667 H 354.252 4.66758 1.87472 0
M  V30 3668 H 353.952 5.84785 0.574485 0
M  V30 3669 H 355.476 5.9178 1.50428 0
M  V30 3670 H 356.89 5.68307 -0.75499 0
M  V30 3671 H 355.287 5.80073 -1.53738 0
M  V30 3672 H 356.357 4.44504 -1.93764 0
M  V30 3673 N 357.7 0.491464 1.49741 0
M  V30 3674 C 358.977 -0.118984 1.95238 0
M  V30 3675 C 359.357 -1.55044 1.43264 0
M  V30 3676 O 358.705 -2.19287 0.642287 0
M  V30 3677 C 358.915 -0.0414187 3.48975 0
M  V30 3678 C 360.263 -0.220133 4.24029 0
M  V30 3679 O 361.287 -0.117055 3.56008 0
M  V30 3680 O 360.146 -0.430567 5.44801 0
M  V30 3681 H 357.24 -0.100536 0.820866 0
M  V30 3682 H 359.786 0.553322 1.60426 0
M  V30 3683 H 358.558 0.957214 3.79412 0
M  V30 3684 H 358.181 -0.754292 3.9038 0
M  V30 3685 N 359.178 -1.55987 0.224894 0
M  V30 3686 C 360.141 -2.19178 -0.670348 0
M  V30 3687 C 361.141 -1.15461 -1.11917 0
M  V30 3688 O 362.331 -1.40675 -1.02743 0
M  V30 3689 C 359.463 -2.81777 -1.9187 0
M  V30 3690 H 360.656 -2.99662 -0.119364 0
M  V30 3691 H 358.209 -1.5628 -0.0247128 0
M  V30 3692 H 358.944 -2.05172 -2.51147 0
M  V30 3693 H 358.729 -3.57732 -1.60531 0
M  V30 3694 H 360.219 -3.30205 -2.55645 0
M  V30 3695 N 360.656 0.0484629 -1.57525 0
M  V30 3696 C 361.881 0.759177 -1.93006 0
M  V30 3697 C 362.306 1.69125 -0.823317 0
M  V30 3698 O 361.664 1.79931 0.222364 0
M  V30 3699 C 361.712 1.50899 -3.27509 0
M  V30 3700 O 360.816 2.62112 -3.18388 0
M  V30 3701 H 360.157 0.205564 -0.631379 0
M  V30 3702 H 362.687 0.00972959 -2.04598 0
M  V30 3703 H 362.697 1.88317 -3.6194 0
M  V30 3704 H 361.372 0.825269 -4.0763 0
M  V30 3705 H 359.949 2.27379 -2.95556 0
M  V30 3706 N 362.134 1.5431 0.320358 0
M  V30 3707 C 363.55 1.45091 0.664889 0
M  V30 3708 C 363.75 0.626382 1.91517 0
M  V30 3709 O 362.806 0.126443 2.52183 0
M  V30 3710 C 364.119 2.88848 0.83591 0
M  V30 3711 C 365.667 2.9877 0.933046 0
M  V30 3712 C 366.142 4.43683 1.13621 0
M  V30 3713 N 367.633 4.47309 1.20287 0
M  V30 3714 C 368.368 5.56595 1.37801 0
M  V30 3715 N 367.864 6.75844 1.52338 0
M  V30 3716 N 369.657 5.44248 1.40535 0
M  V30 3717 H 361.808 2.06398 -0.501374 0
M  V30 3718 H 364.071 0.933963 -0.162534 0
M  V30 3719 H 363.777 3.51698 -0.0116092 0
M  V30 3720 H 363.651 3.35148 1.73078 0
M  V30 3721 H 366.038 2.36045 1.77107 0
M  V30 3722 H 366.119 2.55796 0.0145782 0
M  V30 3723 H 365.763 5.06995 0.303032 0
M  V30 3724 H 365.693 4.84269 2.0686 0
M  V30 3725 H 368.184 3.61388 1.10485 0
M  V30 3726 H 368.497 7.54892 1.65403 0
M  V30 3727 H 366.842 6.78746 1.4943 0
M  V30 3728 H 370.033 4.50038 1.28777 0
M  V30 3729 H 370.206 6.29473 1.53842 0
M  V30 3730 N 363.613 -0.582584 1.46437 0
M  V30 3731 C 364.523 -1.71949 1.59595 0
M  V30 3732 C 365.539 -1.67264 0.479443 0
M  V30 3733 O 366.715 -1.87171 0.743579 0
M  V30 3734 C 363.78 -3.08452 1.58298 0
M  V30 3735 C 362.841 -3.244 2.81182 0
M  V30 3736 C 362.074 -4.54391 2.79937 0
M  V30 3737 O 362.297 -5.38287 1.8869 0
M  V30 3738 O 361.231 -4.73588 3.71481 0
M  V30 3739 H 365.057 -1.63795 2.55744 0
M  V30 3740 H 362.642 -0.749643 1.29231 0
M  V30 3741 H 364.524 -3.89732 1.60271 0
M  V30 3742 H 363.199 -3.17043 0.653094 0
M  V30 3743 H 362.106 -2.42613 2.84763 0
M  V30 3744 H 363.439 -3.20699 3.7338 0
M  V30 3745 N 365.091 -1.34144 -0.827227 0
M  V30 3746 C 366.023 -1.21206 -1.9453 0
M  V30 3747 C 367.036 -0.140176 -1.62195 0
M  V30 3748 O 368.225 -0.391647 -1.7415 0
M  V30 3749 C 365.325 -0.839141 -3.28347 0
M  V30 3750 C 364.498 -2.0051 -3.88734 0
M  V30 3751 C 363.557 -1.61128 -5.00923 0
M  V30 3752 O 362.583 -2.32726 -5.19449 0
M  V30 3753 N 363.785 -0.522958 -5.7814 0
M  V30 3754 H 366.55 -2.17525 -2.06162 0
M  V30 3755 H 364.111 -1.27043 -1.00358 0
M  V30 3756 H 366.103 -0.557556 -4.00841 0
M  V30 3757 H 364.673 0.0337293 -3.12582 0
M  V30 3758 H 363.893 -2.45166 -3.08686 0
M  V30 3759 H 365.181 -2.78498 -4.25812 0
M  V30 3760 H 364.579 0.0723518 -5.65654 0
M  V30 3761 H 363.136 -0.301089 -6.51104 0
M  V30 3762 N 366.569 1.04691 -1.17803 0
M  V30 3763 C 367.815 1.78045 -0.970969 0
M  V30 3764 C 368.148 1.87686 0.498751 0
M  V30 3765 O 367.423 1.38035 1.37027 0
M  V30 3766 C 367.706 3.2166 -1.61884 0
M  V30 3767 C 367.559 3.20001 -3.161 0
M  V30 3768 C 368.878 4.1962 -1.3269 0
M  V30 3769 H 365.997 0.64633 -0.354155 0
M  V30 3770 H 368.639 1.22333 -1.45378 0
M  V30 3771 H 366.789 3.69232 -1.20831 0
M  V30 3772 H 368.461 2.80467 -3.66246 0
M  V30 3773 H 366.704 2.58203 -3.48588 0
M  V30 3774 H 367.375 4.21386 -3.56564 0
M  V30 3775 H 369.851 3.80567 -1.68249 0
M  V30 3776 H 368.727 5.18339 -1.80599 0
M  V30 3777 H 368.988 4.414 -0.248622 0
M  V30 3778 N 368.047 0.979072 1.23499 0
M  V30 3779 C 369.296 0.642751 1.91185 0
M  V30 3780 C 369.609 -0.827253 1.77245 0
M  V30 3781 O 370.815 -1.27458 2.39722 0
M  V30 3782 C 369.271 1.09901 3.42709 0
M  V30 3783 C 368.879 2.59327 3.65313 0
M  V30 3784 C 370.623 0.836371 4.16179 0
M  V30 3785 C 368.53 2.98627 5.10467 0
M  V30 3786 H 367.46 0.236698 0.715884 0
M  V30 3787 H 370.111 1.1868 1.39955 0
M  V30 3788 H 368.493 0.48319 3.93041 0
M  V30 3789 H 369.667 3.26136 3.25533 0
M  V30 3790 H 367.982 2.83323 3.05151 0
M  V30 3791 H 370.579 1.10586 5.23139 0
M  V30 3792 H 370.922 -0.227509 4.15678 0
M  V30 3793 H 371.455 1.41371 3.71832 0
M  V30 3794 H 368.194 4.04133 5.16098 0
M  V30 3795 H 367.714 2.3651 5.51201 0
M  V30 3796 H 369.393 2.89159 5.78788 0
M  V30 3797 N 369.525 -1.3858 0.750561 0
M  V30 3798 C 370.435 -2.34278 0.122825 0
M  V30 3799 C 371.451 -1.59116 -0.704131 0
M  V30 3800 O 372.627 -1.91326 -0.628987 0
M  V30 3801 C 369.692 -3.38221 -0.762086 0
M  V30 3802 C 368.753 -4.29227 0.078896 0
M  V30 3803 C 367.986 -5.28205 -0.763874 0
M  V30 3804 O 368.209 -5.34112 -2.00201 0
M  V30 3805 O 367.143 -6.01618 -0.18428 0
M  V30 3806 H 370.969 -2.89649 0.913088 0
M  V30 3807 H 368.554 -1.40374 0.511417 0
M  V30 3808 H 370.436 -4.01872 -1.26793 0
M  V30 3809 H 369.111 -2.85211 -1.5309 0
M  V30 3810 H 368.018 -3.68747 0.630621 0
M  V30 3811 H 369.351 -4.85484 0.810289 0
M  V30 3812 N 371.003 -0.499398 -1.49478 0
M  V30 3813 C 371.953 0.299103 -2.2603 0
M  V30 3814 C 372.937 0.936934 -1.30807 0
M  V30 3815 O 374.129 0.844798 -1.55538 0
M  V30 3816 C 371.258 1.36391 -3.15044 0
M  V30 3817 C 370.344 0.732398 -4.17728 0
M  V30 3818 N 370.735 -0.164028 -5.05534 0
M  V30 3819 C 369.033 0.993162 -4.34801 0
M  V30 3820 C 369.734 -0.525345 -5.79323 0
M  V30 3821 N 368.71 0.106348 -5.43496 0
M  V30 3822 H 372.512 -0.391003 -2.91287 0
M  V30 3823 H 370.026 -0.31537 -1.59308 0
M  V30 3824 H 372.023 1.94939 -3.68516 0
M  V30 3825 H 370.683 2.05571 -2.51338 0
M  V30 3826 H 371.694 -0.534736 -5.15132 0
M  V30 3827 H 368.371 1.67783 -3.82302 0
M  V30 3828 H 369.761 -1.25862 -6.60006 0
M  V30 3829 N 372.481 1.55866 -0.233164 0
M  V30 3830 C 373.411 2.23783 0.666599 0
M  V30 3831 C 374.392 1.21343 1.19205 0
M  V30 3832 O 375.577 1.4996 1.23392 0
M  V30 3833 C 372.707 2.92671 1.86978 0
M  V30 3834 C 371.661 4.01682 1.47768 0
M  V30 3835 C 370.987 4.57926 2.76058 0
M  V30 3836 C 372.287 5.18126 0.658993 0
M  V30 3837 H 373.981 2.99232 0.100306 0
M  V30 3838 H 371.527 1.43924 0.046804 0
M  V30 3839 H 373.48 3.3888 2.50476 0
M  V30 3840 H 372.204 2.14688 2.46123 0
M  V30 3841 H 370.863 3.56222 0.866106 0
M  V30 3842 H 370.511 3.76659 3.33372 0
M  V30 3843 H 370.211 5.31505 2.50552 0
M  V30 3844 H 371.735 5.06859 3.40479 0
M  V30 3845 H 373.149 5.60644 1.19795 0
M  V30 3846 H 371.546 5.98009 0.500552 0
M  V30 3847 H 372.616 4.83763 -0.331856 0
M  V30 3848 N 373.959 -0.0401083 1.57549 0
M  V30 3849 C 374.909 -1.05175 2.02292 0
M  V30 3850 C 375.893 -1.32674 0.910294 0
M  V30 3851 O 377.085 -1.32444 1.17421 0
M  V30 3852 C 374.214 -2.35622 2.49674 0
M  V30 3853 C 373.3 -2.11261 3.67736 0
M  V30 3854 N 373.691 -1.56923 4.80842 0
M  V30 3855 C 371.989 -2.41596 3.74897 0
M  V30 3856 C 372.69 -1.48111 5.62528 0
M  V30 3857 N 371.666 -1.95282 5.07312 0
M  V30 3858 H 375.468 -0.625455 2.87168 0
M  V30 3859 H 372.982 -0.246624 1.60516 0
M  V30 3860 H 374.979 -3.08893 2.79983 0
M  V30 3861 H 373.639 -2.7894 1.662 0
M  V30 3862 H 374.65 -1.25345 5.02503 0
M  V30 3863 H 371.327 -2.88064 3.02201 0
M  V30 3864 H 372.717 -1.06683 6.63377 0
M  V30 3865 N 375.437 -1.54477 -0.31217 0
M  V30 3866 C 376.685 -1.72884 -1.04668 0
M  V30 3867 C 377.006 -0.511477 -1.88173 0
M  V30 3868 O 376.276 0.474407 -1.90069 0
M  V30 3869 H 374.856 -0.637461 -0.389425 0
M  V30 3870 H 377.518 -1.91807 -0.345852 0
M  V30 3871 H 376.614 -2.61334 -1.70619 0
M  V30 3872 N 376.915 0.57481 -1.46744 0
M  V30 3873 C 377.878 1.66533 -1.57478 0
M  V30 3874 C 378.878 1.54338 -0.451263 0
M  V30 3875 O 380.068 1.58814 -0.715813 0
M  V30 3876 C 377.2 3.05999 -1.50259 0
M  V30 3877 H 378.393 1.58372 -2.54673 0
M  V30 3878 H 375.946 0.793301 -1.34672 0
M  V30 3879 H 376.681 3.19709 -0.543725 0
M  V30 3880 H 376.466 3.16259 -2.31781 0
M  V30 3881 H 377.956 3.8537 -1.60872 0
M  V30 3882 N 378.394 1.34581 0.820102 0
M  V30 3883 C 379.641 1.27096 1.57648 0
M  V30 3884 C 379.969 -0.158317 1.93855 0
M  V30 3885 O 379.224 -1.12028 1.60463 0
M  V30 3886 C 379.523 2.10997 2.8847 0
M  V30 3887 C 379.189 3.59966 2.71543 0
M  V30 3888 C 377.851 4.00575 2.66634 0
M  V30 3889 C 380.203 4.54548 2.55021 0
M  V30 3890 C 377.531 5.33953 2.43128 0
M  V30 3891 C 379.883 5.88109 2.33047 0
M  V30 3892 C 378.547 6.27878 2.26552 0
M  V30 3893 H 377.817 0.465078 0.576874 0
M  V30 3894 H 380.464 1.6635 0.948671 0
M  V30 3895 H 378.769 1.6458 3.55557 0
M  V30 3896 H 380.466 2.0255 3.46084 0
M  V30 3897 H 377.056 3.27733 2.76205 0
M  V30 3898 H 381.24 4.24069 2.57835 0
M  V30 3899 H 376.496 5.63781 2.3656 0
M  V30 3900 H 380.67 6.60985 2.19251 0
M  V30 3901 H 378.297 7.31162 2.081 0
M  V30 3902 N 379.872 -1.04064 1.18357 0
M  V30 3903 C 380.835 -2.10243 0.912707 0
M  V30 3904 C 381.835 -1.60477 -0.101928 0
M  V30 3905 O 383.025 -1.73703 0.131517 0
M  V30 3906 C 380.157 -3.38893 0.369387 0
M  V30 3907 H 381.35 -2.35706 1.85426 0
M  V30 3908 H 378.903 -1.20489 0.995594 0
M  V30 3909 H 379.638 -3.19094 -0.578776 0
M  V30 3910 H 379.423 -3.76331 1.1008 0
M  V30 3911 H 380.913 -4.17128 0.198575 0
M  V30 3912 N 381.35 -0.985608 -1.22978 0
M  V30 3913 C 382.26 -0.538548 -2.28335 0
M  V30 3914 C 383.276 0.409163 -1.69121 0
M  V30 3915 O 384.452 0.277797 -1.99475 0
M  V30 3916 C 381.517 0.146867 -3.46389 0
M  V30 3917 C 380.578 -0.842896 -4.20944 0
M  V30 3918 C 379.811 -0.190095 -5.33361 0
M  V30 3919 O 380.034 1.01767 -5.61248 0
M  V30 3920 O 378.968 -0.891289 -5.95264 0
M  V30 3921 H 382.794 -1.41487 -2.68729 0
M  V30 3922 H 380.379 -0.753495 -1.29007 0
M  V30 3923 H 382.261 0.531125 -4.1804 0
M  V30 3924 H 380.936 0.997871 -3.07935 0
M  V30 3925 H 379.843 -1.27795 -3.51595 0
M  V30 3926 H 381.176 -1.66287 -4.6326 0
M  V30 3927 N 382.828 1.3818 -0.7579 0
M  V30 3928 C 383.758 2.33027 -0.148597 0
M  V30 3929 C 384.739 1.55085 0.69875 0
M  V30 3930 O 385.924 1.83384 0.639053 0
M  V30 3931 C 383.054 3.3928 0.742034 0
M  V30 3932 C 382.008 4.28 -0.00291946 0
M  V30 3933 C 381.334 5.25146 1.00625 0
M  V30 3934 C 382.634 5.08938 -1.17385 0
M  V30 3935 H 384.328 2.84231 -0.940909 0
M  V30 3936 H 381.874 1.36659 -0.453908 0
M  V30 3937 H 383.827 4.046 1.17799 0
M  V30 3938 H 382.551 2.86569 1.56671 0
M  V30 3939 H 381.21 3.64192 -0.419504 0
M  V30 3940 H 380.858 4.68721 1.8251 0
M  V30 3941 H 380.558 5.85361 0.512428 0
M  V30 3942 H 382.082 5.93342 1.44143 0
M  V30 3943 H 383.496 5.67474 -0.815224 0
M  V30 3944 H 381.893 5.7841 -1.59882 0
M  V30 3945 H 382.963 4.42424 -1.98468 0
M  V30 3946 N 384.306 0.507319 1.49211 0
M  V30 3947 C 385.555 -0.0368315 2.01666 0
M  V30 3948 C 385.868 -1.37459 1.39156 0
M  V30 3949 O 387.074 -2.00579 1.82976 0
M  V30 3950 C 385.53 -0.116089 3.59713 0
M  V30 3951 C 385.138 1.2154 4.31198 0
M  V30 3952 C 386.882 -0.610268 4.2009 0
M  V30 3953 C 384.789 1.09796 5.81119 0
M  V30 3954 H 383.719 -0.0175376 0.753796 0
M  V30 3955 H 386.37 0.647691 1.71689 0
M  V30 3956 H 384.752 -0.8652 3.86433 0
M  V30 3957 H 385.926 1.9783 4.16173 0
M  V30 3958 H 384.241 1.64352 3.82593 0
M  V30 3959 H 386.838 -0.715742 5.29888 0
M  V30 3960 H 387.181 -1.61064 3.8388 0
M  V30 3961 H 387.714 0.0824916 3.97714 0
M  V30 3962 H 384.453 2.0728 6.21864 0
M  V30 3963 H 383.973 0.376058 5.9862 0
M  V30 3964 H 385.652 0.779281 6.4229 0
M  V30 3965 N 385.784 -1.5574 0.241426 0
M  V30 3966 C 387.061 -1.90704 -0.434881 0
M  V30 3967 C 387.441 -1.16145 -1.76277 0
M  V30 3968 O 386.789 -0.277152 -2.26813 0
M  V30 3969 C 386.999 -3.43657 -0.608343 0
M  V30 3970 C 388.347 -4.14806 -0.906725 0
M  V30 3971 O 389.371 -3.49366 -0.694408 0
M  V30 3972 O 388.23 -5.30548 -1.31075 0
M  V30 3973 H 385.324 -0.793592 -0.23268 0
M  V30 3974 H 387.87 -1.67288 0.285086 0
M  V30 3975 H 386.642 -3.89927 0.327505 0
M  V30 3976 H 386.265 -3.72918 -1.37906 0
M  V30 3977 N 387.262 0.0317525 -1.57568 0
M  V30 3978 C 388.502 0.727979 -1.90997 0
M  V30 3979 C 388.866 1.72664 -0.839708 0
M  V30 3980 O 390.067 2.47092 -1.05825 0
M  V30 3981 C 388.338 1.38239 -3.29583 0
M  V30 3982 S 389.897 2.10814 -3.84841 0
M  V30 3983 H 386.715 0.241226 -0.668828 0
M  V30 3984 H 389.317 -0.0173037 -1.95492 0
M  V30 3985 H 388.021 0.642288 -4.05343 0
M  V30 3986 H 387.552 2.16628 -3.28384 0
M  V30 3987 H 389.567 3.3792 -3.63352 0
M  V30 3988 N 388.74 1.54641 0.303973 0
M  V30 3989 C 389.968 1.77768 1.05858 0
M  V30 3990 C 390.383 0.535722 1.8104 0
M  V30 3991 O 389.74 -0.494337 1.75677 0
M  V30 3992 C 389.791 2.9834 2.04146 0
M  V30 3993 O 389.512 4.17736 1.32015 0
M  V30 3994 C 391.013 3.33832 2.91669 0
M  V30 3995 H 388.233 0.592961 0.314067 0
M  V30 3996 H 390.777 2.01583 0.344149 0
M  V30 3997 H 388.932 2.76742 2.71096 0
M  V30 3998 H 389.346 4.85693 1.97998 0
M  V30 3999 H 390.82 4.21448 3.56491 0
M  V30 4000 H 391.297 2.51857 3.59812 0
M  V30 4001 H 391.903 3.57579 2.30254 0
M  V30 4002 N 390.218 -0.567019 1.47046 0
M  V30 4003 C 391.151 -1.69016 1.53326 0
M  V30 4004 C 392.129 -1.57949 0.386126 0
M  V30 4005 O 393.313 -1.78945 0.592529 0
M  V30 4006 C 390.44 -3.07191 1.42658 0
M  V30 4007 C 389.486 -3.36733 2.6175 0
M  V30 4008 S 390.319 -3.27069 4.24012 0
M  V30 4009 C 391.475 -4.67755 4.1588 0
M  V30 4010 H 391.708 -1.63434 2.48348 0
M  V30 4011 H 389.241 -0.747048 1.35124 0
M  V30 4012 H 391.199 -3.86897 1.37191 0
M  V30 4013 H 389.86 -3.10249 0.490369 0
M  V30 4014 H 389.053 -4.37441 2.50323 0
M  V30 4015 H 388.655 -2.64627 2.64289 0
M  V30 4016 H 390.947 -5.58491 3.83529 0
M  V30 4017 H 391.89 -4.84239 5.16641 0
M  V30 4018 H 392.298 -4.45341 3.46889 0
M  V30 4019 N 391.696 -1.35014 -0.812953 0
M  V30 4020 C 393.107 -1.25035 -1.38648 0
M  V30 4021 C 393.458 0.119967 -1.95833 0
M  V30 4022 O 392.583 1.02069 -1.90816 0
M  V30 4023 C 393.178 -2.26394 -2.52054 0
M  V30 4024 C 391.737 -2.20175 -3.05287 0
M  V30 4025 C 390.884 -2.12451 -1.78213 0
M  V30 4026 H 393.835 -1.46235 -0.616516 0
M  V30 4027 H 393.856 -1.88672 -3.30429 0
M  V30 4028 H 393.368 -3.26116 -2.10404 0
M  V30 4029 H 391.469 -1.23841 -3.51417 0
M  V30 4030 H 391.582 -3.11863 -3.63701 0
M  V30 4031 H 389.946 -1.58328 -1.9951 0
M  V30 4032 H 390.729 -3.14024 -1.38723 0
M  V30 4033 N 393.175 1.03435 -1.18907 0
M  V30 4034 C 394.138 2.09756 -0.923844 0
M  V30 4035 C 395.138 1.60528 0.093416 0
M  V30 4036 O 396.328 1.73631 -0.140727 0
M  V30 4037 C 393.46 3.38692 -0.387354 0
M  V30 4038 H 394.653 2.34719 -1.86674 0
M  V30 4039 H 392.206 1.19959 -1.00197 0
M  V30 4040 H 392.941 3.19396 0.561845 0
M  V30 4041 H 392.726 3.75742 -1.12074 0
M  V30 4042 H 394.216 4.17016 -0.220694 0
M  V30 4043 N 394.653 0.992116 1.22453 0
M  V30 4044 C 396.064 0.702776 1.72968 0
M  V30 4045 C 396.415 -0.780399 1.80012 0
M  V30 4046 O 395.54 -1.61007 1.44589 0
M  V30 4047 C 396.135 1.26903 3.14135 0
M  V30 4048 C 394.694 1.02909 3.62059 0
M  V30 4049 C 393.841 1.38969 2.39964 0
M  V30 4050 H 396.792 1.16457 1.07812 0
M  V30 4051 H 396.813 0.647223 3.74955 0
M  V30 4052 H 396.325 2.34851 3.08977 0
M  V30 4053 H 394.426 -0.0337979 3.72585 0
M  V30 4054 H 394.539 1.69191 4.48231 0
M  V30 4055 H 392.903 0.808279 2.41535 0
M  V30 4056 H 393.686 2.4792 2.37467 0
M  V30 4057 N 396.131 -1.37776 0.765217 0
M  V30 4058 C 397.377 -2.00145 0.327072 0
M  V30 4059 C 397.71 -1.60607 -1.09175 0
M  V30 4060 O 396.985 -0.849127 -1.74986 0
M  V30 4061 C 397.268 -3.57109 0.46319 0
M  V30 4062 C 397.121 -4.06576 1.92395 0
M  V30 4063 C 398.44 -4.39888 -0.136473 0
M  V30 4064 H 395.559 -0.727113 0.120316 0
M  V30 4065 H 398.201 -1.63549 0.967039 0
M  V30 4066 H 396.351 -3.88414 -0.0816358 0
M  V30 4067 H 398.023 -3.85864 2.52798 0
M  V30 4068 H 396.266 -3.59011 2.43503 0
M  V30 4069 H 396.937 -5.15639 1.97028 0
M  V30 4070 H 399.413 -4.14803 0.328317 0
M  V30 4071 H 398.289 -5.48899 -0.0110582 0
M  V30 4072 H 398.55 -4.24758 -1.22608 0
M  V30 4073 N 397.609 -0.515225 -1.4894 0
M  V30 4074 C 398.856 0.024215 -2.02486 0
M  V30 4075 C 399.184 1.35671 -1.39368 0
M  V30 4076 O 398.439 1.88566 -0.523574 0
M  V30 4077 C 398.738 0.210595 -3.56779 0
M  V30 4078 C 398.404 -1.04569 -4.38607 0
M  V30 4079 C 397.066 -1.39002 -4.60686 0
M  V30 4080 C 399.418 -1.88008 -4.86109 0
M  V30 4081 C 396.746 -2.568 -5.27514 0
M  V30 4082 C 399.098 -3.04972 -5.54234 0
M  V30 4083 C 397.762 -3.39768 -5.74555 0
M  V30 4084 H 397.032 0.00886088 -0.740947 0
M  V30 4085 H 399.679 -0.678263 -1.79086 0
M  V30 4086 H 397.984 0.99572 -3.78936 0
M  V30 4087 H 399.681 0.642659 -3.95817 0
M  V30 4088 H 396.271 -0.767497 -4.21672 0
M  V30 4089 H 400.455 -1.62719 -4.68867 0
M  V30 4090 H 395.711 -2.8398 -5.41447 0
M  V30 4091 H 399.885 -3.69943 -5.90013 0
M  V30 4092 H 397.512 -4.31148 -6.26112 0
M  V30 4093 N 399.087 1.5561 -0.249682 0
M  V30 4094 C 400.312 2.03865 0.381305 0
M  V30 4095 C 400.737 1.12769 1.50548 0
M  V30 4096 O 400.095 0.121189 1.80895 0
M  V30 4097 C 400.143 3.50101 0.863816 0
M  V30 4098 O 399.247 3.62132 1.97318 0
M  V30 4099 H 398.588 0.658827 0.0827194 0
M  V30 4100 H 401.118 2.01105 -0.376552 0
M  V30 4101 H 401.128 3.90975 1.1663 0
M  V30 4102 H 399.803 4.1588 0.0411816 0
M  V30 4103 H 398.38 3.33155 1.67517 0
M  V30 4104 N 400.565 -0.0233959 1.57583 0
M  V30 4105 C 401.495 -1.02162 2.09965 0
M  V30 4106 C 402.476 -1.3735 1.00344 0
M  V30 4107 O 403.661 -1.46135 1.27899 0
M  V30 4108 C 400.791 -2.32081 2.58371 0
M  V30 4109 C 399.745 -2.1112 3.72307 0
M  V30 4110 C 399.071 -3.46848 4.06941 0
M  V30 4111 C 400.371 -1.49276 5.00514 0
M  V30 4112 H 402.065 -0.585557 2.93618 0
M  V30 4113 H 399.611 -0.280218 1.41247 0
M  V30 4114 H 401.564 -3.02249 2.93639 0
M  V30 4115 H 400.288 -2.77758 1.71808 0
M  V30 4116 H 398.947 -1.43384 3.37397 0
M  V30 4117 H 398.595 -3.90184 3.17436 0
M  V30 4118 H 398.295 -3.33646 4.83688 0
M  V30 4119 H 399.819 -4.18369 4.44747 0
M  V30 4120 H 401.233 -2.09368 5.33702 0
M  V30 4121 H 399.63 -1.46632 5.8191 0
M  V30 4122 H 400.7 -0.459217 4.82721 0
M  V30 4123 N 402.043 -1.548 -0.295768 0
M  V30 4124 C 403.006 -1.85363 -1.34808 0
M  V30 4125 C 404.006 -0.726817 -1.43436 0
M  V30 4126 O 405.196 -0.995088 -1.42981 0
M  V30 4127 C 402.328 -2.03859 -2.73229 0
M  V30 4128 H 403.521 -2.7941 -1.08949 0
M  V30 4129 H 401.074 -1.46942 -0.532702 0
M  V30 4130 H 401.809 -1.12117 -3.04303 0
M  V30 4131 H 401.594 -2.8588 -2.68356 0
M  V30 4132 H 403.084 -2.28857 -3.49305 0
M  V30 4133 N 403.521 0.559213 -1.47345 0
M  V30 4134 C 404.471 1.66192 -1.5609 0
M  V30 4135 C 405.455 1.55323 -0.419957 0
M  V30 4136 O 406.647 1.63839 -0.669762 0
M  V30 4137 C 403.776 3.0497 -1.57634 0
M  V30 4138 C 402.862 3.2105 -2.77106 0
M  V30 4139 N 403.253 3.07203 -4.01821 0
M  V30 4140 C 401.551 3.52046 -2.73825 0
M  V30 4141 C 402.252 3.25919 -4.81821 0
M  V30 4142 N 401.228 3.52161 -4.14106 0
M  V30 4143 H 405.03 1.54052 -2.5029 0
M  V30 4144 H 402.544 0.763914 -1.43311 0
M  V30 4145 H 404.541 3.84142 -1.61989 0
M  V30 4146 H 403.201 3.18224 -0.645281 0
M  V30 4147 H 404.212 2.84572 -4.32711 0
M  V30 4148 H 400.889 3.71839 -1.89848 0
M  V30 4149 H 402.279 3.20198 -5.90697 0
M  V30 4150 N 404.999 1.35443 0.805782 0
M  V30 4151 C 406.415 1.15499 1.10146 0
M  V30 4152 C 406.615 -0.0319975 2.01475 0
M  V30 4153 O 405.671 -0.70236 2.42535 0
M  V30 4154 C 406.984 2.45833 1.73166 0
M  V30 4155 C 408.532 2.52047 1.85583 0
M  V30 4156 C 409.007 3.82427 2.52019 0
M  V30 4157 N 410.498 3.83682 2.59504 0
M  V30 4158 C 411.233 4.81294 3.11679 0
M  V30 4159 N 410.729 5.89294 3.64287 0
M  V30 4160 N 412.522 4.6873 3.1024 0
M  V30 4161 H 404.673 2.11469 0.198678 0
M  V30 4162 H 406.936 0.93594 0.150731 0
M  V30 4163 H 406.642 3.32874 1.13526 0
M  V30 4164 H 406.516 2.6044 2.72857 0
M  V30 4165 H 408.903 1.65435 2.44367 0
M  V30 4166 H 408.984 2.41354 0.847455 0
M  V30 4167 H 408.628 4.69437 1.93885 0
M  V30 4168 H 408.558 3.90409 3.53395 0
M  V30 4169 H 411.049 3.05648 2.22234 0
M  V30 4170 H 411.362 6.59768 4.02401 0
M  V30 4171 H 409.707 5.92985 3.62483 0
M  V30 4172 H 412.898 3.83496 2.68419 0
M  V30 4173 H 413.071 5.44965 3.50596 0
M  V30 4174 N 406.477 -1.02803 1.19454 0
M  V30 4175 C 407.723 -1.76598 1.0092 0
M  V30 4176 C 408.078 -1.86939 -0.455142 0
M  V30 4177 O 407.371 -1.37575 -1.33355 0
M  V30 4178 C 407.565 -3.18941 1.6128 0
M  V30 4179 C 407.394 -3.22476 3.13431 0
M  V30 4180 C 406.164 -3.30375 3.82336 0
M  V30 4181 C 408.362 -3.09451 4.10785 0
M  V30 4182 N 406.344 -3.23292 5.21877 0
M  V30 4183 C 407.715 -3.10012 5.36929 0
M  V30 4184 C 409.77 -2.93585 4.02135 0
M  V30 4185 C 408.473 -2.96334 6.55423 0
M  V30 4186 C 410.499 -2.81256 5.20239 0
M  V30 4187 C 409.861 -2.82472 6.45282 0
M  V30 4188 H 405.96 -0.657447 0.423424 0
M  V30 4189 H 408.544 -1.22369 1.5144 0
M  V30 4190 H 406.715 -3.71489 1.1336 0
M  V30 4191 H 408.447 -3.81102 1.36173 0
M  V30 4192 H 405.202 -3.3663 3.33132 0
M  V30 4193 H 405.626 -3.23156 5.94894 0
M  V30 4194 H 410.268 -2.91466 3.0628 0
M  V30 4195 H 407.986 -2.97203 7.51463 0
M  V30 4196 H 411.572 -2.70014 5.15348 0
M  V30 4197 H 410.452 -2.73036 7.35133 0
M  V30 4198 N 407.956 -0.998596 -1.21925 0
M  V30 4199 C 408.886 -0.573688 -2.26343 0
M  V30 4200 C 409.867 0.402296 -1.65274 0
M  V30 4201 O 411.052 0.291683 -1.91997 0
M  V30 4202 C 408.182 0.106839 -3.47136 0
M  V30 4203 C 407.136 -0.788269 -4.20678 0
M  V30 4204 C 406.462 0.0254927 -5.34694 0
M  V30 4205 C 407.762 -2.08784 -4.78755 0
M  V30 4206 H 409.456 -1.44651 -2.62138 0
M  V30 4207 H 407.002 -0.696975 -1.26009 0
M  V30 4208 H 408.955 0.415531 -4.19346 0
M  V30 4209 H 407.679 1.01424 -3.10452 0
M  V30 4210 H 406.338 -1.08069 -3.50309 0
M  V30 4211 H 405.986 0.933989 -4.94253 0
M  V30 4212 H 405.686 -0.570437 -5.84825 0
M  V30 4213 H 407.21 0.328147 -6.09718 0
M  V30 4214 H 408.624 -1.84272 -5.42878 0
M  V30 4215 H 407.021 -2.63307 -5.39249 0
M  V30 4216 H 408.091 -2.76284 -3.98491 0
M  V30 4217 N 409.434 1.37368 -0.772513 0
M  V30 4218 C 410.664 2.03647 -0.348082 0
M  V30 4219 C 411.072 1.58392 1.03482 0
M  V30 4220 O 410.415 0.760921 1.672 0
M  V30 4221 C 410.477 3.58131 -0.313404 0
M  V30 4222 C 410.141 4.2652 -1.64102 0
M  V30 4223 C 411.138 4.50587 -2.5936 0
M  V30 4224 C 408.823 4.64335 -1.91567 0
M  V30 4225 C 410.817 5.11526 -3.80289 0
M  V30 4226 C 408.504 5.24996 -3.12766 0
M  V30 4227 C 409.502 5.48529 -4.06946 0
M  V30 4228 O 409.19 6.07921 -5.26011 0
M  V30 4229 H 408.922 0.660538 -0.143753 0
M  V30 4230 H 411.476 1.76669 -1.04772 0
M  V30 4231 H 409.706 3.84159 0.442617 0
M  V30 4232 H 411.395 4.05813 0.0840613 0
M  V30 4233 H 412.161 4.21784 -2.39423 0
M  V30 4234 H 408.04 4.45353 -1.19088 0
M  V30 4235 H 411.584 5.29811 -4.53813 0
M  V30 4236 H 407.481 5.53223 -3.32588 0
M  V30 4237 H 408.249 6.26398 -5.26847 0
M  V30 4238 N 410.912 0.523116 1.48665 0
M  V30 4239 C 411.875 -0.232592 2.28017 0
M  V30 4240 C 412.875 -0.874021 1.34972 0
M  V30 4241 O 414.065 -0.735132 1.57929 0
M  V30 4242 C 411.197 -1.33586 3.13636 0
M  V30 4243 H 412.39 0.464008 2.96289 0
M  V30 4244 H 409.943 0.278816 1.53793 0
M  V30 4245 H 410.678 -2.06593 2.4998 0
M  V30 4246 H 410.463 -0.881125 3.82071 0
M  V30 4247 H 411.953 -1.86759 3.73511 0
M  V30 4248 N 412.39 -1.55475 0.257931 0
M  V30 4249 C 413.806 -1.59307 -0.0966563 0
M  V30 4250 C 414.006 -1.27514 -1.5602 0
M  V30 4251 O 413.062 -1.02774 -2.30637 0
M  V30 4252 C 414.375 -2.99552 0.262481 0
M  V30 4253 C 415.923 -3.1231 0.207683 0
M  V30 4254 C 416.398 -4.54793 0.541012 0
M  V30 4255 N 417.889 -4.6058 0.491921 0
M  V30 4256 C 418.624 -5.68825 0.722857 0
M  V30 4257 N 418.12 -6.85287 1.0175 0
M  V30 4258 N 419.913 -5.58296 0.652815 0
M  V30 4259 H 412.064 -1.74409 1.21224 0
M  V30 4260 H 414.327 -0.812424 0.48854 0
M  V30 4261 H 414.033 -3.27593 1.27967 0
M  V30 4262 H 413.907 -3.75019 -0.40508 0
M  V30 4263 H 416.294 -2.84044 -0.800195 0
M  V30 4264 H 416.375 -2.39095 0.909255 0
M  V30 4265 H 416.019 -4.83783 1.5465 0
M  V30 4266 H 415.949 -5.26285 -0.18216 0
M  V30 4267 H 418.44 -3.7691 0.273366 0
M  V30 4268 H 418.753 -7.63725 1.18084 0
M  V30 4269 H 417.098 -6.86945 1.05509 0
M  V30 4270 H 420.289 -4.66189 0.422592 0
M  V30 4271 H 420.462 -6.42582 0.836182 0
M  V30 4272 N 413.868 0.0150385 -1.57593 0
M  V30 4273 C 415.279 0.559832 -1.78109 0
M  V30 4274 C 415.63 1.74814 -0.890756 0
M  V30 4275 O 414.755 2.16216 -0.0892482 0
M  V30 4276 C 415.35 1.02238 -3.23006 0
M  V30 4277 C 413.909 1.51258 -3.44671 0
M  V30 4278 C 413.056 0.456955 -2.73509 0
M  V30 4279 H 416.007 -0.211169 -1.57289 0
M  V30 4280 H 416.028 1.88912 -3.30292 0
M  V30 4281 H 415.54 0.157302 -3.87781 0
M  V30 4282 H 413.641 2.39905 -2.8509 0
M  V30 4283 H 413.754 1.55042 -4.5332 0
M  V30 4284 H 412.118 0.915196 -2.37689 0
M  V30 4285 H 412.901 -0.398896 -3.40975 0
M  V30 4286 N 415.346 1.54954 0.287554 0
M  V30 4287 C 416.309 1.86076 1.33823 0
M  V30 4288 C 417.309 0.734414 1.43049 0
M  V30 4289 O 418.499 1.00266 1.42452 0
M  V30 4290 C 415.631 2.05305 2.72144 0
M  V30 4291 H 416.824 2.79984 1.07465 0
M  V30 4292 H 414.377 1.47223 0.524902 0
M  V30 4293 H 415.112 1.1373 3.03704 0
M  V30 4294 H 414.897 2.873 2.66836 0
M  V30 4295 H 416.387 2.30706 3.48087 0
M  V30 4296 N 416.824 -0.551391 1.4764 0
M  V30 4297 C 418.072 -1.30572 1.54258 0
M  V30 4298 C 418.393 -1.93877 0.208963 0
M  V30 4299 O 417.663 -1.80234 -0.767619 0
M  V30 4300 H 416.243 -0.484894 0.568231 0
M  V30 4301 H 418.905 -0.643402 1.83974 0
M  V30 4302 H 418.001 -2.09621 2.31226 0
M  V30 4303 N 418.302 -1.35869 -0.798587 0
M  V30 4304 C 419.265 -1.29307 -1.89242 0
M  V30 4305 C 420.265 -0.202747 -1.59517 0
M  V30 4306 O 421.455 -0.456957 -1.681 0
M  V30 4307 C 418.587 -1.00229 -3.25833 0
M  V30 4308 H 419.78 -2.26576 -1.96478 0
M  V30 4309 H 417.333 -1.20509 -0.995358 0
M  V30 4310 H 418.068 -0.033801 -3.24282 0
M  V30 4311 H 417.853 -1.79121 -3.48795 0
M  V30 4312 H 419.343 -0.98219 -4.05885 0
M  V30 4313 N 419.78 1.02168 -1.19998 0
M  V30 4314 C 420.73 2.08969 -0.911921 0
M  V30 4315 C 421.714 1.60404 0.12621 0
M  V30 4316 O 422.906 1.76817 -0.0804706 0
M  V30 4317 C 420.035 3.402 -0.460277 0
M  V30 4318 C 419.121 3.9548 -1.53155 0
M  V30 4319 N 419.512 4.24332 -2.75275 0
M  V30 4320 C 417.81 4.23572 -1.39653 0
M  V30 4321 C 418.511 4.68834 -3.44339 0
M  V30 4322 N 417.487 4.70804 -2.71744 0
M  V30 4323 H 421.289 2.29178 -1.83997 0
M  V30 4324 H 418.803 1.20094 -1.09322 0
M  V30 4325 H 420.8 4.16235 -0.235337 0
M  V30 4326 H 419.46 3.21408 0.4612 0
M  V30 4327 H 420.471 4.13393 -3.11973 0
M  V30 4328 H 417.148 4.14005 -0.539067 0
M  V30 4329 H 418.538 5.00019 -4.4881 0
M  V30 4330 N 421.258 1.00505 1.21394 0
M  V30 4331 C 422.168 0.574806 2.27449 0
M  V30 4332 C 423.184 -0.382206 1.6975 0
M  V30 4333 O 424.36 -0.246027 1.99892 0
M  V30 4334 C 421.425 -0.0917414 3.46579 0
M  V30 4335 C 420.486 0.909758 4.1955 0
M  V30 4336 C 419.719 0.274924 5.32991 0
M  V30 4337 O 419.942 -0.928254 5.62796 0
M  V30 4338 O 418.876 0.985877 5.93771 0
M  V30 4339 H 422.702 1.45744 2.66444 0
M  V30 4340 H 420.287 0.773923 1.27792 0
M  V30 4341 H 422.169 -0.464551 4.18832 0
M  V30 4342 H 420.844 -0.948755 3.09484 0
M  V30 4343 H 419.751 1.33372 3.49518 0
M  V30 4344 H 421.084 1.73636 4.60555 0
M  V30 4345 N 422.737 -1.36956 0.779787 0
M  V30 4346 C 423.983 -2.00237 0.357324 0
M  V30 4347 C 424.338 -1.60787 -1.05666 0
M  V30 4348 O 423.631 -0.847836 -1.71821 0
M  V30 4349 C 423.825 -3.54585 0.447686 0
M  V30 4350 C 423.654 -4.09025 1.86891 0
M  V30 4351 C 422.424 -4.39612 2.49138 0
M  V30 4352 C 424.622 -4.29461 2.82963 0
M  V30 4353 N 422.604 -4.79816 3.82949 0
M  V30 4354 C 423.975 -4.72363 4.01588 0
M  V30 4355 C 426.03 -4.1161 2.80145 0
M  V30 4356 C 424.733 -4.99284 5.17791 0
M  V30 4357 C 426.759 -4.39672 3.95528 0
M  V30 4358 C 426.121 -4.82822 5.12896 0
M  V30 4359 H 422.22 -0.76148 0.177968 0
M  V30 4360 H 424.804 -1.6613 1.01533 0
M  V30 4361 H 422.975 -3.87982 -0.180184 0
M  V30 4362 H 424.707 -4.047 0.0023955 0
M  V30 4363 H 421.462 -4.28975 2.00693 0
M  V30 4364 H 421.886 -5.04216 4.51769 0
M  V30 4365 H 426.528 -3.77415 1.90572 0
M  V30 4366 H 424.246 -5.32365 6.07958 0
M  V30 4367 H 427.832 -4.27441 3.94697 0
M  V30 4368 H 426.712 -5.04118 6.00695 0
M  V30 4369 N 424.215 -0.530993 -1.48385 0
M  V30 4370 C 425.463 0.00273189 -2.021 0
M  V30 4371 C 425.784 1.34672 -1.41027 0
M  V30 4372 O 425.054 1.8724 -0.576012 0
M  V30 4373 H 423.634 0.00399774 -0.746989 0
M  V30 4374 H 426.296 -0.695054 -1.82085 0
M  V30 4375 H 425.392 0.11031 -3.11905 0
M  V30 4376 N 425.693 1.55336 -0.266172 0
M  V30 4377 C 426.656 2.20878 0.612001 0
M  V30 4378 C 427.656 1.18388 1.08816 0
M  V30 4379 O 428.846 1.4335 0.989774 0
M  V30 4380 C 425.978 2.86765 1.84332 0
M  V30 4381 H 427.171 2.99873 0.0398718 0
M  V30 4382 H 424.724 1.56291 -0.0167309 0
M  V30 4383 H 425.459 2.11759 2.45619 0
M  V30 4384 H 425.244 3.61862 1.5099 0
M  V30 4385 H 426.734 3.36867 2.46801 0
M  V30 4386 N 427.171 -0.0066808 1.57599 0
M  V30 4387 C 428.101 -0.999296 2.11036 0
M  V30 4388 C 429.082 -1.36278 1.01795 0
M  V30 4389 O 430.267 -1.4477 1.29442 0
M  V30 4390 C 427.397 -2.29328 2.60818 0
M  V30 4391 C 426.351 -2.07159 3.74525 0
M  V30 4392 C 425.677 -3.42512 4.10596 0
M  V30 4393 C 426.977 -1.43959 5.02069 0
M  V30 4394 H 428.671 -0.554382 2.94223 0
M  V30 4395 H 426.217 -0.265221 1.41536 0
M  V30 4396 H 428.17 -2.99117 2.96828 0
M  V30 4397 H 426.894 -2.7592 1.74745 0
M  V30 4398 H 425.553 -1.39797 3.38899 0
M  V30 4399 H 425.201 -3.86795 3.21556 0
M  V30 4400 H 424.901 -3.28498 4.87199 0
M  V30 4401 H 426.425 -4.13628 4.4916 0
M  V30 4402 H 427.839 -2.03696 5.35893 0
M  V30 4403 H 426.236 -1.40452 5.83432 0
M  V30 4404 H 427.306 -0.407992 4.83181 0
M  V30 4405 N 428.649 -1.55105 -0.279332 0
M  V30 4406 C 429.874 -1.7976 -1.03446 0
M  V30 4407 C 430.299 -0.565952 -1.79384 0
M  V30 4408 O 429.657 0.484259 -1.74713 0
M  V30 4409 C 429.705 -3.0179 -1.97371 0
M  V30 4410 O 428.809 -2.76432 -3.06038 0
M  V30 4411 H 428.15 -0.594334 -0.29608 0
M  V30 4412 H 430.68 -2.02235 -0.310165 0
M  V30 4413 H 430.69 -3.30351 -2.39441 0
M  V30 4414 H 429.365 -3.91085 -1.4151 0
M  V30 4415 H 427.942 -2.58949 -2.68328 0
M  V30 4416 N 430.127 0.543554 -1.4793 0
M  V30 4417 C 431.404 1.30458 -1.4574 0
M  V30 4418 C 431.784 2.1048 -0.161692 0
M  V30 4419 O 431.132 2.11831 0.856734 0
M  V30 4420 C 431.342 2.19754 -2.71126 0
M  V30 4421 C 432.69 2.80334 -3.18901 0
M  V30 4422 O 433.714 2.30049 -2.71948 0
M  V30 4423 O 432.573 3.71766 -4.00565 0
M  V30 4424 H 429.667 0.588117 -0.581418 0
M  V30 4425 H 432.213 0.561328 -1.60147 0
M  V30 4426 H 430.985 1.60316 -3.56952 0
M  V30 4427 H 430.608 3.01351 -2.59371 0
M  V30 4428 N 431.605 1.3629 0.791371 0
M  V30 4429 C 432.568 1.30309 1.88553 0
M  V30 4430 C 433.568 0.211204 1.59407 0
M  V30 4431 O 434.758 0.465865 1.67855 0
M  V30 4432 C 431.89 1.01956 3.25297 0
M  V30 4433 H 433.083 2.27614 1.95273 0
M  V30 4434 H 430.636 1.21035 0.988953 0
M  V30 4435 H 431.371 0.050998 3.2426 0
M  V30 4436 H 431.156 1.80968 3.4784 0
M  V30 4437 H 432.646 1.0037 4.05359 0
M  V30 4438 N 433.083 -1.0153 1.20538 0
M  V30 4439 C 434.36 -1.72327 0.925343 0
M  V30 4440 C 434.74 -2.03383 -0.565547 0
M  V30 4441 O 434.088 -1.69934 -1.52757 0
M  V30 4442 C 434.298 -2.9902 1.79967 0
M  V30 4443 C 435.646 -3.72258 2.04228 0
M  V30 4444 O 436.67 -3.08979 1.77231 0
M  V30 4445 O 435.529 -4.86053 2.4983 0
M  V30 4446 H 432.623 -0.751099 0.346092 0
M  V30 4447 H 435.169 -1.07366 1.31417 0
M  V30 4448 H 433.941 -2.72402 2.80915 0
M  V30 4449 H 433.564 -3.71721 1.41099 0
M  V30 4450 N 434.561 -1.01147 -1.20859 0
M  V30 4451 C 435.491 -0.597663 -2.25722 0
M  V30 4452 C 436.472 0.384744 -1.65692 0
M  V30 4453 O 437.657 0.271303 -1.92296 0
M  V30 4454 C 434.787 0.0700149 -3.47229 0
M  V30 4455 C 433.741 -0.832843 -4.19819 0
M  V30 4456 C 433.067 -0.0312202 -5.34691 0
M  V30 4457 C 434.367 -2.1385 -4.76514 0
M  V30 4458 H 436.061 -1.47423 -2.60589 0
M  V30 4459 H 433.607 -0.710301 -1.25263 0
M  V30 4460 H 435.56 0.37103 -4.19763 0
M  V30 4461 H 434.284 0.981259 -3.11511 0
M  V30 4462 H 432.943 -1.11778 -3.49144 0
M  V30 4463 H 432.591 0.881515 -4.95215 0
M  V30 4464 H 432.291 -0.632434 -5.84187 0
M  V30 4465 H 433.815 0.26346 -6.10031 0
M  V30 4466 H 435.229 -1.9002 -5.40893 0
M  V30 4467 H 433.626 -2.69012 -5.36426 0
M  V30 4468 H 434.696 -2.80495 -3.95538 0
M  V30 4469 N 436.039 1.36541 -0.78704 0
M  V30 4470 C 437.287 1.98911 -0.357633 0
M  V30 4471 C 437.608 1.62778 1.07371 0
M  V30 4472 O 436.878 0.900612 1.73971 0
M  V30 4473 H 435.458 0.735734 -0.129246 0
M  V30 4474 H 438.12 1.66776 -1.00855 0
M  V30 4475 H 437.216 3.08874 -0.447549 0
M  V30 4476 N 437.518 0.538854 1.48102 0
M  V30 4477 C 438.767 0.0059532 2.01699 0
M  V30 4478 C 439.08 -1.34476 1.42041 0
M  V30 4479 O 440.286 -1.96653 1.87189 0
M  V30 4480 C 438.742 -0.0397627 3.59878 0
M  V30 4481 C 438.35 1.30659 4.28523 0
M  V30 4482 C 440.094 -0.521024 4.2129 0
M  V30 4483 C 438.001 1.22098 5.78659 0
M  V30 4484 H 436.931 -0.00154456 0.753998 0
M  V30 4485 H 439.582 0.683963 1.70277 0
M  V30 4486 H 437.964 -0.783037 3.88181 0
M  V30 4487 H 439.138 2.06613 4.11883 0
M  V30 4488 H 437.453 1.7243 3.79021 0
M  V30 4489 H 440.05 -0.603184 5.31287 0
M  V30 4490 H 440.393 -1.52885 3.8721 0
M  V30 4491 H 440.926 0.166834 3.9745 0
M  V30 4492 H 437.665 2.20424 6.17328 0
M  V30 4493 H 437.185 0.50295 5.97688 0
M  V30 4494 H 438.864 0.915345 6.40492 0
M  V30 4495 N 438.996 -1.55193 0.274407 0
M  V30 4496 C 440.226 -2.03692 -0.345442 0
M  V30 4497 C 440.634 -1.15224 -1.50067 0
M  V30 4498 O 439.977 -0.164749 -1.8296 0
M  V30 4499 C 440.039 -3.48325 -0.88939 0
M  V30 4500 C 439.703 -4.56794 0.137115 0
M  V30 4501 C 440.7 -5.11028 0.956378 0
M  V30 4502 C 438.385 -5.01568 0.27115 0
M  V30 4503 C 440.379 -6.08552 1.89587 0
M  V30 4504 C 438.066 -5.98918 1.21412 0
M  V30 4505 C 439.064 -6.52291 2.02498 0
M  V30 4506 O 438.752 -7.47738 2.952 0
M  V30 4507 H 438.484 -0.670893 -0.0829332 0
M  V30 4508 H 441.038 -2.01387 0.404056 0
M  V30 4509 H 439.268 -3.47867 -1.68895 0
M  V30 4510 H 440.957 -3.80167 -1.42225 0
M  V30 4511 H 441.723 -4.7725 0.863559 0
M  V30 4512 H 437.602 -4.5967 -0.349987 0
M  V30 4513 H 441.146 -6.50137 2.52918 0
M  V30 4514 H 437.043 -6.32114 1.30776 0
M  V30 4515 H 437.811 -7.65451 2.89874 0
M  V30 4516 N 440.474 -0.00167713 -1.576 0
M  V30 4517 C 441.72 0.683832 -1.90923 0
M  V30 4518 C 442.053 1.7333 -0.875799 0
M  V30 4519 O 441.328 1.94215 0.10525 0
M  V30 4520 C 441.611 1.32543 -3.3482 0
M  V30 4521 C 441.464 0.287387 -4.48881 0
M  V30 4522 C 442.783 2.25114 -3.78169 0
M  V30 4523 H 439.902 0.247125 -0.694333 0
M  V30 4524 H 442.544 -0.0533149 -1.89925 0
M  V30 4525 H 440.694 1.95372 -3.35801 0
M  V30 4526 H 442.366 -0.341346 -4.60035 0
M  V30 4527 H 440.609 -0.39017 -4.32042 0
M  V30 4528 H 441.28 0.775393 -5.46527 0
M  V30 4529 H 443.756 1.723 -3.7875 0
M  V30 4530 H 442.632 2.66971 -4.79602 0
M  V30 4531 H 442.893 3.13092 -3.12131 0
M  V30 4532 N 441.952 1.55251 0.271103 0
M  V30 4533 C 443.192 1.77698 1.01008 0
M  V30 4534 C 443.556 0.567246 1.83429 0
M  V30 4535 O 444.757 0.670013 2.60316 0
M  V30 4536 C 443.028 3.04715 1.86772 0
M  V30 4537 S 444.587 3.48289 2.66909 0
M  V30 4538 H 441.405 0.624343 0.340172 0
M  V30 4539 H 444.007 1.9348 0.280315 0
M  V30 4540 H 442.711 3.90853 1.25149 0
M  V30 4541 H 442.242 2.91604 2.64066 0
M  V30 4542 H 444.257 3.07712 3.89266 0
M  V30 4543 N 443.43 -0.535701 1.48216 0
M  V30 4544 C 444.678 -1.28928 1.55634 0
M  V30 4545 C 444.999 -1.93645 0.229514 0
M  V30 4546 O 444.269 -1.81038 -0.74846 0
M  V30 4547 H 442.849 -0.47884 0.573342 0
M  V30 4548 H 445.511 -0.623853 1.84646 0
M  V30 4549 H 444.607 -2.07157 2.33436 0
M  V30 4550 N 444.908 -1.36708 -0.784132 0
M  V30 4551 C 446.185 -1.21776 -1.53069 0
M  V30 4552 C 446.565 0.193876 -2.10208 0
M  V30 4553 O 445.913 1.20012 -1.94446 0
M  V30 4554 C 446.123 -2.30395 -2.62143 0
M  V30 4555 C 447.471 -2.67325 -3.29882 0
M  V30 4556 O 448.495 -2.29478 -2.7243 0
M  V30 4557 O 447.354 -3.32485 -4.33724 0
M  V30 4558 H 444.448 -0.474459 -0.677361 0
M  V30 4559 H 446.994 -1.48454 -0.82216 0
M  V30 4560 H 445.766 -3.2498 -2.17953 0
M  V30 4561 H 445.389 -2.05112 -3.40609 0
M  V30 4562 N 446.386 1.0089 -1.21074 0
M  V30 4563 C 447.632 1.7497 -1.03717 0
M  V30 4564 C 447.987 1.8764 0.425344 0
M  V30 4565 O 447.28 1.39679 1.3115 0
M  V30 4566 C 447.474 3.16335 -1.66334 0
M  V30 4567 C 447.303 3.17449 -3.18522 0
M  V30 4568 C 446.073 3.2425 -3.87543 0
M  V30 4569 C 448.271 3.02877 -4.15656 0
M  V30 4570 N 446.253 3.14949 -5.26954 0
M  V30 4571 C 447.624 3.0143 -5.41793 0
M  V30 4572 C 449.679 2.8715 -4.06755 0
M  V30 4573 C 448.382 2.85869 -6.60054 0
M  V30 4574 C 450.408 2.72944 -5.24648 0
M  V30 4575 C 449.77 2.72171 -6.49694 0
M  V30 4576 H 445.869 0.650627 -0.43383 0
M  V30 4577 H 448.453 1.19944 -1.53367 0
M  V30 4578 H 446.624 3.69638 -1.19256 0
M  V30 4579 H 448.356 3.78888 -1.42219 0
M  V30 4580 H 445.111 3.31288 -3.38446 0
M  V30 4581 H 445.535 3.13651 -5.9996 0
M  V30 4582 H 450.177 2.86557 -3.10878 0
M  V30 4583 H 447.895 2.8521 -7.56096 0
M  V30 4584 H 451.481 2.61782 -5.19578 0
M  V30 4585 H 450.361 2.61307 -7.39384 0
M  V30 4586 N 447.864 1.01787 1.20321 0
M  V30 4587 C 449.104 0.716493 1.91431 0
M  V30 4588 C 449.468 -0.740352 1.77152 0
M  V30 4589 O 450.669 -1.1543 2.42754 0
M  V30 4590 C 448.94 1.14169 3.38674 0
M  V30 4591 S 450.499 0.962482 4.28114 0
M  V30 4592 H 447.317 0.261175 0.661293 0
M  V30 4593 H 449.919 1.30539 1.45533 0
M  V30 4594 H 448.623 2.19784 3.46588 0
M  V30 4595 H 448.154 0.545621 3.89598 0
M  V30 4596 H 450.169 -0.133253 4.96021 0
M  V30 4597 N 449.342 -1.36122 0.79427 0
M  V30 4598 C 450.272 -2.32551 0.210328 0
M  V30 4599 C 451.253 -1.56884 -0.657386 0
M  V30 4600 O 452.438 -1.85014 -0.590207 0
M  V30 4601 C 449.568 -3.41128 -0.651819 0
M  V30 4602 C 448.522 -4.27842 0.116395 0
M  V30 4603 C 447.848 -5.2763 -0.86666 0
M  V30 4604 C 449.148 -5.05647 1.30837 0
M  V30 4605 H 450.842 -2.81636 1.01594 0
M  V30 4606 H 448.388 -1.35407 0.489981 0
M  V30 4607 H 450.341 -4.07581 -1.07031 0
M  V30 4608 H 449.065 -2.90622 -1.49019 0
M  V30 4609 H 447.724 -3.62952 0.515915 0
M  V30 4610 H 447.372 -4.73395 -1.70019 0
M  V30 4611 H 447.072 -5.86514 -0.35705 0
M  V30 4612 H 448.596 -5.96955 -1.28361 0
M  V30 4613 H 450.01 -5.65113 0.965393 0
M  V30 4614 H 448.407 -5.73967 1.75161 0
M  V30 4615 H 449.477 -4.37006 2.10128 0
M  V30 4616 N 450.82 -0.546701 -1.47814 0
M  V30 4617 C 452.045 -0.021268 -2.07389 0
M  V30 4618 C 452.47 1.25822 -1.39822 0
M  V30 4619 O 451.828 1.75111 -0.46968 0
M  V30 4620 C 451.876 0.168502 -3.60206 0
M  V30 4621 O 450.98 1.23347 -3.93522 0
M  V30 4622 H 450.321 -0.0466108 -0.662362 0
M  V30 4623 H 452.851 -0.759387 -1.89985 0
M  V30 4624 H 452.861 0.385982 -4.0617 0
M  V30 4625 H 451.536 -0.766075 -4.08784 0
M  V30 4626 H 450.113 0.997319 -3.59316 0
M  V30 4627 N 452.299 1.55045 -0.282633 0
M  V30 4628 C 453.547 1.99365 0.331334 0
M  V30 4629 C 453.868 1.1725 1.55812 0
M  V30 4630 O 453.138 0.263871 1.94115 0
M  V30 4631 H 451.718 0.736397 0.125414 0
M  V30 4632 H 454.38 1.90964 -0.389711 0
M  V30 4633 H 453.476 3.0596 0.616036 0
M  V30 4634 N 453.777 0.010035 1.57597 0
M  V30 4635 C 455.193 -0.346164 1.55801 0
M  V30 4636 C 455.393 -1.74144 1.01371 0
M  V30 4637 O 454.449 -2.43938 0.651968 0
M  V30 4638 C 455.762 -0.212216 2.9995 0
M  V30 4639 C 457.31 -0.286409 3.11687 0
M  V30 4640 C 457.785 -0.18147 4.5764 0
M  V30 4641 N 459.276 -0.239056 4.62583 0
M  V30 4642 C 460.011 -0.181351 5.73113 0
M  V30 4643 N 459.507 -0.073661 6.92761 0
M  V30 4644 N 461.3 -0.233949 5.61613 0
M  V30 4645 H 453.451 0.922657 1.91313 0
M  V30 4646 H 455.714 0.354595 0.879185 0
M  V30 4647 H 455.42 0.748169 3.4365 0
M  V30 4648 H 455.294 -0.990224 3.6397 0
M  V30 4649 H 457.681 -1.23724 2.67911 0
M  V30 4650 H 457.762 0.521645 2.50425 0
M  V30 4651 H 457.406 0.765863 5.02093 0
M  V30 4652 H 457.336 -1.00814 5.1686 0
M  V30 4653 H 459.827 -0.32321 3.76515 0
M  V30 4654 H 460.14 -0.0358003 7.72792 0
M  V30 4655 H 458.485 -0.0391461 6.94989 0
M  V30 4656 H 461.676 -0.316347 4.6703 0
M  V30 4657 H 461.849 -0.185514 6.47734 0
M  V30 4658 N 455.255 -1.55392 -0.262866 0
M  V30 4659 C 456.501 -1.76737 -0.99458 0
M  V30 4660 C 456.834 -0.572453 -1.85571 0
M  V30 4661 O 456.109 0.429732 -1.89693 0
M  V30 4662 C 456.392 -3.07824 -1.8686 0
M  V30 4663 C 456.245 -4.3769 -1.03672 0
M  V30 4664 C 457.564 -3.35021 -2.85393 0
M  V30 4665 H 454.683 -0.643005 -0.360157 0
M  V30 4666 H 457.325 -1.88126 -0.266216 0
M  V30 4667 H 455.475 -2.98245 -2.48962 0
M  V30 4668 H 457.147 -4.59238 -0.43563 0
M  V30 4669 H 455.39 -4.32461 -0.340513 0
M  V30 4670 H 456.061 -5.25759 -1.6817 0
M  V30 4671 H 458.537 -3.44458 -2.33426 0
M  V30 4672 H 457.413 -4.27989 -3.43681 0
M  V30 4673 H 457.674 -2.55153 -3.61039 0
M  V30 4674 N 456.733 0.527833 -1.48498 0
M  V30 4675 C 457.643 1.65907 -1.65867 0
M  V30 4676 C 458.659 1.6537 -0.541192 0
M  V30 4677 O 459.835 1.84282 -0.812534 0
M  V30 4678 C 456.9 3.02364 -1.69637 0
M  V30 4679 C 455.961 3.1374 -2.93028 0
M  V30 4680 C 455.194 4.43688 -2.96609 0
M  V30 4681 O 455.417 5.30913 -2.08538 0
M  V30 4682 O 454.351 4.59475 -3.88802 0
M  V30 4683 H 458.177 1.5419 -2.61647 0
M  V30 4684 H 455.762 0.701163 -1.31924 0
M  V30 4685 H 457.644 3.83515 -1.74625 0
M  V30 4686 H 456.319 3.14401 -0.770312 0
M  V30 4687 H 455.226 2.31877 -2.93571 0
M  V30 4688 H 456.559 3.06621 -3.85026 0
M  V30 4689 N 458.211 1.37122 0.776871 0
M  V30 4690 C 459.459 1.31787 1.53221 0
M  V30 4691 C 459.78 -0.0987589 1.9475 0
M  V30 4692 O 459.05 -1.0417 1.65908 0
M  V30 4693 H 457.63 0.484839 0.568278 0
M  V30 4694 H 460.292 1.71556 0.924917 0
M  V30 4695 H 459.388 1.95355 2.43398 0
M  V30 4696 N 459.689 -1.00246 1.21608 0
M  V30 4697 C 460.652 -2.07233 0.979133 0
M  V30 4698 C 461.652 -1.6072 -0.0508219 0
M  V30 4699 O 462.842 -1.73196 0.186712 0
M  V30 4700 C 459.974 -3.37546 0.477016 0
M  V30 4701 H 461.167 -2.29687 1.92831 0
M  V30 4702 H 458.72 -1.17261 1.03342 0
M  V30 4703 H 459.455 -3.20773 -0.476966 0
M  V30 4704 H 459.24 -3.72638 1.21997 0
M  V30 4705 H 460.73 -4.16285 0.331181 0
M  V30 4706 N 461.167 -1.02423 -1.1978 0
M  V30 4707 C 462.413 -0.72878 -1.89896 0
M  V30 4708 C 462.768 0.734248 -1.77839 0
M  V30 4709 O 462.061 1.52733 -1.15685 0
M  V30 4710 C 462.255 -1.1088 -3.39765 0
M  V30 4711 C 462.084 -2.60722 -3.66407 0
M  V30 4712 C 460.854 -3.27623 -3.84696 0
M  V30 4713 C 463.052 -3.58924 -3.68345 0
M  V30 4714 N 461.034 -4.66617 -3.98926 0
M  V30 4715 C 462.405 -4.83514 -3.8809 0
M  V30 4716 C 464.46 -3.52788 -3.51347 0
M  V30 4717 C 463.163 -6.0271 -3.92598 0
M  V30 4718 C 465.189 -4.71394 -3.5713 0
M  V30 4719 C 464.551 -5.94796 -3.77356 0
M  V30 4720 H 460.65 -0.318473 -0.714212 0
M  V30 4721 H 463.234 -1.3106 -1.43984 0
M  V30 4722 H 461.405 -0.555233 -3.84411 0
M  V30 4723 H 463.137 -0.766082 -3.97383 0
M  V30 4724 H 459.892 -2.7804 -3.83393 0
M  V30 4725 H 460.316 -5.38805 -4.099 0
M  V30 4726 H 464.958 -2.58372 -3.3467 0
M  V30 4727 H 462.676 -6.97499 -4.08069 0
M  V30 4728 H 466.262 -4.6827 -3.45275 0
M  V30 4729 H 465.142 -6.85037 -3.81699 0
M  V30 4730 N 462.645 1.35699 -0.801477 0
M  V30 4731 C 463.575 2.32436 -0.222658 0
M  V30 4732 C 464.556 1.5723 0.649057 0
M  V30 4733 O 465.741 1.85324 0.580387 0
M  V30 4734 C 462.871 3.41469 0.633719 0
M  V30 4735 C 461.825 4.27774 -0.139083 0
M  V30 4736 C 461.151 5.28082 0.838666 0
M  V30 4737 C 462.451 5.04946 -1.33517 0
M  V30 4738 H 464.145 2.81094 -1.03086 0
M  V30 4739 H 461.691 1.35146 -0.497155 0
M  V30 4740 H 463.644 4.08143 1.04868 0
M  V30 4741 H 462.368 2.91408 1.47475 0
M  V30 4742 H 461.027 3.62673 -0.535156 0
M  V30 4743 H 460.675 4.7429 1.67506 0
M  V30 4744 H 460.375 5.86695 0.32594 0
M  V30 4745 H 461.899 5.97628 1.25194 0
M  V30 4746 H 463.313 5.64593 -0.995349 0
M  V30 4747 H 461.71 5.7303 -1.78202 0
M  V30 4748 H 462.78 4.35886 -2.12442 0
M  V30 4749 N 464.123 0.554532 1.47522 0
M  V30 4750 C 465.348 0.0322661 2.07375 0
M  V30 4751 C 465.773 -1.25079 1.40488 0
M  V30 4752 O 465.131 -1.74859 0.47896 0
M  V30 4753 C 465.179 -0.149397 3.6029 0
M  V30 4754 O 464.283 -1.21259 3.9417 0
M  V30 4755 H 463.624 0.0501228 0.662106 0
M  V30 4756 H 466.154 0.769452 1.8958 0
M  V30 4757 H 466.164 -0.364437 4.06369 0
M  V30 4758 H 464.839 0.787743 4.08372 0
M  V30 4759 H 463.416 -0.97825 3.5984 0
M  V30 4760 N 465.601 -1.54893 0.290851 0
M  V30 4761 C 466.849 -1.99538 -0.320756 0
M  V30 4762 C 467.17 -1.18075 -1.55188 0
M  V30 4763 O 466.44 -0.274162 -1.93972 0
M  V30 4764 H 465.02 -0.737052 -0.121507 0
M  V30 4765 H 467.682 -1.90755 0.399832 0
M  V30 4766 H 466.778 -3.06282 -0.599802 0
M  V30 4767 N 467.08 -0.0183926 -1.57589 0
M  V30 4768 C 468.012 0.995557 -2.06449 0
M  V30 4769 C 469.025 1.29556 -0.985849 0
M  V30 4770 O 470.214 1.2621 -1.26227 0
M  V30 4771 C 467.314 2.32572 -2.46502 0
M  V30 4772 C 466.487 2.21245 -3.77319 0
M  V30 4773 C 465.546 3.37104 -4.04039 0
M  V30 4774 O 464.572 3.14468 -4.74445 0
M  V30 4775 N 465.774 4.60553 -3.53372 0
M  V30 4776 H 468.539 0.578746 -2.94059 0
M  V30 4777 H 466.1 0.168603 -1.6102 0
M  V30 4778 H 468.092 3.08887 -2.61478 0
M  V30 4779 H 466.662 2.65931 -1.64315 0
M  V30 4780 H 465.882 1.29723 -3.72244 0
M  V30 4781 H 467.17 2.10868 -4.63047 0
M  V30 4782 H 466.568 4.81839 -2.96391 0
M  V30 4783 H 465.125 5.34072 -3.73644 0
M  V30 4784 N 468.558 1.5553 0.254621 0
M  V30 4785 C 469.468 1.92789 1.33677 0
M  V30 4786 C 470.484 0.827356 1.53071 0
M  V30 4787 O 471.66 1.12807 1.66843 0
M  V30 4788 C 468.725 2.20827 2.67275 0
M  V30 4789 C 467.786 3.4427 2.5647 0
M  V30 4790 C 467.019 3.70961 3.83697 0
M  V30 4791 O 467.242 2.99852 4.85227 0
M  V30 4792 O 466.176 4.64491 3.82794 0
M  V30 4793 H 470.002 2.84945 1.05071 0
M  V30 4794 H 467.587 1.42312 0.454723 0
M  V30 4795 H 469.469 2.40204 3.46237 0
M  V30 4796 H 468.144 1.31851 2.9563 0
M  V30 4797 H 467.051 3.30209 1.75821 0
M  V30 4798 H 468.384 4.33524 2.33062 0
M  V30 4799 N 470.036 -0.519951 1.48776 0
M  V30 4800 C 470.999 -1.60574 1.6355 0
M  V30 4801 C 471.999 -1.52557 0.508234 0
M  V30 4802 O 473.189 -1.56047 0.774262 0
M  V30 4803 C 470.321 -3.00211 1.61512 0
M  V30 4804 H 471.514 -1.4881 2.60376 0
M  V30 4805 H 469.067 -0.742772 1.37523 0
M  V30 4806 H 469.802 -3.17471 0.662009 0
M  V30 4807 H 469.587 -3.07439 2.43359 0
M  V30 4808 H 471.077 -3.79134 1.75064 0
M  V30 4809 N 471.514 -1.37532 -0.769588 0
M  V30 4810 C 472.477 -1.33292 -1.86456 0
M  V30 4811 C 473.477 -0.236537 -1.59051 0
M  V30 4812 O 474.667 -0.492511 -1.67093 0
M  V30 4813 C 471.799 -1.07118 -3.23633 0
M  V30 4814 H 472.992 -2.30692 -1.91628 0
M  V30 4815 H 470.545 -1.22593 -0.969572 0
M  V30 4816 H 471.28 -0.102578 -3.24138 0
M  V30 4817 H 471.065 -1.86479 -3.44917 0
M  V30 4818 H 472.555 -1.06806 -4.03711 0
M  V30 4819 N 472.992 0.995999 -1.22138 0
M  V30 4820 C 474.408 1.25917 -0.980667 0
M  V30 4821 C 474.608 1.98819 0.327604 0
M  V30 4822 O 473.664 2.29587 1.05101 0
M  V30 4823 C 474.977 2.07399 -2.17729 0
M  V30 4824 C 476.525 2.20594 -2.22052 0
M  V30 4825 C 477 3.05462 -3.41258 0
M  V30 4826 N 478.491 3.13049 -3.41401 0
M  V30 4827 C 479.226 3.78997 -4.30289 0
M  V30 4828 N 478.722 4.46899 -5.2939 0
M  V30 4829 N 480.515 3.75728 -4.18073 0
M  V30 4830 H 472.666 0.507158 -2.06256 0
M  V30 4831 H 474.929 0.28658 -0.903646 0
M  V30 4832 H 474.635 1.61191 -3.12586 0
M  V30 4833 H 474.509 3.08154 -2.17534 0
M  V30 4834 H 476.896 2.66017 -1.27745 0
M  V30 4835 H 476.977 1.1928 -2.26287 0
M  V30 4836 H 476.621 2.60739 -4.35864 0
M  V30 4837 H 476.551 4.06911 -3.34262 0
M  V30 4838 H 479.042 2.64721 -2.69688 0
M  V30 4839 H 479.355 4.94952 -5.935 0
M  V30 4840 H 477.7 4.45657 -5.33306 0
M  V30 4841 H 480.891 3.2184 -3.39907 0
M  V30 4842 H 481.064 4.26845 -4.87553 0
M  V30 4843 N 474.47 1.03057 1.19235 0
M  V30 4844 C 475.886 0.747947 1.40989 0
M  V30 4845 C 476.086 -0.666752 1.90149 0
M  V30 4846 O 475.142 -1.43249 2.07933 0
M  V30 4847 C 476.455 1.7855 2.41951 0
M  V30 4848 C 478.003 1.80524 2.55695 0
M  V30 4849 C 478.478 2.83243 3.59913 0
M  V30 4850 N 479.969 2.8207 3.67411 0
M  V30 4851 C 480.704 3.58204 4.47747 0
M  V30 4852 N 480.2 4.44057 5.31775 0
M  V30 4853 N 481.993 3.46738 4.42413 0
M  V30 4854 H 474.144 1.94367 0.856468 0
M  V30 4855 H 476.407 0.840412 0.438647 0
M  V30 4856 H 476.113 2.79973 2.12857 0
M  V30 4857 H 475.987 1.6092 3.41152 0
M  V30 4858 H 478.374 0.79778 2.84112 0
M  V30 4859 H 478.455 2.02229 1.56643 0
M  V30 4860 H 478.099 3.84161 3.32239 0
M  V30 4861 H 478.029 2.58795 4.5862 0
M  V30 4862 H 480.52 2.19803 3.074 0
M  V30 4863 H 480.833 4.98884 5.90199 0
M  V30 4864 H 479.178 4.48129 5.3123 0
M  V30 4865 H 482.369 2.79077 3.75811 0
M  V30 4866 H 482.542 4.06322 5.04783 0
M  V30 4867 N 475.948 -1.35272 0.808662 0
M  V30 4868 C 476.878 -2.32315 0.234981 0
M  V30 4869 C 477.859 -1.57572 -0.64071 0
M  V30 4870 O 479.044 -1.8563 -0.570551 0
M  V30 4871 C 476.174 -3.41801 -0.615601 0
M  V30 4872 C 475.128 -4.27694 0.161767 0
M  V30 4873 C 474.454 -5.28519 -0.810649 0
M  V30 4874 C 475.754 -5.04231 1.36193 0
M  V30 4875 H 477.448 -2.80543 1.04575 0
M  V30 4876 H 474.994 -1.3488 0.504315 0
M  V30 4877 H 476.947 -4.08693 -1.02702 0
M  V30 4878 H 475.671 -2.92186 -1.45928 0
M  V30 4879 H 474.33 -3.62384 0.554382 0
M  V30 4880 H 473.978 -4.75171 -1.64988 0
M  V30 4881 H 473.678 -5.8686 -0.294822 0
M  V30 4882 H 475.202 -5.98283 -1.22023 0
M  V30 4883 H 476.616 -5.64058 1.02528 0
M  V30 4884 H 475.013 -5.72077 1.81239 0
M  V30 4885 H 476.083 -4.34753 2.14751 0
M  V30 4886 N 477.426 -0.562348 -1.47226 0
M  V30 4887 C 478.356 0.170627 -2.32876 0
M  V30 4888 C 479.337 0.903748 -1.44106 0
M  V30 4889 O 480.522 0.883206 -1.72954 0
M  V30 4890 C 477.652 1.19786 -3.25989 0
M  V30 4891 C 476.606 0.580875 -4.2404 0
M  V30 4892 C 475.932 1.71311 -5.06514 0
M  V30 4893 C 477.232 -0.468714 -5.20193 0
M  V30 4894 H 478.926 -0.544441 -2.94408 0
M  V30 4895 H 476.472 -0.263271 -1.41573 0
M  V30 4896 H 478.425 1.71884 -3.84752 0
M  V30 4897 H 477.149 1.94294 -2.62521 0
M  V30 4898 H 475.808 0.0811538 -3.6651 0
M  V30 4899 H 475.456 2.44736 -4.39447 0
M  V30 4900 H 475.156 1.30604 -5.72902 0
M  V30 4901 H 476.68 2.23725 -5.68137 0
M  V30 4902 H 478.094 -0.0336028 -5.7329 0
M  V30 4903 H 476.491 -0.794957 -5.94811 0
M  V30 4904 H 477.561 -1.36269 -4.65359 0
M  V30 4905 N 478.904 1.54736 -0.299062 0
M  V30 4906 C 479.814 2.27127 0.587413 0
M  V30 4907 C 480.83 1.30575 1.15005 0
M  V30 4908 O 482.006 1.63554 1.17525 0
M  V30 4909 C 479.071 2.99645 1.74395 0
M  V30 4910 C 478.132 4.11731 1.21559 0
M  V30 4911 C 477.365 4.80781 2.317 0
M  V30 4912 O 477.588 4.4918 3.51558 0
M  V30 4913 O 476.522 5.68226 1.98501 0
M  V30 4914 H 480.348 3.037 0.000250109 0
M  V30 4915 H 477.933 1.49256 -0.0655919 0
M  V30 4916 H 479.815 3.45138 2.4178 0
M  V30 4917 H 478.49 2.25969 2.31775 0
M  V30 4918 H 477.397 3.70641 0.507514 0
M  V30 4919 H 478.73 4.87379 0.687233 0
M  V30 4920 N 480.382 0.0267497 1.57577 0
M  V30 4921 C 481.332 -0.965003 2.06571 0
M  V30 4922 C 482.316 -1.28694 0.965746 0
M  V30 4923 O 483.508 -1.27345 1.22932 0
M  V30 4924 C 480.637 -2.24821 2.59443 0
M  V30 4925 C 479.723 -1.95474 3.76365 0
M  V30 4926 N 480.114 -1.36387 4.87065 0
M  V30 4927 C 478.412 -2.25478 3.84806 0
M  V30 4928 C 479.113 -1.24119 5.68304 0
M  V30 4929 N 478.089 -1.7359 5.15138 0
M  V30 4930 H 481.891 -0.503095 2.89562 0
M  V30 4931 H 479.405 -0.178322 1.61418 0
M  V30 4932 H 481.402 -2.9674 2.92833 0
M  V30 4933 H 480.062 -2.7164 1.77881 0
M  V30 4934 H 481.073 -1.03919 5.07367 0
M  V30 4935 H 477.75 -2.74987 3.14147 0
M  V30 4936 H 479.14 -0.784504 6.67304 0
M  V30 4937 N 481.861 -1.55662 -0.24637 0
M  V30 4938 C 482.791 -1.93377 -1.30873 0
M  V30 4939 C 483.772 -0.798773 -1.50179 0
M  V30 4940 O 484.957 -1.0591 -1.62778 0
M  V30 4941 C 482.087 -2.22893 -2.66338 0
M  V30 4942 C 481.041 -3.38649 -2.61727 0
M  V30 4943 C 480.367 -3.53708 -4.00992 0
M  V30 4944 C 481.667 -4.74323 -2.18666 0
M  V30 4945 H 483.361 -2.82363 -0.995552 0
M  V30 4946 H 480.907 -1.35854 -0.477464 0
M  V30 4947 H 482.86 -2.47866 -3.40794 0
M  V30 4948 H 481.584 -1.30733 -2.99293 0
M  V30 4949 H 480.243 -3.13685 -1.89729 0
M  V30 4950 H 479.891 -2.58967 -4.31214 0
M  V30 4951 H 479.591 -4.31551 -3.98795 0
M  V30 4952 H 481.115 -3.81003 -4.77147 0
M  V30 4953 H 482.529 -4.98665 -2.82854 0
M  V30 4954 H 480.926 -5.55273 -2.27579 0
M  V30 4955 H 481.996 -4.71349 -1.13834 0
M  V30 4956 N 483.339 0.512053 -1.4905 0
M  V30 4957 C 484.271 1.63121 -1.6101 0
M  V30 4958 C 485.284 1.55145 -0.493352 0
M  V30 4959 O 486.473 1.61278 -0.764955 0
M  V30 4960 C 483.573 3.01863 -1.54052 0
M  V30 4961 C 482.746 3.35138 -2.81072 0
M  V30 4962 C 481.805 4.5324 -2.67319 0
M  V30 4963 O 480.831 4.55571 -3.41238 0
M  V30 4964 N 482.033 5.52495 -1.78127 0
M  V30 4965 H 484.798 1.53292 -2.5753 0
M  V30 4966 H 482.359 0.699706 -1.45999 0
M  V30 4967 H 484.351 3.78774 -1.42521 0
M  V30 4968 H 482.921 3.05675 -0.654345 0
M  V30 4969 H 482.141 2.4723 -3.07036 0
M  V30 4970 H 483.429 3.54162 -3.65304 0
M  V30 4971 H 482.827 5.53403 -1.17308 0
M  V30 4972 H 481.384 6.28553 -1.72525 0
M  V30 4973 O 484.856 1.47522 0.657231 0
M  V30 4974 H 485.547 1.42634 1.31055 0
M  V30 END ATOM
M  V30 BEGIN BOND
M  V30 END BOND
M  V30 END CTAB
M  END
$$$$
