drugbank_target|Q88K39 Glutaminase-asparaginase (DB02571; DB04388)
 OpenBabel12092119573D

  0  0  0     0  0            999 V3000
M  V30 BEGIN CTAB
M  V30 COUNTS 5468 5506 0 0 0
M  V30 BEGIN ATOM
M  V30 1 H -0.908 1.98254 -0.117106 0
M  V30 2 N 0 1.576 0 0
M  V30 3 C 0.933 2.03868 1.02534 0
M  V30 4 C 1.911 0.928543 1.3348 0
M  V30 5 O 3.095 1.19667 1.45644 0
M  V30 6 C 0.222 2.43627 2.35294 0
M  V30 7 C -0.732 3.65373 2.2001 0
M  V30 8 S 0.101 5.13292 1.52614 0
M  V30 9 C 1.257 5.56322 2.86805 0
M  V30 10 H 1.49 2.90518 0.631377 0
M  V30 11 H -0.977 1.52953 0.210867 0
M  V30 12 H 0.981 2.67203 3.11629 0
M  V30 13 H -0.358 1.57376 2.7183 0
M  V30 14 H -1.165 3.90944 3.18086 0
M  V30 15 H -1.563 3.418 1.51819 0
M  V30 16 H 0.729 5.58782 3.83104 0
M  V30 17 H 1.672 6.56266 2.65933 0
M  V30 18 H 2.08 4.83886 2.90714 0
M  V30 19 N 1.4781 -0.272755 1.55222 0
M  V30 20 C 2.4261 -1.35705 1.88909 0
M  V30 21 C 3.4201 -1.5112 0.765456 0
M  V30 22 O 4.6261 -1.52901 0.949802 0
M  V30 23 H 1.0011 -0.453868 0.59959 0
M  V30 24 H 2.9721 -1.04544 2.79487 0
M  V30 25 C 1.7211 -2.71049 2.17779 0
M  V30 26 H 1.0441 -2.59979 3.03728 0
M  V30 27 H 2.4841 -3.45858 2.45272 0
M  V30 28 C 0.9431 -3.22165 0.985473 0
M  V30 29 O 1.4731 -4.01096 0.220233 0
M  V30 30 N -0.3209 -2.7985 0.783108 0
M  V30 31 H -0.7739 -2.15775 1.40708 0
M  V30 32 H -0.8159 -3.14397 -0.0130392 0
M  V30 33 N 2.9562 -1.48159 -0.537278 0
M  V30 34 C 3.9192 -1.61665 -1.62472 0
M  V30 35 C 4.9192 -0.490395 -1.5314 0
M  V30 36 O 6.1092 -0.755998 -1.5694 0
M  V30 37 C 3.2412 -1.57997 -3.02076 0
M  V30 38 H 4.4342 -2.58621 -1.51839 0
M  V30 39 H 1.9872 -1.36647 -0.758771 0
M  V30 40 H 2.7222 -0.624913 -3.18222 0
M  V30 41 H 2.5072 -2.39755 -3.10258 0
M  V30 42 H 3.9972 -1.70627 -3.81151 0
M  V30 43 N 4.4343 0.785586 -1.36625 0
M  V30 44 C 5.3973 1.87999 -1.31107 0
M  V30 45 C 6.3973 1.59316 -0.217959 0
M  V30 46 O 7.5873 1.67656 -0.472977 0
M  V30 47 C 4.7193 3.24861 -1.03334 0
M  V30 48 H 5.9123 1.94307 -2.2844 0
M  V30 49 H 3.4653 0.983813 -1.21453 0
M  V30 50 H 4.2003 3.24235 -0.0647432 0
M  V30 51 H 3.9853 3.4707 -1.82441 0
M  V30 52 H 5.4753 4.04929 -1.02088 0
M  V30 53 N 5.9124 1.20967 1.01018 0
M  V30 54 C 6.8424 0.988272 2.11555 0
M  V30 55 C 7.8234 -0.0849778 1.69888 0
M  V30 56 O 9.0084 0.0738202 1.9406 0
M  V30 57 C 6.1384 0.546528 3.42973 0
M  V30 58 C 5.0924 1.56375 3.9841 0
M  V30 59 C 4.4184 0.97842 5.25672 0
M  V30 60 C 5.7184 2.94922 4.31066 0
M  V30 61 H 7.4124 1.91276 2.30334 0
M  V30 62 H 4.9584 0.921073 1.1069 0
M  V30 63 H 6.9114 0.378839 4.19694 0
M  V30 64 H 5.6354 -0.413598 3.23971 0
M  V30 65 H 4.2944 1.71891 3.23804 0
M  V30 66 H 3.9424 0.0101688 5.02999 0
M  V30 67 H 3.6424 1.65784 5.63728 0
M  V30 68 H 5.1664 0.821939 6.05043 0
M  V30 69 H 6.5804 2.8288 4.9865 0
M  V30 70 H 4.9774 3.5983 4.80253 0
M  V30 71 H 6.0474 3.4616 3.39561 0
M  V30 72 N 7.3905 -1.2043 1.01659 0
M  V30 73 C 8.3375 -2.23215 0.586822 0
M  V30 74 C 9.3075 -1.61382 -0.393085 0
M  V30 75 O 10.4925 -1.88544 -0.292525 0
M  V30 76 C 7.6325 -3.45032 -0.0687464 0
M  V30 77 C 6.7455 -4.21296 0.955724 0
M  V30 78 C 5.8805 -5.30507 0.271208 0
M  V30 79 C 4.9195 -5.98515 1.28244 0
M  V30 80 N 4.0565 -6.99316 0.62459 0
M  V30 81 H 8.8965 -2.59336 1.46796 0
M  V30 82 H 6.4335 -1.27431 0.734836 0
M  V30 83 H 8.3915 -4.1459 -0.465965 0
M  V30 84 H 7.0215 -3.09604 -0.913529 0
M  V30 85 H 6.0735 -3.50803 1.4711 0
M  V30 86 H 7.3855 -4.6803 1.72479 0
M  V30 87 H 6.5395 -6.06428 -0.18151 0
M  V30 88 H 5.2785 -4.8481 -0.530163 0
M  V30 89 H 4.2835 -5.21355 1.74554 0
M  V30 90 H 5.5085 -6.46298 2.08509 0
M  V30 91 H 3.4545 -6.55812 -0.156914 0
M  V30 92 H 3.3715 -7.44178 1.33172 0
M  V30 93 H 4.6395 -7.79255 0.195462 0
M  V30 94 N 8.8686 -0.792821 -1.36206 0
M  V30 95 C 10.0966 -0.378825 -2.03402 0
M  V30 96 C 10.5116 1.00586 -1.59774 0
M  V30 97 O 9.8686 1.64574 -0.788764 0
M  V30 98 C 9.9196 -0.43683 -3.58851 0
M  V30 99 O 9.6406 -1.76691 -4.00889 0
M  V30 100 C 11.1416 -0.0138943 -4.43298 0
M  V30 101 H 8.3616 -0.155673 -0.652692 0
M  V30 102 H 10.9056 -1.07261 -1.74113 0
M  V30 103 H 9.0606 0.208575 -3.86838 0
M  V30 104 H 9.4746 -1.72011 -4.95492 0
M  V30 105 H 10.9486 -0.105615 -5.51899 0
M  V30 106 H 11.4256 1.03915 -4.2673 0
M  V30 107 H 12.0316 -0.63192 -4.20579 0
M  V30 108 N 10.3467 1.47872 -0.545128 0
M  V30 109 C 11.5937 2.02493 -0.0165858 0
M  V30 110 C 11.9217 1.42073 1.32836 0
M  V30 111 O 11.1767 0.561459 1.87473 0
M  V30 112 C 11.4757 3.57131 0.13867 0
M  V30 113 C 11.1417 4.36411 -1.13384 0
M  V30 114 C 9.8037 4.57792 -1.48256 0
M  V30 115 C 12.1557 4.82223 -1.97764 0
M  V30 116 C 9.4837 5.22233 -2.67376 0
M  V30 117 C 11.8357 5.47977 -3.16076 0
M  V30 118 C 10.4997 5.67593 -3.51275 0
M  V30 119 H 9.7697 0.740975 -0.00606918 0
M  V30 120 H 12.4167 1.77683 -0.714207 0
M  V30 121 H 10.7217 3.80865 0.919172 0
M  V30 122 H 12.4187 3.97031 0.562782 0
M  V30 123 H 9.0087 4.2004 -0.852297 0
M  V30 124 H 13.1927 4.65493 -1.72132 0
M  V30 125 H 8.4487 5.35616 -2.94831 0
M  V30 126 H 12.6227 5.8244 -3.81755 0
M  V30 127 H 10.2497 6.17298 -4.43675 0
M  V30 128 N 11.8248 0.280983 1.55075 0
M  V30 129 C 12.7878 -0.590896 2.21452 0
M  V30 130 C 13.7878 -1.07682 1.19421 0
M  V30 131 O 14.9778 -0.97605 1.44288 0
M  V30 132 C 12.1098 -1.81587 2.88511 0
M  V30 133 H 13.3028 -0.0112554 2.99898 0
M  V30 134 H 10.8558 0.0316438 1.56268 0
M  V30 135 H 11.5908 -2.43587 2.14093 0
M  V30 136 H 11.3758 -1.4753 3.63287 0
M  V30 137 H 12.8658 -2.43575 3.39206 0
M  V30 138 N 13.3029 -1.57598 0.00835791 0
M  V30 139 C 14.7139 -1.7892 -0.53333 0
M  V30 140 C 15.0649 -0.916609 -1.73473 0
M  V30 141 O 14.1899 -0.121336 -2.1606 0
M  V30 142 C 14.7849 -3.24488 -0.974313 0
M  V30 143 C 13.3439 -3.46878 -1.46125 0
M  V30 144 C 12.4909 -2.74157 -0.416302 0
M  V30 145 H 15.4419 -1.56958 0.234495 0
M  V30 146 H 15.4629 -3.3306 -1.83988 0
M  V30 147 H 14.9749 -3.87972 -0.099718 0
M  V30 148 H 13.0759 -2.8862 -2.35646 0
M  V30 149 H 13.1889 -4.55572 -1.48295 0
M  V30 150 H 11.5529 -2.39022 -0.87981 0
M  V30 151 H 12.3359 -3.40345 0.44947 0
M  V30 152 N 14.781 0.264519 -1.55364 0
M  V30 153 C 16.006 1.01726 -1.80739 0
M  V30 154 C 16.431 1.78836 -0.583044 0
M  V30 155 O 15.789 1.75167 0.467566 0
M  V30 156 C 15.837 1.94482 -3.03659 0
M  V30 157 O 14.941 3.03386 -2.7934 0
M  V30 158 H 14.282 0.290395 -0.597132 0
M  V30 159 H 16.812 0.290854 -2.02522 0
M  V30 160 H 16.822 2.36278 -3.32621 0
M  V30 161 H 15.497 1.37772 -3.92418 0
M  V30 162 H 14.074 2.65844 -2.61498 0
M  V30 163 N 16.2591 1.48442 0.529413 0
M  V30 164 C 17.2221 1.62524 1.61612 0
M  V30 165 C 18.2221 0.498509 1.52877 0
M  V30 166 O 19.4121 0.76431 1.56537 0
M  V30 167 C 16.5441 1.59597 3.01233 0
M  V30 168 H 17.7371 2.59423 1.50465 0
M  V30 169 H 15.2901 1.37047 0.751514 0
M  V30 170 H 16.0251 0.641781 3.17886 0
M  V30 171 H 15.8101 2.41397 3.08982 0
M  V30 172 H 17.3001 1.72646 3.80241 0
M  V30 173 N 17.7372 -0.778329 1.37039 0
M  V30 174 C 18.6672 -1.90546 1.34962 0
M  V30 175 C 19.6482 -1.68681 0.219274 0
M  V30 176 O 20.8332 -1.89634 0.418624 0
M  V30 177 C 17.9632 -3.27734 1.14925 0
M  V30 178 C 16.9172 -3.64147 2.24902 0
M  V30 179 C 16.2432 -4.99806 1.89996 0
M  V30 180 C 17.5432 -3.71579 3.67051 0
M  V30 181 H 19.2372 -1.92541 2.29277 0
M  V30 182 H 16.7832 -0.924948 1.10366 0
M  V30 183 H 18.7362 -4.06215 1.12104 0
M  V30 184 H 17.4602 -3.26154 0.170631 0
M  V30 185 H 16.1192 -2.8797 2.26868 0
M  V30 186 H 15.7672 -4.94759 0.906796 0
M  V30 187 H 15.4672 -5.25139 2.63634 0
M  V30 188 H 16.9912 -5.80694 1.88749 0
M  V30 189 H 18.4052 -4.40227 3.67251 0
M  V30 190 H 16.8022 -4.08405 4.39688 0
M  V30 191 H 17.8722 -2.72404 4.01154 0
M  V30 192 N 19.2153 -1.21501 -1.00376 0
M  V30 193 C 20.1783 -0.976927 -2.07337 0
M  V30 194 C 21.1783 0.0525322 -1.60714 0
M  V30 195 O 22.3683 -0.184869 -1.73216 0
M  V30 196 C 19.5003 -0.473423 -3.37597 0
M  V30 197 H 20.6933 -1.92587 -2.29892 0
M  V30 198 H 18.2463 -1.03217 -1.17371 0
M  V30 199 H 18.9813 0.480379 -3.20722 0
M  V30 200 H 18.7663 -1.216 -3.72768 0
M  V30 201 H 20.2563 -0.32675 -4.1632 0
M  V30 202 N 20.6934 1.19889 -1.02296 0
M  V30 203 C 21.6234 2.25141 -0.619174 0
M  V30 204 C 22.6044 1.66051 0.368915 0
M  V30 205 O 23.7894 1.92546 0.252941 0
M  V30 206 C 20.9194 3.4728 0.0368783 0
M  V30 207 C 19.8734 4.19005 -0.872865 0
M  V30 208 C 19.1994 5.34637 -0.0822402 0
M  V30 209 C 20.4994 4.74452 -2.18387 0
M  V30 210 H 22.1934 2.59171 -1.49903 0
M  V30 211 H 19.7394 1.24579 -0.722222 0
M  V30 212 H 21.6924 4.20098 0.330958 0
M  V30 213 H 20.4164 3.12433 0.95149 0
M  V30 214 H 19.0754 3.48061 -1.15105 0
M  V30 215 H 18.7234 4.96034 0.83422 0
M  V30 216 H 18.4234 5.83557 -0.688149 0
M  V30 217 H 19.9474 6.10255 0.205238 0
M  V30 218 H 21.3614 5.39055 -1.95172 0
M  V30 219 H 19.7584 5.33834 -2.74119 0
M  V30 220 H 20.8284 3.92844 -2.84257 0
M  V30 221 N 22.1715 0.800033 1.35784 0
M  V30 222 C 23.1015 0.220184 2.3246 0
M  V30 223 C 24.0825 -0.65073 1.57161 0
M  V30 224 O 25.2675 -0.582359 1.85263 0
M  V30 225 C 22.3975 -0.637353 3.41402 0
M  V30 226 C 21.3515 0.134531 4.27789 0
M  V30 227 C 20.6775 -0.844285 5.27992 0
M  V30 228 C 21.9775 1.32979 5.05088 0
M  V30 229 H 23.6715 1.02787 2.81203 0
M  V30 230 H 21.2175 0.495717 1.35199 0
M  V30 231 H 23.1705 -1.05302 4.08031 0
M  V30 232 H 21.8945 -1.47785 2.91251 0
M  V30 233 H 20.5535 0.531296 3.6273 0
M  V30 234 H 20.2015 -1.68011 4.74111 0
M  V30 235 H 19.9015 -0.332184 5.8666 0
M  V30 236 H 21.4255 -1.2583 5.97494 0
M  V30 237 H 22.8395 0.98934 5.64699 0
M  V30 238 H 21.2365 1.77593 5.7322 0
M  V30 239 H 22.3065 2.11978 4.36111 0
M  V30 240 N 23.6496 -1.47581 0.552962 0
M  V30 241 C 24.5796 -2.32762 -0.185451 0
M  V30 242 C 25.5606 -1.43527 -0.912905 0
M  V30 243 O 26.7456 -1.72388 -0.894201 0
M  V30 244 C 23.8756 -3.25219 -1.21859 0
M  V30 245 C 22.8296 -4.23661 -0.607864 0
M  V30 246 C 22.1556 -5.05413 -1.74533 0
M  V30 247 C 23.4556 -5.20481 0.435582 0
M  V30 248 H 25.1496 -2.94749 0.525684 0
M  V30 249 H 22.6956 -1.41738 0.254251 0
M  V30 250 H 24.6486 -3.8365 -1.7433 0
M  V30 251 H 23.3726 -2.61279 -1.95961 0
M  V30 252 H 22.0316 -3.66451 -0.104489 0
M  V30 253 H 21.6796 -4.3788 -2.47529 0
M  V30 254 H 21.3796 -5.72059 -1.34249 0
M  V30 255 H 22.9036 -5.66701 -2.27338 0
M  V30 256 H 24.3176 -5.733 -0.00290157 0
M  V30 257 H 22.7146 -5.95305 0.757067 0
M  V30 258 H 23.7846 -4.66217 1.33303 0
M  V30 259 N 25.1277 -0.289203 -1.54924 0
M  V30 260 C 26.3767 0.324231 -1.99077 0
M  V30 261 C 26.6897 1.5591 -1.18117 0
M  V30 262 O 27.8957 2.24637 -1.52481 0
M  V30 263 C 26.3517 0.628209 -3.54375 0
M  V30 264 C 25.9597 -0.587647 -4.44129 0
M  V30 265 C 27.7037 1.20349 -4.07083 0
M  V30 266 C 25.6107 -0.257475 -5.90839 0
M  V30 267 H 24.5407 0.124924 -0.743579 0
M  V30 268 H 27.1917 -0.396063 -1.79175 0
M  V30 269 H 25.5737 1.40778 -3.70132 0
M  V30 270 H 26.7477 -1.36418 -4.40144 0
M  V30 271 H 25.0627 -1.08074 -4.0213 0
M  V30 272 H 27.6597 1.46456 -5.14252 0
M  V30 273 H 28.0027 2.14195 -3.56968 0
M  V30 274 H 28.5357 0.485889 -3.94821 0
M  V30 275 H 25.2747 -1.16419 -6.45079 0
M  V30 276 H 24.7947 0.482018 -5.9786 0
M  V30 277 H 26.4737 0.145238 -6.46837 0
M  V30 278 N 26.6058 1.57591 -0.0167156 0
M  V30 279 C 27.5358 2.12496 0.967858 0
M  V30 280 C 28.5168 1.03807 1.34752 0
M  V30 281 O 29.7018 1.31577 1.42833 0
M  V30 282 C 26.8318 2.64194 2.25431 0
M  V30 283 C 25.7858 3.77559 2.01576 0
M  V30 284 C 25.1118 4.15636 3.36379 0
M  V30 285 C 26.4118 5.04151 1.36489 0
M  V30 286 H 28.1058 2.95013 0.510643 0
M  V30 287 H 25.6518 1.41915 0.244181 0
M  V30 288 H 27.6048 3.01236 2.94678 0
M  V30 289 H 26.3288 1.78821 2.73296 0
M  V30 290 H 24.9878 3.40937 1.34751 0
M  V30 291 H 24.6358 3.27263 3.81979 0
M  V30 292 H 24.3358 4.92022 3.21229 0
M  V30 293 H 25.8598 4.5525 4.06915 0
M  V30 294 H 27.2738 5.38857 1.95718 0
M  V30 295 H 25.6708 5.85453 1.31776 0
M  V30 296 H 26.7408 4.83733 0.336219 0
M  V30 297 N 28.0839 -0.256276 1.55502 0
M  V30 298 C 29.4949 -0.826068 1.67431 0
M  V30 299 C 29.8459 -1.86396 0.612446 0
M  V30 300 O 28.9709 -2.15031 -0.243025 0
M  V30 301 C 29.5659 -1.50512 3.03532 0
M  V30 302 C 28.1249 -2.02273 3.17431 0
M  V30 303 C 27.2719 -0.870548 2.63281 0
M  V30 304 H 30.2229 -0.0322728 1.58667 0
M  V30 305 H 30.2439 -2.37279 2.97454 0
M  V30 306 H 29.7559 -0.749484 3.80794 0
M  V30 307 H 27.8569 -2.80746 2.44974 0
M  V30 308 H 27.9699 -2.22655 4.24219 0
M  V30 309 H 26.3339 -1.26851 2.20864 0
M  V30 310 H 27.1169 -0.128149 3.43061 0
M  V30 311 N 29.562 -1.4872 -0.521534 0
M  V30 312 C 30.787 -1.61101 -1.30618 0
M  V30 313 C 31.212 -0.274611 -1.86085 0
M  V30 314 O 30.57 0.754937 -1.64834 0
M  V30 315 C 30.618 -2.66709 -2.4269 0
M  V30 316 O 29.722 -2.24456 -3.45967 0
M  V30 317 H 29.063 -0.539921 -0.386499 0
M  V30 318 H 31.593 -1.94767 -0.626645 0
M  V30 319 H 31.603 -2.88245 -2.88754 0
M  V30 320 H 30.278 -3.63727 -2.01682 0
M  V30 321 H 28.855 -2.13168 -3.05964 0
M  V30 322 N 31.0401 0.771051 -1.3745 0
M  V30 323 C 32.2651 1.56529 -1.36065 0
M  V30 324 C 32.6901 1.88029 0.0515859 0
M  V30 325 O 32.0481 1.49282 1.02882 0
M  V30 326 C 32.0961 2.85187 -2.20683 0
M  V30 327 O 31.2001 3.79593 -1.61193 0
M  V30 328 H 30.5411 0.47411 -0.464883 0
M  V30 329 H 33.0711 0.954269 -1.80983 0
M  V30 330 H 33.0811 3.34283 -2.33921 0
M  V30 331 H 31.7561 2.61588 -3.23334 0
M  V30 332 H 30.3331 3.38239 -1.56999 0
M  V30 333 N 32.5182 1.22032 0.997298 0
M  V30 334 C 33.4812 0.987909 2.06816 0
M  V30 335 C 34.4812 -0.0440084 1.6074 0
M  V30 336 O 35.6712 0.194053 1.73116 0
M  V30 337 C 32.8032 0.49132 3.37341 0
M  V30 338 H 33.9962 1.93803 2.28868 0
M  V30 339 H 31.5492 1.03838 1.16822 0
M  V30 340 H 32.2842 -0.463364 3.20973 0
M  V30 341 H 32.0692 1.23575 3.72118 0
M  V30 342 H 33.5592 0.348824 4.16141 0
M  V30 343 N 33.9963 -1.19345 1.0293 0
M  V30 344 C 35.2213 -1.93538 0.745511 0
M  V30 345 C 35.6463 -1.75007 -0.689511 0
M  V30 346 O 35.0043 -1.05265 -1.47611 0
M  V30 347 C 35.0523 -3.43336 1.10239 0
M  V30 348 O 34.1563 -4.11806 0.221289 0
M  V30 349 H 33.4973 -0.604193 0.275404 0
M  V30 350 H 36.0273 -1.5141 1.37609 0
M  V30 351 H 36.0373 -3.94004 1.05947 0
M  V30 352 H 34.7123 -3.56146 2.14786 0
M  V30 353 H 33.2893 -3.715 0.322842 0
M  V30 354 N 35.4744 -0.807222 -1.35358 0
M  V30 355 C 36.4374 -0.223665 -2.28106 0
M  V30 356 C 37.4374 0.589354 -1.4961 0
M  V30 357 O 38.6274 0.407745 -1.69361 0
M  V30 358 C 35.7594 0.688149 -3.33882 0
M  V30 359 H 36.9524 -1.04169 -2.81227 0
M  V30 360 H 34.5054 -0.577921 -1.45223 0
M  V30 361 H 35.2404 1.52984 -2.85948 0
M  V30 362 H 35.0254 0.10687 -3.91954 0
M  V30 363 H 36.5154 1.09075 -4.03104 0
M  V30 364 N 36.9525 1.47285 -0.560781 0
M  V30 365 C 37.8995 2.30058 0.18491 0
M  V30 366 C 38.8695 1.39281 0.904986 0
M  V30 367 O 40.0545 1.68241 0.899979 0
M  V30 368 C 37.1945 3.23317 1.20666 0
M  V30 369 C 36.3075 4.29186 0.492285 0
M  V30 370 C 35.4425 5.09592 1.49964 0
M  V30 371 C 34.4815 6.07232 0.770439 0
M  V30 372 N 33.6185 6.80584 1.72479 0
M  V30 373 H 38.4585 2.93302 -0.527048 0
M  V30 374 H 35.9955 1.44568 -0.271738 0
M  V30 375 H 37.9535 3.75811 1.81168 0
M  V30 376 H 36.5835 2.61929 1.88661 0
M  V30 377 H 35.6355 3.7972 -0.227333 0
M  V30 378 H 36.9475 4.98738 -0.0787929 0
M  V30 379 H 36.1015 5.66254 2.17809 0
M  V30 380 H 34.8405 4.3995 2.10464 0
M  V30 381 H 33.8455 5.49745 0.0780846 0
M  V30 382 H 35.0705 6.78884 0.171134 0
M  V30 383 H 33.0165 6.1367 2.3183 0
M  V30 384 H 32.9335 7.46319 1.20596 0
M  V30 385 H 34.2015 7.41818 2.39428 0
M  V30 386 N 38.4306 0.297415 1.54768 0
M  V30 387 C 39.3406 -0.58983 2.27064 0
M  V30 388 C 40.3566 -1.15144 1.30453 0
M  V30 389 O 41.5326 -1.17699 1.63428 0
M  V30 390 C 38.5976 -1.74714 2.9946 0
M  V30 391 C 37.6586 -1.21997 4.11601 0
M  V30 392 C 36.8916 -2.32212 4.80535 0
M  V30 393 O 37.1146 -3.52036 4.48806 0
M  V30 394 O 36.0486 -1.99106 5.68014 0
M  V30 395 H 39.8746 -0.00348199 3.037 0
M  V30 396 H 37.4596 0.0640035 1.49263 0
M  V30 397 H 39.3416 -2.42147 3.44881 0
M  V30 398 H 38.0166 -2.32016 2.25722 0
M  V30 399 H 36.9236 -0.511458 3.70587 0
M  V30 400 H 38.2566 -0.692419 4.87305 0
M  V30 401 N 39.9087 -1.5758 0.0250728 0
M  V30 402 C 40.8717 -2.08896 -0.943139 0
M  V30 403 C 41.8717 -1.00321 -1.25668 0
M  V30 404 O 43.0617 -1.26495 -1.19769 0
M  V30 405 C 40.1937 -2.55143 -2.26086 0
M  V30 406 H 41.3867 -2.95723 -0.498775 0
M  V30 407 H 38.9397 -1.54703 -0.222888 0
M  V30 408 H 39.6747 -1.71633 -2.75159 0
M  V30 409 H 39.4597 -3.34461 -2.04641 0
M  V30 410 H 40.9497 -2.95083 -2.95492 0
M  V30 411 N 41.3868 0.248026 -1.55636 0
M  V30 412 C 42.2968 1.32859 -1.93354 0
M  V30 413 C 43.3128 1.52719 -0.833838 0
M  V30 414 O 44.4888 1.66363 -1.13513 0
M  V30 415 C 41.5538 2.66337 -2.21958 0
M  V30 416 C 40.6148 2.55008 -3.45354 0
M  V30 417 C 39.8478 3.82121 -3.72584 0
M  V30 418 O 40.0708 4.83951 -3.01907 0
M  V30 419 O 39.0048 3.80822 -4.6611 0
M  V30 420 H 42.8308 1.03862 -2.85388 0
M  V30 421 H 40.4158 0.448686 -1.42503 0
M  V30 422 H 42.2978 3.45216 -2.4167 0
M  V30 423 H 40.9728 2.95068 -1.33103 0
M  V30 424 H 39.8798 1.7442 -3.30951 0
M  V30 425 H 41.2128 2.31222 -4.34508 0
M  V30 426 N 42.8649 1.48995 0.513639 0
M  V30 427 C 44.0929 1.61531 1.29288 0
M  V30 428 C 44.5079 0.281801 1.86685 0
M  V30 429 O 43.8649 -0.731111 1.67215 0
M  V30 430 C 43.9159 2.67449 2.43215 0
M  V30 431 O 43.6369 3.95626 1.88179 0
M  V30 432 C 45.1379 2.90575 3.34785 0
M  V30 433 H 42.3579 0.544165 0.392588 0
M  V30 434 H 44.9019 1.9494 0.617956 0
M  V30 435 H 43.0569 2.36853 3.0656 0
M  V30 436 H 43.4709 4.53868 2.62876 0
M  V30 437 H 44.9449 3.68449 4.11035 0
M  V30 438 H 45.4219 2.00011 3.91015 0
M  V30 439 H 46.0279 3.22538 2.77218 0
M  V30 440 N 44.343 -0.763751 1.37857 0
M  V30 441 C 45.275 -1.88664 1.30148 0
M  V30 442 C 46.288 -1.61365 0.215685 0
M  V30 443 O 47.477 -1.72134 0.472459 0
M  V30 444 C 44.577 -3.24075 0.991396 0
M  V30 445 C 43.75 -3.78958 2.18426 0
M  V30 446 C 42.809 -4.92862 1.8432 0
M  V30 447 O 41.835 -5.08027 2.56704 0
M  V30 448 N 43.037 -5.75071 0.792081 0
M  V30 449 H 45.802 -1.95791 2.26905 0
M  V30 450 H 43.363 -0.943226 1.31586 0
M  V30 451 H 45.355 -3.97804 0.743935 0
M  V30 452 H 43.925 -3.12399 0.112122 0
M  V30 453 H 43.145 -2.96913 2.59299 0
M  V30 454 H 44.433 -4.12357 2.98058 0
M  V30 455 H 43.831 -5.65375 0.191595 0
M  V30 456 H 42.388 -6.48991 0.60449 0
M  V30 457 N 45.8211 -1.22559 -0.990812 0
M  V30 458 C 46.7531 -0.955325 -2.08342 0
M  V30 459 C 47.7661 0.0668408 -1.62663 0
M  V30 460 O 48.9551 -0.167421 -1.77713 0
M  V30 461 C 46.0551 -0.415566 -3.36342 0
M  V30 462 C 45.2281 -1.49544 -4.11042 0
M  V30 463 C 44.2871 -0.962399 -5.17324 0
M  V30 464 O 43.3131 -1.64907 -5.44788 0
M  V30 465 N 44.5151 0.215134 -5.80101 0
M  V30 466 H 47.2801 -1.89596 -2.32106 0
M  V30 467 H 44.8411 -1.13276 -1.15673 0
M  V30 468 H 46.8331 -0.0442386 -4.04676 0
M  V30 469 H 45.4031 0.430232 -3.09625 0
M  V30 470 H 44.6231 -2.04 -3.37309 0
M  V30 471 H 45.9111 -2.22195 -4.57719 0
M  V30 472 H 45.3091 0.789779 -5.6016 0
M  V30 473 H 43.8661 0.527826 -6.49659 0
M  V30 474 N 47.2992 1.18797 -1.03562 0
M  V30 475 C 48.2462 2.22253 -0.622259 0
M  V30 476 C 49.2162 1.61987 0.36736 0
M  V30 477 O 50.4012 1.88986 0.262492 0
M  V30 478 C 47.5412 3.45097 0.0138462 0
M  V30 479 C 46.6542 4.19722 -1.02263 0
M  V30 480 C 45.7892 5.30009 -0.355573 0
M  V30 481 C 44.8282 5.96399 -1.37749 0
M  V30 482 N 43.9652 6.98234 -0.735766 0
M  V30 483 H 48.8052 2.56968 -1.50903 0
M  V30 484 H 46.3422 1.26245 -0.755017 0
M  V30 485 H 48.3002 4.15279 0.399948 0
M  V30 486 H 46.9302 3.11018 0.864158 0
M  V30 487 H 45.9822 3.48418 -1.52673 0
M  V30 488 H 47.2942 4.65227 -1.79903 0
M  V30 489 H 46.4482 6.0664 0.0850095 0
M  V30 490 H 45.1872 4.85592 0.452967 0
M  V30 491 H 44.1922 5.18512 -1.82826 0
M  V30 492 H 45.4172 6.42899 -2.18764 0
M  V30 493 H 43.3632 6.55979 0.0525597 0
M  V30 494 H 43.2802 7.41965 -1.44995 0
M  V30 495 H 44.5482 7.78845 -0.31941 0
M  V30 496 N 48.7773 0.814389 1.34928 0
M  V30 497 C 49.7073 0.244827 2.32213 0
M  V30 498 C 50.6883 -0.634024 1.57842 0
M  V30 499 O 51.8733 -0.562676 1.8587 0
M  V30 500 C 49.0033 -0.601106 3.42058 0
M  V30 501 C 47.9573 0.179896 4.27622 0
M  V30 502 C 47.2833 -0.788237 5.28858 0
M  V30 503 C 48.5833 1.38329 5.03649 0
M  V30 504 H 50.2773 1.05763 2.80097 0
M  V30 505 H 47.8233 0.510029 1.34665 0
M  V30 506 H 49.7763 -1.00968 4.09125 0
M  V30 507 H 48.5003 -1.44688 2.92802 0
M  V30 508 H 47.1593 0.569739 3.62146 0
M  V30 509 H 46.8073 -1.62973 4.75866 0
M  V30 510 H 46.5073 -0.269942 5.8698 0
M  V30 511 H 48.0313 -1.19485 5.98795 0
M  V30 512 H 49.4453 1.04918 5.63618 0
M  V30 513 H 47.8423 1.83662 5.71304 0
M  V30 514 H 48.9123 2.16592 4.33839 0
M  V30 515 N 50.2554 -1.46986 0.568584 0
M  V30 516 C 51.2184 -2.28624 -0.162366 0
M  V30 517 C 52.2184 -1.37596 -0.832103 0
M  V30 518 O 53.4084 -1.60115 -0.68622 0
M  V30 519 C 50.5404 -3.17596 -1.23878 0
M  V30 520 H 51.7334 -2.94722 0.554899 0
M  V30 521 H 49.2864 -1.52863 0.325976 0
M  V30 522 H 50.0214 -2.56214 -1.98808 0
M  V30 523 H 49.8064 -3.846 -0.763219 0
M  V30 524 H 51.2964 -3.79078 -1.75185 0
M  V30 525 N 51.7335 -0.305618 -1.54608 0
M  V30 526 C 52.6815 0.584119 -2.25146 0
M  V30 527 C 53.6755 1.13326 -1.25911 0
M  V30 528 O 54.8815 1.08337 -1.43747 0
M  V30 529 H 51.2565 0.206983 -0.722954 0
M  V30 530 H 53.2275 -0.033291 -2.98381 0
M  V30 531 C 51.9765 1.74225 -3.009 0
M  V30 532 H 51.2995 1.32892 -3.77067 0
M  V30 533 H 52.7395 2.34077 -3.53531 0
M  V30 534 C 51.1985 2.64914 -2.0814 0
M  V30 535 O 51.7285 3.66137 -1.65246 0
M  V30 536 N 49.9345 2.3275 -1.74 0
M  V30 537 H 49.4815 1.50479 -2.09078 0
M  V30 538 H 49.4395 2.93694 -1.12211 0
M  V30 539 N 53.2116 1.57565 -0.0334293 0
M  V30 540 C 54.4576 1.92262 0.645226 0
M  V30 541 C 54.7906 0.910543 1.71531 0
M  V30 542 O 54.0656 -0.066099 1.94388 0
M  V30 543 C 54.3486 3.37422 1.2577 0
M  V30 544 C 54.2016 4.49369 0.196891 0
M  V30 545 C 55.5206 3.82628 2.17449 0
M  V30 546 H 52.6396 0.699171 0.233085 0
M  V30 547 H 55.2816 1.89779 -0.0915694 0
M  V30 548 H 53.4316 3.39669 1.88566 0
M  V30 549 H 55.1036 4.59254 -0.433962 0
M  V30 550 H 53.3466 4.31168 -0.477137 0
M  V30 551 H 54.0176 5.47978 0.665124 0
M  V30 552 H 56.4936 3.82145 1.64634 0
M  V30 553 H 55.3696 4.84883 2.57254 0
M  V30 554 H 55.6306 3.18376 3.0674 0
M  V30 555 N 54.6897 -0.239769 1.55765 0
M  V30 556 C 55.9357 -0.968234 1.78194 0
M  V30 557 C 56.2687 -1.84701 0.599938 0
M  V30 558 O 55.5437 -1.9031 -0.401524 0
M  V30 559 C 55.8267 -1.8227 3.10564 0
M  V30 560 C 55.6797 -0.971633 4.3918 0
M  V30 561 C 56.9987 -2.80388 3.39221 0
M  V30 562 H 54.1177 -0.350572 0.648281 0
M  V30 563 H 56.7597 -0.238259 1.885 0
M  V30 564 H 54.9097 -2.44507 3.01908 0
M  V30 565 H 56.5817 -0.367408 4.59835 0
M  V30 566 H 54.8247 -0.276276 4.32919 0
M  V30 567 H 55.4957 -1.60346 5.28198 0
M  V30 568 H 57.9717 -2.28287 3.47885 0
M  V30 569 H 56.8477 -3.3729 4.33044 0
M  V30 570 H 57.1087 -3.57212 2.60484 0
M  V30 571 N 56.1678 -1.49265 -0.50573 0
M  V30 572 C 57.4168 -1.57761 -1.25675 0
M  V30 573 C 57.7298 -0.267371 -1.93764 0
M  V30 574 O 58.9358 -0.230827 -2.70517 0
M  V30 575 C 57.3918 -2.78332 -2.28165 0
M  V30 576 C 56.9998 -4.16096 -1.66037 0
M  V30 577 C 58.7438 -2.96155 -3.04125 0
M  V30 578 C 56.6508 -5.27895 -2.6661 0
M  V30 579 H 55.5808 -0.587391 -0.472745 0
M  V30 580 H 58.2318 -1.75644 -0.53118 0
M  V30 581 H 56.6138 -2.53934 -3.03865 0
M  V30 582 H 57.7878 -4.50612 -0.963622 0
M  V30 583 H 56.1028 -4.03591 -1.02484 0
M  V30 584 H 58.6998 -3.76849 -3.79327 0
M  V30 585 H 59.0428 -2.06534 -3.61455 0
M  V30 586 H 59.5758 -3.2057 -2.35541 0
M  V30 587 H 56.3148 -6.1956 -2.14068 0
M  V30 588 H 55.8348 -4.97839 -3.34539 0
M  V30 589 H 57.5138 -5.57031 -3.29129 0
M  V30 590 N 57.6459 0.756429 -1.3826 0
M  V30 591 C 58.5759 1.88374 -1.37976 0
M  V30 592 C 59.5569 1.68311 -0.246082 0
M  V30 593 O 60.7419 1.88944 -0.44874 0
M  V30 594 C 57.8719 3.25864 -1.20125 0
M  V30 595 C 56.8259 3.60523 -2.30666 0
M  V30 596 C 56.1519 4.9672 -1.97923 0
M  V30 597 C 57.4519 3.65692 -3.72916 0
M  V30 598 H 59.1459 1.88869 -2.32312 0
M  V30 599 H 56.6919 0.907272 -1.11824 0
M  V30 600 H 58.6449 4.0438 -1.18552 0
M  V30 601 H 57.3689 3.25841 -0.222498 0
M  V30 602 H 56.0279 2.84324 -2.3142 0
M  V30 603 H 55.6759 4.93253 -0.985393 0
M  V30 604 H 55.3759 5.20878 -2.71955 0
M  V30 605 H 56.8999 5.77618 -1.97964 0
M  V30 606 H 58.3139 4.34328 -3.74208 0
M  V30 607 H 56.7109 4.01358 -4.4613 0
M  V30 608 H 57.7809 2.65987 -4.05436 0
M  V30 609 N 59.124 1.23083 0.984299 0
M  V30 610 C 60.087 1.00979 2.05757 0
M  V30 611 C 61.087 -0.0269573 1.60777 0
M  V30 612 O 62.277 0.212403 1.729 0
M  V30 613 C 59.409 0.527072 3.36801 0
M  V30 614 H 60.602 1.9622 2.26799 0
M  V30 615 H 58.155 1.05072 1.15714 0
M  V30 616 H 58.89 -0.429294 3.21446 0
M  V30 617 H 58.675 1.27515 3.70786 0
M  V30 618 H 60.165 0.392942 4.15747 0
M  V30 619 N 60.6021 -1.18246 1.0419 0
M  V30 620 C 61.8301 -1.92195 0.766072 0
M  V30 621 C 62.2451 -1.76247 -0.676933 0
M  V30 622 O 61.6021 -1.09293 -1.46155 0
M  V30 623 C 61.6531 -3.43568 1.12442 0
M  V30 624 O 61.3741 -3.59015 2.51078 0
M  V30 625 C 62.8751 -4.34613 0.873275 0
M  V30 626 H 60.0951 -0.610114 0.279288 0
M  V30 627 H 62.6391 -1.50007 1.38989 0
M  V30 628 H 60.7941 -3.8354 0.545542 0
M  V30 629 H 61.2081 -4.5273 2.64831 0
M  V30 630 H 62.6821 -5.39374 1.17385 0
M  V30 631 H 63.1591 -4.38781 -0.191909 0
M  V30 632 H 63.7651 -4.00341 1.43551 0
M  V30 633 N 62.0802 -0.821533 -1.34494 0
M  V30 634 C 63.3282 -0.408139 -1.97936 0
M  V30 635 C 63.6492 1.03193 -1.65457 0
M  V30 636 O 62.9192 1.71622 -0.944595 0
M  V30 637 H 61.4992 -0.147928 -0.732206 0
M  V30 638 H 64.1612 -1.05067 -1.64155 0
M  V30 639 H 63.2572 -0.52601 -3.07635 0
M  V30 640 N 63.5583 1.46682 -0.576371 0
M  V30 641 C 64.8063 2.02013 -0.0594163 0
M  V30 642 C 65.1273 1.45101 1.30271 0
M  V30 643 O 64.3973 0.633317 1.8538 0
M  V30 644 H 62.9773 0.746759 -0.0189745 0
M  V30 645 H 65.6393 1.79862 -0.750717 0
M  V30 646 H 64.7353 3.12097 0.014345 0
M  V30 647 N 65.0364 0.313813 1.54444 0
M  V30 648 C 66.2644 -0.293918 2.04802 0
M  V30 649 C 66.6794 -1.46537 1.19047 0
M  V30 650 O 66.0364 -1.81182 0.218939 0
M  V30 651 C 66.0874 -0.737806 3.53891 0
M  V30 652 O 65.8084 0.387038 4.36387 0
M  V30 653 C 67.3094 -1.40936 4.203 0
M  V30 654 H 64.5294 -0.0620057 0.668129 0
M  V30 655 H 67.0734 0.457169 1.99324 0
M  V30 656 H 65.2284 -1.43889 3.59687 0
M  V30 657 H 65.6424 0.0391274 5.24485 0
M  V30 658 H 67.1164 -1.67099 5.26101 0
M  V30 659 H 67.5934 -2.35355 3.70816 0
M  V30 660 H 68.1994 -0.751117 4.18615 0
M  V30 661 N 66.5145 -1.57545 0.0417849 0
M  V30 662 C 67.7635 -1.91494 -0.633492 0
M  V30 663 C 68.0765 -0.921084 -1.72556 0
M  V30 664 O 69.2825 -1.15228 -2.45835 0
M  V30 665 C 67.7385 -3.40072 -1.17808 0
M  V30 666 C 67.3465 -4.47843 -0.118633 0
M  V30 667 C 69.0905 -3.8307 -1.82915 0
M  V30 668 C 66.9975 -5.87529 -0.675578 0
M  V30 669 H 65.9275 -0.714653 -0.24039 0
M  V30 670 H 68.5785 -1.83175 0.109148 0
M  V30 671 H 66.9605 -3.43364 -1.97274 0
M  V30 672 H 68.1345 -4.56128 0.654494 0
M  V30 673 H 66.4495 -4.14128 0.434414 0
M  V30 674 H 69.0465 -4.84794 -2.25563 0
M  V30 675 H 69.3895 -3.1881 -2.67705 0
M  V30 676 H 69.9225 -3.82255 -1.10119 0
M  V30 677 H 66.6615 -6.55362 0.134475 0
M  V30 678 H 66.1815 -5.82824 -1.4169 0
M  V30 679 H 67.8605 -6.36491 -1.1614 0
M  V30 680 N 67.9926 0.231505 -1.5589 0
M  V30 681 C 68.9556 1.27028 -1.90779 0
M  V30 682 C 69.9556 1.40308 -0.785507 0
M  V30 683 O 71.1456 1.38744 -1.05336 0
M  V30 684 C 68.2776 2.64566 -2.14983 0
M  V30 685 H 69.4706 0.973017 -2.83677 0
M  V30 686 H 67.0236 0.471486 -1.49019 0
M  V30 687 H 67.7586 2.99406 -1.24604 0
M  V30 688 H 67.5436 2.56305 -2.96732 0
M  V30 689 H 69.0336 3.39543 -2.43105 0
M  V30 690 N 69.4707 1.49531 0.497807 0
M  V30 691 C 70.7187 1.58865 1.24926 0
M  V30 692 C 71.0397 0.278721 1.92998 0
M  V30 693 O 70.3097 -0.702144 1.82885 0
M  V30 694 H 68.8897 0.585343 0.464094 0
M  V30 695 H 71.5517 1.86174 0.57666 0
M  V30 696 H 70.6477 2.38633 2.01149 0
M  V30 697 N 70.9488 -0.749086 1.3866 0
M  V30 698 C 71.9118 -1.84457 1.36045 0
M  V30 699 C 72.9118 -1.58682 0.260122 0
M  V30 700 O 74.1018 -1.66343 0.517261 0
M  V30 701 C 71.2338 -3.22008 1.11911 0
M  V30 702 H 72.4268 -1.88182 2.33512 0
M  V30 703 H 69.9798 -0.951266 1.24019 0
M  V30 704 H 70.7148 -3.2395 0.150686 0
M  V30 705 H 70.4998 -3.42111 1.91579 0
M  V30 706 H 71.9898 -4.0208 1.12788 0
M  V30 707 N 72.4269 -1.23603 -0.977757 0
M  V30 708 C 73.6749 -1.06759 -1.71601 0
M  V30 709 C 73.9959 0.395929 -1.90938 0
M  V30 710 O 73.2659 1.28356 -1.47992 0
M  V30 711 H 71.8459 -0.392062 -0.635843 0
M  V30 712 H 74.5079 -1.55362 -1.1768 0
M  V30 713 H 73.6039 -1.55763 -2.70452 0
M  V30 714 N 73.905 1.17692 -1.04816 0
M  V30 715 C 74.868 2.19787 -0.650117 0
M  V30 716 C 75.868 1.58044 0.296427 0
M  V30 717 O 77.058 1.74012 0.0808097 0
M  V30 718 C 74.19 3.40869 0.0456987 0
M  V30 719 H 75.383 2.56516 -1.5537 0
M  V30 720 H 72.936 1.31708 -0.841594 0
M  V30 721 H 73.671 3.09681 0.962726 0
M  V30 722 H 73.456 3.86928 -0.634727 0
M  V30 723 H 74.946 4.16445 0.310432 0
M  V30 724 N 75.3831 0.828654 1.34056 0
M  V30 725 C 76.6081 0.431637 2.02859 0
M  V30 726 C 77.0331 -0.956339 1.61975 0
M  V30 727 O 76.3911 -1.62338 0.807228 0
M  V30 728 C 76.4391 0.548323 3.56407 0
M  V30 729 O 75.5431 -0.429556 4.10157 0
M  V30 730 H 74.8841 0.176886 0.640006 0
M  V30 731 H 77.4141 1.12066 1.71179 0
M  V30 732 H 77.4241 0.426196 4.05768 0
M  V30 733 H 76.0991 1.5606 3.8551 0
M  V30 734 H 74.6761 -0.265836 3.71951 0
M  V30 735 N 76.8612 -1.46375 0.584142 0
M  V30 736 C 77.8242 -2.28784 -0.138108 0
M  V30 737 C 78.8242 -1.38471 -0.817462 0
M  V30 738 O 80.0142 -1.60833 -0.669199 0
M  V30 739 C 77.1462 -3.18892 -1.20503 0
M  V30 740 H 78.3392 -2.94117 0.586127 0
M  V30 741 H 75.8922 -1.52509 0.342171 0
M  V30 742 H 76.6272 -2.58309 -1.96079 0
M  V30 743 H 76.4122 -3.85388 -0.722384 0
M  V30 744 H 77.9022 -3.80914 -1.71155 0
M  V30 745 N 78.3393 -0.321999 -1.54275 0
M  V30 746 C 79.3023 0.531975 -2.22941 0
M  V30 747 C 80.3023 1.04478 -1.22234 0
M  V30 748 O 81.4923 0.937452 -1.46825 0
M  V30 749 C 78.6243 1.73874 -2.93224 0
M  V30 750 H 79.8173 -0.0682612 -2.99822 0
M  V30 751 H 77.3703 -0.0730644 -1.56129 0
M  V30 752 H 78.1053 2.37825 -2.20476 0
M  V30 753 H 77.8903 1.37847 -3.6707 0
M  V30 754 H 79.3803 2.34496 -3.45545 0
M  V30 755 N 79.8174 1.5752 -0.0501392 0
M  V30 756 C 80.7654 2.12651 0.942459 0
M  V30 757 C 81.7594 1.05807 1.32292 0
M  V30 758 O 82.9654 1.24217 1.3027 0
M  V30 759 H 79.3404 0.679673 0.321789 0
M  V30 760 H 81.3114 2.94951 0.452356 0
M  V30 761 C 80.0604 2.68565 2.20836 0
M  V30 762 H 79.3834 3.50439 1.92439 0
M  V30 763 H 80.8234 3.10761 2.8845 0
M  V30 764 C 79.2824 1.62291 2.95234 0
M  V30 765 O 79.8124 1.03508 3.88135 0
M  V30 766 N 78.0184 1.33836 2.57946 0
M  V30 767 H 77.5654 1.81826 1.82475 0
M  V30 768 H 77.5234 0.629595 3.08032 0
M  V30 769 N 81.2955 -0.223234 1.56011 0
M  V30 770 C 82.5205 -0.968978 1.83373 0
M  V30 771 C 82.9455 -1.77227 0.630254 0
M  V30 772 O 82.3035 -1.76345 -0.420959 0
M  V30 773 C 82.3515 -1.86363 3.08709 0
M  V30 774 O 81.4555 -2.95873 2.87285 0
M  V30 775 H 80.7965 -0.274461 0.604622 0
M  V30 776 H 83.3265 -0.237056 2.03222 0
M  V30 777 H 83.3365 -2.27376 3.38768 0
M  V30 778 H 82.0115 -1.27319 3.95933 0
M  V30 779 H 80.5885 -2.58818 2.68454 0
M  V30 780 N 82.7736 -1.49793 -0.48987 0
M  V30 781 C 83.7366 -1.66752 -1.57246 0
M  V30 782 C 84.7366 -0.538867 -1.51502 0
M  V30 783 O 85.9266 -0.805545 -1.54456 0
M  V30 784 C 83.0586 -1.67528 -2.96896 0
M  V30 785 H 84.2516 -2.63321 -1.43534 0
M  V30 786 H 81.8046 -1.38992 -0.714914 0
M  V30 787 H 82.5396 -0.725837 -3.16073 0
M  V30 788 H 82.3246 -2.49504 -3.02473 0
M  V30 789 H 83.8146 -1.82667 -3.7553 0
M  V30 790 N 84.2517 0.741722 -1.39055 0
M  V30 791 C 85.4797 1.53098 -1.39171 0
M  V30 792 C 85.8947 1.88794 0.0155099 0
M  V30 793 O 85.2517 1.53626 0.985159 0
M  V30 794 C 85.3027 2.82274 -2.2584 0
M  V30 795 O 85.0237 2.48097 -3.61081 0
M  V30 796 C 86.5247 3.76343 -2.34266 0
M  V30 797 H 83.7447 0.473335 -0.4756 0
M  V30 798 H 86.2887 0.917045 -1.82785 0
M  V30 799 H 84.4437 3.40015 -1.85656 0
M  V30 800 H 84.8577 3.31029 -4.06842 0
M  V30 801 H 86.3317 4.63898 -2.9917 0
M  V30 802 H 86.8087 4.17619 -1.35982 0
M  V30 803 H 87.4147 3.24523 -2.74891 0
M  V30 804 N 85.7298 1.2412 0.971189 0
M  V30 805 C 86.9598 1.10415 1.7462 0
M  V30 806 C 87.3678 -0.346462 1.86001 0
M  V30 807 O 86.7108 -1.25104 1.34517 0
M  V30 808 C 86.7728 1.66596 3.18568 0
M  V30 809 C 86.4368 3.15446 3.3067 0
M  V30 810 C 87.4338 4.12636 3.16271 0
M  V30 811 C 85.1188 3.55337 3.55022 0
M  V30 812 C 87.1128 5.47699 3.26044 0
M  V30 813 C 84.7998 4.90542 3.64434 0
M  V30 814 C 85.7978 5.86532 3.49956 0
M  V30 815 O 85.4858 7.19279 3.59017 0
M  V30 816 H 85.2178 0.386616 0.55453 0
M  V30 817 H 87.7718 1.64633 1.22821 0
M  V30 818 H 86.0018 1.06808 3.71657 0
M  V30 819 H 87.6908 1.48232 3.77865 0
M  V30 820 H 88.4568 3.8316 2.97344 0
M  V30 821 H 84.3358 2.8113 3.65359 0
M  V30 822 H 87.8798 6.22603 3.14661 0
M  V30 823 H 83.7768 5.19691 3.82873 0
M  V30 824 H 84.5448 7.27153 3.75754 0
M  V30 825 N 87.2079 -1.17134 1.05439 0
M  V30 826 C 88.1399 -2.2078 0.615539 0
M  V30 827 C 89.1529 -1.59584 -0.322001 0
M  V30 828 O 90.3419 -1.78133 -0.114344 0
M  V30 829 C 87.4419 -3.38691 -0.118938 0
M  V30 830 C 86.6149 -4.29454 0.829924 0
M  V30 831 C 85.6739 -5.26024 0.136258 0
M  V30 832 O 84.6999 -5.63952 0.77115 0
M  V30 833 N 85.9019 -5.69487 -1.1254 0
M  V30 834 H 88.6669 -2.59052 1.50705 0
M  V30 835 H 86.2279 -1.32058 0.936603 0
M  V30 836 H 88.2199 -4.00329 -0.593179 0
M  V30 837 H 86.7899 -2.98996 -0.91215 0
M  V30 838 H 86.0099 -3.65211 1.48373 0
M  V30 839 H 87.2979 -4.86984 1.47392 0
M  V30 840 H 86.6959 -5.4075 -1.6615 0
M  V30 841 H 85.2529 -6.33257 -1.54366 0
M  V30 842 N 88.686 -0.835752 -1.33615 0
M  V30 843 C 89.649 -0.272 -2.2758 0
M  V30 844 C 90.649 0.557487 -1.50827 0
M  V30 845 O 91.839 0.37173 -1.70188 0
M  V30 846 C 88.971 0.617173 -3.35267 0
M  V30 847 H 90.164 -1.10111 -2.78954 0
M  V30 848 H 87.717 -0.608594 -1.43965 0
M  V30 849 H 88.452 1.46884 -2.89129 0
M  V30 850 H 88.237 0.0237066 -3.92093 0
M  V30 851 H 89.727 1.005 -4.05326 0
M  V30 852 N 90.1641 1.46063 -0.591896 0
M  V30 853 C 91.1271 2.28854 0.125973 0
M  V30 854 C 92.1271 1.38903 0.810107 0
M  V30 855 O 93.3171 1.61186 0.66066 0
M  V30 856 C 90.4491 3.19526 1.1881 0
M  V30 857 H 91.6421 2.93802 -0.601717 0
M  V30 858 H 89.1951 1.52325 -0.350254 0
M  V30 859 H 89.9301 2.59345 1.94707 0
M  V30 860 H 89.7151 3.85766 0.701936 0
M  V30 861 H 91.2051 3.81817 1.69132 0
M  V30 862 N 91.6422 0.330177 1.54103 0
M  V30 863 C 92.5892 -0.532762 2.24567 0
M  V30 864 C 93.5592 -1.10635 1.23892 0
M  V30 865 O 94.7442 -1.14546 1.5259 0
M  V30 866 C 91.8842 -1.6845 3.01195 0
M  V30 867 C 90.9972 -1.13951 4.167 0
M  V30 868 C 90.1322 -2.25746 4.80845 0
M  V30 869 C 89.1712 -1.6853 5.88442 0
M  V30 870 N 88.3082 -2.74014 6.46421 0
M  V30 871 H 93.1482 0.0746905 2.97906 0
M  V30 872 H 90.6852 0.048632 1.4702 0
M  V30 873 H 92.6432 -2.36234 3.43874 0
M  V30 874 H 91.2732 -2.26314 2.30178 0
M  V30 875 H 90.3252 -0.35301 3.78758 0
M  V30 876 H 91.6372 -0.680892 4.94131 0
M  V30 877 H 90.7912 -3.01422 5.26526 0
M  V30 878 H 89.5302 -2.74947 4.0281 0
M  V30 879 H 88.5352 -0.913543 5.42157 0
M  V30 880 H 89.7602 -1.20198 6.68378 0
M  V30 881 H 87.7062 -3.22494 5.71256 0
M  V30 882 H 87.6232 -2.32735 7.19285 0
M  V30 883 H 88.8912 -3.49499 6.96757 0
M  V30 884 N 93.1203 -1.57491 0.0584922 0
M  V30 885 C 94.0503 -2.14988 -0.911178 0
M  V30 886 C 95.0313 -1.07343 -1.31952 0
M  V30 887 O 96.2163 -1.35318 -1.39294 0
M  V30 888 C 93.3463 -2.70078 -2.18347 0
M  V30 889 C 92.3003 -3.82771 -1.91495 0
M  V30 890 C 91.6263 -4.24408 -3.25241 0
M  V30 891 C 92.9263 -5.07592 -1.23075 0
M  V30 892 H 94.6203 -2.96263 -0.432246 0
M  V30 893 H 92.1663 -1.42512 -0.206469 0
M  V30 894 H 94.1193 -3.08943 -2.86587 0
M  V30 895 H 92.8433 -1.86005 -2.68458 0
M  V30 896 H 91.5023 -3.44389 -1.25664 0
M  V30 897 H 91.1503 -3.37275 -3.73168 0
M  V30 898 H 90.8503 -5.00366 -3.08071 0
M  V30 899 H 92.3743 -4.65879 -3.94701 0
M  V30 900 H 93.7883 -5.43857 -1.81362 0
M  V30 901 H 92.1853 -5.88741 -1.16207 0
M  V30 902 H 93.2553 -4.84454 -0.207847 0
M  V30 903 N 94.5984 0.214957 -1.56127 0
M  V30 904 C 95.8464 0.936518 -1.79091 0
M  V30 905 C 96.1674 1.84606 -0.628148 0
M  V30 906 O 95.4374 1.92664 0.35462 0
M  V30 907 H 94.0174 0.3488 -0.660566 0
M  V30 908 H 96.6794 0.22523 -1.93594 0
M  V30 909 H 95.7754 1.53943 -2.71492 0
M  V30 910 N 96.0765 1.50051 0.48192 0
M  V30 911 C 97.3225 1.60736 1.2366 0
M  V30 912 C 97.6555 0.301786 1.91841 0
M  V30 913 O 96.9305 -0.696025 1.8162 0
M  V30 914 C 97.2135 2.78009 2.28874 0
M  V30 915 C 97.0665 4.18416 1.65069 0
M  V30 916 C 98.3855 2.90867 3.30279 0
M  V30 917 H 95.5045 0.585031 0.448228 0
M  V30 918 H 98.1465 1.82402 0.531946 0
M  V30 919 H 96.2965 2.59667 2.88973 0
M  V30 920 H 97.9685 4.48322 1.0865 0
M  V30 921 H 96.2115 4.23177 0.954148 0
M  V30 922 H 96.8825 4.96381 2.41474 0
M  V30 923 H 99.3585 3.07623 2.80191 0
M  V30 924 H 98.2345 3.74566 4.01238 0
M  V30 925 H 98.4955 2.01021 3.93755 0
M  V30 926 N 97.5546 -0.734337 1.39446 0
M  V30 927 C 98.8316 -1.48579 1.27215 0
M  V30 928 C 99.2116 -2.1077 -0.117968 0
M  V30 929 O 98.5596 -1.98646 -1.12924 0
M  V30 930 C 98.7696 -2.53667 2.39696 0
M  V30 931 C 100.118 -3.20031 2.79044 0
M  V30 932 O 101.142 -2.6398 2.39151 0
M  V30 933 O 100.001 -4.21455 3.47905 0
M  V30 934 H 97.0946 -0.659816 0.49857 0
M  V30 935 H 99.6406 -0.768106 1.51322 0
M  V30 936 H 98.4126 -2.06096 3.32626 0
M  V30 937 H 98.0356 -3.32994 2.17258 0
M  V30 938 N 99.0327 -1.24633 -0.964593 0
M  V30 939 C 99.9797 -1.04144 -2.05968 0
M  V30 940 C 100.95 0.046262 -1.66036 0
M  V30 941 O 102.135 -0.108972 -1.90489 0
M  V30 942 C 99.2747 -0.65563 -3.38815 0
M  V30 943 C 98.3877 -1.81714 -3.91923 0
M  V30 944 C 97.5227 -1.37662 -5.13052 0
M  V30 945 C 96.5617 -2.50788 -5.58365 0
M  V30 946 N 95.6987 -2.07582 -6.70712 0
M  V30 947 H 100.539 -1.9787 -2.22827 0
M  V30 948 H 98.0757 -0.9855 -1.09208 0
M  V30 949 H 100.034 -0.412954 -4.15151 0
M  V30 950 H 98.6637 0.244627 -3.21872 0
M  V30 951 H 97.7157 -2.1734 -3.12198 0
M  V30 952 H 99.0277 -2.66705 -4.21509 0
M  V30 953 H 98.1817 -1.093 -5.96773 0
M  V30 954 H 96.9207 -0.497293 -4.85158 0
M  V30 955 H 95.9257 -2.79906 -4.73215 0
M  V30 956 H 97.1507 -3.39283 -5.88272 0
M  V30 957 H 95.0967 -1.22051 -6.44546 0
M  V30 958 H 95.0137 -2.86125 -6.99763 0
M  V30 959 H 96.2817 -1.82369 -7.57867 0
M  V30 960 N 100.511 1.16574 -1.06058 0
M  V30 961 C 101.441 2.23057 -0.690488 0
M  V30 962 C 102.422 1.67141 0.315901 0
M  V30 963 O 103.607 1.93253 0.191556 0
M  V30 964 C 100.737 3.47222 -0.073625 0
M  V30 965 C 99.6908 4.16016 -1.00573 0
M  V30 966 C 99.0168 5.34104 -0.252289 0
M  V30 967 C 100.317 4.67264 -2.33371 0
M  V30 968 H 102.011 2.54271 -1.58072 0
M  V30 969 H 99.5568 1.22218 -0.76149 0
M  V30 970 H 101.51 4.20939 0.19714 0
M  V30 971 H 100.234 3.15302 0.85161 0
M  V30 972 H 98.8928 3.44223 -1.2612 0
M  V30 973 H 98.5408 4.98437 0.675988 0
M  V30 974 H 98.2408 5.81072 -0.873455 0
M  V30 975 H 99.7648 6.10599 0.0109857 0
M  V30 976 H 101.179 5.32573 -2.12223 0
M  V30 977 H 99.5758 5.24843 -2.90963 0
M  V30 978 H 100.646 3.83602 -2.96611 0
M  V30 979 N 101.989 0.842826 1.3317 0
M  V30 980 C 103.238 0.436738 1.96915 0
M  V30 981 C 103.551 -1.01025 1.67491 0
M  V30 982 O 104.757 -1.5212 2.24881 0
M  V30 983 C 103.213 0.730021 3.52418 0
M  V30 984 C 102.821 2.19195 3.90714 0
M  V30 985 C 104.565 0.391076 4.22695 0
M  V30 986 C 102.472 2.42907 5.39212 0
M  V30 987 H 101.402 0.15958 0.736919 0
M  V30 988 H 104.053 1.03196 1.51733 0
M  V30 989 H 102.435 0.0643755 3.95948 0
M  V30 990 H 103.609 2.8984 3.58231 0
M  V30 991 H 101.924 2.49425 3.33431 0
M  V30 992 H 104.521 0.545817 5.31907 0
M  V30 993 H 104.864 -0.666294 4.10933 0
M  V30 994 H 105.397 1.01212 3.84709 0
M  V30 995 H 102.136 3.47224 5.55982 0
M  V30 996 H 101.656 1.76827 5.73142 0
M  V30 997 H 103.335 2.2626 6.06148 0
M  V30 998 N 103.467 -1.45747 0.599634 0
M  V30 999 C 104.43 -2.28917 -0.113835 0
M  V30 1000 C 105.43 -1.3933 -0.802729 0
M  V30 1001 O 106.62 -1.61534 -0.652103 0
M  V30 1002 C 103.752 -3.20152 -1.17114 0
M  V30 1003 H 104.945 -2.93478 0.617289 0
M  V30 1004 H 102.498 -1.52137 0.358327 0
M  V30 1005 H 103.233 -2.60374 -1.93329 0
M  V30 1006 H 103.018 -3.86133 -0.681468 0
M  V30 1007 H 104.508 -3.82708 -1.67105 0
M  V30 1008 N 104.945 -0.338344 -1.53925 0
M  V30 1009 C 106.193 0.259245 -2.0043 0
M  V30 1010 C 106.514 1.51484 -1.22791 0
M  V30 1011 O 105.784 1.93037 -0.33368 0
M  V30 1012 H 104.364 0.0987845 -0.740439 0
M  V30 1013 H 107.026 -0.458302 -1.89435 0
M  V30 1014 H 106.122 0.505334 -3.07982 0
M  V30 1015 N 106.423 1.57458 -0.0668435 0
M  V30 1016 C 107.669 1.93587 0.6043 0
M  V30 1017 C 108.002 0.946722 1.69561 0
M  V30 1018 O 107.277 -0.0248516 1.94484 0
M  V30 1019 C 107.56 3.40014 1.18585 0
M  V30 1020 C 107.413 4.49685 0.101529 0
M  V30 1021 C 108.732 3.87154 2.09284 0
M  V30 1022 H 105.851 0.703958 0.218202 0
M  V30 1023 H 108.493 1.89542 -0.131804 0
M  V30 1024 H 106.643 3.43592 1.81319 0
M  V30 1025 H 108.315 4.5823 -0.531279 0
M  V30 1026 H 106.558 4.30059 -0.568487 0
M  V30 1027 H 107.229 5.49266 0.54874 0
M  V30 1028 H 109.705 3.85551 1.56491 0
M  V30 1029 H 108.581 4.90231 2.46911 0
M  V30 1030 H 108.842 3.2481 2.99918 0
M  V30 1031 N 107.901 -0.206675 1.56239 0
M  V30 1032 C 109.312 -0.772383 1.69974 0
M  V30 1033 C 109.663 -1.84353 0.671436 0
M  V30 1034 O 108.788 -2.15695 -0.174491 0
M  V30 1035 C 109.383 -1.40779 3.08167 0
M  V30 1036 C 107.942 -1.92072 3.23706 0
M  V30 1037 C 107.089 -0.786347 2.65917 0
M  V30 1038 H 110.04 0.0182223 1.5869 0
M  V30 1039 H 110.061 -2.27696 3.04852 0
M  V30 1040 H 109.573 -0.627958 3.82986 0
M  V30 1041 H 107.674 -2.7281 2.53782 0
M  V30 1042 H 107.787 -2.09046 4.31087 0
M  V30 1043 H 106.151 -1.1976 2.24788 0
M  V30 1044 H 106.934 -0.0189416 3.43295 0
M  V30 1045 N 109.379 -1.50304 -0.473955 0
M  V30 1046 C 110.289 -1.7174 -1.5982 0
M  V30 1047 C 111.305 -0.600457 -1.63311 0
M  V30 1048 O 112.481 -0.878441 -1.81233 0
M  V30 1049 C 109.546 -1.80427 -2.96052 0
M  V30 1050 C 108.607 -3.04148 -3.02972 0
M  V30 1051 C 107.84 -3.12411 -4.32706 0
M  V30 1052 O 108.063 -2.27542 -5.23049 0
M  V30 1053 O 106.997 -4.05113 -4.45159 0
M  V30 1054 H 110.823 -2.67035 -1.44657 0
M  V30 1055 H 108.408 -1.34366 -0.653148 0
M  V30 1056 H 110.29 -1.88338 -3.7697 0
M  V30 1057 H 108.965 -0.883156 -3.11419 0
M  V30 1058 H 107.872 -3.0174 -2.21142 0
M  V30 1059 H 109.205 -3.95829 -2.92541 0
M  V30 1060 N 110.857 0.726932 -1.39834 0
M  V30 1061 C 111.787 1.85405 -1.41941 0
M  V30 1062 C 112.768 1.67751 -0.281728 0
M  V30 1063 O 113.953 1.8795 -0.488717 0
M  V30 1064 C 111.083 3.23243 -1.2701 0
M  V30 1065 C 110.037 3.55549 -2.38262 0
M  V30 1066 C 109.363 4.9241 -2.08415 0
M  V30 1067 C 110.663 3.577 -3.80589 0
M  V30 1068 H 112.357 1.83899 -2.36266 0
M  V30 1069 H 109.903 0.883349 -1.13723 0
M  V30 1070 H 111.856 4.01775 -1.27103 0
M  V30 1071 H 110.58 3.25296 -0.291564 0
M  V30 1072 H 109.239 2.79351 -2.37399 0
M  V30 1073 H 108.887 4.91052 -1.0898 0
M  V30 1074 H 108.587 5.14992 -2.82943 0
M  V30 1075 H 110.111 5.73289 -2.10171 0
M  V30 1076 H 111.525 4.26293 -3.83337 0
M  V30 1077 H 109.922 3.91804 -4.54543 0
M  V30 1078 H 110.992 2.57328 -4.10987 0
M  V30 1079 N 112.336 1.25143 0.95797 0
M  V30 1080 C 113.299 1.05321 2.03569 0
M  V30 1081 C 114.299 0.007152 1.60798 0
M  V30 1082 O 115.489 0.24903 1.72411 0
M  V30 1083 C 112.621 0.598394 3.35607 0
M  V30 1084 H 113.814 2.00986 2.22586 0
M  V30 1085 H 111.367 1.07502 1.13459 0
M  V30 1086 H 112.102 -0.361014 3.22284 0
M  V30 1087 H 111.887 1.35351 3.67998 0
M  V30 1088 H 113.377 0.48104 4.1482 0
M  V30 1089 N 113.814 -1.1601 1.06675 0
M  V30 1090 C 115.091 -1.82679 0.699114 0
M  V30 1091 C 115.471 -1.94559 -0.819137 0
M  V30 1092 O 114.819 -1.49169 -1.73092 0
M  V30 1093 C 115.029 -3.19445 1.40555 0
M  V30 1094 C 116.377 -3.95171 1.55323 0
M  V30 1095 O 117.401 -3.28976 1.36577 0
M  V30 1096 O 116.26 -5.13833 1.86112 0
M  V30 1097 H 113.354 -0.788954 0.247951 0
M  V30 1098 H 115.9 -1.23179 1.16726 0
M  V30 1099 H 114.672 -3.05856 2.44065 0
M  V30 1100 H 114.295 -3.86625 0.927733 0
M  V30 1101 N 115.292 -0.849877 -1.32721 0
M  V30 1102 C 116.541 -0.447175 -1.96681 0
M  V30 1103 C 116.854 1.00135 -1.68025 0
M  V30 1104 O 118.06 1.50926 -2.25685 0
M  V30 1105 C 116.516 -0.7487 -3.52026 0
M  V30 1106 C 116.124 -2.21264 -3.89546 0
M  V30 1107 C 117.868 -0.413487 -4.22481 0
M  V30 1108 C 115.775 -2.45763 -5.37917 0
M  V30 1109 H 114.705 -0.163486 -0.736063 0
M  V30 1110 H 117.356 -1.03999 -1.51183 0
M  V30 1111 H 115.738 -0.0853727 -3.95908 0
M  V30 1112 H 116.912 -2.91736 -3.56689 0
M  V30 1113 H 115.227 -2.5119 -3.32103 0
M  V30 1114 H 117.824 -0.574017 -5.3161 0
M  V30 1115 H 118.167 0.644492 -4.11281 0
M  V30 1116 H 118.7 -1.03251 -3.84167 0
M  V30 1117 H 115.439 -3.50168 -5.54132 0
M  V30 1118 H 114.959 -1.79864 -5.72197 0
M  V30 1119 H 116.638 -2.29471 -6.0494 0
M  V30 1120 N 116.77 1.45427 -0.607355 0
M  V30 1121 C 117.733 2.28974 0.101693 0
M  V30 1122 C 118.733 1.39754 0.795329 0
M  V30 1123 O 119.923 1.61878 0.643527 0
M  V30 1124 C 117.055 3.20768 1.15414 0
M  V30 1125 H 118.248 2.93147 -0.632844 0
M  V30 1126 H 115.801 1.51945 -0.366391 0
M  V30 1127 H 116.536 2.61395 1.91945 0
M  V30 1128 H 116.321 3.86489 0.66098 0
M  V30 1129 H 117.811 3.83589 1.65073 0
M  V30 1130 N 118.248 0.346503 1.53744 0
M  V30 1131 C 119.196 -0.52422 2.26616 0
M  V30 1132 C 120.19 -1.09948 1.28871 0
M  V30 1133 O 121.396 -1.04488 1.46568 0
M  V30 1134 H 117.771 -0.187743 0.728187 0
M  V30 1135 H 119.742 0.11239 2.98188 0
M  V30 1136 C 118.491 -1.66186 3.05414 0
M  V30 1137 H 117.814 -1.22848 3.80458 0
M  V30 1138 H 119.254 -2.24622 3.59612 0
M  V30 1139 C 117.713 -2.59302 2.1509 0
M  V30 1140 O 118.243 -3.61628 1.74895 0
M  V30 1141 N 116.449 -2.28055 1.8011 0
M  V30 1142 H 115.996 -1.44883 2.12994 0
M  V30 1143 H 115.954 -2.90615 1.19958 0
M  V30 1144 N 119.726 -1.57421 0.075193 0
M  V30 1145 C 120.972 -1.93905 -0.594025 0
M  V30 1146 C 121.305 -0.955701 -1.69056 0
M  V30 1147 O 120.58 0.0145373 -1.94495 0
M  V30 1148 C 120.863 -3.40638 -1.1678 0
M  V30 1149 C 120.716 -4.49733 -0.0776792 0
M  V30 1150 C 122.035 -3.88259 -2.07228 0
M  V30 1151 H 119.154 -0.705105 -0.214466 0
M  V30 1152 H 121.796 -1.8947 0.141854 0
M  V30 1153 H 119.946 -3.44549 -1.79494 0
M  V30 1154 H 121.618 -4.57942 0.555573 0
M  V30 1155 H 119.861 -4.29751 0.591286 0
M  V30 1156 H 120.532 -5.49549 -0.519603 0
M  V30 1157 H 123.008 -3.86376 -1.54445 0
M  V30 1158 H 121.884 -4.91533 -2.44308 0
M  V30 1159 H 122.145 -3.26396 -2.98191 0
M  V30 1160 N 121.204 0.198386 -1.56346 0
M  V30 1161 C 122.62 0.549085 -1.49857 0
M  V30 1162 C 122.82 1.86016 -0.774611 0
M  V30 1163 O 121.876 2.50416 -0.323776 0
M  V30 1164 C 123.189 0.606868 -2.94512 0
M  V30 1165 C 124.737 0.695925 -3.05165 0
M  V30 1166 C 125.212 0.784848 -4.51225 0
M  V30 1167 N 126.703 0.848463 -4.55363 0
M  V30 1168 C 127.438 0.937378 -5.65686 0
M  V30 1169 N 126.934 0.9888 -6.85707 0
M  V30 1170 N 128.727 0.974312 -5.53592 0
M  V30 1171 H 120.878 -0.661655 -2.01831 0
M  V30 1172 H 123.141 -0.235261 -0.918344 0
M  V30 1173 H 122.847 -0.28732 -3.50524 0
M  V30 1174 H 122.721 1.46268 -3.47686 0
M  V30 1175 H 125.108 1.58055 -2.49204 0
M  V30 1176 H 125.189 -0.186022 -2.55123 0
M  V30 1177 H 124.833 -0.0954072 -5.0781 0
M  V30 1178 H 124.763 1.68255 -4.98997 0
M  V30 1179 H 127.254 0.818103 -3.68938 0
M  V30 1180 H 127.567 1.05707 -7.65536 0
M  V30 1181 H 125.912 0.957534 -6.88372 0
M  V30 1182 H 129.103 0.930954 -4.58749 0
M  V30 1183 H 129.276 1.04015 -6.39597 0
M  V30 1184 N 122.682 1.50554 0.465978 0
M  V30 1185 C 123.93 1.61479 1.21528 0
M  V30 1186 C 124.251 0.319596 1.92363 0
M  V30 1187 O 123.521 -0.663194 1.84333 0
M  V30 1188 H 122.101 0.595055 0.451573 0
M  V30 1189 H 124.763 1.87355 0.53704 0
M  V30 1190 H 123.859 2.42846 1.96042 0
M  V30 1191 N 124.16 -0.719506 1.40217 0
M  V30 1192 C 125.07 -1.86378 1.42479 0
M  V30 1193 C 126.086 -1.71073 0.317834 0
M  V30 1194 O 127.262 -1.93406 0.561794 0
M  V30 1195 C 124.327 -3.22136 1.28178 0
M  V30 1196 C 123.388 -3.49723 2.48982 0
M  V30 1197 C 122.621 -4.79004 2.35353 0
M  V30 1198 O 122.844 -5.53821 1.36524 0
M  V30 1199 O 121.778 -5.06839 3.2465 0
M  V30 1200 H 125.604 -1.87425 2.38968 0
M  V30 1201 H 123.189 -0.869405 1.21498 0
M  V30 1202 H 125.071 -4.03234 1.22395 0
M  V30 1203 H 123.746 -3.21825 0.347934 0
M  V30 1204 H 122.653 -2.6865 2.60342 0
M  V30 1205 H 123.986 -3.54828 3.41113 0
M  V30 1206 N 125.638 -1.25649 -0.95132 0
M  V30 1207 C 126.57 -1.02112 -2.05197 0
M  V30 1208 C 127.583 0.0150571 -1.62793 0
M  V30 1209 O 128.772 -0.223874 -1.77091 0
M  V30 1210 C 125.872 -0.522361 -3.3485 0
M  V30 1211 C 125.045 -1.62546 -4.06076 0
M  V30 1212 C 124.104 -1.12649 -5.14001 0
M  V30 1213 O 123.13 -1.82156 -5.39266 0
M  V30 1214 N 124.332 0.03047 -5.80492 0
M  V30 1215 H 127.097 -1.96885 -2.25957 0
M  V30 1216 H 124.658 -1.16899 -1.1201 0
M  V30 1217 H 126.65 -0.172961 -4.0433 0
M  V30 1218 H 125.22 0.33151 -3.10837 0
M  V30 1219 H 124.44 -2.14628 -3.30649 0
M  V30 1220 H 125.728 -2.36644 -4.50419 0
M  V30 1221 H 125.126 0.611169 -5.62389 0
M  V30 1222 H 123.683 0.320875 -6.5101 0
M  V30 1223 N 127.117 1.15442 -1.07289 0
M  V30 1224 C 128.363 1.86489 -0.796846 0
M  V30 1225 C 128.696 1.82078 0.675371 0
M  V30 1226 O 127.971 1.24346 1.4956 0
M  V30 1227 C 128.254 3.35626 -1.30489 0
M  V30 1228 C 128.107 3.48673 -2.84161 0
M  V30 1229 C 129.426 4.30357 -0.920907 0
M  V30 1230 H 126.545 0.677144 -0.290939 0
M  V30 1231 H 129.187 1.35633 -1.33056 0
M  V30 1232 H 127.337 3.79068 -0.850883 0
M  V30 1233 H 129.009 3.14099 -3.37846 0
M  V30 1234 H 127.252 2.90253 -3.22391 0
M  V30 1235 H 127.923 4.53453 -3.14777 0
M  V30 1236 H 130.399 3.94871 -1.3121 0
M  V30 1237 H 129.275 5.33193 -1.30372 0
M  V30 1238 H 129.536 4.4176 0.173226 0
M  V30 1239 N 128.595 0.856903 1.32268 0
M  V30 1240 C 129.528 0.247937 2.26849 0
M  V30 1241 C 130.506 -0.615382 1.50505 0
M  V30 1242 O 131.69 -0.571689 1.79622 0
M  V30 1243 C 128.817 -0.650093 3.32403 0
M  V30 1244 C 127.863 0.140138 4.2627 0
M  V30 1245 S 128.696 1.51004 5.13769 0
M  V30 1246 C 129.852 0.61778 6.22844 0
M  V30 1247 H 130.085 1.04971 2.78152 0
M  V30 1248 H 127.618 0.654665 1.39834 0
M  V30 1249 H 129.576 -1.16256 3.93694 0
M  V30 1250 H 128.237 -1.4257 2.7988 0
M  V30 1251 H 127.43 -0.543945 5.01056 0
M  V30 1252 H 127.032 0.584267 3.69408 0
M  V30 1253 H 129.324 -0.177053 6.77269 0
M  V30 1254 H 130.267 1.33636 6.95375 0
M  V30 1255 H 130.675 0.191124 5.64176 0
M  V30 1256 N 130.073 -1.45103 0.615059 0
M  V30 1257 C 131.005 -2.28786 -0.13762 0
M  V30 1258 C 132.018 -1.40376 -0.824525 0
M  V30 1259 O 133.207 -1.64681 -0.688662 0
M  V30 1260 C 130.307 -3.16322 -1.21628 0
M  V30 1261 C 129.48 -4.33054 -0.615039 0
M  V30 1262 C 128.539 -5.01743 -1.58556 0
M  V30 1263 O 127.565 -5.58293 -1.10895 0
M  V30 1264 N 128.767 -5.01714 -2.91998 0
M  V30 1265 H 131.532 -2.94025 0.580483 0
M  V30 1266 H 129.093 -1.55373 0.45507 0
M  V30 1267 H 131.085 -3.59139 -1.86552 0
M  V30 1268 H 129.655 -2.52943 -1.83681 0
M  V30 1269 H 128.875 -3.93627 0.21245 0
M  V30 1270 H 130.163 -5.08431 -0.193704 0
M  V30 1271 H 129.561 -4.57075 -3.33316 0
M  V30 1272 H 128.118 -5.48371 -3.52325 0
M  V30 1273 N 131.551 -0.354651 -1.53558 0
M  V30 1274 C 132.8 0.239504 -2.00273 0
M  V30 1275 C 133.113 1.50759 -1.24623 0
M  V30 1276 O 134.319 2.17968 -1.61871 0
M  V30 1277 C 132.775 0.477341 -3.5672 0
M  V30 1278 C 132.383 -0.775488 -4.41237 0
M  V30 1279 C 134.127 1.02975 -4.11821 0
M  V30 1280 C 132.034 -0.507838 -5.89216 0
M  V30 1281 H 130.964 0.0932743 -0.748208 0
M  V30 1282 H 133.615 -0.471701 -1.77334 0
M  V30 1283 H 131.997 1.24953 -3.7577 0
M  V30 1284 H 133.171 -1.54963 -4.33962 0
M  V30 1285 H 131.486 -1.25033 -3.97185 0
M  V30 1286 H 134.083 1.24513 -5.2 0
M  V30 1287 H 134.426 1.98862 -3.65731 0
M  V30 1288 H 134.959 0.317994 -3.96527 0
M  V30 1289 H 131.698 -1.43674 -6.39561 0
M  V30 1290 H 131.218 0.228011 -5.99366 0
M  V30 1291 H 132.897 -0.129238 -6.46871 0
M  V30 1292 N 133.029 1.57378 -0.0835403 0
M  V30 1293 C 133.992 2.12252 0.864959 0
M  V30 1294 C 134.992 1.04916 1.21858 0
M  V30 1295 O 136.182 1.30853 1.14991 0
M  V30 1296 C 133.314 2.63358 2.16461 0
M  V30 1297 H 134.507 2.97371 0.388676 0
M  V30 1298 H 132.06 1.55423 0.165317 0
M  V30 1299 H 132.795 1.81727 2.686 0
M  V30 1300 H 132.58 3.41826 1.92087 0
M  V30 1301 H 134.07 3.05847 2.84337 0
M  V30 1302 N 134.507 -0.190092 1.56449 0
M  V30 1303 C 135.732 -0.929864 1.85387 0
M  V30 1304 C 136.157 -1.7585 0.667704 0
M  V30 1305 O 135.515 -1.77198 -0.383459 0
M  V30 1306 C 135.563 -1.79773 3.12593 0
M  V30 1307 O 134.667 -2.89713 2.93496 0
M  V30 1308 H 134.008 -0.261574 0.610307 0
M  V30 1309 H 136.538 -0.193896 2.03679 0
M  V30 1310 H 136.548 -2.20139 3.43515 0
M  V30 1311 H 135.223 -1.18892 3.98544 0
M  V30 1312 H 133.8 -2.53065 2.73884 0
M  V30 1313 N 135.985 -1.50799 -0.457987 0
M  V30 1314 C 136.895 -1.73426 -1.57989 0
M  V30 1315 C 137.911 -0.617745 -1.62665 0
M  V30 1316 O 139.087 -0.897614 -1.80291 0
M  V30 1317 C 136.152 -1.83557 -2.94122 0
M  V30 1318 C 135.213 -3.07345 -2.99729 0
M  V30 1319 C 134.446 -3.16983 -4.29368 0
M  V30 1320 O 134.669 -2.33077 -5.20607 0
M  V30 1321 O 133.603 -4.09812 -4.40837 0
M  V30 1322 H 137.429 -2.68555 -1.41817 0
M  V30 1323 H 135.014 -1.35052 -0.638859 0
M  V30 1324 H 136.896 -1.92326 -3.74952 0
M  V30 1325 H 135.571 -0.916137 -3.10465 0
M  V30 1326 H 134.478 -3.04068 -2.1793 0
M  V30 1327 H 135.811 -3.9891 -2.88326 0
M  V30 1328 N 137.463 0.71206 -1.40597 0
M  V30 1329 C 138.688 1.50617 -1.42581 0
M  V30 1330 C 139.113 1.88079 -0.0282102 0
M  V30 1331 O 138.471 1.53511 0.964579 0
M  V30 1332 C 138.519 2.7557 -2.3258 0
M  V30 1333 O 137.623 3.72414 -1.77148 0
M  V30 1334 H 136.964 0.453966 -0.484573 0
M  V30 1335 H 139.494 0.876649 -1.84868 0
M  V30 1336 H 139.504 3.2406 -2.47889 0
M  V30 1337 H 138.179 2.47639 -3.34138 0
M  V30 1338 H 136.756 3.31276 -1.71204 0
M  V30 1339 N 138.941 1.26152 0.944643 0
M  V30 1340 C 140.19 1.10883 1.68487 0
M  V30 1341 C 140.503 -0.348153 1.92477 0
M  V30 1342 O 141.709 -0.621459 2.64292 0
M  V30 1343 C 140.165 1.93624 3.03377 0
M  V30 1344 C 139.773 3.43875 2.87148 0
M  V30 1345 C 141.517 1.86954 3.81115 0
M  V30 1346 C 139.424 4.18875 4.1749 0
M  V30 1347 H 138.354 0.41135 0.631907 0
M  V30 1348 H 141.005 1.50433 1.05082 0
M  V30 1349 H 139.387 1.46904 3.67743 0
M  V30 1350 H 140.561 3.98338 2.31653 0
M  V30 1351 H 138.876 3.51744 2.22856 0
M  V30 1352 H 141.473 2.40275 4.77673 0
M  V30 1353 H 141.816 0.839518 4.07747 0
M  V30 1354 H 142.349 2.31477 3.23517 0
M  V30 1355 H 139.088 5.22332 3.96043 0
M  V30 1356 H 138.608 3.69193 4.72712 0
M  V30 1357 H 140.287 4.27134 4.85968 0
M  V30 1358 N 140.419 -1.14872 1.07899 0
M  V30 1359 C 141.644 -1.90202 0.826926 0
M  V30 1360 C 142.069 -1.77774 -0.614664 0
M  V30 1361 O 141.427 -1.11431 -1.43013 0
M  V30 1362 C 141.475 -3.38352 1.24702 0
M  V30 1363 O 140.579 -4.10497 0.39575 0
M  V30 1364 H 139.92 -0.591968 0.300782 0
M  V30 1365 H 142.45 -1.45437 1.43907 0
M  V30 1366 H 142.46 -3.89156 1.22563 0
M  V30 1367 H 141.135 -3.46715 2.29698 0
M  V30 1368 H 139.712 -3.69796 0.480117 0
M  V30 1369 N 141.898 -0.863906 -1.31812 0
M  V30 1370 C 142.846 -0.30422 -2.30602 0
M  V30 1371 C 143.84 0.577419 -1.59255 0
M  V30 1372 O 145.046 0.464194 -1.73912 0
M  V30 1373 H 141.421 -0.0796877 -0.747766 0
M  V30 1374 H 143.392 -1.15148 -2.75288 0
M  V30 1375 C 142.141 0.484617 -3.44306 0
M  V30 1376 H 141.464 -0.18451 -3.99374 0
M  V30 1377 H 142.904 0.841664 -4.15562 0
M  V30 1378 C 141.363 1.6735 -2.92396 0
M  V30 1379 O 141.893 2.77273 -2.90659 0
M  V30 1380 N 140.099 1.50362 -2.48676 0
M  V30 1381 H 139.646 0.609402 -2.50288 0
M  V30 1382 H 139.604 2.30051 -2.14299 0
M  V30 1383 N 143.376 1.44774 -0.622745 0
M  V30 1384 C 144.653 1.95522 -0.0551974 0
M  V30 1385 C 145.033 1.5649 1.41683 0
M  V30 1386 O 144.381 0.834848 2.12703 0
M  V30 1387 C 144.591 3.4796 -0.269242 0
M  V30 1388 C 145.939 4.24306 -0.158014 0
M  V30 1389 O 146.963 3.55637 -0.200162 0
M  V30 1390 O 145.822 5.46471 -0.0558693 0
M  V30 1391 H 142.916 0.826556 0.0271015 0
M  V30 1392 H 145.462 1.54866 -0.693864 0
M  V30 1393 H 144.234 3.6939 -1.29099 0
M  V30 1394 H 143.857 3.95543 0.403966 0
M  V30 1395 N 144.854 0.36279 1.53368 0
M  V30 1396 C 146.131 -0.284021 1.93527 0
M  V30 1397 C 146.511 -1.66628 1.29608 0
M  V30 1398 O 145.859 -2.23942 0.45413 0
M  V30 1399 C 146.069 -0.337028 3.47369 0
M  V30 1400 C 147.417 -0.578708 4.20638 0
M  V30 1401 O 148.441 -0.418352 3.53735 0
M  V30 1402 O 147.3 -0.89074 5.39192 0
M  V30 1403 H 144.394 -0.169743 0.809393 0
M  V30 1404 H 146.94 0.41537 1.64538 0
M  V30 1405 H 145.712 0.632217 3.86159 0
M  V30 1406 H 145.335 -1.08243 3.82582 0
M  V30 1407 N 146.332 -1.57332 0.0918853 0
M  V30 1408 C 147.262 -2.16872 -0.865371 0
M  V30 1409 C 148.243 -1.10118 -1.29646 0
M  V30 1410 O 149.428 -1.38242 -1.36392 0
M  V30 1411 C 146.558 -2.74649 -2.12569 0
M  V30 1412 C 145.512 -3.86747 -1.83333 0
M  V30 1413 C 144.838 -4.31212 -3.16166 0
M  V30 1414 C 146.138 -5.10089 -1.1228 0
M  V30 1415 H 147.832 -2.97114 -0.369307 0
M  V30 1416 H 145.378 -1.42918 -0.176194 0
M  V30 1417 H 147.331 -3.14952 -2.7997 0
M  V30 1418 H 146.055 -1.91657 -2.64452 0
M  V30 1419 H 144.714 -3.46978 -1.18331 0
M  V30 1420 H 144.362 -3.45115 -3.6593 0
M  V30 1421 H 144.062 -5.06788 -2.97388 0
M  V30 1422 H 145.586 -4.74146 -3.84731 0
M  V30 1423 H 147 -5.47582 -1.69785 0
M  V30 1424 H 145.397 -5.91073 -1.03693 0
M  V30 1425 H 146.467 -4.84786 -0.105041 0
M  V30 1426 N 147.81 0.181792 -1.56548 0
M  V30 1427 C 148.74 1.22765 -1.98623 0
M  V30 1428 C 149.721 1.46747 -0.860189 0
M  V30 1429 O 150.906 1.58259 -1.12551 0
M  V30 1430 C 148.036 2.56894 -2.33715 0
M  V30 1431 C 146.99 2.475 -3.49182 0
M  V30 1432 C 146.316 3.86023 -3.69986 0
M  V30 1433 C 147.616 1.98866 -4.82959 0
M  V30 1434 H 149.31 0.877942 -2.86239 0
M  V30 1435 H 146.856 0.42088 -1.37712 0
M  V30 1436 H 148.809 3.30253 -2.61746 0
M  V30 1437 H 147.533 2.93632 -1.42997 0
M  V30 1438 H 146.192 1.76596 -3.21262 0
M  V30 1439 H 145.84 4.20136 -2.76576 0
M  V30 1440 H 145.54 3.80609 -4.47672 0
M  V30 1441 H 147.064 4.60984 -4.00407 0
M  V30 1442 H 148.478 2.61992 -5.09934 0
M  V30 1443 H 146.875 2.04424 -5.64208 0
M  V30 1444 H 147.945 0.942465 -4.75653 0
M  V30 1445 N 149.288 1.51039 0.449983 0
M  V30 1446 C 150.235 1.71439 1.54523 0
M  V30 1447 C 151.205 0.555871 1.56522 0
M  V30 1448 O 152.39 0.788871 1.73728 0
M  V30 1449 C 149.53 1.83384 2.92343 0
M  V30 1450 C 148.643 3.10873 2.9997 0
M  V30 1451 C 147.778 3.13488 4.28834 0
M  V30 1452 C 146.817 4.35343 4.30282 0
M  V30 1453 N 145.954 4.35579 5.5065 0
M  V30 1454 H 150.794 2.64934 1.36433 0
M  V30 1455 H 148.331 1.31312 0.662982 0
M  V30 1456 H 150.289 1.88291 3.72293 0
M  V30 1457 H 148.919 0.933086 3.0902 0
M  V30 1458 H 147.971 3.15336 2.12761 0
M  V30 1459 H 149.283 4.00814 2.96901 0
M  V30 1460 H 148.437 3.17241 5.17149 0
M  V30 1461 H 147.176 2.21414 4.34543 0
M  V30 1462 H 146.181 4.3178 3.40362 0
M  V30 1463 H 147.406 5.28668 4.26248 0
M  V30 1464 H 145.352 3.46369 5.57104 0
M  V30 1465 H 145.269 5.19313 5.49409 0
M  V30 1466 H 146.537 4.43507 6.41032 0
M  V30 1467 N 150.766 -0.704594 1.40972 0
M  V30 1468 C 151.696 -1.83124 1.44872 0
M  V30 1469 C 152.677 -1.67281 0.30838 0
M  V30 1470 O 153.862 -1.87149 0.518556 0
M  V30 1471 C 150.992 -3.21181 1.32136 0
M  V30 1472 C 149.946 -3.51714 2.43888 0
M  V30 1473 C 149.272 -4.89032 2.16222 0
M  V30 1474 C 150.572 -3.516 3.86232 0
M  V30 1475 H 152.266 -1.80117 2.39161 0
M  V30 1476 H 149.812 -0.865145 1.15114 0
M  V30 1477 H 151.765 -3.99702 1.33479 0
M  V30 1478 H 150.489 -3.24791 0.343279 0
M  V30 1479 H 149.148 -2.75539 2.41813 0
M  V30 1480 H 148.796 -4.89256 1.16778 0
M  V30 1481 H 148.496 -5.10426 2.911 0
M  V30 1482 H 150.02 -5.69873 2.19265 0
M  V30 1483 H 151.434 -4.2014 3.9007 0
M  V30 1484 H 149.831 -3.84523 4.60719 0
M  V30 1485 H 150.901 -2.50757 4.15029 0
M  V30 1486 N 152.244 -1.26651 -0.937939 0
M  V30 1487 C 153.492 -1.12165 -1.68118 0
M  V30 1488 C 153.813 0.334983 -1.92101 0
M  V30 1489 O 153.083 1.23583 -1.52 0
M  V30 1490 H 151.663 -0.412093 -0.623048 0
M  V30 1491 H 154.325 -1.59027 -1.12678 0
M  V30 1492 H 153.421 -1.64289 -2.6536 0
M  V30 1493 N 153.722 1.14298 -1.08507 0
M  V30 1494 C 154.669 2.19414 -0.715965 0
M  V30 1495 C 155.639 1.63399 0.298326 0
M  V30 1496 O 156.824 1.89929 0.182101 0
M  V30 1497 C 153.964 3.44845 -0.132534 0
M  V30 1498 C 153.077 4.15007 -1.19973 0
M  V30 1499 C 152.212 5.28024 -0.580048 0
M  V30 1500 C 151.251 5.9002 -1.62921 0
M  V30 1501 N 150.388 6.94485 -1.03125 0
M  V30 1502 H 155.228 2.50336 -1.61666 0
M  V30 1503 H 152.765 1.2293 -0.807882 0
M  V30 1504 H 154.723 4.16601 0.223454 0
M  V30 1505 H 153.353 3.14403 0.731467 0
M  V30 1506 H 152.405 3.41629 -1.67313 0
M  V30 1507 H 153.717 4.57178 -1.99473 0
M  V30 1508 H 152.871 6.06455 -0.172364 0
M  V30 1509 H 151.61 4.87076 0.246603 0
M  V30 1510 H 150.615 5.10291 -2.04654 0
M  V30 1511 H 151.84 6.33042 -2.45835 0
M  V30 1512 H 149.786 6.55612 -0.225711 0
M  V30 1513 H 149.703 7.35148 -1.76334 0
M  V30 1514 H 150.971 7.7679 -0.649458 0
M  V30 1515 N 155.201 0.870884 1.31352 0
M  V30 1516 C 156.617 0.562932 1.49343 0
M  V30 1517 C 156.817 -0.902725 1.80148 0
M  V30 1518 O 155.873 -1.68484 1.88067 0
M  V30 1519 C 157.186 1.46393 2.62659 0
M  V30 1520 C 158.734 1.46607 2.76542 0
M  V30 1521 C 159.209 2.35266 3.92955 0
M  V30 1522 N 160.7 2.33151 4.00243 0
M  V30 1523 C 161.435 2.98471 4.89594 0
M  V30 1524 N 160.931 3.72964 5.8384 0
M  V30 1525 N 162.724 2.87775 4.82848 0
M  V30 1526 H 154.875 1.81923 1.09626 0
M  V30 1527 H 157.138 0.777934 0.541777 0
M  V30 1528 H 156.844 2.50689 2.46674 0
M  V30 1529 H 156.718 1.16314 3.58819 0
M  V30 1530 H 159.105 0.43069 2.9194 0
M  V30 1531 H 159.186 1.8071 1.81046 0
M  V30 1532 H 158.83 3.38881 3.78315 0
M  V30 1533 H 158.76 1.98487 4.87761 0
M  V30 1534 H 161.251 1.79006 3.32814 0
M  V30 1535 H 161.564 4.19932 6.4875 0
M  V30 1536 H 159.909 3.77073 5.83816 0
M  V30 1537 H 163.1 2.29116 4.08195 0
M  V30 1538 H 163.273 3.38961 5.52277 0
M  V30 1539 N 156.679 -1.44442 0.630414 0
M  V30 1540 C 157.925 -2.02351 0.134816 0
M  V30 1541 C 158.258 -1.4947 -1.23986 0
M  V30 1542 O 157.533 -0.678475 -1.82283 0
M  V30 1543 C 157.816 -3.59898 0.120707 0
M  V30 1544 C 157.669 -4.23063 1.52767 0
M  V30 1545 C 158.988 -4.36585 -0.555127 0
M  V30 1546 H 156.107 -0.73527 0.0504646 0
M  V30 1547 H 158.749 -1.72022 0.806751 0
M  V30 1548 H 156.899 -3.85868 -0.451477 0
M  V30 1549 H 158.571 -4.08202 2.14869 0
M  V30 1550 H 156.814 -3.80586 2.08175 0
M  V30 1551 H 157.485 -5.32071 1.46984 0
M  V30 1552 H 159.961 -4.16044 -0.0685429 0
M  V30 1553 H 158.837 -5.46294 -0.534185 0
M  V30 1554 H 159.098 -4.11138 -1.62535 0
M  V30 1555 N 158.157 -0.370918 -1.53173 0
M  V30 1556 C 159.12 0.460778 -2.24521 0
M  V30 1557 C 160.12 1.00536 -1.25496 0
M  V30 1558 O 161.31 0.890266 -1.49733 0
M  V30 1559 C 158.442 1.64457 -2.98608 0
M  V30 1560 H 159.635 -0.163613 -2.99453 0
M  V30 1561 H 157.188 -0.122699 -1.55818 0
M  V30 1562 H 157.923 2.30691 -2.2793 0
M  V30 1563 H 157.708 1.26099 -3.7127 0
M  V30 1564 H 159.198 2.23384 -3.5283 0
M  V30 1565 N 159.635 1.57281 -0.100228 0
M  V30 1566 C 160.545 2.17833 0.870965 0
M  V30 1567 C 161.561 1.14921 1.30649 0
M  V30 1568 O 162.737 1.47313 1.37335 0
M  V30 1569 C 159.802 2.75085 2.1102 0
M  V30 1570 C 158.863 3.9297 1.72838 0
M  V30 1571 C 158.096 4.47482 2.90854 0
M  V30 1572 O 158.319 4.00922 4.05731 0
M  V30 1573 O 157.253 5.38433 2.69023 0
M  V30 1574 H 161.079 3.0124 0.38575 0
M  V30 1575 H 158.664 1.48881 0.124397 0
M  V30 1576 H 160.546 3.11656 2.83634 0
M  V30 1577 H 159.221 1.94721 2.58584 0
M  V30 1578 H 158.128 3.61201 0.973883 0
M  V30 1579 H 159.461 4.74713 1.30033 0
M  V30 1580 N 161.113 -0.173488 1.56642 0
M  V30 1581 C 162.043 -1.2171 1.99271 0
M  V30 1582 C 163.024 -1.46289 0.867959 0
M  V30 1583 O 164.209 -1.5766 1.13388 0
M  V30 1584 C 161.339 -2.55651 2.35074 0
M  V30 1585 C 160.293 -2.45645 3.50489 0
M  V30 1586 C 159.619 -3.84056 3.72028 0
M  V30 1587 C 160.919 -1.96302 4.84007 0
M  V30 1588 H 162.613 -0.86275 2.867 0
M  V30 1589 H 160.159 -0.413571 1.37933 0
M  V30 1590 H 162.112 -3.2886 2.63494 0
M  V30 1591 H 160.836 -2.92869 1.44552 0
M  V30 1592 H 159.495 -1.7489 3.22194 0
M  V30 1593 H 159.143 -4.18664 2.788 0
M  V30 1594 H 158.843 -3.7823 4.49684 0
M  V30 1595 H 160.367 -4.58854 4.02846 0
M  V30 1596 H 161.781 -2.59284 5.11317 0
M  V30 1597 H 160.178 -2.01429 5.65284 0
M  V30 1598 H 161.248 -0.917226 4.76146 0
M  V30 1599 N 162.591 -1.51276 -0.441967 0
M  V30 1600 C 163.554 -1.7167 -1.51862 0
M  V30 1601 C 164.554 -0.586793 -1.49711 0
M  V30 1602 O 165.744 -0.854276 -1.51815 0
M  V30 1603 C 162.876 -1.76889 -2.91416 0
M  V30 1604 H 164.069 -2.67754 -1.35084 0
M  V30 1605 H 161.622 -1.41196 -0.670333 0
M  V30 1606 H 162.357 -0.826026 -3.13604 0
M  V30 1607 H 162.142 -2.59001 -2.94382 0
M  V30 1608 H 163.632 -1.94522 -3.69528 0
M  V30 1609 N 164.069 0.697108 -1.41344 0
M  V30 1610 C 164.979 1.84088 -1.45427 0
M  V30 1611 C 165.995 1.70545 -0.34501 0
M  V30 1612 O 167.171 1.92488 -0.592492 0
M  V30 1613 C 164.236 3.20056 -1.33286 0
M  V30 1614 C 163.297 3.45718 -2.54514 0
M  V30 1615 C 162.53 4.75199 -2.42944 0
M  V30 1616 O 162.753 5.51579 -1.45318 0
M  V30 1617 O 161.687 5.0161 -3.32672 0
M  V30 1618 H 165.513 1.836 -2.41919 0
M  V30 1619 H 163.098 0.849966 -1.22866 0
M  V30 1620 H 164.98 4.01236 -1.28794 0
M  V30 1621 H 163.655 3.2123 -0.39909 0
M  V30 1622 H 162.562 2.64474 -2.64583 0
M  V30 1623 H 163.895 3.49356 -3.46715 0
M  V30 1624 N 165.547 1.27147 0.931209 0
M  V30 1625 C 166.772 1.16191 1.71797 0
M  V30 1626 C 167.197 -0.278004 1.86034 0
M  V30 1627 O 166.555 -1.20137 1.35782 0
M  V30 1628 C 166.603 1.84673 3.09723 0
M  V30 1629 O 165.707 1.14231 3.96264 0
M  V30 1630 H 165.048 0.404303 0.526721 0
M  V30 1631 H 167.578 1.68152 1.1656 0
M  V30 1632 H 167.588 1.91893 3.60057 0
M  V30 1633 H 166.263 2.89421 2.98677 0
M  V30 1634 H 164.84 1.15056 3.54706 0
M  V30 1635 N 167.025 -1.13721 1.09112 0
M  V30 1636 C 167.972 -2.19031 0.727591 0
M  V30 1637 C 168.942 -1.63555 -0.289656 0
M  V30 1638 O 170.127 -1.90023 -0.172026 0
M  V30 1639 C 167.267 -3.4477 0.15082 0
M  V30 1640 C 166.38 -4.14365 1.22172 0
M  V30 1641 C 165.515 -5.27709 0.608042 0
M  V30 1642 C 164.554 -5.89147 1.66047 0
M  V30 1643 N 163.691 -6.93929 1.06806 0
M  V30 1644 H 168.531 -2.49475 1.62991 0
M  V30 1645 H 166.068 -1.22499 0.81439 0
M  V30 1646 H 168.026 -4.16714 -0.201358 0
M  V30 1647 H 166.656 -3.14787 -0.714783 0
M  V30 1648 H 165.708 -3.40737 1.69122 0
M  V30 1649 H 167.02 -4.56114 2.01895 0
M  V30 1650 H 166.174 -6.06355 0.204523 0
M  V30 1651 H 164.913 -4.872 -0.220769 0
M  V30 1652 H 163.918 -5.09198 2.07357 0
M  V30 1653 H 165.143 -6.31729 2.49189 0
M  V30 1654 H 163.089 -6.55483 0.260476 0
M  V30 1655 H 163.006 -7.34202 1.8023 0
M  V30 1656 H 164.274 -7.76434 0.690644 0
M  V30 1657 N 168.503 -0.877838 -1.30888 0
M  V30 1658 C 169.78 -0.413052 -1.91189 0
M  V30 1659 C 170.16 1.1056 -1.79832 0
M  V30 1660 O 169.508 1.93771 -1.21099 0
M  V30 1661 C 169.718 -0.903191 -3.3711 0
M  V30 1662 C 171.066 -0.93395 -4.14201 0
M  V30 1663 O 172.09 -0.849373 -3.45925 0
M  V30 1664 O 170.949 -1.05772 -5.36167 0
M  V30 1665 H 168.043 -0.125035 -0.817493 0
M  V30 1666 H 170.589 -0.966269 -1.39504 0
M  V30 1667 H 169.361 -1.94692 -3.39427 0
M  V30 1668 H 168.984 -0.328732 -3.96239 0
M  V30 1669 N 169.982 1.44106 -0.638065 0
M  V30 1670 C 171.228 2.02277 -0.145546 0
M  V30 1671 C 171.561 1.50125 1.23191 0
M  V30 1672 O 170.836 0.688133 1.8192 0
M  V30 1673 C 171.119 3.59829 -0.139791 0
M  V30 1674 C 170.972 4.22247 -1.55008 0
M  V30 1675 C 172.291 4.36873 0.531966 0
M  V30 1676 H 169.41 0.734992 -0.0543632 0
M  V30 1677 H 172.052 1.71592 -0.815863 0
M  V30 1678 H 170.202 3.86102 0.431007 0
M  V30 1679 H 171.874 4.07057 -2.1703 0
M  V30 1680 H 170.117 3.79476 -2.10191 0
M  V30 1681 H 170.788 5.31284 -1.49804 0
M  V30 1682 H 173.264 4.16074 0.0464781 0
M  V30 1683 H 172.14 5.4657 0.505206 0
M  V30 1684 H 172.401 4.11995 1.60352 0
M  V30 1685 N 171.46 0.379036 1.52974 0
M  V30 1686 C 172.737 -0.263479 1.93817 0
M  V30 1687 C 173.117 -1.65244 1.31368 0
M  V30 1688 O 172.465 -2.23448 0.477856 0
M  V30 1689 C 172.675 -0.300166 3.47707 0
M  V30 1690 C 174.023 -0.534061 4.21228 0
M  V30 1691 O 175.047 -0.38081 3.54159 0
M  V30 1692 O 173.906 -0.833501 5.40106 0
M  V30 1693 H 171 -0.161149 0.811147 0
M  V30 1694 H 173.546 0.432798 1.64088 0
M  V30 1695 H 172.318 0.673138 3.85467 0
M  V30 1696 H 171.941 -1.04179 3.83709 0
M  V30 1697 N 172.938 -1.57226 0.108567 0
M  V30 1698 C 174.186 -1.94448 -0.550853 0
M  V30 1699 C 174.507 -0.992074 -1.67878 0
M  V30 1700 O 173.777 -0.0465 -1.95845 0
M  V30 1701 H 172.357 -0.717897 -0.206479 0
M  V30 1702 H 175.019 -1.94112 0.175062 0
M  V30 1703 H 174.115 -2.97218 -0.952259 0
M  V30 1704 N 174.416 0.165178 -1.56732 0
M  V30 1705 C 175.665 0.879143 -1.81532 0
M  V30 1706 C 175.978 1.83144 -0.686842 0
M  V30 1707 O 177.184 2.58823 -0.819944 0
M  V30 1708 C 175.64 1.61388 -3.21686 0
M  V30 1709 C 175.248 0.704904 -4.4242 0
M  V30 1710 C 176.992 2.3157 -3.55774 0
M  V30 1711 C 174.899 1.44022 -5.73595 0
M  V30 1712 H 173.829 0.332033 -0.676957 0
M  V30 1713 H 176.48 0.132008 -1.83025 0
M  V30 1714 H 174.862 2.40599 -3.14529 0
M  V30 1715 H 176.036 -0.0506815 -4.60772 0
M  V30 1716 H 174.351 0.112419 -4.16248 0
M  V30 1717 H 176.948 2.8719 -4.51028 0
M  V30 1718 H 177.291 3.07201 -2.8095 0
M  V30 1719 H 177.824 1.59297 -3.64513 0
M  V30 1720 H 174.563 0.72612 -6.51466 0
M  V30 1721 H 174.083 2.16898 -5.5921 0
M  V30 1722 H 175.762 1.98606 -6.15764 0
M  V30 1723 N 175.894 1.51508 0.433938 0
M  V30 1724 C 177.14 1.64588 1.18484 0
M  V30 1725 C 177.473 0.362666 1.90784 0
M  V30 1726 O 176.748 -0.637892 1.83742 0
M  V30 1727 C 177.031 2.85149 2.19913 0
M  V30 1728 C 176.884 4.23456 1.51674 0
M  V30 1729 C 178.203 3.01227 3.20858 0
M  V30 1730 H 175.322 0.598994 0.429389 0
M  V30 1731 H 177.964 1.84002 0.473647 0
M  V30 1732 H 176.114 2.68729 2.80566 0
M  V30 1733 H 177.786 4.51552 0.943322 0
M  V30 1734 H 176.029 4.25998 0.819035 0
M  V30 1735 H 176.7 5.03812 2.2556 0
M  V30 1736 H 179.176 3.16382 2.70263 0
M  V30 1737 H 178.052 3.87141 3.89118 0
M  V30 1738 H 178.313 2.13447 3.8716 0
M  V30 1739 N 177.372 -0.689602 1.41712 0
M  V30 1740 C 178.621 -1.44534 1.40686 0
M  V30 1741 C 178.934 -1.95588 0.0213352 0
M  V30 1742 O 180.14 -2.71271 -0.111534 0
M  V30 1743 C 178.596 -2.61387 2.47396 0
M  V30 1744 C 178.204 -2.17094 3.91885 0
M  V30 1745 C 179.948 -3.38986 2.55517 0
M  V30 1746 C 177.855 -3.3094 4.90135 0
M  V30 1747 H 176.785 -0.542925 0.52321 0
M  V30 1748 H 179.436 -0.748054 1.6756 0
M  V30 1749 H 177.818 -3.33412 2.13664 0
M  V30 1750 H 178.992 -1.52318 4.34897 0
M  V30 1751 H 177.307 -1.52473 3.8748 0
M  V30 1752 H 179.904 -4.23747 3.26102 0
M  V30 1753 H 180.247 -3.84578 1.59391 0
M  V30 1754 H 180.78 -2.74021 2.8837 0
M  V30 1755 H 177.519 -2.90355 5.87685 0
M  V30 1756 H 177.039 -3.94546 4.51767 0
M  V30 1757 H 178.718 -3.9663 5.11169 0
M  V30 1758 N 178.85 -1.27639 -0.924453 0
M  V30 1759 C 180.078 -1.16989 -1.70649 0
M  V30 1760 C 180.493 0.272869 -1.86818 0
M  V30 1761 O 179.85 1.18549 -1.38753 0
M  V30 1762 C 179.901 -1.85229 -3.10439 0
M  V30 1763 O 179.622 -3.23868 -2.95028 0
M  V30 1764 C 181.123 -1.80746 -4.04779 0
M  V30 1765 H 178.343 -0.406595 -0.53378 0
M  V30 1766 H 180.887 -1.68569 -1.15778 0
M  V30 1767 H 179.042 -1.37545 -3.6216 0
M  V30 1768 H 179.456 -3.57889 -3.83426 0
M  V30 1769 H 180.93 -2.33101 -5.00368 0
M  V30 1770 H 181.407 -0.777499 -4.32263 0
M  V30 1771 H 182.013 -2.28059 -3.58984 0
M  V30 1772 N 180.328 1.1314 -1.09713 0
M  V30 1773 C 181.278 2.16709 -0.708593 0
M  V30 1774 C 182.262 1.58471 0.278523 0
M  V30 1775 O 183.454 1.76779 0.088427 0
M  V30 1776 C 180.583 3.43039 -0.133923 0
M  V30 1777 C 179.669 4.08277 -1.14763 0
M  V30 1778 N 180.06 4.48637 -2.33577 0
M  V30 1779 C 178.358 4.34954 -0.986446 0
M  V30 1780 C 179.059 4.9952 -2.98085 0
M  V30 1781 N 178.035 4.94561 -2.25632 0
M  V30 1782 H 181.837 2.45672 -1.61315 0
M  V30 1783 H 179.351 1.29967 -0.973775 0
M  V30 1784 H 181.348 4.16583 0.162465 0
M  V30 1785 H 180.008 3.15549 0.765447 0
M  V30 1786 H 181.019 4.41246 -2.7115 0
M  V30 1787 H 177.696 4.17258 -0.142008 0
M  V30 1788 H 179.086 5.40521 -3.99108 0
M  V30 1789 N 181.806 0.884767 1.30421 0
M  V30 1790 C 183.054 0.502112 1.95763 0
M  V30 1791 C 183.375 -0.951815 1.70192 0
M  V30 1792 O 182.645 -1.6692 1.0254 0
M  V30 1793 H 181.225 0.182694 0.724315 0
M  V30 1794 H 183.887 1.1278 1.58955 0
M  V30 1795 H 182.983 0.672188 3.04775 0
M  V30 1796 N 183.284 -1.43765 0.645699 0
M  V30 1797 C 184.512 -2.06253 0.163556 0
M  V30 1798 C 184.927 -1.48352 -1.16778 0
M  V30 1799 O 184.284 -0.611932 -1.71935 0
M  V30 1800 C 184.335 -3.61453 0.0583186 0
M  V30 1801 O 184.056 -4.172 1.33702 0
M  V30 1802 C 185.557 -4.41002 -0.450795 0
M  V30 1803 H 182.777 -0.665413 0.0864077 0
M  V30 1804 H 185.321 -1.84396 0.884222 0
M  V30 1805 H 183.476 -3.82522 -0.612865 0
M  V30 1806 H 183.89 -5.10791 1.19131 0
M  V30 1807 H 185.364 -5.49966 -0.473403 0
M  V30 1808 H 185.841 -4.13488 -1.48068 0
M  V30 1809 H 186.447 -4.24886 0.187637 0
M  V30 1810 N 184.763 -0.387143 -1.52771 0
M  V30 1811 C 186.04 0.253197 -1.93954 0
M  V30 1812 C 186.42 1.64545 -1.32243 0
M  V30 1813 O 185.768 2.23191 -0.489699 0
M  V30 1814 C 185.978 0.281722 -3.47861 0
M  V30 1815 C 187.326 0.511715 -4.21505 0
M  V30 1816 O 188.35 0.362023 -3.54356 0
M  V30 1817 O 187.209 0.804847 -5.40541 0
M  V30 1818 H 184.303 0.156845 -0.811991 0
M  V30 1819 H 186.849 -0.441494 -1.63856 0
M  V30 1820 H 185.621 -0.693571 -3.85104 0
M  V30 1821 H 185.244 1.02142 -3.84256 0
M  V30 1822 N 186.241 1.57166 -0.116904 0
M  V30 1823 C 187.469 1.99473 0.549383 0
M  V30 1824 C 187.884 0.996541 1.60357 0
M  V30 1825 O 187.241 -0.0108731 1.82497 0
M  V30 1826 C 187.292 3.41788 1.17741 0
M  V30 1827 O 187.013 4.37788 0.165362 0
M  V30 1828 C 188.514 3.99216 1.92722 0
M  V30 1829 H 185.734 0.655009 0.145616 0
M  V30 1830 H 188.278 2.03494 -0.202625 0
M  V30 1831 H 186.433 3.38713 1.88021 0
M  V30 1832 H 186.847 5.20806 0.621403 0
M  V30 1833 H 188.321 5.00882 2.31995 0
M  V30 1834 H 188.798 3.3824 2.80161 0
M  V30 1835 H 189.404 4.0583 1.27209 0
M  V30 1836 N 187.719 -0.156864 1.56817 0
M  V30 1837 C 188.649 -1.19589 2.00551 0
M  V30 1838 C 189.63 -1.4536 0.883426 0
M  V30 1839 O 190.815 -1.56449 1.15054 0
M  V30 1840 C 187.945 -2.53143 2.37773 0
M  V30 1841 C 186.899 -2.41913 3.53075 0
M  V30 1842 C 186.225 -3.80088 3.76081 0
M  V30 1843 C 187.525 -1.91157 4.86062 0
M  V30 1844 H 189.219 -0.832293 2.87599 0
M  V30 1845 H 186.765 -0.398918 1.38364 0
M  V30 1846 H 188.718 -3.26047 2.66967 0
M  V30 1847 H 187.442 -2.91319 1.4765 0
M  V30 1848 H 186.101 -1.71462 3.24031 0
M  V30 1849 H 185.749 -4.15683 2.83225 0
M  V30 1850 H 185.449 -3.73439 4.53671 0
M  V30 1851 H 186.973 -4.54556 4.0769 0
M  V30 1852 H 188.387 -2.53846 5.14038 0
M  V30 1853 H 186.784 -1.95422 5.67389 0
M  V30 1854 H 187.854 -0.866673 4.77092 0
M  V30 1855 N 189.197 -1.51736 -0.425897 0
M  V30 1856 C 190.107 -1.76738 -1.54275 0
M  V30 1857 C 191.123 -0.65211 -1.61318 0
M  V30 1858 O 192.299 -0.935654 -1.78346 0
M  V30 1859 C 189.364 -1.89755 -2.90162 0
M  V30 1860 C 188.425 -3.13633 -2.93143 0
M  V30 1861 C 187.658 -3.2602 -4.22548 0
M  V30 1862 O 187.881 -2.44067 -5.15546 0
M  V30 1863 O 186.815 -4.19071 -4.32046 0
M  V30 1864 H 190.641 -2.71502 -1.36089 0
M  V30 1865 H 188.226 -1.36376 -0.610069 0
M  V30 1866 H 190.108 -2.00236 -3.70788 0
M  V30 1867 H 188.783 -0.981785 -3.08452 0
M  V30 1868 H 187.69 -3.08622 -2.11431 0
M  V30 1869 H 189.023 -4.04936 -2.798 0
M  V30 1870 N 190.675 0.682077 -1.42076 0
M  V30 1871 C 191.585 1.82535 -1.47371 0
M  V30 1872 C 192.601 1.7017 -0.363079 0
M  V30 1873 O 193.777 1.91848 -0.612875 0
M  V30 1874 C 190.842 3.18624 -1.36674 0
M  V30 1875 C 189.903 3.42999 -2.58167 0
M  V30 1876 C 189.136 4.72595 -2.4797 0
M  V30 1877 O 189.359 5.50006 -1.5116 0
M  V30 1878 O 188.293 4.98054 -3.37974 0
M  V30 1879 H 192.119 1.81023 -2.43853 0
M  V30 1880 H 189.704 0.836887 -1.2376 0
M  V30 1881 H 191.586 3.99847 -1.33043 0
M  V30 1882 H 190.261 3.20789 -0.433138 0
M  V30 1883 H 189.168 2.61653 -2.67373 0
M  V30 1884 H 190.501 3.45659 -3.50401 0
M  V30 1885 N 192.153 1.28127 0.917671 0
M  V30 1886 C 193.381 1.17892 1.70026 0
M  V30 1887 C 193.796 -0.262958 1.8696 0
M  V30 1888 O 193.153 -1.17811 1.3938 0
M  V30 1889 C 193.204 1.86872 3.09453 0
M  V30 1890 O 192.925 3.25428 2.93306 0
M  V30 1891 C 194.426 1.8289 4.03815 0
M  V30 1892 H 191.646 0.40942 0.531617 0
M  V30 1893 H 194.19 1.69181 1.14883 0
M  V30 1894 H 192.345 1.39464 3.61426 0
M  V30 1895 H 192.759 3.59918 3.81523 0
M  V30 1896 H 194.233 2.35751 4.99125 0
M  V30 1897 H 194.71 0.800412 4.31845 0
M  V30 1898 H 195.316 2.29959 3.57769 0
M  V30 1899 N 193.631 -1.12557 1.10312 0
M  V30 1900 C 194.594 -2.16434 0.75424 0
M  V30 1901 C 195.594 -1.59278 -0.220685 0
M  V30 1902 O 196.784 -1.742 0.00230591 0
M  V30 1903 C 193.916 -3.40699 0.116987 0
M  V30 1904 H 195.109 -2.48811 1.67431 0
M  V30 1905 H 192.662 -1.27542 0.903475 0
M  V30 1906 H 193.397 -3.13921 -0.813877 0
M  V30 1907 H 193.182 -3.83459 0.818613 0
M  V30 1908 H 194.672 -4.17451 -0.111387 0
M  V30 1909 N 195.109 -0.891671 -1.2995 0
M  V30 1910 C 196.356 -0.513501 -1.95881 0
M  V30 1911 C 196.684 0.938655 -1.70351 0
M  V30 1912 O 195.939 1.67936 -1.00478 0
M  V30 1913 C 196.238 -0.742868 -3.49594 0
M  V30 1914 C 195.904 -2.17114 -3.95186 0
M  V30 1915 C 194.566 -2.56169 -4.07346 0
M  V30 1916 C 196.918 -3.10162 -4.18866 0
M  V30 1917 C 194.246 -3.87469 -4.4055 0
M  V30 1918 C 196.598 -4.41001 -4.53542 0
M  V30 1919 C 195.262 -4.79941 -4.63911 0
M  V30 1920 H 194.532 -0.187903 -0.71678 0
M  V30 1921 H 197.179 -1.1288 -1.54694 0
M  V30 1922 H 195.484 -0.044586 -3.91775 0
M  V30 1923 H 197.181 -0.429767 -3.9869 0
M  V30 1924 H 193.771 -1.85801 -3.86233 0
M  V30 1925 H 197.955 -2.81206 -4.08946 0
M  V30 1926 H 193.211 -4.17371 -4.46779 0
M  V30 1927 H 197.385 -5.13133 -4.70815 0
M  V30 1928 H 195.012 -5.81719 -4.89395 0
M  V30 1929 N 196.587 1.43421 -0.653314 0
M  V30 1930 C 197.834 2.01812 -0.166745 0
M  V30 1931 C 198.162 1.51535 1.21931 0
M  V30 1932 O 197.417 0.698975 1.82792 0
M  V30 1933 C 197.716 3.57176 -0.126623 0
M  V30 1934 C 197.382 4.26798 -1.45444 0
M  V30 1935 C 196.044 4.45534 -1.81805 0
M  V30 1936 C 198.396 4.66225 -2.32989 0
M  V30 1937 C 195.724 5.00961 -3.05377 0
M  V30 1938 C 198.076 5.23021 -3.55853 0
M  V30 1939 C 196.74 5.39973 -3.9241 0
M  V30 1940 H 196.01 0.738484 -0.0610162 0
M  V30 1941 H 198.657 1.71896 -0.84404 0
M  V30 1942 H 196.962 3.86634 0.634123 0
M  V30 1943 H 198.659 4.00112 0.266723 0
M  V30 1944 H 195.249 4.12561 -1.16153 0
M  V30 1945 H 199.433 4.51443 -2.06187 0
M  V30 1946 H 194.689 5.12271 -3.3375 0
M  V30 1947 H 198.863 5.52518 -4.23907 0
M  V30 1948 H 196.49 5.82687 -4.88242 0
M  V30 1949 N 198.065 0.39524 1.52563 0
M  V30 1950 C 198.995 -0.428384 2.29537 0
M  V30 1951 C 199.976 -1.05831 1.33169 0
M  V30 1952 O 201.161 -1.06995 1.62067 0
M  V30 1953 C 198.291 -1.55274 3.10656 0
M  V30 1954 C 197.245 -1.04855 4.14957 0
M  V30 1955 C 196.571 -2.26543 4.84337 0
M  V30 1956 C 197.871 -0.112324 5.22179 0
M  V30 1957 H 199.565 0.213867 2.98635 0
M  V30 1958 H 197.111 0.104298 1.43622 0
M  V30 1959 H 199.064 -2.1358 3.63265 0
M  V30 1960 H 197.788 -2.22266 2.39302 0
M  V30 1961 H 196.447 -0.487985 3.63338 0
M  V30 1962 H 196.095 -2.92059 4.09525 0
M  V30 1963 H 195.795 -1.93466 5.54837 0
M  V30 1964 H 197.319 -2.85481 5.39753 0
M  V30 1965 H 198.733 -0.603752 5.70112 0
M  V30 1966 H 197.13 0.128968 5.99961 0
M  V30 1967 H 198.2 0.837052 4.77621 0
M  V30 1968 N 199.544 -1.57102 0.125237 0
M  V30 1969 C 200.492 -2.16905 -0.839927 0
M  V30 1970 C 201.486 -1.11998 -1.27094 0
M  V30 1971 O 202.692 -1.3029 -1.24195 0
M  V30 1972 H 199.067 -0.694252 -0.288995 0
M  V30 1973 H 201.038 -2.96774 -0.311115 0
M  V30 1974 C 199.787 -2.78795 -2.07771 0
M  V30 1975 H 199.11 -3.59221 -1.755 0
M  V30 1976 H 200.55 -3.2417 -2.73295 0
M  V30 1977 C 199.009 -1.76193 -2.87155 0
M  V30 1978 O 199.539 -1.21909 -3.82755 0
M  V30 1979 N 197.745 -1.45991 -2.51267 0
M  V30 1980 H 197.292 -1.90325 -1.73592 0
M  V30 1981 H 197.25 -0.775844 -3.04677 0
M  V30 1982 N 201.022 0.148545 -1.56898 0
M  V30 1983 C 201.952 1.18524 -2.01182 0
M  V30 1984 C 202.933 1.4489 -0.891123 0
M  V30 1985 O 204.118 1.55836 -1.15882 0
M  V30 1986 C 201.248 2.51879 -2.39112 0
M  V30 1987 C 200.202 2.40038 -3.54353 0
M  V30 1988 C 199.528 3.78089 -3.78091 0
M  V30 1989 C 200.828 1.88577 -4.87069 0
M  V30 1990 H 202.522 0.817029 -2.88036 0
M  V30 1991 H 200.068 0.391575 -1.38574 0
M  V30 1992 H 202.021 3.24627 -2.68692 0
M  V30 1993 H 200.745 2.90532 -1.49193 0
M  V30 1994 H 199.404 1.69742 -3.24936 0
M  V30 1995 H 199.052 4.14175 -2.85426 0
M  V30 1996 H 198.752 3.71028 -4.55645 0
M  V30 1997 H 200.276 4.52387 -4.10095 0
M  V30 1998 H 201.69 2.51117 -5.15377 0
M  V30 1999 H 200.087 1.9241 -5.68417 0
M  V30 2000 H 201.157 0.84136 -4.77545 0
M  V30 2001 N 202.5 1.5196 0.417844 0
M  V30 2002 C 203.746 1.65836 1.16732 0
M  V30 2003 C 204.079 0.382881 1.90388 0
M  V30 2004 O 203.354 -0.618368 1.84408 0
M  V30 2005 C 203.637 2.87466 2.16876 0
M  V30 2006 C 203.49 4.25041 1.47174 0
M  V30 2007 C 204.809 3.04613 3.17646 0
M  V30 2008 H 201.928 0.603515 0.423011 0
M  V30 2009 H 204.57 1.84494 0.454105 0
M  V30 2010 H 202.72 2.71689 2.777 0
M  V30 2011 H 204.392 4.52527 0.895376 0
M  V30 2012 H 202.635 4.26843 0.773806 0
M  V30 2013 H 203.306 5.06176 2.20204 0
M  V30 2014 H 205.782 3.1923 2.66892 0
M  V30 2015 H 204.658 3.91247 3.8499 0
M  V30 2016 H 204.919 2.17541 3.84874 0
M  V30 2017 N 203.978 -0.674533 1.42435 0
M  V30 2018 C 204.888 -1.81751 1.48337 0
M  V30 2019 C 205.904 -1.69975 0.372099 0
M  V30 2020 O 207.08 -1.91521 0.62304 0
M  V30 2021 C 204.145 -3.17895 1.38361 0
M  V30 2022 C 203.206 -3.41625 2.59982 0
M  V30 2023 C 202.439 -4.71274 2.50473 0
M  V30 2024 O 202.662 -5.49197 1.54075 0
M  V30 2025 O 201.596 -4.96254 3.4061 0
M  V30 2026 H 205.422 -1.79728 2.44809 0
M  V30 2027 H 203.007 -0.830312 1.24202 0
M  V30 2028 H 204.889 -3.99136 1.35161 0
M  V30 2029 H 203.564 -3.20555 0.450144 0
M  V30 2030 H 202.471 -2.60231 2.68757 0
M  V30 2031 H 203.804 -3.43796 3.52229 0
M  V30 2032 N 205.456 -1.28612 -0.910864 0
M  V30 2033 C 206.403 -1.12786 -2.01365 0
M  V30 2034 C 207.373 -0.024201 -1.66082 0
M  V30 2035 O 208.558 -0.189667 -1.89855 0
M  V30 2036 C 205.698 -0.798743 -3.35729 0
M  V30 2037 C 204.811 -1.98173 -3.83864 0
M  V30 2038 C 203.946 -1.59298 -5.06752 0
M  V30 2039 C 202.985 -2.74245 -5.47226 0
M  V30 2040 N 202.122 -2.35842 -6.61304 0
M  V30 2041 H 206.962 -2.07142 -2.14234 0
M  V30 2042 H 204.499 -1.03093 -1.0493 0
M  V30 2043 H 206.457 -0.588662 -4.13026 0
M  V30 2044 H 205.087 0.10789 -3.2262 0
M  V30 2045 H 204.139 -2.30386 -3.02699 0
M  V30 2046 H 205.451 -2.84343 -4.09818 0
M  V30 2047 H 204.605 -1.34513 -5.916 0
M  V30 2048 H 203.344 -0.702618 -4.82612 0
M  V30 2049 H 202.349 -2.99725 -4.60918 0
M  V30 2050 H 203.574 -3.63928 -5.73353 0
M  V30 2051 H 201.52 -1.49279 -6.38789 0
M  V30 2052 H 201.437 -3.15546 -6.86998 0
M  V30 2053 H 202.705 -2.14348 -7.4945 0
M  V30 2054 N 206.934 1.1197 -1.10907 0
M  V30 2055 C 208.162 1.87402 -0.876824 0
M  V30 2056 C 208.577 1.79894 0.573025 0
M  V30 2057 O 207.934 1.17629 1.39534 0
M  V30 2058 C 207.985 3.36428 -1.32282 0
M  V30 2059 O 207.706 3.43765 -2.71582 0
M  V30 2060 C 209.207 4.28783 -1.12518 0
M  V30 2061 H 206.427 0.592793 -0.314384 0
M  V30 2062 H 208.971 1.41649 -1.47499 0
M  V30 2063 H 207.126 3.79706 -0.768229 0
M  V30 2064 H 207.54 4.3652 -2.90776 0
M  V30 2065 H 209.014 5.31613 -1.48633 0
M  V30 2066 H 209.491 4.39153 -0.0642394 0
M  V30 2067 H 210.097 3.91291 -1.66648 0
M  V30 2068 N 208.412 0.89855 1.29475 0
M  V30 2069 C 209.689 0.443416 1.90508 0
M  V30 2070 C 210.069 -1.07685 1.81569 0
M  V30 2071 O 209.417 -1.9182 1.24166 0
M  V30 2072 C 209.627 0.956708 3.35631 0
M  V30 2073 C 210.975 0.999728 4.12663 0
M  V30 2074 O 211.999 0.904299 3.4453 0
M  V30 2075 O 210.858 1.14289 5.34416 0
M  V30 2076 H 207.952 0.138025 0.815401 0
M  V30 2077 H 210.498 0.98834 1.37949 0
M  V30 2078 H 209.27 2.00067 3.36287 0
M  V30 2079 H 208.893 0.391728 3.95666 0
M  V30 2080 N 209.89 -1.43072 0.660911 0
M  V30 2081 C 210.837 -2.30785 -0.0259884 0
M  V30 2082 C 211.807 -1.45184 -0.806888 0
M  V30 2083 O 212.992 -1.74041 -0.781943 0
M  V30 2084 C 210.132 -3.30861 -0.981067 0
M  V30 2085 C 209.245 -4.31558 -0.195458 0
M  V30 2086 C 208.38 -5.18712 -1.14503 0
M  V30 2087 C 207.419 -6.11097 -0.350299 0
M  V30 2088 N 206.556 -6.90849 -1.25186 0
M  V30 2089 H 211.396 -2.88975 0.727846 0
M  V30 2090 H 208.933 -1.42353 0.370682 0
M  V30 2091 H 210.891 -3.87399 -1.54849 0
M  V30 2092 H 209.521 -2.74304 -1.70169 0
M  V30 2093 H 208.573 -3.77252 0.488374 0
M  V30 2094 H 209.885 -4.9701 0.422176 0
M  V30 2095 H 209.039 -5.79914 -1.78284 0
M  V30 2096 H 207.778 -4.53404 -1.79656 0
M  V30 2097 H 206.783 -5.48976 0.300808 0
M  V30 2098 H 208.008 -6.7845 0.296941 0
M  V30 2099 H 205.954 -6.28182 -1.89005 0
M  V30 2100 H 205.871 -7.52854 -0.688971 0
M  V30 2101 H 207.139 -7.5655 -1.87757 0
M  V30 2102 N 211.368 -0.403325 -1.52352 0
M  V30 2103 C 212.779 0.0675782 -1.86578 0
M  V30 2104 C 213.13 1.44941 -1.32236 0
M  V30 2105 O 212.255 2.06112 -0.659307 0
M  V30 2106 C 212.85 0.129404 -3.38553 0
M  V30 2107 C 211.409 0.544629 -3.72439 0
M  V30 2108 C 210.556 -0.284551 -2.75836 0
M  V30 2109 H 213.507 -0.620631 -1.46061 0
M  V30 2110 H 213.528 0.94581 -3.68558 0
M  V30 2111 H 213.04 -0.87645 -3.78074 0
M  V30 2112 H 211.141 1.55734 -3.38493 0
M  V30 2113 H 211.254 0.293046 -4.78203 0
M  V30 2114 H 209.618 0.252258 -2.53448 0
M  V30 2115 H 210.401 -1.28865 -3.18196 0
M  V30 2116 N 212.846 1.57033 -0.133567 0
M  V30 2117 C 214.095 1.94861 0.520768 0
M  V30 2118 C 214.408 1.02012 1.66892 0
M  V30 2119 O 215.614 1.29365 2.38699 0
M  V30 2120 C 214.07 3.46362 0.977809 0
M  V30 2121 C 213.678 4.47773 -0.142674 0
M  V30 2122 C 215.422 3.93083 1.60269 0
M  V30 2123 C 213.329 5.90468 0.331883 0
M  V30 2124 H 212.259 0.727453 0.198315 0
M  V30 2125 H 214.91 1.82227 -0.215759 0
M  V30 2126 H 213.292 3.54282 1.7692 0
M  V30 2127 H 214.466 4.51536 -0.919317 0
M  V30 2128 H 212.781 4.10891 -0.675124 0
M  V30 2129 H 215.378 4.97121 1.96914 0
M  V30 2130 H 215.721 3.33876 2.48662 0
M  V30 2131 H 216.254 3.88025 0.876453 0
M  V30 2132 H 212.993 6.53463 -0.516341 0
M  V30 2133 H 212.513 5.90094 1.07469 0
M  V30 2134 H 214.192 6.42179 0.788332 0
M  V30 2135 N 214.325 -0.140222 1.56975 0
M  V30 2136 C 215.571 -0.852949 1.83991 0
M  V30 2137 C 215.904 -1.80512 0.716187 0
M  V30 2138 O 215.179 -1.92479 -0.279681 0
M  V30 2139 C 215.462 -1.6215 3.21527 0
M  V30 2140 C 215.315 -0.690363 4.4447 0
M  V30 2141 C 216.634 -2.58247 3.56366 0
M  V30 2142 H 213.753 -0.308634 0.669264 0
M  V30 2143 H 216.395 -0.117898 1.89634 0
M  V30 2144 H 214.545 -2.24812 3.16847 0
M  V30 2145 H 216.217 -0.0742264 4.6124 0
M  V30 2146 H 214.46 -0.000396433 4.338 0
M  V30 2147 H 215.131 -1.2643 5.37326 0
M  V30 2148 H 217.607 -2.05701 3.61699 0
M  V30 2149 H 216.483 -3.09067 4.53617 0
M  V30 2150 H 216.744 -3.39923 2.82674 0
M  V30 2151 N 215.803 -1.52179 -0.40978 0
M  V30 2152 C 217.049 -1.66453 -1.15851 0
M  V30 2153 C 217.382 -0.392972 -1.90182 0
M  V30 2154 O 216.657 0.608579 -1.84734 0
M  V30 2155 C 216.94 -2.88612 -2.15349 0
M  V30 2156 C 216.793 -4.25815 -1.44918 0
M  V30 2157 C 218.112 -3.06294 -3.16026 0
M  V30 2158 H 215.231 -0.60575 -0.419805 0
M  V30 2159 H 217.873 -1.84732 -0.444314 0
M  V30 2160 H 216.023 -2.73158 -2.76255 0
M  V30 2161 H 217.695 -4.52995 -0.871365 0
M  V30 2162 H 215.938 -4.27247 -0.751159 0
M  V30 2163 H 216.609 -5.07337 -2.17516 0
M  V30 2164 H 219.085 -3.20641 -2.65195 0
M  V30 2165 H 217.961 -3.93283 -3.8291 0
M  V30 2166 H 218.222 -2.19579 -3.83715 0
M  V30 2167 N 217.281 0.66697 -1.42791 0
M  V30 2168 C 218.527 1.4291 -1.43891 0
M  V30 2169 C 218.86 1.94114 -0.0578972 0
M  V30 2170 O 218.135 1.71414 0.91911 0
M  V30 2171 C 218.418 2.62049 -2.46987 0
M  V30 2172 C 218.271 2.16426 -3.94309 0
M  V30 2173 C 219.59 3.64266 -2.46978 0
M  V30 2174 H 216.709 0.518306 -0.523954 0
M  V30 2175 H 219.351 0.757321 -1.74255 0
M  V30 2176 H 217.501 3.19361 -2.21225 0
M  V30 2177 H 219.173 1.64221 -4.31079 0
M  V30 2178 H 217.416 1.47925 -4.078 0
M  V30 2179 H 218.087 3.02038 -4.62036 0
M  V30 2180 H 220.563 3.16686 -2.69906 0
M  V30 2181 H 219.439 4.45196 -3.21079 0
M  V30 2182 H 219.7 4.15927 -1.49857 0
M  V30 2183 N 218.759 1.29093 0.90403 0
M  V30 2184 C 220.007 1.16583 1.65085 0
M  V30 2185 C 220.328 -0.283933 1.92922 0
M  V30 2186 O 219.598 -1.19509 1.55224 0
M  V30 2187 H 218.178 0.428467 0.611903 0
M  V30 2188 H 220.84 1.61959 1.08422 0
M  V30 2189 H 219.936 1.71266 2.6091 0
M  V30 2190 N 220.237 -1.11381 1.11499 0
M  V30 2191 C 221.462 -1.87475 0.887019 0
M  V30 2192 C 221.887 -1.79639 -0.557796 0
M  V30 2193 O 221.245 -1.15924 -1.39396 0
M  V30 2194 C 221.293 -3.34213 1.35403 0
M  V30 2195 O 220.397 -4.0903 0.526146 0
M  V30 2196 H 219.738 -0.582099 0.319463 0
M  V30 2197 H 222.268 -1.40785 1.48461 0
M  V30 2198 H 222.278 -3.8506 1.34881 0
M  V30 2199 H 220.953 -3.39232 2.40612 0
M  V30 2200 H 219.53 -3.68082 0.597522 0
M  V30 2201 N 221.715 -0.905404 -1.28997 0
M  V30 2202 C 222.648 -0.331959 -2.25773 0
M  V30 2203 C 223.626 0.559099 -1.52685 0
M  V30 2204 O 224.81 0.50463 -1.8162 0
M  V30 2205 C 221.937 0.526276 -3.34586 0
M  V30 2206 C 220.983 -0.298249 -4.25456 0
M  V30 2207 S 221.816 -1.69968 -5.0781 0
M  V30 2208 C 222.972 -0.848519 -6.20122 0
M  V30 2209 H 223.205 -1.15222 -2.74064 0
M  V30 2210 H 220.738 -0.706112 -1.37308 0
M  V30 2211 H 222.696 1.01565 -3.97737 0
M  V30 2212 H 221.357 1.32084 -2.84978 0
M  V30 2213 H 220.55 0.357607 -5.0273 0
M  V30 2214 H 220.152 -0.720968 -3.66985 0
M  V30 2215 H 222.444 -0.0744325 -6.77459 0
M  V30 2216 H 223.387 -1.59353 -6.89937 0
M  V30 2217 H 223.795 -0.400383 -5.63078 0
M  V30 2218 N 223.193 1.4272 -0.668489 0
M  V30 2219 C 224.609 1.55992 -0.33745 0
M  V30 2220 C 224.809 1.64933 1.15756 0
M  V30 2221 O 223.865 1.61278 1.94282 0
M  V30 2222 C 225.178 2.81314 -1.06222 0
M  V30 2223 C 226.726 2.95078 -1.04394 0
M  V30 2224 C 227.201 4.23252 -1.74991 0
M  V30 2225 N 228.692 4.3015 -1.71829 0
M  V30 2226 C 229.427 5.28127 -2.23315 0
M  V30 2227 N 228.923 6.32293 -2.83156 0
M  V30 2228 N 230.716 5.19882 -2.13726 0
M  V30 2229 H 222.867 1.3516 -1.63846 0
M  V30 2230 H 225.13 0.650174 -0.689912 0
M  V30 2231 H 224.836 2.80823 -2.11734 0
M  V30 2232 H 224.71 3.72012 -0.62344 0
M  V30 2233 H 227.097 2.951 0.0028244 0
M  V30 2234 H 227.178 2.05627 -1.52155 0
M  V30 2235 H 226.822 4.2399 -2.79633 0
M  V30 2236 H 226.752 5.11626 -1.24685 0
M  V30 2237 H 229.243 3.55499 -1.28175 0
M  V30 2238 H 229.556 7.03398 -3.20079 0
M  V30 2239 H 227.901 6.32873 -2.87223 0
M  V30 2240 H 231.092 4.37423 -1.66669 0
M  V30 2241 H 231.265 5.96077 -2.54158 0
M  V30 2242 N 224.671 0.411399 1.52136 0
M  V30 2243 C 226.082 -0.0576826 1.86611 0
M  V30 2244 C 226.433 -1.44238 1.33003 0
M  V30 2245 O 225.558 -2.05759 0.670228 0
M  V30 2246 C 226.153 -0.111448 3.38617 0
M  V30 2247 C 224.712 -0.52487 3.72723 0
M  V30 2248 C 223.859 0.299176 2.75681 0
M  V30 2249 H 226.81 0.628368 1.4573 0
M  V30 2250 H 226.831 -0.926252 3.69054 0
M  V30 2251 H 226.343 0.896488 3.77604 0
M  V30 2252 H 224.444 -1.53936 3.39315 0
M  V30 2253 H 224.557 -0.267681 4.78352 0
M  V30 2254 H 222.921 -0.238814 2.53578 0
M  V30 2255 H 223.704 1.3055 3.17508 0
M  V30 2256 N 226.149 -1.5696 0.141893 0
M  V30 2257 C 227.397 -1.95573 -0.509484 0
M  V30 2258 C 227.718 -1.02746 -1.65736 0
M  V30 2259 O 226.988 -0.0880311 -1.95702 0
M  V30 2260 H 225.568 -0.722115 -0.191205 0
M  V30 2261 H 228.23 -1.93697 0.216196 0
M  V30 2262 H 227.326 -2.99171 -0.889 0
M  V30 2263 N 227.627 0.131896 -1.57047 0
M  V30 2264 C 228.855 0.856461 -1.88341 0
M  V30 2265 C 229.27 1.74042 -0.731757 0
M  V30 2266 O 228.627 1.80051 0.297945 0
M  V30 2267 C 228.678 1.70064 -3.18999 0
M  V30 2268 O 228.399 0.852278 -4.2973 0
M  V30 2269 C 229.9 2.53148 -3.63911 0
M  V30 2270 H 227.12 0.246885 -0.62393 0
M  V30 2271 H 229.664 0.120152 -2.04147 0
M  V30 2272 H 227.819 2.38984 -3.04902 0
M  V30 2273 H 228.233 1.43329 -5.04537 0
M  V30 2274 H 229.707 3.07931 -4.58129 0
M  V30 2275 H 230.184 3.29901 -2.89935 0
M  V30 2276 H 230.79 1.89492 -3.80753 0
M  V30 2277 N 229.106 1.52395 0.401703 0
M  V30 2278 C 230.069 1.75636 1.47257 0
M  V30 2279 C 231.069 0.62628 1.48103 0
M  V30 2280 O 232.259 0.894227 1.49497 0
M  V30 2281 C 229.391 1.84553 2.86624 0
M  V30 2282 H 230.584 2.71241 1.27938 0
M  V30 2283 H 228.137 1.42923 0.632662 0
M  V30 2284 H 228.872 0.908882 3.11303 0
M  V30 2285 H 228.657 2.66715 2.87412 0
M  V30 2286 H 230.147 2.04251 3.64241 0
M  V30 2287 N 230.584 -0.659388 1.43143 0
M  V30 2288 C 231.517 -1.78425 1.42267 0
M  V30 2289 C 232.495 -1.60085 0.284894 0
M  V30 2290 O 233.679 -1.82351 0.477527 0
M  V30 2291 C 230.806 -3.15642 1.22833 0
M  V30 2292 C 229.852 -3.52698 2.39806 0
M  V30 2293 S 230.685 -3.53372 4.02353 0
M  V30 2294 C 231.841 -4.93256 3.85291 0
M  V30 2295 H 232.074 -1.78897 2.37452 0
M  V30 2296 H 229.607 -0.831469 1.301 0
M  V30 2297 H 231.565 -3.94838 1.12308 0
M  V30 2298 H 230.226 -3.12739 0.29207 0
M  V30 2299 H 229.419 -4.52475 2.21996 0
M  V30 2300 H 229.021 -2.80899 2.46925 0
M  V30 2301 H 231.313 -5.81751 3.47235 0
M  V30 2302 H 232.256 -5.16115 4.84799 0
M  V30 2303 H 232.664 -4.665 3.17865 0
M  V30 2304 N 232.062 -1.29571 -0.897171 0
M  V30 2305 C 233.287 -1.20705 -1.68656 0
M  V30 2306 C 233.712 0.228582 -1.86706 0
M  V30 2307 O 233.07 1.16494 -1.3892 0
M  V30 2308 C 233.118 -1.9282 -3.04717 0
M  V30 2309 O 232.222 -1.24697 -3.93096 0
M  V30 2310 H 231.563 -0.418126 -0.515816 0
M  V30 2311 H 234.093 -1.71183 -1.12061 0
M  V30 2312 H 234.103 -2.01372 -3.54843 0
M  V30 2313 H 232.778 -2.97239 -2.90899 0
M  V30 2314 H 231.355 -1.2442 -3.51531 0
M  V30 2315 N 233.54 1.10788 -1.12088 0
M  V30 2316 C 234.503 2.15207 -0.788577 0
M  V30 2317 C 235.503 1.59609 0.195317 0
M  V30 2318 O 236.693 1.74174 -0.0300193 0
M  V30 2319 C 233.825 3.4047 -0.171174 0
M  V30 2320 H 235.018 2.46116 -1.71368 0
M  V30 2321 H 232.571 1.26089 -0.923652 0
M  V30 2322 H 233.306 3.15176 0.763832 0
M  V30 2323 H 233.091 3.82109 -0.879514 0
M  V30 2324 H 234.581 4.17576 0.04496 0
M  V30 2325 N 235.018 0.912232 1.28515 0
M  V30 2326 C 236.295 0.463597 1.90027 0
M  V30 2327 C 236.675 -1.05753 1.82701 0
M  V30 2328 O 236.023 -1.90492 1.26194 0
M  V30 2329 C 236.233 0.992253 3.34597 0
M  V30 2330 C 237.581 1.04344 4.11579 0
M  V30 2331 O 238.605 0.94079 3.43551 0
M  V30 2332 O 237.464 1.1995 5.33174 0
M  V30 2333 H 234.558 0.146666 0.813891 0
M  V30 2334 H 237.104 1.00292 1.36893 0
M  V30 2335 H 235.876 2.03623 3.34146 0
M  V30 2336 H 235.499 0.433672 3.95228 0
M  V30 2337 N 236.496 -1.42363 0.676048 0
M  V30 2338 C 237.744 -2.01123 0.198437 0
M  V30 2339 C 238.065 -1.53731 -1.19966 0
M  V30 2340 O 237.335 -0.759518 -1.80577 0
M  V30 2341 H 235.915 -0.743678 0.0703721 0
M  V30 2342 H 238.577 -1.74263 0.872837 0
M  V30 2343 H 237.673 -3.11454 0.200686 0
M  V30 2344 N 237.974 -0.419461 -1.51915 0
M  V30 2345 C 238.907 0.445751 -2.23804 0
M  V30 2346 C 239.885 1.03951 -1.25031 0
M  V30 2347 O 241.069 1.08541 -1.54114 0
M  V30 2348 C 238.196 1.61964 -2.97465 0
M  V30 2349 C 237.242 1.14828 -4.10751 0
M  V30 2350 S 238.075 0.104938 -5.35397 0
M  V30 2351 C 239.231 1.28391 -6.1259 0
M  V30 2352 H 239.464 -0.164627 -2.96844 0
M  V30 2353 H 236.997 -0.203833 -1.53049 0
M  V30 2354 H 238.955 2.29271 -3.40507 0
M  V30 2355 H 237.616 2.20139 -2.24048 0
M  V30 2356 H 236.809 2.02561 -4.61503 0
M  V30 2357 H 236.411 0.553712 -3.69878 0
M  V30 2358 H 238.703 2.20563 -6.40592 0
M  V30 2359 H 239.646 0.816724 -7.03374 0
M  V30 2360 H 240.054 1.51439 -5.43807 0
M  V30 2361 N 239.452 1.56882 -0.150215 0
M  V30 2362 C 240.382 2.19935 0.784284 0
M  V30 2363 C 241.363 1.14854 1.25469 0
M  V30 2364 O 242.548 1.43209 1.31168 0
M  V30 2365 C 239.678 2.82349 2.02229 0
M  V30 2366 C 238.632 3.93285 1.68853 0
M  V30 2367 C 237.958 4.42649 2.99944 0
M  V30 2368 C 239.258 5.13904 0.932714 0
M  V30 2369 H 240.952 2.9828 0.258781 0
M  V30 2370 H 238.498 1.43473 0.123029 0
M  V30 2371 H 240.451 3.25126 2.68088 0
M  V30 2372 H 239.175 2.0134 2.57157 0
M  V30 2373 H 237.834 3.5113 1.05371 0
M  V30 2374 H 237.482 3.58458 3.52869 0
M  V30 2375 H 237.182 5.17476 2.78374 0
M  V30 2376 H 238.706 4.88099 3.66868 0
M  V30 2377 H 240.12 5.53506 1.49345 0
M  V30 2378 H 238.517 5.94515 0.81684 0
M  V30 2379 H 239.587 4.84842 -0.0749568 0
M  V30 2380 N 240.93 -0.123565 1.57115 0
M  V30 2381 C 241.878 -1.17082 2.00984 0
M  V30 2382 C 242.872 -1.43136 0.906009 0
M  V30 2383 O 244.078 -1.43152 1.09121 0
M  V30 2384 H 240.453 -0.394653 0.64012 0
M  V30 2385 H 242.424 -0.774292 2.88179 0
M  V30 2386 C 241.173 -2.49057 2.42623 0
M  V30 2387 H 240.496 -2.29846 3.27125 0
M  V30 2388 H 241.936 -3.20906 2.7712 0
M  V30 2389 C 240.395 -3.11305 1.28805 0
M  V30 2390 O 240.925 -3.97171 0.60153 0
M  V30 2391 N 239.131 -2.71111 1.04628 0
M  V30 2392 H 238.678 -2.01382 1.60634 0
M  V30 2393 H 238.636 -3.1309 0.286685 0
M  V30 2394 N 242.408 -1.52605 -0.393616 0
M  V30 2395 C 243.338 -1.80022 -1.48709 0
M  V30 2396 C 244.319 -0.651995 -1.57108 0
M  V30 2397 O 245.504 -0.89913 -1.72132 0
M  V30 2398 C 242.634 -1.96492 -2.86371 0
M  V30 2399 C 241.588 -3.12161 -2.92813 0
M  V30 2400 C 240.914 -3.13877 -4.3288 0
M  V30 2401 C 242.214 -4.51322 -2.6288 0
M  V30 2402 H 243.908 -2.71589 -1.26015 0
M  V30 2403 H 241.454 -1.30684 -0.604778 0
M  V30 2404 H 243.407 -2.14255 -3.62867 0
M  V30 2405 H 242.131 -1.01611 -3.10391 0
M  V30 2406 H 240.79 -2.94173 -2.18764 0
M  V30 2407 H 240.438 -2.16687 -4.53933 0
M  V30 2408 H 240.138 -3.91576 -4.38112 0
M  V30 2409 H 241.662 -3.33789 -5.1129 0
M  V30 2410 H 243.076 -4.69435 -3.29096 0
M  V30 2411 H 241.473 -5.31053 -2.79468 0
M  V30 2412 H 242.543 -4.58353 -1.58242 0
M  V30 2413 N 243.887 0.651787 -1.4349 0
M  V30 2414 C 245.117 1.43728 -1.48411 0
M  V30 2415 C 245.525 1.8893 -0.10103 0
M  V30 2416 O 244.868 1.60182 0.899307 0
M  V30 2417 C 244.93 2.70411 -2.36893 0
M  V30 2418 C 244.594 2.4714 -3.8441 0
M  V30 2419 C 245.591 2.10271 -4.75481 0
M  V30 2420 C 243.276 2.6142 -4.28912 0
M  V30 2421 C 245.27 1.87982 -6.0905 0
M  V30 2422 C 242.957 2.38746 -5.62533 0
M  V30 2423 C 243.955 2.02083 -6.5242 0
M  V30 2424 O 243.643 1.79647 -7.8357 0
M  V30 2425 H 243.375 0.447962 -0.506267 0
M  V30 2426 H 245.929 0.80624 -1.88915 0
M  V30 2427 H 244.159 3.36079 -1.91278 0
M  V30 2428 H 245.848 3.32364 -2.33 0
M  V30 2429 H 246.614 1.98814 -4.42378 0
M  V30 2430 H 242.493 2.88931 -3.59222 0
M  V30 2431 H 246.037 1.5929 -6.7917 0
M  V30 2432 H 241.934 2.49806 -5.95203 0
M  V30 2433 H 242.702 1.9406 -7.95162 0
M  V30 2434 N 245.365 1.30045 0.890287 0
M  V30 2435 C 246.313 1.15873 2.01683 0
M  V30 2436 C 247.307 0.0719403 1.69247 0
M  V30 2437 O 248.513 0.232414 1.78493 0
M  V30 2438 H 244.888 0.358203 0.661207 0
M  V30 2439 H 246.859 2.11229 2.10772 0
M  V30 2440 C 245.608 0.861842 3.36849 0
M  V30 2441 H 244.931 1.69016 3.62317 0
M  V30 2442 H 246.371 0.802762 4.16331 0
M  V30 2443 C 244.83 -0.435132 3.34078 0
M  V30 2444 O 245.36 -1.4583 3.74295 0
M  V30 2445 N 243.566 -0.444377 2.87182 0
M  V30 2446 H 243.113 0.388723 2.5465 0
M  V30 2447 H 243.071 -1.31213 2.85711 0
M  V30 2448 N 246.843 -1.10192 1.12674 0
M  V30 2449 C 247.806 -2.14786 0.799979 0
M  V30 2450 C 248.806 -1.59711 -0.18685 0
M  V30 2451 O 249.996 -1.74156 0.0392558 0
M  V30 2452 C 247.128 -3.40374 0.189228 0
M  V30 2453 H 248.321 -2.45203 1.72671 0
M  V30 2454 H 245.874 -1.25597 0.930326 0
M  V30 2455 H 246.609 -3.15577 -0.747107 0
M  V30 2456 H 246.394 -3.81637 0.899766 0
M  V30 2457 H 247.884 -4.17594 -0.0228143 0
M  V30 2458 N 248.321 -0.919034 -1.28029 0
M  V30 2459 C 249.567 -0.555757 -1.95036 0
M  V30 2460 C 249.9 0.899198 -1.72128 0
M  V30 2461 O 249.175 1.64023 -1.04531 0
M  V30 2462 C 249.458 -0.872024 -3.49382 0
M  V30 2463 C 249.311 -2.3801 -3.81669 0
M  V30 2464 C 250.63 -0.37185 -4.38526 0
M  V30 2465 H 247.749 -0.203386 -0.708381 0
M  V30 2466 H 250.391 -1.14924 -1.51303 0
M  V30 2467 H 248.541 -0.366946 -3.86763 0
M  V30 2468 H 250.213 -2.9562 -3.54128 0
M  V30 2469 H 248.456 -2.83289 -3.28526 0
M  V30 2470 H 249.127 -2.55192 -4.8947 0
M  V30 2471 H 251.603 -0.804602 -4.08247 0
M  V30 2472 H 250.479 -0.622173 -5.45362 0
M  V30 2473 H 250.74 0.727934 -4.36066 0
M  V30 2474 N 249.799 1.42003 -0.683588 0
M  V30 2475 C 250.762 2.29191 -0.0198243 0
M  V30 2476 C 251.762 1.43773 0.72013 0
M  V30 2477 O 252.952 1.65061 0.556815 0
M  V30 2478 C 250.084 3.26435 0.982487 0
M  V30 2479 H 251.277 2.8938 -0.787345 0
M  V30 2480 H 248.83 1.49789 -0.446418 0
M  V30 2481 H 249.565 2.71203 1.77819 0
M  V30 2482 H 249.35 3.89449 0.455182 0
M  V30 2483 H 250.84 3.918 1.44508 0
M  V30 2484 N 251.277 0.427512 1.51691 0
M  V30 2485 C 252.523 -0.142439 2.02299 0
M  V30 2486 C 252.856 -1.43214 1.31162 0
M  V30 2487 O 252.131 -1.89833 0.423511 0
M  V30 2488 C 252.414 -0.371301 3.58181 0
M  V30 2489 C 252.267 0.936358 4.39946 0
M  V30 2490 C 253.586 -1.14542 4.24933 0
M  V30 2491 H 250.705 -0.0502937 0.735282 0
M  V30 2492 H 253.347 0.564584 1.81418 0
M  V30 2493 H 251.497 -0.973559 3.76104 0
M  V30 2494 H 253.169 1.57184 4.33694 0
M  V30 2495 H 251.412 1.5432 4.05423 0
M  V30 2496 H 252.083 0.730388 5.47147 0
M  V30 2497 H 254.559 -0.635362 4.11221 0
M  V30 2498 H 253.435 -1.27431 5.33903 0
M  V30 2499 H 253.696 -2.17093 3.85127 0
M  V30 2500 N 252.755 -1.56801 0.158532 0
M  V30 2501 C 253.718 -2.16138 -0.762705 0
M  V30 2502 C 254.718 -1.1061 -1.16713 0
M  V30 2503 O 255.908 -1.36191 -1.08617 0
M  V30 2504 C 253.04 -2.73386 -2.03649 0
M  V30 2505 H 254.233 -2.98886 -0.246354 0
M  V30 2506 H 251.786 -1.56035 -0.0909744 0
M  V30 2507 H 252.521 -1.94335 -2.59623 0
M  V30 2508 H 252.306 -3.50601 -1.75559 0
M  V30 2509 H 253.796 -3.19065 -2.6942 0
M  V30 2510 N 254.233 0.115231 -1.57178 0
M  V30 2511 C 255.458 0.840354 -1.89612 0
M  V30 2512 C 255.883 1.72464 -0.750845 0
M  V30 2513 O 255.241 1.78826 0.298478 0
M  V30 2514 C 255.289 1.64654 -3.20814 0
M  V30 2515 O 254.393 2.7538 -3.06985 0
M  V30 2516 H 253.734 0.232158 -0.622092 0
M  V30 2517 H 256.264 0.0964977 -2.04372 0
M  V30 2518 H 256.274 2.03499 -3.53627 0
M  V30 2519 H 254.949 0.997416 -4.03763 0
M  V30 2520 H 253.526 2.3971 -2.85646 0
M  V30 2521 N 255.711 1.52812 0.385517 0
M  V30 2522 C 256.988 1.5861 1.14465 0
M  V30 2523 C 257.368 0.381402 2.07626 0
M  V30 2524 O 256.716 -0.629999 2.19643 0
M  V30 2525 C 256.926 2.92664 1.90128 0
M  V30 2526 C 258.274 3.46526 2.45367 0
M  V30 2527 O 259.298 2.94562 2.0028 0
M  V30 2528 O 258.157 4.37323 3.27736 0
M  V30 2529 H 255.251 0.639855 0.523941 0
M  V30 2530 H 257.797 1.65149 0.390389 0
M  V30 2531 H 256.569 3.71788 1.22022 0
M  V30 2532 H 256.192 2.89527 2.72507 0
M  V30 2533 N 257.189 -0.644168 1.43834 0
M  V30 2534 C 258.136 -1.75671 1.49694 0
M  V30 2535 C 259.106 -1.6246 0.345809 0
M  V30 2536 O 260.291 -1.82573 0.554234 0
M  V30 2537 C 257.431 -3.13867 1.43463 0
M  V30 2538 C 256.544 -3.38147 2.6885 0
M  V30 2539 C 255.679 -4.66241 2.54544 0
M  V30 2540 C 254.718 -4.83657 3.75157 0
M  V30 2541 N 253.855 -6.03016 3.59605 0
M  V30 2542 H 258.695 -1.69998 2.44754 0
M  V30 2543 H 256.232 -0.829458 1.21484 0
M  V30 2544 H 258.19 -3.9377 1.37843 0
M  V30 2545 H 256.82 -3.18588 0.519783 0
M  V30 2546 H 255.872 -2.52276 2.84712 0
M  V30 2547 H 257.184 -3.46899 3.58417 0
M  V30 2548 H 256.338 -5.54285 2.46683 0
M  V30 2549 H 255.077 -4.59826 1.62516 0
M  V30 2550 H 254.082 -3.94046 3.83416 0
M  V30 2551 H 255.307 -4.91896 4.68204 0
M  V30 2552 H 253.253 -5.97715 2.7032 0
M  V30 2553 H 253.17 -6.12766 4.42779 0
M  V30 2554 H 254.438 -6.93657 3.55613 0
M  V30 2555 N 258.668 -1.30515 -0.883378 0
M  V30 2556 C 259.6 -1.12846 -1.99496 0
M  V30 2557 C 260.613 -0.0712571 -1.62644 0
M  V30 2558 O 261.802 -0.317432 -1.75655 0
M  V30 2559 C 258.902 -0.699123 -3.3161 0
M  V30 2560 C 258.075 -1.83842 -3.96889 0
M  V30 2561 C 257.134 -1.39737 -5.07307 0
M  V30 2562 O 256.16 -2.10485 -5.28852 0
M  V30 2563 N 257.362 -0.277279 -5.79837 0
M  V30 2564 H 260.127 -2.08585 -2.15203 0
M  V30 2565 H 257.688 -1.22672 -1.05656 0
M  V30 2566 H 259.68 -0.387044 -4.02845 0
M  V30 2567 H 258.25 0.166276 -3.12157 0
M  V30 2568 H 257.47 -2.31853 -3.18807 0
M  V30 2569 H 258.758 -2.60187 -4.37241 0
M  V30 2570 H 258.156 0.3122 -5.64838 0
M  V30 2571 H 256.713 -0.0246623 -6.51795 0
M  V30 2572 N 260.146 1.09593 -1.13257 0
M  V30 2573 C 261.371 1.8604 -0.916732 0
M  V30 2574 C 261.796 1.80504 0.529146 0
M  V30 2575 O 261.154 1.18127 1.37534 0
M  V30 2576 C 261.202 3.32017 -1.40703 0
M  V30 2577 O 260.306 4.08141 -0.591153 0
M  V30 2578 H 259.647 0.576943 -0.328683 0
M  V30 2579 H 262.177 1.38405 -1.50682 0
M  V30 2580 H 262.187 3.82865 -1.4099 0
M  V30 2581 H 260.862 3.35361 -2.45979 0
M  V30 2582 H 259.439 3.67084 -0.656005 0
M  V30 2583 N 261.624 0.925811 1.2754 0
M  V30 2584 C 263.04 0.625767 1.46821 0
M  V30 2585 C 263.24 -0.825506 1.83814 0
M  V30 2586 O 262.296 -1.60356 1.95044 0
M  V30 2587 C 263.609 1.57402 2.56213 0
M  V30 2588 C 265.157 1.58204 2.70075 0
M  V30 2589 C 265.632 2.51721 3.82623 0
M  V30 2590 N 267.123 2.49917 3.89994 0
M  V30 2591 C 267.858 3.18968 4.76494 0
M  V30 2592 N 267.354 3.97391 5.67496 0
M  V30 2593 N 269.147 3.07996 4.70208 0
M  V30 2594 H 261.298 1.86409 1.01811 0
M  V30 2595 H 263.561 0.800213 0.508295 0
M  V30 2596 H 263.267 2.60925 2.35819 0
M  V30 2597 H 263.141 1.31428 3.53563 0
M  V30 2598 H 265.528 0.554124 2.89851 0
M  V30 2599 H 265.609 1.88226 1.73218 0
M  V30 2600 H 265.253 3.54622 3.63601 0
M  V30 2601 H 265.183 2.18996 4.78903 0
M  V30 2602 H 267.674 1.9296 3.24923 0
M  V30 2603 H 267.987 4.4707 6.30356 0
M  V30 2604 H 266.332 4.01495 5.67298 0
M  V30 2605 H 269.523 2.46223 3.9811 0
M  V30 2606 H 269.696 3.6208 5.37403 0
M  V30 2607 N 263.102 -1.41638 0.69111 0
M  V30 2608 C 264.35 -2.00902 0.219758 0
M  V30 2609 C 264.671 -1.54994 -1.18329 0
M  V30 2610 O 263.941 -0.778628 -1.79762 0
M  V30 2611 H 262.521 -0.74289 0.0782558 0
M  V30 2612 H 265.183 -1.73327 0.891271 0
M  V30 2613 H 264.279 -3.11224 0.233708 0
M  V30 2614 N 264.58 -0.43555 -1.51462 0
M  V30 2615 C 265.527 0.376797 -2.27703 0
M  V30 2616 C 266.497 1.01838 -1.31219 0
M  V30 2617 O 267.682 1.03762 -1.60119 0
M  V30 2618 C 264.822 1.47301 -3.12084 0
M  V30 2619 C 263.935 0.849744 -4.2356 0
M  V30 2620 C 263.07 1.92086 -4.95254 0
M  V30 2621 C 262.109 1.27593 -5.98654 0
M  V30 2622 N 261.246 2.28833 -6.63762 0
M  V30 2623 H 266.086 -0.279734 -2.96684 0
M  V30 2624 H 263.623 -0.149795 -1.46335 0
M  V30 2625 H 265.581 2.11984 -3.59331 0
M  V30 2626 H 264.211 2.0992 -2.45221 0
M  V30 2627 H 263.263 0.0912529 -3.80291 0
M  V30 2628 H 264.575 0.338878 -4.97648 0
M  V30 2629 H 263.729 2.64435 -5.46039 0
M  V30 2630 H 262.468 2.46545 -4.20793 0
M  V30 2631 H 261.473 0.537893 -5.47162 0
M  V30 2632 H 262.698 0.738693 -6.7507 0
M  V30 2633 H 260.644 2.82375 -5.92115 0
M  V30 2634 H 260.561 1.82632 -7.33608 0
M  V30 2635 H 261.829 3.00671 -7.19178 0
M  V30 2636 N 266.058 1.56714 -0.166846 0
M  V30 2637 C 267.306 1.96358 0.478305 0
M  V30 2638 C 267.627 1.0537 1.6408 0
M  V30 2639 O 266.897 0.119154 1.95537 0
M  V30 2640 H 265.477 0.725065 0.179692 0
M  V30 2641 H 268.139 1.93329 -0.246985 0
M  V30 2642 H 267.235 3.00547 0.841292 0
M  V30 2643 N 267.536 -0.106894 1.57237 0
M  V30 2644 C 268.782 -0.81373 1.85759 0
M  V30 2645 C 269.115 -1.78952 0.754315 0
M  V30 2646 O 268.39 -1.93029 -0.23879 0
M  V30 2647 C 268.673 -1.55293 3.24894 0
M  V30 2648 C 268.526 -0.595929 4.45835 0
M  V30 2649 C 269.845 -2.5063 3.61763 0
M  V30 2650 H 266.964 -0.294369 0.67566 0
M  V30 2651 H 269.606 -0.0776472 1.89841 0
M  V30 2652 H 267.756 -2.1804 3.21544 0
M  V30 2653 H 269.428 0.0236262 4.61294 0
M  V30 2654 H 267.671 0.0916191 4.33703 0
M  V30 2655 H 268.342 -1.15004 5.39887 0
M  V30 2656 H 270.818 -1.97982 3.65981 0
M  V30 2657 H 269.694 -2.99376 4.60071 0
M  V30 2658 H 269.955 -3.3385 2.89821 0
M  V30 2659 N 269.014 -1.53014 -0.377408 0
M  V30 2660 C 269.944 -1.81589 -1.46791 0
M  V30 2661 C 270.925 -0.668622 -1.56408 0
M  V30 2662 O 272.11 -0.917337 -1.71168 0
M  V30 2663 C 269.24 -1.99519 -2.8427 0
M  V30 2664 C 268.194 -3.15249 -2.89486 0
M  V30 2665 C 267.52 -3.18451 -4.29527 0
M  V30 2666 C 268.82 -4.54084 -2.58079 0
M  V30 2667 H 270.514 -2.7291 -1.23127 0
M  V30 2668 H 268.06 -1.31319 -0.590883 0
M  V30 2669 H 270.013 -2.18092 -3.60575 0
M  V30 2670 H 268.737 -1.04897 -3.09296 0
M  V30 2671 H 267.396 -2.96477 -2.15631 0
M  V30 2672 H 267.044 -2.2149 -4.5161 0
M  V30 2673 H 266.744 -3.962 -4.33934 0
M  V30 2674 H 268.268 -3.39193 -5.07721 0
M  V30 2675 H 269.682 -4.72899 -3.24098 0
M  V30 2676 H 268.079 -5.33987 -2.7382 0
M  V30 2677 H 269.149 -4.60006 -1.53372 0
M  V30 2678 N 270.492 0.636531 -1.44174 0
M  V30 2679 C 271.738 1.39826 -1.4689 0
M  V30 2680 C 272.071 1.93947 -0.0990585 0
M  V30 2681 O 271.346 1.73325 0.882544 0
M  V30 2682 C 271.629 2.56751 -2.5249 0
M  V30 2683 C 271.482 2.08014 -3.98811 0
M  V30 2684 C 272.801 3.58946 -2.54649 0
M  V30 2685 H 269.92 0.507075 -0.53483 0
M  V30 2686 H 272.562 0.720188 -1.75822 0
M  V30 2687 H 270.712 3.14597 -2.2795 0
M  V30 2688 H 272.384 1.5504 -4.34466 0
M  V30 2689 H 270.627 1.39242 -4.10846 0
M  V30 2690 H 271.298 2.92169 -4.68339 0
M  V30 2691 H 273.774 3.1089 -2.76563 0
M  V30 2692 H 272.65 4.38286 -3.3045 0
M  V30 2693 H 272.911 4.12655 -1.58646 0
M  V30 2694 N 271.97 1.30982 0.876444 0
M  V30 2695 C 273.198 1.23242 1.6619 0
M  V30 2696 C 273.613 -0.203345 1.87702 0
M  V30 2697 O 272.97 -1.13317 1.43057 0
M  V30 2698 C 273.021 1.96623 3.03351 0
M  V30 2699 O 272.742 3.34594 2.82804 0
M  V30 2700 C 274.243 1.95644 3.97792 0
M  V30 2701 H 271.463 0.426126 0.518322 0
M  V30 2702 H 274.007 1.7275 1.09442 0
M  V30 2703 H 272.162 1.50892 3.56806 0
M  V30 2704 H 272.576 3.71873 3.69879 0
M  V30 2705 H 274.05 2.51511 4.91372 0
M  V30 2706 H 274.527 0.937395 4.2908 0
M  V30 2707 H 275.133 2.41225 3.50272 0
M  V30 2708 N 273.449 -1.08991 1.13837 0
M  V30 2709 C 274.382 -2.15049 0.763477 0
M  V30 2710 C 275.36 -1.60629 -0.252398 0
M  V30 2711 O 276.544 -1.87958 -0.142853 0
M  V30 2712 C 273.671 -3.38441 0.132545 0
M  V30 2713 C 272.717 -4.11596 1.11763 0
M  V30 2714 S 273.55 -4.6521 2.65216 0
M  V30 2715 C 274.706 -5.91896 2.03495 0
M  V30 2716 H 274.939 -2.46518 1.66182 0
M  V30 2717 H 272.472 -1.21008 0.958976 0
M  V30 2718 H 274.43 -4.09883 -0.225074 0
M  V30 2719 H 273.091 -3.05182 -0.743135 0
M  V30 2720 H 272.284 -5.00121 0.624076 0
M  V30 2721 H 271.886 -3.46038 1.41894 0
M  V30 2722 H 274.178 -6.63156 1.38675 0
M  V30 2723 H 275.121 -6.45938 2.9012 0
M  V30 2724 H 275.529 -5.44625 1.48471 0
M  V30 2725 N 274.927 -0.932562 -1.27047 0
M  V30 2726 C 275.875 -0.42603 -2.28665 0
M  V30 2727 C 276.869 0.49219 -1.62092 0
M  V30 2728 O 278.075 0.371355 -1.76128 0
M  V30 2729 H 274.45 -0.119213 -0.742491 0
M  V30 2730 H 276.421 -1.29579 -2.68797 0
M  V30 2731 C 275.17 0.301426 -3.46391 0
M  V30 2732 H 274.493 -0.39595 -3.97834 0
M  V30 2733 H 275.933 0.6202 -4.1944 0
M  V30 2734 C 274.392 1.51616 -3.00856 0
M  V30 2735 O 274.922 2.61476 -3.04948 0
M  V30 2736 N 273.128 1.36969 -2.56296 0
M  V30 2737 H 272.675 0.475873 -2.53166 0
M  V30 2738 H 272.633 2.18368 -2.26192 0
M  V30 2739 N 276.405 1.4127 -0.698611 0
M  V30 2740 C 277.682 1.94955 -0.158762 0
M  V30 2741 C 278.062 1.63781 1.33188 0
M  V30 2742 O 277.41 0.946423 2.07979 0
M  V30 2743 C 277.62 3.46044 -0.453309 0
M  V30 2744 C 278.968 4.22872 -0.382707 0
M  V30 2745 O 279.992 3.54076 -0.388396 0
M  V30 2746 O 278.851 5.45407 -0.345463 0
M  V30 2747 H 275.945 0.82683 -0.0167505 0
M  V30 2748 H 278.491 1.50971 -0.77498 0
M  V30 2749 H 277.263 3.62028 -1.48498 0
M  V30 2750 H 276.886 3.97128 0.19373 0
M  V30 2751 N 277.883 0.443576 1.51229 0
M  V30 2752 C 278.793 -0.370721 2.31652 0
M  V30 2753 C 279.809 -1.02186 1.40833 0
M  V30 2754 O 280.985 -1.01586 1.73903 0
M  V30 2755 C 278.05 -1.45376 3.14749 0
M  V30 2756 C 277.111 -0.822099 4.21355 0
M  V30 2757 C 276.344 -1.85353 5.0048 0
M  V30 2758 O 276.567 -3.07656 4.80316 0
M  V30 2759 O 275.501 -1.4406 5.84406 0
M  V30 2760 H 279.327 0.286002 3.0235 0
M  V30 2761 H 276.912 0.20598 1.47973 0
M  V30 2762 H 278.794 -2.08173 3.66391 0
M  V30 2763 H 277.469 -2.09445 2.46809 0
M  V30 2764 H 276.376 -0.155909 3.73775 0
M  V30 2765 H 277.709 -0.224797 4.91686 0
M  V30 2766 N 279.361 -1.56624 0.175154 0
M  V30 2767 C 280.61 -1.96173 -0.468921 0
M  V30 2768 C 280.923 -1.06401 -1.64128 0
M  V30 2769 O 282.129 -1.35648 -2.35185 0
M  V30 2770 C 280.585 -3.48833 -0.885633 0
M  V30 2771 C 280.193 -4.47237 0.261343 0
M  V30 2772 C 281.937 -3.97194 -1.49791 0
M  V30 2773 C 279.844 -5.9114 -0.175214 0
M  V30 2774 H 278.774 -0.732455 -0.178958 0
M  V30 2775 H 281.425 -1.81591 0.263997 0
M  V30 2776 H 279.807 -3.58848 -1.67464 0
M  V30 2777 H 280.981 -4.4894 1.03871 0
M  V30 2778 H 279.296 -4.08956 0.783827 0
M  V30 2779 H 281.893 -5.02167 -1.83665 0
M  V30 2780 H 282.236 -3.40351 -2.39722 0
M  V30 2781 H 282.769 -3.90212 -0.773267 0
M  V30 2782 H 279.508 -6.51865 0.689414 0
M  V30 2783 H 279.028 -5.92735 -0.91786 0
M  V30 2784 H 280.707 -6.44044 -0.617792 0
M  V30 2785 N 280.839 0.0985539 -1.57292 0
M  V30 2786 C 281.771 1.14595 -1.98496 0
M  V30 2787 C 282.784 1.36512 -0.887031 0
M  V30 2788 O 283.973 1.35225 -1.16518 0
M  V30 2789 C 281.073 2.50216 -2.28572 0
M  V30 2790 C 280.246 2.48624 -3.59868 0
M  V30 2791 C 279.305 3.66146 -3.7792 0
M  V30 2792 O 278.331 3.48795 -4.49812 0
M  V30 2793 N 279.533 4.85496 -3.18235 0
M  V30 2794 H 282.298 0.795277 -2.88956 0
M  V30 2795 H 279.859 0.287579 -1.59325 0
M  V30 2796 H 281.851 3.27432 -2.37845 0
M  V30 2797 H 280.421 2.77387 -1.44136 0
M  V30 2798 H 279.641 1.56978 -3.61596 0
M  V30 2799 H 280.929 2.44635 -4.46129 0
M  V30 2800 H 280.327 5.02497 -2.59833 0
M  V30 2801 H 278.884 5.60317 -3.32999 0
M  V30 2802 N 282.317 1.53212 0.369288 0
M  V30 2803 C 283.542 1.73423 1.1375 0
M  V30 2804 C 283.967 0.460404 1.82378 0
M  V30 2805 O 283.325 -0.585298 1.71592 0
M  V30 2806 C 283.373 2.89769 2.1463 0
M  V30 2807 O 282.477 2.58119 3.21634 0
M  V30 2808 H 281.818 0.576061 0.330227 0
M  V30 2809 H 284.348 2.00083 0.427547 0
M  V30 2810 H 284.358 3.15829 2.58294 0
M  V30 2811 H 283.033 3.8217 1.64071 0
M  V30 2812 H 281.61 2.42864 2.82969 0
M  V30 2813 N 283.795 -0.628877 1.44509 0
M  V30 2814 C 285.043 -1.38565 1.4712 0
M  V30 2815 C 285.364 -1.94712 0.105899 0
M  V30 2816 O 284.634 -1.75912 -0.862079 0
M  V30 2817 H 283.214 -0.514333 0.541729 0
M  V30 2818 H 285.876 -0.740018 1.80305 0
M  V30 2819 H 284.972 -2.21583 2.19789 0
M  V30 2820 N 285.273 -1.31445 -0.869486 0
M  V30 2821 C 286.689 -1.10113 -1.15531 0
M  V30 2822 C 286.889 0.128087 -2.01092 0
M  V30 2823 O 285.945 0.817276 -2.38908 0
M  V30 2824 C 287.258 -2.37291 -1.84698 0
M  V30 2825 C 288.806 -2.42906 -1.97397 0
M  V30 2826 C 289.281 -3.69967 -2.69979 0
M  V30 2827 N 290.772 -3.70864 -2.77514 0
M  V30 2828 C 291.507 -4.65875 -3.34287 0
M  V30 2829 N 291.003 -5.71242 -3.91988 0
M  V30 2830 N 292.796 -4.53394 -3.3225 0
M  V30 2831 H 284.947 -2.1028 -0.299347 0
M  V30 2832 H 287.21 -0.927683 -0.195214 0
M  V30 2833 H 286.916 -3.27078 -1.29278 0
M  V30 2834 H 286.79 -2.47125 -2.84972 0
M  V30 2835 H 289.177 -1.53588 -2.51982 0
M  V30 2836 H 289.258 -2.37036 -0.961643 0
M  V30 2837 H 288.902 -4.59652 -2.16062 0
M  V30 2838 H 288.832 -3.73103 -3.7162 0
M  V30 2839 H 291.323 -2.94697 -2.36563 0
M  V30 2840 H 291.636 -6.39817 -4.33421 0
M  V30 2841 H 289.981 -5.75015 -3.90362 0
M  V30 2842 H 293.172 -3.70252 -2.8641 0
M  V30 2843 H 293.345 -5.27617 -3.76197 0
M  V30 2844 N 286.751 1.08385 -1.14413 0
M  V30 2845 C 288.028 1.77429 -0.823297 0
M  V30 2846 C 288.408 1.9974 0.683163 0
M  V30 2847 O 287.756 1.60739 1.62405 0
M  V30 2848 C 287.966 3.09004 -1.62227 0
M  V30 2849 C 289.314 3.83532 -1.82177 0
M  V30 2850 O 290.338 3.18786 -1.58915 0
M  V30 2851 O 289.197 4.99792 -2.21067 0
M  V30 2852 H 286.291 0.769999 -0.301712 0
M  V30 2853 H 288.837 1.14846 -1.24934 0
M  V30 2854 H 287.609 2.88316 -2.64555 0
M  V30 2855 H 287.232 3.79316 -1.19187 0
M  V30 2856 N 288.23 0.939286 1.26551 0
M  V30 2857 C 289.476 0.586715 1.94128 0
M  V30 2858 C 289.809 -0.8717 1.73537 0
M  V30 2859 O 289.084 -1.62339 1.07127 0
M  V30 2860 C 289.367 0.927497 3.4795 0
M  V30 2861 C 289.22 2.44052 3.77834 0
M  V30 2862 C 290.539 0.441569 4.37879 0
M  V30 2863 H 287.658 0.21463 0.705055 0
M  V30 2864 H 290.3 1.17316 1.49455 0
M  V30 2865 H 288.45 0.428431 3.8613 0
M  V30 2866 H 290.122 3.01216 3.4938 0
M  V30 2867 H 288.365 2.8848 3.23978 0
M  V30 2868 H 289.036 2.62947 4.85348 0
M  V30 2869 H 291.512 0.869448 4.06915 0
M  V30 2870 H 290.388 0.708856 5.44304 0
M  V30 2871 H 290.649 -0.658467 4.37169 0
M  V30 2872 N 289.708 -1.40897 0.706093 0
M  V30 2873 C 290.933 -2.05895 0.249435 0
M  V30 2874 C 291.358 -1.52823 -1.09666 0
M  V30 2875 O 290.716 -0.659589 -1.68876 0
M  V30 2876 C 290.764 -3.59872 0.22904 0
M  V30 2877 O 289.868 -4.04708 -0.792784 0
M  V30 2878 H 289.209 -0.653206 0.119241 0
M  V30 2879 H 291.739 -1.80471 0.96391 0
M  V30 2880 H 291.749 -4.07951 0.0634791 0
M  V30 2881 H 290.424 -3.97866 1.21141 0
M  V30 2882 H 289.001 -3.68111 -0.59572 0
M  V30 2883 N 291.186 -0.45159 -1.50991 0
M  V30 2884 C 292.133 0.352625 -2.2809 0
M  V30 2885 C 293.103 1.0044 -1.32291 0
M  V30 2886 O 294.288 1.02058 -1.6121 0
M  V30 2887 C 291.428 1.43983 -3.13629 0
M  V30 2888 C 290.541 0.804772 -4.24438 0
M  V30 2889 C 289.676 1.86822 -4.97263 0
M  V30 2890 C 288.715 1.21236 -5.99973 0
M  V30 2891 N 287.852 2.2178 -6.66152 0
M  V30 2892 H 292.692 -0.311186 -2.96371 0
M  V30 2893 H 290.229 -0.165308 -1.46168 0
M  V30 2894 H 292.187 2.08161 -3.61559 0
M  V30 2895 H 290.817 2.07307 -2.47434 0
M  V30 2896 H 289.869 0.0509129 -3.80366 0
M  V30 2897 H 291.181 0.286076 -4.97979 0
M  V30 2898 H 290.335 2.58628 -5.48813 0
M  V30 2899 H 289.074 2.42068 -4.23385 0
M  V30 2900 H 288.079 0.479828 -5.47702 0
M  V30 2901 H 289.304 0.667051 -6.75816 0
M  V30 2902 H 287.25 2.76079 -5.95077 0
M  V30 2903 H 287.167 1.74841 -7.35504 0
M  V30 2904 H 288.435 2.93026 -7.22327 0
M  V30 2905 N 292.664 1.56529 -0.183458 0
M  V30 2906 C 293.627 2.17324 0.728223 0
M  V30 2907 C 294.627 1.12453 1.14939 0
M  V30 2908 O 295.817 1.37902 1.06437 0
M  V30 2909 C 292.949 2.76591 1.99274 0
M  V30 2910 H 294.142 2.99241 0.198772 0
M  V30 2911 H 291.695 1.5616 0.0661391 0
M  V30 2912 H 292.43 1.98441 2.56499 0
M  V30 2913 H 292.215 3.5335 1.69959 0
M  V30 2914 H 293.705 3.23311 2.6431 0
M  V30 2915 N 294.142 -0.090211 1.57342 0
M  V30 2916 C 295.388 -0.793982 1.86611 0
M  V30 2917 C 295.721 -1.78142 0.773252 0
M  V30 2918 O 294.996 -1.93271 -0.218304 0
M  V30 2919 C 295.279 -1.51839 3.26523 0
M  V30 2920 C 295.132 -0.548609 4.46442 0
M  V30 2921 C 296.451 -2.46779 3.64401 0
M  V30 2922 H 293.57 -0.287186 0.678744 0
M  V30 2923 H 296.212 -0.0575076 1.89913 0
M  V30 2924 H 294.362 -2.14617 3.23839 0
M  V30 2925 H 296.034 0.0725513 4.61243 0
M  V30 2926 H 294.277 0.137614 4.33582 0
M  V30 2927 H 294.948 -1.09271 5.41076 0
M  V30 2928 H 297.424 -1.94089 3.68061 0
M  V30 2929 H 296.3 -2.94479 4.63221 0
M  V30 2930 H 296.561 -3.30758 2.93346 0
M  V30 2931 N 295.62 -1.53406 -0.361157 0
M  V30 2932 C 296.568 -1.80832 -1.46296 0
M  V30 2933 C 297.562 -0.677699 -1.55253 0
M  V30 2934 O 298.768 -0.860723 -1.58087 0
M  V30 2935 H 295.143 -0.572627 -0.487445 0
M  V30 2936 H 297.114 -2.73045 -1.20371 0
M  V30 2937 C 295.863 -2.01907 -2.8307 0
M  V30 2938 H 295.186 -2.88349 -2.76938 0
M  V30 2939 H 296.626 -2.25072 -3.59331 0
M  V30 2940 C 295.085 -0.799449 -3.27277 0
M  V30 2941 O 295.615 0.00971761 -4.01699 0
M  V30 2942 N 293.821 -0.621637 -2.83873 0
M  V30 2943 H 293.368 -1.28126 -2.23476 0
M  V30 2944 H 293.326 0.19298 -3.13807 0
M  V30 2945 N 297.098 0.621204 -1.44841 0
M  V30 2946 C 298.347 1.37658 -1.47422 0
M  V30 2947 C 298.66 1.95264 -0.114629 0
M  V30 2948 O 299.866 2.71494 -0.0180199 0
M  V30 2949 C 298.322 2.49285 -2.59586 0
M  V30 2950 C 297.93 1.98149 -4.01797 0
M  V30 2951 C 299.674 3.26409 -2.71399 0
M  V30 2952 C 297.581 3.07178 -5.05367 0
M  V30 2953 H 296.511 0.517344 -0.548517 0
M  V30 2954 H 299.162 0.667257 -1.70938 0
M  V30 2955 H 297.544 3.22839 -2.29328 0
M  V30 2956 H 298.718 1.31395 -4.41669 0
M  V30 2957 H 297.033 1.33812 -3.94314 0
M  V30 2958 H 299.63 4.07706 -3.45948 0
M  V30 2959 H 299.973 3.76535 -1.77559 0
M  V30 2960 H 300.506 2.5995 -3.01116 0
M  V30 2961 H 297.245 2.61985 -6.00869 0
M  V30 2962 H 296.765 3.72542 -4.70077 0
M  V30 2963 H 298.444 3.71789 -5.29511 0
M  V30 2964 N 298.576 1.31904 0.862503 0
M  V30 2965 C 299.523 1.20182 1.9704 0
M  V30 2966 C 300.493 0.0858247 1.65878 0
M  V30 2967 O 301.678 0.26 1.8902 0
M  V30 2968 C 298.818 0.922797 3.32533 0
M  V30 2969 C 297.931 2.12284 3.76244 0
M  V30 2970 C 297.066 1.77996 5.00491 0
M  V30 2971 C 296.105 2.94366 5.36671 0
M  V30 2972 N 295.242 2.60223 6.52095 0
M  V30 2973 H 300.082 2.14951 2.06398 0
M  V30 2974 H 297.619 1.06917 1.01031 0
M  V30 2975 H 299.577 0.741548 4.10557 0
M  V30 2976 H 298.207 0.0119227 3.22798 0
M  V30 2977 H 297.259 2.41461 2.9394 0
M  V30 2978 H 298.571 2.99357 3.98982 0
M  V30 2979 H 297.725 1.56377 5.862 0
M  V30 2980 H 296.464 0.881252 4.79672 0
M  V30 2981 H 295.469 3.16625 4.49476 0
M  V30 2982 H 296.694 3.84957 5.59451 0
M  V30 2983 H 294.64 1.72884 6.32809 0
M  V30 2984 H 294.557 3.40827 6.74814 0
M  V30 2985 H 295.825 2.42016 7.40978 0
M  V30 2986 N 300.054 -1.07777 1.14986 0
M  V30 2987 C 301.282 -1.84018 0.945773 0
M  V30 2988 C 301.697 -1.81897 -0.505863 0
M  V30 2989 O 301.054 -1.22726 -1.35072 0
M  V30 2990 C 301.105 -3.31287 1.44677 0
M  V30 2991 O 300.826 -3.33449 2.84154 0
M  V30 2992 C 302.327 -4.24311 1.28355 0
M  V30 2993 H 299.547 -0.580716 0.336169 0
M  V30 2994 H 302.091 -1.36077 1.52654 0
M  V30 2995 H 300.246 -3.76594 0.908625 0
M  V30 2996 H 300.66 -4.25427 3.06777 0
M  V30 2997 H 302.134 -5.2573 1.68261 0
M  V30 2998 H 302.611 -4.38612 0.227184 0
M  V30 2999 H 303.217 -3.84836 1.81056 0
M  V30 3000 N 301.532 -0.945985 -1.26051 0
M  V30 3001 C 302.442 -0.465633 -2.29933 0
M  V30 3002 C 303.458 0.462761 -1.67733 0
M  V30 3003 O 304.634 0.341118 -1.9849 0
M  V30 3004 C 301.699 0.256994 -3.45746 0
M  V30 3005 C 300.76 -0.708549 -4.23412 0
M  V30 3006 C 299.993 -0.0203135 -5.33696 0
M  V30 3007 O 300.216 1.19571 -5.57726 0
M  V30 3008 O 299.15 -0.701459 -5.97799 0
M  V30 3009 H 302.976 -1.32866 -2.73094 0
M  V30 3010 H 300.561 -0.712071 -1.31339 0
M  V30 3011 H 302.443 0.663852 -4.16138 0
M  V30 3012 H 301.118 1.09533 -3.04605 0
M  V30 3013 H 300.025 -1.16545 -3.55483 0
M  V30 3014 H 301.358 -1.51465 -4.68315 0
M  V30 3015 N 303.011 1.40521 -0.713556 0
M  V30 3016 C 303.974 2.29098 -0.0684347 0
M  V30 3017 C 304.974 1.45268 0.689472 0
M  V30 3018 O 306.164 1.66205 0.521677 0
M  V30 3019 C 303.296 3.28446 0.913024 0
M  V30 3020 H 304.489 2.87645 -0.84855 0
M  V30 3021 H 302.042 1.48809 -0.47809 0
M  V30 3022 H 302.777 2.74913 1.72027 0
M  V30 3023 H 302.562 3.90327 0.372472 0
M  V30 3024 H 304.052 3.94777 1.36165 0
M  V30 3025 N 304.489 0.459591 1.5075 0
M  V30 3026 C 305.736 -0.0993495 2.02256 0
M  V30 3027 C 306.064 -1.40751 1.34237 0
M  V30 3028 O 305.319 -1.90379 0.453228 0
M  V30 3029 C 305.618 -0.342866 3.55752 0
M  V30 3030 C 305.284 0.88218 4.42186 0
M  V30 3031 C 303.946 1.21808 4.65528 0
M  V30 3032 C 306.298 1.69837 4.92752 0
M  V30 3033 C 303.626 2.37045 5.36681 0
M  V30 3034 C 305.978 2.84192 5.65171 0
M  V30 3035 C 304.642 3.1821 5.8677 0
M  V30 3036 H 303.912 -0.0363545 0.740108 0
M  V30 3037 H 306.559 0.611329 1.8148 0
M  V30 3038 H 304.864 -1.13567 3.7498 0
M  V30 3039 H 306.561 -0.789121 3.93159 0
M  V30 3040 H 303.151 0.610467 4.2423 0
M  V30 3041 H 307.335 1.45205 4.74583 0
M  V30 3042 H 302.591 2.63689 5.51614 0
M  V30 3043 H 306.765 3.4779 6.03337 0
M  V30 3044 H 304.392 4.07613 6.41682 0
M  V30 3045 N 305.967 -1.56429 0.191757 0
M  V30 3046 C 306.914 -2.18936 -0.730454 0
M  V30 3047 C 307.884 -1.13557 -1.21219 0
M  V30 3048 O 309.069 -1.41794 -1.27668 0
M  V30 3049 C 306.209 -2.85013 -1.9458 0
M  V30 3050 C 305.322 -4.04909 -1.50574 0
M  V30 3051 C 304.457 -4.58853 -2.67634 0
M  V30 3052 C 303.496 -5.71114 -2.20217 0
M  V30 3053 N 302.633 -6.19478 -3.30442 0
M  V30 3054 H 307.473 -2.97389 -0.190664 0
M  V30 3055 H 305.01 -1.46869 -0.0823694 0
M  V30 3056 H 306.968 -3.21492 -2.65893 0
M  V30 3057 H 305.598 -2.09129 -2.45896 0
M  V30 3058 H 304.65 -3.74115 -0.688605 0
M  V30 3059 H 305.962 -4.86113 -1.11784 0
M  V30 3060 H 305.116 -4.97619 -3.47074 0
M  V30 3061 H 303.855 -3.76749 -3.09696 0
M  V30 3062 H 302.86 -5.31879 -1.3923 0
M  V30 3063 H 304.085 -6.55033 -1.79189 0
M  V30 3064 H 302.031 -5.40297 -3.72041 0
M  V30 3065 H 301.948 -6.95725 -2.9581 0
M  V30 3066 H 303.216 -6.62898 -4.10106 0
M  V30 3067 N 307.445 0.0818655 -1.57387 0
M  V30 3068 C 308.67 0.799946 -1.91352 0
M  V30 3069 C 309.095 1.70833 -0.787258 0
M  V30 3070 O 308.453 1.79419 0.26048 0
M  V30 3071 C 308.501 1.57812 -3.24234 0
M  V30 3072 O 307.605 2.68806 -3.12757 0
M  V30 3073 H 306.946 0.21891 -0.626877 0
M  V30 3074 H 309.476 0.0531256 -2.04531 0
M  V30 3075 H 309.486 1.95952 -3.57864 0
M  V30 3076 H 308.161 0.911548 -4.05788 0
M  V30 3077 H 306.738 2.33597 -2.90666 0
M  V30 3078 N 308.923 1.53595 0.353017 0
M  V30 3079 C 309.886 1.80232 1.41594 0
M  V30 3080 C 310.886 0.673081 1.46035 0
M  V30 3081 O 312.076 0.941335 1.46576 0
M  V30 3082 C 309.208 1.93578 2.80607 0
M  V30 3083 H 310.401 2.75174 1.19244 0
M  V30 3084 H 307.954 1.44864 0.586872 0
M  V30 3085 H 308.689 1.00746 3.08254 0
M  V30 3086 H 308.474 2.75724 2.78781 0
M  V30 3087 H 309.964 2.15735 3.57558 0
M  V30 3088 N 310.401 -0.613514 1.45168 0
M  V30 3089 C 311.647 -1.37279 1.50087 0
M  V30 3090 C 312.002 -1.91902 0.138294 0
M  V30 3091 O 311.295 -1.71764 -0.84899 0
M  V30 3092 C 311.489 -2.54347 2.51083 0
M  V30 3093 C 311.318 -2.11186 3.97027 0
M  V30 3094 C 310.088 -1.97636 4.65046 0
M  V30 3095 C 312.286 -1.69016 4.85735 0
M  V30 3096 N 310.268 -1.48224 5.95737 0
M  V30 3097 C 311.639 -1.30976 6.06008 0
M  V30 3098 C 313.694 -1.56555 4.72647 0
M  V30 3099 C 312.397 -0.817197 7.14643 0
M  V30 3100 C 314.423 -1.08702 5.81324 0
M  V30 3101 C 313.785 -0.716233 7.00749 0
M  V30 3102 H 309.884 -0.496478 0.60418 0
M  V30 3103 H 312.468 -0.701988 1.81605 0
M  V30 3104 H 310.639 -3.19031 2.21527 0
M  V30 3105 H 312.371 -3.21208 2.46187 0
M  V30 3106 H 309.126 -2.18638 4.20112 0
M  V30 3107 H 309.55 -1.25767 6.65216 0
M  V30 3108 H 314.192 -1.83849 3.80736 0
M  V30 3109 H 311.91 -0.531797 8.06348 0
M  V30 3110 H 315.496 -0.994943 5.7323 0
M  V30 3111 H 314.376 -0.351642 7.83411 0
M  V30 3112 N 311.879 -1.3236 -0.855495 0
M  V30 3113 C 313.127 -1.22629 -1.60644 0
M  V30 3114 C 313.448 0.212136 -1.93843 0
M  V30 3115 O 312.718 1.13666 -1.59552 0
M  V30 3116 H 311.298 -0.450882 -0.595579 0
M  V30 3117 H 313.96 -1.65871 -1.02337 0
M  V30 3118 H 313.056 -1.80832 -2.54374 0
M  V30 3119 N 313.357 1.07166 -1.15556 0
M  V30 3120 C 314.768 1.6127 -0.940693 0
M  V30 3121 C 315.119 1.89251 0.517551 0
M  V30 3122 O 314.244 1.65937 1.38903 0
M  V30 3123 C 314.839 2.92993 -1.7012 0
M  V30 3124 C 313.398 3.43832 -1.53156 0
M  V30 3125 C 312.545 2.1786 -1.71558 0
M  V30 3126 H 315.496 0.90229 -1.30554 0
M  V30 3127 H 315.517 3.62007 -1.17181 0
M  V30 3128 H 315.029 2.72596 -2.76248 0
M  V30 3129 H 313.13 3.69307 -0.494294 0
M  V30 3130 H 313.243 4.19747 -2.30975 0
M  V30 3131 H 311.607 2.2765 -1.14225 0
M  V30 3132 H 312.39 1.99956 -2.79056 0
M  V30 3133 N 314.835 0.952656 1.25548 0
M  V30 3134 C 315.768 0.415525 2.24385 0
M  V30 3135 C 316.746 -0.502046 1.54655 0
M  V30 3136 O 317.93 -0.436875 1.83368 0
M  V30 3137 C 315.057 -0.401734 3.36309 0
M  V30 3138 C 314.103 0.455949 4.24056 0
M  V30 3139 S 314.936 1.88698 5.01152 0
M  V30 3140 C 316.092 1.07809 6.16545 0
M  V30 3141 H 316.325 1.25315 2.69599 0
M  V30 3142 H 313.858 0.756587 1.34592 0
M  V30 3143 H 315.816 -0.867329 4.01233 0
M  V30 3144 H 314.477 -1.21416 2.89684 0
M  V30 3145 H 313.67 -0.170776 5.03711 0
M  V30 3146 H 313.272 0.856675 3.64056 0
M  V30 3147 H 315.564 0.325816 6.76716 0
M  V30 3148 H 316.507 1.84849 6.83547 0
M  V30 3149 H 316.915 0.60909 5.61204 0
M  V30 3150 N 316.313 -1.40141 0.720998 0
M  V30 3151 C 317.561 -2.0039 0.262323 0
M  V30 3152 C 317.882 -1.57469 -1.15015 0
M  V30 3153 O 317.152 -0.816582 -1.78069 0
M  V30 3154 H 315.732 -0.741063 0.093996 0
M  V30 3155 H 318.394 -1.71398 0.927835 0
M  V30 3156 H 317.49 -3.10658 0.299671 0
M  V30 3157 N 317.792 -0.46758 -1.50504 0
M  V30 3158 C 318.725 0.374324 -2.25109 0
M  V30 3159 C 319.703 0.99921 -1.28275 0
M  V30 3160 O 320.887 1.03583 -1.57489 0
M  V30 3161 C 318.014 1.52419 -3.02467 0
M  V30 3162 C 317.06 1.01702 -4.14197 0
M  V30 3163 S 317.893 -0.0654477 -5.3546 0
M  V30 3164 C 319.049 1.08837 -6.16365 0
M  V30 3165 H 319.282 -0.258983 -2.9617 0
M  V30 3166 H 316.815 -0.252421 -1.52323 0
M  V30 3167 H 318.773 2.18322 -3.47628 0
M  V30 3168 H 317.434 2.129 -2.30938 0
M  V30 3169 H 316.627 1.87776 -4.67714 0
M  V30 3170 H 316.229 0.435757 -3.71453 0
M  V30 3171 H 318.521 2.00071 -6.47285 0
M  V30 3172 H 319.464 0.592538 -7.05616 0
M  V30 3173 H 319.872 1.34061 -5.4835 0
M  V30 3174 N 319.27 1.56325 -0.20005 0
M  V30 3175 C 320.516 1.98012 0.438059 0
M  V30 3176 C 320.849 1.08702 1.60927 0
M  V30 3177 O 320.124 0.140064 1.93995 0
M  V30 3178 C 320.407 3.48841 0.893419 0
M  V30 3179 C 320.26 4.48928 -0.279947 0
M  V30 3180 C 321.579 4.03498 1.75719 0
M  V30 3181 H 318.698 0.719918 0.157757 0
M  V30 3182 H 321.34 1.87743 -0.291968 0
M  V30 3183 H 319.49 3.57723 1.51547 0
M  V30 3184 H 321.162 4.52079 -0.91772 0
M  V30 3185 H 319.405 4.23694 -0.930919 0
M  V30 3186 H 320.076 5.5194 0.0812601 0
M  V30 3187 H 322.552 3.97427 1.23253 0
M  V30 3188 H 321.428 5.09393 2.04476 0
M  V30 3189 H 321.689 3.4906 2.71311 0
M  V30 3190 N 320.748 -0.0735177 1.57428 0
M  V30 3191 C 321.994 -0.774145 1.87443 0
M  V30 3192 C 322.327 -1.77311 0.792103 0
M  V30 3193 O 321.602 -1.93492 -0.197793 0
M  V30 3194 C 321.885 -1.48367 3.28115 0
M  V30 3195 C 321.738 -0.501227 4.46999 0
M  V30 3196 C 323.057 -2.429 3.66998 0
M  V30 3197 H 320.176 -0.279971 0.681752 0
M  V30 3198 H 322.818 -0.0373616 1.89963 0
M  V30 3199 H 320.968 -2.11171 3.26097 0
M  V30 3200 H 322.64 0.121468 4.6114 0
M  V30 3201 H 320.883 0.183593 4.33411 0
M  V30 3202 H 321.554 -1.03526 5.42205 0
M  V30 3203 H 324.03 -1.90175 3.70098 0
M  V30 3204 H 322.906 -2.89549 4.66318 0
M  V30 3205 H 323.167 -3.27628 2.96837 0
M  V30 3206 N 322.226 -1.5378 -0.344866 0
M  V30 3207 C 323.136 -1.84667 -1.4469 0
M  V30 3208 C 324.152 -0.736704 -1.57635 0
M  V30 3209 O 325.328 -1.02888 -1.73136 0
M  V30 3210 C 322.393 -2.04869 -2.79696 0
M  V30 3211 C 321.454 -3.28731 -2.76106 0
M  V30 3212 C 320.687 -3.4796 -4.04673 0
M  V30 3213 O 320.91 -2.71052 -5.01883 0
M  V30 3214 O 319.844 -4.41383 -4.09224 0
M  V30 3215 H 323.67 -2.78334 -1.21506 0
M  V30 3216 H 321.255 -1.39418 -0.536921 0
M  V30 3217 H 323.137 -2.19609 -3.59652 0
M  V30 3218 H 321.812 -1.14391 -3.02814 0
M  V30 3219 H 320.719 -3.19396 -1.94774 0
M  V30 3220 H 322.052 -4.19198 -2.57941 0
M  V30 3221 N 323.704 0.605807 -1.45491 0
M  V30 3222 C 324.952 1.36207 -1.49305 0
M  V30 3223 C 325.273 1.94519 -0.136863 0
M  V30 3224 O 324.543 1.77261 0.833983 0
M  V30 3225 H 323.123 0.50565 -0.549843 0
M  V30 3226 H 325.785 0.711239 -1.81459 0
M  V30 3227 H 324.881 2.18058 -2.23287 0
M  V30 3228 N 325.182 1.32811 0.848464 0
M  V30 3229 C 326.129 1.22265 1.95755 0
M  V30 3230 C 327.099 0.103413 1.65778 0
M  V30 3231 O 328.284 0.280033 1.88734 0
M  V30 3232 C 325.424 0.958014 3.31536 0
M  V30 3233 C 324.537 2.16262 3.73971 0
M  V30 3234 C 323.672 1.83295 4.98575 0
M  V30 3235 C 322.711 3.00041 5.33518 0
M  V30 3236 N 321.848 2.67125 6.49299 0
M  V30 3237 H 326.688 2.17128 2.04107 0
M  V30 3238 H 324.225 1.07982 0.998913 0
M  V30 3239 H 326.183 0.785052 4.09747 0
M  V30 3240 H 324.813 0.046159 3.22767 0
M  V30 3241 H 323.865 2.44565 2.91362 0
M  V30 3242 H 325.177 3.03572 3.95785 0
M  V30 3243 H 324.331 1.62586 5.84509 0
M  V30 3244 H 323.07 0.932078 4.7871 0
M  V30 3245 H 322.075 3.21374 4.46093 0
M  V30 3246 H 323.3 3.90869 5.55336 0
M  V30 3247 H 321.246 1.79586 6.3094 0
M  V30 3248 H 321.163 3.47965 6.71161 0
M  V30 3249 H 322.431 2.49861 7.3837 0
M  V30 3250 N 326.66 -1.06551 1.16123 0
M  V30 3251 C 327.885 -1.83544 0.965735 0
M  V30 3252 C 328.31 -1.81843 -0.481102 0
M  V30 3253 O 327.668 -1.21732 -1.34354 0
M  V30 3254 C 327.716 -3.28169 1.49457 0
M  V30 3255 O 326.82 -4.0643 0.699157 0
M  V30 3256 H 326.161 -0.568026 0.343864 0
M  V30 3257 H 328.691 -1.34362 1.54299 0
M  V30 3258 H 328.701 -3.78992 1.51092 0
M  V30 3259 H 327.376 -3.28722 2.54784 0
M  V30 3260 H 325.953 -3.65216 0.7531 0
M  V30 3261 N 328.138 -0.959301 -1.25041 0
M  V30 3262 C 329.368 -0.63303 -1.96663 0
M  V30 3263 C 329.776 0.800031 -1.71453 0
M  V30 3264 O 329.119 1.54736 -0.99008 0
M  V30 3265 C 329.181 -0.817523 -3.50081 0
M  V30 3266 C 328.845 -2.22863 -3.98975 0
M  V30 3267 C 329.842 -3.20569 -4.09306 0
M  V30 3268 C 327.527 -2.55407 -4.32519 0
M  V30 3269 C 329.521 -4.4891 -4.52503 0
M  V30 3270 C 327.208 -3.83976 -4.754 0
M  V30 3271 C 328.206 -4.8054 -4.85356 0
M  V30 3272 O 327.894 -6.06817 -5.27284 0
M  V30 3273 H 327.626 -0.235866 -0.633516 0
M  V30 3274 H 330.18 -1.2874 -1.60047 0
M  V30 3275 H 328.41 -0.105992 -3.86555 0
M  V30 3276 H 330.099 -0.491604 -4.02912 0
M  V30 3277 H 330.865 -2.96753 -3.83618 0
M  V30 3278 H 326.744 -1.8097 -4.23994 0
M  V30 3279 H 330.288 -5.24283 -4.60188 0
M  V30 3280 H 326.185 -4.07596 -5.00535 0
M  V30 3281 H 326.953 -6.10262 -5.45457 0
M  V30 3282 N 329.616 1.39756 -0.72842 0
M  V30 3283 C 330.862 2.01425 -0.282761 0
M  V30 3284 C 331.217 1.56754 1.11561 0
M  V30 3285 O 330.51 0.783482 1.74849 0
M  V30 3286 C 330.704 3.56002 -0.315776 0
M  V30 3287 C 330.533 4.1568 -1.71582 0
M  V30 3288 C 329.303 4.48555 -2.32651 0
M  V30 3289 C 331.501 4.39667 -2.66829 0
M  V30 3290 N 329.483 4.93698 -3.64877 0
M  V30 3291 C 330.854 4.86942 -3.8378 0
M  V30 3292 C 332.909 4.21724 -2.64675 0
M  V30 3293 C 331.612 5.18158 -4.98904 0
M  V30 3294 C 333.638 4.54049 -3.78937 0
M  V30 3295 C 333 5.01525 -4.94623 0
M  V30 3296 H 329.099 0.76756 -0.149583 0
M  V30 3297 H 331.683 1.69784 -0.952976 0
M  V30 3298 H 329.854 3.87046 0.324057 0
M  V30 3299 H 331.586 4.0443 0.147808 0
M  V30 3300 H 328.341 4.36128 -1.84633 0
M  V30 3301 H 328.765 5.20635 -4.32744 0
M  V30 3302 H 333.407 3.84228 -1.76433 0
M  V30 3303 H 331.125 5.54562 -5.87781 0
M  V30 3304 H 334.711 4.41795 -3.78561 0
M  V30 3305 H 333.591 5.26065 -5.81572 0
M  V30 3306 N 331.094 0.475555 1.50254 0
M  V30 3307 C 332.341 -0.0778919 2.0235 0
M  V30 3308 C 332.669 -1.39319 1.35722 0
M  V30 3309 O 331.924 -1.89888 0.473395 0
M  V30 3310 C 332.223 -0.305114 3.56095 0
M  V30 3311 C 331.889 0.92903 4.41225 0
M  V30 3312 C 330.551 1.26739 4.6421 0
M  V30 3313 C 332.903 1.75054 4.90923 0
M  V30 3314 C 330.231 2.42724 5.34137 0
M  V30 3315 C 332.583 2.9017 5.62125 0
M  V30 3316 C 331.247 3.24416 5.83362 0
M  V30 3317 H 330.517 -0.0285027 0.740452 0
M  V30 3318 H 333.164 0.630543 1.80821 0
M  V30 3319 H 331.469 -1.09584 3.76163 0
M  V30 3320 H 333.166 -0.747377 3.93974 0
M  V30 3321 H 329.756 0.655428 4.23559 0
M  V30 3322 H 333.94 1.50231 4.73016 0
M  V30 3323 H 329.196 2.69525 5.48786 0
M  V30 3324 H 333.37 3.54169 5.99614 0
M  V30 3325 H 330.997 4.14396 6.37323 0
M  V30 3326 N 332.573 -1.56217 0.208337 0
M  V30 3327 C 333.989 -1.58919 -0.14729 0
M  V30 3328 C 334.189 -1.22486 -1.59998 0
M  V30 3329 O 333.245 -0.953849 -2.3379 0
M  V30 3330 C 334.558 -3.00236 0.167048 0
M  V30 3331 C 336.106 -3.12813 0.108219 0
M  V30 3332 C 336.581 -4.56284 0.396049 0
M  V30 3333 N 338.072 -4.61912 0.345142 0
M  V30 3334 C 338.807 -5.70837 0.541523 0
M  V30 3335 N 338.303 -6.88178 0.798968 0
M  V30 3336 N 340.096 -5.60091 0.474867 0
M  V30 3337 H 332.247 -1.78177 1.15614 0
M  V30 3338 H 334.51 -0.827555 0.462446 0
M  V30 3339 H 334.216 -3.31499 1.1748 0
M  V30 3340 H 334.09 -3.7354 -0.524184 0
M  V30 3341 H 336.477 -2.81354 -0.890157 0
M  V30 3342 H 336.558 -2.41866 0.832729 0
M  V30 3343 H 336.202 -4.88458 1.3918 0
M  V30 3344 H 336.132 -5.25439 -0.349502 0
M  V30 3345 H 338.623 -3.77589 0.153316 0
M  V30 3346 H 338.936 -7.67095 0.93727 0
M  V30 3347 H 337.281 -6.89953 0.836013 0
M  V30 3348 H 340.472 -4.67297 0.274064 0
M  V30 3349 H 340.645 -6.44917 0.631326 0
M  V30 3350 N 334.051 0.0651679 -1.57465 0
M  V30 3351 C 334.981 1.07693 -2.07182 0
M  V30 3352 C 335.962 1.39962 -0.966673 0
M  V30 3353 O 337.147 1.49475 -1.2398 0
M  V30 3354 C 334.277 2.3885 -2.52127 0
M  V30 3355 C 333.231 2.20917 -3.66579 0
M  V30 3356 C 332.557 3.57515 -3.97601 0
M  V30 3357 C 333.857 1.62493 -4.9638 0
M  V30 3358 H 335.551 0.663199 -2.91962 0
M  V30 3359 H 333.097 0.317569 -1.40455 0
M  V30 3360 H 335.05 3.09928 -2.85522 0
M  V30 3361 H 333.774 2.82215 -1.64384 0
M  V30 3362 H 332.433 1.52279 -3.33477 0
M  V30 3363 H 332.081 3.98463 -3.06979 0
M  V30 3364 H 331.781 3.46353 -4.74672 0
M  V30 3365 H 333.305 4.30013 -4.33499 0
M  V30 3366 H 334.719 2.23445 -5.27963 0
M  V30 3367 H 333.116 1.62009 -5.77818 0
M  V30 3368 H 334.186 0.587041 -4.81333 0
M  V30 3369 N 335.529 1.53961 0.336706 0
M  V30 3370 C 336.94 1.62914 0.911925 0
M  V30 3371 C 337.291 0.514795 1.89326 0
M  V30 3372 O 336.416 -0.354395 2.13478 0
M  V30 3373 C 337.011 2.95304 1.66076 0
M  V30 3374 C 335.57 3.06496 2.18489 0
M  V30 3375 C 334.717 2.58403 1.00613 0
M  V30 3376 H 337.668 1.58285 0.114649 0
M  V30 3377 H 337.689 2.84727 2.5241 0
M  V30 3378 H 337.201 3.76387 0.946276 0
M  V30 3379 H 335.302 2.3006 2.93092 0
M  V30 3380 H 335.415 4.1208 2.44391 0
M  V30 3381 H 333.779 2.13977 1.38152 0
M  V30 3382 H 334.562 3.41932 0.306179 0
M  V30 3383 N 337.007 -0.598083 1.45811 0
M  V30 3384 C 337.97 -1.69018 1.54808 0
M  V30 3385 C 338.97 -1.55037 0.426652 0
M  V30 3386 O 340.16 -1.59932 0.690456 0
M  V30 3387 C 337.292 -3.0835 1.45371 0
M  V30 3388 H 338.485 -1.62403 2.52121 0
M  V30 3389 H 336.038 -0.814626 1.33392 0
M  V30 3390 H 336.773 -3.20534 0.492793 0
M  V30 3391 H 336.558 -3.19907 2.26721 0
M  V30 3392 H 338.048 -3.8788 1.54721 0
M  V30 3393 N 338.485 -1.33259 -0.841409 0
M  V30 3394 C 339.432 -1.23302 -1.95103 0
M  V30 3395 C 340.402 -0.112204 -1.65721 0
M  V30 3396 O 341.587 -0.290038 -1.88583 0
M  V30 3397 C 338.727 -0.975583 -3.31023 0
M  V30 3398 C 337.84 -2.18243 -3.72819 0
M  V30 3399 C 336.975 -1.85936 -4.97595 0
M  V30 3400 C 336.014 -3.02866 -5.3192 0
M  V30 3401 N 335.151 -2.70565 -6.47873 0
M  V30 3402 H 339.991 -2.18207 -2.02952 0
M  V30 3403 H 337.528 -1.0851 -0.993173 0
M  V30 3404 H 339.486 -0.80677 -4.09325 0
M  V30 3405 H 338.116 -0.0632755 -3.22738 0
M  V30 3406 H 337.168 -2.46107 -2.90061 0
M  V30 3407 H 338.48 -3.05666 -3.94169 0
M  V30 3408 H 337.634 -1.65684 -5.83638 0
M  V30 3409 H 336.373 -0.957452 -4.78209 0
M  V30 3410 H 335.378 -3.23736 -4.44382 0
M  V30 3411 H 336.603 -3.93809 -5.53255 0
M  V30 3412 H 334.549 -1.8293 -6.29978 0
M  V30 3413 H 334.466 -3.51519 -6.69306 0
M  V30 3414 H 335.734 -2.53774 -7.37034 0
M  V30 3415 N 339.963 1.05934 -1.16686 0
M  V30 3416 C 341.379 1.30938 -0.912542 0
M  V30 3417 C 341.579 1.96803 0.432533 0
M  V30 3418 O 340.635 2.23693 1.17123 0
M  V30 3419 C 341.948 2.18649 -2.06429 0
M  V30 3420 C 343.496 2.32055 -2.10047 0
M  V30 3421 C 343.971 3.23122 -3.24586 0
M  V30 3422 N 345.462 3.30706 -3.24327 0
M  V30 3423 C 346.197 4.01273 -4.09594 0
M  V30 3424 N 345.693 4.74332 -5.04956 0
M  V30 3425 N 347.486 3.97361 -3.97569 0
M  V30 3426 H 339.637 0.615777 -2.03278 0
M  V30 3427 H 341.9 0.334077 -0.887185 0
M  V30 3428 H 341.606 1.77534 -3.03603 0
M  V30 3429 H 341.48 3.19252 -2.00894 0
M  V30 3430 H 343.867 2.72415 -1.13464 0
M  V30 3431 H 343.948 1.31107 -2.19647 0
M  V30 3432 H 343.592 2.83477 -4.2143 0
M  V30 3433 H 343.522 4.24057 -3.12223 0
M  V30 3434 H 346.013 2.78644 -2.55276 0
M  V30 3435 H 346.326 5.25716 -5.6643 0
M  V30 3436 H 344.671 4.733 -5.08933 0
M  V30 3437 H 347.862 3.39405 -3.22369 0
M  V30 3438 H 348.035 4.52089 -4.64241 0
M  V30 3439 N 341.441 0.965919 1.2453 0
M  V30 3440 C 342.391 0.465731 2.23193 0
M  V30 3441 C 343.375 -0.451277 1.54442 0
M  V30 3442 O 344.567 -0.282489 1.74731 0
M  V30 3443 C 341.696 -0.244511 3.42428 0
M  V30 3444 C 340.782 0.691222 4.18429 0
M  V30 3445 N 341.173 1.82771 4.71623 0
M  V30 3446 C 339.471 0.501649 4.4317 0
M  V30 3447 C 340.172 2.41285 5.29298 0
M  V30 3448 N 339.148 1.69819 5.16394 0
M  V30 3449 H 342.95 1.33291 2.61937 0
M  V30 3450 H 340.464 0.824789 1.39896 0
M  V30 3451 H 342.461 -0.620056 4.12263 0
M  V30 3452 H 341.121 -1.10815 3.05205 0
M  V30 3453 H 342.132 2.20929 4.68413 0
M  V30 3454 H 338.809 -0.318177 4.16286 0
M  V30 3455 H 340.199 3.37181 5.8117 0
M  V30 3456 N 342.919 -1.39368 0.735821 0
M  V30 3457 C 344.147 -2.04795 0.294393 0
M  V30 3458 C 344.562 -1.55478 -1.07107 0
M  V30 3459 O 343.919 -0.720038 -1.67695 0
M  V30 3460 C 343.97 -3.6035 0.288071 0
M  V30 3461 O 343.691 -4.07852 1.59963 0
M  V30 3462 C 345.192 -4.42976 -0.169422 0
M  V30 3463 H 342.412 -0.658571 0.128551 0
M  V30 3464 H 344.956 -1.78399 0.999701 0
M  V30 3465 H 343.111 -3.85645 -0.368355 0
M  V30 3466 H 343.525 -5.02181 1.51375 0
M  V30 3467 H 344.999 -5.51864 -0.122687 0
M  V30 3468 H 345.476 -4.22068 -1.21472 0
M  V30 3469 H 346.082 -4.22832 0.457469 0
M  V30 3470 N 344.397 -0.483516 -1.5 0
M  V30 3471 C 345.643 0.0672592 -2.02688 0
M  V30 3472 C 345.976 1.38247 -1.36387 0
M  V30 3473 O 345.251 1.88131 -0.493675 0
M  V30 3474 C 345.534 0.238109 -3.59312 0
M  V30 3475 C 345.387 -1.099 -4.36168 0
M  V30 3476 C 346.706 0.986916 -4.28892 0
M  V30 3477 H 343.825 0.0229696 -0.736642 0
M  V30 3478 H 346.467 -0.631527 -1.79197 0
M  V30 3479 H 344.617 0.8333 -3.79458 0
M  V30 3480 H 346.289 -1.73172 -4.27562 0
M  V30 3481 H 344.532 -1.69261 -3.99416 0
M  V30 3482 H 345.203 -0.932954 -5.44059 0
M  V30 3483 H 347.679 0.482302 -4.13295 0
M  V30 3484 H 346.555 1.07527 -5.38265 0
M  V30 3485 H 346.816 2.0265 -3.92919 0
M  V30 3486 N 345.875 1.56104 -0.216619 0
M  V30 3487 C 346.823 2.21434 0.712036 0
M  V30 3488 C 347.817 1.19218 1.20348 0
M  V30 3489 O 349.023 1.3731 1.16387 0
M  V30 3490 H 345.398 0.70992 0.248026 0
M  V30 3491 H 347.369 2.98083 0.137558 0
M  V30 3492 C 346.118 2.90434 1.91163 0
M  V30 3493 H 345.441 3.68842 1.54258 0
M  V30 3494 H 346.881 3.39552 2.5393 0
M  V30 3495 C 345.34 1.92635 2.76394 0
M  V30 3496 O 345.87 1.44017 3.74996 0
M  V30 3497 N 344.076 1.60392 2.42328 0
M  V30 3498 H 343.623 2.00122 1.622 0
M  V30 3499 H 343.581 0.952159 2.99635 0
M  V30 3500 N 347.353 -0.0568162 1.57498 0
M  V30 3501 C 348.578 -0.769402 1.92601 0
M  V30 3502 C 349.003 -1.69559 0.814336 0
M  V30 3503 O 348.361 -1.79811 -0.231903 0
M  V30 3504 C 348.409 -1.52634 3.26704 0
M  V30 3505 O 347.513 -2.63797 3.16994 0
M  V30 3506 H 346.854 -0.208909 0.63028 0
M  V30 3507 H 349.384 -0.0205798 2.0459 0
M  V30 3508 H 349.394 -1.90234 3.60936 0
M  V30 3509 H 348.069 -0.846875 4.07186 0
M  V30 3510 H 346.646 -2.28943 2.94346 0
M  V30 3511 N 348.832 -1.54138 -0.328536 0
M  V30 3512 C 349.742 -1.86192 -1.42723 0
M  V30 3513 C 350.758 -0.753382 -1.56844 0
M  V30 3514 O 351.934 -1.04718 -1.72035 0
M  V30 3515 C 348.999 -2.07824 -2.77507 0
M  V30 3516 C 348.06 -3.31641 -2.72603 0
M  V30 3517 C 347.293 -3.52232 -4.00959 0
M  V30 3518 O 347.516 -2.7636 -4.9898 0
M  V30 3519 O 346.45 -4.45699 -4.0452 0
M  V30 3520 H 350.276 -2.79608 -1.18547 0
M  V30 3521 H 347.861 -1.3998 -0.522104 0
M  V30 3522 H 349.743 -2.23411 -3.57303 0
M  V30 3523 H 348.418 -1.17596 -3.01584 0
M  V30 3524 H 347.325 -3.21444 -1.91376 0
M  V30 3525 H 348.658 -4.2191 -2.53481 0
M  V30 3526 N 350.31 0.590341 -1.46126 0
M  V30 3527 C 351.557 1.34882 -1.5104 0
M  V30 3528 C 351.885 1.93849 -0.159021 0
M  V30 3529 O 351.14 1.76544 0.844436 0
M  V30 3530 C 351.439 2.5032 -2.55097 0
M  V30 3531 C 351.105 2.09394 -3.99331 0
M  V30 3532 C 349.767 1.97947 -4.38601 0
M  V30 3533 C 352.119 1.77712 -4.89967 0
M  V30 3534 C 349.447 1.53065 -5.66381 0
M  V30 3535 C 351.799 1.34312 -6.18177 0
M  V30 3536 C 350.463 1.21436 -6.56361 0
M  V30 3537 H 349.733 0.493568 -0.552695 0
M  V30 3538 H 352.38 0.665539 -1.79563 0
M  V30 3539 H 350.685 3.24062 -2.20207 0
M  V30 3540 H 352.382 3.08541 -2.56132 0
M  V30 3541 H 348.972 2.19235 -3.68285 0
M  V30 3542 H 353.156 1.85445 -4.60352 0
M  V30 3543 H 348.412 1.41733 -5.94745 0
M  V30 3544 H 352.586 1.08849 -6.87841 0
M  V30 3545 H 350.213 0.864345 -7.5527 0
M  V30 3546 N 351.788 1.33704 0.83433 0
M  V30 3547 C 353.065 1.16011 1.57483 0
M  V30 3548 C 353.445 -0.27176 2.09343 0
M  V30 3549 O 352.793 -1.27146 1.89858 0
M  V30 3550 C 353.003 2.20507 2.70514 0
M  V30 3551 C 354.351 2.54898 3.39577 0
M  V30 3552 O 355.375 2.19209 2.80759 0
M  V30 3553 O 354.234 3.16158 4.45765 0
M  V30 3554 H 351.328 0.448992 0.694503 0
M  V30 3555 H 353.874 1.453 0.876691 0
M  V30 3556 H 352.646 3.16667 2.29865 0
M  V30 3557 H 352.269 1.92329 3.47987 0
M  V30 3558 N 353.266 -1.05314 1.17247 0
M  V30 3559 C 354.515 -1.77685 0.954521 0
M  V30 3560 C 354.828 -1.88616 -0.518025 0
M  V30 3561 O 356.034 -2.57714 -0.854144 0
M  V30 3562 C 354.49 -3.19402 1.65863 0
M  V30 3563 C 354.098 -3.16605 3.16963 0
M  V30 3564 C 355.842 -3.96237 1.52303 0
M  V30 3565 C 353.749 -4.53103 3.80068 0
M  V30 3566 H 352.679 -0.666 0.353496 0
M  V30 3567 H 355.33 -1.1805 1.40486 0
M  V30 3568 H 353.712 -3.79355 1.13602 0
M  V30 3569 H 354.886 -2.66176 3.76148 0
M  V30 3570 H 353.201 -2.53268 3.30521 0
M  V30 3571 H 355.798 -4.97157 1.96822 0
M  V30 3572 H 356.141 -4.136 0.473401 0
M  V30 3573 H 356.674 -3.42829 2.01775 0
M  V30 3574 H 353.413 -4.40946 4.85023 0
M  V30 3575 H 352.933 -5.03686 3.2567 0
M  V30 3576 H 354.612 -5.22045 3.82202 0
M  V30 3577 N 354.744 -0.972509 -1.24016 0
M  V30 3578 C 355.691 -0.505969 -2.25186 0
M  V30 3579 C 356.661 0.451009 -1.5986 0
M  V30 3580 O 357.846 0.360307 -1.87367 0
M  V30 3581 C 354.986 0.193089 -3.44559 0
M  V30 3582 C 354.099 -0.803222 -4.24467 0
M  V30 3583 C 353.234 -0.0797793 -5.3114 0
M  V30 3584 C 352.273 -1.06583 -6.02749 0
M  V30 3585 N 351.41 -0.372074 -7.01113 0
M  V30 3586 H 356.25 -1.37351 -2.64459 0
M  V30 3587 H 353.787 -0.688419 -1.29997 0
M  V30 3588 H 355.745 0.615125 -4.1264 0
M  V30 3589 H 354.375 1.02455 -3.06109 0
M  V30 3590 H 353.427 -1.34368 -3.55878 0
M  V30 3591 H 354.739 -1.55494 -4.73944 0
M  V30 3592 H 353.893 0.400015 -6.0538 0
M  V30 3593 H 352.632 0.704597 -4.82583 0
M  V30 3594 H 351.637 -1.55645 -5.27309 0
M  V30 3595 H 352.862 -1.85074 -6.53395 0
M  V30 3596 H 350.808 0.393238 -6.5482 0
M  V30 3597 H 350.725 -1.06258 -7.48495 0
M  V30 3598 H 351.993 0.0855932 -7.79453 0
M  V30 3599 N 356.222 1.38976 -0.743202 0
M  V30 3600 C 357.154 2.29096 -0.0689228 0
M  V30 3601 C 358.167 1.47229 0.694791 0
M  V30 3602 O 359.356 1.70212 0.537597 0
M  V30 3603 C 356.456 3.25988 0.926548 0
M  V30 3604 C 355.629 4.36833 0.222647 0
M  V30 3605 C 354.688 5.13981 1.12739 0
M  V30 3606 O 353.714 5.6601 0.601795 0
M  V30 3607 N 354.916 5.25966 2.45641 0
M  V30 3608 H 357.681 2.87604 -0.842846 0
M  V30 3609 H 355.242 1.50645 -0.593109 0
M  V30 3610 H 357.234 3.74476 1.5346 0
M  V30 3611 H 355.804 2.68453 1.60162 0
M  V30 3612 H 355.024 3.90116 -0.565983 0
M  V30 3613 H 356.312 5.0811 -0.264841 0
M  V30 3614 H 355.71 4.85228 2.9081 0
M  V30 3615 H 354.267 5.77865 3.01522 0
M  V30 3616 N 357.7 0.491464 1.49741 0
M  V30 3617 C 358.949 -0.0582189 2.01616 0
M  V30 3618 C 359.262 -1.38927 1.3769 0
M  V30 3619 O 360.468 -2.02509 1.80838 0
M  V30 3620 C 358.924 -0.154235 3.59569 0
M  V30 3621 C 358.532 1.1696 4.32463 0
M  V30 3622 C 360.276 -0.65479 4.1942 0
M  V30 3623 C 358.183 1.03627 5.8225 0
M  V30 3624 H 357.113 -0.0255317 0.753568 0
M  V30 3625 H 359.764 0.629445 1.72367 0
M  V30 3626 H 358.146 -0.906138 3.85493 0
M  V30 3627 H 359.32 1.93405 4.18248 0
M  V30 3628 H 357.635 1.60285 3.84315 0
M  V30 3629 H 360.232 -0.771903 5.29099 0
M  V30 3630 H 360.575 -1.65127 3.8215 0
M  V30 3631 H 361.108 0.040304 3.9778 0
M  V30 3632 H 357.847 2.00672 6.24028 0
M  V30 3633 H 357.367 0.312546 5.98985 0
M  V30 3634 H 359.046 0.711114 6.4308 0
M  V30 3635 N 359.178 -1.55987 0.224894 0
M  V30 3636 C 360.403 -2.03232 -0.41369 0
M  V30 3637 C 360.828 -1.10359 -1.52323 0
M  V30 3638 O 360.186 -0.092395 -1.81064 0
M  V30 3639 C 360.234 -3.48682 -0.919405 0
M  V30 3640 O 359.338 -3.58947 -2.03054 0
M  V30 3641 H 358.679 -0.657428 -0.0931903 0
M  V30 3642 H 361.209 -2.01679 0.34451 0
M  V30 3643 H 361.219 -3.8907 -1.22835 0
M  V30 3644 H 359.894 -4.15761 -0.107339 0
M  V30 3645 H 358.471 -3.30448 -1.72796 0
M  V30 3646 N 360.656 0.0484629 -1.57525 0
M  V30 3647 C 361.881 0.759177 -1.93006 0
M  V30 3648 C 362.306 1.69125 -0.823317 0
M  V30 3649 O 361.664 1.79931 0.222364 0
M  V30 3650 C 361.712 1.50899 -3.27509 0
M  V30 3651 O 360.816 2.62112 -3.18388 0
M  V30 3652 H 360.157 0.205564 -0.631379 0
M  V30 3653 H 362.687 0.00972959 -2.04598 0
M  V30 3654 H 362.697 1.88317 -3.6194 0
M  V30 3655 H 361.372 0.825269 -4.0763 0
M  V30 3656 H 359.949 2.27379 -2.95556 0
M  V30 3657 N 362.134 1.5431 0.320358 0
M  V30 3658 C 363.064 1.86912 1.3995 0
M  V30 3659 C 364.045 0.726211 1.53819 0
M  V30 3660 O 365.23 0.980233 1.67646 0
M  V30 3661 C 362.36 2.09932 2.7667 0
M  V30 3662 C 361.314 3.25776 2.77586 0
M  V30 3663 C 360.64 3.34173 4.17412 0
M  V30 3664 C 361.94 4.6335 2.41048 0
M  V30 3665 H 363.634 2.77292 1.12914 0
M  V30 3666 H 361.18 1.33421 0.541738 0
M  V30 3667 H 363.133 2.31324 3.52232 0
M  V30 3668 H 361.857 1.16304 3.0519 0
M  V30 3669 H 360.516 3.04276 2.04479 0
M  V30 3670 H 360.164 2.38098 4.43078 0
M  V30 3671 H 359.864 4.12033 4.18931 0
M  V30 3672 H 361.388 3.57803 4.94782 0
M  V30 3673 H 362.802 4.84602 3.06324 0
M  V30 3674 H 361.199 5.43782 2.53813 0
M  V30 3675 H 362.269 4.65381 1.36193 0
M  V30 3676 N 363.613 -0.582584 1.46437 0
M  V30 3677 C 365.024 -1.1647 1.45916 0
M  V30 3678 C 365.375 -1.95177 0.200077 0
M  V30 3679 O 364.5 -2.04874 -0.696819 0
M  V30 3680 C 365.095 -2.11885 2.64367 0
M  V30 3681 C 363.654 -2.65421 2.66887 0
M  V30 3682 C 362.801 -1.41294 2.38603 0
M  V30 3683 H 365.752 -0.370514 1.54314 0
M  V30 3684 H 365.773 -2.9535 2.39892 0
M  V30 3685 H 365.285 -1.54573 3.5599 0
M  V30 3686 H 363.386 -3.26602 1.79338 0
M  V30 3687 H 363.499 -3.08147 3.66854 0
M  V30 3688 H 361.863 -1.71109 1.88663 0
M  V30 3689 H 362.646 -0.858125 3.32402 0
M  V30 3690 N 365.091 -1.34144 -0.827227 0
M  V30 3691 C 366.023 -1.21206 -1.9453 0
M  V30 3692 C 367.036 -0.140176 -1.62195 0
M  V30 3693 O 368.225 -0.391647 -1.7415 0
M  V30 3694 C 365.325 -0.839141 -3.28347 0
M  V30 3695 C 364.498 -2.0051 -3.88734 0
M  V30 3696 C 363.557 -1.61128 -5.00923 0
M  V30 3697 O 362.583 -2.32726 -5.19449 0
M  V30 3698 N 363.785 -0.522958 -5.7814 0
M  V30 3699 H 366.55 -2.17525 -2.06162 0
M  V30 3700 H 364.111 -1.27043 -1.00358 0
M  V30 3701 H 366.103 -0.557556 -4.00841 0
M  V30 3702 H 364.673 0.0337293 -3.12582 0
M  V30 3703 H 363.893 -2.45166 -3.08686 0
M  V30 3704 H 365.181 -2.78498 -4.25812 0
M  V30 3705 H 364.579 0.0723518 -5.65654 0
M  V30 3706 H 363.136 -0.301089 -6.51104 0
M  V30 3707 N 366.569 1.04691 -1.17803 0
M  V30 3708 C 367.815 1.78045 -0.970969 0
M  V30 3709 C 368.148 1.87686 0.498751 0
M  V30 3710 O 367.423 1.38035 1.37027 0
M  V30 3711 C 367.706 3.2166 -1.61884 0
M  V30 3712 C 367.559 3.20001 -3.161 0
M  V30 3713 C 368.878 4.1962 -1.3269 0
M  V30 3714 H 365.997 0.64633 -0.354155 0
M  V30 3715 H 368.639 1.22333 -1.45378 0
M  V30 3716 H 366.789 3.69232 -1.20831 0
M  V30 3717 H 368.461 2.80467 -3.66246 0
M  V30 3718 H 366.704 2.58203 -3.48588 0
M  V30 3719 H 367.375 4.21386 -3.56564 0
M  V30 3720 H 369.851 3.80567 -1.68249 0
M  V30 3721 H 368.727 5.18339 -1.80599 0
M  V30 3722 H 368.988 4.414 -0.248622 0
M  V30 3723 N 368.047 0.979072 1.23499 0
M  V30 3724 C 369.324 0.563674 1.87302 0
M  V30 3725 C 369.704 -0.959199 1.88049 0
M  V30 3726 O 369.052 -1.83535 1.36114 0
M  V30 3727 C 369.262 1.16822 3.28867 0
M  V30 3728 C 370.61 1.26014 4.0547 0
M  V30 3729 O 371.634 1.12158 3.38082 0
M  V30 3730 O 370.493 1.48044 5.26066 0
M  V30 3731 H 367.587 0.189602 0.804972 0
M  V30 3732 H 370.133 1.07407 1.31384 0
M  V30 3733 H 368.905 2.21049 3.22883 0
M  V30 3734 H 368.528 0.642564 3.92373 0
M  V30 3735 N 369.525 -1.3858 0.750561 0
M  V30 3736 C 370.774 -1.99424 0.302172 0
M  V30 3737 C 371.087 -1.60254 -1.12152 0
M  V30 3738 O 372.293 -2.14046 -1.67023 0
M  V30 3739 C 370.749 -3.56558 0.489307 0
M  V30 3740 C 370.357 -4.04682 1.92189 0
M  V30 3741 C 372.101 -4.24374 0.103478 0
M  V30 3742 C 370.008 -5.54446 2.05775 0
M  V30 3743 H 368.938 -0.746046 0.10923 0
M  V30 3744 H 371.589 -1.58383 0.92667 0
M  V30 3745 H 369.971 -3.95472 -0.204329 0
M  V30 3746 H 371.145 -3.77065 2.64875 0
M  V30 3747 H 369.46 -3.4958 2.26236 0
M  V30 3748 H 372.057 -5.34384 0.183787 0
M  V30 3749 H 372.4 -4.05468 -0.943481 0
M  V30 3750 H 372.933 -3.90688 0.748854 0
M  V30 3751 H 369.672 -5.78252 3.08714 0
M  V30 3752 H 369.192 -5.83816 1.37546 0
M  V30 3753 H 370.871 -6.20099 1.84626 0
M  V30 3754 N 371.003 -0.499398 -1.49478 0
M  V30 3755 C 371.966 0.268838 -2.27618 0
M  V30 3756 C 372.966 0.895383 -1.33565 0
M  V30 3757 O 374.156 0.760164 -1.56739 0
M  V30 3758 C 371.288 1.38559 -3.11471 0
M  V30 3759 H 372.481 -0.416812 -2.96989 0
M  V30 3760 H 370.034 -0.254313 -1.54217 0
M  V30 3761 H 370.769 2.10544 -2.46661 0
M  V30 3762 H 370.554 0.941797 -3.80621 0
M  V30 3763 H 372.044 1.92678 -3.70493 0
M  V30 3764 N 372.481 1.55866 -0.233164 0
M  V30 3765 C 373.711 2.02704 0.399325 0
M  V30 3766 C 374.119 1.11204 1.53069 0
M  V30 3767 O 373.462 0.116182 1.83332 0
M  V30 3768 C 373.524 3.45844 0.981429 0
M  V30 3769 C 373.188 4.56997 -0.0159561 0
M  V30 3770 C 374.185 5.13384 -0.820552 0
M  V30 3771 C 371.87 5.0211 -0.138072 0
M  V30 3772 C 373.864 6.13365 -1.73386 0
M  V30 3773 C 371.551 6.01926 -1.0549 0
M  V30 3774 C 372.549 6.57431 -1.85132 0
M  V30 3775 O 372.237 7.55302 -2.75272 0
M  V30 3776 H 371.969 0.668459 0.100692 0
M  V30 3777 H 374.523 2.02387 -0.35052 0
M  V30 3778 H 372.753 3.43267 1.78058 0
M  V30 3779 H 374.442 3.76262 1.52255 0
M  V30 3780 H 375.208 4.79372 -0.736721 0
M  V30 3781 H 371.087 4.5858 0.471737 0
M  V30 3782 H 374.631 6.56614 -2.35592 0
M  V30 3783 H 370.528 6.35359 -1.1397 0
M  V30 3784 H 371.296 7.72867 -2.69477 0
M  V30 3785 N 373.959 -0.0401083 1.57549 0
M  V30 3786 C 375.207 -0.731677 1.8839 0
M  V30 3787 C 375.528 -1.76481 0.829425 0
M  V30 3788 O 374.798 -1.95411 -0.1383 0
M  V30 3789 H 373.378 -0.273225 0.695239 0
M  V30 3790 H 376.04 -0.00867725 1.94898 0
M  V30 3791 H 375.136 -1.22816 2.86919 0
M  V30 3792 N 375.437 -1.54477 -0.31217 0
M  V30 3793 C 376.667 -1.76948 -1.06645 0
M  V30 3794 C 377.075 -0.523593 -1.81811 0
M  V30 3795 O 376.418 0.51578 -1.76311 0
M  V30 3796 C 376.48 -2.91668 -2.10166 0
M  V30 3797 C 376.144 -4.30165 -1.54296 0
M  V30 3798 C 377.141 -5.10603 -0.978793 0
M  V30 3799 C 374.826 -4.76738 -1.58196 0
M  V30 3800 C 376.82 -6.3573 -0.461048 0
M  V30 3801 C 374.507 -6.01831 -1.06034 0
M  V30 3802 C 375.505 -6.81161 -0.500844 0
M  V30 3803 O 375.193 -8.03899 0.0128958 0
M  V30 3804 H 374.925 -0.594088 -0.322546 0
M  V30 3805 H 377.479 -2.02213 -0.360441 0
M  V30 3806 H 375.709 -2.62001 -2.84416 0
M  V30 3807 H 377.398 -3.01817 -2.71406 0
M  V30 3808 H 378.164 -4.75771 -0.941651 0
M  V30 3809 H 374.043 -4.15027 -2.00683 0
M  V30 3810 H 377.587 -6.97596 -0.0236894 0
M  V30 3811 H 373.484 -6.36152 -1.09459 0
M  V30 3812 H 374.252 -8.18437 -0.101457 0
M  V30 3813 N 376.915 0.57481 -1.46744 0
M  V30 3814 C 378.163 1.33009 -1.52161 0
M  V30 3815 C 378.484 1.94185 -0.178092 0
M  V30 3816 O 377.754 1.7899 0.796196 0
M  V30 3817 H 376.334 0.493873 -0.560445 0
M  V30 3818 H 378.996 0.672589 -1.82927 0
M  V30 3819 H 378.092 2.13273 -2.27862 0
M  V30 3820 N 378.394 1.34581 0.820102 0
M  V30 3821 C 379.342 1.26401 1.95258 0
M  V30 3822 C 380.336 0.161553 1.68628 0
M  V30 3823 O 381.542 0.326703 1.7701 0
M  V30 3824 H 377.917 0.392749 0.64129 0
M  V30 3825 H 379.888 2.22105 1.99279 0
M  V30 3826 C 378.637 1.03919 3.31807 0
M  V30 3827 H 377.96 1.87984 3.52848 0
M  V30 3828 H 379.4 1.02232 4.11491 0
M  V30 3829 C 377.859 -0.257433 3.35915 0
M  V30 3830 O 378.389 -1.25784 3.81499 0
M  V30 3831 N 376.595 -0.291524 2.89134 0
M  V30 3832 H 376.142 0.523161 2.52232 0
M  V30 3833 H 376.1 -1.15883 2.92264 0
M  V30 3834 N 379.872 -1.04064 1.18357 0
M  V30 3835 C 381.118 -1.77528 0.980397 0
M  V30 3836 C 381.451 -1.87948 -0.48879 0
M  V30 3837 O 380.726 -1.3876 -1.36293 0
M  V30 3838 C 381.009 -3.20797 1.63588 0
M  V30 3839 C 380.862 -3.1832 3.17793 0
M  V30 3840 C 382.181 -4.18911 1.34914 0
M  V30 3841 H 379.3 -0.644443 0.357578 0
M  V30 3842 H 381.942 -1.2156 1.46024 0
M  V30 3843 H 380.092 -3.68586 1.22788 0
M  V30 3844 H 381.764 -2.78521 3.67728 0
M  V30 3845 H 380.007 -2.56351 3.49952 0
M  V30 3846 H 380.678 -4.19489 3.58794 0
M  V30 3847 H 383.154 -3.7967 1.70265 0
M  V30 3848 H 382.03 -5.17374 1.83346 0
M  V30 3849 H 382.291 -4.41262 0.272027 0
M  V30 3850 N 381.35 -0.985608 -1.22978 0
M  V30 3851 C 382.578 -0.675582 -1.95559 0
M  V30 3852 C 382.993 0.758413 -1.72897 0
M  V30 3853 O 382.35 1.51094 -1.02357 0
M  V30 3854 C 382.401 -0.96293 -3.48439 0
M  V30 3855 O 382.122 -2.34057 -3.70336 0
M  V30 3856 C 383.623 -0.669585 -4.38214 0
M  V30 3857 H 380.843 -0.250523 -0.622478 0
M  V30 3858 H 383.387 -1.3184 -1.56328 0
M  V30 3859 H 381.542 -0.366033 -3.85667 0
M  V30 3860 H 381.956 -2.43424 -4.64591 0
M  V30 3861 H 383.43 -0.920967 -5.44263 0
M  V30 3862 H 383.907 0.396383 -4.37408 0
M  V30 3863 H 384.513 -1.2472 -4.06602 0
M  V30 3864 N 382.828 1.3818 -0.7579 0
M  V30 3865 C 384.105 1.94106 -0.241306 0
M  V30 3866 C 384.485 1.69282 1.26122 0
M  V30 3867 O 383.833 1.03378 2.03777 0
M  V30 3868 C 384.043 3.43809 -0.59967 0
M  V30 3869 C 385.391 4.20868 -0.561717 0
M  V30 3870 O 386.415 3.5211 -0.538222 0
M  V30 3871 O 385.274 5.43451 -0.576478 0
M  V30 3872 H 382.368 0.825376 -0.0518042 0
M  V30 3873 H 384.914 1.47548 -0.838315 0
M  V30 3874 H 383.686 3.55403 -1.6372 0
M  V30 3875 H 383.309 3.97592 0.0251197 0
M  V30 3876 N 384.306 0.507319 1.49211 0
M  V30 3877 C 385.534 -0.0315749 2.06876 0
M  V30 3878 C 385.949 -1.30241 1.36685 0
M  V30 3879 O 385.306 -1.76937 0.447152 0
M  V30 3880 C 385.357 -0.282627 3.60393 0
M  V30 3881 O 385.078 0.937835 4.27944 0
M  V30 3882 C 386.579 -0.864453 4.3479 0
M  V30 3883 H 383.799 0.0233048 0.670595 0
M  V30 3884 H 386.343 0.706484 1.91909 0
M  V30 3885 H 384.498 -0.97068 3.75042 0
M  V30 3886 H 384.912 0.704567 5.19746 0
M  V30 3887 H 386.386 -0.989664 5.43056 0
M  V30 3888 H 386.863 -1.86382 3.97692 0
M  V30 3889 H 387.469 -0.213672 4.24763 0
M  V30 3890 N 385.784 -1.5574 0.241426 0
M  V30 3891 C 386.747 -2.19877 -0.647063 0
M  V30 3892 C 387.747 -1.16642 -1.10686 0
M  V30 3893 O 388.937 -1.41757 -1.01245 0
M  V30 3894 C 386.069 -2.83797 -1.88871 0
M  V30 3895 H 387.262 -2.99772 -0.087574 0
M  V30 3896 H 384.815 -1.56298 -0.00813574 0
M  V30 3897 H 385.55 -2.07824 -2.48957 0
M  V30 3898 H 385.335 -3.59414 -1.56728 0
M  V30 3899 H 386.825 -3.32898 -2.52129 0
M  V30 3900 N 387.262 0.0317525 -1.57568 0
M  V30 3901 C 388.492 0.733884 -1.93126 0
M  V30 3902 C 388.9 1.69563 -0.839352 0
M  V30 3903 O 388.243 1.82681 0.193175 0
M  V30 3904 C 388.305 1.54798 -3.24465 0
M  V30 3905 C 387.969 0.751304 -4.50782 0
M  V30 3906 C 388.966 0.0527632 -5.19873 0
M  V30 3907 C 386.651 0.706639 -4.97305 0
M  V30 3908 C 388.645 -0.679774 -6.33765 0
M  V30 3909 C 386.332 -0.0296449 -6.11093 0
M  V30 3910 C 387.33 -0.721614 -6.79177 0
M  V30 3911 O 387.018 -1.44595 -7.90789 0
M  V30 3912 H 386.75 0.211459 -0.642076 0
M  V30 3913 H 389.304 -0.00585615 -2.05399 0
M  V30 3914 H 387.534 2.33147 -3.08512 0
M  V30 3915 H 389.223 2.13247 -3.4537 0
M  V30 3916 H 389.989 0.0783188 -4.84937 0
M  V30 3917 H 385.868 1.23474 -4.44157 0
M  V30 3918 H 389.412 -1.22042 -6.86842 0
M  V30 3919 H 385.309 -0.0571331 -6.45475 0
M  V30 3920 H 386.077 -1.35935 -8.07133 0
M  V30 3921 N 388.74 1.54641 0.303973 0
M  V30 3922 C 389.687 1.85386 1.37479 0
M  V30 3923 C 390.657 0.702528 1.50512 0
M  V30 3924 O 391.842 0.950867 1.65418 0
M  V30 3925 C 388.982 2.10413 2.73533 0
M  V30 3926 C 388.095 3.38049 2.68974 0
M  V30 3927 C 387.23 3.52934 3.97002 0
M  V30 3928 C 386.269 4.74373 3.86829 0
M  V30 3929 N 385.406 4.8608 5.06627 0
M  V30 3930 H 390.246 2.76732 1.1056 0
M  V30 3931 H 387.783 1.37034 0.534805 0
M  V30 3932 H 389.741 2.22919 3.52652 0
M  V30 3933 H 388.371 1.22338 2.98719 0
M  V30 3934 H 387.423 3.3418 1.81736 0
M  V30 3935 H 388.735 4.27288 2.57346 0
M  V30 3936 H 387.889 3.65088 4.84557 0
M  V30 3937 H 386.628 2.61824 4.1146 0
M  V30 3938 H 385.633 4.62255 2.97658 0
M  V30 3939 H 386.858 5.66888 3.73918 0
M  V30 3940 H 384.804 3.97891 5.21554 0
M  V30 3941 H 384.721 5.69315 4.9741 0
M  V30 3942 H 385.989 5.02587 5.95841 0
M  V30 3943 N 390.218 -0.567019 1.47046 0
M  V30 3944 C 391.181 -1.65696 1.58359 0
M  V30 3945 C 392.181 -1.54097 0.459441 0
M  V30 3946 O 393.371 -1.58432 0.724225 0
M  V30 3947 C 390.503 -3.05197 1.51879 0
M  V30 3948 H 391.696 -1.57019 2.5551 0
M  V30 3949 H 389.249 -0.786148 1.3509 0
M  V30 3950 H 389.984 -3.19417 0.560673 0
M  V30 3951 H 389.769 -3.15025 2.33455 0
M  V30 3952 H 391.259 -3.84511 1.62913 0
M  V30 3953 N 391.696 -1.35014 -0.812953 0
M  V30 3954 C 392.626 -1.30069 -1.93919 0
M  V30 3955 C 393.607 -0.176275 -1.69184 0
M  V30 3956 O 394.792 -0.370227 -1.90638 0
M  V30 3957 C 391.922 -1.06547 -3.30552 0
M  V30 3958 C 390.876 -2.15561 -3.69753 0
M  V30 3959 C 390.202 -1.77214 -5.04479 0
M  V30 3960 C 391.502 -3.57476 -3.808 0
M  V30 3961 H 393.196 -2.24303 -1.98314 0
M  V30 3962 H 390.742 -1.07977 -0.952736 0
M  V30 3963 H 392.695 -1.01729 -4.08937 0
M  V30 3964 H 391.419 -0.0875719 -3.26483 0
M  V30 3965 H 390.078 -2.19466 -2.9365 0
M  V30 3966 H 389.726 -0.780589 -4.96906 0
M  V30 3967 H 389.426 -2.50184 -5.31678 0
M  V30 3968 H 390.95 -1.7391 -5.8531 0
M  V30 3969 H 392.364 -3.55929 -4.4943 0
M  V30 3970 H 390.761 -4.29152 -4.19462 0
M  V30 3971 H 391.831 -3.94091 -2.82525 0
M  V30 3972 N 393.175 1.03435 -1.18907 0
M  V30 3973 C 394.138 2.09756 -0.923844 0
M  V30 3974 C 395.138 1.60528 0.093416 0
M  V30 3975 O 396.328 1.73631 -0.140727 0
M  V30 3976 C 393.46 3.38692 -0.387354 0
M  V30 3977 H 394.653 2.34719 -1.86674 0
M  V30 3978 H 392.206 1.19959 -1.00197 0
M  V30 3979 H 392.941 3.19396 0.561845 0
M  V30 3980 H 392.726 3.75742 -1.12074 0
M  V30 3981 H 394.216 4.17016 -0.220694 0
M  V30 3982 N 394.653 0.992116 1.22453 0
M  V30 3983 C 395.585 0.500024 2.23679 0
M  V30 3984 C 396.598 -0.404463 1.57696 0
M  V30 3985 O 397.787 -0.206722 1.77299 0
M  V30 3986 C 394.887 -0.294711 3.37616 0
M  V30 3987 C 394.06 0.605723 4.33186 0
M  V30 3988 C 393.119 -0.13717 5.26021 0
M  V30 3989 O 392.145 0.477164 5.67196 0
M  V30 3990 N 393.347 -1.4197 5.62872 0
M  V30 3991 H 396.112 1.37045 2.66531 0
M  V30 3992 H 393.673 0.866741 1.36745 0
M  V30 3993 H 395.665 -0.800329 3.96707 0
M  V30 3994 H 394.235 -1.06623 2.93854 0
M  V30 3995 H 393.455 1.29202 3.72425 0
M  V30 3996 H 394.743 1.21896 4.93983 0
M  V30 3997 H 394.141 -1.94015 5.31389 0
M  V30 3998 H 392.698 -1.87052 6.24383 0
M  V30 3999 N 396.131 -1.37776 0.765217 0
M  V30 4000 C 397.079 -2.32209 0.134798 0
M  V30 4001 C 398.073 -1.54607 -0.692315 0
M  V30 4002 O 399.279 -1.70052 -0.590109 0
M  V30 4003 H 395.654 -0.751591 0.0248005 0
M  V30 4004 H 397.625 -2.8297 0.947119 0
M  V30 4005 C 396.374 -3.39841 -0.735063 0
M  V30 4006 H 395.697 -3.99654 -0.107991 0
M  V30 4007 H 397.137 -4.08296 -1.14326 0
M  V30 4008 C 395.596 -2.79378 -1.88281 0
M  V30 4009 O 396.126 -2.69608 -2.97783 0
M  V30 4010 N 394.332 -2.37016 -1.68142 0
M  V30 4011 H 393.879 -2.45162 -0.790772 0
M  V30 4012 H 393.837 -1.96905 -2.45104 0
M  V30 4013 N 397.609 -0.515225 -1.4894 0
M  V30 4014 C 398.857 0.0241671 -2.02086 0
M  V30 4015 C 399.178 1.3616 -1.3959 0
M  V30 4016 O 398.448 1.87841 -0.556121 0
M  V30 4017 H 397.028 0.0119203 -0.746905 0
M  V30 4018 H 399.69 -0.675702 -1.82812 0
M  V30 4019 H 398.786 0.143385 -3.1177 0
M  V30 4020 N 399.087 1.5561 -0.249682 0
M  V30 4021 C 400.05 2.20217 0.635394 0
M  V30 4022 C 401.05 1.17227 1.10066 0
M  V30 4023 O 402.24 1.42292 1.00492 0
M  V30 4024 C 399.372 2.84794 1.87363 0
M  V30 4025 H 400.565 2.99814 0.0716752 0
M  V30 4026 H 398.118 1.563 -0.000153234 0
M  V30 4027 H 398.853 2.09142 2.47851 0
M  V30 4028 H 398.638 3.60241 1.5482 0
M  V30 4029 H 400.128 3.3423 2.5036 0
M  V30 4030 N 400.565 -0.0233959 1.57583 0
M  V30 4031 C 401.512 -1.02224 2.06927 0
M  V30 4032 C 402.482 -1.35575 0.959617 0
M  V30 4033 O 403.667 -1.45815 1.23055 0
M  V30 4034 C 400.807 -2.31636 2.5581 0
M  V30 4035 C 399.92 -2.04394 3.80588 0
M  V30 4036 C 399.055 -3.27717 4.18061 0
M  V30 4037 C 398.094 -2.96056 5.3574 0
M  V30 4038 N 397.231 -4.11847 5.68618 0
M  V30 4039 H 402.071 -0.594504 2.9201 0
M  V30 4040 H 399.608 -0.281921 1.44373 0
M  V30 4041 H 401.566 -3.07258 2.82221 0
M  V30 4042 H 400.196 -2.72122 1.73636 0
M  V30 4043 H 399.248 -1.19244 3.61227 0
M  V30 4044 H 400.56 -1.77042 4.66323 0
M  V30 4045 H 399.714 -4.11702 4.4563 0
M  V30 4046 H 398.453 -3.58188 3.30988 0
M  V30 4047 H 397.458 -2.10474 5.07918 0
M  V30 4048 H 398.683 -2.66857 6.24471 0
M  V30 4049 H 396.629 -4.42258 4.84504 0
M  V30 4050 H 396.546 -3.87938 6.48876 0
M  V30 4051 H 397.814 -4.96689 6.00766 0
M  V30 4052 N 402.043 -1.548 -0.295768 0
M  V30 4053 C 403.006 -1.85363 -1.34808 0
M  V30 4054 C 404.006 -0.726817 -1.43436 0
M  V30 4055 O 405.196 -0.995088 -1.42981 0
M  V30 4056 C 402.328 -2.03859 -2.73229 0
M  V30 4057 H 403.521 -2.7941 -1.08949 0
M  V30 4058 H 401.074 -1.46942 -0.532702 0
M  V30 4059 H 401.809 -1.12117 -3.04303 0
M  V30 4060 H 401.594 -2.8588 -2.68356 0
M  V30 4061 H 403.084 -2.28857 -3.49305 0
M  V30 4062 N 403.521 0.559213 -1.47345 0
M  V30 4063 C 404.451 1.67622 -1.62558 0
M  V30 4064 C 405.432 1.63331 -0.475087 0
M  V30 4065 O 406.617 1.80983 -0.704182 0
M  V30 4066 C 403.747 3.0626 -1.63774 0
M  V30 4067 C 402.701 3.25397 -2.7803 0
M  V30 4068 C 402.027 4.64801 -2.64318 0
M  V30 4069 C 403.327 3.10965 -4.19641 0
M  V30 4070 H 405.021 1.55146 -2.56067 0
M  V30 4071 H 402.567 0.744961 -1.23233 0
M  V30 4072 H 404.52 3.84247 -1.73008 0
M  V30 4073 H 403.244 3.1969 -0.66825 0
M  V30 4074 H 401.903 2.49817 -2.68304 0
M  V30 4075 H 401.551 4.75028 -1.65401 0
M  V30 4076 H 401.251 4.78555 -3.40968 0
M  V30 4077 H 402.775 5.44926 -2.75478 0
M  V30 4078 H 404.189 3.78772 -4.30354 0
M  V30 4079 H 402.586 3.36229 -4.97062 0
M  V30 4080 H 403.656 2.07736 -4.38148 0
M  V30 4081 N 404.999 1.35443 0.805782 0
M  V30 4082 C 406.248 1.28097 1.55801 0
M  V30 4083 C 406.561 -0.142428 1.95081 0
M  V30 4084 O 407.767 -0.33817 2.69386 0
M  V30 4085 C 406.223 2.24653 2.81174 0
M  V30 4086 C 405.831 3.72342 2.49129 0
M  V30 4087 C 407.575 2.2625 3.59181 0
M  V30 4088 C 405.482 4.60719 3.70799 0
M  V30 4089 H 404.412 0.475937 0.584808 0
M  V30 4090 H 407.063 1.60712 0.885661 0
M  V30 4091 H 405.445 1.85011 3.50124 0
M  V30 4092 H 406.619 4.20624 1.88181 0
M  V30 4093 H 404.934 3.73361 1.84366 0
M  V30 4094 H 407.531 2.89495 4.49552 0
M  V30 4095 H 407.874 1.26647 3.96568 0
M  V30 4096 H 408.407 2.64426 2.97193 0
M  V30 4097 H 405.146 5.61324 3.3852 0
M  V30 4098 H 404.666 4.17163 4.3097 0
M  V30 4099 H 406.345 4.76182 4.38018 0
M  V30 4100 N 406.477 -1.02803 1.19454 0
M  V30 4101 C 407.427 -2.0945 0.900827 0
M  V30 4102 C 408.411 -1.60335 -0.134715 0
M  V30 4103 O 409.603 -1.76857 0.0710924 0
M  V30 4104 C 406.732 -3.4044 0.442229 0
M  V30 4105 C 405.818 -3.96286 1.51056 0
M  V30 4106 N 406.209 -4.25785 2.73021 0
M  V30 4107 C 404.507 -4.24307 1.37404 0
M  V30 4108 C 405.208 -4.70654 3.41848 0
M  V30 4109 N 404.184 -4.72238 2.69243 0
M  V30 4110 H 407.986 -2.3015 1.82779 0
M  V30 4111 H 405.5 -1.20672 1.08683 0
M  V30 4112 H 407.497 -4.16354 0.21326 0
M  V30 4113 H 406.157 -3.21159 -0.478238 0
M  V30 4114 H 407.168 -4.15041 3.09776 0
M  V30 4115 H 403.845 -4.14285 0.517103 0
M  V30 4116 H 405.235 -5.02392 4.46152 0
M  V30 4117 N 407.956 -0.998596 -1.21925 0
M  V30 4118 C 408.919 -0.558679 -2.22287 0
M  V30 4119 C 409.919 0.361525 -1.56683 0
M  V30 4120 O 411.109 0.152695 -1.73529 0
M  V30 4121 C 408.241 0.18661 -3.40389 0
M  V30 4122 H 409.434 -1.4463 -2.62721 0
M  V30 4123 H 406.987 -0.786413 -1.35075 0
M  V30 4124 H 407.722 1.08996 -3.05435 0
M  V30 4125 H 407.507 -0.474188 -3.89222 0
M  V30 4126 H 408.997 0.482367 -4.14805 0
M  V30 4127 N 409.434 1.37368 -0.772513 0
M  V30 4128 C 410.682 1.99279 -0.336516 0
M  V30 4129 C 411.003 1.6163 1.09091 0
M  V30 4130 O 410.273 0.882109 1.74916 0
M  V30 4131 H 408.853 0.737063 -0.121435 0
M  V30 4132 H 411.515 1.67836 -0.990809 0
M  V30 4133 H 410.611 3.09332 -0.414763 0
M  V30 4134 N 410.912 0.523116 1.48665 0
M  V30 4135 C 412.14 -0.0096312 2.06898 0
M  V30 4136 C 412.555 -1.28784 1.38059 0
M  V30 4137 O 411.912 -1.76453 0.465893 0
M  V30 4138 C 411.963 -0.244386 3.60673 0
M  V30 4139 O 411.684 0.983172 4.26925 0
M  V30 4140 C 413.185 -0.818289 4.35682 0
M  V30 4141 H 410.405 0.0304161 0.67031 0
M  V30 4142 H 412.949 0.726799 1.91149 0
M  V30 4143 H 411.104 -0.930847 3.76051 0
M  V30 4144 H 411.518 0.759653 5.1897 0
M  V30 4145 H 412.992 -0.93201 5.44075 0
M  V30 4146 H 413.469 -1.82153 3.99646 0
M  V30 4147 H 414.075 -0.168609 4.24966 0
M  V30 4148 N 412.39 -1.55475 0.257931 0
M  V30 4149 C 413.638 -1.98813 -0.363009 0
M  V30 4150 C 413.959 -1.14757 -1.57657 0
M  V30 4151 O 413.229 -0.232956 -1.9451 0
M  V30 4152 H 411.809 -0.734308 -0.137113 0
M  V30 4153 H 414.471 -1.9156 0.359281 0
M  V30 4154 H 413.567 -3.04941 -0.664634 0
M  V30 4155 N 413.868 0.0150385 -1.57593 0
M  V30 4156 C 414.816 1.02958 -2.08572 0
M  V30 4157 C 415.81 1.36554 -1.00246 0
M  V30 4158 O 417.016 1.35295 -1.18724 0
M  V30 4159 H 413.391 0.349619 -0.665786 0
M  V30 4160 H 415.362 0.573932 -2.92829 0
M  V30 4161 C 414.111 2.31752 -2.59203 0
M  V30 4162 H 413.434 2.06765 -3.42182 0
M  V30 4163 H 414.874 3.01053 -2.98568 0
M  V30 4164 C 413.333 3.01692 -1.49945 0
M  V30 4165 O 413.863 3.92083 -0.873704 0
M  V30 4166 N 412.069 2.6326 -1.23056 0
M  V30 4167 H 411.616 1.89838 -1.74125 0
M  V30 4168 H 411.574 3.10372 -0.501685 0
M  V30 4169 N 415.346 1.54954 0.287554 0
M  V30 4170 C 416.594 1.74528 1.01904 0
M  V30 4171 C 416.915 0.541349 1.87335 0
M  V30 4172 O 416.185 -0.444108 1.908 0
M  V30 4173 H 414.765 0.643576 0.379235 0
M  V30 4174 H 417.427 1.92333 0.315294 0
M  V30 4175 H 416.523 2.64015 1.6644 0
M  V30 4176 N 416.824 -0.551391 1.4764 0
M  V30 4177 C 418.049 -1.33837 1.58437 0
M  V30 4178 C 418.474 -1.866 0.237063 0
M  V30 4179 O 417.832 -1.6328 -0.787994 0
M  V30 4180 C 417.88 -2.48014 2.61766 0
M  V30 4181 O 416.984 -3.50419 2.1744 0
M  V30 4182 H 416.325 -0.397299 0.532024 0
M  V30 4183 H 418.855 -0.665759 1.93465 0
M  V30 4184 H 418.865 -2.94503 2.82369 0
M  V30 4185 H 417.54 -2.08969 3.5959 0
M  V30 4186 H 416.117 -3.10196 2.06961 0
M  V30 4187 N 418.302 -1.35869 -0.798587 0
M  V30 4188 C 419.548 -1.2978 -1.55836 0
M  V30 4189 C 419.881 0.125322 -1.93795 0
M  V30 4190 O 419.156 1.07658 -1.61987 0
M  V30 4191 C 419.439 -2.21188 -2.84162 0
M  V30 4192 C 419.292 -3.72155 -2.52628 0
M  V30 4193 C 420.611 -2.11545 -3.85923 0
M  V30 4194 H 417.73 -0.472769 -0.565383 0
M  V30 4195 H 420.372 -1.66341 -0.918192 0
M  V30 4196 H 418.522 -1.90139 -3.38791 0
M  V30 4197 H 420.194 -4.13682 -2.04121 0
M  V30 4198 H 418.437 -3.92042 -1.85704 0
M  V30 4199 H 419.108 -4.31511 -3.44242 0
M  V30 4200 H 421.584 -2.38855 -3.40716 0
M  V30 4201 H 420.46 -2.77688 -4.73477 0
M  V30 4202 H 420.721 -1.09987 -4.282 0
M  V30 4203 N 419.78 1.02168 -1.19998 0
M  V30 4204 C 421.005 1.79833 -1.03319 0
M  V30 4205 C 421.43 1.83504 0.413281 0
M  V30 4206 O 420.788 1.26635 1.29743 0
M  V30 4207 C 420.836 3.22396 -1.61533 0
M  V30 4208 O 419.94 4.03555 -0.849519 0
M  V30 4209 H 419.281 0.554872 -0.364709 0
M  V30 4210 H 421.811 1.28542 -1.59179 0
M  V30 4211 H 421.821 3.73124 -1.65054 0
M  V30 4212 H 420.496 3.19039 -2.66809 0
M  V30 4213 H 419.073 3.62169 -0.888129 0
M  V30 4214 N 421.258 1.00505 1.21394 0
M  V30 4215 C 422.483 0.706367 1.95001 0
M  V30 4216 C 422.908 -0.72463 1.73582 0
M  V30 4217 O 422.266 -1.49702 1.0227 0
M  V30 4218 C 422.314 1.03299 3.45487 0
M  V30 4219 O 421.418 0.138275 4.12168 0
M  V30 4220 H 420.759 0.263175 0.609619 0
M  V30 4221 H 423.289 1.34531 1.54151 0
M  V30 4222 H 423.299 0.979872 3.96059 0
M  V30 4223 H 421.974 2.07567 3.60401 0
M  V30 4224 H 420.551 0.247928 3.72075 0
M  V30 4225 N 422.737 -1.36956 0.779787 0
M  V30 4226 C 424.153 -1.52817 0.460342 0
M  V30 4227 C 424.353 -1.7361 -1.02283 0
M  V30 4228 O 423.409 -1.76207 -1.80852 0
M  V30 4229 C 424.722 -2.71983 1.28241 0
M  V30 4230 C 426.27 -2.85849 1.27512 0
M  V30 4231 C 426.745 -4.08008 2.08072 0
M  V30 4232 N 428.236 -4.15135 2.05467 0
M  V30 4233 C 428.971 -5.08711 2.64577 0
M  V30 4234 N 428.467 -6.07792 3.32506 0
M  V30 4235 N 430.26 -5.01254 2.54363 0
M  V30 4236 H 422.411 -1.21713 1.74068 0
M  V30 4237 H 424.674 -0.593294 0.739396 0
M  V30 4238 H 424.38 -2.63109 2.33381 0
M  V30 4239 H 424.254 -3.65882 0.917088 0
M  V30 4240 H 426.641 -2.94189 0.231686 0
M  V30 4241 H 426.722 -1.92886 1.68014 0
M  V30 4242 H 426.366 -4.00429 3.12441 0
M  V30 4243 H 426.296 -5.001 1.64947 0
M  V30 4244 H 428.787 -3.44189 1.5602 0
M  V30 4245 H 429.1 -6.75739 3.74963 0
M  V30 4246 H 427.445 -6.08047 3.36606 0
M  V30 4247 H 430.636 -4.22795 2.00902 0
M  V30 4248 H 430.809 -5.73995 3.00722 0
M  V30 4249 N 424.215 -0.530993 -1.48385 0
M  V30 4250 C 425.461 0.00274135 -2.028 0
M  V30 4251 C 425.794 1.33838 -1.40716 0
M  V30 4252 O 425.069 1.86465 -0.553277 0
M  V30 4253 C 425.352 0.123676 -3.59888 0
M  V30 4254 C 425.205 -1.2372 -4.3245 0
M  V30 4255 C 426.524 0.849967 -4.31814 0
M  V30 4256 H 423.643 -0.000477758 -0.737 0
M  V30 4257 H 426.285 -0.688217 -1.77098 0
M  V30 4258 H 424.435 0.712157 -3.81917 0
M  V30 4259 H 426.107 -1.86687 -4.21836 0
M  V30 4260 H 424.35 -1.81882 -3.93829 0
M  V30 4261 H 425.021 -1.10557 -5.40815 0
M  V30 4262 H 427.497 0.350572 -4.14621 0
M  V30 4263 H 426.373 0.903486 -5.41413 0
M  V30 4264 H 426.634 1.90047 -3.99167 0
M  V30 4265 N 425.693 1.55336 -0.266172 0
M  V30 4266 C 426.939 1.99692 0.353681 0
M  V30 4267 C 427.272 1.1543 1.56172 0
M  V30 4268 O 426.547 0.222218 1.93226 0
M  V30 4269 C 426.83 3.52316 0.74466 0
M  V30 4270 C 426.683 4.47337 -0.470101 0
M  V30 4271 C 428.002 4.10588 1.58447 0
M  V30 4272 H 425.121 0.725961 0.12708 0
M  V30 4273 H 427.763 1.86336 -0.371333 0
M  V30 4274 H 425.913 3.63829 1.36239 0
M  V30 4275 H 427.585 4.4778 -1.10864 0
M  V30 4276 H 425.828 4.19364 -1.10978 0
M  V30 4277 H 426.499 5.51788 -0.15291 0
M  V30 4278 H 428.975 4.02297 1.06286 0
M  V30 4279 H 427.851 5.17607 1.82686 0
M  V30 4280 H 428.112 3.60253 2.56262 0
M  V30 4281 N 427.171 -0.0066808 1.57599 0
M  V30 4282 C 428.582 -0.550379 1.78403 0
M  V30 4283 C 428.933 -1.74339 0.900014 0
M  V30 4284 O 428.058 -2.16166 0.100713 0
M  V30 4285 C 428.653 -1.00523 3.23544 0
M  V30 4286 C 427.212 -1.49428 3.45468 0
M  V30 4287 C 426.359 -0.442444 2.73748 0
M  V30 4288 H 429.31 0.219508 1.57175 0
M  V30 4289 H 429.331 -1.87157 3.31289 0
M  V30 4290 H 428.843 -0.136735 3.87859 0
M  V30 4291 H 426.944 -2.3839 2.86358 0
M  V30 4292 H 427.057 -1.52635 4.54136 0
M  V30 4293 H 425.421 -0.902578 2.38171 0
M  V30 4294 H 426.204 0.416973 3.40758 0
M  V30 4295 N 428.649 -1.55105 -0.279332 0
M  V30 4296 C 429.612 -1.86783 -1.32834 0
M  V30 4297 C 430.612 -0.74199 -1.42657 0
M  V30 4298 O 431.802 -1.0102 -1.41918 0
M  V30 4299 C 428.934 -2.06746 -2.71052 0
M  V30 4300 H 430.127 -2.8055 -1.05979 0
M  V30 4301 H 427.68 -1.47499 -0.517087 0
M  V30 4302 H 428.415 -1.15339 -3.03097 0
M  V30 4303 H 428.2 -2.88711 -2.65309 0
M  V30 4304 H 429.69 -2.32549 -3.46858 0
M  V30 4305 N 430.127 0.543554 -1.4793 0
M  V30 4306 C 431.057 1.65888 -1.64327 0
M  V30 4307 C 432.038 1.62818 -0.492383 0
M  V30 4308 O 433.223 1.80226 -0.723338 0
M  V30 4309 C 430.353 3.04506 -1.67013 0
M  V30 4310 C 429.307 3.2243 -2.81466 0
M  V30 4311 C 428.633 4.61972 -2.69233 0
M  V30 4312 C 429.933 3.06496 -4.22915 0
M  V30 4313 H 431.627 1.52421 -2.57698 0
M  V30 4314 H 429.173 0.731849 -1.24016 0
M  V30 4315 H 431.126 3.82391 -1.77074 0
M  V30 4316 H 429.85 3.18964 -0.70212 0
M  V30 4317 H 428.509 2.46957 -2.70938 0
M  V30 4318 H 428.157 4.73247 -1.7043 0
M  V30 4319 H 427.857 4.74911 -3.46025 0
M  V30 4320 H 429.381 5.41974 -2.81242 0
M  V30 4321 H 430.795 3.74186 -4.34348 0
M  V30 4322 H 429.192 3.30938 -5.006 0
M  V30 4323 H 430.262 2.03077 -4.40327 0
M  V30 4324 N 431.605 1.3629 0.791371 0
M  V30 4325 C 432.537 1.26321 1.91248 0
M  V30 4326 C 433.55 0.18313 1.61767 0
M  V30 4327 O 434.739 0.437682 1.73051 0
M  V30 4328 C 431.839 0.925901 3.26007 0
M  V30 4329 C 431.012 2.10746 3.83281 0
M  V30 4330 C 430.071 1.74352 4.96475 0
M  V30 4331 O 429.097 2.46416 5.13096 0
M  V30 4332 N 430.299 0.676058 5.7655 0
M  V30 4333 H 433.064 2.22915 2.00323 0
M  V30 4334 H 430.625 1.29659 0.969546 0
M  V30 4335 H 432.617 0.663636 3.99222 0
M  V30 4336 H 431.187 0.0491581 3.12561 0
M  V30 4337 H 430.407 2.53264 3.02077 0
M  V30 4338 H 431.695 2.8969 4.18279 0
M  V30 4339 H 431.093 0.0776467 5.65647 0
M  V30 4340 H 429.65 0.473612 6.50077 0
M  V30 4341 N 433.083 -1.0153 1.20538 0
M  V30 4342 C 433.993 -2.13557 0.971113 0
M  V30 4343 C 435.009 -1.73845 -0.0734366 0
M  V30 4344 O 436.185 -2.01075 0.114299 0
M  V30 4345 C 433.25 -3.42661 0.527639 0
M  V30 4346 C 432.311 -3.96608 1.64319 0
M  V30 4347 C 431.544 -5.1955 1.22078 0
M  V30 4348 O 431.767 -5.70329 0.0900198 0
M  V30 4349 O 430.701 -5.66681 2.02871 0
M  V30 4350 H 434.527 -2.3619 1.90913 0
M  V30 4351 H 432.112 -1.11946 0.989362 0
M  V30 4352 H 433.994 -4.20404 0.289621 0
M  V30 4353 H 432.669 -3.21441 -0.381779 0
M  V30 4354 H 431.576 -3.20139 1.93551 0
M  V30 4355 H 432.909 -4.22219 2.52966 0
M  V30 4356 N 434.561 -1.01147 -1.20859 0
M  V30 4357 C 435.491 -0.597663 -2.25722 0
M  V30 4358 C 436.472 0.384744 -1.65692 0
M  V30 4359 O 437.657 0.271303 -1.92296 0
M  V30 4360 C 434.787 0.0700149 -3.47229 0
M  V30 4361 C 433.741 -0.832843 -4.19819 0
M  V30 4362 C 433.067 -0.0312202 -5.34691 0
M  V30 4363 C 434.367 -2.1385 -4.76514 0
M  V30 4364 H 436.061 -1.47423 -2.60589 0
M  V30 4365 H 433.607 -0.710301 -1.25263 0
M  V30 4366 H 435.56 0.37103 -4.19763 0
M  V30 4367 H 434.284 0.981259 -3.11511 0
M  V30 4368 H 432.943 -1.11778 -3.49144 0
M  V30 4369 H 432.591 0.881515 -4.95215 0
M  V30 4370 H 432.291 -0.632434 -5.84187 0
M  V30 4371 H 433.815 0.26346 -6.10031 0
M  V30 4372 H 435.229 -1.9002 -5.40893 0
M  V30 4373 H 433.626 -2.69012 -5.36426 0
M  V30 4374 H 434.696 -2.80495 -3.95538 0
M  V30 4375 N 436.039 1.36541 -0.78704 0
M  V30 4376 C 437.455 1.52571 -0.46844 0
M  V30 4377 C 437.655 1.7415 1.01361 0
M  V30 4378 O 436.711 1.77163 1.79915 0
M  V30 4379 C 438.024 2.71299 -1.29682 0
M  V30 4380 C 439.572 2.85169 -1.29027 0
M  V30 4381 C 440.047 4.06898 -2.10233 0
M  V30 4382 N 441.538 4.1404 -2.07666 0
M  V30 4383 C 442.273 5.07301 -2.67271 0
M  V30 4384 N 441.769 6.06021 -3.35724 0
M  V30 4385 N 443.562 4.99898 -2.57018 0
M  V30 4386 H 435.713 1.20788 -1.74711 0
M  V30 4387 H 437.976 0.589364 -0.742532 0
M  V30 4388 H 437.682 2.61868 -2.34773 0
M  V30 4389 H 437.556 3.6539 -0.936479 0
M  V30 4390 H 439.943 2.94062 -0.247284 0
M  V30 4391 H 440.024 1.91992 -1.69035 0
M  V30 4392 H 439.668 3.98766 -3.1456 0
M  V30 4393 H 439.598 4.99218 -1.67597 0
M  V30 4394 H 442.089 3.43357 -1.57843 0
M  V30 4395 H 442.402 6.73741 -3.78541 0
M  V30 4396 H 440.747 6.06253 -3.39826 0
M  V30 4397 H 443.938 4.21724 -2.03142 0
M  V30 4398 H 444.111 5.72392 -3.03761 0
M  V30 4399 N 437.518 0.538854 1.48102 0
M  V30 4400 C 438.465 -0.219042 2.29758 0
M  V30 4401 C 439.435 -0.925562 1.37922 0
M  V30 4402 O 440.62 -0.924855 1.66886 0
M  V30 4403 C 437.76 -1.25452 3.2149 0
M  V30 4404 C 436.873 -0.555943 4.28408 0
M  V30 4405 C 436.008 -1.57512 5.0731 0
M  V30 4406 C 435.047 -0.860498 6.06021 0
M  V30 4407 N 434.184 -1.82564 6.77949 0
M  V30 4408 H 439.024 0.483449 2.94052 0
M  V30 4409 H 436.561 0.250247 1.44956 0
M  V30 4410 H 438.519 -1.86727 3.7308 0
M  V30 4411 H 437.149 -1.92528 2.591 0
M  V30 4412 H 436.201 0.170938 3.80016 0
M  V30 4413 H 437.513 0.00474616 4.988 0
M  V30 4414 H 436.667 -2.26191 5.62959 0
M  V30 4415 H 435.406 -2.16972 4.36778 0
M  V30 4416 H 434.411 -0.159686 5.49568 0
M  V30 4417 H 435.636 -0.271897 6.78555 0
M  V30 4418 H 433.582 -2.40915 6.10161 0
M  V30 4419 H 433.499 -1.31662 7.44447 0
M  V30 4420 H 434.767 -2.50414 7.38182 0
M  V30 4421 N 438.996 -1.55193 0.274407 0
M  V30 4422 C 439.944 -2.23924 -0.629362 0
M  V30 4423 C 440.938 -1.23602 -1.1584 0
M  V30 4424 O 442.144 -1.41535 -1.11211 0
M  V30 4425 H 438.519 -0.718637 -0.221507 0
M  V30 4426 H 440.49 -2.98388 -0.0268322 0
M  V30 4427 C 439.239 -2.97329 -1.80252 0
M  V30 4428 H 438.562 -3.74313 -1.40462 0
M  V30 4429 H 440.002 -3.48743 -2.41152 0
M  V30 4430 C 438.461 -2.0276 -2.69054 0
M  V30 4431 O 438.991 -1.57836 -3.69392 0
M  V30 4432 N 437.197 -1.69275 -2.36208 0
M  V30 4433 H 436.744 -2.06004 -1.54661 0
M  V30 4434 H 436.702 -1.06271 -2.95895 0
M  V30 4435 N 440.474 -0.00167713 -1.576 0
M  V30 4436 C 441.722 0.681471 -1.90264 0
M  V30 4437 C 442.043 1.7422 -0.875924 0
M  V30 4438 O 441.313 1.95709 0.0864412 0
M  V30 4439 H 439.893 0.254696 -0.702239 0
M  V30 4440 H 442.555 -0.0429996 -1.94853 0
M  V30 4441 H 441.651 1.15166 -2.90075 0
M  V30 4442 N 441.952 1.55251 0.271103 0
M  V30 4443 C 443.198 1.76207 1.00394 0
M  V30 4444 C 443.531 0.562604 1.85872 0
M  V30 4445 O 442.806 -0.439785 1.89463 0
M  V30 4446 C 443.089 3.06828 1.8849 0
M  V30 4447 C 442.942 4.37134 1.05992 0
M  V30 4448 C 444.261 3.33503 2.87165 0
M  V30 4449 H 441.38 0.641086 0.363562 0
M  V30 4450 H 444.022 1.87982 0.276189 0
M  V30 4451 H 442.172 2.96921 2.5054 0
M  V30 4452 H 443.844 4.59001 0.459978 0
M  V30 4453 H 442.087 4.32275 0.363443 0
M  V30 4454 H 442.758 5.2486 1.70955 0
M  V30 4455 H 445.234 3.43215 2.3525 0
M  V30 4456 H 444.11 4.2616 3.45946 0
M  V30 4457 H 444.371 2.53235 3.62387 0
M  V30 4458 N 443.43 -0.535701 1.48216 0
M  V30 4459 C 444.362 -1.65662 1.58394 0
M  V30 4460 C 445.375 -1.5591 0.468607 0
M  V30 4461 O 446.564 -1.62475 0.7392 0
M  V30 4462 C 443.664 -3.04276 1.4923 0
M  V30 4463 C 442.837 -3.39567 2.75705 0
M  V30 4464 C 441.896 -4.57436 2.60075 0
M  V30 4465 O 440.922 -4.60942 3.33948 0
M  V30 4466 N 442.124 -5.55259 1.69315 0
M  V30 4467 H 444.889 -1.5737 2.55058 0
M  V30 4468 H 442.45 -0.722845 1.44867 0
M  V30 4469 H 444.442 -3.80994 1.36477 0
M  V30 4470 H 443.012 -3.06677 0.605632 0
M  V30 4471 H 442.232 -2.52083 3.03064 0
M  V30 4472 H 443.52 -3.59929 3.59623 0
M  V30 4473 H 442.918 -5.552 1.08489 0
M  V30 4474 H 441.475 -6.31218 1.62504 0
M  V30 4475 N 444.908 -1.36708 -0.784132 0
M  V30 4476 C 446.157 -1.30559 -1.53744 0
M  V30 4477 C 446.47 0.111374 -1.95283 0
M  V30 4478 O 447.676 0.29527 -2.6989 0
M  V30 4479 C 446.132 -2.29098 -2.77565 0
M  V30 4480 C 445.74 -3.76258 -2.43174 0
M  V30 4481 C 447.484 -2.31936 -3.55536 0
M  V30 4482 C 445.391 -4.6656 -3.63422 0
M  V30 4483 H 444.321 -0.48518 -0.577162 0
M  V30 4484 H 446.972 -1.62101 -0.859981 0
M  V30 4485 H 445.354 -1.90557 -3.47137 0
M  V30 4486 H 446.528 -4.23565 -1.81465 0
M  V30 4487 H 444.843 -3.76246 -1.78403 0
M  V30 4488 H 447.44 -2.9661 -4.44889 0
M  V30 4489 H 447.783 -1.3294 -3.94503 0
M  V30 4490 H 448.316 -2.6912 -2.92949 0
M  V30 4491 H 445.055 -5.66638 -3.29547 0
M  V30 4492 H 444.575 -4.23966 -4.24279 0
M  V30 4493 H 446.254 -4.8309 -4.30387 0
M  V30 4494 N 446.386 1.0089 -1.21074 0
M  V30 4495 C 447.635 1.74019 -1.01981 0
M  V30 4496 C 447.948 1.90408 0.447665 0
M  V30 4497 O 449.154 2.60707 0.757906 0
M  V30 4498 C 447.61 3.13026 -1.77603 0
M  V30 4499 C 447.218 3.04623 -3.28495 0
M  V30 4500 C 448.962 3.90312 -1.66904 0
M  V30 4501 C 446.869 4.38685 -3.96623 0
M  V30 4502 H 445.799 0.652422 -0.377971 0
M  V30 4503 H 448.45 1.12755 -1.44771 0
M  V30 4504 H 446.832 3.74878 -1.27604 0
M  V30 4505 H 448.006 2.52032 -3.85767 0
M  V30 4506 H 446.321 2.40827 -3.39693 0
M  V30 4507 H 448.918 4.8951 -2.15138 0
M  V30 4508 H 449.261 4.11558 -0.62658 0
M  V30 4509 H 449.794 3.35104 -2.14359 0
M  V30 4510 H 446.533 4.22641 -5.01054 0
M  V30 4511 H 446.053 4.91252 -3.4414 0
M  V30 4512 H 447.732 5.075 -4.01314 0
M  V30 4513 N 447.864 1.01787 1.20321 0
M  V30 4514 C 449.28 0.732951 1.41774 0
M  V30 4515 C 449.48 -0.686883 1.89431 0
M  V30 4516 O 448.536 -1.45446 2.06402 0
M  V30 4517 C 449.849 1.75973 2.43832 0
M  V30 4518 C 451.397 1.77802 2.57596 0
M  V30 4519 C 451.872 2.7941 3.62897 0
M  V30 4520 N 453.363 2.78157 3.70382 0
M  V30 4521 C 454.098 3.53434 4.51521 0
M  V30 4522 N 453.594 4.38392 5.36455 0
M  V30 4523 N 455.387 3.42026 4.46066 0
M  V30 4524 H 447.538 1.93447 0.877035 0
M  V30 4525 H 449.801 0.835712 0.447536 0
M  V30 4526 H 449.507 2.77699 2.15815 0
M  V30 4527 H 449.381 1.57292 3.4284 0
M  V30 4528 H 451.768 0.767602 2.84942 0
M  V30 4529 H 451.849 2.00557 1.58779 0
M  V30 4530 H 451.493 3.80616 3.36295 0
M  V30 4531 H 451.423 2.53916 4.61339 0
M  V30 4532 H 453.914 2.16531 3.09714 0
M  V30 4533 H 454.227 4.92596 5.95457 0
M  V30 4534 H 452.572 4.4247 5.35953 0
M  V30 4535 H 455.763 2.75075 3.78749 0
M  V30 4536 H 455.936 4.00946 5.09064 0
M  V30 4537 N 449.342 -1.36122 0.79427 0
M  V30 4538 C 450.567 -2.03891 0.379871 0
M  V30 4539 C 450.992 -1.59488 -0.997251 0
M  V30 4540 O 450.35 -0.765652 -1.64339 0
M  V30 4541 C 450.398 -3.57687 0.457442 0
M  V30 4542 O 449.502 -4.08931 -0.5338 0
M  V30 4543 H 448.843 -0.6443 0.160541 0
M  V30 4544 H 451.373 -1.73976 1.07673 0
M  V30 4545 H 451.383 -4.06721 0.322792 0
M  V30 4546 H 450.058 -3.89357 1.46199 0
M  V30 4547 H 448.635 -3.71154 -0.360409 0
M  V30 4548 N 450.82 -0.546701 -1.47814 0
M  V30 4549 C 452.045 -0.021268 -2.07389 0
M  V30 4550 C 452.47 1.25822 -1.39822 0
M  V30 4551 O 451.828 1.75111 -0.46968 0
M  V30 4552 C 451.876 0.168502 -3.60206 0
M  V30 4553 O 450.98 1.23347 -3.93522 0
M  V30 4554 H 450.321 -0.0466108 -0.662362 0
M  V30 4555 H 452.851 -0.759387 -1.89985 0
M  V30 4556 H 452.861 0.385982 -4.0617 0
M  V30 4557 H 451.536 -0.766075 -4.08784 0
M  V30 4558 H 450.113 0.997319 -3.59316 0
M  V30 4559 N 452.299 1.55045 -0.282633 0
M  V30 4560 C 453.249 2.19514 0.616249 0
M  V30 4561 C 454.233 1.16216 1.11277 0
M  V30 4562 O 455.425 1.42004 1.05659 0
M  V30 4563 C 452.554 2.92548 1.7964 0
M  V30 4564 C 451.64 4.03142 1.31671 0
M  V30 4565 N 452.031 5.0276 0.553695 0
M  V30 4566 C 450.329 4.1635 1.59903 0
M  V30 4567 C 451.03 5.80923 0.30054 0
M  V30 4568 N 450.006 5.3651 0.875116 0
M  V30 4569 H 453.808 2.93889 0.0255363 0
M  V30 4570 H 451.322 1.62169 -0.0865362 0
M  V30 4571 H 453.319 3.37188 2.45173 0
M  V30 4572 H 451.979 2.19685 2.39099 0
M  V30 4573 H 452.99 5.17512 0.20032 0
M  V30 4574 H 449.667 3.54682 2.20243 0
M  V30 4575 H 451.057 6.7118 -0.311053 0
M  V30 4576 N 453.777 0.010035 1.57597 0
M  V30 4577 C 455.023 -0.673697 1.91283 0
M  V30 4578 C 455.356 -1.72863 0.884979 0
M  V30 4579 O 454.631 -1.94268 -0.0949487 0
M  V30 4580 C 454.914 -1.30766 3.35518 0
M  V30 4581 C 454.767 -0.263578 4.49027 0
M  V30 4582 C 456.086 -2.23105 3.79358 0
M  V30 4583 H 453.205 -0.243439 0.695634 0
M  V30 4584 H 455.847 0.0633864 1.89894 0
M  V30 4585 H 453.997 -1.93588 3.36832 0
M  V30 4586 H 455.669 0.365738 4.59848 0
M  V30 4587 H 453.912 0.413077 4.31829 0
M  V30 4588 H 454.583 -0.746398 5.4693 0
M  V30 4589 H 457.059 -1.70289 3.79659 0
M  V30 4590 H 455.935 -2.64424 4.81011 0
M  V30 4591 H 456.196 -3.11433 3.13787 0
M  V30 4592 N 455.255 -1.55392 -0.262866 0
M  V30 4593 C 456.203 -1.8977 -1.345 0
M  V30 4594 C 457.197 -0.775063 -1.50629 0
M  V30 4595 O 458.403 -0.959519 -1.52293 0
M  V30 4596 H 454.778 -0.602467 -0.450041 0
M  V30 4597 H 456.749 -2.80147 -1.02762 0
M  V30 4598 C 455.498 -2.19501 -2.69657 0
M  V30 4599 H 454.821 -3.05378 -2.5804 0
M  V30 4600 H 456.261 -2.47469 -3.44289 0
M  V30 4601 C 454.72 -1.00597 -3.21531 0
M  V30 4602 O 455.25 -0.245768 -4.00947 0
M  V30 4603 N 453.456 -0.800911 -2.79345 0
M  V30 4604 H 453.003 -1.42079 -2.14875 0
M  V30 4605 H 452.961 -0.00697996 -3.14399 0
M  V30 4606 N 456.733 0.527833 -1.48498 0
M  V30 4607 C 457.665 1.6482 -1.5927 0
M  V30 4608 C 458.678 1.55659 -0.476869 0
M  V30 4609 O 459.867 1.62081 -0.747806 0
M  V30 4610 C 456.967 3.0348 -1.50842 0
M  V30 4611 C 456.14 3.381 -2.77502 0
M  V30 4612 C 455.199 4.5605 -2.62497 0
M  V30 4613 O 454.225 4.59165 -3.36387 0
M  V30 4614 N 455.427 5.54353 -1.72257 0
M  V30 4615 H 458.192 1.56015 -2.55889 0
M  V30 4616 H 455.753 0.715152 -1.45249 0
M  V30 4617 H 457.745 3.80264 -1.38496 0
M  V30 4618 H 456.315 3.06352 -0.621887 0
M  V30 4619 H 455.535 2.50473 -3.04396 0
M  V30 4620 H 456.823 3.58017 -3.61527 0
M  V30 4621 H 456.221 5.54617 -1.11431 0
M  V30 4622 H 454.778 6.30347 -1.65849 0
M  V30 4623 N 458.211 1.37122 0.776871 0
M  V30 4624 C 459.459 1.31787 1.53221 0
M  V30 4625 C 459.78 -0.0987589 1.9475 0
M  V30 4626 O 459.05 -1.0417 1.65908 0
M  V30 4627 H 457.63 0.484839 0.568278 0
M  V30 4628 H 460.292 1.71556 0.924917 0
M  V30 4629 H 459.388 1.95355 2.43398 0
M  V30 4630 N 459.689 -1.00246 1.21608 0
M  V30 4631 C 460.937 -1.73717 1.0328 0
M  V30 4632 C 461.258 -1.90102 -0.434318 0
M  V30 4633 O 460.528 -1.45376 -1.31311 0
M  V30 4634 H 459.108 -0.643613 0.379172 0
M  V30 4635 H 461.77 -1.20787 1.52959 0
M  V30 4636 H 460.866 -2.73535 1.50283 0
M  V30 4637 N 461.167 -1.02423 -1.1978 0
M  V30 4638 C 462.414 -0.717988 -1.89344 0
M  V30 4639 C 462.742 0.753036 -1.79331 0
M  V30 4640 O 461.997 1.56355 -1.17692 0
M  V30 4641 C 462.296 -1.1088 -3.39765 0
M  V30 4642 C 461.962 -2.57731 -3.6998 0
M  V30 4643 C 460.624 -2.97854 -3.77937 0
M  V30 4644 C 462.976 -3.52763 -3.83677 0
M  V30 4645 C 460.304 -4.31931 -3.97054 0
M  V30 4646 C 462.656 -4.86538 -4.04306 0
M  V30 4647 C 461.32 -5.26356 -4.10494 0
M  V30 4648 H 460.59 -0.26273 -0.692859 0
M  V30 4649 H 463.237 -1.28623 -1.41875 0
M  V30 4650 H 461.542 -0.459094 -3.89101 0
M  V30 4651 H 463.239 -0.849432 -3.919 0
M  V30 4652 H 459.829 -2.25646 -3.64393 0
M  V30 4653 H 464.013 -3.2292 -3.76877 0
M  V30 4654 H 459.269 -4.62324 -4.00083 0
M  V30 4655 H 463.443 -5.60093 -4.13846 0
M  V30 4656 H 461.07 -6.3026 -4.2506 0
M  V30 4657 N 462.645 1.35699 -0.801477 0
M  V30 4658 C 463.891 1.99208 -0.380022 0
M  V30 4659 C 464.224 1.63445 1.04878 0
M  V30 4660 O 463.499 0.895223 1.72673 0
M  V30 4661 C 463.782 3.55755 -0.557708 0
M  V30 4662 C 463.635 4.01332 -2.03107 0
M  V30 4663 C 464.954 4.40096 0.0197968 0
M  V30 4664 H 462.073 0.723667 -0.139552 0
M  V30 4665 H 464.715 1.60928 -1.01006 0
M  V30 4666 H 462.865 3.88494 -0.0213741 0
M  V30 4667 H 464.537 3.79026 -2.62939 0
M  V30 4668 H 462.78 3.52429 -2.52936 0
M  V30 4669 H 463.451 5.10234 -2.1063 0
M  V30 4670 H 465.927 4.13786 -0.438179 0
M  V30 4671 H 464.803 5.48735 -0.134477 0
M  V30 4672 H 465.064 4.2786 1.11303 0
M  V30 4673 N 464.123 0.554532 1.47522 0
M  V30 4674 C 465.053 -0.182974 2.32782 0
M  V30 4675 C 466.034 -0.911377 1.43624 0
M  V30 4676 O 467.219 -0.892366 1.72483 0
M  V30 4677 C 464.349 -1.21513 3.25349 0
M  V30 4678 C 463.303 -0.603355 4.23726 0
M  V30 4679 C 462.629 -1.73995 5.05598 0
M  V30 4680 C 463.929 0.441121 5.20434 0
M  V30 4681 H 465.623 0.52882 2.94693 0
M  V30 4682 H 463.169 0.255759 1.41711 0
M  V30 4683 H 465.122 -1.73922 3.83835 0
M  V30 4684 H 463.846 -1.95683 2.61487 0
M  V30 4685 H 462.505 -0.10059 3.66462 0
M  V30 4686 H 462.153 -2.47063 4.38143 0
M  V30 4687 H 461.853 -1.3364 5.72201 0
M  V30 4688 H 463.377 -2.26735 5.66942 0
M  V30 4689 H 464.791 0.00319931 5.733 0
M  V30 4690 H 463.188 0.763402 5.95224 0
M  V30 4691 H 464.258 1.33799 4.66075 0
M  V30 4692 N 465.601 -1.54893 0.290851 0
M  V30 4693 C 467.017 -1.59476 -0.0628432 0
M  V30 4694 C 467.217 -1.30795 -1.5328 0
M  V30 4695 O 466.273 -1.07644 -2.28406 0
M  V30 4696 C 467.586 -2.98928 0.325962 0
M  V30 4697 C 469.134 -3.11799 0.273882 0
M  V30 4698 C 469.609 -4.53544 0.637359 0
M  V30 4699 N 471.1 -4.59433 0.589507 0
M  V30 4700 C 471.835 -5.67164 0.84335 0
M  V30 4701 N 471.331 -6.82975 1.16263 0
M  V30 4702 N 473.124 -5.56786 0.771091 0
M  V30 4703 H 465.275 -1.71798 1.24896 0
M  V30 4704 H 467.538 -0.801879 0.505663 0
M  V30 4705 H 467.244 -3.24805 1.34887 0
M  V30 4706 H 467.118 -3.75793 -0.325441 0
M  V30 4707 H 469.505 -2.85677 -0.739765 0
M  V30 4708 H 469.586 -2.37112 0.959766 0
M  V30 4709 H 469.23 -4.80394 1.64877 0
M  V30 4710 H 469.16 -5.26553 -0.0704866 0
M  V30 4711 H 471.651 -3.76245 0.353252 0
M  V30 4712 H 471.964 -7.61048 1.34257 0
M  V30 4713 H 470.309 -6.84552 1.20057 0
M  V30 4714 H 473.5 -4.65187 0.521383 0
M  V30 4715 H 473.673 -6.40664 0.972295 0
M  V30 4716 N 467.08 -0.0183926 -1.57589 0
M  V30 4717 C 468.028 0.985111 -2.10709 0
M  V30 4718 C 469.022 1.34397 -1.0312 0
M  V30 4719 O 470.228 1.32746 -1.21567 0
M  V30 4720 H 466.603 0.335418 -0.673052 0
M  V30 4721 H 468.574 0.511689 -2.9398 0
M  V30 4722 C 467.323 2.26202 -2.64061 0
M  V30 4723 H 466.646 1.9946 -3.4649 0
M  V30 4724 H 468.086 2.94652 -3.04887 0
M  V30 4725 C 466.545 2.98444 -1.5631 0
M  V30 4726 O 467.075 3.90142 -0.956674 0
M  V30 4727 N 465.281 2.6059 -1.28612 0
M  V30 4728 H 464.828 1.86101 -1.78112 0
M  V30 4729 H 464.786 3.09238 -0.567406 0
M  V30 4730 N 468.558 1.5553 0.254621 0
M  V30 4731 C 469.521 1.88872 1.29846 0
M  V30 4732 C 470.521 0.764591 1.41459 0
M  V30 4733 O 471.711 1.03265 1.40293 0
M  V30 4734 C 468.843 2.11032 2.67728 0
M  V30 4735 H 470.036 2.82201 1.01502 0
M  V30 4736 H 467.589 1.48303 0.493556 0
M  V30 4737 H 468.324 1.20146 3.01223 0
M  V30 4738 H 468.109 2.92895 2.60682 0
M  V30 4739 H 469.599 2.38038 3.43115 0
M  V30 4740 N 470.036 -0.519951 1.48776 0
M  V30 4741 C 470.946 -1.65025 1.66745 0
M  V30 4742 C 471.962 -1.6508 0.549954 0
M  V30 4743 O 473.138 -1.83848 0.822295 0
M  V30 4744 C 470.203 -3.0146 1.71238 0
M  V30 4745 C 469.264 -3.12182 2.94688 0
M  V30 4746 C 468.497 -4.42109 2.98958 0
M  V30 4747 O 468.72 -5.29799 2.1135 0
M  V30 4748 O 467.654 -4.57406 3.91233 0
M  V30 4749 H 471.48 -1.52801 2.62461 0
M  V30 4750 H 469.065 -0.694157 1.32294 0
M  V30 4751 H 470.947 -3.82584 1.76657 0
M  V30 4752 H 469.622 -3.13988 0.786975 0
M  V30 4753 H 468.529 -2.30316 2.94797 0
M  V30 4754 H 469.862 -3.04574 3.86646 0
M  V30 4755 N 471.514 -1.37532 -0.769588 0
M  V30 4756 C 472.446 -1.29347 -1.89214 0
M  V30 4757 C 473.459 -0.208842 -1.61455 0
M  V30 4758 O 474.648 -0.465158 -1.72333 0
M  V30 4759 C 471.748 -0.977649 -3.24492 0
M  V30 4760 C 470.921 -2.16817 -3.7988 0
M  V30 4761 C 469.98 -1.82229 -4.93639 0
M  V30 4762 O 469.006 -2.54548 -5.09111 0
M  V30 4763 N 470.208 -0.767696 -5.75401 0
M  V30 4764 H 472.973 -2.26073 -1.96751 0
M  V30 4765 H 470.534 -1.31185 -0.948795 0
M  V30 4766 H 472.526 -0.727065 -3.98115 0
M  V30 4767 H 471.096 -0.0988777 -3.12444 0
M  V30 4768 H 470.316 -2.58038 -2.9801 0
M  V30 4769 H 471.604 -2.96308 -4.13617 0
M  V30 4770 H 471.002 -0.167626 -5.65452 0
M  V30 4771 H 469.559 -0.576973 -6.49241 0
M  V30 4772 N 472.992 0.995999 -1.22138 0
M  V30 4773 C 474.403 1.54961 -1.04135 0
M  V30 4774 C 474.754 1.92159 0.396147 0
M  V30 4775 O 473.879 1.74435 1.28069 0
M  V30 4776 C 474.474 2.81581 -1.88408 0
M  V30 4777 C 473.033 3.33396 -1.74712 0
M  V30 4778 C 472.18 2.06509 -1.85066 0
M  V30 4779 H 475.131 0.817436 -1.36028 0
M  V30 4780 H 475.152 3.53822 -1.39966 0
M  V30 4781 H 474.664 2.54476 -2.93025 0
M  V30 4782 H 472.765 3.65416 -0.728159 0
M  V30 4783 H 472.878 4.04208 -2.57202 0
M  V30 4784 H 471.242 2.19925 -1.28472 0
M  V30 4785 H 472.025 1.81804 -2.91208 0
M  V30 4786 N 474.47 1.03057 1.19235 0
M  V30 4787 C 475.747 0.642608 1.84743 0
M  V30 4788 C 476.127 -0.878577 1.91948 0
M  V30 4789 O 475.475 -1.77597 1.43776 0
M  V30 4790 C 475.685 1.30665 3.23616 0
M  V30 4791 C 477.033 1.43098 3.9976 0
M  V30 4792 O 478.057 1.26396 3.3302 0
M  V30 4793 O 476.916 1.70223 5.19313 0
M  V30 4794 H 474.01 0.223573 0.796206 0
M  V30 4795 H 476.556 1.12883 1.26711 0
M  V30 4796 H 475.328 2.34544 3.13217 0
M  V30 4797 H 474.951 0.808405 3.89295 0
M  V30 4798 N 475.948 -1.35272 0.808662 0
M  V30 4799 C 477.225 -1.93077 0.313181 0
M  V30 4800 C 477.605 -1.73847 -1.19752 0
M  V30 4801 O 476.953 -1.1087 -1.998 0
M  V30 4802 C 477.163 -3.41347 0.726859 0
M  V30 4803 C 478.511 -4.18493 0.717532 0
M  V30 4804 O 479.535 -3.4987 0.668535 0
M  V30 4805 O 478.394 -5.40937 0.777779 0
M  V30 4806 H 475.488 -0.822885 0.0824018 0
M  V30 4807 H 478.034 -1.44335 0.892499 0
M  V30 4808 H 476.806 -3.49082 1.76797 0
M  V30 4809 H 476.429 -3.97411 0.122461 0
M  V30 4810 N 477.426 -0.562348 -1.47226 0
M  V30 4811 C 478.373 0.182461 -2.30078 0
M  V30 4812 C 479.343 0.903503 -1.39377 0
M  V30 4813 O 480.528 0.898188 -1.68337 0
M  V30 4814 C 477.668 1.20322 -3.23445 0
M  V30 4815 C 476.781 0.487717 -4.29238 0
M  V30 4816 C 475.916 1.49422 -5.09752 0
M  V30 4817 C 474.955 0.763976 -6.07314 0
M  V30 4818 N 474.092 1.71755 -6.80768 0
M  V30 4819 H 478.932 -0.530169 -2.93246 0
M  V30 4820 H 476.469 -0.273276 -1.44539 0
M  V30 4821 H 478.427 1.80768 -3.76004 0
M  V30 4822 H 477.057 1.88382 -2.6213 0
M  V30 4823 H 476.109 -0.231374 -3.79696 0
M  V30 4824 H 477.421 -0.0841003 -4.98729 0
M  V30 4825 H 476.575 2.17206 -5.66486 0
M  V30 4826 H 475.314 2.09995 -4.40174 0
M  V30 4827 H 474.319 0.0722344 -5.49753 0
M  V30 4828 H 475.544 0.16391 -6.78902 0
M  V30 4829 H 473.49 2.31177 -6.13916 0
M  V30 4830 H 473.407 1.19802 -7.46447 0
M  V30 4831 H 474.675 2.38638 -7.42073 0
M  V30 4832 N 478.904 1.54736 -0.299062 0
M  V30 4833 C 479.852 2.24897 0.593658 0
M  V30 4834 C 480.846 1.25429 1.13859 0
M  V30 4835 O 482.052 1.43286 1.08945 0
M  V30 4836 H 478.427 0.72207 0.210046 0
M  V30 4837 H 480.398 2.98393 -0.0206421 0
M  V30 4838 C 479.147 3.00159 1.75499 0
M  V30 4839 H 478.47 3.76501 1.34489 0
M  V30 4840 H 479.91 3.52535 2.35574 0
M  V30 4841 C 478.369 2.07015 2.65794 0
M  V30 4842 O 478.899 1.63692 3.66835 0
M  V30 4843 N 477.105 1.73012 2.33485 0
M  V30 4844 H 476.652 2.08439 1.51364 0
M  V30 4845 H 476.61 1.10965 2.94167 0
M  V30 4846 N 480.382 0.0267497 1.57577 0
M  V30 4847 C 481.659 -0.690926 1.82991 0
M  V30 4848 C 482.039 -1.90471 0.910164 0
M  V30 4849 O 481.387 -2.28474 -0.0347985 0
M  V30 4850 C 481.597 -1.07139 3.32148 0
M  V30 4851 C 482.945 -1.46402 3.98562 0
M  V30 4852 O 483.969 -1.16443 3.36629 0
M  V30 4853 O 482.828 -2.02214 5.07712 0
M  V30 4854 H 479.922 -0.338747 0.75444 0
M  V30 4855 H 482.468 0.0542506 1.69613 0
M  V30 4856 H 481.24 -0.207394 3.9075 0
M  V30 4857 H 480.863 -1.87481 3.50623 0
M  V30 4858 N 481.861 -1.55662 -0.24637 0
M  V30 4859 C 483.107 -1.78698 -0.971525 0
M  V30 4860 C 483.462 -0.59577 -1.82944 0
M  V30 4861 O 482.755 0.41097 -1.87141 0
M  V30 4862 C 482.949 -3.04885 -1.86494 0
M  V30 4863 C 482.778 -4.36165 -1.09501 0
M  V30 4864 C 481.548 -4.98929 -0.799895 0
M  V30 4865 C 483.746 -5.12126 -0.472334 0
M  V30 4866 N 481.728 -6.139 -0.00595299 0
M  V30 4867 C 483.099 -6.1972 0.18616 0
M  V30 4868 C 485.154 -4.96426 -0.382854 0
M  V30 4869 C 483.857 -7.13321 0.925542 0
M  V30 4870 C 485.883 -5.90405 0.342999 0
M  V30 4871 C 485.245 -6.97407 0.990128 0
M  V30 4872 H 481.344 -0.705852 -0.336597 0
M  V30 4873 H 483.928 -1.93157 -0.244615 0
M  V30 4874 H 482.099 -2.91753 -2.56388 0
M  V30 4875 H 483.831 -3.16212 -2.5257 0
M  V30 4876 H 480.586 -4.60365 -1.11181 0
M  V30 4877 H 481.01 -6.75938 0.379127 0
M  V30 4878 H 485.652 -4.13777 -0.868834 0
M  V30 4879 H 483.37 -7.9547 1.42312 0
M  V30 4880 H 486.956 -5.80333 0.412907 0
M  V30 4881 H 485.836 -7.68874 1.54282 0
M  V30 4882 N 483.339 0.512053 -1.4905 0
M  V30 4883 C 484.585 1.26874 -1.58212 0
M  V30 4884 C 484.918 1.9241 -0.263073 0
M  V30 4885 O 484.193 1.80181 0.732476 0
M  V30 4886 C 484.476 2.34428 -2.73341 0
M  V30 4887 C 484.329 1.73466 -4.15006 0
M  V30 4888 C 485.648 3.36073 -2.84154 0
M  V30 4889 H 482.767 0.459924 -0.575881 0
M  V30 4890 H 485.409 0.568587 -1.81293 0
M  V30 4891 H 483.559 2.94146 -2.53792 0
M  V30 4892 H 485.231 1.17661 -4.46042 0
M  V30 4893 H 483.474 1.03921 -4.21168 0
M  V30 4894 H 484.145 2.51426 -4.91415 0
M  V30 4895 H 486.621 2.86332 -3.01916 0
M  V30 4896 H 485.497 4.08703 -3.66406 0
M  V30 4897 H 485.758 3.97725 -1.93048 0
M  V30 4898 N 484.817 1.37938 0.762283 0
M  V30 4899 C 486.063 1.33866 1.52341 0
M  V30 4900 C 486.396 -0.0738961 1.94059 0
M  V30 4901 O 485.671 -1.03326 1.64785 0
M  V30 4902 C 485.954 2.28644 2.78197 0
M  V30 4903 C 485.807 3.78722 2.42672 0
M  V30 4904 C 487.126 2.21702 3.80179 0
M  V30 4905 H 484.245 0.487593 0.55265 0
M  V30 4906 H 486.887 1.68717 0.873767 0
M  V30 4907 H 485.037 1.99055 3.33631 0
M  V30 4908 H 486.709 4.18948 1.93081 0
M  V30 4909 H 484.952 3.96827 1.75244 0
M  V30 4910 H 485.623 4.40486 3.3268 0
M  V30 4911 H 488.099 2.47805 3.34263 0
M  V30 4912 H 486.975 2.90143 4.65949 0
M  V30 4913 H 487.236 1.21301 4.25133 0
M  V30 4914 N 486.295 -0.989507 1.22664 0
M  V30 4915 C 487.258 -2.06183 1.00106 0
M  V30 4916 C 488.258 -1.60765 -0.0337726 0
M  V30 4917 O 489.448 -1.72989 0.205072 0
M  V30 4918 C 486.58 -3.37021 0.51279 0
M  V30 4919 H 487.773 -2.27629 1.95256 0
M  V30 4920 H 485.326 -1.16158 1.0458 0
M  V30 4921 H 486.061 -3.21261 -0.442917 0
M  V30 4922 H 485.846 -3.71323 1.25942 0
M  V30 4923 H 487.336 -4.1591 0.375315 0
M  V30 4924 N 487.773 -1.03688 -1.18687 0
M  V30 4925 C 488.723 -0.595067 -2.20098 0
M  V30 4926 C 489.707 0.360465 -1.5681 0
M  V30 4927 O 490.899 0.180136 -1.76081 0
M  V30 4928 C 488.028 0.0444495 -3.43271 0
M  V30 4929 C 487.114 -0.934002 -4.13687 0
M  V30 4930 N 487.505 -2.09957 -4.60165 0
M  V30 4931 C 485.803 -0.759177 -4.39491 0
M  V30 4932 C 486.504 -2.71735 -5.1433 0
M  V30 4933 N 485.48 -1.99638 -5.05614 0
M  V30 4934 H 489.282 -1.48336 -2.5372 0
M  V30 4935 H 486.796 -0.904949 -1.3485 0
M  V30 4936 H 488.793 0.37864 -4.15177 0
M  V30 4937 H 487.453 0.928325 -3.11147 0
M  V30 4938 H 488.464 -2.47863 -4.54735 0
M  V30 4939 H 485.141 0.0749292 -4.17433 0
M  V30 4940 H 486.531 -3.70492 -5.60523 0
M  V30 4941 N 489.251 1.34841 -0.815825 0
M  V30 4942 C 490.528 1.92908 -0.323416 0
M  V30 4943 C 490.908 1.74479 1.18828 0
M  V30 4944 O 490.256 1.11928 1.99209 0
M  V30 4945 C 490.466 3.40957 -0.744952 0
M  V30 4946 C 491.814 4.18107 -0.739716 0
M  V30 4947 O 492.838 3.49511 -0.68708 0
M  V30 4948 O 491.697 5.40517 -0.806456 0
M  V30 4949 H 488.791 0.822436 -0.0867646 0
M  V30 4950 H 491.337 1.4386 -0.90014 0
M  V30 4951 H 490.109 3.4814 -1.78646 0
M  V30 4952 H 489.732 3.97341 -0.143535 0
M  V30 4953 N 490.729 0.570148 1.46925 0
M  V30 4954 C 491.659 -0.158274 2.32963 0
M  V30 4955 C 492.64 -0.896093 1.44583 0
M  V30 4956 O 493.825 -0.874022 1.7342 0
M  V30 4957 C 490.955 -1.18055 3.26619 0
M  V30 4958 C 489.909 -0.558379 4.24342 0
M  V30 4959 C 489.235 -1.68623 5.07415 0
M  V30 4960 C 490.535 0.496295 5.19937 0
M  V30 4961 H 492.229 0.560046 2.94115 0
M  V30 4962 H 489.775 0.270775 1.41431 0
M  V30 4963 H 491.728 -1.69841 3.85658 0
M  V30 4964 H 490.452 -1.92899 2.63548 0
M  V30 4965 H 489.111 -0.0617157 3.66548 0
M  V30 4966 H 488.759 -2.42402 4.40738 0
M  V30 4967 H 488.459 -1.27564 5.73586 0
M  V30 4968 H 489.983 -2.20709 5.69315 0
M  V30 4969 H 491.397 0.0640052 5.73264 0
M  V30 4970 H 489.794 0.82649 5.94381 0
M  V30 4971 H 490.864 1.38735 4.6463 0
M  V30 4972 N 492.207 -1.54576 0.307264 0
M  V30 4973 C 493.155 -2.25208 -0.581723 0
M  V30 4974 C 494.149 -1.26031 -1.13192 0
M  V30 4975 O 495.355 -1.43862 -1.08184 0
M  V30 4976 H 491.73 -0.723173 -0.206214 0
M  V30 4977 H 493.701 -2.98378 0.0364663 0
M  V30 4978 C 492.45 -3.01086 -1.73904 0
M  V30 4979 H 491.773 -3.77208 -1.32491 0
M  V30 4980 H 493.213 -3.5378 -2.33701 0
M  V30 4981 C 491.672 -2.08422 -2.64692 0
M  V30 4982 O 492.202 -1.65636 -3.65961 0
M  V30 4983 N 490.408 -1.74247 -2.32564 0
M  V30 4984 H 489.955 -2.09238 -1.50257 0
M  V30 4985 H 489.913 -1.12524 -2.93574 0
M  V30 4986 N 493.685 -0.035106 -1.57561 0
M  V30 4987 C 495.096 0.502885 -1.798 0
M  V30 4988 C 495.447 1.71892 -0.945921 0
M  V30 4989 O 494.572 2.15822 -0.157991 0
M  V30 4990 C 495.167 0.919097 -3.26095 0
M  V30 4991 C 493.726 1.40216 -3.49308 0
M  V30 4992 C 492.873 0.369709 -2.74824 0
M  V30 4993 H 495.824 -0.261102 -1.56537 0
M  V30 4994 H 495.845 1.78308 -3.36135 0
M  V30 4995 H 495.357 0.0338526 -3.88085 0
M  V30 4996 H 493.458 2.30714 -2.92578 0
M  V30 4997 H 493.571 1.40541 -4.58023 0
M  V30 4998 H 491.935 0.839113 -2.40481 0
M  V30 4999 H 492.718 -0.507173 -3.39533 0
M  V30 5000 N 495.163 1.55791 0.238111 0
M  V30 5001 C 496.095 1.87513 1.31802 0
M  V30 5002 C 497.108 0.762053 1.43863 0
M  V30 5003 O 498.297 1.04024 1.45056 0
M  V30 5004 C 495.397 2.05402 2.69561 0
M  V30 5005 C 494.57 3.3632 2.79656 0
M  V30 5006 C 493.629 3.43844 3.98319 0
M  V30 5007 O 492.655 4.16994 3.87433 0
M  V30 5008 N 493.857 2.73777 5.11885 0
M  V30 5009 H 496.622 2.80734 1.04922 0
M  V30 5010 H 494.183 1.56135 0.428196 0
M  V30 5011 H 496.175 2.07769 3.47296 0
M  V30 5012 H 494.745 1.18884 2.89111 0
M  V30 5013 H 493.965 3.46195 1.88528 0
M  V30 5014 H 495.253 4.22594 2.83358 0
M  V30 5015 H 494.651 2.14094 5.23622 0
M  V30 5016 H 493.208 2.81825 5.87723 0
M  V30 5017 N 496.642 -0.504142 1.49319 0
M  V30 5018 C 497.589 -1.60603 1.65756 0
M  V30 5019 C 498.559 -1.58425 0.499082 0
M  V30 5020 O 499.744 -1.76459 0.725728 0
M  V30 5021 C 496.884 -2.98764 1.72726 0
M  V30 5022 C 495.997 -3.10982 2.99857 0
M  V30 5023 C 495.132 -4.39857 2.97824 0
M  V30 5024 C 494.171 -4.45697 4.19548 0
M  V30 5025 N 493.308 -5.65995 4.15444 0
M  V30 5026 H 498.148 -1.45895 2.59843 0
M  V30 5027 H 495.685 -0.709891 1.28837 0
M  V30 5028 H 497.643 -3.78839 1.74747 0
M  V30 5029 H 496.273 -3.12183 0.821075 0
M  V30 5030 H 495.325 -2.23991 3.07461 0
M  V30 5031 H 496.637 -3.11157 3.89849 0
M  V30 5032 H 495.791 -5.2825 2.98391 0
M  V30 5033 H 494.53 -4.42242 2.05604 0
M  V30 5034 H 493.535 -3.55707 4.19229 0
M  V30 5035 H 494.76 -4.4503 5.12957 0
M  V30 5036 H 492.706 -5.69229 3.26059 0
M  V30 5037 H 492.623 -5.67773 4.99169 0
M  V30 5038 H 493.891 -6.56604 4.20109 0
M  V30 5039 N 498.12 -1.38341 -0.754957 0
M  V30 5040 C 499.083 -1.35262 -1.85032 0
M  V30 5041 C 500.083 -0.253393 -1.58791 0
M  V30 5042 O 501.273 -0.510205 -1.66561 0
M  V30 5043 C 498.405 -1.10544 -3.22479 0
M  V30 5044 H 499.598 -2.32712 -1.8917 0
M  V30 5045 H 497.151 -1.23614 -0.956515 0
M  V30 5046 H 497.886 -0.136952 -3.24011 0
M  V30 5047 H 497.671 -1.90127 -3.4292 0
M  V30 5048 H 499.161 -1.11082 -4.02555 0
M  V30 5049 N 499.598 0.982988 -1.23187 0
M  V30 5050 C 501.014 1.2487 -0.993967 0
M  V30 5051 C 501.214 1.99155 0.306498 0
M  V30 5052 O 500.27 2.30688 1.0266 0
M  V30 5053 C 501.583 2.05078 -2.19917 0
M  V30 5054 C 503.131 2.18227 -2.2438 0
M  V30 5055 C 503.606 3.01825 -3.44479 0
M  V30 5056 N 505.097 3.09411 -3.44702 0
M  V30 5057 C 505.832 3.74412 -4.34285 0
M  V30 5058 N 505.328 4.41259 -5.341 0
M  V30 5059 N 507.121 3.71273 -4.22035 0
M  V30 5060 H 499.272 0.485253 -2.06783 0
M  V30 5061 H 501.535 0.276979 -0.906635 0
M  V30 5062 H 501.241 1.57867 -3.14279 0
M  V30 5063 H 501.115 3.05829 -2.2079 0
M  V30 5064 H 503.502 2.64648 -1.30559 0
M  V30 5065 H 503.583 1.16873 -2.2754 0
M  V30 5066 H 503.227 2.56102 -4.38605 0
M  V30 5067 H 503.157 4.03342 -3.38559 0
M  V30 5068 H 505.648 2.61845 -2.7248 0
M  V30 5069 H 505.961 4.88629 -5.98717 0
M  V30 5070 H 504.306 4.39975 -5.38002 0
M  V30 5071 H 507.497 3.18217 -3.43301 0
M  V30 5072 H 507.67 4.21649 -4.92053 0
M  V30 5073 N 501.076 1.04316 1.18135 0
M  V30 5074 C 502.325 0.74319 1.87509 0
M  V30 5075 C 502.638 -0.732136 1.81381 0
M  V30 5076 O 503.844 -1.14572 2.46141 0
M  V30 5077 C 502.3 1.27913 3.36402 0
M  V30 5078 C 501.908 2.78326 3.51053 0
M  V30 5079 C 503.652 1.0558 4.11161 0
M  V30 5080 C 501.559 3.25266 4.93919 0
M  V30 5081 H 500.489 0.274313 0.702331 0
M  V30 5082 H 503.14 1.25931 1.33467 0
M  V30 5083 H 501.522 0.690853 3.89927 0
M  V30 5084 H 502.696 3.42933 3.07788 0
M  V30 5085 H 501.011 2.991 2.89704 0
M  V30 5086 H 503.608 1.38161 5.16542 0
M  V30 5087 H 503.951 -0.00684729 4.16299 0
M  V30 5088 H 504.484 1.60882 3.63816 0
M  V30 5089 H 501.223 4.30922 4.9395 0
M  V30 5090 H 500.743 2.65396 5.3789 0
M  V30 5091 H 502.422 3.19433 5.62647 0
M  V30 5092 N 502.554 -1.34406 0.822964 0
M  V30 5093 C 503.484 -2.32052 0.259608 0
M  V30 5094 C 504.465 -1.58243 -0.623961 0
M  V30 5095 O 505.65 -1.86224 -0.55083 0
M  V30 5096 C 502.78 -3.42434 -0.579314 0
M  V30 5097 C 501.734 -4.27499 0.20712 0
M  V30 5098 C 501.06 -5.29349 -0.754547 0
M  V30 5099 C 502.36 -5.02758 1.41533 0
M  V30 5100 H 504.054 -2.79418 1.07545 0
M  V30 5101 H 501.6 -1.34338 0.518593 0
M  V30 5102 H 503.553 -4.0976 -0.983612 0
M  V30 5103 H 502.277 -2.93717 -1.4282 0
M  V30 5104 H 500.936 -3.61776 0.592787 0
M  V30 5105 H 500.584 -4.76895 -1.59939 0
M  V30 5106 H 500.284 -5.8714 -0.232561 0
M  V30 5107 H 501.808 -5.99544 -1.1567 0
M  V30 5108 H 503.222 -5.62938 1.08504 0
M  V30 5109 H 501.619 -5.70123 1.87296 0
M  V30 5110 H 502.689 -4.32451 2.1935 0
M  V30 5111 N 504.032 -0.577932 -1.46621 0
M  V30 5112 C 504.995 0.147805 -2.28723 0
M  V30 5113 C 505.995 0.823325 -1.38123 0
M  V30 5114 O 507.185 0.676011 -1.60548 0
M  V30 5115 C 504.317 1.21853 -3.18378 0
M  V30 5116 H 505.51 -0.573654 -2.94362 0
M  V30 5117 H 503.063 -0.335703 -1.52652 0
M  V30 5118 H 503.798 1.97173 -2.57475 0
M  V30 5119 H 503.583 0.738714 -3.85078 0
M  V30 5120 H 505.073 1.72768 -3.80186 0
M  V30 5121 N 505.51 1.54411 -0.315457 0
M  V30 5122 C 506.443 2.20265 0.596522 0
M  V30 5123 C 507.421 1.17693 1.12192 0
M  V30 5124 O 508.605 1.46397 1.18744 0
M  V30 5125 C 505.732 2.85794 1.81767 0
M  V30 5126 C 504.778 4.02017 1.42424 0
M  V30 5127 S 505.611 5.33452 0.467836 0
M  V30 5128 C 506.767 6.02471 1.69645 0
M  V30 5129 H 507 2.97277 0.0370896 0
M  V30 5130 H 504.533 1.54079 -0.0995562 0
M  V30 5131 H 506.491 3.24172 2.51839 0
M  V30 5132 H 505.152 2.08601 2.34828 0
M  V30 5133 H 504.345 4.46701 2.33396 0
M  V30 5134 H 503.947 3.65271 0.803311 0
M  V30 5135 H 506.239 6.24157 2.63504 0
M  V30 5136 H 507.182 6.96215 1.29192 0
M  V30 5137 H 507.59 5.32284 1.87974 0
M  V30 5138 N 506.988 0.0434614 1.5754 0
M  V30 5139 C 508.234 -0.632971 1.92669 0
M  V30 5140 C 508.567 -1.70947 0.921446 0
M  V30 5141 O 507.842 -1.94426 -0.0537202 0
M  V30 5142 C 508.125 -1.23619 3.38216 0
M  V30 5143 C 507.978 -0.168274 4.49485 0
M  V30 5144 C 509.297 -2.15008 3.84005 0
M  V30 5145 H 506.416 -0.228629 0.700641 0
M  V30 5146 H 509.058 0.103651 1.89717 0
M  V30 5147 H 507.208 -1.864 3.40863 0
M  V30 5148 H 508.88 0.463196 4.58969 0
M  V30 5149 H 507.123 0.504581 4.30855 0
M  V30 5150 H 507.794 -0.630218 5.48391 0
M  V30 5151 H 510.27 -1.62198 3.83185 0
M  V30 5152 H 509.146 -2.54161 4.86511 0
M  V30 5153 H 509.407 -3.04707 3.20322 0
M  V30 5154 N 508.466 -1.55915 -0.229846 0
M  V30 5155 C 509.429 -1.90914 -1.26824 0
M  V30 5156 C 510.429 -0.786999 -1.40225 0
M  V30 5157 O 511.619 -1.05484 -1.38632 0
M  V30 5158 C 508.751 -2.15264 -2.64337 0
M  V30 5159 H 509.944 -2.8378 -0.969998 0
M  V30 5160 H 507.497 -1.49069 -0.4699 0
M  V30 5161 H 508.232 -1.24923 -2.99274 0
M  V30 5162 H 508.017 -2.97005 -2.55989 0
M  V30 5163 H 509.507 -2.43467 -3.39284 0
M  V30 5164 N 509.944 0.496216 -1.49584 0
M  V30 5165 C 510.877 1.61508 -1.61215 0
M  V30 5166 C 511.855 1.55927 -0.461045 0
M  V30 5167 O 513.039 1.75914 -0.677231 0
M  V30 5168 C 510.166 3.00035 -1.57152 0
M  V30 5169 C 509.212 3.23861 -2.77518 0
M  V30 5170 S 510.045 3.06466 -4.39134 0
M  V30 5171 C 511.201 4.4738 -4.37724 0
M  V30 5172 H 511.434 1.51398 -2.55863 0
M  V30 5173 H 508.967 0.681727 -1.38535 0
M  V30 5174 H 510.925 3.7991 -1.55494 0
M  V30 5175 H 509.586 3.07556 -0.637834 0
M  V30 5176 H 508.779 4.25 -2.70908 0
M  V30 5177 H 508.381 2.51716 -2.76614 0
M  V30 5178 H 510.673 5.39556 -4.09738 0
M  V30 5179 H 511.616 4.59038 -5.39156 0
M  V30 5180 H 512.024 4.28283 -3.67742 0
M  V30 5181 N 511.423 1.38739 0.74761 0
M  V30 5182 C 512.651 1.38521 1.53686 0
M  V30 5183 C 513.066 -0.0235129 1.88785 0
M  V30 5184 O 512.423 -0.991662 1.53207 0
M  V30 5185 C 512.474 2.24641 2.83229 0
M  V30 5186 O 512.195 3.60026 2.49625 0
M  V30 5187 C 513.696 2.32669 3.77333 0
M  V30 5188 H 510.916 0.473589 0.475347 0
M  V30 5189 H 513.46 1.82395 0.924786 0
M  V30 5190 H 511.615 1.84213 3.40799 0
M  V30 5191 H 512.029 4.05435 3.3275 0
M  V30 5192 H 513.503 2.97201 4.65162 0
M  V30 5193 H 513.98 1.3421 4.18192 0
M  V30 5194 H 514.586 2.73512 3.25685 0
M  V30 5195 N 512.901 -0.976442 1.23707 0
M  V30 5196 C 513.848 -2.06952 1.02174 0
M  V30 5197 C 514.818 -1.65984 -0.0621034 0
M  V30 5198 O 516.003 -1.90584 0.0907906 0
M  V30 5199 C 513.143 -3.39425 0.62327 0
M  V30 5200 C 512.256 -3.9364 1.77966 0
M  V30 5201 C 511.391 -5.14343 1.3276 0
M  V30 5202 C 510.43 -5.60733 2.45449 0
M  V30 5203 N 509.567 -6.72662 2.01172 0
M  V30 5204 H 514.407 -2.24704 1.95734 0
M  V30 5205 H 511.944 -1.10143 0.975034 0
M  V30 5206 H 513.902 -4.15526 0.37332 0
M  V30 5207 H 512.532 -3.21624 -0.275329 0
M  V30 5208 H 511.584 -3.14258 2.14351 0
M  V30 5209 H 512.896 -4.24035 2.62671 0
M  V30 5210 H 512.05 -5.97789 1.03601 0
M  V30 5211 H 510.789 -4.8561 0.450975 0
M  V30 5212 H 509.794 -4.75865 2.75378 0
M  V30 5213 H 511.019 -5.91483 3.33654 0
M  V30 5214 H 508.965 -6.45681 1.15895 0
M  V30 5215 H 508.882 -7.02462 2.79434 0
M  V30 5216 H 510.15 -7.59572 1.75129 0
M  V30 5217 N 514.379 -1.04941 -1.1758 0
M  V30 5218 C 515.607 -0.778294 -1.91703 0
M  V30 5219 C 516.022 0.665697 -1.76675 0
M  V30 5220 O 515.379 1.45456 -1.10222 0
M  V30 5221 C 515.43 -1.14628 -3.42845 0
M  V30 5222 O 515.151 -2.53359 -3.57409 0
M  V30 5223 C 516.652 -0.900931 -4.34049 0
M  V30 5224 H 513.872 -0.283167 -0.608323 0
M  V30 5225 H 516.416 -1.39942 -1.49119 0
M  V30 5226 H 514.571 -0.569953 -3.83184 0
M  V30 5227 H 514.985 -2.67709 -4.51035 0
M  V30 5228 H 516.459 -1.20817 -5.38616 0
M  V30 5229 H 516.936 0.163966 -4.38894 0
M  V30 5230 H 517.542 -1.46097 -3.99419 0
M  V30 5231 N 515.857 1.33968 -0.830081 0
M  V30 5232 C 516.789 2.28194 -0.21448 0
M  V30 5233 C 517.802 1.5135 0.599752 0
M  V30 5234 O 518.991 1.73286 0.42826 0
M  V30 5235 C 516.091 3.31221 0.717356 0
M  V30 5236 C 515.264 4.37365 -0.055613 0
M  V30 5237 C 514.323 5.2011 0.798231 0
M  V30 5238 O 513.349 5.68691 0.240616 0
M  V30 5239 N 514.551 5.40523 2.11695 0
M  V30 5240 H 517.316 2.81662 -1.02405 0
M  V30 5241 H 514.877 1.46568 -0.687713 0
M  V30 5242 H 516.869 3.83477 1.29334 0
M  V30 5243 H 515.439 2.78095 1.42765 0
M  V30 5244 H 514.659 3.85727 -0.812936 0
M  V30 5245 H 515.947 5.05397 -0.587444 0
M  V30 5246 H 515.345 5.0274 2.59363 0
M  V30 5247 H 513.902 5.95871 2.64162 0
M  V30 5248 N 517.335 0.585699 1.46312 0
M  V30 5249 C 518.612 0.00542031 1.95599 0
M  V30 5250 C 518.992 -1.45619 1.52834 0
M  V30 5251 O 518.34 -2.14759 0.780446 0
M  V30 5252 C 518.55 0.180601 3.48532 0
M  V30 5253 C 519.898 0.049979 4.24571 0
M  V30 5254 O 520.922 0.109589 3.56031 0
M  V30 5255 O 519.781 -0.0832226 5.46437 0
M  V30 5256 H 516.875 -0.0481281 0.825598 0
M  V30 5257 H 519.421 0.654227 1.56582 0
M  V30 5258 H 518.193 1.19657 3.72556 0
M  V30 5259 H 517.816 -0.504498 3.94386 0
M  V30 5260 N 518.813 -1.54241 0.323641 0
M  V30 5261 C 520.038 -2.05452 -0.283605 0
M  V30 5262 C 520.463 -1.19823 -1.44997 0
M  V30 5263 O 519.821 -0.207358 -1.8011 0
M  V30 5264 C 519.869 -3.53823 -0.695795 0
M  V30 5265 O 518.973 -3.71134 -1.79815 0
M  V30 5266 H 518.314 -0.662024 -0.0511917 0
M  V30 5267 H 520.844 -1.99079 0.472073 0
M  V30 5268 H 520.854 -3.96094 -0.978434 0
M  V30 5269 H 519.529 -4.15602 0.157287 0
M  V30 5270 H 518.106 -3.40768 -1.51431 0
M  V30 5271 N 520.291 -0.0518155 -1.57515 0
M  V30 5272 C 521.238 0.922352 -2.11569 0
M  V30 5273 C 522.208 1.30842 -1.02321 0
M  V30 5274 O 523.393 1.39778 -1.29872 0
M  V30 5275 C 520.533 2.19167 -2.6657 0
M  V30 5276 C 519.646 1.86003 -3.89906 0
M  V30 5277 C 518.781 3.07398 -4.33221 0
M  V30 5278 C 517.82 2.70158 -5.49255 0
M  V30 5279 N 516.957 3.84248 -5.8762 0
M  V30 5280 H 521.797 0.454506 -2.94514 0
M  V30 5281 H 519.334 0.212718 -1.45554 0
M  V30 5282 H 521.292 2.93443 -2.96559 0
M  V30 5283 H 519.922 2.63528 -1.86421 0
M  V30 5284 H 518.974 1.01874 -3.66505 0
M  V30 5285 H 520.286 1.54592 -4.74239 0
M  V30 5286 H 519.44 3.89972 -4.64765 0
M  V30 5287 H 518.179 3.41988 -3.477 0
M  V30 5288 H 517.184 1.86001 -5.17382 0
M  V30 5289 H 518.409 2.36759 -6.36492 0
M  V30 5290 H 516.355 4.18638 -5.05053 0
M  V30 5291 H 516.272 3.56538 -6.66646 0
M  V30 5292 H 517.54 4.6746 -6.2378 0
M  V30 5293 N 521.769 1.56035 0.221574 0
M  V30 5294 C 522.679 1.95581 1.29558 0
M  V30 5295 C 523.695 0.859639 1.51282 0
M  V30 5296 O 524.871 1.16321 1.64413 0
M  V30 5297 C 521.936 2.26447 2.62531 0
M  V30 5298 C 520.997 3.49632 2.4911 0
M  V30 5299 C 520.23 3.79017 3.75742 0
M  V30 5300 O 520.453 3.10077 4.78757 0
M  V30 5301 O 519.387 4.72507 3.72855 0
M  V30 5302 H 523.213 2.8711 0.990035 0
M  V30 5303 H 520.798 1.43244 0.424434 0
M  V30 5304 H 522.68 2.47494 3.41064 0
M  V30 5305 H 521.355 1.38092 2.92766 0
M  V30 5306 H 520.262 3.33864 1.68777 0
M  V30 5307 H 521.595 4.3837 2.23814 0
M  V30 5308 N 523.247 -0.488276 1.49845 0
M  V30 5309 C 524.177 -1.59675 1.70371 0
M  V30 5310 C 525.158 -1.60878 0.552473 0
M  V30 5311 O 526.343 -1.77417 0.78973 0
M  V30 5312 C 523.473 -2.98098 1.782 0
M  V30 5313 C 522.427 -3.11761 2.93239 0
M  V30 5314 C 521.753 -4.51661 2.86193 0
M  V30 5315 C 523.053 -2.90589 4.33999 0
M  V30 5316 H 524.747 -1.42752 2.63177 0
M  V30 5317 H 522.293 -0.685317 1.26647 0
M  V30 5318 H 524.246 -3.75555 1.91144 0
M  V30 5319 H 522.97 -3.16138 0.820018 0
M  V30 5320 H 521.629 -2.36732 2.79917 0
M  V30 5321 H 521.277 -4.66595 1.87877 0
M  V30 5322 H 520.977 -4.61742 3.63412 0
M  V30 5323 H 522.501 -5.31162 3.01163 0
M  V30 5324 H 523.915 -3.57807 4.47936 0
M  V30 5325 H 522.312 -3.1213 5.12538 0
M  V30 5326 H 523.382 -1.86595 4.4756 0
M  V30 5327 N 524.725 -1.39134 -0.740242 0
M  V30 5328 C 525.657 -1.33332 -1.86428 0
M  V30 5329 C 526.67 -0.243042 -1.60976 0
M  V30 5330 O 527.859 -0.501608 -1.71307 0
M  V30 5331 C 524.959 -1.04626 -3.22346 0
M  V30 5332 C 524.132 -2.24826 -3.75196 0
M  V30 5333 C 523.191 -1.92659 -4.89662 0
M  V30 5334 O 522.217 -2.6529 -5.03597 0
M  V30 5335 N 523.419 -0.889575 -5.73643 0
M  V30 5336 H 526.184 -2.30196 -1.91911 0
M  V30 5337 H 523.745 -1.33168 -0.920756 0
M  V30 5338 H 525.737 -0.811347 -3.96484 0
M  V30 5339 H 524.307 -0.165129 -3.12164 0
M  V30 5340 H 523.527 -2.64301 -2.9247 0
M  V30 5341 H 524.815 -3.05015 -4.07239 0
M  V30 5342 H 524.213 -0.287529 -5.64969 0
M  V30 5343 H 522.77 -0.714557 -6.47871 0
M  V30 5344 N 526.204 0.969867 -1.24223 0
M  V30 5345 C 527.62 1.23809 -1.00716 0
M  V30 5346 C 527.82 1.99469 0.285358 0
M  V30 5347 O 526.876 2.31764 1.00207 0
M  V30 5348 C 528.189 2.02734 -2.2208 0
M  V30 5349 C 529.737 2.15834 -2.26681 0
M  V30 5350 C 530.212 2.98154 -3.47661 0
M  V30 5351 N 531.703 3.05737 -3.47964 0
M  V30 5352 C 532.438 3.69785 -4.38231 0
M  V30 5353 N 531.934 4.35569 -5.3875 0
M  V30 5354 N 533.727 3.66775 -4.25949 0
M  V30 5355 H 525.878 0.463294 -2.07286 0
M  V30 5356 H 528.141 0.267348 -0.909521 0
M  V30 5357 H 527.847 1.54524 -3.15935 0
M  V30 5358 H 527.721 3.0347 -2.24021 0
M  V30 5359 H 530.108 2.63248 -1.33359 0
M  V30 5360 H 530.189 1.14453 -2.28767 0
M  V30 5361 H 529.833 2.51435 -4.41297 0
M  V30 5362 H 529.763 3.99729 -3.42818 0
M  V30 5363 H 532.254 2.58941 -2.75242 0
M  V30 5364 H 532.567 4.82251 -6.03866 0
M  V30 5365 H 530.912 4.34244 -5.42639 0
M  V30 5366 H 534.103 3.14558 -3.46657 0
M  V30 5367 H 534.276 4.16407 -4.96497 0
M  V30 5368 N 527.682 1.05563 1.17022 0
M  V30 5369 C 528.931 0.763036 1.8671 0
M  V30 5370 C 529.244 -0.712857 1.82147 0
M  V30 5371 O 530.45 -1.11955 2.47343 0
M  V30 5372 C 528.906 1.31474 3.35026 0
M  V30 5373 C 528.514 2.82034 3.48081 0
M  V30 5374 C 530.258 1.09935 4.10018 0
M  V30 5375 C 528.165 3.30486 4.90442 0
M  V30 5376 H 527.095 0.281747 0.699382 0
M  V30 5377 H 529.746 1.2734 1.32124 0
M  V30 5378 H 528.128 0.732171 3.89173 0
M  V30 5379 H 529.302 3.46178 3.04133 0
M  V30 5380 H 527.617 3.02156 2.86515 0
M  V30 5381 H 530.214 1.43632 5.15048 0
M  V30 5382 H 530.557 0.0373072 4.16283 0
M  V30 5383 H 531.09 1.64732 3.62089 0
M  V30 5384 H 527.829 4.36137 4.89352 0
M  V30 5385 H 527.349 2.71086 5.35044 0
M  V30 5386 H 529.028 3.25382 5.59227 0
M  V30 5387 N 529.16 -1.33526 0.837174 0
M  V30 5388 C 530.407 -1.97837 0.432064 0
M  V30 5389 C 530.735 -1.66324 -1.00829 0
M  V30 5390 O 529.99 -0.93448 -1.71948 0
M  V30 5391 C 530.289 -3.52367 0.597675 0
M  V30 5392 C 529.955 -4.03826 2.00587 0
M  V30 5393 C 528.617 -4.1759 2.39106 0
M  V30 5394 C 530.969 -4.31333 2.92576 0
M  V30 5395 C 528.297 -4.56195 3.68921 0
M  V30 5396 C 530.649 -4.7139 4.2187 0
M  V30 5397 C 529.313 -4.8336 4.60347 0
M  V30 5398 H 528.583 -0.723937 0.158104 0
M  V30 5399 H 531.23 -1.5923 1.06387 0
M  V30 5400 H 529.535 -3.91624 -0.117452 0
M  V30 5401 H 531.232 -4.00126 0.26454 0
M  V30 5402 H 527.822 -3.93586 1.69671 0
M  V30 5403 H 532.006 -4.20224 2.64056 0
M  V30 5404 H 527.262 -4.63655 3.9854 0
M  V30 5405 H 531.436 -4.91631 4.93226 0
M  V30 5406 H 529.063 -5.1303 5.60985 0
M  V30 5407 N 530.638 -0.59345 -1.46 0
M  V30 5408 C 531.884 -0.0916503 -2.03193 0
M  V30 5409 C 532.239 1.25839 -1.45541 0
M  V30 5410 O 531.532 1.81455 -0.615191 0
M  V30 5411 C 531.726 0.021178 -3.57394 0
M  V30 5412 C 531.555 -1.31638 -4.30002 0
M  V30 5413 C 530.325 -1.89336 -4.68487 0
M  V30 5414 C 532.523 -2.242 -4.62859 0
M  V30 5415 N 530.505 -3.1672 -5.25891 0
M  V30 5416 C 531.876 -3.36175 -5.20948 0
M  V30 5417 C 533.931 -2.23748 -4.44794 0
M  V30 5418 C 532.634 -4.47844 -5.62875 0
M  V30 5419 C 534.66 -3.34454 -4.87744 0
M  V30 5420 C 534.022 -4.4515 -5.45913 0
M  V30 5421 H 530.121 -0.0765713 -0.778242 0
M  V30 5422 H 532.705 -0.788705 -1.7801 0
M  V30 5423 H 530.876 0.687423 -3.82268 0
M  V30 5424 H 532.608 0.528343 -4.01236 0
M  V30 5425 H 529.363 -1.42704 -4.51589 0
M  V30 5426 H 529.787 -3.81746 -5.59106 0
M  V30 5427 H 534.429 -1.39433 -3.99147 0
M  V30 5428 H 532.147 -5.32894 -6.07495 0
M  V30 5429 H 535.733 -3.35234 -4.75509 0
M  V30 5430 H 534.613 -5.29398 -5.78539 0
M  V30 5431 N 532.116 1.54067 -0.331816 0
M  V30 5432 C 533.026 2.28322 0.539104 0
M  V30 5433 C 534.042 1.32985 1.1221 0
M  V30 5434 O 535.218 1.6601 1.1403 0
M  V30 5435 C 532.283 3.03277 1.68 0
M  V30 5436 C 531.344 4.14216 1.12798 0
M  V30 5437 C 530.577 4.85588 2.2145 0
M  V30 5438 O 530.8 4.56536 3.41952 0
M  V30 5439 O 529.734 5.72309 1.86404 0
M  V30 5440 H 533.56 3.03632 -0.0641692 0
M  V30 5441 H 531.145 1.49083 -0.0972365 0
M  V30 5442 H 533.027 3.50189 2.34405 0
M  V30 5443 H 531.702 2.30834 2.2693 0
M  V30 5444 H 530.609 3.71635 0.428782 0
M  V30 5445 H 531.942 4.88727 0.583698 0
M  V30 5446 N 533.594 0.0601682 1.57485 0
M  V30 5447 C 534.824 -0.620037 1.97076 0
M  V30 5448 C 535.232 -1.64381 0.936784 0
M  V30 5449 O 534.575 -1.83497 -0.0863377 0
M  V30 5450 C 534.637 -1.35617 3.32939 0
M  V30 5451 C 534.301 -0.487208 4.54396 0
M  V30 5452 C 535.298 0.250428 5.19297 0
M  V30 5453 C 532.983 -0.415494 5.00579 0
M  V30 5454 C 534.977 1.04812 6.28723 0
M  V30 5455 C 532.664 0.385879 6.0988 0
M  V30 5456 C 533.662 1.11637 6.73815 0
M  V30 5457 O 533.35 1.90454 7.81014 0
M  V30 5458 H 533.082 -0.173664 0.653312 0
M  V30 5459 H 535.636 0.1256 2.05016 0
M  V30 5460 H 533.866 -2.14763 3.2158 0
M  V30 5461 H 535.555 -1.92749 3.57215 0
M  V30 5462 H 536.321 0.204546 4.84568 0
M  V30 5463 H 532.2 -0.973679 4.506 0
M  V30 5464 H 535.744 1.6188 6.78558 0
M  V30 5465 H 531.641 0.433366 6.44044 0
M  V30 5466 H 532.409 1.82762 7.97835 0
M  V30 5467 O 535.111 -1.61298 -0.0807432 0
M  V30 5468 H 535.802 -1.80309 -0.707697 0
M  V30 END ATOM
M  V30 BEGIN BOND
M  V30 END BOND
M  V30 END CTAB
M  END
$$$$
