drugbank_target|Q8AAK6 Beta-mannosidase (DB08158)
 OpenBabel12092120483D

  0  0  0     0  0            999 V3000
M  V30 BEGIN CTAB
M  V30 COUNTS 13856 14048 0 0 0
M  V30 BEGIN ATOM
M  V30 1 H -0.908 1.98254 -0.117106 0
M  V30 2 N 0 1.576 0 0
M  V30 3 C 0.933 2.03868 1.02534 0
M  V30 4 C 1.911 0.928543 1.3348 0
M  V30 5 O 3.095 1.19667 1.45644 0
M  V30 6 C 0.222 2.43627 2.35294 0
M  V30 7 C -0.732 3.65373 2.2001 0
M  V30 8 S 0.101 5.13292 1.52614 0
M  V30 9 C 1.257 5.56322 2.86805 0
M  V30 10 H 1.49 2.90518 0.631377 0
M  V30 11 H -0.977 1.52953 0.210867 0
M  V30 12 H 0.981 2.67203 3.11629 0
M  V30 13 H -0.358 1.57376 2.7183 0
M  V30 14 H -1.165 3.90944 3.18086 0
M  V30 15 H -1.563 3.418 1.51819 0
M  V30 16 H 0.729 5.58782 3.83104 0
M  V30 17 H 1.672 6.56266 2.65933 0
M  V30 18 H 2.08 4.83886 2.90714 0
M  V30 19 N 1.4781 -0.272755 1.55222 0
M  V30 20 C 2.7271 -1.00211 1.75045 0
M  V30 21 C 3.0401 -1.87441 0.559046 0
M  V30 22 O 4.2461 -2.63856 0.639698 0
M  V30 23 C 2.7021 -1.83165 3.09804 0
M  V30 24 C 2.3101 -1.008 4.36513 0
M  V30 25 C 4.0541 -2.55529 3.38977 0
M  V30 26 C 1.9611 -1.83194 5.62311 0
M  V30 27 H 0.8911 -0.377878 0.652476 0
M  V30 28 H 3.5421 -0.257776 1.8168 0
M  V30 29 H 1.9241 -2.61694 2.97207 0
M  V30 30 H 3.0981 -0.266855 4.60027 0
M  V30 31 H 1.4131 -0.398897 4.14485 0
M  V30 32 H 4.0101 -3.17578 4.30172 0
M  V30 33 H 4.3531 -3.25825 2.59121 0
M  V30 34 H 4.8861 -1.84029 3.52673 0
M  V30 35 H 1.6251 -1.17318 6.44916 0
M  V30 36 H 1.1451 -2.54905 5.4294 0
M  V30 37 H 2.8241 -2.40552 6.00619 0
M  V30 38 N 2.9562 -1.48159 -0.537278 0
M  V30 39 C 3.8862 -1.65029 -1.6519 0
M  V30 40 C 4.8672 -0.499281 -1.62607 0
M  V30 41 O 6.0522 -0.730972 -1.79918 0
M  V30 42 C 3.1822 -1.68303 -3.03795 0
M  V30 43 C 2.1362 -2.8283 -3.21234 0
M  V30 44 C 1.4622 -2.71189 -4.60826 0
M  V30 45 C 2.7622 -4.24211 -3.04701 0
M  V30 46 H 4.4562 -2.58341 -1.51328 0
M  V30 47 H 2.0022 -1.24325 -0.726585 0
M  V30 48 H 3.9552 -1.78693 -3.81637 0
M  V30 49 H 2.6792 -0.715635 -3.18663 0
M  V30 50 H 1.3382 -2.71983 -2.45807 0
M  V30 51 H 0.9862 -1.72435 -4.7252 0
M  V30 52 H 0.6862 -3.48035 -4.7344 0
M  V30 53 H 2.2102 -2.83537 -5.40777 0
M  V30 54 H 3.6242 -4.3593 -3.72341 0
M  V30 55 H 2.0212 -5.01998 -3.28813 0
M  V30 56 H 3.0912 -4.41184 -2.01209 0
M  V30 57 N 4.4343 0.785586 -1.36625 0
M  V30 58 C 5.3823 1.91978 -1.31329 0
M  V30 59 C 6.3763 1.68162 -0.204416 0
M  V30 60 O 7.5823 1.76122 -0.371645 0
M  V30 61 H 3.9573 0.631087 -0.408942 0
M  V30 62 H 5.9283 1.93562 -2.27104 0
M  V30 63 C 4.6773 3.29055 -1.12329 0
M  V30 64 H 4.0003 3.4795 -1.96903 0
M  V30 65 H 5.4403 4.08756 -1.12671 0
M  V30 66 C 3.8993 3.36461 0.171861 0
M  V30 67 O 4.4293 3.84576 1.16035 0
M  V30 68 N 2.6353 2.89782 0.217846 0
M  V30 69 H 2.1823 2.50819 -0.587183 0
M  V30 70 H 2.1403 2.95119 1.08408 0
M  V30 71 N 5.9124 1.20967 1.01018 0
M  V30 72 C 6.8424 0.988272 2.11555 0
M  V30 73 C 7.8234 -0.0849778 1.69888 0
M  V30 74 O 9.0084 0.0738202 1.9406 0
M  V30 75 C 6.1384 0.546528 3.42973 0
M  V30 76 C 5.0924 1.56375 3.9841 0
M  V30 77 C 4.4184 0.97842 5.25672 0
M  V30 78 C 5.7184 2.94922 4.31066 0
M  V30 79 H 7.4124 1.91276 2.30334 0
M  V30 80 H 4.9584 0.921073 1.1069 0
M  V30 81 H 6.9114 0.378839 4.19694 0
M  V30 82 H 5.6354 -0.413598 3.23971 0
M  V30 83 H 4.2944 1.71891 3.23804 0
M  V30 84 H 3.9424 0.0101688 5.02999 0
M  V30 85 H 3.6424 1.65784 5.63728 0
M  V30 86 H 5.1664 0.821939 6.05043 0
M  V30 87 H 6.5804 2.8288 4.9865 0
M  V30 88 H 4.9774 3.5983 4.80253 0
M  V30 89 H 6.0474 3.4616 3.39561 0
M  V30 90 N 7.3905 -1.2043 1.01659 0
M  V30 91 C 8.6185 -1.93777 0.725132 0
M  V30 92 C 9.0335 -1.74772 -0.714166 0
M  V30 93 O 8.3905 -1.06169 -1.4844 0
M  V30 94 C 8.4415 -3.45876 1.05129 0
M  V30 95 O 8.1625 -3.6426 2.43406 0
M  V30 96 C 9.6635 -4.36368 0.780891 0
M  V30 97 H 6.8835 -0.615901 0.266284 0
M  V30 98 H 9.4275 -1.52922 1.35776 0
M  V30 99 H 7.5825 -3.8461 0.464065 0
M  V30 100 H 7.9965 -4.58246 2.55169 0
M  V30 101 H 9.4705 -5.41743 1.05918 0
M  V30 102 H 9.9475 -4.38275 -0.284937 0
M  V30 103 H 10.5535 -4.03296 1.35027 0
M  V30 104 N 8.8686 -0.792821 -1.36206 0
M  V30 105 C 10.1166 -0.366062 -1.98757 0
M  V30 106 C 10.4376 1.0668 -1.63231 0
M  V30 107 O 9.7076 1.73587 -0.907978 0
M  V30 108 H 8.2876 -0.132364 -0.735179 0
M  V30 109 H 10.9496 -1.01562 -1.66347 0
M  V30 110 H 10.0456 -0.460638 -3.08682 0
M  V30 111 N 10.3467 1.47872 -0.545128 0
M  V30 112 C 11.2937 2.29849 0.2093 0
M  V30 113 C 12.2637 1.38313 0.919707 0
M  V30 114 O 13.4487 1.67277 0.917772 0
M  V30 115 C 10.5887 3.22019 1.24088 0
M  V30 116 C 9.7017 4.2864 0.537778 0
M  V30 117 C 8.8367 5.07973 1.5536 0
M  V30 118 C 7.8757 6.06381 0.8348 0
M  V30 119 N 7.0127 6.78717 1.79688 0
M  V30 120 H 11.8527 2.93845 -0.49591 0
M  V30 121 H 9.3897 1.44848 -0.256389 0
M  V30 122 H 11.3477 3.73868 1.85144 0
M  V30 123 H 9.9777 2.59914 1.91428 0
M  V30 124 H 9.0297 3.7994 -0.187046 0
M  V30 125 H 10.3417 4.98793 -0.0258907 0
M  V30 126 H 9.4957 5.63912 2.23803 0
M  V30 127 H 8.2347 4.37693 2.15118 0
M  V30 128 H 7.2397 5.49631 0.136388 0
M  V30 129 H 8.4647 6.78665 0.24313 0
M  V30 130 H 6.4107 6.11177 2.38326 0
M  V30 131 H 6.3277 7.44998 1.28505 0
M  V30 132 H 7.5957 7.39237 2.47282 0
M  V30 133 N 11.8248 0.280983 1.55075 0
M  V30 134 C 13.0738 -0.334784 1.98902 0
M  V30 135 C 13.3868 -1.56534 1.17288 0
M  V30 136 O 14.5928 -2.25443 1.51287 0
M  V30 137 C 13.0488 -0.646994 3.54037 0
M  V30 138 C 12.6568 0.564085 4.44435 0
M  V30 139 C 14.4008 -1.22506 4.06439 0
M  V30 140 C 12.3078 0.226137 5.90967 0
M  V30 141 H 11.2378 -0.128866 0.742906 0
M  V30 142 H 13.8888 0.386556 1.79382 0
M  V30 143 H 12.2708 -1.42739 3.6938 0
M  V30 144 H 13.4448 1.34082 4.40861 0
M  V30 145 H 11.7598 1.0594 4.02698 0
M  V30 146 H 14.3568 -1.49182 5.13468 0
M  V30 147 H 14.6998 -2.16085 3.55827 0
M  V30 148 H 15.2328 -0.50682 3.94558 0
M  V30 149 H 11.9718 1.12996 6.45687 0
M  V30 150 H 11.4918 -0.513717 5.97596 0
M  V30 151 H 13.1708 -0.179539 6.46751 0
M  V30 152 N 13.3029 -1.57598 0.00835791 0
M  V30 153 C 14.2659 -2.07884 -0.965242 0
M  V30 154 C 15.2659 -0.989825 -1.26725 0
M  V30 155 O 16.4559 -1.25218 -1.21104 0
M  V30 156 C 13.5879 -2.52731 -2.28779 0
M  V30 157 H 14.7809 -2.95178 -0.530112 0
M  V30 158 H 12.3339 -1.54458 -0.239283 0
M  V30 159 H 13.0689 -1.68705 -2.76964 0
M  V30 160 H 12.8539 -3.32272 -2.08177 0
M  V30 161 H 14.3439 -2.91933 -2.98605 0
M  V30 162 N 14.781 0.264519 -1.55364 0
M  V30 163 C 16.192 0.834936 -1.6699 0
M  V30 164 C 16.543 1.86718 -0.602552 0
M  V30 165 O 15.668 2.14899 0.254425 0
M  V30 166 C 16.263 1.5212 -3.02729 0
M  V30 167 C 14.822 2.03954 -3.16354 0
M  V30 168 C 13.969 0.884498 -2.62815 0
M  V30 169 H 16.92 0.0406869 -1.58648 0
M  V30 170 H 16.941 2.38853 -2.96191 0
M  V30 171 H 16.453 0.769668 -3.80392 0
M  V30 172 H 14.554 2.82041 -2.43482 0
M  V30 173 H 14.667 2.24902 -4.23032 0
M  V30 174 H 13.031 1.2802 -2.20188 0
M  V30 175 H 13.814 0.14634 -3.42988 0
M  V30 176 N 16.2591 1.48442 0.529413 0
M  V30 177 C 17.5081 1.55742 1.28169 0
M  V30 178 C 17.8211 0.236511 1.94165 0
M  V30 179 O 19.0271 0.187761 2.7085 0
M  V30 180 C 17.4831 2.74667 2.32564 0
M  V30 181 C 17.0911 4.13402 1.72636 0
M  V30 182 C 18.8351 2.9128 3.08798 0
M  V30 183 C 16.7421 5.23587 2.74975 0
M  V30 184 H 15.6721 0.579796 0.48203 0
M  V30 185 H 18.3231 1.74776 0.559056 0
M  V30 186 H 16.7051 2.49067 3.07866 0
M  V30 187 H 17.8791 4.49022 1.03519 0
M  V30 188 H 16.1941 4.0191 1.08892 0
M  V30 189 H 18.7911 3.70767 3.85274 0
M  V30 190 H 19.1341 2.00757 3.64695 0
M  V30 191 H 19.6671 3.16782 2.40611 0
M  V30 192 H 16.4061 6.16076 2.23897 0
M  V30 193 H 15.9261 4.92454 3.42417 0
M  V30 194 H 17.6051 5.51724 3.37949 0
M  V30 195 N 17.7372 -0.778329 1.37039 0
M  V30 196 C 18.7002 -1.87301 1.32102 0
M  V30 197 C 19.7002 -1.59198 0.226405 0
M  V30 198 O 20.8902 -1.67403 0.481861 0
M  V30 199 C 18.0222 -3.24309 1.05055 0
M  V30 200 H 19.2152 -1.93093 2.29467 0
M  V30 201 H 16.7682 -0.977358 1.21973 0
M  V30 202 H 17.5032 -3.24196 0.0819373 0
M  V30 203 H 17.2882 -3.46098 1.84279 0
M  V30 204 H 18.7782 -4.04382 1.04234 0
M  V30 205 N 19.2153 -1.21501 -1.00376 0
M  V30 206 C 20.4553 -1.04444 -1.75701 0
M  V30 207 C 20.8193 0.414644 -1.87469 0
M  V30 208 O 22.0203 0.705763 -2.59369 0
M  V30 209 C 20.2913 -1.72389 -3.13077 0
M  V30 210 S 21.8503 -1.70604 -4.04277 0
M  V30 211 H 18.6683 -0.374249 -0.604532 0
M  V30 212 H 21.2703 -1.54267 -1.20091 0
M  V30 213 H 19.9743 -2.77734 -3.02146 0
M  V30 214 H 19.5053 -1.22751 -3.73759 0
M  V30 215 H 21.5203 -0.748012 -4.9053 0
M  V30 216 N 20.6934 1.19889 -1.02296 0
M  V30 217 C 21.9414 1.89046 -0.714558 0
M  V30 218 C 22.2624 1.79636 0.758681 0
M  V30 219 O 21.5324 1.20292 1.54618 0
M  V30 220 H 20.1124 0.699802 -0.261317 0
M  V30 221 H 22.7744 1.45574 -1.29592 0
M  V30 222 H 21.8704 2.95524 -1.0036 0
M  V30 223 N 22.1715 0.800033 1.35784 0
M  V30 224 C 23.1015 0.220184 2.3246 0
M  V30 225 C 24.0825 -0.65073 1.57161 0
M  V30 226 O 25.2675 -0.582359 1.85263 0
M  V30 227 C 22.3975 -0.637353 3.41402 0
M  V30 228 C 21.3515 0.134531 4.27789 0
M  V30 229 C 20.6775 -0.844285 5.27992 0
M  V30 230 C 21.9775 1.32979 5.05088 0
M  V30 231 H 23.6715 1.02787 2.81203 0
M  V30 232 H 21.2175 0.495717 1.35199 0
M  V30 233 H 23.1705 -1.05302 4.08031 0
M  V30 234 H 21.8945 -1.47785 2.91251 0
M  V30 235 H 20.5535 0.531296 3.6273 0
M  V30 236 H 20.2015 -1.68011 4.74111 0
M  V30 237 H 19.9015 -0.332184 5.8666 0
M  V30 238 H 21.4255 -1.2583 5.97494 0
M  V30 239 H 22.8395 0.98934 5.64699 0
M  V30 240 H 21.2365 1.77593 5.7322 0
M  V30 241 H 22.3065 2.11978 4.36111 0
M  V30 242 N 23.6496 -1.47581 0.552962 0
M  V30 243 C 24.5796 -2.32762 -0.185451 0
M  V30 244 C 25.5606 -1.43527 -0.912905 0
M  V30 245 O 26.7456 -1.72388 -0.894201 0
M  V30 246 C 23.8756 -3.25219 -1.21859 0
M  V30 247 C 22.8296 -4.23661 -0.607864 0
M  V30 248 C 22.1556 -5.05413 -1.74533 0
M  V30 249 C 23.4556 -5.20481 0.435582 0
M  V30 250 H 25.1496 -2.94749 0.525684 0
M  V30 251 H 22.6956 -1.41738 0.254251 0
M  V30 252 H 24.6486 -3.8365 -1.7433 0
M  V30 253 H 23.3726 -2.61279 -1.95961 0
M  V30 254 H 22.0316 -3.66451 -0.104489 0
M  V30 255 H 21.6796 -4.3788 -2.47529 0
M  V30 256 H 21.3796 -5.72059 -1.34249 0
M  V30 257 H 22.9036 -5.66701 -2.27338 0
M  V30 258 H 24.3176 -5.733 -0.00290157 0
M  V30 259 H 22.7146 -5.95305 0.757067 0
M  V30 260 H 23.7846 -4.66217 1.33303 0
M  V30 261 N 25.1277 -0.289203 -1.54924 0
M  V30 262 C 26.3677 0.324536 -2.01807 0
M  V30 263 C 26.7317 1.5199 -1.17316 0
M  V30 264 O 27.9327 2.20422 -1.53843 0
M  V30 265 C 26.2037 0.683578 -3.50802 0
M  V30 266 S 27.7627 1.28185 -4.19659 0
M  V30 267 H 24.5807 0.100236 -0.703899 0
M  V30 268 H 27.1827 -0.414325 -1.91059 0
M  V30 269 H 25.8867 -0.195073 -4.09936 0
M  V30 270 H 25.4177 1.45354 -3.65562 0
M  V30 271 H 27.4327 2.57006 -4.24456 0
M  V30 272 N 26.6058 1.57591 -0.0167156 0
M  V30 273 C 27.8458 1.93145 0.668902 0
M  V30 274 C 28.2098 0.892406 1.7 0
M  V30 275 O 29.4108 1.13373 2.43721 0
M  V30 276 C 27.6818 3.33678 1.28039 0
M  V30 277 S 29.2408 3.91142 1.9888 0
M  V30 278 H 26.0588 0.67593 0.220545 0
M  V30 279 H 28.6608 1.95347 -0.0774105 0
M  V30 280 H 27.3648 4.07126 0.517339 0
M  V30 281 H 26.8958 3.3489 2.06427 0
M  V30 282 H 28.9108 3.73571 3.26587 0
M  V30 283 N 28.0839 -0.256276 1.55502 0
M  V30 284 C 29.3239 -0.993081 1.78654 0
M  V30 285 C 29.6879 -1.8288 0.584724 0
M  V30 286 O 30.8889 -2.59665 0.694822 0
M  V30 287 C 29.1599 -1.83856 3.06483 0
M  V30 288 S 30.7189 -2.63573 3.5082 0
M  V30 289 H 27.5369 -0.334199 0.62756 0
M  V30 290 H 30.1389 -0.26184 1.93739 0
M  V30 291 H 28.8429 -1.21414 3.92029 0
M  V30 292 H 28.3739 -2.61271 2.94111 0
M  V30 293 H 30.3889 -3.86312 3.11412 0
M  V30 294 N 29.562 -1.4872 -0.521534 0
M  V30 295 C 30.787 -1.61101 -1.30618 0
M  V30 296 C 31.212 -0.274611 -1.86085 0
M  V30 297 O 30.57 0.754937 -1.64834 0
M  V30 298 C 30.618 -2.66709 -2.4269 0
M  V30 299 O 29.722 -2.24456 -3.45967 0
M  V30 300 H 29.063 -0.539921 -0.386499 0
M  V30 301 H 31.593 -1.94767 -0.626645 0
M  V30 302 H 31.603 -2.88245 -2.88754 0
M  V30 303 H 30.278 -3.63727 -2.01682 0
M  V30 304 H 28.855 -2.13168 -3.05964 0
M  V30 305 N 31.0401 0.771051 -1.3745 0
M  V30 306 C 31.9731 1.89166 -1.27638 0
M  V30 307 C 32.9511 1.61842 -0.156782 0
M  V30 308 O 34.1351 1.85569 -0.331111 0
M  V30 309 C 31.2621 3.24405 -0.973621 0
M  V30 310 C 30.3081 3.70638 -2.1102 0
M  V30 311 S 31.1411 3.84228 -3.73 0
M  V30 312 C 32.2971 5.22313 -3.44876 0
M  V30 313 H 32.5301 1.972 -2.22485 0
M  V30 314 H 30.0631 0.932224 -1.23081 0
M  V30 315 H 32.0211 4.02514 -0.805766 0
M  V30 316 H 30.6821 3.14071 -0.0426279 0
M  V30 317 H 29.8751 4.68685 -1.85338 0
M  V30 318 H 29.4771 2.99632 -2.23822 0
M  V30 319 H 31.7691 6.07505 -2.99908 0
M  V30 320 H 32.7121 5.53008 -4.42253 0
M  V30 321 H 33.1201 4.90284 -2.79789 0
M  V30 322 N 32.5182 1.22032 0.997298 0
M  V30 323 C 33.7642 1.04376 1.73878 0
M  V30 324 C 34.0972 -0.420716 1.89588 0
M  V30 325 O 33.3722 -1.31202 1.43583 0
M  V30 326 C 33.6552 1.75047 3.14691 0
M  V30 327 C 33.5082 3.29062 3.06656 0
M  V30 328 C 34.8272 1.49928 4.13775 0
M  V30 329 H 31.9462 0.380578 0.631133 0
M  V30 330 H 34.5882 1.50312 1.16217 0
M  V30 331 H 32.7382 1.35996 3.63919 0
M  V30 332 H 34.4102 3.7753 2.65083 0
M  V30 333 H 32.6532 3.58967 2.43568 0
M  V30 334 H 33.3242 3.73683 4.06282 0
M  V30 335 H 35.8002 1.83842 3.73285 0
M  V30 336 H 34.6762 2.01878 5.10428 0
M  V30 337 H 34.9372 0.430929 4.39995 0
M  V30 338 N 33.9963 -1.19345 1.0293 0
M  V30 339 C 35.2263 -1.92717 0.744563 0
M  V30 340 C 35.6343 -1.75751 -0.700579 0
M  V30 341 O 34.9773 -1.07703 -1.48815 0
M  V30 342 C 35.0393 -3.44828 1.01657 0
M  V30 343 C 34.7033 -3.85564 2.45335 0
M  V30 344 C 35.7003 -3.90286 3.43472 0
M  V30 345 C 33.3853 -4.1719 2.79746 0
M  V30 346 C 35.3793 -4.26065 4.74075 0
M  V30 347 C 33.0663 -4.52642 4.10559 0
M  V30 348 C 34.0643 -4.57054 5.07534 0
M  V30 349 O 33.7523 -4.91685 6.36004 0
M  V30 350 H 33.4843 -0.618977 0.271742 0
M  V30 351 H 36.0383 -1.52415 1.37691 0
M  V30 352 H 34.2683 -3.85314 0.327084 0
M  V30 353 H 35.9573 -3.99437 0.721427 0
M  V30 354 H 36.7233 -3.66002 3.18225 0
M  V30 355 H 32.6023 -4.1294 2.04943 0
M  V30 356 H 36.1463 -4.29423 5.49765 0
M  V30 357 H 32.0433 -4.76383 4.35579 0
M  V30 358 H 32.8113 -5.09631 6.40483 0
M  V30 359 N 35.4744 -0.807222 -1.35358 0
M  V30 360 C 36.4374 -0.223665 -2.28106 0
M  V30 361 C 37.4374 0.589354 -1.4961 0
M  V30 362 O 38.6274 0.407745 -1.69361 0
M  V30 363 C 35.7594 0.688149 -3.33882 0
M  V30 364 H 36.9524 -1.04169 -2.81227 0
M  V30 365 H 34.5054 -0.577921 -1.45223 0
M  V30 366 H 35.2404 1.52984 -2.85948 0
M  V30 367 H 35.0254 0.10687 -3.91954 0
M  V30 368 H 36.5154 1.09075 -4.03104 0
M  V30 369 N 36.9525 1.47285 -0.560781 0
M  V30 370 C 37.8845 2.28118 0.222438 0
M  V30 371 C 38.8975 1.37219 0.876056 0
M  V30 372 O 40.0865 1.62011 0.749307 0
M  V30 373 C 37.1865 3.1159 1.33285 0
M  V30 374 C 36.3595 4.30473 0.77534 0
M  V30 375 C 35.4185 4.95513 1.77069 0
M  V30 376 O 34.4445 5.53792 1.31539 0
M  V30 377 N 35.6465 4.90531 3.10418 0
M  V30 378 H 38.4115 2.95976 -0.470958 0
M  V30 379 H 35.9725 1.56955 -0.39709 0
M  V30 380 H 37.9645 3.51967 1.99752 0
M  V30 381 H 36.5345 2.45951 1.92943 0
M  V30 382 H 35.7545 3.94144 -0.0662113 0
M  V30 383 H 37.0425 5.07362 0.382272 0
M  V30 384 H 36.4405 4.44389 3.5005 0
M  V30 385 H 34.9975 5.34917 3.72434 0
M  V30 386 N 38.4306 0.297415 1.54768 0
M  V30 387 C 39.6786 -0.312295 1.99673 0
M  V30 388 C 39.9996 -1.54686 1.18732 0
M  V30 389 O 39.2696 -1.93854 0.282382 0
M  V30 390 H 37.8496 -0.118381 0.73756 0
M  V30 391 H 40.5116 0.407915 1.90583 0
M  V30 392 H 39.6076 -0.586813 3.06534 0
M  V30 393 N 39.9087 -1.5758 0.0250728 0
M  V30 394 C 40.8567 -2.11125 -0.97617 0
M  V30 395 C 41.8507 -1.03689 -1.33959 0
M  V30 396 O 43.0567 -1.22128 -1.3223 0
M  V30 397 H 39.4317 -0.674468 -0.332561 0
M  V30 398 H 41.4027 -2.94194 -0.499223 0
M  V30 399 C 40.1517 -2.65017 -2.2508 0
M  V30 400 H 39.4747 -3.47333 -1.9799 0
M  V30 401 H 40.9147 -3.06133 -2.93357 0
M  V30 402 C 39.3737 -1.57574 -2.97779 0
M  V30 403 O 39.9037 -0.973203 -3.89733 0
M  V30 404 N 38.1097 -1.29716 -2.60043 0
M  V30 405 H 37.6567 -1.789 -1.85345 0
M  V30 406 H 37.6147 -0.58051 -3.08994 0
M  V30 407 N 41.3868 0.248026 -1.55636 0
M  V30 408 C 42.6638 0.998988 -1.68165 0
M  V30 409 C 43.0438 2.03409 -0.564621 0
M  V30 410 O 42.3918 2.24378 0.432076 0
M  V30 411 C 42.6018 1.63334 -3.0842 0
M  V30 412 C 43.9498 2.13562 -3.66983 0
M  V30 413 O 44.9738 1.73277 -3.11213 0
M  V30 414 O 43.8328 2.87526 -4.64749 0
M  V30 415 H 40.9268 0.464933 -0.683935 0
M  V30 416 H 43.4728 0.241902 -1.67967 0
M  V30 417 H 42.2448 0.884583 -3.8117 0
M  V30 418 H 41.8678 2.45666 -3.12624 0
M  V30 419 N 42.8649 1.48995 0.513639 0
M  V30 420 C 44.0929 1.61531 1.29288 0
M  V30 421 C 44.5079 0.281801 1.86685 0
M  V30 422 O 43.8649 -0.731111 1.67215 0
M  V30 423 C 43.9159 2.67449 2.43215 0
M  V30 424 O 43.6369 3.95626 1.88179 0
M  V30 425 C 45.1379 2.90575 3.34785 0
M  V30 426 H 42.3579 0.544165 0.392588 0
M  V30 427 H 44.9019 1.9494 0.617956 0
M  V30 428 H 43.0569 2.36853 3.0656 0
M  V30 429 H 43.4709 4.53868 2.62876 0
M  V30 430 H 44.9449 3.68449 4.11035 0
M  V30 431 H 45.4219 2.00011 3.91015 0
M  V30 432 H 46.0279 3.22538 2.77218 0
M  V30 433 N 44.343 -0.763751 1.37857 0
M  V30 434 C 45.568 -1.55805 1.36893 0
M  V30 435 C 45.993 -1.88054 -0.0416135 0
M  V30 436 O 45.351 -1.49825 -1.02089 0
M  V30 437 C 45.399 -2.84012 2.22192 0
M  V30 438 O 44.503 -3.78732 1.63204 0
M  V30 439 H 43.844 -0.471638 0.46739 0
M  V30 440 H 46.374 -0.944657 1.81487 0
M  V30 441 H 46.384 -3.33037 2.35691 0
M  V30 442 H 45.059 -2.59869 3.24716 0
M  V30 443 H 43.636 -3.37402 1.58791 0
M  V30 444 N 45.8211 -1.22559 -0.990812 0
M  V30 445 C 46.7311 -1.01394 -2.11557 0
M  V30 446 C 47.7471 0.0383962 -1.73958 0
M  V30 447 O 48.9231 -0.154787 -2.00804 0
M  V30 448 C 45.9881 -0.596569 -3.41529 0
M  V30 449 C 45.0491 -1.72276 -3.93217 0
M  V30 450 C 44.2821 -1.32521 -5.16985 0
M  V30 451 O 44.5051 -0.204909 -5.70032 0
M  V30 452 O 43.4391 -2.14247 -5.62478 0
M  V30 453 H 47.2651 -1.95633 -2.32296 0
M  V30 454 H 44.8501 -1.01172 -1.0993 0
M  V30 455 H 46.7321 -0.374263 -4.19735 0
M  V30 456 H 45.4071 0.316939 -3.22145 0
M  V30 457 H 44.3141 -1.99961 -3.16174 0
M  V30 458 H 45.6471 -2.61421 -4.17037 0
M  V30 459 N 47.2992 1.18797 -1.03562 0
M  V30 460 C 48.5452 1.8893 -0.737113 0
M  V30 461 C 48.8782 1.79837 0.732956 0
M  V30 462 O 48.1532 1.19525 1.5344 0
M  V30 463 C 48.4362 3.39607 -1.19745 0
M  V30 464 C 48.2892 3.57537 -2.72924 0
M  V30 465 C 49.6082 4.33069 -0.783526 0
M  V30 466 H 46.7272 0.686057 -0.269249 0
M  V30 467 H 49.3692 1.39797 -1.28673 0
M  V30 468 H 47.5192 3.81583 -0.729855 0
M  V30 469 H 49.1912 3.24688 -3.27682 0
M  V30 470 H 47.4342 3.00363 -3.12993 0
M  V30 471 H 48.1052 4.63238 -3.00191 0
M  V30 472 H 50.5812 3.98846 -1.18581 0
M  V30 473 H 49.4572 5.3707 -1.13343 0
M  V30 474 H 49.7182 4.40986 0.313681 0
M  V30 475 N 48.7773 0.814389 1.34928 0
M  V30 476 C 49.7103 0.175641 2.27523 0
M  V30 477 C 50.6883 -0.662953 1.48471 0
M  V30 478 O 51.8723 -0.628545 1.77712 0
M  V30 479 C 48.9993 -0.755516 3.30166 0
M  V30 480 C 48.0453 0.00445305 4.265 0
M  V30 481 S 48.8783 1.34582 5.18313 0
M  V30 482 C 50.0343 0.419315 6.24494 0
M  V30 483 H 50.2673 0.960691 2.8135 0
M  V30 484 H 47.8003 0.609846 1.41846 0
M  V30 485 H 49.7583 -1.28723 3.89796 0
M  V30 486 H 48.4193 -1.51402 2.75202 0
M  V30 487 H 47.6123 -0.703077 4.99072 0
M  V30 488 H 47.2143 0.466447 3.7108 0
M  V30 489 H 49.5063 -0.392432 6.76362 0
M  V30 490 H 50.4493 1.11446 6.99275 0
M  V30 491 H 50.8573 0.0115389 5.64499 0
M  V30 492 N 50.2554 -1.46986 0.568584 0
M  V30 493 C 51.1854 -2.32946 -0.160753 0
M  V30 494 C 52.1664 -1.44487 -0.897631 0
M  V30 495 O 53.3514 -1.73327 -0.875867 0
M  V30 496 C 50.4814 -3.26494 -1.18403 0
M  V30 497 C 49.4354 -4.24282 -0.562895 0
M  V30 498 C 48.7614 -5.07236 -1.69163 0
M  V30 499 C 50.0614 -5.19989 0.490761 0
M  V30 500 H 51.7554 -2.94175 0.556916 0
M  V30 501 H 49.3014 -1.4146 0.26927 0
M  V30 502 H 51.2544 -3.85477 -1.70251 0
M  V30 503 H 49.9784 -2.63343 -1.93179 0
M  V30 504 H 48.6374 -3.66541 -0.0656164 0
M  V30 505 H 48.2854 -4.4048 -2.42871 0
M  V30 506 H 47.9854 -5.7345 -1.28174 0
M  V30 507 H 49.5094 -5.6908 -2.21314 0
M  V30 508 H 50.9234 -5.73271 0.0579047 0
M  V30 509 H 49.3204 -5.94469 0.820165 0
M  V30 510 H 50.3904 -4.64777 1.3824 0
M  V30 511 N 51.7335 -0.305618 -1.54608 0
M  V30 512 C 52.6635 0.561482 -2.26649 0
M  V30 513 C 53.6445 1.13415 -1.26772 0
M  V30 514 O 54.8295 1.16262 -1.55553 0
M  V30 515 C 51.9595 1.73122 -3.01075 0
M  V30 516 C 50.9135 1.2887 -4.08138 0
M  V30 517 C 50.2395 2.54396 -4.70305 0
M  V30 518 C 51.5395 0.416578 -5.20636 0
M  V30 519 H 53.2335 -0.0393902 -2.99374 0
M  V30 520 H 50.7795 -0.020385 -1.43986 0
M  V30 521 H 52.7325 2.34396 -3.50195 0
M  V30 522 H 51.4565 2.3584 -2.25936 0
M  V30 523 H 50.1155 0.698991 -3.59875 0
M  V30 524 H 49.7635 3.15439 -3.918 0
M  V30 525 H 49.4635 2.25486 -5.42614 0
M  V30 526 H 50.9875 3.16464 -5.2219 0
M  V30 527 H 52.4015 0.935116 -5.65622 0
M  V30 528 H 50.7985 0.221046 -5.99693 0
M  V30 529 H 51.8685 -0.557162 -4.81688 0
M  V30 530 N 53.2116 1.57565 -0.0334293 0
M  V30 531 C 54.4886 1.83282 0.683163 0
M  V30 532 C 54.8686 0.91823 1.90084 0
M  V30 533 O 54.2166 -0.025113 2.28486 0
M  V30 534 C 54.4266 3.32599 1.0573 0
M  V30 535 C 55.7746 3.99179 1.44711 0
M  V30 536 O 56.7986 3.3712 1.15015 0
M  V30 537 O 55.6576 5.08565 2.0006 0
M  V30 538 H 52.7516 0.755869 0.335546 0
M  V30 539 H 55.2976 1.69589 -0.0614402 0
M  V30 540 H 54.0696 3.90834 0.190828 0
M  V30 541 H 53.6926 3.51415 1.85993 0
M  V30 542 N 54.6897 -0.239769 1.55765 0
M  V30 543 C 55.9177 -0.98417 1.81994 0
M  V30 544 C 56.3327 -1.7867 0.610124 0
M  V30 545 O 55.6897 -1.77571 -0.421271 0
M  V30 546 C 55.7407 -1.91635 3.06526 0
M  V30 547 O 55.4617 -1.14629 4.22838 0
M  V30 548 C 56.9627 -2.77616 3.45607 0
M  V30 549 H 54.1827 -0.28928 0.605441 0
M  V30 550 H 56.7267 -0.260499 2.02834 0
M  V30 551 H 54.8817 -2.5942 2.87715 0
M  V30 552 H 55.2957 -1.77745 4.93464 0
M  V30 553 H 56.7697 -3.38759 4.35828 0
M  V30 554 H 57.2467 -3.4909 2.6652 0
M  V30 555 H 57.8527 -2.15271 3.66795 0
M  V30 556 N 56.1678 -1.49265 -0.50573 0
M  V30 557 C 57.4158 -1.582 -1.25766 0
M  V30 558 C 57.7368 -0.268482 -1.93143 0
M  V30 559 O 57.0068 0.711833 -1.8251 0
M  V30 560 H 55.5868 -0.582873 -0.467191 0
M  V30 561 H 58.2488 -1.85865 -0.586525 0
M  V30 562 H 57.3448 -2.37563 -2.02412 0
M  V30 563 N 57.6459 0.756429 -1.3826 0
M  V30 564 C 58.8919 1.5168 -1.35517 0
M  V30 565 C 59.2469 1.9232 0.0554451 0
M  V30 566 O 58.5399 1.62352 1.01746 0
M  V30 567 C 58.7339 2.78313 -2.24224 0
M  V30 568 C 58.5629 2.50053 -3.7377 0
M  V30 569 C 57.3329 2.43414 -4.42807 0
M  V30 570 C 59.5309 2.1702 -4.66269 0
M  V30 571 N 57.5129 2.07398 -5.77805 0
M  V30 572 C 58.8839 1.91271 -5.89759 0
M  V30 573 C 60.9389 2.03305 -4.54501 0
M  V30 574 C 59.6419 1.53192 -7.02798 0
M  V30 575 C 61.6679 1.66627 -5.67441 0
M  V30 576 C 61.0299 1.4175 -6.8999 0
M  V30 577 H 57.1289 0.554735 -0.551174 0
M  V30 578 H 59.7129 0.881106 -1.73622 0
M  V30 579 H 57.8839 3.39696 -1.88311 0
M  V30 580 H 59.6159 3.44343 -2.12627 0
M  V30 581 H 56.3709 2.59789 -3.95988 0
M  V30 582 H 56.7949 1.92044 -6.4919 0
M  V30 583 H 61.4369 2.21215 -3.60311 0
M  V30 584 H 59.1549 1.34022 -7.96909 0
M  V30 585 H 62.7409 1.56652 -5.60314 0
M  V30 586 H 61.6209 1.1379 -7.759 0
M  V30 587 N 59.124 1.23083 0.984299 0
M  V30 588 C 60.034 1.02515 2.11016 0
M  V30 589 C 61.05 -0.0291702 1.73976 0
M  V30 590 O 62.226 0.165434 2.00719 0
M  V30 591 C 59.291 0.614673 3.41208 0
M  V30 592 C 58.352 1.74359 3.92297 0
M  V30 593 C 57.585 1.35261 5.16275 0
M  V30 594 O 57.808 0.235136 5.69915 0
M  V30 595 O 56.742 2.17227 5.61334 0
M  V30 596 H 60.568 1.96862 2.31255 0
M  V30 597 H 58.153 1.01753 1.09392 0
M  V30 598 H 60.035 0.396518 4.1953 0
M  V30 599 H 58.71 -0.299851 3.22308 0
M  V30 600 H 57.617 2.01635 3.1511 0
M  V30 601 H 58.95 2.63629 4.15645 0
M  V30 602 N 60.6021 -1.18246 1.0419 0
M  V30 603 C 61.8491 -1.88257 0.746017 0
M  V30 604 C 62.1771 -1.80429 -0.726331 0
M  V30 605 O 61.4321 -1.2 -1.54591 0
M  V30 606 C 61.7311 -3.38082 1.15911 0
M  V30 607 C 61.3971 -3.66114 2.63195 0
M  V30 608 C 60.0591 -3.73474 3.03432 0
M  V30 609 C 62.4111 -3.78398 3.5842 0
M  V30 610 C 59.7391 -3.90599 4.37778 0
M  V30 611 C 62.0911 -3.97039 4.92487 0
M  V30 612 C 60.7551 -4.02635 5.32392 0
M  V30 613 H 60.0251 -0.688883 0.272987 0
M  V30 614 H 62.6721 -1.3995 1.30715 0
M  V30 615 H 60.9771 -3.88377 0.516806 0
M  V30 616 H 62.6741 -3.90596 0.907516 0
M  V30 617 H 59.2641 -3.61003 2.3103 0
M  V30 618 H 63.4481 -3.72042 3.28479 0
M  V30 619 H 58.7041 -3.93175 4.68213 0
M  V30 620 H 62.8781 -4.05486 5.66175 0
M  V30 621 H 60.5051 -4.15657 6.36501 0
M  V30 622 N 62.0802 -0.821533 -1.34494 0
M  V30 623 C 63.3052 -0.420873 -2.03085 0
M  V30 624 C 63.7302 0.964915 -1.61465 0
M  V30 625 O 63.0882 1.62763 -0.798607 0
M  V30 626 C 63.1362 -0.529414 -3.56693 0
M  V30 627 O 62.2402 0.451302 -4.09923 0
M  V30 628 H 61.5812 -0.173489 -0.640935 0
M  V30 629 H 64.1112 -1.11157 -1.71771 0
M  V30 630 H 64.1212 -0.404671 -4.05988 0
M  V30 631 H 62.7962 -1.54014 -3.86332 0
M  V30 632 H 61.3732 0.285558 -3.71805 0
M  V30 633 N 63.5583 1.46682 -0.576371 0
M  V30 634 C 64.4903 2.28341 0.198231 0
M  V30 635 C 65.5033 1.38141 0.861453 0
M  V30 636 O 66.6923 1.62797 0.732082 0
M  V30 637 C 63.7923 3.12986 1.29972 0
M  V30 638 C 62.9653 4.31271 0.729639 0
M  V30 639 C 62.0243 4.97363 1.71803 0
M  V30 640 O 61.0503 5.55156 1.25658 0
M  V30 641 N 62.2523 4.93796 3.05198 0
M  V30 642 H 65.0173 2.9546 -0.502324 0
M  V30 643 H 62.5783 1.56525 -0.413715 0
M  V30 644 H 64.5703 3.54066 1.96008 0
M  V30 645 H 63.1403 2.47984 1.90323 0
M  V30 646 H 62.3603 3.94052 -0.108012 0
M  V30 647 H 63.6483 5.07739 0.328438 0
M  V30 648 H 63.0463 4.48077 3.45317 0
M  V30 649 H 61.6033 5.38837 3.6674 0
M  V30 650 N 65.0364 0.313813 1.54444 0
M  V30 651 C 66.2614 -0.296681 2.05267 0
M  V30 652 C 66.6864 -1.45757 1.18897 0
M  V30 653 O 66.0444 -1.80239 0.195886 0
M  V30 654 C 66.0924 -0.71831 3.53373 0
M  V30 655 O 65.1964 -1.82175 3.69981 0
M  V30 656 H 64.5374 -0.0554061 0.661684 0
M  V30 657 H 67.0674 0.459387 1.99376 0
M  V30 658 H 67.0774 -1.00364 3.95463 0
M  V30 659 H 65.7524 0.130821 4.15694 0
M  V30 660 H 64.3294 -1.53598 3.39797 0
M  V30 661 N 66.5145 -1.57545 0.0417849 0
M  V30 662 C 67.7625 -1.91937 -0.632829 0
M  V30 663 C 68.0835 -0.919978 -1.71934 0
M  V30 664 O 67.3535 0.0366064 -1.95866 0
M  V30 665 H 65.9335 -0.708493 -0.236742 0
M  V30 666 H 68.5955 -1.9468 0.0925745 0
M  V30 667 H 67.6915 -2.92912 -1.07746 0
M  V30 668 N 67.9926 0.231505 -1.5589 0
M  V30 669 C 69.2206 0.974505 -1.82513 0
M  V30 670 C 69.6356 1.78344 -0.619591 0
M  V30 671 O 68.9926 1.77792 0.411848 0
M  V30 672 C 69.0436 1.90007 -3.07538 0
M  V30 673 O 68.7646 1.12385 -4.2344 0
M  V30 674 C 70.2656 2.75779 -3.47075 0
M  V30 675 H 67.4856 0.286065 -0.606966 0
M  V30 676 H 70.0296 0.249739 -2.02969 0
M  V30 677 H 68.1846 2.57891 -2.89086 0
M  V30 678 H 68.5986 1.75125 -4.944 0
M  V30 679 H 70.0726 3.36443 -4.37619 0
M  V30 680 H 70.5496 3.47672 -2.68367 0
M  V30 681 H 71.1556 2.13323 -3.67931 0
M  V30 682 N 69.4707 1.49531 0.497807 0
M  V30 683 C 70.3807 1.69176 1.62532 0
M  V30 684 C 71.3967 0.5744 1.64246 0
M  V30 685 O 72.5727 0.849497 1.82608 0
M  V30 686 C 69.6377 1.75695 2.98885 0
M  V30 687 C 68.6987 2.9929 3.07773 0
M  V30 688 C 67.9317 3.05488 4.37622 0
M  V30 689 O 68.1547 2.19192 5.26603 0
M  V30 690 O 67.0887 3.9798 4.51548 0
M  V30 691 H 70.9147 2.647 1.48887 0
M  V30 692 H 68.4997 1.3331 0.674441 0
M  V30 693 H 70.3817 1.82317 3.79919 0
M  V30 694 H 69.0567 0.8335 3.12785 0
M  V30 695 H 67.9637 2.98183 2.25915 0
M  V30 696 H 69.2967 3.91125 2.98801 0
M  V30 697 N 70.9488 -0.749086 1.3866 0
M  V30 698 C 71.8958 -1.86291 1.36251 0
M  V30 699 C 72.8658 -1.64578 0.224347 0
M  V30 700 O 74.0508 -1.86181 0.417279 0
M  V30 701 C 71.1908 -3.23644 1.19786 0
M  V30 702 C 70.3038 -3.57158 2.43027 0
M  V30 703 C 69.4388 -4.83838 2.19258 0
M  V30 704 C 68.4778 -5.10152 3.38247 0
M  V30 705 N 67.6148 -6.28029 3.13884 0
M  V30 706 H 72.4548 -1.87685 2.3147 0
M  V30 707 H 69.9918 -0.917287 1.14997 0
M  V30 708 H 71.9498 -4.0291 1.08254 0
M  V30 709 H 70.5798 -3.21566 0.282031 0
M  V30 710 H 69.6318 -2.72701 2.65214 0
M  V30 711 H 70.9438 -3.7253 3.31697 0
M  V30 712 H 70.0978 -5.71057 2.04888 0
M  V30 713 H 68.8368 -4.70614 1.2796 0
M  V30 714 H 67.8418 -4.21401 3.53131 0
M  V30 715 H 69.0668 -5.25271 4.30427 0
M  V30 716 H 67.0128 -6.1612 2.25238 0
M  V30 717 H 66.9298 -6.43922 3.96106 0
M  V30 718 H 68.1978 -7.18124 3.03179 0
M  V30 719 N 72.4269 -1.23603 -0.977757 0
M  V30 720 C 73.6729 -1.08136 -1.72274 0
M  V30 721 C 74.0279 0.377453 -1.88661 0
M  V30 722 O 73.3209 1.27552 -1.42972 0
M  V30 723 C 73.5149 -1.7433 -3.11999 0
M  V30 724 C 73.3439 -3.26498 -3.0924 0
M  V30 725 C 72.1139 -3.9567 -3.14282 0
M  V30 726 C 74.3119 -4.2323 -2.92201 0
M  V30 727 N 72.2939 -5.34799 -3.01436 0
M  V30 728 C 73.6649 -5.49289 -2.87544 0
M  V30 729 C 75.7199 -4.13931 -2.76705 0
M  V30 730 C 74.4229 -6.67116 -2.68978 0
M  V30 731 C 76.4489 -5.31424 -2.59504 0
M  V30 732 C 75.8109 -6.5641 -2.55548 0
M  V30 733 H 71.9099 -0.450247 -0.639376 0
M  V30 734 H 74.4939 -1.5637 -1.16002 0
M  V30 735 H 72.6649 -1.28624 -3.66484 0
M  V30 736 H 74.3969 -1.51815 -3.75146 0
M  V30 737 H 71.1519 -3.46767 -3.22567 0
M  V30 738 H 71.5759 -6.07748 -2.98281 0
M  V30 739 H 76.2179 -3.1807 -2.78552 0
M  V30 740 H 73.9359 -7.63109 -2.65876 0
M  V30 741 H 77.5219 -5.26072 -2.48474 0
M  V30 742 H 76.4019 -7.45795 -2.42405 0
M  V30 743 N 73.905 1.17692 -1.04816 0
M  V30 744 C 74.838 2.20436 -0.590173 0
M  V30 745 C 75.816 1.58115 0.379244 0
M  V30 746 O 77 1.86228 0.291762 0
M  V30 747 C 74.127 3.38424 0.136817 0
M  V30 748 C 73.173 4.19176 -0.787023 0
M  V30 749 S 74.006 4.84815 -2.27409 0
M  V30 750 C 75.162 6.06195 -1.55817 0
M  V30 751 H 75.395 2.58944 -1.46067 0
M  V30 752 H 72.928 1.28246 -0.859784 0
M  V30 753 H 74.886 4.06798 0.550076 0
M  V30 754 H 73.547 2.98312 0.983299 0
M  V30 755 H 72.74 5.03499 -0.224681 0
M  V30 756 H 72.342 3.56219 -1.13947 0
M  V30 757 H 74.634 6.72078 -0.855387 0
M  V30 758 H 75.577 6.6695 -2.37873 0
M  V30 759 H 75.985 5.54701 -1.04722 0
M  V30 760 N 75.3831 0.828654 1.34056 0
M  V30 761 C 76.7941 0.477534 1.8049 0
M  V30 762 C 77.1451 -1.00258 1.6865 0
M  V30 763 O 76.2701 -1.78057 1.22982 0
M  V30 764 C 76.8651 0.860018 3.27703 0
M  V30 765 C 75.4241 0.561185 3.72193 0
M  V30 766 C 74.5711 1.07385 2.55663 0
M  V30 767 H 77.5221 1.0183 1.21722 0
M  V30 768 H 77.5431 0.166038 3.80138 0
M  V30 769 H 77.0551 1.93731 3.36288 0
M  V30 770 H 75.1561 -0.506465 3.69142 0
M  V30 771 H 75.2691 1.10926 4.66082 0
M  V30 772 H 73.6331 0.495149 2.49841 0
M  V30 773 H 74.4161 2.15771 2.67016 0
M  V30 774 N 76.8612 -1.46375 0.584142 0
M  V30 775 C 77.8242 -2.28784 -0.138108 0
M  V30 776 C 78.8242 -1.38471 -0.817462 0
M  V30 777 O 80.0142 -1.60833 -0.669199 0
M  V30 778 C 77.1462 -3.18892 -1.20503 0
M  V30 779 H 78.3392 -2.94117 0.586127 0
M  V30 780 H 75.8922 -1.52509 0.342171 0
M  V30 781 H 76.6272 -2.58309 -1.96079 0
M  V30 782 H 76.4122 -3.85388 -0.722384 0
M  V30 783 H 77.9022 -3.80914 -1.71155 0
M  V30 784 N 78.3393 -0.321999 -1.54275 0
M  V30 785 C 79.5673 0.283052 -2.04955 0
M  V30 786 C 79.9823 1.45904 -1.19823 0
M  V30 787 O 79.3393 1.81063 -0.228545 0
M  V30 788 C 79.3903 0.719028 -3.54277 0
M  V30 789 O 79.1113 -0.410175 -4.36176 0
M  V30 790 C 80.6123 1.38705 -4.21041 0
M  V30 791 H 77.8323 0.0584616 -0.668448 0
M  V30 792 H 80.3763 -0.467734 -1.99079 0
M  V30 793 H 78.5313 1.41979 -3.60445 0
M  V30 794 H 78.9453 -0.0669416 -5.24457 0
M  V30 795 H 80.4193 1.64306 -5.2698 0
M  V30 796 H 80.8963 2.33385 -3.72059 0
M  V30 797 H 81.5023 0.728906 -4.19007 0
M  V30 798 N 79.8174 1.5752 -0.0501392 0
M  V30 799 C 81.0634 1.92936 0.624798 0
M  V30 800 C 81.3964 0.928685 1.70555 0
M  V30 801 O 80.6714 -0.0454779 1.94447 0
M  V30 802 C 80.9544 3.38737 1.22185 0
M  V30 803 C 80.8074 4.49552 0.149218 0
M  V30 804 C 82.1264 3.84913 2.13378 0
M  V30 805 H 79.2454 0.701604 0.225657 0
M  V30 806 H 81.8874 1.89671 -0.111693 0
M  V30 807 H 80.0374 3.4165 1.84953 0
M  V30 808 H 81.7094 4.58768 -0.482648 0
M  V30 809 H 79.9524 4.30638 -0.522841 0
M  V30 810 H 80.6234 5.48653 0.606966 0
M  V30 811 H 83.0994 3.8387 1.60572 0
M  V30 812 H 81.9754 4.87584 2.52097 0
M  V30 813 H 82.2364 3.21611 3.03346 0
M  V30 814 N 81.2955 -0.223234 1.56011 0
M  V30 815 C 82.7065 -0.790368 1.69145 0
M  V30 816 C 83.0575 -1.85055 0.651845 0
M  V30 817 O 82.1825 -2.15498 -0.197359 0
M  V30 818 C 82.7775 -1.4404 3.06656 0
M  V30 819 C 81.3365 -1.95494 3.2165 0
M  V30 820 C 80.4835 -0.814506 2.65068 0
M  V30 821 H 83.4345 0.00139011 1.587 0
M  V30 822 H 83.4555 -2.30916 3.0242 0
M  V30 823 H 82.9675 -0.668543 3.82298 0
M  V30 824 H 81.0685 -2.75487 2.50874 0
M  V30 825 H 81.1815 -2.13607 4.28846 0
M  V30 826 H 79.5455 -1.22137 2.23505 0
M  V30 827 H 80.3285 -0.0553515 3.43255 0
M  V30 828 N 82.7736 -1.49793 -0.48987 0
M  V30 829 C 84.0216 -1.59525 -1.24081 0
M  V30 830 C 84.3426 -0.288953 -1.92847 0
M  V30 831 O 83.6126 0.692436 -1.83254 0
M  V30 832 H 82.1926 -0.587796 -0.460983 0
M  V30 833 H 84.8546 -1.86477 -0.566778 0
M  V30 834 H 83.9506 -2.39696 -1.99881 0
M  V30 835 N 84.2517 0.741722 -1.39055 0
M  V30 836 C 85.4797 1.53098 -1.39171 0
M  V30 837 C 85.8947 1.88794 0.0155099 0
M  V30 838 O 85.2517 1.53626 0.985159 0
M  V30 839 C 85.3027 2.82274 -2.2584 0
M  V30 840 O 85.0237 2.48097 -3.61081 0
M  V30 841 C 86.5247 3.76343 -2.34266 0
M  V30 842 H 83.7447 0.473335 -0.4756 0
M  V30 843 H 86.2887 0.917045 -1.82785 0
M  V30 844 H 84.4437 3.40015 -1.85656 0
M  V30 845 H 84.8577 3.31029 -4.06842 0
M  V30 846 H 86.3317 4.63898 -2.9917 0
M  V30 847 H 86.8087 4.17619 -1.35982 0
M  V30 848 H 87.4147 3.24523 -2.74891 0
M  V30 849 N 85.7298 1.2412 0.971189 0
M  V30 850 C 86.9758 1.08041 1.71625 0
M  V30 851 C 87.3088 -0.380407 1.90438 0
M  V30 852 O 86.5838 -1.28127 1.46334 0
M  V30 853 C 86.8668 1.81682 3.10908 0
M  V30 854 C 86.7198 3.35493 2.99608 0
M  V30 855 C 88.0388 1.58671 4.10501 0
M  V30 856 H 85.1578 0.39388 0.622919 0
M  V30 857 H 87.7998 1.52743 1.13003 0
M  V30 858 H 85.9498 1.43684 3.60953 0
M  V30 859 H 87.6218 3.83068 2.57015 0
M  V30 860 H 85.8648 3.64052 2.35899 0
M  V30 861 H 86.5358 3.82217 3.98264 0
M  V30 862 H 89.0118 1.91719 3.69301 0
M  V30 863 H 87.8878 2.1266 5.06031 0
M  V30 864 H 88.1488 0.524161 4.38982 0
M  V30 865 N 87.2079 -1.17134 1.05439 0
M  V30 866 C 88.1579 -2.1919 0.627675 0
M  V30 867 C 89.1419 -1.57328 -0.337147 0
M  V30 868 O 90.3339 -1.76329 -0.153976 0
M  V30 869 C 87.4629 -3.43299 0.00651435 0
M  V30 870 C 86.5489 -4.12255 0.995312 0
M  V30 871 N 86.9399 -4.56997 2.16765 0
M  V30 872 C 85.2379 -4.38316 0.824336 0
M  V30 873 C 85.9389 -5.10239 2.7934 0
M  V30 874 N 84.9149 -5.02595 2.07122 0
M  V30 875 H 88.7169 -2.5149 1.52086 0
M  V30 876 H 86.2309 -1.33491 0.924868 0
M  V30 877 H 88.2279 -4.15693 -0.316965 0
M  V30 878 H 86.8879 -3.1249 -0.882033 0
M  V30 879 H 87.8989 -4.51006 2.54587 0
M  V30 880 H 84.5759 -4.17498 -0.0129526 0
M  V30 881 H 85.9659 -5.54961 3.78772 0
M  V30 882 N 88.686 -0.835752 -1.33615 0
M  V30 883 C 89.618 -0.224151 -2.28101 0
M  V30 884 C 90.631 0.593331 -1.51603 0
M  V30 885 O 91.82 0.420911 -1.73466 0
M  V30 886 C 88.92 0.703309 -3.31522 0
M  V30 887 C 88.093 -0.0741528 -4.37337 0
M  V30 888 C 87.152 0.776176 -5.20444 0
M  V30 889 O 86.178 0.216506 -5.68788 0
M  V30 890 N 87.38 2.09401 -5.41416 0
M  V30 891 H 90.145 -1.03598 -2.81225 0
M  V30 892 H 87.706 -0.69392 -1.46275 0
M  V30 893 H 89.698 1.27707 -3.84022 0
M  V30 894 H 88.268 1.41585 -2.78698 0
M  V30 895 H 87.488 -0.82928 -3.85378 0
M  V30 896 H 88.776 -0.608863 -5.05144 0
M  V30 897 H 88.174 2.57229 -5.03835 0
M  V30 898 H 86.731 2.61633 -5.96985 0
M  V30 899 N 90.1641 1.46063 -0.591896 0
M  V30 900 C 91.4411 1.95595 -0.0137119 0
M  V30 901 C 91.8211 1.5345 1.4497 0
M  V30 902 O 91.1691 0.789543 2.14426 0
M  V30 903 C 91.3791 3.48453 -0.195373 0
M  V30 904 C 92.7271 4.24546 -0.0679765 0
M  V30 905 O 93.7511 3.55982 -0.124681 0
M  V30 906 O 92.6101 5.46467 0.0600579 0
M  V30 907 H 89.7041 0.825795 0.0446279 0
M  V30 908 H 92.2501 1.56303 -0.660859 0
M  V30 909 H 91.0221 3.72045 -1.21235 0
M  V30 910 H 90.6451 3.94597 0.487775 0
M  V30 911 N 91.6422 0.330177 1.54103 0
M  V30 912 C 92.5722 -0.525353 2.27513 0
M  V30 913 C 93.5532 -1.11383 1.2856 0
M  V30 914 O 94.7382 -1.13773 1.57383 0
M  V30 915 C 91.8682 -1.6831 3.03791 0
M  V30 916 C 90.8222 -1.2236 4.10137 0
M  V30 917 C 90.1482 -2.46882 4.74293 0
M  V30 918 C 91.4482 -0.333697 5.21233 0
M  V30 919 H 93.1422 0.087013 2.99274 0
M  V30 920 H 90.6882 0.0432893 1.43935 0
M  V30 921 H 92.6412 -2.28795 3.5388 0
M  V30 922 H 91.3652 -2.32216 2.29659 0
M  V30 923 H 90.0242 -0.64165 3.60941 0
M  V30 924 H 89.6722 -3.09165 3.96769 0
M  V30 925 H 89.3722 -2.16825 5.46133 0
M  V30 926 H 90.8962 -3.08117 5.27159 0
M  V30 927 H 92.3102 -0.845013 5.67038 0
M  V30 928 H 90.7072 -0.125612 5.99969 0
M  V30 929 H 91.7772 0.633724 4.80741 0
M  V30 930 N 93.1203 -1.57491 0.0584922 0
M  V30 931 C 94.3693 -1.92155 -0.613146 0
M  V30 932 C 94.6823 -0.939334 -1.71569 0
M  V30 933 O 95.8883 -1.17829 -2.44599 0
M  V30 934 C 94.3443 -3.41303 -1.14195 0
M  V30 935 C 93.9523 -4.47944 -0.0711265 0
M  V30 936 C 95.6963 -3.84988 -1.78841 0
M  V30 937 C 93.6033 -5.88212 -0.613225 0
M  V30 938 H 92.5333 -0.717162 -0.232796 0
M  V30 939 H 95.1843 -1.83049 0.12857 0
M  V30 940 H 93.5663 -3.45437 -1.93621 0
M  V30 941 H 94.7403 -4.55408 0.702836 0
M  V30 942 H 93.0553 -4.13644 0.478313 0
M  V30 943 H 95.6523 -4.87159 -2.20408 0
M  V30 944 H 95.9953 -3.21632 -2.64308 0
M  V30 945 H 96.5283 -3.83401 -1.06059 0
M  V30 946 H 93.2673 -6.55183 0.203978 0
M  V30 947 H 92.7873 -5.84294 -1.35501 0
M  V30 948 H 94.4663 -6.37687 -1.09383 0
M  V30 949 N 94.5984 0.214957 -1.56127 0
M  V30 950 C 95.8234 0.95924 -1.83884 0
M  V30 951 C 96.2484 1.7689 -0.639644 0
M  V30 952 O 95.6064 1.76566 0.411601 0
M  V30 953 C 95.6544 1.84723 -3.09693 0
M  V30 954 O 94.7584 2.94346 -2.8885 0
M  V30 955 H 94.0994 0.27125 -0.606069 0
M  V30 956 H 96.6294 0.226276 -2.03345 0
M  V30 957 H 96.6394 2.25576 -3.39969 0
M  V30 958 H 95.3144 1.25218 -3.96602 0
M  V30 959 H 93.8914 2.57391 -2.69823 0
M  V30 960 N 96.0765 1.50051 0.48192 0
M  V30 961 C 97.0265 1.64512 1.5786 0
M  V30 962 C 98.0105 0.500073 1.52932 0
M  V30 963 O 99.2025 0.753964 1.60139 0
M  V30 964 C 96.3315 1.73263 2.9637 0
M  V30 965 C 95.4175 2.93409 3.06222 0
M  V30 966 N 95.8085 4.17236 2.85915 0
M  V30 967 C 94.1065 2.91742 3.37346 0
M  V30 968 C 94.8075 4.981 3.00451 0
M  V30 969 N 93.7835 4.3184 3.30174 0
M  V30 970 H 97.5855 2.57955 1.40842 0
M  V30 971 H 95.0995 1.47086 0.688439 0
M  V30 972 H 97.0965 1.81724 3.75209 0
M  V30 973 H 95.7565 0.809711 3.14442 0
M  V30 974 H 96.7675 4.46909 2.6171 0
M  V30 975 H 93.4445 2.08907 3.61475 0
M  V30 976 H 94.8345 6.06532 2.89082 0
M  V30 977 N 97.5546 -0.734337 1.39446 0
M  V30 978 C 98.4646 -1.87879 1.40495 0
M  V30 979 C 99.4806 -1.714 0.299672 0
M  V30 980 O 100.657 -1.93991 0.541249 0
M  V30 981 C 97.7216 -3.23477 1.24754 0
M  V30 982 C 96.7826 -3.52344 2.45259 0
M  V30 983 C 96.0156 -4.81473 2.30259 0
M  V30 984 O 96.2386 -5.55237 1.30643 0
M  V30 985 O 95.1726 -5.10254 3.19256 0
M  V30 986 H 98.9986 -1.89949 2.36966 0
M  V30 987 H 96.5836 -0.882243 1.20569 0
M  V30 988 H 98.4656 -4.04509 1.18111 0
M  V30 989 H 97.1406 -3.22176 0.313781 0
M  V30 990 H 96.0476 -2.71396 2.57478 0
M  V30 991 H 97.3806 -3.58426 3.37331 0
M  V30 992 N 99.0327 -1.24633 -0.964593 0
M  V30 993 C 99.9627 -1.06611 -2.07741 0
M  V30 994 C 100.944 0.0218666 -1.70086 0
M  V30 995 O 102.129 -0.145793 -1.93652 0
M  V30 996 C 99.2587 -0.673444 -3.40708 0
M  V30 997 C 98.2127 -1.71054 -3.92332 0
M  V30 998 C 97.5387 -1.17285 -5.21678 0
M  V30 999 C 98.8387 -3.10718 -4.19824 0
M  V30 1000 H 100.533 -1.99693 -2.23076 0
M  V30 1001 H 98.0787 -0.96152 -1.07195 0
M  V30 1002 H 100.032 -0.534345 -4.17998 0
M  V30 1003 H 98.7557 0.293073 -3.25282 0
M  V30 1004 H 97.4147 -1.83791 -3.17201 0
M  V30 1005 H 97.0627 -0.196847 -5.02615 0
M  V30 1006 H 96.7627 -1.86592 -5.57187 0
M  V30 1007 H 98.2867 -1.04593 -6.01575 0
M  V30 1008 H 99.7007 -3.01192 -4.87808 0
M  V30 1009 H 98.0977 -3.77406 -4.66567 0
M  V30 1010 H 99.1677 -3.58524 -3.26479 0
M  V30 1011 N 100.511 1.16574 -1.06058 0
M  V30 1012 C 101.441 2.23057 -0.690488 0
M  V30 1013 C 102.422 1.67141 0.315901 0
M  V30 1014 O 103.607 1.93253 0.191556 0
M  V30 1015 C 100.737 3.47222 -0.073625 0
M  V30 1016 C 99.6908 4.16016 -1.00573 0
M  V30 1017 C 99.0168 5.34104 -0.252289 0
M  V30 1018 C 100.317 4.67264 -2.33371 0
M  V30 1019 H 102.011 2.54271 -1.58072 0
M  V30 1020 H 99.5568 1.22218 -0.76149 0
M  V30 1021 H 101.51 4.20939 0.19714 0
M  V30 1022 H 100.234 3.15302 0.85161 0
M  V30 1023 H 98.8928 3.44223 -1.2612 0
M  V30 1024 H 98.5408 4.98437 0.675988 0
M  V30 1025 H 98.2408 5.81072 -0.873455 0
M  V30 1026 H 99.7648 6.10599 0.0109857 0
M  V30 1027 H 101.179 5.32573 -2.12223 0
M  V30 1028 H 99.5758 5.24843 -2.90963 0
M  V30 1029 H 100.646 3.83602 -2.96611 0
M  V30 1030 N 101.989 0.842826 1.3317 0
M  V30 1031 C 103.4 0.496651 1.79973 0
M  V30 1032 C 103.751 -0.984641 1.69703 0
M  V30 1033 O 102.876 -1.76743 1.24863 0
M  V30 1034 C 103.471 0.894727 3.26772 0
M  V30 1035 C 102.03 0.600629 3.71577 0
M  V30 1036 C 101.177 1.10091 2.5451 0
M  V30 1037 H 104.128 1.03116 1.20635 0
M  V30 1038 H 104.149 0.206347 3.7994 0
M  V30 1039 H 103.661 1.97287 3.34215 0
M  V30 1040 H 101.762 -0.467284 3.69658 0
M  V30 1041 H 101.875 1.15863 4.64879 0
M  V30 1042 H 100.239 0.52162 2.49301 0
M  V30 1043 H 101.022 2.18591 2.64713 0
M  V30 1044 N 103.467 -1.45747 0.599634 0
M  V30 1045 C 104.415 -2.322 -0.136426 0
M  V30 1046 C 105.409 -1.45497 -0.867583 0
M  V30 1047 O 106.615 -1.62027 -0.78405 0
M  V30 1048 H 102.99 -0.749368 -0.0628588 0
M  V30 1049 H 104.961 -2.92072 0.611281 0
M  V30 1050 C 103.71 -3.28974 -1.12567 0
M  V30 1051 H 103.033 -3.9568 -0.572484 0
M  V30 1052 H 104.473 -3.92212 -1.61077 0
M  V30 1053 C 102.932 -2.55561 -2.19523 0
M  V30 1054 O 103.462 -2.33111 -3.27143 0
M  V30 1055 N 101.668 -2.15832 -1.94589 0
M  V30 1056 H 101.215 -2.3429 -1.07078 0
M  V30 1057 H 101.173 -1.67034 -2.66359 0
M  V30 1058 N 104.945 -0.338344 -1.53925 0
M  V30 1059 C 106.356 0.146651 -1.86123 0
M  V30 1060 C 106.707 1.5042 -1.2597 0
M  V30 1061 O 105.832 2.08723 -0.571294 0
M  V30 1062 C 106.427 0.272879 -3.37699 0
M  V30 1063 C 104.986 0.702103 -3.69794 0
M  V30 1064 C 104.133 -0.167304 -2.76795 0
M  V30 1065 H 107.084 -0.558123 -1.48562 0
M  V30 1066 H 107.105 1.10128 -3.64214 0
M  V30 1067 H 106.617 -0.715307 -3.81451 0
M  V30 1068 H 104.718 1.6995 -3.31584 0
M  V30 1069 H 104.831 0.495604 -4.7653 0
M  V30 1070 H 103.195 0.359527 -2.5215 0
M  V30 1071 H 103.978 -1.15253 -3.23375 0
M  V30 1072 N 106.423 1.57458 -0.0668435 0
M  V30 1073 C 107.67 1.93301 0.603406 0
M  V30 1074 C 107.998 0.946486 1.69917 0
M  V30 1075 O 107.253 -0.0387021 1.95662 0
M  V30 1076 C 107.552 3.35784 1.22409 0
M  V30 1077 C 107.218 4.50179 0.254955 0
M  V30 1078 C 105.88 4.81199 -0.0116746 0
M  V30 1079 C 108.232 5.19598 -0.408338 0
M  V30 1080 C 105.56 5.78978 -0.94877 0
M  V30 1081 C 107.912 6.18381 -1.33372 0
M  V30 1082 C 106.576 6.47821 -1.60887 0
M  V30 1083 H 105.846 0.707338 0.220802 0
M  V30 1084 H 108.493 1.91012 -0.136665 0
M  V30 1085 H 106.798 3.34515 2.03978 0
M  V30 1086 H 108.495 3.60804 1.74989 0
M  V30 1087 H 105.085 4.25983 0.472954 0
M  V30 1088 H 109.269 4.95832 -0.215456 0
M  V30 1089 H 104.525 6.00115 -1.16925 0
M  V30 1090 H 108.699 6.71277 -1.85367 0
M  V30 1091 H 106.326 7.23399 -2.33661 0
M  V30 1092 N 107.901 -0.206675 1.56239 0
M  V30 1093 C 109.131 -0.943975 1.83773 0
M  V30 1094 C 109.539 -1.77841 0.645703 0
M  V30 1095 O 108.882 -1.79403 -0.395008 0
M  V30 1096 C 108.944 -1.899 3.05251 0
M  V30 1097 C 108.608 -1.24764 4.39639 0
M  V30 1098 C 109.605 -0.630216 5.16066 0
M  V30 1099 C 107.29 -1.25496 4.8637 0
M  V30 1100 C 109.284 -0.0287946 6.37393 0
M  V30 1101 C 106.971 -0.649698 6.07637 0
M  V30 1102 C 107.969 -0.0376845 6.8299 0
M  V30 1103 O 107.657 0.55812 8.0196 0
M  V30 1104 H 107.389 -0.281508 0.614597 0
M  V30 1105 H 109.943 -0.222458 2.04192 0
M  V30 1106 H 108.173 -2.6599 2.80689 0
M  V30 1107 H 109.862 -2.5031 3.1953 0
M  V30 1108 H 110.628 -0.616785 4.81062 0
M  V30 1109 H 106.507 -1.72072 4.27683 0
M  V30 1110 H 110.051 0.449518 6.9615 0
M  V30 1111 H 105.948 -0.660592 6.42111 0
M  V30 1112 H 106.716 0.453891 8.17241 0
M  V30 1113 N 109.379 -1.50304 -0.473955 0
M  V30 1114 C 110.627 -1.60832 -1.22382 0
M  V30 1115 C 110.948 -0.30939 -1.9253 0
M  V30 1116 O 110.218 0.67296 -1.83978 0
M  V30 1117 H 108.798 -0.592652 -0.454723 0
M  V30 1118 H 111.46 -1.87068 -0.546968 0
M  V30 1119 H 110.556 -2.41803 -1.97327 0
M  V30 1120 N 110.857 0.726932 -1.39834 0
M  V30 1121 C 111.79 1.8501 -1.33592 0
M  V30 1122 C 112.768 1.61262 -0.208191 0
M  V30 1123 O 113.952 1.84422 -0.389981 0
M  V30 1124 C 111.079 3.21143 -1.07633 0
M  V30 1125 C 110.125 3.63737 -2.22705 0
M  V30 1126 S 110.958 3.72167 -3.85035 0
M  V30 1127 C 112.114 5.11077 -3.61318 0
M  V30 1128 H 112.347 1.90022 -2.28646 0
M  V30 1129 H 109.88 0.892595 -1.25985 0
M  V30 1130 H 111.838 3.99747 -0.933415 0
M  V30 1131 H 110.499 3.13776 -0.142526 0
M  V30 1132 H 109.692 4.62551 -2.00155 0
M  V30 1133 H 109.294 2.9236 -2.33242 0
M  V30 1134 H 111.586 5.97656 -3.19083 0
M  V30 1135 H 112.529 5.38658 -4.59623 0
M  V30 1136 H 112.937 4.81135 -2.95245 0
M  V30 1137 N 112.336 1.25143 0.95797 0
M  V30 1138 C 113.284 1.05019 2.07542 0
M  V30 1139 C 114.278 -0.0178751 1.69391 0
M  V30 1140 O 115.484 0.137472 1.79474 0
M  V30 1141 H 111.859 0.32265 0.679265 0
M  V30 1142 H 113.83 1.99759 2.21673 0
M  V30 1143 C 112.579 0.682074 3.40944 0
M  V30 1144 H 111.902 1.49573 3.70767 0
M  V30 1145 H 113.342 0.580945 4.20001 0
M  V30 1146 C 111.801 -0.611608 3.31302 0
M  V30 1147 O 112.331 -1.65465 3.66038 0
M  V30 1148 N 110.537 -0.595982 2.84423 0
M  V30 1149 H 110.084 0.253192 2.56353 0
M  V30 1150 H 110.042 -1.46173 2.78354 0
M  V30 1151 N 113.814 -1.1601 1.06675 0
M  V30 1152 C 114.724 -2.24156 0.692179 0
M  V30 1153 C 115.74 -1.71507 -0.293513 0
M  V30 1154 O 116.916 -2.009 -0.141861 0
M  V30 1155 C 113.981 -3.46587 0.0884131 0
M  V30 1156 C 113.042 -4.14257 1.12646 0
M  V30 1157 C 112.275 -5.30844 0.551416 0
M  V30 1158 O 112.498 -5.66858 -0.634656 0
M  V30 1159 O 111.432 -5.87848 1.29298 0
M  V30 1160 H 115.258 -2.58513 1.59388 0
M  V30 1161 H 112.843 -1.23599 0.83926 0
M  V30 1162 H 114.725 -4.20679 -0.246361 0
M  V30 1163 H 113.4 -3.13994 -0.786712 0
M  V30 1164 H 112.307 -3.42118 1.51348 0
M  V30 1165 H 113.64 -4.50914 1.97325 0
M  V30 1166 N 115.292 -0.849877 -1.32721 0
M  V30 1167 C 116.239 -0.289033 -2.28983 0
M  V30 1168 C 117.209 0.601324 -1.54833 0
M  V30 1169 O 118.394 0.537253 -1.8308 0
M  V30 1170 C 115.534 0.520623 -3.4115 0
M  V30 1171 C 114.647 -0.394989 -4.3019 0
M  V30 1172 C 113.782 0.426834 -5.29482 0
M  V30 1173 C 112.821 -0.486476 -6.10164 0
M  V30 1174 N 111.958 0.297879 -7.01468 0
M  V30 1175 H 116.798 -1.11519 -2.76347 0
M  V30 1176 H 114.335 -0.56138 -1.35967 0
M  V30 1177 H 116.293 1.00563 -4.04899 0
M  V30 1178 H 114.923 1.31165 -2.9495 0
M  V30 1179 H 113.975 -0.99836 -3.67065 0
M  V30 1180 H 115.287 -1.09612 -4.86607 0
M  V30 1181 H 114.441 0.975205 -5.98811 0
M  V30 1182 H 113.18 1.16136 -4.73671 0
M  V30 1183 H 112.185 -1.04677 -5.39743 0
M  V30 1184 H 113.41 -1.21953 -6.6806 0
M  V30 1185 H 111.356 1.01558 -6.48091 0
M  V30 1186 H 111.273 -0.344318 -7.55216 0
M  V30 1187 H 112.541 0.828131 -7.75089 0
M  V30 1188 N 116.77 1.45427 -0.607355 0
M  V30 1189 C 117.717 2.3053 0.111625 0
M  V30 1190 C 118.687 1.4209 0.860216 0
M  V30 1191 O 119.872 1.71019 0.845998 0
M  V30 1192 C 117.012 3.26992 1.10319 0
M  V30 1193 C 116.125 4.30535 0.355493 0
M  V30 1194 C 115.26 5.14105 1.33676 0
M  V30 1195 C 114.299 6.09376 0.576862 0
M  V30 1196 N 113.436 6.85727 1.5074 0
M  V30 1197 H 118.276 2.91477 -0.620093 0
M  V30 1198 H 115.813 1.43631 -0.317594 0
M  V30 1199 H 117.771 3.81385 1.6912 0
M  V30 1200 H 116.401 2.67799 1.80232 0
M  V30 1201 H 115.453 3.78805 -0.348023 0
M  V30 1202 H 116.765 4.98235 -0.237423 0
M  V30 1203 H 115.919 5.72897 1.99684 0
M  V30 1204 H 114.658 4.46423 1.9636 0
M  V30 1205 H 113.663 5.49715 -0.0968519 0
M  V30 1206 H 114.888 6.79085 -0.0449341 0
M  V30 1207 H 112.834 6.20735 2.12189 0
M  V30 1208 H 112.751 7.49778 0.967913 0
M  V30 1209 H 114.019 7.4906 2.15706 0
M  V30 1210 N 118.248 0.346503 1.53744 0
M  V30 1211 C 119.497 -0.250122 2.00143 0
M  V30 1212 C 119.81 -1.51418 1.23822 0
M  V30 1213 O 121.016 -2.18823 1.60713 0
M  V30 1214 C 119.472 -0.496252 3.56462 0
M  V30 1215 C 119.08 0.752077 4.41642 0
M  V30 1216 C 120.824 -1.05157 4.11269 0
M  V30 1217 C 118.731 0.476583 5.89477 0
M  V30 1218 H 117.661 -0.0972409 0.747703 0
M  V30 1219 H 120.312 0.46229 1.77581 0
M  V30 1220 H 118.694 -1.26944 3.75102 0
M  V30 1221 H 119.868 1.5266 4.34778 0
M  V30 1222 H 118.183 1.22925 3.97842 0
M  V30 1223 H 120.78 -1.27269 5.19333 0
M  V30 1224 H 121.123 -2.00799 3.64672 0
M  V30 1225 H 121.656 -0.339019 3.96353 0
M  V30 1226 H 118.395 1.4028 6.40314 0
M  V30 1227 H 117.915 -0.259794 5.99237 0
M  V30 1228 H 119.594 0.0949315 6.4693 0
M  V30 1229 N 119.726 -1.57421 0.075193 0
M  V30 1230 C 120.658 -2.09904 -0.920483 0
M  V30 1231 C 121.671 -1.03191 -1.25918 0
M  V30 1232 O 122.86 -1.30695 -1.21577 0
M  V30 1233 C 119.96 -2.54726 -2.23534 0
M  V30 1234 C 119.133 -3.8505 -2.07498 0
M  V30 1235 C 118.192 -4.15929 -3.22319 0
M  V30 1236 O 117.218 -4.85474 -2.9716 0
M  V30 1237 N 118.42 -3.69745 -4.47514 0
M  V30 1238 H 121.185 -2.95954 -0.472359 0
M  V30 1239 H 118.746 -1.61523 -0.110444 0
M  V30 1240 H 120.738 -2.72443 -2.9926 0
M  V30 1241 H 119.308 -1.73795 -2.59835 0
M  V30 1242 H 118.528 -3.76679 -1.16219 0
M  V30 1243 H 119.816 -4.70348 -1.94038 0
M  V30 1244 H 119.214 -3.13569 -4.7084 0
M  V30 1245 H 117.771 -3.92655 -5.20255 0
M  V30 1246 N 121.204 0.198386 -1.56346 0
M  V30 1247 C 122.45 0.916115 -1.81601 0
M  V30 1248 C 122.805 1.81025 -0.651744 0
M  V30 1249 O 122.098 1.88316 0.353229 0
M  V30 1250 C 122.292 1.77031 -3.10475 0
M  V30 1251 C 122.121 0.960365 -4.39326 0
M  V30 1252 C 120.891 0.646093 -5.01152 0
M  V30 1253 C 123.089 0.314628 -5.13337 0
M  V30 1254 N 121.071 -0.182828 -6.13628 0
M  V30 1255 C 122.442 -0.37664 -6.18855 0
M  V30 1256 C 124.497 0.230019 -4.97368 0
M  V30 1257 C 123.2 -1.14445 -7.10137 0
M  V30 1258 C 125.226 -0.524389 -5.89071 0
M  V30 1259 C 124.588 -1.20412 -6.94032 0
M  V30 1260 H 120.687 0.314732 -0.715868 0
M  V30 1261 H 123.271 0.185102 -1.93818 0
M  V30 1262 H 121.442 2.47295 -2.99499 0
M  V30 1263 H 123.174 2.42727 -3.2383 0
M  V30 1264 H 119.929 0.969724 -4.63566 0
M  V30 1265 H 120.353 -0.586802 -6.74452 0
M  V30 1266 H 124.995 0.741184 -4.16253 0
M  V30 1267 H 122.713 -1.66706 -7.90718 0
M  V30 1268 H 126.299 -0.591167 -5.78789 0
M  V30 1269 H 125.179 -1.77853 -7.63766 0
M  V30 1270 N 122.682 1.50554 0.465978 0
M  V30 1271 C 123.928 1.62038 1.21949 0
M  V30 1272 C 124.261 0.322116 1.9151 0
M  V30 1273 O 123.536 -0.676723 1.82348 0
M  V30 1274 C 123.819 2.80421 2.25912 0
M  V30 1275 C 123.672 4.20144 1.60622 0
M  V30 1276 C 124.991 2.94354 3.27176 0
M  V30 1277 H 122.11 0.589752 0.441998 0
M  V30 1278 H 124.752 1.82956 0.51257 0
M  V30 1279 H 122.902 2.62717 2.86203 0
M  V30 1280 H 124.574 4.49449 1.03889 0
M  V30 1281 H 122.817 4.24165 0.909211 0
M  V30 1282 H 123.488 4.98914 2.36196 0
M  V30 1283 H 125.964 3.10578 2.76913 0
M  V30 1284 H 124.84 3.788 3.97242 0
M  V30 1285 H 125.101 2.05186 3.916 0
M  V30 1286 N 124.16 -0.719506 1.40217 0
M  V30 1287 C 125.07 -1.86378 1.42479 0
M  V30 1288 C 126.086 -1.71073 0.317834 0
M  V30 1289 O 127.262 -1.93406 0.561794 0
M  V30 1290 C 124.327 -3.22136 1.28178 0
M  V30 1291 C 123.388 -3.49723 2.48982 0
M  V30 1292 C 122.621 -4.79004 2.35353 0
M  V30 1293 O 122.844 -5.53821 1.36524 0
M  V30 1294 O 121.778 -5.06839 3.2465 0
M  V30 1295 H 125.604 -1.87425 2.38968 0
M  V30 1296 H 123.189 -0.869405 1.21498 0
M  V30 1297 H 125.071 -4.03234 1.22395 0
M  V30 1298 H 123.746 -3.21825 0.347934 0
M  V30 1299 H 122.653 -2.6865 2.60342 0
M  V30 1300 H 123.986 -3.54828 3.41113 0
M  V30 1301 N 125.638 -1.25649 -0.95132 0
M  V30 1302 C 126.586 -1.06118 -2.06982 0
M  V30 1303 C 127.58 0.00889169 -1.69398 0
M  V30 1304 O 128.786 -0.146988 -1.79399 0
M  V30 1305 H 125.161 -0.326248 -0.677544 0
M  V30 1306 H 127.132 -2.00932 -2.2061 0
M  V30 1307 C 125.881 -0.700145 -3.40578 0
M  V30 1308 H 125.204 -1.51537 -3.69968 0
M  V30 1309 H 126.644 -0.603211 -4.19687 0
M  V30 1310 C 125.103 0.59403 -3.31622 0
M  V30 1311 O 125.633 1.63522 -3.66911 0
M  V30 1312 N 123.839 0.58089 -2.84735 0
M  V30 1313 H 123.386 -0.266783 -2.56215 0
M  V30 1314 H 123.344 1.44695 -2.79125 0
M  V30 1315 N 127.117 1.15442 -1.07289 0
M  V30 1316 C 128.027 2.23786 -0.704057 0
M  V30 1317 C 129.043 1.7166 0.284413 0
M  V30 1318 O 130.219 2.00972 0.131205 0
M  V30 1319 C 127.284 3.46535 -0.106792 0
M  V30 1320 C 126.345 4.13654 -1.14842 0
M  V30 1321 C 125.578 5.30544 -0.57956 0
M  V30 1322 O 125.801 5.67187 0.604585 0
M  V30 1323 O 124.735 5.87154 -1.32414 0
M  V30 1324 H 128.561 2.57664 -1.60757 0
M  V30 1325 H 126.146 1.23152 -0.845803 0
M  V30 1326 H 128.028 4.20804 0.224048 0
M  V30 1327 H 126.703 3.14407 0.770049 0
M  V30 1328 H 125.61 3.4131 -1.5316 0
M  V30 1329 H 126.943 4.49861 -1.99714 0
M  V30 1330 N 128.595 0.856903 1.32268 0
M  V30 1331 C 129.872 0.382583 1.91822 0
M  V30 1332 C 130.252 -1.13407 1.78051 0
M  V30 1333 O 129.6 -1.95673 1.18001 0
M  V30 1334 C 129.81 0.849446 3.38505 0
M  V30 1335 C 131.158 0.867936 4.15634 0
M  V30 1336 O 132.182 0.794232 3.47232 0
M  V30 1337 O 131.041 0.972286 5.37781 0
M  V30 1338 H 128.135 0.112014 0.819379 0
M  V30 1339 H 130.681 0.943952 1.41024 0
M  V30 1340 H 129.453 1.89267 3.42482 0
M  V30 1341 H 129.076 0.265652 3.96712 0
M  V30 1342 N 130.073 -1.45103 0.615059 0
M  V30 1343 C 131.319 -2.03035 0.121804 0
M  V30 1344 C 131.674 -1.47393 -1.23665 0
M  V30 1345 O 130.967 -0.642061 -1.80522 0
M  V30 1346 C 131.161 -3.57386 0.0318797 0
M  V30 1347 C 130.99 -4.28 1.38007 0
M  V30 1348 C 129.76 -4.65624 1.9627 0
M  V30 1349 C 131.958 -4.5948 2.31047 0
M  V30 1350 N 129.94 -5.21132 3.24492 0
M  V30 1351 C 131.311 -5.159 3.43872 0
M  V30 1352 C 133.366 -4.41423 2.30326 0
M  V30 1353 C 132.069 -5.56165 4.5615 0
M  V30 1354 C 134.095 -4.82726 3.41658 0
M  V30 1355 C 133.457 -5.39245 4.53205 0
M  V30 1356 H 129.556 -0.77702 0.0881159 0
M  V30 1357 H 132.14 -1.76819 0.815044 0
M  V30 1358 H 130.311 -3.83247 -0.630599 0
M  V30 1359 H 132.043 -4.01976 -0.468721 0
M  V30 1360 H 128.798 -4.49421 1.49392 0
M  V30 1361 H 129.222 -5.53377 3.90004 0
M  V30 1362 H 133.864 -3.97033 1.45343 0
M  V30 1363 H 131.582 -5.99517 5.41854 0
M  V30 1364 H 135.168 -4.7048 3.42257 0
M  V30 1365 H 134.048 -5.70616 5.37929 0
M  V30 1366 N 131.551 -0.354651 -1.53558 0
M  V30 1367 C 132.461 0.50515 -2.29097 0
M  V30 1368 C 133.477 1.10223 -1.34636 0
M  V30 1369 O 134.653 1.11553 -1.67684 0
M  V30 1370 C 131.718 1.63479 -3.05738 0
M  V30 1371 C 130.779 1.06636 -4.15845 0
M  V30 1372 C 130.012 2.14217 -4.88822 0
M  V30 1373 O 130.235 3.35137 -4.61562 0
M  V30 1374 O 129.169 1.77887 -5.75013 0
M  V30 1375 H 132.995 -0.109237 -3.03503 0
M  V30 1376 H 130.58 -0.119357 -1.48922 0
M  V30 1377 H 132.462 2.2918 -3.5363 0
M  V30 1378 H 131.137 2.23478 -2.34178 0
M  V30 1379 H 130.044 0.373565 -3.7223 0
M  V30 1380 H 131.377 0.511081 -4.89539 0
M  V30 1381 N 133.029 1.57378 -0.0835403 0
M  V30 1382 C 134.259 1.97975 0.590713 0
M  V30 1383 C 134.667 0.961083 1.62972 0
M  V30 1384 O 134.01 -0.0590879 1.83605 0
M  V30 1385 C 134.072 3.34915 1.3066 0
M  V30 1386 C 133.736 4.55069 0.419698 0
M  V30 1387 C 134.733 5.18868 -0.32749 0
M  V30 1388 C 132.418 5.0114 0.341137 0
M  V30 1389 C 134.412 6.27098 -1.14134 0
M  V30 1390 C 132.099 6.0924 -0.476374 0
M  V30 1391 C 133.097 6.72083 -1.21627 0
M  V30 1392 O 132.785 7.781 -2.02028 0
M  V30 1393 H 132.517 0.655818 0.163947 0
M  V30 1394 H 135.071 2.04807 -0.156021 0
M  V30 1395 H 133.301 3.24733 2.09966 0
M  V30 1396 H 134.99 3.60037 1.87424 0
M  V30 1397 H 135.756 4.84211 -0.276459 0
M  V30 1398 H 131.635 4.51996 0.90668 0
M  V30 1399 H 135.179 6.7608 -1.71935 0
M  V30 1400 H 131.076 6.43329 -0.528927 0
M  V30 1401 H 131.844 7.95034 -1.94586 0
M  V30 1402 N 134.507 -0.190092 1.56449 0
M  V30 1403 C 135.923 -0.54113 1.50146 0
M  V30 1404 C 136.123 -1.85603 0.784465 0
M  V30 1405 O 135.179 -2.5024 0.337051 0
M  V30 1406 C 136.492 -0.591241 2.9483 0
M  V30 1407 C 138.04 -0.679732 3.0553 0
M  V30 1408 C 138.515 -0.760908 4.51635 0
M  V30 1409 N 140.006 -0.824302 4.55806 0
M  V30 1410 C 140.741 -0.907365 5.66175 0
M  V30 1411 N 140.237 -0.952422 6.86222 0
M  V30 1412 N 142.03 -0.94494 5.541 0
M  V30 1413 H 134.181 0.67235 2.01478 0
M  V30 1414 H 136.444 0.240127 0.917084 0
M  V30 1415 H 136.15 0.305905 3.50367 0
M  V30 1416 H 136.024 -1.44422 3.48457 0
M  V30 1417 H 138.411 -1.56731 2.50039 0
M  V30 1418 H 138.492 0.199549 2.5502 0
M  V30 1419 H 138.136 0.122336 5.07753 0
M  V30 1420 H 138.066 -1.65606 4.99882 0
M  V30 1421 H 140.557 -0.798526 3.69367 0
M  V30 1422 H 140.87 -1.01645 7.66086 0
M  V30 1423 H 139.215 -0.921014 6.8887 0
M  V30 1424 H 142.406 -0.906612 4.59236 0
M  V30 1425 H 142.579 -1.00622 6.4014 0
M  V30 1426 N 135.985 -1.50799 -0.457987 0
M  V30 1427 C 137.213 -1.66218 -1.23203 0
M  V30 1428 C 137.628 -0.350894 -1.85511 0
M  V30 1429 O 136.985 0.668546 -1.69814 0
M  V30 1430 C 137.036 -2.76291 -2.33121 0
M  V30 1431 O 136.757 -4.02338 -1.73366 0
M  V30 1432 C 138.258 -3.028 -3.2377 0
M  V30 1433 H 135.478 -0.558361 -0.372121 0
M  V30 1434 H 138.022 -1.97099 -0.545179 0
M  V30 1435 H 136.177 -2.48068 -2.97558 0
M  V30 1436 H 136.591 -4.63312 -2.4585 0
M  V30 1437 H 138.065 -3.8345 -3.97077 0
M  V30 1438 H 138.542 -2.14385 -3.83322 0
M  V30 1439 H 139.148 -3.32604 -2.65056 0
M  V30 1440 N 137.463 0.71206 -1.40597 0
M  V30 1441 C 138.688 1.50617 -1.42581 0
M  V30 1442 C 139.113 1.88079 -0.0282102 0
M  V30 1443 O 138.471 1.53511 0.964579 0
M  V30 1444 C 138.519 2.7557 -2.3258 0
M  V30 1445 O 137.623 3.72414 -1.77148 0
M  V30 1446 H 136.964 0.453966 -0.484573 0
M  V30 1447 H 139.494 0.876649 -1.84868 0
M  V30 1448 H 139.504 3.2406 -2.47889 0
M  V30 1449 H 138.179 2.47639 -3.34138 0
M  V30 1450 H 136.756 3.31276 -1.71204 0
M  V30 1451 N 138.941 1.26152 0.944643 0
M  V30 1452 C 140.188 1.11492 1.69044 0
M  V30 1453 C 140.516 -0.342366 1.91463 0
M  V30 1454 O 139.771 -1.26812 1.49054 0
M  V30 1455 C 140.07 1.82541 3.07268 0
M  V30 1456 C 139.736 3.32445 3.04616 0
M  V30 1457 C 138.398 3.73337 3.036 0
M  V30 1458 C 140.75 4.28171 2.97185 0
M  V30 1459 C 138.078 5.08348 2.92915 0
M  V30 1460 C 140.43 5.63218 2.88041 0
M  V30 1461 C 139.094 6.03426 2.85366 0
M  V30 1462 H 138.364 0.407977 0.618576 0
M  V30 1463 H 141.011 1.56551 1.10291 0
M  V30 1464 H 139.316 1.29941 3.69625 0
M  V30 1465 H 141.013 1.68642 3.63815 0
M  V30 1466 H 137.603 2.99915 3.06185 0
M  V30 1467 H 141.787 3.97563 2.97081 0
M  V30 1468 H 137.043 5.38667 2.89219 0
M  V30 1469 H 141.217 6.37078 2.81254 0
M  V30 1470 H 138.844 7.07999 2.76842 0
M  V30 1471 N 140.419 -1.14872 1.07899 0
M  V30 1472 C 141.668 -1.85135 0.800499 0
M  V30 1473 C 141.981 -1.83547 -0.676014 0
M  V30 1474 O 143.187 -2.49548 -1.06948 0
M  V30 1475 C 141.643 -3.3231 1.38197 0
M  V30 1476 C 141.251 -3.42329 2.8899 0
M  V30 1477 C 142.995 -4.0772 1.18174 0
M  V30 1478 C 140.902 -4.83684 3.403 0
M  V30 1479 H 139.832 -0.693563 0.29578 0
M  V30 1480 H 142.483 -1.29532 1.29976 0
M  V30 1481 H 140.865 -3.87618 0.810431 0
M  V30 1482 H 142.039 -2.97097 3.52236 0
M  V30 1483 H 140.354 -2.80369 3.07867 0
M  V30 1484 H 142.951 -5.12049 1.5398 0
M  V30 1485 H 143.294 -4.16124 0.12117 0
M  V30 1486 H 143.827 -3.58696 1.71994 0
M  V30 1487 H 140.566 -4.80465 4.45907 0
M  V30 1488 H 140.086 -5.29474 2.81811 0
M  V30 1489 H 141.765 -5.52558 3.36584 0
M  V30 1490 N 141.898 -0.863906 -1.31812 0
M  V30 1491 C 143.144 -0.472535 -1.97218 0
M  V30 1492 C 143.477 0.971394 -1.68159 0
M  V30 1493 O 142.752 1.68309 -0.974798 0
M  V30 1494 C 143.035 -0.723054 -3.52766 0
M  V30 1495 C 142.888 -2.21608 -3.91421 0
M  V30 1496 C 144.207 -0.185522 -4.39709 0
M  V30 1497 H 141.326 -0.173158 -0.71637 0
M  V30 1498 H 143.968 -1.08403 -1.56041 0
M  V30 1499 H 142.118 -0.202577 -3.87971 0
M  V30 1500 H 143.79 -2.80334 -3.66347 0
M  V30 1501 H 142.033 -2.691 -3.40246 0
M  V30 1502 H 142.704 -2.34203 -4.99853 0
M  V30 1503 H 145.18 -0.630726 -4.11292 0
M  V30 1504 H 144.056 -0.390306 -5.47511 0
M  V30 1505 H 144.317 0.912229 -4.32586 0
M  V30 1506 N 143.376 1.44774 -0.622745 0
M  V30 1507 C 144.601 2.06999 -0.128968 0
M  V30 1508 C 145.026 1.4617 1.1839 0
M  V30 1509 O 144.384 0.560007 1.72434 0
M  V30 1510 C 144.432 3.60595 -0.0188351 0
M  V30 1511 O 143.536 3.99398 1.02739 0
M  V30 1512 H 142.877 0.659047 -0.0809544 0
M  V30 1513 H 145.407 1.85784 -0.85705 0
M  V30 1514 H 145.417 4.07627 0.174476 0
M  V30 1515 H 144.092 4.04252 -0.977384 0
M  V30 1516 H 142.669 3.64011 0.809326 0
M  V30 1517 N 144.854 0.36279 1.53368 0
M  V30 1518 C 145.764 -0.492994 2.29362 0
M  V30 1519 C 146.78 -1.09507 1.35219 0
M  V30 1520 O 147.956 -1.10662 1.68273 0
M  V30 1521 C 145.021 -1.61855 3.066 0
M  V30 1522 C 144.082 -1.04429 4.16405 0
M  V30 1523 C 143.315 -2.11621 4.89951 0
M  V30 1524 O 143.538 -3.32684 4.63333 0
M  V30 1525 O 142.472 -1.74835 5.75948 0
M  V30 1526 H 146.298 0.125331 3.03441 0
M  V30 1527 H 143.883 0.127253 1.48857 0
M  V30 1528 H 145.765 -2.27302 3.54841 0
M  V30 1529 H 144.44 -2.22233 2.3536 0
M  V30 1530 H 143.347 -0.353819 3.72423 0
M  V30 1531 H 144.68 -0.485113 4.89804 0
M  V30 1532 N 146.332 -1.57332 0.0918853 0
M  V30 1533 C 147.242 -2.17368 -0.882505 0
M  V30 1534 C 148.258 -1.14226 -1.31257 0
M  V30 1535 O 149.434 -1.46582 -1.38115 0
M  V30 1536 C 146.499 -2.73962 -2.12476 0
M  V30 1537 C 145.56 -3.92048 -1.7492 0
M  V30 1538 C 144.793 -4.45933 -2.93223 0
M  V30 1539 O 145.016 -3.98764 -4.07852 0
M  V30 1540 O 143.95 -5.36999 -2.71875 0
M  V30 1541 H 147.776 -3.01031 -0.40172 0
M  V30 1542 H 145.361 -1.48813 -0.132291 0
M  V30 1543 H 147.243 -3.10147 -2.85283 0
M  V30 1544 H 145.918 -1.93347 -2.59613 0
M  V30 1545 H 144.825 -3.6068 -0.993025 0
M  V30 1546 H 146.158 -4.74017 -1.32548 0
M  V30 1547 N 147.81 0.181792 -1.56548 0
M  V30 1548 C 148.742 1.24956 -1.92142 0
M  V30 1549 C 149.755 1.41022 -0.813422 0
M  V30 1550 O 150.944 1.41212 -1.09186 0
M  V30 1551 C 148.044 2.61981 -2.14987 0
M  V30 1552 C 147.217 2.6735 -3.46183 0
M  V30 1553 C 146.276 3.85664 -3.5798 0
M  V30 1554 O 145.302 3.72148 -4.30691 0
M  V30 1555 N 146.504 5.01683 -2.92053 0
M  V30 1556 H 149.269 0.947329 -2.84334 0
M  V30 1557 H 146.83 0.371629 -1.57577 0
M  V30 1558 H 148.822 3.3958 -2.20154 0
M  V30 1559 H 147.392 2.84637 -1.2923 0
M  V30 1560 H 146.612 1.75925 -3.52766 0
M  V30 1561 H 147.9 2.67939 -4.32534 0
M  V30 1562 H 147.298 5.15564 -2.32832 0
M  V30 1563 H 145.855 5.77181 -3.0283 0
M  V30 1564 N 149.288 1.51039 0.449983 0
M  V30 1565 C 150.218 1.74379 1.55288 0
M  V30 1566 C 151.199 0.593236 1.5942 0
M  V30 1567 O 152.384 0.834625 1.7535 0
M  V30 1568 C 149.514 1.85728 2.93466 0
M  V30 1569 C 148.468 3.01078 3.04197 0
M  V30 1570 C 147.794 2.97595 4.44231 0
M  V30 1571 C 149.094 4.41254 2.7945 0
M  V30 1572 H 150.788 2.66725 1.36008 0
M  V30 1573 H 148.334 1.2835 0.652864 0
M  V30 1574 H 150.287 2.0064 3.70569 0
M  V30 1575 H 149.011 0.900207 3.13949 0
M  V30 1576 H 147.67 2.85851 2.29531 0
M  V30 1577 H 147.318 1.99691 4.61663 0
M  V30 1578 H 147.018 3.75046 4.52343 0
M  V30 1579 H 148.542 3.14583 5.23326 0
M  V30 1580 H 149.956 4.56897 3.46292 0
M  V30 1581 H 148.353 5.20315 2.98985 0
M  V30 1582 H 149.423 4.52164 1.75144 0
M  V30 1583 N 150.766 -0.704594 1.40972 0
M  V30 1584 C 151.714 -1.83994 1.42299 0
M  V30 1585 C 152.708 -1.66684 0.302111 0
M  V30 1586 O 153.914 -1.73655 0.473697 0
M  V30 1587 H 150.289 -0.606171 0.44504 0
M  V30 1588 H 152.26 -1.79992 2.38003 0
M  V30 1589 C 151.009 -3.21946 1.31323 0
M  V30 1590 H 150.332 -3.35878 2.16855 0
M  V30 1591 H 151.772 -4.01491 1.36311 0
M  V30 1592 C 150.231 -3.36891 0.0245977 0
M  V30 1593 O 150.761 -3.90687 -0.934153 0
M  V30 1594 N 148.967 -2.90559 -0.0485243 0
M  V30 1595 H 148.514 -2.46968 0.732419 0
M  V30 1596 H 148.472 -3.00937 -0.910171 0
M  V30 1597 N 152.244 -1.26651 -0.937939 0
M  V30 1598 C 153.66 -1.03834 -1.21205 0
M  V30 1599 C 153.86 0.234502 -2.00131 0
M  V30 1600 O 152.916 0.942767 -2.3424 0
M  V30 1601 C 154.229 -2.27167 -1.97017 0
M  V30 1602 C 155.777 -2.32101 -2.09996 0
M  V30 1603 C 156.252 -3.55136 -2.8921 0
M  V30 1604 N 157.743 -3.55632 -2.96783 0
M  V30 1605 C 158.478 -4.475 -3.58512 0
M  V30 1606 N 157.974 -5.4966 -4.21717 0
M  V30 1607 N 159.767 -4.35145 -3.55816 0
M  V30 1608 H 151.918 -2.08398 -0.410391 0
M  V30 1609 H 154.181 -0.916031 -0.244114 0
M  V30 1610 H 153.887 -3.19765 -1.46434 0
M  V30 1611 H 153.761 -2.31672 -2.97671 0
M  V30 1612 H 156.148 -1.40015 -2.59769 0
M  V30 1613 H 156.229 -2.31605 -1.08594 0
M  V30 1614 H 155.873 -4.47553 -2.40123 0
M  V30 1615 H 155.803 -3.5288 -3.90875 0
M  V30 1616 H 158.294 -2.81743 -2.51852 0
M  V30 1617 H 158.607 -6.15943 -4.66727 0
M  V30 1618 H 156.952 -5.53514 -4.20294 0
M  V30 1619 H 160.143 -3.5455 -3.05634 0
M  V30 1620 H 160.316 -5.06934 -4.03636 0
M  V30 1621 N 153.722 1.14298 -1.08507 0
M  V30 1622 C 154.999 1.81544 -0.728088 0
M  V30 1623 C 155.379 1.95838 0.78808 0
M  V30 1624 O 154.727 1.51904 1.70697 0
M  V30 1625 C 154.937 3.17169 -1.45619 0
M  V30 1626 C 156.285 3.9265 -1.61591 0
M  V30 1627 O 157.309 3.26762 -1.41793 0
M  V30 1628 O 156.168 5.10807 -1.94263 0
M  V30 1629 H 153.262 0.78491 -0.260471 0
M  V30 1630 H 155.808 1.21307 -1.18671 0
M  V30 1631 H 154.58 3.01934 -2.489 0
M  V30 1632 H 154.203 3.851 -0.989124 0
M  V30 1633 N 155.201 0.870884 1.31352 0
M  V30 1634 C 156.449 0.48132 1.96285 0
M  V30 1635 C 156.77 -0.969813 1.69173 0
M  V30 1636 O 156.04 -1.67998 1.00764 0
M  V30 1637 H 154.62 0.175002 0.726212 0
M  V30 1638 H 157.282 1.11087 1.60143 0
M  V30 1639 H 156.378 0.639825 3.05471 0
M  V30 1640 N 156.679 -1.44442 0.630414 0
M  V30 1641 C 157.928 -2.01267 0.132073 0
M  V30 1642 C 158.241 -1.50172 -1.25331 0
M  V30 1643 O 159.447 -1.9912 -1.84562 0
M  V30 1644 C 157.903 -3.59422 0.185362 0
M  V30 1645 C 157.511 -4.19514 1.57201 0
M  V30 1646 C 159.255 -4.23724 -0.256553 0
M  V30 1647 C 157.162 -5.69891 1.58045 0
M  V30 1648 H 156.092 -0.752619 0.0456092 0
M  V30 1649 H 158.743 -1.65666 0.789106 0
M  V30 1650 H 157.125 -3.92318 -0.538759 0
M  V30 1651 H 158.299 -3.98156 2.31966 0
M  V30 1652 H 156.614 -3.67496 1.95795 0
M  V30 1653 H 159.211 -5.34019 -0.269767 0
M  V30 1654 H 159.554 -3.96013 -1.28372 0
M  V30 1655 H 160.087 -3.95629 0.41505 0
M  V30 1656 H 156.826 -6.02336 2.58597 0
M  V30 1657 H 156.346 -5.93373 0.875725 0
M  V30 1658 H 158.025 -6.33515 1.31408 0
M  V30 1659 N 158.157 -0.370918 -1.53173 0
M  V30 1660 C 159.089 0.507823 -2.23503 0
M  V30 1661 C 160.102 1.04182 -1.251 0
M  V30 1662 O 161.291 0.947286 -1.5129 0
M  V30 1663 C 158.391 1.71447 -2.92334 0
M  V30 1664 C 157.564 1.31105 -4.17289 0
M  V30 1665 C 156.623 2.38035 -4.69282 0
M  V30 1666 O 155.649 2.00204 -5.32829 0
M  V30 1667 N 156.851 3.69697 -4.47554 0
M  V30 1668 H 159.616 -0.0946382 -2.99551 0
M  V30 1669 H 157.177 -0.196358 -1.60705 0
M  V30 1670 H 159.169 2.42469 -3.24023 0
M  V30 1671 H 157.739 2.22368 -2.19707 0
M  V30 1672 H 156.959 0.430462 -3.91843 0
M  V30 1673 H 158.247 1.0179 -4.98514 0
M  V30 1674 H 157.645 4.03205 -3.9679 0
M  V30 1675 H 156.202 4.36807 -4.8378 0
M  V30 1676 N 159.635 1.57281 -0.100228 0
M  V30 1677 C 160.565 2.17328 0.853857 0
M  V30 1678 C 161.546 1.10804 1.2906 0
M  V30 1679 O 162.731 1.38963 1.35657 0
M  V30 1680 C 159.861 2.75772 2.11109 0
M  V30 1681 C 158.815 3.87713 1.81279 0
M  V30 1682 C 158.141 4.32882 3.13874 0
M  V30 1683 C 159.441 5.10677 1.09574 0
M  V30 1684 H 161.135 2.97305 0.353545 0
M  V30 1685 H 158.681 1.43009 0.168612 0
M  V30 1686 H 160.634 3.16433 2.78296 0
M  V30 1687 H 159.358 1.93057 2.63432 0
M  V30 1688 H 158.017 3.476 1.16489 0
M  V30 1689 H 157.665 3.47051 3.64095 0
M  V30 1690 H 157.365 5.08358 2.94696 0
M  V30 1691 H 158.889 4.7618 3.82211 0
M  V30 1692 H 160.303 5.48474 1.66879 0
M  V30 1693 H 158.7 5.91615 1.00557 0
M  V30 1694 H 159.77 4.84835 0.0793299 0
M  V30 1695 N 161.113 -0.173488 1.56642 0
M  V30 1696 C 162.362 -0.888758 1.81063 0
M  V30 1697 C 162.675 -1.83506 0.67712 0
M  V30 1698 O 163.881 -2.59254 0.806206 0
M  V30 1699 C 162.337 -1.63091 3.20826 0
M  V30 1700 C 161.945 -0.728357 4.4204 0
M  V30 1701 C 163.689 -2.33454 3.54541 0
M  V30 1702 C 161.596 -1.47062 5.72823 0
M  V30 1703 H 160.526 -0.335618 0.675186 0
M  V30 1704 H 163.177 -0.141712 1.82952 0
M  V30 1705 H 161.559 -2.42263 3.13248 0
M  V30 1706 H 162.733 0.0262449 4.60793 0
M  V30 1707 H 161.048 -0.134492 4.16183 0
M  V30 1708 H 163.645 -2.89578 4.49498 0
M  V30 1709 H 163.988 -3.08687 2.79317 0
M  V30 1710 H 164.521 -1.61227 3.63663 0
M  V30 1711 H 161.26 -0.760658 6.51072 0
M  V30 1712 H 160.78 -2.1986 5.58052 0
M  V30 1713 H 162.459 -2.01868 6.14702 0
M  V30 1714 N 162.591 -1.51276 -0.441967 0
M  V30 1715 C 163.838 -1.63715 -1.19179 0
M  V30 1716 C 164.166 -0.351175 -1.91303 0
M  V30 1717 O 163.421 0.664524 -1.84072 0
M  V30 1718 C 163.72 -2.78746 -2.23686 0
M  V30 1719 C 163.386 -4.18189 -1.68607 0
M  V30 1720 C 162.048 -4.56125 -1.53308 0
M  V30 1721 C 164.4 -5.05222 -1.28062 0
M  V30 1722 C 161.728 -5.78804 -0.959317 0
M  V30 1723 C 164.08 -6.28476 -0.721162 0
M  V30 1724 C 162.744 -6.65188 -0.55504 0
M  V30 1725 H 162.014 -0.599076 -0.436106 0
M  V30 1726 H 164.661 -1.85296 -0.48351 0
M  V30 1727 H 162.966 -2.51369 -3.00535 0
M  V30 1728 H 164.663 -2.8557 -2.81515 0
M  V30 1729 H 161.253 -3.88277 -1.8149 0
M  V30 1730 H 165.437 -4.76524 -1.38704 0
M  V30 1731 H 160.693 -6.05899 -0.81833 0
M  V30 1732 H 164.867 -6.95259 -0.398458 0
M  V30 1733 H 162.494 -7.60123 -0.108311 0
M  V30 1734 N 164.069 0.697108 -1.41344 0
M  V30 1735 C 164.979 1.84088 -1.45427 0
M  V30 1736 C 165.995 1.70545 -0.34501 0
M  V30 1737 O 167.171 1.92488 -0.592492 0
M  V30 1738 C 164.236 3.20056 -1.33286 0
M  V30 1739 C 163.297 3.45718 -2.54514 0
M  V30 1740 C 162.53 4.75199 -2.42944 0
M  V30 1741 O 162.753 5.51579 -1.45318 0
M  V30 1742 O 161.687 5.0161 -3.32672 0
M  V30 1743 H 165.513 1.836 -2.41919 0
M  V30 1744 H 163.098 0.849966 -1.22866 0
M  V30 1745 H 164.98 4.01236 -1.28794 0
M  V30 1746 H 163.655 3.2123 -0.39909 0
M  V30 1747 H 162.562 2.64474 -2.64583 0
M  V30 1748 H 163.895 3.49356 -3.46715 0
M  V30 1749 N 165.547 1.27147 0.931209 0
M  V30 1750 C 166.795 1.13055 1.6752 0
M  V30 1751 C 167.116 -0.324791 1.92276 0
M  V30 1752 O 166.386 -1.22775 1.52654 0
M  V30 1753 H 164.966 0.415391 0.620854 0
M  V30 1754 H 167.628 1.59623 1.11833 0
M  V30 1755 H 166.724 1.65694 2.64485 0
M  V30 1756 N 167.025 -1.13721 1.09112 0
M  V30 1757 C 167.955 -2.21148 0.749385 0
M  V30 1758 C 168.936 -1.6792 -0.271475 0
M  V30 1759 O 170.121 -1.93693 -0.140251 0
M  V30 1760 C 167.251 -3.46905 0.165659 0
M  V30 1761 C 166.205 -4.13203 1.11567 0
M  V30 1762 C 165.531 -5.33248 0.393809 0
M  V30 1763 C 166.831 -4.60912 2.45678 0
M  V30 1764 H 168.525 -2.4999 1.64758 0
M  V30 1765 H 166.071 -1.20156 0.793626 0
M  V30 1766 H 168.024 -4.21313 -0.085466 0
M  V30 1767 H 166.748 -3.17449 -0.767714 0
M  V30 1768 H 165.407 -3.40758 1.35202 0
M  V30 1769 H 165.055 -5.00054 -0.543599 0
M  V30 1770 H 164.755 -5.78552 1.02721 0
M  V30 1771 H 166.279 -6.10413 0.150908 0
M  V30 1772 H 167.693 -5.26759 2.26269 0
M  V30 1773 H 166.09 -5.16944 3.04776 0
M  V30 1774 H 167.16 -3.75603 3.06677 0
M  V30 1775 N 168.503 -0.877838 -1.30888 0
M  V30 1776 C 169.78 -0.413052 -1.91189 0
M  V30 1777 C 170.16 1.1056 -1.79832 0
M  V30 1778 O 169.508 1.93771 -1.21099 0
M  V30 1779 C 169.718 -0.903191 -3.3711 0
M  V30 1780 C 171.066 -0.93395 -4.14201 0
M  V30 1781 O 172.09 -0.849373 -3.45925 0
M  V30 1782 O 170.949 -1.05772 -5.36167 0
M  V30 1783 H 168.043 -0.125035 -0.817493 0
M  V30 1784 H 170.589 -0.966269 -1.39504 0
M  V30 1785 H 169.361 -1.94692 -3.39427 0
M  V30 1786 H 168.984 -0.328732 -3.96239 0
M  V30 1787 N 169.982 1.44106 -0.638065 0
M  V30 1788 C 171.21 2.06336 -0.152615 0
M  V30 1789 C 171.625 1.47731 1.17563 0
M  V30 1790 O 170.982 0.602806 1.72257 0
M  V30 1791 C 171.033 3.61479 -0.0391491 0
M  V30 1792 O 170.754 4.17903 -1.31487 0
M  V30 1793 C 172.255 4.40757 0.474176 0
M  V30 1794 H 169.475 0.665862 -0.0828776 0
M  V30 1795 H 172.019 1.84862 -0.87443 0
M  V30 1796 H 170.174 3.82191 0.633142 0
M  V30 1797 H 170.588 5.11416 -1.16421 0
M  V30 1798 H 172.062 5.49707 0.502562 0
M  V30 1799 H 172.539 4.12697 1.50258 0
M  V30 1800 H 173.145 4.24979 -0.165102 0
M  V30 1801 N 171.46 0.379036 1.52974 0
M  V30 1802 C 172.69 -0.20649 2.05566 0
M  V30 1803 C 173.098 -1.41906 1.25137 0
M  V30 1804 O 172.441 -1.81421 0.288464 0
M  V30 1805 C 172.503 -0.651086 3.53555 0
M  V30 1806 C 172.167 0.446626 4.54812 0
M  V30 1807 C 173.164 1.30079 5.03364 0
M  V30 1808 C 170.849 0.610719 4.98573 0
M  V30 1809 C 172.843 2.30426 5.94292 0
M  V30 1810 C 170.53 1.61754 5.89304 0
M  V30 1811 C 171.528 2.46274 6.37054 0
M  V30 1812 O 171.216 3.45237 7.25994 0
M  V30 1813 H 170.948 -0.0372381 0.674974 0
M  V30 1814 H 173.502 0.539718 1.98182 0
M  V30 1815 H 171.732 -1.44911 3.58522 0
M  V30 1816 H 173.421 -1.16112 3.88938 0
M  V30 1817 H 174.187 1.18527 4.70294 0
M  V30 1818 H 170.066 -0.0374044 4.60985 0
M  V30 1819 H 173.61 2.96432 6.31485 0
M  V30 1820 H 169.507 1.73348 6.21788 0
M  V30 1821 H 170.275 3.41124 7.44027 0
M  V30 1822 N 172.938 -1.57226 0.108567 0
M  V30 1823 C 173.901 -2.13602 -0.831082 0
M  V30 1824 C 174.901 -1.06841 -1.20173 0
M  V30 1825 O 176.091 -1.32666 -1.12895 0
M  V30 1826 C 173.223 -2.66769 -2.12243 0
M  V30 1827 H 174.416 -2.97951 -0.341317 0
M  V30 1828 H 171.969 -1.55667 -0.14057 0
M  V30 1829 H 172.704 -1.85977 -2.65675 0
M  V30 1830 H 172.489 -3.44839 -1.86625 0
M  V30 1831 H 173.979 -3.10332 -2.79435 0
M  V30 1832 N 174.416 0.165178 -1.56732 0
M  V30 1833 C 175.693 0.908443 -1.73224 0
M  V30 1834 C 176.073 2.0013 -0.67165 0
M  V30 1835 O 175.421 2.26353 0.31253 0
M  V30 1836 C 175.631 1.46756 -3.16644 0
M  V30 1837 C 176.979 1.93809 -3.77787 0
M  V30 1838 O 178.003 1.56537 -3.1996 0
M  V30 1839 O 176.862 2.62486 -4.79336 0
M  V30 1840 H 173.956 0.428025 -0.707618 0
M  V30 1841 H 176.502 0.152526 -1.69013 0
M  V30 1842 H 175.274 0.68129 -3.85323 0
M  V30 1843 H 174.897 2.28749 -3.25207 0
M  V30 1844 N 175.894 1.51508 0.433938 0
M  V30 1845 C 177.14 1.64588 1.18484 0
M  V30 1846 C 177.473 0.362666 1.90784 0
M  V30 1847 O 176.748 -0.637892 1.83742 0
M  V30 1848 C 177.031 2.85149 2.19913 0
M  V30 1849 C 176.884 4.23456 1.51674 0
M  V30 1850 C 178.203 3.01227 3.20858 0
M  V30 1851 H 175.322 0.598994 0.429389 0
M  V30 1852 H 177.964 1.84002 0.473647 0
M  V30 1853 H 176.114 2.68729 2.80566 0
M  V30 1854 H 177.786 4.51552 0.943322 0
M  V30 1855 H 176.029 4.25998 0.819035 0
M  V30 1856 H 176.7 5.03812 2.2556 0
M  V30 1857 H 179.176 3.16382 2.70263 0
M  V30 1858 H 178.052 3.87141 3.89118 0
M  V30 1859 H 178.313 2.13447 3.8716 0
M  V30 1860 N 177.372 -0.689602 1.41712 0
M  V30 1861 C 178.602 -1.47613 1.44548 0
M  V30 1862 C 179.01 -1.89132 0.0509034 0
M  V30 1863 O 178.353 -1.57741 -0.94146 0
M  V30 1864 C 178.415 -2.76596 2.2964 0
M  V30 1865 C 178.079 -2.57245 3.77722 0
M  V30 1866 C 179.076 -2.22804 4.69739 0
M  V30 1867 C 176.761 -2.727 4.2183 0
M  V30 1868 C 178.755 -2.04064 6.03851 0
M  V30 1869 C 176.442 -2.53576 5.56006 0
M  V30 1870 C 177.44 -2.1931 6.46832 0
M  V30 1871 O 177.128 -2.00359 7.78532 0
M  V30 1872 H 176.86 -0.461227 0.494212 0
M  V30 1873 H 179.414 -0.856045 1.86711 0
M  V30 1874 H 177.644 -3.41033 1.82301 0
M  V30 1875 H 179.333 -3.38424 2.24107 0
M  V30 1876 H 180.099 -2.10473 4.36951 0
M  V30 1877 H 175.978 -2.98353 3.51435 0
M  V30 1878 H 179.522 -1.77241 6.74708 0
M  V30 1879 H 175.419 -2.65499 5.88371 0
M  V30 1880 H 176.187 -2.15075 7.89737 0
M  V30 1881 N 178.85 -1.27639 -0.924453 0
M  V30 1882 C 179.78 -1.13166 -2.04244 0
M  V30 1883 C 180.761 -0.032256 -1.70069 0
M  V30 1884 O 181.946 -0.207328 -1.9309 0
M  V30 1885 C 179.076 -0.781496 -3.38393 0
M  V30 1886 C 178.03 -1.83449 -3.86692 0
M  V30 1887 C 177.356 -1.33822 -5.17683 0
M  V30 1888 C 178.656 -3.23917 -4.09726 0
M  V30 1889 H 180.35 -2.06689 -2.1661 0
M  V30 1890 H 177.896 -0.995136 -1.04082 0
M  V30 1891 H 179.849 -0.667057 -4.16087 0
M  V30 1892 H 178.573 0.189439 -3.2605 0
M  V30 1893 H 177.232 -1.93789 -3.11193 0
M  V30 1894 H 176.88 -0.35665 -5.01734 0
M  V30 1895 H 176.58 -2.04224 -5.50968 0
M  V30 1896 H 178.104 -1.23679 -5.97943 0
M  V30 1897 H 179.518 -3.16559 -4.77978 0
M  V30 1898 H 177.915 -3.92059 -4.54324 0
M  V30 1899 H 178.985 -3.68729 -3.14908 0
M  V30 1900 N 180.328 1.1314 -1.09713 0
M  V30 1901 C 181.276 2.20717 -0.733934 0
M  V30 1902 C 182.27 1.6729 0.266506 0
M  V30 1903 O 183.476 1.79547 0.127656 0
M  V30 1904 H 179.851 0.719292 -0.21937 0
M  V30 1905 H 181.822 2.48611 -1.6503 0
M  V30 1906 C 180.571 3.47265 -0.173849 0
M  V30 1907 H 179.894 3.88716 -0.934873 0
M  V30 1908 H 181.334 4.23979 0.0423126 0
M  V30 1909 C 179.793 3.18724 1.09164 0
M  V30 1910 O 180.323 3.37762 2.17439 0
M  V30 1911 N 178.529 2.72583 1.00732 0
M  V30 1912 H 178.076 2.57291 0.126121 0
M  V30 1913 H 178.034 2.53862 1.85476 0
M  V30 1914 N 181.806 0.884767 1.30421 0
M  V30 1915 C 183.054 0.502112 1.95763 0
M  V30 1916 C 183.375 -0.951815 1.70192 0
M  V30 1917 O 182.645 -1.6692 1.0254 0
M  V30 1918 H 181.225 0.182694 0.724315 0
M  V30 1919 H 183.887 1.1278 1.58955 0
M  V30 1920 H 182.983 0.672188 3.04775 0
M  V30 1921 N 183.284 -1.43765 0.645699 0
M  V30 1922 C 184.509 -2.06767 0.161883 0
M  V30 1923 C 184.934 -1.48034 -1.16049 0
M  V30 1924 O 184.292 -0.587369 -1.71522 0
M  V30 1925 C 184.34 -3.60519 0.0762003 0
M  V30 1926 O 183.444 -4.00982 -0.963721 0
M  V30 1927 H 182.785 -0.657675 0.091429 0
M  V30 1928 H 185.315 -1.84397 0.886499 0
M  V30 1929 H 185.325 -4.07853 -0.109604 0
M  V30 1930 H 184 -4.02646 1.04157 0
M  V30 1931 H 182.577 -3.65253 -0.751312 0
M  V30 1932 N 184.763 -0.387143 -1.52771 0
M  V30 1933 C 185.693 0.440551 -2.29306 0
M  V30 1934 C 186.674 1.06535 -1.32606 0
M  V30 1935 O 187.859 1.07853 -1.61497 0
M  V30 1936 C 184.989 1.56919 -3.09829 0
M  V30 1937 C 183.943 1.07054 -4.14395 0
M  V30 1938 C 183.269 2.29109 -4.83129 0
M  V30 1939 C 184.569 0.140015 -5.22112 0
M  V30 1940 H 186.263 -0.198026 -2.98744 0
M  V30 1941 H 183.809 -0.09668 -1.43675 0
M  V30 1942 H 185.762 2.15503 -3.62128 0
M  V30 1943 H 184.486 2.23532 -2.3812 0
M  V30 1944 H 183.145 0.507247 -3.63074 0
M  V30 1945 H 182.793 2.94227 -4.0797 0
M  V30 1946 H 182.493 1.96406 -5.53804 0
M  V30 1947 H 184.017 2.88339 -5.38231 0
M  V30 1948 H 185.431 0.633978 -5.69784 0
M  V30 1949 H 183.828 -0.0971485 -6.00021 0
M  V30 1950 H 184.898 -0.811711 -4.78058 0
M  V30 1951 N 186.241 1.57166 -0.116904 0
M  V30 1952 C 187.171 2.18222 0.830759 0
M  V30 1953 C 188.152 1.12167 1.27877 0
M  V30 1954 O 189.337 1.40394 1.34176 0
M  V30 1955 C 186.467 2.77996 2.08172 0
M  V30 1956 C 185.421 3.89614 1.77157 0
M  V30 1957 C 184.747 4.36187 3.09265 0
M  V30 1958 C 186.047 5.1181 1.04151 0
M  V30 1959 H 187.741 2.97664 0.321992 0
M  V30 1960 H 185.287 1.4318 0.153434 0
M  V30 1961 H 187.24 3.19366 2.74924 0
M  V30 1962 H 185.964 1.9584 2.6137 0
M  V30 1963 H 184.623 3.48816 1.12796 0
M  V30 1964 H 184.271 3.50893 3.60393 0
M  V30 1965 H 183.971 5.11455 2.89288 0
M  V30 1966 H 185.495 4.80207 3.77139 0
M  V30 1967 H 186.909 5.50214 1.61052 0
M  V30 1968 H 185.306 5.92648 0.942762 0
M  V30 1969 H 186.376 4.84892 0.0279022 0
M  V30 1970 N 187.719 -0.156864 1.56817 0
M  V30 1971 C 188.649 -1.19589 2.00551 0
M  V30 1972 C 189.63 -1.4536 0.883426 0
M  V30 1973 O 190.815 -1.56449 1.15054 0
M  V30 1974 C 187.945 -2.53143 2.37773 0
M  V30 1975 C 186.899 -2.41913 3.53075 0
M  V30 1976 C 186.225 -3.80088 3.76081 0
M  V30 1977 C 187.525 -1.91157 4.86062 0
M  V30 1978 H 189.219 -0.832293 2.87599 0
M  V30 1979 H 186.765 -0.398918 1.38364 0
M  V30 1980 H 188.718 -3.26047 2.66967 0
M  V30 1981 H 187.442 -2.91319 1.4765 0
M  V30 1982 H 186.101 -1.71462 3.24031 0
M  V30 1983 H 185.749 -4.15683 2.83225 0
M  V30 1984 H 185.449 -3.73439 4.53671 0
M  V30 1985 H 186.973 -4.54556 4.0769 0
M  V30 1986 H 188.387 -2.53846 5.14038 0
M  V30 1987 H 186.784 -1.95422 5.67389 0
M  V30 1988 H 187.854 -0.866673 4.77092 0
M  V30 1989 N 189.197 -1.51736 -0.425897 0
M  V30 1990 C 190.144 -1.73875 -1.51776 0
M  V30 1991 C 191.114 -0.580702 -1.55618 0
M  V30 1992 O 192.299 -0.81641 -1.72451 0
M  V30 1993 C 189.439 -1.88012 -2.89388 0
M  V30 1994 C 188.552 -3.15606 -2.94986 0
M  V30 1995 C 187.687 -3.20271 -4.23793 0
M  V30 1996 C 186.726 -4.42134 -4.23302 0
M  V30 1997 N 185.863 -4.44284 -5.43651 0
M  V30 1998 H 190.703 -2.67071 -1.32201 0
M  V30 1999 H 188.24 -1.32351 -0.642008 0
M  V30 2000 H 190.198 -1.9419 -3.69251 0
M  V30 2001 H 188.828 -0.98213 -3.07496 0
M  V30 2002 H 187.88 -3.18681 -2.07717 0
M  V30 2003 H 189.192 -4.05486 -2.90486 0
M  V30 2004 H 188.346 -3.25428 -5.12036 0
M  V30 2005 H 187.085 -2.28299 -4.30965 0
M  V30 2006 H 186.09 -4.3714 -3.3345 0
M  V30 2007 H 187.315 -5.35382 -4.17783 0
M  V30 2008 H 185.261 -3.55188 -5.51523 0
M  V30 2009 H 185.178 -5.27988 -5.41078 0
M  V30 2010 H 186.446 -4.53649 -6.33895 0
M  V30 2011 N 190.675 0.682077 -1.42076 0
M  V30 2012 C 191.638 1.77756 -1.44691 0
M  V30 2013 C 192.638 1.5726 -0.335535 0
M  V30 2014 O 193.828 1.63686 -0.596037 0
M  V30 2015 C 190.96 3.16301 -1.27146 0
M  V30 2016 H 192.153 1.76826 -2.42224 0
M  V30 2017 H 189.706 0.891012 -1.28416 0
M  V30 2018 H 190.441 3.22862 -0.305075 0
M  V30 2019 H 190.226 3.32581 -2.07683 0
M  V30 2020 H 191.716 3.96241 -1.31843 0
M  V30 2021 N 192.153 1.28127 0.917671 0
M  V30 2022 C 193.43 1.05761 1.64542 0
M  V30 2023 C 193.81 -0.404344 2.07191 0
M  V30 2024 O 193.158 -1.38963 1.81388 0
M  V30 2025 C 193.368 2.02857 2.83989 0
M  V30 2026 C 194.716 2.32786 3.551 0
M  V30 2027 O 195.74 2.0091 2.94132 0
M  V30 2028 O 194.599 2.87169 4.64969 0
M  V30 2029 H 191.693 0.403916 0.721652 0
M  V30 2030 H 194.239 1.39431 0.967322 0
M  V30 2031 H 193.011 3.01407 2.49538 0
M  V30 2032 H 192.634 1.69809 3.59514 0
M  V30 2033 N 193.631 -1.12557 1.10312 0
M  V30 2034 C 194.579 -2.20325 0.745629 0
M  V30 2035 C 195.573 -1.67429 -0.25763 0
M  V30 2036 O 196.779 -1.79612 -0.118132 0
M  V30 2037 H 193.154 -0.718118 0.223182 0
M  V30 2038 H 195.125 -2.47733 1.66346 0
M  V30 2039 C 193.874 -3.47168 0.192262 0
M  V30 2040 H 193.197 -3.88215 0.955475 0
M  V30 2041 H 194.637 -4.23995 -0.0198274 0
M  V30 2042 C 193.096 -3.19298 -1.07472 0
M  V30 2043 O 193.626 -3.3891 -2.15645 0
M  V30 2044 N 191.832 -2.73113 -0.992847 0
M  V30 2045 H 191.379 -2.57354 -0.112474 0
M  V30 2046 H 191.337 -2.54842 -1.84127 0
M  V30 2047 N 195.109 -0.891671 -1.2995 0
M  V30 2048 C 196.042 -0.307994 -2.26112 0
M  V30 2049 C 197.02 0.575262 -1.52084 0
M  V30 2050 O 198.204 0.523864 -1.81074 0
M  V30 2051 C 195.331 0.561734 -3.34009 0
M  V30 2052 C 194.377 -0.253107 -4.25748 0
M  V30 2053 S 195.21 -1.64572 -5.09584 0
M  V30 2054 C 196.366 -0.782699 -6.20987 0
M  V30 2055 H 196.599 -1.12309 -2.75271 0
M  V30 2056 H 194.132 -0.691509 -1.38049 0
M  V30 2057 H 196.09 1.05777 -3.96638 0
M  V30 2058 H 194.751 1.35099 -2.83561 0
M  V30 2059 H 193.944 0.410908 -5.02322 0
M  V30 2060 H 193.546 -0.682004 -3.67729 0
M  V30 2061 H 195.838 -0.00257476 -6.775 0
M  V30 2062 H 196.781 -1.52026 -6.91588 0
M  V30 2063 H 197.189 -0.340638 -5.63471 0
M  V30 2064 N 196.587 1.43421 -0.653314 0
M  V30 2065 C 197.834 2.01812 -0.166745 0
M  V30 2066 C 198.162 1.51535 1.21931 0
M  V30 2067 O 197.417 0.698975 1.82792 0
M  V30 2068 C 197.716 3.57176 -0.126623 0
M  V30 2069 C 197.382 4.26798 -1.45444 0
M  V30 2070 C 196.044 4.45534 -1.81805 0
M  V30 2071 C 198.396 4.66225 -2.32989 0
M  V30 2072 C 195.724 5.00961 -3.05377 0
M  V30 2073 C 198.076 5.23021 -3.55853 0
M  V30 2074 C 196.74 5.39973 -3.9241 0
M  V30 2075 H 196.01 0.738484 -0.0610162 0
M  V30 2076 H 198.657 1.71896 -0.84404 0
M  V30 2077 H 196.962 3.86634 0.634123 0
M  V30 2078 H 198.659 4.00112 0.266723 0
M  V30 2079 H 195.249 4.12561 -1.16153 0
M  V30 2080 H 199.433 4.51443 -2.06187 0
M  V30 2081 H 194.689 5.12271 -3.3375 0
M  V30 2082 H 198.863 5.52518 -4.23907 0
M  V30 2083 H 196.49 5.82687 -4.88242 0
M  V30 2084 N 198.065 0.39524 1.52563 0
M  V30 2085 C 199.311 -0.185318 2.01952 0
M  V30 2086 C 199.644 -1.45964 1.28095 0
M  V30 2087 O 198.919 -1.90689 0.38315 0
M  V30 2088 C 199.202 -0.447193 3.57312 0
M  V30 2089 C 199.055 0.842828 4.41833 0
M  V30 2090 C 200.374 -1.23529 4.22408 0
M  V30 2091 H 197.493 -0.0658788 0.73405 0
M  V30 2092 H 200.135 0.525975 1.82575 0
M  V30 2093 H 198.285 -1.05312 3.73954 0
M  V30 2094 H 199.957 1.4795 4.36931 0
M  V30 2095 H 198.2 1.45686 4.08605 0
M  V30 2096 H 198.871 0.614165 5.48573 0
M  V30 2097 H 201.347 -0.722445 4.0978 0
M  V30 2098 H 200.223 -1.38727 5.3108 0
M  V30 2099 H 200.484 -2.25213 3.80436 0
M  V30 2100 N 199.544 -1.57102 0.125237 0
M  V30 2101 C 200.792 -1.95021 -0.530198 0
M  V30 2102 C 201.113 -1.00982 -1.66816 0
M  V30 2103 O 200.383 -0.0672693 -1.95784 0
M  V30 2104 H 198.963 -0.720046 -0.198853 0
M  V30 2105 H 201.625 -1.93916 0.19564 0
M  V30 2106 H 200.721 -2.98211 -0.920681 0
M  V30 2107 N 201.022 0.148545 -1.56898 0
M  V30 2108 C 202.252 0.875118 -1.8715 0
M  V30 2109 C 202.66 1.75322 -0.711262 0
M  V30 2110 O 202.003 1.80745 0.328151 0
M  V30 2111 C 202.065 1.7844 -3.12089 0
M  V30 2112 C 201.729 1.08361 -4.43967 0
M  V30 2113 C 202.726 0.438247 -5.1805 0
M  V30 2114 C 200.411 1.07358 -4.90693 0
M  V30 2115 C 202.405 -0.20779 -6.37061 0
M  V30 2116 C 200.092 0.42373 -6.09629 0
M  V30 2117 C 201.09 -0.215829 -6.82659 0
M  V30 2118 O 200.778 -0.855378 -7.99336 0
M  V30 2119 H 200.51 0.258504 -0.624621 0
M  V30 2120 H 203.064 0.14652 -2.04877 0
M  V30 2121 H 201.294 2.55389 -2.90367 0
M  V30 2122 H 202.983 2.38279 -3.286 0
M  V30 2123 H 203.749 0.437817 -4.8302 0
M  V30 2124 H 199.628 1.5608 -4.33774 0
M  V30 2125 H 203.172 -0.70758 -6.94002 0
M  V30 2126 H 199.069 0.421822 -6.4412 0
M  V30 2127 H 199.837 -0.756892 -8.14993 0
M  V30 2128 N 202.5 1.5196 0.417844 0
M  V30 2129 C 203.728 1.69426 1.18753 0
M  V30 2130 C 204.143 0.399955 1.84515 0
M  V30 2131 O 203.5 -0.623288 1.71527 0
M  V30 2132 C 203.551 2.82375 2.25714 0
M  V30 2133 O 203.272 4.06793 1.62638 0
M  V30 2134 C 204.773 3.11277 3.15628 0
M  V30 2135 H 201.993 0.568031 0.357186 0
M  V30 2136 H 204.537 1.98475 0.49273 0
M  V30 2137 H 202.692 2.5587 2.90877 0
M  V30 2138 H 203.106 4.69667 2.3348 0
M  V30 2139 H 204.58 3.93843 3.86771 0
M  V30 2140 H 205.057 2.24473 3.77503 0
M  V30 2141 H 205.663 3.39515 2.56144 0
M  V30 2142 N 203.978 -0.674533 1.42435 0
M  V30 2143 C 204.908 -1.80009 1.48724 0
M  V30 2144 C 205.889 -1.6659 0.343793 0
M  V30 2145 O 207.074 -1.86007 0.558137 0
M  V30 2146 C 204.204 -3.18306 1.38919 0
M  V30 2147 C 203.158 -3.46461 2.51294 0
M  V30 2148 C 202.484 -4.84335 2.26547 0
M  V30 2149 C 203.784 -3.43328 3.93603 0
M  V30 2150 H 205.478 -1.75004 2.42928 0
M  V30 2151 H 203.024 -0.840533 1.16923 0
M  V30 2152 H 204.977 -3.9678 1.41927 0
M  V30 2153 H 203.701 -3.2399 0.412094 0
M  V30 2154 H 202.36 -2.70348 2.47604 0
M  V30 2155 H 202.008 -4.86669 1.2713 0
M  V30 2156 H 201.708 -5.04136 3.01861 0
M  V30 2157 H 203.232 -5.65094 2.31304 0
M  V30 2158 H 204.646 -4.11772 3.98894 0
M  V30 2159 H 203.043 -3.74664 4.68771 0
M  V30 2160 H 204.113 -2.41897 4.20255 0
M  V30 2161 N 205.456 -1.28612 -0.910864 0
M  V30 2162 C 206.867 -1.14406 -1.47541 0
M  V30 2163 C 207.218 0.264901 -1.94403 0
M  V30 2164 O 206.343 1.15942 -1.82719 0
M  V30 2165 C 206.938 -2.07073 -2.68153 0
M  V30 2166 C 205.497 -1.96923 -3.20778 0
M  V30 2167 C 204.644 -1.98646 -1.93481 0
M  V30 2168 H 207.595 -1.41259 -0.723291 0
M  V30 2169 H 207.616 -1.63642 -3.43514 0
M  V30 2170 H 207.128 -3.09611 -2.34015 0
M  V30 2171 H 205.229 -0.97433 -3.59635 0
M  V30 2172 H 205.342 -2.84026 -3.85832 0
M  V30 2173 H 203.706 -1.43093 -2.10705 0
M  V30 2174 H 204.489 -3.02868 -1.61634 0
M  V30 2175 N 206.934 1.1197 -1.10907 0
M  V30 2176 C 208.18 1.8386 -0.855773 0
M  V30 2177 C 208.513 1.84134 0.617103 0
M  V30 2178 O 207.788 1.29041 1.45529 0
M  V30 2179 C 208.071 3.31305 -1.411 0
M  V30 2180 C 207.924 3.39456 -2.9511 0
M  V30 2181 C 209.243 4.2721 -1.05736 0
M  V30 2182 H 206.362 0.667545 -0.312334 0
M  V30 2183 H 209.004 1.31331 -1.37303 0
M  V30 2184 H 207.154 3.76169 -0.97105 0
M  V30 2185 H 208.826 3.03191 -3.47668 0
M  V30 2186 H 207.069 2.79849 -3.31462 0
M  V30 2187 H 207.74 4.43209 -3.29044 0
M  V30 2188 H 210.216 3.90497 -1.43706 0
M  V30 2189 H 209.092 5.28775 -1.47269 0
M  V30 2190 H 209.353 4.42088 0.0325958 0
M  V30 2191 N 208.412 0.89855 1.29475 0
M  V30 2192 C 209.359 0.373819 2.27753 0
M  V30 2193 C 210.329 -0.543444 1.56958 0
M  V30 2194 O 211.514 -0.468934 1.84948 0
M  V30 2195 C 208.654 -0.393648 3.42848 0
M  V30 2196 C 207.767 0.554379 4.28428 0
M  V30 2197 C 206.902 -0.230026 5.30702 0
M  V30 2198 C 205.941 0.712599 6.07938 0
M  V30 2199 N 205.078 -0.0373283 7.0209 0
M  V30 2200 H 209.918 1.21699 2.72017 0
M  V30 2201 H 207.455 0.611456 1.33789 0
M  V30 2202 H 209.413 -0.85466 4.08352 0
M  V30 2203 H 208.043 -1.20128 2.99615 0
M  V30 2204 H 207.095 1.13391 3.63107 0
M  V30 2205 H 208.407 1.27597 4.82204 0
M  V30 2206 H 207.561 -0.752288 6.02018 0
M  V30 2207 H 206.3 -0.984758 4.77654 0
M  V30 2208 H 205.305 1.24637 5.35486 0
M  V30 2209 H 206.53 1.46664 6.63074 0
M  V30 2210 H 204.476 -0.774348 6.51414 0
M  V30 2211 H 204.393 0.624374 7.53417 0
M  V30 2212 H 205.661 -0.539891 7.77628 0
M  V30 2213 N 209.89 -1.43072 0.660911 0
M  V30 2214 C 211.115 -2.06584 0.183805 0
M  V30 2215 C 211.54 -1.49257 -1.14472 0
M  V30 2216 O 210.898 -0.605528 -1.70889 0
M  V30 2217 C 210.946 -3.60418 0.114434 0
M  V30 2218 O 210.05 -4.01981 -0.921137 0
M  V30 2219 H 209.391 -0.656669 0.0983994 0
M  V30 2220 H 211.921 -1.83447 0.906006 0
M  V30 2221 H 211.931 -4.07946 -0.0663394 0
M  V30 2222 H 210.606 -4.01519 1.08422 0
M  V30 2223 H 209.183 -3.66029 -0.71253 0
M  V30 2224 N 211.368 -0.403325 -1.52352 0
M  V30 2225 C 212.614 0.174605 -2.02047 0
M  V30 2226 C 212.947 1.45282 -1.28867 0
M  V30 2227 O 212.222 1.90483 -0.393257 0
M  V30 2228 C 212.505 0.428238 -3.57545 0
M  V30 2229 C 212.358 -0.866248 -4.4138 0
M  V30 2230 C 213.677 1.21287 -4.23057 0
M  V30 2231 H 210.796 0.0619851 -0.734389 0
M  V30 2232 H 213.438 -0.53565 -1.82293 0
M  V30 2233 H 211.588 1.03327 -3.74507 0
M  V30 2234 H 213.26 -1.50265 -4.3614 0
M  V30 2235 H 211.503 -1.47851 -4.07827 0
M  V30 2236 H 212.174 -0.643249 -5.48239 0
M  V30 2237 H 214.65 0.700703 -4.10158 0
M  V30 2238 H 213.526 1.35909 -5.31808 0
M  V30 2239 H 213.787 2.23193 -3.81625 0
M  V30 2240 N 212.846 1.57033 -0.133567 0
M  V30 2241 C 213.776 2.1909 0.807567 0
M  V30 2242 C 214.757 1.13517 1.26681 0
M  V30 2243 O 215.942 1.41809 1.32679 0
M  V30 2244 C 213.072 2.80188 2.05212 0
M  V30 2245 C 212.026 3.91471 1.73015 0
M  V30 2246 C 211.352 4.39443 3.04622 0
M  V30 2247 C 212.652 5.12886 0.987168 0
M  V30 2248 H 214.346 2.97988 0.290403 0
M  V30 2249 H 211.892 1.43335 0.138239 0
M  V30 2250 H 213.845 3.22264 2.71521 0
M  V30 2251 H 212.569 1.98601 2.59278 0
M  V30 2252 H 211.228 3.49993 1.0909 0
M  V30 2253 H 210.876 3.54695 3.56651 0
M  V30 2254 H 210.576 5.14495 2.83847 0
M  V30 2255 H 212.1 4.8418 3.72024 0
M  V30 2256 H 213.514 5.51891 1.55208 0
M  V30 2257 H 211.911 5.93615 0.87985 0
M  V30 2258 H 212.981 4.84894 -0.0235286 0
M  V30 2259 N 214.325 -0.140222 1.56975 0
M  V30 2260 C 215.741 -0.493088 1.51792 0
M  V30 2261 C 215.941 -1.83013 0.843116 0
M  V30 2262 O 214.997 -2.49041 0.416493 0
M  V30 2263 C 216.31 -0.497144 2.96562 0
M  V30 2264 C 217.858 -0.582186 3.07538 0
M  V30 2265 C 218.333 -0.616838 4.53827 0
M  V30 2266 N 219.824 -0.678873 4.58198 0
M  V30 2267 C 220.559 -0.726782 5.68775 0
M  V30 2268 N 220.055 -0.733623 6.88905 0
M  V30 2269 N 221.848 -0.768179 5.56826 0
M  V30 2270 H 213.999 0.736108 1.99237 0
M  V30 2271 H 216.262 0.269182 0.90898 0
M  V30 2272 H 215.968 0.417217 3.49217 0
M  V30 2273 H 215.842 -1.33263 3.52875 0
M  V30 2274 H 218.229 -1.48697 2.54899 0
M  V30 2275 H 218.31 0.280581 2.54257 0
M  V30 2276 H 217.954 0.283812 5.07106 0
M  V30 2277 H 217.884 -1.49619 5.04898 0
M  V30 2278 H 220.375 -0.68061 3.7172 0
M  V30 2279 H 220.688 -0.772215 7.68932 0
M  V30 2280 H 219.033 -0.701389 6.91452 0
M  V30 2281 H 222.224 -0.760051 4.61888 0
M  V30 2282 H 222.397 -0.80205 6.43017 0
M  V30 2283 N 215.803 -1.52179 -0.40978 0
M  V30 2284 C 216.75 -1.75475 -1.49924 0
M  V30 2285 C 217.72 -0.597175 -1.54994 0
M  V30 2286 O 218.905 -0.834655 -1.71575 0
M  V30 2287 C 216.045 -1.9107 -2.87378 0
M  V30 2288 C 215.158 -3.18717 -2.91622 0
M  V30 2289 C 214.293 -3.24747 -4.20372 0
M  V30 2290 C 213.332 -4.46598 -4.18588 0
M  V30 2291 N 212.469 -4.50025 -5.38908 0
M  V30 2292 H 217.309 -2.68458 -1.29361 0
M  V30 2293 H 214.846 -1.33024 -0.627934 0
M  V30 2294 H 216.804 -1.98096 -3.6717 0
M  V30 2295 H 215.434 -1.01469 -3.06437 0
M  V30 2296 H 214.486 -3.20866 -2.04326 0
M  V30 2297 H 215.798 -4.08544 -2.86169 0
M  V30 2298 H 214.952 -3.30841 -5.08556 0
M  V30 2299 H 213.691 -2.32857 -4.28519 0
M  V30 2300 H 212.696 -4.40652 -3.28794 0
M  V30 2301 H 213.921 -5.39783 -4.12081 0
M  V30 2302 H 211.867 -3.61017 -5.47725 0
M  V30 2303 H 211.784 -5.33697 -5.35447 0
M  V30 2304 H 213.052 -4.60347 -6.29048 0
M  V30 2305 N 217.281 0.66697 -1.42791 0
M  V30 2306 C 218.529 1.42417 -1.43394 0
M  V30 2307 C 218.85 1.94925 -0.0542373 0
M  V30 2308 O 218.12 1.73564 0.908415 0
M  V30 2309 H 216.7 0.528515 -0.527902 0
M  V30 2310 H 219.362 0.787562 -1.78279 0
M  V30 2311 H 218.458 2.27333 -2.13837 0
M  V30 2312 N 218.759 1.29093 0.90403 0
M  V30 2313 C 219.669 1.15727 2.0407 0
M  V30 2314 C 220.685 0.0815308 1.73809 0
M  V30 2315 O 221.861 0.292749 1.99261 0
M  V30 2316 C 218.926 0.830424 3.36608 0
M  V30 2317 C 217.987 1.98955 3.80415 0
M  V30 2318 C 217.22 1.6782 5.06628 0
M  V30 2319 O 217.443 0.597105 5.67266 0
M  V30 2320 O 216.377 2.52486 5.46383 0
M  V30 2321 H 220.203 2.11171 2.18267 0
M  V30 2322 H 217.788 1.08504 1.027 0
M  V30 2323 H 219.67 0.662521 4.16159 0
M  V30 2324 H 218.345 -0.0942678 3.23563 0
M  V30 2325 H 217.252 2.21267 3.01648 0
M  V30 2326 H 218.585 2.89529 3.98037 0
M  V30 2327 N 220.237 -1.11381 1.11499 0
M  V30 2328 C 221.185 -2.19522 0.768956 0
M  V30 2329 C 222.179 -1.67693 -0.239857 0
M  V30 2330 O 223.385 -1.79727 -0.0990755 0
M  V30 2331 H 219.76 -0.715711 0.230786 0
M  V30 2332 H 221.731 -2.45954 1.68964 0
M  V30 2333 C 220.48 -3.46945 0.229073 0
M  V30 2334 H 219.803 -3.8718 0.996596 0
M  V30 2335 H 221.243 -4.23993 0.0251441 0
M  V30 2336 C 219.702 -3.2042 -1.04079 0
M  V30 2337 O 220.232 -3.41178 -2.12038 0
M  V30 2338 N 218.438 -2.74151 -0.963823 0
M  V30 2339 H 217.985 -2.57459 -0.0851722 0
M  V30 2340 H 217.943 -2.56781 -1.81414 0
M  V30 2341 N 221.715 -0.905404 -1.28997 0
M  V30 2342 C 222.665 -0.358713 -2.25161 0
M  V30 2343 C 223.649 0.524449 -1.52113 0
M  V30 2344 O 224.841 0.365534 -1.73184 0
M  V30 2345 C 221.97 0.407609 -3.40872 0
M  V30 2346 C 221.056 -0.490797 -4.21251 0
M  V30 2347 N 221.447 -1.60061 -4.79806 0
M  V30 2348 C 219.745 -0.289636 -4.45059 0
M  V30 2349 C 220.446 -2.15757 -5.40207 0
M  V30 2350 N 219.422 -1.44988 -5.23908 0
M  V30 2351 H 223.224 -1.20642 -2.67998 0
M  V30 2352 H 220.738 -0.757103 -1.43672 0
M  V30 2353 H 222.735 0.816046 -4.08835 0
M  V30 2354 H 221.395 1.25251 -2.9957 0
M  V30 2355 H 222.406 -1.98329 -4.7842 0
M  V30 2356 H 219.083 0.51643 -4.14294 0
M  V30 2357 H 220.473 -3.09069 -5.96595 0
M  V30 2358 N 223.193 1.4272 -0.668489 0
M  V30 2359 C 224.123 2.335 -0.000100175 0
M  V30 2360 C 225.104 1.50328 0.795964 0
M  V30 2361 O 226.289 1.78949 0.754385 0
M  V30 2362 C 223.419 3.33874 0.956302 0
M  V30 2363 C 222.373 4.27152 0.269278 0
M  V30 2364 C 221.699 5.17684 1.33818 0
M  V30 2365 C 222.999 5.15373 -0.847805 0
M  V30 2366 H 224.693 2.89639 -0.758244 0
M  V30 2367 H 222.239 1.39269 -0.366079 0
M  V30 2368 H 224.192 3.9629 1.43292 0
M  V30 2369 H 222.916 2.76025 1.74579 0
M  V30 2370 H 221.575 3.66123 -0.187042 0
M  V30 2371 H 221.223 4.56165 2.1195 0
M  V30 2372 H 220.923 5.80918 0.883659 0
M  V30 2373 H 222.447 5.82974 1.81586 0
M  V30 2374 H 223.861 5.7151 -0.452681 0
M  V30 2375 H 222.258 5.87407 -1.22773 0
M  V30 2376 H 223.328 4.5415 -1.69929 0
M  V30 2377 N 224.671 0.411399 1.52136 0
M  V30 2378 C 225.901 -0.16284 2.05957 0
M  V30 2379 C 226.309 -1.3922 1.28119 0
M  V30 2380 O 225.652 -1.80768 0.326881 0
M  V30 2381 C 225.714 -0.575946 3.54856 0
M  V30 2382 C 225.378 0.542998 4.53763 0
M  V30 2383 C 226.375 1.40726 5.00492 0
M  V30 2384 C 224.06 0.716337 4.97166 0
M  V30 2385 C 226.054 2.4298 5.8927 0
M  V30 2386 C 223.741 1.74218 5.8574 0
M  V30 2387 C 224.739 2.59731 6.31687 0
M  V30 2388 O 224.427 3.60558 7.18507 0
M  V30 2389 H 224.159 -0.0229125 0.675612 0
M  V30 2390 H 226.713 0.581634 1.96993 0
M  V30 2391 H 224.943 -1.37274 3.61515 0
M  V30 2392 H 226.632 -1.07836 3.91313 0
M  V30 2393 H 227.398 1.28476 4.67674 0
M  V30 2394 H 223.277 0.0603857 4.6096 0
M  V30 2395 H 226.821 3.0976 6.25055 0
M  V30 2396 H 222.718 1.86498 6.17971 0
M  V30 2397 H 223.486 3.56829 7.36624 0
M  V30 2398 N 226.149 -1.5696 0.141893 0
M  V30 2399 C 227.398 -1.95135 -0.510427 0
M  V30 2400 C 227.711 -1.02896 -1.66348 0
M  V30 2401 O 228.917 -1.30629 -2.38009 0
M  V30 2402 C 227.373 -3.46876 -0.959427 0
M  V30 2403 C 226.981 -4.47691 0.166419 0
M  V30 2404 C 228.725 -3.93927 -1.58183 0
M  V30 2405 C 226.632 -5.90636 -0.300565 0
M  V30 2406 H 225.562 -0.728494 -0.194454 0
M  V30 2407 H 228.213 -1.8211 0.22542 0
M  V30 2408 H 226.595 -3.55215 -1.75038 0
M  V30 2409 H 227.769 -4.51043 0.94325 0
M  V30 2410 H 226.084 -4.10527 0.696905 0
M  V30 2411 H 228.681 -4.98158 -1.94275 0
M  V30 2412 H 229.024 -3.3519 -2.46888 0
M  V30 2413 H 229.557 -3.88484 -0.855863 0
M  V30 2414 H 226.296 -6.5318 0.550989 0
M  V30 2415 H 225.816 -5.90655 -1.04338 0
M  V30 2416 H 227.495 -6.42588 -0.754265 0
M  V30 2417 N 227.627 0.131896 -1.57047 0
M  V30 2418 C 228.857 0.855219 -1.88068 0
M  V30 2419 C 229.265 1.74557 -0.729817 0
M  V30 2420 O 228.608 1.81083 0.308962 0
M  V30 2421 C 228.67 1.75119 -3.13964 0
M  V30 2422 C 228.334 1.03646 -4.45091 0
M  V30 2423 C 229.331 0.383276 -5.18485 0
M  V30 2424 C 227.016 1.02148 -4.91804 0
M  V30 2425 C 229.01 -0.275347 -6.36805 0
M  V30 2426 C 226.697 0.359047 -6.10044 0
M  V30 2427 C 227.695 -0.288222 -6.82392 0
M  V30 2428 O 227.383 -0.94011 -7.98384 0
M  V30 2429 H 227.115 0.251864 -0.627328 0
M  V30 2430 H 229.669 0.124782 -2.05021 0
M  V30 2431 H 227.899 2.52295 -2.9306 0
M  V30 2432 H 229.588 2.3478 -3.31109 0
M  V30 2433 H 230.354 0.386562 -4.83457 0
M  V30 2434 H 226.233 1.5147 -4.35405 0
M  V30 2435 H 229.777 -0.781148 -6.93213 0
M  V30 2436 H 225.674 0.35348 -6.44531 0
M  V30 2437 H 226.442 -0.84329 -8.14144 0
M  V30 2438 N 229.106 1.52395 0.401703 0
M  V30 2439 C 230.353 1.66817 1.14796 0
M  V30 2440 C 230.681 0.401772 1.90305 0
M  V30 2441 O 229.936 -0.615487 1.85769 0
M  V30 2442 C 230.235 2.84578 2.16217 0
M  V30 2443 C 229.901 4.22513 1.5746 0
M  V30 2444 C 228.563 4.60029 1.41161 0
M  V30 2445 C 230.915 5.0844 1.14622 0
M  V30 2446 C 228.243 5.81144 0.80552 0
M  V30 2447 C 230.595 6.30167 0.55428 0
M  V30 2448 C 229.259 6.66426 0.378482 0
M  V30 2449 H 228.529 0.610428 0.420069 0
M  V30 2450 H 231.176 1.86512 0.434212 0
M  V30 2451 H 229.481 2.59248 2.93764 0
M  V30 2452 H 231.178 2.92933 2.73845 0
M  V30 2453 H 227.768 3.92953 1.71132 0
M  V30 2454 H 231.952 4.80034 1.26021 0
M  V30 2455 H 227.208 6.07855 0.657399 0
M  V30 2456 H 231.382 6.96071 0.213983 0
M  V30 2457 H 229.009 7.60143 -0.0932606 0
M  V30 2458 N 230.584 -0.659388 1.43143 0
M  V30 2459 C 231.534 -1.7655 1.44271 0
M  V30 2460 C 232.518 -1.57847 0.311961 0
M  V30 2461 O 233.71 -1.68064 0.555306 0
M  V30 2462 C 230.839 -3.15104 1.36251 0
M  V30 2463 C 229.925 -3.39377 2.54331 0
M  V30 2464 N 230.316 -3.34153 3.79704 0
M  V30 2465 C 228.614 -3.70072 2.48922 0
M  V30 2466 C 229.315 -3.58337 4.58225 0
M  V30 2467 N 228.291 -3.79851 3.88863 0
M  V30 2468 H 232.093 -1.70928 2.39083 0
M  V30 2469 H 229.607 -0.860823 1.37708 0
M  V30 2470 H 231.604 -3.94389 1.35141 0
M  V30 2471 H 230.264 -3.21913 0.424531 0
M  V30 2472 H 231.275 -3.13704 4.1208 0
M  V30 2473 H 227.952 -3.84034 1.63781 0
M  V30 2474 H 229.342 -3.60129 5.67236 0
M  V30 2475 N 232.062 -1.29571 -0.897171 0
M  V30 2476 C 233.287 -1.20705 -1.68656 0
M  V30 2477 C 233.712 0.228582 -1.86706 0
M  V30 2478 O 233.07 1.16494 -1.3892 0
M  V30 2479 C 233.118 -1.9282 -3.04717 0
M  V30 2480 O 232.222 -1.24697 -3.93096 0
M  V30 2481 H 231.563 -0.418126 -0.515816 0
M  V30 2482 H 234.093 -1.71183 -1.12061 0
M  V30 2483 H 234.103 -2.01372 -3.54843 0
M  V30 2484 H 232.778 -2.97239 -2.90899 0
M  V30 2485 H 231.355 -1.2442 -3.51531 0
M  V30 2486 N 233.54 1.10788 -1.12088 0
M  V30 2487 C 234.951 1.64181 -0.88891 0
M  V30 2488 C 235.302 1.87508 0.577498 0
M  V30 2489 O 234.427 1.61434 1.44112 0
M  V30 2490 C 235.022 2.98257 -1.60712 0
M  V30 2491 C 233.581 3.4853 -1.42139 0
M  V30 2492 C 232.728 2.23208 -1.6454 0
M  V30 2493 H 235.679 0.943368 -1.27618 0
M  V30 2494 H 235.7 3.65552 -1.05604 0
M  V30 2495 H 235.212 2.81246 -2.67436 0
M  V30 2496 H 233.313 3.70692 -0.376552 0
M  V30 2497 H 233.426 4.26882 -2.17505 0
M  V30 2498 H 231.79 2.31169 -1.06925 0
M  V30 2499 H 232.573 2.08733 -2.72554 0
M  V30 2500 N 235.018 0.912232 1.28515 0
M  V30 2501 C 236.267 0.540504 1.94323 0
M  V30 2502 C 236.58 -0.920044 1.72611 0
M  V30 2503 O 237.786 -1.39986 2.32629 0
M  V30 2504 C 236.242 0.915803 3.48053 0
M  V30 2505 C 235.85 2.39598 3.78546 0
M  V30 2506 C 237.594 0.614588 4.20027 0
M  V30 2507 C 235.501 2.71148 5.25578 0
M  V30 2508 H 234.431 0.198418 0.727424 0
M  V30 2509 H 237.082 1.11094 1.46049 0
M  V30 2510 H 235.464 0.274168 3.9505 0
M  V30 2511 H 236.638 3.08422 3.42364 0
M  V30 2512 H 234.953 2.66749 3.1974 0
M  V30 2513 H 237.55 0.827002 5.28266 0
M  V30 2514 H 237.893 -0.447531 4.13887 0
M  V30 2515 H 238.426 1.21462 3.78803 0
M  V30 2516 H 235.165 3.76207 5.36794 0
M  V30 2517 H 234.685 2.0696 5.62963 0
M  V30 2518 H 236.364 2.58072 5.93302 0
M  V30 2519 N 236.496 -1.42363 0.676048 0
M  V30 2520 C 237.912 -1.55811 0.345718 0
M  V30 2521 C 238.112 -1.65544 -1.14879 0
M  V30 2522 O 237.168 -1.62306 -1.93424 0
M  V30 2523 C 238.481 -2.80746 1.07713 0
M  V30 2524 C 240.029 -2.9452 1.05958 0
M  V30 2525 C 240.504 -4.22318 1.77233 0
M  V30 2526 N 241.995 -4.29233 1.74108 0
M  V30 2527 C 242.73 -5.26935 2.26113 0
M  V30 2528 N 242.226 -6.30783 2.86505 0
M  V30 2529 N 244.019 -5.18741 2.1648 0
M  V30 2530 H 236.17 -1.34289 1.6456 0
M  V30 2531 H 238.433 -0.646506 0.69335 0
M  V30 2532 H 238.139 -2.79696 2.13221 0
M  V30 2533 H 238.013 -3.71676 0.64316 0
M  V30 2534 H 240.4 -2.95097 0.0128255 0
M  V30 2535 H 240.481 -2.04817 1.53244 0
M  V30 2536 H 240.125 -4.22502 2.81877 0
M  V30 2537 H 240.055 -5.10958 1.27396 0
M  V30 2538 H 242.546 -3.54814 1.30059 0
M  V30 2539 H 242.859 -7.01691 3.23805 0
M  V30 2540 H 241.204 -6.31341 2.90575 0
M  V30 2541 H 244.395 -4.36533 1.68987 0
M  V30 2542 H 244.568 -5.94721 2.57316 0
M  V30 2543 N 237.974 -0.419461 -1.51915 0
M  V30 2544 C 238.906 0.43646 -2.25006 0
M  V30 2545 C 239.919 1.00149 -1.28351 0
M  V30 2546 O 241.108 0.898674 -1.54227 0
M  V30 2547 C 238.208 1.6206 -2.9764 0
M  V30 2548 C 237.381 1.17763 -4.21249 0
M  V30 2549 C 236.44 2.22985 -4.76617 0
M  V30 2550 O 235.466 1.83151 -5.38929 0
M  V30 2551 N 236.668 3.55271 -4.59089 0
M  V30 2552 H 239.433 -0.18989 -2.99098 0
M  V30 2553 H 236.994 -0.247386 -1.59999 0
M  V30 2554 H 238.986 2.32038 -3.31573 0
M  V30 2555 H 237.556 2.15266 -2.2667 0
M  V30 2556 H 236.776 0.305582 -3.93014 0
M  V30 2557 H 238.064 0.858781 -5.015 0
M  V30 2558 H 237.462 3.90377 -4.09417 0
M  V30 2559 H 236.019 4.21195 -4.97432 0
M  V30 2560 N 239.452 1.56882 -0.150215 0
M  V30 2561 C 240.68 2.00593 0.506948 0
M  V30 2562 C 241.095 1.03033 1.58208 0
M  V30 2563 O 240.452 0.0278396 1.82479 0
M  V30 2564 C 240.503 3.44209 1.10465 0
M  V30 2565 O 240.224 4.3804 0.0724636 0
M  V30 2566 C 241.725 4.03214 1.84211 0
M  V30 2567 H 238.945 0.65795 0.13169 0
M  V30 2568 H 241.489 2.03018 -0.245743 0
M  V30 2569 H 239.644 3.42625 1.80795 0
M  V30 2570 H 240.058 5.22007 0.510793 0
M  V30 2571 H 241.532 5.0569 2.21318 0
M  V30 2572 H 242.009 3.44107 2.72923 0
M  V30 2573 H 242.615 4.08437 1.18572 0
M  V30 2574 N 240.93 -0.123565 1.57115 0
M  V30 2575 C 241.86 -1.15309 2.03042 0
M  V30 2576 C 242.841 -1.43454 0.914061 0
M  V30 2577 O 244.026 -1.53973 1.18347 0
M  V30 2578 C 241.156 -2.48043 2.43089 0
M  V30 2579 C 240.11 -2.3437 3.58127 0
M  V30 2580 C 239.436 -3.72026 3.84059 0
M  V30 2581 C 240.736 -1.80804 4.90007 0
M  V30 2582 H 242.43 -0.771102 2.893 0
M  V30 2583 H 239.976 -0.369479 1.39179 0
M  V30 2584 H 241.929 -3.20311 2.73823 0
M  V30 2585 H 240.653 -2.88122 1.53796 0
M  V30 2586 H 239.312 -1.64551 3.27595 0
M  V30 2587 H 238.96 -4.09582 2.91979 0
M  V30 2588 H 238.66 -3.63732 4.6149 0
M  V30 2589 H 240.184 -4.45806 4.1724 0
M  V30 2590 H 241.598 -2.42886 5.19307 0
M  V30 2591 H 239.995 -1.83343 5.71407 0
M  V30 2592 H 241.065 -0.76528 4.78823 0
M  V30 2593 N 242.408 -1.52605 -0.393616 0
M  V30 2594 C 243.819 -1.59417 -0.971761 0
M  V30 2595 C 244.17 -0.444173 -1.91106 0
M  V30 2596 O 243.295 0.433382 -2.12016 0
M  V30 2597 C 243.89 -2.88936 -1.76921 0
M  V30 2598 C 242.449 -2.98175 -2.29714 0
M  V30 2599 C 241.596 -2.54491 -1.10135 0
M  V30 2600 H 244.547 -1.57751 -0.173317 0
M  V30 2601 H 244.568 -2.75163 -2.62804 0
M  V30 2602 H 244.08 -3.72616 -1.08532 0
M  V30 2603 H 242.181 -2.19024 -3.01429 0
M  V30 2604 H 242.294 -4.02726 -2.59517 0
M  V30 2605 H 240.658 -2.08702 -1.45999 0
M  V30 2606 H 241.441 -3.4056 -0.432874 0
M  V30 2607 N 243.887 0.651787 -1.4349 0
M  V30 2608 C 244.819 1.77725 -1.44729 0
M  V30 2609 C 245.832 1.59141 -0.343231 0
M  V30 2610 O 247.021 1.67835 -0.607751 0
M  V30 2611 C 244.121 3.15172 -1.24579 0
M  V30 2612 C 243.294 3.60402 -2.47849 0
M  V30 2613 C 242.353 4.76656 -2.22902 0
M  V30 2614 O 241.379 4.86022 -2.96263 0
M  V30 2615 N 242.581 5.66958 -1.24656 0
M  V30 2616 H 245.346 1.77141 -2.41746 0
M  V30 2617 H 242.907 0.835678 -1.38665 0
M  V30 2618 H 244.899 3.90634 -1.0577 0
M  V30 2619 H 243.469 3.1052 -0.360015 0
M  V30 2620 H 242.689 2.75369 -2.82073 0
M  V30 2621 H 243.977 3.87368 -3.29884 0
M  V30 2622 H 243.375 5.62065 -0.640265 0
M  V30 2623 H 241.932 6.42135 -1.1183 0
M  V30 2624 N 245.365 1.30045 0.890287 0
M  V30 2625 C 246.595 1.21296 1.67245 0
M  V30 2626 C 247.003 -0.227471 1.87828 0
M  V30 2627 O 246.346 -1.16296 1.422 0
M  V30 2628 C 246.408 1.86519 3.07329 0
M  V30 2629 C 246.072 3.35837 3.09939 0
M  V30 2630 C 247.069 4.31915 2.89389 0
M  V30 2631 C 244.754 3.77196 3.31706 0
M  V30 2632 C 246.748 5.67325 2.90552 0
M  V30 2633 C 244.435 5.12725 3.32499 0
M  V30 2634 C 245.433 6.076 3.11947 0
M  V30 2635 O 245.121 7.40655 3.12547 0
M  V30 2636 H 244.853 0.4211 0.528821 0
M  V30 2637 H 247.407 1.72111 1.12103 0
M  V30 2638 H 245.637 1.30228 3.64112 0
M  V30 2639 H 247.326 1.71963 3.67673 0
M  V30 2640 H 248.092 4.01294 2.72375 0
M  V30 2641 H 243.971 3.03796 3.4674 0
M  V30 2642 H 247.515 6.41354 2.74429 0
M  V30 2643 H 243.412 5.42988 3.49047 0
M  V30 2644 H 244.18 7.49577 3.28749 0
M  V30 2645 N 246.843 -1.10192 1.12674 0
M  V30 2646 C 247.806 -2.14786 0.799979 0
M  V30 2647 C 248.806 -1.59711 -0.18685 0
M  V30 2648 O 249.996 -1.74156 0.0392558 0
M  V30 2649 C 247.128 -3.40374 0.189228 0
M  V30 2650 H 248.321 -2.45203 1.72671 0
M  V30 2651 H 245.874 -1.25597 0.930326 0
M  V30 2652 H 246.609 -3.15577 -0.747107 0
M  V30 2653 H 246.394 -3.81637 0.899766 0
M  V30 2654 H 247.884 -4.17594 -0.0228143 0
M  V30 2655 N 248.321 -0.919034 -1.28029 0
M  V30 2656 C 249.546 -0.570357 -1.99403 0
M  V30 2657 C 249.971 0.842486 -1.68178 0
M  V30 2658 O 249.329 1.56391 -0.917141 0
M  V30 2659 C 249.377 -0.792541 -3.51783 0
M  V30 2660 O 248.481 0.145988 -4.12142 0
M  V30 2661 H 247.822 -0.220555 -0.6263 0
M  V30 2662 H 250.352 -1.23592 -1.63053 0
M  V30 2663 H 250.362 -0.704708 -4.01868 0
M  V30 2664 H 249.037 -1.82247 -3.73844 0
M  V30 2665 H 247.614 0.00897528 -3.72899 0
M  V30 2666 N 249.799 1.42003 -0.683588 0
M  V30 2667 C 250.747 2.326 0.000815408 0
M  V30 2668 C 251.741 1.50308 0.781278 0
M  V30 2669 O 252.947 1.66322 0.688251 0
M  V30 2670 H 249.322 0.751758 0.0190616 0
M  V30 2671 H 251.293 2.88011 -0.780528 0
M  V30 2672 C 250.042 3.34978 0.93195 0
M  V30 2673 H 249.365 3.98345 0.340817 0
M  V30 2674 H 250.805 4.00936 1.37936 0
M  V30 2675 C 249.264 2.67925 2.04249 0
M  V30 2676 O 249.794 2.51788 3.12995 0
M  V30 2677 N 248 2.2681 1.81675 0
M  V30 2678 H 247.547 2.40135 0.932363 0
M  V30 2679 H 247.505 1.8228 2.56167 0
M  V30 2680 N 251.277 0.427512 1.51691 0
M  V30 2681 C 252.525 -0.141948 2.01601 0
M  V30 2682 C 252.846 -1.44067 1.31414 0
M  V30 2683 O 252.116 -1.90763 0.445658 0
M  V30 2684 H 250.696 -0.0554468 0.744939 0
M  V30 2685 H 253.358 0.567968 1.86441 0
M  V30 2686 H 252.454 -0.324913 3.10404 0
M  V30 2687 N 252.755 -1.56801 0.158532 0
M  V30 2688 C 254.002 -1.9649 -0.489679 0
M  V30 2689 C 254.33 -1.04394 -1.6411 0
M  V30 2690 O 253.585 -0.0754401 -1.95555 0
M  V30 2691 C 253.884 -3.4235 -1.02623 0
M  V30 2692 C 253.55 -4.50899 0.00794526 0
M  V30 2693 C 252.212 -4.80312 0.292207 0
M  V30 2694 C 254.564 -5.16333 0.710584 0
M  V30 2695 C 251.892 -5.72461 1.28472 0
M  V30 2696 C 254.244 -6.09553 1.69199 0
M  V30 2697 C 252.908 -6.37339 1.98383 0
M  V30 2698 H 252.178 -0.719009 -0.179186 0
M  V30 2699 H 254.825 -1.8989 0.247798 0
M  V30 2700 H 253.13 -3.45838 -1.84128 0
M  V30 2701 H 254.827 -3.70393 -1.53656 0
M  V30 2702 H 251.417 -4.28015 -0.22379 0
M  V30 2703 H 255.601 -4.93732 0.504174 0
M  V30 2704 H 250.857 -5.92278 1.51714 0
M  V30 2705 H 255.031 -6.59327 2.24189 0
M  V30 2706 H 252.658 -7.08546 2.7544 0
M  V30 2707 N 254.233 0.115231 -1.57178 0
M  V30 2708 C 255.181 1.16014 -2.01602 0
M  V30 2709 C 256.175 1.42653 -0.913587 0
M  V30 2710 O 257.381 1.42571 -1.09879 0
M  V30 2711 H 253.756 0.391252 -0.642204 0
M  V30 2712 H 255.727 0.758998 -2.88586 0
M  V30 2713 C 254.476 2.47767 -2.4394 0
M  V30 2714 H 253.799 2.28108 -3.28339 0
M  V30 2715 H 255.239 3.19432 -2.78818 0
M  V30 2716 C 253.698 3.10617 -1.30455 0
M  V30 2717 O 254.228 3.96846 -0.622585 0
M  V30 2718 N 252.434 2.70553 -1.06064 0
M  V30 2719 H 251.981 2.00527 -1.61699 0
M  V30 2720 H 251.939 3.12934 -0.303284 0
M  V30 2721 N 255.711 1.52812 0.385517 0
M  V30 2722 C 256.941 1.71658 1.14966 0
M  V30 2723 C 257.349 0.436253 1.84102 0
M  V30 2724 O 256.692 -0.599313 1.73649 0
M  V30 2725 C 256.754 2.81309 2.23843 0
M  V30 2726 C 256.418 4.22313 1.74644 0
M  V30 2727 C 257.415 5.05352 1.22129 0
M  V30 2728 C 255.1 4.68648 1.80761 0
M  V30 2729 C 257.094 6.32807 0.763838 0
M  V30 2730 C 254.781 5.96086 1.34627 0
M  V30 2731 C 255.779 6.77996 0.825264 0
M  V30 2732 O 255.467 8.03045 0.370669 0
M  V30 2733 H 255.199 0.578022 0.350523 0
M  V30 2734 H 257.753 2.00263 0.456509 0
M  V30 2735 H 255.983 2.48133 2.96592 0
M  V30 2736 H 257.672 2.88524 2.85497 0
M  V30 2737 H 258.438 4.70736 1.16758 0
M  V30 2738 H 254.317 4.04979 2.20256 0
M  V30 2739 H 257.861 6.96689 0.356494 0
M  V30 2740 H 253.758 6.30205 1.39686 0
M  V30 2741 H 254.526 8.17021 0.491829 0
M  V30 2742 N 257.189 -0.644168 1.43834 0
M  V30 2743 C 258.6 -1.22554 1.40845 0
M  V30 2744 C 258.951 -1.9585 0.117115 0
M  V30 2745 O 258.076 -2.01734 -0.783086 0
M  V30 2746 C 258.671 -2.22907 2.55143 0
M  V30 2747 C 257.23 -2.76501 2.5539 0
M  V30 2748 C 256.377 -1.51287 2.32396 0
M  V30 2749 H 259.328 -0.43563 1.52604 0
M  V30 2750 H 259.349 -3.05259 2.2715 0
M  V30 2751 H 258.861 -1.69533 3.49114 0
M  V30 2752 H 256.962 -3.33914 1.65324 0
M  V30 2753 H 257.075 -3.23429 3.53455 0
M  V30 2754 H 255.439 -1.78957 1.81236 0
M  V30 2755 H 256.222 -0.998336 3.28463 0
M  V30 2756 N 258.668 -1.30515 -0.883378 0
M  V30 2757 C 259.631 -1.1701 -1.97082 0
M  V30 2758 C 260.631 -0.10089 -1.60483 0
M  V30 2759 O 261.821 -0.349127 -1.70666 0
M  V30 2760 C 258.953 -0.793045 -3.31547 0
M  V30 2761 H 260.146 -2.13622 -2.10489 0
M  V30 2762 H 257.699 -1.13935 -1.06998 0
M  V30 2763 H 258.434 0.172499 -3.23841 0
M  V30 2764 H 258.219 -1.56576 -3.5948 0
M  V30 2765 H 259.709 -0.722073 -4.1131 0
M  V30 2766 N 260.146 1.09593 -1.13257 0
M  V30 2767 C 261.423 1.78293 -0.804432 0
M  V30 2768 C 261.803 1.99004 0.70431 0
M  V30 2769 O 261.151 1.59007 1.641 0
M  V30 2770 C 261.361 3.10707 -1.5894 0
M  V30 2771 C 262.709 3.85443 -1.78099 0
M  V30 2772 O 263.733 3.20454 -1.55525 0
M  V30 2773 O 262.592 5.02108 -2.15753 0
M  V30 2774 H 259.686 0.773156 -0.293528 0
M  V30 2775 H 262.232 1.16164 -1.23709 0
M  V30 2776 H 261.004 2.91106 -2.61482 0
M  V30 2777 H 260.627 3.80558 -1.15157 0
M  V30 2778 N 261.624 0.925811 1.2754 0
M  V30 2779 C 262.572 0.413897 2.28888 0
M  V30 2780 C 263.566 -0.500779 1.61829 0
M  V30 2781 O 264.772 -0.38069 1.75928 0
M  V30 2782 H 261.147 0.115274 0.743112 0
M  V30 2783 H 263.118 1.28151 2.69481 0
M  V30 2784 C 261.867 -0.319792 3.46226 0
M  V30 2785 H 261.19 0.374846 3.98039 0
M  V30 2786 H 262.63 -0.642435 4.19105 0
M  V30 2787 C 261.089 -1.53209 3.00048 0
M  V30 2788 O 261.619 -2.6309 3.03557 0
M  V30 2789 N 259.825 -1.38326 2.55566 0
M  V30 2790 H 259.372 -0.489292 2.5291 0
M  V30 2791 H 259.33 -2.19564 2.25031 0
M  V30 2792 N 263.102 -1.41638 0.69111 0
M  V30 2793 C 264.379 -1.95036 0.148421 0
M  V30 2794 C 264.759 -1.63072 -1.34055 0
M  V30 2795 O 264.107 -0.93538 -2.08478 0
M  V30 2796 C 264.317 -3.46279 0.434951 0
M  V30 2797 C 265.665 -4.23069 0.360275 0
M  V30 2798 O 266.689 -3.54277 0.369613 0
M  V30 2799 O 265.548 -5.45583 0.316534 0
M  V30 2800 H 262.642 -0.826908 0.0123654 0
M  V30 2801 H 265.188 -1.5138 0.766963 0
M  V30 2802 H 263.96 -3.6281 1.46576 0
M  V30 2803 H 263.583 -3.97019 -0.214787 0
M  V30 2804 N 264.58 -0.43555 -1.51462 0
M  V30 2805 C 265.53 0.394701 -2.24558 0
M  V30 2806 C 266.514 0.99157 -1.26715 0
M  V30 2807 O 267.706 0.910007 -1.51815 0
M  V30 2808 C 264.835 1.4963 -3.08975 0
M  V30 2809 C 263.921 0.908912 -4.14246 0
M  V30 2810 N 264.312 0.0505335 -5.05775 0
M  V30 2811 C 262.61 1.17668 -4.30198 0
M  V30 2812 C 263.311 -0.279161 -5.8103 0
M  V30 2813 N 262.287 0.336767 -5.42556 0
M  V30 2814 H 266.089 -0.267106 -2.92684 0
M  V30 2815 H 263.603 -0.247518 -1.60503 0
M  V30 2816 H 265.6 2.10394 -3.59917 0
M  V30 2817 H 264.26 2.16046 -2.42393 0
M  V30 2818 H 265.271 -0.31577 -5.16936 0
M  V30 2819 H 261.948 1.83847 -3.74842 0
M  V30 2820 H 263.338 -0.977553 -6.64751 0
M  V30 2821 N 266.058 1.56714 -0.166846 0
M  V30 2822 C 267.008 2.14338 0.777382 0
M  V30 2823 C 267.992 1.07642 1.19591 0
M  V30 2824 O 269.184 1.33775 1.15902 0
M  V30 2825 C 266.313 2.78417 2.00846 0
M  V30 2826 C 265.399 3.92264 1.61212 0
M  V30 2827 N 265.79 4.97268 0.925104 0
M  V30 2828 C 264.088 4.03342 1.90346 0
M  V30 2829 C 264.789 5.77093 0.730627 0
M  V30 2830 N 263.765 5.2854 1.27067 0
M  V30 2831 H 267.567 2.9289 0.243466 0
M  V30 2832 H 265.081 1.62364 0.0339954 0
M  V30 2833 H 267.078 3.18073 2.69509 0
M  V30 2834 H 265.738 2.01344 2.54736 0
M  V30 2835 H 266.749 5.14601 0.583646 0
M  V30 2836 H 263.426 3.37368 2.45946 0
M  V30 2837 H 264.816 6.71638 0.187668 0
M  V30 2838 N 267.536 -0.106894 1.57237 0
M  V30 2839 C 268.446 -1.14911 2.0453 0
M  V30 2840 C 269.462 -1.44592 0.96795 0
M  V30 2841 O 270.638 -1.55468 1.2803 0
M  V30 2842 C 267.703 -2.45272 2.45036 0
M  V30 2843 C 266.764 -2.22879 3.66911 0
M  V30 2844 C 265.997 -3.47024 4.05475 0
M  V30 2845 O 266.22 -4.54804 3.44252 0
M  V30 2846 O 265.154 -3.3731 4.98504 0
M  V30 2847 H 268.98 -0.777461 2.9358 0
M  V30 2848 H 266.565 -0.318563 1.45964 0
M  V30 2849 H 268.447 -3.22055 2.71769 0
M  V30 2850 H 267.122 -2.81886 1.59129 0
M  V30 2851 H 266.029 -1.43915 3.45311 0
M  V30 2852 H 267.362 -1.91163 4.53561 0
M  V30 2853 N 269.014 -1.53014 -0.377408 0
M  V30 2854 C 269.961 -1.78616 -1.46168 0
M  V30 2855 C 270.931 -0.629917 -1.53692 0
M  V30 2856 O 272.116 -0.870861 -1.69766 0
M  V30 2857 C 269.256 -1.97123 -2.8326 0
M  V30 2858 C 268.369 -3.24831 -2.84796 0
M  V30 2859 C 267.504 -3.33591 -4.13389 0
M  V30 2860 C 266.543 -4.55377 -4.09021 0
M  V30 2861 N 265.68 -4.61355 -5.29241 0
M  V30 2862 H 270.52 -2.71142 -1.23637 0
M  V30 2863 H 268.057 -1.34326 -0.599577 0
M  V30 2864 H 270.015 -2.05839 -3.62886 0
M  V30 2865 H 268.645 -1.07946 -3.04216 0
M  V30 2866 H 267.697 -3.25128 -1.97474 0
M  V30 2867 H 269.009 -4.14523 -2.77439 0
M  V30 2868 H 268.163 -3.41554 -5.01424 0
M  V30 2869 H 266.902 -2.41894 -4.23484 0
M  V30 2870 H 265.907 -4.47527 -3.19373 0
M  V30 2871 H 267.132 -5.48402 -4.00539 0
M  V30 2872 H 265.078 -3.72554 -5.39944 0
M  V30 2873 H 264.995 -5.44935 -5.24006 0
M  V30 2874 H 266.263 -4.73586 -6.19141 0
M  V30 2875 N 270.492 0.636531 -1.44174 0
M  V30 2876 C 271.442 1.74233 -1.47061 0
M  V30 2877 C 272.426 1.57331 -0.337034 0
M  V30 2878 O 273.618 1.67159 -0.581973 0
M  V30 2879 C 270.747 3.12897 -1.41246 0
M  V30 2880 C 269.833 3.35288 -2.59698 0
M  V30 2881 N 270.224 3.2807 -3.84972 0
M  V30 2882 C 268.522 3.66065 -2.54778 0
M  V30 2883 C 269.223 3.51001 -4.63867 0
M  V30 2884 N 268.199 3.73616 -3.94857 0
M  V30 2885 H 272.001 1.67103 -2.41773 0
M  V30 2886 H 269.515 0.838806 -1.3906 0
M  V30 2887 H 271.512 3.92189 -1.41398 0
M  V30 2888 H 270.172 3.21197 -0.47569 0
M  V30 2889 H 271.183 3.07109 -4.17019 0
M  V30 2890 H 267.86 3.81379 -1.6987 0
M  V30 2891 H 269.25 3.51059 -5.72894 0
M  V30 2892 N 271.97 1.30982 0.876444 0
M  V30 2893 C 272.9 1.20668 1.99903 0
M  V30 2894 C 273.881 0.095354 1.69833 0
M  V30 2895 O 275.066 0.27885 1.92188 0
M  V30 2896 C 272.196 0.90655 3.3526 0
M  V30 2897 C 271.15 1.97675 3.79617 0
M  V30 2898 C 270.476 1.52943 5.1236 0
M  V30 2899 C 271.776 3.389 3.97422 0
M  V30 2900 H 273.47 2.14586 2.0879 0
M  V30 2901 H 271.016 1.03308 1.00317 0
M  V30 2902 H 272.969 0.821025 4.13324 0
M  V30 2903 H 271.693 -0.0682969 3.26529 0
M  V30 2904 H 270.352 2.05205 3.03787 0
M  V30 2905 H 270 0.54262 5.00065 0
M  V30 2906 H 269.7 2.24532 5.43009 0
M  V30 2907 H 271.224 1.45786 5.92941 0
M  V30 2908 H 272.638 3.34081 4.659 0
M  V30 2909 H 271.035 4.0865 4.3946 0
M  V30 2910 H 272.105 3.80163 3.01006 0
M  V30 2911 N 273.449 -1.08991 1.13837 0
M  V30 2912 C 274.674 -1.85551 0.926585 0
M  V30 2913 C 275.099 -1.80782 -0.519566 0
M  V30 2914 O 274.457 -1.18855 -1.36906 0
M  V30 2915 C 274.505 -3.31266 1.42462 0
M  V30 2916 O 273.609 -4.07822 0.612789 0
M  V30 2917 H 272.95 -0.575192 0.331738 0
M  V30 2918 H 275.48 -1.37604 1.51414 0
M  V30 2919 H 275.49 -3.82112 1.43019 0
M  V30 2920 H 274.165 -3.34052 2.47754 0
M  V30 2921 H 272.742 -3.66731 0.675463 0
M  V30 2922 N 274.927 -0.932562 -1.27047 0
M  V30 2923 C 276.173 -0.576412 -1.94436 0
M  V30 2924 C 276.506 0.880891 -1.73072 0
M  V30 2925 O 275.781 1.62905 -1.06264 0
M  V30 2926 C 276.064 -0.909031 -3.48437 0
M  V30 2927 C 275.917 -2.42044 -3.79123 0
M  V30 2928 C 277.236 -0.418341 -4.38107 0
M  V30 2929 H 274.355 -0.210888 -0.706184 0
M  V30 2930 H 276.997 -1.16522 -1.50075 0
M  V30 2931 H 275.147 -0.407947 -3.86352 0
M  V30 2932 H 276.819 -2.99359 -3.50973 0
M  V30 2933 H 275.062 -2.86758 -3.25503 0
M  V30 2934 H 275.733 -2.6037 -4.86736 0
M  V30 2935 H 278.209 -0.847856 -4.0737 0
M  V30 2936 H 277.085 -0.679981 -5.44672 0
M  V30 2937 H 277.346 0.681642 -4.36814 0
M  V30 2938 N 276.405 1.4127 -0.698611 0
M  V30 2939 C 277.652 2.0118 -0.230865 0
M  V30 2940 C 277.98 1.55338 1.17049 0
M  V30 2941 O 277.235 0.756775 1.80475 0
M  V30 2942 C 277.534 3.56592 -0.240192 0
M  V30 2943 C 277.2 4.21955 -1.58948 0
M  V30 2944 C 275.862 4.39524 -1.95887 0
M  V30 2945 C 278.214 4.58576 -2.47704 0
M  V30 2946 C 275.542 4.90992 -3.2116 0
M  V30 2947 C 277.894 5.11435 -3.72313 0
M  V30 2948 C 276.558 5.27215 -4.0939 0
M  V30 2949 H 275.828 0.736169 -0.0844796 0
M  V30 2950 H 278.475 1.69124 -0.8983 0
M  V30 2951 H 276.78 3.88456 0.510797 0
M  V30 2952 H 278.477 4.00758 0.139296 0
M  V30 2953 H 275.067 4.08657 -1.29219 0
M  V30 2954 H 279.251 4.44654 -2.20445 0
M  V30 2955 H 274.507 5.01393 -3.49878 0
M  V30 2956 H 278.681 5.38752 -4.4127 0
M  V30 2957 H 276.308 5.66859 -5.06533 0
M  V30 2958 N 277.883 0.443576 1.51229 0
M  V30 2959 C 279.108 -0.121648 2.07043 0
M  V30 2960 C 279.533 -1.35156 1.30823 0
M  V30 2961 O 278.891 -1.7793 0.347934 0
M  V30 2962 C 278.939 -0.41624 3.5819 0
M  V30 2963 O 278.043 -1.50163 3.8409 0
M  V30 2964 H 277.384 0.000871367 0.663999 0
M  V30 2965 H 279.914 0.626706 1.94765 0
M  V30 2966 H 279.924 -0.664867 4.02546 0
M  V30 2967 H 278.599 0.482653 4.1309 0
M  V30 2968 H 277.176 -1.24248 3.51592 0
M  V30 2969 N 279.361 -1.56624 0.175154 0
M  V30 2970 C 280.777 -1.58571 -0.180966 0
M  V30 2971 C 280.977 -1.19065 -1.6256 0
M  V30 2972 O 280.033 -0.904044 -2.35761 0
M  V30 2973 C 281.346 -3.00522 0.103326 0
M  V30 2974 C 282.894 -3.12972 0.0418426 0
M  V30 2975 C 283.369 -4.57022 0.299175 0
M  V30 2976 N 284.86 -4.62541 0.247086 0
M  V30 2977 C 285.595 -5.71857 0.420318 0
M  V30 2978 N 285.091 -6.89717 0.652816 0
M  V30 2979 N 286.884 -5.60972 0.355957 0
M  V30 2980 H 279.035 -1.80589 1.11809 0
M  V30 2981 H 281.298 -0.837178 0.444788 0
M  V30 2982 H 281.004 -3.33916 1.10422 0
M  V30 2983 H 280.878 -3.72344 -0.603299 0
M  V30 2984 H 283.265 -2.79403 -0.949636 0
M  V30 2985 H 283.346 -2.43578 0.781238 0
M  V30 2986 H 282.99 -4.913 1.28788 0
M  V30 2987 H 282.92 -5.24579 -0.460876 0
M  V30 2988 H 285.411 -3.77829 0.0731895 0
M  V30 2989 H 285.724 -7.68911 0.774347 0
M  V30 2990 H 284.069 -6.91572 0.689476 0
M  V30 2991 H 287.26 -4.67773 0.174882 0
M  V30 2992 H 287.433 -6.46111 0.494388 0
M  V30 2993 N 280.839 0.0985539 -1.57292 0
M  V30 2994 C 281.786 1.11981 -2.01814 0
M  V30 2995 C 282.756 1.39999 -0.89384 0
M  V30 2996 O 283.941 1.5152 -1.15958 0
M  V30 2997 C 281.081 2.43577 -2.44467 0
M  V30 2998 C 280.194 2.2232 -3.70402 0
M  V30 2999 C 279.329 3.4729 -4.01949 0
M  V30 3000 C 278.368 3.2128 -5.21005 0
M  V30 3001 N 277.505 4.38507 -5.48321 0
M  V30 3002 H 282.345 0.733149 -2.88841 0
M  V30 3003 H 279.882 0.350482 -1.42864 0
M  V30 3004 H 281.84 3.20373 -2.6724 0
M  V30 3005 H 280.47 2.80097 -1.60455 0
M  V30 3006 H 279.522 1.36343 -3.55126 0
M  V30 3007 H 280.834 1.99089 -4.57345 0
M  V30 3008 H 279.988 4.32495 -4.25479 0
M  V30 3009 H 278.727 3.73572 -3.13521 0
M  V30 3010 H 277.732 2.34468 -4.97298 0
M  V30 3011 H 278.957 2.96348 -6.11028 0
M  V30 3012 H 276.903 4.64871 -4.62851 0
M  V30 3013 H 276.82 4.18455 -6.29628 0
M  V30 3014 H 278.088 5.24787 -5.76385 0
M  V30 3015 N 282.317 1.53212 0.369288 0
M  V30 3016 C 283.28 1.7872 1.43498 0
M  V30 3017 C 284.28 0.657554 1.46741 0
M  V30 3018 O 285.47 0.925736 1.47566 0
M  V30 3019 C 282.602 1.90591 2.82645 0
M  V30 3020 H 283.795 2.73894 1.22156 0
M  V30 3021 H 281.348 1.44233 0.602203 0
M  V30 3022 H 282.083 0.974709 3.09306 0
M  V30 3023 H 281.868 2.72751 2.8169 0
M  V30 3024 H 283.358 2.11931 3.59826 0
M  V30 3025 N 283.795 -0.628877 1.44509 0
M  V30 3026 C 285.206 -1.21054 1.42137 0
M  V30 3027 C 285.557 -1.95715 0.137881 0
M  V30 3028 O 284.682 -2.02554 -0.761645 0
M  V30 3029 C 285.277 -2.20189 2.57493 0
M  V30 3030 C 283.836 -2.73777 2.58308 0
M  V30 3031 C 282.983 -1.48813 2.33987 0
M  V30 3032 H 285.934 -0.41942 1.53057 0
M  V30 3033 H 285.955 -3.02833 2.30375 0
M  V30 3034 H 285.467 -1.6582 3.50892 0
M  V30 3035 H 283.568 -3.32142 1.68856 0
M  V30 3036 H 283.681 -3.19662 3.56865 0
M  V30 3037 H 282.045 -1.77024 1.83124 0
M  V30 3038 H 282.828 -0.963442 3.29504 0
M  V30 3039 N 285.273 -1.31445 -0.869486 0
M  V30 3040 C 286.503 -1.23942 -1.65294 0
M  V30 3041 C 286.911 0.197561 -1.88166 0
M  V30 3042 O 286.254 1.14019 -1.44033 0
M  V30 3043 C 286.316 -1.91385 -3.04322 0
M  V30 3044 C 285.98 -3.40726 -3.04557 0
M  V30 3045 C 286.977 -4.36464 -2.82481 0
M  V30 3046 C 284.662 -3.82425 -3.25663 0
M  V30 3047 C 286.656 -5.71876 -2.8149 0
M  V30 3048 C 284.343 -5.1795 -3.243 0
M  V30 3049 C 285.341 -6.12486 -3.02241 0
M  V30 3050 O 285.029 -7.45534 -3.00724 0
M  V30 3051 H 284.761 -0.429459 -0.522054 0
M  V30 3052 H 287.315 -1.73873 -1.0935 0
M  V30 3053 H 285.545 -1.36004 -3.61994 0
M  V30 3054 H 287.234 -1.77791 -3.64891 0
M  V30 3055 H 288 -4.05576 -2.65956 0
M  V30 3056 H 283.879 -3.09274 -3.41863 0
M  V30 3057 H 287.423 -6.45638 -2.64191 0
M  V30 3058 H 283.32 -5.48473 -3.40365 0
M  V30 3059 H 284.088 -7.54713 -3.16782 0
M  V30 3060 N 286.751 1.08385 -1.14413 0
M  V30 3061 C 287.976 1.85057 -0.936413 0
M  V30 3062 C 288.401 1.81055 0.509971 0
M  V30 3063 O 287.759 1.1958 1.36273 0
M  V30 3064 C 287.807 3.30505 -1.44217 0
M  V30 3065 O 286.911 4.07491 -0.634409 0
M  V30 3066 H 286.252 0.573425 -0.334784 0
M  V30 3067 H 288.782 1.36799 -1.52142 0
M  V30 3068 H 288.792 3.81348 -1.45043 0
M  V30 3069 H 287.467 3.32734 -2.49522 0
M  V30 3070 H 286.044 3.66368 -0.694902 0
M  V30 3071 N 288.23 0.939286 1.26551 0
M  V30 3072 C 289.46 0.601663 1.97645 0
M  V30 3073 C 289.868 -0.827206 1.70159 0
M  V30 3074 O 289.211 -1.56291 0.965338 0
M  V30 3075 C 289.273 0.761725 3.51337 0
M  V30 3076 C 288.937 2.16487 4.0247 0
M  V30 3077 C 289.934 3.14016 4.14355 0
M  V30 3078 C 287.619 2.48494 4.36527 0
M  V30 3079 C 289.613 4.41654 4.59587 0
M  V30 3080 C 287.3 3.76364 4.81449 0
M  V30 3081 C 288.298 4.72758 4.92939 0
M  V30 3082 O 287.986 5.98352 5.36871 0
M  V30 3083 H 287.718 0.225758 0.637189 0
M  V30 3084 H 290.272 1.26178 1.62075 0
M  V30 3085 H 288.502 0.0444808 3.86674 0
M  V30 3086 H 290.191 0.427442 4.03643 0
M  V30 3087 H 290.957 2.90613 3.8829 0
M  V30 3088 H 286.836 1.74202 4.26819 0
M  V30 3089 H 290.38 5.16896 4.68471 0
M  V30 3090 H 286.277 3.99582 5.06956 0
M  V30 3091 H 287.045 6.01507 5.55096 0
M  V30 3092 N 289.708 -1.40897 0.706093 0
M  V30 3093 C 290.956 -2.00657 0.241054 0
M  V30 3094 C 291.277 -1.56241 -1.16678 0
M  V30 3095 O 290.547 -0.79765 -1.78926 0
M  V30 3096 H 289.127 -0.742018 0.0861308 0
M  V30 3097 H 291.789 -1.72372 0.909604 0
M  V30 3098 H 290.885 -3.10958 0.266705 0
M  V30 3099 N 291.186 -0.45159 -1.50991 0
M  V30 3100 C 292.432 0.102439 -2.03142 0
M  V30 3101 C 292.787 1.39138 -1.32884 0
M  V30 3102 O 292.08 1.86493 -0.439438 0
M  V30 3103 C 292.274 0.361728 -3.55565 0
M  V30 3104 C 292.103 -0.900535 -4.40591 0
M  V30 3105 C 290.873 -1.43821 -4.844 0
M  V30 3106 C 293.071 -1.79063 -4.82121 0
M  V30 3107 N 291.053 -2.65153 -5.53685 0
M  V30 3108 C 292.424 -2.84991 -5.50618 0
M  V30 3109 C 294.479 -1.80334 -4.64095 0
M  V30 3110 C 293.182 -3.92155 -6.02998 0
M  V30 3111 C 295.208 -2.86442 -5.17402 0
M  V30 3112 C 294.57 -3.9109 -5.85857 0
M  V30 3113 H 290.669 -0.00204537 -0.781997 0
M  V30 3114 H 293.253 -0.615446 -1.84717 0
M  V30 3115 H 291.424 1.04865 -3.73976 0
M  V30 3116 H 293.156 0.908372 -3.94374 0
M  V30 3117 H 289.911 -0.990117 -4.63135 0
M  V30 3118 H 290.335 -3.26717 -5.92946 0
M  V30 3119 H 294.977 -1.00753 -4.1062 0
M  V30 3120 H 292.695 -4.72565 -6.55521 0
M  V30 3121 H 296.281 -2.88386 -5.05297 0
M  V30 3122 H 295.161 -4.71845 -6.26364 0
M  V30 3123 N 292.664 1.56529 -0.183458 0
M  V30 3124 C 293.941 1.88959 0.50536 0
M  V30 3125 C 294.321 1.09523 1.80466 0
M  V30 3126 O 293.669 0.19278 2.27685 0
M  V30 3127 C 293.879 3.41162 0.73547 0
M  V30 3128 C 295.227 4.11155 1.06005 0
M  V30 3129 O 296.251 3.46548 0.823594 0
M  V30 3130 O 295.11 5.25318 1.50675 0
M  V30 3131 H 292.204 0.78441 0.261973 0
M  V30 3132 H 294.75 1.68231 -0.222802 0
M  V30 3133 H 293.522 3.90874 -0.182561 0
M  V30 3134 H 293.145 3.67543 1.51651 0
M  V30 3135 N 294.142 -0.090211 1.57342 0
M  V30 3136 C 295.388 -0.788838 1.8748 0
M  V30 3137 C 295.743 -1.76105 0.7749 0
M  V30 3138 O 295.036 -1.90302 -0.222663 0
M  V30 3139 C 295.23 -1.55222 3.21933 0
M  V30 3140 C 295.059 -0.655441 4.44898 0
M  V30 3141 C 293.829 -0.299325 5.04413 0
M  V30 3142 C 296.027 0.0397458 5.14285 0
M  V30 3143 N 294.009 0.605108 6.10911 0
M  V30 3144 C 295.38 0.802061 6.1479 0
M  V30 3145 C 297.435 0.113154 4.97771 0
M  V30 3146 C 296.138 1.63093 7.00566 0
M  V30 3147 C 298.164 0.928942 5.84059 0
M  V30 3148 C 297.526 1.67936 6.84088 0
M  V30 3149 H 293.625 -0.26467 0.735849 0
M  V30 3150 H 296.209 -0.0511453 1.94633 0
M  V30 3151 H 294.38 -2.26076 3.15823 0
M  V30 3152 H 296.112 -2.19843 3.39781 0
M  V30 3153 H 292.867 -0.648079 4.69145 0
M  V30 3154 H 293.291 1.05002 6.68808 0
M  V30 3155 H 297.933 -0.452676 4.2037 0
M  V30 3156 H 295.651 2.20781 7.77355 0
M  V30 3157 H 299.237 0.988478 5.73341 0
M  V30 3158 H 298.117 2.30044 7.49699 0
M  V30 3159 N 295.62 -1.53406 -0.361157 0
M  V30 3160 C 296.868 -1.69467 -1.10115 0
M  V30 3161 C 297.189 -0.451352 -1.89705 0
M  V30 3162 O 296.459 0.534636 -1.88463 0
M  V30 3163 H 295.039 -0.624749 -0.409508 0
M  V30 3164 H 297.701 -1.90609 -0.406699 0
M  V30 3165 H 296.797 -2.55774 -1.78847 0
M  V30 3166 N 297.098 0.621204 -1.44841 0
M  V30 3167 C 298.347 1.37658 -1.47422 0
M  V30 3168 C 298.66 1.95264 -0.114629 0
M  V30 3169 O 299.866 2.71494 -0.0180199 0
M  V30 3170 C 298.322 2.49285 -2.59586 0
M  V30 3171 C 297.93 1.98149 -4.01797 0
M  V30 3172 C 299.674 3.26409 -2.71399 0
M  V30 3173 C 297.581 3.07178 -5.05367 0
M  V30 3174 H 296.511 0.517344 -0.548517 0
M  V30 3175 H 299.162 0.667257 -1.70938 0
M  V30 3176 H 297.544 3.22839 -2.29328 0
M  V30 3177 H 298.718 1.31395 -4.41669 0
M  V30 3178 H 297.033 1.33812 -3.94314 0
M  V30 3179 H 299.63 4.07706 -3.45948 0
M  V30 3180 H 299.973 3.76535 -1.77559 0
M  V30 3181 H 300.506 2.5995 -3.01116 0
M  V30 3182 H 297.245 2.61985 -6.00869 0
M  V30 3183 H 296.765 3.72542 -4.70077 0
M  V30 3184 H 298.444 3.71789 -5.29511 0
M  V30 3185 N 298.576 1.31904 0.862503 0
M  V30 3186 C 299.992 1.10724 1.14945 0
M  V30 3187 C 300.192 -0.117421 2.01158 0
M  V30 3188 O 299.248 -0.804595 2.39338 0
M  V30 3189 C 300.561 2.38267 1.83437 0
M  V30 3190 C 302.109 2.43949 1.96106 0
M  V30 3191 C 302.584 3.71394 2.68013 0
M  V30 3192 N 304.075 3.72331 2.75543 0
M  V30 3193 C 304.81 4.67641 3.31812 0
M  V30 3194 N 304.306 5.73313 3.88953 0
M  V30 3195 N 306.099 4.5515 3.29841 0
M  V30 3196 H 298.25 2.10436 0.288191 0
M  V30 3197 H 300.513 0.928705 0.190292 0
M  V30 3198 H 300.219 3.27759 1.27542 0
M  V30 3199 H 300.093 2.48633 2.83657 0
M  V30 3200 H 302.48 1.54922 2.51164 0
M  V30 3201 H 302.561 2.37543 0.949059 0
M  V30 3202 H 302.205 4.60791 2.13621 0
M  V30 3203 H 302.135 3.75069 3.69636 0
M  V30 3204 H 304.626 2.95947 2.34997 0
M  V30 3205 H 304.939 6.42107 4.30022 0
M  V30 3206 H 303.284 5.77077 3.87308 0
M  V30 3207 H 306.475 3.71766 2.84443 0
M  V30 3208 H 306.648 5.29604 3.73394 0
M  V30 3209 N 300.054 -1.07777 1.14986 0
M  V30 3210 C 300.987 -2.14228 0.786243 0
M  V30 3211 C 301.965 -1.60888 -0.235347 0
M  V30 3212 O 303.149 -1.88099 -0.122909 0
M  V30 3213 C 300.276 -3.38281 0.168433 0
M  V30 3214 C 299.322 -4.10387 1.16123 0
M  V30 3215 S 300.155 -4.62371 2.70135 0
M  V30 3216 C 301.311 -5.89704 2.09762 0
M  V30 3217 H 301.544 -2.44741 1.68787 0
M  V30 3218 H 299.077 -1.19984 0.971756 0
M  V30 3219 H 301.035 -4.10098 -0.181588 0
M  V30 3220 H 299.696 -3.05953 -0.710725 0
M  V30 3221 H 298.889 -4.99431 0.677086 0
M  V30 3222 H 298.491 -3.44513 1.45556 0
M  V30 3223 H 300.783 -6.61648 1.45701 0
M  V30 3224 H 301.726 -6.42824 2.96955 0
M  V30 3225 H 302.134 -5.4302 1.54239 0
M  V30 3226 N 301.532 -0.945985 -1.26051 0
M  V30 3227 C 302.778 -0.597002 -1.93814 0
M  V30 3228 C 303.111 0.862484 -1.73997 0
M  V30 3229 O 302.386 1.61769 -1.07986 0
M  V30 3230 C 302.669 -0.945937 -3.47454 0
M  V30 3231 C 302.522 -2.46052 -3.76535 0
M  V30 3232 C 303.841 -0.464785 -4.37639 0
M  V30 3233 H 300.96 -0.218366 -0.703907 0
M  V30 3234 H 303.602 -1.18107 -1.48831 0
M  V30 3235 H 301.752 -0.448902 -3.85898 0
M  V30 3236 H 303.424 -3.03065 -3.47778 0
M  V30 3237 H 301.667 -2.90194 -3.22444 0
M  V30 3238 H 302.338 -2.65517 -4.83947 0
M  V30 3239 H 304.814 -0.891016 -4.06448 0
M  V30 3240 H 303.69 -0.737712 -5.4392 0
M  V30 3241 H 303.951 0.635274 -4.37512 0
M  V30 3242 N 303.011 1.40521 -0.713556 0
M  V30 3243 C 304.239 2.05237 -0.261775 0
M  V30 3244 C 304.654 1.53755 1.09567 0
M  V30 3245 O 304.011 0.693268 1.6882 0
M  V30 3246 C 304.062 3.60763 -0.230706 0
M  V30 3247 O 303.783 4.10345 -1.53455 0
M  V30 3248 C 305.284 4.42651 0.239874 0
M  V30 3249 H 302.504 0.660533 -0.118057 0
M  V30 3250 H 305.048 1.79967 -0.971192 0
M  V30 3251 H 303.203 3.8501 0.429661 0
M  V30 3252 H 303.617 5.04526 -1.43366 0
M  V30 3253 H 305.091 5.51599 0.210468 0
M  V30 3254 H 305.568 4.20082 1.28171 0
M  V30 3255 H 306.174 4.23507 -0.390142 0
M  V30 3256 N 304.489 0.459591 1.5075 0
M  V30 3257 C 305.714 -0.0996819 2.0716 0
M  V30 3258 C 306.139 -1.33761 1.32249 0
M  V30 3259 O 305.497 -1.77551 0.366786 0
M  V30 3260 C 305.545 -0.378226 3.58611 0
M  V30 3261 O 304.649 -1.46081 3.85661 0
M  V30 3262 H 303.99 0.00791392 0.663953 0
M  V30 3263 H 306.52 0.647329 1.9409 0
M  V30 3264 H 306.53 -0.622135 4.03229 0
M  V30 3265 H 305.205 0.526439 4.12555 0
M  V30 3266 H 303.782 -1.20511 3.5289 0
M  V30 3267 N 305.967 -1.56429 0.191757 0
M  V30 3268 C 307.215 -1.97095 -0.447006 0
M  V30 3269 C 307.536 -1.07967 -1.62383 0
M  V30 3270 O 306.806 -0.150248 -1.95323 0
M  V30 3271 H 305.386 -0.727832 -0.168135 0
M  V30 3272 H 308.048 -1.92911 0.27771 0
M  V30 3273 H 307.144 -3.01848 -0.793371 0
M  V30 3274 N 307.445 0.0818655 -1.57387 0
M  V30 3275 C 308.691 0.784074 -1.8703 0
M  V30 3276 C 309.024 1.77729 -0.782689 0
M  V30 3277 O 308.299 1.93384 0.208051 0
M  V30 3278 C 308.582 1.50105 -3.27323 0
M  V30 3279 C 308.435 0.524925 -4.46727 0
M  V30 3280 C 309.754 2.44843 -3.65705 0
M  V30 3281 H 306.873 0.283582 -0.680257 0
M  V30 3282 H 309.515 0.0474352 -1.89941 0
M  V30 3283 H 307.665 2.12897 -3.24972 0
M  V30 3284 H 309.337 -0.0970111 -4.61198 0
M  V30 3285 H 307.58 -0.160606 -4.33503 0
M  V30 3286 H 308.251 1.064 -5.41648 0
M  V30 3287 H 310.727 1.92135 -3.69085 0
M  V30 3288 H 309.603 2.92018 -4.64776 0
M  V30 3289 H 309.864 3.29197 -2.95096 0
M  V30 3290 N 308.923 1.53595 0.353017 0
M  V30 3291 C 310.169 1.71581 1.09232 0
M  V30 3292 C 310.524 0.468328 1.86613 0
M  V30 3293 O 309.817 -0.538911 1.83865 0
M  V30 3294 C 310.011 2.91313 2.07054 0
M  V30 3295 C 309.84 4.27585 1.39287 0
M  V30 3296 C 308.61 4.92233 1.1417 0
M  V30 3297 C 310.808 5.07656 0.824005 0
M  V30 3298 N 308.79 6.124 0.428841 0
M  V30 3299 C 310.161 6.19531 0.241195 0
M  V30 3300 C 312.216 4.92609 0.723922 0
M  V30 3301 C 310.919 7.18002 -0.431952 0
M  V30 3302 C 312.945 5.91365 0.0645334 0
M  V30 3303 C 312.307 7.02571 -0.507347 0
M  V30 3304 H 308.406 0.680987 0.384422 0
M  V30 3305 H 310.99 1.91013 0.377096 0
M  V30 3306 H 309.161 2.73398 2.75877 0
M  V30 3307 H 310.893 2.98062 2.73753 0
M  V30 3308 H 307.648 4.51612 1.42631 0
M  V30 3309 H 308.072 6.76944 0.0874131 0
M  V30 3310 H 312.714 4.06808 1.15181 0
M  V30 3311 H 310.432 8.03384 -0.871758 0
M  V30 3312 H 314.018 5.81799 -0.0121469 0
M  V30 3313 H 312.898 7.77675 -1.0095 0
M  V30 3314 N 310.401 -0.613514 1.45168 0
M  V30 3315 C 311.817 -0.933629 1.29443 0
M  V30 3316 C 312.017 -2.00028 0.243101 0
M  V30 3317 O 311.073 -2.49848 -0.364992 0
M  V30 3318 C 312.386 -1.38018 2.67155 0
M  V30 3319 C 313.934 -1.49471 2.75004 0
M  V30 3320 C 314.409 -1.97503 4.13227 0
M  V30 3321 N 315.9 -2.04746 4.15491 0
M  V30 3322 C 316.635 -2.43121 5.19307 0
M  V30 3323 N 316.131 -2.80506 6.33473 0
M  V30 3324 N 317.924 -2.43408 5.06664 0
M  V30 3325 H 310.075 0.0916097 2.12202 0
M  V30 3326 H 312.338 -0.0216655 0.947752 0
M  V30 3327 H 312.044 -0.670625 3.45247 0
M  V30 3328 H 311.918 -2.34784 2.95222 0
M  V30 3329 H 314.305 -2.19519 1.9722 0
M  V30 3330 H 314.386 -0.510342 2.50657 0
M  V30 3331 H 314.03 -1.28045 4.91495 0
M  V30 3332 H 313.96 -2.96843 4.34962 0
M  V30 3333 H 316.451 -1.78468 3.33103 0
M  V30 3334 H 316.764 -3.08652 7.08487 0
M  V30 3335 H 315.109 -2.78216 6.36884 0
M  V30 3336 H 318.3 -2.13604 4.16523 0
M  V30 3337 H 318.473 -2.72989 5.87691 0
M  V30 3338 N 311.879 -1.3236 -0.855495 0
M  V30 3339 C 313.29 -1.2056 -1.42556 0
M  V30 3340 C 313.641 0.182209 -1.95352 0
M  V30 3341 O 312.766 1.08088 -1.87472 0
M  V30 3342 C 313.361 -2.1826 -2.59129 0
M  V30 3343 C 311.92 -2.10351 -3.12137 0
M  V30 3344 C 311.067 -2.06674 -1.84882 0
M  V30 3345 H 314.018 -1.442 -0.662727 0
M  V30 3346 H 314.039 -1.78064 -3.36264 0
M  V30 3347 H 313.551 -3.19257 -2.20673 0
M  V30 3348 H 311.652 -1.12599 -3.55179 0
M  V30 3349 H 311.765 -3.00135 -3.73438 0
M  V30 3350 H 310.129 -1.51901 -2.04446 0
M  V30 3351 H 310.912 -3.09451 -1.48643 0
M  V30 3352 N 313.357 1.07166 -1.15556 0
M  V30 3353 C 314.603 1.80065 -0.932984 0
M  V30 3354 C 314.936 1.86586 0.53845 0
M  V30 3355 O 314.211 1.35098 1.39924 0
M  V30 3356 C 314.494 3.25022 -1.55025 0
M  V30 3357 C 314.347 3.26634 -3.09242 0
M  V30 3358 C 315.666 4.22341 -1.2376 0
M  V30 3359 H 312.785 0.653697 -0.340366 0
M  V30 3360 H 315.427 1.25389 -1.4275 0
M  V30 3361 H 313.577 3.71712 -1.12972 0
M  V30 3362 H 315.249 2.88173 -3.60214 0
M  V30 3363 H 313.492 2.65539 -3.43033 0
M  V30 3364 H 314.163 4.28854 -3.47546 0
M  V30 3365 H 316.639 3.8405 -1.60139 0
M  V30 3366 H 315.515 5.22053 -1.69564 0
M  V30 3367 H 315.776 4.41828 -0.154938 0
M  V30 3368 N 314.835 0.952656 1.25548 0
M  V30 3369 C 316.063 0.623496 1.97282 0
M  V30 3370 C 316.478 -0.803987 1.70826 0
M  V30 3371 O 315.835 -1.53755 0.983147 0
M  V30 3372 C 315.886 0.870209 3.5087 0
M  V30 3373 O 315.607 2.24156 3.76412 0
M  V30 3374 C 317.108 0.553164 4.39835 0
M  V30 3375 H 314.328 0.233931 0.628902 0
M  V30 3376 H 316.872 1.27649 1.59768 0
M  V30 3377 H 315.027 0.263652 3.86502 0
M  V30 3378 H 315.441 2.31021 4.70882 0
M  V30 3379 H 316.915 0.776342 5.46513 0
M  V30 3380 H 317.392 -0.512215 4.36203 0
M  V30 3381 H 317.998 1.13896 4.09766 0
M  V30 3382 N 316.313 -1.40141 0.720998 0
M  V30 3383 C 317.243 -2.33339 0.0867621 0
M  V30 3384 C 318.224 -1.53178 -0.739622 0
M  V30 3385 O 319.409 -1.81625 -0.687449 0
M  V30 3386 C 316.539 -3.37194 -0.831728 0
M  V30 3387 C 315.493 -4.27857 -0.110558 0
M  V30 3388 C 314.819 -5.22294 -1.14513 0
M  V30 3389 C 316.119 -5.11872 1.0385 0
M  V30 3390 H 317.813 -2.86626 0.865219 0
M  V30 3391 H 315.359 -1.37814 0.417516 0
M  V30 3392 H 317.312 -4.01335 -1.28485 0
M  V30 3393 H 316.036 -2.82314 -1.64214 0
M  V30 3394 H 314.695 -3.65176 0.322797 0
M  V30 3395 H 314.343 -4.63717 -1.94874 0
M  V30 3396 H 314.043 -5.83797 -0.667446 0
M  V30 3397 H 315.567 -5.89312 -1.59824 0
M  V30 3398 H 316.981 -5.69436 0.664482 0
M  V30 3399 H 315.378 -5.82445 1.4449 0
M  V30 3400 H 316.448 -4.4753 1.86668 0
M  V30 3401 N 317.792 -0.46758 -1.50504 0
M  V30 3402 C 319.208 -0.121533 -1.59137 0
M  V30 3403 C 319.408 1.3717 -1.47603 0
M  V30 3404 O 318.464 2.14464 -1.33272 0
M  V30 3405 C 319.777 -0.6686 -2.93173 0
M  V30 3406 C 321.325 -0.631716 -3.06559 0
M  V30 3407 C 321.8 -1.15627 -4.43164 0
M  V30 3408 N 323.291 -1.11553 -4.49567 0
M  V30 3409 C 324.026 -1.49195 -5.5365 0
M  V30 3410 N 323.522 -1.94269 -6.65005 0
M  V30 3411 N 325.315 -1.4082 -5.44175 0
M  V30 3412 H 317.466 -1.4388 -1.56245 0
M  V30 3413 H 319.729 -0.594784 -0.738198 0
M  V30 3414 H 319.435 -1.71453 -3.07078 0
M  V30 3415 H 319.309 -0.11021 -3.77039 0
M  V30 3416 H 321.696 0.405297 -2.92304 0
M  V30 3417 H 321.777 -1.22687 -2.24458 0
M  V30 3418 H 321.421 -2.1919 -4.58168 0
M  V30 3419 H 321.351 -0.537365 -5.23851 0
M  V30 3420 H 323.842 -0.784895 -3.69659 0
M  V30 3421 H 324.155 -2.21148 -7.40482 0
M  V30 3422 H 322.5 -1.98219 -6.66134 0
M  V30 3423 H 325.691 -1.0545 -4.56068 0
M  V30 3424 H 325.864 -1.70481 -6.25172 0
M  V30 3425 N 319.27 1.56325 -0.20005 0
M  V30 3426 C 320.517 1.97719 0.437411 0
M  V30 3427 C 320.845 1.08709 1.61284 0
M  V30 3428 O 320.1 0.127261 1.95286 0
M  V30 3429 C 320.399 3.4495 0.935103 0
M  V30 3430 C 320.065 4.5072 -0.12749 0
M  V30 3431 C 318.727 4.79368 -0.419451 0
M  V30 3432 C 321.079 5.14268 -0.847231 0
M  V30 3433 C 318.407 5.68854 -1.43604 0
M  V30 3434 C 320.759 6.04852 -1.85301 0
M  V30 3435 C 319.423 6.31855 -2.15211 0
M  V30 3436 H 318.693 0.723507 0.16006 0
M  V30 3437 H 321.34 1.89166 -0.298056 0
M  V30 3438 H 319.645 3.50599 1.74894 0
M  V30 3439 H 321.342 3.74337 1.43781 0
M  V30 3440 H 317.932 4.28458 0.11023 0
M  V30 3441 H 322.116 4.92222 -0.634901 0
M  V30 3442 H 317.372 5.88047 -1.67364 0
M  V30 3443 H 321.546 6.53152 -2.41591 0
M  V30 3444 H 319.173 7.00994 -2.94129 0
M  V30 3445 N 320.748 -0.0735177 1.57428 0
M  V30 3446 C 321.978 -0.78483 1.91112 0
M  V30 3447 C 322.386 -1.71729 0.7941 0
M  V30 3448 O 321.729 -1.82105 -0.241542 0
M  V30 3449 C 321.791 -1.63346 3.20247 0
M  V30 3450 C 321.455 -0.870557 4.48632 0
M  V30 3451 C 322.452 -0.19058 5.19551 0
M  V30 3452 C 320.137 -0.838242 4.95256 0
M  V30 3453 C 322.131 0.511503 6.35344 0
M  V30 3454 C 319.818 -0.132386 6.10957 0
M  V30 3455 C 320.816 0.541288 6.80852 0
M  V30 3456 O 320.504 1.23578 7.94345 0
M  V30 3457 H 320.236 -0.228408 0.636244 0
M  V30 3458 H 322.79 -0.0486039 2.05342 0
M  V30 3459 H 321.02 -2.41245 3.02222 0
M  V30 3460 H 322.709 -2.22329 3.39595 0
M  V30 3461 H 323.475 -0.206864 4.84559 0
M  V30 3462 H 319.354 -1.35206 4.40727 0
M  V30 3463 H 322.898 1.03789 6.89836 0
M  V30 3464 H 318.795 -0.114023 6.45399 0
M  V30 3465 H 319.563 1.14487 8.10454 0
M  V30 3466 N 322.226 -1.5378 -0.344866 0
M  V30 3467 C 323.503 -1.61589 -1.10219 0
M  V30 3468 C 323.883 -0.436316 -2.06542 0
M  V30 3469 O 323.231 0.571543 -2.21237 0
M  V30 3470 C 323.441 -2.97602 -1.82301 0
M  V30 3471 C 324.789 -3.5291 -2.36093 0
M  V30 3472 O 325.813 -2.99768 -1.924 0
M  V30 3473 O 324.672 -4.45859 -3.16026 0
M  V30 3474 H 321.766 -0.653522 -0.506792 0
M  V30 3475 H 324.312 -1.66126 -0.346465 0
M  V30 3476 H 323.084 -3.74893 -1.12121 0
M  V30 3477 H 322.707 -2.9665 -2.64735 0
M  V30 3478 N 323.704 0.605807 -1.45491 0
M  V30 3479 C 324.953 1.36086 -1.48874 0
M  V30 3480 C 325.266 1.95131 -0.135333 0
M  V30 3481 O 326.472 2.7146 -0.0468144 0
M  V30 3482 C 324.928 2.46518 -2.62215 0
M  V30 3483 C 324.536 1.93877 -4.03876 0
M  V30 3484 C 326.28 3.23512 -2.74846 0
M  V30 3485 C 324.187 3.01801 -5.08596 0
M  V30 3486 H 323.117 0.511497 -0.553974 0
M  V30 3487 H 325.768 0.649089 -1.71636 0
M  V30 3488 H 324.15 3.20388 -2.32739 0
M  V30 3489 H 325.324 1.26704 -4.43038 0
M  V30 3490 H 323.639 1.29622 -3.95711 0
M  V30 3491 H 326.236 4.04013 -3.50253 0
M  V30 3492 H 326.579 3.74631 -1.81542 0
M  V30 3493 H 327.112 2.56742 -3.03856 0
M  V30 3494 H 323.851 2.55597 -6.03614 0
M  V30 3495 H 323.371 3.67535 -4.74002 0
M  V30 3496 H 325.05 3.66152 -5.33424 0
M  V30 3497 N 325.182 1.32811 0.848464 0
M  V30 3498 C 326.145 1.22194 1.9391 0
M  V30 3499 C 327.145 0.143404 1.60159 0
M  V30 3500 O 328.335 0.394253 1.6968 0
M  V30 3501 C 325.467 0.88067 3.29328 0
M  V30 3502 H 326.66 2.19127 2.04752 0
M  V30 3503 H 324.213 1.16731 1.0394 0
M  V30 3504 H 324.948 -0.0865776 3.24184 0
M  V30 3505 H 324.733 1.66052 3.55203 0
M  V30 3506 H 326.223 0.830871 4.09251 0
M  V30 3507 N 326.66 -1.06551 1.16123 0
M  V30 3508 C 327.888 -1.83005 0.965237 0
M  V30 3509 C 328.303 -1.82423 -0.486542 0
M  V30 3510 O 327.66 -1.24152 -1.33763 0
M  V30 3511 C 327.711 -3.29733 1.48183 0
M  V30 3512 O 327.432 -3.30416 2.87674 0
M  V30 3513 C 328.933 -4.22926 1.32848 0
M  V30 3514 H 326.153 -0.577118 0.342309 0
M  V30 3515 H 328.697 -1.3445 1.54089 0
M  V30 3516 H 326.852 -3.75609 0.948517 0
M  V30 3517 H 327.266 -4.22149 3.11272 0
M  V30 3518 H 328.74 -5.23916 1.73827 0
M  V30 3519 H 329.217 -4.38346 0.273692 0
M  V30 3520 H 329.823 -3.82894 1.85127 0
M  V30 3521 N 328.138 -0.959301 -1.25041 0
M  V30 3522 C 329.387 -0.612254 -1.92183 0
M  V30 3523 C 329.7 0.855347 -1.75907 0
M  V30 3524 O 330.906 1.31256 -2.37664 0
M  V30 3525 C 329.362 -1.04435 -3.44414 0
M  V30 3526 C 328.97 -2.53482 -3.69393 0
M  V30 3527 C 330.714 -0.770055 -4.17457 0
M  V30 3528 C 328.621 -2.90468 -5.15153 0
M  V30 3529 H 327.551 -0.225279 -0.719559 0
M  V30 3530 H 330.202 -1.16438 -1.41825 0
M  V30 3531 H 328.584 -0.4206 -3.9376 0
M  V30 3532 H 329.758 -3.20916 -3.30681 0
M  V30 3533 H 328.073 -2.78432 -3.0962 0
M  V30 3534 H 330.67 -1.02249 -5.24832 0
M  V30 3535 H 331.013 0.293611 -4.15263 0
M  V30 3536 H 331.546 -1.35437 -3.74034 0
M  V30 3537 H 328.285 -3.95871 -5.22462 0
M  V30 3538 H 327.805 -2.27711 -5.54894 0
M  V30 3539 H 329.484 -2.79914 -5.83315 0
M  V30 3540 N 329.616 1.39756 -0.72842 0
M  V30 3541 C 330.841 2.05472 -0.282159 0
M  V30 3542 C 331.266 1.54549 1.07221 0
M  V30 3543 O 330.624 0.686372 1.67805 0
M  V30 3544 C 330.672 3.59462 -0.286264 0
M  V30 3545 O 329.776 4.05918 0.728298 0
M  V30 3546 H 329.117 0.651226 -0.129618 0
M  V30 3547 H 331.647 1.78915 -0.992499 0
M  V30 3548 H 331.657 4.07798 -0.128373 0
M  V30 3549 H 330.332 3.95889 -1.27456 0
M  V30 3550 H 328.909 3.69012 0.537081 0
M  V30 3551 N 331.094 0.475555 1.50254 0
M  V30 3552 C 332.371 -0.139685 1.95101 0
M  V30 3553 C 332.751 -1.56555 1.41611 0
M  V30 3554 O 332.099 -2.19956 0.618993 0
M  V30 3555 C 332.309 -0.0784298 3.48912 0
M  V30 3556 C 333.657 -0.265095 4.23772 0
M  V30 3557 O 334.681 -0.154808 3.55863 0
M  V30 3558 O 333.54 -0.488327 5.44314 0
M  V30 3559 H 330.634 -0.109236 0.819754 0
M  V30 3560 H 333.18 0.536276 1.61004 0
M  V30 3561 H 331.952 0.916918 3.80405 0
M  V30 3562 H 331.575 -0.795655 3.89558 0
M  V30 3563 N 332.573 -1.56217 0.208337 0
M  V30 3564 C 333.803 -2.02043 -0.431523 0
M  V30 3565 C 334.211 -1.08755 -1.54819 0
M  V30 3566 O 333.554 -0.0870009 -1.83494 0
M  V30 3567 C 333.616 -3.44239 -1.03633 0
M  V30 3568 C 333.28 -4.56965 -0.0567502 0
M  V30 3569 C 334.277 -5.14624 0.738773 0
M  V30 3570 C 331.962 -5.02266 0.0581736 0
M  V30 3571 C 333.956 -6.16045 1.63605 0
M  V30 3572 C 331.643 -6.03528 0.959001 0
M  V30 3573 C 332.641 -6.60293 1.7465 0
M  V30 3574 O 332.329 -7.59586 2.6322 0
M  V30 3575 H 332.061 -0.666772 -0.111313 0
M  V30 3576 H 334.615 -2.02919 0.318277 0
M  V30 3577 H 332.845 -3.40391 -1.83497 0
M  V30 3578 H 334.534 -3.73793 -1.58221 0
M  V30 3579 H 335.3 -4.80483 0.660364 0
M  V30 3580 H 331.179 -4.57771 -0.544633 0
M  V30 3581 H 334.723 -6.60279 2.25116 0
M  V30 3582 H 330.62 -6.37092 1.03848 0
M  V30 3583 H 331.388 -7.77057 2.57148 0
M  V30 3584 N 334.051 0.0651679 -1.57465 0
M  V30 3585 C 335.281 0.774683 -1.91526 0
M  V30 3586 C 335.689 1.71305 -0.803196 0
M  V30 3587 O 335.032 1.82231 0.231881 0
M  V30 3588 C 335.094 1.61645 -3.21109 0
M  V30 3589 C 334.758 0.846753 -4.49087 0
M  V30 3590 C 335.755 0.163024 -5.19644 0
M  V30 3591 C 333.44 0.811966 -4.95694 0
M  V30 3592 C 335.434 -0.54519 -6.35064 0
M  V30 3593 C 333.121 0.0999836 -6.11018 0
M  V30 3594 C 334.119 -0.577388 -6.80555 0
M  V30 3595 O 333.807 -1.27789 -7.93678 0
M  V30 3596 H 333.539 0.225031 -0.637446 0
M  V30 3597 H 336.093 0.0377134 -2.05365 0
M  V30 3598 H 334.323 2.39638 -3.03497 0
M  V30 3599 H 336.012 2.20525 -3.40769 0
M  V30 3600 H 336.778 0.181163 -4.84662 0
M  V30 3601 H 332.657 1.32867 -4.41438 0
M  V30 3602 H 336.201 -1.07446 -6.89276 0
M  V30 3603 H 332.098 0.0797945 -6.45451 0
M  V30 3604 H 332.866 -1.18784 -8.09835 0
M  V30 3605 N 335.529 1.53961 0.336706 0
M  V30 3606 C 336.775 1.7179 1.07777 0
M  V30 3607 C 337.108 0.483263 1.88091 0
M  V30 3608 O 336.383 -0.519747 1.87427 0
M  V30 3609 C 336.666 2.98558 2.01334 0
M  V30 3610 C 336.519 4.32245 1.24437 0
M  V30 3611 C 337.838 3.21023 3.01052 0
M  V30 3612 H 334.957 0.625089 0.390426 0
M  V30 3613 H 337.599 1.86641 0.35567 0
M  V30 3614 H 335.749 2.86028 2.62908 0
M  V30 3615 H 337.421 4.56637 0.654243 0
M  V30 3616 H 335.664 4.30344 0.546458 0
M  V30 3617 H 336.335 5.17137 1.93063 0
M  V30 3618 H 338.811 3.32929 2.49595 0
M  V30 3619 H 337.687 4.11104 3.6371 0
M  V30 3620 H 337.948 2.37637 3.72802 0
M  V30 3621 N 337.007 -0.598083 1.45811 0
M  V30 3622 C 338.423 -0.919847 1.30426 0
M  V30 3623 C 338.623 -1.99759 0.264303 0
M  V30 3624 O 337.679 -2.50221 -0.338472 0
M  V30 3625 C 338.992 -1.35176 2.68603 0
M  V30 3626 C 340.54 -1.46546 2.76574 0
M  V30 3627 C 341.015 -1.9311 4.15298 0
M  V30 3628 N 342.506 -2.00328 4.1764 0
M  V30 3629 C 343.241 -2.37599 5.21856 0
M  V30 3630 N 342.737 -2.73771 6.36413 0
M  V30 3631 N 344.53 -2.38021 5.09218 0
M  V30 3632 H 336.681 0.114111 2.12093 0
M  V30 3633 H 338.944 -0.0116121 0.947929 0
M  V30 3634 H 338.65 -0.633969 3.45939 0
M  V30 3635 H 338.524 -2.3164 2.97696 0
M  V30 3636 H 340.911 -2.17415 1.99537 0
M  V30 3637 H 340.992 -0.483727 2.51185 0
M  V30 3638 H 340.636 -1.22824 4.92825 0
M  V30 3639 H 340.566 -2.92213 4.38086 0
M  V30 3640 H 343.057 -1.74925 3.34977 0
M  V30 3641 H 343.37 -3.0112 7.11721 0
M  V30 3642 H 341.715 -2.71445 6.39799 0
M  V30 3643 H 344.906 -2.09174 4.18765 0
M  V30 3644 H 345.079 -2.66741 5.90554 0
M  V30 3645 N 338.485 -1.33259 -0.841409 0
M  V30 3646 C 339.417 -1.19136 -1.95804 0
M  V30 3647 C 340.43 -0.122965 -1.62335 0
M  V30 3648 O 341.619 -0.373154 -1.74556 0
M  V30 3649 C 338.719 -0.804268 -3.29218 0
M  V30 3650 C 337.892 -1.96376 -3.90839 0
M  V30 3651 C 336.951 -1.55806 -5.02604 0
M  V30 3652 O 335.977 -2.27203 -5.21888 0
M  V30 3653 N 337.179 -0.461609 -5.78662 0
M  V30 3654 H 339.944 -2.15326 -2.08458 0
M  V30 3655 H 337.505 -1.25971 -1.017 0
M  V30 3656 H 339.497 -0.51501 -4.0141 0
M  V30 3657 H 338.067 0.0668809 -3.12528 0
M  V30 3658 H 337.287 -2.41879 -3.11269 0
M  V30 3659 H 338.575 -2.73966 -4.28742 0
M  V30 3660 H 337.973 0.132343 -5.65545 0
M  V30 3661 H 336.53 -0.232013 -6.51387 0
M  V30 3662 N 339.963 1.05934 -1.16686 0
M  V30 3663 C 340.893 2.1546 -0.899949 0
M  V30 3664 C 341.874 1.69391 0.155154 0
M  V30 3665 O 343.059 1.94199 0.00648693 0
M  V30 3666 C 340.189 3.44939 -0.404241 0
M  V30 3667 C 339.143 4.04536 -1.39767 0
M  V30 3668 C 338.469 5.29268 -0.760216 0
M  V30 3669 C 339.769 4.42893 -2.76845 0
M  V30 3670 H 341.463 2.38046 -1.81588 0
M  V30 3671 H 339.009 1.14404 -0.874514 0
M  V30 3672 H 340.962 4.20901 -0.204971 0
M  V30 3673 H 339.686 3.21983 0.547206 0
M  V30 3674 H 338.345 3.30635 -1.58355 0
M  V30 3675 H 337.993 5.02611 0.197831 0
M  V30 3676 H 337.693 5.70101 -1.42332 0
M  V30 3677 H 339.217 6.07924 -0.57105 0
M  V30 3678 H 340.631 5.09921 -2.62019 0
M  V30 3679 H 339.028 4.94721 -3.39663 0
M  V30 3680 H 340.098 3.53584 -3.31823 0
M  V30 3681 N 341.441 0.965919 1.2453 0
M  V30 3682 C 342.666 0.643971 1.97149 0
M  V30 3683 C 343.091 -0.779487 1.71189 0
M  V30 3684 O 342.449 -1.5288 0.974553 0
M  V30 3685 C 342.497 0.922557 3.48599 0
M  V30 3686 O 341.601 0.00707672 4.12399 0
M  V30 3687 H 340.942 0.243647 0.617683 0
M  V30 3688 H 343.472 1.29558 1.58353 0
M  V30 3689 H 343.482 0.853373 3.98976 0
M  V30 3690 H 342.157 1.95996 3.66822 0
M  V30 3691 H 340.734 0.12943 3.72675 0
M  V30 3692 N 342.919 -1.39368 0.735821 0
M  V30 3693 C 343.849 -2.33234 0.111506 0
M  V30 3694 C 344.83 -1.53954 -0.723334 0
M  V30 3695 O 346.015 -1.82344 -0.668147 0
M  V30 3696 C 343.145 -3.38057 -0.795917 0
M  V30 3697 C 342.099 -4.2795 -0.065172 0
M  V30 3698 C 341.425 -5.23479 -1.08967 0
M  V30 3699 C 342.725 -5.10741 1.09273 0
M  V30 3700 H 344.419 -2.85692 0.895571 0
M  V30 3701 H 341.965 -1.37364 0.432109 0
M  V30 3702 H 343.918 -4.02675 -1.24221 0
M  V30 3703 H 342.642 -2.8404 -1.61211 0
M  V30 3704 H 341.301 -3.64813 0.361511 0
M  V30 3705 H 340.949 -4.65758 -1.89944 0
M  V30 3706 H 340.649 -5.84472 -0.605489 0
M  V30 3707 H 342.173 -5.90974 -1.53565 0
M  V30 3708 H 343.587 -5.68699 0.724841 0
M  V30 3709 H 341.984 -5.8088 1.50659 0
M  V30 3710 H 343.054 -4.45525 1.91404 0
M  V30 3711 N 344.397 -0.483516 -1.5 0
M  V30 3712 C 345.625 0.0644831 -2.06799 0
M  V30 3713 C 346.04 1.32399 -1.34596 0
M  V30 3714 O 345.397 1.77626 -0.418946 0
M  V30 3715 C 345.448 0.339927 -3.59898 0
M  V30 3716 O 345.169 -0.869635 -4.29382 0
M  V30 3717 C 346.67 0.933515 -4.33359 0
M  V30 3718 H 343.89 -0.0126333 -0.670881 0
M  V30 3719 H 346.434 -0.675864 -1.93009 0
M  V30 3720 H 344.589 1.03022 -3.7345 0
M  V30 3721 H 345.003 -0.62179 -5.20801 0
M  V30 3722 H 346.477 1.07593 -5.41413 0
M  V30 3723 H 346.954 1.92685 -3.94676 0
M  V30 3724 H 347.56 0.281221 -4.24369 0
M  V30 3725 N 345.875 1.56104 -0.216619 0
M  V30 3726 C 347.152 1.89988 0.465165 0
M  V30 3727 C 347.532 1.13326 1.78102 0
M  V30 3728 O 346.88 0.241033 2.27225 0
M  V30 3729 C 347.09 3.42646 0.662939 0
M  V30 3730 C 348.438 4.13311 0.972602 0
M  V30 3731 O 349.462 3.48217 0.749901 0
M  V30 3732 O 348.321 5.28396 1.39499 0
M  V30 3733 H 345.415 0.78979 0.245276 0
M  V30 3734 H 347.961 1.67721 -0.258436 0
M  V30 3735 H 346.733 3.90399 -0.26543 0
M  V30 3736 H 346.356 3.70677 1.43821 0
M  V30 3737 N 347.353 -0.0568162 1.57498 0
M  V30 3738 C 348.263 -1.08346 2.08083 0
M  V30 3739 C 349.279 -1.41439 1.01346 0
M  V30 3740 O 350.455 -1.51316 1.32912 0
M  V30 3741 C 347.52 -2.37352 2.52715 0
M  V30 3742 C 346.581 -2.11093 3.73816 0
M  V30 3743 C 345.814 -3.33949 4.1631 0
M  V30 3744 O 346.037 -4.43622 3.58547 0
M  V30 3745 O 344.971 -3.21279 5.08983 0
M  V30 3746 H 348.797 -0.683667 2.95905 0
M  V30 3747 H 346.382 -0.271965 1.46904 0
M  V30 3748 H 348.264 -3.13246 2.81877 0
M  V30 3749 H 346.939 -2.76681 1.68016 0
M  V30 3750 H 345.846 -1.32856 3.49714 0
M  V30 3751 H 347.179 -1.76637 4.59413 0
M  V30 3752 N 348.832 -1.54138 -0.328536 0
M  V30 3753 C 349.78 -1.83894 -1.42428 0
M  V30 3754 C 350.774 -0.710478 -1.53781 0
M  V30 3755 O 351.98 -0.894062 -1.56226 0
M  V30 3756 H 348.355 -0.582837 -0.475189 0
M  V30 3757 H 350.326 -2.75537 -1.14552 0
M  V30 3758 C 349.075 -2.07866 -2.78724 0
M  V30 3759 H 348.398 -2.94158 -2.7076 0
M  V30 3760 H 349.838 -2.32644 -3.54476 0
M  V30 3761 C 348.297 -0.868689 -3.25508 0
M  V30 3762 O 348.827 -0.0754908 -4.01629 0
M  V30 3763 N 347.033 -0.681711 -2.82491 0
M  V30 3764 H 346.58 -1.32838 -2.20708 0
M  V30 3765 H 346.538 0.126374 -3.14146 0
M  V30 3766 N 350.31 0.590341 -1.46126 0
M  V30 3767 C 351.273 1.68194 -1.55703 0
M  V30 3768 C 352.273 1.54808 -0.434868 0
M  V30 3769 O 353.463 1.59564 -0.698928 0
M  V30 3770 C 350.595 3.07575 -1.47005 0
M  V30 3771 H 351.788 1.61064 -2.52979 0
M  V30 3772 H 349.341 0.807541 -1.33823 0
M  V30 3773 H 350.076 3.20268 -0.509785 0
M  V30 3774 H 349.861 3.187 -2.28414 0
M  V30 3775 H 351.351 3.87055 -1.56776 0
M  V30 3776 N 351.788 1.33704 0.83433 0
M  V30 3777 C 353.204 1.13137 1.12571 0
M  V30 3778 C 353.404 -0.0747261 2.01361 0
M  V30 3779 O 352.46 -0.753647 2.4099 0
M  V30 3780 C 353.773 2.42105 1.78342 0
M  V30 3781 C 355.321 2.48054 1.90888 0
M  V30 3782 C 355.796 3.76995 2.60075 0
M  V30 3783 N 357.287 3.78092 2.67584 0
M  V30 3784 C 358.022 4.74574 3.21818 0
M  V30 3785 N 357.518 5.81434 3.76705 0
M  V30 3786 N 359.311 4.62044 3.20112 0
M  V30 3787 H 351.462 2.11 0.243489 0
M  V30 3788 H 353.725 0.932532 0.17055 0
M  V30 3789 H 353.431 3.30391 1.20561 0
M  V30 3790 H 353.305 2.54594 2.7832 0
M  V30 3791 H 355.692 1.60215 2.47821 0
M  V30 3792 H 355.773 2.39502 0.898459 0
M  V30 3793 H 355.417 4.65219 2.03799 0
M  V30 3794 H 355.347 3.82825 3.61597 0
M  V30 3795 H 357.838 3.00865 2.28667 0
M  V30 3796 H 358.151 6.51084 4.16305 0
M  V30 3797 H 356.496 5.85163 3.7498 0
M  V30 3798 H 359.687 3.77716 2.76493 0
M  V30 3799 H 359.86 5.37406 3.62076 0
M  V30 3800 N 353.266 -1.05314 1.17247 0
M  V30 3801 C 354.196 -2.1498 0.911362 0
M  V30 3802 C 355.177 -1.69471 -0.146169 0
M  V30 3803 O 356.362 -1.942 0.003812 0
M  V30 3804 C 353.492 -3.4472 0.422528 0
M  V30 3805 C 352.446 -4.03789 1.4191 0
M  V30 3806 C 351.772 -5.28858 0.788274 0
M  V30 3807 C 353.072 -4.41418 2.7919 0
M  V30 3808 H 354.766 -2.3708 1.82848 0
M  V30 3809 H 352.312 -1.13938 0.880569 0
M  V30 3810 H 354.265 -4.20787 0.227289 0
M  V30 3811 H 352.989 -3.22269 -0.530123 0
M  V30 3812 H 351.648 -3.2979 1.60106 0
M  V30 3813 H 351.296 -5.02709 -0.171173 0
M  V30 3814 H 350.996 -5.69338 1.45353 0
M  V30 3815 H 352.52 -6.07612 0.603282 0
M  V30 3816 H 353.934 -5.08524 2.64719 0
M  V30 3817 H 352.331 -4.92913 3.42282 0
M  V30 3818 H 353.401 -3.51819 3.33693 0
M  V30 3819 N 354.744 -0.972509 -1.24016 0
M  V30 3820 C 355.969 -0.654417 -1.96805 0
M  V30 3821 C 356.394 0.770398 -1.716 0
M  V30 3822 O 355.752 1.52361 -0.982647 0
M  V30 3823 C 355.8 -0.941031 -3.48105 0
M  V30 3824 O 354.904 -0.0289472 -4.1239 0
M  V30 3825 H 354.245 -0.24692 -0.616382 0
M  V30 3826 H 356.775 -1.30396 -1.57664 0
M  V30 3827 H 356.785 -0.87452 -3.98517 0
M  V30 3828 H 355.46 -1.97939 -3.65777 0
M  V30 3829 H 354.037 -0.149192 -3.72601 0
M  V30 3830 N 356.222 1.38976 -0.743202 0
M  V30 3831 C 357.17 2.32394 -0.0978389 0
M  V30 3832 C 358.164 1.53486 0.716824 0
M  V30 3833 O 359.37 1.69092 0.617088 0
M  V30 3834 H 355.745 0.75189 -0.0128402 0
M  V30 3835 H 357.716 2.84441 -0.901981 0
M  V30 3836 C 356.465 3.38629 0.789036 0
M  V30 3837 H 355.788 3.99432 0.171559 0
M  V30 3838 H 357.228 4.06426 1.20807 0
M  V30 3839 C 355.687 2.76347 1.92702 0
M  V30 3840 O 356.217 2.64836 3.02034 0
M  V30 3841 N 354.423 2.34311 1.71891 0
M  V30 3842 H 353.97 2.43873 0.829675 0
M  V30 3843 H 353.928 1.9298 2.48205 0
M  V30 3844 N 357.7 0.491464 1.49741 0
M  V30 3845 C 358.61 -0.296835 2.32715 0
M  V30 3846 C 359.626 -0.976536 1.44013 0
M  V30 3847 O 360.802 -0.960023 1.77047 0
M  V30 3848 C 357.867 -1.35288 3.19215 0
M  V30 3849 C 356.928 -0.687632 4.23757 0
M  V30 3850 C 356.161 -1.69336 5.06123 0
M  V30 3851 O 356.384 -2.92219 4.89861 0
M  V30 3852 O 355.318 -1.25394 5.88693 0
M  V30 3853 H 359.144 0.382048 3.01287 0
M  V30 3854 H 356.729 0.252953 1.47243 0
M  V30 3855 H 358.611 -1.96411 3.72828 0
M  V30 3856 H 357.286 -2.01487 2.53347 0
M  V30 3857 H 356.193 -0.0369159 3.74082 0
M  V30 3858 H 357.526 -0.0682566 4.92153 0
M  V30 3859 N 359.178 -1.55987 0.224894 0
M  V30 3860 C 360.108 -2.23426 -0.678457 0
M  V30 3861 C 361.089 -1.20709 -1.19847 0
M  V30 3862 O 362.274 -1.49304 -1.24186 0
M  V30 3863 C 359.404 -2.91676 -1.88527 0
M  V30 3864 C 358.358 -4.00893 -1.49896 0
M  V30 3865 C 357.684 -4.56455 -2.78483 0
M  V30 3866 C 358.984 -5.17769 -0.686461 0
M  V30 3867 H 360.678 -2.99175 -0.116173 0
M  V30 3868 H 358.224 -1.43897 -0.054436 0
M  V30 3869 H 360.177 -3.37547 -2.5227 0
M  V30 3870 H 358.901 -2.1338 -2.47258 0
M  V30 3871 H 357.56 -3.55758 -0.884985 0
M  V30 3872 H 357.208 -3.74886 -3.35365 0
M  V30 3873 H 356.908 -5.30169 -2.53368 0
M  V30 3874 H 358.432 -5.05047 -3.43162 0
M  V30 3875 H 359.846 -5.60001 -1.22767 0
M  V30 3876 H 358.243 -5.97735 -0.532259 0
M  V30 3877 H 359.313 -4.83932 0.306196 0
M  V30 3878 N 360.656 0.0484629 -1.57525 0
M  V30 3879 C 361.905 0.742065 -1.87553 0
M  V30 3880 C 362.218 1.77545 -0.820802 0
M  V30 3881 O 363.424 2.52027 -1.00967 0
M  V30 3882 C 361.88 1.37081 -3.32771 0
M  V30 3883 C 361.488 0.374786 -4.4643 0
M  V30 3884 C 363.232 2.04542 -3.71972 0
M  V30 3885 C 361.139 1.01077 -5.82698 0
M  V30 3886 H 360.069 0.280903 -0.699721 0
M  V30 3887 H 362.72 -0.00411877 -1.835 0
M  V30 3888 H 361.102 2.16605 -3.31509 0
M  V30 3889 H 362.276 -0.392331 -4.59127 0
M  V30 3890 H 360.591 -0.196653 -4.15935 0
M  V30 3891 H 363.188 2.52943 -4.71088 0
M  V30 3892 H 363.531 2.85515 -3.02964 0
M  V30 3893 H 364.064 1.31819 -3.75325 0
M  V30 3894 H 360.803 0.240878 -6.55057 0
M  V30 3895 H 360.323 1.74819 -5.73758 0
M  V30 3896 H 362.002 1.52383 -6.28799 0
M  V30 3897 N 362.134 1.5431 0.320358 0
M  V30 3898 C 363.38 1.72924 1.05949 0
M  V30 3899 C 363.713 0.503185 1.87568 0
M  V30 3900 O 362.988 -0.499839 1.87968 0
M  V30 3901 C 363.271 3.00676 1.98156 0
M  V30 3902 C 363.124 4.3354 1.19845 0
M  V30 3903 C 364.443 3.24198 2.9763 0
M  V30 3904 H 361.562 0.629195 0.383774 0
M  V30 3905 H 364.204 1.87008 0.335854 0
M  V30 3906 H 362.354 2.888 2.59859 0
M  V30 3907 H 364.026 4.57305 0.605773 0
M  V30 3908 H 362.269 4.309 0.500784 0
M  V30 3909 H 362.94 5.19156 1.87567 0
M  V30 3910 H 365.416 3.35557 2.4605 0
M  V30 3911 H 364.292 4.14938 3.59329 0
M  V30 3912 H 364.553 2.41577 3.7026 0
M  V30 3913 N 363.613 -0.582584 1.46437 0
M  V30 3914 C 364.561 -1.71272 1.5738 0
M  V30 3915 C 365.555 -1.63524 0.44229 0
M  V30 3916 O 366.761 -1.69016 0.619166 0
M  V30 3917 H 363.136 -0.566273 0.494813 0
M  V30 3918 H 365.107 -1.59174 2.52401 0
M  V30 3919 C 363.856 -3.09658 1.58136 0
M  V30 3920 H 363.179 -3.16291 2.44541 0
M  V30 3921 H 364.619 -3.88494 1.69847 0
M  V30 3922 C 363.078 -3.3547 0.310026 0
M  V30 3923 O 363.608 -3.97199 -0.599683 0
M  V30 3924 N 361.814 -2.89925 0.197901 0
M  V30 3925 H 361.361 -2.39873 0.93909 0
M  V30 3926 H 361.319 -3.07568 -0.65185 0
M  V30 3927 N 365.091 -1.34144 -0.827227 0
M  V30 3928 C 366.023 -1.21206 -1.9453 0
M  V30 3929 C 367.036 -0.140176 -1.62195 0
M  V30 3930 O 368.225 -0.391647 -1.7415 0
M  V30 3931 C 365.325 -0.839141 -3.28347 0
M  V30 3932 C 364.498 -2.0051 -3.88734 0
M  V30 3933 C 363.557 -1.61128 -5.00923 0
M  V30 3934 O 362.583 -2.32726 -5.19449 0
M  V30 3935 N 363.785 -0.522958 -5.7814 0
M  V30 3936 H 366.55 -2.17525 -2.06162 0
M  V30 3937 H 364.111 -1.27043 -1.00358 0
M  V30 3938 H 366.103 -0.557556 -4.00841 0
M  V30 3939 H 364.673 0.0337293 -3.12582 0
M  V30 3940 H 363.893 -2.45166 -3.08686 0
M  V30 3941 H 365.181 -2.78498 -4.25812 0
M  V30 3942 H 364.579 0.0723518 -5.65654 0
M  V30 3943 H 363.136 -0.301089 -6.51104 0
M  V30 3944 N 366.569 1.04691 -1.17803 0
M  V30 3945 C 367.818 1.77176 -0.963931 0
M  V30 3946 C 368.131 1.88888 0.508015 0
M  V30 3947 O 369.337 2.58164 0.840465 0
M  V30 3948 C 367.793 3.18518 -1.67555 0
M  V30 3949 C 367.401 3.14919 -3.18637 0
M  V30 3950 C 369.145 3.95424 -1.54402 0
M  V30 3951 C 367.052 4.51081 -3.82466 0
M  V30 3952 H 365.982 0.664116 -0.357023 0
M  V30 3953 H 368.633 1.17303 -1.4111 0
M  V30 3954 H 367.015 3.78748 -1.15613 0
M  V30 3955 H 368.189 2.64178 -3.77554 0
M  V30 3956 H 366.504 2.51512 -3.31859 0
M  V30 3957 H 369.101 4.96106 -1.99456 0
M  V30 3958 H 369.444 4.13343 -0.495329 0
M  V30 3959 H 369.977 3.41754 -2.0359 0
M  V30 3960 H 366.716 4.38368 -4.87354 0
M  V30 3961 H 366.236 5.01951 -3.28337 0
M  V30 3962 H 367.915 5.2001 -3.84965 0
M  V30 3963 N 368.047 0.979072 1.23499 0
M  V30 3964 C 369.293 0.648178 1.92163 0
M  V30 3965 C 369.626 -0.816049 1.76222 0
M  V30 3966 O 368.901 -1.58849 1.12237 0
M  V30 3967 C 369.184 1.03773 3.44824 0
M  V30 3968 C 369.037 2.55948 3.69879 0
M  V30 3969 C 370.356 0.580653 4.36253 0
M  V30 3970 H 367.475 0.236952 0.69787 0
M  V30 3971 H 370.117 1.22012 1.45647 0
M  V30 3972 H 368.267 0.551058 3.84572 0
M  V30 3973 H 369.939 3.12179 3.3962 0
M  V30 3974 H 368.182 2.98641 3.14636 0
M  V30 3975 H 368.853 2.78255 4.76737 0
M  V30 3976 H 371.329 0.998465 4.03943 0
M  V30 3977 H 370.205 0.881663 5.41773 0
M  V30 3978 H 370.466 -0.519052 4.39042 0
M  V30 3979 N 369.525 -1.3858 0.750561 0
M  V30 3980 C 370.936 -1.82927 0.373438 0
M  V30 3981 C 371.287 -1.62634 -1.09748 0
M  V30 3982 O 370.412 -1.12588 -1.84805 0
M  V30 3983 C 371.007 -3.32088 0.671029 0
M  V30 3984 C 369.566 -3.74795 0.34722 0
M  V30 3985 C 368.713 -2.61391 0.92575 0
M  V30 3986 H 371.664 -1.27351 0.946958 0
M  V30 3987 H 371.685 -3.80465 -0.0518269 0
M  V30 3988 H 371.197 -3.46826 1.74164 0
M  V30 3989 H 369.298 -3.65638 -0.716933 0
M  V30 3990 H 369.411 -4.71667 0.840656 0
M  V30 3991 H 367.775 -2.52265 0.351327 0
M  V30 3992 H 368.558 -2.78929 2.00133 0
M  V30 3993 N 371.003 -0.499398 -1.49478 0
M  V30 3994 C 371.935 0.316575 -2.27003 0
M  V30 3995 C 372.948 0.932047 -1.33479 0
M  V30 3996 O 374.137 0.815658 -1.58774 0
M  V30 3997 C 371.237 1.46055 -3.05812 0
M  V30 3998 C 370.41 0.952679 -4.26899 0
M  V30 3999 C 369.469 1.97407 -4.87767 0
M  V30 4000 O 368.495 1.54326 -5.4788 0
M  V30 4001 N 369.697 3.30436 -4.77276 0
M  V30 4002 H 372.462 -0.348168 -2.97671 0
M  V30 4003 H 370.023 -0.33185 -1.58463 0
M  V30 4004 H 372.015 2.14135 -3.43407 0
M  V30 4005 H 370.585 2.02948 -2.37762 0
M  V30 4006 H 369.805 0.0968248 -3.94081 0
M  V30 4007 H 371.093 0.59174 -5.05347 0
M  V30 4008 H 370.491 3.68126 -4.29534 0
M  V30 4009 H 369.048 3.94235 -5.19059 0
M  V30 4010 N 372.481 1.55866 -0.233164 0
M  V30 4011 C 373.428 2.20796 0.67215 0
M  V30 4012 C 374.398 1.16731 1.18166 0
M  V30 4013 O 375.583 1.45129 1.23864 0
M  V30 4014 C 372.723 2.90072 1.86955 0
M  V30 4015 C 371.836 4.08759 1.39786 0
M  V30 4016 C 370.971 4.65787 2.55374 0
M  V30 4017 C 370.01 5.76752 2.04998 0
M  V30 4018 N 369.147 6.28021 3.13901 0
M  V30 4019 H 373.987 2.9779 0.111749 0
M  V30 4020 H 371.524 1.47036 0.0434007 0
M  V30 4021 H 373.482 3.28428 2.57276 0
M  V30 4022 H 372.112 2.15575 2.40265 0
M  V30 4023 H 371.164 3.7581 0.589173 0
M  V30 4024 H 372.476 4.88906 0.98856 0
M  V30 4025 H 371.63 5.06646 3.33758 0
M  V30 4026 H 370.369 3.84828 2.99598 0
M  V30 4027 H 369.374 5.35383 1.25079 0
M  V30 4028 H 370.599 6.59553 1.61759 0
M  V30 4029 H 368.545 5.49971 3.57586 0
M  V30 4030 H 368.462 7.03323 2.7726 0
M  V30 4031 H 369.73 6.73538 3.92386 0
M  V30 4032 N 373.959 -0.0401083 1.57549 0
M  V30 4033 C 375.208 -0.732108 1.87944 0
M  V30 4034 C 375.521 -1.77107 0.830206 0
M  V30 4035 O 376.727 -2.51488 1.02302 0
M  V30 4036 C 375.183 -1.35315 3.33494 0
M  V30 4037 C 374.791 -0.351105 4.46622 0
M  V30 4038 C 376.535 -2.02566 3.73051 0
M  V30 4039 C 374.442 -0.979859 5.83226 0
M  V30 4040 H 373.372 -0.277188 0.701201 0
M  V30 4041 H 376.023 0.0138501 1.83495 0
M  V30 4042 H 374.405 -2.14844 3.32653 0
M  V30 4043 H 375.579 0.416674 4.58912 0
M  V30 4044 H 373.894 0.218708 4.15825 0
M  V30 4045 H 376.491 -2.50441 4.72423 0
M  V30 4046 H 376.834 -2.83904 3.04474 0
M  V30 4047 H 377.367 -1.29827 3.76018 0
M  V30 4048 H 374.106 -0.206135 6.55176 0
M  V30 4049 H 373.626 -1.71774 5.74677 0
M  V30 4050 H 375.305 -1.49046 6.29599 0
M  V30 4051 N 375.437 -1.54477 -0.31217 0
M  V30 4052 C 376.848 -1.64344 -0.885891 0
M  V30 4053 C 377.199 -0.54485 -1.88483 0
M  V30 4054 O 376.324 0.320387 -2.14015 0
M  V30 4055 C 376.919 -2.97908 -1.61357 0
M  V30 4056 C 375.478 -3.09933 -2.13585 0
M  V30 4057 C 374.625 -2.59971 -0.964897 0
M  V30 4058 H 377.576 -1.58448 -0.0894528 0
M  V30 4059 H 377.597 -2.88706 -2.47848 0
M  V30 4060 H 377.109 -3.77845 -0.886277 0
M  V30 4061 H 375.21 -2.34694 -2.89395 0
M  V30 4062 H 375.323 -4.15916 -2.37804 0
M  V30 4063 H 373.687 -2.16147 -1.34731 0
M  V30 4064 H 374.47 -3.42376 -0.251742 0
M  V30 4065 N 376.915 0.57481 -1.46744 0
M  V30 4066 C 377.878 1.66533 -1.57478 0
M  V30 4067 C 378.878 1.54338 -0.451263 0
M  V30 4068 O 380.068 1.58814 -0.715813 0
M  V30 4069 C 377.2 3.05999 -1.50259 0
M  V30 4070 H 378.393 1.58372 -2.54673 0
M  V30 4071 H 375.946 0.793301 -1.34672 0
M  V30 4072 H 376.681 3.19709 -0.543725 0
M  V30 4073 H 376.466 3.16259 -2.31781 0
M  V30 4074 H 377.956 3.8537 -1.60872 0
M  V30 4075 N 378.394 1.34581 0.820102 0
M  V30 4076 C 379.304 1.28471 1.96297 0
M  V30 4077 C 380.32 0.191902 1.72939 0
M  V30 4078 O 381.496 0.418879 1.96996 0
M  V30 4079 C 378.561 1.04281 3.30645 0
M  V30 4080 C 377.622 2.22745 3.66992 0
M  V30 4081 C 376.855 1.997 4.9493 0
M  V30 4082 O 377.078 0.956656 5.6232 0
M  V30 4083 O 376.012 2.86723 5.2922 0
M  V30 4084 H 379.838 2.24624 2.04396 0
M  V30 4085 H 377.423 1.14816 0.955913 0
M  V30 4086 H 379.305 0.925841 4.11104 0
M  V30 4087 H 377.98 0.111697 3.23507 0
M  V30 4088 H 376.887 2.40003 2.86966 0
M  V30 4089 H 378.22 3.14257 3.78819 0
M  V30 4090 N 379.872 -1.04064 1.18357 0
M  V30 4091 C 381.118 -1.77528 0.980397 0
M  V30 4092 C 381.451 -1.87948 -0.48879 0
M  V30 4093 O 380.726 -1.3876 -1.36293 0
M  V30 4094 C 381.009 -3.20797 1.63588 0
M  V30 4095 C 380.862 -3.1832 3.17793 0
M  V30 4096 C 382.181 -4.18911 1.34914 0
M  V30 4097 H 379.3 -0.644443 0.357578 0
M  V30 4098 H 381.942 -1.2156 1.46024 0
M  V30 4099 H 380.092 -3.68586 1.22788 0
M  V30 4100 H 381.764 -2.78521 3.67728 0
M  V30 4101 H 380.007 -2.56351 3.49952 0
M  V30 4102 H 380.678 -4.19489 3.58794 0
M  V30 4103 H 383.154 -3.7967 1.70265 0
M  V30 4104 H 382.03 -5.17374 1.83346 0
M  V30 4105 H 382.291 -4.41262 0.272027 0
M  V30 4106 N 381.35 -0.985608 -1.22978 0
M  V30 4107 C 382.766 -0.695104 -1.43668 0
M  V30 4108 C 382.966 0.736866 -1.87543 0
M  V30 4109 O 382.022 1.50868 -2.02473 0
M  V30 4110 C 383.335 -1.69447 -2.48412 0
M  V30 4111 C 384.883 -1.70909 -2.62219 0
M  V30 4112 C 385.358 -2.6969 -3.70178 0
M  V30 4113 N 386.849 -2.6824 -3.77626 0
M  V30 4114 C 387.584 -3.41339 -4.60733 0
M  V30 4115 N 387.08 -4.24015 -5.4789 0
M  V30 4116 N 388.873 -3.30079 -4.54977 0
M  V30 4117 H 381.024 -1.91054 -0.928016 0
M  V30 4118 H 383.287 -0.823553 -0.469536 0
M  V30 4119 H 382.993 -2.7188 -2.23102 0
M  V30 4120 H 382.867 -1.48147 -3.46889 0
M  V30 4121 H 385.254 -0.691785 -2.86877 0
M  V30 4122 H 385.335 -1.96276 -1.6404 0
M  V30 4123 H 384.979 -3.71566 -3.46268 0
M  V30 4124 H 384.909 -2.41595 -4.67909 0
M  V30 4125 H 387.4 -2.08243 -3.15346 0
M  V30 4126 H 387.713 -4.76636 -6.08308 0
M  V30 4127 H 386.058 -4.28104 -5.47496 0
M  V30 4128 H 389.249 -2.64937 -3.85909 0
M  V30 4129 H 389.422 -3.87308 -5.19516 0
M  V30 4130 N 382.828 1.3818 -0.7579 0
M  V30 4131 C 384.074 2.00316 -0.316453 0
M  V30 4132 C 384.407 1.60026 1.10025 0
M  V30 4133 O 383.682 0.839835 1.75434 0
M  V30 4134 C 383.965 3.57349 -0.444245 0
M  V30 4135 C 383.818 4.07591 -1.90236 0
M  V30 4136 C 385.137 4.3981 0.1598 0
M  V30 4137 H 382.256 0.727741 -0.116459 0
M  V30 4138 H 384.898 1.6406 -0.958352 0
M  V30 4139 H 383.048 3.88365 0.102233 0
M  V30 4140 H 384.72 3.87199 -2.50748 0
M  V30 4141 H 382.963 3.60297 -2.41595 0
M  V30 4142 H 383.634 5.16677 -1.94291 0
M  V30 4143 H 386.11 4.14971 -0.306314 0
M  V30 4144 H 384.986 5.48885 0.0401675 0
M  V30 4145 H 385.247 4.24102 1.24859 0
M  V30 4146 N 384.306 0.507319 1.49211 0
M  V30 4147 C 385.254 -0.281364 2.30892 0
M  V30 4148 C 386.248 -0.95687 1.39787 0
M  V30 4149 O 387.454 -0.883838 1.56807 0
M  V30 4150 H 383.829 -0.109597 0.743971 0
M  V30 4151 H 385.8 0.42744 2.95323 0
M  V30 4152 C 384.549 -1.32918 3.21291 0
M  V30 4153 H 383.872 -0.818799 3.91326 0
M  V30 4154 H 385.312 -1.85288 3.81372 0
M  V30 4155 C 383.771 -2.35074 2.41333 0
M  V30 4156 O 384.301 -3.4108 2.12197 0
M  V30 4157 N 382.507 -2.07705 2.03241 0
M  V30 4158 H 382.054 -1.2152 2.27136 0
M  V30 4159 H 382.012 -2.76283 1.50051 0
M  V30 4160 N 385.784 -1.5574 0.241426 0
M  V30 4161 C 387.03 -1.99104 -0.385406 0
M  V30 4162 C 387.363 -1.1293 -1.57988 0
M  V30 4163 O 386.638 -0.191449 -1.93555 0
M  V30 4164 C 386.921 -3.51087 -0.800616 0
M  V30 4165 C 386.774 -4.48028 0.398874 0
M  V30 4166 C 388.093 -4.08015 -1.64959 0
M  V30 4167 H 385.212 -0.723848 -0.138614 0
M  V30 4168 H 387.854 -1.86903 0.341642 0
M  V30 4169 H 386.004 -3.61615 -1.4201 0
M  V30 4170 H 387.676 -4.49487 1.03726 0
M  V30 4171 H 385.919 -4.21077 1.04293 0
M  V30 4172 H 386.59 -5.51962 0.0651056 0
M  V30 4173 H 389.066 -4.00555 -1.12672 0
M  V30 4174 H 387.942 -5.14635 -1.90898 0
M  V30 4175 H 388.203 -3.56131 -2.61961 0
M  V30 4176 N 387.262 0.0317525 -1.57568 0
M  V30 4177 C 388.487 0.738664 -1.938 0
M  V30 4178 C 388.912 1.68242 -0.841208 0
M  V30 4179 O 388.27 1.80157 0.203267 0
M  V30 4180 C 388.318 1.47417 -3.29091 0
M  V30 4181 O 387.422 2.5872 -3.2115 0
M  V30 4182 H 386.763 0.198856 -0.633524 0
M  V30 4183 H 389.293 -0.0119713 -2.04596 0
M  V30 4184 H 389.303 1.84468 -3.63917 0
M  V30 4185 H 387.978 0.781988 -4.08482 0
M  V30 4186 H 386.555 2.24231 -2.97951 0
M  V30 4187 N 388.74 1.54641 0.303973 0
M  V30 4188 C 389.67 1.88386 1.3796 0
M  V30 4189 C 390.651 0.742485 1.5304 0
M  V30 4190 O 391.836 0.997959 1.66597 0
M  V30 4191 C 388.966 2.12854 2.74427 0
M  V30 4192 C 387.92 3.28702 2.74115 0
M  V30 4193 C 387.246 3.38582 4.13844 0
M  V30 4194 C 388.546 4.65881 2.3612 0
M  V30 4195 H 390.24 2.78474 1.09966 0
M  V30 4196 H 387.786 1.33988 0.527556 0
M  V30 4197 H 389.739 2.35047 3.49758 0
M  V30 4198 H 388.463 1.19535 3.03939 0
M  V30 4199 H 387.122 3.06428 2.0124 0
M  V30 4200 H 386.77 2.42784 4.40528 0
M  V30 4201 H 386.47 4.16453 4.14537 0
M  V30 4202 H 387.994 3.63031 4.90959 0
M  V30 4203 H 389.408 4.87823 3.01167 0
M  V30 4204 H 387.805 5.46444 2.48031 0
M  V30 4205 H 388.875 4.66799 1.3125 0
M  V30 4206 N 390.218 -0.567019 1.47046 0
M  V30 4207 C 391.166 -1.69593 1.59188 0
M  V30 4208 C 392.16 -1.63046 0.459609 0
M  V30 4209 O 393.366 -1.6835 0.637058 0
M  V30 4210 H 389.741 -0.560993 0.500791 0
M  V30 4211 H 391.712 -1.56488 2.54075 0
M  V30 4212 C 390.461 -3.07964 1.61411 0
M  V30 4213 H 389.784 -3.13679 2.47881 0
M  V30 4214 H 391.224 -3.86671 1.73958 0
M  V30 4215 C 389.683 -3.35123 0.34559 0
M  V30 4216 O 390.213 -3.97812 -0.557521 0
M  V30 4217 N 388.419 -2.89699 0.22864 0
M  V30 4218 H 387.966 -2.38863 0.964479 0
M  V30 4219 H 387.924 -3.08242 -0.619192 0
M  V30 4220 N 391.696 -1.35014 -0.812953 0
M  V30 4221 C 392.944 -1.27678 -1.56661 0
M  V30 4222 C 393.265 0.150359 -1.94419 0
M  V30 4223 O 392.535 1.08532 -1.63088 0
M  V30 4224 H 391.115 -0.469602 -0.580933 0
M  V30 4225 H 393.777 -1.69043 -0.970076 0
M  V30 4226 H 392.873 -1.88833 -2.48492 0
M  V30 4227 N 393.175 1.03435 -1.18907 0
M  V30 4228 C 394.403 1.80381 -1.01342 0
M  V30 4229 C 394.818 1.83649 0.438005 0
M  V30 4230 O 394.175 1.27655 1.30424 0
M  V30 4231 C 394.226 3.25689 -1.56873 0
M  V30 4232 O 393.947 3.22673 -2.96334 0
M  V30 4233 C 395.448 4.19255 -1.44014 0
M  V30 4234 H 392.668 0.56784 -0.35749 0
M  V30 4235 H 395.212 1.30317 -1.576 0
M  V30 4236 H 393.367 3.72962 -1.04777 0
M  V30 4237 H 393.781 4.13748 -3.22355 0
M  V30 4238 H 395.255 5.19123 -1.87657 0
M  V30 4239 H 395.732 4.37467 -0.389815 0
M  V30 4240 H 396.338 3.77851 -1.95214 0
M  V30 4241 N 394.653 0.992116 1.22453 0
M  V30 4242 C 395.881 0.685944 1.95198 0
M  V30 4243 C 396.296 -0.749233 1.73297 0
M  V30 4244 O 395.653 -1.50549 1.03156 0
M  V30 4245 C 395.704 0.981395 3.47924 0
M  V30 4246 O 395.425 2.36018 3.6909 0
M  V30 4247 C 396.926 0.692815 4.37853 0
M  V30 4248 H 394.146 0.253821 0.621141 0
M  V30 4249 H 396.69 1.32668 1.55626 0
M  V30 4250 H 394.845 0.386481 3.85467 0
M  V30 4251 H 395.259 2.45884 4.63294 0
M  V30 4252 H 396.733 0.949818 5.43767 0
M  V30 4253 H 397.21 -0.373181 4.37612 0
M  V30 4254 H 397.816 1.26874 4.05935 0
M  V30 4255 N 396.131 -1.37776 0.765217 0
M  V30 4256 C 397.377 -2.00145 0.327072 0
M  V30 4257 C 397.71 -1.60607 -1.09175 0
M  V30 4258 O 396.985 -0.849127 -1.74986 0
M  V30 4259 C 397.268 -3.57109 0.46319 0
M  V30 4260 C 397.121 -4.06576 1.92395 0
M  V30 4261 C 398.44 -4.39888 -0.136473 0
M  V30 4262 H 395.559 -0.727113 0.120316 0
M  V30 4263 H 398.201 -1.63549 0.967039 0
M  V30 4264 H 396.351 -3.88414 -0.0816358 0
M  V30 4265 H 398.023 -3.85864 2.52798 0
M  V30 4266 H 396.266 -3.59011 2.43503 0
M  V30 4267 H 396.937 -5.15639 1.97028 0
M  V30 4268 H 399.413 -4.14803 0.328317 0
M  V30 4269 H 398.289 -5.48899 -0.0110582 0
M  V30 4270 H 398.55 -4.24758 -1.22608 0
M  V30 4271 N 397.609 -0.515225 -1.4894 0
M  V30 4272 C 398.837 0.0206034 -2.0689 0
M  V30 4273 C 399.252 1.29514 -1.37374 0
M  V30 4274 O 398.609 1.76698 -0.456529 0
M  V30 4275 C 398.66 0.26351 -3.60538 0
M  V30 4276 O 398.381 -0.960517 -4.27441 0
M  V30 4277 C 399.882 0.841383 -4.35242 0
M  V30 4278 H 397.102 -0.0268608 -0.670462 0
M  V30 4279 H 399.646 -0.716651 -1.91532 0
M  V30 4280 H 397.801 0.950777 -3.75552 0
M  V30 4281 H 398.215 -0.73212 -5.19365 0
M  V30 4282 H 399.689 0.96085 -5.43573 0
M  V30 4283 H 400.166 1.8427 -3.98674 0
M  V30 4284 H 400.772 0.191143 -4.2487 0
M  V30 4285 N 399.087 1.5561 -0.249682 0
M  V30 4286 C 399.997 2.25143 0.659375 0
M  V30 4287 C 401.013 1.2685 1.19101 0
M  V30 4288 O 402.189 1.59732 1.22669 0
M  V30 4289 C 399.254 2.93945 1.8384 0
M  V30 4290 C 398.315 4.07655 1.34596 0
M  V30 4291 C 397.548 4.73167 2.46878 0
M  V30 4292 O 397.771 4.37768 3.65671 0
M  V30 4293 O 396.705 5.61623 2.16478 0
M  V30 4294 H 400.531 3.03545 0.0968698 0
M  V30 4295 H 398.116 1.49389 -0.018074 0
M  V30 4296 H 399.998 3.37271 2.52638 0
M  V30 4297 H 398.673 2.18481 2.38847 0
M  V30 4298 H 397.58 3.68839 0.625174 0
M  V30 4299 H 398.913 4.84946 0.841941 0
M  V30 4300 N 400.565 -0.0233959 1.57583 0
M  V30 4301 C 401.811 -0.714119 1.89811 0
M  V30 4302 C 402.144 -1.74702 0.848113 0
M  V30 4303 O 401.419 -1.94023 -0.136135 0
M  V30 4304 C 401.702 -1.37853 3.32669 0
M  V30 4305 C 401.555 -0.358764 4.48367 0
M  V30 4306 C 402.874 -2.31101 3.7454 0
M  V30 4307 H 399.993 -0.25814 0.690314 0
M  V30 4308 H 402.635 0.0230927 1.89986 0
M  V30 4309 H 400.785 -2.00689 3.3265 0
M  V30 4310 H 402.457 0.268115 4.6052 0
M  V30 4311 H 400.7 0.321387 4.32608 0
M  V30 4312 H 401.371 -0.862242 5.45224 0
M  V30 4313 H 403.847 -1.78304 3.75961 0
M  V30 4314 H 402.723 -2.74567 4.75294 0
M  V30 4315 H 402.984 -3.18018 3.0711 0
M  V30 4316 N 402.043 -1.548 -0.295768 0
M  V30 4317 C 402.99 -1.86113 -1.36494 0
M  V30 4318 C 403.96 -0.7105 -1.50137 0
M  V30 4319 O 405.145 -0.959626 -1.64912 0
M  V30 4320 C 402.285 -2.11861 -2.72413 0
M  V30 4321 C 401.398 -3.39471 -2.67177 0
M  V30 4322 C 400.533 -3.55035 -3.95125 0
M  V30 4323 C 399.572 -4.76418 -3.84308 0
M  V30 4324 N 398.709 -4.8876 -5.04042 0
M  V30 4325 H 403.549 -2.77314 -1.09091 0
M  V30 4326 H 401.086 -1.37315 -0.52753 0
M  V30 4327 H 403.044 -2.24786 -3.51464 0
M  V30 4328 H 401.674 -1.2392 -2.98066 0
M  V30 4329 H 400.726 -3.35139 -1.79962 0
M  V30 4330 H 402.038 -4.28646 -2.55076 0
M  V30 4331 H 401.192 -3.67653 -4.82614 0
M  V30 4332 H 399.931 -2.64002 -4.10066 0
M  V30 4333 H 398.936 -4.63827 -2.95202 0
M  V30 4334 H 400.161 -5.68863 -3.70906 0
M  V30 4335 H 398.107 -4.00652 -5.19436 0
M  V30 4336 H 398.024 -5.71945 -4.94384 0
M  V30 4337 H 399.292 -5.0574 -5.93167 0
M  V30 4338 N 403.521 0.559213 -1.47345 0
M  V30 4339 C 404.453 1.68161 -1.55738 0
M  V30 4340 C 405.466 1.56636 -0.443744 0
M  V30 4341 O 406.655 1.6363 -0.713258 0
M  V30 4342 C 403.755 3.06611 -1.4437 0
M  V30 4343 C 402.928 3.4391 -2.70268 0
M  V30 4344 C 401.987 4.61515 -2.52765 0
M  V30 4345 O 401.013 4.66197 -3.26572 0
M  V30 4346 N 402.215 5.57883 -1.6046 0
M  V30 4347 H 404.98 1.61408 -2.52522 0
M  V30 4348 H 402.541 0.7458 -1.43699 0
M  V30 4349 H 404.533 3.83117 -1.30398 0
M  V30 4350 H 403.103 3.07602 -0.556766 0
M  V30 4351 H 402.323 2.56873 -2.99015 0
M  V30 4352 H 403.611 3.65605 -3.53851 0
M  V30 4353 H 403.009 5.56855 -0.996422 0
M  V30 4354 H 401.566 6.33723 -1.52441 0
M  V30 4355 N 404.999 1.35443 0.805782 0
M  V30 4356 C 405.931 1.24285 1.92577 0
M  V30 4357 C 406.944 0.165962 1.61952 0
M  V30 4358 O 408.133 0.419303 1.73505 0
M  V30 4359 C 405.233 0.891272 3.2697 0
M  V30 4360 C 404.406 2.06669 3.85495 0
M  V30 4361 C 403.465 1.69077 4.98297 0
M  V30 4362 O 402.491 2.4096 5.15681 0
M  V30 4363 N 403.693 0.614869 5.77234 0
M  V30 4364 H 406.458 2.20777 2.02676 0
M  V30 4365 H 404.019 1.28623 0.983243 0
M  V30 4366 H 406.011 0.621256 3.99903 0
M  V30 4367 H 404.581 0.016004 3.12596 0
M  V30 4368 H 403.801 2.50046 3.04747 0
M  V30 4369 H 405.089 2.85237 4.21328 0
M  V30 4370 H 404.487 0.017648 5.65697 0
M  V30 4371 H 403.044 0.404636 6.50543 0
M  V30 4372 N 406.477 -1.02803 1.19454 0
M  V30 4373 C 407.723 -1.76478 0.999171 0
M  V30 4374 C 408.056 -1.88456 -0.468828 0
M  V30 4375 O 407.331 -1.40198 -1.34814 0
M  V30 4376 C 407.614 -3.19044 1.66981 0
M  V30 4377 C 407.467 -3.14932 3.21151 0
M  V30 4378 C 408.786 -4.17456 1.39349 0
M  V30 4379 H 405.905 -0.640614 0.364393 0
M  V30 4380 H 408.547 -1.20005 1.47305 0
M  V30 4381 H 406.697 -3.67263 1.2669 0
M  V30 4382 H 408.369 -2.74605 3.70661 0
M  V30 4383 H 406.612 -2.52625 3.52652 0
M  V30 4384 H 407.283 -4.1566 3.63223 0
M  V30 4385 H 409.759 -3.77842 1.74283 0
M  V30 4386 H 408.635 -5.154 1.88823 0
M  V30 4387 H 408.896 -4.40949 0.318813 0
M  V30 4388 N 407.956 -0.998596 -1.21925 0
M  V30 4389 C 409.184 -0.696286 -1.94832 0
M  V30 4390 C 409.599 0.740032 -1.73692 0
M  V30 4391 O 408.956 1.5 -1.03953 0
M  V30 4392 C 409.007 -0.999833 -3.47398 0
M  V30 4393 O 408.728 -2.37972 -3.67833 0
M  V30 4394 C 410.229 -0.716025 -4.37479 0
M  V30 4395 H 407.449 -0.257111 -0.619786 0
M  V30 4396 H 409.993 -1.33491 -1.54921 0
M  V30 4397 H 408.148 -0.406918 -3.85257 0
M  V30 4398 H 408.562 -2.48338 -4.61983 0
M  V30 4399 H 410.036 -0.978642 -5.43256 0
M  V30 4400 H 410.513 0.349968 -4.37803 0
M  V30 4401 H 411.119 -1.29025 -4.05256 0
M  V30 4402 N 409.434 1.37368 -0.772513 0
M  V30 4403 C 410.364 2.32856 -0.173304 0
M  V30 4404 C 411.345 1.55818 0.682262 0
M  V30 4405 O 412.53 1.84052 0.619566 0
M  V30 4406 C 409.66 3.40048 0.706007 0
M  V30 4407 C 408.614 4.27973 -0.0483144 0
M  V30 4408 C 407.94 5.26184 0.950491 0
M  V30 4409 C 409.24 5.07665 -1.22776 0
M  V30 4410 H 410.934 2.83217 -0.971002 0
M  V30 4411 H 408.48 1.3617 -0.468377 0
M  V30 4412 H 410.433 4.05827 1.13501 0
M  V30 4413 H 409.157 2.88214 1.53623 0
M  V30 4414 H 407.816 3.63726 -0.458107 0
M  V30 4415 H 407.464 4.7063 1.77529 0
M  V30 4416 H 407.164 5.85872 0.450314 0
M  V30 4417 H 408.688 5.94838 1.37842 0
M  V30 4418 H 410.102 5.66578 -0.875366 0
M  V30 4419 H 408.499 5.76681 -1.66007 0
M  V30 4420 H 409.569 4.40294 -2.03149 0
M  V30 4421 N 410.912 0.523116 1.48665 0
M  V30 4422 C 411.844 -0.280421 2.27478 0
M  V30 4423 C 412.857 -0.910694 1.34945 0
M  V30 4424 O 414.046 -0.790295 1.60052 0
M  V30 4425 C 411.146 -1.41171 3.08097 0
M  V30 4426 C 410.319 -0.884642 4.28361 0
M  V30 4427 C 409.378 -1.89622 4.90846 0
M  V30 4428 O 408.404 -1.4559 5.50265 0
M  V30 4429 N 409.606 -3.22801 4.82472 0
M  V30 4430 H 412.371 0.395481 2.97079 0
M  V30 4431 H 409.932 0.357018 1.57915 0
M  V30 4432 H 411.924 -2.08645 3.4677 0
M  V30 4433 H 410.494 -1.99139 2.40961 0
M  V30 4434 H 409.714 -0.0341177 3.94185 0
M  V30 4435 H 411.002 -0.511268 5.06225 0
M  V30 4436 H 410.4 -3.61246 4.35336 0
M  V30 4437 H 408.957 -3.85927 5.25265 0
M  V30 4438 N 412.39 -1.55475 0.257931 0
M  V30 4439 C 413.801 -1.8511 -0.243135 0
M  V30 4440 C 414.152 -1.17986 -1.5676 0
M  V30 4441 O 413.277 -0.462102 -2.11409 0
M  V30 4442 C 413.872 -3.35826 -0.447929 0
M  V30 4443 C 412.431 -3.65647 -0.893245 0
M  V30 4444 C 411.578 -2.7729 0.0232965 0
M  V30 4445 H 414.529 -1.51261 0.480199 0
M  V30 4446 H 414.55 -3.58002 -1.28898 0
M  V30 4447 H 414.062 -3.84652 0.516196 0
M  V30 4448 H 412.163 -3.22308 -1.86945 0
M  V30 4449 H 412.276 -4.73312 -0.742469 0
M  V30 4450 H 410.64 -2.49942 -0.490021 0
M  V30 4451 H 411.423 -3.28926 0.982994 0
M  V30 4452 N 413.868 0.0150385 -1.57593 0
M  V30 4453 C 415.116 0.701613 -1.8953 0
M  V30 4454 C 415.437 1.75139 -0.857396 0
M  V30 4455 O 414.707 1.95607 0.107194 0
M  V30 4456 H 413.287 0.26213 -0.699498 0
M  V30 4457 H 415.949 -0.0223304 -1.94887 0
M  V30 4458 H 415.045 1.18236 -2.88837 0
M  V30 4459 N 415.346 1.54954 0.287554 0
M  V30 4460 C 416.595 1.74081 1.01877 0
M  V30 4461 C 416.908 0.541135 1.87966 0
M  V30 4462 O 418.114 0.614491 2.64455 0
M  V30 4463 C 416.57 3.08042 1.86113 0
M  V30 4464 C 416.178 4.35531 1.04961 0
M  V30 4465 C 417.922 3.36523 2.58752 0
M  V30 4466 C 415.829 5.60538 1.88551 0
M  V30 4467 H 414.759 0.64884 0.384087 0
M  V30 4468 H 417.41 1.81426 0.275101 0
M  V30 4469 H 415.792 2.94696 2.64519 0
M  V30 4470 H 416.966 4.59751 0.31074 0
M  V30 4471 H 415.281 4.14085 0.43843 0
M  V30 4472 H 417.878 4.27122 3.21668 0
M  V30 4473 H 418.221 2.56 3.28283 0
M  V30 4474 H 418.754 3.50901 1.87386 0
M  V30 4475 H 415.493 6.43767 1.23466 0
M  V30 4476 H 415.013 5.40483 2.60074 0
M  V30 4477 H 416.692 5.98297 2.46273 0
M  V30 4478 N 416.824 -0.551391 1.4764 0
M  V30 4479 C 417.772 -1.67896 1.60978 0
M  V30 4480 C 418.766 -1.62549 0.476877 0
M  V30 4481 O 419.972 -1.67664 0.654878 0
M  V30 4482 H 416.347 -0.555649 0.506713 0
M  V30 4483 H 418.318 -1.53784 2.55721 0
M  V30 4484 C 417.067 -3.06234 1.64669 0
M  V30 4485 H 416.39 -3.11033 2.51194 0
M  V30 4486 H 417.83 -3.84804 1.7805 0
M  V30 4487 C 416.289 -3.34737 0.381115 0
M  V30 4488 O 416.819 -3.98381 -0.515297 0
M  V30 4489 N 415.025 -2.8944 0.259354 0
M  V30 4490 H 414.572 -2.37827 0.98976 0
M  V30 4491 H 414.53 -3.08882 -0.586464 0
M  V30 4492 N 418.302 -1.35869 -0.798587 0
M  V30 4493 C 419.252 -1.25982 -1.90033 0
M  V30 4494 C 420.236 -0.153303 -1.60168 0
M  V30 4495 O 421.428 -0.38527 -1.72756 0
M  V30 4496 C 418.557 -1.04211 -3.27101 0
M  V30 4497 C 417.643 -2.19289 -3.63006 0
M  V30 4498 N 418.034 -3.44559 -3.70287 0
M  V30 4499 C 416.332 -2.10852 -3.93011 0
M  V30 4500 C 417.033 -4.20283 -4.02166 0
M  V30 4501 N 416.009 -3.49124 -4.16669 0
M  V30 4502 H 419.811 -2.20883 -1.93876 0
M  V30 4503 H 417.325 -1.28457 -0.993614 0
M  V30 4504 H 419.322 -0.952155 -4.05881 0
M  V30 4505 H 417.982 -0.102013 -3.2454 0
M  V30 4506 H 418.993 -3.7881 -3.53162 0
M  V30 4507 H 415.67 -1.24744 -3.98428 0
M  V30 4508 H 417.06 -5.28575 -4.14799 0
M  V30 4509 N 419.78 1.02168 -1.19998 0
M  V30 4510 C 421.029 1.75091 -1.0013 0
M  V30 4511 C 421.342 1.89923 0.467835 0
M  V30 4512 O 422.548 2.59888 0.785515 0
M  V30 4513 C 421.004 3.14892 -1.74273 0
M  V30 4514 C 420.612 3.0809 -3.25245 0
M  V30 4515 C 422.356 3.9206 -1.62755 0
M  V30 4516 C 420.263 4.42867 -3.91948 0
M  V30 4517 H 419.193 0.656394 -0.37103 0
M  V30 4518 H 421.844 1.14284 -1.43567 0
M  V30 4519 H 420.226 3.7621 -1.2362 0
M  V30 4520 H 421.4 2.5611 -3.83072 0
M  V30 4521 H 419.715 2.44416 -3.3712 0
M  V30 4522 H 422.312 4.91764 -2.09934 0
M  V30 4523 H 422.655 4.12199 -0.582894 0
M  V30 4524 H 423.188 3.37359 -2.10793 0
M  V30 4525 H 419.927 4.27931 -4.96543 0
M  V30 4526 H 419.447 4.94874 -3.3891 0
M  V30 4527 H 421.126 5.11728 -3.95909 0
M  V30 4528 N 421.258 1.00505 1.21394 0
M  V30 4529 C 422.486 0.706609 1.9446 0
M  V30 4530 C 422.901 -0.73081 1.74082 0
M  V30 4531 O 422.258 -1.49446 1.04747 0
M  V30 4532 C 422.309 1.01824 3.46863 0
M  V30 4533 O 422.03 2.39919 3.66566 0
M  V30 4534 C 423.531 0.739216 4.37093 0
M  V30 4535 H 420.751 0.260394 0.618414 0
M  V30 4536 H 423.295 1.34311 1.54211 0
M  V30 4537 H 421.45 0.427343 3.85036 0
M  V30 4538 H 421.864 2.50784 4.6066 0
M  V30 4539 H 423.338 1.00744 5.42729 0
M  V30 4540 H 423.815 -0.326746 4.37983 0
M  V30 4541 H 424.421 1.31173 4.04566 0
M  V30 4542 N 422.737 -1.36956 0.779787 0
M  V30 4543 C 423.667 -2.32761 0.185651 0
M  V30 4544 C 424.648 -1.56177 -0.673989 0
M  V30 4545 O 425.833 -1.84378 -0.609797 0
M  V30 4546 C 422.963 -3.40418 -0.687964 0
M  V30 4547 C 421.917 -4.27941 0.0710102 0
M  V30 4548 C 421.243 -5.26681 -0.922573 0
M  V30 4549 C 422.543 -5.07006 1.25467 0
M  V30 4550 H 424.237 -2.82698 0.986008 0
M  V30 4551 H 421.783 -1.3592 0.475592 0
M  V30 4552 H 423.736 -4.06423 -1.11348 0
M  V30 4553 H 422.46 -2.89025 -1.52093 0
M  V30 4554 H 421.119 -3.63478 0.47739 0
M  V30 4555 H 420.767 -4.71565 -1.7503 0
M  V30 4556 H 420.467 -5.86103 -0.419237 0
M  V30 4557 H 421.991 -5.9556 -1.34686 0
M  V30 4558 H 423.405 -5.66105 0.905401 0
M  V30 4559 H 421.802 -5.75793 1.69063 0
M  V30 4560 H 422.872 -4.3921 2.05481 0
M  V30 4561 N 424.215 -0.530993 -1.48385 0
M  V30 4562 C 425.626 -0.0907905 -1.86479 0
M  V30 4563 C 425.977 1.33213 -1.44044 0
M  V30 4564 O 425.102 1.99783 -0.831615 0
M  V30 4565 C 425.697 -0.157987 -3.38431 0
M  V30 4566 C 424.256 0.227026 -3.75715 0
M  V30 4567 C 423.403 -0.5173 -2.72432 0
M  V30 4568 H 426.354 -0.742186 -1.40276 0
M  V30 4569 H 426.375 0.630053 -3.75247 0
M  V30 4570 H 425.887 -1.19372 -3.69286 0
M  V30 4571 H 423.988 1.26486 -3.50474 0
M  V30 4572 H 424.101 -0.113288 -4.78966 0
M  V30 4573 H 422.465 0.0365527 -2.54674 0
M  V30 4574 H 423.248 -1.55368 -3.0613 0
M  V30 4575 N 425.693 1.55336 -0.266172 0
M  V30 4576 C 426.656 2.20878 0.612001 0
M  V30 4577 C 427.656 1.18388 1.08816 0
M  V30 4578 O 428.846 1.4335 0.989774 0
M  V30 4579 C 425.978 2.86765 1.84332 0
M  V30 4580 H 427.171 2.99873 0.0398718 0
M  V30 4581 H 424.724 1.56291 -0.0167309 0
M  V30 4582 H 425.459 2.11759 2.45619 0
M  V30 4583 H 425.244 3.61862 1.5099 0
M  V30 4584 H 426.734 3.36867 2.46801 0
M  V30 4585 N 427.171 -0.0066808 1.57599 0
M  V30 4586 C 428.081 -1.01671 2.11424 0
M  V30 4587 C 429.097 -1.38143 1.05795 0
M  V30 4588 O 430.273 -1.47011 1.37658 0
M  V30 4589 C 427.338 -2.29192 2.60139 0
M  V30 4590 C 426.399 -1.99094 3.80342 0
M  V30 4591 C 425.632 -3.20535 4.26724 0
M  V30 4592 O 425.855 -4.3199 3.72479 0
M  V30 4593 O 424.789 -3.04924 5.18946 0
M  V30 4594 H 428.615 -0.589181 2.9793 0
M  V30 4595 H 426.2 -0.225091 1.47695 0
M  V30 4596 H 428.082 -3.0412 2.917 0
M  V30 4597 H 426.757 -2.71195 1.76733 0
M  V30 4598 H 425.664 -1.21663 3.53764 0
M  V30 4599 H 426.997 -1.61931 4.648 0
M  V30 4600 N 428.649 -1.55105 -0.279332 0
M  V30 4601 C 429.895 -1.75672 -1.01327 0
M  V30 4602 C 430.228 -0.552739 -1.86168 0
M  V30 4603 O 429.503 0.449827 -1.89227 0
M  V30 4604 C 429.786 -3.05825 -1.90114 0
M  V30 4605 C 429.639 -4.36565 -1.08309 0
M  V30 4606 C 430.958 -3.31975 -2.8893 0
M  V30 4607 H 428.077 -0.639149 -0.366957 0
M  V30 4608 H 430.719 -1.87833 -0.286154 0
M  V30 4609 H 428.869 -2.95588 -2.52111 0
M  V30 4610 H 430.541 -4.58751 -0.484314 0
M  V30 4611 H 428.784 -4.32076 -0.386362 0
M  V30 4612 H 429.455 -5.23946 -1.73737 0
M  V30 4613 H 431.931 -3.41963 -2.37067 0
M  V30 4614 H 430.807 -4.2432 -3.48201 0
M  V30 4615 H 431.068 -2.51309 -3.63725 0
M  V30 4616 N 430.127 0.543554 -1.4793 0
M  V30 4617 C 431.355 1.32516 -1.58894 0
M  V30 4618 C 431.77 1.87215 -0.244131 0
M  V30 4619 O 431.127 1.65709 0.764652 0
M  V30 4620 C 431.178 2.48554 -2.62494 0
M  V30 4621 O 430.899 1.96112 -3.91755 0
M  V30 4622 C 432.4 3.40572 -2.8377 0
M  V30 4623 H 429.62 0.403472 -0.536145 0
M  V30 4624 H 432.164 0.657106 -1.93655 0
M  V30 4625 H 430.319 3.1127 -2.30629 0
M  V30 4626 H 430.733 2.71967 -4.4848 0
M  V30 4627 H 432.207 4.18375 -3.60093 0
M  V30 4628 H 432.684 3.94965 -1.92092 0
M  V30 4629 H 433.29 2.8366 -3.16887 0
M  V30 4630 N 431.605 1.3629 0.791371 0
M  V30 4631 C 432.553 1.30514 1.92533 0
M  V30 4632 C 433.547 0.197285 1.68247 0
M  V30 4633 O 434.753 0.364176 1.76278 0
M  V30 4634 H 431.128 0.406263 0.632815 0
M  V30 4635 H 433.099 2.26282 1.94523 0
M  V30 4636 C 431.848 1.10933 3.29529 0
M  V30 4637 H 431.171 1.95427 3.48781 0
M  V30 4638 H 432.611 1.10937 4.0923 0
M  V30 4639 C 431.07 -0.186123 3.36385 0
M  V30 4640 O 431.6 -1.17664 3.84081 0
M  V30 4641 N 429.806 -0.230128 2.89687 0
M  V30 4642 H 429.353 0.576545 2.51065 0
M  V30 4643 H 429.311 -1.09658 2.94657 0
M  V30 4644 N 433.083 -1.0153 1.20538 0
M  V30 4645 C 434.494 -1.56598 1.01657 0
M  V30 4646 C 434.845 -1.91505 -0.426668 0
M  V30 4647 O 433.97 -1.72375 -1.30827 0
M  V30 4648 C 434.565 -2.84542 1.83905 0
M  V30 4649 C 433.124 -3.36133 1.69386 0
M  V30 4650 C 432.271 -2.09427 1.81757 0
M  V30 4651 H 435.222 -0.838974 1.34711 0
M  V30 4652 H 435.243 -3.56004 1.34319 0
M  V30 4653 H 434.755 -2.59105 2.8894 0
M  V30 4654 H 432.856 -3.66528 0.669933 0
M  V30 4655 H 432.969 -4.08248 2.50739 0
M  V30 4656 H 431.333 -2.21941 1.24957 0
M  V30 4657 H 432.116 -1.86414 2.88279 0
M  V30 4658 N 434.561 -1.01147 -1.20859 0
M  V30 4659 C 435.807 -0.698899 -1.90377 0
M  V30 4660 C 436.14 0.76904 -1.78324 0
M  V30 4661 O 435.415 1.55817 -1.16409 0
M  V30 4662 C 435.698 -1.12878 -3.41951 0
M  V30 4663 C 435.551 -2.65665 -3.62963 0
M  V30 4664 C 436.87 -0.696114 -4.3456 0
M  V30 4665 H 433.989 -0.255372 -0.691342 0
M  V30 4666 H 436.631 -1.25831 -1.42361 0
M  V30 4667 H 434.781 -0.652827 -3.82976 0
M  V30 4668 H 436.453 -3.21074 -3.31224 0
M  V30 4669 H 434.696 -3.06878 -3.06608 0
M  V30 4670 H 435.367 -2.90797 -4.69192 0
M  V30 4671 H 437.843 -1.10521 -4.01154 0
M  V30 4672 H 436.719 -1.025 -5.39245 0
M  V30 4673 H 436.98 0.402465 -4.40264 0
M  V30 4674 N 436.039 1.36541 -0.78704 0
M  V30 4675 C 437.455 1.52571 -0.46844 0
M  V30 4676 C 437.655 1.7415 1.01361 0
M  V30 4677 O 436.711 1.77163 1.79915 0
M  V30 4678 C 438.024 2.71299 -1.29682 0
M  V30 4679 C 439.572 2.85169 -1.29027 0
M  V30 4680 C 440.047 4.06898 -2.10233 0
M  V30 4681 N 441.538 4.1404 -2.07666 0
M  V30 4682 C 442.273 5.07301 -2.67271 0
M  V30 4683 N 441.769 6.06021 -3.35724 0
M  V30 4684 N 443.562 4.99898 -2.57018 0
M  V30 4685 H 435.713 1.20788 -1.74711 0
M  V30 4686 H 437.976 0.589364 -0.742532 0
M  V30 4687 H 437.682 2.61868 -2.34773 0
M  V30 4688 H 437.556 3.6539 -0.936479 0
M  V30 4689 H 439.943 2.94062 -0.247284 0
M  V30 4690 H 440.024 1.91992 -1.69035 0
M  V30 4691 H 439.668 3.98766 -3.1456 0
M  V30 4692 H 439.598 4.99218 -1.67597 0
M  V30 4693 H 442.089 3.43357 -1.57843 0
M  V30 4694 H 442.402 6.73741 -3.78541 0
M  V30 4695 H 440.747 6.06253 -3.39826 0
M  V30 4696 H 443.938 4.21724 -2.03142 0
M  V30 4697 H 444.111 5.72392 -3.03761 0
M  V30 4698 N 437.518 0.538854 1.48102 0
M  V30 4699 C 438.764 0.0161732 2.03394 0
M  V30 4700 C 439.119 -1.31154 1.40771 0
M  V30 4701 O 438.412 -1.83613 0.547421 0
M  V30 4702 C 438.606 -0.153808 3.57069 0
M  V30 4703 C 438.435 1.15588 4.34591 0
M  V30 4704 C 437.205 1.71818 4.75191 0
M  V30 4705 C 439.403 2.06867 4.70861 0
M  V30 4706 N 437.385 2.96983 5.37284 0
M  V30 4707 C 438.756 3.16609 5.33066 0
M  V30 4708 C 440.811 2.07085 4.52791 0
M  V30 4709 C 439.514 4.26645 5.79109 0
M  V30 4710 C 441.54 3.16121 4.99821 0
M  V30 4711 C 440.902 4.24582 5.62058 0
M  V30 4712 H 437.001 0.0476346 0.780548 0
M  V30 4713 H 439.585 0.722094 1.80815 0
M  V30 4714 H 437.756 -0.828825 3.79454 0
M  V30 4715 H 439.488 -0.676896 3.98999 0
M  V30 4716 H 436.243 1.25845 4.56574 0
M  V30 4717 H 436.667 3.60732 5.72889 0
M  V30 4718 H 441.309 1.24522 4.04047 0
M  V30 4719 H 439.027 5.0998 6.26854 0
M  V30 4720 H 442.613 3.17355 4.87624 0
M  V30 4721 H 441.493 5.07562 5.97788 0
M  V30 4722 N 438.996 -1.55193 0.274407 0
M  V30 4723 C 439.929 -2.18606 -0.654712 0
M  V30 4724 C 440.907 -1.14677 -1.15273 0
M  V30 4725 O 442.091 -1.43198 -1.22583 0
M  V30 4726 C 439.218 -2.80875 -1.89281 0
M  V30 4727 C 438.264 -3.981 -1.53032 0
M  V30 4728 S 439.097 -5.32025 -0.609107 0
M  V30 4729 C 440.253 -5.97761 -1.85559 0
M  V30 4730 H 440.486 -2.97074 -0.115894 0
M  V30 4731 H 438.019 -1.54288 0.05867 0
M  V30 4732 H 439.977 -3.17381 -2.60345 0
M  V30 4733 H 438.638 -2.02302 -2.40277 0
M  V30 4734 H 437.831 -4.40356 -2.45158 0
M  V30 4735 H 437.433 -3.63013 -0.899874 0
M  V30 4736 H 439.725 -6.16951 -2.7996 0
M  V30 4737 H 440.668 -6.92545 -1.47605 0
M  V30 4738 H 441.076 -5.27113 -2.02021 0
M  V30 4739 N 440.474 -0.00167713 -1.576 0
M  V30 4740 C 441.885 0.54091 -1.78693 0
M  V30 4741 C 442.236 1.7386 -0.909247 0
M  V30 4742 O 441.361 2.16109 -0.112176 0
M  V30 4743 C 441.956 0.98806 -3.24072 0
M  V30 4744 C 440.515 1.47594 -3.46256 0
M  V30 4745 C 439.662 0.42792 -2.73978 0
M  V30 4746 H 442.613 -0.22784 -1.57056 0
M  V30 4747 H 442.634 1.85398 -3.32277 0
M  V30 4748 H 442.146 0.116164 -3.87926 0
M  V30 4749 H 440.247 2.36868 -2.87618 0
M  V30 4750 H 440.36 1.50225 -4.54939 0
M  V30 4751 H 438.724 0.889934 -2.38647 0
M  V30 4752 H 439.507 -0.435038 -3.40532 0
M  V30 4753 N 441.952 1.55251 0.271103 0
M  V30 4754 C 442.9 1.89054 1.35504 0
M  V30 4755 C 443.894 0.767064 1.51038 0
M  V30 4756 O 445.1 0.951429 1.528 0
M  V30 4757 H 441.475 0.600072 0.45323 0
M  V30 4758 H 443.446 2.79598 1.04247 0
M  V30 4759 C 442.195 2.18068 2.70817 0
M  V30 4760 H 441.518 3.04005 2.59656 0
M  V30 4761 H 442.958 2.4564 3.45597 0
M  V30 4762 C 441.417 0.988901 3.2206 0
M  V30 4763 O 441.947 0.224501 4.01072 0
M  V30 4764 N 440.153 0.786085 2.79766 0
M  V30 4765 H 439.7 1.40937 2.15626 0
M  V30 4766 H 439.658 -0.00969349 3.14399 0
M  V30 4767 N 443.43 -0.535701 1.48216 0
M  V30 4768 C 444.678 -1.28928 1.55634 0
M  V30 4769 C 444.999 -1.93645 0.229514 0
M  V30 4770 O 444.269 -1.81038 -0.74846 0
M  V30 4771 H 442.849 -0.47884 0.573342 0
M  V30 4772 H 445.511 -0.623853 1.84646 0
M  V30 4773 H 444.607 -2.07157 2.33436 0
M  V30 4774 N 444.908 -1.36708 -0.784132 0
M  V30 4775 C 446.154 -1.32433 -1.54379 0
M  V30 4776 C 446.509 0.0941816 -1.92169 0
M  V30 4777 O 445.802 1.04997 -1.60269 0
M  V30 4778 C 445.996 -2.18571 -2.82774 0
M  V30 4779 C 445.825 -3.68656 -2.57533 0
M  V30 4780 C 444.595 -4.37813 -2.52286 0
M  V30 4781 C 446.793 -4.61802 -2.2637 0
M  V30 4782 N 444.775 -5.7351 -2.18997 0
M  V30 4783 C 446.146 -5.85785 -2.03115 0
M  V30 4784 C 448.201 -4.50313 -2.12421 0
M  V30 4785 C 446.904 -6.99569 -1.67321 0
M  V30 4786 C 448.93 -5.63969 -1.78026 0
M  V30 4787 C 448.292 -6.86994 -1.55622 0
M  V30 4788 H 444.391 -0.539886 -0.565727 0
M  V30 4789 H 446.975 -1.71812 -0.915908 0
M  V30 4790 H 445.146 -1.81429 -3.43421 0
M  V30 4791 H 446.878 -2.05646 -3.48557 0
M  V30 4792 H 443.633 -3.90674 -2.67714 0
M  V30 4793 H 444.057 -6.45189 -2.05084 0
M  V30 4794 H 448.699 -3.55781 -2.28429 0
M  V30 4795 H 446.417 -7.94047 -1.5005 0
M  V30 4796 H 450.003 -5.57044 -1.67909 0
M  V30 4797 H 448.883 -7.7345 -1.294 0
M  V30 4798 N 446.386 1.0089 -1.21074 0
M  V30 4799 C 447.634 1.74262 -1.02358 0
M  V30 4800 C 447.955 1.89869 0.444393 0
M  V30 4801 O 447.225 1.44677 1.32081 0
M  V30 4802 H 445.805 0.645615 -0.375754 0
M  V30 4803 H 448.467 1.21596 -1.52317 0
M  V30 4804 H 447.563 2.74328 -1.4883 0
M  V30 4805 N 447.864 1.01787 1.20321 0
M  V30 4806 C 449.092 0.727194 1.937 0
M  V30 4807 C 449.507 -0.712305 1.74848 0
M  V30 4808 O 448.864 -1.48327 1.06327 0
M  V30 4809 C 448.915 1.05497 3.45764 0
M  V30 4810 O 448.636 2.43794 3.64 0
M  V30 4811 C 450.137 0.785534 4.36285 0
M  V30 4812 H 447.357 0.266939 0.615617 0
M  V30 4813 H 449.901 1.35939 1.52777 0
M  V30 4814 H 448.056 0.468158 3.84561 0
M  V30 4815 H 448.47 2.55656 4.57974 0
M  V30 4816 H 449.944 1.06495 5.4163 0
M  V30 4817 H 450.421 -0.280273 4.38305 0
M  V30 4818 H 451.027 1.35456 4.03152 0
M  V30 4819 N 449.342 -1.36122 0.79427 0
M  V30 4820 C 450.753 -1.81646 0.431446 0
M  V30 4821 C 451.104 -1.66043 -1.04518 0
M  V30 4822 O 450.229 -1.1841 -1.8113 0
M  V30 4823 C 450.824 -3.29785 0.776341 0
M  V30 4824 C 449.383 -3.73501 0.466282 0
M  V30 4825 C 448.53 -2.58313 1.00844 0
M  V30 4826 H 451.481 -1.24274 0.986995 0
M  V30 4827 H 451.502 -3.80437 0.0692413 0
M  V30 4828 H 451.014 -3.4111 1.8511 0
M  V30 4829 H 449.115 -3.67733 -0.600245 0
M  V30 4830 H 449.228 -4.68754 0.990288 0
M  V30 4831 H 447.592 -2.5102 0.431406 0
M  V30 4832 H 448.375 -2.72421 2.08906 0
M  V30 4833 N 450.82 -0.546701 -1.47814 0
M  V30 4834 C 452.048 -0.0232857 -2.06887 0
M  V30 4835 C 452.463 1.26571 -1.4009 0
M  V30 4836 O 451.82 1.7569 -0.493906 0
M  V30 4837 C 451.871 0.186975 -3.61016 0
M  V30 4838 O 451.592 -1.05097 -4.25307 0
M  V30 4839 C 453.093 0.748872 -4.36929 0
M  V30 4840 H 450.313 -0.0410763 -0.669742 0
M  V30 4841 H 452.857 -0.757117 -1.89968 0
M  V30 4842 H 451.012 0.870903 -3.77484 0
M  V30 4843 H 451.426 -0.842121 -5.17695 0
M  V30 4844 H 452.9 0.845334 -5.45489 0
M  V30 4845 H 453.377 1.75772 -4.02493 0
M  V30 4846 H 453.983 0.100979 -4.2518 0
M  V30 4847 N 452.299 1.55045 -0.282633 0
M  V30 4848 C 453.229 2.2579 0.595066 0
M  V30 4849 C 454.21 1.25074 1.15284 0
M  V30 4850 O 455.395 1.5381 1.18559 0
M  V30 4851 C 452.525 2.98472 1.77572 0
M  V30 4852 C 451.479 4.0618 1.34914 0
M  V30 4853 C 450.805 4.66477 2.6135 0
M  V30 4854 C 452.105 5.1996 0.493821 0
M  V30 4855 H 453.799 2.994 0.00505653 0
M  V30 4856 H 451.345 1.44 0.000992001 0
M  V30 4857 H 453.298 3.46677 2.39568 0
M  V30 4858 H 452.022 2.2241 2.39168 0
M  V30 4859 H 450.681 3.58797 0.752338 0
M  V30 4860 H 450.329 3.87074 3.2122 0
M  V30 4861 H 450.029 5.39207 2.33516 0
M  V30 4862 H 451.553 5.17435 3.24181 0
M  V30 4863 H 452.967 5.64172 1.01898 0
M  V30 4864 H 451.364 5.99299 0.310047 0
M  V30 4865 H 452.434 4.82462 -0.485593 0
M  V30 4866 N 453.777 0.010035 1.57597 0
M  V30 4867 C 455.007 -0.682422 1.95004 0
M  V30 4868 C 455.415 -1.67278 0.884014 0
M  V30 4869 O 454.758 -1.83129 -0.144672 0
M  V30 4870 C 454.82 -1.46141 3.28456 0
M  V30 4871 C 454.484 -0.631523 4.52615 0
M  V30 4872 C 455.481 0.0850905 5.1983 0
M  V30 4873 C 453.166 -0.574539 4.99003 0
M  V30 4874 C 455.16 0.847566 6.3174 0
M  V30 4875 C 452.847 0.191655 6.10799 0
M  V30 4876 C 453.845 0.901432 6.77025 0
M  V30 4877 O 453.533 1.65511 7.86677 0
M  V30 4878 H 453.265 -0.194361 0.647456 0
M  V30 4879 H 455.819 0.060312 2.05311 0
M  V30 4880 H 454.049 -2.24885 3.14585 0
M  V30 4881 H 455.738 -2.04016 3.50902 0
M  V30 4882 H 456.504 0.0502812 4.84974 0
M  V30 4883 H 452.383 -1.11654 4.47274 0
M  V30 4884 H 455.927 1.4021 6.83364 0
M  V30 4885 H 451.824 0.228249 6.45096 0
M  V30 4886 H 452.592 1.57287 8.03245 0
M  V30 4887 N 455.255 -1.55392 -0.262866 0
M  V30 4888 C 456.532 -1.67204 -1.01499 0
M  V30 4889 C 456.912 -0.545186 -2.03939 0
M  V30 4890 O 456.26 0.453467 -2.23955 0
M  V30 4891 C 456.47 -3.06847 -1.6627 0
M  V30 4892 C 457.818 -3.64928 -2.17054 0
M  V30 4893 O 458.842 -3.09545 -1.76239 0
M  V30 4894 O 457.701 -4.61984 -2.91947 0
M  V30 4895 H 454.795 -0.679467 -0.471438 0
M  V30 4896 H 457.341 -1.67729 -0.257918 0
M  V30 4897 H 456.113 -3.80309 -0.920915 0
M  V30 4898 H 455.736 -3.10266 -2.48638 0
M  V30 4899 N 456.733 0.527833 -1.48498 0
M  V30 4900 C 457.98 1.28354 -1.56625 0
M  V30 4901 C 458.308 1.93 -0.241096 0
M  V30 4902 O 457.563 1.79967 0.768798 0
M  V30 4903 C 457.862 2.39275 -2.65485 0
M  V30 4904 C 457.528 1.92268 -4.07853 0
M  V30 4905 C 456.19 1.79166 -4.46602 0
M  V30 4906 C 458.542 1.56771 -4.97064 0
M  V30 4907 C 455.87 1.28905 -5.72364 0
M  V30 4908 C 458.222 1.07972 -6.23318 0
M  V30 4909 C 456.886 0.934887 -6.60921 0
M  V30 4910 H 456.156 0.469682 -0.573131 0
M  V30 4911 H 458.803 0.588781 -1.82224 0
M  V30 4912 H 457.108 3.1443 -2.33754 0
M  V30 4913 H 458.805 2.974 -2.68988 0
M  V30 4914 H 455.395 2.03417 -3.77252 0
M  V30 4915 H 459.579 1.65753 -4.67803 0
M  V30 4916 H 454.835 1.16381 -6.00221 0
M  V30 4917 H 459.009 0.795775 -6.91838 0
M  V30 4918 H 456.636 0.543231 -7.58257 0
M  V30 4919 N 458.211 1.37122 0.776871 0
M  V30 4920 C 459.436 1.354 1.57104 0
M  V30 4921 C 459.861 -0.0595562 1.88006 0
M  V30 4922 O 459.219 -1.03514 1.48844 0
M  V30 4923 C 459.267 2.19472 2.8612 0
M  V30 4924 O 458.371 1.59582 3.80273 0
M  V30 4925 H 457.712 0.462869 0.476076 0
M  V30 4926 H 460.242 1.80577 0.961932 0
M  V30 4927 H 460.252 2.32502 3.35271 0
M  V30 4928 H 458.927 3.22222 2.62956 0
M  V30 4929 H 457.504 1.55564 3.38902 0
M  V30 4930 N 459.689 -1.00246 1.21608 0
M  V30 4931 C 460.652 -2.07233 0.979133 0
M  V30 4932 C 461.652 -1.6072 -0.0508219 0
M  V30 4933 O 462.842 -1.73196 0.186712 0
M  V30 4934 C 459.974 -3.37546 0.477016 0
M  V30 4935 H 461.167 -2.29687 1.92831 0
M  V30 4936 H 458.72 -1.17261 1.03342 0
M  V30 4937 H 459.455 -3.20773 -0.476966 0
M  V30 4938 H 459.24 -3.72638 1.21997 0
M  V30 4939 H 460.73 -4.16285 0.331181 0
M  V30 4940 N 461.167 -1.02423 -1.1978 0
M  V30 4941 C 462.099 -0.559152 -2.22275 0
M  V30 4942 C 463.112 0.36251 -1.58713 0
M  V30 4943 O 464.301 0.159641 -1.77785 0
M  V30 4944 C 461.401 0.205094 -3.38279 0
M  V30 4945 C 460.574 -0.720361 -4.31427 0
M  V30 4946 C 459.633 -0.00234368 -5.262 0
M  V30 4947 O 458.659 -0.627378 -5.65732 0
M  V30 4948 N 459.861 1.26996 -5.66438 0
M  V30 4949 H 462.626 -1.44064 -2.62804 0
M  V30 4950 H 460.187 -0.902692 -1.34399 0
M  V30 4951 H 462.179 0.694868 -3.9869 0
M  V30 4952 H 460.749 0.987947 -2.96578 0
M  V30 4953 H 459.969 -1.39031 -3.68869 0
M  V30 4954 H 461.257 -1.3495 -4.90577 0
M  V30 4955 H 460.655 1.79858 -5.36347 0
M  V30 4956 H 459.212 1.70432 -6.29123 0
M  V30 4957 N 462.645 1.35699 -0.801477 0
M  V30 4958 C 463.894 1.98165 -0.375979 0
M  V30 4959 C 464.207 1.64306 1.06127 0
M  V30 4960 O 465.413 2.20097 1.58964 0
M  V30 4961 C 463.869 3.54497 -0.621305 0
M  V30 4962 C 463.477 3.9727 -2.07076 0
M  V30 4963 C 465.221 4.23697 -0.26091 0
M  V30 4964 C 463.128 5.46427 -2.26211 0
M  V30 4965 H 462.058 0.741478 -0.136844 0
M  V30 4966 H 464.709 1.54834 -0.984814 0
M  V30 4967 H 463.091 3.95958 0.0574112 0
M  V30 4968 H 464.265 3.66974 -2.78687 0
M  V30 4969 H 462.58 3.40943 -2.39054 0
M  V30 4970 H 465.177 5.33334 -0.381994 0
M  V30 4971 H 465.52 4.0869 0.792344 0
M  V30 4972 H 466.053 3.87639 -0.893339 0
M  V30 4973 H 462.792 5.66396 -3.29963 0
M  V30 4974 H 462.312 5.78309 -1.59119 0
M  V30 4975 H 463.991 6.12819 -2.07513 0
M  V30 4976 N 464.123 0.554532 1.47522 0
M  V30 4977 C 465.086 -0.184174 2.28459 0
M  V30 4978 C 466.086 -0.845195 1.36796 0
M  V30 4979 O 467.276 -0.701467 1.59452 0
M  V30 4980 C 464.408 -1.26903 3.16399 0
M  V30 4981 H 465.601 0.526751 2.95238 0
M  V30 4982 H 463.154 0.311375 1.53167 0
M  V30 4983 H 463.889 -2.01244 2.54306 0
M  V30 4984 H 463.674 -0.799883 3.83854 0
M  V30 4985 H 465.164 -1.78794 3.77389 0
M  V30 4986 N 465.601 -1.54893 0.290851 0
M  V30 4987 C 466.841 -2.01842 -0.322388 0
M  V30 4988 C 467.205 -1.17477 -1.51865 0
M  V30 4989 O 468.406 -1.54077 -2.20258 0
M  V30 4990 C 466.677 -3.50874 -0.679844 0
M  V30 4991 S 468.236 -4.19796 -1.27739 0
M  V30 4992 H 465.054 -0.704005 -0.0994866 0
M  V30 4993 H 467.656 -1.91015 0.416358 0
M  V30 4994 H 466.36 -4.09915 0.199435 0
M  V30 4995 H 465.891 -3.65717 -1.44964 0
M  V30 4996 H 467.906 -4.24729 -2.56554 0
M  V30 4997 N 467.08 -0.0183926 -1.57589 0
M  V30 4998 C 468.328 0.661253 -1.90976 0
M  V30 4999 C 468.649 1.73281 -0.894353 0
M  V30 5000 O 467.919 1.9579 0.0656788 0
M  V30 5001 H 466.499 0.247233 -0.704901 0
M  V30 5002 H 469.161 -0.0636639 -1.94796 0
M  V30 5003 H 468.257 1.12083 -2.9128 0
M  V30 5004 N 468.558 1.5553 0.254621 0
M  V30 5005 C 469.835 1.6774 1.00611 0
M  V30 5006 C 470.215 0.555993 2.03647 0
M  V30 5007 O 469.563 -0.441583 2.24193 0
M  V30 5008 C 469.773 3.07725 1.6464 0
M  V30 5009 C 471.121 3.66074 2.15116 0
M  V30 5010 O 472.145 3.10476 1.74595 0
M  V30 5011 O 471.004 4.63526 2.89493 0
M  V30 5012 H 468.098 0.681958 0.467828 0
M  V30 5013 H 470.644 1.67863 0.24902 0
M  V30 5014 H 469.416 3.80792 0.900734 0
M  V30 5015 H 469.039 3.1158 2.46989 0
M  V30 5016 N 470.036 -0.519951 1.48776 0
M  V30 5017 C 471.452 -0.849418 1.35119 0
M  V30 5018 C 471.652 -1.98077 0.36982 0
M  V30 5019 O 470.708 -2.51664 -0.205359 0
M  V30 5020 C 472.021 -1.20748 2.75391 0
M  V30 5021 C 473.569 -1.31679 2.83954 0
M  V30 5022 C 474.044 -1.70824 4.24951 0
M  V30 5023 N 475.535 -1.77908 4.27672 0
M  V30 5024 C 476.27 -2.09603 5.33717 0
M  V30 5025 N 475.766 -2.39652 6.5003 0
M  V30 5026 N 477.559 -2.10694 5.21119 0
M  V30 5027 H 469.71 0.226377 2.1119 0
M  V30 5028 H 471.973 0.0386519 0.947212 0
M  V30 5029 H 471.679 -0.449703 3.48813 0
M  V30 5030 H 471.553 -2.15534 3.09556 0
M  V30 5031 H 473.94 -2.06532 2.10781 0
M  V30 5032 H 474.021 -0.3499 2.53396 0
M  V30 5033 H 473.665 -0.965282 4.98643 0
M  V30 5034 H 473.595 -2.6858 4.52959 0
M  V30 5035 H 476.086 -1.56923 3.43779 0
M  V30 5036 H 476.399 -2.6297 7.26682 0
M  V30 5037 H 474.744 -2.37149 6.53288 0
M  V30 5038 H 477.935 -1.86682 4.29264 0
M  V30 5039 H 478.108 -2.35062 6.03863 0
M  V30 5040 N 471.514 -1.37532 -0.769588 0
M  V30 5041 C 472.763 -1.32183 -1.5235 0
M  V30 5042 C 473.076 0.0906555 -1.9539 0
M  V30 5043 O 474.282 0.266628 -2.70188 0
M  V30 5044 C 472.738 -2.32029 -2.75119 0
M  V30 5045 C 472.346 -3.78816 -2.3917 0
M  V30 5046 C 474.09 -2.35694 -3.53056 0
M  V30 5047 C 471.997 -4.70388 -3.58453 0
M  V30 5048 H 470.927 -0.491275 -0.571984 0
M  V30 5049 H 473.578 -1.63004 -0.842739 0
M  V30 5050 H 471.96 -1.94229 -3.45096 0
M  V30 5051 H 473.134 -4.25466 -1.76962 0
M  V30 5052 H 471.449 -3.78117 -1.74402 0
M  V30 5053 H 474.046 -3.01312 -4.41718 0
M  V30 5054 H 474.389 -1.37117 -3.93071 0
M  V30 5055 H 474.922 -2.72212 -2.90078 0
M  V30 5056 H 471.661 -5.70102 -3.23518 0
M  V30 5057 H 471.181 -4.28442 -4.19758 0
M  V30 5058 H 472.86 -4.87628 -4.25239 0
M  V30 5059 N 472.992 0.995999 -1.22138 0
M  V30 5060 C 474.238 1.73767 -1.04561 0
M  V30 5061 C 474.571 1.89633 0.418698 0
M  V30 5062 O 473.846 1.43723 1.3105 0
M  V30 5063 C 474.129 3.14505 -1.75382 0
M  V30 5064 C 473.982 3.06306 -3.29388 0
M  V30 5065 C 475.301 4.13615 -1.50369 0
M  V30 5066 H 472.42 0.630728 -0.38125 0
M  V30 5067 H 475.062 1.16057 -1.50435 0
M  V30 5068 H 473.212 3.63775 -1.36383 0
M  V30 5069 H 474.884 2.64681 -3.77812 0
M  V30 5070 H 473.127 2.43186 -3.59226 0
M  V30 5071 H 473.798 4.05884 -3.74116 0
M  V30 5072 H 476.274 3.73089 -1.84239 0
M  V30 5073 H 475.15 5.10212 -2.02421 0
M  V30 5074 H 475.411 4.39949 -0.435611 0
M  V30 5075 N 474.47 1.03057 1.19235 0
M  V30 5076 C 475.433 0.617418 2.20727 0
M  V30 5077 C 476.433 -0.319856 1.57587 0
M  V30 5078 O 477.623 -0.106633 1.73873 0
M  V30 5079 C 474.755 -0.096296 3.40764 0
M  V30 5080 H 475.948 1.51544 2.58794 0
M  V30 5081 H 473.501 0.821949 1.32942 0
M  V30 5082 H 474.236 -1.00859 3.08217 0
M  V30 5083 H 474.021 0.577217 3.87828 0
M  V30 5084 H 475.511 -0.372219 4.15938 0
M  V30 5085 N 475.948 -1.35272 0.808662 0
M  V30 5086 C 476.858 -2.33546 0.222079 0
M  V30 5087 C 477.874 -1.6196 -0.636011 0
M  V30 5088 O 479.05 -1.93822 -0.547274 0
M  V30 5089 C 476.115 -3.41148 -0.61795 0
M  V30 5090 C 475.176 -4.28507 0.260875 0
M  V30 5091 C 474.409 -5.3097 -0.539156 0
M  V30 5092 O 474.632 -5.42123 -1.77367 0
M  V30 5093 O 473.566 -6.01858 0.0710526 0
M  V30 5094 H 477.392 -2.85515 1.03512 0
M  V30 5095 H 474.977 -1.38079 0.570495 0
M  V30 5096 H 476.859 -4.06889 -1.09634 0
M  V30 5097 H 475.534 -2.91447 -1.40855 0
M  V30 5098 H 474.441 -3.6574 0.786451 0
M  V30 5099 H 475.774 -4.81611 1.01547 0
M  V30 5100 N 477.426 -0.562348 -1.47226 0
M  V30 5101 C 478.358 0.220011 -2.28142 0
M  V30 5102 C 479.371 0.874596 -1.37312 0
M  V30 5103 O 480.56 0.747583 -1.62091 0
M  V30 5104 C 477.66 1.32953 -3.11732 0
M  V30 5105 C 476.833 0.770759 -4.30556 0
M  V30 5106 C 475.892 1.76541 -4.95701 0
M  V30 5107 O 474.918 1.3095 -5.53932 0
M  V30 5108 N 476.12 3.09896 -4.90861 0
M  V30 5109 H 478.885 -0.474107 -2.95926 0
M  V30 5110 H 476.446 -0.398761 -1.56912 0
M  V30 5111 H 478.438 1.99378 -3.5218 0
M  V30 5112 H 477.008 1.92681 -2.46156 0
M  V30 5113 H 476.228 -0.0704056 -3.94137 0
M  V30 5114 H 477.516 0.376872 -5.07402 0
M  V30 5115 H 476.914 3.49577 -4.44761 0
M  V30 5116 H 475.471 3.71865 -5.35313 0
M  V30 5117 N 478.904 1.54736 -0.299062 0
M  V30 5118 C 480.129 2.04975 0.316254 0
M  V30 5119 C 480.554 1.17501 1.46885 0
M  V30 5120 O 479.912 0.178678 1.80417 0
M  V30 5121 C 479.96 3.52672 0.751997 0
M  V30 5122 O 479.064 3.68226 1.85697 0
M  V30 5123 H 478.405 0.661126 0.0617175 0
M  V30 5124 H 480.935 1.99805 -0.440341 0
M  V30 5125 H 480.945 3.94488 1.04133 0
M  V30 5126 H 479.62 4.158 -0.0911482 0
M  V30 5127 H 478.197 3.38316 1.56834 0
M  V30 5128 N 480.382 0.0267497 1.57577 0
M  V30 5129 C 481.332 -0.965003 2.06571 0
M  V30 5130 C 482.316 -1.28694 0.965746 0
M  V30 5131 O 483.508 -1.27345 1.22932 0
M  V30 5132 C 480.637 -2.24821 2.59443 0
M  V30 5133 C 479.723 -1.95474 3.76365 0
M  V30 5134 N 480.114 -1.36387 4.87065 0
M  V30 5135 C 478.412 -2.25478 3.84806 0
M  V30 5136 C 479.113 -1.24119 5.68304 0
M  V30 5137 N 478.089 -1.7359 5.15138 0
M  V30 5138 H 481.891 -0.503095 2.89562 0
M  V30 5139 H 479.405 -0.178322 1.61418 0
M  V30 5140 H 481.402 -2.9674 2.92833 0
M  V30 5141 H 480.062 -2.7164 1.77881 0
M  V30 5142 H 481.073 -1.03919 5.07367 0
M  V30 5143 H 477.75 -2.74987 3.14147 0
M  V30 5144 H 479.14 -0.784504 6.67304 0
M  V30 5145 N 481.861 -1.55662 -0.24637 0
M  V30 5146 C 483.277 -1.48098 -0.594907 0
M  V30 5147 C 483.477 -0.717044 -1.8831 0
M  V30 5148 O 482.533 -0.246618 -2.51293 0
M  V30 5149 C 483.846 -2.92507 -0.697146 0
M  V30 5150 C 485.394 -3.02881 -0.789436 0
M  V30 5151 C 485.869 -4.48598 -0.923232 0
M  V30 5152 N 487.36 -4.52538 -0.988088 0
M  V30 5153 C 488.095 -5.62536 -1.11089 0
M  V30 5154 N 487.591 -6.82342 -1.19919 0
M  V30 5155 N 489.384 -5.50334 -1.14408 0
M  V30 5156 H 481.535 -2.0377 0.599278 0
M  V30 5157 H 483.798 -0.925145 0.20691 0
M  V30 5158 H 483.504 -3.51242 0.179396 0
M  V30 5159 H 483.378 -3.43024 -1.5689 0
M  V30 5160 H 485.765 -2.44226 -1.65643 0
M  V30 5161 H 485.846 -2.55574 0.107482 0
M  V30 5162 H 485.49 -5.07864 -0.0607927 0
M  V30 5163 H 485.42 -4.93587 -1.8352 0
M  V30 5164 H 487.911 -3.66248 -0.931167 0
M  V30 5165 H 488.224 -7.61924 -1.29197 0
M  V30 5166 H 486.569 -6.85102 -1.16876 0
M  V30 5167 H 489.76 -4.5567 -1.07158 0
M  V30 5168 H 489.933 -6.36096 -1.23634 0
M  V30 5169 N 483.339 0.512053 -1.4905 0
M  V30 5170 C 484.588 1.26343 -1.57227 0
M  V30 5171 C 484.901 1.93876 -0.259155 0
M  V30 5172 O 486.107 2.70612 -0.219358 0
M  V30 5173 C 484.563 2.29343 -2.77362 0
M  V30 5174 C 484.171 1.67799 -4.15388 0
M  V30 5175 C 485.915 3.05378 -2.94864 0
M  V30 5176 C 483.822 2.68845 -5.2676 0
M  V30 5177 H 482.752 0.475231 -0.585382 0
M  V30 5178 H 485.403 0.53862 -1.75417 0
M  V30 5179 H 483.785 3.04938 -2.52643 0
M  V30 5180 H 484.959 0.982715 -4.50199 0
M  V30 5181 H 483.274 1.04194 -4.03153 0
M  V30 5182 H 485.871 3.80921 -3.75238 0
M  V30 5183 H 486.214 3.62327 -2.05 0
M  V30 5184 H 486.747 2.36898 -3.19569 0
M  V30 5185 H 483.486 2.16692 -6.18647 0
M  V30 5186 H 483.006 3.36647 -4.96416 0
M  V30 5187 H 484.685 3.31487 -5.5563 0
M  V30 5188 N 484.817 1.37938 0.762283 0
M  V30 5189 C 486.065 1.33404 1.51815 0
M  V30 5190 C 486.386 -0.0780975 1.94844 0
M  V30 5191 O 485.656 -1.02405 1.67003 0
M  V30 5192 H 484.236 0.490839 0.563104 0
M  V30 5193 H 486.898 1.72527 0.906669 0
M  V30 5194 H 485.994 1.97926 2.41313 0
M  V30 5195 N 486.295 -0.989507 1.22664 0
M  V30 5196 C 487.225 -2.09847 1.02404 0
M  V30 5197 C 488.206 -1.70007 -0.0561303 0
M  V30 5198 O 489.391 -1.93906 0.106748 0
M  V30 5199 C 486.521 -3.41996 0.604663 0
M  V30 5200 C 485.475 -3.95699 1.63115 0
M  V30 5201 C 484.801 -5.23936 1.0675 0
M  V30 5202 C 486.101 -4.25999 3.02196 0
M  V30 5203 H 487.795 -2.27054 1.95158 0
M  V30 5204 H 485.341 -1.09111 0.939727 0
M  V30 5205 H 487.294 -4.1899 0.45002 0
M  V30 5206 H 486.018 -3.24626 -0.35855 0
M  V30 5207 H 484.677 -3.2084 1.77362 0
M  V30 5208 H 484.325 -5.02909 0.0955422 0
M  V30 5209 H 484.025 -5.60833 1.75328 0
M  V30 5210 H 485.549 -6.0356 0.924516 0
M  V30 5211 H 486.963 -4.93777 2.91303 0
M  V30 5212 H 485.36 -4.74076 3.67929 0
M  V30 5213 H 486.43 -3.33636 3.51873 0
M  V30 5214 N 487.773 -1.03688 -1.18687 0
M  V30 5215 C 489.189 -0.755413 -1.4059 0
M  V30 5216 C 489.389 0.656659 -1.905 0
M  V30 5217 O 488.445 1.42144 -2.08689 0
M  V30 5218 C 489.758 -1.7983 -2.41001 0
M  V30 5219 C 491.306 -1.81877 -2.54735 0
M  V30 5220 C 491.781 -2.85148 -3.58406 0
M  V30 5221 N 493.272 -2.84015 -3.6591 0
M  V30 5222 C 494.007 -3.60573 -4.45841 0
M  V30 5223 N 493.503 -4.46871 -5.29413 0
M  V30 5224 N 495.296 -3.49079 -4.40568 0
M  V30 5225 H 487.447 -1.94818 -0.846148 0
M  V30 5226 H 489.71 -0.842727 -0.434184 0
M  V30 5227 H 489.416 -2.81097 -2.1137 0
M  V30 5228 H 489.29 -1.62727 -3.40294 0
M  V30 5229 H 491.677 -0.812836 -2.83685 0
M  V30 5230 H 491.758 -2.03057 -1.55568 0
M  V30 5231 H 491.402 -3.85918 -3.30197 0
M  V30 5232 H 491.332 -2.61224 -4.57241 0
M  V30 5233 H 493.823 -2.21431 -3.0623 0
M  V30 5234 H 494.136 -5.02007 -5.87545 0
M  V30 5235 H 492.481 -4.5094 -5.28846 0
M  V30 5236 H 495.672 -2.81066 -3.74325 0
M  V30 5237 H 495.845 -4.08994 -5.02621 0
M  V30 5238 N 489.251 1.34841 -0.815825 0
M  V30 5239 C 490.479 2.0273 -0.413294 0
M  V30 5240 C 490.894 1.61459 0.978599 0
M  V30 5241 O 490.251 0.816584 1.63212 0
M  V30 5242 C 490.302 3.58058 -0.497676 0
M  V30 5243 O 490.023 3.97832 -1.8347 0
M  V30 5244 C 491.524 4.4321 -0.0891339 0
M  V30 5245 H 488.744 0.649956 -0.166728 0
M  V30 5246 H 491.288 1.72267 -1.10201 0
M  V30 5247 H 489.443 3.87136 0.142886 0
M  V30 5248 H 489.857 4.92501 -1.80396 0
M  V30 5249 H 491.331 5.5164 -0.199274 0
M  V30 5250 H 491.808 4.28432 0.966571 0
M  V30 5251 H 492.414 4.19446 -0.703214 0
M  V30 5252 N 490.729 0.570148 1.46925 0
M  V30 5253 C 491.978 0.0487352 2.01641 0
M  V30 5254 C 492.291 -1.31433 1.44861 0
M  V30 5255 O 493.497 -1.92638 1.91318 0
M  V30 5256 C 491.953 0.0365817 3.59881 0
M  V30 5257 C 491.561 1.39719 4.25655 0
M  V30 5258 C 493.305 -0.431545 4.22301 0
M  V30 5259 C 491.212 1.34345 5.75939 0
M  V30 5260 H 490.142 0.0144492 0.753862 0
M  V30 5261 H 492.793 0.719928 1.68788 0
M  V30 5262 H 491.175 -0.700522 3.89755 0
M  V30 5263 H 492.349 2.15303 4.07408 0
M  V30 5264 H 490.664 1.80431 3.75278 0
M  V30 5265 H 493.261 -0.490354 5.32447 0
M  V30 5266 H 493.604 -1.44638 3.90366 0
M  V30 5267 H 494.137 0.251102 3.97007 0
M  V30 5268 H 490.876 2.33469 6.12513 0
M  V30 5269 H 490.396 0.629615 5.96486 0
M  V30 5270 H 492.075 1.051 6.38407 0
M  V30 5271 N 492.207 -1.54576 0.307264 0
M  V30 5272 C 493.623 -1.59534 -0.0459251 0
M  V30 5273 C 493.823 -1.32414 -1.51884 0
M  V30 5274 O 492.879 -1.1006 -2.27251 0
M  V30 5275 C 494.192 -2.98566 0.357649 0
M  V30 5276 C 495.74 -3.11491 0.306937 0
M  V30 5277 C 496.215 -4.52842 0.685427 0
M  V30 5278 N 497.706 -4.58782 0.638203 0
M  V30 5279 C 498.441 -5.66238 0.903458 0
M  V30 5280 N 497.937 -6.81703 1.23501 0
M  V30 5281 N 499.73 -5.55937 0.830102 0
M  V30 5282 H 491.881 -1.70464 1.26712 0
M  V30 5283 H 494.144 -0.79647 0.514139 0
M  V30 5284 H 493.85 -3.23356 1.38325 0
M  V30 5285 H 493.724 -3.76117 -0.285565 0
M  V30 5286 H 496.111 -2.86446 -0.709424 0
M  V30 5287 H 496.192 -2.36081 0.984861 0
M  V30 5288 H 495.836 -4.78618 1.69963 0
M  V30 5289 H 495.766 -5.26598 -0.0146346 0
M  V30 5290 H 498.257 -3.75849 0.393138 0
M  V30 5291 H 498.57 -7.59582 1.42322 0
M  V30 5292 H 496.915 -6.8324 1.27311 0
M  V30 5293 H 500.106 -4.64608 0.570693 0
M  V30 5294 H 500.279 -6.39597 1.04019 0
M  V30 5295 N 493.685 -0.035106 -1.57561 0
M  V30 5296 C 494.931 0.64318 -1.92331 0
M  V30 5297 C 495.264 1.71434 -0.912368 0
M  V30 5298 O 494.539 1.94395 0.0640303 0
M  V30 5299 C 494.822 1.25411 -3.37556 0
M  V30 5300 C 494.675 0.192109 -4.4939 0
M  V30 5301 C 495.994 2.17041 -3.82859 0
M  V30 5302 H 493.113 0.232341 -0.699419 0
M  V30 5303 H 495.755 -0.0935889 -1.89769 0
M  V30 5304 H 493.905 1.88205 -3.39869 0
M  V30 5305 H 495.577 -0.438849 -4.59208 0
M  V30 5306 H 493.82 -0.481725 -4.31117 0
M  V30 5307 H 494.491 0.659292 -5.48049 0
M  V30 5308 H 496.967 1.64228 -3.8232 0
M  V30 5309 H 495.843 2.56738 -4.85157 0
M  V30 5310 H 496.104 3.06401 -3.18702 0
M  V30 5311 N 495.163 1.55791 0.238111 0
M  V30 5312 C 496.409 1.78297 0.966337 0
M  V30 5313 C 496.742 0.601903 1.84637 0
M  V30 5314 O 496.017 -0.399499 1.90353 0
M  V30 5315 C 496.3 3.10758 1.81939 0
M  V30 5316 C 496.153 4.39283 0.966958 0
M  V30 5317 C 497.472 3.39519 2.80027 0
M  V30 5318 H 494.591 0.648654 0.349882 0
M  V30 5319 H 497.233 1.88525 0.236253 0
M  V30 5320 H 495.383 3.02168 2.44185 0
M  V30 5321 H 497.055 4.59873 0.362514 0
M  V30 5322 H 495.298 4.32948 0.271669 0
M  V30 5323 H 495.969 5.28368 1.59784 0
M  V30 5324 H 498.445 3.48128 2.27917 0
M  V30 5325 H 497.321 4.33402 3.36829 0
M  V30 5326 H 497.582 2.60864 3.56934 0
M  V30 5327 N 496.642 -0.504142 1.49319 0
M  V30 5328 C 497.59 -1.62689 1.66238 0
M  V30 5329 C 498.584 -1.6095 0.528349 0
M  V30 5330 O 499.79 -1.65496 0.707887 0
M  V30 5331 H 496.165 -0.539247 0.524134 0
M  V30 5332 H 498.136 -1.45571 2.60484 0
M  V30 5333 C 496.885 -3.00841 1.74328 0
M  V30 5334 H 496.208 -3.02884 2.60963 0
M  V30 5335 H 497.648 -3.78945 1.90202 0
M  V30 5336 C 496.107 -3.33355 0.487416 0
M  V30 5337 O 496.637 -3.99819 -0.388294 0
M  V30 5338 N 494.843 -2.88469 0.351306 0
M  V30 5339 H 494.39 -2.34557 1.06492 0
M  V30 5340 H 494.348 -3.10591 -0.487899 0
M  V30 5341 N 498.12 -1.38341 -0.754957 0
M  V30 5342 C 499.03 -1.3769 -1.89944 0
M  V30 5343 C 500.046 -0.274194 -1.71826 0
M  V30 5344 O 501.222 -0.512391 -1.94773 0
M  V30 5345 C 498.287 -1.19938 -3.25293 0
M  V30 5346 C 497.348 -2.40001 -3.55946 0
M  V30 5347 C 496.581 -2.23087 -4.84838 0
M  V30 5348 O 496.804 -1.22386 -5.57116 0
M  V30 5349 O 495.738 -3.11646 -5.14937 0
M  V30 5350 H 499.564 -2.3412 -1.93446 0
M  V30 5351 H 497.149 -1.19246 -0.900044 0
M  V30 5352 H 499.031 -1.12093 -4.06218 0
M  V30 5353 H 497.706 -0.265919 -3.22606 0
M  V30 5354 H 496.613 -2.53421 -2.75188 0
M  V30 5355 H 497.946 -3.31973 -3.63394 0
M  V30 5356 N 499.598 0.982988 -1.23187 0
M  V30 5357 C 500.545 2.07491 -1.01075 0
M  V30 5358 C 501.515 1.65949 0.070905 0
M  V30 5359 O 502.7 1.90629 -0.0806822 0
M  V30 5360 C 499.84 3.39751 -0.605261 0
M  V30 5361 C 498.953 3.94578 -1.75876 0
M  V30 5362 C 498.088 5.15039 -1.3003 0
M  V30 5363 C 497.127 5.62027 -2.42472 0
M  V30 5364 N 496.264 6.73719 -1.97602 0
M  V30 5365 H 501.104 2.25739 -1.9454 0
M  V30 5366 H 498.641 1.10659 -0.969179 0
M  V30 5367 H 500.599 4.15719 -0.351279 0
M  V30 5368 H 499.229 3.21473 0.292382 0
M  V30 5369 H 498.281 3.1539 -2.12681 0
M  V30 5370 H 499.593 4.25422 -2.60418 0
M  V30 5371 H 498.747 5.9833 -1.00429 0
M  V30 5372 H 497.486 4.85843 -0.425216 0
M  V30 5373 H 496.491 4.77318 -2.7285 0
M  V30 5374 H 497.716 5.93244 -3.30512 0
M  V30 5375 H 495.662 6.46287 -1.1247 0
M  V30 5376 H 495.579 7.03934 -2.75705 0
M  V30 5377 H 496.847 7.6049 -1.71098 0
M  V30 5378 N 501.076 1.04316 1.18135 0
M  V30 5379 C 502.353 0.662166 1.84051 0
M  V30 5380 C 502.733 -0.858169 1.9287 0
M  V30 5381 O 502.081 -1.76062 1.45652 0
M  V30 5382 C 502.291 1.3409 3.22212 0
M  V30 5383 C 503.639 1.4733 3.9822 0
M  V30 5384 O 504.663 1.29921 3.31661 0
M  V30 5385 O 503.522 1.75722 5.17479 0
M  V30 5386 H 500.616 0.232005 0.79379 0
M  V30 5387 H 503.162 1.1422 1.25506 0
M  V30 5388 H 501.934 2.37853 3.10711 0
M  V30 5389 H 501.557 0.849649 3.88416 0
M  V30 5390 N 502.554 -1.34406 0.822964 0
M  V30 5391 C 503.501 -2.29519 0.24284 0
M  V30 5392 C 504.471 -1.5359 -0.632397 0
M  V30 5393 O 505.656 -1.8196 -0.57403 0
M  V30 5394 C 502.796 -3.40032 -0.58925 0
M  V30 5395 C 501.909 -4.30899 0.308236 0
M  V30 5396 C 501.044 -5.28515 -0.533425 0
M  V30 5397 C 500.083 -6.1102 0.363444 0
M  V30 5398 N 499.22 -7.00725 -0.439147 0
M  V30 5399 H 504.06 -2.78537 1.05929 0
M  V30 5400 H 501.597 -1.3707 0.533872 0
M  V30 5401 H 503.555 -4.0279 -1.087 0
M  V30 5402 H 502.185 -2.92248 -1.37081 0
M  V30 5403 H 501.237 -3.69002 0.924203 0
M  V30 5404 H 502.549 -4.88717 0.997862 0
M  V30 5405 H 501.703 -5.96725 -1.09565 0
M  V30 5406 H 500.442 -4.71235 -1.25656 0
M  V30 5407 H 499.447 -5.41743 0.937812 0
M  V30 5408 H 500.672 -6.70381 1.08469 0
M  V30 5409 H 498.618 -6.45913 -1.14595 0
M  V30 5410 H 498.535 -7.55756 0.19209 0
M  V30 5411 H 499.803 -7.73263 -0.984124 0
M  V30 5412 N 504.032 -0.577932 -1.46621 0
M  V30 5413 C 505.309 0.00495287 -1.95599 0
M  V30 5414 C 505.689 1.46428 -1.5206 0
M  V30 5415 O 505.037 2.1517 -0.769046 0
M  V30 5416 C 505.247 -0.162114 -3.48623 0
M  V30 5417 C 506.595 -0.0274623 -4.24591 0
M  V30 5418 O 507.619 -0.0907067 -3.56084 0
M  V30 5419 O 506.478 0.1122 -5.46385 0
M  V30 5420 H 503.572 0.0525057 -0.825332 0
M  V30 5421 H 506.118 -0.645914 -1.56927 0
M  V30 5422 H 504.89 -1.17679 -3.73185 0
M  V30 5423 H 504.513 0.525407 -3.94113 0
M  V30 5424 N 505.51 1.54411 -0.315457 0
M  V30 5425 C 506.758 2.00023 0.288971 0
M  V30 5426 C 507.079 1.20529 1.5329 0
M  V30 5427 O 506.349 0.304986 1.93511 0
M  V30 5428 H 504.929 0.738891 0.109766 0
M  V30 5429 H 507.591 1.90094 -0.430129 0
M  V30 5430 H 506.687 3.07198 0.550999 0
M  V30 5431 N 506.988 0.0434614 1.5754 0
M  V30 5432 C 507.898 -0.94893 2.14552 0
M  V30 5433 C 508.914 -1.34707 1.10136 0
M  V30 5434 O 510.09 -1.42557 1.42266 0
M  V30 5435 C 507.155 -2.208 2.67298 0
M  V30 5436 C 506.216 -1.86893 3.86484 0
M  V30 5437 C 505.449 -3.06797 4.36705 0
M  V30 5438 O 505.672 -4.19921 3.86034 0
M  V30 5439 O 504.606 -2.8826 5.28384 0
M  V30 5440 H 508.432 -0.494099 2.99654 0
M  V30 5441 H 506.017 -0.177989 1.48336 0
M  V30 5442 H 507.899 -2.94686 3.01228 0
M  V30 5443 H 506.574 -2.65436 1.85272 0
M  V30 5444 H 505.481 -1.10347 3.57455 0
M  V30 5445 H 506.814 -1.47062 4.69716 0
M  V30 5446 N 508.466 -1.55915 -0.229846 0
M  V30 5447 C 509.691 -1.8296 -0.976743 0
M  V30 5448 C 510.116 -0.622735 -1.77493 0
M  V30 5449 O 509.474 0.428431 -1.76165 0
M  V30 5450 C 509.522 -3.07916 -1.8767 0
M  V30 5451 O 508.626 -2.86028 -2.97088 0
M  V30 5452 H 507.967 -0.603453 -0.277021 0
M  V30 5453 H 510.497 -2.0312 -0.245669 0
M  V30 5454 H 510.507 -3.37802 -2.2881 0
M  V30 5455 H 509.182 -3.95389 -1.28996 0
M  V30 5456 H 507.759 -2.67355 -2.59954 0
M  V30 5457 N 509.944 0.496216 -1.49584 0
M  V30 5458 C 511.191 1.25003 -1.59312 0
M  V30 5459 C 511.519 1.92445 -0.28198 0
M  V30 5460 O 510.774 1.81557 0.730452 0
M  V30 5461 C 511.073 2.3359 -2.705 0
M  V30 5462 C 510.739 1.83574 -4.11839 0
M  V30 5463 C 509.401 1.69653 -4.50302 0
M  V30 5464 C 511.753 1.46193 -5.00277 0
M  V30 5465 C 509.081 1.16736 -5.74969 0
M  V30 5466 C 511.433 0.947265 -6.25468 0
M  V30 5467 C 510.097 0.794485 -6.62755 0
M  V30 5468 H 509.367 0.45742 -0.582965 0
M  V30 5469 H 512.014 0.549996 -1.83432 0
M  V30 5470 H 510.319 3.09401 -2.40371 0
M  V30 5471 H 512.016 2.91627 -2.75235 0
M  V30 5472 H 508.606 1.9537 -3.81482 0
M  V30 5473 H 512.79 1.55793 -4.71214 0
M  V30 5474 H 508.046 1.03623 -6.02555 0
M  V30 5475 H 512.22 0.648846 -6.93371 0
M  V30 5476 H 509.847 0.382271 -7.59238 0
M  V30 5477 N 511.423 1.38739 0.74761 0
M  V30 5478 C 512.653 1.3832 1.53464 0
M  V30 5479 C 513.061 -0.0273464 1.8918 0
M  V30 5480 O 512.404 -1.00588 1.53713 0
M  V30 5481 C 512.466 2.18007 2.85855 0
M  V30 5482 C 512.13 3.66762 2.72644 0
M  V30 5483 C 513.127 4.60124 2.42037 0
M  V30 5484 C 510.812 4.10193 2.89909 0
M  V30 5485 C 512.806 5.94897 2.28859 0
M  V30 5486 C 510.493 5.45045 2.7635 0
M  V30 5487 C 511.491 6.37211 2.45869 0
M  V30 5488 O 511.179 7.69581 2.3238 0
M  V30 5489 H 510.911 0.474718 0.481268 0
M  V30 5490 H 513.465 1.83012 0.932518 0
M  V30 5491 H 511.695 1.68043 3.48279 0
M  V30 5492 H 513.384 2.09921 3.47402 0
M  V30 5493 H 514.15 4.27874 2.28361 0
M  V30 5494 H 510.029 3.38797 3.1263 0
M  V30 5495 H 513.573 6.66802 2.04989 0
M  V30 5496 H 509.47 5.76889 2.89601 0
M  V30 5497 H 510.238 7.80169 2.47546 0
M  V30 5498 N 512.901 -0.976442 1.23707 0
M  V30 5499 C 514.148 -1.71827 1.07153 0
M  V30 5500 C 514.476 -1.9053 -0.390982 0
M  V30 5501 O 513.731 -1.45779 -1.30564 0
M  V30 5502 C 514.03 -3.11814 1.74662 0
M  V30 5503 C 513.696 -3.12978 3.24585 0
M  V30 5504 C 512.358 -3.13003 3.6549 0
M  V30 5505 C 514.71 -3.07986 4.20469 0
M  V30 5506 C 512.038 -3.05757 5.00729 0
M  V30 5507 C 514.39 -3.02282 5.55705 0
M  V30 5508 C 513.054 -3.00631 5.95968 0
M  V30 5509 H 512.324 -0.628758 0.392102 0
M  V30 5510 H 514.971 -1.14239 1.53693 0
M  V30 5511 H 513.276 -3.72812 1.20492 0
M  V30 5512 H 514.973 -3.67989 1.59328 0
M  V30 5513 H 511.563 -3.13718 2.92026 0
M  V30 5514 H 515.747 -3.07103 3.89874 0
M  V30 5515 H 511.003 -3.02834 5.31132 0
M  V30 5516 H 515.177 -2.97376 6.29714 0
M  V30 5517 H 512.804 -2.94771 7.00724 0
M  V30 5518 N 514.379 -1.04941 -1.1758 0
M  V30 5519 C 515.289 -0.658826 -2.25159 0
M  V30 5520 C 516.305 0.318941 -1.71052 0
M  V30 5521 O 517.481 0.171669 -2.00667 0
M  V30 5522 C 514.546 -0.0369522 -3.4668 0
M  V30 5523 C 513.607 -1.06484 -4.15884 0
M  V30 5524 C 512.84 -0.472551 -5.31604 0
M  V30 5525 O 513.063 0.718736 -5.65854 0
M  V30 5526 O 511.997 -1.20557 -5.89703 0
M  V30 5527 H 515.823 -1.55533 -2.60851 0
M  V30 5528 H 513.408 -0.820819 -1.24832 0
M  V30 5529 H 515.29 0.308784 -4.20267 0
M  V30 5530 H 513.965 0.833238 -3.12792 0
M  V30 5531 H 512.872 -1.46253 -3.44327 0
M  V30 5532 H 514.205 -1.9061 -4.53794 0
M  V30 5533 N 515.857 1.33968 -0.830081 0
M  V30 5534 C 517.103 1.98357 -0.422191 0
M  V30 5535 C 517.436 1.65633 1.01387 0
M  V30 5536 O 516.711 0.931648 1.70735 0
M  V30 5537 C 516.994 3.54492 -0.633043 0
M  V30 5538 C 516.847 3.96934 -2.11574 0
M  V30 5539 C 518.166 4.40039 -0.0735584 0
M  V30 5540 H 515.285 0.720544 -0.154871 0
M  V30 5541 H 517.927 1.58749 -1.04397 0
M  V30 5542 H 516.077 3.88361 -0.103775 0
M  V30 5543 H 517.749 3.73363 -2.7092 0
M  V30 5544 H 515.992 3.46984 -2.60354 0
M  V30 5545 H 516.663 5.05651 -2.21406 0
M  V30 5546 H 519.139 4.12764 -0.52585 0
M  V30 5547 H 518.015 5.48327 -0.250841 0
M  V30 5548 H 518.276 4.30124 1.02202 0
M  V30 5549 N 517.335 0.585699 1.46312 0
M  V30 5550 C 518.283 -0.158577 2.32059 0
M  V30 5551 C 519.277 -0.881427 1.44662 0
M  V30 5552 O 520.483 -0.799476 1.61271 0
M  V30 5553 H 516.858 -0.0700066 0.748734 0
M  V30 5554 H 518.829 0.583383 2.92642 0
M  V30 5555 C 517.578 -1.15701 3.27885 0
M  V30 5556 H 516.901 -0.610215 3.95116 0
M  V30 5557 H 518.341 -1.64812 3.90657 0
M  V30 5558 C 516.8 -2.21951 2.53455 0
M  V30 5559 O 517.33 -3.29352 2.29978 0
M  V30 5560 N 515.536 -1.9664 2.13965 0
M  V30 5561 H 515.083 -1.09309 2.33258 0
M  V30 5562 H 515.041 -2.6794 1.64485 0
M  V30 5563 N 518.813 -1.54241 0.323641 0
M  V30 5564 C 520.061 -2.00174 -0.278359 0
M  V30 5565 C 520.382 -1.2134 -1.52648 0
M  V30 5566 O 519.652 -0.315244 -1.93347 0
M  V30 5567 H 518.232 -0.739463 -0.105845 0
M  V30 5568 H 520.894 -1.89864 0.440204 0
M  V30 5569 H 519.99 -3.07486 -0.5347 0
M  V30 5570 N 520.291 -0.0518155 -1.57515 0
M  V30 5571 C 521.54 0.621286 -1.91893 0
M  V30 5572 C 521.853 1.71966 -0.932052 0
M  V30 5573 O 523.059 2.45096 -1.16791 0
M  V30 5574 C 521.515 1.15641 -3.40816 0
M  V30 5575 C 521.123 0.0901146 -4.47909 0
M  V30 5576 C 522.867 1.80472 -3.84227 0
M  V30 5577 C 520.774 0.638154 -5.87947 0
M  V30 5578 H 519.704 0.235835 -0.716169 0
M  V30 5579 H 522.355 -0.120809 -1.83102 0
M  V30 5580 H 520.737 1.95084 -3.44613 0
M  V30 5581 H 521.911 -0.683525 -4.55702 0
M  V30 5582 H 520.226 -0.460774 -4.13843 0
M  V30 5583 H 522.823 2.22471 -4.86221 0
M  V30 5584 H 523.166 2.65669 -3.20508 0
M  V30 5585 H 523.699 1.07683 -3.82948 0
M  V30 5586 H 520.438 -0.176202 -6.55263 0
M  V30 5587 H 519.958 1.37976 -5.83714 0
M  V30 5588 H 521.637 1.12085 -6.37217 0
M  V30 5589 N 521.769 1.56035 0.221574 0
M  V30 5590 C 523.18 1.69229 0.788567 0
M  V30 5591 C 523.531 0.653814 1.84986 0
M  V30 5592 O 522.656 -0.195065 2.15519 0
M  V30 5593 C 523.251 3.06809 1.43713 0
M  V30 5594 C 521.81 3.21858 1.95152 0
M  V30 5595 C 520.957 2.65155 0.811685 0
M  V30 5596 H 523.908 1.587 -0.00307894 0
M  V30 5597 H 523.929 3.02666 2.30594 0
M  V30 5598 H 523.441 3.82369 0.664475 0
M  V30 5599 H 521.542 2.51167 2.7522 0
M  V30 5600 H 521.655 4.29073 2.1315 0
M  V30 5601 H 520.019 2.23635 1.21899 0
M  V30 5602 H 520.802 3.43261 0.0516987 0
M  V30 5603 N 523.247 -0.488276 1.49845 0
M  V30 5604 C 524.18 -1.60651 1.62069 0
M  V30 5605 C 525.158 -1.5568 0.469308 0
M  V30 5606 O 526.342 -1.75553 0.686551 0
M  V30 5607 C 523.469 -2.99197 1.58741 0
M  V30 5608 C 522.515 -3.22385 2.79232 0
M  V30 5609 S 523.348 -3.04133 4.40753 0
M  V30 5610 C 524.504 -4.45052 4.4009 0
M  V30 5611 H 524.737 -1.50039 2.56662 0
M  V30 5612 H 522.27 -0.674371 1.38894 0
M  V30 5613 H 524.228 -3.79081 1.57506 0
M  V30 5614 H 522.889 -3.07213 0.654136 0
M  V30 5615 H 522.082 -4.23557 2.73159 0
M  V30 5616 H 521.684 -2.50245 2.77945 0
M  V30 5617 H 523.976 -5.37375 4.12594 0
M  V30 5618 H 524.919 -4.56172 5.41583 0
M  V30 5619 H 525.327 -4.26327 3.70008 0
M  V30 5620 N 524.725 -1.39134 -0.740242 0
M  V30 5621 C 525.972 -1.36071 -1.49969 0
M  V30 5622 C 526.3 0.0450245 -1.94448 0
M  V30 5623 O 525.555 1.02482 -1.66721 0
M  V30 5624 C 525.854 -2.27457 -2.75678 0
M  V30 5625 C 525.52 -3.75185 -2.50094 0
M  V30 5626 C 524.182 -4.15439 -2.42825 0
M  V30 5627 C 526.534 -4.68643 -2.28086 0
M  V30 5628 C 523.862 -5.4722 -2.11584 0
M  V30 5629 C 526.214 -6.00695 -1.98363 0
M  V30 5630 C 524.878 -6.40018 -1.8956 0
M  V30 5631 H 524.148 -0.497921 -0.548777 0
M  V30 5632 H 526.795 -1.71599 -0.85007 0
M  V30 5633 H 525.1 -1.8503 -3.45356 0
M  V30 5634 H 526.797 -2.22384 -3.33686 0
M  V30 5635 H 523.387 -3.43279 -2.56627 0
M  V30 5636 H 527.571 -4.3838 -2.32672 0
M  V30 5637 H 522.827 -5.76615 -2.03287 0
M  V30 5638 H 527.001 -6.72644 -1.80341 0
M  V30 5639 H 524.628 -7.42051 -1.65117 0
M  V30 5640 N 526.204 0.969867 -1.24223 0
M  V30 5641 C 527.167 2.04564 -1.03373 0
M  V30 5642 C 528.167 1.60798 0.00819206 0
M  V30 5643 O 529.357 1.72641 -0.232567 0
M  V30 5644 C 526.489 3.36163 -0.566343 0
M  V30 5645 H 527.682 2.24494 -1.98853 0
M  V30 5646 H 525.235 1.1448 -1.06415 0
M  V30 5647 H 525.97 3.21925 0.391751 0
M  V30 5648 H 525.755 3.69273 -1.31834 0
M  V30 5649 H 527.245 4.1526 -0.441435 0
M  V30 5650 N 527.682 1.05563 1.17022 0
M  V30 5651 C 528.629 0.659893 2.21165 0
M  V30 5652 C 529.599 -0.339813 1.62587 0
M  V30 5653 O 530.784 -0.230378 1.89404 0
M  V30 5654 C 527.924 0.0447297 3.45071 0
M  V30 5655 C 527.037 1.09372 4.17926 0
M  V30 5656 C 526.172 0.445481 5.29329 0
M  V30 5657 C 525.211 1.47852 5.93975 0
M  V30 5658 N 524.348 0.854172 6.96885 0
M  V30 5659 H 529.188 1.55243 2.54369 0
M  V30 5660 H 526.725 0.776336 1.24946 0
M  V30 5661 H 528.683 -0.329404 4.15898 0
M  V30 5662 H 527.313 -0.811244 3.1244 0
M  V30 5663 H 526.365 1.58564 3.45777 0
M  V30 5664 H 527.677 1.87773 4.62107 0
M  V30 5665 H 526.831 0.0179688 6.06697 0
M  V30 5666 H 525.57 -0.370481 4.86291 0
M  V30 5667 H 524.575 1.91601 5.15334 0
M  V30 5668 H 525.8 2.29645 6.39093 0
M  V30 5669 H 523.746 0.0587882 6.55974 0
M  V30 5670 H 523.663 1.57567 7.39397 0
M  V30 5671 H 524.931 0.451559 7.78191 0
M  V30 5672 N 529.16 -1.33526 0.837174 0
M  V30 5673 C 530.408 -1.97446 0.431211 0
M  V30 5674 C 530.729 -1.6665 -1.01255 0
M  V30 5675 O 529.999 -0.964559 -1.70508 0
M  V30 5676 H 528.579 -0.73043 0.156463 0
M  V30 5677 H 531.241 -1.62918 1.06976 0
M  V30 5678 H 530.337 -3.07001 0.561877 0
M  V30 5679 N 530.638 -0.59345 -1.46 0
M  V30 5680 C 531.601 0.123538 -2.28867 0
M  V30 5681 C 532.601 0.808628 -1.38989 0
M  V30 5682 O 533.791 0.658945 -1.61256 0
M  V30 5683 C 530.923 1.1847 -3.19653 0
M  V30 5684 H 532.116 -0.604843 -2.93737 0
M  V30 5685 H 529.669 -0.351875 -1.52288 0
M  V30 5686 H 530.404 1.94431 -2.59552 0
M  V30 5687 H 530.189 0.69783 -3.8584 0
M  V30 5688 H 531.679 1.68726 -3.81997 0
M  V30 5689 N 532.116 1.54067 -0.331816 0
M  V30 5690 C 533.064 2.26105 0.54582 0
M  V30 5691 C 534.058 1.27816 1.11173 0
M  V30 5692 O 535.264 1.45565 1.05882 0
M  V30 5693 H 531.639 0.726363 0.194683 0
M  V30 5694 H 533.61 2.98282 -0.083931 0
M  V30 5695 C 532.359 3.03814 1.69092 0
M  V30 5696 H 531.682 3.79269 1.26473 0
M  V30 5697 H 533.122 3.57453 2.28043 0
M  V30 5698 C 531.581 2.12606 2.61343 0
M  V30 5699 O 532.111 1.71437 3.6328 0
M  V30 5700 N 530.317 1.77925 2.29763 0
M  V30 5701 H 529.864 2.11602 1.46909 0
M  V30 5702 H 529.822 1.1718 2.91747 0
M  V30 5703 N 533.594 0.0601682 1.57485 0
M  V30 5704 C 534.824 -0.620037 1.97076 0
M  V30 5705 C 535.232 -1.64381 0.936784 0
M  V30 5706 O 534.575 -1.83497 -0.0863377 0
M  V30 5707 C 534.637 -1.35617 3.32939 0
M  V30 5708 C 534.301 -0.487208 4.54396 0
M  V30 5709 C 535.298 0.250428 5.19297 0
M  V30 5710 C 532.983 -0.415494 5.00579 0
M  V30 5711 C 534.977 1.04812 6.28723 0
M  V30 5712 C 532.664 0.385879 6.0988 0
M  V30 5713 C 533.662 1.11637 6.73815 0
M  V30 5714 O 533.35 1.90454 7.81014 0
M  V30 5715 H 533.082 -0.173664 0.653312 0
M  V30 5716 H 535.636 0.1256 2.05016 0
M  V30 5717 H 533.866 -2.14763 3.2158 0
M  V30 5718 H 535.555 -1.92749 3.57215 0
M  V30 5719 H 536.321 0.204546 4.84568 0
M  V30 5720 H 532.2 -0.973679 4.506 0
M  V30 5721 H 535.744 1.6188 6.78558 0
M  V30 5722 H 531.641 0.433366 6.44044 0
M  V30 5723 H 532.409 1.82762 7.97835 0
M  V30 5724 N 535.072 -1.5615 -0.213296 0
M  V30 5725 C 536.321 -1.78743 -0.93455 0
M  V30 5726 C 536.634 -0.630199 -1.8517 0
M  V30 5727 O 537.84 -0.739966 -2.61222 0
M  V30 5728 C 536.296 -3.16571 -1.71203 0
M  V30 5729 C 535.904 -4.40043 -0.840617 0
M  V30 5730 C 537.648 -3.48485 -2.42401 0
M  V30 5731 C 535.555 -5.68895 -1.61592 0
M  V30 5732 H 534.485 -0.666426 -0.352692 0
M  V30 5733 H 537.136 -1.82532 -0.188227 0
M  V30 5734 H 535.518 -3.06981 -2.50157 0
M  V30 5735 H 536.692 -4.6071 -0.0910326 0
M  V30 5736 H 535.007 -4.15706 -0.240365 0
M  V30 5737 H 537.604 -4.41983 -3.00924 0
M  V30 5738 H 537.947 -2.71371 -3.15695 0
M  V30 5739 H 538.48 -3.59442 -1.7043 0
M  V30 5740 H 535.219 -6.48925 -0.926106 0
M  V30 5741 H 534.739 -5.52275 -2.33991 0
M  V30 5742 H 536.418 -6.09365 -2.17447 0
M  V30 5743 N 536.55 0.480323 -1.50102 0
M  V30 5744 C 537.961 1.06142 -1.53593 0
M  V30 5745 C 538.312 1.93335 -0.334055 0
M  V30 5746 O 537.437 2.09188 0.55403 0
M  V30 5747 C 538.032 1.9317 -2.78336 0
M  V30 5748 C 536.591 2.46405 -2.84538 0
M  V30 5749 C 535.738 1.24521 -2.4777 0
M  V30 5750 H 538.689 0.26333 -1.565 0
M  V30 5751 H 538.71 2.78123 -2.59669 0
M  V30 5752 H 538.222 1.29683 -3.65792 0
M  V30 5753 H 536.323 3.13472 -2.01411 0
M  V30 5754 H 536.436 2.82143 -3.87211 0
M  V30 5755 H 534.8 1.57706 -2.00003 0
M  V30 5756 H 535.583 0.627102 -3.37524 0
M  V30 5757 N 538.028 1.39524 0.732853 0
M  V30 5758 C 538.96 1.34318 1.85718 0
M  V30 5759 C 539.973 0.251576 1.60844 0
M  V30 5760 O 541.162 0.510685 1.71039 0
M  V30 5761 C 538.262 1.06334 3.21786 0
M  V30 5762 C 537.435 2.26813 3.73998 0
M  V30 5763 C 536.494 1.95253 4.88634 0
M  V30 5764 O 535.52 2.67957 5.02183 0
M  V30 5765 N 536.722 0.919984 5.73164 0
M  V30 5766 H 539.487 2.3121 1.90688 0
M  V30 5767 H 537.048 1.33654 0.91368 0
M  V30 5768 H 539.04 0.832363 3.96048 0
M  V30 5769 H 537.61 0.181682 3.12072 0
M  V30 5770 H 536.83 2.65849 2.91064 0
M  V30 5771 H 538.118 3.0717 4.05616 0
M  V30 5772 H 537.516 0.317487 5.64808 0
M  V30 5773 H 536.073 0.748905 6.47483 0
M  V30 5774 N 539.506 -0.963266 1.24736 0
M  V30 5775 C 540.783 -1.68248 0.9976 0
M  V30 5776 C 541.163 -2.05599 -0.478776 0
M  V30 5777 O 540.511 -1.7626 -1.45412 0
M  V30 5778 C 540.721 -2.91118 1.92487 0
M  V30 5779 C 542.069 -3.63261 2.19833 0
M  V30 5780 O 543.093 -3.01184 1.90176 0
M  V30 5781 O 541.952 -4.75019 2.7022 0
M  V30 5782 H 539.046 -0.735744 0.377637 0
M  V30 5783 H 541.592 -1.01696 1.35853 0
M  V30 5784 H 540.364 -2.60242 2.92215 0
M  V30 5785 H 539.987 -3.65402 1.56738 0
M  V30 5786 N 540.985 -1.06182 -1.16461 0
M  V30 5787 C 541.948 -0.675723 -2.19013 0
M  V30 5788 C 542.948 0.277963 -1.58379 0
M  V30 5789 O 544.138 0.0604962 -1.74095 0
M  V30 5790 C 541.27 0.00591459 -3.40899 0
M  V30 5791 H 542.463 -1.58353 -2.54685 0
M  V30 5792 H 540.016 -0.856908 -1.30716 0
M  V30 5793 H 540.751 0.92652 -3.10783 0
M  V30 5794 H 540.536 -0.67984 -3.86161 0
M  V30 5795 H 542.026 0.26181 -4.16778 0
M  V30 5796 N 542.463 1.3308 -0.844243 0
M  V30 5797 C 543.393 2.3161 -0.296493 0
M  V30 5798 C 544.374 1.59215 0.598707 0
M  V30 5799 O 545.559 1.87077 0.521134 0
M  V30 5800 C 542.689 3.43313 0.524762 0
M  V30 5801 C 541.643 4.27115 -0.275106 0
M  V30 5802 C 540.969 5.30483 0.670236 0
M  V30 5803 C 542.269 5.00443 -1.49514 0
M  V30 5804 H 543.963 2.77672 -1.11976 0
M  V30 5805 H 541.509 1.33496 -0.539899 0
M  V30 5806 H 543.462 4.11273 0.918298 0
M  V30 5807 H 542.186 2.95952 1.3813 0
M  V30 5808 H 540.845 3.60787 -0.650267 0
M  V30 5809 H 540.493 4.79379 1.52332 0
M  V30 5810 H 540.193 5.87435 0.139123 0
M  V30 5811 H 541.717 6.01308 1.06117 0
M  V30 5812 H 543.131 5.61141 -1.17447 0
M  V30 5813 H 541.528 5.67071 -1.96343 0
M  V30 5814 H 542.598 4.28906 -2.26202 0
M  V30 5815 N 543.941 0.601185 1.45683 0
M  V30 5816 C 544.871 -0.108824 2.33246 0
M  V30 5817 C 545.852 -0.865223 1.46451 0
M  V30 5818 O 547.037 -0.83704 1.75235 0
M  V30 5819 C 544.167 -1.11101 3.2905 0
M  V30 5820 C 543.121 -0.468244 4.25431 0
M  V30 5821 C 542.447 -1.57822 5.10878 0
M  V30 5822 C 543.747 0.606469 5.18767 0
M  V30 5823 H 545.441 0.622306 2.92861 0
M  V30 5824 H 542.987 0.300714 1.40825 0
M  V30 5825 H 544.94 -1.61622 3.89174 0
M  V30 5826 H 543.664 -1.87265 2.67581 0
M  V30 5827 H 542.323 0.0160484 3.66596 0
M  V30 5828 H 541.971 -2.32998 4.45781 0
M  V30 5829 H 541.671 -1.15369 5.76163 0
M  V30 5830 H 543.195 -2.08583 5.73869 0
M  V30 5831 H 544.609 0.185589 5.73 0
M  V30 5832 H 543.006 0.952381 5.92494 0
M  V30 5833 H 544.076 1.48559 4.61582 0
M  V30 5834 N 545.419 -1.53889 0.339982 0
M  V30 5835 C 546.83 -1.86139 -0.144671 0
M  V30 5836 C 547.181 -1.2613 -1.50285 0
M  V30 5837 O 546.306 -0.573515 -2.08662 0
M  V30 5838 C 546.901 -3.37728 -0.269285 0
M  V30 5839 C 545.46 -3.69868 -0.698168 0
M  V30 5840 C 544.607 -2.76777 0.170249 0
M  V30 5841 H 547.558 -1.48503 0.559704 0
M  V30 5842 H 547.579 -3.64331 -1.0974 0
M  V30 5843 H 547.091 -3.81375 0.719366 0
M  V30 5844 H 545.192 -3.31764 -1.69597 0
M  V30 5845 H 545.305 -4.76582 -0.490533 0
M  V30 5846 H 543.669 -2.52188 -0.356844 0
M  V30 5847 H 544.452 -3.23253 1.15597 0
M  V30 5848 N 546.897 -0.0685191 -1.57451 0
M  V30 5849 C 547.845 0.917577 -2.13736 0
M  V30 5850 C 548.839 1.31049 -1.07344 0
M  V30 5851 O 550.045 1.28811 -1.25728 0
M  V30 5852 H 546.42 0.313835 -0.683382 0
M  V30 5853 H 548.391 0.417903 -2.95459 0
M  V30 5854 C 547.14 2.17686 -2.71123 0
M  V30 5855 H 546.463 1.88336 -3.52661 0
M  V30 5856 H 547.903 2.84803 -3.14107 0
M  V30 5857 C 546.362 2.9332 -1.65726 0
M  V30 5858 O 546.892 3.86901 -1.08031 0
M  V30 5859 N 545.098 2.56367 -1.36837 0
M  V30 5860 H 544.645 1.80341 -1.83943 0
M  V30 5861 H 544.603 3.07276 -0.665501 0
M  V30 5862 N 548.375 1.56261 0.205012 0
M  V30 5863 C 549.621 1.80306 0.9283 0
M  V30 5864 C 549.954 0.640932 1.83319 0
M  V30 5865 O 549.229 -0.359032 1.91158 0
M  V30 5866 C 549.512 3.14547 1.75306 0
M  V30 5867 C 549.365 4.41236 0.873562 0
M  V30 5868 C 550.684 3.45382 2.72762 0
M  V30 5869 H 547.803 0.655929 0.336044 0
M  V30 5870 H 550.445 1.88984 0.196211 0
M  V30 5871 H 548.595 3.0728 2.37721 0
M  V30 5872 H 550.267 4.60539 0.264887 0
M  V30 5873 H 548.51 4.33427 0.179773 0
M  V30 5874 H 549.181 5.31639 1.48541 0
M  V30 5875 H 551.657 3.52884 2.20481 0
M  V30 5876 H 550.533 4.40449 3.2756 0
M  V30 5877 H 550.794 2.68377 3.51321 0
M  V30 5878 N 549.853 -0.472356 1.50355 0
M  V30 5879 C 551.081 -1.24784 1.65035 0
M  V30 5880 C 551.496 -1.85837 0.333176 0
M  V30 5881 O 550.853 -1.69168 -0.68472 0
M  V30 5882 C 550.904 -2.35747 2.74054 0
M  V30 5883 O 550.625 -1.77197 4.00665 0
M  V30 5884 C 552.126 -3.26645 2.99696 0
M  V30 5885 H 549.346 -0.377432 0.554785 0
M  V30 5886 H 551.89 -0.563962 1.9657 0
M  V30 5887 H 550.045 -2.99912 2.45217 0
M  V30 5888 H 550.459 -2.5026 4.60945 0
M  V30 5889 H 551.933 -4.00718 3.79644 0
M  V30 5890 H 552.41 -3.8535 2.10718 0
M  V30 5891 H 553.016 -2.68218 3.3006 0
M  V30 5892 N 551.331 -1.39911 -0.725443 0
M  V30 5893 C 552.559 -1.40949 -1.51463 0
M  V30 5894 C 552.974 -0.0065242 -1.88799 0
M  V30 5895 O 552.331 0.967163 -1.54765 0
M  V30 5896 C 552.382 -2.29119 -2.79619 0
M  V30 5897 O 552.103 -3.63952 -2.43866 0
M  V30 5898 C 553.604 -2.38642 -3.73584 0
M  V30 5899 H 550.824 -0.481091 -0.467752 0
M  V30 5900 H 553.368 -1.83843 -0.895651 0
M  V30 5901 H 551.523 -1.89612 -3.37826 0
M  V30 5902 H 551.937 -4.10677 -3.26258 0
M  V30 5903 H 553.411 -3.04563 -4.60375 0
M  V30 5904 H 553.888 -1.40846 -4.16004 0
M  V30 5905 H 554.494 -2.78659 -3.21293 0
M  V30 5906 N 552.809 0.956637 -1.25245 0
M  V30 5907 C 553.719 2.0868 -1.0719 0
M  V30 5908 C 554.735 1.73997 -0.00959074 0
M  V30 5909 O 555.911 2.00301 -0.210104 0
M  V30 5910 C 552.976 3.39754 -0.690526 0
M  V30 5911 C 552.037 3.88316 -1.83055 0
M  V30 5912 C 551.27 5.13134 -1.46728 0
M  V30 5913 O 551.493 5.6925 -0.362029 0
M  V30 5914 O 550.427 5.56356 -2.29677 0
M  V30 5915 H 554.253 2.26813 -2.01965 0
M  V30 5916 H 551.838 1.07098 -1.04165 0
M  V30 5917 H 553.72 4.18543 -0.489871 0
M  V30 5918 H 552.395 3.22896 0.227981 0
M  V30 5919 H 551.302 3.1054 -2.08604 0
M  V30 5920 H 552.635 4.09669 -2.72822 0
M  V30 5921 N 554.287 1.06798 1.15896 0
M  V30 5922 C 555.703 0.792423 1.38538 0
M  V30 5923 C 555.903 -0.60592 1.92174 0
M  V30 5924 O 554.959 -1.36561 2.12385 0
M  V30 5925 C 556.272 1.86157 2.36149 0
M  V30 5926 C 557.82 1.88567 2.49823 0
M  V30 5927 C 558.295 2.9455 3.5072 0
M  V30 5928 N 559.786 2.93616 3.58251 0
M  V30 5929 C 560.521 3.72267 4.36125 0
M  V30 5930 N 560.017 4.60751 5.17379 0
M  V30 5931 N 561.81 3.60637 4.31158 0
M  V30 5932 H 553.961 1.96993 0.794198 0
M  V30 5933 H 556.224 0.853942 0.411688 0
M  V30 5934 H 555.93 2.86603 2.03843 0
M  V30 5935 H 555.804 1.71692 3.3586 0
M  V30 5936 H 558.191 0.887765 2.8143 0
M  V30 5937 H 558.272 2.0711 1.5013 0
M  V30 5938 H 557.916 3.94537 3.19849 0
M  V30 5939 H 557.846 2.73255 4.50155 0
M  V30 5940 H 560.337 2.29472 3.00252 0
M  V30 5941 H 560.65 5.17408 5.74028 0
M  V30 5942 H 558.995 4.64803 5.16704 0
M  V30 5943 H 562.186 2.90892 3.66742 0
M  V30 5944 H 562.359 4.22176 4.91601 0
M  V30 5945 N 555.766 -1.3263 0.851289 0
M  V30 5946 C 556.996 -2.01271 0.466222 0
M  V30 5947 C 557.404 -1.64156 -0.940714 0
M  V30 5948 O 556.747 -0.857109 -1.62479 0
M  V30 5949 C 556.809 -3.55695 0.521672 0
M  V30 5950 C 556.473 -4.16227 1.88691 0
M  V30 5951 C 557.47 -4.34699 2.85189 0
M  V30 5952 C 555.155 -4.52377 2.18313 0
M  V30 5953 C 557.149 -4.88484 4.09465 0
M  V30 5954 C 554.836 -5.05868 3.42843 0
M  V30 5955 C 555.834 -5.23869 4.38235 0
M  V30 5956 O 555.522 -5.76218 5.6056 0
M  V30 5957 H 555.254 -0.651034 0.18202 0
M  V30 5958 H 557.808 -1.7026 1.14894 0
M  V30 5959 H 556.038 -3.86086 -0.217888 0
M  V30 5960 H 557.727 -4.05613 0.152682 0
M  V30 5961 H 558.493 -4.07107 2.63607 0
M  V30 5962 H 554.372 -4.37652 1.44851 0
M  V30 5963 H 557.916 -5.02451 4.83931 0
M  V30 5964 H 553.813 -5.32891 3.64277 0
M  V30 5965 H 554.581 -5.94616 5.62471 0
M  V30 5966 N 557.244 -0.608902 -1.45362 0
M  V30 5967 C 558.176 0.147318 -2.28726 0
M  V30 5968 C 559.189 0.830468 -1.40025 0
M  V30 5969 O 560.378 0.695636 -1.64387 0
M  V30 5970 C 557.478 1.22968 -3.15804 0
M  V30 5971 C 556.651 0.633391 -4.3279 0
M  V30 5972 C 555.71 1.60682 -5.01067 0
M  V30 5973 O 554.736 1.13261 -5.57818 0
M  V30 5974 N 555.938 2.94123 -5.00472 0
M  V30 5975 H 558.703 -0.568014 -2.94268 0
M  V30 5976 H 556.264 -0.448479 -1.55564 0
M  V30 5977 H 558.256 1.88072 -3.58345 0
M  V30 5978 H 556.826 1.84752 -2.52162 0
M  V30 5979 H 556.046 -0.195762 -3.93714 0
M  V30 5980 H 557.334 0.215255 -5.08344 0
M  V30 5981 H 556.732 3.3525 -4.55657 0
M  V30 5982 H 555.289 3.54646 -5.46872 0
M  V30 5983 N 558.722 1.53707 -0.348139 0
M  V30 5984 C 559.95 2.05406 0.248224 0
M  V30 5985 C 560.365 1.22282 1.43849 0
M  V30 5986 O 559.722 0.259244 1.80649 0
M  V30 5987 C 559.773 3.55446 0.658793 0
M  V30 5988 O 559.494 4.35417 -0.484149 0
M  V30 5989 C 560.995 4.23335 1.31539 0
M  V30 5990 H 558.215 0.669344 0.0471075 0
M  V30 5991 H 560.759 1.98257 -0.501456 0
M  V30 5992 H 558.914 3.62803 1.35841 0
M  V30 5993 H 559.328 5.24268 -0.155949 0
M  V30 5994 H 560.802 5.29692 1.55338 0
M  V30 5995 H 561.279 3.75967 2.27036 0
M  V30 5996 H 561.885 4.20184 0.657683 0
M  V30 5997 N 560.2 0.0768682 1.57412 0
M  V30 5998 C 561.13 -0.886026 2.16037 0
M  V30 5999 C 562.111 -1.30691 1.08876 0
M  V30 6000 O 563.296 -1.37705 1.36934 0
M  V30 6001 C 560.426 -2.1518 2.72608 0
M  V30 6002 C 559.38 -1.87015 3.8498 0
M  V30 6003 C 558.706 -3.20266 4.28175 0
M  V30 6004 C 560.006 -1.17143 5.08994 0
M  V30 6005 H 561.7 -0.397642 2.96748 0
M  V30 6006 H 559.246 -0.189823 1.42743 0
M  V30 6007 H 561.199 -2.82962 3.12266 0
M  V30 6008 H 559.923 -2.66269 1.89125 0
M  V30 6009 H 558.582 -1.21636 3.45833 0
M  V30 6010 H 558.23 -3.69207 3.41607 0
M  V30 6011 H 557.93 -3.0221 5.03927 0
M  V30 6012 H 559.454 -3.89237 4.70454 0
M  V30 6013 H 560.868 -1.75003 5.45937 0
M  V30 6014 H 559.265 -1.09328 5.90057 0
M  V30 6015 H 560.335 -0.151295 4.84664 0
M  V30 6016 N 561.678 -1.56367 -0.196722 0
M  V30 6017 C 562.925 -1.80529 -0.917366 0
M  V30 6018 C 563.253 -0.649817 -1.83324 0
M  V30 6019 O 562.508 0.36451 -1.92275 0
M  V30 6020 C 562.807 -3.10663 -1.767 0
M  V30 6021 C 562.473 -4.3962 -1.00225 0
M  V30 6022 C 561.135 -4.74653 -0.791095 0
M  V30 6023 C 563.487 -5.1913 -0.464035 0
M  V30 6024 C 560.815 -5.86692 -0.0302155 0
M  V30 6025 C 563.167 -6.31964 0.283625 0
M  V30 6026 C 561.831 -6.65581 0.505813 0
M  V30 6027 H 561.101 -0.660602 -0.335688 0
M  V30 6028 H 563.748 -1.90615 -0.183844 0
M  V30 6029 H 562.053 -2.95807 -2.56915 0
M  V30 6030 H 563.75 -3.26563 -2.32718 0
M  V30 6031 H 560.34 -4.12127 -1.17684 0
M  V30 6032 H 564.524 -4.9248 -0.614575 0
M  V30 6033 H 559.78 -6.11211 0.151917 0
M  V30 6034 H 563.954 -6.92791 0.708057 0
M  V30 6035 H 561.581 -7.52239 1.0973 0
M  V30 6036 N 563.156 0.464375 -1.50603 0
M  V30 6037 C 564.572 0.798684 -1.38178 0
M  V30 6038 C 564.772 1.96568 -0.44308 0
M  V30 6039 O 563.828 2.52252 0.111814 0
M  V30 6040 C 565.141 1.10444 -2.79683 0
M  V30 6041 C 566.689 1.2105 -2.88645 0
M  V30 6042 C 567.164 1.54934 -4.30998 0
M  V30 6043 N 568.655 1.61913 -4.3398 0
M  V30 6044 C 569.39 1.8965 -5.41129 0
M  V30 6045 N 568.886 2.15361 -6.58477 0
M  V30 6046 N 570.679 1.91207 -5.28579 0
M  V30 6047 H 562.83 -0.304603 -2.10204 0
M  V30 6048 H 565.093 -0.0737804 -0.945125 0
M  V30 6049 H 564.799 0.319934 -3.50242 0
M  V30 6050 H 564.673 2.03896 -3.17342 0
M  V30 6051 H 567.06 1.98567 -2.18301 0
M  V30 6052 H 567.141 0.255613 -2.5452 0
M  V30 6053 H 566.785 0.779549 -5.01882 0
M  V30 6054 H 566.715 2.51584 -4.62615 0
M  V30 6055 H 569.206 1.44055 -3.49366 0
M  V30 6056 H 569.519 2.35818 -7.35941 0
M  V30 6057 H 567.864 2.1274 -6.6164 0
M  V30 6058 H 571.055 1.70622 -4.35897 0
M  V30 6059 H 571.228 2.12488 -6.12171 0
M  V30 6060 N 564.634 1.40294 0.718013 0
M  V30 6061 C 565.911 1.2894 1.47084 0
M  V30 6062 C 566.291 -0.0933625 2.10893 0
M  V30 6063 O 565.639 -1.10598 1.99951 0
M  V30 6064 C 565.849 2.4264 2.50852 0
M  V30 6065 C 567.197 2.8276 3.16752 0
M  V30 6066 O 568.221 2.42215 2.61171 0
M  V30 6067 O 567.08 3.528 4.17366 0
M  V30 6068 H 564.174 0.506236 0.653952 0
M  V30 6069 H 566.72 1.52208 0.750394 0
M  V30 6070 H 565.492 3.35009 2.022 0
M  V30 6071 H 565.115 2.21129 3.30435 0
M  V30 6072 N 566.112 -0.949982 1.2575 0
M  V30 6073 C 567.045 -2.047 1.00862 0
M  V30 6074 C 568.023 -1.62475 -0.0636982 0
M  V30 6075 O 569.207 -1.88343 0.0769153 0
M  V30 6076 C 566.334 -3.34597 0.525613 0
M  V30 6077 C 565.38 -3.95788 1.58916 0
M  V30 6078 S 566.213 -4.31175 3.17567 0
M  V30 6079 C 567.369 -5.64183 2.71013 0
M  V30 6080 H 567.602 -2.25497 1.93749 0
M  V30 6081 H 565.135 -1.09022 1.09332 0
M  V30 6082 H 567.093 -4.09716 0.25359 0
M  V30 6083 H 565.754 -3.11758 -0.382828 0
M  V30 6084 H 564.947 -4.89457 1.20201 0
M  V30 6085 H 564.549 -3.27168 1.81211 0
M  V30 6086 H 566.841 -6.42504 2.14928 0
M  V30 6087 H 567.784 -6.07774 3.6334 0
M  V30 6088 H 568.192 -5.2364 2.1086 0
M  V30 6089 N 567.59 -1.07411 -1.15328 0
M  V30 6090 C 568.537 -0.694995 -2.20087 0
M  V30 6091 C 569.507 0.313904 -1.63107 0
M  V30 6092 O 570.692 0.200216 -1.89747 0
M  V30 6093 C 567.832 -0.0996218 -3.44956 0
M  V30 6094 C 566.945 -1.16007 -4.16133 0
M  V30 6095 C 566.08 -0.529636 -5.28553 0
M  V30 6096 C 565.119 -1.57283 -5.91548 0
M  V30 6097 N 564.256 -0.964932 -6.95438 0
M  V30 6098 H 569.096 -1.5927 -2.51867 0
M  V30 6099 H 566.633 -0.796115 -1.23695 0
M  V30 6100 H 568.591 0.263197 -4.16369 0
M  V30 6101 H 567.221 0.761435 -3.13691 0
M  V30 6102 H 566.273 -1.64045 -3.4321 0
M  V30 6103 H 567.585 -1.95101 -4.59061 0
M  V30 6104 H 566.739 -0.114487 -6.06592 0
M  V30 6105 H 565.478 0.29307 -4.86819 0
M  V30 6106 H 564.483 -1.99775 -5.12221 0
M  V30 6107 H 565.708 -2.39783 -6.35359 0
M  V30 6108 H 563.654 -0.16314 -6.55797 0
M  V30 6109 H 563.571 -1.69311 -7.36797 0
M  V30 6110 H 564.839 -0.575305 -7.77374 0
M  V30 6111 N 569.068 1.32177 -0.85831 0
M  V30 6112 C 569.978 2.32561 -0.308606 0
M  V30 6113 C 570.994 1.64209 0.575462 0
M  V30 6114 O 572.17 1.95719 0.474961 0
M  V30 6115 C 569.235 3.43207 0.490909 0
M  V30 6116 C 568.296 4.27243 -0.419733 0
M  V30 6117 C 567.529 5.32605 0.341719 0
M  V30 6118 O 567.752 5.48332 1.57125 0
M  V30 6119 O 566.686 6.0118 -0.294379 0
M  V30 6120 H 570.512 2.81477 -1.14037 0
M  V30 6121 H 568.097 1.35866 -0.621349 0
M  V30 6122 H 569.979 4.10677 0.944574 0
M  V30 6123 H 568.654 2.96474 1.29941 0
M  V30 6124 H 567.561 3.62569 -0.921652 0
M  V30 6125 H 568.894 4.7751 -1.19352 0
M  V30 6126 N 570.547 0.616602 1.45037 0
M  V30 6127 C 571.51 -0.0871112 2.29034 0
M  V30 6128 C 572.51 -0.786414 1.40258 0
M  V30 6129 O 573.7 -0.633207 1.62284 0
M  V30 6130 C 570.832 -1.13369 3.21497 0
M  V30 6131 H 572.025 0.651497 2.92738 0
M  V30 6132 H 569.578 0.376058 1.51709 0
M  V30 6133 H 570.313 -1.90277 2.62612 0
M  V30 6134 H 570.098 -0.636358 3.86902 0
M  V30 6135 H 571.588 -1.62627 3.84633 0
M  V30 6136 N 572.025 -1.5352 0.356285 0
M  V30 6137 C 572.973 -2.26945 -0.50978 0
M  V30 6138 C 573.967 -1.29569 -1.09125 0
M  V30 6139 O 575.173 -1.47231 -1.03552 0
M  V30 6140 H 571.548 -0.729368 -0.183102 0
M  V30 6141 H 573.519 -2.98111 0.131374 0
M  V30 6142 C 572.268 -3.06466 -1.64237 0
M  V30 6143 H 571.591 -3.81233 -1.20423 0
M  V30 6144 H 573.031 -3.61035 -2.22327 0
M  V30 6145 C 571.49 -2.16737 -2.57928 0
M  V30 6146 O 572.02 -1.77195 -3.60507 0
M  V30 6147 N 570.226 -1.81558 -2.26903 0
M  V30 6148 H 569.773 -2.13913 -1.43524 0
M  V30 6149 H 569.731 -1.21806 -2.89846 0
M  V30 6150 N 573.503 -0.0852151 -1.57369 0
M  V30 6151 C 574.436 0.913608 -2.09113 0
M  V30 6152 C 575.414 1.28264 -0.999358 0
M  V30 6153 O 576.598 1.3896 -1.27367 0
M  V30 6154 C 573.725 2.21777 -2.55993 0
M  V30 6155 C 572.771 1.99932 -3.76735 0
M  V30 6156 S 573.604 1.24637 -5.20794 0
M  V30 6157 C 574.76 2.56304 -5.71016 0
M  V30 6158 H 574.993 0.473369 -2.93507 0
M  V30 6159 H 572.526 0.127856 -1.5387 0
M  V30 6160 H 574.484 2.96726 -2.83662 0
M  V30 6161 H 573.145 2.62923 -1.71843 0
M  V30 6162 H 572.338 2.96482 -4.07571 0
M  V30 6163 H 571.94 1.33116 -3.49509 0
M  V30 6164 H 574.232 3.5233 -5.78679 0
M  V30 6165 H 575.175 2.3006 -6.69685 0
M  V30 6166 H 575.583 2.64125 -4.98897 0
M  V30 6167 N 574.981 1.5647 0.188427 0
M  V30 6168 C 575.929 1.95971 1.25293 0
M  V30 6169 C 576.923 0.846047 1.4676 0
M  V30 6170 O 578.129 1.03109 1.47542 0
M  V30 6171 H 574.504 0.623253 0.420784 0
M  V30 6172 H 576.475 2.84731 0.892792 0
M  V30 6173 C 575.224 2.32116 2.58877 0
M  V30 6174 H 574.547 3.17341 2.43176 0
M  V30 6175 H 575.987 2.63613 3.3209 0
M  V30 6176 C 574.446 1.15823 3.16365 0
M  V30 6177 O 574.976 0.436785 3.99318 0
M  V30 6178 N 573.182 0.933278 2.75206 0
M  V30 6179 H 572.729 1.52169 2.07852 0
M  V30 6180 H 572.687 0.156976 3.14008 0
M  V30 6181 N 576.459 -0.456382 1.50847 0
M  V30 6182 C 577.392 -1.57177 1.65441 0
M  V30 6183 C 578.37 -1.54649 0.502224 0
M  V30 6184 O 579.554 -1.74057 0.723633 0
M  V30 6185 C 576.681 -2.95763 1.65052 0
M  V30 6186 C 575.727 -3.16389 2.86007 0
M  V30 6187 S 576.56 -2.94716 4.47105 0
M  V30 6188 C 577.716 -4.35617 4.49432 0
M  V30 6189 H 577.949 -1.44561 2.59787 0
M  V30 6190 H 575.482 -0.644758 1.40293 0
M  V30 6191 H 577.44 -3.75654 1.65512 0
M  V30 6192 H 576.101 -3.05756 0.719153 0
M  V30 6193 H 575.294 -4.17667 2.82081 0
M  V30 6194 H 574.896 -2.44293 2.8319 0
M  V30 6195 H 577.188 -5.28503 4.239 0
M  V30 6196 H 578.131 -4.44582 5.51137 0
M  V30 6197 H 578.539 -4.18382 3.78967 0
M  V30 6198 N 577.937 -1.40673 -0.710563 0
M  V30 6199 C 579.183 -1.39428 -1.47267 0
M  V30 6200 C 579.516 0.00182129 -1.942 0
M  V30 6201 O 578.791 0.971387 -1.68506 0
M  V30 6202 C 579.074 -2.38812 -2.6952 0
M  V30 6203 C 578.927 -3.87467 -2.28449 0
M  V30 6204 C 580.246 -2.3566 -3.71689 0
M  V30 6205 H 577.365 -0.507768 -0.534173 0
M  V30 6206 H 580.007 -1.71843 -0.810547 0
M  V30 6207 H 578.157 -2.113 -3.26013 0
M  V30 6208 H 579.829 -4.25825 -1.77399 0
M  V30 6209 H 578.072 -4.03058 -1.60395 0
M  V30 6210 H 578.743 -4.5253 -3.16103 0
M  V30 6211 H 581.219 -2.6004 -3.24836 0
M  V30 6212 H 580.095 -3.07237 -4.54859 0
M  V30 6213 H 580.356 -1.36996 -4.20339 0
M  V30 6214 N 579.415 0.9433 -1.26252 0
M  V30 6215 C 580.831 1.21644 -1.03319 0
M  V30 6216 C 581.031 2.0003 0.242983 0
M  V30 6217 O 580.087 2.33838 0.952688 0
M  V30 6218 C 581.4 1.97978 -2.2633 0
M  V30 6219 C 582.948 2.10978 -2.31209 0
M  V30 6220 C 583.423 2.90713 -3.53907 0
M  V30 6221 N 584.914 2.98287 -3.54371 0
M  V30 6222 C 585.649 3.60406 -4.45976 0
M  V30 6223 N 585.145 4.24043 -5.47868 0
M  V30 6224 N 586.938 3.57658 -4.33633 0
M  V30 6225 H 579.089 0.419221 -2.08222 0
M  V30 6226 H 581.352 0.247995 -0.914988 0
M  V30 6227 H 581.058 1.47788 -3.19142 0
M  V30 6228 H 580.932 2.9865 -2.30408 0
M  V30 6229 H 583.319 2.6036 -1.38913 0
M  V30 6230 H 583.4 1.09575 -2.31143 0
M  V30 6231 H 583.044 2.42018 -4.46531 0
M  V30 6232 H 582.974 3.92367 -3.5122 0
M  V30 6233 H 585.465 2.53044 -2.80673 0
M  V30 6234 H 585.778 4.69334 -6.13959 0
M  V30 6235 H 584.123 4.22637 -5.51728 0
M  V30 6236 H 587.314 3.07134 -3.53251 0
M  V30 6237 H 587.487 4.05782 -5.05218 0
M  V30 6238 N 580.893 1.08022 1.14757 0
M  V30 6239 C 582.142 0.802468 1.8505 0
M  V30 6240 C 582.455 -0.674061 1.83619 0
M  V30 6241 O 583.661 -1.06683 2.49662 0
M  V30 6242 C 582.117 1.38551 3.32162 0
M  V30 6243 C 581.725 2.89354 3.42021 0
M  V30 6244 C 583.469 1.18608 4.07594 0
M  V30 6245 C 581.376 3.40815 4.83321 0
M  V30 6246 H 580.306 0.296518 0.693248 0
M  V30 6247 H 582.957 1.30114 1.29393 0
M  V30 6248 H 581.339 0.814556 3.87532 0
M  V30 6249 H 582.513 3.52552 2.96722 0
M  V30 6250 H 580.828 3.08165 2.80041 0
M  V30 6251 H 583.425 1.54525 5.11885 0
M  V30 6252 H 583.768 0.125599 4.1611 0
M  V30 6253 H 584.301 1.72375 3.58513 0
M  V30 6254 H 581.04 4.46418 4.79991 0
M  V30 6255 H 580.56 2.82374 5.29174 0
M  V30 6256 H 582.239 3.37171 5.522 0
M  V30 6257 N 582.371 -1.3172 0.865308 0
M  V30 6258 C 583.617 -1.97559 0.483944 0
M  V30 6259 C 583.972 -1.67181 -0.95227 0
M  V30 6260 O 583.265 -0.955392 -1.66081 0
M  V30 6261 C 583.459 -3.5102 0.672283 0
M  V30 6262 C 583.288 -3.96312 2.12525 0
M  V30 6263 C 582.058 -4.22877 2.76591 0
M  V30 6264 C 584.256 -4.10596 3.09702 0
M  V30 6265 N 582.238 -4.5449 4.12689 0
M  V30 6266 C 583.609 -4.45867 4.30816 0
M  V30 6267 C 585.664 -3.92961 3.05755 0
M  V30 6268 C 584.367 -4.65344 5.48495 0
M  V30 6269 C 586.393 -4.13628 4.22688 0
M  V30 6270 C 585.755 -4.49227 5.42563 0
M  V30 6271 H 581.854 -0.74862 0.226035 0
M  V30 6272 H 584.438 -1.59336 1.11893 0
M  V30 6273 H 582.609 -3.88342 0.0669224 0
M  V30 6274 H 584.341 -4.03865 0.259765 0
M  V30 6275 H 581.096 -4.15343 2.27567 0
M  V30 6276 H 581.52 -4.74464 4.82921 0
M  V30 6277 H 586.162 -3.64531 2.14188 0
M  V30 6278 H 583.88 -4.92624 6.40584 0
M  V30 6279 H 587.466 -4.01474 4.21082 0
M  V30 6280 H 586.346 -4.64895 6.31539 0
M  V30 6281 N 583.85 -0.624285 -1.44708 0
M  V30 6282 C 585.098 -0.125802 -2.01708 0
M  V30 6283 C 585.418 1.2543 -1.49306 0
M  V30 6284 O 584.689 1.83198 -0.693924 0
M  V30 6285 H 583.269 -0.0435161 -0.745731 0
M  V30 6286 H 585.931 -0.809446 -1.77296 0
M  V30 6287 H 585.027 -0.0882734 -3.11975 0
M  V30 6288 N 585.328 1.53329 -0.364422 0
M  V30 6289 C 586.576 2.00842 0.225189 0
M  V30 6290 C 586.897 1.25345 1.49378 0
M  V30 6291 O 586.167 0.366396 1.92443 0
M  V30 6292 H 584.747 0.742009 0.0862027 0
M  V30 6293 H 587.409 1.8863 -0.490389 0
M  V30 6294 H 586.505 3.08795 0.452987 0
M  V30 6295 N 586.806 0.0935595 1.57322 0
M  V30 6296 C 588.054 -0.569383 1.93913 0
M  V30 6297 C 588.375 -1.68817 0.976009 0
M  V30 6298 O 587.645 -1.9588 0.0278099 0
M  V30 6299 H 586.225 -0.21332 0.715894 0
M  V30 6300 H 588.887 0.156531 1.9427 0
M  V30 6301 H 587.983 -0.980577 2.96296 0
M  V30 6302 N 588.284 -1.56567 -0.180126 0
M  V30 6303 C 589.512 -1.85618 -0.913972 0
M  V30 6304 C 589.927 -0.677892 -1.7621 0
M  V30 6305 O 589.284 0.353171 -1.7905 0
M  V30 6306 C 589.335 -3.13619 -1.79793 0
M  V30 6307 O 589.056 -4.26906 -0.98402 0
M  V30 6308 C 590.557 -3.55954 -2.64219 0
M  V30 6309 H 587.777 -0.616043 -0.265954 0
M  V30 6310 H 590.321 -2.03681 -0.182872 0
M  V30 6311 H 588.476 -2.97409 -2.48247 0
M  V30 6312 H 588.89 -4.9989 -1.58776 0
M  V30 6313 H 590.364 -4.48444 -3.21873 0
M  V30 6314 H 590.841 -2.79653 -3.38661 0
M  V30 6315 H 591.447 -3.74746 -2.01111 0
M  V30 6316 N 589.762 0.448376 -1.51087 0
M  V30 6317 C 590.992 1.21965 -1.66757 0
M  V30 6318 C 591.4 1.85748 -0.359753 0
M  V30 6319 O 590.743 1.71022 0.670604 0
M  V30 6320 C 590.805 2.35284 -2.71812 0
M  V30 6321 C 590.469 1.91957 -4.1473 0
M  V30 6322 C 591.466 1.42921 -4.9987 0
M  V30 6323 C 589.151 1.99985 -4.60772 0
M  V30 6324 C 591.145 1.02485 -6.29107 0
M  V30 6325 C 588.832 1.5916 -5.90009 0
M  V30 6326 C 589.83 1.10491 -6.74004 0
M  V30 6327 O 589.518 0.702413 -8.00825 0
M  V30 6328 H 589.25 0.374125 -0.563034 0
M  V30 6329 H 591.804 0.538927 -1.98204 0
M  V30 6330 H 590.034 3.06599 -2.35657 0
M  V30 6331 H 591.723 2.97184 -2.76472 0
M  V30 6332 H 592.489 1.36123 -4.65506 0
M  V30 6333 H 588.368 2.36814 -3.95525 0
M  V30 6334 H 591.912 0.644271 -6.94619 0
M  V30 6335 H 587.809 1.65626 -6.2389 0
M  V30 6336 H 588.577 0.829248 -8.14288 0
M  V30 6337 N 591.24 1.41047 0.703093 0
M  V30 6338 C 592.15 1.44645 1.84703 0
M  V30 6339 C 593.166 0.337778 1.7069 0
M  V30 6340 O 594.342 0.584327 1.92737 0
M  V30 6341 C 591.407 1.31928 3.20618 0
M  V30 6342 C 590.468 2.53047 3.46794 0
M  V30 6343 C 589.701 2.40927 4.76224 0
M  V30 6344 O 589.924 1.42978 5.5219 0
M  V30 6345 O 588.858 3.30543 5.03016 0
M  V30 6346 H 592.684 2.41139 1.84624 0
M  V30 6347 H 590.269 1.22504 0.855167 0
M  V30 6348 H 592.151 1.27092 4.01778 0
M  V30 6349 H 590.826 0.385469 3.21397 0
M  V30 6350 H 589.733 2.6346 2.65593 0
M  V30 6351 H 591.066 3.45231 3.50822 0
M  V30 6352 N 592.718 -0.936591 1.26751 0
M  V30 6353 C 593.666 -2.0573 1.08527 0
M  V30 6354 C 594.66 -1.69397 0.0108784 0
M  V30 6355 O 595.866 -1.79215 0.167915 0
M  V30 6356 H 592.241 -0.673691 0.334133 0
M  V30 6357 H 594.212 -2.1825 2.03493 0
M  V30 6358 C 592.961 -3.39738 0.739845 0
M  V30 6359 H 592.284 -3.68174 1.55845 0
M  V30 6360 H 593.724 -4.18955 0.652149 0
M  V30 6361 C 592.183 -3.32292 -0.555288 0
M  V30 6362 O 592.713 -3.68794 -1.59229 0
M  V30 6363 N 590.919 -2.85394 -0.54762 0
M  V30 6364 H 590.466 -2.55886 0.296667 0
M  V30 6365 H 590.424 -2.80795 -1.41427 0
M  V30 6366 N 594.196 -1.08629 -1.14182 0
M  V30 6367 C 595.144 -0.71284 -2.21408 0
M  V30 6368 C 596.138 0.282457 -1.67029 0
M  V30 6369 O 597.344 0.144783 -1.79417 0
M  V30 6370 H 593.719 -0.212497 -0.721352 0
M  V30 6371 H 595.69 -1.6265 -2.50175 0
M  V30 6372 C 594.439 -0.140704 -3.47415 0
M  V30 6373 H 593.762 -0.897739 -3.8959 0
M  V30 6374 H 595.202 0.0827677 -4.23919 0
M  V30 6375 C 593.661 1.122 -3.17668 0
M  V30 6376 O 594.191 2.20652 -3.35672 0
M  V30 6377 N 592.397 1.03328 -2.71609 0
M  V30 6378 H 591.944 0.150666 -2.57159 0
M  V30 6379 H 591.902 1.8789 -2.52081 0
M  V30 6380 N 595.674 1.31259 -0.872281 0
M  V30 6381 C 596.604 2.30929 -0.345554 0
M  V30 6382 C 597.585 1.60449 0.5648 0
M  V30 6383 O 598.77 1.8814 0.481335 0
M  V30 6384 C 595.9 3.44348 0.451823 0
M  V30 6385 C 594.854 4.26435 -0.365641 0
M  V30 6386 C 594.18 5.31785 0.557562 0
M  V30 6387 C 595.48 4.97159 -1.60095 0
M  V30 6388 H 597.174 2.75234 -1.17841 0
M  V30 6389 H 594.72 1.3232 -0.568094 0
M  V30 6390 H 596.673 4.13128 0.830854 0
M  V30 6391 H 595.397 2.98816 1.31821 0
M  V30 6392 H 594.056 3.59326 -0.726649 0
M  V30 6393 H 593.704 4.82502 1.4213 0
M  V30 6394 H 593.404 5.87598 0.0144878 0
M  V30 6395 H 594.928 6.03424 0.933387 0
M  V30 6396 H 596.342 5.58523 -1.29323 0
M  V30 6397 H 594.739 5.62779 -2.08327 0
M  V30 6398 H 595.809 4.24012 -2.35249 0
M  V30 6399 N 597.152 0.631951 1.44375 0
M  V30 6400 C 598.399 0.136767 2.02038 0
M  V30 6401 C 598.727 -1.24168 1.49709 0
M  V30 6402 O 597.982 -1.83809 0.671763 0
M  V30 6403 C 598.281 0.0735861 3.57324 0
M  V30 6404 C 597.947 1.39092 4.28911 0
M  V30 6405 C 596.609 1.75171 4.48184 0
M  V30 6406 C 598.961 2.26042 4.69632 0
M  V30 6407 C 596.289 2.97907 5.05439 0
M  V30 6408 C 598.641 3.4805 5.28246 0
M  V30 6409 C 597.305 3.84351 5.45738 0
M  V30 6410 H 596.575 0.0500466 0.739308 0
M  V30 6411 H 599.222 0.818429 1.7313 0
M  V30 6412 H 597.527 -0.691449 3.8565 0
M  V30 6413 H 599.224 -0.326091 3.99672 0
M  V30 6414 H 595.814 1.10015 4.1424 0
M  V30 6415 H 599.998 1.99463 4.54454 0
M  V30 6416 H 595.254 3.26108 5.17169 0
M  V30 6417 H 599.428 4.15658 5.5875 0
M  V30 6418 H 597.055 4.79538 5.8987 0
M  V30 6419 N 598.631 -1.53133 0.372548 0
M  V30 6420 C 599.861 -2.05476 -0.215202 0
M  V30 6421 C 600.269 -1.24534 -1.42436 0
M  V30 6422 O 599.612 -0.280771 -1.81542 0
M  V30 6423 C 599.674 -3.53276 -0.666068 0
M  V30 6424 C 599.338 -4.54998 0.427342 0
M  V30 6425 C 600.335 -5.03911 1.27944 0
M  V30 6426 C 598.02 -4.98828 0.589579 0
M  V30 6427 C 600.014 -5.95263 2.27905 0
M  V30 6428 C 597.701 -5.89984 1.59255 0
M  V30 6429 C 598.699 -6.38093 2.43571 0
M  V30 6430 O 598.387 -7.27451 3.42156 0
M  V30 6431 H 598.119 -0.67481 -0.040099 0
M  V30 6432 H 600.673 -1.98409 0.531312 0
M  V30 6433 H 598.903 -3.57904 -1.4643 0
M  V30 6434 H 600.592 -3.88442 -1.1776 0
M  V30 6435 H 601.358 -4.70792 1.16532 0
M  V30 6436 H 597.237 -4.60965 -0.0569456 0
M  V30 6437 H 600.781 -6.32736 2.93753 0
M  V30 6438 H 596.678 -6.22518 1.70711 0
M  V30 6439 H 597.446 -7.45467 3.37967 0
M  V30 6440 N 600.109 -0.101901 -1.5727 0
M  V30 6441 C 601.386 0.602832 -1.86079 0
M  V30 6442 C 601.766 1.85912 -1 0
M  V30 6443 O 601.114 2.28379 -0.0742488 0
M  V30 6444 C 601.324 0.911694 -3.36881 0
M  V30 6445 C 602.672 1.2722 -4.05093 0
M  V30 6446 O 603.696 1.0025 -3.41802 0
M  V30 6447 O 602.555 1.7776 -5.16782 0
M  V30 6448 H 599.649 0.302366 -0.769743 0
M  V30 6449 H 602.195 -0.135113 -1.69161 0
M  V30 6450 H 600.967 0.0207256 -3.91295 0
M  V30 6451 H 600.59 1.70538 -3.59169 0
M  V30 6452 N 601.587 1.56661 0.17182 0
M  V30 6453 C 602.517 1.99401 1.21498 0
M  V30 6454 C 603.498 0.869516 1.46197 0
M  V30 6455 O 604.683 1.13556 1.57539 0
M  V30 6456 C 601.813 2.35346 2.55401 0
M  V30 6457 C 600.767 3.5075 2.45272 0
M  V30 6458 C 600.093 3.72437 3.8366 0
M  V30 6459 C 601.393 4.84216 1.95787 0
M  V30 6460 H 603.087 2.86792 0.859699 0
M  V30 6461 H 600.633 1.37977 0.412103 0
M  V30 6462 H 602.586 2.63843 3.2858 0
M  V30 6463 H 601.31 1.44864 2.92715 0
M  V30 6464 H 599.969 3.2238 1.74547 0
M  V30 6465 H 599.617 2.79246 4.18367 0
M  V30 6466 H 599.317 4.50087 3.77751 0
M  V30 6467 H 600.841 4.03334 4.58426 0
M  V30 6468 H 602.255 5.11592 2.5874 0
M  V30 6469 H 600.652 5.65498 2.00827 0
M  V30 6470 H 601.722 4.76243 0.912159 0
M  V30 6471 N 603.065 -0.440357 1.51323 0
M  V30 6472 C 604.028 -1.51679 1.71832 0
M  V30 6473 C 605.028 -1.49648 0.588386 0
M  V30 6474 O 606.218 -1.51724 0.855891 0
M  V30 6475 C 603.35 -2.91228 1.77199 0
M  V30 6476 H 604.543 -1.34799 2.67898 0
M  V30 6477 H 602.096 -0.66883 1.41267 0
M  V30 6478 H 602.831 -3.13516 0.829363 0
M  V30 6479 H 602.616 -2.94107 2.59314 0
M  V30 6480 H 604.106 -3.69321 1.94915 0
M  V30 6481 N 604.543 -1.41418 -0.695603 0
M  V30 6482 C 605.82 -1.31264 -1.45014 0
M  V30 6483 C 606.2 0.0597994 -2.11015 0
M  V30 6484 O 605.548 1.07403 -2.01685 0
M  V30 6485 C 605.758 -2.466 -2.4696 0
M  V30 6486 C 607.106 -2.87763 -3.12214 0
M  V30 6487 O 608.13 -2.46339 -2.57285 0
M  V30 6488 O 606.989 -3.59395 -4.11701 0
M  V30 6489 H 604.083 -0.516576 -0.645816 0
M  V30 6490 H 606.629 -1.53382 -0.726084 0
M  V30 6491 H 605.401 -3.38183 -1.96845 0
M  V30 6492 H 605.024 -2.26358 -3.26876 0
M  V30 6493 N 606.021 0.929856 -1.27246 0
M  V30 6494 C 606.931 2.0636 -1.11592 0
M  V30 6495 C 607.947 1.73938 -0.046496 0
M  V30 6496 O 609.123 1.9981 -0.252544 0
M  V30 6497 C 606.188 3.38213 -0.762437 0
M  V30 6498 C 605.249 3.84346 -1.9125 0
M  V30 6499 C 604.482 5.09906 -1.57579 0
M  V30 6500 O 604.705 5.68354 -0.482694 0
M  V30 6501 O 603.639 5.51359 -2.41426 0
M  V30 6502 H 607.465 2.22478 -2.0673 0
M  V30 6503 H 605.05 1.04865 -1.06413 0
M  V30 6504 H 606.932 4.1741 -0.57854 0
M  V30 6505 H 605.607 3.23307 0.159439 0
M  V30 6506 H 604.514 3.06045 -2.15144 0
M  V30 6507 H 605.847 4.0379 -2.81451 0
M  V30 6508 N 607.499 1.09233 1.13605 0
M  V30 6509 C 608.447 0.724572 2.21027 0
M  V30 6510 C 609.441 -0.273595 1.67176 0
M  V30 6511 O 610.647 -0.135266 1.79491 0
M  V30 6512 H 607.022 0.216319 0.720215 0
M  V30 6513 H 608.993 1.63975 2.49309 0
M  V30 6514 C 607.742 0.159126 3.47336 0
M  V30 6515 H 607.065 0.918387 3.89109 0
M  V30 6516 H 608.505 -0.0602851 4.23957 0
M  V30 6517 C 606.964 -1.10514 3.18258 0
M  V30 6518 O 607.494 -2.18869 3.36837 0
M  V30 6519 N 605.7 -1.01886 2.72154 0
M  V30 6520 H 605.247 -0.137027 2.57235 0
M  V30 6521 H 605.205 -1.8655 2.53074 0
M  V30 6522 N 608.977 -1.30795 0.87923 0
M  V30 6523 C 610.225 -1.95974 0.493809 0
M  V30 6524 C 610.546 -1.69787 -0.959021 0
M  V30 6525 O 609.816 -1.01832 -1.67353 0
M  V30 6526 H 608.396 -0.725083 0.179622 0
M  V30 6527 H 611.058 -1.59432 1.12105 0
M  V30 6528 H 610.154 -3.05058 0.659263 0
M  V30 6529 N 610.455 -0.639598 -1.44038 0
M  V30 6530 C 611.704 -0.144885 -2.01179 0
M  V30 6531 C 612.017 1.24372 -1.50967 0
M  V30 6532 O 613.223 1.83291 -2.00292 0
M  V30 6533 C 611.679 -0.208244 -3.59297 0
M  V30 6534 C 611.287 -1.59869 -4.18504 0
M  V30 6535 C 613.031 0.229568 -4.23879 0
M  V30 6536 C 610.938 -1.61671 -5.68873 0
M  V30 6537 H 609.868 -0.0504005 -0.752314 0
M  V30 6538 H 612.519 -0.799639 -1.65161 0
M  V30 6539 H 610.901 0.513767 -3.92653 0
M  V30 6540 H 612.075 -2.34496 -3.96671 0
M  V30 6541 H 610.39 -1.98131 -3.66242 0
M  V30 6542 H 612.987 0.235758 -5.3418 0
M  V30 6543 H 613.33 1.25848 -3.96822 0
M  V30 6544 H 613.863 -0.440233 -3.95357 0
M  V30 6545 H 610.602 -2.62427 -6.00677 0
M  V30 6546 H 610.122 -0.913489 -5.92803 0
M  V30 6547 H 611.801 -1.35439 -6.32665 0
M  V30 6548 N 611.933 1.52934 -0.380664 0
M  V30 6549 C 612.863 2.29118 0.450268 0
M  V30 6550 C 613.844 1.32153 1.07096 0
M  V30 6551 O 615.029 1.61038 1.08537 0
M  V30 6552 C 612.159 3.09161 1.58231 0
M  V30 6553 C 611.113 4.13938 1.0881 0
M  V30 6554 C 610.439 4.82153 2.31155 0
M  V30 6555 C 611.739 5.22048 0.162146 0
M  V30 6556 H 613.433 2.98826 -0.185361 0
M  V30 6557 H 610.979 1.43715 -0.0905886 0
M  V30 6558 H 612.932 3.61211 2.17036 0
M  V30 6559 H 611.656 2.3717 2.2454 0
M  V30 6560 H 610.315 3.62855 0.522633 0
M  V30 6561 H 609.963 4.06719 2.95953 0
M  V30 6562 H 609.663 5.52966 1.98752 0
M  V30 6563 H 611.187 5.37004 2.90618 0
M  V30 6564 H 612.601 5.6951 0.658126 0
M  V30 6565 H 610.998 6.00057 -0.0717122 0
M  V30 6566 H 612.068 4.78398 -0.791438 0
M  V30 6567 N 613.412 0.11024 1.57214 0
M  V30 6568 C 614.658 -0.550684 1.9518 0
M  V30 6569 C 614.991 -1.66885 0.993122 0
M  V30 6570 O 614.266 -1.94479 0.0287907 0
M  V30 6571 C 614.549 -1.09163 3.43155 0
M  V30 6572 C 614.402 0.0225198 4.49794 0
M  V30 6573 C 615.721 -1.98527 3.92778 0
M  V30 6574 H 612.84 -0.198706 0.709708 0
M  V30 6575 H 615.482 0.184024 1.89107 0
M  V30 6576 H 613.632 -1.71775 3.48462 0
M  V30 6577 H 615.304 0.657443 4.56591 0
M  V30 6578 H 613.547 0.686868 4.28328 0
M  V30 6579 H 614.218 -0.39706 5.5057 0
M  V30 6580 H 616.694 -1.458 3.8972 0
M  V30 6581 H 615.57 -2.33298 4.96853 0
M  V30 6582 H 615.831 -2.90846 3.32958 0
M  V30 6583 N 614.89 -1.56749 -0.16351 0
M  V30 6584 C 616.136 -1.83597 -0.875436 0
M  V30 6585 C 616.491 -0.691907 -1.79528 0
M  V30 6586 O 615.784 0.311193 -1.89056 0
M  V30 6587 C 615.978 -3.14342 -1.70071 0
M  V30 6588 C 615.807 -4.41356 -0.862265 0
M  V30 6589 C 614.577 -5.02467 -0.534299 0
M  V30 6590 C 616.775 -5.1391 -0.200203 0
M  V30 6591 N 614.757 -6.13068 0.31947 0
M  V30 6592 C 616.128 -6.17862 0.514398 0
M  V30 6593 C 618.183 -4.97757 -0.119171 0
M  V30 6594 C 616.886 -7.07412 1.30236 0
M  V30 6595 C 618.912 -5.87756 0.655477 0
M  V30 6596 C 618.274 -6.91178 1.35842 0
M  V30 6597 H 614.373 -0.722702 -0.298708 0
M  V30 6598 H 616.957 -1.94182 -0.141883 0
M  V30 6599 H 615.128 -3.04933 -2.40562 0
M  V30 6600 H 616.86 -3.29156 -2.35453 0
M  V30 6601 H 613.615 -4.65611 -0.866222 0
M  V30 6602 H 614.039 -6.72978 0.736893 0
M  V30 6603 H 618.681 -4.178 -0.648278 0
M  V30 6604 H 616.399 -7.86808 1.84278 0
M  V30 6605 H 619.985 -5.77328 0.719948 0
M  V30 6606 H 618.865 -7.59614 1.94822 0
M  V30 6607 N 616.368 0.432326 -1.51554 0
M  V30 6608 C 617.3 1.54357 -1.6943 0
M  V30 6609 C 618.313 1.52311 -0.574897 0
M  V30 6610 O 619.502 1.56997 -0.849369 0
M  V30 6611 C 616.602 2.93273 -1.69836 0
M  V30 6612 C 615.775 3.19768 -2.98442 0
M  V30 6613 C 614.834 4.38433 -2.90969 0
M  V30 6614 O 613.86 4.36842 -3.64908 0
M  V30 6615 N 615.062 5.42276 -2.07163 0
M  V30 6616 H 617.827 1.39426 -2.65293 0
M  V30 6617 H 615.388 0.621331 -1.49503 0
M  V30 6618 H 617.38 3.70687 -1.62399 0
M  V30 6619 H 615.95 3.01777 -0.815456 0
M  V30 6620 H 615.17 2.30607 -3.19709 0
M  V30 6621 H 616.458 3.343 -3.83563 0
M  V30 6622 H 615.856 5.46407 -1.46477 0
M  V30 6623 H 614.413 6.18524 -2.05601 0
M  V30 6624 N 617.846 1.41785 0.688094 0
M  V30 6625 C 619.123 1.32031 1.44316 0
M  V30 6626 C 619.503 -0.0486079 2.11044 0
M  V30 6627 O 618.851 -1.06332 2.02252 0
M  V30 6628 C 619.061 2.47906 2.45649 0
M  V30 6629 C 620.409 2.89415 3.10683 0
M  V30 6630 O 621.433 2.477 2.55975 0
M  V30 6631 O 620.292 3.61573 4.09789 0
M  V30 6632 H 617.386 0.519994 0.643067 0
M  V30 6633 H 619.932 1.53765 0.71794 0
M  V30 6634 H 618.704 3.39222 1.95048 0
M  V30 6635 H 618.327 2.28089 3.25671 0
M  V30 6636 N 619.324 -0.923095 1.27737 0
M  V30 6637 C 620.571 -1.67127 1.14345 0
M  V30 6638 C 620.899 -1.92017 -0.30982 0
M  V30 6639 O 620.154 -1.51185 -1.24264 0
M  V30 6640 C 620.453 -3.04125 1.8773 0
M  V30 6641 C 620.119 -2.98929 3.37568 0
M  V30 6642 C 618.781 -2.9722 3.78436 0
M  V30 6643 C 621.133 -2.89875 4.33154 0
M  V30 6644 C 618.461 -2.84244 5.13247 0
M  V30 6645 C 620.813 -2.7844 5.68026 0
M  V30 6646 C 619.477 -2.75083 6.08182 0
M  V30 6647 H 618.747 -0.611562 0.418417 0
M  V30 6648 H 621.394 -1.07618 1.584 0
M  V30 6649 H 619.699 -3.67366 1.36196 0
M  V30 6650 H 621.396 -3.609 1.74792 0
M  V30 6651 H 617.986 -3.0105 3.05069 0
M  V30 6652 H 622.17 -2.9029 4.02548 0
M  V30 6653 H 617.426 -2.80034 5.43499 0
M  V30 6654 H 621.6 -2.70401 6.4176 0
M  V30 6655 H 619.227 -2.64786 7.12596 0
M  V30 6656 N 620.802 -1.09834 -1.13024 0
M  V30 6657 C 621.735 -0.685453 -2.17662 0
M  V30 6658 C 622.713 0.310142 -1.59615 0
M  V30 6659 O 623.897 0.21052 -1.87321 0
M  V30 6660 C 621.024 -0.0104476 -3.38698 0
M  V30 6661 C 620.07 -0.968522 -4.15358 0
M  V30 6662 S 620.903 -2.48272 -4.74469 0
M  V30 6663 C 622.059 -1.82025 -5.98847 0
M  V30 6664 H 622.292 -1.57187 -2.52348 0
M  V30 6665 H 619.825 -0.914728 -1.24387 0
M  V30 6666 H 621.783 0.372694 -4.08805 0
M  V30 6667 H 620.444 0.852673 -3.02305 0
M  V30 6668 H 619.637 -0.443373 -5.02046 0
M  V30 6669 H 619.239 -1.29327 -3.50928 0
M  V30 6670 H 621.531 -1.14678 -6.67724 0
M  V30 6671 H 622.474 -2.66645 -6.55977 0
M  V30 6672 H 622.882 -1.2874 -5.49624 0
M  V30 6673 N 622.28 1.30327 -0.886154 0
M  V30 6674 C 623.527 1.96097 -0.505192 0
M  V30 6675 C 623.855 1.69952 0.945868 0
M  V30 6676 O 623.11 0.997653 1.68361 0
M  V30 6677 C 623.409 3.49906 -0.728042 0
M  V30 6678 C 623.075 3.96103 -2.15437 0
M  V30 6679 C 621.737 4.08428 -2.5444 0
M  V30 6680 C 624.089 4.20177 -3.08384 0
M  V30 6681 C 621.417 4.42189 -3.85598 0
M  V30 6682 C 623.769 4.55407 -4.39075 0
M  V30 6683 C 622.433 4.65941 -4.7797 0
M  V30 6684 H 621.703 0.71757 -0.184863 0
M  V30 6685 H 624.35 1.55171 -1.12223 0
M  V30 6686 H 622.655 3.9179 -0.027978 0
M  V30 6687 H 624.352 3.98869 -0.412862 0
M  V30 6688 H 620.942 3.87017 -1.84162 0
M  V30 6689 H 625.126 4.10134 -2.7947 0
M  V30 6690 H 620.382 4.48544 -4.15473 0
M  V30 6691 H 624.556 4.72986 -5.11133 0
M  V30 6692 H 622.183 4.91856 -5.79639 0
M  V30 6693 N 623.758 0.647228 1.43697 0
M  V30 6694 C 624.721 -0.0385101 2.29168 0
M  V30 6695 C 625.721 -0.756487 1.41894 0
M  V30 6696 O 626.911 -0.598641 1.63591 0
M  V30 6697 C 624.043 -1.06524 3.23829 0
M  V30 6698 H 625.236 0.713445 2.9129 0
M  V30 6699 H 622.789 0.408153 1.50877 0
M  V30 6700 H 623.524 -1.84664 2.66589 0
M  V30 6701 H 623.309 -0.554147 3.88164 0
M  V30 6702 H 624.799 -1.54432 3.87996 0
M  V30 6703 N 625.236 -1.5273 0.388769 0
M  V30 6704 C 626.476 -2.03483 -0.193372 0
M  V30 6705 C 626.84 -1.26897 -1.44087 0
M  V30 6706 O 628.041 -1.67773 -2.10014 0
M  V30 6707 C 626.312 -3.54488 -0.455325 0
M  V30 6708 S 627.871 -4.27069 -1.00783 0
M  V30 6709 H 624.689 -0.708907 -0.0545131 0
M  V30 6710 H 627.291 -1.8798 0.536993 0
M  V30 6711 H 625.995 -4.07817 0.459722 0
M  V30 6712 H 625.526 -3.74196 -1.21413 0
M  V30 6713 H 627.541 -4.40185 -2.29023 0
M  V30 6714 N 626.714 -0.118576 -1.57153 0
M  V30 6715 C 627.942 0.54726 -1.99531 0
M  V30 6716 C 628.357 1.60251 -0.998246 0
M  V30 6717 O 627.714 1.82498 0.00893106 0
M  V30 6718 C 627.765 1.17378 -3.41913 0
M  V30 6719 O 627.486 0.160703 -4.37805 0
M  V30 6720 C 628.987 1.92297 -3.9942 0
M  V30 6721 H 626.207 0.144919 -0.655164 0
M  V30 6722 H 628.751 -0.20479 -2.03472 0
M  V30 6723 H 626.906 1.87661 -3.38913 0
M  V30 6724 H 627.32 0.61586 -5.20872 0
M  V30 6725 H 628.794 2.31462 -5.01128 0
M  V30 6726 H 629.271 2.79801 -3.38538 0
M  V30 6727 H 629.877 1.26777 -4.05965 0
M  V30 6728 N 628.193 1.56834 0.155195 0
M  V30 6729 C 629.604 1.72421 0.716082 0
M  V30 6730 C 629.955 0.731685 1.82046 0
M  V30 6731 O 629.08 -0.103481 2.16152 0
M  V30 6732 C 629.675 3.12629 1.30571 0
M  V30 6733 C 628.234 3.29846 1.81325 0
M  V30 6734 C 627.381 2.68359 0.698494 0
M  V30 6735 H 630.332 1.58544 -0.0703861 0
M  V30 6736 H 630.353 3.12174 2.1755 0
M  V30 6737 H 629.865 3.84844 0.501701 0
M  V30 6738 H 627.966 2.62614 2.64319 0
M  V30 6739 H 628.079 4.37727 1.9476 0
M  V30 6740 H 626.443 2.28604 1.12305 0
M  V30 6741 H 627.226 3.43171 -0.0939366 0
M  V30 6742 N 629.671 -0.424282 1.51781 0
M  V30 6743 C 630.901 -1.19297 1.68677 0
M  V30 6744 C 631.309 -1.85152 0.389258 0
M  V30 6745 O 630.652 -1.72067 -0.643311 0
M  V30 6746 C 630.714 -2.30929 2.75521 0
M  V30 6747 C 630.378 -1.85335 4.17732 0
M  V30 6748 C 631.375 -1.34951 5.0208 0
M  V30 6749 C 629.06 -1.92629 4.63896 0
M  V30 6750 C 631.054 -0.924636 6.30658 0
M  V30 6751 C 628.741 -1.49754 5.92467 0
M  V30 6752 C 629.739 -0.997543 6.75676 0
M  V30 6753 O 629.427 -0.57492 8.01842 0
M  V30 6754 H 629.159 -0.36512 0.568914 0
M  V30 6755 H 631.713 -0.507327 1.99036 0
M  V30 6756 H 629.943 -3.02811 2.40505 0
M  V30 6757 H 631.632 -2.92748 2.81165 0
M  V30 6758 H 632.398 -1.287 4.67612 0
M  V30 6759 H 628.277 -2.30491 3.99243 0
M  V30 6760 H 631.821 -0.533682 6.95556 0
M  V30 6761 H 627.718 -1.55679 6.26446 0
M  V30 6762 H 628.486 -0.699597 8.15505 0
M  V30 6763 N 631.149 -1.42148 -0.680565 0
M  V30 6764 C 632.56 -1.3768 -1.26099 0
M  V30 6765 C 632.911 -0.0672348 -1.96085 0
M  V30 6766 O 632.036 0.834172 -1.99676 0
M  V30 6767 C 632.631 -2.49387 -2.29328 0
M  V30 6768 C 631.19 -2.4827 -2.82911 0
M  V30 6769 C 630.337 -2.2847 -1.57152 0
M  V30 6770 H 633.288 -1.51446 -0.474326 0
M  V30 6771 H 633.309 -2.19307 -3.10941 0
M  V30 6772 H 632.821 -3.44686 -1.78363 0
M  V30 6773 H 630.922 -1.56773 -3.38013 0
M  V30 6774 H 631.035 -3.45109 -3.3232 0
M  V30 6775 H 629.399 -1.76623 -1.83511 0
M  V30 6776 H 630.182 -3.25816 -1.0816 0
M  V30 6777 N 632.627 0.916307 -1.28225 0
M  V30 6778 C 633.852 1.7043 -1.18188 0
M  V30 6779 C 634.277 1.86346 0.256274 0
M  V30 6780 O 633.635 1.37175 1.18544 0
M  V30 6781 C 633.683 3.07546 -1.88275 0
M  V30 6782 O 632.787 3.94904 -1.18848 0
M  V30 6783 H 632.128 0.521967 -0.410423 0
M  V30 6784 H 634.658 1.14589 -1.69501 0
M  V30 6785 H 634.668 3.57793 -1.96082 0
M  V30 6786 H 633.343 2.95279 -2.92887 0
M  V30 6787 H 631.92 3.53339 -1.19187 0
M  V30 6788 N 634.105 1.10431 1.1244 0
M  V30 6789 C 635.382 0.758797 1.80282 0
M  V30 6790 C 635.762 -0.754727 1.97147 0
M  V30 6791 O 635.11 -1.68094 1.54779 0
M  V30 6792 C 635.32 1.50982 3.14651 0
M  V30 6793 C 636.668 1.68232 3.8985 0
M  V30 6794 O 637.692 1.47319 3.24308 0
M  V30 6795 O 636.551 2.02905 5.07437 0
M  V30 6796 H 633.645 0.273756 0.780376 0
M  V30 6797 H 636.191 1.20713 1.19275 0
M  V30 6798 H 634.963 2.53989 2.97666 0
M  V30 6799 H 634.586 1.05435 3.83366 0
M  V30 6800 N 635.583 -1.29855 0.893053 0
M  V30 6801 C 636.994 -1.77946 0.564998 0
M  V30 6802 C 637.345 -1.73339 -0.919134 0
M  V30 6803 O 636.47 -1.3152 -1.71847 0
M  V30 6804 C 637.065 -3.23118 1.01883 0
M  V30 6805 C 635.624 -3.69013 0.742051 0
M  V30 6806 C 634.771 -2.50121 1.19727 0
M  V30 6807 H 637.722 -1.16611 1.07646 0
M  V30 6808 H 637.743 -3.78875 0.351249 0
M  V30 6809 H 637.255 -3.26439 2.09903 0
M  V30 6810 H 635.356 -3.71173 -0.325816 0
M  V30 6811 H 635.469 -4.60117 1.33527 0
M  V30 6812 H 633.833 -2.47128 0.616418 0
M  V30 6813 H 634.616 -2.56174 2.28538 0
M  V30 6814 N 637.061 -0.65484 -1.43351 0
M  V30 6815 C 638.289 -0.176685 -2.06144 0
M  V30 6816 C 638.704 1.15831 -1.49093 0
M  V30 6817 O 638.061 1.71542 -0.622868 0
M  V30 6818 C 638.112 -0.0813326 -3.61408 0
M  V30 6819 O 637.833 -1.36355 -4.1634 0
M  V30 6820 C 639.334 0.422706 -4.4128 0
M  V30 6821 H 636.554 -0.0906429 -0.66485 0
M  V30 6822 H 639.098 -0.895945 -1.83829 0
M  V30 6823 H 637.253 0.588496 -3.82904 0
M  V30 6824 H 637.667 -1.22381 -5.10023 0
M  V30 6825 H 639.141 0.438375 -5.50257 0
M  V30 6826 H 639.618 1.45432 -4.14423 0
M  V30 6827 H 640.224 -0.214687 -4.24758 0
M  V30 6828 N 638.539 1.52521 -0.396863 0
M  V30 6829 C 639.786 2.01672 0.182898 0
M  V30 6830 C 640.114 1.28302 1.46181 0
M  V30 6831 O 639.369 0.374118 1.92091 0
M  V30 6832 C 639.668 3.5403 0.489677 0
M  V30 6833 C 639.334 4.45456 -0.698581 0
M  V30 6834 C 637.996 4.70166 -1.02454 0
M  V30 6835 C 640.348 4.99354 -1.49316 0
M  V30 6836 C 637.676 5.46024 -2.1465 0
M  V30 6837 C 640.028 5.76439 -2.60579 0
M  V30 6838 C 638.692 5.99426 -2.93675 0
M  V30 6839 H 637.962 0.737971 0.066927 0
M  V30 6840 H 640.609 1.83853 -0.535764 0
M  V30 6841 H 638.914 3.69963 1.28976 0
M  V30 6842 H 640.611 3.8956 0.951018 0
M  V30 6843 H 637.201 4.26392 -0.434525 0
M  V30 6844 H 641.385 4.80182 -1.25457 0
M  V30 6845 H 636.641 5.62046 -2.40654 0
M  V30 6846 H 640.815 6.17202 -3.22544 0
M  V30 6847 H 638.442 6.57988 -3.80731 0
M  V30 6848 N 640.017 0.126909 1.57088 0
M  V30 6849 C 640.947 -0.816847 2.18746 0
M  V30 6850 C 641.928 -1.27161 1.12979 0
M  V30 6851 O 643.113 -1.33279 1.41246 0
M  V30 6852 C 640.243 -2.06398 2.79315 0
M  V30 6853 C 639.197 -1.74673 3.90735 0
M  V30 6854 C 638.523 -3.06482 4.38147 0
M  V30 6855 C 639.823 -1.0089 5.12463 0
M  V30 6856 H 641.517 -0.303032 2.97863 0
M  V30 6857 H 639.063 -0.144314 1.43275 0
M  V30 6858 H 641.016 -2.72885 3.2111 0
M  V30 6859 H 639.74 -2.60118 1.975 0
M  V30 6860 H 638.399 -1.10572 3.49527 0
M  V30 6861 H 638.047 -3.58152 3.5318 0
M  V30 6862 H 637.747 -2.86025 5.13287 0
M  V30 6863 H 639.271 -3.74073 4.82599 0
M  V30 6864 H 640.685 -1.57546 5.51228 0
M  V30 6865 H 639.082 -0.905006 5.93237 0
M  V30 6866 H 640.152 0.00297335 4.849 0
M  V30 6867 N 641.495 -1.56914 -0.146875 0
M  V30 6868 C 642.442 -1.98275 -1.18134 0
M  V30 6869 C 643.412 -0.850367 -1.42681 0
M  V30 6870 O 644.597 -1.11244 -1.55014 0
M  V30 6871 C 641.737 -2.36861 -2.5098 0
M  V30 6872 C 640.85 -3.63391 -2.33605 0
M  V30 6873 C 639.985 -3.91079 -3.59486 0
M  V30 6874 C 639.024 -5.10879 -3.37149 0
M  V30 6875 N 638.161 -5.34577 -4.55161 0
M  V30 6876 H 643.001 -2.8645 -0.821622 0
M  V30 6877 H 640.538 -1.41718 -0.394248 0
M  V30 6878 H 642.496 -2.57262 -3.28439 0
M  V30 6879 H 641.126 -1.51766 -2.84898 0
M  V30 6880 H 640.178 -3.50766 -1.47199 0
M  V30 6881 H 641.49 -4.51007 -2.13059 0
M  V30 6882 H 640.644 -4.11979 -4.45374 0
M  V30 6883 H 639.383 -3.01885 -3.83036 0
M  V30 6884 H 638.388 -4.89853 -2.49649 0
M  V30 6885 H 639.613 -6.01626 -3.14997 0
M  V30 6886 H 637.559 -4.48337 -4.78884 0
M  V30 6887 H 637.476 -6.16463 -4.37618 0
M  V30 6888 H 638.744 -5.59975 -5.42263 0
M  V30 6889 N 642.974 0.416227 -1.52004 0
M  V30 6890 C 644.39 0.754319 -1.40649 0
M  V30 6891 C 644.59 1.95059 -0.505392 0
M  V30 6892 O 643.646 2.5248 0.0315057 0
M  V30 6893 C 644.959 1.0149 -2.83055 0
M  V30 6894 C 646.507 1.11805 -2.9235 0
M  V30 6895 C 646.982 1.41144 -4.35709 0
M  V30 6896 N 648.473 1.48024 -4.38911 0
M  V30 6897 C 649.208 1.72338 -5.46889 0
M  V30 6898 N 648.704 1.94303 -6.64995 0
M  V30 6899 N 650.497 1.74294 -5.34395 0
M  V30 6900 H 642.648 -0.371324 -2.09129 0
M  V30 6901 H 644.911 -0.103811 -0.942299 0
M  V30 6902 H 644.617 0.208345 -3.51082 0
M  V30 6903 H 644.491 1.93697 -3.23668 0
M  V30 6904 H 646.878 1.91521 -2.24508 0
M  V30 6905 H 646.959 0.17451 -2.55204 0
M  V30 6906 H 646.603 0.619484 -5.04108 0
M  V30 6907 H 646.533 2.36739 -4.70385 0
M  V30 6908 H 649.024 1.32868 -3.53772 0
M  V30 6909 H 649.337 2.12286 -7.43071 0
M  V30 6910 H 647.682 1.91582 -6.68073 0
M  V30 6911 H 650.873 1.56667 -4.41104 0
M  V30 6912 H 651.046 1.92904 -6.18621 0
M  V30 6913 N 644.452 1.42507 0.673017 0
M  V30 6914 C 645.698 1.43284 1.43519 0
M  V30 6915 C 646.031 0.049668 1.94136 0
M  V30 6916 O 645.306 -0.926369 1.71022 0
M  V30 6917 C 645.589 2.45874 2.63093 0
M  V30 6918 C 645.442 3.93388 2.18096 0
M  V30 6919 C 646.761 2.45431 3.6531 0
M  V30 6920 H 643.88 0.521752 0.520522 0
M  V30 6921 H 646.522 1.73932 0.764701 0
M  V30 6922 H 644.672 2.19869 3.20296 0
M  V30 6923 H 646.344 4.30379 1.66046 0
M  V30 6924 H 644.587 4.07169 1.49652 0
M  V30 6925 H 645.258 4.60752 3.03993 0
M  V30 6926 H 647.734 2.68561 3.17827 0
M  V30 6927 H 646.61 3.19189 4.46553 0
M  V30 6928 H 646.871 1.48092 4.16559 0
M  V30 6929 N 645.93 -0.909495 1.28709 0
M  V30 6930 C 646.84 -2.04558 1.14861 0
M  V30 6931 C 647.856 -1.73842 0.0741621 0
M  V30 6932 O 649.032 -1.99383 0.2843 0
M  V30 6933 C 646.097 -3.36957 0.816148 0
M  V30 6934 C 645.158 -3.81255 1.97341 0
M  V30 6935 C 644.391 -5.07335 1.65671 0
M  V30 6936 O 644.614 -5.67514 0.573053 0
M  V30 6937 O 643.548 -5.47449 2.50167 0
M  V30 6938 H 647.374 -2.19161 2.10243 0
M  V30 6939 H 644.959 -1.03159 1.08068 0
M  V30 6940 H 646.841 -4.16436 0.644873 0
M  V30 6941 H 645.516 -3.2352 -0.107983 0
M  V30 6942 H 644.423 -3.02584 2.19986 0
M  V30 6943 H 645.756 -3.99261 2.87839 0
M  V30 6944 N 647.408 -1.11026 -1.11852 0
M  V30 6945 C 648.371 -0.768006 -2.1595 0
M  V30 6946 C 649.371 0.210538 -1.59416 0
M  V30 6947 O 650.561 -0.0133978 -1.74195 0
M  V30 6948 C 647.693 -0.138678 -3.40618 0
M  V30 6949 H 648.886 -1.69012 -2.4774 0
M  V30 6950 H 646.439 -0.911578 -1.26964 0
M  V30 6951 H 647.174 0.793872 -3.14433 0
M  V30 6952 H 646.959 -0.843012 -3.8293 0
M  V30 6953 H 648.449 0.0848039 -4.17514 0
M  V30 6954 N 648.886 1.2938 -0.899927 0
M  V30 6955 C 649.796 2.31462 -0.382437 0
M  V30 6956 C 650.812 1.65956 0.522929 0
M  V30 6957 O 651.988 1.97131 0.412454 0
M  V30 6958 C 649.053 3.44595 0.381472 0
M  V30 6959 C 648.114 4.25692 -0.555444 0
M  V30 6960 C 647.347 5.33422 0.172102 0
M  V30 6961 O 647.57 5.53053 1.396 0
M  V30 6962 O 646.504 5.99939 -0.485491 0
M  V30 6963 H 650.33 2.77706 -1.22934 0
M  V30 6964 H 647.915 1.33821 -0.664259 0
M  V30 6965 H 649.797 4.13474 0.813442 0
M  V30 6966 H 648.472 3.00458 1.20443 0
M  V30 6967 H 647.379 3.59453 -1.03653 0
M  V30 6968 H 648.712 4.73471 -1.34483 0
M  V30 6969 N 650.364 0.662433 1.43002 0
M  V30 6970 C 651.327 -0.0142016 2.29196 0
M  V30 6971 C 652.327 -0.741394 1.42688 0
M  V30 6972 O 653.517 -0.581257 1.64216 0
M  V30 6973 C 650.649 -1.03084 3.24941 0
M  V30 6974 H 651.842 0.7443 2.90517 0
M  V30 6975 H 649.395 0.424133 1.50435 0
M  V30 6976 H 650.13 -1.81826 2.68533 0
M  V30 6977 H 649.915 -0.512946 3.8873 0
M  V30 6978 H 651.405 -1.50308 3.89612 0
M  V30 6979 N 651.842 -1.52309 0.404946 0
M  V30 6980 C 653.088 -2.02065 -0.172455 0
M  V30 6981 C 653.421 -1.29022 -1.45145 0
M  V30 6982 O 652.696 -0.395284 -1.90441 0
M  V30 6983 C 652.979 -3.5759 -0.424433 0
M  V30 6984 C 652.832 -4.41287 0.870945 0
M  V30 6985 C 654.151 -4.23186 -1.20837 0
M  V30 6986 H 651.27 -0.734454 -0.0612035 0
M  V30 6987 H 653.912 -1.82236 0.53759 0
M  V30 6988 H 652.062 -3.74617 -1.02929 0
M  V30 6989 H 653.734 -4.3598 1.50729 0
M  V30 6990 H 651.977 -4.07669 1.48284 0
M  V30 6991 H 652.648 -5.48171 0.649083 0
M  V30 6992 H 655.124 -4.10232 -0.696338 0
M  V30 6993 H 654 -5.31953 -1.35343 0
M  V30 6994 H 654.261 -3.81862 -2.22786 0
M  V30 6995 N 653.32 -0.135238 -1.57019 0
M  V30 6996 C 654.55 0.525303 -1.9981 0
M  V30 6997 C 654.958 1.59724 -1.01415 0
M  V30 6998 O 654.301 1.837 -0.00130938 0
M  V30 6999 C 654.363 1.19578 -3.3903 0
M  V30 7000 C 654.027 0.269855 -4.56203 0
M  V30 7001 C 655.024 -0.497905 -5.1751 0
M  V30 7002 C 652.709 0.176188 -5.01991 0
M  V30 7003 C 654.703 -1.3469 -6.23007 0
M  V30 7004 C 652.39 -0.676422 -6.07345 0
M  V30 7005 C 653.388 -1.43658 -6.67721 0
M  V30 7006 O 653.076 -2.27501 -7.71037 0
M  V30 7007 H 652.808 0.142296 -0.660854 0
M  V30 7008 H 655.362 -0.223272 -2.04183 0
M  V30 7009 H 653.592 1.99176 -3.3146 0
M  V30 7010 H 655.281 1.75486 -3.66005 0
M  V30 7011 H 656.047 -0.435507 -4.83041 0
M  V30 7012 H 651.926 0.757583 -4.54733 0
M  V30 7013 H 655.47 -1.9407 -6.70062 0
M  V30 7014 H 651.367 -0.740154 -6.41243 0
M  V30 7015 H 652.135 -2.20619 -7.88206 0
M  V30 7016 N 654.798 1.5699 0.138552 0
M  V30 7017 C 655.746 1.99858 1.18994 0
M  V30 7018 C 656.74 0.89231 1.43994 0
M  V30 7019 O 657.946 1.0775 1.44187 0
M  V30 7020 H 654.321 0.636325 0.400743 0
M  V30 7021 H 656.292 2.87427 0.801755 0
M  V30 7022 C 655.041 2.40235 2.51361 0
M  V30 7023 H 654.364 3.24917 2.32957 0
M  V30 7024 H 655.804 2.74045 3.23535 0
M  V30 7025 C 654.263 1.25829 3.1252 0
M  V30 7026 O 654.793 0.563604 3.97727 0
M  V30 7027 N 652.999 1.02036 2.72097 0
M  V30 7028 H 652.546 1.58705 2.02905 0
M  V30 7029 H 652.504 0.256796 3.1335 0
M  V30 7030 N 656.276 -0.40816 1.52223 0
M  V30 7031 C 657.525 -1.15212 1.65557 0
M  V30 7032 C 657.838 -1.9163 0.392096 0
M  V30 7033 O 659.044 -2.68458 0.405256 0
M  V30 7034 C 657.5 -2.09691 2.92502 0
M  V30 7035 C 657.108 -1.38785 4.25961 0
M  V30 7036 C 658.852 -2.8434 3.152 0
M  V30 7037 C 656.759 -2.31919 5.44029 0
M  V30 7038 H 655.689 -0.433776 0.616729 0
M  V30 7039 H 658.34 -0.4165 1.78711 0
M  V30 7040 H 656.722 -2.8681 2.7305 0
M  V30 7041 H 657.896 -0.670248 4.55899 0
M  V30 7042 H 656.211 -0.761741 4.09373 0
M  V30 7043 H 658.808 -3.54166 4.00587 0
M  V30 7044 H 659.151 -3.47344 2.29473 0
M  V30 7045 H 659.684 -2.14321 3.35129 0
M  V30 7046 H 656.423 -1.7356 6.32105 0
M  V30 7047 H 655.943 -3.0165 5.18428 0
M  V30 7048 H 657.622 -2.92424 5.77146 0
M  V30 7049 N 657.755 -1.42862 -0.66545 0
M  V30 7050 C 659.171 -1.25993 -0.979687 0
M  V30 7051 C 659.371 -0.170831 -2.00775 0
M  V30 7052 O 658.427 0.454827 -2.4837 0
M  V30 7053 C 659.74 -2.62005 -1.47559 0
M  V30 7054 C 661.288 -2.69437 -1.59288 0
M  V30 7055 C 661.763 -4.05838 -2.12272 0
M  V30 7056 N 663.254 -4.0784 -2.19592 0
M  V30 7057 C 663.989 -5.10205 -2.61684 0
M  V30 7058 N 663.485 -6.22949 -3.03161 0
M  V30 7059 N 665.278 -4.9756 -2.61516 0
M  V30 7060 H 657.429 -2.12395 0.0150493 0
M  V30 7061 H 659.692 -0.946355 -0.0558187 0
M  V30 7062 H 659.398 -3.42605 -0.794654 0
M  V30 7063 H 659.272 -2.86566 -2.45275 0
M  V30 7064 H 661.659 -1.89178 -2.26486 0
M  V30 7065 H 661.74 -2.48655 -0.600374 0
M  V30 7066 H 661.384 -4.86559 -1.4568 0
M  V30 7067 H 661.314 -4.23977 -3.12331 0
M  V30 7068 H 663.805 -3.26452 -1.90361 0
M  V30 7069 H 664.118 -6.96899 -3.33993 0
M  V30 7070 H 662.463 -6.2644 -3.00995 0
M  V30 7071 H 665.654 -4.08551 -2.28481 0
M  V30 7072 H 665.827 -5.77468 -2.93999 0
M  V30 7073 N 659.233 0.902656 -1.29189 0
M  V30 7074 C 660.649 1.18296 -1.07137 0
M  V30 7075 C 660.849 2.00701 0.179223 0
M  V30 7076 O 659.905 2.3675 0.877812 0
M  V30 7077 C 661.218 1.90677 -2.32514 0
M  V30 7078 C 662.766 2.03515 -2.37804 0
M  V30 7079 C 663.241 2.79307 -3.62976 0
M  V30 7080 N 664.732 2.86862 -3.63681 0
M  V30 7081 C 665.467 3.46035 -4.57217 0
M  V30 7082 N 664.963 4.06399 -5.61081 0
M  V30 7083 N 666.756 3.43681 -4.44792 0
M  V30 7084 H 658.907 0.352765 -2.0945 0
M  V30 7085 H 661.17 0.21876 -0.922414 0
M  V30 7086 H 660.876 1.3756 -3.23682 0
M  V30 7087 H 660.75 2.91169 -2.39793 0
M  V30 7088 H 663.137 2.55809 -1.47125 0
M  V30 7089 H 663.218 1.02166 -2.34512 0
M  V30 7090 H 662.862 2.2769 -4.54004 0
M  V30 7091 H 662.792 3.80995 -3.63525 0
M  V30 7092 H 665.283 2.43987 -2.88581 0
M  V30 7093 H 665.596 4.49564 -6.2858 0
M  V30 7094 H 663.941 4.0487 -5.64894 0
M  V30 7095 H 667.132 2.9574 -3.62843 0
M  V30 7096 H 667.305 3.89503 -5.17872 0
M  V30 7097 N 660.711 1.11618 1.11262 0
M  V30 7098 C 661.641 0.79846 2.19424 0
M  V30 7099 C 662.622 -0.234003 1.68483 0
M  V30 7100 O 663.807 -0.0970704 1.93957 0
M  V30 7101 C 660.937 0.242892 3.4645 0
M  V30 7102 C 659.891 1.20744 4.10615 0
M  V30 7103 C 659.217 0.512494 5.32238 0
M  V30 7104 C 660.517 2.55884 4.55325 0
M  V30 7105 H 662.211 1.70286 2.46258 0
M  V30 7106 H 659.757 0.820195 1.18359 0
M  V30 7107 H 661.71 0.00840447 4.21399 0
M  V30 7108 H 660.434 -0.696811 3.1908 0
M  V30 7109 H 659.093 1.42759 3.37662 0
M  V30 7110 H 658.741 -0.432075 5.01141 0
M  V30 7111 H 658.441 1.15583 5.7612 0
M  V30 7112 H 659.965 0.286842 6.09926 0
M  V30 7113 H 661.379 2.37946 5.21588 0
M  V30 7114 H 659.776 3.16216 5.10027 0
M  V30 7115 H 660.846 3.14968 3.68678 0
M  V30 7116 N 662.189 -1.289 0.906776 0
M  V30 7117 C 663.605 -1.47733 0.603902 0
M  V30 7118 C 663.805 -1.82568 -0.852702 0
M  V30 7119 O 662.861 -1.92642 -1.63234 0
M  V30 7120 C 664.174 -2.58522 1.53581 0
M  V30 7121 C 665.722 -2.72394 1.54177 0
M  V30 7122 C 666.197 -3.86318 2.46013 0
M  V30 7123 N 667.688 -3.93661 2.441 0
M  V30 7124 C 668.423 -4.81177 3.11859 0
M  V30 7125 N 667.919 -5.73333 3.88923 0
M  V30 7126 N 669.712 -4.74728 3.00981 0
M  V30 7127 H 661.863 -1.04567 1.84877 0
M  V30 7128 H 664.126 -0.520118 0.792579 0
M  V30 7129 H 663.832 -2.39667 2.57396 0
M  V30 7130 H 663.706 -3.55475 1.26165 0
M  V30 7131 H 666.093 -2.90641 0.511034 0
M  V30 7132 H 666.174 -1.75993 1.85634 0
M  V30 7133 H 665.818 -3.68826 3.49185 0
M  V30 7134 H 665.748 -4.82102 2.11862 0
M  V30 7135 H 668.239 -3.27751 1.88115 0
M  V30 7136 H 668.552 -6.36923 4.37663 0
M  V30 7137 H 666.897 -5.73196 3.93029 0
M  V30 7138 H 670.088 -4.01722 2.40286 0
M  V30 7139 H 670.261 -5.42719 3.54062 0
M  V30 7140 N 663.667 -0.670007 -1.42649 0
M  V30 7141 C 664.615 0.0230106 -2.32589 0
M  V30 7142 C 665.609 0.795585 -1.49555 0
M  V30 7143 O 666.815 0.70409 -1.65658 0
M  V30 7144 H 663.19 0.0262342 -0.751542 0
M  V30 7145 H 665.161 -0.753009 -2.88743 0
M  V30 7146 C 663.91 0.963872 -3.34073 0
M  V30 7147 H 663.233 0.378813 -3.98001 0
M  V30 7148 H 664.673 1.41755 -3.99602 0
M  V30 7149 C 663.132 2.06797 -2.65964 0
M  V30 7150 O 663.662 3.15383 -2.48789 0
M  V30 7151 N 661.868 1.83831 -2.25066 0
M  V30 7152 H 661.415 0.955235 -2.39234 0
M  V30 7153 H 661.373 2.57895 -1.79827 0
M  V30 7154 N 665.145 1.52092 -0.413018 0
M  V30 7155 C 666.095 2.23947 0.427993 0
M  V30 7156 C 667.079 1.25229 1.01027 0
M  V30 7157 O 668.271 1.50448 0.932444 0
M  V30 7158 C 665.4 3.0672 1.542 0
M  V30 7159 C 664.486 4.12851 0.970307 0
M  V30 7160 N 664.877 5.05644 0.125611 0
M  V30 7161 C 663.175 4.28404 1.24042 0
M  V30 7162 C 663.876 5.8138 -0.192876 0
M  V30 7163 N 662.852 5.41996 0.417273 0
M  V30 7164 H 666.654 2.93048 -0.223628 0
M  V30 7165 H 664.168 1.60852 -0.223664 0
M  V30 7166 H 666.165 3.56754 2.15714 0
M  V30 7167 H 664.825 2.39159 2.19621 0
M  V30 7168 H 665.836 5.17348 -0.238995 0
M  V30 7169 H 662.513 3.72071 1.89391 0
M  V30 7170 H 663.903 6.66129 -0.878762 0
M  V30 7171 N 666.623 0.143563 1.56945 0
M  V30 7172 C 667.586 -0.783295 2.154 0
M  V30 7173 C 668.586 -1.17763 1.09492 0
M  V30 7174 O 669.776 -1.09912 1.35148 0
M  V30 7175 C 666.908 -2.06248 2.7143 0
M  V30 7176 H 668.101 -0.274863 2.98638 0
M  V30 7177 H 665.654 -0.105859 1.55941 0
M  V30 7178 H 666.389 -2.61466 1.91849 0
M  V30 7179 H 666.174 -1.78897 3.4891 0
M  V30 7180 H 667.664 -2.72453 3.16479 0
M  V30 7181 N 668.101 -1.57061 -0.130224 0
M  V30 7182 C 669.326 -1.88802 -0.858409 0
M  V30 7183 C 669.751 -0.734353 -1.73173 0
M  V30 7184 O 669.109 0.315529 -1.78533 0
M  V30 7185 C 669.157 -3.19228 -1.67708 0
M  V30 7186 O 668.261 -3.04343 -2.78297 0
M  V30 7187 H 667.602 -0.619849 -0.238083 0
M  V30 7188 H 670.132 -2.04271 -0.115995 0
M  V30 7189 H 670.142 -3.51669 -2.06864 0
M  V30 7190 H 668.817 -4.02793 -1.0359 0
M  V30 7191 H 667.394 -2.83346 -2.42425 0
M  V30 7192 N 669.579 0.400081 -1.52437 0
M  V30 7193 C 670.509 1.4947 -1.7939 0
M  V30 7194 C 671.49 1.57383 -0.645329 0
M  V30 7195 O 672.675 1.72511 -0.891826 0
M  V30 7196 C 669.805 2.87201 -1.95276 0
M  V30 7197 C 668.759 2.94134 -3.10917 0
M  V30 7198 C 668.085 4.34207 -3.1204 0
M  V30 7199 C 669.385 2.64791 -4.50203 0
M  V30 7200 H 671.079 1.27165 -2.71052 0
M  V30 7201 H 668.625 0.610312 -1.30427 0
M  V30 7202 H 670.578 3.63772 -2.12715 0
M  V30 7203 H 669.302 3.10819 -1.00294 0
M  V30 7204 H 667.961 2.20009 -2.93243 0
M  V30 7205 H 667.609 4.54848 -2.14761 0
M  V30 7206 H 667.309 4.39768 -3.89715 0
M  V30 7207 H 668.833 5.127 -3.31619 0
M  V30 7208 H 670.247 3.31083 -4.68035 0
M  V30 7209 H 668.644 2.81717 -5.29864 0
M  V30 7210 H 669.714 1.60184 -4.57678 0
M  V30 7211 N 671.057 1.43213 0.657864 0
M  V30 7212 C 672.02 1.47687 1.75275 0
M  V30 7213 C 673.02 0.362179 1.56668 0
M  V30 7214 O 674.21 0.623734 1.62651 0
M  V30 7215 C 671.342 1.32497 3.14098 0
M  V30 7216 H 672.535 2.4519 1.7269 0
M  V30 7217 H 670.088 1.2991 0.869087 0
M  V30 7218 H 670.823 0.359831 3.22298 0
M  V30 7219 H 670.608 2.13299 3.29008 0
M  V30 7220 H 672.098 1.38549 3.93946 0
M  V30 7221 N 672.536 -0.895792 1.29666 0
M  V30 7222 C 673.469 -2.00238 1.09453 0
M  V30 7223 C 674.447 -1.62599 0.00527044 0
M  V30 7224 O 675.631 -1.87847 0.156729 0
M  V30 7225 C 672.758 -3.32066 0.667054 0
M  V30 7226 C 671.804 -3.88691 1.7556 0
M  V30 7227 S 672.637 -4.17317 3.35569 0
M  V30 7228 C 673.793 -5.52181 2.94698 0
M  V30 7229 H 674.026 -2.17076 2.03138 0
M  V30 7230 H 671.559 -1.04287 1.13858 0
M  V30 7231 H 673.517 -4.08272 0.427136 0
M  V30 7232 H 672.178 -3.13101 -0.250256 0
M  V30 7233 H 671.371 -4.83918 1.40853 0
M  V30 7234 H 670.973 -3.19187 1.94924 0
M  V30 7235 H 673.265 -6.3281 2.41986 0
M  V30 7236 H 674.208 -5.91817 3.88791 0
M  V30 7237 H 674.616 -5.14225 2.32879 0
M  V30 7238 N 674.014 -1.12206 -1.10668 0
M  V30 7239 C 675.26 -0.887096 -1.83036 0
M  V30 7240 C 675.615 0.580887 -1.83422 0
M  V30 7241 O 674.908 1.42379 -1.28213 0
M  V30 7242 C 675.102 -1.39276 -3.29146 0
M  V30 7243 C 674.931 -2.90837 -3.42992 0
M  V30 7244 C 673.701 -3.59047 -3.55546 0
M  V30 7245 C 675.899 -3.8885 -3.36601 0
M  V30 7246 N 673.881 -4.98747 -3.57945 0
M  V30 7247 C 675.252 -5.14666 -3.45716 0
M  V30 7248 C 677.307 -3.81296 -3.20184 0
M  V30 7249 C 676.01 -6.33814 -3.40106 0
M  V30 7250 C 678.036 -4.99965 -3.15895 0
M  V30 7251 C 677.398 -6.24637 -3.25589 0
M  V30 7252 H 673.497 -0.377857 -0.684652 0
M  V30 7253 H 676.081 -1.42791 -1.32358 0
M  V30 7254 H 674.252 -0.879026 -3.78322 0
M  V30 7255 H 675.984 -1.10011 -3.89461 0
M  V30 7256 H 672.739 -3.09533 -3.5845 0
M  V30 7257 H 673.163 -5.71606 -3.62762 0
M  V30 7258 H 677.805 -2.85806 -3.11569 0
M  V30 7259 H 675.523 -7.29574 -3.47487 0
M  V30 7260 H 679.109 -4.95847 -3.04347 0
M  V30 7261 H 677.989 -7.14921 -3.22269 0
M  V30 7262 N 675.492 1.28418 -0.913599 0
M  V30 7263 C 676.732 1.96756 -0.553771 0
M  V30 7264 C 677.096 1.70334 0.886013 0
M  V30 7265 O 678.297 2.32242 1.35341 0
M  V30 7266 C 676.568 3.47041 -0.854249 0
M  V30 7267 S 678.127 4.34667 -0.600816 0
M  V30 7268 H 674.945 0.680831 -0.204915 0
M  V30 7269 H 677.547 1.55947 -1.17902 0
M  V30 7270 H 676.251 3.63766 -1.90007 0
M  V30 7271 H 675.782 3.92797 -0.217651 0
M  V30 7272 H 677.797 4.93166 0.547906 0
M  V30 7273 N 676.97 0.677563 1.42291 0
M  V30 7274 C 678.218 0.200578 2.01102 0
M  V30 7275 C 678.539 -1.19803 1.53858 0
M  V30 7276 O 677.809 -1.80496 0.761439 0
M  V30 7277 H 676.389 0.0711634 0.743603 0
M  V30 7278 H 679.051 0.874691 1.7417 0
M  V30 7279 H 678.147 0.204 3.11433 0
M  V30 7280 N 678.448 -1.51871 0.421078 0
M  V30 7281 C 679.396 -2.28903 -0.413066 0
M  V30 7282 C 680.39 -1.3408 -1.03532 0
M  V30 7283 O 681.596 -1.5149 -0.972146 0
M  V30 7284 H 677.971 -0.736478 -0.152003 0
M  V30 7285 H 679.942 -2.97285 0.257695 0
M  V30 7286 C 678.691 -3.13156 -1.51091 0
M  V30 7287 H 678.014 -3.85997 -1.04145 0
M  V30 7288 H 679.454 -3.7014 -2.06814 0
M  V30 7289 C 677.913 -2.27482 -2.48503 0
M  V30 7290 O 678.443 -1.92325 -3.52667 0
M  V30 7291 N 676.649 -1.91019 -2.18998 0
M  V30 7292 H 676.196 -2.19808 -1.34322 0
M  V30 7293 H 676.154 -1.3399 -2.84419 0
M  V30 7294 N 679.926 -0.151884 -1.56866 0
M  V30 7295 C 680.874 0.80299 -2.183 0
M  V30 7296 C 681.868 1.25174 -1.14139 0
M  V30 7297 O 683.074 1.21966 -1.3238 0
M  V30 7298 H 679.449 0.277169 -0.699057 0
M  V30 7299 H 681.42 0.260699 -2.97259 0
M  V30 7300 C 680.169 2.03009 -2.82281 0
M  V30 7301 H 679.492 1.69377 -3.62148 0
M  V30 7302 H 680.932 2.67753 -3.28762 0
M  V30 7303 C 679.391 2.84123 -1.81041 0
M  V30 7304 O 679.921 3.8063 -1.28388 0
M  V30 7305 N 678.127 2.48753 -1.50234 0
M  V30 7306 H 677.674 1.70337 -1.93244 0
M  V30 7307 H 677.632 3.03316 -0.827445 0
M  V30 7308 N 681.404 1.57128 0.121893 0
M  V30 7309 C 682.314 2.03425 1.16857 0
M  V30 7310 C 683.33 0.954108 1.45509 0
M  V30 7311 O 684.506 1.26541 1.56682 0
M  V30 7312 C 681.571 2.42685 2.47599 0
M  V30 7313 C 680.632 3.64767 2.2637 0
M  V30 7314 C 679.865 4.02145 3.50878 0
M  V30 7315 O 680.088 3.39897 4.58068 0
M  V30 7316 O 679.022 4.95262 3.42051 0
M  V30 7317 H 682.848 2.92825 0.80544 0
M  V30 7318 H 680.433 1.45654 0.332477 0
M  V30 7319 H 682.315 2.68684 3.24634 0
M  V30 7320 H 680.99 1.56432 2.83392 0
M  V30 7321 H 679.897 3.43922 1.47203 0
M  V30 7322 H 681.23 4.51716 1.95482 0
M  V30 7323 N 682.882 -0.391992 1.52647 0
M  V30 7324 C 684.131 -1.13449 1.6677 0
M  V30 7325 C 684.444 -1.91203 0.412399 0
M  V30 7326 O 685.65 -2.68013 0.433707 0
M  V30 7327 C 684.106 -2.06577 2.9471 0
M  V30 7328 C 683.714 -1.3426 4.27409 0
M  V30 7329 C 685.458 -2.80981 3.18198 0
M  V30 7330 C 683.365 -2.26136 5.46458 0
M  V30 7331 H 682.295 -0.427211 0.621295 0
M  V30 7332 H 684.946 -0.397522 1.79142 0
M  V30 7333 H 683.328 -2.83898 2.76076 0
M  V30 7334 H 684.502 -0.621856 4.56585 0
M  V30 7335 H 682.817 -0.718279 4.10158 0
M  V30 7336 H 685.414 -3.49898 4.04321 0
M  V30 7337 H 685.757 -3.44891 2.33144 0
M  V30 7338 H 686.29 -2.10754 3.37383 0
M  V30 7339 H 683.029 -1.66846 6.33911 0
M  V30 7340 H 682.549 -2.96134 5.21598 0
M  V30 7341 H 684.228 -2.86286 5.80215 0
M  V30 7342 N 684.36 -1.4356 -0.65026 0
M  V30 7343 C 685.29 -1.51758 -1.77459 0
M  V30 7344 C 686.271 -0.372019 -1.65982 0
M  V30 7345 O 687.456 -0.589627 -1.85033 0
M  V30 7346 C 684.586 -1.44302 -3.15902 0
M  V30 7347 C 683.54 -2.57138 -3.42146 0
M  V30 7348 C 682.866 -2.34735 -4.8042 0
M  V30 7349 C 684.166 -3.99373 -3.36598 0
M  V30 7350 H 685.86 -2.45863 -1.70855 0
M  V30 7351 H 683.406 -1.18333 -0.820566 0
M  V30 7352 H 685.359 -1.48641 -3.94314 0
M  V30 7353 H 684.083 -0.467026 -3.23244 0
M  V30 7354 H 682.742 -2.52157 -2.66106 0
M  V30 7355 H 682.39 -1.35372 -4.84441 0
M  V30 7356 H 682.09 -3.10375 -4.9894 0
M  V30 7357 H 683.614 -2.40862 -5.61086 0
M  V30 7358 H 685.028 -4.05826 -4.04942 0
M  V30 7359 H 683.425 -4.75063 -3.66654 0
M  V30 7360 H 684.495 -4.243 -2.34729 0
M  V30 7361 N 685.838 0.888903 -1.30139 0
M  V30 7362 C 686.748 2.02705 -1.18101 0
M  V30 7363 C 687.764 1.73702 -0.101809 0
M  V30 7364 O 688.94 1.98906 -0.315984 0
M  V30 7365 C 686.005 3.35616 -0.869651 0
M  V30 7366 C 685.066 3.78067 -2.03381 0
M  V30 7367 C 684.299 5.04635 -1.73721 0
M  V30 7368 O 684.522 5.66531 -0.663267 0
M  V30 7369 O 683.456 5.43399 -2.58845 0
M  V30 7370 H 687.282 2.15788 -2.13704 0
M  V30 7371 H 684.867 1.01426 -1.09695 0
M  V30 7372 H 686.749 4.15358 -0.711043 0
M  V30 7373 H 685.424 3.23651 0.0565002 0
M  V30 7374 H 684.331 2.99046 -2.24772 0
M  V30 7375 H 685.664 3.94631 -2.94155 0
M  V30 7376 N 687.317 1.12792 1.10072 0
M  V30 7377 C 688.28 0.802264 2.14701 0
M  V30 7378 C 689.28 -0.18515 1.59731 0
M  V30 7379 O 690.47 0.041109 1.74151 0
M  V30 7380 C 687.602 0.19285 3.40354 0
M  V30 7381 H 688.795 1.72932 2.45019 0
M  V30 7382 H 686.348 0.931662 1.25498 0
M  V30 7383 H 687.083 -0.743748 3.15656 0
M  V30 7384 H 686.868 0.903827 3.81541 0
M  V30 7385 H 688.358 -0.0183704 4.17596 0
M  V30 7386 N 688.795 -1.27931 0.920396 0
M  V30 7387 C 689.725 -2.29487 0.431024 0
M  V30 7388 C 690.706 -1.62435 -0.504861 0
M  V30 7389 O 691.891 -1.89797 -0.411176 0
M  V30 7390 C 689.021 -3.45788 -0.323709 0
M  V30 7391 C 687.975 -4.24784 0.523658 0
M  V30 7392 C 687.301 -5.33488 -0.359809 0
M  V30 7393 C 688.601 -4.90874 1.78437 0
M  V30 7394 H 690.295 -2.70671 1.27975 0
M  V30 7395 H 687.841 -1.30121 0.616813 0
M  V30 7396 H 689.794 -4.15927 -0.676952 0
M  V30 7397 H 688.518 -3.03502 -1.2064 0
M  V30 7398 H 687.177 -3.56382 0.85951 0
M  V30 7399 H 686.825 -4.87445 -1.24124 0
M  V30 7400 H 686.525 -5.87247 0.203605 0
M  V30 7401 H 688.049 -6.06472 -0.708787 0
M  V30 7402 H 689.463 -5.53339 1.49963 0
M  V30 7403 H 687.86 -5.54659 2.29071 0
M  V30 7404 H 688.93 -4.14988 2.50824 0
M  V30 7405 N 690.273 -0.685099 -1.4193 0
M  V30 7406 C 691.22 -0.0131869 -2.30796 0
M  V30 7407 C 692.19 0.782129 -1.46533 0
M  V30 7408 O 693.375 0.75229 -1.75343 0
M  V30 7409 C 690.515 0.924768 -3.32479 0
M  V30 7410 C 689.628 0.122181 -4.31827 0
M  V30 7411 C 688.763 1.05682 -5.20581 0
M  V30 7412 C 687.802 0.246526 -6.11603 0
M  V30 7413 N 686.939 1.13442 -6.92875 0
M  V30 7414 H 691.779 -0.776789 -2.87698 0
M  V30 7415 H 689.316 -0.394791 -1.41703 0
M  V30 7416 H 691.274 1.48251 -3.89971 0
M  V30 7417 H 689.904 1.65488 -2.77152 0
M  V30 7418 H 688.956 -0.552335 -3.76369 0
M  V30 7419 H 690.268 -0.506473 -4.96222 0
M  V30 7420 H 689.422 1.68415 -5.82856 0
M  V30 7421 H 688.161 1.71935 -4.56388 0
M  V30 7422 H 687.166 -0.393944 -5.48387 0
M  V30 7423 H 688.391 -0.412053 -6.77849 0
M  V30 7424 H 686.337 1.78316 -6.313 0
M  V30 7425 H 686.254 0.561089 -7.53915 0
M  V30 7426 H 687.522 1.74889 -7.59628 0
M  V30 7427 N 691.751 1.51645 -0.429126 0
M  V30 7428 C 692.981 2.06133 0.138793 0
M  V30 7429 C 693.389 1.29735 1.37716 0
M  V30 7430 O 692.732 0.347955 1.80375 0
M  V30 7431 C 692.794 3.55504 0.534493 0
M  V30 7432 C 692.458 4.53098 -0.595917 0
M  V30 7433 C 693.455 4.98815 -1.46558 0
M  V30 7434 C 691.14 4.96296 -0.774309 0
M  V30 7435 C 693.134 5.86394 -2.4984 0
M  V30 7436 C 690.821 5.83667 -1.81042 0
M  V30 7437 C 691.819 6.28613 -2.67086 0
M  V30 7438 O 691.507 7.14251 -3.68919 0
M  V30 7439 H 691.239 0.675833 0.0150263 0
M  V30 7440 H 693.793 1.96301 -0.604584 0
M  V30 7441 H 692.023 3.63092 1.33045 0
M  V30 7442 H 693.712 3.92545 1.03262 0
M  V30 7443 H 694.478 4.66143 -1.33925 0
M  V30 7444 H 690.357 4.60859 -0.114178 0
M  V30 7445 H 693.901 6.21398 -3.17034 0
M  V30 7446 H 689.798 6.15753 -1.93698 0
M  V30 7447 H 690.566 7.3241 -3.65402 0
M  V30 7448 N 693.229 0.160201 1.56784 0
M  V30 7449 C 694.475 -0.481855 1.9761 0
M  V30 7450 C 694.83 -1.61605 1.04411 0
M  V30 7451 O 694.123 -1.91426 0.0816402 0
M  V30 7452 C 694.317 -1.02259 3.42459 0
M  V30 7453 C 694.146 0.0576781 4.49663 0
M  V30 7454 C 692.916 0.503585 5.02784 0
M  V30 7455 C 695.114 0.854013 5.0716 0
M  V30 7456 N 693.096 1.56532 5.93608 0
M  V30 7457 C 694.467 1.76593 5.94319 0
M  V30 7458 C 696.522 0.900333 4.89692 0
M  V30 7459 C 695.225 2.72023 6.6588 0
M  V30 7460 C 697.251 1.84252 5.61965 0
M  V30 7461 C 696.613 2.74194 6.48843 0
M  V30 7462 H 692.712 -0.144748 0.768487 0
M  V30 7463 H 695.296 0.257853 1.92985 0
M  V30 7464 H 693.467 -1.73186 3.47651 0
M  V30 7465 H 695.199 -1.63235 3.70319 0
M  V30 7466 H 691.954 0.103361 4.73487 0
M  V30 7467 H 692.378 2.09634 6.43726 0
M  V30 7468 H 697.02 0.219023 4.22232 0
M  V30 7469 H 694.738 3.41147 7.3256 0
M  V30 7470 H 698.324 1.88433 5.5044 0
M  V30 7471 H 697.204 3.45912 7.03786 0
M  V30 7472 N 694.707 -1.5719 -0.113559 0
M  V30 7473 C 695.955 -1.84772 -0.818761 0
M  V30 7474 C 696.276 -0.746196 -1.80158 0
M  V30 7475 O 695.546 0.229305 -1.94553 0
M  V30 7476 H 694.126 -0.681737 -0.305359 0
M  V30 7477 H 696.788 -1.94645 -0.0995845 0
M  V30 7478 H 695.884 -2.80878 -1.36067 0
M  V30 7479 N 696.185 0.383891 -1.52853 0
M  V30 7480 C 697.432 1.12842 -1.68146 0
M  V30 7481 C 697.76 1.89823 -0.423954 0
M  V30 7482 O 697.015 1.86475 0.593765 0
M  V30 7483 C 697.314 2.12881 -2.87082 0
M  V30 7484 C 696.98 1.52519 -4.24322 0
M  V30 7485 C 695.642 1.35783 -4.61645 0
M  V30 7486 C 697.994 1.0868 -5.09743 0
M  V30 7487 C 695.322 0.737643 -5.82044 0
M  V30 7488 C 697.674 0.480699 -6.30771 0
M  V30 7489 C 696.338 0.300681 -6.66822 0
M  V30 7490 H 695.608 0.412917 -0.615289 0
M  V30 7491 H 698.255 0.412416 -1.87006 0
M  V30 7492 H 696.56 2.90719 -2.62659 0
M  V30 7493 H 698.257 2.70408 -2.96109 0
M  V30 7494 H 694.847 1.66534 -3.94923 0
M  V30 7495 H 699.031 1.2041 -4.81472 0
M  V30 7496 H 694.287 0.586415 -6.08581 0
M  V30 7497 H 698.461 0.132733 -6.96273 0
M  V30 7498 H 696.088 -0.181966 -7.59982 0
M  V30 7499 N 697.663 1.43903 0.642637 0
M  V30 7500 C 698.573 1.52349 1.78401 0
M  V30 7501 C 699.589 0.409869 1.69104 0
M  V30 7502 O 700.765 0.665548 1.90085 0
M  V30 7503 C 697.83 1.45408 3.14734 0
M  V30 7504 C 696.891 2.67528 3.35749 0
M  V30 7505 C 696.124 2.60909 4.65577 0
M  V30 7506 O 696.347 1.6627 5.45628 0
M  V30 7507 O 695.281 3.5158 4.88544 0
M  V30 7508 H 699.107 2.48752 1.7423 0
M  V30 7509 H 696.692 1.26021 0.802439 0
M  V30 7510 H 698.574 1.44019 3.96026 0
M  V30 7511 H 697.249 0.521437 3.19473 0
M  V30 7512 H 696.156 2.74487 2.5418 0
M  V30 7513 H 697.489 3.598 3.35864 0
M  V30 7514 N 699.141 -0.881989 1.30609 0
M  V30 7515 C 700.088 -1.98803 1.17244 0
M  V30 7516 C 701.058 -1.65987 0.0611905 0
M  V30 7517 O 702.243 -1.89385 0.231911 0
M  V30 7518 C 699.383 -3.33867 0.87333 0
M  V30 7519 C 698.496 -3.79354 2.06675 0
M  V30 7520 C 697.631 -5.03078 1.70547 0
M  V30 7521 C 696.67 -5.40981 2.86366 0
M  V30 7522 N 695.807 -6.55886 2.50514 0
M  V30 7523 H 700.647 -2.09566 2.11863 0
M  V30 7524 H 698.184 -1.02607 1.05405 0
M  V30 7525 H 700.142 -4.11612 0.680519 0
M  V30 7526 H 698.772 -3.2278 -0.0359983 0
M  V30 7527 H 697.824 -2.97492 2.37071 0
M  V30 7528 H 699.136 -4.03382 2.93401 0
M  V30 7529 H 698.29 -5.88457 1.47658 0
M  V30 7530 H 697.029 -4.80927 0.809947 0
M  V30 7531 H 696.034 -4.54127 3.09917 0
M  V30 7532 H 697.259 -5.65104 3.76609 0
M  V30 7533 H 695.205 -6.35306 1.63471 0
M  V30 7534 H 695.122 -6.79799 3.30771 0
M  V30 7535 H 696.39 -7.44489 2.30989 0
M  V30 7536 N 700.619 -1.13374 -1.09472 0
M  V30 7537 C 701.566 -0.810682 -2.16094 0
M  V30 7538 C 702.536 0.227003 -1.64541 0
M  V30 7539 O 703.721 0.0993538 -1.90541 0
M  V30 7540 C 700.861 -0.282336 -3.43943 0
M  V30 7541 C 699.974 -1.37902 -4.09398 0
M  V30 7542 C 699.109 -0.809066 -5.25002 0
M  V30 7543 C 698.148 -1.88419 -5.82379 0
M  V30 7544 N 697.285 -1.33221 -6.89345 0
M  V30 7545 H 702.125 -1.72397 -2.43071 0
M  V30 7546 H 699.662 -0.860564 -1.19301 0
M  V30 7547 H 701.62 0.0421189 -4.17179 0
M  V30 7548 H 700.25 0.594083 -3.17286 0
M  V30 7549 H 699.302 -1.82008 -3.34032 0
M  V30 7550 H 700.614 -2.19161 -4.48074 0
M  V30 7551 H 699.768 -0.435867 -6.05132 0
M  V30 7552 H 698.507 0.0346058 -4.87688 0
M  V30 7553 H 697.512 -2.26646 -5.00911 0
M  V30 7554 H 698.737 -2.73125 -6.21755 0
M  V30 7555 H 696.683 -0.510535 -6.5401 0
M  V30 7556 H 696.6 -2.08129 -7.26786 0
M  V30 7557 H 697.868 -0.986565 -7.73232 0
M  V30 7558 N 702.098 1.27442 -0.927168 0
M  V30 7559 C 703.345 1.94391 -0.567324 0
M  V30 7560 C 703.673 1.72875 0.891321 0
M  V30 7561 O 702.928 1.05071 1.65102 0
M  V30 7562 C 703.227 3.47413 -0.838994 0
M  V30 7563 C 702.893 3.89049 -2.2793 0
M  V30 7564 C 701.555 4.00127 -2.67305 0
M  V30 7565 C 703.907 4.10154 -3.21595 0
M  V30 7566 C 701.235 4.29697 -3.99471 0
M  V30 7567 C 703.587 4.41208 -4.53341 0
M  V30 7568 C 702.251 4.50499 -4.92551 0
M  V30 7569 H 701.521 0.711325 -0.207598 0
M  V30 7570 H 704.168 1.51523 -1.17103 0
M  V30 7571 H 702.473 3.91503 -0.152609 0
M  V30 7572 H 704.17 3.97354 -0.53955 0
M  V30 7573 H 700.76 3.80962 -1.96381 0
M  V30 7574 H 704.944 4.01036 -2.92377 0
M  V30 7575 H 700.2 4.35099 -4.29533 0
M  V30 7576 H 704.374 4.56486 -5.25922 0
M  V30 7577 H 702.001 4.73167 -5.94994 0
M  V30 7578 N 703.576 0.692616 1.41565 0
M  V30 7579 C 704.804 0.231279 2.05603 0
M  V30 7580 C 705.219 -1.11837 1.52111 0
M  V30 7581 O 704.576 -1.6983 0.66813 0
M  V30 7582 C 704.627 0.177125 3.61066 0
M  V30 7583 O 704.348 1.47346 4.12578 0
M  V30 7584 C 705.849 -0.30556 4.42246 0
M  V30 7585 H 703.069 0.108238 0.662213 0
M  V30 7586 H 705.613 0.944369 1.81389 0
M  V30 7587 H 703.768 -0.486769 3.8433 0
M  V30 7588 H 704.182 1.35861 5.06599 0
M  V30 7589 H 705.656 -0.29233 5.51225 0
M  V30 7590 H 706.133 -1.34393 4.18133 0
M  V30 7591 H 706.739 0.327229 4.24039 0
M  V30 7592 N 705.054 -1.51416 0.437162 0
M  V30 7593 C 706.465 -1.86682 -0.0260005 0
M  V30 7594 C 706.816 -1.35432 -1.4196 0
M  V30 7595 O 705.941 -0.705055 -2.04592 0
M  V30 7596 C 706.536 -3.38757 -0.0539577 0
M  V30 7597 C 705.095 -3.7356 -0.461532 0
M  V30 7598 C 704.242 -2.75134 0.345924 0
M  V30 7599 H 707.193 -1.44642 0.653013 0
M  V30 7600 H 707.214 -3.70573 -0.863478 0
M  V30 7601 H 706.726 -3.76028 0.96045 0
M  V30 7602 H 704.827 -3.41878 -1.48155 0
M  V30 7603 H 704.94 -4.78737 -0.186451 0
M  V30 7604 H 703.304 -2.53947 -0.195739 0
M  V30 7605 H 704.087 -3.15247 1.35921 0
M  V30 7606 N 706.532 -0.168513 -1.56696 0
M  V30 7607 C 707.442 0.775435 -2.21414 0
M  V30 7608 C 708.458 1.25529 -1.20492 0
M  V30 7609 O 709.634 1.30801 -1.53144 0
M  V30 7610 C 706.699 1.9886 -2.83999 0
M  V30 7611 C 705.76 1.5559 -4.00113 0
M  V30 7612 C 704.993 2.71124 -4.59704 0
M  V30 7613 O 705.216 3.87917 -4.18182 0
M  V30 7614 O 704.15 2.4536 -5.4962 0
M  V30 7615 H 707.976 0.254416 -3.02632 0
M  V30 7616 H 705.561 0.0595507 -1.49281 0
M  V30 7617 H 707.443 2.69816 -3.23693 0
M  V30 7618 H 706.118 2.49874 -2.05779 0
M  V30 7619 H 705.025 0.815924 -3.65094 0
M  V30 7620 H 706.358 1.09271 -4.79917 0
M  V30 7621 N 708.01 1.57248 0.105221 0
M  V30 7622 C 709.256 1.85845 0.811753 0
M  V30 7623 C 709.589 0.756219 1.78871 0
M  V30 7624 O 708.864 -0.236736 1.93054 0
M  V30 7625 C 709.147 3.25059 1.54947 0
M  V30 7626 C 709 4.45898 0.591185 0
M  V30 7627 C 710.319 3.6203 2.50245 0
M  V30 7628 H 707.438 0.675973 0.293649 0
M  V30 7629 H 710.08 1.89849 0.0756269 0
M  V30 7630 H 708.23 3.21776 2.17698 0
M  V30 7631 H 709.902 4.61291 -0.0285352 0
M  V30 7632 H 708.145 4.33693 -0.0962343 0
M  V30 7633 H 708.816 5.40009 1.1443 0
M  V30 7634 H 711.292 3.66192 1.97593 0
M  V30 7635 H 710.168 4.60389 2.98886 0
M  V30 7636 H 710.429 2.90176 3.33542 0
M  V30 7637 N 709.488 -0.375779 1.53054 0
M  V30 7638 C 710.718 -1.1387 1.72386 0
M  V30 7639 C 711.126 -1.8382 0.447966 0
M  V30 7640 O 710.469 -1.74027 -0.588244 0
M  V30 7641 C 710.531 -2.22047 2.82728 0
M  V30 7642 C 710.195 -1.71951 4.23417 0
M  V30 7643 C 711.192 -1.18909 5.06119 0
M  V30 7644 C 708.877 -1.77773 4.69789 0
M  V30 7645 C 710.871 -0.723529 6.3328 0
M  V30 7646 C 708.558 -1.30829 5.96931 0
M  V30 7647 C 709.556 -0.782077 6.78508 0
M  V30 7648 O 709.244 -0.319529 8.03265 0
M  V30 7649 H 708.976 -0.346835 0.580242 0
M  V30 7650 H 711.53 -0.443748 2.00549 0
M  V30 7651 H 709.76 -2.95006 2.50017 0
M  V30 7652 H 711.449 -2.83654 2.90336 0
M  V30 7653 H 712.215 -1.13758 4.7147 0
M  V30 7654 H 708.094 -2.17673 4.06373 0
M  V30 7655 H 711.638 -0.312126 6.96901 0
M  V30 7656 H 707.535 -1.3567 6.31081 0
M  V30 7657 H 708.303 -0.439796 8.17318 0
M  V30 7658 N 710.966 -1.44241 -0.634997 0
M  V30 7659 C 711.898 -1.46793 -1.76024 0
M  V30 7660 C 712.911 -0.361781 -1.58729 0
M  V30 7661 O 714.1 -0.627297 -1.67114 0
M  V30 7662 C 711.2 -1.28248 -3.13697 0
M  V30 7663 C 710.373 -2.52038 -3.57485 0
M  V30 7664 C 709.432 -2.2845 -4.74022 0
M  V30 7665 O 708.458 -3.01915 -4.82531 0
M  V30 7666 N 709.66 -1.31264 -5.65464 0
M  V30 7667 H 712.425 -2.43797 -1.74307 0
M  V30 7668 H 709.986 -1.39631 -0.819438 0
M  V30 7669 H 711.978 -1.10321 -3.89373 0
M  V30 7670 H 710.548 -0.39623 -3.10079 0
M  V30 7671 H 709.768 -2.85268 -2.72059 0
M  V30 7672 H 711.056 -3.34382 -3.83492 0
M  V30 7673 H 710.454 -0.705817 -5.6128 0
M  V30 7674 H 709.011 -1.19316 -6.40786 0
M  V30 7675 N 712.444 0.87505 -1.31075 0
M  V30 7676 C 713.692 1.62447 -1.20231 0
M  V30 7677 C 714.013 1.93506 0.240888 0
M  V30 7678 O 713.283 1.57847 1.16022 0
M  V30 7679 H 711.863 0.602207 -0.441991 0
M  V30 7680 H 714.525 1.04788 -1.64334 0
M  V30 7681 H 713.621 2.57031 -1.77036 0
M  V30 7682 N 713.922 1.13953 1.08869 0
M  V30 7683 C 714.852 0.844824 2.17681 0
M  V30 7684 C 715.833 -0.198213 1.68941 0
M  V30 7685 O 717.018 -0.0559073 1.9412 0
M  V30 7686 C 714.148 0.316325 3.45856 0
M  V30 7687 C 713.102 1.29426 4.07962 0
M  V30 7688 C 712.428 0.625275 5.31031 0
M  V30 7689 C 713.728 2.65484 4.49795 0
M  V30 7690 H 715.422 1.75471 2.42591 0
M  V30 7691 H 712.968 0.845116 1.16592 0
M  V30 7692 H 714.921 0.0977876 4.21287 0
M  V30 7693 H 713.645 -0.628972 3.20486 0
M  V30 7694 H 712.304 1.49889 3.34558 0
M  V30 7695 H 711.952 -0.325678 5.01945 0
M  V30 7696 H 711.652 1.27777 5.73539 0
M  V30 7697 H 713.176 0.416152 6.0918 0
M  V30 7698 H 714.59 2.48957 5.16424 0
M  V30 7699 H 712.987 3.26963 5.03205 0
M  V30 7700 H 714.057 3.22717 3.61914 0
M  V30 7701 N 715.4 -1.26948 0.933913 0
M  V30 7702 C 716.333 -2.24977 0.382169 0
M  V30 7703 C 717.311 -1.53893 -0.524949 0
M  V30 7704 O 718.495 -1.82699 -0.464048 0
M  V30 7705 C 715.622 -3.35676 -0.451615 0
M  V30 7706 C 714.668 -4.24686 0.392947 0
M  V30 7707 S 715.501 -5.03898 1.81237 0
M  V30 7708 C 716.657 -6.18078 0.986443 0
M  V30 7709 H 716.89 -2.71429 1.21299 0
M  V30 7710 H 714.423 -1.35701 0.736523 0
M  V30 7711 H 716.381 -3.99901 -0.926797 0
M  V30 7712 H 715.042 -2.8785 -1.25703 0
M  V30 7713 H 714.235 -5.03402 -0.245533 0
M  V30 7714 H 713.837 -3.65288 0.802537 0
M  V30 7715 H 716.129 -6.77125 0.225321 0
M  V30 7716 H 717.072 -6.86216 1.74682 0
M  V30 7717 H 717.48 -5.62047 0.525711 0
M  V30 7718 N 716.879 -0.700114 -1.41195 0
M  V30 7719 C 717.829 -0.0144098 -2.27995 0
M  V30 7720 C 718.813 0.748249 -1.42443 0
M  V30 7721 O 720.005 0.622995 -1.65674 0
M  V30 7722 C 717.134 0.917938 -3.308 0
M  V30 7723 C 716.22 0.151286 -4.2383 0
M  V30 7724 N 716.611 -0.85732 -4.98481 0
M  V30 7725 C 714.909 0.386108 -4.44326 0
M  V30 7726 C 715.61 -1.31663 -5.66604 0
M  V30 7727 N 714.586 -0.641689 -5.39799 0
M  V30 7728 H 718.388 -0.787662 -2.83149 0
M  V30 7729 H 715.902 -0.531344 -1.53462 0
M  V30 7730 H 717.899 1.42437 -3.91813 0
M  V30 7731 H 716.559 1.69074 -2.77208 0
M  V30 7732 H 717.57 -1.2377 -5.02893 0
M  V30 7733 H 714.247 1.13644 -4.01735 0
M  V30 7734 H 715.637 -2.15384 -6.36443 0
M  V30 7735 N 718.357 1.51182 -0.445186 0
M  V30 7736 C 719.605 2.01753 0.11841 0
M  V30 7737 C 719.926 1.33087 1.42523 0
M  V30 7738 O 719.196 0.467891 1.9023 0
M  V30 7739 H 717.776 0.745536 0.0467492 0
M  V30 7740 H 720.438 1.85765 -0.589688 0
M  V30 7741 H 719.534 3.10762 0.288665 0
M  V30 7742 N 719.835 0.176821 1.56605 0
M  V30 7743 C 721.065 -0.472142 2.01133 0
M  V30 7744 C 721.473 -1.56979 1.05614 0
M  V30 7745 O 720.816 -1.83632 0.0500137 0
M  V30 7746 C 720.878 -1.10547 3.42081 0
M  V30 7747 C 720.542 -0.148806 4.56758 0
M  V30 7748 C 721.539 0.634939 5.16008 0
M  V30 7749 C 719.224 -0.0430325 5.02282 0
M  V30 7750 C 721.218 1.5116 6.19217 0
M  V30 7751 C 718.905 0.83721 6.05338 0
M  V30 7752 C 719.903 1.61311 6.63677 0
M  V30 7753 O 719.591 2.47863 7.64735 0
M  V30 7754 H 719.323 -0.124725 0.664394 0
M  V30 7755 H 721.877 0.277329 2.03519 0
M  V30 7756 H 720.107 -1.90318 3.36625 0
M  V30 7757 H 721.796 -1.6572 3.70529 0
M  V30 7758 H 722.562 0.563424 4.81716 0
M  V30 7759 H 718.441 -0.636753 4.56581 0
M  V30 7760 H 721.985 2.11767 6.64681 0
M  V30 7761 H 717.882 0.909908 6.39055 0
M  V30 7762 H 718.65 2.4144 7.8208 0
M  V30 7763 N 721.313 -1.57302 -0.09688 0
M  V30 7764 C 722.59 -1.7701 -0.832272 0
M  V30 7765 C 722.97 -0.758025 -1.97021 0
M  V30 7766 O 722.318 0.213824 -2.27497 0
M  V30 7767 C 722.528 -3.22725 -1.32851 0
M  V30 7768 C 723.876 -3.85856 -1.772 0
M  V30 7769 O 724.9 -3.26464 -1.42478 0
M  V30 7770 O 723.759 -4.90295 -2.41398 0
M  V30 7771 H 720.853 -0.725558 -0.396856 0
M  V30 7772 H 723.399 -1.69516 -0.0789005 0
M  V30 7773 H 722.171 -3.87921 -0.51312 0
M  V30 7774 H 721.794 -3.34845 -2.14394 0
M  V30 7775 N 722.791 0.367657 -1.53252 0
M  V30 7776 C 723.738 1.45028 -1.79543 0
M  V30 7777 C 724.708 1.53288 -0.63969 0
M  V30 7778 O 725.893 1.69209 -0.881653 0
M  V30 7779 C 723.033 2.82 -1.98923 0
M  V30 7780 C 722.146 2.82722 -3.26638 0
M  V30 7781 C 721.281 4.11257 -3.36216 0
M  V30 7782 C 720.32 4.06113 -4.57972 0
M  V30 7783 N 719.457 5.26293 -4.64715 0
M  V30 7784 H 724.297 1.21908 -2.71923 0
M  V30 7785 H 721.834 0.591011 -1.34705 0
M  V30 7786 H 723.792 3.61568 -2.08146 0
M  V30 7787 H 722.422 3.03523 -1.09881 0
M  V30 7788 H 721.474 1.95399 -3.26379 0
M  V30 7789 H 722.786 2.74794 -4.16281 0
M  V30 7790 H 721.94 4.99239 -3.44739 0
M  V30 7791 H 720.679 4.21935 -2.44586 0
M  V30 7792 H 719.684 3.16517 -4.49552 0
M  V30 7793 H 720.909 3.97039 -5.50942 0
M  V30 7794 H 718.855 5.37561 -3.75985 0
M  V30 7795 H 718.772 5.20526 -5.4826 0
M  V30 7796 H 720.04 6.16113 -4.77519 0
M  V30 7797 N 724.269 1.44576 0.627338 0
M  V30 7798 C 725.199 1.54562 1.75022 0
M  V30 7799 C 726.18 0.398378 1.65369 0
M  V30 7800 O 727.365 0.61899 1.84071 0
M  V30 7801 C 724.495 1.49309 3.13567 0
M  V30 7802 C 723.449 2.62549 3.38012 0
M  V30 7803 C 722.775 2.42348 4.76625 0
M  V30 7804 C 724.075 4.04678 3.30202 0
M  V30 7805 H 725.769 2.4855 1.66922 0
M  V30 7806 H 723.315 1.19624 0.801636 0
M  V30 7807 H 725.268 1.54895 3.919 0
M  V30 7808 H 723.992 0.518392 3.2246 0
M  V30 7809 H 722.651 2.56358 2.62061 0
M  V30 7810 H 722.299 1.43062 4.82226 0
M  V30 7811 H 721.999 3.18273 4.93939 0
M  V30 7812 H 723.523 2.49758 5.57183 0
M  V30 7813 H 724.937 4.12217 3.98435 0
M  V30 7814 H 723.334 4.80836 3.5905 0
M  V30 7815 H 724.404 4.2798 2.27949 0
M  V30 7816 N 725.747 -0.868086 1.31537 0
M  V30 7817 C 726.994 -1.62127 1.2133 0
M  V30 7818 C 727.322 -1.93158 -0.2281 0
M  V30 7819 O 726.577 -1.5632 -1.1774 0
M  V30 7820 C 726.876 -2.95889 2.0046 0
M  V30 7821 C 726.542 -2.84343 3.49943 0
M  V30 7822 C 725.204 -2.80901 3.90702 0
M  V30 7823 C 727.556 -2.71243 4.45058 0
M  V30 7824 C 724.884 -2.6222 5.24841 0
M  V30 7825 C 727.236 -2.54098 5.79325 0
M  V30 7826 C 725.9 -2.4904 6.19302 0
M  V30 7827 H 725.17 -0.593265 0.443979 0
M  V30 7828 H 727.817 -1.00803 1.62822 0
M  V30 7829 H 726.122 -3.61259 1.51655 0
M  V30 7830 H 727.819 -3.53161 1.89942 0
M  V30 7831 H 724.409 -2.8784 3.17563 0
M  V30 7832 H 728.593 -2.72956 4.14498 0
M  V30 7833 H 723.849 -2.56731 5.54887 0
M  V30 7834 H 728.023 -2.42938 6.52652 0
M  V30 7835 H 725.65 -2.34324 7.23185 0
M  V30 7836 N 727.225 -1.14528 -1.08264 0
M  V30 7837 C 728.641 -0.885976 -1.3275 0
M  V30 7838 C 728.841 0.472096 -1.95892 0
M  V30 7839 O 727.897 1.21606 -2.21288 0
M  V30 7840 C 729.21 -2.01982 -2.22764 0
M  V30 7841 C 730.758 -2.05329 -2.36239 0
M  V30 7842 C 731.233 -3.1801 -3.29596 0
M  V30 7843 N 732.724 -3.17598 -3.37173 0
M  V30 7844 C 733.459 -4.01426 -4.09444 0
M  V30 7845 N 732.955 -4.95297 -4.8441 0
M  V30 7846 N 734.748 -3.89482 -4.0529 0
M  V30 7847 H 726.899 -2.01996 -0.656607 0
M  V30 7848 H 729.162 -0.880274 -0.351884 0
M  V30 7849 H 728.868 -2.99964 -1.83615 0
M  V30 7850 H 728.742 -1.94421 -3.23234 0
M  V30 7851 H 731.129 -1.07953 -2.74646 0
M  V30 7852 H 731.21 -2.1696 -1.35506 0
M  V30 7853 H 730.854 -4.15633 -2.9191 0
M  V30 7854 H 730.784 -3.03616 -4.30261 0
M  V30 7855 H 733.275 -2.4961 -2.83731 0
M  V30 7856 H 733.588 -5.55723 -5.37021 0
M  V30 7857 H 731.933 -4.99293 -4.83457 0
M  V30 7858 H 735.124 -3.15465 -3.45832 0
M  V30 7859 H 735.297 -4.55039 -4.6135 0
M  V30 7860 N 728.703 1.26451 -0.940633 0
M  V30 7861 C 729.613 2.30128 -0.455881 0
M  V30 7862 C 730.629 1.67536 0.469867 0
M  V30 7863 O 731.805 1.98344 0.349529 0
M  V30 7864 C 728.87 3.45634 0.271648 0
M  V30 7865 C 727.931 4.23709 -0.690594 0
M  V30 7866 C 727.164 5.337 0.00231047 0
M  V30 7867 O 727.387 5.57215 1.21935 0
M  V30 7868 O 726.321 5.98091 -0.676111 0
M  V30 7869 H 730.147 2.73655 -1.31707 0
M  V30 7870 H 727.732 1.3164 -0.706497 0
M  V30 7871 H 729.614 4.15853 0.681486 0
M  V30 7872 H 728.289 3.04138 1.10824 0
M  V30 7873 H 727.196 3.55974 -1.15037 0
M  V30 7874 H 728.529 4.68953 -1.49478 0
M  V30 7875 N 730.181 0.707592 1.40822 0
M  V30 7876 C 731.111 0.0644925 2.33411 0
M  V30 7877 C 732.092 -0.754205 1.52466 0
M  V30 7878 O 733.277 -0.704749 1.80961 0
M  V30 7879 C 730.407 -0.863865 3.36385 0
M  V30 7880 C 729.361 -0.15138 4.27732 0
M  V30 7881 C 728.687 -1.19491 5.21177 0
M  V30 7882 C 729.987 0.989607 5.12839 0
M  V30 7883 H 731.681 0.837829 2.87438 0
M  V30 7884 H 729.227 0.404346 1.38207 0
M  V30 7885 H 731.18 -1.32309 4.0009 0
M  V30 7886 H 729.904 -1.66901 2.80734 0
M  V30 7887 H 728.563 0.287937 3.65467 0
M  V30 7888 H 728.211 -1.9929 4.61836 0
M  V30 7889 H 727.911 -0.723123 5.83134 0
M  V30 7890 H 729.435 -1.6544 5.8776 0
M  V30 7891 H 730.849 0.610114 5.70044 0
M  V30 7892 H 729.246 1.38926 5.83798 0
M  V30 7893 H 730.316 1.82389 4.49291 0
M  V30 7894 N 731.66 -1.50943 0.453197 0
M  V30 7895 C 732.59 -2.31005 -0.34044 0
M  V30 7896 C 733.571 -1.37112 -1.00669 0
M  V30 7897 O 734.756 -1.66033 -1.0073 0
M  V30 7898 C 731.886 -3.16358 -1.433 0
M  V30 7899 C 730.84 -4.18658 -0.889363 0
M  V30 7900 C 730.166 -4.92633 -2.07887 0
M  V30 7901 C 731.466 -5.22227 0.0871142 0
M  V30 7902 H 733.16 -2.97601 0.327723 0
M  V30 7903 H 730.706 -1.43119 0.159054 0
M  V30 7904 H 732.659 -3.71155 -1.99555 0
M  V30 7905 H 731.383 -2.47613 -2.12968 0
M  V30 7906 H 730.042 -3.64936 -0.348915 0
M  V30 7907 H 729.69 -4.20376 -2.76211 0
M  V30 7908 H 729.39 -5.61819 -1.72143 0
M  V30 7909 H 730.914 -5.50258 -2.64666 0
M  V30 7910 H 732.328 -5.72001 -0.385656 0
M  V30 7911 H 730.725 -5.99032 0.357926 0
M  V30 7912 H 731.795 -4.74077 1.01879 0
M  V30 7913 N 733.138 -0.185124 -1.56509 0
M  V30 7914 C 734.549 0.329221 -1.83774 0
M  V30 7915 C 734.9 1.62093 -1.10545 0
M  V30 7916 O 734.025 2.13334 -0.36298 0
M  V30 7917 C 734.62 0.604099 -3.33371 0
M  V30 7918 C 733.179 1.06284 -3.61083 0
M  V30 7919 C 732.326 0.10608 -2.77097 0
M  V30 7920 H 735.277 -0.409116 -1.53336 0
M  V30 7921 H 735.298 1.45458 -3.51599 0
M  V30 7922 H 734.81 -0.336201 -3.86641 0
M  V30 7923 H 732.911 2.01777 -3.13236 0
M  V30 7924 H 733.024 0.962453 -4.69333 0
M  V30 7925 H 731.388 0.606082 -2.47384 0
M  V30 7926 H 732.171 -0.828486 -3.33153 0
M  V30 7927 N 734.616 1.57351 0.0885366 0
M  V30 7928 C 735.841 1.91011 0.80805 0
M  V30 7929 C 736.266 0.780009 1.71165 0
M  V30 7930 O 735.624 -0.268083 1.79307 0
M  V30 7931 C 735.672 3.23562 1.59185 0
M  V30 7932 O 734.776 3.11615 2.7013 0
M  V30 7933 H 734.117 0.625943 0.221565 0
M  V30 7934 H 736.647 2.04507 0.0617954 0
M  V30 7935 H 736.657 3.5703 1.97468 0
M  V30 7936 H 735.332 4.05398 0.928741 0
M  V30 7937 H 733.909 2.89673 2.34827 0
M  V30 7938 N 736.094 -0.359525 1.53444 0
M  V30 7939 C 737.322 -1.12198 1.73837 0
M  V30 7940 C 737.737 -1.82854 0.470107 0
M  V30 7941 O 737.094 -1.73781 -0.557349 0
M  V30 7942 C 737.145 -2.14769 2.90786 0
M  V30 7943 O 736.866 -1.46989 4.12706 0
M  V30 7944 C 738.367 -3.03514 3.231 0
M  V30 7945 H 735.587 -0.33524 0.581253 0
M  V30 7946 H 738.131 -0.416598 2.00212 0
M  V30 7947 H 736.286 -2.80896 2.66788 0
M  V30 7948 H 736.7 -2.15378 4.78239 0
M  V30 7949 H 738.174 -3.71453 4.08322 0
M  V30 7950 H 738.651 -3.68658 2.38721 0
M  V30 7951 H 739.257 -2.42996 3.49046 0
M  V30 7952 N 737.572 -1.44907 -0.619662 0
M  V30 7953 C 738.818 -1.48512 -1.38102 0
M  V30 7954 C 739.151 -0.121686 -1.93818 0
M  V30 7955 O 738.426 0.862256 -1.74343 0
M  V30 7956 C 738.709 -2.55469 -2.53787 0
M  V30 7957 C 738.562 -4.01212 -2.03345 0
M  V30 7958 C 739.881 -2.58821 -3.55949 0
M  V30 7959 H 737 -0.540712 -0.500799 0
M  V30 7960 H 739.642 -1.7665 -0.69962 0
M  V30 7961 H 737.792 -2.31606 -3.11915 0
M  V30 7962 H 739.464 -4.36245 -1.49959 0
M  V30 7963 H 737.707 -4.12443 -1.34438 0
M  V30 7964 H 738.378 -4.71717 -2.86683 0
M  V30 7965 H 740.854 -2.80172 -3.07641 0
M  V30 7966 H 739.73 -3.35542 -4.34399 0
M  V30 7967 H 739.991 -1.63451 -4.10775 0
M  V30 7968 N 739.05 0.861098 -1.31996 0
M  V30 7969 C 739.997 1.96912 -1.20392 0
M  V30 7970 C 740.967 1.65869 -0.0875899 0
M  V30 7971 O 742.152 1.88992 -0.262011 0
M  V30 7972 C 739.292 3.32435 -0.926335 0
M  V30 7973 C 738.405 3.76018 -2.12684 0
M  V30 7974 C 737.54 5.00301 -1.78529 0
M  V30 7975 C 736.579 5.36357 -2.94937 0
M  V30 7976 N 735.716 6.51818 -2.60917 0
M  V30 7977 H 740.556 2.06169 -2.1517 0
M  V30 7978 H 738.093 1.00917 -1.07024 0
M  V30 7979 H 740.051 4.10478 -0.745917 0
M  V30 7980 H 738.681 3.22796 -0.0153578 0
M  V30 7981 H 737.733 2.93683 -2.41774 0
M  V30 7982 H 739.045 3.98664 -2.99781 0
M  V30 7983 H 738.199 5.86034 -1.57001 0
M  V30 7984 H 736.938 4.79578 -0.886356 0
M  V30 7985 H 735.943 4.49139 -3.17103 0
M  V30 7986 H 737.168 5.59041 -3.85552 0
M  V30 7987 H 735.114 6.32624 -1.73558 0
M  V30 7988 H 735.031 6.7445 -3.41544 0
M  V30 7989 H 736.299 7.4072 -2.42804 0
M  V30 7990 N 740.528 1.15101 1.07655 0
M  V30 7991 C 741.438 0.858869 2.18313 0
M  V30 7992 C 742.454 -0.163641 1.73229 0
M  V30 7993 O 743.63 0.00969541 2.01398 0
M  V30 7994 C 740.695 0.34893 3.4494 0
M  V30 7995 C 739.756 1.43495 4.04608 0
M  V30 7996 C 738.989 0.949253 5.2519 0
M  V30 7997 O 739.212 -0.20636 5.70027 0
M  V30 7998 O 738.146 1.73161 5.76454 0
M  V30 7999 H 741.972 1.78386 2.45788 0
M  V30 8000 H 739.557 0.929876 1.16934 0
M  V30 8001 H 741.439 0.070851 4.2134 0
M  V30 8002 H 740.114 -0.548237 3.19024 0
M  V30 8003 H 739.021 1.7666 3.29761 0
M  V30 8004 H 740.354 2.30692 4.3479 0
M  V30 8005 N 742.006 -1.2595 0.947325 0
M  V30 8006 C 743.253 -1.93463 0.598178 0
M  V30 8007 C 743.581 -1.74271 -0.863705 0
M  V30 8008 O 742.836 -1.07684 -1.63409 0
M  V30 8009 C 743.135 -3.46034 0.894158 0
M  V30 8010 C 742.801 -3.85373 2.3409 0
M  V30 8011 C 741.463 -3.95823 2.73637 0
M  V30 8012 C 743.815 -4.04986 3.2808 0
M  V30 8013 C 741.143 -4.23288 4.06257 0
M  V30 8014 C 743.495 -4.3394 4.60303 0
M  V30 8015 C 742.159 -4.42606 4.99656 0
M  V30 8016 H 741.429 -0.707933 0.218889 0
M  V30 8017 H 744.076 -1.4964 1.19499 0
M  V30 8018 H 742.381 -3.9121 0.214874 0
M  V30 8019 H 744.078 -3.96445 0.602698 0
M  V30 8020 H 740.668 -3.7779 2.02417 0
M  V30 8021 H 744.852 -3.96333 2.9872 0
M  V30 8022 H 740.108 -4.28211 4.36401 0
M  V30 8023 H 744.282 -4.48061 5.33118 0
M  V30 8024 H 741.909 -4.63641 6.02446 0
M  V30 8025 N 743.484 -0.715051 -1.40445 0
M  V30 8026 C 744.761 -0.181503 -1.94756 0
M  V30 8027 C 745.141 1.31268 -1.65324 0
M  V30 8028 O 744.489 2.0686 -0.970631 0
M  V30 8029 C 744.699 -0.493663 -3.45491 0
M  V30 8030 C 746.047 -0.432032 -4.22396 0
M  V30 8031 O 747.071 -0.429692 -3.53599 0
M  V30 8032 O 745.93 -0.409091 -5.44967 0
M  V30 8033 H 743.024 -0.0263989 -0.826579 0
M  V30 8034 H 745.57 -0.792546 -1.50056 0
M  V30 8035 H 744.342 -1.52713 -3.6027 0
M  V30 8036 H 743.965 0.14737 -3.97327 0
M  V30 8037 N 744.962 1.50701 -0.461195 0
M  V30 8038 C 746.187 2.07171 0.0974773 0
M  V30 8039 C 746.612 1.32391 1.3362 0
M  V30 8040 O 745.97 0.368676 1.77512 0
M  V30 8041 C 746.018 3.58651 0.374409 0
M  V30 8042 O 745.122 3.85816 1.4567 0
M  V30 8043 H 744.463 0.663944 -0.00862047 0
M  V30 8044 H 746.993 1.94021 -0.649394 0
M  V30 8045 H 747.003 4.03295 0.617843 0
M  V30 8046 H 745.678 4.12498 -0.530829 0
M  V30 8047 H 744.255 3.53018 1.20136 0
M  V30 8048 N 746.441 0.193421 1.56409 0
M  V30 8049 C 747.718 -0.493318 1.89277 0
M  V30 8050 C 748.098 -1.79765 1.10669 0
M  V30 8051 O 747.446 -2.27558 0.207274 0
M  V30 8052 C 747.656 -0.713732 3.41624 0
M  V30 8053 C 749.004 -1.03385 4.11821 0
M  V30 8054 O 750.028 -0.801511 3.47065 0
M  V30 8055 O 748.887 -1.47327 5.26267 0
M  V30 8056 H 745.981 -0.256973 0.786062 0
M  V30 8057 H 748.527 0.23351 1.68086 0
M  V30 8058 H 747.299 0.207446 3.9075 0
M  V30 8059 H 746.922 -1.49308 3.68501 0
M  V30 8060 N 747.919 -1.57396 -0.0801906 0
M  V30 8061 C 749.335 -1.53564 -0.434778 0
M  V30 8062 C 749.535 -0.912372 -1.79661 0
M  V30 8063 O 748.591 -0.511268 -2.4727 0
M  V30 8064 C 749.904 -2.98244 -0.383561 0
M  V30 8065 C 751.452 -3.09536 -0.46435 0
M  V30 8066 C 751.927 -4.55851 -0.443128 0
M  V30 8067 N 753.418 -4.60456 -0.503448 0
M  V30 8068 C 754.153 -5.71135 -0.509106 0
M  V30 8069 N 753.649 -6.91203 -0.47008 0
M  V30 8070 N 755.442 -5.59353 -0.555035 0
M  V30 8071 H 747.593 -1.96281 0.811635 0
M  V30 8072 H 749.856 -0.898041 0.303689 0
M  V30 8073 H 749.562 -3.47369 0.550236 0
M  V30 8074 H 749.436 -3.57705 -1.19694 0
M  V30 8075 H 751.823 -2.6039 -1.38857 0
M  V30 8076 H 751.904 -2.53 0.377445 0
M  V30 8077 H 751.548 -5.05653 0.477207 0
M  V30 8078 H 751.478 -5.10242 -1.30234 0
M  V30 8079 H 753.969 -3.74048 -0.538199 0
M  V30 8080 H 754.282 -7.7132 -0.478091 0
M  V30 8081 H 752.627 -6.93625 -0.436897 0
M  V30 8082 H 755.818 -4.64453 -0.583158 0
M  V30 8083 H 755.991 -6.4561 -0.555976 0
M  V30 8084 N 749.397 0.351382 -1.53633 0
M  V30 8085 C 750.644 1.0925 -1.70502 0
M  V30 8086 C 750.972 1.88881 -0.464123 0
M  V30 8087 O 750.227 1.87693 0.554077 0
M  V30 8088 C 750.526 2.06744 -2.91533 0
M  V30 8089 C 750.192 1.43484 -4.27461 0
M  V30 8090 C 748.854 1.2596 -4.64422 0
M  V30 8091 C 751.206 0.978436 -5.11934 0
M  V30 8092 C 748.534 0.614017 -5.83478 0
M  V30 8093 C 750.886 0.346795 -6.31649 0
M  V30 8094 C 749.55 0.15917 -6.6731 0
M  V30 8095 H 748.82 0.399773 -0.623909 0
M  V30 8096 H 751.467 0.372656 -1.87839 0
M  V30 8097 H 749.772 2.85082 -2.68767 0
M  V30 8098 H 751.469 2.64066 -3.01778 0
M  V30 8099 H 748.059 1.5812 -3.98367 0
M  V30 8100 H 752.243 1.1017 -4.83918 0
M  V30 8101 H 747.499 0.457194 -6.09688 0
M  V30 8102 H 751.673 -0.0149864 -6.96398 0
M  V30 8103 H 749.3 -0.343129 -7.59425 0
M  V30 8104 N 750.875 1.45233 0.611969 0
M  V30 8105 C 752.105 1.52318 1.39581 0
M  V30 8106 C 752.513 0.153093 1.8858 0
M  V30 8107 O 751.856 -0.854792 1.62601 0
M  V30 8108 C 751.918 2.4426 2.63775 0
M  V30 8109 C 751.582 3.91079 2.36445 0
M  V30 8110 C 752.579 4.81099 1.97079 0
M  V30 8111 C 750.264 4.35958 2.49492 0
M  V30 8112 C 752.258 6.14002 1.71115 0
M  V30 8113 C 749.945 5.68903 2.23142 0
M  V30 8114 C 750.943 6.57744 1.84015 0
M  V30 8115 O 750.631 7.88226 1.5797 0
M  V30 8116 H 750.363 0.518428 0.43383 0
M  V30 8117 H 752.917 1.91067 0.753837 0
M  V30 8118 H 751.147 2.00474 3.30677 0
M  V30 8119 H 752.836 2.42077 3.25812 0
M  V30 8120 H 753.602 4.47692 1.86539 0
M  V30 8121 H 749.481 3.67053 2.78914 0
M  V30 8122 H 753.025 6.83305 1.405 0
M  V30 8123 H 748.922 6.01866 2.33297 0
M  V30 8124 H 749.69 8.00211 1.72058 0
M  V30 8125 N 752.353 -0.854086 1.3245 0
M  V30 8126 C 753.599 -1.61069 1.23225 0
M  V30 8127 C 753.932 -1.93111 -0.205349 0
M  V30 8128 O 753.207 -1.57397 -1.14265 0
M  V30 8129 C 753.49 -2.93065 2.09249 0
M  V30 8130 C 753.343 -2.67801 3.6139 0
M  V30 8131 C 754.662 -3.94341 1.95406 0
M  V30 8132 H 751.781 -0.584449 0.448986 0
M  V30 8133 H 754.423 -0.986189 1.62402 0
M  V30 8134 H 752.573 -3.46364 1.75967 0
M  V30 8135 H 754.245 -2.21052 4.04887 0
M  V30 8136 H 752.488 -2.01756 3.84027 0
M  V30 8137 H 753.159 -3.6179 4.16907 0
M  V30 8138 H 755.635 -3.50301 2.24562 0
M  V30 8139 H 754.511 -4.84555 2.57872 0
M  V30 8140 H 754.772 -4.32382 0.921865 0
M  V30 8141 N 753.831 -1.1567 -1.07043 0
M  V30 8142 C 754.781 -0.824733 -2.12561 0
M  V30 8143 C 755.765 0.19243 -1.59745 0
M  V30 8144 O 756.957 -0.00728759 -1.76998 0
M  V30 8145 C 754.086 -0.31921 -3.41813 0
M  V30 8146 C 753.172 -1.36671 -4.01475 0
M  V30 8147 N 753.563 -2.57493 -4.35351 0
M  V30 8148 C 751.861 -1.22018 -4.28984 0
M  V30 8149 C 752.562 -3.24658 -4.82672 0
M  V30 8150 N 751.538 -2.52043 -4.81638 0
M  V30 8151 H 755.34 -1.74363 -2.3659 0
M  V30 8152 H 752.854 -1.04262 -1.24511 0
M  V30 8153 H 754.851 -0.0630216 -4.16852 0
M  V30 8154 H 753.511 0.593708 -3.19226 0
M  V30 8155 H 754.522 -2.94612 -4.25939 0
M  V30 8156 H 751.199 -0.367414 -4.1588 0
M  V30 8157 H 752.589 -4.2775 -5.1815 0
M  V30 8158 N 755.309 1.25446 -0.953992 0
M  V30 8159 C 756.534 1.97755 -0.625129 0
M  V30 8160 C 756.959 1.70437 0.795787 0
M  V30 8161 O 756.317 0.95992 1.53803 0
M  V30 8162 C 756.365 3.49463 -0.889251 0
M  V30 8163 O 755.469 4.12387 0.0322757 0
M  V30 8164 H 754.81 0.61998 -0.237742 0
M  V30 8165 H 757.34 1.59582 -1.28041 0
M  V30 8166 H 757.35 3.99772 -0.815263 0
M  V30 8167 H 756.025 3.68676 -1.92487 0
M  V30 8168 H 754.602 3.72782 -0.0938625 0
M  V30 8169 N 756.787 0.722489 1.40064 0
M  V30 8170 C 758.012 0.273446 2.05589 0
M  V30 8171 C 758.437 -1.07875 1.54093 0
M  V30 8172 O 757.795 -1.68095 0.679252 0
M  V30 8173 C 757.843 0.271023 3.5958 0
M  V30 8174 O 756.947 -0.745499 4.05606 0
M  V30 8175 H 756.288 0.126856 0.65177 0
M  V30 8176 H 758.818 0.984906 1.79334 0
M  V30 8177 H 758.828 0.111084 4.07849 0
M  V30 8178 H 757.503 1.25776 3.96425 0
M  V30 8179 H 756.08 -0.552719 3.68781 0
M  V30 8180 N 758.265 -1.50454 0.469181 0
M  V30 8181 C 759.676 -1.86695 0.0136034 0
M  V30 8182 C 760.027 -1.38413 -1.39055 0
M  V30 8183 O 759.152 -0.748294 -2.03051 0
M  V30 8184 C 759.747 -3.38795 0.0179098 0
M  V30 8185 C 758.306 -3.74455 -0.382191 0
M  V30 8186 C 757.453 -2.74338 0.404207 0
M  V30 8187 H 760.404 -1.43225 0.683547 0
M  V30 8188 H 760.425 -3.72321 -0.78468 0
M  V30 8189 H 759.937 -3.73906 1.04 0
M  V30 8190 H 758.038 -3.44944 -1.4087 0
M  V30 8191 H 758.151 -4.79025 -0.084862 0
M  V30 8192 H 756.515 -2.54305 -0.141829 0
M  V30 8193 H 757.298 -3.12293 1.42577 0
M  V30 8194 N 759.743 -0.201713 -1.56304 0
M  V30 8195 C 760.973 0.440084 -2.01858 0
M  V30 8196 C 761.381 1.55279 -1.08098 0
M  V30 8197 O 760.724 1.83529 -0.0792216 0
M  V30 8198 C 760.786 1.05091 -3.43797 0
M  V30 8199 C 760.45 0.0761208 -4.56937 0
M  V30 8200 C 761.447 -0.716951 -5.14933 0
M  V30 8201 C 759.132 -0.0368815 -5.02286 0
M  V30 8202 C 761.126 -1.60993 -6.16733 0
M  V30 8203 C 758.813 -0.933409 -6.03929 0
M  V30 8204 C 759.811 -1.71849 -6.61027 0
M  V30 8205 O 759.499 -2.59998 -7.60695 0
M  V30 8206 H 759.231 0.114139 -0.666294 0
M  V30 8207 H 761.785 -0.309672 -2.03052 0
M  V30 8208 H 760.015 1.84938 -3.3961 0
M  V30 8209 H 761.704 1.59804 -3.73118 0
M  V30 8210 H 762.47 -0.63999 -4.80759 0
M  V30 8211 H 758.349 0.564034 -4.57537 0
M  V30 8212 H 761.893 -2.22315 -6.61227 0
M  V30 8213 H 757.79 -1.01146 -6.37526 0
M  V30 8214 H 758.558 -2.53851 -7.7814 0
M  V30 8215 N 761.222 1.57436 0.0718424 0
M  V30 8216 C 762.152 2.06724 1.08571 0
M  V30 8217 C 763.133 0.960731 1.40371 0
M  V30 8218 O 764.318 1.23345 1.49999 0
M  V30 8219 C 761.448 2.51112 2.39916 0
M  V30 8220 C 760.402 3.65639 2.22469 0
M  V30 8221 C 759.728 3.96082 3.59198 0
M  V30 8222 C 761.028 4.95687 1.64596 0
M  V30 8223 H 762.722 2.91679 0.675569 0
M  V30 8224 H 760.268 1.40319 0.32352 0
M  V30 8225 H 762.221 2.84206 3.11135 0
M  V30 8226 H 760.945 1.63186 2.8291 0
M  V30 8227 H 759.604 3.32828 1.53691 0
M  V30 8228 H 759.252 3.05287 3.99761 0
M  V30 8229 H 758.952 4.73199 3.48362 0
M  V30 8230 H 760.476 4.31672 4.31847 0
M  V30 8231 H 761.89 5.27011 2.25681 0
M  V30 8232 H 760.287 5.77126 1.64457 0
M  V30 8233 H 761.357 4.8108 0.60744 0
M  V30 8234 N 762.7 -0.34323 1.53817 0
M  V30 8235 C 763.663 -1.40444 1.8113 0
M  V30 8236 C 764.663 -1.45604 0.682366 0
M  V30 8237 O 765.853 -1.45974 0.950649 0
M  V30 8238 C 762.985 -2.79369 1.95361 0
M  V30 8239 H 764.178 -1.17489 2.75928 0
M  V30 8240 H 761.731 -0.577636 1.45234 0
M  V30 8241 H 762.466 -3.07607 1.02707 0
M  V30 8242 H 762.251 -2.7702 2.77493 0
M  V30 8243 H 763.741 -3.56178 2.18008 0
M  V30 8244 N 764.178 -1.45556 -0.604258 0
M  V30 8245 C 765.126 -1.5482 -1.7359 0
M  V30 8246 C 766.12 -0.417966 -1.64163 0
M  V30 8247 O 767.326 -0.594007 -1.69916 0
M  V30 8248 H 763.701 -0.486352 -0.573556 0
M  V30 8249 H 765.672 -2.5001 -1.62903 0
M  V30 8250 C 764.421 -1.53521 -3.11972 0
M  V30 8251 H 763.744 -2.39818 -3.19886 0
M  V30 8252 H 765.184 -1.64061 -3.90973 0
M  V30 8253 C 763.643 -0.260191 -3.35894 0
M  V30 8254 O 764.173 0.658582 -3.96265 0
M  V30 8255 N 762.379 -0.154839 -2.90187 0
M  V30 8256 H 761.926 -0.903378 -2.4124 0
M  V30 8257 H 761.884 0.697437 -3.06567 0
M  V30 8258 N 765.656 0.84705 -1.32902 0
M  V30 8259 C 766.902 1.60389 -1.25088 0
M  V30 8260 C 767.257 1.91521 0.183723 0
M  V30 8261 O 766.55 1.55197 1.12359 0
M  V30 8262 C 766.744 2.92663 -2.05142 0
M  V30 8263 C 766.573 2.74449 -3.56241 0
M  V30 8264 C 765.343 2.72434 -4.25567 0
M  V30 8265 C 767.541 2.47666 -4.5074 0
M  V30 8266 N 765.523 2.45512 -5.62669 0
M  V30 8267 C 766.894 2.30219 -5.75673 0
M  V30 8268 C 768.949 2.33196 -4.39914 0
M  V30 8269 C 767.652 1.99772 -6.91002 0
M  V30 8270 C 769.678 2.0414 -5.5505 0
M  V30 8271 C 769.04 1.875 -6.78987 0
M  V30 8272 H 765.139 0.590296 -0.512908 0
M  V30 8273 H 767.723 0.995058 -1.67352 0
M  V30 8274 H 765.894 3.51511 -1.65211 0
M  V30 8275 H 767.626 3.5777 -1.89163 0
M  V30 8276 H 764.381 2.85647 -3.7776 0
M  V30 8277 H 764.805 2.34958 -6.3492 0
M  V30 8278 H 769.447 2.44777 -3.44738 0
M  V30 8279 H 767.165 1.86928 -7.86183 0
M  V30 8280 H 770.751 1.93711 -5.48605 0
M  V30 8281 H 769.631 1.65339 -7.66572 0
M  V30 8282 N 767.134 1.16236 1.06428 0
M  V30 8283 C 768.382 0.941171 1.78847 0
M  V30 8284 C 768.703 -0.53248 1.87589 0
M  V30 8285 O 767.973 -1.38686 1.38358 0
M  V30 8286 H 766.553 0.345228 0.66244 0
M  V30 8287 H 769.215 1.46479 1.28569 0
M  V30 8288 H 768.311 1.35871 2.80972 0
M  V30 8289 N 768.612 -1.24939 0.960631 0
M  V30 8290 C 770.028 -1.45039 0.666018 0
M  V30 8291 C 770.228 -1.86021 -0.774501 0
M  V30 8292 O 769.284 -1.99392 -1.54916 0
M  V30 8293 C 770.597 -2.51775 1.64408 0
M  V30 8294 C 772.145 -2.6561 1.65592 0
M  V30 8295 C 772.62 -3.75536 2.62177 0
M  V30 8296 N 774.111 -3.82954 2.60577 0
M  V30 8297 C 774.846 -4.67517 3.31987 0
M  V30 8298 N 774.342 -5.56321 4.1289 0
M  V30 8299 N 776.135 -4.61535 3.20845 0
M  V30 8300 H 768.286 -0.96632 1.89145 0
M  V30 8301 H 770.549 -0.486034 0.813926 0
M  V30 8302 H 770.255 -2.28534 2.67329 0
M  V30 8303 H 770.129 -3.49804 1.41128 0
M  V30 8304 H 772.516 -2.88212 0.633846 0
M  V30 8305 H 772.597 -1.67962 1.92931 0
M  V30 8306 H 772.241 -3.53684 3.64514 0
M  V30 8307 H 772.171 -4.72682 2.32119 0
M  V30 8308 H 774.662 -3.19478 2.01847 0
M  V30 8309 H 774.975 -6.17787 4.64283 0
M  V30 8310 H 773.32 -5.5601 4.16987 0
M  V30 8311 H 776.511 -3.91169 2.57108 0
M  V30 8312 H 776.684 -5.27214 3.76762 0
M  V30 8313 N 770.09 -0.729906 -1.39679 0
M  V30 8314 C 771.501 -0.346241 -1.83461 0
M  V30 8315 C 771.852 1.1215 -1.60987 0
M  V30 8316 O 770.977 1.86456 -1.09832 0
M  V30 8317 C 771.572 -0.621656 -3.33048 0
M  V30 8318 C 770.131 -0.291543 -3.75269 0
M  V30 8319 C 769.278 -0.886844 -2.62736 0
M  V30 8320 H 772.229 -0.927949 -1.28743 0
M  V30 8321 H 772.25 0.108301 -3.80346 0
M  V30 8322 H 771.762 -1.68996 -3.49373 0
M  V30 8323 H 769.863 0.771133 -3.64533 0
M  V30 8324 H 769.976 -0.770544 -4.72863 0
M  V30 8325 H 768.34 -0.313839 -2.52759 0
M  V30 8326 H 769.123 -1.95971 -2.81869 0
M  V30 8327 N 771.568 1.50203 -0.477153 0
M  V30 8328 C 772.478 2.32421 0.319027 0
M  V30 8329 C 773.494 1.43075 0.990233 0
M  V30 8330 O 774.67 1.76123 0.976873 0
M  V30 8331 C 771.735 3.17909 1.38328 0
M  V30 8332 C 770.796 4.23082 0.728036 0
M  V30 8333 C 770.029 5.04484 1.74158 0
M  V30 8334 O 770.252 4.8705 2.96881 0
M  V30 8335 O 769.186 5.8747 1.31006 0
M  V30 8336 H 773.012 3.01638 -0.353281 0
M  V30 8337 H 770.597 1.47478 -0.238891 0
M  V30 8338 H 772.479 3.70937 1.9996 0
M  V30 8339 H 771.154 2.51413 2.03895 0
M  V30 8340 H 770.061 3.7403 0.07261 0
M  V30 8341 H 771.394 4.92065 0.115216 0
M  V30 8342 N 773.046 0.209999 1.56195 0
M  V30 8343 C 774.271 -0.433064 2.02828 0
M  V30 8344 C 774.696 -1.5337 1.08901 0
M  V30 8345 O 774.054 -1.81144 0.0751132 0
M  V30 8346 C 774.102 -0.952635 3.47789 0
M  V30 8347 O 773.206 -2.0647 3.56993 0
M  V30 8348 H 772.547 -0.0994594 0.656509 0
M  V30 8349 H 775.077 0.32525 2.01998 0
M  V30 8350 H 775.087 -1.26542 3.8788 0
M  V30 8351 H 773.762 -0.147007 4.1564 0
M  V30 8352 H 772.339 -1.75942 3.28784 0
M  V30 8353 N 774.524 -1.57472 -0.0634922 0
M  V30 8354 C 775.77 -1.88792 -0.756903 0
M  V30 8355 C 776.125 -0.804679 -1.74765 0
M  V30 8356 O 775.418 0.19033 -1.90652 0
M  V30 8357 C 775.612 -3.24521 -1.49736 0
M  V30 8358 C 775.441 -4.45946 -0.579833 0
M  V30 8359 C 774.211 -5.04848 -0.213667 0
M  V30 8360 C 776.409 -5.14143 0.12703 0
M  V30 8361 N 774.391 -6.09795 0.708712 0
M  V30 8362 C 775.762 -6.1334 0.906295 0
M  V30 8363 C 777.817 -4.97508 0.197625 0
M  V30 8364 C 776.52 -6.97697 1.74961 0
M  V30 8365 C 778.546 -5.82398 1.02794 0
M  V30 8366 C 777.908 -6.81139 1.79523 0
M  V30 8367 H 774.007 -0.740235 -0.252142 0
M  V30 8368 H 776.591 -1.94692 -0.0181026 0
M  V30 8369 H 774.762 -3.19615 -2.20683 0
M  V30 8370 H 776.494 -3.43464 -2.14044 0
M  V30 8371 H 773.249 -4.70177 -0.568357 0
M  V30 8372 H 773.673 -6.66929 1.16339 0
M  V30 8373 H 778.315 -4.21077 -0.381261 0
M  V30 8374 H 776.033 -7.73496 2.33943 0
M  V30 8375 H 779.619 -5.71581 1.08565 0
M  V30 8376 H 778.499 -7.45687 2.42736 0
M  V30 8377 N 776.003 0.335068 -1.53997 0
M  V30 8378 C 777.251 1.07223 -1.71312 0
M  V30 8379 C 777.572 1.88911 -0.483486 0
M  V30 8380 O 776.842 1.89344 0.50257 0
M  V30 8381 H 775.422 0.398846 -0.63161 0
M  V30 8382 H 778.084 0.374288 -1.91272 0
M  V30 8383 H 777.18 1.7448 -2.58772 0
M  V30 8384 N 777.481 1.45874 0.596531 0
M  V30 8385 C 778.709 1.54013 1.38158 0
M  V30 8386 C 779.124 0.17648 1.87973 0
M  V30 8387 O 778.481 -0.823895 1.62844 0
M  V30 8388 C 778.532 2.53363 2.57855 0
M  V30 8389 O 778.253 3.8443 2.10108 0
M  V30 8390 C 779.754 2.71308 3.50581 0
M  V30 8391 H 776.974 0.521251 0.422538 0
M  V30 8392 H 779.518 1.9116 0.726493 0
M  V30 8393 H 777.673 2.19257 3.19382 0
M  V30 8394 H 778.087 4.38384 2.87958 0
M  V30 8395 H 779.561 3.44776 4.31084 0
M  V30 8396 H 780.038 1.77728 4.01633 0
M  V30 8397 H 780.644 3.06455 2.94899 0
M  V30 8398 N 778.959 -0.83999 1.33349 0
M  V30 8399 C 780.207 -1.59202 1.24496 0
M  V30 8400 C 780.528 -1.94077 -0.189499 0
M  V30 8401 O 779.798 -1.60868 -1.11796 0
M  V30 8402 H 778.378 -0.590276 0.457802 0
M  V30 8403 H 781.04 -1.00394 1.67054 0
M  V30 8404 H 780.136 -2.52247 1.83788 0
M  V30 8405 N 780.437 -1.16799 -1.0581 0
M  V30 8406 C 781.714 -0.862616 -1.75551 0
M  V30 8407 C 782.094 0.6385 -2.01212 0
M  V30 8408 O 781.442 1.58784 -1.64317 0
M  V30 8409 C 781.652 -1.6907 -3.05314 0
M  V30 8410 C 783 -1.90675 -3.79379 0
M  V30 8411 O 784.024 -1.65976 -3.15167 0
M  V30 8412 O 782.883 -2.32145 -4.94743 0
M  V30 8413 H 779.977 -0.318789 -0.763088 0
M  V30 8414 H 782.523 -1.27461 -1.12034 0
M  V30 8415 H 781.295 -2.70912 -2.82352 0
M  V30 8416 H 780.918 -1.27606 -3.76567 0
M  V30 8417 N 781.915 1.24427 -0.967243 0
M  V30 8418 C 783.14 1.9708 -0.646069 0
M  V30 8419 C 783.565 1.71272 0.777665 0
M  V30 8420 O 782.923 0.976179 1.52776 0
M  V30 8421 C 782.971 3.48501 -0.926266 0
M  V30 8422 O 782.075 4.12398 -0.0114653 0
M  V30 8423 H 781.416 0.617423 -0.244304 0
M  V30 8424 H 783.946 1.58215 -1.29727 0
M  V30 8425 H 783.956 3.98885 -0.857619 0
M  V30 8426 H 782.631 3.66613 -1.96386 0
M  V30 8427 H 781.208 3.72661 -0.133396 0
M  V30 8428 N 783.393 0.737304 1.3929 0
M  V30 8429 C 784.343 0.0748537 2.27877 0
M  V30 8430 C 785.327 -0.71022 1.44377 0
M  V30 8431 O 786.519 -0.578851 1.67267 0
M  V30 8432 C 783.648 -0.82991 3.33118 0
M  V30 8433 C 782.734 -0.0388619 4.24082 0
M  V30 8434 N 783.125 0.989182 4.96033 0
M  V30 8435 C 781.423 -0.268167 4.45193 0
M  V30 8436 C 782.124 1.46639 5.62914 0
M  V30 8437 N 781.1 0.784581 5.37908 0
M  V30 8438 H 784.902 0.862457 2.80961 0
M  V30 8439 H 782.416 0.571845 1.51999 0
M  V30 8440 H 784.413 -1.31999 3.95452 0
M  V30 8441 H 783.073 -1.61665 2.81593 0
M  V30 8442 H 784.084 1.3706 4.99435 0
M  V30 8443 H 780.761 -1.02953 4.04607 0
M  V30 8444 H 782.151 2.32182 6.30508 0
M  V30 8445 N 784.871 -1.49948 0.485112 0
M  V30 8446 C 785.819 -2.30449 -0.315609 0
M  V30 8447 C 786.813 -1.38351 -0.977516 0
M  V30 8448 O 788.019 -1.55477 -0.907019 0
M  V30 8449 H 784.394 -0.742262 -0.120629 0
M  V30 8450 H 786.365 -2.95925 0.383552 0
M  V30 8451 C 785.114 -3.19283 -1.37673 0
M  V30 8452 H 784.437 -3.90067 -0.876801 0
M  V30 8453 H 785.877 -3.78579 -1.90929 0
M  V30 8454 C 784.336 -2.37817 -2.38631 0
M  V30 8455 O 784.866 -2.0711 -3.44192 0
M  V30 8456 N 783.072 -2.00135 -2.107 0
M  V30 8457 H 782.619 -2.25307 -1.24878 0
M  V30 8458 H 782.577 -1.45933 -2.7848 0
M  V30 8459 N 786.349 -0.21828 -1.56081 0
M  V30 8460 C 787.595 0.408181 -1.99262 0
M  V30 8461 C 787.95 1.57618 -1.10337 0
M  V30 8462 O 787.243 1.90991 -0.15263 0
M  V30 8463 C 787.437 0.894782 -3.46018 0
M  V30 8464 C 787.266 -0.224528 -4.49139 0
M  V30 8465 C 786.036 -0.689843 -5.00569 0
M  V30 8466 C 788.234 -1.04165 -5.03641 0
M  V30 8467 N 786.216 -1.78455 -5.8739 0
M  V30 8468 C 787.587 -1.98529 -5.87355 0
M  V30 8469 C 789.642 -1.08146 -4.86013 0
M  V30 8470 C 788.345 -2.96549 -6.55325 0
M  V30 8471 C 790.371 -2.04982 -5.5474 0
M  V30 8472 C 789.733 -2.98086 -6.38219 0
M  V30 8473 H 785.832 0.116127 -0.77333 0
M  V30 8474 H 788.416 -0.3293 -1.91895 0
M  V30 8475 H 786.587 1.60163 -3.53839 0
M  V30 8476 H 788.319 1.49379 -3.76122 0
M  V30 8477 H 785.074 -0.279021 -4.72777 0
M  V30 8478 H 785.498 -2.33381 -6.35502 0
M  V30 8479 H 790.14 -0.375581 -4.21129 0
M  V30 8480 H 787.858 -3.68101 -7.19394 0
M  V30 8481 H 791.444 -2.08732 -5.43067 0
M  V30 8482 H 790.324 -3.71794 -6.90463 0
M  V30 8483 N 787.827 1.57504 0.0551401 0
M  V30 8484 C 789.075 1.87684 0.74962 0
M  V30 8485 C 789.396 0.812547 1.77264 0
M  V30 8486 O 788.666 -0.15694 1.9527 0
M  V30 8487 H 787.246 0.6926 0.279846 0
M  V30 8488 H 789.908 1.94881 0.0272745 0
M  V30 8489 H 789.004 2.85734 1.25548 0
M  V30 8490 N 789.305 -0.326896 1.54172 0
M  V30 8491 C 790.551 -1.06681 1.72473 0
M  V30 8492 C 790.884 -1.87779 0.49523 0
M  V30 8493 O 790.159 -1.87754 -0.507803 0
M  V30 8494 C 790.442 -1.99429 2.99834 0
M  V30 8495 C 790.295 -1.21682 4.33028 0
M  V30 8496 C 791.614 -2.99002 3.22933 0
M  V30 8497 H 788.733 -0.386438 0.627563 0
M  V30 8498 H 791.375 -0.343779 1.86864 0
M  V30 8499 H 789.525 -2.61081 2.87696 0
M  V30 8500 H 791.197 -0.625153 4.57044 0
M  V30 8501 H 789.44 -0.519045 4.30684 0
M  V30 8502 H 790.111 -1.89766 5.18356 0
M  V30 8503 H 792.587 -2.4747 3.34511 0
M  V30 8504 H 791.463 -3.61085 4.13412 0
M  V30 8505 H 791.724 -3.71281 2.40006 0
M  V30 8506 N 790.784 -1.46188 -0.588786 0
M  V30 8507 C 792.03 -1.52396 -1.34711 0
M  V30 8508 C 792.385 -0.170846 -1.9164 0
M  V30 8509 O 791.678 0.819714 -1.7318 0
M  V30 8510 C 791.872 -2.55364 -2.50048 0
M  V30 8511 C 791.701 -4.00554 -2.04417 0
M  V30 8512 C 790.471 -4.68334 -1.89715 0
M  V30 8513 C 792.669 -4.88533 -1.60747 0
M  V30 8514 N 790.651 -5.98167 -1.38091 0
M  V30 8515 C 792.022 -6.08143 -1.20672 0
M  V30 8516 C 794.077 -4.75236 -1.4851 0
M  V30 8517 C 792.78 -7.15927 -0.695782 0
M  V30 8518 C 794.806 -5.83085 -0.988196 0
M  V30 8519 C 794.168 -7.01864 -0.59719 0
M  V30 8520 H 790.267 -0.61252 -0.486151 0
M  V30 8521 H 792.851 -1.8277 -0.671063 0
M  V30 8522 H 791.022 -2.2691 -3.15225 0
M  V30 8523 H 792.754 -2.51603 -3.16983 0
M  V30 8524 H 789.509 -4.23763 -2.11476 0
M  V30 8525 H 789.933 -6.67254 -1.14458 0
M  V30 8526 H 794.575 -3.83801 -1.7736 0
M  V30 8527 H 792.293 -8.07135 -0.394857 0
M  V30 8528 H 795.879 -5.74836 -0.897504 0
M  V30 8529 H 794.759 -7.83895 -0.218621 0
M  V30 8530 N 792.262 0.832906 -1.33792 0
M  V30 8531 C 793.492 1.61813 -1.28453 0
M  V30 8532 C 793.9 1.88639 0.145595 0
M  V30 8533 O 793.243 1.47122 1.10004 0
M  V30 8534 C 793.305 2.98929 -1.99704 0
M  V30 8535 C 792.969 2.95045 -3.48995 0
M  V30 8536 C 793.966 2.70337 -4.44088 0
M  V30 8537 C 791.651 3.14993 -3.91261 0
M  V30 8538 C 793.645 2.65612 -5.79421 0
M  V30 8539 C 791.332 3.09893 -5.26697 0
M  V30 8540 C 792.33 2.85235 -6.20588 0
M  V30 8541 O 792.018 2.8005 -7.53543 0
M  V30 8542 H 791.75 0.510013 -0.443693 0
M  V30 8543 H 794.304 1.04514 -1.76822 0
M  V30 8544 H 792.534 3.58106 -1.45935 0
M  V30 8545 H 794.223 3.59849 -1.87786 0
M  V30 8546 H 794.989 2.54671 -4.12756 0
M  V30 8547 H 790.868 3.33204 -3.18584 0
M  V30 8548 H 794.412 2.46285 -6.52679 0
M  V30 8549 H 790.309 3.2511 -5.5765 0
M  V30 8550 H 791.077 2.95849 -7.63162 0
M  V30 8551 N 793.74 1.17359 1.05189 0
M  V30 8552 C 794.988 0.960087 1.77839 0
M  V30 8553 C 795.309 -0.512554 1.88143 0
M  V30 8554 O 794.579 -1.3721 1.39822 0
M  V30 8555 H 793.159 0.352234 0.658741 0
M  V30 8556 H 795.821 1.47834 1.27008 0
M  V30 8557 H 794.917 1.38843 2.79516 0
M  V30 8558 N 795.218 -1.23913 0.973828 0
M  V30 8559 C 796.165 -2.25132 0.508366 0
M  V30 8560 C 797.135 -1.59908 -0.449307 0
M  V30 8561 O 798.32 -1.87405 -0.358313 0
M  V30 8562 C 795.46 -3.4458 -0.189422 0
M  V30 8563 C 794.573 -4.24381 0.807738 0
M  V30 8564 C 793.708 -5.31131 0.0854315 0
M  V30 8565 C 792.747 -6.02635 1.07225 0
M  V30 8566 N 791.884 -7.01073 0.379535 0
M  V30 8567 H 796.724 -2.64313 1.37632 0
M  V30 8568 H 794.261 -1.29924 0.689802 0
M  V30 8569 H 796.219 -4.12706 -0.610733 0
M  V30 8570 H 794.849 -3.06218 -1.02129 0
M  V30 8571 H 793.901 -3.55735 1.34747 0
M  V30 8572 H 795.213 -4.73778 1.55998 0
M  V30 8573 H 794.367 -6.05422 -0.393572 0
M  V30 8574 H 793.106 -4.82658 -0.699461 0
M  V30 8575 H 792.111 -5.27143 1.56207 0
M  V30 8576 H 793.336 -6.53197 1.85769 0
M  V30 8577 H 791.282 -6.54862 -0.386269 0
M  V30 8578 H 791.199 -7.48382 1.07054 0
M  V30 8579 H 792.467 -7.79462 -0.0772984 0
M  V30 8580 N 796.696 -0.74468 -1.38897 0
M  V30 8581 C 797.643 -0.111064 -2.30533 0
M  V30 8582 C 798.613 0.719276 -1.49719 0
M  V30 8583 O 799.798 0.677244 -1.78376 0
M  V30 8584 C 796.938 0.78292 -3.36102 0
M  V30 8585 C 796.051 -0.0610817 -4.31957 0
M  V30 8586 C 795.186 0.835075 -5.24595 0
M  V30 8587 C 794.225 -0.0130974 -6.12099 0
M  V30 8588 N 793.362 0.839525 -6.97063 0
M  V30 8589 H 798.202 -0.898113 -2.84144 0
M  V30 8590 H 795.739 -0.454537 -1.39901 0
M  V30 8591 H 797.697 1.31578 -3.95908 0
M  V30 8592 H 796.327 1.53585 -2.83922 0
M  V30 8593 H 795.379 -0.711469 -3.73687 0
M  V30 8594 H 796.691 -0.716482 -4.93627 0
M  V30 8595 H 795.845 1.43542 -5.89475 0
M  V30 8596 H 794.584 1.52423 -4.63269 0
M  V30 8597 H 793.589 -0.626179 -5.46223 0
M  V30 8598 H 794.814 -0.699181 -6.75491 0
M  V30 8599 H 792.76 1.5138 -6.38295 0
M  V30 8600 H 792.677 0.240823 -7.55616 0
M  V30 8601 H 793.945 1.42513 -7.66362 0
M  V30 8602 N 798.174 1.49689 -0.493057 0
M  V30 8603 C 799.585 1.8665 -0.0433032 0
M  V30 8604 C 799.936 1.40607 1.36836 0
M  V30 8605 O 799.061 0.780503 2.01834 0
M  V30 8606 C 799.656 3.38724 -0.0718069 0
M  V30 8607 C 798.215 3.75015 0.32257 0
M  V30 8608 C 797.362 2.7366 -0.4478 0
M  V30 8609 H 800.313 1.42119 -0.706246 0
M  V30 8610 H 800.334 3.73522 0.725347 0
M  V30 8611 H 799.846 3.72204 -1.09935 0
M  V30 8612 H 797.947 3.47142 1.35364 0
M  V30 8613 H 798.06 4.79099 0.00864259 0
M  V30 8614 H 796.424 2.54498 0.101354 0
M  V30 8615 H 797.207 3.09985 -1.47527 0
M  V30 8616 N 799.652 0.226554 1.55963 0
M  V30 8617 C 800.899 -0.403789 1.98433 0
M  V30 8618 C 801.227 -1.59416 1.1143 0
M  V30 8619 O 800.482 -1.95042 0.160389 0
M  V30 8620 C 800.781 -0.87642 3.46488 0
M  V30 8621 C 800.447 0.203973 4.50438 0
M  V30 8622 C 799.109 0.500754 4.78587 0
M  V30 8623 C 801.461 0.934396 5.12756 0
M  V30 8624 C 798.789 1.53239 5.66334 0
M  V30 8625 C 801.141 1.9554 6.0162 0
M  V30 8626 C 799.805 2.25905 6.28111 0
M  V30 8627 H 799.075 -0.147757 0.726119 0
M  V30 8628 H 801.722 0.330121 1.88633 0
M  V30 8629 H 800.027 -1.68918 3.53517 0
M  V30 8630 H 801.724 -1.37407 3.76723 0
M  V30 8631 H 798.314 -0.0374917 4.28584 0
M  V30 8632 H 802.498 0.718355 4.91074 0
M  V30 8633 H 797.754 1.77321 5.85122 0
M  V30 8634 H 801.928 2.52642 6.48957 0
M  V30 8635 H 799.555 3.05985 6.959 0
M  V30 8636 N 801.13 -1.57531 -0.0467866 0
M  V30 8637 C 802.04 -2.08768 -1.07018 0
M  V30 8638 C 803.056 -1.02245 -1.40791 0
M  V30 8639 O 804.232 -1.33873 -1.50466 0
M  V30 8640 C 801.297 -2.54221 -2.35738 0
M  V30 8641 C 800.358 -3.75152 -2.08709 0
M  V30 8642 C 799.591 -4.18428 -3.31291 0
M  V30 8643 O 799.814 -3.61365 -4.4133 0
M  V30 8644 O 798.748 -5.11018 -3.18032 0
M  V30 8645 H 802.574 -2.96334 -0.664812 0
M  V30 8646 H 800.159 -1.47074 -0.262605 0
M  V30 8647 H 802.041 -2.83866 -3.11445 0
M  V30 8648 H 800.716 -1.69774 -2.75605 0
M  V30 8649 H 799.623 -3.50553 -1.30627 0
M  V30 8650 H 800.956 -4.60528 -1.73708 0
M  V30 8651 N 802.608 0.318715 -1.54344 0
M  V30 8652 C 803.833 1.07987 -1.77069 0
M  V30 8653 C 804.258 1.80766 -0.520117 0
M  V30 8654 O 803.616 1.73424 0.528566 0
M  V30 8655 C 803.664 2.04987 -2.96669 0
M  V30 8656 O 802.768 3.12974 -2.68554 0
M  V30 8657 H 802.109 0.311109 -0.586606 0
M  V30 8658 H 804.639 0.361533 -2.0138 0
M  V30 8659 H 804.649 2.47771 -3.2415 0
M  V30 8660 H 803.324 1.51417 -3.87357 0
M  V30 8661 H 801.901 2.74831 -2.52037 0
M  V30 8662 N 804.086 1.46499 0.581025 0
M  V30 8663 C 805.016 1.60052 1.70017 0
M  V30 8664 C 805.997 0.450788 1.64018 0
M  V30 8665 O 807.182 0.677237 1.82009 0
M  V30 8666 C 804.312 1.5921 3.08658 0
M  V30 8667 C 803.266 2.73169 3.29488 0
M  V30 8668 C 802.592 2.57389 4.68674 0
M  V30 8669 C 803.892 4.14978 3.1716 0
M  V30 8670 H 805.586 2.53735 1.5893 0
M  V30 8671 H 803.132 1.22113 0.763173 0
M  V30 8672 H 805.085 1.67285 3.86773 0
M  V30 8673 H 803.809 0.620718 3.20647 0
M  V30 8674 H 802.468 2.64566 2.53773 0
M  V30 8675 H 802.116 1.58331 4.77431 0
M  V30 8676 H 801.816 3.33826 4.83564 0
M  V30 8677 H 803.34 2.67358 5.48956 0
M  V30 8678 H 804.754 4.24684 3.85119 0
M  V30 8679 H 803.151 4.92016 3.4357 0
M  V30 8680 H 804.221 4.35016 2.14218 0
M  V30 8681 N 805.565 -0.825799 1.34232 0
M  V30 8682 C 806.842 -1.56741 1.17011 0
M  V30 8683 C 807.222 -2.09512 -0.258425 0
M  V30 8684 O 806.57 -1.90664 -1.25935 0
M  V30 8685 C 806.78 -2.69104 2.22225 0
M  V30 8686 C 808.128 -3.37947 2.57055 0
M  V30 8687 O 809.152 -2.79358 2.20992 0
M  V30 8688 O 808.011 -4.43743 3.1899 0
M  V30 8689 H 805.105 -0.69163 0.453405 0
M  V30 8690 H 807.651 -0.867422 1.45856 0
M  V30 8691 H 806.423 -2.27844 3.18124 0
M  V30 8692 H 806.046 -3.46756 1.94541 0
M  V30 8693 N 807.043 -1.17915 -1.04565 0
M  V30 8694 C 808.271 -0.99616 -1.8134 0
M  V30 8695 C 808.686 0.455509 -1.83223 0
M  V30 8696 O 808.043 1.31636 -1.26405 0
M  V30 8697 C 808.094 -1.53758 -3.27171 0
M  V30 8698 O 807.815 -2.93241 -3.25486 0
M  V30 8699 C 809.316 -1.40007 -4.2061 0
M  V30 8700 H 806.536 -0.352055 -0.571225 0
M  V30 8701 H 809.08 -1.56349 -1.31815 0
M  V30 8702 H 807.235 -1.01213 -3.73945 0
M  V30 8703 H 807.649 -3.18392 -4.16805 0
M  V30 8704 H 809.123 -1.82695 -5.2089 0
M  V30 8705 H 809.6 -0.348054 -4.37819 0
M  V30 8706 H 810.206 -1.916 -3.79697 0
M  V30 8707 N 808.521 1.23394 -0.980386 0
M  V30 8708 C 809.798 1.87242 -0.565667 0
M  V30 8709 C 810.178 1.88151 0.957197 0
M  V30 8710 O 809.526 1.36309 1.8339 0
M  V30 8711 C 809.736 3.28743 -1.17172 0
M  V30 8712 C 811.084 4.05335 -1.26446 0
M  V30 8713 O 812.108 3.37962 -1.12517 0
M  V30 8714 O 810.967 5.25908 -1.48604 0
M  V30 8715 H 808.061 0.80477 -0.190459 0
M  V30 8716 H 810.607 1.3127 -1.07547 0
M  V30 8717 H 809.379 3.22647 -2.21392 0
M  V30 8718 H 809.002 3.92305 -0.646739 0
M  V30 8719 N 809.999 0.752036 1.385 0
M  V30 8720 C 810.929 0.138718 2.33088 0
M  V30 8721 C 811.91 -0.705318 1.54788 0
M  V30 8722 O 813.095 -0.646821 1.83112 0
M  V30 8723 C 810.225 -0.75641 3.38963 0
M  V30 8724 C 809.179 -0.0152239 4.27997 0
M  V30 8725 C 808.505 -1.0285 5.24715 0
M  V30 8726 C 809.805 1.15226 5.09431 0
M  V30 8727 H 811.499 0.928852 2.84627 0
M  V30 8728 H 809.045 0.448111 1.3685 0
M  V30 8729 H 810.998 -1.19513 4.04097 0
M  V30 8730 H 809.722 -1.57885 2.85902 0
M  V30 8731 H 808.381 0.404061 3.64366 0
M  V30 8732 H 808.029 -1.84496 4.67943 0
M  V30 8733 H 807.729 -0.537238 5.85139 0
M  V30 8734 H 809.253 -1.46657 5.92726 0
M  V30 8735 H 810.667 0.791161 5.67815 0
M  V30 8736 H 809.064 1.57428 5.79082 0
M  V30 8737 H 810.134 1.9659 4.43261 0
M  V30 8738 N 811.477 -1.49425 0.500989 0
M  V30 8739 C 812.888 -1.86624 0.0532011 0
M  V30 8740 C 813.239 -1.41331 -1.36088 0
M  V30 8741 O 812.364 -0.791195 -2.01418 0
M  V30 8742 C 812.959 -3.38681 0.0897693 0
M  V30 8743 C 811.518 -3.75181 -0.302677 0
M  V30 8744 C 810.665 -2.73419 0.462307 0
M  V30 8745 H 813.616 -1.41743 0.713773 0
M  V30 8746 H 813.637 -3.73902 -0.705528 0
M  V30 8747 H 813.149 -3.71616 1.11907 0
M  V30 8748 H 811.25 -3.47855 -1.33521 0
M  V30 8749 H 811.363 -4.79097 0.0167653 0
M  V30 8750 H 809.727 -2.54548 -0.0878557 0
M  V30 8751 H 810.51 -3.09198 1.49169 0
M  V30 8752 N 812.955 -0.234822 -1.55841 0
M  V30 8753 C 814.371 0.120295 -1.59146 0
M  V30 8754 C 814.571 1.57896 -1.25184 0
M  V30 8755 O 813.627 2.32138 -0.993393 0
M  V30 8756 C 814.94 -0.217984 -2.99909 0
M  V30 8757 C 816.488 -0.161298 -3.12584 0
M  V30 8758 C 816.963 -0.473438 -4.55546 0
M  V30 8759 N 818.454 -0.423494 -4.6126 0
M  V30 8760 C 819.189 -0.638334 -5.69836 0
M  V30 8761 N 818.685 -0.915659 -6.86722 0
M  V30 8762 N 820.478 -0.569864 -5.59204 0
M  V30 8763 H 812.629 -1.18622 -1.76189 0
M  V30 8764 H 814.892 -0.476426 -0.819587 0
M  V30 8765 H 814.598 -1.2309 -3.29457 0
M  V30 8766 H 814.472 0.460707 -3.74376 0
M  V30 8767 H 816.859 0.842274 -2.82825 0
M  V30 8768 H 816.94 -0.873661 -2.40418 0
M  V30 8769 H 816.584 -1.47451 -4.86025 0
M  V30 8770 H 816.514 0.260268 -5.25956 0
M  V30 8771 H 819.005 -0.217383 -3.77274 0
M  V30 8772 H 819.318 -1.06734 -7.65394 0
M  V30 8773 H 817.663 -0.953 -6.88435 0
M  V30 8774 H 820.854 -0.35334 -4.66765 0
M  V30 8775 H 821.027 -0.740698 -6.43753 0
M  V30 8776 N 814.433 1.57553 0.0384317 0
M  V30 8777 C 815.68 1.88841 0.731116 0
M  V30 8778 C 816.008 0.83093 1.75857 0
M  V30 8779 O 815.263 -0.169248 1.94967 0
M  V30 8780 C 815.562 3.26862 1.44554 0
M  V30 8781 C 815.228 4.47472 0.554946 0
M  V30 8782 C 813.89 4.80203 0.309621 0
M  V30 8783 C 816.242 5.21165 -0.0605204 0
M  V30 8784 C 813.57 5.8402 -0.560101 0
M  V30 8785 C 815.922 6.25905 -0.91789 0
M  V30 8786 C 814.586 6.57117 -1.17277 0
M  V30 8787 H 813.856 0.691018 0.267534 0
M  V30 8788 H 816.503 1.91498 -0.00883195 0
M  V30 8789 H 814.808 3.2015 2.25856 0
M  V30 8790 H 816.505 3.48316 1.98688 0
M  V30 8791 H 813.095 4.21874 0.756304 0
M  V30 8792 H 817.279 4.96164 0.116064 0
M  V30 8793 H 812.535 6.06583 -0.765974 0
M  V30 8794 H 816.709 6.82155 -1.40136 0
M  V30 8795 H 814.336 7.37385 -1.84843 0
M  V30 8796 N 815.911 -0.310526 1.54511 0
M  V30 8797 C 816.844 -1.40693 1.79668 0
M  V30 8798 C 817.822 -1.49159 0.64734 0
M  V30 8799 O 819.006 -1.66367 0.886239 0
M  V30 8800 C 816.133 -2.78685 1.92491 0
M  V30 8801 C 815.179 -2.87688 3.14861 0
M  V30 8802 S 816.012 -2.50759 4.7316 0
M  V30 8803 C 817.168 -3.90797 4.88906 0
M  V30 8804 H 817.401 -1.19142 2.72383 0
M  V30 8805 H 814.934 -0.508103 1.458 0
M  V30 8806 H 816.892 -3.58168 2.00563 0
M  V30 8807 H 815.553 -2.9751 1.00731 0
M  V30 8808 H 814.746 -3.8888 3.20607 0
M  V30 8809 H 814.348 -2.16189 3.05186 0
M  V30 8810 H 816.64 -4.85693 4.72344 0
M  V30 8811 H 817.583 -3.90027 5.91003 0
M  V30 8812 H 817.991 -3.80357 4.1712 0
M  V30 8813 N 817.389 -1.46805 -0.573248 0
M  V30 8814 C 818.614 -1.56433 -1.36175 0
M  V30 8815 C 819.039 -0.209336 -1.86932 0
M  V30 8816 O 818.397 0.812146 -1.62092 0
M  V30 8817 C 818.445 -2.58055 -2.51873 0
M  V30 8818 O 817.549 -2.12214 -3.53609 0
M  V30 8819 H 816.89 -0.526068 -0.405153 0
M  V30 8820 H 819.42 -1.92456 -0.694405 0
M  V30 8821 H 819.43 -2.77966 -2.98662 0
M  V30 8822 H 818.105 -3.56448 -2.14284 0
M  V30 8823 H 816.682 -2.02333 -3.13234 0
M  V30 8824 N 818.867 0.818669 -1.34668 0
M  V30 8825 C 819.777 1.9616 -1.2868 0
M  V30 8826 C 820.793 1.72918 -0.193742 0
M  V30 8827 O 821.969 1.96951 -0.420975 0
M  V30 8828 C 819.034 3.30534 -1.04633 0
M  V30 8829 C 818.095 3.66755 -2.23136 0
M  V30 8830 C 817.328 4.94717 -2.00227 0
M  V30 8831 O 817.551 5.62218 -0.96264 0
M  V30 8832 O 816.485 5.28915 -2.87286 0
M  V30 8833 H 820.311 2.04157 -2.24842 0
M  V30 8834 H 817.896 0.954691 -1.14917 0
M  V30 8835 H 819.778 4.11005 -0.930216 0
M  V30 8836 H 818.453 3.23495 -0.115139 0
M  V30 8837 H 817.36 2.8671 -2.40308 0
M  V30 8838 H 818.693 3.78484 -3.1466 0
M  V30 8839 N 820.346 1.18468 1.03938 0
M  V30 8840 C 821.593 0.980833 1.77161 0
M  V30 8841 C 821.921 -0.489425 1.88242 0
M  V30 8842 O 821.176 -1.37961 1.388 0
M  V30 8843 C 821.475 1.58229 3.20466 0
M  V30 8844 C 821.141 3.07889 3.29416 0
M  V30 8845 C 819.803 3.48737 3.31566 0
M  V30 8846 C 822.155 4.03903 3.29411 0
M  V30 8847 C 819.483 4.84171 3.31355 0
M  V30 8848 C 821.835 5.39253 3.3074 0
M  V30 8849 C 820.499 5.79547 3.31182 0
M  V30 8850 H 819.769 0.358912 0.648277 0
M  V30 8851 H 822.416 1.47552 1.22069 0
M  V30 8852 H 820.721 1.00964 3.78568 0
M  V30 8853 H 822.418 1.39998 3.75768 0
M  V30 8854 H 819.008 2.75335 3.28464 0
M  V30 8855 H 823.192 3.73395 3.2694 0
M  V30 8856 H 818.448 5.14685 3.30015 0
M  V30 8857 H 822.622 6.13417 3.29686 0
M  V30 8858 H 820.249 6.84466 3.30772 0
M  V30 8859 N 821.824 -1.22873 0.986916 0
M  V30 8860 C 823.072 -1.91084 0.658121 0
M  V30 8861 C 823.393 -1.77304 -0.811675 0
M  V30 8862 O 822.663 -1.15649 -1.58121 0
M  V30 8863 H 821.243 -0.707251 0.240427 0
M  V30 8864 H 823.905 -1.49357 1.25213 0
M  V30 8865 H 823.001 -2.98373 0.915428 0
M  V30 8866 N 823.302 -0.75937 -1.38099 0
M  V30 8867 C 824.549 -0.318113 -1.99986 0
M  V30 8868 C 824.877 1.10184 -1.6028 0
M  V30 8869 O 824.132 1.77015 -0.834524 0
M  V30 8870 C 824.431 -0.394999 -3.55211 0
M  V30 8871 C 824.097 -1.77143 -4.14646 0
M  V30 8872 C 822.759 -2.14811 -4.30592 0
M  V30 8873 C 825.111 -2.67407 -4.47373 0
M  V30 8874 C 822.439 -3.42203 -4.76565 0
M  V30 8875 C 824.791 -3.94196 -4.94765 0
M  V30 8876 C 823.455 -4.31925 -5.08918 0
M  V30 8877 H 822.725 -0.116406 -0.7318 0
M  V30 8878 H 825.372 -0.97098 -1.65058 0
M  V30 8879 H 823.677 0.341426 -3.9031 0
M  V30 8880 H 825.374 -0.0350722 -4.00985 0
M  V30 8881 H 821.964 -1.46864 -4.02652 0
M  V30 8882 H 826.148 -2.39569 -4.3465 0
M  V30 8883 H 821.404 -3.71346 -4.85708 0
M  V30 8884 H 825.578 -4.64276 -5.19057 0
M  V30 8885 H 823.205 -5.30699 -5.443 0
M  V30 8886 N 824.78 1.49157 -0.508906 0
M  V30 8887 C 825.712 2.272 0.302115 0
M  V30 8888 C 826.725 1.3407 0.923529 0
M  V30 8889 O 827.914 1.5929 0.805532 0
M  V30 8890 C 825.014 3.06736 1.44105 0
M  V30 8891 C 824.187 4.27497 0.925477 0
M  V30 8892 C 823.246 4.89014 1.94297 0
M  V30 8893 O 822.272 5.48851 1.50834 0
M  V30 8894 N 823.474 4.7937 3.2739 0
M  V30 8895 H 826.239 2.97443 -0.367115 0
M  V30 8896 H 823.8 1.58248 -0.341933 0
M  V30 8897 H 825.792 3.44763 2.11944 0
M  V30 8898 H 824.362 2.3905 2.0143 0
M  V30 8899 H 823.582 3.94135 0.0717301 0
M  V30 8900 H 824.87 5.05714 0.55955 0
M  V30 8901 H 824.268 4.31869 3.65384 0
M  V30 8902 H 822.825 5.21559 3.90922 0
M  V30 8903 N 826.258 0.243083 1.55714 0
M  V30 8904 C 827.483 -0.389944 2.03701 0
M  V30 8905 C 827.908 -1.51025 1.12129 0
M  V30 8906 O 827.266 -1.80944 0.11352 0
M  V30 8907 C 827.314 -0.878649 3.49731 0
M  V30 8908 O 826.418 -1.98851 3.61292 0
M  V30 8909 H 825.759 -0.0855115 0.658471 0
M  V30 8910 H 828.289 0.368023 2.01263 0
M  V30 8911 H 828.299 -1.18287 3.90477 0
M  V30 8912 H 826.974 -0.0588107 4.15858 0
M  V30 8913 H 825.551 -1.68928 3.32442 0
M  V30 8914 N 827.736 -1.57571 -0.0300757 0
M  V30 8915 C 828.983 -1.89226 -0.721091 0
M  V30 8916 C 829.311 -0.840244 -1.75414 0
M  V30 8917 O 828.566 0.158906 -1.95054 0
M  V30 8918 C 828.865 -3.27624 -1.42818 0
M  V30 8919 C 828.531 -4.4776 -0.531208 0
M  V30 8920 C 827.193 -4.8036 -0.28415 0
M  V30 8921 C 829.545 -5.21125 0.0881582 0
M  V30 8922 C 826.873 -5.83715 0.591065 0
M  V30 8923 C 829.225 -6.2541 0.95107 0
M  V30 8924 C 827.889 -6.56486 1.2076 0
M  V30 8925 H 827.159 -0.692428 -0.263866 0
M  V30 8926 H 829.806 -1.91491 0.0189874 0
M  V30 8927 H 828.111 -3.21343 -2.24155 0
M  V30 8928 H 829.808 -3.49365 -1.96838 0
M  V30 8929 H 826.398 -4.2227 -0.73392 0
M  V30 8930 H 830.582 -4.96219 -0.0897496 0
M  V30 8931 H 825.838 -6.06168 0.798132 0
M  V30 8932 H 830.012 -6.81402 1.43751 0
M  V30 8933 H 827.639 -7.36395 1.88751 0
M  V30 8934 N 829.214 0.302327 -1.54673 0
M  V30 8935 C 830.625 0.875409 -1.64904 0
M  V30 8936 C 830.976 1.88132 -0.55684 0
M  V30 8937 O 830.101 2.14215 0.306754 0
M  V30 8938 C 830.696 1.59457 -2.9893 0
M  V30 8939 C 829.255 2.11607 -3.11287 0
M  V30 8940 C 828.402 0.948324 -2.6058 0
M  V30 8941 H 831.353 0.079362 -1.58501 0
M  V30 8942 H 831.374 2.46005 -2.90279 0
M  V30 8943 H 830.886 0.8622 -3.78402 0
M  V30 8944 H 828.987 2.87895 -2.36532 0
M  V30 8945 H 829.1 2.35151 -4.17422 0
M  V30 8946 H 827.464 1.33352 -2.17001 0
M  V30 8947 H 828.247 0.229936 -3.42529 0
M  V30 8948 N 830.692 1.47107 0.565454 0
M  V30 8949 C 831.602 1.61591 1.70075 0
M  V30 8950 C 832.618 0.498931 1.66693 0
M  V30 8951 O 833.794 0.765372 1.8629 0
M  V30 8952 C 830.859 1.61887 3.06583 0
M  V30 8953 C 829.92 2.84949 3.21096 0
M  V30 8954 C 829.153 2.85221 4.51093 0
M  V30 8955 O 829.376 1.94959 5.36048 0
M  V30 8956 O 828.31 3.76982 4.69221 0
M  V30 8957 H 832.136 2.57638 1.60799 0
M  V30 8958 H 829.721 1.30097 0.73451 0
M  V30 8959 H 831.603 1.64809 3.87835 0
M  V30 8960 H 830.278 0.69005 3.16259 0
M  V30 8961 H 829.185 2.87575 2.39273 0
M  V30 8962 H 830.518 3.77098 3.1632 0
M  V30 8963 N 832.17 -0.811516 1.35101 0
M  V30 8964 C 833.103 -1.92872 1.21966 0
M  V30 8965 C 834.081 -1.62236 0.108667 0
M  V30 8966 O 835.265 -1.8647 0.275875 0
M  V30 8967 C 832.392 -3.27152 0.876886 0
M  V30 8968 C 831.438 -3.7674 1.99924 0
M  V30 8969 S 832.271 -3.95132 3.61429 0
M  V30 8970 C 833.427 -5.32322 3.29218 0
M  V30 8971 H 833.66 -2.03718 2.16532 0
M  V30 8972 H 831.193 -0.968352 1.20259 0
M  V30 8973 H 833.151 -4.04729 0.685917 0
M  V30 8974 H 831.812 -3.14059 -0.0506289 0
M  V30 8975 H 831.005 -4.73981 1.71343 0
M  V30 8976 H 830.607 -3.06145 2.14829 0
M  V30 8977 H 832.899 -6.1614 2.8174 0
M  V30 8978 H 833.842 -5.65893 4.25641 0
M  V30 8979 H 834.25 -4.98374 2.65111 0
M  V30 8980 N 833.648 -1.19017 -1.03309 0
M  V30 8981 C 834.595 -0.924088 -2.11493 0
M  V30 8982 C 835.565 0.139464 -1.65513 0
M  V30 8983 O 836.75 -0.00178761 -1.908 0
M  V30 8984 C 833.89 -0.464255 -3.41963 0
M  V30 8985 C 833.003 -1.5941 -4.01513 0
M  V30 8986 C 832.138 -1.08622 -5.19976 0
M  V30 8987 C 831.177 -2.19024 -5.71572 0
M  V30 8988 N 830.314 -1.69575 -6.81314 0
M  V30 8989 H 835.154 -1.85039 -2.33591 0
M  V30 8990 H 832.691 -0.922593 -1.14572 0
M  V30 8991 H 834.649 -0.179078 -4.16815 0
M  V30 8992 H 833.279 0.425062 -3.19989 0
M  V30 8993 H 832.331 -1.99458 -3.23915 0
M  V30 8994 H 833.643 -2.42604 -4.35826 0
M  V30 8995 H 832.797 -0.756022 -6.01971 0
M  V30 8996 H 831.536 -0.223955 -4.87186 0
M  V30 8997 H 830.541 -2.5288 -4.88193 0
M  V30 8998 H 831.766 -3.05699 -6.06403 0
M  V30 8999 H 829.712 -0.856494 -6.50385 0
M  V30 9000 H 829.629 -2.46361 -7.14732 0
M  V30 9001 H 830.897 -1.39505 -7.66915 0
M  V30 9002 N 835.127 1.22348 -0.993418 0
M  V30 9003 C 836.355 1.95125 -0.688021 0
M  V30 9004 C 836.77 1.73377 0.747388 0
M  V30 9005 O 836.127 1.03317 1.50439 0
M  V30 9006 C 836.178 3.47819 -0.985097 0
M  V30 9007 O 835.899 3.68838 -2.3641 0
M  V30 9008 C 837.4 4.37779 -0.697474 0
M  V30 9009 H 834.62 0.62087 -0.254481 0
M  V30 9010 H 837.164 1.55485 -1.32833 0
M  V30 9011 H 835.319 3.85426 -0.390583 0
M  V30 9012 H 835.733 4.63032 -2.46377 0
M  V30 9013 H 837.207 5.43666 -0.955604 0
M  V30 9014 H 837.684 4.37651 0.368524 0
M  V30 9015 H 838.29 4.05799 -1.27306 0
M  V30 9016 N 836.605 0.766683 1.37694 0
M  V30 9017 C 837.854 0.325425 1.99057 0
M  V30 9018 C 838.167 -1.10275 1.61551 0
M  V30 9019 O 839.373 -1.64513 2.1598 0
M  V30 9020 C 837.829 0.530886 3.55963 0
M  V30 9021 C 837.437 1.96899 4.02411 0
M  V30 9022 C 839.181 0.152997 4.24224 0
M  V30 9023 C 837.088 2.12232 5.52007 0
M  V30 9024 H 836.018 0.117929 0.744721 0
M  V30 9025 H 838.669 0.945091 1.5729 0
M  V30 9026 H 837.051 -0.158162 3.95684 0
M  V30 9027 H 838.225 2.69258 3.73948 0
M  V30 9028 H 836.54 2.303 3.46916 0
M  V30 9029 H 839.137 0.24614 5.34133 0
M  V30 9030 H 839.48 -0.896096 4.06541 0
M  V30 9031 H 840.013 0.794398 3.89787 0
M  V30 9032 H 836.752 3.15442 5.7461 0
M  V30 9033 H 836.272 1.4435 5.82171 0
M  V30 9034 H 837.951 1.9185 6.17902 0
M  V30 9035 N 838.083 -1.48885 0.516809 0
M  V30 9036 C 839.046 -2.27916 -0.242256 0
M  V30 9037 C 840.046 -1.34601 -0.879735 0
M  V30 9038 O 841.236 -1.57616 -0.74182 0
M  V30 9039 C 838.368 -3.13067 -1.34914 0
M  V30 9040 H 839.561 -2.96483 0.451444 0
M  V30 9041 H 837.114 -1.5391 0.272294 0
M  V30 9042 H 837.849 -2.49102 -2.07651 0
M  V30 9043 H 837.634 -3.81695 -0.897313 0
M  V30 9044 H 839.124 -3.72716 -1.88341 0
M  V30 9045 N 839.561 -0.251338 -1.55583 0
M  V30 9046 C 840.524 0.63305 -2.20284 0
M  V30 9047 C 841.524 1.09941 -1.17344 0
M  V30 9048 O 842.714 1.00341 -1.42399 0
M  V30 9049 C 839.846 1.8706 -2.84993 0
M  V30 9050 H 841.039 0.0684846 -2.99822 0
M  V30 9051 H 838.592 -0.00181653 -1.563 0
M  V30 9052 H 839.327 2.47629 -2.09405 0
M  V30 9053 H 839.112 1.54436 -3.60405 0
M  V30 9054 H 840.602 2.50004 -3.34496 0
M  V30 9055 N 841.039 1.57585 0.0217189 0
M  V30 9056 C 842.286 1.89606 0.711045 0
M  V30 9057 C 842.614 0.849535 1.74966 0
M  V30 9058 O 841.869 -0.14856 1.95135 0
M  V30 9059 C 842.168 3.28377 1.41079 0
M  V30 9060 C 841.834 4.48035 0.507454 0
M  V30 9061 C 840.496 4.80504 0.258672 0
M  V30 9062 C 842.848 5.21071 -0.115793 0
M  V30 9063 C 840.176 5.83393 -0.622013 0
M  V30 9064 C 842.528 6.24897 -0.984224 0
M  V30 9065 C 841.192 6.55836 -1.2424 0
M  V30 9066 H 840.462 0.693817 0.26019 0
M  V30 9067 H 843.109 1.91478 -0.0291424 0
M  V30 9068 H 841.414 3.22528 2.22448 0
M  V30 9069 H 843.111 3.50404 1.94982 0
M  V30 9070 H 839.701 4.22653 0.711516 0
M  V30 9071 H 843.885 4.96259 0.0634327 0
M  V30 9072 H 839.141 6.05736 -0.830267 0
M  V30 9073 H 843.315 6.8063 -1.47363 0
M  V30 9074 H 840.942 7.35383 -1.92653 0
M  V30 9075 N 842.517 -0.29412 1.54831 0
M  V30 9076 C 843.48 -1.3461 1.85507 0
M  V30 9077 C 844.48 -1.43359 0.728343 0
M  V30 9078 O 845.67 -1.42875 0.996609 0
M  V30 9079 C 842.802 -2.73012 2.0415 0
M  V30 9080 H 843.995 -1.08651 2.79526 0
M  V30 9081 H 841.548 -0.531138 1.46999 0
M  V30 9082 H 842.283 -3.04183 1.12441 0
M  V30 9083 H 842.068 -2.68051 2.86166 0
M  V30 9084 H 843.558 -3.49061 2.29229 0
M  V30 9085 N 843.995 -1.47404 -0.557645 0
M  V30 9086 C 844.958 -1.59411 -1.64684 0
M  V30 9087 C 845.958 -0.469244 -1.53801 0
M  V30 9088 O 847.148 -0.734298 -1.57967 0
M  V30 9089 C 844.28 -1.5382 -3.04224 0
M  V30 9090 H 845.473 -2.56504 -1.55389 0
M  V30 9091 H 843.026 -1.35588 -0.777531 0
M  V30 9092 H 843.761 -0.581 -3.19053 0
M  V30 9093 H 843.546 -2.35456 -3.13533 0
M  V30 9094 H 845.036 -1.65358 -3.83466 0
M  V30 9095 N 845.473 0.80434 -1.35529 0
M  V30 9096 C 846.884 1.37849 -1.25915 0
M  V30 9097 C 847.235 1.95905 0.107495 0
M  V30 9098 O 846.36 1.91462 1.00852 0
M  V30 9099 C 846.955 2.50608 -2.27994 0
M  V30 9100 C 845.514 3.03879 -2.22114 0
M  V30 9101 C 844.661 1.76856 -2.13582 0
M  V30 9102 H 847.612 0.607192 -1.46625 0
M  V30 9103 H 847.633 3.29221 -1.90772 0
M  V30 9104 H 847.145 2.08323 -3.27449 0
M  V30 9105 H 845.246 3.50622 -1.26077 0
M  V30 9106 H 845.359 3.61707 -3.14173 0
M  V30 9107 H 843.723 1.98498 -1.59595 0
M  V30 9108 H 844.506 1.36721 -3.14901 0
M  V30 9109 N 846.951 1.19563 1.02676 0
M  V30 9110 C 847.861 0.950691 2.14474 0
M  V30 9111 C 848.877 -0.0900219 1.73767 0
M  V30 9112 O 850.053 0.0951063 2.01175 0
M  V30 9113 C 847.118 0.494917 3.43149 0
M  V30 9114 C 846.179 1.60527 3.98158 0
M  V30 9115 C 845.412 1.17115 5.20692 0
M  V30 9116 O 845.635 0.0355937 5.70389 0
M  V30 9117 O 844.569 1.97454 5.68591 0
M  V30 9118 H 848.395 1.88651 2.38001 0
M  V30 9119 H 845.98 0.978635 1.12885 0
M  V30 9120 H 847.862 0.249492 4.20661 0
M  V30 9121 H 846.537 -0.412434 3.21062 0
M  V30 9122 H 845.444 1.90487 3.21971 0
M  V30 9123 H 846.777 2.48925 4.24614 0
M  V30 9124 N 848.429 -1.21819 0.999893 0
M  V30 9125 C 849.706 -1.86318 0.595384 0
M  V30 9126 C 850.086 -1.8965 -0.927143 0
M  V30 9127 O 849.434 -1.3921 -1.81199 0
M  V30 9128 C 849.644 -3.26837 1.22387 0
M  V30 9129 C 850.992 -4.03272 1.32878 0
M  V30 9130 O 852.016 -3.36129 1.1788 0
M  V30 9131 O 850.875 -5.23477 1.56952 0
M  V30 9132 H 847.969 -0.801638 0.203238 0
M  V30 9133 H 850.515 -1.29542 1.09622 0
M  V30 9134 H 849.287 -3.19084 2.26497 0
M  V30 9135 H 848.91 -3.91226 0.709069 0
M  V30 9136 N 849.908 -0.773975 -1.37286 0
M  V30 9137 C 851.138 -0.350249 -2.03609 0
M  V30 9138 C 851.546 1.03313 -1.58502 0
M  V30 9139 O 850.889 1.67118 -0.7627 0
M  V30 9140 C 850.951 -0.317215 -3.58098 0
M  V30 9141 C 850.615 -1.64556 -4.26345 0
M  V30 9142 C 851.612 -2.59839 -4.50311 0
M  V30 9143 C 849.297 -1.92061 -4.64131 0
M  V30 9144 C 851.291 -3.80833 -5.11122 0
M  V30 9145 C 848.978 -3.13325 -5.24663 0
M  V30 9146 C 849.976 -4.0753 -5.48095 0
M  V30 9147 O 849.664 -5.26658 -6.0736 0
M  V30 9148 H 849.396 -0.144456 -0.660385 0
M  V30 9149 H 851.95 -1.0496 -1.76557 0
M  V30 9150 H 850.18 0.438528 -3.84205 0
M  V30 9151 H 851.869 0.0797428 -4.05822 0
M  V30 9152 H 852.635 -2.39872 -4.21529 0
M  V30 9153 H 848.514 -1.19562 -4.45226 0
M  V30 9154 H 852.058 -4.54377 -5.29327 0
M  V30 9155 H 847.955 -3.33177 -5.52869 0
M  V30 9156 H 848.723 -5.27513 -6.25837 0
M  V30 9157 N 851.386 1.48609 -0.524698 0
M  V30 9158 C 852.318 2.27508 0.278 0
M  V30 9159 C 853.331 1.35042 0.909258 0
M  V30 9160 O 854.52 1.60136 0.788592 0
M  V30 9161 C 851.62 3.08247 1.40843 0
M  V30 9162 C 850.793 4.28455 0.880083 0
M  V30 9163 C 849.852 4.91048 1.891 0
M  V30 9164 O 848.878 5.5042 1.45005 0
M  V30 9165 N 850.08 4.82816 3.22288 0
M  V30 9166 H 852.845 2.97037 -0.398642 0
M  V30 9167 H 850.406 1.57876 -0.358698 0
M  V30 9168 H 852.398 3.46992 2.08276 0
M  V30 9169 H 850.968 2.41173 1.98883 0
M  V30 9170 H 850.188 3.94189 0.0299228 0
M  V30 9171 H 851.476 5.06279 0.505881 0
M  V30 9172 H 850.874 4.3572 3.60783 0
M  V30 9173 H 849.431 5.25676 3.85368 0
M  V30 9174 N 852.864 0.259585 1.55447 0
M  V30 9175 C 854.113 -0.362163 1.98422 0
M  V30 9176 C 854.426 -1.58135 1.1512 0
M  V30 9177 O 855.632 -2.27506 1.48166 0
M  V30 9178 C 854.088 -0.695722 3.53111 0
M  V30 9179 C 853.696 0.502784 4.4517 0
M  V30 9180 C 855.44 -1.28096 4.04712 0
M  V30 9181 C 853.347 0.144674 5.91223 0
M  V30 9182 H 852.277 -0.139092 0.74106 0
M  V30 9183 H 854.928 0.361798 1.79898 0
M  V30 9184 H 853.31 -1.47816 3.67378 0
M  V30 9185 H 854.484 1.27994 4.42667 0
M  V30 9186 H 852.799 1.0038 4.0412 0
M  V30 9187 H 855.396 -1.56243 5.11363 0
M  V30 9188 H 855.739 -2.20969 3.52815 0
M  V30 9189 H 856.272 -0.561146 3.93822 0
M  V30 9190 H 853.011 1.04087 6.47183 0
M  V30 9191 H 852.531 -0.596023 5.96831 0
M  V30 9192 H 854.21 -0.268651 6.46442 0
M  V30 9193 N 854.342 -1.57594 -0.0133615 0
M  V30 9194 C 855.252 -2.10991 -1.02566 0
M  V30 9195 C 856.268 -1.05208 -1.3859 0
M  V30 9196 O 857.444 -1.37034 -1.47593 0
M  V30 9197 C 854.509 -2.59165 -2.30292 0
M  V30 9198 C 853.57 -3.79495 -2.00704 0
M  V30 9199 C 852.803 -4.25361 -3.22341 0
M  V30 9200 O 853.026 -3.70645 -4.33565 0
M  V30 9201 O 851.96 -5.17649 -3.07121 0
M  V30 9202 H 855.786 -2.97678 -0.601806 0
M  V30 9203 H 853.371 -1.47598 -0.23135 0
M  V30 9204 H 855.253 -2.90409 -3.05354 0
M  V30 9205 H 853.928 -1.75582 -2.71942 0
M  V30 9206 H 852.835 -3.53245 -1.23161 0
M  V30 9207 H 854.168 -4.64109 -1.639 0
M  V30 9208 N 855.82 0.285905 -1.54985 0
M  V30 9209 C 857.045 1.04207 -1.7932 0
M  V30 9210 C 857.47 1.79622 -0.558343 0
M  V30 9211 O 856.828 1.74506 0.491661 0
M  V30 9212 C 856.876 1.98648 -3.0095 0
M  V30 9213 O 855.98 3.07207 -2.75132 0
M  V30 9214 H 855.321 0.298596 -0.593074 0
M  V30 9215 H 857.851 0.318736 -2.02102 0
M  V30 9216 H 857.861 2.4084 -3.29333 0
M  V30 9217 H 856.536 1.43167 -3.90482 0
M  V30 9218 H 855.113 2.69423 -2.57809 0
M  V30 9219 N 857.298 1.47698 0.54982 0
M  V30 9220 C 858.208 1.63386 1.68351 0
M  V30 9221 C 859.224 0.516583 1.66155 0
M  V30 9222 O 860.4 0.785088 1.85468 0
M  V30 9223 C 857.465 1.6513 3.04849 0
M  V30 9224 C 856.526 2.88338 3.18056 0
M  V30 9225 C 855.759 2.8999 4.48042 0
M  V30 9226 O 855.982 2.00633 5.3395 0
M  V30 9227 O 854.916 3.81938 4.65196 0
M  V30 9228 H 858.742 2.59329 1.58057 0
M  V30 9229 H 856.327 1.30869 0.72067 0
M  V30 9230 H 858.209 1.68913 3.86065 0
M  V30 9231 H 856.884 0.723555 3.1551 0
M  V30 9232 H 855.791 2.90097 2.36209 0
M  V30 9233 H 857.124 3.80431 3.12302 0
M  V30 9234 N 858.776 -0.797141 1.35954 0
M  V30 9235 C 860.022 -1.55698 1.29946 0
M  V30 9236 C 860.355 -1.93808 -0.123259 0
M  V30 9237 O 859.63 -1.62102 -1.07486 0
M  V30 9238 C 859.913 -2.83926 2.2149 0
M  V30 9239 C 859.766 -2.52232 3.72423 0
M  V30 9240 C 861.085 -3.85698 2.11955 0
M  V30 9241 H 858.204 -0.56488 0.47337 0
M  V30 9242 H 860.846 -0.916421 1.66438 0
M  V30 9243 H 858.996 -3.38588 1.905 0
M  V30 9244 H 860.668 -2.0368 4.13899 0
M  V30 9245 H 858.911 -1.85286 3.92239 0
M  V30 9246 H 859.582 -3.43782 4.31877 0
M  V30 9247 H 862.058 -3.40462 2.39218 0
M  V30 9248 H 860.934 -4.73182 2.78191 0
M  V30 9249 H 861.195 -4.28083 1.10442 0
M  V30 9250 N 860.254 -1.20106 -1.0204 0
M  V30 9251 C 861.187 -0.889795 -2.10138 0
M  V30 9252 C 862.165 0.156595 -1.61844 0
M  V30 9253 O 863.349 0.0310192 -1.88474 0
M  V30 9254 C 860.476 -0.333227 -3.37057 0
M  V30 9255 C 859.522 -1.36001 -4.04235 0
M  V30 9256 S 860.355 -2.92366 -4.48645 0
M  V30 9257 C 861.511 -2.38274 -5.78771 0
M  V30 9258 H 861.744 -1.80523 -2.36217 0
M  V30 9259 H 859.277 -1.02912 -1.15102 0
M  V30 9260 H 861.235 -0.0186507 -4.10496 0
M  V30 9261 H 859.896 0.560652 -3.09056 0
M  V30 9262 H 859.089 -0.919874 -4.95534 0
M  V30 9263 H 858.691 -1.62186 -3.37004 0
M  V30 9264 H 860.983 -1.77799 -6.53754 0
M  V30 9265 H 861.926 -3.27955 -6.27576 0
M  V30 9266 H 862.334 -1.8054 -5.34851 0
M  V30 9267 N 861.732 1.21287 -1.00634 0
M  V30 9268 C 862.68 2.25733 -0.561026 0
M  V30 9269 C 863.674 1.64728 0.395095 0
M  V30 9270 O 864.88 1.78022 0.266141 0
M  V30 9271 H 861.255 0.734104 -0.163081 0
M  V30 9272 H 863.226 2.60631 -1.45307 0
M  V30 9273 C 861.975 3.47569 0.0952587 0
M  V30 9274 H 861.298 3.94782 -0.631427 0
M  V30 9275 H 862.738 4.22382 0.370105 0
M  V30 9276 C 861.197 3.09326 1.33488 0
M  V30 9277 O 861.727 3.19933 2.42912 0
M  V30 9278 N 859.933 2.63976 1.21512 0
M  V30 9279 H 859.48 2.55545 0.324741 0
M  V30 9280 H 859.438 2.38757 2.04555 0
M  V30 9281 N 863.21 0.781244 1.36873 0
M  V30 9282 C 864.173 0.180094 2.28491 0
M  V30 9283 C 865.173 -0.617798 1.48458 0
M  V30 9284 O 866.363 -0.439991 1.68552 0
M  V30 9285 C 863.495 -0.751741 3.32508 0
M  V30 9286 H 864.688 0.987837 2.83164 0
M  V30 9287 H 862.241 0.550102 1.463 0
M  V30 9288 H 862.976 -1.58413 2.82977 0
M  V30 9289 H 862.761 -0.181649 3.91679 0
M  V30 9290 H 864.251 -1.16748 4.00949 0
M  V30 9291 N 864.689 -1.48329 0.532571 0
M  V30 9292 C 865.639 -2.2664 -0.24868 0
M  V30 9293 C 866.623 -1.32861 -0.907563 0
M  V30 9294 O 867.815 -1.57382 -0.809942 0
M  V30 9295 C 864.944 -3.18004 -1.29339 0
M  V30 9296 C 864.03 -4.19256 -0.639166 0
M  V30 9297 N 864.421 -5.05043 0.276597 0
M  V30 9298 C 862.719 -4.36906 -0.896062 0
M  V30 9299 C 863.42 -5.78009 0.654261 0
M  V30 9300 N 862.396 -5.43598 0.0147447 0
M  V30 9301 H 866.198 -2.90344 0.455792 0
M  V30 9302 H 863.712 -1.58566 0.350778 0
M  V30 9303 H 865.709 -3.72767 -1.86682 0
M  V30 9304 H 864.369 -2.55855 -1.99921 0
M  V30 9305 H 865.38 -5.13813 0.649351 0
M  V30 9306 H 862.057 -3.85945 -1.59226 0
M  V30 9307 H 863.447 -6.57039 1.40532 0
M  V30 9308 N 866.167 -0.267825 -1.55308 0
M  V30 9309 C 867.099 0.65591 -2.19614 0
M  V30 9310 C 868.112 1.12302 -1.17865 0
M  V30 9311 O 869.301 1.04618 -1.44628 0
M  V30 9312 C 866.401 1.90582 -2.80235 0
M  V30 9313 C 865.574 1.58673 -4.07605 0
M  V30 9314 C 864.633 2.68836 -4.52343 0
M  V30 9315 O 863.659 2.35331 -5.18274 0
M  V30 9316 N 864.861 3.98752 -4.21873 0
M  V30 9317 H 867.626 0.105566 -2.99514 0
M  V30 9318 H 865.187 -0.0886263 -1.61657 0
M  V30 9319 H 867.179 2.63561 -3.07112 0
M  V30 9320 H 865.749 2.3654 -2.04371 0
M  V30 9321 H 864.969 0.691113 -3.88094 0
M  V30 9322 H 866.257 1.34845 -4.90606 0
M  V30 9323 H 865.655 4.28797 -3.68985 0
M  V30 9324 H 864.212 4.68131 -4.53537 0
M  V30 9325 N 867.645 1.57599 0.00500368 0
M  V30 9326 C 868.592 2.08106 0.998025 0
M  V30 9327 C 869.562 0.975374 1.34446 0
M  V30 9328 O 870.747 1.24749 1.44369 0
M  V30 9329 C 867.887 2.58496 2.28635 0
M  V30 9330 C 867 3.82947 1.99939 0
M  V30 9331 C 866.135 4.21857 3.22816 0
M  V30 9332 C 865.174 5.39159 2.89783 0
M  V30 9333 N 864.311 5.73386 4.05183 0
M  V30 9334 H 869.151 2.92684 0.560385 0
M  V30 9335 H 866.688 1.44692 0.265053 0
M  V30 9336 H 868.646 2.85787 3.03943 0
M  V30 9337 H 867.276 1.768 2.70077 0
M  V30 9338 H 866.328 3.62594 1.1502 0
M  V30 9339 H 867.64 4.68358 1.71588 0
M  V30 9340 H 866.794 4.50404 4.06474 0
M  V30 9341 H 865.533 3.35145 3.54301 0
M  V30 9342 H 864.538 5.1034 2.04532 0
M  V30 9343 H 865.763 6.27543 2.59551 0
M  V30 9344 H 863.709 4.89632 4.36574 0
M  V30 9345 H 863.626 6.53359 3.80339 0
M  V30 9346 H 864.894 6.06522 4.89644 0
M  V30 9347 N 869.123 -0.277682 1.55134 0
M  V30 9348 C 870.348 -1.03254 1.7987 0
M  V30 9349 C 870.773 -1.79324 0.567861 0
M  V30 9350 O 870.131 -1.74764 -0.4824 0
M  V30 9351 C 870.179 -1.9705 3.02 0
M  V30 9352 O 869.283 -3.05744 2.76757 0
M  V30 9353 H 868.624 -0.295447 0.594649 0
M  V30 9354 H 871.154 -0.308013 2.02268 0
M  V30 9355 H 871.164 -2.3909 3.30606 0
M  V30 9356 H 869.839 -1.41094 3.91236 0
M  V30 9357 H 868.416 -2.68052 2.59235 0
M  V30 9358 N 870.601 -1.47988 -0.541979 0
M  V30 9359 C 871.826 -1.59286 -1.32826 0
M  V30 9360 C 872.251 -0.24894 -1.86445 0
M  V30 9361 O 871.609 0.777581 -1.63778 0
M  V30 9362 C 871.657 -2.6334 -2.46343 0
M  V30 9363 O 870.761 -2.19667 -3.49028 0
M  V30 9364 H 870.102 -0.534543 -0.393903 0
M  V30 9365 H 872.632 -1.93885 -0.653427 0
M  V30 9366 H 872.642 -2.84238 -2.92699 0
M  V30 9367 H 871.317 -3.60913 -2.06675 0
M  V30 9368 H 869.894 -2.08932 -3.08872 0
M  V30 9369 N 872.079 0.78992 -1.36375 0
M  V30 9370 C 873.328 1.54296 -1.29906 0
M  V30 9371 C 873.641 1.95234 0.119651 0
M  V30 9372 O 874.847 2.69762 0.306708 0
M  V30 9373 C 873.303 2.78533 -2.27919 0
M  V30 9374 C 872.911 2.44767 -3.75224 0
M  V30 9375 C 874.655 3.56516 -2.30427 0
M  V30 9376 C 872.562 3.65397 -4.65015 0
M  V30 9377 H 871.492 0.579214 -0.482729 0
M  V30 9378 H 874.143 0.866845 -1.61735 0
M  V30 9379 H 872.525 3.47941 -1.89084 0
M  V30 9380 H 873.699 1.83259 -4.22792 0
M  V30 9381 H 872.014 1.79996 -3.75487 0
M  V30 9382 H 874.611 4.46143 -2.94722 0
M  V30 9383 H 874.954 3.95063 -1.31266 0
M  V30 9384 H 875.487 2.94087 -2.67876 0
M  V30 9385 H 872.226 3.31946 -5.65236 0
M  V30 9386 H 871.746 4.26072 -4.22164 0
M  V30 9387 H 873.425 4.32431 -4.81261 0
M  V30 9388 N 873.557 1.20646 1.01402 0
M  V30 9389 C 874.805 1.01618 1.74695 0
M  V30 9390 C 875.126 -0.452438 1.89679 0
M  V30 9391 O 874.396 -1.32693 1.44116 0
M  V30 9392 H 872.976 0.373013 0.647202 0
M  V30 9393 H 875.638 1.518 1.22241 0
M  V30 9394 H 874.734 1.47666 2.74957 0
M  V30 9395 N 875.035 -1.20752 1.01276 0
M  V30 9396 C 875.983 -2.25432 0.572989 0
M  V30 9397 C 876.977 -1.64935 -0.386354 0
M  V30 9398 O 878.183 -1.7816 -0.256696 0
M  V30 9399 H 874.558 -0.733229 0.166972 0
M  V30 9400 H 876.529 -2.59856 1.46687 0
M  V30 9401 C 875.278 -3.47615 -0.0768249 0
M  V30 9402 H 874.601 -3.94442 0.652354 0
M  V30 9403 H 876.041 -4.22572 -0.3477 0
M  V30 9404 C 874.5 -3.1003 -1.31845 0
M  V30 9405 O 875.03 -3.21216 -2.41211 0
M  V30 9406 N 873.236 -2.64616 -1.20111 0
M  V30 9407 H 872.783 -2.55714 -0.311184 0
M  V30 9408 H 872.741 -2.39838 -2.03286 0
M  V30 9409 N 876.513 -0.788492 -1.36457 0
M  V30 9410 C 877.738 -0.371224 -2.04051 0
M  V30 9411 C 878.163 1.004 -1.59064 0
M  V30 9412 O 877.521 1.64663 -0.758679 0
M  V30 9413 C 877.569 -0.442275 -3.57877 0
M  V30 9414 O 876.673 0.55113 -4.08701 0
M  V30 9415 H 876.014 -0.157808 -0.644975 0
M  V30 9416 H 878.544 -1.06935 -1.74431 0
M  V30 9417 H 878.554 -0.305548 -4.06854 0
M  V30 9418 H 877.229 -1.44547 -3.89973 0
M  V30 9419 H 875.806 0.37614 -3.70998 0
M  V30 9420 N 877.991 1.48044 -0.54043 0
M  V30 9421 C 878.921 2.32597 0.205178 0
M  V30 9422 C 879.902 1.42748 0.925041 0
M  V30 9423 O 881.087 1.71624 0.908784 0
M  V30 9424 C 878.217 3.24175 1.24612 0
M  V30 9425 C 877.171 4.23131 0.64376 0
M  V30 9426 C 876.497 5.03915 1.78812 0
M  V30 9427 C 877.797 5.20831 -0.39144 0
M  V30 9428 H 879.491 2.95184 -0.500676 0
M  V30 9429 H 877.037 1.41948 -0.242225 0
M  V30 9430 H 878.99 3.82158 1.77576 0
M  V30 9431 H 877.714 2.59608 1.98169 0
M  V30 9432 H 876.373 3.66349 0.135554 0
M  V30 9433 H 876.021 4.35765 2.51232 0
M  V30 9434 H 875.721 5.709 1.39094 0
M  V30 9435 H 877.245 5.64753 2.32134 0
M  V30 9436 H 878.659 5.73277 0.0515064 0
M  V30 9437 H 877.056 5.95926 -0.706569 0
M  V30 9438 H 878.126 4.6733 -1.29345 0
M  V30 9439 N 879.47 0.276058 1.55163 0
M  V30 9440 C 880.719 -0.341098 1.98795 0
M  V30 9441 C 881.032 -1.56905 1.16791 0
M  V30 9442 O 882.238 -2.25922 1.50571 0
M  V30 9443 C 880.694 -0.658231 3.5383 0
M  V30 9444 C 880.302 0.549972 4.44611 0
M  V30 9445 C 882.046 -1.23796 4.06048 0
M  V30 9446 C 879.953 0.207373 5.91036 0
M  V30 9447 H 878.883 -0.131224 0.742493 0
M  V30 9448 H 881.534 0.380858 1.79504 0
M  V30 9449 H 879.916 -1.43911 3.68925 0
M  V30 9450 H 881.09 1.32681 4.41285 0
M  V30 9451 H 879.405 1.04661 4.03032 0
M  V30 9452 H 882.002 -1.50811 5.12991 0
M  V30 9453 H 882.345 -2.17214 3.55139 0
M  V30 9454 H 882.878 -0.519345 3.94395 0
M  V30 9455 H 879.617 1.10946 6.46043 0
M  V30 9456 H 879.137 -0.532687 5.9743 0
M  V30 9457 H 880.816 -0.200072 6.46691 0
M  V30 9458 N 880.948 -1.576 0.00335426 0
M  V30 9459 C 882.364 -1.55653 -0.352766 0
M  V30 9460 C 882.564 -1.00632 -1.74572 0
M  V30 9461 O 881.62 -0.641621 -2.44212 0
M  V30 9462 C 882.933 -2.99858 -0.224929 0
M  V30 9463 C 884.481 -3.11563 -0.299619 0
M  V30 9464 C 884.956 -4.57559 -0.200868 0
M  V30 9465 N 886.447 -4.62477 -0.258663 0
M  V30 9466 C 887.182 -5.73031 -0.205644 0
M  V30 9467 N 886.678 -6.92723 -0.103027 0
M  V30 9468 N 888.471 -5.61509 -0.257754 0
M  V30 9469 H 880.622 -1.91703 0.914539 0
M  V30 9470 H 882.885 -0.88068 0.350865 0
M  V30 9471 H 882.591 -3.43964 0.733595 0
M  V30 9472 H 882.465 -3.63547 -1.00564 0
M  V30 9473 H 884.852 -2.67384 -1.24859 0
M  V30 9474 H 884.933 -2.50644 0.511025 0
M  V30 9475 H 884.577 -5.02413 0.744572 0
M  V30 9476 H 884.507 -5.16428 -1.03004 0
M  V30 9477 H 886.998 -3.76375 -0.339168 0
M  V30 9478 H 887.311 -7.7277 -0.0685593 0
M  V30 9479 H 885.656 -6.94966 -0.0686069 0
M  V30 9480 H 888.847 -4.66892 -0.336142 0
M  V30 9481 H 889.02 -6.4765 -0.21297 0
M  V30 9482 N 882.426 0.269451 -1.5528 0
M  V30 9483 C 883.654 1.01872 -1.80082 0
M  V30 9484 C 884.069 1.79802 -0.575917 0
M  V30 9485 O 883.426 1.76735 0.455081 0
M  V30 9486 C 883.477 1.9745 -3.02813 0
M  V30 9487 O 883.198 1.22677 -4.20573 0
M  V30 9488 C 884.699 2.8416 -3.40247 0
M  V30 9489 H 881.919 0.300781 -0.59981 0
M  V30 9490 H 884.463 0.29916 -2.023 0
M  V30 9491 H 882.618 2.64864 -2.82712 0
M  V30 9492 H 883.032 1.87129 -4.89982 0
M  V30 9493 H 884.506 3.47014 -4.29284 0
M  V30 9494 H 884.983 3.54113 -2.59809 0
M  V30 9495 H 885.589 2.22232 -3.6262 0
M  V30 9496 N 883.904 1.48273 0.534124 0
M  V30 9497 C 885.134 1.59503 1.31311 0
M  V30 9498 C 885.542 0.25284 1.87503 0
M  V30 9499 O 884.885 -0.767399 1.66903 0
M  V30 9500 C 884.947 2.57899 2.50456 0
M  V30 9501 C 884.611 4.03063 2.15382 0
M  V30 9502 C 885.608 4.90869 1.713 0
M  V30 9503 C 883.293 4.4857 2.26032 0
M  V30 9504 C 885.287 6.22209 1.38328 0
M  V30 9505 C 882.974 5.79932 1.92672 0
M  V30 9506 C 883.972 6.66574 1.4889 0
M  V30 9507 O 883.66 7.95492 1.15966 0
M  V30 9508 H 883.392 0.540695 0.405739 0
M  V30 9509 H 885.946 1.94794 0.651497 0
M  V30 9510 H 884.176 2.1772 3.19585 0
M  V30 9511 H 885.865 2.59008 3.12522 0
M  V30 9512 H 886.631 4.56951 1.62545 0
M  V30 9513 H 882.51 3.81321 2.59066 0
M  V30 9514 H 886.054 6.89792 1.04082 0
M  V30 9515 H 881.951 6.13386 2.01066 0
M  V30 9516 H 882.719 8.08207 1.29399 0
M  V30 9517 N 885.382 -0.782676 1.36792 0
M  V30 9518 C 886.315 -1.90241 1.2603 0
M  V30 9519 C 887.293 -1.61969 0.143055 0
M  V30 9520 O 888.477 -1.85843 0.315366 0
M  V30 9521 C 885.604 -3.25218 0.946082 0
M  V30 9522 C 884.65 -3.72414 2.0787 0
M  V30 9523 S 885.483 -3.87376 3.69729 0
M  V30 9524 C 886.639 -5.25219 3.40435 0
M  V30 9525 H 886.872 -1.99079 2.20805 0
M  V30 9526 H 884.405 -0.942625 1.22286 0
M  V30 9527 H 886.363 -4.03183 0.771612 0
M  V30 9528 H 885.024 -3.14096 0.0159991 0
M  V30 9529 H 884.217 -4.7024 1.81358 0
M  V30 9530 H 883.819 -3.01519 2.21274 0
M  V30 9531 H 886.111 -6.10025 2.94746 0
M  V30 9532 H 887.054 -5.56738 4.37549 0
M  V30 9533 H 887.462 -4.92638 2.75622 0
M  V30 9534 N 886.86 -1.21182 -1.00761 0
M  V30 9535 C 887.77 -0.984691 -2.12934 0
M  V30 9536 C 888.786 0.0623657 -1.73888 0
M  V30 9537 O 889.962 -0.1271 -2.00999 0
M  V30 9538 C 887.027 -0.549447 -3.42319 0
M  V30 9539 C 886.088 -1.66841 -3.95553 0
M  V30 9540 C 885.321 -1.25384 -5.18763 0
M  V30 9541 O 885.544 -0.126333 -5.7026 0
M  V30 9542 O 884.478 -2.06475 -5.65377 0
M  V30 9543 H 888.304 -1.92413 -2.3497 0
M  V30 9544 H 885.889 -0.99647 -1.11314 0
M  V30 9545 H 887.771 -0.316384 -4.20211 0
M  V30 9546 H 886.446 0.361304 -3.21677 0
M  V30 9547 H 885.353 -1.95585 -3.189 0
M  V30 9548 H 886.686 -2.55649 -4.206 0
M  V30 9549 N 888.338 1.20213 -1.01915 0
M  V30 9550 C 889.754 1.41696 -0.734459 0
M  V30 9551 C 889.954 1.89504 0.684867 0
M  V30 9552 O 889.01 2.06556 1.45227 0
M  V30 9553 C 890.323 2.43644 -1.76233 0
M  V30 9554 C 891.871 2.57406 -1.78076 0
M  V30 9555 C 892.346 3.626 -2.79796 0
M  V30 9556 N 893.837 3.70086 -2.78551 0
M  V30 9557 C 894.572 4.51145 -3.53915 0
M  V30 9558 N 894.068 5.35988 -4.38963 0
M  V30 9559 N 895.861 4.45702 -3.425 0
M  V30 9560 H 888.012 0.874976 -1.93541 0
M  V30 9561 H 890.275 0.446647 -0.836188 0
M  V30 9562 H 889.981 2.15519 -2.77929 0
M  V30 9563 H 889.855 3.42672 -1.57657 0
M  V30 9564 H 892.242 2.8486 -0.770634 0
M  V30 9565 H 892.323 1.58565 -2.00725 0
M  V30 9566 H 891.967 3.35889 -3.80973 0
M  V30 9567 H 891.897 4.61069 -2.54407 0
M  V30 9568 H 894.388 3.09484 -2.1686 0
M  V30 9569 H 894.701 5.94932 -4.9323 0
M  V30 9570 H 893.046 5.35482 -4.4304 0
M  V30 9571 H 896.237 3.78456 -2.75478 0
M  V30 9572 H 896.41 5.08637 -4.01487 0
M  V30 9573 N 889.816 0.795718 1.36037 0
M  V30 9574 C 891.093 0.294743 1.93367 0
M  V30 9575 C 891.473 -1.21406 1.72696 0
M  V30 9576 O 890.821 -2.00849 1.08959 0
M  V30 9577 C 891.031 0.694254 3.42025 0
M  V30 9578 C 892.379 0.677566 4.19159 0
M  V30 9579 O 893.403 0.635119 3.50492 0
M  V30 9580 O 892.262 0.726127 5.41655 0
M  V30 9581 H 889.356 0.0745459 0.823633 0
M  V30 9582 H 891.902 0.878685 1.4518 0
M  V30 9583 H 890.674 1.73458 3.50753 0
M  V30 9584 H 890.297 0.0845338 3.9751 0
M  V30 9585 N 891.294 -1.47756 0.548274 0
M  V30 9586 C 892.524 -2.06584 0.0254503 0
M  V30 9587 C 892.932 -1.40268 -1.26971 0
M  V30 9588 O 892.275 -0.49019 -1.77039 0
M  V30 9589 C 892.337 -3.58628 -0.250301 0
M  V30 9590 C 892.001 -4.4693 0.954087 0
M  V30 9591 C 892.998 -4.85592 1.85733 0
M  V30 9592 C 890.683 -4.88573 1.16624 0
M  V30 9593 C 892.677 -5.64686 2.95648 0
M  V30 9594 C 890.364 -5.67435 2.2685 0
M  V30 9595 C 891.362 -6.05401 3.16194 0
M  V30 9596 O 891.05 -6.82676 4.24511 0
M  V30 9597 H 890.782 -0.67489 0.0387264 0
M  V30 9598 H 893.336 -1.90876 0.758663 0
M  V30 9599 H 891.566 -3.72516 -1.03771 0
M  V30 9600 H 893.255 -3.9951 -0.717419 0
M  V30 9601 H 894.021 -4.54026 1.70544 0
M  V30 9602 H 889.9 -4.58494 0.480039 0
M  V30 9603 H 893.444 -5.9424 3.65411 0
M  V30 9604 H 889.341 -5.98413 2.42016 0
M  V30 9605 H 890.109 -7.01057 4.22447 0
M  V30 9606 N 892.772 -0.284283 -1.55015 0
M  V30 9607 C 894.021 0.33055 -1.98973 0
M  V30 9608 C 894.334 1.56284 -1.17621 0
M  V30 9609 O 895.54 2.2512 -1.51767 0
M  V30 9610 C 893.996 0.639457 -3.54174 0
M  V30 9611 C 893.604 -0.573543 -4.44313 0
M  V30 9612 C 895.348 1.21641 -4.06699 0
M  V30 9613 C 893.255 -0.238715 -5.90918 0
M  V30 9614 H 892.185 0.127285 -0.743179 0
M  V30 9615 H 894.836 -0.390372 -1.793 0
M  V30 9616 H 893.218 1.41953 -3.69683 0
M  V30 9617 H 894.392 -1.3502 -4.40575 0
M  V30 9618 H 892.707 -1.06797 -4.02472 0
M  V30 9619 H 895.304 1.48088 -5.13784 0
M  V30 9620 H 895.647 2.15328 -3.56286 0
M  V30 9621 H 896.18 0.498422 -3.94665 0
M  V30 9622 H 892.919 -1.1437 -6.45445 0
M  V30 9623 H 892.439 0.500997 -5.97704 0
M  V30 9624 H 894.118 0.165774 -6.46788 0
M  V30 9625 N 894.251 1.57596 -0.0117121 0
M  V30 9626 C 895.5 1.9025 0.669921 0
M  V30 9627 C 895.813 0.887986 1.74282 0
M  V30 9628 O 897.019 1.10516 2.47989 0
M  V30 9629 C 895.475 3.37762 1.24277 0
M  V30 9630 C 895.083 4.47535 0.204076 0
M  V30 9631 C 896.827 3.79509 1.90192 0
M  V30 9632 C 894.734 5.86132 0.787577 0
M  V30 9633 H 893.664 0.709935 0.253984 0
M  V30 9634 H 896.315 1.8335 -0.0741718 0
M  V30 9635 H 894.697 3.39537 2.03791 0
M  V30 9636 H 895.871 4.57294 -0.56733 0
M  V30 9637 H 894.186 4.14881 -0.355305 0
M  V30 9638 H 896.783 4.80402 2.34773 0
M  V30 9639 H 897.126 3.13643 2.7374 0
M  V30 9640 H 897.659 3.80084 1.17394 0
M  V30 9641 H 894.398 6.55499 -0.00938418 0
M  V30 9642 H 893.918 5.80014 1.52787 0
M  V30 9643 H 895.597 6.34158 1.28265 0
M  V30 9644 N 895.729 -0.261212 1.5542 0
M  V30 9645 C 897.14 -0.83138 1.67167 0
M  V30 9646 C 897.491 -1.8659 0.606525 0
M  V30 9647 O 896.616 -2.14953 -0.24985 0
M  V30 9648 C 897.211 -1.51475 3.03052 0
M  V30 9649 C 895.77 -2.0328 3.16787 0
M  V30 9650 C 894.917 -0.878903 2.63003 0
M  V30 9651 H 897.868 -0.0373102 1.58656 0
M  V30 9652 H 897.889 -2.38222 2.96699 0
M  V30 9653 H 897.401 -0.76157 3.80554 0
M  V30 9654 H 895.502 -2.81523 2.44082 0
M  V30 9655 H 895.615 -2.24001 4.2351 0
M  V30 9656 H 893.979 -1.27551 2.2046 0
M  V30 9657 H 894.762 -0.13904 3.43018 0
M  V30 9658 N 897.207 -1.48554 -0.526253 0
M  V30 9659 C 898.117 -1.66044 -1.65731 0
M  V30 9660 C 899.133 -0.542951 -1.65312 0
M  V30 9661 O 900.309 -0.814495 -1.84195 0
M  V30 9662 C 897.374 -1.69959 -3.02184 0
M  V30 9663 C 896.435 -2.93362 -3.13428 0
M  V30 9664 C 895.668 -2.97081 -4.43372 0
M  V30 9665 O 895.891 -2.09103 -5.3069 0
M  V30 9666 O 894.825 -3.8929 -4.59061 0
M  V30 9667 H 898.651 -2.61811 -1.53912 0
M  V30 9668 H 896.236 -1.31999 -0.699759 0
M  V30 9669 H 898.118 -1.75033 -3.83329 0
M  V30 9670 H 896.793 -0.773658 -3.14319 0
M  V30 9671 H 895.7 -2.93818 -2.31564 0
M  V30 9672 H 897.033 -3.85352 -3.06211 0
M  V30 9673 N 898.685 0.775411 -1.37205 0
M  V30 9674 C 899.91 1.5696 -1.35567 0
M  V30 9675 C 900.335 1.88012 0.0575554 0
M  V30 9676 O 899.693 1.48954 1.03355 0
M  V30 9677 C 899.741 2.85886 -2.19776 0
M  V30 9678 O 898.845 3.80103 -1.59987 0
M  V30 9679 H 898.186 0.475583 -0.463375 0
M  V30 9680 H 900.716 0.96001 -1.80679 0
M  V30 9681 H 900.726 3.35024 -2.32859 0
M  V30 9682 H 899.401 2.62613 -3.22502 0
M  V30 9683 H 897.978 3.38736 -1.55924 0
M  V30 9684 N 900.163 1.21714 1.00117 0
M  V30 9685 C 901.41 1.0367 1.73951 0
M  V30 9686 C 901.738 -0.429289 1.89703 0
M  V30 9687 O 900.993 -1.33475 1.43119 0
M  V30 9688 C 901.292 1.68345 3.15269 0
M  V30 9689 C 900.958 3.18214 3.19454 0
M  V30 9690 C 899.62 3.59109 3.20303 0
M  V30 9691 C 901.972 4.14179 3.16394 0
M  V30 9692 C 899.3 4.94467 3.15783 0
M  V30 9693 C 901.652 5.49502 3.13416 0
M  V30 9694 C 900.316 5.8979 3.12577 0
M  V30 9695 H 899.586 0.379355 0.63653 0
M  V30 9696 H 902.233 1.51361 1.17312 0
M  V30 9697 H 900.538 1.12957 3.75164 0
M  V30 9698 H 902.235 1.51882 3.71124 0
M  V30 9699 H 898.825 2.85646 3.19538 0
M  V30 9700 H 903.009 3.83607 3.14895 0
M  V30 9701 H 898.265 5.24923 3.13473 0
M  V30 9702 H 902.439 6.23595 3.10003 0
M  V30 9703 H 900.066 6.94643 3.08829 0
M  V30 9704 N 901.641 -1.19671 1.02551 0
M  V30 9705 C 902.551 -2.26441 0.613329 0
M  V30 9706 C 903.567 -1.70375 -0.353339 0
M  V30 9707 O 904.743 -2.0028 -0.212064 0
M  V30 9708 C 901.808 -3.46684 -0.0329028 0
M  V30 9709 C 900.869 -4.17945 0.980837 0
M  V30 9710 C 900.102 -5.32448 0.36535 0
M  V30 9711 O 900.325 -5.64291 -0.832596 0
M  V30 9712 O 899.259 -5.92012 1.08652 0
M  V30 9713 H 903.085 -2.63932 1.50246 0
M  V30 9714 H 900.67 -1.2646 0.795502 0
M  V30 9715 H 902.552 -4.1956 -0.393395 0
M  V30 9716 H 901.227 -3.1105 -0.896089 0
M  V30 9717 H 900.134 -3.47204 1.39286 0
M  V30 9718 H 901.467 -4.57542 1.81428 0
M  V30 9719 N 903.119 -0.802921 -1.35613 0
M  V30 9720 C 904.396 -0.304993 -1.93208 0
M  V30 9721 C 904.776 1.20488 -1.73337 0
M  V30 9722 O 904.124 2.00268 -1.10022 0
M  V30 9723 C 904.334 -0.712383 -3.41652 0
M  V30 9724 C 905.682 -0.699785 -4.18794 0
M  V30 9725 O 906.706 -0.653698 -3.5015 0
M  V30 9726 O 905.565 -0.754842 -5.41262 0
M  V30 9727 H 902.659 -0.0789127 -0.823226 0
M  V30 9728 H 905.205 -0.886372 -1.44712 0
M  V30 9729 H 903.977 -1.75316 -3.49829 0
M  V30 9730 H 903.6 -0.105614 -3.9746 0
M  V30 9731 N 904.597 1.47463 -0.556102 0
M  V30 9732 C 905.844 2.02475 -0.0316337 0
M  V30 9733 C 906.172 1.43057 1.31777 0
M  V30 9734 O 905.427 0.575376 1.87051 0
M  V30 9735 C 905.726 3.57224 0.112126 0
M  V30 9736 C 905.392 4.35557 -1.16624 0
M  V30 9737 C 904.054 4.56678 -1.51654 0
M  V30 9738 C 906.406 4.8074 -2.01342 0
M  V30 9739 C 903.734 5.20231 -2.7125 0
M  V30 9740 C 906.086 5.45613 -3.2014 0
M  V30 9741 C 904.75 5.64967 -3.55484 0
M  V30 9742 H 904.02 0.74091 -0.0115756 0
M  V30 9743 H 906.667 1.77148 -0.727392 0
M  V30 9744 H 904.972 3.81538 0.890842 0
M  V30 9745 H 906.669 3.97438 0.533261 0
M  V30 9746 H 903.259 4.19395 -0.883489 0
M  V30 9747 H 907.443 4.64201 -1.75587 0
M  V30 9748 H 902.699 5.3341 -2.98804 0
M  V30 9749 H 906.873 5.79587 -3.86073 0
M  V30 9750 H 904.5 6.13984 -4.4825 0
M  V30 9751 N 906.075 0.2925 1.54862 0
M  V30 9752 C 907.321 -0.319736 2.00264 0
M  V30 9753 C 907.654 -1.5419 1.18064 0
M  V30 9754 O 906.929 -1.92821 0.254983 0
M  V30 9755 C 907.212 -0.684753 3.5353 0
M  V30 9756 C 907.065 0.545961 4.46474 0
M  V30 9757 C 908.384 -1.51456 4.13218 0
M  V30 9758 H 905.503 -0.11474 0.728014 0
M  V30 9759 H 908.145 0.402907 1.85679 0
M  V30 9760 H 906.295 -1.30044 3.66089 0
M  V30 9761 H 907.967 1.18448 4.45834 0
M  V30 9762 H 906.21 1.1808 4.1742 0
M  V30 9763 H 906.881 0.246544 5.51449 0
M  V30 9764 H 909.357 -0.994421 4.04043 0
M  V30 9765 H 908.233 -1.73875 5.20633 0
M  V30 9766 H 908.494 -2.5011 3.64551 0
M  V30 9767 N 907.553 -1.57587 0.0200696 0
M  V30 9768 C 908.783 -1.95435 -0.669991 0
M  V30 9769 C 909.191 -0.894647 -1.66711 0
M  V30 9770 O 908.534 0.133009 -1.83218 0
M  V30 9771 C 908.596 -3.29379 -1.44047 0
M  V30 9772 C 908.26 -4.53008 -0.602691 0
M  V30 9773 C 909.257 -5.19766 0.118188 0
M  V30 9774 C 906.942 -4.99359 -0.542754 0
M  V30 9775 C 908.936 -6.31187 0.887774 0
M  V30 9776 C 906.623 -6.10665 0.230543 0
M  V30 9777 C 907.621 -6.76438 0.944522 0
M  V30 9778 O 907.309 -7.85608 1.70516 0
M  V30 9779 H 907.041 -0.648681 -0.190234 0
M  V30 9780 H 909.595 -2.05269 0.0733838 0
M  V30 9781 H 907.825 -3.1601 -2.22878 0
M  V30 9782 H 909.514 -3.52194 -2.01777 0
M  V30 9783 H 910.28 -4.84932 0.0811604 0
M  V30 9784 H 906.159 -4.47976 -1.08804 0
M  V30 9785 H 909.703 -6.82458 1.44558 0
M  V30 9786 H 905.6 -6.44938 0.26932 0
M  V30 9787 H 906.368 -8.02228 1.62398 0
M  V30 9788 N 909.032 0.252966 -1.55557 0
M  V30 9789 C 910.278 0.983306 -1.77367 0
M  V30 9790 C 910.611 1.85203 -0.584258 0
M  V30 9791 O 909.886 1.89963 0.417644 0
M  V30 9792 C 910.169 1.84896 -3.09007 0
M  V30 9793 C 910.022 1.00883 -4.38341 0
M  V30 9794 C 911.341 2.83254 -3.36831 0
M  V30 9795 H 908.46 0.356056 -0.645286 0
M  V30 9796 H 911.102 0.254232 -1.88291 0
M  V30 9797 H 909.252 2.47058 -2.99825 0
M  V30 9798 H 910.924 0.40638 -4.59507 0
M  V30 9799 H 909.167 0.31297 -4.3267 0
M  V30 9800 H 909.838 1.64818 -5.2682 0
M  V30 9801 H 912.314 2.31228 -3.45937 0
M  V30 9802 H 911.19 3.40949 -4.30169 0
M  V30 9803 H 911.451 3.59407 -2.57447 0
M  V30 9804 N 910.51 1.48831 0.518367 0
M  V30 9805 C 911.758 1.57128 1.27103 0
M  V30 9806 C 912.079 0.252098 1.93364 0
M  V30 9807 O 911.349 -0.727281 1.819 0
M  V30 9808 H 909.929 0.578891 0.472116 0
M  V30 9809 H 912.591 1.85361 0.602262 0
M  V30 9810 H 911.687 2.35838 2.04418 0
M  V30 9811 N 911.988 -0.768124 1.37614 0
M  V30 9812 C 912.918 -1.89537 1.36374 0
M  V30 9813 C 913.899 -1.68513 0.231803 0
M  V30 9814 O 915.084 -1.89318 0.432705 0
M  V30 9815 C 912.214 -3.26871 1.17358 0
M  V30 9816 C 911.168 -3.62466 2.27602 0
M  V30 9817 C 910.494 -4.9838 1.93705 0
M  V30 9818 C 911.794 -3.68841 3.69802 0
M  V30 9819 H 913.488 -1.90832 2.30702 0
M  V30 9820 H 911.034 -0.91672 1.11051 0
M  V30 9821 H 912.987 -4.05371 1.15119 0
M  V30 9822 H 911.711 -3.26018 0.194865 0
M  V30 9823 H 910.37 -2.86276 2.29002 0
M  V30 9824 H 910.018 -4.94071 0.943539 0
M  V30 9825 H 909.718 -5.23165 2.6753 0
M  V30 9826 H 911.242 -5.79276 1.93059 0
M  V30 9827 H 912.656 -4.37485 3.70513 0
M  V30 9828 H 911.053 -4.05126 4.42711 0
M  V30 9829 H 912.123 -2.69415 4.03167 0
M  V30 9830 N 913.466 -1.22244 -0.994698 0
M  V30 9831 C 914.712 -1.04746 -1.73655 0
M  V30 9832 C 915.045 0.41668 -1.89677 0
M  V30 9833 O 914.32 1.30897 -1.43862 0
M  V30 9834 C 914.603 -1.75716 -3.14318 0
M  V30 9835 C 914.456 -3.29714 -3.05955 0
M  V30 9836 C 915.775 -1.50809 -4.13455 0
M  V30 9837 H 912.894 -0.381921 -0.630322 0
M  V30 9838 H 915.536 -1.50559 -1.15897 0
M  V30 9839 H 913.686 -1.3677 -3.63629 0
M  V30 9840 H 915.358 -3.78093 -2.64279 0
M  V30 9841 H 913.601 -3.59484 -2.42804 0
M  V30 9842 H 914.272 -3.74547 -4.05485 0
M  V30 9843 H 916.748 -1.84636 -3.72892 0
M  V30 9844 H 915.624 -2.02964 -5.09997 0
M  V30 9845 H 915.885 -0.440292 -4.39902 0
M  V30 9846 N 914.944 1.19125 -1.03184 0
M  V30 9847 C 915.874 2.24675 -0.635889 0
M  V30 9848 C 916.855 1.66321 0.356565 0
M  V30 9849 O 918.04 1.92728 0.238625 0
M  V30 9850 C 915.17 3.47298 0.011069 0
M  V30 9851 C 914.124 4.18345 -0.903979 0
M  V30 9852 C 913.45 5.34561 -0.12197 0
M  V30 9853 C 914.75 4.72816 -2.21907 0
M  V30 9854 H 916.444 2.5805 -1.51825 0
M  V30 9855 H 913.99 1.24039 -0.73146 0
M  V30 9856 H 915.943 4.20333 0.299729 0
M  V30 9857 H 914.667 3.13131 0.928245 0
M  V30 9858 H 913.326 3.47196 -1.17688 0
M  V30 9859 H 912.974 4.9664 0.797334 0
M  V30 9860 H 912.674 5.83029 -0.731498 0
M  V30 9861 H 914.198 6.10391 0.159881 0
M  V30 9862 H 915.612 5.3759 -1.99173 0
M  V30 9863 H 914.009 5.31782 -2.78078 0
M  V30 9864 H 915.079 3.9072 -2.87168 0
M  V30 9865 N 916.422 0.810101 1.35185 0
M  V30 9866 C 917.354 0.180581 2.28488 0
M  V30 9867 C 918.367 -0.622154 1.50443 0
M  V30 9868 O 919.556 -0.453938 1.72632 0
M  V30 9869 C 916.656 -0.766447 3.30119 0
M  V30 9870 C 915.829 -0.00932028 4.37399 0
M  V30 9871 C 914.888 -0.875354 5.18868 0
M  V30 9872 O 913.914 -0.325012 5.68271 0
M  V30 9873 N 915.116 -2.19695 5.37321 0
M  V30 9874 H 917.881 0.98212 2.83151 0
M  V30 9875 H 915.442 0.665879 1.47573 0
M  V30 9876 H 917.434 -1.35012 3.81515 0
M  V30 9877 H 916.004 -1.46878 2.75945 0
M  V30 9878 H 915.224 0.755585 3.86891 0
M  V30 9879 H 916.512 0.512352 5.06214 0
M  V30 9880 H 915.91 -2.66797 4.98834 0
M  V30 9881 H 914.467 -2.72978 5.91884 0
M  V30 9882 N 917.9 -1.47166 0.563914 0
M  V30 9883 C 919.148 -2.02056 0.0422873 0
M  V30 9884 C 919.469 -1.43992 -1.31497 0
M  V30 9885 O 918.739 -0.617578 -1.85911 0
M  V30 9886 H 917.319 -0.746893 0.0126427 0
M  V30 9887 H 919.981 -1.80492 0.735441 0
M  V30 9888 H 919.077 -3.12073 -0.0408044 0
M  V30 9889 N 919.378 -0.300708 -1.54705 0
M  V30 9890 C 920.31 0.609179 -2.20956 0
M  V30 9891 C 921.323 1.09776 -1.20221 0
M  V30 9892 O 922.512 1.01527 -1.46815 0
M  V30 9893 C 919.612 1.84595 -2.84214 0
M  V30 9894 C 918.785 1.49991 -4.10879 0
M  V30 9895 C 917.844 2.5918 -4.57943 0
M  V30 9896 O 916.87 2.24285 -5.23149 0
M  V30 9897 N 918.072 3.89714 -4.30236 0
M  V30 9898 H 920.837 0.0420111 -2.99671 0
M  V30 9899 H 918.398 -0.122896 -1.61433 0
M  V30 9900 H 920.39 2.56988 -3.12633 0
M  V30 9901 H 918.96 2.32152 -2.09342 0
M  V30 9902 H 918.18 0.608637 -3.89473 0
M  V30 9903 H 919.468 1.24409 -4.93356 0
M  V30 9904 H 918.866 4.20874 -3.77997 0
M  V30 9905 H 917.423 4.58406 -4.63365 0
M  V30 9906 N 920.856 1.57574 -0.0284266 0
M  V30 9907 C 922.104 1.91393 0.649079 0
M  V30 9908 C 922.425 0.905368 1.72708 0
M  V30 9909 O 921.695 -0.0532107 1.95828 0
M  V30 9910 H 920.275 0.70646 0.24274 0
M  V30 9911 H 922.937 1.94752 -0.076066 0
M  V30 9912 H 922.033 2.91988 1.10226 0
M  V30 9913 N 922.334 -0.244713 1.55689 0
M  V30 9914 C 923.267 -1.32946 1.85474 0
M  V30 9915 C 924.245 -1.46279 0.710021 0
M  V30 9916 O 925.429 -1.62459 0.956004 0
M  V30 9917 C 922.556 -2.7027 2.04137 0
M  V30 9918 C 921.602 -2.74075 3.2678 0
M  V30 9919 S 922.435 -2.30465 4.8337 0
M  V30 9920 C 923.591 -3.69709 5.05041 0
M  V30 9921 H 923.824 -1.07482 2.77191 0
M  V30 9922 H 921.357 -0.445807 1.47824 0
M  V30 9923 H 923.315 -3.4934 2.15574 0
M  V30 9924 H 921.976 -2.9297 1.13259 0
M  V30 9925 H 921.169 -3.74932 3.36812 0
M  V30 9926 H 920.771 -2.03051 3.1408 0
M  V30 9927 H 923.063 -4.65222 4.92518 0
M  V30 9928 H 924.006 -3.6461 6.07014 0
M  V30 9929 H 924.414 -3.62323 4.32877 0
M  V30 9930 N 923.813 -1.49104 -0.510467 0
M  V30 9931 C 925.229 -1.35657 -0.840797 0
M  V30 9932 C 925.429 -0.382425 -1.97838 0
M  V30 9933 O 924.485 0.189331 -2.51789 0
M  V30 9934 C 925.798 -2.76155 -1.18992 0
M  V30 9935 C 927.346 -2.84786 -1.29868 0
M  V30 9936 C 927.821 -4.2603 -1.68115 0
M  V30 9937 N 929.312 -4.28796 -1.75181 0
M  V30 9938 C 930.047 -5.35041 -2.062 0
M  V30 9939 N 929.543 -6.51543 -2.35508 0
M  V30 9940 N 931.336 -5.2245 -2.07371 0
M  V30 9941 H 923.487 -2.11042 0.23982 0
M  V30 9942 H 925.75 -0.946946 0.0446824 0
M  V30 9943 H 925.456 -3.49092 -0.427484 0
M  V30 9944 H 925.33 -3.10922 -2.13558 0
M  V30 9945 H 927.717 -2.12092 -2.05186 0
M  V30 9946 H 927.798 -2.53613 -0.333758 0
M  V30 9947 H 927.442 -4.99247 -0.933512 0
M  V30 9948 H 927.372 -4.5466 -2.65691 0
M  V30 9949 H 929.863 -3.44771 -1.5473 0
M  V30 9950 H 930.176 -7.28342 -2.58337 0
M  V30 9951 H 928.521 -6.54785 -2.32985 0
M  V30 9952 H 931.712 -4.30444 -1.83945 0
M  V30 9953 H 931.885 -6.05347 -2.31212 0
M  V30 9954 N 925.291 0.760815 -1.38019 0
M  V30 9955 C 926.241 1.86487 -1.31174 0
M  V30 9956 C 927.225 1.59684 -0.197414 0
M  V30 9957 O 928.417 1.71628 -0.432764 0
M  V30 9958 C 925.546 3.24103 -1.13192 0
M  V30 9959 C 924.632 3.5682 -2.29216 0
M  V30 9960 N 925.023 3.60644 -3.5464 0
M  V30 9961 C 923.321 3.87047 -2.2161 0
M  V30 9962 C 924.022 3.90423 -4.31214 0
M  V30 9963 N 922.998 4.06883 -3.60482 0
M  V30 9964 H 926.8 1.87711 -2.26146 0
M  V30 9965 H 924.314 0.957811 -1.31148 0
M  V30 9966 H 926.311 4.03101 -1.06372 0
M  V30 9967 H 924.971 3.24135 -0.191473 0
M  V30 9968 H 925.982 3.42581 -3.88405 0
M  V30 9969 H 922.659 3.94837 -1.35684 0
M  V30 9970 H 924.049 4.00065 -5.39812 0
M  V30 9971 N 926.769 1.22769 0.988202 0
M  V30 9972 C 928.017 1.05301 1.725 0
M  V30 9973 C 928.338 -0.412103 1.90596 0
M  V30 9974 O 927.608 -1.29606 1.46898 0
M  V30 9975 H 926.188 0.386658 0.639144 0
M  V30 9976 H 928.85 1.54359 1.18993 0
M  V30 9977 H 927.946 1.53465 2.71763 0
M  V30 9978 N 928.247 -1.18576 1.03814 0
M  V30 9979 C 929.177 -2.24334 0.647795 0
M  V30 9980 C 930.158 -1.66508 -0.34774 0
M  V30 9981 O 931.343 -1.92852 -0.228401 0
M  V30 9982 C 928.473 -3.47299 0.00734922 0
M  V30 9983 C 927.427 -4.17859 0.926152 0
M  V30 9984 C 926.753 -5.34489 0.150317 0
M  V30 9985 C 928.053 -4.71632 2.24411 0
M  V30 9986 H 929.747 -2.57241 1.53191 0
M  V30 9987 H 927.293 -1.23649 0.738028 0
M  V30 9988 H 929.246 -4.20486 -0.277434 0
M  V30 9989 H 927.97 -3.13619 -0.911626 0
M  V30 9990 H 926.629 -3.46567 1.19528 0
M  V30 9991 H 926.277 -4.97056 -0.770985 0
M  V30 9992 H 925.977 -5.82633 0.762407 0
M  V30 9993 H 927.501 -6.10467 -0.127508 0
M  V30 9994 H 928.915 -5.36526 2.02021 0
M  V30 9995 H 927.312 -5.303 2.80894 0
M  V30 9996 H 928.382 -3.89192 2.89236 0
M  V30 9997 N 929.725 -0.817259 -1.34754 0
M  V30 9998 C 930.635 -0.236946 -2.334 0
M  V30 9999 C 931.651 0.625685 -1.62361 0
M  V30 10000 O 932.827 0.534921 -1.94166 0
M  V30 10001 C 929.892 0.596215 -3.41535 0
M  V30 10002 C 928.953 -0.288154 -4.28332 0
M  V30 10003 C 928.186 0.505337 -5.31302 0
M  V30 10004 O 928.409 1.73912 -5.43241 0
M  V30 10005 O 927.343 -0.109374 -6.01801 0
M  V30 10006 H 931.169 -1.05327 -2.84851 0
M  V30 10007 H 928.754 -0.579275 -1.37713 0
M  V30 10008 H 930.636 1.07041 -4.07578 0
M  V30 10009 H 929.311 1.38997 -2.92338 0
M  V30 10010 H 928.218 -0.809724 -3.65232 0
M  V30 10011 H 929.551 -1.04612 -4.80955 0
M  V30 10012 N 931.203 1.46865 -0.571711 0
M  V30 10013 C 932.166 2.28658 0.157499 0
M  V30 10014 C 933.166 1.37773 0.829172 0
M  V30 10015 O 934.356 1.6026 0.682811 0
M  V30 10016 C 931.488 3.17859 1.23202 0
M  V30 10017 H 932.681 2.94603 -0.561171 0
M  V30 10018 H 930.234 1.52793 -0.329229 0
M  V30 10019 H 930.969 2.56637 1.98262 0
M  V30 10020 H 930.754 3.84762 0.755031 0
M  V30 10021 H 932.244 3.7945 1.74378 0
M  V30 10022 N 932.681 0.308908 1.54543 0
M  V30 10023 C 933.631 -0.578902 2.20528 0
M  V30 10024 C 934.615 -1.09288 1.18088 0
M  V30 10025 O 935.807 -1.03234 1.43777 0
M  V30 10026 C 932.936 -1.74649 2.95555 0
M  V30 10027 C 932.022 -1.24809 4.05319 0
M  V30 10028 N 932.413 -0.46828 5.03628 0
M  V30 10029 C 930.711 -1.52813 4.19004 0
M  V30 10030 C 931.412 -0.201896 5.8135 0
M  V30 10031 N 930.388 -0.783927 5.37918 0
M  V30 10032 H 934.19 0.0243496 2.9389 0
M  V30 10033 H 931.704 0.114049 1.61999 0
M  V30 10034 H 933.701 -2.39414 3.41301 0
M  V30 10035 H 932.361 -2.35336 2.23712 0
M  V30 10036 H 933.372 -0.112453 5.17778 0
M  V30 10037 H 930.049 -2.14191 3.58369 0
M  V30 10038 H 931.439 0.424929 6.70555 0
M  V30 10039 N 934.159 -1.57557 0.0367827 0
M  V30 10040 C 935.575 -1.56366 -0.31967 0
M  V30 10041 C 935.775 -1.04313 -1.72398 0
M  V30 10042 O 934.831 -0.693278 -2.42796 0
M  V30 10043 C 936.144 -3.00267 -0.161274 0
M  V30 10044 C 937.692 -3.12128 -0.233464 0
M  V30 10045 C 938.167 -4.57882 -0.103767 0
M  V30 10046 N 939.658 -4.62922 -0.160506 0
M  V30 10047 C 940.393 -5.73338 -0.0840493 0
M  V30 10048 N 939.889 -6.92786 0.043933 0
M  V30 10049 N 941.682 -5.61929 -0.138592 0
M  V30 10050 H 933.833 -1.8972 0.954996 0
M  V30 10051 H 936.096 -0.87304 0.369467 0
M  V30 10052 H 935.802 -3.42331 0.80639 0
M  V30 10053 H 935.676 -3.65599 -0.928304 0
M  V30 10054 H 938.063 -2.69972 -1.19159 0
M  V30 10055 H 938.144 -2.49503 0.564075 0
M  V30 10056 H 937.788 -5.0072 0.850973 0
M  V30 10057 H 937.718 -5.18496 -0.920268 0
M  V30 10058 H 940.209 -3.7701 -0.259257 0
M  V30 10059 H 940.522 -7.72741 0.095372 0
M  V30 10060 H 938.867 -6.94955 0.0788211 0
M  V30 10061 H 942.058 -4.67499 -0.237031 0
M  V30 10062 H 942.231 -6.47956 -0.075546 0
M  V30 10063 N 935.637 0.236453 -1.55816 0
M  V30 10064 C 937.053 0.585465 -1.48474 0
M  V30 10065 C 937.253 1.8785 -0.72902 0
M  V30 10066 O 936.309 2.51131 -0.262614 0
M  V30 10067 C 937.622 0.678506 -2.92945 0
M  V30 10068 C 939.17 0.770135 -3.03378 0
M  V30 10069 C 939.645 0.894649 -4.49177 0
M  V30 10070 N 941.136 0.959253 -4.53158 0
M  V30 10071 C 941.871 1.07505 -5.63232 0
M  V30 10072 N 941.367 1.15572 -6.83092 0
M  V30 10073 N 943.16 1.10902 -5.51051 0
M  V30 10074 H 935.311 -0.612241 -2.03385 0
M  V30 10075 H 937.574 -0.212796 -0.923808 0
M  V30 10076 H 937.28 -0.201757 -3.51121 0
M  V30 10077 H 937.154 1.54703 -3.44016 0
M  V30 10078 H 939.541 1.64085 -2.45276 0
M  V30 10079 H 939.622 -0.123753 -2.555 0
M  V30 10080 H 939.266 0.0284537 -5.07892 0
M  V30 10081 H 939.196 1.80373 -4.94745 0
M  V30 10082 H 941.687 0.907827 -3.66834 0
M  V30 10083 H 942 1.24343 -7.62731 0
M  V30 10084 H 940.345 1.12511 -6.85833 0
M  V30 10085 H 943.536 1.04255 -4.56343 0
M  V30 10086 H 943.709 1.19581 -6.36871 0
M  V30 10087 N 937.115 1.49373 0.502552 0
M  V30 10088 C 938.063 1.66411 1.62512 0
M  V30 10089 C 939.057 0.530062 1.60893 0
M  V30 10090 O 940.263 0.709648 1.65421 0
M  V30 10091 H 936.638 0.524707 0.538689 0
M  V30 10092 H 938.609 2.60639 1.45293 0
M  V30 10093 C 937.358 1.74648 3.00655 0
M  V30 10094 H 936.681 2.61285 3.02606 0
M  V30 10095 H 938.121 1.90605 3.78742 0
M  V30 10096 C 936.58 0.490963 3.33303 0
M  V30 10097 O 937.11 -0.384039 3.9986 0
M  V30 10098 N 935.316 0.354375 2.88431 0
M  V30 10099 H 934.863 1.06742 2.34444 0
M  V30 10100 H 934.821 -0.484593 3.10643 0
M  V30 10101 N 938.594 -0.753485 1.38421 0
M  V30 10102 C 940.01 -1.05656 1.1962 0
M  V30 10103 C 940.21 -2.0145 0.0449443 0
M  V30 10104 O 939.266 -2.45039 -0.609253 0
M  V30 10105 C 940.579 -1.63655 2.52265 0
M  V30 10106 C 942.127 -1.75825 2.58949 0
M  V30 10107 C 942.602 -2.37236 3.91769 0
M  V30 10108 N 944.093 -2.44666 3.9331 0
M  V30 10109 C 944.828 -2.93077 4.92842 0
M  V30 10110 N 944.324 -3.41523 6.02772 0
M  V30 10111 N 946.117 -2.92118 4.80232 0
M  V30 10112 H 938.268 -0.117799 2.12073 0
M  V30 10113 H 940.531 -0.114889 0.941012 0
M  V30 10114 H 940.237 -1.00734 3.36965 0
M  V30 10115 H 940.111 -2.62715 2.70667 0
M  V30 10116 H 942.498 -2.37873 1.74644 0
M  V30 10117 H 942.579 -0.754693 2.44414 0
M  V30 10118 H 942.223 -1.75822 4.76497 0
M  V30 10119 H 942.153 -3.38233 4.03616 0
M  V30 10120 H 944.644 -2.10403 3.1391 0
M  V30 10121 H 944.957 -3.76919 6.74649 0
M  V30 10122 H 943.302 -3.3958 6.06391 0
M  V30 10123 H 946.493 -2.53582 3.93464 0
M  V30 10124 H 946.666 -3.29535 5.57952 0
M  V30 10125 N 940.072 -1.23292 -0.981677 0
M  V30 10126 C 941.483 -1.05936 -1.53735 0
M  V30 10127 C 941.834 0.373695 -1.92608 0
M  V30 10128 O 940.959 1.26024 -1.75917 0
M  V30 10129 C 941.554 -1.91682 -2.79363 0
M  V30 10130 C 940.113 -1.78591 -3.31334 0
M  V30 10131 C 939.26 -1.87463 -2.04335 0
M  V30 10132 H 942.211 -1.36973 -0.801505 0
M  V30 10133 H 942.232 -1.44085 -3.52164 0
M  V30 10134 H 941.744 -2.95975 -2.51039 0
M  V30 10135 H 939.845 -0.770755 -3.64541 0
M  V30 10136 H 939.958 -2.61902 -4.01179 0
M  V30 10137 H 938.322 -1.3103 -2.18411 0
M  V30 10138 H 939.105 -2.9331 -1.78394 0
M  V30 10139 N 941.55 1.18024 -1.04442 0
M  V30 10140 C 942.78 1.91753 -0.769044 0
M  V30 10141 C 943.188 1.76629 0.678141 0
M  V30 10142 O 942.531 1.09589 1.47431 0
M  V30 10143 C 942.593 3.43505 -1.0604 0
M  V30 10144 C 942.257 3.82409 -2.50225 0
M  V30 10145 C 943.254 3.8588 -3.48414 0
M  V30 10146 C 940.939 4.13594 -2.85036 0
M  V30 10147 C 942.933 4.19993 -4.79463 0
M  V30 10148 C 940.62 4.47377 -4.1629 0
M  V30 10149 C 941.618 4.50553 -5.13314 0
M  V30 10150 O 941.306 4.83546 -6.42214 0
M  V30 10151 H 941.038 0.615466 -0.279603 0
M  V30 10152 H 943.592 1.5065 -1.3962 0
M  V30 10153 H 941.822 3.84866 -0.376125 0
M  V30 10154 H 943.511 3.98486 -0.772235 0
M  V30 10155 H 944.277 3.6192 -3.2286 0
M  V30 10156 H 940.156 4.10297 -2.10185 0
M  V30 10157 H 943.7 4.22387 -5.55189 0
M  V30 10158 H 939.597 4.70798 -4.4161 0
M  V30 10159 H 940.365 5.01433 -6.46921 0
M  V30 10160 N 943.028 0.824394 1.34319 0
M  V30 10161 C 944.268 0.419044 2.00058 0
M  V30 10162 C 944.632 -0.999504 1.63933 0
M  V30 10163 O 945.833 -1.50781 2.22527 0
M  V30 10164 C 944.104 0.616897 3.52036 0
M  V30 10165 S 945.663 0.304614 4.37741 0
M  V30 10166 H 942.481 0.158265 0.693162 0
M  V30 10167 H 945.083 1.07053 1.63585 0
M  V30 10168 H 943.787 1.64896 3.75816 0
M  V30 10169 H 943.318 -0.0492693 3.93369 0
M  V30 10170 H 945.333 -0.88114 4.88314 0
M  V30 10171 N 944.506 -1.46559 0.579492 0
M  V30 10172 C 945.439 -2.27287 -0.203894 0
M  V30 10173 C 946.417 -1.3543 -0.899865 0
M  V30 10174 O 947.601 -1.64836 -0.914398 0
M  V30 10175 C 944.728 -3.13077 -1.2923 0
M  V30 10176 C 943.774 -4.20675 -0.702505 0
M  V30 10177 S 944.607 -5.3345 0.468136 0
M  V30 10178 C 945.763 -6.22806 -0.621544 0
M  V30 10179 H 945.996 -2.93382 0.481083 0
M  V30 10180 H 943.529 -1.49992 0.366311 0
M  V30 10181 H 945.487 -3.63069 -1.91548 0
M  V30 10182 H 944.148 -2.46302 -1.94921 0
M  V30 10183 H 943.341 -4.80516 -1.52053 0
M  V30 10184 H 942.943 -3.73678 -0.155046 0
M  V30 10185 H 945.235 -6.60503 -1.50803 0
M  V30 10186 H 946.178 -7.08075 -0.059961 0
M  V30 10187 H 946.586 -5.56882 -0.924242 0
M  V30 10188 N 945.984 -0.3171 -1.54377 0
M  V30 10189 C 947.232 0.286842 -2.00054 0
M  V30 10190 C 947.553 1.53161 -1.20692 0
M  V30 10191 O 946.823 1.93479 -0.307045 0
M  V30 10192 H 945.403 0.108979 -0.739008 0
M  V30 10193 H 948.065 -0.432152 -1.90049 0
M  V30 10194 H 947.161 0.547729 -3.07256 0
M  V30 10195 N 947.462 1.57535 -0.0451378 0
M  V30 10196 C 948.69 1.96761 0.639742 0
M  V30 10197 C 949.105 0.922405 1.64734 0
M  V30 10198 O 948.462 -0.0940535 1.82257 0
M  V30 10199 C 948.513 3.36066 1.33199 0
M  V30 10200 O 948.234 4.36579 0.364757 0
M  V30 10201 C 949.735 3.90015 2.1072 0
M  V30 10202 H 946.955 0.64769 0.175324 0
M  V30 10203 H 949.499 2.04206 -0.109651 0
M  V30 10204 H 947.654 3.2979 2.03266 0
M  V30 10205 H 948.068 5.17432 0.858168 0
M  V30 10206 H 949.542 4.89785 2.54586 0
M  V30 10207 H 950.019 3.25117 2.95288 0
M  V30 10208 H 950.625 3.99609 1.45577 0
M  V30 10209 N 948.94 -0.228186 1.55939 0
M  V30 10210 C 949.87 -1.28607 1.94891 0
M  V30 10211 C 950.851 -1.49236 0.816245 0
M  V30 10212 O 952.036 -1.61531 1.07803 0
M  V30 10213 C 949.166 -2.63719 2.25986 0
M  V30 10214 C 948.12 -2.57757 3.4168 0
M  V30 10215 C 947.446 -3.96837 3.58364 0
M  V30 10216 C 948.746 -2.13116 4.76843 0
M  V30 10217 H 950.44 -0.962531 2.83506 0
M  V30 10218 H 947.986 -0.461577 1.36402 0
M  V30 10219 H 949.939 -3.37878 2.51826 0
M  V30 10220 H 948.663 -2.97747 1.34217 0
M  V30 10221 H 947.322 -1.86055 3.15878 0
M  V30 10222 H 946.97 -4.28162 2.63982 0
M  V30 10223 H 946.67 -3.93731 4.36176 0
M  V30 10224 H 948.194 -4.72668 3.86545 0
M  V30 10225 H 949.608 -2.77015 5.01932 0
M  V30 10226 H 948.005 -2.21083 5.57891 0
M  V30 10227 H 949.075 -1.08326 4.72645 0
M  V30 10228 N 950.418 -1.49637 -0.494624 0
M  V30 10229 C 951.648 -1.62928 -1.27036 0
M  V30 10230 C 952.056 -0.302464 -1.86767 0
M  V30 10231 O 951.399 0.722878 -1.68879 0
M  V30 10232 C 951.461 -2.64449 -2.43531 0
M  V30 10233 C 951.125 -4.08632 -2.0462 0
M  V30 10234 C 952.122 -4.95238 -1.58225 0
M  V30 10235 C 949.807 -4.54405 -2.1406 0
M  V30 10236 C 951.801 -6.25658 -1.21782 0
M  V30 10237 C 949.488 -5.84836 -1.77228 0
M  V30 10238 C 950.486 -6.70287 -1.31165 0
M  V30 10239 O 950.174 -7.98287 -0.948339 0
M  V30 10240 H 949.906 -0.551263 -0.391261 0
M  V30 10241 H 952.46 -1.96453 -0.599621 0
M  V30 10242 H 950.69 -2.26117 -3.137 0
M  V30 10243 H 952.379 -2.67203 -3.05545 0
M  V30 10244 H 953.145 -4.611 -1.50373 0
M  V30 10245 H 949.024 -3.88056 -2.48865 0
M  V30 10246 H 952.568 -6.92309 -0.857566 0
M  V30 10247 H 948.465 -6.18502 -1.84732 0
M  V30 10248 H 949.233 -8.11353 -1.07925 0
M  V30 10249 N 951.896 0.746133 -1.38819 0
M  V30 10250 C 953.142 1.50669 -1.3664 0
M  V30 10251 C 953.497 1.92356 0.0411513 0
M  V30 10252 O 952.79 1.63104 1.00537 0
M  V30 10253 C 952.984 2.76639 -2.26286 0
M  V30 10254 C 952.813 2.47268 -3.75618 0
M  V30 10255 C 951.583 2.40116 -4.44603 0
M  V30 10256 C 953.781 2.13548 -4.67869 0
M  V30 10257 N 951.763 2.03098 -5.79331 0
M  V30 10258 C 953.134 1.86883 -5.91164 0
M  V30 10259 C 955.189 1.99922 -4.56 0
M  V30 10260 C 953.892 1.47965 -7.03917 0
M  V30 10261 C 955.918 1.62406 -5.68664 0
M  V30 10262 C 955.28 1.36618 -6.91025 0
M  V30 10263 H 951.379 0.550624 -0.555282 0
M  V30 10264 H 953.963 0.868179 -1.74272 0
M  V30 10265 H 952.134 3.38287 -1.9083 0
M  V30 10266 H 953.866 3.42753 -2.1518 0
M  V30 10267 H 950.621 2.56839 -3.97908 0
M  V30 10268 H 951.045 1.87214 -6.506 0
M  V30 10269 H 955.687 2.18531 -3.61945 0
M  V30 10270 H 953.405 1.28096 -7.97883 0
M  V30 10271 H 956.991 1.52483 -5.61462 0
M  V30 10272 H 955.871 1.08021 -7.76725 0
M  V30 10273 N 953.375 1.23811 0.975125 0
M  V30 10274 C 954.307 0.981779 2.07108 0
M  V30 10275 C 955.32 -0.0461211 1.62735 0
M  V30 10276 O 956.509 0.190039 1.77486 0
M  V30 10277 C 953.609 0.458364 3.35786 0
M  V30 10278 C 952.782 1.54767 4.09104 0
M  V30 10279 C 951.841 1.0282 5.16057 0
M  V30 10280 O 950.867 1.71831 5.42644 0
M  V30 10281 N 952.069 -0.141243 5.80328 0
M  V30 10282 H 954.834 1.92537 2.29673 0
M  V30 10283 H 952.395 1.1474 1.14221 0
M  V30 10284 H 954.387 0.0957686 4.04587 0
M  V30 10285 H 952.957 -0.390768 3.10148 0
M  V30 10286 H 952.177 2.08279 3.34684 0
M  V30 10287 H 953.465 2.28006 4.54853 0
M  V30 10288 H 952.863 -0.718382 5.6112 0
M  V30 10289 H 951.42 -0.445052 6.50279 0
M  V30 10290 N 954.853 -1.17469 1.05066 0
M  V30 10291 C 955.783 -2.23635 0.671552 0
M  V30 10292 C 956.764 -1.66867 -0.33006 0
M  V30 10293 O 957.949 -1.93084 -0.207933 0
M  V30 10294 C 955.079 -3.47272 0.0441845 0
M  V30 10295 C 954.033 -4.16854 0.97042 0
M  V30 10296 C 953.359 -5.34299 0.206998 0
M  V30 10297 C 954.659 -4.69225 2.29401 0
M  V30 10298 H 956.353 -2.55602 1.55911 0
M  V30 10299 H 953.899 -1.2286 0.751101 0
M  V30 10300 H 955.852 -4.20756 -0.23282 0
M  V30 10301 H 954.576 -3.14568 -0.878311 0
M  V30 10302 H 953.235 -3.4528 1.23197 0
M  V30 10303 H 952.883 -4.97846 -0.718222 0
M  V30 10304 H 952.583 -5.81792 0.82416 0
M  V30 10305 H 954.107 -6.10568 -0.0627525 0
M  V30 10306 H 955.521 -5.34353 2.077 0
M  V30 10307 H 953.918 -5.27291 2.86503 0
M  V30 10308 H 954.988 -3.86102 2.93348 0
M  V30 10309 N 956.331 -0.831506 -1.3388 0
M  V30 10310 C 957.279 -0.247896 -2.31275 0
M  V30 10311 C 958.273 0.616083 -1.578 0
M  V30 10312 O 959.479 0.506465 -1.72728 0
M  V30 10313 H 955.854 -0.0614293 -0.749487 0
M  V30 10314 H 957.825 -1.08401 -2.78014 0
M  V30 10315 C 956.574 0.568434 -3.43022 0
M  V30 10316 H 955.897 -0.0870654 -3.99705 0
M  V30 10317 H 957.337 0.942751 -4.13386 0
M  V30 10318 C 955.796 1.74431 -2.88228 0
M  V30 10319 O 956.326 2.84278 -2.83811 0
M  V30 10320 N 954.532 1.56382 -2.44935 0
M  V30 10321 H 954.079 0.670255 -2.48727 0
M  V30 10322 H 954.037 2.35208 -2.08625 0
M  V30 10323 N 957.809 1.4625 -0.587256 0
M  V30 10324 C 959.086 1.95599 -0.00750181 0
M  V30 10325 C 959.466 1.52989 1.45457 0
M  V30 10326 O 958.814 0.782731 2.14676 0
M  V30 10327 C 959.024 3.48513 -0.184309 0
M  V30 10328 C 960.372 4.24565 -0.0544972 0
M  V30 10329 O 961.396 3.5602 -0.113378 0
M  V30 10330 O 960.255 5.46445 0.0774075 0
M  V30 10331 H 957.349 0.825649 0.0472495 0
M  V30 10332 H 959.895 1.56512 -0.655893 0
M  V30 10333 H 958.667 3.72428 -1.20053 0
M  V30 10334 H 958.29 3.9444 0.500301 0
M  V30 10335 N 959.287 0.325282 1.54207 0
M  V30 10336 C 960.512 -0.281418 2.05482 0
M  V30 10337 C 960.937 -1.44869 1.19977 0
M  V30 10338 O 960.295 -1.80088 0.209275 0
M  V30 10339 C 960.343 -0.692029 3.53897 0
M  V30 10340 O 959.447 -1.7942 3.71325 0
M  V30 10341 H 958.788 -0.0504872 0.662078 0
M  V30 10342 H 961.318 0.474191 1.99029 0
M  V30 10343 H 961.328 -0.974219 3.96198 0
M  V30 10344 H 960.003 0.161709 4.15586 0
M  V30 10345 H 958.58 -1.51069 3.40929 0
M  V30 10346 N 960.765 -1.57509 0.0534917 0
M  V30 10347 C 962.011 -1.93887 -0.614776 0
M  V30 10348 C 962.366 -0.932098 -1.68314 0
M  V30 10349 O 961.659 0.0483848 -1.91539 0
M  V30 10350 C 961.853 -3.34734 -1.25251 0
M  V30 10351 C 961.682 -4.49019 -0.247444 0
M  V30 10352 C 960.452 -5.05042 0.161406 0
M  V30 10353 C 962.65 -5.11784 0.508059 0
M  V30 10354 N 960.632 -6.02858 1.15909 0
M  V30 10355 C 962.003 -6.04928 1.35876 0
M  V30 10356 C 964.058 -4.94671 0.56612 0
M  V30 10357 C 962.761 -6.82797 2.26232 0
M  V30 10358 C 964.787 -5.73168 1.45712 0
M  V30 10359 C 964.149 -6.65946 2.29554 0
M  V30 10360 H 960.248 -0.756899 -0.196538 0
M  V30 10361 H 962.832 -1.94289 0.126365 0
M  V30 10362 H 961.003 -3.35104 -1.96367 0
M  V30 10363 H 962.735 -3.58395 -1.87977 0
M  V30 10364 H 959.49 -4.73098 -0.218025 0
M  V30 10365 H 959.914 -6.56462 1.6549 0
M  V30 10366 H 964.556 -4.22746 -0.0678652 0
M  V30 10367 H 962.274 -7.54012 2.90675 0
M  V30 10368 H 965.86 -5.61953 1.50664 0
M  V30 10369 H 964.74 -7.25627 2.97381 0
M  V30 10370 N 962.243 0.219913 -1.56058 0
M  V30 10371 C 963.654 0.786766 -1.69313 0
M  V30 10372 C 964.005 1.84916 -0.655782 0
M  V30 10373 O 963.13 2.1554 0.192772 0
M  V30 10374 C 963.725 1.43387 -3.06962 0
M  V30 10375 C 962.284 1.94809 -3.22066 0
M  V30 10376 C 961.431 0.808863 -2.65241 0
M  V30 10377 H 964.382 -0.00476777 -1.58699 0
M  V30 10378 H 964.403 2.30272 -3.02911 0
M  V30 10379 H 963.915 0.660405 -3.8244 0
M  V30 10380 H 962.016 2.74952 -2.5146 0
M  V30 10381 H 962.129 2.12694 -4.293 0
M  V30 10382 H 960.493 1.21661 -2.23765 0
M  V30 10383 H 961.276 0.0480458 -3.43266 0
M  V30 10384 N 963.721 1.49897 0.486681 0
M  V30 10385 C 964.967 1.60342 1.2417 0
M  V30 10386 C 965.3 0.295694 1.91936 0
M  V30 10387 O 964.575 -0.701788 1.81398 0
M  V30 10388 C 964.858 2.77281 2.29755 0
M  V30 10389 C 964.711 4.1789 1.66397 0
M  V30 10390 C 966.03 2.89817 3.31201 0
M  V30 10391 H 963.149 0.583605 0.450083 0
M  V30 10392 H 965.791 1.82232 0.537734 0
M  V30 10393 H 963.941 2.58748 2.89796 0
M  V30 10394 H 965.613 4.47975 1.10073 0
M  V30 10395 H 963.856 4.22872 0.967579 0
M  V30 10396 H 964.527 4.95612 2.43049 0
M  V30 10397 H 967.003 3.06732 2.81167 0
M  V30 10398 H 965.879 3.7329 4.02425 0
M  V30 10399 H 966.14 1.9977 3.94391 0
M  V30 10400 N 965.199 -0.738761 1.39212 0
M  V30 10401 C 966.445 -1.50046 1.36433 0
M  V30 10402 C 966.778 -1.94157 -0.0409474 0
M  V30 10403 O 966.053 -1.66515 -1.00514 0
M  V30 10404 C 966.336 -2.74277 2.33333 0
M  V30 10405 C 966.189 -2.36209 3.82786 0
M  V30 10406 C 967.508 -3.76361 2.28123 0
M  V30 10407 H 964.627 -0.544294 0.496903 0
M  V30 10408 H 967.269 -0.845005 1.70175 0
M  V30 10409 H 965.419 -3.30204 2.04689 0
M  V30 10410 H 967.091 -1.85942 4.22165 0
M  V30 10411 H 965.334 -1.68483 3.99745 0
M  V30 10412 H 966.005 -3.25156 4.46069 0
M  V30 10413 H 968.481 -3.30009 2.53443 0
M  V30 10414 H 967.357 -4.60957 2.9801 0
M  V30 10415 H 967.618 -4.23013 1.28499 0
M  V30 10416 N 966.677 -1.24326 -0.968545 0
M  V30 10417 C 967.902 -1.1104 -1.75171 0
M  V30 10418 C 968.327 0.333109 -1.85127 0
M  V30 10419 O 967.685 1.24115 -1.32156 0
M  V30 10420 C 967.733 -1.75397 -3.15068 0
M  V30 10421 O 966.837 -1.02417 -3.9948 0
M  V30 10422 H 966.178 -0.388488 -0.538491 0
M  V30 10423 H 968.708 -1.64617 -1.215 0
M  V30 10424 H 968.718 -1.8112 -3.65595 0
M  V30 10425 H 967.393 -2.80427 -3.07138 0
M  V30 10426 H 965.97 -1.04475 -3.57966 0
M  V30 10427 N 968.156 1.1691 -1.05688 0
M  V30 10428 C 969.402 1.87814 -0.780871 0
M  V30 10429 C 969.757 1.79796 0.684926 0
M  V30 10430 O 969.05 1.19853 1.49485 0
M  V30 10431 C 969.244 3.36578 -1.20207 0
M  V30 10432 C 969.073 3.59078 -2.70727 0
M  V30 10433 C 967.843 3.75515 -3.38107 0
M  V30 10434 C 970.041 3.58307 -3.68946 0
M  V30 10435 N 968.023 3.85906 -4.77441 0
M  V30 10436 C 969.394 3.74608 -4.94033 0
M  V30 10437 C 971.449 3.41484 -3.62343 0
M  V30 10438 C 970.152 3.75828 -6.13307 0
M  V30 10439 C 972.178 3.43995 -4.81063 0
M  V30 10440 C 971.54 3.60809 -6.04976 0
M  V30 10441 H 967.639 0.705158 -0.338047 0
M  V30 10442 H 970.223 1.40315 -1.34981 0
M  V30 10443 H 968.394 3.82734 -0.661031 0
M  V30 10444 H 970.126 3.95119 -0.875377 0
M  V30 10445 H 966.881 3.7558 -2.88508 0
M  V30 10446 H 967.305 3.94886 -5.49904 0
M  V30 10447 H 971.947 3.27417 -2.67503 0
M  V30 10448 H 969.665 3.88679 -7.08487 0
M  V30 10449 H 973.251 3.3223 -4.77613 0
M  V30 10450 H 972.131 3.62663 -6.95302 0
M  V30 10451 N 969.634 0.838594 1.33437 0
M  V30 10452 C 970.859 0.446701 2.02532 0
M  V30 10453 C 971.284 -0.944275 1.62681 0
M  V30 10454 O 970.642 -1.61733 0.81927 0
M  V30 10455 C 970.69 0.574794 3.55989 0
M  V30 10456 O 969.794 -0.399063 4.10465 0
M  V30 10457 H 969.135 0.181637 0.638674 0
M  V30 10458 H 971.665 1.13335 1.70342 0
M  V30 10459 H 971.675 0.456339 4.0544 0
M  V30 10460 H 970.35 1.58921 3.8434 0
M  V30 10461 H 968.927 -0.238187 3.72139 0
M  V30 10462 N 971.112 -1.45937 0.595003 0
M  V30 10463 C 972.337 -2.07207 0.0894416 0
M  V30 10464 C 972.762 -1.43884 -1.21157 0
M  V30 10465 O 972.12 -0.526998 -1.73472 0
M  V30 10466 C 972.168 -3.60565 -0.0499828 0
M  V30 10467 O 971.272 -3.97364 -1.10342 0
M  V30 10468 H 970.613 -0.660471 0.0683627 0
M  V30 10469 H 973.143 -1.87386 0.82144 0
M  V30 10470 H 973.153 -4.0722 -0.252234 0
M  V30 10471 H 971.828 -4.06044 0.90006 0
M  V30 10472 H 970.405 -3.62401 -0.878645 0
M  V30 10473 N 972.59 -0.333456 -1.54032 0
M  V30 10474 C 973.839 0.267081 -1.99924 0
M  V30 10475 C 974.152 1.52463 -1.22534 0
M  V30 10476 O 975.358 2.20178 -1.58852 0
M  V30 10477 C 973.814 0.526456 -3.56029 0
M  V30 10478 C 973.422 -0.714607 -4.42264 0
M  V30 10479 C 975.166 1.0864 -4.10363 0
M  V30 10480 C 973.073 -0.42659 -5.89859 0
M  V30 10481 H 972.003 0.103577 -0.746852 0
M  V30 10482 H 974.654 -0.447218 -1.77967 0
M  V30 10483 H 973.036 1.3012 -3.74012 0
M  V30 10484 H 974.21 -1.48968 -4.36056 0
M  V30 10485 H 972.525 -1.19547 -3.9887 0
M  V30 10486 H 975.122 1.31668 -5.18235 0
M  V30 10487 H 975.465 2.03884 -3.62956 0
M  V30 10488 H 975.998 0.37261 -3.96051 0
M  V30 10489 H 972.737 -1.34847 -6.4148 0
M  V30 10490 H 972.257 0.310588 -5.98995 0
M  V30 10491 H 973.936 -0.0400807 -6.46988 0
M  V30 10492 N 974.068 1.57479 -0.061844 0
M  V30 10493 C 975.345 1.84484 0.649993 0
M  V30 10494 C 975.725 0.952366 1.88396 0
M  V30 10495 O 975.073 0.0161035 2.28494 0
M  V30 10496 C 975.283 3.34452 0.997133 0
M  V30 10497 C 976.631 4.01724 1.37488 0
M  V30 10498 O 977.655 3.3914 1.08916 0
M  V30 10499 O 976.514 5.12091 1.90854 0
M  V30 10500 H 973.608 0.761798 0.321858 0
M  V30 10501 H 976.154 1.6945 -0.0920192 0
M  V30 10502 H 974.926 3.91115 0.120301 0
M  V30 10503 H 974.549 3.54713 1.79624 0
M  V30 10504 N 975.546 -0.211634 1.56173 0
M  V30 10505 C 976.776 -0.949805 1.83473 0
M  V30 10506 C 977.184 -1.78045 0.640053 0
M  V30 10507 O 976.527 -1.79277 -0.400702 0
M  V30 10508 C 976.589 -1.90868 3.04647 0
M  V30 10509 C 976.253 -1.26159 4.39241 0
M  V30 10510 C 977.25 -0.646597 5.15863 0
M  V30 10511 C 974.935 -1.27039 4.85969 0
M  V30 10512 C 976.929 -0.0490313 6.37381 0
M  V30 10513 C 974.616 -0.668987 6.07427 0
M  V30 10514 C 975.614 -0.0593687 6.82974 0
M  V30 10515 O 975.302 0.532656 8.02133 0
M  V30 10516 H 975.034 -0.283458 0.6137 0
M  V30 10517 H 977.588 -0.22894 2.0412 0
M  V30 10518 H 975.818 -2.6688 2.79843 0
M  V30 10519 H 977.507 -2.51323 3.18734 0
M  V30 10520 H 978.273 -0.632056 4.80864 0
M  V30 10521 H 974.152 -1.73429 4.27134 0
M  V30 10522 H 977.696 0.427414 6.96289 0
M  V30 10523 H 973.593 -0.680975 6.41898 0
M  V30 10524 H 974.361 0.427942 8.17381 0
M  V30 10525 N 977.024 -1.50153 -0.478725 0
M  V30 10526 C 978.254 -1.64266 -1.253 0
M  V30 10527 C 978.662 -0.322256 -1.86435 0
M  V30 10528 O 978.005 0.704925 -1.69636 0
M  V30 10529 C 978.067 -2.67017 -2.40712 0
M  V30 10530 C 977.731 -4.10779 -2.00274 0
M  V30 10531 C 978.728 -4.96889 -1.52963 0
M  V30 10532 C 976.413 -4.5665 -2.09228 0
M  V30 10533 C 978.407 -6.26914 -1.15139 0
M  V30 10534 C 976.094 -5.86683 -1.71015 0
M  V30 10535 C 977.092 -6.71641 -1.24048 0
M  V30 10536 O 976.78 -7.99248 -0.863617 0
M  V30 10537 H 976.512 -0.555382 -0.385392 0
M  V30 10538 H 979.066 -1.97078 -0.578751 0
M  V30 10539 H 977.296 -2.29432 -3.11284 0
M  V30 10540 H 978.985 -2.70428 -3.02694 0
M  V30 10541 H 979.751 -4.62669 -1.45474 0
M  V30 10542 H 975.63 -3.90674 -2.44735 0
M  V30 10543 H 979.174 -6.93179 -0.784089 0
M  V30 10544 H 975.071 -6.20426 -1.78162 0
M  V30 10545 H 975.839 -8.12452 -0.993139 0
M  V30 10546 N 978.502 0.731368 -1.39602 0
M  V30 10547 C 979.75 1.48805 -1.36753 0
M  V30 10548 C 980.071 1.94969 0.034676 0
M  V30 10549 O 979.341 1.69243 0.986591 0
M  V30 10550 H 977.921 0.55203 -0.503261 0
M  V30 10551 H 980.583 0.868013 -1.74504 0
M  V30 10552 H 979.679 2.36844 -2.03252 0
M  V30 10553 N 979.98 1.24838 0.961938 0
M  V30 10554 C 980.928 1.0436 2.07874 0
M  V30 10555 C 981.922 -0.0232531 1.69384 0
M  V30 10556 O 983.128 0.131773 1.79517 0
M  V30 10557 H 979.503 0.320492 0.680286 0
M  V30 10558 H 981.474 1.99055 2.22306 0
M  V30 10559 C 980.223 0.671246 3.41159 0
M  V30 10560 H 979.546 1.48395 3.7124 0
M  V30 10561 H 980.986 0.567608 4.20184 0
M  V30 10562 C 979.445 -0.622124 3.31106 0
M  V30 10563 O 979.975 -1.66627 3.65511 0
M  V30 10564 N 978.181 -0.605009 2.84232 0
M  V30 10565 H 977.728 0.245052 2.56432 0
M  V30 10566 H 977.686 -1.47056 2.77888 0
M  V30 10567 N 981.458 -1.16348 1.06306 0
M  V30 10568 C 982.704 -1.87397 0.79082 0
M  V30 10569 C 983.059 -1.80156 -0.675382 0
M  V30 10570 O 982.352 -1.20644 -1.48847 0
M  V30 10571 C 982.546 -3.35936 1.21991 0
M  V30 10572 C 982.375 -3.57637 2.72628 0
M  V30 10573 C 981.145 -3.73717 3.40094 0
M  V30 10574 C 983.343 -3.56345 3.70841 0
M  V30 10575 N 981.325 -3.83369 4.7948 0
M  V30 10576 C 982.696 -3.71983 4.96013 0
M  V30 10577 C 984.751 -3.39558 3.64149 0
M  V30 10578 C 983.454 -3.7257 6.15292 0
M  V30 10579 C 985.48 -3.41439 4.8288 0
M  V30 10580 C 984.842 -3.57596 6.06881 0
M  V30 10581 H 980.941 -0.703355 0.341782 0
M  V30 10582 H 983.525 -1.39597 1.35723 0
M  V30 10583 H 981.696 -3.82378 0.681319 0
M  V30 10584 H 983.428 -3.94649 0.896319 0
M  V30 10585 H 980.183 -3.74045 2.90495 0
M  V30 10586 H 980.607 -3.91964 5.5199 0
M  V30 10587 H 985.249 -3.25994 2.69235 0
M  V30 10588 H 982.967 -3.84916 7.10539 0
M  V30 10589 H 986.553 -3.29693 4.79368 0
M  V30 10590 H 985.433 -3.58971 6.97216 0
M  V30 10591 N 982.937 -0.845659 -1.3299 0
M  V30 10592 C 983.884 -0.281761 -2.29074 0
M  V30 10593 C 984.854 0.606237 -1.54641 0
M  V30 10594 O 986.039 0.543063 -1.82908 0
M  V30 10595 C 983.179 0.531451 -3.40983 0
M  V30 10596 C 982.292 -0.381328 -4.30314 0
M  V30 10597 C 981.427 0.443643 -5.29344 0
M  V30 10598 C 980.466 -0.467101 -6.10315 0
M  V30 10599 N 979.603 0.320148 -7.0137 0
M  V30 10600 H 984.443 -1.10641 -2.76699 0
M  V30 10601 H 981.98 -0.55706 -1.36144 0
M  V30 10602 H 983.938 1.01848 -4.04577 0
M  V30 10603 H 982.568 1.32101 -2.94532 0
M  V30 10604 H 981.62 -0.986701 -3.6738 0
M  V30 10605 H 982.932 -1.08067 -4.86953 0
M  V30 10606 H 982.086 0.994212 -5.98498 0
M  V30 10607 H 980.825 1.17639 -4.73299 0
M  V30 10608 H 979.83 -1.02963 -5.40073 0
M  V30 10609 H 981.055 -1.19832 -6.68444 0
M  V30 10610 H 979.001 1.03615 -6.47765 0
M  V30 10611 H 978.918 -0.320338 -7.55321 0
M  V30 10612 H 980.186 0.852735 -7.74822 0
M  V30 10613 N 984.415 1.45619 -0.602734 0
M  V30 10614 C 985.378 2.28941 0.108962 0
M  V30 10615 C 986.378 1.39501 0.799762 0
M  V30 10616 O 987.568 1.61673 0.648663 0
M  V30 10617 C 984.7 3.204 1.16432 0
M  V30 10618 H 985.893 2.93346 -0.623534 0
M  V30 10619 H 983.446 1.52061 -0.361565 0
M  V30 10620 H 984.181 2.60785 1.92774 0
M  V30 10621 H 983.966 3.86277 0.673248 0
M  V30 10622 H 985.456 3.83063 1.6629 0
M  V30 10623 N 985.893 0.34162 1.53853 0
M  V30 10624 C 986.823 -0.508431 2.27897 0
M  V30 10625 C 987.804 -1.10425 1.29384 0
M  V30 10626 O 988.989 -1.126 1.58224 0
M  V30 10627 C 986.119 -1.66048 3.05034 0
M  V30 10628 C 985.073 -1.19309 4.11035 0
M  V30 10629 C 984.399 -2.4335 4.76114 0
M  V30 10630 C 985.699 -0.294952 5.21467 0
M  V30 10631 H 987.393 0.109251 2.99201 0
M  V30 10632 H 984.939 0.0539847 1.43899 0
M  V30 10633 H 986.892 -2.26158 3.5557 0
M  V30 10634 H 985.616 -2.30503 2.31379 0
M  V30 10635 H 984.275 -0.614809 3.61408 0
M  V30 10636 H 983.923 -3.06208 3.99056 0
M  V30 10637 H 983.623 -2.1276 5.47729 0
M  V30 10638 H 985.147 -3.0419 5.29434 0
M  V30 10639 H 986.561 -0.80285 5.67651 0
M  V30 10640 H 984.958 -0.0810221 6.00045 0
M  V30 10641 H 986.028 0.669433 4.80257 0
M  V30 10642 N 987.371 -1.57444 0.0701946 0
M  V30 10643 C 988.321 -2.09154 -0.90767 0
M  V30 10644 C 989.305 -1.00087 -1.25982 0
M  V30 10645 O 990.497 -1.26397 -1.23906 0
M  V30 10646 C 987.626 -2.65544 -2.17581 0
M  V30 10647 C 986.712 -3.81613 -1.85021 0
M  V30 10648 N 987.103 -4.90641 -1.22904 0
M  V30 10649 C 985.401 -3.90878 -2.1478 0
M  V30 10650 C 986.102 -5.71511 -1.084 0
M  V30 10651 N 985.078 -5.1973 -1.59318 0
M  V30 10652 H 988.88 -2.90839 -0.423051 0
M  V30 10653 H 986.394 -1.61848 -0.13374 0
M  V30 10654 H 988.391 -3.00904 -2.88552 0
M  V30 10655 H 987.051 -1.85304 -2.66632 0
M  V30 10656 H 988.062 -5.1004 -0.898878 0
M  V30 10657 H 984.739 -3.21611 -2.66219 0
M  V30 10658 H 986.129 -6.69214 -0.600183 0
M  V30 10659 N 988.849 0.203349 -1.56283 0
M  V30 10660 C 990.079 0.940061 -1.83974 0
M  V30 10661 C 990.487 1.77703 -0.649486 0
M  V30 10662 O 989.83 1.79487 0.391189 0
M  V30 10663 C 989.892 1.89249 -3.05655 0
M  V30 10664 C 989.556 1.23828 -4.39904 0
M  V30 10665 C 990.553 0.619231 -5.16199 0
M  V30 10666 C 988.238 1.2446 -4.86636 0
M  V30 10667 C 990.232 0.0152287 -6.37398 0
M  V30 10668 C 987.919 0.636764 -6.07773 0
M  V30 10669 C 988.917 0.0231481 -6.82996 0
M  V30 10670 O 988.605 -0.575187 -8.0184 0
M  V30 10671 H 988.337 0.280199 -0.615194 0
M  V30 10672 H 990.891 0.218111 -2.04239 0
M  V30 10673 H 989.121 2.65392 -2.81254 0
M  V30 10674 H 990.81 2.4963 -3.20062 0
M  V30 10675 H 991.576 0.606545 -4.81192 0
M  V30 10676 H 987.455 1.71161 -4.28048 0
M  V30 10677 H 990.999 -0.464333 -6.96053 0
M  V30 10678 H 986.896 0.646924 -6.4225 0
M  V30 10679 H 987.664 -0.471284 -8.17142 0
M  V30 10680 N 990.327 1.50405 0.470755 0
M  V30 10681 C 991.259 1.65447 1.58619 0
M  V30 10682 C 992.272 0.535949 1.53725 0
M  V30 10683 O 993.461 0.80914 1.59107 0
M  V30 10684 C 990.561 1.62318 2.975 0
M  V30 10685 C 989.734 2.90207 3.27259 0
M  V30 10686 C 988.793 2.79717 4.45696 0
M  V30 10687 O 987.819 3.53672 4.45987 0
M  V30 10688 N 989.021 1.93296 5.47373 0
M  V30 10689 H 991.786 2.61659 1.46132 0
M  V30 10690 H 989.347 1.47873 0.659178 0
M  V30 10691 H 991.339 1.52912 3.747 0
M  V30 10692 H 989.909 0.738392 3.03754 0
M  V30 10693 H 989.129 3.13737 2.38669 0
M  V30 10694 H 990.417 3.74931 3.43953 0
M  V30 10695 H 989.815 1.32524 5.49958 0
M  V30 10696 H 988.372 1.89793 6.23556 0
M  V30 10697 N 991.805 -0.723954 1.39988 0
M  V30 10698 C 992.768 -1.81973 1.3935 0
M  V30 10699 C 993.768 -1.58187 0.288702 0
M  V30 10700 O 994.958 -1.65383 0.547181 0
M  V30 10701 C 992.09 -3.19937 1.177 0
M  V30 10702 H 993.283 -1.83939 2.36868 0
M  V30 10703 H 990.836 -0.928742 1.25714 0
M  V30 10704 H 991.571 -3.23625 0.209093 0
M  V30 10705 H 991.356 -3.386 1.97719 0
M  V30 10706 H 992.846 -3.99981 1.20022 0
M  V30 10707 N 993.283 -1.25346 -0.955304 0
M  V30 10708 C 994.23 -1.05672 -2.05188 0
M  V30 10709 C 995.2 0.0339217 -1.66065 0
M  V30 10710 O 996.385 -0.123126 -1.90402 0
M  V30 10711 C 993.525 -0.680791 -3.38318 0
M  V30 10712 C 992.638 -1.84622 -3.90562 0
M  V30 10713 C 991.773 -1.41471 -5.12015 0
M  V30 10714 C 990.812 -2.54931 -5.56486 0
M  V30 10715 N 989.949 -2.1256 -6.69151 0
M  V30 10716 H 994.789 -1.9952 -2.2135 0
M  V30 10717 H 992.326 -0.993588 -1.08472 0
M  V30 10718 H 994.284 -0.443794 -4.14833 0
M  V30 10719 H 992.914 0.2207 -3.22045 0
M  V30 10720 H 991.966 -2.19654 -3.10574 0
M  V30 10721 H 993.278 -2.6983 -4.19515 0
M  V30 10722 H 992.432 -1.13732 -5.95945 0
M  V30 10723 H 991.171 -0.533334 -4.84775 0
M  V30 10724 H 990.176 -2.83415 -4.71122 0
M  V30 10725 H 991.401 -3.43645 -5.85734 0
M  V30 10726 H 989.347 -1.26838 -6.43621 0
M  V30 10727 H 989.264 -2.91317 -6.97618 0
M  V30 10728 H 990.532 -1.87996 -7.5649 0
M  V30 10729 N 994.761 1.15782 -1.06922 0
M  V30 10730 C 996.177 1.38454 -0.793896 0
M  V30 10731 C 996.377 1.92238 0.603875 0
M  V30 10732 O 995.433 2.1253 1.36335 0
M  V30 10733 C 996.746 2.3595 -1.86408 0
M  V30 10734 C 998.294 2.49622 -1.88833 0
M  V30 10735 C 998.769 3.50406 -2.94923 0
M  V30 10736 N 1000.26 3.57938 -2.93997 0
M  V30 10737 C 1001 4.35728 -3.72731 0
M  V30 10738 N 1000.49 5.16888 -4.61301 0
M  V30 10739 N 1002.28 4.30774 -3.61096 0
M  V30 10740 H 994.435 0.792101 -1.97077 0
M  V30 10741 H 996.698 0.410779 -0.85438 0
M  V30 10742 H 996.404 2.03537 -2.86819 0
M  V30 10743 H 996.278 3.35677 -1.72049 0
M  V30 10744 H 998.665 2.81335 -0.890759 0
M  V30 10745 H 998.746 1.49909 -2.0727 0
M  V30 10746 H 998.39 3.19429 -3.94877 0
M  V30 10747 H 998.32 4.49864 -2.73734 0
M  V30 10748 H 1000.81 3.00007 -2.29791 0
M  V30 10749 H 1001.12 5.73477 -5.18019 0
M  V30 10750 H 999.469 5.16209 -4.65353 0
M  V30 10751 H 1002.66 3.66432 -2.91282 0
M  V30 10752 H 1002.83 4.91151 -4.22699 0
M  V30 10753 N 996.239 0.8527 1.3254 0
M  V30 10754 C 997.202 0.300959 2.27215 0
M  V30 10755 C 998.202 -0.538235 1.51525 0
M  V30 10756 O 999.392 -0.350027 1.70647 0
M  V30 10757 C 996.524 -0.574428 3.36025 0
M  V30 10758 H 997.717 1.13655 2.77529 0
M  V30 10759 H 995.27 0.626878 1.43178 0
M  V30 10760 H 996.005 -1.43191 2.90976 0
M  V30 10761 H 995.79 0.0262265 3.92091 0
M  V30 10762 H 997.28 -0.9533 4.06573 0
M  V30 10763 N 997.718 -1.45297 0.610449 0
M  V30 10764 C 998.965 -2.02218 0.106759 0
M  V30 10765 C 999.293 -1.47849 -1.26376 0
M  V30 10766 O 998.548 -0.644402 -1.84786 0
M  V30 10767 C 998.847 -3.57394 0.0205329 0
M  V30 10768 C 998.513 -4.30928 1.32709 0
M  V30 10769 C 997.175 -4.50735 1.68498 0
M  V30 10770 C 999.527 -4.72936 2.19046 0
M  V30 10771 C 996.855 -5.09806 2.90371 0
M  V30 10772 C 999.207 -5.33355 3.40169 0
M  V30 10773 C 997.871 -5.51384 3.76207 0
M  V30 10774 H 997.141 -0.739969 0.039066 0
M  V30 10775 H 999.788 -1.74326 0.792638 0
M  V30 10776 H 998.093 -3.84581 -0.748623 0
M  V30 10777 H 999.79 -3.99144 -0.385386 0
M  V30 10778 H 996.38 -4.15827 1.03854 0
M  V30 10779 H 1000.56 -4.57365 1.92695 0
M  V30 10780 H 995.82 -5.21953 3.18395 0
M  V30 10781 H 999.994 -5.64859 4.07318 0
M  V30 10782 H 997.621 -5.96924 4.70729 0
M  V30 10783 N 999.196 -0.349774 -1.5367 0
M  V30 10784 C 1000.16 0.491676 -2.23864 0
M  V30 10785 C 1001.16 1.02256 -1.24098 0
M  V30 10786 O 1002.35 0.910816 -1.48492 0
M  V30 10787 C 999.481 1.68557 -2.96313 0
M  V30 10788 H 1000.67 -0.12233 -2.9965 0
M  V30 10789 H 998.227 -0.101214 -1.55972 0
M  V30 10790 H 998.962 2.3381 -2.2473 0
M  V30 10791 H 998.747 1.31203 -3.69497 0
M  V30 10792 H 1000.24 2.28225 -3.49718 0
M  V30 10793 N 1000.67 1.57404 -0.0785433 0
M  V30 10794 C 1002.08 1.81118 0.45311 0
M  V30 10795 C 1002.44 0.992963 1.69218 0
M  V30 10796 O 1001.56 0.217448 2.15305 0
M  V30 10797 C 1002.16 3.28506 0.82882 0
M  V30 10798 C 1000.71 3.53042 1.3053 0
M  V30 10799 C 999.862 2.75739 0.29378 0
M  V30 10800 H 1002.81 1.55758 -0.304171 0
M  V30 10801 H 1002.83 3.40924 1.68971 0
M  V30 10802 H 1002.35 3.88031 -0.0731826 0
M  V30 10803 H 1000.45 2.98829 2.22558 0
M  V30 10804 H 1000.56 4.61724 1.27857 0
M  V30 10805 H 998.924 2.42703 0.772477 0
M  V30 10806 H 999.707 3.38005 -0.600613 0
M  V30 10807 N 1002.15 -0.195058 1.56388 0
M  V30 10808 C 1003.4 -0.9168 1.80894 0
M  V30 10809 C 1003.73 -1.82907 0.652592 0
M  V30 10810 O 1003.01 -1.91382 -0.346853 0
M  V30 10811 C 1003.29 -1.733 3.15657 0
M  V30 10812 C 1003.14 -0.845449 4.41783 0
M  V30 10813 C 1004.46 -2.70557 3.47112 0
M  V30 10814 H 1001.58 -0.331861 0.658056 0
M  V30 10815 H 1004.22 -0.184174 1.89105 0
M  V30 10816 H 1002.37 -2.3576 3.08787 0
M  V30 10817 H 1004.04 -0.235557 4.60698 0
M  V30 10818 H 1002.29 -0.152172 4.33533 0
M  V30 10819 H 1002.96 -1.45152 5.32574 0
M  V30 10820 H 1005.43 -2.1823 3.54281 0
M  V30 10821 H 1004.31 -3.24749 4.42526 0
M  V30 10822 H 1004.57 -3.49605 2.70608 0
M  V30 10823 N 1003.63 -1.50653 -0.462772 0
M  V30 10824 C 1004.56 -1.73056 -1.5676 0
M  V30 10825 C 1005.54 -0.579699 -1.59917 0
M  V30 10826 O 1006.73 -0.819729 -1.76051 0
M  V30 10827 C 1003.86 -1.83234 -2.9503 0
M  V30 10828 C 1002.81 -2.98488 -3.06739 0
M  V30 10829 C 1002.14 -2.93818 -4.46738 0
M  V30 10830 C 1003.44 -4.38869 -2.83181 0
M  V30 10831 H 1005.13 -2.65562 -1.38265 0
M  V30 10832 H 1002.68 -1.27792 -0.663722 0
M  V30 10833 H 1004.63 -1.97491 -3.72257 0
M  V30 10834 H 1003.35 -0.873558 -3.14701 0
M  V30 10835 H 1002.01 -2.83895 -2.31946 0
M  V30 10836 H 1001.66 -1.95769 -4.63339 0
M  V30 10837 H 1001.36 -3.71197 -4.55507 0
M  V30 10838 H 1002.88 -3.10135 -5.25974 0
M  V30 10839 H 1004.3 -4.53945 -3.50153 0
M  V30 10840 H 1002.69 -5.17762 -3.03386 0
M  V30 10841 H 1003.76 -4.50663 -1.78972 0
M  V30 10842 N 1005.11 0.71652 -1.4037 0
M  V30 10843 C 1006.36 1.47193 -1.37903 0
M  V30 10844 C 1006.67 1.95593 0.0159939 0
M  V30 10845 O 1007.88 2.71009 0.163282 0
M  V30 10846 C 1006.33 2.6606 -2.42363 0
M  V30 10847 C 1005.94 2.24533 -3.87671 0
M  V30 10848 C 1007.68 3.438 -2.49001 0
M  V30 10849 C 1005.59 3.40234 -4.8373 0
M  V30 10850 H 1004.52 0.552811 -0.512753 0
M  V30 10851 H 1007.17 0.779894 -1.66102 0
M  V30 10852 H 1005.55 3.37429 -2.07262 0
M  V30 10853 H 1006.73 1.6059 -4.31911 0
M  V30 10854 H 1005.04 1.59839 -3.845 0
M  V30 10855 H 1007.64 4.29893 -3.17956 0
M  V30 10856 H 1007.98 3.8755 -1.52023 0
M  V30 10857 H 1008.52 2.79474 -2.83088 0
M  V30 10858 H 1005.26 3.01517 -5.82037 0
M  V30 10859 H 1004.78 4.03095 -4.44156 0
M  V30 10860 H 1006.45 4.06312 -5.03507 0
M  V30 10861 N 1006.59 1.25851 0.948643 0
M  V30 10862 C 1007.53 1.06559 2.06756 0
M  V30 10863 C 1008.53 -0.00528632 1.69399 0
M  V30 10864 O 1009.73 0.150806 1.79367 0
M  V30 10865 H 1006.11 0.327689 0.676848 0
M  V30 10866 H 1008.08 2.01401 2.20182 0
M  V30 10867 C 1006.83 0.707392 3.40428 0
M  V30 10868 H 1006.15 1.52324 3.69645 0
M  V30 10869 H 1007.59 0.612142 4.19558 0
M  V30 10870 C 1006.05 -0.58697 3.31747 0
M  V30 10871 O 1006.58 -1.62741 3.67258 0
M  V30 10872 N 1004.79 -0.574828 2.84858 0
M  V30 10873 H 1004.33 0.272236 2.56157 0
M  V30 10874 H 1004.29 -1.441 2.79432 0
M  V30 10875 N 1008.06 -1.15214 1.07534 0
M  V30 10876 C 1009.48 -1.67628 0.822045 0
M  V30 10877 C 1009.83 -1.8503 -0.652571 0
M  V30 10878 O 1008.95 -1.55497 -1.50498 0
M  V30 10879 C 1009.55 -3.04489 1.48566 0
M  V30 10880 C 1008.11 -3.53974 1.27983 0
M  V30 10881 C 1007.25 -2.29656 1.55414 0
M  V30 10882 H 1010.2 -0.994016 1.23713 0
M  V30 10883 H 1010.22 -3.69509 0.907916 0
M  V30 10884 H 1009.74 -2.91792 2.55888 0
M  V30 10885 H 1007.84 -3.71908 0.226906 0
M  V30 10886 H 1007.95 -4.35298 2.0013 0
M  V30 10887 H 1006.31 -2.35289 0.975251 0
M  V30 10888 H 1007.1 -2.19544 2.63923 0
M  V30 10889 N 1009.54 -0.859717 -1.32086 0
M  V30 10890 C 1010.79 -0.461779 -1.96343 0
M  V30 10891 C 1011.1 0.988837 -1.68764 0
M  V30 10892 O 1012.31 1.49244 -2.268 0
M  V30 10893 C 1010.77 -0.77484 -3.5146 0
M  V30 10894 C 1010.37 -2.24153 -3.87891 0
M  V30 10895 C 1012.12 -0.444873 -4.22162 0
M  V30 10896 C 1010.03 -2.49754 -5.36075 0
M  V30 10897 H 1008.96 -0.168951 -0.734828 0
M  V30 10898 H 1011.61 -1.0512 -1.50406 0
M  V30 10899 H 1009.99 -0.114792 -3.95834 0
M  V30 10900 H 1011.16 -2.94378 -3.54511 0
M  V30 10901 H 1009.48 -2.53651 -3.30227 0
M  V30 10902 H 1012.07 -0.613508 -5.31169 0
M  V30 10903 H 1012.42 0.61391 -4.11749 0
M  V30 10904 H 1012.95 -1.06103 -3.83389 0
M  V30 10905 H 1009.69 -3.54276 -5.51515 0
M  V30 10906 H 1009.21 -1.84112 -5.70844 0
M  V30 10907 H 1010.89 -2.3396 -6.03218 0
M  V30 10908 N 1011.02 1.44971 -0.618145 0
M  V30 10909 C 1011.95 2.28815 0.132751 0
M  V30 10910 C 1012.97 1.40551 0.821535 0
M  V30 10911 O 1014.15 1.64827 0.685155 0
M  V30 10912 C 1011.25 3.1658 1.20955 0
M  V30 10913 C 1010.43 4.33184 0.605821 0
M  V30 10914 C 1009.49 5.0208 1.57488 0
M  V30 10915 O 1008.51 5.58528 1.09706 0
M  V30 10916 N 1009.71 5.02335 2.9093 0
M  V30 10917 H 1012.48 2.939 -0.58674 0
M  V30 10918 H 1010.04 1.55276 -0.458375 0
M  V30 10919 H 1012.03 3.59535 1.85787 0
M  V30 10920 H 1010.6 2.53333 1.83143 0
M  V30 10921 H 1009.82 3.93581 -0.220827 0
M  V30 10922 H 1011.11 5.08471 0.182883 0
M  V30 10923 H 1010.51 4.57783 3.32342 0
M  V30 10924 H 1009.07 5.49119 3.51157 0
M  V30 10925 N 1012.5 0.357919 1.53482 0
M  V30 10926 C 1013.43 -0.526753 2.23065 0
M  V30 10927 C 1014.44 -1.05239 1.24212 0
M  V30 10928 O 1015.63 -0.960078 1.50482 0
M  V30 10929 C 1012.73 -1.73919 2.9087 0
M  V30 10930 C 1011.91 -1.34638 4.16163 0
M  V30 10931 C 1010.96 -2.42005 4.67247 0
M  V30 10932 O 1009.99 -2.04714 5.31113 0
M  V30 10933 N 1011.19 -3.73478 4.44404 0
M  V30 10934 H 1013.96 0.0692386 2.9962 0
M  V30 10935 H 1011.52 0.182726 1.60866 0
M  V30 10936 H 1013.51 -2.45207 3.21956 0
M  V30 10937 H 1012.08 -2.24223 2.17814 0
M  V30 10938 H 1011.3 -0.463667 3.91464 0
M  V30 10939 H 1012.59 -1.06012 4.97633 0
M  V30 10940 H 1011.99 -4.06555 3.93357 0
M  V30 10941 H 1010.54 -4.40893 4.80059 0
M  V30 10942 N 1013.98 -1.5736 0.0868897 0
M  V30 10943 C 1014.92 -2.14793 -0.892571 0
M  V30 10944 C 1015.92 -1.08866 -1.29787 0
M  V30 10945 O 1017.12 -1.27223 -1.27335 0
M  V30 10946 H 1013.5 -0.686998 -0.305838 0
M  V30 10947 H 1015.47 -2.95927 -0.383393 0
M  V30 10948 C 1014.22 -2.73646 -2.14507 0
M  V30 10949 H 1013.54 -3.54835 -1.84207 0
M  V30 10950 H 1014.98 -3.17409 -2.81118 0
M  V30 10951 C 1013.44 -1.69138 -2.91366 0
M  V30 10952 O 1013.97 -1.12539 -3.85614 0
M  V30 10953 N 1012.18 -1.3982 -2.54752 0
M  V30 10954 H 1011.72 -1.86035 -1.78182 0
M  V30 10955 H 1011.68 -0.701316 -3.06478 0
M  V30 10956 N 1015.45 0.186762 -1.56489 0
M  V30 10957 C 1016.73 0.932229 -1.71956 0
M  V30 10958 C 1017.11 2.01037 -0.644006 0
M  V30 10959 O 1016.46 2.259 0.343694 0
M  V30 10960 C 1016.67 1.51106 -3.14592 0
M  V30 10961 C 1018.02 1.98997 -3.75081 0
M  V30 10962 O 1019.04 1.60931 -3.17773 0
M  V30 10963 O 1017.9 2.69067 -4.75673 0
M  V30 10964 H 1014.99 0.437736 -0.701652 0
M  V30 10965 H 1017.54 0.175803 -1.68787 0
M  V30 10966 H 1016.31 0.734327 -3.84348 0
M  V30 10967 H 1015.94 2.33209 -3.22024 0
M  V30 10968 N 1016.93 1.50896 0.454776 0
M  V30 10969 C 1018.16 1.66759 1.23313 0
M  V30 10970 C 1018.58 0.35722 1.84677 0
M  V30 10971 O 1017.94 -0.680771 1.68033 0
M  V30 10972 C 1017.99 2.77254 2.3057 0
M  V30 10973 O 1017.09 2.39642 3.35627 0
M  V30 10974 H 1016.43 0.556599 0.362068 0
M  V30 10975 H 1018.96 1.97365 0.539274 0
M  V30 10976 H 1018.97 3.0082 2.75629 0
M  V30 10977 H 1017.65 3.72349 1.85281 0
M  V30 10978 H 1016.23 2.26584 2.96165 0
M  V30 10979 N 1018.41 -0.709066 1.40748 0
M  V30 10980 C 1019.34 -1.83583 1.4429 0
M  V30 10981 C 1020.32 -1.67378 0.303067 0
M  V30 10982 O 1021.51 -1.87312 0.512612 0
M  V30 10983 C 1018.64 -3.21599 1.31116 0
M  V30 10984 C 1017.59 -3.52486 2.4277 0
M  V30 10985 C 1016.92 -4.89716 2.14668 0
M  V30 10986 C 1018.22 -3.52824 3.85113 0
M  V30 10987 H 1019.91 -1.80876 2.38588 0
M  V30 10988 H 1017.46 -0.868795 1.14839 0
M  V30 10989 H 1019.41 -4.00123 1.32209 0
M  V30 10990 H 1018.13 -3.24898 0.332965 0
M  V30 10991 H 1016.79 -2.76305 2.40937 0
M  V30 10992 H 1016.44 -4.89625 1.15224 0
M  V30 10993 H 1016.14 -5.11347 2.89478 0
M  V30 10994 H 1017.66 -5.70566 2.17455 0
M  V30 10995 H 1019.08 -4.21377 3.88734 0
M  V30 10996 H 1017.48 -3.85984 4.59496 0
M  V30 10997 H 1018.55 -2.52073 4.14231 0
M  V30 10998 N 1019.89 -1.26353 -0.941956 0
M  V30 10999 C 1021.11 -1.14731 -1.72776 0
M  V30 11000 C 1021.54 0.293766 -1.85792 0
M  V30 11001 O 1020.9 1.21284 -1.34759 0
M  V30 11002 C 1020.95 -1.82041 -3.11277 0
M  V30 11003 O 1020.05 -1.10867 -3.97218 0
M  V30 11004 H 1019.39 -0.399823 -0.53013 0
M  V30 11005 H 1021.92 -1.67157 -1.17981 0
M  V30 11006 H 1021.93 -1.88834 -3.61671 0
M  V30 11007 H 1020.61 -2.86879 -3.0112 0
M  V30 11008 H 1019.18 -1.12044 -3.55669 0
M  V30 11009 N 1021.37 1.14642 -1.08144 0
M  V30 11010 C 1022.61 1.85892 -0.810683 0
M  V30 11011 C 1022.95 1.82575 0.661821 0
M  V30 11012 O 1022.22 1.25454 1.48632 0
M  V30 11013 C 1022.5 3.34647 -1.32979 0
M  V30 11014 C 1022.36 3.46551 -2.86744 0
M  V30 11015 C 1023.68 4.29661 -0.952864 0
M  V30 11016 H 1020.8 0.674963 -0.295963 0
M  V30 11017 H 1023.44 1.3464 -1.3406 0
M  V30 11018 H 1021.59 3.78425 -0.87903 0
M  V30 11019 H 1023.26 3.11579 -3.40171 0
M  V30 11020 H 1021.5 2.87849 -3.24539 0
M  V30 11021 H 1022.17 4.51101 -3.18138 0
M  V30 11022 H 1024.65 3.93885 -1.34141 0
M  V30 11023 H 1023.53 5.32209 -1.34331 0
M  V30 11024 H 1023.79 4.41877 0.140392 0
M  V30 11025 N 1022.85 0.866709 1.31628 0
M  V30 11026 C 1024.08 0.489679 2.00713 0
M  V30 11027 C 1024.48 -0.921492 1.65243 0
M  V30 11028 O 1023.83 -1.61467 0.876012 0
M  V30 11029 C 1023.89 0.563148 3.55062 0
M  V30 11030 C 1023.55 1.93535 4.13996 0
M  V30 11031 C 1024.55 2.90243 4.31341 0
M  V30 11032 C 1022.23 2.23578 4.49798 0
M  V30 11033 C 1024.23 4.15138 4.83673 0
M  V30 11034 C 1021.92 3.48723 5.01832 0
M  V30 11035 C 1022.91 4.44319 5.18719 0
M  V30 11036 O 1022.6 5.67247 5.69637 0
M  V30 11037 H 1022.33 0.189605 0.648865 0
M  V30 11038 H 1024.89 1.16874 1.68907 0
M  V30 11039 H 1023.12 -0.172815 3.86314 0
M  V30 11040 H 1024.81 0.200009 4.05407 0
M  V30 11041 H 1025.57 2.6834 4.04003 0
M  V30 11042 H 1021.45 1.49949 4.35932 0
M  V30 11043 H 1025 4.89762 4.96769 0
M  V30 11044 H 1020.89 3.70471 5.28603 0
M  V30 11045 H 1021.66 5.69372 5.88011 0
M  V30 11046 N 1024.32 -1.44642 0.625825 0
M  V30 11047 C 1025.25 -2.33397 -0.0692188 0
M  V30 11048 C 1026.23 -1.47898 -0.840241 0
M  V30 11049 O 1027.42 -1.7663 -0.807176 0
M  V30 11050 C 1024.55 -3.30888 -1.055 0
M  V30 11051 C 1023.5 -4.26164 -0.395968 0
M  V30 11052 C 1022.83 -5.13483 -1.49128 0
M  V30 11053 C 1024.13 -5.17663 0.694433 0
M  V30 11054 H 1025.82 -2.91763 0.671925 0
M  V30 11055 H 1023.37 -1.40294 0.324573 0
M  V30 11056 H 1025.32 -3.91861 -1.54993 0
M  V30 11057 H 1024.05 -2.7072 -1.82696 0
M  V30 11058 H 1022.71 -3.66516 0.0782691 0
M  V30 11059 H 1022.35 -4.49672 -2.25399 0
M  V30 11060 H 1022.05 -5.78038 -1.05573 0
M  V30 11061 H 1023.58 -5.77327 -1.98813 0
M  V30 11062 H 1024.99 -5.72602 0.282818 0
M  V30 11063 H 1023.39 -5.90793 1.05281 0
M  V30 11064 H 1024.46 -4.58994 1.56372 0
M  V30 11065 N 1025.8 -0.366053 -1.5329 0
M  V30 11066 C 1027.05 0.224614 -2.00445 0
M  V30 11067 C 1027.36 1.49829 -1.2574 0
M  V30 11068 O 1028.57 2.16759 -1.63487 0
M  V30 11069 C 1027.03 0.450818 -3.57065 0
M  V30 11070 C 1026.63 -0.808257 -4.40649 0
M  V30 11071 C 1028.38 0.999116 -4.12575 0
M  V30 11072 C 1026.28 -0.551612 -5.88822 0
M  V30 11073 H 1025.21 0.0877114 -0.748881 0
M  V30 11074 H 1027.87 -0.484866 -1.76978 0
M  V30 11075 H 1026.25 1.22157 -3.76688 0
M  V30 11076 H 1027.42 -1.58184 -4.32798 0
M  V30 11077 H 1025.74 -1.27981 -3.96245 0
M  V30 11078 H 1028.33 1.20646 -5.20911 0
M  V30 11079 H 1028.68 1.96139 -3.67199 0
M  V30 11080 H 1029.21 0.288518 -3.96752 0
M  V30 11081 H 1025.95 -1.48423 -6.38475 0
M  V30 11082 H 1025.47 0.183462 -5.99519 0
M  V30 11083 H 1027.15 -0.177307 -6.46757 0
M  V30 11084 N 1027.28 1.57312 -0.0952337 0
M  V30 11085 C 1028.5 1.99119 0.580206 0
M  V30 11086 C 1028.93 0.973955 1.60922 0
M  V30 11087 O 1028.29 -0.0575338 1.81209 0
M  V30 11088 C 1028.34 3.39893 1.20438 0
M  V30 11089 O 1027.44 3.40941 2.32019 0
M  V30 11090 H 1026.78 0.64748 0.147195 0
M  V30 11091 H 1029.31 2.03836 -0.176686 0
M  V30 11092 H 1029.32 3.7759 1.54564 0
M  V30 11093 H 1028 4.13453 0.450514 0
M  V30 11094 H 1026.57 3.1504 1.9951 0
M  V30 11095 N 1028.76 -0.17846 1.56586 0
M  V30 11096 C 1030.03 -0.923096 1.72448 0
M  V30 11097 C 1030.41 -2.00692 0.654659 0
M  V30 11098 O 1029.76 -2.26079 -0.33171 0
M  V30 11099 C 1029.97 -1.49435 3.15389 0
M  V30 11100 C 1031.32 -1.97005 3.76131 0
M  V30 11101 O 1032.34 -1.59244 3.18622 0
M  V30 11102 O 1031.2 -2.66541 4.77094 0
M  V30 11103 H 1028.3 -0.434009 0.703964 0
M  V30 11104 H 1030.84 -0.16685 1.68878 0
M  V30 11105 H 1029.62 -0.713933 3.84732 0
M  V30 11106 H 1029.24 -2.31498 3.23256 0
M  V30 11107 N 1030.24 -1.51135 -0.446768 0
M  V30 11108 C 1031.65 -1.39101 -0.782504 0
M  V30 11109 C 1031.85 -0.46599 -1.96038 0
M  V30 11110 O 1030.91 0.0823679 -2.52366 0
M  V30 11111 C 1032.22 -2.80953 -1.07173 0
M  V30 11112 C 1033.77 -2.90038 -1.17673 0
M  V30 11113 C 1034.24 -4.32777 -1.49894 0
M  V30 11114 N 1035.73 -4.3584 -1.56837 0
M  V30 11115 C 1036.47 -5.43305 -1.83322 0
M  V30 11116 N 1035.97 -6.60945 -2.07662 0
M  V30 11117 N 1037.76 -5.30775 -1.85026 0
M  V30 11118 H 1029.91 -2.09835 0.329114 0
M  V30 11119 H 1032.17 -0.944199 0.0848054 0
M  V30 11120 H 1031.88 -3.50591 -0.279037 0
M  V30 11121 H 1031.75 -3.197 -2.00179 0
M  V30 11122 H 1034.14 -2.20603 -1.96005 0
M  V30 11123 H 1034.22 -2.54801 -0.225892 0
M  V30 11124 H 1033.86 -5.02757 -0.720924 0
M  V30 11125 H 1033.79 -4.6552 -2.46168 0
M  V30 11126 H 1036.29 -3.51023 -1.39968 0
M  V30 11127 H 1036.6 -7.38643 -2.27214 0
M  V30 11128 H 1034.94 -6.64077 -2.05003 0
M  V30 11129 H 1038.13 -4.37858 -1.65523 0
M  V30 11130 H 1038.31 -6.14609 -2.05329 0
M  V30 11131 N 1031.71 0.701592 -1.41122 0
M  V30 11132 C 1032.64 1.82815 -1.45262 0
M  V30 11133 C 1033.62 1.67215 -0.311939 0
M  V30 11134 O 1034.81 1.87038 -0.522538 0
M  V30 11135 C 1031.94 3.20899 -1.32819 0
M  V30 11136 C 1030.89 3.51194 -2.44636 0
M  V30 11137 C 1030.22 4.8857 -2.17263 0
M  V30 11138 C 1031.52 3.50777 -3.86979 0
M  V30 11139 H 1033.21 1.79608 -2.39544 0
M  V30 11140 H 1030.76 0.862693 -1.15298 0
M  V30 11141 H 1032.71 3.99417 -1.34329 0
M  V30 11142 H 1031.44 3.24717 -0.350191 0
M  V30 11143 H 1030.1 2.75024 -2.42399 0
M  V30 11144 H 1029.74 4.89007 -1.17819 0
M  V30 11145 H 1029.44 5.09805 -2.92186 0
M  V30 11146 H 1030.97 5.69405 -2.20478 0
M  V30 11147 H 1032.38 4.19309 -3.90964 0
M  V30 11148 H 1030.78 3.83542 -4.61536 0
M  V30 11149 H 1031.85 2.49873 -4.15562 0
M  V30 11150 N 1033.19 1.2685 0.935242 0
M  V30 11151 C 1034.47 1.03483 1.65984 0
M  V30 11152 C 1034.85 -0.432859 2.06614 0
M  V30 11153 O 1034.2 -1.4145 1.79455 0
M  V30 11154 C 1034.41 1.98924 2.86758 0
M  V30 11155 C 1035.75 2.2787 3.58274 0
M  V30 11156 O 1036.78 1.96838 2.96873 0
M  V30 11157 O 1035.64 2.80734 4.68882 0
M  V30 11158 H 1032.73 0.393932 0.72715 0
M  V30 11159 H 1035.28 1.38085 0.986445 0
M  V30 11160 H 1034.05 2.9794 2.53668 0
M  V30 11161 H 1033.67 1.64839 3.6182 0
M  V30 11162 N 1034.67 -1.14067 1.0875 0
M  V30 11163 C 1035.9 -1.89041 0.840902 0
M  V30 11164 C 1036.31 -1.78768 -0.60725 0
M  V30 11165 O 1035.67 -1.14945 -1.41753 0
M  V30 11166 C 1035.72 -3.38891 1.25838 0
M  V30 11167 O 1035.44 -3.48886 2.64972 0
M  V30 11168 C 1036.94 -4.30852 1.04315 0
M  V30 11169 H 1034.16 -0.598685 0.303014 0
M  V30 11170 H 1036.71 -1.44438 1.44769 0
M  V30 11171 H 1034.86 -3.81103 0.695627 0
M  V30 11172 H 1035.28 -4.41989 2.82393 0
M  V30 11173 H 1036.75 -5.34353 1.38461 0
M  V30 11174 H 1037.23 -4.39196 -0.0195784 0
M  V30 11175 H 1037.83 -3.944 1.59151 0
M  V30 11176 N 1036.15 -0.873678 -1.31166 0
M  V30 11177 C 1037.08 -0.276805 -2.26515 0
M  V30 11178 C 1038.06 0.596166 -1.51277 0
M  V30 11179 O 1039.24 0.548769 -1.80335 0
M  V30 11180 C 1036.37 0.607711 -3.33203 0
M  V30 11181 C 1035.42 -0.194411 -4.26057 0
M  V30 11182 S 1036.25 -1.57534 -5.11804 0
M  V30 11183 C 1037.41 -0.697047 -6.22006 0
M  V30 11184 H 1037.64 -1.08505 -2.76792 0
M  V30 11185 H 1035.17 -0.672419 -1.38989 0
M  V30 11186 H 1037.13 1.11234 -3.95142 0
M  V30 11187 H 1035.79 1.38994 -2.81673 0
M  V30 11188 H 1034.98 0.480094 -5.01708 0
M  V30 11189 H 1034.59 -0.631262 -3.68634 0
M  V30 11190 H 1036.88 0.0907919 -6.77439 0
M  V30 11191 H 1037.82 -1.42481 -6.93617 0
M  V30 11192 H 1038.23 -0.262954 -5.63887 0
M  V30 11193 N 1037.63 1.44308 -0.633487 0
M  V30 11194 C 1038.54 2.34492 0.0711787 0
M  V30 11195 C 1039.55 1.52754 0.8332 0
M  V30 11196 O 1040.73 1.85475 0.784929 0
M  V30 11197 C 1037.79 3.30767 1.03895 0
M  V30 11198 C 1036.85 4.28412 0.276043 0
M  V30 11199 C 1036.09 5.20087 1.19772 0
M  V30 11200 O 1036.31 5.15743 2.4365 0
M  V30 11201 O 1035.24 5.98038 0.680764 0
M  V30 11202 H 1039.07 2.96203 -0.67063 0
M  V30 11203 H 1036.66 1.4412 -0.393678 0
M  V30 11204 H 1038.54 3.90021 1.59566 0
M  V30 11205 H 1037.21 2.71586 1.76133 0
M  V30 11206 H 1036.12 3.72696 -0.32377 0
M  V30 11207 H 1037.45 4.9052 -0.406364 0
M  V30 11208 N 1039.1 0.374177 1.53094 0
M  V30 11209 C 1040.04 -0.503065 2.23611 0
M  V30 11210 C 1041.05 -1.03915 1.25321 0
M  V30 11211 O 1042.24 -0.944064 1.51492 0
M  V30 11212 C 1039.34 -1.70825 2.92698 0
M  V30 11213 C 1038.51 -1.30217 4.17567 0
M  V30 11214 C 1037.57 -2.37036 4.69788 0
M  V30 11215 O 1036.6 -1.99069 5.33254 0
M  V30 11216 N 1037.8 -3.68743 4.4834 0
M  V30 11217 H 1040.56 0.101013 2.9953 0
M  V30 11218 H 1038.12 0.199778 1.60663 0
M  V30 11219 H 1040.12 -2.41779 3.24538 0
M  V30 11220 H 1038.69 -2.219 2.2018 0
M  V30 11221 H 1037.91 -0.422121 3.91933 0
M  V30 11222 H 1039.19 -1.00728 4.9873 0
M  V30 11223 H 1038.59 -4.0236 3.97647 0
M  V30 11224 H 1037.15 -4.35776 4.84709 0
M  V30 11225 N 1040.58 -1.57259 0.103575 0
M  V30 11226 C 1041.52 -2.10165 -0.889141 0
M  V30 11227 C 1042.49 -1.01426 -1.27089 0
M  V30 11228 O 1043.68 -1.2898 -1.37465 0
M  V30 11229 C 1040.8 -2.58564 -2.18774 0
M  V30 11230 C 1039.85 -3.79043 -1.95522 0
M  V30 11231 S 1040.68 -5.22213 -1.18551 0
M  V30 11232 C 1041.84 -5.73968 -2.49623 0
M  V30 11233 H 1042.07 -2.9404 -0.439083 0
M  V30 11234 H 1039.61 -1.54008 -0.10989 0
M  V30 11235 H 1041.56 -2.87106 -2.93395 0
M  V30 11236 H 1040.22 -1.749 -2.609 0
M  V30 11237 H 1039.42 -4.11004 -2.91705 0
M  V30 11238 H 1039.02 -3.51038 -1.29028 0
M  V30 11239 H 1041.31 -5.82752 -3.45553 0
M  V30 11240 H 1042.25 -6.72324 -2.22229 0
M  V30 11241 H 1042.66 -5.01946 -2.58284 0
M  V30 11242 N 1042.06 0.170153 -1.56679 0
M  V30 11243 C 1043.29 0.902134 -1.86197 0
M  V30 11244 C 1043.7 1.75775 -0.689098 0
M  V30 11245 O 1043.06 1.79271 0.341763 0
M  V30 11246 C 1043.11 1.77792 -3.14757 0
M  V30 11247 O 1042.83 0.956817 -4.27524 0
M  V30 11248 C 1044.33 2.61947 -3.57629 0
M  V30 11249 H 1041.55 0.262026 -0.617724 0
M  V30 11250 H 1044.1 0.169899 -2.03793 0
M  V30 11251 H 1042.25 2.46348 -2.98984 0
M  V30 11252 H 1042.67 1.5559 -5.00891 0
M  V30 11253 H 1044.14 3.19011 -4.50484 0
M  V30 11254 H 1044.62 3.36873 -2.81803 0
M  V30 11255 H 1045.22 1.98721 -3.76019 0
M  V30 11256 N 1043.54 1.5137 0.438746 0
M  V30 11257 C 1044.47 1.75528 1.53987 0
M  V30 11258 C 1045.45 0.605067 1.58975 0
M  V30 11259 O 1046.63 0.847634 1.74725 0
M  V30 11260 C 1043.76 1.87904 2.92078 0
M  V30 11261 C 1042.72 3.0333 3.01951 0
M  V30 11262 C 1042.04 3.00888 4.42007 0
M  V30 11263 C 1043.34 4.43319 2.76163 0
M  V30 11264 H 1045.04 2.67728 1.34022 0
M  V30 11265 H 1042.58 1.28831 0.643308 0
M  V30 11266 H 1044.54 2.03388 3.69068 0
M  V30 11267 H 1043.26 0.923514 3.13271 0
M  V30 11268 H 1041.92 2.87549 2.274 0
M  V30 11269 H 1041.57 2.03116 4.60166 0
M  V30 11270 H 1041.27 3.78397 4.49544 0
M  V30 11271 H 1042.79 3.18464 5.20973 0
M  V30 11272 H 1044.21 4.59458 3.42887 0
M  V30 11273 H 1042.6 5.22523 2.9511 0
M  V30 11274 H 1043.67 4.53453 1.71779 0
M  V30 11275 N 1045.02 -0.694098 1.41492 0
M  V30 11276 C 1045.93 -1.83778 1.45818 0
M  V30 11277 C 1046.94 -1.70471 0.348639 0
M  V30 11278 O 1048.12 -1.92361 0.596588 0
M  V30 11279 C 1045.18 -3.19771 1.33967 0
M  V30 11280 C 1044.24 -3.45175 2.5525 0
M  V30 11281 C 1043.48 -4.74681 2.43955 0
M  V30 11282 O 1043.7 -5.51268 1.46491 0
M  V30 11283 O 1042.63 -5.00901 3.33739 0
M  V30 11284 H 1046.46 -1.83084 2.42309 0
M  V30 11285 H 1044.05 -0.847349 1.23046 0
M  V30 11286 H 1045.93 -4.00961 1.29648 0
M  V30 11287 H 1044.6 -3.21145 0.405926 0
M  V30 11288 H 1043.51 -2.6391 2.65146 0
M  V30 11289 H 1044.84 -3.48617 3.47458 0
M  V30 11290 N 1046.49 -1.27344 -0.928501 0
M  V30 11291 C 1047.43 -1.04322 -2.02959 0
M  V30 11292 C 1048.41 0.0361118 -1.6256 0
M  V30 11293 O 1049.59 -0.108872 -1.88185 0
M  V30 11294 C 1046.72 -0.582329 -3.33656 0
M  V30 11295 C 1045.76 -1.65611 -3.93033 0
M  V30 11296 S 1046.6 -3.2484 -4.25722 0
M  V30 11297 C 1047.75 -2.8055 -5.59502 0
M  V30 11298 H 1047.98 -1.97548 -2.22176 0
M  V30 11299 H 1045.52 -1.11167 -1.07151 0
M  V30 11300 H 1047.48 -0.323095 -4.09227 0
M  V30 11301 H 1046.14 0.329858 -3.12363 0
M  V30 11302 H 1045.33 -1.28491 -4.87346 0
M  V30 11303 H 1044.93 -1.86738 -3.24045 0
M  V30 11304 H 1047.22 -2.25803 -6.38764 0
M  V30 11305 H 1048.17 -3.73603 -6.0152 0
M  V30 11306 H 1048.57 -2.19717 -5.19985 0
M  V30 11307 N 1047.97 1.13488 -1.09353 0
M  V30 11308 C 1048.92 2.18876 -0.732251 0
M  V30 11309 C 1049.89 1.63616 0.286175 0
M  V30 11310 O 1051.07 1.90059 0.167981 0
M  V30 11311 C 1048.21 3.44737 -0.158157 0
M  V30 11312 C 1047.33 4.14104 -1.23053 0
M  V30 11313 C 1046.46 5.27578 -0.619272 0
M  V30 11314 C 1045.5 5.88793 -1.67301 0
M  V30 11315 N 1044.64 6.937 -1.08283 0
M  V30 11316 H 1049.48 2.49128 -1.63522 0
M  V30 11317 H 1047.02 1.22326 -0.816995 0
M  V30 11318 H 1048.97 4.16756 0.192488 0
M  V30 11319 H 1047.6 3.14938 0.708082 0
M  V30 11320 H 1046.66 3.40376 -1.69847 0
M  V30 11321 H 1047.97 4.55683 -2.02865 0
M  V30 11322 H 1047.12 6.0631 -0.217428 0
M  V30 11323 H 1045.86 4.87246 0.210399 0
M  V30 11324 H 1044.87 5.08756 -2.0844 0
M  V30 11325 H 1046.09 6.31197 -2.50533 0
M  V30 11326 H 1044.04 6.55426 -0.274426 0
M  V30 11327 H 1043.95 7.33817 -1.81792 0
M  V30 11328 H 1045.22 7.76286 -0.707167 0
M  V30 11329 N 1049.45 0.880621 1.30701 0
M  V30 11330 C 1050.7 0.497611 1.966 0
M  V30 11331 C 1051.03 -0.949901 1.69383 0
M  V30 11332 O 1050.31 -1.67054 0.996152 0
M  V30 11333 C 1050.59 0.767919 3.51817 0
M  V30 11334 C 1050.44 2.26574 3.88567 0
M  V30 11335 C 1051.76 0.241502 4.39437 0
M  V30 11336 H 1048.88 0.182267 0.714106 0
M  V30 11337 H 1051.52 1.10382 1.54648 0
M  V30 11338 H 1049.67 0.251967 3.87682 0
M  V30 11339 H 1051.34 2.84977 3.62748 0
M  V30 11340 H 1049.59 2.73411 3.36792 0
M  V30 11341 H 1050.26 2.40549 4.9683 0
M  V30 11342 H 1052.73 0.683051 4.10455 0
M  V30 11343 H 1051.61 0.459997 5.46969 0
M  V30 11344 H 1051.87 -0.857068 4.33713 0
M  V30 11345 N 1050.93 -1.4397 0.641131 0
M  V30 11346 C 1052.18 -2.02246 0.14985 0
M  V30 11347 C 1052.51 -1.50387 -1.22871 0
M  V30 11348 O 1051.78 -0.692003 -1.81773 0
M  V30 11349 C 1052.07 -3.59798 0.147449 0
M  V30 11350 C 1051.92 -4.21916 1.55907 0
M  V30 11351 C 1053.24 -4.36985 -0.522667 0
M  V30 11352 H 1050.36 -0.734875 0.0559274 0
M  V30 11353 H 1053 -1.71418 0.819513 0
M  V30 11354 H 1051.15 -3.86193 -0.422789 0
M  V30 11355 H 1052.82 -4.06594 2.17896 0
M  V30 11356 H 1051.06 -3.79028 2.10998 0
M  V30 11357 H 1051.74 -5.30964 1.50934 0
M  V30 11358 H 1054.21 -4.16083 -0.0376226 0
M  V30 11359 H 1053.09 -5.46676 -0.493572 0
M  V30 11360 H 1053.35 -4.12335 -1.59475 0
M  V30 11361 N 1052.41 -0.382291 -1.52893 0
M  V30 11362 C 1053.68 0.259354 -1.93873 0
M  V30 11363 C 1054.06 1.64964 -1.3172 0
M  V30 11364 O 1053.41 2.23345 -0.482611 0
M  V30 11365 C 1053.62 0.292765 -3.4777 0
M  V30 11366 C 1054.97 0.525095 -4.21341 0
M  V30 11367 O 1055.99 0.373272 -3.54239 0
M  V30 11368 O 1054.85 0.822004 -5.40283 0
M  V30 11369 H 1051.95 0.159422 -0.811489 0
M  V30 11370 H 1054.49 -0.436289 -1.63996 0
M  V30 11371 H 1053.27 -0.681341 -3.85323 0
M  V30 11372 H 1052.89 1.03362 -3.8393 0
M  V30 11373 N 1053.89 1.57202 -0.111913 0
M  V30 11374 C 1055.13 1.9495 0.547795 0
M  V30 11375 C 1055.46 0.994763 1.67137 0
M  V30 11376 O 1054.72 0.0173528 1.95692 0
M  V30 11377 C 1055.01 3.39152 1.12741 0
M  V30 11378 C 1054.68 4.50724 0.125916 0
M  V30 11379 C 1053.34 4.80968 -0.149489 0
M  V30 11380 C 1055.69 5.18215 -0.556987 0
M  V30 11381 C 1053.02 5.76023 -1.1142 0
M  V30 11382 C 1055.37 6.14307 -1.51029 0
M  V30 11383 C 1054.04 6.42947 -1.79375 0
M  V30 11384 H 1053.31 0.713372 0.200453 0
M  V30 11385 H 1055.96 1.90542 -0.191316 0
M  V30 11386 H 1054.26 3.4022 1.94313 0
M  V30 11387 H 1055.96 3.65668 1.64584 0
M  V30 11388 H 1052.55 4.27162 0.350756 0
M  V30 11389 H 1056.73 4.95012 -0.357378 0
M  V30 11390 H 1051.99 5.9652 -1.34064 0
M  V30 11391 H 1056.16 6.65692 -2.04516 0
M  V30 11392 H 1053.79 7.1641 -2.54284 0
M  V30 11393 N 1055.36 -0.161842 1.56767 0
M  V30 11394 C 1056.64 -0.904754 1.73417 0
M  V30 11395 C 1057.02 -1.99987 0.675908 0
M  V30 11396 O 1056.37 -2.26419 -0.307712 0
M  V30 11397 C 1056.58 -1.46082 3.16956 0
M  V30 11398 C 1057.93 -1.93004 3.78199 0
M  V30 11399 O 1058.95 -1.55856 3.20293 0
M  V30 11400 O 1057.81 -2.61465 4.79894 0
M  V30 11401 H 1054.9 -0.426518 0.708528 0
M  V30 11402 H 1057.45 -0.148928 1.69045 0
M  V30 11403 H 1056.22 -0.673087 3.85468 0
M  V30 11404 H 1055.84 -2.28056 3.25693 0
M  V30 11405 N 1056.84 -1.516 -0.430713 0
M  V30 11406 C 1058.09 -1.64271 -1.17726 0
M  V30 11407 C 1058.41 -0.364406 -1.91565 0
M  V30 11408 O 1057.68 0.619991 -1.8583 0
M  V30 11409 H 1056.26 -0.605432 -0.437562 0
M  V30 11410 H 1058.92 -1.88557 -0.493166 0
M  V30 11411 H 1058.02 -2.47355 -1.90321 0
M  V30 11412 N 1058.32 0.686584 -1.41858 0
M  V30 11413 C 1059.27 1.80038 -1.44413 0
M  V30 11414 C 1060.24 1.63415 -0.297427 0
M  V30 11415 O 1061.42 1.84138 -0.499789 0
M  V30 11416 C 1058.56 3.17988 -1.34082 0
M  V30 11417 C 1057.67 3.45979 -2.58693 0
M  V30 11418 C 1056.81 4.73592 -2.4059 0
M  V30 11419 C 1055.85 4.94581 -3.60633 0
M  V30 11420 N 1054.99 6.13426 -3.41545 0
M  V30 11421 H 1059.83 1.77189 -2.396 0
M  V30 11422 H 1057.36 0.865158 -1.18968 0
M  V30 11423 H 1059.32 3.97689 -1.26092 0
M  V30 11424 H 1057.95 3.1999 -0.424975 0
M  V30 11425 H 1057 2.60617 -2.77097 0
M  V30 11426 H 1058.31 3.57386 -3.47961 0
M  V30 11427 H 1057.47 5.61364 -2.30119 0
M  V30 11428 H 1056.21 4.64448 -1.48794 0
M  V30 11429 H 1055.21 4.05254 -3.71549 0
M  V30 11430 H 1056.44 5.05578 -4.53395 0
M  V30 11431 H 1054.38 6.05477 -2.52456 0
M  V30 11432 H 1054.3 6.25641 -4.24393 0
M  V30 11433 H 1055.57 7.03908 -3.34864 0
M  V30 11434 N 1059.8 1.27835 0.921735 0
M  V30 11435 C 1061.03 1.17352 1.704 0
M  V30 11436 C 1061.44 -0.268892 1.86875 0
M  V30 11437 O 1060.8 -1.18253 1.39005 0
M  V30 11438 C 1060.85 1.85889 3.10045 0
M  V30 11439 O 1060.57 3.24495 2.94338 0
M  V30 11440 C 1062.07 1.81607 4.04393 0
M  V30 11441 H 1059.29 0.40773 0.532914 0
M  V30 11442 H 1061.83 1.68815 1.15419 0
M  V30 11443 H 1059.99 1.38316 3.61867 0
M  V30 11444 H 1060.4 3.58705 3.82663 0
M  V30 11445 H 1061.88 2.34165 4.99871 0
M  V30 11446 H 1062.35 0.786697 4.32097 0
M  V30 11447 H 1062.96 2.28822 3.58498 0
M  V30 11448 N 1061.28 -1.12907 1.09954 0
M  V30 11449 C 1062.21 -2.20585 0.765799 0
M  V30 11450 C 1063.19 -1.68117 -0.258989 0
M  V30 11451 O 1064.37 -1.93792 -0.125853 0
M  V30 11452 C 1061.5 -3.46772 0.191435 0
M  V30 11453 C 1060.46 -4.12363 1.14635 0
M  V30 11454 C 1059.78 -5.3294 0.433426 0
M  V30 11455 C 1061.08 -4.59073 2.49096 0
M  V30 11456 H 1062.78 -2.48759 1.66612 0
M  V30 11457 H 1060.32 -1.19563 0.802534 0
M  V30 11458 H 1062.27 -4.21365 -0.0541535 0
M  V30 11459 H 1061 -3.18011 -0.744101 0
M  V30 11460 H 1059.66 -3.39744 1.37731 0
M  V30 11461 H 1059.31 -5.00444 -0.506422 0
M  V30 11462 H 1059.01 -5.77772 1.07018 0
M  V30 11463 H 1060.53 -6.10284 0.196267 0
M  V30 11464 H 1061.94 -5.25063 2.30177 0
M  V30 11465 H 1060.34 -5.14665 3.0861 0
M  V30 11466 H 1061.41 -3.73313 3.0946 0
M  V30 11467 N 1062.75 -0.88754 -1.30232 0
M  V30 11468 C 1064 -0.506277 -1.95656 0
M  V30 11469 C 1064.32 0.948191 -1.70395 0
M  V30 11470 O 1063.59 1.66701 -1.02895 0
M  V30 11471 H 1062.17 -0.184235 -0.723924 0
M  V30 11472 H 1064.83 -1.13118 -1.58715 0
M  V30 11473 H 1063.93 -0.678673 -3.04632 0
M  V30 11474 N 1064.23 1.43628 -0.648757 0
M  V30 11475 C 1065.18 2.30755 0.0455536 0
M  V30 11476 C 1066.15 1.44495 0.819168 0
M  V30 11477 O 1067.33 1.73372 0.79667 0
M  V30 11478 C 1064.47 3.30017 1.00908 0
M  V30 11479 C 1063.59 4.31376 0.232039 0
M  V30 11480 C 1062.72 5.17723 1.18897 0
M  V30 11481 C 1061.76 6.10778 0.402096 0
M  V30 11482 N 1060.9 6.89763 1.31038 0
M  V30 11483 H 1065.74 2.89581 -0.70332 0
M  V30 11484 H 1063.28 1.42662 -0.3586 0
M  V30 11485 H 1065.23 3.86072 1.58128 0
M  V30 11486 H 1063.86 2.72851 1.72488 0
M  V30 11487 H 1062.92 3.77652 -0.456373 0
M  V30 11488 H 1064.23 4.9735 -0.380023 0
M  V30 11489 H 1063.38 5.78381 1.83194 0
M  V30 11490 H 1062.12 4.51864 1.83494 0
M  V30 11491 H 1061.13 5.49212 -0.254255 0
M  V30 11492 H 1062.35 6.78678 -0.239411 0
M  V30 11493 H 1060.3 6.26557 1.94324 0
M  V30 11494 H 1060.21 7.52243 0.752774 0
M  V30 11495 H 1061.48 7.54931 1.94164 0
M  V30 11496 N 1065.71 0.390394 1.52688 0
M  V30 11497 C 1066.66 -0.444229 2.26485 0
M  V30 11498 C 1067.63 -1.05688 1.28138 0
M  V30 11499 O 1068.81 -1.0847 1.56968 0
M  V30 11500 C 1065.95 -1.56501 3.07574 0
M  V30 11501 C 1065.07 -0.975111 4.20851 0
M  V30 11502 C 1064.2 -2.06704 4.89333 0
M  V30 11503 C 1063.24 -1.45309 5.94602 0
M  V30 11504 N 1062.38 -2.48437 6.56676 0
M  V30 11505 H 1067.22 0.191535 2.97384 0
M  V30 11506 H 1064.75 0.106287 1.46716 0
M  V30 11507 H 1066.71 -2.22558 3.52879 0
M  V30 11508 H 1065.34 -2.17107 2.38881 0
M  V30 11509 H 1064.39 -0.204109 3.79852 0
M  V30 11510 H 1065.71 -0.486465 4.96422 0
M  V30 11511 H 1064.86 -2.80528 5.37949 0
M  V30 11512 H 1063.6 -2.58928 4.13289 0
M  V30 11513 H 1062.6 -0.700091 5.45324 0
M  V30 11514 H 1063.83 -0.938775 6.7258 0
M  V30 11515 H 1061.77 -2.99829 5.83471 0
M  V30 11516 H 1061.69 -2.04331 7.27863 0
M  V30 11517 H 1062.96 -3.21888 7.09935 0
M  V30 11518 N 1067.19 -1.57141 0.120249 0
M  V30 11519 C 1068.44 -1.94413 -0.53727 0
M  V30 11520 C 1068.75 -1.00594 -1.67751 0
M  V30 11521 O 1069.96 -1.27336 -2.39787 0
M  V30 11522 C 1068.41 -3.45521 -1.00714 0
M  V30 11523 C 1068.02 -4.47878 0.104706 0
M  V30 11524 C 1069.76 -3.9171 -1.63596 0
M  V30 11525 C 1067.67 -5.90165 -0.381932 0
M  V30 11526 H 1066.6 -0.725745 -0.204475 0
M  V30 11527 H 1069.25 -1.82404 0.200302 0
M  V30 11528 H 1067.63 -3.52769 -1.79917 0
M  V30 11529 H 1068.81 -4.523 0.881002 0
M  V30 11530 H 1067.12 -4.11448 0.640264 0
M  V30 11531 H 1069.72 -4.95433 -2.01122 0
M  V30 11532 H 1070.06 -3.31756 -2.51483 0
M  V30 11533 H 1070.6 -3.87268 -0.909319 0
M  V30 11534 H 1067.34 -6.53877 0.460921 0
M  V30 11535 H 1066.86 -5.89161 -1.12468 0
M  V30 11536 H 1068.53 -6.41488 -0.842748 0
M  V30 11537 N 1068.67 0.153526 -1.5685 0
M  V30 11538 C 1069.6 1.2147 -1.94365 0
M  V30 11539 C 1070.61 1.39532 -0.838726 0
M  V30 11540 O 1071.8 1.39219 -1.11715 0
M  V30 11541 C 1068.9 2.5806 -2.19677 0
M  V30 11542 C 1068.07 2.61062 -3.50949 0
M  V30 11543 C 1067.13 3.79144 -3.64878 0
M  V30 11544 O 1066.16 3.64319 -4.37333 0
M  V30 11545 N 1067.36 4.96333 -3.01054 0
M  V30 11546 H 1070.13 0.895889 -2.85996 0
M  V30 11547 H 1067.69 0.343147 -1.58222 0
M  V30 11548 H 1069.68 3.35553 -2.26243 0
M  V30 11549 H 1068.25 2.8226 -1.34343 0
M  V30 11550 H 1067.47 1.69533 -3.55882 0
M  V30 11551 H 1068.76 2.60094 -4.37297 0
M  V30 11552 H 1068.15 5.1128 -2.42093 0
M  V30 11553 H 1066.71 5.71625 -3.13191 0
M  V30 11554 N 1070.14 1.51827 0.422667 0
M  V30 11555 C 1071.39 1.65464 1.17258 0
M  V30 11556 C 1071.72 0.376834 1.90509 0
M  V30 11557 O 1071 -0.624219 1.84211 0
M  V30 11558 C 1071.28 2.86776 2.17788 0
M  V30 11559 C 1071.13 4.24571 1.48523 0
M  V30 11560 C 1072.45 3.03603 3.18611 0
M  V30 11561 H 1069.57 0.602169 0.424925 0
M  V30 11562 H 1072.21 1.84349 0.45996 0
M  V30 11563 H 1070.36 2.70806 2.78561 0
M  V30 11564 H 1072.04 4.5224 0.909739 0
M  V30 11565 H 1070.28 4.26595 0.787354 0
M  V30 11566 H 1070.95 5.05475 2.2181 0
M  V30 11567 H 1073.43 3.18381 2.67904 0
M  V30 11568 H 1072.3 3.90022 3.8623 0
M  V30 11569 H 1072.56 2.16318 3.85563 0
M  V30 11570 N 1071.62 -0.679052 1.4222 0
M  V30 11571 C 1072.57 -1.78522 1.41824 0
M  V30 11572 C 1073.56 -1.58262 0.290179 0
M  V30 11573 O 1074.75 -1.68813 0.532092 0
M  V30 11574 C 1071.88 -3.16952 1.31895 0
M  V30 11575 C 1070.96 -3.42849 2.4963 0
M  V30 11576 N 1071.35 -3.39354 3.75063 0
M  V30 11577 C 1069.65 -3.73468 2.43799 0
M  V30 11578 C 1070.35 -3.64617 4.53243 0
M  V30 11579 N 1069.33 -3.85174 3.83591 0
M  V30 11580 H 1073.13 -1.74206 2.36705 0
M  V30 11581 H 1070.65 -0.879719 1.36509 0
M  V30 11582 H 1072.64 -3.96214 1.29693 0
M  V30 11583 H 1071.3 -3.22467 0.380127 0
M  V30 11584 H 1072.31 -3.19354 4.07718 0
M  V30 11585 H 1068.99 -3.86254 1.58474 0
M  V30 11586 H 1070.38 -3.67912 5.62219 0
M  V30 11587 N 1073.1 -1.28322 -0.914942 0
M  V30 11588 C 1074.33 -1.1837 -1.70304 0
M  V30 11589 C 1074.75 0.254291 -1.86373 0
M  V30 11590 O 1074.11 1.18398 -1.37301 0
M  V30 11591 C 1074.16 -1.88603 -3.07346 0
M  V30 11592 O 1073.26 -1.19268 -3.94777 0
M  V30 11593 H 1072.6 -0.410978 -0.52153 0
M  V30 11594 H 1075.13 -1.69622 -1.14409 0
M  V30 11595 H 1075.14 -1.96463 -3.57584 0
M  V30 11596 H 1073.82 -2.93201 -2.94967 0
M  V30 11597 H 1072.39 -1.19563 -3.53212 0
M  V30 11598 N 1074.58 1.12322 -1.10551 0
M  V30 11599 C 1075.51 2.20176 -0.777486 0
M  V30 11600 C 1076.49 1.68252 0.250069 0
M  V30 11601 O 1077.67 1.93856 0.115574 0
M  V30 11602 C 1074.8 3.46666 -0.209822 0
M  V30 11603 C 1073.76 4.11749 -1.1682 0
M  V30 11604 C 1073.08 5.32703 -0.461684 0
M  V30 11605 C 1074.38 4.57746 -2.51527 0
M  V30 11606 H 1076.08 2.47872 -1.67928 0
M  V30 11607 H 1073.62 1.19136 -0.808863 0
M  V30 11608 H 1075.58 4.21388 0.0318068 0
M  V30 11609 H 1074.3 3.18401 0.727226 0
M  V30 11610 H 1072.96 3.39009 -1.3953 0
M  V30 11611 H 1072.61 5.00706 0.479875 0
M  V30 11612 H 1072.31 5.77197 -1.1008 0
M  V30 11613 H 1073.83 6.10172 -0.228629 0
M  V30 11614 H 1075.25 5.23835 -2.32958 0
M  V30 11615 H 1073.64 5.13021 -3.11335 0
M  V30 11616 H 1074.71 3.71667 -3.11435 0
M  V30 11617 N 1076.06 0.894434 1.2976 0
M  V30 11618 C 1076.97 0.372622 2.31622 0
M  V30 11619 C 1077.98 -0.52996 1.65733 0
M  V30 11620 O 1079.16 -0.420807 1.96955 0
M  V30 11621 C 1076.22 -0.396076 3.4443 0
M  V30 11622 C 1075.28 0.537394 4.25923 0
M  V30 11623 C 1074.52 -0.194713 5.33345 0
M  V30 11624 O 1074.74 -1.41943 5.52457 0
M  V30 11625 O 1073.67 0.460055 6.00139 0
M  V30 11626 H 1077.5 1.21756 2.78225 0
M  V30 11627 H 1075.09 0.65858 1.34101 0
M  V30 11628 H 1076.97 -0.830962 4.13126 0
M  V30 11629 H 1075.64 -1.21716 2.99945 0
M  V30 11630 H 1074.55 1.02129 3.5989 0
M  V30 11631 H 1075.88 1.32475 4.74037 0
M  V30 11632 N 1077.53 -1.43282 0.656365 0
M  V30 11633 C 1078.78 -2.02075 0.171293 0
M  V30 11634 C 1079.11 -1.51682 -1.21269 0
M  V30 11635 O 1078.39 -0.711243 -1.81029 0
M  V30 11636 C 1078.67 -3.59621 0.185602 0
M  V30 11637 C 1078.52 -4.20239 1.60373 0
M  V30 11638 C 1079.84 -4.37515 -0.476289 0
M  V30 11639 H 1076.96 -0.73424 0.0637185 0
M  V30 11640 H 1079.6 -1.70539 0.837648 0
M  V30 11641 H 1077.75 -3.86619 -0.381804 0
M  V30 11642 H 1079.43 -4.0426 2.22197 0
M  V30 11643 H 1077.67 -3.76769 2.15006 0
M  V30 11644 H 1078.34 -5.29333 1.56557 0
M  V30 11645 H 1080.82 -4.16099 0.00651073 0
M  V30 11646 H 1079.69 -5.47169 -0.435562 0
M  V30 11647 H 1079.95 -4.14003 -1.55093 0
M  V30 11648 N 1079.01 -0.398486 -1.52479 0
M  V30 11649 C 1080.42 0.0735015 -1.86555 0
M  V30 11650 C 1080.78 1.45361 -1.31775 0
M  V30 11651 O 1079.9 2.0632 -0.652759 0
M  V30 11652 C 1080.5 0.140152 -3.3851 0
M  V30 11653 C 1079.05 0.556451 -3.72264 0
M  V30 11654 C 1078.2 -0.275792 -2.75925 0
M  V30 11655 H 1081.15 -0.615991 -1.46257 0
M  V30 11656 H 1081.17 0.957507 -3.68255 0
M  V30 11657 H 1080.69 -0.864442 -3.7835 0
M  V30 11658 H 1078.79 1.56808 -3.37997 0
M  V30 11659 H 1078.9 0.308227 -4.78107 0
M  V30 11660 H 1077.26 0.260304 -2.53366 0
M  V30 11661 H 1078.05 -1.27854 -3.18604 0
M  V30 11662 N 1080.49 1.57075 -0.12858 0
M  V30 11663 C 1081.45 2.14643 0.803813 0
M  V30 11664 C 1082.45 1.08363 1.18803 0
M  V30 11665 O 1083.64 1.34093 1.11197 0
M  V30 11666 C 1080.78 2.6945 2.08829 0
M  V30 11667 H 1081.97 2.98362 0.303347 0
M  V30 11668 H 1079.52 1.55833 0.120735 0
M  V30 11669 H 1080.26 1.89345 2.63285 0
M  V30 11670 H 1080.04 3.47187 1.82218 0
M  V30 11671 H 1081.53 3.13865 2.7546 0
M  V30 11672 N 1081.97 -0.145205 1.5693 0
M  V30 11673 C 1082.92 -1.19841 1.99351 0
M  V30 11674 C 1083.91 -1.44371 0.886197 0
M  V30 11675 O 1085.12 -1.44642 1.07138 0
M  V30 11676 H 1081.49 -0.403437 0.63462 0
M  V30 11677 H 1083.46 -0.813932 2.87085 0
M  V30 11678 C 1082.21 -2.52377 2.39167 0
M  V30 11679 H 1081.54 -2.34332 3.23927 0
M  V30 11680 H 1082.98 -3.24694 2.72671 0
M  V30 11681 C 1081.43 -3.1305 1.24503 0
M  V30 11682 O 1081.96 -3.97962 0.546739 0
M  V30 11683 N 1080.17 -2.72528 1.00882 0
M  V30 11684 H 1079.72 -2.03576 1.57843 0
M  V30 11685 H 1079.68 -3.13456 0.24351 0
M  V30 11686 N 1083.45 -1.52049 -0.414609 0
M  V30 11687 C 1084.68 -1.69679 -1.18392 0
M  V30 11688 C 1085.09 -0.403881 -1.84429 0
M  V30 11689 O 1084.45 0.619636 -1.71659 0
M  V30 11690 C 1084.5 -2.82855 -2.25112 0
M  V30 11691 O 1084.22 -4.07138 -1.61772 0
M  V30 11692 C 1085.72 -3.11948 -3.14965 0
M  V30 11693 H 1082.94 -0.56879 -0.355977 0
M  V30 11694 H 1085.48 -1.9858 -0.488505 0
M  V30 11695 H 1083.64 -2.56488 -2.90332 0
M  V30 11696 H 1084.05 -4.70163 -2.32479 0
M  V30 11697 H 1085.53 -3.94665 -3.85932 0
M  V30 11698 H 1086 -2.25276 -3.77024 0
M  V30 11699 H 1086.61 -3.40059 -2.55421 0
M  V30 11700 N 1084.93 0.6715 -1.42579 0
M  V30 11701 C 1086.15 1.46471 -1.46836 0
M  V30 11702 C 1086.58 1.87921 -0.0820658 0
M  V30 11703 O 1085.93 1.5621 0.920217 0
M  V30 11704 C 1085.98 2.68796 -2.40377 0
M  V30 11705 O 1085.09 3.67188 -1.87741 0
M  V30 11706 H 1084.43 0.439901 -0.497376 0
M  V30 11707 H 1086.96 0.823342 -1.87303 0
M  V30 11708 H 1086.97 3.16828 -2.57068 0
M  V30 11709 H 1085.64 2.37967 -3.41093 0
M  V30 11710 H 1084.22 3.26237 -1.80621 0
M  V30 11711 N 1086.4 1.28806 0.908124 0
M  V30 11712 C 1087.35 1.13215 2.01125 0
M  V30 11713 C 1088.32 0.0277357 1.66077 0
M  V30 11714 O 1089.51 0.193707 1.89814 0
M  V30 11715 C 1086.65 0.805887 3.35558 0
M  V30 11716 C 1085.76 1.9899 3.83441 0
M  V30 11717 C 1084.89 1.60376 5.06412 0
M  V30 11718 C 1083.93 2.75409 5.46641 0
M  V30 11719 N 1083.07 2.37249 6.60801 0
M  V30 11720 H 1087.91 2.07598 2.13792 0
M  V30 11721 H 1085.45 1.03316 1.0471 0
M  V30 11722 H 1087.4 0.597451 4.129 0
M  V30 11723 H 1086.03 -0.101023 3.22642 0
M  V30 11724 H 1085.09 2.31029 3.02208 0
M  V30 11725 H 1086.4 2.85214 4.09212 0
M  V30 11726 H 1085.55 1.35772 5.91313 0
M  V30 11727 H 1084.29 0.712888 4.82462 0
M  V30 11728 H 1083.3 3.00705 4.60279 0
M  V30 11729 H 1084.52 3.65148 5.72577 0
M  V30 11730 H 1082.47 1.50638 6.3847 0
M  V30 11731 H 1082.38 3.17008 6.86325 0
M  V30 11732 H 1083.65 2.15943 7.48992 0
M  V30 11733 N 1087.88 -1.11734 1.11145 0
M  V30 11734 C 1089.12 -1.85039 0.868318 0
M  V30 11735 C 1089.49 -1.82538 -0.595294 0
M  V30 11736 O 1090.69 -2.5126 -0.955071 0
M  V30 11737 C 1088.96 -3.28381 1.4107 0
M  V30 11738 S 1090.52 -4.18973 1.3041 0
M  V30 11739 H 1087.33 -0.638114 0.313578 0
M  V30 11740 H 1089.94 -1.34548 1.41835 0
M  V30 11741 H 1088.64 -3.27764 2.46979 0
M  V30 11742 H 1088.17 -3.83939 0.857576 0
M  V30 11743 H 1090.19 -4.95483 0.266605 0
M  V30 11744 N 1089.36 -0.901303 -1.29284 0
M  V30 11745 C 1090.61 -0.528826 -1.95784 0
M  V30 11746 C 1090.94 0.922833 -1.70873 0
M  V30 11747 O 1090.21 1.65448 -1.0226 0
M  V30 11748 C 1090.5 -0.823793 -3.50551 0
M  V30 11749 C 1090.35 -2.32727 -3.84913 0
M  V30 11750 C 1091.67 -0.311382 -4.38997 0
M  V30 11751 H 1088.79 -0.193604 -0.711116 0
M  V30 11752 H 1091.43 -1.12828 -1.52872 0
M  V30 11753 H 1089.58 -0.313612 -3.87232 0
M  V30 11754 H 1091.25 -2.90712 -3.58168 0
M  V30 11755 H 1089.49 -2.78735 -3.32399 0
M  V30 11756 H 1090.17 -2.48423 -4.9294 0
M  V30 11757 H 1092.64 -0.748265 -4.09317 0
M  V30 11758 H 1091.52 -0.546957 -5.46168 0
M  V30 11759 H 1091.78 0.787959 -4.35021 0
M  V30 11760 N 1090.84 1.42931 -0.663954 0
M  V30 11761 C 1092.07 2.05729 -0.189532 0
M  V30 11762 C 1092.48 1.49914 1.15423 0
M  V30 11763 O 1091.82 0.629324 1.72584 0
M  V30 11764 C 1091.88 3.59482 -0.0354748 0
M  V30 11765 C 1091.54 4.37935 -1.30622 0
M  V30 11766 C 1092.54 4.69297 -2.23733 0
M  V30 11767 C 1090.23 4.77761 -1.5508 0
M  V30 11768 C 1092.22 5.39407 -3.39586 0
M  V30 11769 C 1089.91 5.47613 -2.71224 0
M  V30 11770 C 1090.91 5.7836 -3.63302 0
M  V30 11771 O 1090.59 6.46783 -4.77417 0
M  V30 11772 H 1090.33 0.669678 -0.0922342 0
M  V30 11773 H 1092.88 1.84243 -0.907943 0
M  V30 11774 H 1091.11 3.79584 0.738412 0
M  V30 11775 H 1092.8 4.03947 0.397679 0
M  V30 11776 H 1093.56 4.39038 -2.06084 0
M  V30 11777 H 1089.44 4.53229 -0.842863 0
M  V30 11778 H 1092.99 5.63323 -4.11476 0
M  V30 11779 H 1088.88 5.77289 -2.88804 0
M  V30 11780 H 1089.65 6.6527 -4.76821 0
M  V30 11781 N 1092.32 0.406567 1.52266 0
M  V30 11782 C 1093.73 0.0573228 1.59497 0
M  V30 11783 C 1093.93 -1.43005 1.41957 0
M  V30 11784 O 1092.99 -2.19659 1.24523 0
M  V30 11785 C 1094.3 0.549947 2.95628 0
M  V30 11786 C 1095.85 0.5077 3.08855 0
M  V30 11787 C 1096.32 0.976792 4.47463 0
M  V30 11788 N 1097.81 0.933508 4.53696 0
M  V30 11789 C 1098.55 1.26769 5.59211 0
M  V30 11790 N 1098.05 1.6732 6.72292 0
M  V30 11791 N 1099.84 1.18782 5.49406 0
M  V30 11792 H 1091.99 1.37468 1.61914 0
M  V30 11793 H 1094.25 0.564562 0.76156 0
M  V30 11794 H 1093.96 1.58943 3.13736 0
M  V30 11795 H 1093.83 -0.0417767 3.77177 0
M  V30 11796 H 1096.22 -0.522728 2.90433 0
M  V30 11797 H 1096.3 1.13545 2.29219 0
M  V30 11798 H 1095.94 2.00554 4.66627 0
M  V30 11799 H 1095.87 0.325885 5.25591 0
M  V30 11800 H 1098.37 0.635333 3.72521 0
M  V30 11801 H 1098.68 1.91137 7.4879 0
M  V30 11802 H 1097.02 1.71221 6.73579 0
M  V30 11803 H 1100.21 0.869906 4.59946 0
M  V30 11804 H 1100.39 1.45157 6.31533 0
M  V30 11805 N 1093.79 -1.57004 0.136909 0
M  V30 11806 C 1094.76 -2.15066 -0.792419 0
M  V30 11807 C 1095.76 -1.08991 -1.18226 0
M  V30 11808 O 1096.95 -1.34681 -1.10484 0
M  V30 11809 C 1094.08 -2.70554 -2.07397 0
M  V30 11810 H 1095.27 -2.98519 -0.28752 0
M  V30 11811 H 1092.83 -1.55895 -0.112469 0
M  V30 11812 H 1093.56 -1.90739 -2.62277 0
M  V30 11813 H 1093.35 -3.48149 -1.80374 0
M  V30 11814 H 1094.84 -3.15322 -2.73792 0
M  V30 11815 N 1095.27 0.136881 -1.57004 0
M  V30 11816 C 1096.22 1.16869 -1.99023 0
M  V30 11817 C 1097.19 1.42137 -0.859435 0
M  V30 11818 O 1098.37 1.54303 -1.12229 0
M  V30 11819 C 1095.51 2.49466 -2.38455 0
M  V30 11820 C 1094.63 2.31286 -3.64871 0
M  V30 11821 C 1093.76 3.56989 -3.9336 0
M  V30 11822 C 1092.8 3.33889 -5.13015 0
M  V30 11823 N 1091.94 4.51748 -5.37464 0
M  V30 11824 H 1096.78 0.803366 -2.86967 0
M  V30 11825 H 1094.32 0.385216 -1.41967 0
M  V30 11826 H 1096.27 3.26794 -2.59348 0
M  V30 11827 H 1094.9 2.83926 -1.53577 0
M  V30 11828 H 1093.96 1.44962 -3.51696 0
M  V30 11829 H 1095.27 2.10183 -4.52355 0
M  V30 11830 H 1094.42 4.42742 -4.14806 0
M  V30 11831 H 1093.16 3.81106 -3.04318 0
M  V30 11832 H 1092.17 2.46525 -4.91432 0
M  V30 11833 H 1093.39 3.1116 -6.03619 0
M  V30 11834 H 1091.34 4.76019 -4.51377 0
M  V30 11835 H 1091.25 4.33684 -6.19237 0
M  V30 11836 H 1092.52 5.38686 -5.63416 0
M  V30 11837 N 1096.75 1.52266 0.40654 0
M  V30 11838 C 1097.68 1.78755 1.50229 0
M  V30 11839 C 1098.66 0.638652 1.57655 0
M  V30 11840 O 1099.85 0.884505 1.72888 0
M  V30 11841 C 1096.98 1.94057 2.88026 0
M  V30 11842 C 1095.93 3.09667 2.95449 0
M  V30 11843 C 1095.26 3.10196 4.35526 0
M  V30 11844 C 1096.56 4.49077 2.66697 0
M  V30 11845 H 1098.25 2.70511 1.28313 0
M  V30 11846 H 1095.8 1.30167 0.615836 0
M  V30 11847 H 1097.75 2.11171 3.64671 0
M  V30 11848 H 1096.47 0.989755 3.11242 0
M  V30 11849 H 1095.13 2.92308 2.2125 0
M  V30 11850 H 1094.78 2.12831 4.55754 0
M  V30 11851 H 1094.48 3.87847 4.41416 0
M  V30 11852 H 1096 3.29443 5.14101 0
M  V30 11853 H 1097.42 4.66628 3.33064 0
M  V30 11854 H 1095.82 5.28665 2.8396 0
M  V30 11855 H 1096.89 4.56995 1.62122 0
M  V30 11856 N 1098.23 -0.663929 1.42933 0
M  V30 11857 C 1099.51 -1.42054 1.34462 0
M  V30 11858 C 1099.89 -2.11096 -0.0127801 0
M  V30 11859 O 1099.23 -2.04027 -1.02884 0
M  V30 11860 C 1099.44 -2.41406 2.5204 0
M  V30 11861 C 1100.79 -3.05726 2.94647 0
M  V30 11862 O 1101.82 -2.51733 2.52009 0
M  V30 11863 O 1100.67 -4.03593 3.68477 0
M  V30 11864 H 1097.77 -0.634149 0.530834 0
M  V30 11865 H 1100.31 -0.691738 1.54962 0
M  V30 11866 H 1099.09 -1.89263 3.42484 0
M  V30 11867 H 1098.71 -3.21752 2.33584 0
M  V30 11868 N 1099.71 -1.29285 -0.901281 0
M  V30 11869 C 1100.95 -1.16934 -1.64836 0
M  V30 11870 C 1101.28 0.279826 -1.92982 0
M  V30 11871 O 1100.55 1.19179 -1.55478 0
M  V30 11872 H 1099.13 -0.429768 -0.61099 0
M  V30 11873 H 1101.79 -1.62189 -1.08077 0
M  V30 11874 H 1100.88 -1.71821 -2.60545 0
M  V30 11875 N 1101.18 1.11143 -1.11736 0
M  V30 11876 C 1102.43 1.8341 -0.879329 0
M  V30 11877 C 1102.79 1.83174 0.588657 0
M  V30 11878 O 1102.08 1.27609 1.42922 0
M  V30 11879 C 1102.27 3.29733 -1.3788 0
M  V30 11880 C 1102.1 3.44222 -2.89381 0
M  V30 11881 C 1100.87 3.57065 -3.57537 0
M  V30 11882 C 1103.07 3.38246 -3.8742 0
M  V30 11883 N 1101.05 3.60056 -4.97225 0
M  V30 11884 C 1102.42 3.47894 -5.13196 0
M  V30 11885 C 1104.48 3.21797 -3.79935 0
M  V30 11886 C 1103.18 3.4279 -6.32367 0
M  V30 11887 C 1105.21 3.18011 -4.98621 0
M  V30 11888 C 1104.57 3.28234 -6.23251 0
M  V30 11889 H 1100.67 0.686248 -0.374951 0
M  V30 11890 H 1103.25 1.32962 -1.42229 0
M  V30 11891 H 1101.42 3.78691 -0.86298 0
M  V30 11892 H 1103.15 3.89924 -1.08359 0
M  V30 11893 H 1099.91 3.59759 -3.08011 0
M  V30 11894 H 1100.33 3.65181 -5.70063 0
M  V30 11895 H 1104.98 3.12777 -2.84482 0
M  V30 11896 H 1102.69 3.50577 -7.28094 0
M  V30 11897 H 1106.28 3.06446 -4.94552 0
M  V30 11898 H 1105.16 3.25297 -7.13549 0
M  V30 11899 N 1102.66 0.908147 1.28804 0
M  V30 11900 C 1103.59 0.409106 2.29888 0
M  V30 11901 C 1104.57 -0.520338 1.61946 0
M  V30 11902 O 1105.76 -0.429268 1.89396 0
M  V30 11903 C 1102.89 -0.35669 3.45463 0
M  V30 11904 C 1101.84 0.4831 4.25265 0
M  V30 11905 C 1101.17 -0.4107 5.3312 0
M  V30 11906 C 1102.47 1.73744 4.92555 0
M  V30 11907 H 1104.16 1.25386 2.7188 0
M  V30 11908 H 1101.71 0.604368 1.30703 0
M  V30 11909 H 1103.66 -0.71661 4.15262 0
M  V30 11910 H 1102.39 -1.2353 3.02337 0
M  V30 11911 H 1101.04 0.825464 3.57186 0
M  V30 11912 H 1100.69 -1.28769 4.86238 0
M  V30 11913 H 1100.39 0.14756 5.87415 0
M  V30 11914 H 1101.92 -0.766626 6.05768 0
M  V30 11915 H 1103.33 1.44676 5.54745 0
M  V30 11916 H 1101.73 2.23767 5.5682 0
M  V30 11917 H 1102.8 2.46853 4.17363 0
M  V30 11918 N 1104.14 -1.42577 0.671525 0
M  V30 11919 C 1105.37 -2.05924 0.200731 0
M  V30 11920 C 1105.78 -1.50434 -1.14083 0
M  V30 11921 O 1105.14 -0.642845 -1.70803 0
M  V30 11922 C 1105.19 -3.61289 0.123505 0
M  V30 11923 O 1104.91 -4.1472 1.41205 0
M  V30 11924 C 1106.41 -4.41743 -0.371178 0
M  V30 11925 H 1103.63 -0.663746 0.0983958 0
M  V30 11926 H 1106.18 -1.82771 0.917338 0
M  V30 11927 H 1104.33 -3.83565 -0.543769 0
M  V30 11928 H 1104.75 -5.0856 1.28325 0
M  V30 11929 H 1106.22 -5.50731 -0.374128 0
M  V30 11930 H 1106.7 -4.16092 -1.40585 0
M  V30 11931 H 1107.3 -4.24478 0.264244 0
M  V30 11932 N 1105.62 -0.414636 -1.52048 0
M  V30 11933 C 1107.03 0.0537107 -1.86623 0
M  V30 11934 C 1107.38 1.43955 -1.3331 0
M  V30 11935 O 1106.51 2.05616 -0.674606 0
M  V30 11936 C 1107.1 0.104241 -3.3864 0
M  V30 11937 C 1105.66 0.516936 -3.72833 0
M  V30 11938 C 1104.81 -0.305042 -2.75617 0
M  V30 11939 H 1107.76 -0.631469 -1.45596 0
M  V30 11940 H 1107.78 0.918395 -3.6925 0
M  V30 11941 H 1107.29 -0.904523 -3.77412 0
M  V30 11942 H 1105.39 1.53214 -3.39641 0
M  V30 11943 H 1105.5 0.2575 -4.78408 0
M  V30 11944 H 1103.87 0.233416 -2.53628 0
M  V30 11945 H 1104.65 -1.31226 -3.1723 0
M  V30 11946 N 1107.1 1.56929 -0.145233 0
M  V30 11947 C 1108.01 2.20238 0.808219 0
M  V30 11948 C 1109.02 1.18615 1.27304 0
M  V30 11949 O 1110.2 1.51186 1.3306 0
M  V30 11950 C 1107.26 2.81016 2.03055 0
M  V30 11951 C 1106.32 3.97759 1.61512 0
M  V30 11952 C 1105.56 4.55628 2.77918 0
M  V30 11953 O 1105.78 4.12378 3.94082 0
M  V30 11954 O 1104.71 5.45917 2.53492 0
M  V30 11955 H 1108.54 3.02221 0.299314 0
M  V30 11956 H 1106.13 1.49176 0.0817051 0
M  V30 11957 H 1108.01 3.19652 2.74592 0
M  V30 11958 H 1106.68 2.02047 2.52901 0
M  V30 11959 H 1105.59 3.63842 0.870033 0
M  V30 11960 H 1106.92 4.78242 1.16383 0
M  V30 11961 N 1108.58 -0.128553 1.57075 0
M  V30 11962 C 1109.85 -0.867766 1.75297 0
M  V30 11963 C 1110.23 -1.98508 0.718176 0
M  V30 11964 O 1109.58 -2.2702 -0.259616 0
M  V30 11965 C 1109.79 -1.39326 3.19983 0
M  V30 11966 C 1111.14 -1.84939 3.82208 0
M  V30 11967 O 1112.16 -1.49027 3.23527 0
M  V30 11968 O 1111.02 -2.51227 4.85332 0
M  V30 11969 H 1108.12 -0.411393 0.717415 0
M  V30 11970 H 1110.66 -0.113038 1.69323 0
M  V30 11971 H 1109.43 -0.591172 3.86809 0
M  V30 11972 H 1109.06 -2.21097 3.30457 0
M  V30 11973 N 1110.05 -1.5248 -0.398459 0
M  V30 11974 C 1111.29 -1.68744 -1.15346 0
M  V30 11975 C 1111.66 -0.413739 -1.87489 0
M  V30 11976 O 1112.86 -0.452624 -2.64962 0
M  V30 11977 C 1111.13 -2.8824 -2.11311 0
M  V30 11978 S 1112.69 -3.25043 -2.94775 0
M  V30 11979 H 1109.51 -0.594099 -0.390598 0
M  V30 11980 H 1112.11 -1.90502 -0.439228 0
M  V30 11981 H 1110.81 -3.79175 -1.57017 0
M  V30 11982 H 1110.34 -2.68787 -2.87258 0
M  V30 11983 H 1112.36 -2.74495 -4.13361 0
M  V30 11984 N 1111.53 0.65634 -1.43283 0
M  V30 11985 C 1112.95 0.971645 -1.26614 0
M  V30 11986 C 1113.15 2.00662 -0.183612 0
M  V30 11987 O 1112.2 2.48654 0.439003 0
M  V30 11988 C 1113.52 1.45888 -2.6294 0
M  V30 11989 C 1115.06 1.57569 -2.70446 0
M  V30 11990 C 1115.54 2.09684 -4.07181 0
M  V30 11991 N 1117.03 2.16991 -4.0923 0
M  V30 11992 C 1117.77 2.5843 -5.11861 0
M  V30 11993 N 1117.26 2.99188 -6.24867 0
M  V30 11994 N 1119.05 2.58342 -4.99215 0
M  V30 11995 H 1111.21 -0.028573 -2.12381 0
M  V30 11996 H 1113.47 0.0497918 -0.946691 0
M  V30 11997 H 1113.17 0.772823 -3.43104 0
M  V30 11998 H 1113.05 2.43445 -2.88122 0
M  V30 11999 H 1115.44 2.25277 -1.90616 0
M  V30 12000 H 1115.52 0.584529 -2.49032 0
M  V30 12001 H 1115.16 1.42579 -4.87477 0
M  V30 12002 H 1115.09 3.09625 -4.25958 0
M  V30 12003 H 1117.58 1.88278 -3.27658 0
M  V30 12004 H 1117.89 3.29549 -6.99012 0
M  V30 12005 H 1116.24 2.97 -6.28344 0
M  V30 12006 H 1119.43 2.25875 -4.09998 0
M  V30 12007 H 1119.6 2.90316 -5.79328 0
M  V30 12008 N 1113.01 1.29761 0.894412 0
M  V30 12009 C 1114.43 1.07888 1.17611 0
M  V30 12010 C 1114.63 -0.16644 2.00811 0
M  V30 12011 O 1113.68 -0.86272 2.37304 0
M  V30 12012 C 1114.99 2.33723 1.89193 0
M  V30 12013 C 1116.54 2.39095 2.01997 0
M  V30 12014 C 1117.02 3.64747 2.7699 0
M  V30 12015 N 1118.51 3.65501 2.84541 0
M  V30 12016 C 1119.24 4.59411 3.43117 0
M  V30 12017 N 1118.74 5.63657 4.02818 0
M  V30 12018 N 1120.53 4.46971 3.40842 0
M  V30 12019 H 1112.68 2.0967 0.339421 0
M  V30 12020 H 1114.95 0.923788 0.212882 0
M  V30 12021 H 1114.65 3.24551 1.35496 0
M  V30 12022 H 1114.53 2.41642 2.89636 0
M  V30 12023 H 1116.91 1.48751 2.54867 0
M  V30 12024 H 1116.99 2.35158 1.0067 0
M  V30 12025 H 1116.64 4.55445 2.24794 0
M  V30 12026 H 1116.57 3.65944 3.78672 0
M  V30 12027 H 1119.06 2.90129 2.42144 0
M  V30 12028 H 1119.37 6.31429 4.45552 0
M  V30 12029 H 1117.72 5.67461 4.01265 0
M  V30 12030 H 1120.91 3.64719 2.93424 0
M  V30 12031 H 1121.08 5.20341 3.86198 0
M  V30 12032 N 1114.49 -1.10549 1.12324 0
M  V30 12033 C 1115.71 -1.8681 0.900927 0
M  V30 12034 C 1116.14 -1.80049 -0.54443 0
M  V30 12035 O 1115.5 -1.16957 -1.38531 0
M  V30 12036 C 1115.54 -3.33197 1.37883 0
M  V30 12037 O 1114.65 -4.08628 0.556529 0
M  V30 12038 H 1113.99 -0.579709 0.32378 0
M  V30 12039 H 1116.52 -1.39678 1.49503 0
M  V30 12040 H 1116.53 -3.84047 1.37739 0
M  V30 12041 H 1115.2 -3.37435 2.43127 0
M  V30 12042 H 1113.78 -3.67627 0.62486 0
M  V30 12043 N 1115.97 -0.914965 -1.28321 0
M  V30 12044 C 1117.21 -0.548749 -1.94923 0
M  V30 12045 C 1117.54 0.907776 -1.72016 0
M  V30 12046 O 1116.8 1.66097 -1.03491 0
M  V30 12047 C 1117.09 -0.805805 -3.48198 0
M  V30 12048 C 1116.76 -2.24207 -3.91206 0
M  V30 12049 C 1115.42 -2.63475 -4.02659 0
M  V30 12050 C 1117.77 -3.17667 -4.13204 0
M  V30 12051 C 1115.1 -3.95353 -4.3349 0
M  V30 12052 C 1117.45 -4.4911 -4.45514 0
M  V30 12053 C 1116.12 -4.8823 -4.55179 0
M  V30 12054 H 1115.39 -0.200801 -0.713274 0
M  V30 12055 H 1118.04 -1.15652 -1.52633 0
M  V30 12056 H 1116.34 -0.115244 -3.9163 0
M  V30 12057 H 1118.04 -0.501609 -3.9785 0
M  V30 12058 H 1114.63 -1.92737 -3.82819 0
M  V30 12059 H 1118.81 -2.88537 -4.03807 0
M  V30 12060 H 1114.07 -4.25362 -4.39178 0
M  V30 12061 H 1118.24 -5.21542 -4.61483 0
M  V30 12062 H 1115.87 -5.90451 -4.78823 0
M  V30 12063 N 1117.44 1.42219 -0.679077 0
M  V30 12064 C 1118.37 2.33493 -0.0174528 0
M  V30 12065 C 1119.35 1.50915 0.78477 0
M  V30 12066 O 1120.54 1.79504 0.741065 0
M  V30 12067 C 1117.67 3.34576 0.931463 0
M  V30 12068 C 1116.62 4.2734 0.237527 0
M  V30 12069 C 1115.95 5.18664 1.29967 0
M  V30 12070 C 1117.25 5.14729 -0.886082 0
M  V30 12071 H 1118.94 2.89068 -0.779748 0
M  V30 12072 H 1116.49 1.38993 -0.376419 0
M  V30 12073 H 1118.44 3.97343 1.40343 0
M  V30 12074 H 1117.17 2.77315 1.72523 0
M  V30 12075 H 1115.83 3.65973 -0.214245 0
M  V30 12076 H 1115.47 4.57727 2.08554 0
M  V30 12077 H 1115.17 5.81558 0.840463 0
M  V30 12078 H 1116.7 5.84308 1.77249 0
M  V30 12079 H 1118.11 5.71158 -0.495141 0
M  V30 12080 H 1116.51 5.86478 -1.27135 0
M  V30 12081 H 1117.58 4.52874 -1.733 0
M  V30 12082 N 1118.92 0.422693 1.51826 0
M  V30 12083 C 1119.87 -0.396088 2.27376 0
M  V30 12084 C 1120.84 -1.02946 1.30351 0
M  V30 12085 O 1122.02 -1.05116 1.59233 0
M  V30 12086 C 1119.16 -1.49942 3.10824 0
M  V30 12087 C 1118.28 -0.885623 4.22825 0
M  V30 12088 C 1117.41 -1.96278 4.93608 0
M  V30 12089 C 1116.45 -1.32664 5.97551 0
M  V30 12090 N 1115.59 -2.34452 6.61798 0
M  V30 12091 H 1120.43 0.254571 2.96911 0
M  V30 12092 H 1117.96 0.137383 1.46457 0
M  V30 12093 H 1119.92 -2.15023 3.57521 0
M  V30 12094 H 1118.55 -2.11991 2.43433 0
M  V30 12095 H 1117.6 -0.123491 3.80199 0
M  V30 12096 H 1118.92 -0.381057 4.97342 0
M  V30 12097 H 1118.07 -2.69055 5.43778 0
M  V30 12098 H 1116.81 -2.50103 4.18688 0
M  V30 12099 H 1115.81 -0.584262 5.46687 0
M  V30 12100 H 1117.04 -0.7959 6.7442 0
M  V30 12101 H 1114.99 -2.87385 5.897 0
M  V30 12102 H 1114.9 -1.88845 7.32034 0
M  V30 12103 H 1116.17 -3.06757 7.16603 0
M  V30 12104 N 1120.4 -1.5685 0.153553 0
M  V30 12105 C 1121.33 -2.20101 -0.779601 0
M  V30 12106 C 1122.31 -1.15121 -1.25225 0
M  V30 12107 O 1123.5 -1.43487 -1.30862 0
M  V30 12108 C 1120.63 -2.82778 -2.01628 0
M  V30 12109 C 1119.58 -3.93643 -1.68015 0
M  V30 12110 C 1118.91 -4.43286 -2.99001 0
M  V30 12111 C 1120.21 -5.14102 -0.921774 0
M  V30 12112 H 1121.9 -2.98334 -0.252432 0
M  V30 12113 H 1119.45 -1.43499 -0.119975 0
M  V30 12114 H 1121.4 -3.25696 -2.67395 0
M  V30 12115 H 1120.12 -2.01887 -2.56728 0
M  V30 12116 H 1118.78 -3.51354 -1.04624 0
M  V30 12117 H 1118.43 -3.59208 -3.52106 0
M  V30 12118 H 1118.13 -5.18068 -2.77272 0
M  V30 12119 H 1119.65 -4.88878 -3.65828 0
M  V30 12120 H 1121.07 -5.53823 -1.48167 0
M  V30 12121 H 1119.46 -5.94687 -0.804185 0
M  V30 12122 H 1120.53 -4.84825 0.0852757 0
M  V30 12123 N 1121.88 0.120221 -1.57141 0
M  V30 12124 C 1123.13 0.826791 -1.83976 0
M  V30 12125 C 1123.44 1.81102 -0.739014 0
M  V30 12126 O 1124.65 2.56368 -0.893736 0
M  V30 12127 C 1123.1 1.52108 -3.26176 0
M  V30 12128 C 1122.71 0.577902 -4.44257 0
M  V30 12129 C 1124.45 2.21286 -3.62261 0
M  V30 12130 C 1122.36 1.27535 -5.77485 0
M  V30 12131 H 1121.29 0.312508 -0.686189 0
M  V30 12132 H 1123.94 0.0795343 -1.83328 0
M  V30 12133 H 1122.32 2.31492 -3.2129 0
M  V30 12134 H 1123.5 -0.182629 -4.60438 0
M  V30 12135 H 1121.81 -0.00684348 -4.16399 0
M  V30 12136 H 1124.41 2.74154 -4.59068 0
M  V30 12137 H 1124.75 2.99029 -2.89634 0
M  V30 12138 H 1125.29 1.48791 -3.68925 0
M  V30 12139 H 1122.02 0.539237 -6.53278 0
M  V30 12140 H 1121.54 2.00792 -5.65192 0
M  V30 12141 H 1123.22 1.80888 -6.21199 0
M  V30 12142 N 1123.36 1.52689 0.390367 0
M  V30 12143 C 1124.29 1.80338 1.48325 0
M  V30 12144 C 1125.27 0.655338 1.56969 0
M  V30 12145 O 1126.45 0.902792 1.7194 0
M  V30 12146 C 1123.58 1.97101 2.85952 0
M  V30 12147 C 1122.54 3.12783 2.92148 0
M  V30 12148 C 1121.86 3.14798 4.32211 0
M  V30 12149 C 1123.16 4.5188 2.61919 0
M  V30 12150 H 1124.86 2.71857 1.25437 0
M  V30 12151 H 1122.4 1.30813 0.601995 0
M  V30 12152 H 1124.36 2.15027 3.62411 0
M  V30 12153 H 1123.08 1.02271 3.10174 0
M  V30 12154 H 1121.74 2.94638 2.18137 0
M  V30 12155 H 1121.39 2.17653 4.53471 0
M  V30 12156 H 1121.09 3.92507 4.37278 0
M  V30 12157 H 1122.61 3.34877 5.10578 0
M  V30 12158 H 1124.02 4.70134 3.28096 0
M  V30 12159 H 1122.42 5.31647 2.78337 0
M  V30 12160 H 1123.49 4.58689 1.57266 0
M  V30 12161 N 1124.83 -0.648732 1.43629 0
M  V30 12162 C 1125.78 -1.76145 1.49136 0
M  V30 12163 C 1126.75 -1.62569 0.340649 0
M  V30 12164 O 1127.94 -1.82748 0.548435 0
M  V30 12165 C 1125.08 -3.14321 1.42466 0
M  V30 12166 C 1124.19 -3.38999 2.67776 0
M  V30 12167 C 1123.32 -4.67047 2.53062 0
M  V30 12168 C 1122.36 -4.84845 3.7362 0
M  V30 12169 N 1121.5 -6.04155 3.57689 0
M  V30 12170 H 1126.34 -1.70774 2.44213 0
M  V30 12171 H 1123.88 -0.833311 1.2122 0
M  V30 12172 H 1125.84 -3.94206 1.36592 0
M  V30 12173 H 1124.47 -3.18751 0.509666 0
M  V30 12174 H 1123.52 -2.53179 2.83909 0
M  V30 12175 H 1124.83 -3.48035 3.57314 0
M  V30 12176 H 1123.98 -5.55066 2.44922 0
M  V30 12177 H 1122.72 -4.60339 1.61056 0
M  V30 12178 H 1121.73 -3.95261 3.82163 0
M  V30 12179 H 1122.95 -4.9338 4.6664 0
M  V30 12180 H 1120.9 -5.9857 2.6842 0
M  V30 12181 H 1120.82 -6.14169 4.40832 0
M  V30 12182 H 1122.08 -6.94782 3.53409 0
M  V30 12183 N 1126.31 -1.30234 -0.887518 0
M  V30 12184 C 1127.59 -1.09572 -1.62029 0
M  V30 12185 C 1127.97 0.355877 -2.08079 0
M  V30 12186 O 1127.32 1.34692 -1.84582 0
M  V30 12187 C 1127.53 -2.0943 -2.79177 0
M  V30 12188 C 1128.88 -2.4101 -3.4957 0
M  V30 12189 O 1129.9 -2.0772 -2.89363 0
M  V30 12190 O 1128.76 -2.97943 -4.5814 0
M  V30 12191 H 1125.85 -0.420648 -0.712028 0
M  V30 12192 H 1128.4 -1.41651 -0.934517 0
M  V30 12193 H 1127.17 -3.07149 -2.42436 0
M  V30 12194 H 1126.79 -1.78154 -3.55453 0
M  V30 12195 N 1127.79 1.09952 -1.12909 0
M  V30 12196 C 1128.74 2.16436 -0.801514 0
M  V30 12197 C 1129.71 1.64444 0.233976 0
M  V30 12198 O 1130.89 1.90497 0.10743 0
M  V30 12199 C 1128.03 3.4406 -0.267753 0
M  V30 12200 C 1127.15 4.09979 -1.36165 0
M  V30 12201 C 1126.28 5.25341 -0.786803 0
M  V30 12202 C 1125.32 5.83172 -1.85948 0
M  V30 12203 N 1124.46 6.89904 -1.30298 0
M  V30 12204 H 1129.3 2.43799 -1.71365 0
M  V30 12205 H 1126.83 1.19665 -0.855499 0
M  V30 12206 H 1128.79 4.17157 0.0598031 0
M  V30 12207 H 1127.42 3.17031 0.607528 0
M  V30 12208 H 1126.47 3.34801 -1.8059 0
M  V30 12209 H 1127.79 4.48999 -2.17259 0
M  V30 12210 H 1126.94 6.05312 -0.410211 0
M  V30 12211 H 1125.68 4.87669 0.055279 0
M  V30 12212 H 1124.68 5.01867 -2.24521 0
M  V30 12213 H 1125.91 6.22907 -2.70487 0
M  V30 12214 H 1123.85 6.54221 -0.482806 0
M  V30 12215 H 1123.77 7.27662 -2.05046 0
M  V30 12216 H 1125.04 7.73643 -0.953779 0
M  V30 12217 N 1129.27 0.921757 1.27833 0
M  V30 12218 C 1130.49 0.574599 1.99281 0
M  V30 12219 C 1130.92 -0.838905 1.68357 0
M  V30 12220 O 1130.28 -1.56196 0.920468 0
M  V30 12221 C 1130.32 0.800027 3.51613 0
M  V30 12222 O 1129.43 -0.137215 4.12172 0
M  V30 12223 H 1128.77 0.221887 0.625829 0
M  V30 12224 H 1131.3 1.23939 1.62789 0
M  V30 12225 H 1131.31 0.71326 4.01717 0
M  V30 12226 H 1129.98 1.83042 3.73455 0
M  V30 12227 H 1128.56 -0.00103872 3.729 0
M  V30 12228 N 1130.75 -1.41857 0.686609 0
M  V30 12229 C 1131.99 -2.0097 0.213378 0
M  V30 12230 C 1132.32 -1.54618 -1.1882 0
M  V30 12231 O 1131.59 -0.772916 -1.80008 0
M  V30 12232 H 1130.17 -0.743134 0.0758968 0
M  V30 12233 H 1132.83 -1.73609 0.885763 0
M  V30 12234 H 1131.92 -3.11296 0.223826 0
M  V30 12235 N 1132.22 -0.430739 -1.51599 0
M  V30 12236 C 1133.17 0.401828 -2.24431 0
M  V30 12237 C 1134.16 0.995588 -1.264 0
M  V30 12238 O 1135.35 0.914822 -1.51526 0
M  V30 12239 C 1132.48 1.5061 -3.08499 0
M  V30 12240 C 1131.57 0.922059 -4.13955 0
M  V30 12241 N 1131.96 0.0665912 -5.05756 0
M  V30 12242 C 1130.25 1.19034 -4.29822 0
M  V30 12243 C 1130.96 -0.260713 -5.81115 0
M  V30 12244 N 1129.93 0.353991 -5.42446 0
M  V30 12245 H 1133.73 -0.257813 -2.92767 0
M  V30 12246 H 1131.25 -0.242421 -1.6058 0
M  V30 12247 H 1133.24 2.11535 -3.59247 0
M  V30 12248 H 1131.9 2.16815 -2.41706 0
M  V30 12249 H 1132.92 -0.299356 -5.17034 0
M  V30 12250 H 1129.59 1.85036 -3.74256 0
M  V30 12251 H 1130.98 -0.956442 -6.65058 0
M  V30 12252 N 1133.7 1.56767 -0.161869 0
M  V30 12253 C 1134.63 2.1466 0.803356 0
M  V30 12254 C 1135.65 1.09977 1.20037 0
M  V30 12255 O 1136.84 1.37199 1.14187 0
M  V30 12256 C 1133.94 2.66663 2.09151 0
M  V30 12257 C 1133.11 3.95904 1.85953 0
M  V30 12258 C 1132.17 4.33067 2.98897 0
M  V30 12259 O 1131.19 5.01119 2.69942 0
M  V30 12260 N 1132.4 3.93856 4.26448 0
M  V30 12261 H 1135.16 2.98108 0.308472 0
M  V30 12262 H 1132.72 1.61886 0.0212238 0
M  V30 12263 H 1134.71 2.88528 2.83784 0
M  V30 12264 H 1133.28 1.87856 2.49857 0
M  V30 12265 H 1132.5 3.82513 0.952751 0
M  V30 12266 H 1133.79 4.8033 1.67811 0
M  V30 12267 H 1133.19 3.39051 4.52836 0
M  V30 12268 H 1131.75 4.20741 4.97815 0
M  V30 12269 N 1135.18 -0.111886 1.57202 0
M  V30 12270 C 1136.43 -0.819623 1.85499 0
M  V30 12271 C 1136.76 -1.7919 0.748629 0
M  V30 12272 O 1136.03 -1.92952 -0.244918 0
M  V30 12273 C 1136.32 -1.56324 3.24399 0
M  V30 12274 C 1136.17 -0.610081 4.45643 0
M  V30 12275 C 1137.49 -2.51777 3.60966 0
M  V30 12276 H 1134.61 -0.296512 0.674722 0
M  V30 12277 H 1137.25 -0.0836741 1.89816 0
M  V30 12278 H 1135.4 -2.1906 3.2085 0
M  V30 12279 H 1137.07 0.00898038 4.61299 0
M  V30 12280 H 1135.32 0.0778488 4.3373 0
M  V30 12281 H 1135.99 -1.16718 5.39519 0
M  V30 12282 H 1138.46 -1.99143 3.65351 0
M  V30 12283 H 1137.34 -3.00835 4.59118 0
M  V30 12284 H 1137.6 -3.34769 2.8876 0
M  V30 12285 N 1136.66 -1.52894 -0.382264 0
M  V30 12286 C 1137.62 -1.77497 -1.45008 0
M  V30 12287 C 1138.62 -0.64509 -1.47293 0
M  V30 12288 O 1139.81 -0.913192 -1.48346 0
M  V30 12289 C 1136.94 -1.88188 -2.8425 0
M  V30 12290 H 1138.14 -2.72849 -1.24473 0
M  V30 12291 H 1135.69 -1.43717 -0.61441 0
M  V30 12292 H 1136.42 -0.948451 -3.10121 0
M  V30 12293 H 1136.21 -2.70353 -2.83992 0
M  V30 12294 H 1137.7 -2.08873 -3.6161 0
M  V30 12295 N 1138.14 0.641106 -1.43971 0
M  V30 12296 C 1139.05 1.78239 -1.52538 0
M  V30 12297 C 1140.06 1.6906 -0.411668 0
M  V30 12298 O 1141.24 1.90014 -0.66757 0
M  V30 12299 C 1138.3 3.14579 -1.45743 0
M  V30 12300 C 1137.37 3.35464 -2.67885 0
M  V30 12301 C 1136.6 4.65299 -2.61404 0
M  V30 12302 O 1136.82 5.45451 -1.66851 0
M  V30 12303 O 1135.76 4.8817 -3.521 0
M  V30 12304 H 1139.58 1.73965 -2.48937 0
M  V30 12305 H 1137.17 0.801098 -1.26106 0
M  V30 12306 H 1139.05 3.95873 -1.4444 0
M  V30 12307 H 1137.72 3.19417 -0.524837 0
M  V30 12308 H 1136.63 2.53888 -2.74758 0
M  V30 12309 H 1137.96 3.35481 -3.60157 0
M  V30 12310 N 1139.62 1.30703 0.880598 0
M  V30 12311 C 1140.84 1.22843 1.67106 0
M  V30 12312 C 1141.27 -0.204788 1.86982 0
M  V30 12313 O 1140.62 -1.14716 1.40392 0
M  V30 12314 C 1140.67 1.96685 3.02237 0
M  V30 12315 O 1139.78 1.29693 3.91476 0
M  V30 12316 H 1139.12 0.424661 0.51045 0
M  V30 12317 H 1141.65 1.72596 1.09871 0
M  V30 12318 H 1141.66 2.05874 3.52249 0
M  V30 12319 H 1140.33 3.00919 2.8709 0
M  V30 12320 H 1138.91 1.28886 3.49918 0
M  V30 12321 N 1141.09 -1.09351 1.1349 0
M  V30 12322 C 1142.34 -1.81812 0.898452 0
M  V30 12323 C 1142.67 -1.85525 -0.573959 0
M  V30 12324 O 1141.95 -1.32403 -1.42477 0
M  V30 12325 C 1142.23 -3.27921 1.48794 0
M  V30 12326 C 1142.08 -3.32476 3.02952 0
M  V30 12327 C 1143.4 -4.24625 1.15678 0
M  V30 12328 H 1140.52 -0.660074 0.327829 0
M  V30 12329 H 1143.16 -1.28091 1.40331 0
M  V30 12330 H 1141.31 -3.738 1.05858 0
M  V30 12331 H 1142.99 -2.94994 3.54649 0
M  V30 12332 H 1141.23 -2.72037 3.37903 0
M  V30 12333 H 1141.9 -4.35409 3.39298 0
M  V30 12334 H 1144.38 -3.87036 1.52781 0
M  V30 12335 H 1143.25 -5.25194 1.59571 0
M  V30 12336 H 1143.51 -4.42044 0.0705933 0
M  V30 12337 N 1142.57 -0.928524 -1.27343 0
M  V30 12338 C 1143.52 -0.399267 -2.24477 0
M  V30 12339 C 1144.51 0.496927 -1.53034 0
M  V30 12340 O 1145.7 0.334237 -1.73816 0
M  V30 12341 C 1142.83 0.346059 -3.41551 0
M  V30 12342 C 1141.91 -0.566699 -4.20297 0
M  V30 12343 N 1142.3 -1.6869 -4.76841 0
M  V30 12344 C 1140.6 -0.369865 -4.44464 0
M  V30 12345 C 1141.3 -2.25466 -5.36228 0
M  V30 12346 N 1140.28 -1.54414 -5.21207 0
M  V30 12347 H 1144.08 -1.25456 -2.65778 0
M  V30 12348 H 1141.59 -0.782894 -1.42283 0
M  V30 12349 H 1143.59 0.742171 -4.10241 0
M  V30 12350 H 1142.25 1.19827 -3.01781 0
M  V30 12351 H 1143.26 -2.06926 -4.74765 0
M  V30 12352 H 1139.94 0.441619 -4.15158 0
M  V30 12353 H 1141.33 -3.19779 -5.90924 0
M  V30 12354 N 1144.05 1.41491 -0.694123 0
M  V30 12355 C 1145.3 2.01252 -0.224477 0
M  V30 12356 C 1145.62 1.54965 1.17541 0
M  V30 12357 O 1144.88 0.751041 1.80715 0
M  V30 12358 C 1145.18 3.56666 -0.228869 0
M  V30 12359 C 1144.84 4.22458 -1.57608 0
M  V30 12360 C 1143.51 4.40144 -1.94491 0
M  V30 12361 C 1145.86 4.5936 -2.46247 0
M  V30 12362 C 1143.19 4.92009 -3.196 0
M  V30 12363 C 1145.54 5.12615 -3.70687 0
M  V30 12364 C 1144.2 5.28512 -4.07715 0
M  V30 12365 H 1143.47 0.736433 -0.0821419 0
M  V30 12366 H 1146.12 1.69408 -0.892926 0
M  V30 12367 H 1144.42 3.88292 0.523128 0
M  V30 12368 H 1146.12 4.00712 0.152019 0
M  V30 12369 H 1142.71 4.09065 -1.27921 0
M  V30 12370 H 1146.9 4.45352 -2.19032 0
M  V30 12371 H 1142.15 5.02502 -3.48285 0
M  V30 12372 H 1146.33 5.4015 -4.39558 0
M  V30 12373 H 1143.95 5.68464 -5.0473 0
M  V30 12374 N 1145.53 0.438773 1.51369 0
M  V30 12375 C 1146.77 -0.127213 2.021 0
M  V30 12376 C 1147.1 -1.42587 1.32284 0
M  V30 12377 O 1146.36 -1.90986 0.426949 0
M  V30 12378 C 1146.66 -0.39186 3.55245 0
M  V30 12379 C 1146.32 0.821158 4.4336 0
M  V30 12380 C 1144.98 1.15381 4.67162 0
M  V30 12381 C 1147.34 1.6303 4.95046 0
M  V30 12382 C 1144.66 2.29626 5.39897 0
M  V30 12383 C 1147.02 2.76376 5.69033 0
M  V30 12384 C 1145.68 3.10094 5.91099 0
M  V30 12385 H 1144.95 -0.0465505 0.739536 0
M  V30 12386 H 1147.6 0.586261 1.82305 0
M  V30 12387 H 1145.9 -1.18724 3.73379 0
M  V30 12388 H 1147.6 -0.843228 3.92034 0
M  V30 12389 H 1144.19 0.551946 4.25031 0
M  V30 12390 H 1148.37 1.38651 4.76539 0
M  V30 12391 H 1143.63 2.56062 5.55196 0
M  V30 12392 H 1147.8 3.39442 6.08072 0
M  V30 12393 H 1145.43 3.98731 6.47238 0
M  V30 12394 N 1147.01 -1.56678 0.170181 0
M  V30 12395 C 1148.42 -1.58512 -0.185999 0
M  V30 12396 C 1148.62 -1.18548 -1.62937 0
M  V30 12397 O 1147.68 -0.896554 -2.36047 0
M  V30 12398 C 1148.99 -3.00554 0.0937842 0
M  V30 12399 C 1150.54 -3.12984 0.0319057 0
M  V30 12400 C 1151.01 -4.57115 0.284664 0
M  V30 12401 N 1152.5 -4.62617 0.2324 0
M  V30 12402 C 1153.24 -5.71988 0.40216 0
M  V30 12403 N 1152.74 -6.89921 0.630915 0
M  V30 12404 N 1154.53 -5.61082 0.338144 0
M  V30 12405 H 1146.68 -1.80944 1.11235 0
M  V30 12406 H 1148.94 -0.838586 0.442128 0
M  V30 12407 H 1148.65 -3.34265 1.09362 0
M  V30 12408 H 1148.52 -3.72151 -0.615118 0
M  V30 12409 H 1150.91 -2.791 -0.958502 0
M  V30 12410 H 1150.99 -2.43825 0.773501 0
M  V30 12411 H 1150.63 -4.91707 1.27227 0
M  V30 12412 H 1150.56 -5.2443 -0.477529 0
M  V30 12413 H 1153.06 -3.7785 0.0611933 0
M  V30 12414 H 1153.37 -7.69153 0.749931 0
M  V30 12415 H 1151.71 -6.91787 0.667516 0
M  V30 12416 H 1154.9 -4.67826 0.16003 0
M  V30 12417 H 1155.08 -6.46265 0.473872 0
M  V30 12418 N 1148.48 0.103547 -1.57259 0
M  V30 12419 C 1149.43 1.12621 -2.01458 0
M  V30 12420 C 1150.4 1.40282 -0.889391 0
M  V30 12421 O 1151.59 1.51887 -1.15477 0
M  V30 12422 C 1148.73 2.44352 -2.43692 0
M  V30 12423 C 1147.84 2.23495 -3.69695 0
M  V30 12424 C 1146.97 3.48565 -4.00844 0
M  V30 12425 C 1146.01 3.22932 -5.19982 0
M  V30 12426 N 1145.15 4.40246 -5.46926 0
M  V30 12427 H 1149.99 0.742315 -2.88606 0
M  V30 12428 H 1147.53 0.355016 -1.42752 0
M  V30 12429 H 1149.48 3.2122 -2.66221 0
M  V30 12430 H 1148.11 2.80605 -1.59565 0
M  V30 12431 H 1147.17 1.3747 -3.54692 0
M  V30 12432 H 1148.48 2.0054 -4.56711 0
M  V30 12433 H 1147.63 4.33844 -4.24104 0
M  V30 12434 H 1146.37 3.74565 -3.12333 0
M  V30 12435 H 1145.38 2.36045 -4.96551 0
M  V30 12436 H 1146.6 2.98286 -6.10084 0
M  V30 12437 H 1144.55 4.66338 -4.61373 0
M  V30 12438 H 1144.46 4.20452 -6.28296 0
M  V30 12439 H 1145.73 5.26614 -5.74716 0
M  V30 12440 N 1149.96 1.53094 0.37415 0
M  V30 12441 C 1151.19 1.72758 1.13852 0
M  V30 12442 C 1151.6 0.452638 1.83294 0
M  V30 12443 O 1150.96 -0.573906 1.73241 0
M  V30 12444 C 1151.01 2.88724 2.17534 0
M  V30 12445 O 1150.73 4.11284 1.5092 0
M  V30 12446 C 1152.23 3.2019 3.06584 0
M  V30 12447 H 1149.45 0.578028 0.340771 0
M  V30 12448 H 1152 1.99805 0.435683 0
M  V30 12449 H 1150.15 2.64096 2.83429 0
M  V30 12450 H 1150.57 4.76162 2.19932 0
M  V30 12451 H 1152.04 4.04759 3.75332 0
M  V30 12452 H 1152.52 2.35193 3.70919 0
M  V30 12453 H 1153.12 3.46712 2.46315 0
M  V30 12454 N 1151.44 -0.633461 1.44309 0
M  V30 12455 C 1152.39 -1.74554 1.50995 0
M  V30 12456 C 1153.36 -1.62199 0.357873 0
M  V30 12457 O 1154.54 -1.82156 0.567787 0
M  V30 12458 C 1151.68 -3.12792 1.45791 0
M  V30 12459 C 1150.79 -3.3614 2.71356 0
M  V30 12460 C 1149.93 -4.64337 2.58002 0
M  V30 12461 C 1148.97 -4.80855 3.78741 0
M  V30 12462 N 1148.11 -6.00327 3.64077 0
M  V30 12463 H 1152.95 -1.68174 2.46011 0
M  V30 12464 H 1150.48 -0.820407 1.22097 0
M  V30 12465 H 1152.44 -3.92735 1.40765 0
M  V30 12466 H 1151.07 -3.18193 0.543445 0
M  V30 12467 H 1150.12 -2.50154 2.86579 0
M  V30 12468 H 1151.43 -3.44226 3.60985 0
M  V30 12469 H 1150.59 -5.52437 2.50795 0
M  V30 12470 H 1149.33 -4.58605 1.65929 0
M  V30 12471 H 1148.33 -3.91185 3.86334 0
M  V30 12472 H 1149.56 -4.88403 4.71847 0
M  V30 12473 H 1147.5 -5.9569 2.74754 0
M  V30 12474 H 1147.42 -6.09459 4.47321 0
M  V30 12475 H 1148.69 -6.90995 3.60758 0
M  V30 12476 N 1152.92 -1.31168 -0.873655 0
M  V30 12477 C 1154.2 -1.11285 -1.60857 0
M  V30 12478 C 1154.58 0.333788 -2.08444 0
M  V30 12479 O 1153.92 1.32726 -1.86 0
M  V30 12480 C 1154.13 -2.12379 -2.7694 0
M  V30 12481 C 1155.48 -2.44704 -3.46994 0
M  V30 12482 O 1156.51 -2.10778 -2.87143 0
M  V30 12483 O 1155.36 -3.02786 -4.54954 0
M  V30 12484 H 1152.46 -0.428177 -0.707526 0
M  V30 12485 H 1155 -1.42634 -0.91944 0
M  V30 12486 H 1153.78 -3.09703 -2.39164 0
M  V30 12487 H 1153.4 -1.81914 -3.53544 0
M  V30 12488 N 1154.4 1.08748 -1.14068 0
M  V30 12489 C 1155.33 2.17591 -0.84714 0
M  V30 12490 C 1156.31 1.68962 0.196415 0
M  V30 12491 O 1157.49 1.94125 0.0538415 0
M  V30 12492 C 1154.62 3.45823 -0.320005 0
M  V30 12493 C 1153.58 4.07824 -1.2986 0
M  V30 12494 C 1152.9 5.30965 -0.630925 0
M  V30 12495 C 1154.2 4.49512 -2.65963 0
M  V30 12496 H 1155.9 2.42404 -1.75729 0
M  V30 12497 H 1153.44 1.16502 -0.846356 0
M  V30 12498 H 1155.4 4.21276 -0.102271 0
M  V30 12499 H 1154.12 3.20553 0.625561 0
M  V30 12500 H 1152.78 3.34398 -1.50245 0
M  V30 12501 H 1152.43 5.01979 0.320337 0
M  V30 12502 H 1152.13 5.73402 -1.28388 0
M  V30 12503 H 1153.65 6.09136 -0.422635 0
M  V30 12504 H 1155.06 5.16159 -2.49506 0
M  V30 12505 H 1153.46 5.02857 -3.27498 0
M  V30 12506 H 1154.53 3.6157 -3.23102 0
M  V30 12507 N 1155.87 0.935264 1.26849 0
M  V30 12508 C 1156.81 0.397539 2.25726 0
M  V30 12509 C 1157.82 -0.475928 1.55688 0
M  V30 12510 O 1159.01 -0.287329 1.76172 0
M  V30 12511 C 1156.11 -0.448308 3.35922 0
M  V30 12512 C 1155.28 0.407624 4.35496 0
M  V30 12513 C 1154.34 -0.376815 5.24849 0
M  V30 12514 O 1153.37 0.218109 5.68782 0
M  V30 12515 N 1154.57 -1.67481 5.55815 0
M  V30 12516 H 1157.33 1.24753 2.72501 0
M  V30 12517 H 1154.89 0.803505 1.40554 0
M  V30 12518 H 1156.89 -0.980338 3.92647 0
M  V30 12519 H 1155.46 -1.19908 2.88688 0
M  V30 12520 H 1154.68 1.12091 3.77928 0
M  V30 12521 H 1155.96 0.992512 4.99026 0
M  V30 12522 H 1155.36 -2.18037 5.21993 0
M  V30 12523 H 1153.92 -2.15321 6.15207 0
M  V30 12524 N 1157.35 -1.41121 0.701616 0
M  V30 12525 C 1158.28 -2.33436 0.0545974 0
M  V30 12526 C 1159.26 -1.52144 -0.760662 0
M  V30 12527 O 1160.45 -1.80661 -0.712414 0
M  V30 12528 C 1157.58 -3.36015 -0.878117 0
M  V30 12529 C 1156.53 -4.27664 -0.169511 0
M  V30 12530 C 1155.86 -5.20666 -1.21699 0
M  V30 12531 C 1157.16 -5.13254 0.967859 0
M  V30 12532 H 1158.85 -2.87791 0.825637 0
M  V30 12533 H 1156.4 -1.38377 0.398484 0
M  V30 12534 H 1158.35 -3.99526 -1.34004 0
M  V30 12535 H 1157.08 -2.80024 -1.68089 0
M  V30 12536 H 1155.73 -3.65586 0.272441 0
M  V30 12537 H 1155.38 -4.60987 -2.01246 0
M  V30 12538 H 1155.08 -5.82822 -0.747836 0
M  V30 12539 H 1156.61 -5.87053 -1.6793 0
M  V30 12540 H 1158.02 -5.70298 0.585944 0
M  V30 12541 H 1156.42 -5.84381 1.3645 0
M  V30 12542 H 1157.49 -4.5006 1.80483 0
M  V30 12543 N 1158.83 -0.446794 -1.51134 0
M  V30 12544 C 1160.24 0.0141132 -1.86695 0
M  V30 12545 C 1160.59 1.41095 -1.36333 0
M  V30 12546 O 1159.72 2.04139 -0.718068 0
M  V30 12547 C 1160.31 0.0323866 -3.38785 0
M  V30 12548 C 1158.87 0.437737 -3.73846 0
M  V30 12549 C 1158.02 -0.363436 -2.74908 0
M  V30 12550 H 1160.97 -0.66221 -1.44224 0
M  V30 12551 H 1160.99 0.839865 -3.71115 0
M  V30 12552 H 1160.5 -0.984374 -3.75409 0
M  V30 12553 H 1158.6 1.45975 -3.42815 0
M  V30 12554 H 1158.72 0.155964 -4.78846 0
M  V30 12555 H 1157.08 0.179566 -2.54066 0
M  V30 12556 H 1157.86 -1.37925 -3.14375 0
M  V30 12557 N 1160.31 1.56586 -0.178487 0
M  V30 12558 C 1161.72 1.83633 0.337009 0
M  V30 12559 C 1162.07 1.09857 1.6256 0
M  V30 12560 O 1161.2 0.353933 2.13486 0
M  V30 12561 C 1161.79 3.33112 0.618225 0
M  V30 12562 C 1160.35 3.60629 1.07814 0
M  V30 12563 C 1159.5 2.7705 0.117825 0
M  V30 12564 H 1162.45 1.53508 -0.402612 0
M  V30 12565 H 1162.47 3.5098 1.46947 0
M  V30 12566 H 1161.98 3.8678 -0.319808 0
M  V30 12567 H 1160.08 3.12378 2.03103 0
M  V30 12568 H 1160.19 4.68921 0.982339 0
M  V30 12569 H 1158.56 2.47125 0.616563 0
M  V30 12570 H 1159.34 3.33501 -0.814356 0
M  V30 12571 N 1161.79 -0.095206 1.57312 0
M  V30 12572 C 1163.01 -0.81227 1.90289 0
M  V30 12573 C 1163.43 -1.72287 0.772178 0
M  V30 12574 O 1162.79 -1.80698 -0.255841 0
M  V30 12575 C 1162.84 -1.62572 3.22882 0
M  V30 12576 O 1162.56 -0.75175 4.31602 0
M  V30 12577 C 1164.06 -2.44585 3.6972 0
M  V30 12578 H 1161.28 -0.232256 0.629522 0
M  V30 12579 H 1163.82 -0.0724733 2.04372 0
M  V30 12580 H 1161.98 -2.31803 3.10397 0
M  V30 12581 H 1162.39 -1.31514 5.07744 0
M  V30 12582 H 1163.87 -2.97155 4.65191 0
M  V30 12583 H 1164.34 -3.23044 2.97555 0
M  V30 12584 H 1164.95 -1.80554 3.85072 0
M  V30 12585 N 1163.26 -1.53291 -0.366026 0
M  V30 12586 C 1164.49 -1.73665 -1.13381 0
M  V30 12587 C 1164.91 -0.464284 -1.8228 0
M  V30 12588 O 1164.27 0.581645 -1.71717 0
M  V30 12589 C 1164.32 -2.90225 -2.14013 0
M  V30 12590 O 1163.42 -2.58803 -3.21084 0
M  V30 12591 H 1162.77 -0.576762 -0.329 0
M  V30 12592 H 1165.3 -2.00174 -0.423287 0
M  V30 12593 H 1165.31 -3.16378 -2.57622 0
M  V30 12594 H 1163.98 -3.82518 -1.63257 0
M  V30 12595 H 1162.56 -2.43466 -2.82451 0
M  V30 12596 N 1164.74 0.6258 -1.44643 0
M  V30 12597 C 1165.99 1.3873 -1.47925 0
M  V30 12598 C 1166.32 1.93868 -0.113469 0
M  V30 12599 O 1165.6 1.73976 0.869639 0
M  V30 12600 C 1165.88 2.54867 -2.54391 0
M  V30 12601 C 1165.73 2.05044 -4.00346 0
M  V30 12602 C 1167.05 3.57043 -2.57309 0
M  V30 12603 H 1164.17 0.503087 -0.538584 0
M  V30 12604 H 1166.81 0.707102 -1.76352 0
M  V30 12605 H 1164.96 3.12894 -2.30281 0
M  V30 12606 H 1166.63 1.51807 -4.35606 0
M  V30 12607 H 1164.88 1.36185 -4.11869 0
M  V30 12608 H 1165.55 2.88681 -4.70497 0
M  V30 12609 H 1168.02 3.08826 -2.78865 0
M  V30 12610 H 1166.9 4.35818 -3.33698 0
M  V30 12611 H 1167.16 4.11464 -1.61708 0
M  V30 12612 N 1166.22 1.31629 0.866686 0
M  V30 12613 C 1167.45 1.24609 1.65793 0
M  V30 12614 C 1167.87 -0.184944 1.87189 0
M  V30 12615 O 1167.23 -1.1322 1.41601 0
M  V30 12616 C 1167.28 1.9988 3.00134 0
M  V30 12617 O 1166.38 1.33838 3.90079 0
M  V30 12618 H 1165.72 0.430051 0.505917 0
M  V30 12619 H 1168.25 1.73752 1.08035 0
M  V30 12620 H 1168.26 2.09599 3.50046 0
M  V30 12621 H 1166.94 3.03947 2.83882 0
M  V30 12622 H 1165.51 1.3259 3.48532 0
M  V30 12623 N 1167.7 -1.08142 1.14644 0
M  V30 12624 C 1168.93 -1.8405 0.938563 0
M  V30 12625 C 1169.34 -1.82017 -0.516361 0
M  V30 12626 O 1168.68 -1.22418 -1.36966 0
M  V30 12627 C 1168.74 -3.32563 1.36536 0
M  V30 12628 C 1168.41 -3.58327 2.83638 0
M  V30 12629 C 1169.4 -3.52944 3.81741 0
M  V30 12630 C 1167.09 -3.86251 3.21115 0
M  V30 12631 C 1169.08 -3.7512 5.15329 0
M  V30 12632 C 1166.77 -4.0808 4.54878 0
M  V30 12633 C 1167.77 -4.02508 5.51794 0
M  V30 12634 O 1167.46 -4.23761 6.83141 0
M  V30 12635 H 1167.19 -0.587793 0.33388 0
M  V30 12636 H 1169.74 -1.37467 1.52617 0
M  V30 12637 H 1167.97 -3.79917 0.721106 0
M  V30 12638 H 1169.66 -3.89915 1.12787 0
M  V30 12639 H 1170.43 -3.31382 3.54134 0
M  V30 12640 H 1166.31 -3.89707 2.46272 0
M  V30 12641 H 1169.85 -3.70686 5.90963 0
M  V30 12642 H 1165.75 -4.29126 4.82204 0
M  V30 12643 H 1166.51 -4.41152 6.8944 0
M  V30 12644 N 1169.18 -0.941978 -1.26351 0
M  V30 12645 C 1170.11 -0.409504 -2.25512 0
M  V30 12646 C 1171.12 0.467665 -1.55938 0
M  V30 12647 O 1172.31 0.277982 -1.76322 0
M  V30 12648 C 1169.41 0.430487 -3.36155 0
M  V30 12649 C 1168.58 -0.430714 -4.35274 0
M  V30 12650 C 1167.64 0.348976 -5.25042 0
M  V30 12651 O 1166.67 -0.24827 -5.68658 0
M  V30 12652 N 1167.87 1.64531 -5.56695 0
M  V30 12653 H 1170.64 -1.26196 -2.71836 0
M  V30 12654 H 1168.2 -0.810947 -1.40126 0
M  V30 12655 H 1170.19 0.959501 -3.93161 0
M  V30 12656 H 1168.76 1.18375 -2.8932 0
M  V30 12657 H 1167.98 -1.14093 -3.77328 0
M  V30 12658 H 1169.27 -1.01896 -4.98492 0
M  V30 12659 H 1168.67 2.15266 -5.23142 0
M  V30 12660 H 1167.22 2.12055 -6.16341 0
M  V30 12661 N 1170.66 1.40747 -0.709091 0
M  V30 12662 C 1171.59 2.282 -0.00156906 0
M  V30 12663 C 1172.57 1.42981 0.774279 0
M  V30 12664 O 1173.75 1.724 0.762276 0
M  V30 12665 C 1170.88 3.23441 1.00517 0
M  V30 12666 C 1169.92 4.25291 0.320904 0
M  V30 12667 S 1170.76 5.27069 -0.946518 0
M  V30 12668 C 1171.91 6.25873 0.0582856 0
M  V30 12669 H 1172.15 2.87859 -0.743271 0
M  V30 12670 H 1169.68 1.46085 -0.499866 0
M  V30 12671 H 1171.64 3.78841 1.58082 0
M  V30 12672 H 1170.3 2.62851 1.71954 0
M  V30 12673 H 1169.49 4.92255 1.08173 0
M  V30 12674 H 1169.09 3.73557 -0.18202 0
M  V30 12675 H 1171.38 6.71398 0.907233 0
M  V30 12676 H 1172.33 7.05739 -0.577787 0
M  V30 12677 H 1172.74 5.62942 0.419108 0
M  V30 12678 N 1172.13 0.454803 1.50895 0
M  V30 12679 C 1173.08 -0.347769 2.28165 0
M  V30 12680 C 1174.05 -1.00158 1.32505 0
M  V30 12681 O 1175.24 -1.01715 1.61427 0
M  V30 12682 C 1172.38 -1.43315 3.13934 0
M  V30 12683 C 1171.49 -0.795736 4.24608 0
M  V30 12684 C 1170.62 -1.85763 4.9766 0
M  V30 12685 C 1169.66 -1.19959 6.0023 0
M  V30 12686 N 1168.8 -2.20361 6.66622 0
M  V30 12687 H 1173.64 0.317493 2.96304 0
M  V30 12688 H 1171.18 0.168418 1.46133 0
M  V30 12689 H 1173.13 -2.07391 3.62001 0
M  V30 12690 H 1171.76 -2.0678 2.47875 0
M  V30 12691 H 1170.82 -0.0428173 3.80376 0
M  V30 12692 H 1172.13 -0.275477 4.98039 0
M  V30 12693 H 1171.28 -2.5746 5.49363 0
M  V30 12694 H 1170.02 -2.41166 4.23899 0
M  V30 12695 H 1169.03 -0.46817 5.47803 0
M  V30 12696 H 1170.25 -0.652666 6.75956 0
M  V30 12697 H 1168.2 -2.74812 5.95663 0
M  V30 12698 H 1168.11 -1.73275 7.35875 0
M  V30 12699 H 1169.38 -2.91488 7.22949 0
M  V30 12700 N 1173.61 -1.56489 0.186789 0
M  V30 12701 C 1174.54 -2.15911 -0.769104 0
M  V30 12702 C 1175.56 -1.11872 -1.18273 0
M  V30 12703 O 1176.75 -1.38999 -1.1199 0
M  V30 12704 C 1173.85 -2.69957 -2.04882 0
M  V30 12705 C 1173.02 -3.98812 -1.79631 0
M  V30 12706 C 1172.08 -4.37767 -2.9197 0
M  V30 12707 O 1171.1 -5.0535 -2.61935 0
M  V30 12708 N 1172.31 -4.0059 -4.20128 0
M  V30 12709 H 1175.07 -2.98561 -0.261007 0
M  V30 12710 H 1172.63 -1.61899 0.00453357 0
M  V30 12711 H 1174.62 -2.93006 -2.79158 0
M  V30 12712 H 1173.19 -1.91808 -2.46837 0
M  V30 12713 H 1172.41 -3.8398 -0.891776 0
M  V30 12714 H 1173.7 -4.82939 -1.60148 0
M  V30 12715 H 1173.1 -3.46213 -4.47385 0
M  V30 12716 H 1171.66 -4.28608 -4.91059 0
M  V30 12717 N 1175.09 0.086862 -1.5736 0
M  V30 12718 C 1176.32 0.802167 -1.90717 0
M  V30 12719 C 1176.73 1.71875 -0.781304 0
M  V30 12720 O 1176.09 1.80831 0.246255 0
M  V30 12721 C 1176.14 1.60858 -3.23739 0
M  V30 12722 O 1175.86 0.728851 -4.31995 0
M  V30 12723 C 1177.36 2.42621 -3.71012 0
M  V30 12724 H 1174.58 0.228914 -0.630745 0
M  V30 12725 H 1177.13 0.061634 -2.04407 0
M  V30 12726 H 1175.28 2.30153 -3.11622 0
M  V30 12727 H 1175.7 1.2882 -5.08435 0
M  V30 12728 H 1177.17 2.94683 -4.66761 0
M  V30 12729 H 1177.65 3.21462 -2.99264 0
M  V30 12730 H 1178.25 1.78509 -3.86024 0
M  V30 12731 N 1176.57 1.53483 0.357892 0
M  V30 12732 C 1177.84 1.60649 1.11585 0
M  V30 12733 C 1178.22 0.418789 2.06904 0
M  V30 12734 O 1177.57 -0.590279 2.20744 0
M  V30 12735 C 1177.78 2.96046 1.84818 0
M  V30 12736 C 1179.13 3.50895 2.39076 0
M  V30 12737 O 1180.15 2.98126 1.94934 0
M  V30 12738 O 1179.01 4.43163 3.19794 0
M  V30 12739 H 1176.11 0.649202 0.512315 0
M  V30 12740 H 1178.65 1.65826 0.360537 0
M  V30 12741 H 1177.43 3.73929 1.15296 0
M  V30 12742 H 1177.05 2.94395 2.6724 0
M  V30 12743 N 1178.05 -0.61812 1.44973 0
M  V30 12744 C 1179.29 -1.37468 1.48145 0
M  V30 12745 C 1179.61 -1.94628 0.120366 0
M  V30 12746 O 1178.88 -1.76548 -0.848982 0
M  V30 12747 H 1177.46 -0.510293 0.545536 0
M  V30 12748 H 1180.13 -0.726598 1.8085 0
M  V30 12749 H 1179.22 -2.19944 2.2143 0
M  V30 12750 N 1179.52 -1.32087 -0.859693 0
M  V30 12751 C 1180.47 -1.20601 -1.96784 0
M  V30 12752 C 1181.44 -0.089355 -1.65859 0
M  V30 12753 O 1182.63 -0.264022 -1.88964 0
M  V30 12754 C 1179.77 -0.929872 -3.32336 0
M  V30 12755 C 1178.88 -2.13084 -3.75791 0
M  V30 12756 C 1178.01 -1.79061 -5.00111 0
M  V30 12757 C 1177.05 -2.95507 -5.36043 0
M  V30 12758 N 1176.19 -2.61611 -6.5154 0
M  V30 12759 H 1181.03 -2.1539 -2.0594 0
M  V30 12760 H 1178.57 -1.07131 -1.00803 0
M  V30 12761 H 1180.52 -0.750285 -4.10398 0
M  V30 12762 H 1179.15 -0.0187929 -3.22795 0
M  V30 12763 H 1178.21 -2.42086 -2.93425 0
M  V30 12764 H 1179.52 -3.00205 -3.98344 0
M  V30 12765 H 1178.67 -1.57625 -5.85866 0
M  V30 12766 H 1177.41 -0.891459 -4.79483 0
M  V30 12767 H 1176.42 -3.17581 -4.48801 0
M  V30 12768 H 1177.64 -3.86147 -5.5863 0
M  V30 12769 H 1175.59 -1.74231 -6.32439 0
M  V30 12770 H 1175.5 -3.42262 -6.74087 0
M  V30 12771 H 1176.77 -2.43592 -7.40461 0
M  V30 12772 N 1181 1.07532 -1.15215 0
M  V30 12773 C 1182.24 1.81689 -0.936396 0
M  V30 12774 C 1182.61 1.84622 0.527136 0
M  V30 12775 O 1183.81 2.54632 0.861159 0
M  V30 12776 C 1182.08 3.22919 -1.53161 0
M  V30 12777 S 1183.64 4.13845 -1.4587 0
M  V30 12778 H 1180.45 0.626036 -0.337045 0
M  V30 12779 H 1183.06 1.29191 -1.4673 0
M  V30 12780 H 1181.76 3.18372 -2.58974 0
M  V30 12781 H 1181.29 3.80492 -0.999482 0
M  V30 12782 H 1183.31 4.94152 -0.450317 0
M  V30 12783 N 1182.48 0.948665 1.2585 0
M  V30 12784 C 1183.39 0.470525 2.29833 0
M  V30 12785 C 1184.41 -0.45919 1.67832 0
M  V30 12786 O 1185.58 -0.336893 1.98562 0
M  V30 12787 C 1182.65 -0.249635 3.458 0
M  V30 12788 C 1181.71 0.717559 4.23261 0
M  V30 12789 C 1180.94 0.0316724 5.33691 0
M  V30 12790 O 1181.16 -1.18384 5.5798 0
M  V30 12791 O 1180.1 0.71418 5.97648 0
M  V30 12792 H 1183.92 1.33447 2.72811 0
M  V30 12793 H 1181.51 0.714864 1.31187 0
M  V30 12794 H 1183.39 -0.654993 4.16279 0
M  V30 12795 H 1182.07 -1.08885 3.04837 0
M  V30 12796 H 1180.97 1.17301 3.55234 0
M  V30 12797 H 1182.31 1.52461 4.67992 0
M  V30 12798 N 1183.96 -1.40369 0.716545 0
M  V30 12799 C 1184.89 -2.33365 0.0793533 0
M  V30 12800 C 1185.87 -1.52943 -0.744482 0
M  V30 12801 O 1187.05 -1.81406 -0.693212 0
M  V30 12802 C 1184.18 -3.36928 -0.842429 0
M  V30 12803 C 1183.14 -4.2782 -0.124142 0
M  V30 12804 C 1182.46 -5.21928 -1.1617 0
M  V30 12805 C 1183.76 -5.12199 1.02224 0
M  V30 12806 H 1185.46 -2.86899 0.856115 0
M  V30 12807 H 1183 -1.37946 0.413138 0
M  V30 12808 H 1184.96 -4.00925 -1.29759 0
M  V30 12809 H 1183.68 -2.81791 -1.6511 0
M  V30 12810 H 1182.34 -3.65277 0.311201 0
M  V30 12811 H 1181.99 -4.63096 -1.96345 0
M  V30 12812 H 1181.69 -5.83582 -0.685978 0
M  V30 12813 H 1183.21 -5.88802 -1.61694 0
M  V30 12814 H 1184.63 -5.69644 0.646399 0
M  V30 12815 H 1183.02 -5.82901 1.4264 0
M  V30 12816 H 1184.09 -4.4812 1.85246 0
M  V30 12817 N 1185.44 -0.462799 -1.50652 0
M  V30 12818 C 1186.66 0.0929761 -2.06691 0
M  V30 12819 C 1187.08 1.34241 -1.32758 0
M  V30 12820 O 1186.44 1.78187 -0.394427 0
M  V30 12821 C 1186.49 0.389492 -3.59396 0
M  V30 12822 O 1186.21 -0.810379 -4.3054 0
M  V30 12823 C 1187.71 0.993147 -4.32032 0
M  V30 12824 H 1184.93 -0.00338664 -0.670991 0
M  V30 12825 H 1187.47 -0.649201 -1.93922 0
M  V30 12826 H 1185.63 1.08159 -3.71995 0
M  V30 12827 H 1186.04 -0.54996 -5.21609 0
M  V30 12828 H 1187.52 1.15044 -5.39878 0
M  V30 12829 H 1187.99 1.98106 -3.91983 0
M  V30 12830 H 1188.6 0.339677 -4.23941 0
M  V30 12831 N 1186.91 1.56388 -0.195085 0
M  V30 12832 C 1187.84 2.22091 0.720971 0
M  V30 12833 C 1188.83 1.184 1.22128 0
M  V30 12834 O 1190.01 1.46907 1.27012 0
M  V30 12835 C 1187.14 2.88025 1.94059 0
M  V30 12836 C 1186.09 3.97959 1.5752 0
M  V30 12837 C 1185.42 4.51058 2.87143 0
M  V30 12838 C 1186.72 5.16365 0.785145 0
M  V30 12839 H 1188.41 2.98898 0.173245 0
M  V30 12840 H 1185.96 1.43767 0.0818868 0
M  V30 12841 H 1187.91 3.32671 2.58666 0
M  V30 12842 H 1186.64 2.08623 2.51285 0
M  V30 12843 H 1185.3 3.54004 0.952715 0
M  V30 12844 H 1184.94 3.68418 3.42458 0
M  V30 12845 H 1184.64 5.25237 2.63439 0
M  V30 12846 H 1186.17 4.98406 3.52738 0
M  V30 12847 H 1187.58 5.57556 1.33431 0
M  V30 12848 H 1185.98 5.9661 0.646231 0
M  V30 12849 H 1187.05 4.84428 -0.213789 0
M  V30 12850 N 1188.39 -0.0785156 1.57404 0
M  V30 12851 C 1189.64 -0.778938 1.86919 0
M  V30 12852 C 1189.97 -1.77915 0.785906 0
M  V30 12853 O 1189.22 -1.94473 -0.218811 0
M  V30 12854 C 1189.52 -1.52826 3.23078 0
M  V30 12855 C 1189.19 -0.668645 4.45915 0
M  V30 12856 C 1187.85 -0.43173 4.79259 0
M  V30 12857 C 1190.2 -0.0721327 5.2115 0
M  V30 12858 C 1187.53 0.41129 5.85257 0
M  V30 12859 C 1189.88 0.758303 6.28039 0
M  V30 12860 C 1188.55 1.00515 6.59889 0
M  V30 12861 H 1187.82 -0.285034 0.683986 0
M  V30 12862 H 1190.46 -0.039906 1.91458 0
M  V30 12863 H 1188.77 -2.33931 3.14299 0
M  V30 12864 H 1190.46 -2.07488 3.43147 0
M  V30 12865 H 1187.05 -0.863424 4.19813 0
M  V30 12866 H 1191.24 -0.242297 4.95708 0
M  V30 12867 H 1186.49 0.611354 6.08336 0
M  V30 12868 H 1190.67 1.2273 6.855 0
M  V30 12869 H 1188.3 1.66017 7.41851 0
M  V30 12870 N 1189.87 -1.5367 -0.349747 0
M  V30 12871 C 1191.1 -1.74858 -1.11532 0
M  V30 12872 C 1191.52 -0.483591 -1.81777 0
M  V30 12873 O 1190.88 0.563399 -1.72324 0
M  V30 12874 C 1190.93 -2.92479 -2.10923 0
M  V30 12875 O 1190.03 -2.62194 -3.18321 0
M  V30 12876 H 1189.37 -0.580219 -0.322865 0
M  V30 12877 H 1191.9 -2.00611 -0.402033 0
M  V30 12878 H 1191.91 -3.19093 -2.54252 0
M  V30 12879 H 1190.59 -3.84228 -1.59191 0
M  V30 12880 H 1189.16 -2.46448 -2.79853 0
M  V30 12881 N 1191.35 0.610423 -1.45298 0
M  V30 12882 C 1192.57 1.40112 -1.52917 0
M  V30 12883 C 1193 1.87404 -0.161696 0
M  V30 12884 O 1192.36 1.59973 0.853135 0
M  V30 12885 C 1192.4 2.58359 -2.51561 0
M  V30 12886 O 1191.51 3.58895 -2.03146 0
M  V30 12887 H 1190.85 0.41841 -0.515586 0
M  V30 12888 H 1193.38 0.743159 -1.90626 0
M  V30 12889 H 1193.39 3.0564 -2.70275 0
M  V30 12890 H 1192.06 2.23286 -3.50879 0
M  V30 12891 H 1190.64 3.18282 -1.94296 0
M  V30 12892 N 1192.83 1.32541 0.852676 0
M  V30 12893 C 1193.76 1.15977 1.96531 0
M  V30 12894 C 1194.74 0.0587267 1.62494 0
M  V30 12895 O 1195.92 0.218404 1.8723 0
M  V30 12896 C 1193.05 0.77587 3.29694 0
M  V30 12897 C 1192.09 1.88244 3.82709 0
M  V30 12898 S 1192.93 3.49108 4.06059 0
M  V30 12899 C 1194.08 3.12693 5.42193 0
M  V30 12900 H 1194.32 2.10165 2.1028 0
M  V30 12901 H 1191.85 1.17225 1.00487 0
M  V30 12902 H 1193.81 0.561136 4.06647 0
M  V30 12903 H 1192.47 -0.14718 3.13755 0
M  V30 12904 H 1191.66 1.56687 4.79025 0
M  V30 12905 H 1191.26 2.05313 3.12606 0
M  V30 12906 H 1193.56 2.62661 6.24512 0
M  V30 12907 H 1194.5 4.08038 5.78714 0
M  V30 12908 H 1194.91 2.4966 5.06291 0
M  V30 12909 N 1194.3 -1.0692 1.15784 0
M  V30 12910 C 1195.23 -2.16216 0.881649 0
M  V30 12911 C 1196.22 -1.69253 -0.16951 0
M  V30 12912 O 1197.4 -1.94186 -0.0229511 0
M  V30 12913 C 1194.53 -3.4527 0.374982 0
M  V30 12914 C 1193.48 -4.05706 1.36332 0
M  V30 12915 C 1192.81 -5.29894 0.715317 0
M  V30 12916 C 1194.11 -4.45224 2.7308 0
M  V30 12917 H 1195.8 -2.39577 1.79563 0
M  V30 12918 H 1193.35 -1.15141 0.864784 0
M  V30 12919 H 1195.3 -4.2106 0.169279 0
M  V30 12920 H 1194.03 -3.21508 -0.574485 0
M  V30 12921 H 1192.69 -3.31965 1.55546 0
M  V30 12922 H 1192.33 -5.02425 -0.240436 0
M  V30 12923 H 1192.03 -5.71287 1.37494 0
M  V30 12924 H 1193.56 -6.08386 0.519489 0
M  V30 12925 H 1194.97 -5.12124 2.57686 0
M  V30 12926 H 1193.37 -4.97583 3.35457 0
M  V30 12927 H 1194.44 -3.56384 3.28813 0
M  V30 12928 N 1195.78 -0.955326 -1.25345 0
M  V30 12929 C 1196.75 -0.480564 -2.24105 0
M  V30 12930 C 1197.75 0.416123 -1.55322 0
M  V30 12931 O 1198.94 0.213315 -1.72889 0
M  V30 12932 C 1196.07 0.305589 -3.39528 0
M  V30 12933 H 1197.26 -1.35349 -2.6762 0
M  V30 12934 H 1194.81 -0.738673 -1.37744 0
M  V30 12935 H 1195.55 1.19615 -3.01434 0
M  V30 12936 H 1195.33 -0.337719 -3.90643 0
M  V30 12937 H 1196.82 0.627201 -4.12863 0
M  V30 12938 N 1197.26 1.39987 -0.723979 0
M  V30 12939 C 1198.21 2.30672 -0.0768286 0
M  V30 12940 C 1199.18 1.48634 0.741422 0
M  V30 12941 O 1200.36 1.77351 0.703649 0
M  V30 12942 C 1197.5 3.34902 0.832729 0
M  V30 12943 C 1196.62 4.32 0.00304942 0
M  V30 12944 C 1195.75 5.23298 0.91286 0
M  V30 12945 C 1194.79 6.12051 0.0777706 0
M  V30 12946 N 1193.93 6.9574 0.942912 0
M  V30 12947 H 1198.77 2.85446 -0.855832 0
M  V30 12948 H 1196.3 1.40561 -0.433718 0
M  V30 12949 H 1198.26 3.93911 1.37441 0
M  V30 12950 H 1196.89 2.81611 1.57782 0
M  V30 12951 H 1195.94 3.74702 -0.655916 0
M  V30 12952 H 1197.26 4.94637 -0.643124 0
M  V30 12953 H 1196.41 5.87279 1.52277 0
M  V30 12954 H 1195.15 4.60956 1.59284 0
M  V30 12955 H 1194.15 5.47092 -0.545022 0
M  V30 12956 H 1195.38 6.76455 -0.598827 0
M  V30 12957 H 1193.33 6.35977 1.60838 0
M  V30 12958 H 1193.24 7.55176 0.352968 0
M  V30 12959 H 1194.51 7.64162 1.53874 0
M  V30 12960 N 1198.74 0.470782 1.50404 0
M  V30 12961 C 1200.02 -0.145879 1.95055 0
M  V30 12962 C 1200.4 -1.57004 1.41114 0
M  V30 12963 O 1199.74 -2.20152 0.612006 0
M  V30 12964 C 1199.95 -0.0895071 3.48885 0
M  V30 12965 C 1201.3 -0.278548 4.23685 0
M  V30 12966 O 1202.33 -0.166105 3.55812 0
M  V30 12967 O 1201.19 -0.505606 5.44156 0
M  V30 12968 H 1198.28 -0.111838 0.819403 0
M  V30 12969 H 1200.83 0.531162 1.61173 0
M  V30 12970 H 1199.6 0.904836 3.80695 0
M  V30 12971 H 1199.22 -0.808019 3.89303 0
M  V30 12972 N 1200.22 -1.56282 0.203376 0
M  V30 12973 C 1201.47 -1.96987 -0.433461 0
M  V30 12974 C 1201.78 -1.09344 -1.62183 0
M  V30 12975 O 1202.99 -1.39868 -2.327 0
M  V30 12976 C 1201.44 -3.50374 -0.82257 0
M  V30 12977 C 1201.05 -4.46693 0.341969 0
M  V30 12978 C 1202.79 -3.99831 -1.42603 0
M  V30 12979 C 1200.7 -5.9136 -0.0685608 0
M  V30 12980 H 1199.63 -0.735564 -0.165717 0
M  V30 12981 H 1202.28 -1.81085 0.296708 0
M  V30 12982 H 1200.66 -3.6181 -1.60964 0
M  V30 12983 H 1201.84 -4.46994 1.11952 0
M  V30 12984 H 1200.15 -4.07476 0.857463 0
M  V30 12985 H 1202.75 -5.05398 -1.74577 0
M  V30 12986 H 1203.09 -3.4462 -2.33544 0
M  V30 12987 H 1203.63 -3.91543 -0.702758 0
M  V30 12988 H 1200.36 -6.50515 0.80688 0
M  V30 12989 H 1199.88 -5.94295 -0.810798 0
M  V30 12990 H 1201.56 -6.45053 -0.501525 0
M  V30 12991 N 1201.7 0.070167 -1.57444 0
M  V30 12992 C 1202.94 0.769014 -1.8733 0
M  V30 12993 C 1203.27 1.77496 -0.79533 0
M  V30 12994 O 1202.53 1.94586 0.208495 0
M  V30 12995 C 1202.82 1.5111 -3.23883 0
M  V30 12996 C 1202.49 0.644988 -4.46263 0
M  V30 12997 C 1201.15 0.406307 -4.79482 0
M  V30 12998 C 1203.5 0.0444938 -5.21181 0
M  V30 12999 C 1200.83 -0.442322 -5.8503 0
M  V30 13000 C 1203.18 -0.791599 -6.27628 0
M  V30 13001 C 1201.85 -1.04014 -6.59346 0
M  V30 13002 H 1201.12 0.281402 -0.685488 0
M  V30 13003 H 1203.77 0.029752 -1.91477 0
M  V30 13004 H 1202.07 2.32261 -3.15535 0
M  V30 13005 H 1203.77 2.05665 -3.44242 0
M  V30 13006 H 1200.36 0.841148 -4.20265 0
M  V30 13007 H 1204.54 0.216005 -4.9583 0
M  V30 13008 H 1199.8 -0.643607 -6.08003 0
M  V30 13009 H 1203.97 -1.26363 -6.8484 0
M  V30 13010 H 1201.6 -1.69949 -7.4096 0
M  V30 13011 N 1203.17 1.53854 0.341593 0
M  V30 13012 C 1204.42 1.7041 1.07905 0
M  V30 13013 C 1204.74 0.475039 1.89744 0
M  V30 13014 O 1205.94 0.521589 2.66443 0
M  V30 13015 C 1204.4 3.01342 1.96776 0
M  V30 13016 C 1204.01 4.31592 1.20135 0
M  V30 13017 C 1205.75 3.27264 2.70367 0
M  V30 13018 C 1203.66 5.53598 2.08047 0
M  V30 13019 H 1202.59 0.635005 0.406553 0
M  V30 13020 H 1205.24 1.80353 0.338409 0
M  V30 13021 H 1203.62 2.85261 2.74667 0
M  V30 13022 H 1204.79 4.58382 0.471404 0
M  V30 13023 H 1203.11 4.12298 0.583039 0
M  V30 13024 H 1205.71 4.15607 3.36415 0
M  V30 13025 H 1206.05 2.44357 3.37039 0
M  V30 13026 H 1206.58 3.4413 1.99548 0
M  V30 13027 H 1203.32 6.39053 1.45914 0
M  V30 13028 H 1202.84 5.31052 2.78825 0
M  V30 13029 H 1204.52 5.89314 2.67055 0
M  V30 13030 N 1204.65 -0.602709 1.4562 0
M  V30 13031 C 1205.56 -1.74132 1.5721 0
M  V30 13032 C 1206.58 -1.67909 0.456347 0
M  V30 13033 O 1207.75 -1.88178 0.717714 0
M  V30 13034 C 1204.82 -3.10604 1.54032 0
M  V30 13035 C 1203.88 -3.28244 2.76685 0
M  V30 13036 C 1203.11 -4.58205 2.73649 0
M  V30 13037 O 1203.34 -5.40836 1.81254 0
M  V30 13038 O 1202.27 -4.78663 3.64919 0
M  V30 13039 H 1206.1 -1.67304 2.53462 0
M  V30 13040 H 1203.68 -0.767381 1.28186 0
M  V30 13041 H 1205.56 -3.91904 1.54885 0
M  V30 13042 H 1204.24 -3.17913 0.60934 0
M  V30 13043 H 1203.14 -2.46514 2.81393 0
M  V30 13044 H 1204.48 -3.25814 3.68925 0
M  V30 13045 N 1206.13 -1.32992 -0.845635 0
M  V30 13046 C 1207.36 -1.27087 -1.63268 0
M  V30 13047 C 1207.77 0.159481 -1.88125 0
M  V30 13048 O 1207.13 1.09948 -1.45663 0
M  V30 13049 C 1207.18 -2.03649 -2.98679 0
M  V30 13050 O 1206.9 -3.41104 -2.74918 0
M  V30 13051 C 1208.4 -2.04875 -3.93117 0
M  V30 13052 H 1205.62 -0.438107 -0.508236 0
M  V30 13053 H 1208.17 -1.75257 -1.05381 0
M  V30 13054 H 1206.32 -1.59178 -3.53187 0
M  V30 13055 H 1206.74 -3.80405 -3.61099 0
M  V30 13056 H 1208.21 -2.62911 -4.85368 0
M  V30 13057 H 1208.69 -1.03728 -4.26775 0
M  V30 13058 H 1209.29 -2.49334 -3.44547 0
M  V30 13059 N 1207.61 1.06304 -1.1635 0
M  V30 13060 C 1209.02 1.60566 -0.952652 0
M  V30 13061 C 1209.37 1.8963 0.503473 0
M  V30 13062 O 1208.49 1.66964 1.37666 0
M  V30 13063 C 1209.09 2.9172 -1.72292 0
M  V30 13064 C 1207.65 3.42684 -1.55707 0
M  V30 13065 C 1206.8 2.16579 -1.73172 0
M  V30 13066 H 1209.75 0.892563 -1.31221 0
M  V30 13067 H 1209.77 3.61126 -1.19868 0
M  V30 13068 H 1209.28 2.70535 -2.78267 0
M  V30 13069 H 1207.38 3.68929 -0.521726 0
M  V30 13070 H 1207.49 4.18018 -2.34088 0
M  V30 13071 H 1205.86 2.26795 -1.15914 0
M  V30 13072 H 1206.64 1.97877 -2.80535 0
M  V30 13073 N 1209.09 0.96196 1.24836 0
M  V30 13074 C 1210.02 0.506241 2.27946 0
M  V30 13075 C 1211 -0.451183 1.64007 0
M  V30 13076 O 1212.18 -0.348552 1.91046 0
M  V30 13077 C 1209.31 -0.209846 3.46665 0
M  V30 13078 C 1208.27 0.663035 4.22833 0
M  V30 13079 C 1207.59 -0.184216 5.34383 0
M  V30 13080 C 1208.89 1.94479 4.84742 0
M  V30 13081 H 1210.59 1.36805 2.66317 0
M  V30 13082 H 1208.13 0.65926 1.28023 0
M  V30 13083 H 1210.08 -0.539838 4.17928 0
M  V30 13084 H 1208.81 -1.10596 3.07305 0
M  V30 13085 H 1207.47 0.976216 3.53363 0
M  V30 13086 H 1207.12 -1.08031 4.91262 0
M  V30 13087 H 1206.82 0.39657 5.8626 0
M  V30 13088 H 1208.34 -0.509009 6.08475 0
M  V30 13089 H 1209.75 1.68074 5.48109 0
M  V30 13090 H 1208.15 2.47183 5.46828 0
M  V30 13091 H 1209.22 2.64332 4.06517 0
M  V30 13092 N 1210.56 -1.39601 0.731392 0
M  V30 13093 C 1211.5 -2.29147 0.0494974 0
M  V30 13094 C 1212.51 -1.46635 -0.707248 0
M  V30 13095 O 1213.7 -1.6975 -0.552008 0
M  V30 13096 C 1210.8 -3.25191 -0.954152 0
M  V30 13097 C 1209.97 -4.36629 -0.259674 0
M  V30 13098 C 1209.03 -5.13007 -1.17092 0
M  V30 13099 O 1208.06 -5.65479 -0.64976 0
M  V30 13100 N 1209.26 -5.23865 -2.50092 0
M  V30 13101 H 1212.02 -2.88308 0.818433 0
M  V30 13102 H 1209.58 -1.51142 0.580316 0
M  V30 13103 H 1211.58 -3.73161 -1.56629 0
M  V30 13104 H 1210.15 -2.67085 -1.62432 0
M  V30 13105 H 1209.37 -3.90582 0.532888 0
M  V30 13106 H 1210.65 -5.08317 0.221753 0
M  V30 13107 H 1210.05 -4.82745 -2.94913 0
M  V30 13108 H 1208.61 -5.75288 -3.0641 0
M  V30 13109 N 1212.04 -0.478751 -1.50152 0
M  V30 13110 C 1213.29 0.0734397 -2.01967 0
M  V30 13111 C 1213.61 1.39523 -1.36229 0
M  V30 13112 O 1212.88 1.89141 -0.510149 0
M  V30 13113 H 1211.46 0.0301305 -0.746392 0
M  V30 13114 H 1214.12 -0.630921 -1.84406 0
M  V30 13115 H 1213.22 0.21937 -3.11328 0
M  V30 13116 N 1213.52 1.56172 -0.211661 0
M  V30 13117 C 1214.48 2.18602 0.688906 0
M  V30 13118 C 1215.48 1.14508 1.12892 0
M  V30 13119 O 1216.67 1.39799 1.03932 0
M  V30 13120 C 1213.81 2.80141 1.94253 0
M  V30 13121 H 1215 2.9955 0.144765 0
M  V30 13122 H 1212.55 1.56254 0.0379615 0
M  V30 13123 H 1213.29 2.03035 2.52878 0
M  V30 13124 H 1213.07 3.56358 1.63558 0
M  V30 13125 H 1214.56 3.28026 2.58436 0
M  V30 13126 N 1215 -0.0618163 1.57479 0
M  V30 13127 C 1216.41 -0.416827 1.54061 0
M  V30 13128 C 1216.61 -1.78584 0.933277 0
M  V30 13129 O 1215.67 -2.46656 0.54009 0
M  V30 13130 C 1216.98 -0.348728 2.98671 0
M  V30 13131 C 1218.53 -0.428194 3.10057 0
M  V30 13132 C 1219.01 -0.389898 4.56337 0
M  V30 13133 N 1220.5 -0.449677 4.61012 0
M  V30 13134 C 1221.23 -0.442418 5.71691 0
M  V30 13135 N 1220.73 -0.389381 6.91705 0
M  V30 13136 N 1222.52 -0.489719 5.59963 0
M  V30 13137 H 1214.67 0.834487 1.9532 0
M  V30 13138 H 1216.94 0.314149 0.894435 0
M  V30 13139 H 1216.64 0.590738 3.46703 0
M  V30 13140 H 1216.52 -1.15511 3.59078 0
M  V30 13141 H 1218.9 -1.35808 2.61992 0
M  V30 13142 H 1218.98 0.406946 2.52542 0
M  V30 13143 H 1218.63 0.536186 5.05062 0
M  V30 13144 H 1218.56 -1.24271 5.11727 0
M  V30 13145 H 1221.05 -0.49451 3.74651 0
M  V30 13146 H 1221.36 -0.388042 7.71825 0
M  V30 13147 H 1219.71 -0.355918 6.94088 0
M  V30 13148 H 1222.9 -0.528915 4.65102 0
M  V30 13149 H 1223.07 -0.480592 6.46215 0
M  V30 13150 N 1216.48 -1.54033 -0.333429 0
M  V30 13151 C 1217.71 -1.75461 -1.09073 0
M  V30 13152 C 1218.11 -0.498488 -1.82515 0
M  V30 13153 O 1217.46 0.540029 -1.75583 0
M  V30 13154 C 1217.52 -2.88744 -2.14166 0
M  V30 13155 C 1217.18 -4.27998 -1.60209 0
M  V30 13156 C 1218.18 -5.09206 -1.04907 0
M  V30 13157 C 1215.87 -4.74513 -1.6475 0
M  V30 13158 C 1217.86 -6.35035 -0.548615 0
M  V30 13159 C 1215.55 -6.00312 -1.14318 0
M  V30 13160 C 1216.54 -6.80406 -0.594667 0
M  V30 13161 O 1216.23 -8.0384 -0.097891 0
M  V30 13162 H 1215.96 -0.589586 -0.330702 0
M  V30 13163 H 1218.52 -2.01697 -0.388274 0
M  V30 13164 H 1216.75 -2.58057 -2.87999 0
M  V30 13165 H 1218.44 -2.98048 -2.7554 0
M  V30 13166 H 1219.2 -4.74428 -1.00713 0
M  V30 13167 H 1215.08 -4.12222 -2.06384 0
M  V30 13168 H 1218.63 -6.97497 -0.119823 0
M  V30 13169 H 1214.52 -6.34583 -1.18215 0
M  V30 13170 H 1215.29 -8.1822 -0.214237 0
M  V30 13171 N 1217.95 0.594978 -1.45938 0
M  V30 13172 C 1219.18 1.38482 -1.54394 0
M  V30 13173 C 1219.6 1.87222 -0.181563 0
M  V30 13174 O 1218.96 1.60869 0.836119 0
M  V30 13175 C 1219.01 2.55676 -2.54287 0
M  V30 13176 O 1218.11 3.5672 -2.06941 0
M  V30 13177 H 1217.46 0.412918 -0.519995 0
M  V30 13178 H 1219.99 0.722899 -1.91404 0
M  V30 13179 H 1220 3.02756 -2.73501 0
M  V30 13180 H 1218.67 2.19552 -3.53228 0
M  V30 13181 H 1217.25 3.16204 -1.97661 0
M  V30 13182 N 1219.43 1.33438 0.838571 0
M  V30 13183 C 1220.71 1.1551 1.5785 0
M  V30 13184 C 1221.09 -0.278405 2.09256 0
M  V30 13185 O 1220.44 -1.27748 1.89453 0
M  V30 13186 C 1220.65 2.19647 2.71212 0
M  V30 13187 C 1222 2.53818 3.40384 0
M  V30 13188 O 1223.02 2.18317 2.81454 0
M  V30 13189 O 1221.88 3.14741 4.46766 0
M  V30 13190 H 1218.97 0.446785 0.695925 0
M  V30 13191 H 1221.52 1.45021 0.8813 0
M  V30 13192 H 1220.29 3.15936 2.30869 0
M  V30 13193 H 1219.91 1.91224 3.48596 0
M  V30 13194 N 1220.91 -1.05686 1.16912 0
M  V30 13195 C 1221.86 -2.15417 0.877404 0
M  V30 13196 C 1222.85 -1.6868 -0.155986 0
M  V30 13197 O 1224.06 -1.79998 -0.00938156 0
M  V30 13198 H 1220.43 -0.70332 0.266168 0
M  V30 13199 H 1222.4 -2.37228 1.81012 0
M  V30 13200 C 1221.15 -3.45372 0.401696 0
M  V30 13201 H 1220.48 -3.81732 1.18832 0
M  V30 13202 H 1221.92 -4.2334 0.236418 0
M  V30 13203 C 1220.38 -3.25209 -0.87981 0
M  V30 13204 O 1220.91 -3.51322 -1.94771 0
M  V30 13205 N 1219.11 -2.78614 -0.825997 0
M  V30 13206 H 1218.66 -2.57564 0.0432439 0
M  V30 13207 H 1218.62 -2.65503 -1.68391 0
M  V30 13208 N 1222.39 -0.968567 -1.24324 0
M  V30 13209 C 1223.64 -0.630928 -1.9242 0
M  V30 13210 C 1223.96 0.834001 -1.75712 0
M  V30 13211 O 1223.22 1.61558 -1.10442 0
M  V30 13212 C 1223.52 -0.952762 -3.44467 0
M  V30 13213 C 1223.18 -2.40597 -3.81345 0
M  V30 13214 C 1221.85 -2.80316 -3.91122 0
M  V30 13215 C 1224.2 -3.34906 -3.99359 0
M  V30 13216 C 1221.53 -4.13383 -4.16331 0
M  V30 13217 C 1223.88 -4.67602 -4.26065 0
M  V30 13218 C 1222.54 -5.07097 -4.34061 0
M  V30 13219 H 1221.81 -0.230873 -0.704116 0
M  V30 13220 H 1224.46 -1.22022 -1.47591 0
M  V30 13221 H 1222.76 -0.281244 -3.90789 0
M  V30 13222 H 1224.46 -0.6699 -3.95365 0
M  V30 13223 H 1221.05 -2.088 -3.743 0
M  V30 13224 H 1225.23 -3.05404 -3.91206 0
M  V30 13225 H 1220.49 -4.43606 -4.20742 0
M  V30 13226 H 1224.66 -5.40646 -4.38948 0
M  V30 13227 H 1222.29 -6.10229 -4.53349 0
M  V30 13228 N 1223.87 1.39211 -0.738786 0
M  V30 13229 C 1225.11 2.00436 -0.28839 0
M  V30 13230 C 1225.44 1.58626 1.12552 0
M  V30 13231 O 1224.7 0.808154 1.78234 0
M  V30 13232 C 1225 3.55758 -0.342224 0
M  V30 13233 C 1224.66 4.1723 -1.70968 0
M  V30 13234 C 1223.32 4.33734 -2.08395 0
M  V30 13235 C 1225.68 4.51294 -2.60736 0
M  V30 13236 C 1223 4.81592 -3.35091 0
M  V30 13237 C 1225.36 5.00562 -3.86808 0
M  V30 13238 C 1224.02 5.15274 -4.24322 0
M  V30 13239 H 1223.29 0.733447 -0.105529 0
M  V30 13240 H 1225.94 1.66481 -0.94637 0
M  V30 13241 H 1224.24 3.8976 0.399331 0
M  V30 13242 H 1225.94 4.00993 0.0244582 0
M  V30 13243 H 1222.53 4.04788 -1.4087 0
M  V30 13244 H 1226.71 4.38158 -2.3309 0
M  V30 13245 H 1221.97 4.91167 -3.64095 0
M  V30 13246 H 1226.14 5.25892 -4.5652 0
M  V30 13247 H 1223.77 5.52119 -5.2256 0
M  V30 13248 N 1225.34 0.486708 1.49896 0
M  V30 13249 C 1226.62 -0.125183 1.95199 0
M  V30 13250 C 1227 -1.55498 1.42771 0
M  V30 13251 O 1226.35 -2.1949 0.635322 0
M  V30 13252 C 1226.56 -0.0524982 3.48961 0
M  V30 13253 C 1227.91 -0.233595 4.23957 0
M  V30 13254 O 1228.93 -0.128357 3.55969 0
M  V30 13255 O 1227.79 -0.447862 5.44662 0
M  V30 13256 H 1224.88 -0.103141 0.820543 0
M  V30 13257 H 1227.43 0.548226 1.60601 0
M  V30 13258 H 1226.2 0.945163 3.79714 0
M  V30 13259 H 1225.83 -0.766683 3.90138 0
M  V30 13260 N 1226.82 -1.56058 0.219941 0
M  V30 13261 C 1227.75 -2.2321 -0.685547 0
M  V30 13262 C 1228.73 -1.20328 -1.20229 0
M  V30 13263 O 1229.92 -1.48909 -1.24659 0
M  V30 13264 C 1227.05 -2.91076 -1.89452 0
M  V30 13265 C 1226 -4.00415 -1.51169 0
M  V30 13266 C 1225.33 -4.55569 -2.79931 0
M  V30 13267 C 1226.63 -5.17549 -0.702896 0
M  V30 13268 H 1228.32 -2.99136 -0.125671 0
M  V30 13269 H 1225.87 -1.43879 -0.0590043 0
M  V30 13270 H 1227.82 -3.36744 -2.53341 0
M  V30 13271 H 1226.55 -2.12594 -2.47934 0
M  V30 13272 H 1225.21 -3.55475 -0.896275 0
M  V30 13273 H 1224.85 -3.73819 -3.36553 0
M  V30 13274 H 1224.55 -5.29361 -2.55049 0
M  V30 13275 H 1226.08 -5.03955 -3.44764 0
M  V30 13276 H 1227.49 -5.59608 -1.24544 0
M  V30 13277 H 1225.89 -5.97563 -0.551234 0
M  V30 13278 H 1226.96 -4.84027 0.29083 0
M  V30 13279 N 1228.3 0.053464 -1.57509 0
M  V30 13280 C 1229.23 1.06151 -2.07977 0
M  V30 13281 C 1230.21 1.3924 -0.977047 0
M  V30 13282 O 1231.4 1.48549 -1.25087 0
M  V30 13283 C 1228.53 2.36969 -2.53895 0
M  V30 13284 C 1227.48 2.18186 -3.6821 0
M  V30 13285 C 1226.81 3.54551 -4.00247 0
M  V30 13286 C 1228.11 1.588 -4.97574 0
M  V30 13287 H 1229.8 0.641483 -2.92447 0
M  V30 13288 H 1227.35 0.307122 -1.40687 0
M  V30 13289 H 1229.3 3.07797 -2.87817 0
M  V30 13290 H 1228.02 2.80986 -1.66476 0
M  V30 13291 H 1226.68 1.49796 -3.34599 0
M  V30 13292 H 1226.33 3.96171 -3.09932 0
M  V30 13293 H 1226.03 3.42816 -4.77232 0
M  V30 13294 H 1227.56 4.2678 -4.36682 0
M  V30 13295 H 1228.97 2.19515 -5.29609 0
M  V30 13296 H 1227.37 1.57711 -5.79006 0
M  V30 13297 H 1228.44 0.551254 -4.81756 0
M  V30 13298 N 1229.78 1.54207 0.325255 0
M  V30 13299 C 1231.19 1.63587 0.899793 0
M  V30 13300 C 1231.54 0.528851 1.88938 0
M  V30 13301 O 1230.67 -0.33852 2.13736 0
M  V30 13302 C 1231.26 2.9653 1.63877 0
M  V30 13303 C 1229.82 3.08111 2.16205 0
M  V30 13304 C 1228.97 2.59144 0.986903 0
M  V30 13305 H 1231.92 1.58366 0.102883 0
M  V30 13306 H 1231.94 2.86595 2.50287 0
M  V30 13307 H 1231.45 3.7708 0.918279 0
M  V30 13308 H 1229.55 2.32232 2.91375 0
M  V30 13309 H 1229.67 4.13885 2.41322 0
M  V30 13310 H 1228.03 2.14997 1.36558 0
M  V30 13311 H 1228.81 3.4215 0.28076 0
M  V30 13312 N 1231.26 -0.58723 1.46251 0
M  V30 13313 C 1232.51 -1.34294 1.51028 0
M  V30 13314 C 1232.83 -1.94329 0.161623 0
M  V30 13315 O 1232.1 -1.78309 -0.811342 0
M  V30 13316 H 1230.68 -0.498607 0.556238 0
M  V30 13317 H 1233.34 -0.688074 1.8235 0
M  V30 13318 H 1232.43 -2.15197 2.26045 0
M  V30 13319 N 1232.74 -1.33881 -0.831482 0
M  V30 13320 C 1233.65 -1.26802 -1.97379 0
M  V30 13321 C 1234.66 -0.177233 -1.73095 0
M  V30 13322 O 1235.84 -0.402163 -1.97344 0
M  V30 13323 C 1232.9 -1.01474 -3.31517 0
M  V30 13324 C 1231.96 -2.19626 -3.68867 0
M  V30 13325 C 1231.2 -1.95497 -4.96605 0
M  V30 13326 O 1231.42 -0.908948 -5.63111 0
M  V30 13327 O 1230.35 -2.82226 -5.31632 0
M  V30 13328 H 1234.18 -2.22883 -2.06293 0
M  V30 13329 H 1231.76 -1.14001 -0.965613 0
M  V30 13330 H 1233.65 -0.890954 -4.11874 0
M  V30 13331 H 1232.32 -0.0842656 -3.2359 0
M  V30 13332 H 1231.23 -2.37561 -2.88991 0
M  V30 13333 H 1232.56 -3.11034 -3.81469 0
M  V30 13334 N 1234.21 1.05064 -1.1747 0
M  V30 13335 C 1235.63 1.30256 -0.922248 0
M  V30 13336 C 1235.83 1.97119 0.417896 0
M  V30 13337 O 1234.89 2.24557 1.15457 0
M  V30 13338 C 1236.2 2.17109 -2.08049 0
M  V30 13339 C 1237.75 2.30487 -2.11766 0
M  V30 13340 C 1238.22 3.20701 -3.26979 0
M  V30 13341 N 1239.71 3.28287 -3.26775 0
M  V30 13342 C 1240.45 3.98218 -4.12565 0
M  V30 13343 N 1239.94 4.70567 -5.08467 0
M  V30 13344 N 1241.74 3.94395 -4.00511 0
M  V30 13345 H 1233.89 0.600653 -2.0373 0
M  V30 13346 H 1236.15 0.327475 -0.889643 0
M  V30 13347 H 1235.86 1.75273 -3.04914 0
M  V30 13348 H 1235.73 3.1775 -2.03261 0
M  V30 13349 H 1238.12 2.71564 -1.15486 0
M  V30 13350 H 1238.2 1.29471 -2.20615 0
M  V30 13351 H 1237.84 2.80337 -4.23525 0
M  V30 13352 H 1237.77 4.21725 -3.15366 0
M  V30 13353 H 1240.26 2.76739 -2.5734 0
M  V30 13354 H 1240.58 5.21492 -5.70321 0
M  V30 13355 H 1238.92 4.69505 -5.12436 0
M  V30 13356 H 1242.11 3.37 -3.24882 0
M  V30 13357 H 1242.29 4.48626 -4.67588 0
M  V30 13358 N 1235.69 0.975146 1.23809 0
M  V30 13359 C 1236.64 0.510761 2.25077 0
M  V30 13360 C 1237.61 -0.447605 1.59955 0
M  V30 13361 O 1238.79 -0.356318 1.87443 0
M  V30 13362 C 1235.93 -0.185755 3.446 0
M  V30 13363 C 1235.05 0.812254 4.24295 0
M  V30 13364 C 1234.18 0.0910835 5.31122 0
M  V30 13365 C 1233.22 1.07866 6.02521 0
M  V30 13366 N 1232.36 0.386995 7.01033 0
M  V30 13367 H 1237.2 1.37913 2.64166 0
M  V30 13368 H 1234.73 0.691184 1.2985 0
M  V30 13369 H 1236.69 -0.606341 4.1277 0
M  V30 13370 H 1235.32 -1.01803 3.06327 0
M  V30 13371 H 1234.37 1.35125 3.55592 0
M  V30 13372 H 1235.69 1.56502 4.73612 0
M  V30 13373 H 1234.84 -0.387129 6.05464 0
M  V30 13374 H 1233.58 -0.694324 4.82732 0
M  V30 13375 H 1232.58 1.56767 5.26976 0
M  V30 13376 H 1233.81 1.86464 6.52999 0
M  V30 13377 H 1231.76 -0.3793 6.54903 0
M  V30 13378 H 1231.67 1.0785 7.48268 0
M  V30 13379 H 1232.94 -0.0690036 7.79469 0
M  V30 13380 N 1237.17 -1.38817 0.746158 0
M  V30 13381 C 1238.12 -2.30521 0.113517 0
M  V30 13382 C 1239.09 -1.49795 -0.717682 0
M  V30 13383 O 1240.27 -1.78448 -0.675345 0
M  V30 13384 C 1237.41 -3.36185 -0.779343 0
M  V30 13385 C 1236.52 -4.3195 0.0656784 0
M  V30 13386 C 1235.66 -5.24684 -0.829492 0
M  V30 13387 C 1234.7 -6.12097 0.0196112 0
M  V30 13388 N 1233.84 -6.97152 -0.832107 0
M  V30 13389 H 1238.68 -2.84048 0.901136 0
M  V30 13390 H 1236.21 -1.39853 0.456025 0
M  V30 13391 H 1238.17 -3.96048 -1.31156 0
M  V30 13392 H 1236.8 -2.84085 -1.53282 0
M  V30 13393 H 1235.85 -3.73611 0.715445 0
M  V30 13394 H 1237.16 -4.93551 0.721735 0
M  V30 13395 H 1236.32 -5.89627 -1.42915 0
M  V30 13396 H 1235.06 -4.63431 -1.5193 0
M  V30 13397 H 1234.06 -5.46156 0.631991 0
M  V30 13398 H 1235.29 -6.75416 0.706369 0
M  V30 13399 H 1233.23 -6.38456 -1.507 0
M  V30 13400 H 1233.15 -7.55642 -0.232782 0
M  V30 13401 H 1234.42 -7.66513 -1.41697 0
M  V30 13402 N 1238.65 -0.49465 -1.49636 0
M  V30 13403 C 1239.89 0.0521945 -2.02733 0
M  V30 13404 C 1240.23 1.3723 -1.37411 0
M  V30 13405 O 1239.5 1.87758 -0.507642 0
M  V30 13406 C 1239.78 0.2114 -3.59479 0
M  V30 13407 C 1239.64 -1.13138 -4.35339 0
M  V30 13408 C 1240.96 0.955015 -4.29613 0
M  V30 13409 H 1238.08 0.0174946 -0.736792 0
M  V30 13410 H 1240.72 -0.644827 -1.78723 0
M  V30 13411 H 1238.87 0.805078 -3.80067 0
M  V30 13412 H 1240.54 -1.76345 -4.26263 0
M  V30 13413 H 1238.78 -1.72224 -3.98147 0
M  V30 13414 H 1239.45 -0.97336 -5.4335 0
M  V30 13415 H 1241.93 0.451575 -4.13642 0
M  V30 13416 H 1240.81 1.03524 -5.39049 0
M  V30 13417 H 1241.07 1.99724 -3.94414 0
M  V30 13418 N 1240.13 1.55939 -0.228214 0
M  V30 13419 C 1241.37 1.97652 0.402067 0
M  V30 13420 C 1241.69 1.11911 1.60422 0
M  V30 13421 O 1242.89 1.43552 2.30445 0
M  V30 13422 C 1241.35 3.51638 0.766724 0
M  V30 13423 C 1240.96 4.46092 -0.412991 0
M  V30 13424 C 1242.7 4.02049 1.36224 0
M  V30 13425 C 1240.61 5.91394 -0.0255281 0
M  V30 13426 H 1239.54 0.738107 0.153994 0
M  V30 13427 H 1242.19 1.8059 -0.32548 0
M  V30 13428 H 1240.57 3.64325 1.55188 0
M  V30 13429 H 1241.75 4.45156 -1.19049 0
M  V30 13430 H 1240.06 4.0606 -0.92218 0
M  V30 13431 H 1242.66 5.08111 1.66514 0
M  V30 13432 H 1243 3.48292 2.28032 0
M  V30 13433 H 1243.53 3.92612 0.640378 0
M  V30 13434 H 1240.27 6.49149 -0.910269 0
M  V30 13435 H 1239.79 5.95509 0.716149 0
M  V30 13436 H 1241.47 6.4577 0.398839 0
M  V30 13437 N 1241.6 -0.0451101 1.57535 0
M  V30 13438 C 1242.85 -0.738072 1.87711 0
M  V30 13439 C 1243.17 -1.7737 0.824579 0
M  V30 13440 O 1244.37 -2.51812 1.01503 0
M  V30 13441 C 1242.83 -1.36373 3.33062 0
M  V30 13442 C 1242.44 -0.365283 4.46508 0
M  V30 13443 C 1244.18 -2.0375 3.72406 0
M  V30 13444 C 1242.09 -0.998371 5.82912 0
M  V30 13445 H 1241.02 -0.279413 0.700317 0
M  V30 13446 H 1243.67 0.00802425 1.83498 0
M  V30 13447 H 1242.05 -2.15899 3.31969 0
M  V30 13448 H 1243.22 0.402102 4.59042 0
M  V30 13449 H 1241.54 0.205505 4.15893 0
M  V30 13450 H 1244.14 -2.51939 4.71625 0
M  V30 13451 H 1244.48 -2.84869 3.03571 0
M  V30 13452 H 1245.01 -1.3102 3.75604 0
M  V30 13453 H 1241.75 -0.226935 6.55107 0
M  V30 13454 H 1241.27 -1.73598 5.74129 0
M  V30 13455 H 1242.95 -1.51044 6.29122 0
M  V30 13456 N 1243.08 -1.54377 -0.317073 0
M  V30 13457 C 1244.31 -1.76865 -1.07362 0
M  V30 13458 C 1244.73 -0.520354 -1.81488 0
M  V30 13459 O 1244.08 0.509213 -1.75252 0
M  V30 13460 C 1244.13 -2.96598 -2.06668 0
M  V30 13461 O 1243.85 -4.16602 -1.35552 0
M  V30 13462 C 1245.36 -3.31348 -2.94489 0
M  V30 13463 H 1242.58 -0.590277 -0.319083 0
M  V30 13464 H 1245.12 -2.01284 -0.361227 0
M  V30 13465 H 1243.27 -2.74433 -2.73432 0
M  V30 13466 H 1243.69 -4.83996 -2.02108 0
M  V30 13467 H 1245.16 -4.1841 -3.60051 0
M  V30 13468 H 1245.64 -2.48797 -3.61935 0
M  V30 13469 H 1246.25 -3.55614 -2.33278 0
M  V30 13470 N 1244.56 0.579466 -1.4656 0
M  V30 13471 C 1245.79 1.36837 -1.55854 0
M  V30 13472 C 1246.21 1.87019 -0.20141 0
M  V30 13473 O 1245.57 1.61746 0.81901 0
M  V30 13474 C 1245.62 2.52965 -2.56985 0
M  V30 13475 O 1244.72 3.54505 -2.10713 0
M  V30 13476 H 1244.06 0.407379 -0.524345 0
M  V30 13477 H 1246.59 0.702558 -1.9216 0
M  V30 13478 H 1246.6 2.99838 -2.76697 0
M  V30 13479 H 1245.28 2.15793 -3.55536 0
M  V30 13480 H 1243.85 3.14089 -2.01003 0
M  V30 13481 N 1246.04 1.3432 0.824371 0
M  V30 13482 C 1247.45 1.23855 1.39703 0
M  V30 13483 C 1247.8 -0.136566 1.95724 0
M  V30 13484 O 1246.93 -1.03683 1.89944 0
M  V30 13485 C 1247.52 2.24249 2.53965 0
M  V30 13486 C 1246.08 2.17578 3.07143 0
M  V30 13487 C 1245.23 2.10933 1.80008 0
M  V30 13488 H 1248.18 1.45707 0.628891 0
M  V30 13489 H 1248.2 1.85864 3.32016 0
M  V30 13490 H 1247.71 3.24321 2.13161 0
M  V30 13491 H 1245.81 1.20858 3.52455 0
M  V30 13492 H 1245.92 3.08769 3.66331 0
M  V30 13493 H 1244.29 1.56631 2.00845 0
M  V30 13494 H 1245.07 3.12836 1.4138 0
M  V30 13495 N 1247.52 -1.0444 1.18026 0
M  V30 13496 C 1248.93 -1.29766 0.929143 0
M  V30 13497 C 1249.13 -1.97338 -0.407436 0
M  V30 13498 O 1248.19 -2.25166 -1.14265 0
M  V30 13499 C 1249.5 -2.16002 2.09197 0
M  V30 13500 C 1251.05 -2.29361 2.12985 0
M  V30 13501 C 1251.52 -3.18962 3.28675 0
M  V30 13502 N 1253.02 -3.26549 3.28512 0
M  V30 13503 C 1253.75 -3.96025 4.14671 0
M  V30 13504 N 1253.25 -4.67863 5.10956 0
M  V30 13505 N 1255.04 -3.92266 4.02597 0
M  V30 13506 H 1247.19 -0.58984 2.04046 0
M  V30 13507 H 1249.45 -0.322752 0.891367 0
M  V30 13508 H 1249.16 -1.73653 3.05839 0
M  V30 13509 H 1249.03 -3.16667 2.04943 0
M  V30 13510 H 1251.42 -2.70948 1.16924 0
M  V30 13511 H 1251.5 -1.28299 2.21298 0
M  V30 13512 H 1251.15 -2.78087 4.25006 0
M  V30 13513 H 1251.08 -4.20047 3.17598 0
M  V30 13514 H 1253.57 -2.75371 2.58804 0
M  V30 13515 H 1253.88 -5.1846 5.73079 0
M  V30 13516 H 1252.22 -4.6678 5.14919 0
M  V30 13517 H 1255.42 -3.35273 3.26665 0
M  V30 13518 H 1255.59 -4.4614 4.69961 0
M  V30 13519 N 1248.99 -0.981699 -1.2329 0
M  V30 13520 C 1250.24 -0.646818 -1.91048 0
M  V30 13521 C 1250.56 0.823479 -1.77421 0
M  V30 13522 O 1251.76 1.26948 -2.39993 0
M  V30 13523 C 1250.22 -1.1063 -3.42475 0
M  V30 13524 C 1249.83 -2.60103 -3.6476 0
M  V30 13525 C 1251.57 -0.845227 -4.16 0
M  V30 13526 C 1249.48 -2.99712 -5.0983 0
M  V30 13527 H 1248.41 -0.238221 -0.715379 0
M  V30 13528 H 1251.06 -1.18977 -1.39702 0
M  V30 13529 H 1249.44 -0.491554 -3.92937 0
M  V30 13530 H 1250.61 -3.26828 -3.24839 0
M  V30 13531 H 1248.93 -2.83972 -3.04547 0
M  V30 13532 H 1251.53 -1.11699 -5.22903 0
M  V30 13533 H 1251.87 0.218661 -4.15725 0
M  V30 13534 H 1252.4 -1.42162 -3.7153 0
M  V30 13535 H 1249.14 -4.0523 -5.15237 0
M  V30 13536 H 1248.66 -2.37683 -5.50697 0
M  V30 13537 H 1250.34 -2.9039 -5.78172 0
M  V30 13538 N 1250.47 1.3842 -0.753509 0
M  V30 13539 C 1251.42 2.30457 -0.12574 0
M  V30 13540 C 1252.39 1.50173 0.709728 0
M  V30 13541 O 1253.57 1.78804 0.665872 0
M  V30 13542 C 1250.71 3.36593 0.761503 0
M  V30 13543 C 1249.83 4.31909 -0.0885848 0
M  V30 13544 C 1248.96 5.25116 0.801655 0
M  V30 13545 C 1248 6.12078 -0.0520719 0
M  V30 13546 N 1247.14 6.97583 0.795124 0
M  V30 13547 H 1251.98 2.83567 -0.916187 0
M  V30 13548 H 1249.52 1.39609 -0.463436 0
M  V30 13549 H 1251.47 3.96738 1.29054 0
M  V30 13550 H 1250.1 2.84894 1.51774 0
M  V30 13551 H 1249.16 3.73227 -0.735249 0
M  V30 13552 H 1250.47 4.93161 -0.747899 0
M  V30 13553 H 1249.62 5.90377 1.39786 0
M  V30 13554 H 1248.36 4.6423 1.4947 0
M  V30 13555 H 1247.37 5.45813 -0.660946 0
M  V30 13556 H 1248.59 6.75032 -0.742178 0
M  V30 13557 H 1246.54 6.39246 1.47312 0
M  V30 13558 H 1246.45 7.55754 0.192705 0
M  V30 13559 H 1247.72 7.67254 1.3763 0
M  V30 13560 N 1251.95 0.502579 1.49372 0
M  V30 13561 C 1252.9 -0.275004 2.29156 0
M  V30 13562 C 1253.87 -0.95892 1.35624 0
M  V30 13563 O 1255.05 -0.965276 1.64581 0
M  V30 13564 C 1252.19 -1.33255 3.18335 0
M  V30 13565 C 1251.31 -0.660248 4.26925 0
M  V30 13566 C 1250.44 -1.69837 5.03318 0
M  V30 13567 C 1249.48 -1.00802 6.03743 0
M  V30 13568 N 1248.62 -1.99042 6.73295 0
M  V30 13569 H 1253.46 0.411599 2.95144 0
M  V30 13570 H 1250.99 0.214824 1.45523 0
M  V30 13571 H 1252.95 -1.95769 3.68416 0
M  V30 13572 H 1251.58 -1.98789 2.54328 0
M  V30 13573 H 1250.63 0.0782181 3.8032 0
M  V30 13574 H 1251.95 -0.11689 4.98663 0
M  V30 13575 H 1251.1 -2.39852 5.57275 0
M  V30 13576 H 1249.84 -2.27558 4.31357 0
M  V30 13577 H 1248.84 -0.293654 5.49015 0
M  V30 13578 H 1250.07 -0.437285 6.77691 0
M  V30 13579 H 1248.01 -2.55722 6.04104 0
M  V30 13580 H 1247.93 -1.49776 7.41015 0
M  V30 13581 H 1249.2 -2.6834 7.31856 0
M  V30 13582 N 1253.43 -1.55816 0.23648 0
M  V30 13583 C 1254.68 -1.98294 -0.390373 0
M  V30 13584 C 1255 -1.12573 -1.59224 0
M  V30 13585 O 1254.27 -0.206128 -1.94813 0
M  V30 13586 H 1252.85 -0.732349 -0.14722 0
M  V30 13587 H 1255.51 -1.92037 0.332848 0
M  V30 13588 H 1254.61 -3.03996 -0.706595 0
M  V30 13589 N 1254.91 0.036755 -1.57557 0
M  V30 13590 C 1255.82 1.05687 -2.09446 0
M  V30 13591 C 1256.83 1.40137 -1.03139 0
M  V30 13592 O 1258.01 1.49611 -1.34828 0
M  V30 13593 C 1255.07 2.34114 -2.55717 0
M  V30 13594 C 1254.13 2.06316 -3.76473 0
M  V30 13595 C 1253.37 3.2862 -4.20529 0
M  V30 13596 O 1253.59 4.3902 -3.64167 0
M  V30 13597 O 1252.52 3.14772 -5.13033 0
M  V30 13598 H 1256.35 0.64593 -2.96751 0
M  V30 13599 H 1253.94 0.253235 -1.47238 0
M  V30 13600 H 1255.82 3.09631 -2.85844 0
M  V30 13601 H 1254.49 2.74519 -1.71526 0
M  V30 13602 H 1253.4 1.28392 -3.51378 0
M  V30 13603 H 1254.73 1.70772 -4.61625 0
M  V30 13604 N 1256.39 1.54543 0.308881 0
M  V30 13605 C 1257.3 1.87994 1.4034 0
M  V30 13606 C 1258.31 0.773294 1.55872 0
M  V30 13607 O 1259.49 1.069 1.70688 0
M  V30 13608 C 1256.55 2.11341 2.74838 0
M  V30 13609 C 1255.61 3.35086 2.68358 0
M  V30 13610 C 1254.85 3.5731 3.96441 0
M  V30 13611 O 1255.07 2.82692 4.9542 0
M  V30 13612 O 1254 4.50814 3.98811 0
M  V30 13613 H 1257.83 2.81094 1.14976 0
M  V30 13614 H 1255.41 1.40634 0.504236 0
M  V30 13615 H 1257.3 2.27943 3.54429 0
M  V30 13616 H 1255.97 1.21427 3.00062 0
M  V30 13617 H 1254.88 3.23855 1.87267 0
M  V30 13618 H 1256.21 4.25104 2.48087 0
M  V30 13619 N 1257.86 -0.571685 1.46866 0
M  V30 13620 C 1258.79 -1.68994 1.61131 0
M  V30 13621 C 1259.77 -1.63728 0.461222 0
M  V30 13622 O 1260.96 -1.81574 0.688813 0
M  V30 13623 C 1258.09 -3.07638 1.61172 0
M  V30 13624 C 1257.04 -3.27742 2.75262 0
M  V30 13625 C 1256.37 -4.67025 2.60368 0
M  V30 13626 C 1257.67 -3.14511 4.16989 0
M  V30 13627 H 1259.36 -1.57311 2.54742 0
M  V30 13628 H 1256.91 -0.755382 1.22597 0
M  V30 13629 H 1258.86 -3.857 1.69744 0
M  V30 13630 H 1257.59 -3.20245 0.641122 0
M  V30 13631 H 1256.25 -2.52083 2.66176 0
M  V30 13632 H 1255.89 -4.76413 1.61368 0
M  V30 13633 H 1255.59 -4.81428 3.36899 0
M  V30 13634 H 1257.12 -5.47242 2.70848 0
M  V30 13635 H 1258.53 -3.82407 4.27128 0
M  V30 13636 H 1256.93 -3.40431 4.94193 0
M  V30 13637 H 1258 -2.11443 4.36371 0
M  V30 13638 N 1259.34 -1.34755 -0.817236 0
M  V30 13639 C 1260.75 -1.24594 -1.39044 0
M  V30 13640 C 1261.1 0.126184 -1.95794 0
M  V30 13641 O 1260.23 1.02675 -1.90491 0
M  V30 13642 C 1260.82 -2.25592 -2.52772 0
M  V30 13643 C 1259.38 -2.19204 -3.05984 0
M  V30 13644 C 1258.53 -2.11884 -1.78886 0
M  V30 13645 H 1261.48 -1.46039 -0.621155 0
M  V30 13646 H 1261.5 -1.87622 -3.31026 0
M  V30 13647 H 1261.01 -3.25447 -2.11438 0
M  V30 13648 H 1259.11 -1.22725 -3.51809 0
M  V30 13649 H 1259.23 -3.10707 -3.64689 0
M  V30 13650 H 1257.59 -1.57694 -2.00012 0
M  V30 13651 H 1258.37 -3.13582 -1.39719 0
M  V30 13652 N 1260.82 1.03812 -1.18578 0
M  V30 13653 C 1262.07 1.77319 -0.984173 0
M  V30 13654 C 1262.4 1.88052 0.484789 0
M  V30 13655 O 1261.67 1.3905 1.35998 0
M  V30 13656 C 1261.96 3.20448 -1.6427 0
M  V30 13657 C 1261.81 3.17643 -3.1847 0
M  V30 13658 C 1263.13 4.18623 -1.35805 0
M  V30 13659 H 1260.25 0.643681 -0.358949 0
M  V30 13660 H 1262.89 1.21249 -1.46283 0
M  V30 13661 H 1261.04 3.68324 -1.23572 0
M  V30 13662 H 1262.71 2.77738 -3.6832 0
M  V30 13663 H 1260.95 2.55606 -3.50497 0
M  V30 13664 H 1261.63 4.18724 -3.59686 0
M  V30 13665 H 1264.1 3.79306 -1.71073 0
M  V30 13666 H 1262.98 5.16982 -1.84446 0
M  V30 13667 H 1263.24 4.41203 -0.281418 0
M  V30 13668 N 1262.3 0.988223 1.22768 0
M  V30 13669 C 1263.25 0.527454 2.26541 0
M  V30 13670 C 1264.24 -0.419506 1.64123 0
M  V30 13671 O 1265.45 -0.292539 1.77607 0
M  V30 13672 H 1261.82 0.152165 0.736444 0
M  V30 13673 H 1263.79 1.41422 2.62759 0
M  V30 13674 C 1262.54 -0.146845 3.4739 0
M  V30 13675 H 1261.86 0.572752 3.95676 0
M  V30 13676 H 1263.3 -0.432768 4.21786 0
M  V30 13677 C 1261.76 -1.38065 3.0731 0
M  V30 13678 O 1262.29 -2.47634 3.16291 0
M  V30 13679 N 1260.5 -1.25418 2.62143 0
M  V30 13680 H 1260.05 -0.362641 2.55035 0
M  V30 13681 H 1260 -2.08077 2.35694 0
M  V30 13682 N 1263.78 -1.38018 0.760839 0
M  V30 13683 C 1265.02 -1.99194 0.316984 0
M  V30 13684 C 1265.34 -1.61083 -1.10958 0
M  V30 13685 O 1266.54 -2.15281 -1.65428 0
M  V30 13686 C 1265 -3.56185 0.515792 0
M  V30 13687 C 1264.61 -4.03242 1.95191 0
M  V30 13688 C 1266.35 -4.24285 0.135013 0
M  V30 13689 C 1264.26 -5.52902 2.0989 0
M  V30 13690 H 1263.19 -0.745214 0.114771 0
M  V30 13691 H 1265.84 -1.5769 0.938415 0
M  V30 13692 H 1264.22 -3.95613 -0.174934 0
M  V30 13693 H 1265.4 -3.75086 2.6767 0
M  V30 13694 H 1263.71 -3.47889 2.28827 0
M  V30 13695 H 1266.31 -5.34233 0.223495 0
M  V30 13696 H 1266.65 -4.06158 -0.913322 0
M  V30 13697 H 1267.18 -3.90121 0.777868 0
M  V30 13698 H 1263.92 -5.75942 3.13003 0
M  V30 13699 H 1263.44 -5.82778 1.41881 0
M  V30 13700 H 1265.12 -6.18709 1.89229 0
M  V30 13701 N 1265.25 -0.510493 -1.49103 0
M  V30 13702 C 1266.2 0.262848 -2.29298 0
M  V30 13703 C 1267.17 0.951714 -1.36131 0
M  V30 13704 O 1268.36 0.956534 -1.65091 0
M  V30 13705 C 1265.5 1.31565 -3.19037 0
M  V30 13706 C 1264.61 0.637598 -4.27269 0
M  V30 13707 C 1263.74 1.67165 -5.04212 0
M  V30 13708 C 1262.78 0.975992 -6.04269 0
M  V30 13709 N 1261.92 1.95468 -6.74342 0
M  V30 13710 H 1266.76 -0.427246 -2.94921 0
M  V30 13711 H 1264.3 -0.222538 -1.45407 0
M  V30 13712 H 1266.25 1.93813 -3.69449 0
M  V30 13713 H 1264.88 1.97438 -2.55379 0
M  V30 13714 H 1263.94 -0.0983863 -3.80273 0
M  V30 13715 H 1265.25 0.0904435 -4.98718 0
M  V30 13716 H 1264.4 2.36893 -5.5854 0
M  V30 13717 H 1263.14 2.25267 -4.32557 0
M  V30 13718 H 1262.15 0.264534 -5.49163 0
M  V30 13719 H 1263.37 0.40134 -6.77913 0
M  V30 13720 H 1261.32 2.52515 -6.05452 0
M  V30 13721 H 1261.23 1.45845 -7.41799 0
M  V30 13722 H 1262.5 2.64455 -7.33269 0
M  V30 13723 N 1266.73 1.55688 -0.24474 0
M  V30 13724 C 1267.68 2.17946 0.669596 0
M  V30 13725 C 1268.67 1.13468 1.14078 0
M  V30 13726 O 1269.86 1.39385 1.09091 0
M  V30 13727 C 1266.99 2.8808 1.86721 0
M  V30 13728 C 1266.07 3.99811 1.41463 0
M  V30 13729 N 1266.46 5.01261 0.676131 0
M  V30 13730 C 1264.76 4.12327 1.70008 0
M  V30 13731 C 1265.46 5.80017 0.442113 0
M  V30 13732 N 1264.44 5.34216 1.00569 0
M  V30 13733 H 1268.24 2.93739 0.0971953 0
M  V30 13734 H 1265.75 1.62332 -0.0469646 0
M  V30 13735 H 1267.75 3.31109 2.53322 0
M  V30 13736 H 1266.41 2.13789 2.44385 0
M  V30 13737 H 1267.42 5.1687 0.326459 0
M  V30 13738 H 1264.1 3.49206 2.28827 0
M  V30 13739 H 1265.49 6.71739 -0.14729 0
M  V30 13740 N 1268.21 -0.0283989 1.57574 0
M  V30 13741 C 1269.46 -0.718121 1.88483 0
M  V30 13742 C 1269.77 -1.76485 0.843345 0
M  V30 13743 O 1270.98 -2.50721 1.04169 0
M  V30 13744 C 1269.43 -1.32832 3.3449 0
M  V30 13745 C 1269.04 -0.317905 4.46871 0
M  V30 13746 C 1270.79 -1.99788 3.74546 0
M  V30 13747 C 1268.69 -0.936489 5.83938 0
M  V30 13748 H 1267.62 -0.271969 0.703242 0
M  V30 13749 H 1270.27 0.0274862 1.83479 0
M  V30 13750 H 1268.66 -2.12366 3.34241 0
M  V30 13751 H 1269.83 0.450767 4.5859 0
M  V30 13752 H 1268.14 0.249605 4.15651 0
M  V30 13753 H 1270.74 -2.46923 4.74271 0
M  V30 13754 H 1271.08 -2.81633 3.06575 0
M  V30 13755 H 1271.62 -1.27029 3.76973 0
M  V30 13756 H 1268.36 -0.15744 6.55311 0
M  V30 13757 H 1267.88 -1.67499 5.75938 0
M  V30 13758 H 1269.56 -1.44363 6.30689 0
M  V30 13759 N 1269.69 -1.54705 -0.300681 0
M  V30 13760 C 1271.1 -1.45926 -0.646359 0
M  V30 13761 C 1271.3 -0.65072 -1.90704 0
M  V30 13762 O 1270.36 -0.158547 -2.52002 0
M  V30 13763 C 1271.67 -2.89889 -0.799059 0
M  V30 13764 C 1273.22 -2.99934 -0.894923 0
M  V30 13765 C 1273.7 -4.45093 -1.07962 0
M  V30 13766 N 1275.19 -4.48804 -1.14581 0
M  V30 13767 C 1275.92 -5.58305 -1.30702 0
M  V30 13768 N 1275.42 -6.77729 -1.43719 0
M  V30 13769 N 1277.21 -5.45994 -1.33593 0
M  V30 13770 H 1269.36 -2.05742 0.527617 0
M  V30 13771 H 1271.62 -0.931817 0.174415 0
M  V30 13772 H 1271.33 -3.51655 0.0563954 0
M  V30 13773 H 1271.2 -3.37325 -1.68796 0
M  V30 13774 H 1273.59 -2.38281 -1.74086 0
M  V30 13775 H 1273.67 -2.55794 0.0179973 0
M  V30 13776 H 1273.32 -5.0734 -0.238444 0
M  V30 13777 H 1273.25 -4.86864 -2.00677 0
M  V30 13778 H 1275.74 -3.62766 -1.05874 0
M  V30 13779 H 1276.05 -7.56937 -1.55776 0
M  V30 13780 H 1274.4 -6.80594 -1.40774 0
M  V30 13781 H 1277.59 -4.51641 -1.23035 0
M  V30 13782 H 1277.76 -6.31381 -1.45813 0
M  V30 13783 N 1271.17 0.563888 -1.47167 0
M  V30 13784 C 1272.08 1.69903 -1.61772 0
M  V30 13785 C 1273.09 1.6664 -0.500705 0
M  V30 13786 O 1274.27 1.86209 -0.767354 0
M  V30 13787 C 1271.33 3.06411 -1.62213 0
M  V30 13788 C 1270.39 3.20793 -2.8529 0
M  V30 13789 C 1269.63 4.50789 -2.85701 0
M  V30 13790 O 1269.85 5.3584 -1.95529 0
M  V30 13791 O 1268.78 4.68819 -3.77481 0
M  V30 13792 H 1272.61 1.60525 -2.57809 0
M  V30 13793 H 1270.2 0.733125 -1.30175 0
M  V30 13794 H 1272.08 3.87659 -1.65221 0
M  V30 13795 H 1270.75 3.16186 -0.693415 0
M  V30 13796 H 1269.66 2.38967 -2.87829 0
M  V30 13797 H 1270.99 3.15918 -3.77434 0
M  V30 13798 N 1272.64 1.35187 0.810078 0
M  V30 13799 C 1273.87 1.31371 1.59841 0
M  V30 13800 C 1274.29 -0.109547 1.88482 0
M  V30 13801 O 1273.64 -1.06047 1.48527 0
M  V30 13802 C 1273.7 2.11496 2.93175 0
M  V30 13803 O 1273.42 3.48273 2.65777 0
M  V30 13804 C 1274.92 2.15226 3.87547 0
M  V30 13805 H 1272.14 0.451428 0.496441 0
M  V30 13806 H 1274.68 1.7799 1.00697 0
M  V30 13807 H 1272.84 1.68486 3.48843 0
M  V30 13808 H 1273.25 3.89845 3.50886 0
M  V30 13809 H 1274.72 2.75687 4.78226 0
M  V30 13810 H 1275.2 1.15007 4.23875 0
M  V30 13811 H 1275.81 2.58382 3.37815 0
M  V30 13812 N 1274.12 -1.03182 1.19127 0
M  V30 13813 C 1275.35 -1.79904 1.01578 0
M  V30 13814 C 1275.76 -1.84044 -0.438697 0
M  V30 13815 O 1275.1 -1.28117 -1.3165 0
M  V30 13816 C 1275.17 -3.26473 1.50519 0
M  V30 13817 C 1274.83 -3.45975 2.98581 0
M  V30 13818 C 1275.83 -3.36436 3.96367 0
M  V30 13819 C 1273.51 -3.72284 3.37209 0
M  V30 13820 C 1275.51 -3.52925 5.30775 0
M  V30 13821 C 1273.19 -3.8842 4.71777 0
M  V30 13822 C 1274.19 -3.78742 5.68369 0
M  V30 13823 O 1273.88 -3.94405 7.005 0
M  V30 13824 H 1273.61 -0.573103 0.35851 0
M  V30 13825 H 1276.16 -1.30871 1.5831 0
M  V30 13826 H 1274.39 -3.76517 0.881593 0
M  V30 13827 H 1276.08 -3.84781 1.29223 0
M  V30 13828 H 1276.85 -3.16064 3.6787 0
M  V30 13829 H 1272.73 -3.78911 2.62579 0
M  V30 13830 H 1276.27 -3.45288 6.06153 0
M  V30 13831 H 1272.17 -4.08288 4.99971 0
M  V30 13832 H 1272.94 -4.11514 7.0753 0
M  V30 13833 N 1275.6 -0.99472 -1.22242 0
M  V30 13834 C 1276.55 -0.546504 -2.24236 0
M  V30 13835 C 1277.52 0.422101 -1.60647 0
M  V30 13836 O 1278.7 0.326452 -1.87987 0
M  V30 13837 C 1275.84 0.130909 -3.44852 0
M  V30 13838 C 1274.96 -0.879653 -4.22949 0
M  V30 13839 C 1274.09 -0.175569 -5.3091 0
M  V30 13840 C 1273.13 -1.17438 -6.00729 0
M  V30 13841 N 1272.27 -0.498474 -7.00328 0
M  V30 13842 H 1277.11 -1.42099 -2.61939 0
M  V30 13843 H 1274.64 -0.711755 -1.28734 0
M  V30 13844 H 1276.6 0.540596 -4.13683 0
M  V30 13845 H 1275.23 0.96917 -3.07907 0
M  V30 13846 H 1274.28 -1.40765 -3.53397 0
M  V30 13847 H 1275.6 -1.64017 -4.71062 0
M  V30 13848 H 1274.75 0.290756 -6.06003 0
M  V30 13849 H 1273.49 0.617438 -4.83776 0
M  V30 13850 H 1272.49 -1.65131 -5.24416 0
M  V30 13851 H 1273.72 -1.96829 -6.4995 0
M  V30 13852 H 1271.66 0.275063 -6.55423 0
M  V30 13853 H 1271.58 -1.19741 -7.46457 0
M  V30 13854 H 1272.85 -0.0550119 -7.79481 0
M  V30 13855 O 1277.12 1.33759 -0.905026 0
M  V30 13856 H 1277.81 1.86638 -0.518252 0
M  V30 END ATOM
M  V30 BEGIN BOND
M  V30 END BOND
M  V30 END CTAB
M  END
$$$$
