drugbank_target|Q8DW21 Uncharacterized protein (DB03247)
 OpenBabel12092120273D

  0  0  0     0  0            999 V3000
M  V30 BEGIN CTAB
M  V30 COUNTS 3133 3169 0 0 0
M  V30 BEGIN ATOM
M  V30 1 H -0.908 1.98254 -0.117106 0
M  V30 2 N 0 1.576 0 0
M  V30 3 C 0.933 2.03868 1.02534 0
M  V30 4 C 1.911 0.928543 1.3348 0
M  V30 5 O 3.095 1.19667 1.45644 0
M  V30 6 C 0.222 2.43627 2.35294 0
M  V30 7 C -0.732 3.65373 2.2001 0
M  V30 8 S 0.101 5.13292 1.52614 0
M  V30 9 C 1.257 5.56322 2.86805 0
M  V30 10 H 1.49 2.90518 0.631377 0
M  V30 11 H -0.977 1.52953 0.210867 0
M  V30 12 H 0.981 2.67203 3.11629 0
M  V30 13 H -0.358 1.57376 2.7183 0
M  V30 14 H -1.165 3.90944 3.18086 0
M  V30 15 H -1.563 3.418 1.51819 0
M  V30 16 H 0.729 5.58782 3.83104 0
M  V30 17 H 1.672 6.56266 2.65933 0
M  V30 18 H 2.08 4.83886 2.90714 0
M  V30 19 N 1.4781 -0.272755 1.55222 0
M  V30 20 C 2.7031 -1.02683 1.80197 0
M  V30 21 C 3.1281 -1.79142 0.573551 0
M  V30 22 O 2.4861 -1.74917 -0.476849 0
M  V30 23 C 2.5341 -1.9609 3.02624 0
M  V30 24 O 1.6381 -3.04863 2.77727 0
M  V30 25 H 0.9791 -0.293557 0.595584 0
M  V30 26 H 3.5091 -0.30159 2.02365 0
M  V30 27 H 3.5191 -2.38039 3.31363 0
M  V30 28 H 2.1941 -1.39851 3.91682 0
M  V30 29 H 0.7711 -2.67228 2.60084 0
M  V30 30 N 2.9562 -1.48159 -0.537278 0
M  V30 31 C 3.9042 -1.62573 -1.66352 0
M  V30 32 C 4.8982 -0.492366 -1.62087 0
M  V30 33 O 6.1042 -0.670847 -1.67032 0
M  V30 34 H 2.4792 -0.511992 -0.550789 0
M  V30 35 H 4.4502 -2.57176 -1.51337 0
M  V30 36 C 3.1992 -1.67583 -3.04649 0
M  V30 37 H 2.5222 -2.54151 -3.08622 0
M  V30 38 H 3.9622 -1.81713 -3.83088 0
M  V30 39 C 2.4212 -0.413039 -3.34358 0
M  V30 40 O 2.9512 0.477259 -3.98855 0
M  V30 41 N 1.1572 -0.286961 -2.8918 0
M  V30 42 H 0.7042 -1.01241 -2.36871 0
M  V30 43 H 0.6622 0.556963 -3.09427 0
M  V30 44 N 4.4343 0.785586 -1.36625 0
M  V30 45 C 5.6813 1.54362 -1.31067 0
M  V30 46 C 6.0093 1.94195 0.10893 0
M  V30 47 O 5.2643 1.63262 1.07908 0
M  V30 48 C 5.5633 2.83007 -2.1827 0
M  V30 49 C 5.2293 2.62294 -3.6676 0
M  V30 50 C 3.8913 2.56353 -4.0723 0
M  V30 51 C 6.2433 2.43371 -4.6089 0
M  V30 52 C 3.5713 2.29461 -5.39967 0
M  V30 53 C 5.9233 2.18005 -5.93849 0
M  V30 54 C 4.5873 2.105 -6.3344 0
M  V30 55 H 3.8573 0.564851 -0.479609 0
M  V30 56 H 6.5043 0.906028 -1.68711 0
M  V30 57 H 4.8093 3.51253 -1.73576 0
M  V30 58 H 6.5063 3.40817 -2.11292 0
M  V30 59 H 3.0963 2.67774 -3.34656 0
M  V30 60 H 7.2803 2.46959 -4.30494 0
M  V30 61 H 2.5363 2.22135 -5.69619 0
M  V30 62 H 6.7103 2.02359 -6.66351 0
M  V30 63 H 4.3373 1.89425 -7.36222 0
M  V30 64 N 5.9124 1.20967 1.01018 0
M  V30 65 C 6.8424 0.988272 2.11555 0
M  V30 66 C 7.8234 -0.0849778 1.69888 0
M  V30 67 O 9.0084 0.0738202 1.9406 0
M  V30 68 C 6.1384 0.546528 3.42973 0
M  V30 69 C 5.0924 1.56375 3.9841 0
M  V30 70 C 4.4184 0.97842 5.25672 0
M  V30 71 C 5.7184 2.94922 4.31066 0
M  V30 72 H 7.4124 1.91276 2.30334 0
M  V30 73 H 4.9584 0.921073 1.1069 0
M  V30 74 H 6.9114 0.378839 4.19694 0
M  V30 75 H 5.6354 -0.413598 3.23971 0
M  V30 76 H 4.2944 1.71891 3.23804 0
M  V30 77 H 3.9424 0.0101688 5.02999 0
M  V30 78 H 3.6424 1.65784 5.63728 0
M  V30 79 H 5.1664 0.821939 6.05043 0
M  V30 80 H 6.5804 2.8288 4.9865 0
M  V30 81 H 4.9774 3.5983 4.80253 0
M  V30 82 H 6.0474 3.4616 3.39561 0
M  V30 83 N 7.3905 -1.2043 1.01659 0
M  V30 84 C 8.6675 -1.8548 0.621004 0
M  V30 85 C 9.0475 -1.9091 -0.900919 0
M  V30 86 O 8.3955 -1.41694 -1.79263 0
M  V30 87 C 8.6055 -3.25119 1.2688 0
M  V30 88 C 9.9535 -4.01403 1.38423 0
M  V30 89 O 10.9775 -3.34473 1.22501 0
M  V30 90 O 9.8365 -5.21265 1.64151 0
M  V30 91 H 6.9305 -0.798761 0.214266 0
M  V30 92 H 9.4765 -1.28019 1.11396 0
M  V30 93 H 8.2485 -3.15932 2.30873 0
M  V30 94 H 7.8715 -3.90212 0.762917 0
M  V30 95 N 8.8686 -0.792821 -1.36206 0
M  V30 96 C 9.7986 -0.207853 -2.32573 0
M  V30 97 C 10.7796 0.659055 -1.56813 0
M  V30 98 O 11.9646 0.592176 -1.84951 0
M  V30 99 C 9.0946 0.655449 -3.41059 0
M  V30 100 C 8.0486 -0.111842 -4.27854 0
M  V30 101 C 7.3746 0.872274 -5.27537 0
M  V30 102 C 8.6746 -1.30299 -5.05786 0
M  V30 103 H 10.3686 -1.01294 -2.81744 0
M  V30 104 H 7.9146 -0.48854 -1.3546 0
M  V30 105 H 9.8676 1.07464 -4.07467 0
M  V30 106 H 8.5916 1.49328 -2.90463 0
M  V30 107 H 7.2506 -0.512053 -3.63006 0
M  V30 108 H 6.8986 1.70523 -4.73214 0
M  V30 109 H 6.5986 0.363291 -5.86476 0
M  V30 110 H 8.1226 1.28996 -5.96818 0
M  V30 111 H 9.5366 -0.959379 -5.65216 0
M  V30 112 H 7.9336 -1.7455 -5.74154 0
M  V30 113 H 9.0036 -2.09663 -4.37229 0
M  V30 114 N 10.3467 1.47872 -0.545128 0
M  V30 115 C 11.2787 2.27869 0.246621 0
M  V30 116 C 12.2917 1.36282 0.890561 0
M  V30 117 O 13.4807 1.61207 0.766449 0
M  V30 118 C 10.5807 3.10159 1.36582 0
M  V30 119 C 9.7537 4.29627 0.820954 0
M  V30 120 C 8.8127 4.93607 1.82314 0
M  V30 121 O 7.8387 5.52366 1.37406 0
M  V30 122 N 9.0407 4.87211 3.15603 0
M  V30 123 H 11.8057 2.96459 -0.439539 0
M  V30 124 H 9.3667 1.57367 -0.380421 0
M  V30 125 H 11.3587 3.49829 2.03474 0
M  V30 126 H 9.9287 2.43891 1.9554 0
M  V30 127 H 9.1487 3.94192 -0.0244032 0
M  V30 128 H 10.4367 5.06928 0.436063 0
M  V30 129 H 9.8347 4.40651 3.54744 0
M  V30 130 H 8.3917 5.30937 3.78087 0
M  V30 131 N 11.8248 0.280983 1.55075 0
M  V30 132 C 12.7718 -0.603937 2.22758 0
M  V30 133 C 13.7418 -1.1452 1.20309 0
M  V30 134 O 14.9268 -1.19343 1.48869 0
M  V30 135 C 12.0668 -1.77947 2.95684 0
M  V30 136 C 11.1798 -1.2715 4.12864 0
M  V30 137 C 10.3148 -2.4093 4.7342 0
M  V30 138 C 9.3538 -1.87165 5.82783 0
M  V30 139 N 8.4908 -2.94441 6.37377 0
M  V30 140 H 13.3308 -0.020124 2.97993 0
M  V30 141 H 10.8678 0.00183425 1.471 0
M  V30 142 H 12.8258 -2.47055 3.36184 0
M  V30 143 H 11.4558 -2.33522 2.22861 0
M  V30 144 H 10.5078 -0.473331 3.77444 0
M  V30 145 H 11.8198 -0.837751 4.91715 0
M  V30 146 H 10.9738 -3.18021 5.1667 0
M  V30 147 H 9.7128 -2.87623 3.93859 0
M  V30 148 H 8.7178 -1.08556 5.38976 0
M  V30 149 H 9.9428 -1.41401 6.64216 0
M  V30 150 H 7.8888 -3.40505 5.60707 0
M  V30 151 H 7.8058 -2.55501 7.11516 0
M  V30 152 H 9.0738 -3.71489 6.85285 0
M  V30 153 N 13.3029 -1.57598 0.00835791 0
M  V30 154 C 14.2349 -2.05811 -1.00868 0
M  V30 155 C 15.2479 -0.977579 -1.30182 0
M  V30 156 O 16.4369 -1.25421 -1.27011 0
M  V30 157 C 13.5369 -2.45016 -2.34137 0
M  V30 158 C 12.7099 -3.75903 -2.23643 0
M  V30 159 C 11.7689 -4.01884 -3.3967 0
M  V30 160 O 10.7949 -4.72433 -3.17483 0
M  V30 161 N 11.9969 -3.50432 -4.62793 0
M  V30 162 H 14.7619 -2.93684 -0.597458 0
M  V30 163 H 12.3229 -1.60909 -0.178852 0
M  V30 164 H 14.3149 -2.59506 -3.10546 0
M  V30 165 H 12.8849 -1.62618 -2.66972 0
M  V30 166 H 12.1049 -3.7141 -1.32091 0
M  V30 167 H 13.3929 -4.61695 -2.13812 0
M  V30 168 H 12.7909 -2.93317 -4.83716 0
M  V30 169 H 11.3479 -3.70236 -5.3644 0
M  V30 170 N 14.781 0.264519 -1.55364 0
M  V30 171 C 16.197 0.61215 -1.47394 0
M  V30 172 C 16.397 1.89134 -0.695018 0
M  V30 173 O 15.453 2.51563 -0.217275 0
M  V30 174 C 16.766 0.731235 -2.91674 0
M  V30 175 C 18.314 0.82473 -3.01939 0
M  V30 176 C 18.789 0.975522 -4.4749 0
M  V30 177 N 20.28 1.04083 -4.51354 0
M  V30 178 C 21.015 1.17646 -5.61201 0
M  V30 179 N 20.511 1.27874 -6.80896 0
M  V30 180 N 22.304 1.20823 -5.48961 0
M  V30 181 H 14.455 -0.575456 -2.04456 0
M  V30 182 H 16.718 -0.196099 -0.927496 0
M  V30 183 H 16.424 -0.138392 -3.51428 0
M  V30 184 H 16.298 1.60883 -3.41169 0
M  V30 185 H 18.685 1.68482 -2.42276 0
M  V30 186 H 18.766 -0.0776479 -2.55682 0
M  V30 187 H 18.41 0.120058 -5.07758 0
M  V30 188 H 18.34 1.89268 -4.91412 0
M  V30 189 H 20.831 0.973846 -3.65136 0
M  V30 190 H 21.144 1.38081 -7.60364 0
M  V30 191 H 19.489 1.24863 -6.83692 0
M  V30 192 H 22.68 1.12469 -4.54388 0
M  V30 193 H 22.853 1.31049 -6.3461 0
M  V30 194 N 16.2591 1.48442 0.529413 0
M  V30 195 C 17.6751 1.34575 0.858004 0
M  V30 196 C 17.8751 0.3572 1.98309 0
M  V30 197 O 16.9311 -0.221379 2.51528 0
M  V30 198 C 18.2441 2.74617 1.22499 0
M  V30 199 C 19.7921 2.83109 1.33484 0
M  V30 200 C 20.2671 4.23854 1.73526 0
M  V30 201 N 21.7581 4.2653 1.80628 0
M  V30 202 C 22.4931 5.32372 2.12997 0
M  V30 203 N 21.9891 6.48491 2.43786 0
M  V30 204 N 23.7821 5.19766 2.14008 0
M  V30 205 H 15.9331 2.1133 -0.212925 0
M  V30 206 H 18.1961 0.947439 -0.0326199 0
M  V30 207 H 17.9021 3.4852 0.471905 0
M  V30 208 H 17.7761 3.08177 2.17501 0
M  V30 209 H 20.1631 2.09462 2.0787 0
M  V30 210 H 20.2441 2.53168 0.366027 0
M  V30 211 H 19.8881 4.98018 0.997013 0
M  V30 212 H 19.8181 4.5124 2.71459 0
M  V30 213 H 22.3091 3.42772 1.59108 0
M  V30 214 H 22.6221 7.24993 2.67592 0
M  V30 215 H 20.9671 6.51765 2.41304 0
M  V30 216 H 24.1581 4.28066 1.89412 0
M  V30 217 H 24.3311 6.02354 2.38902 0
M  V30 218 N 17.7372 -0.778329 1.37039 0
M  V30 219 C 18.9622 -1.57248 1.35233 0
M  V30 220 C 19.3872 -1.87999 -0.0615568 0
M  V30 221 O 18.7452 -1.48734 -1.03672 0
M  V30 222 C 18.7932 -2.86353 2.19167 0
M  V30 223 O 17.8972 -3.80442 1.59178 0
M  V30 224 H 17.2382 -0.476569 0.462362 0
M  V30 225 H 19.7682 -0.963853 1.80474 0
M  V30 226 H 19.7782 -3.35519 2.32145 0
M  V30 227 H 18.4532 -2.63299 3.21942 0
M  V30 228 H 17.0302 -3.39067 1.55203 0
M  V30 229 N 19.2153 -1.21501 -1.00376 0
M  V30 230 C 20.4643 -1.02718 -1.73586 0
M  V30 231 C 20.7773 0.439589 -1.90596 0
M  V30 232 O 21.9833 0.746848 -2.61026 0
M  V30 233 C 20.4393 -1.78929 -3.1227 0
M  V30 234 C 20.0473 -3.29783 -3.03228 0
M  V30 235 C 21.7913 -1.68557 -3.89601 0
M  V30 236 C 19.6983 -3.98479 -4.36999 0
M  V30 237 H 18.6283 -0.380733 -0.650814 0
M  V30 238 H 21.2793 -1.45248 -1.1214 0
M  V30 239 H 19.6613 -1.29192 -3.74333 0
M  V30 240 H 20.8353 -3.86832 -2.50395 0
M  V30 241 H 19.1503 -3.40711 -2.39385 0
M  V30 242 H 21.7473 -2.17211 -4.88593 0
M  V30 243 H 22.0903 -0.644021 -4.11288 0
M  V30 244 H 22.6233 -2.15778 -3.34193 0
M  V30 245 H 19.3623 -5.02841 -4.20513 0
M  V30 246 H 18.8823 -3.46219 -4.89788 0
M  V30 247 H 20.5613 -4.03462 -5.05794 0
M  V30 248 N 20.6934 1.19889 -1.02296 0
M  V30 249 C 21.9234 1.93109 -0.734332 0
M  V30 250 C 22.3314 1.75377 0.709889 0
M  V30 251 O 21.6744 1.06912 1.49384 0
M  V30 252 C 21.7364 3.45362 -0.99827 0
M  V30 253 C 21.4004 3.8686 -2.43287 0
M  V30 254 C 22.3974 3.92102 -3.41397 0
M  V30 255 C 20.0824 4.18668 -2.77529 0
M  V30 256 C 22.0764 4.28573 -4.71809 0
M  V30 257 C 19.7634 4.54813 -4.08153 0
M  V30 258 C 20.7614 4.59739 -5.05103 0
M  V30 259 O 20.4494 4.95051 -6.33388 0
M  V30 260 H 20.1814 0.620409 -0.268456 0
M  V30 261 H 22.7354 1.53144 -1.3688 0
M  V30 262 H 20.9654 3.85482 -0.306645 0
M  V30 263 H 22.6544 3.99814 -0.700234 0
M  V30 264 H 23.4204 3.67685 -3.1628 0
M  V30 265 H 19.2994 4.14021 -2.0275 0
M  V30 266 H 22.8434 4.32333 -5.4748 0
M  V30 267 H 18.7404 4.78687 -4.33047 0
M  V30 268 H 19.5084 5.1302 -6.37772 0
M  V30 269 N 22.1715 0.800033 1.35784 0
M  V30 270 C 23.1345 0.211565 2.28221 0
M  V30 271 C 24.1345 -0.59728 1.49296 0
M  V30 272 O 25.3245 -0.416721 1.69142 0
M  V30 273 C 22.4565 -0.705846 3.33513 0
M  V30 274 H 23.6495 1.02677 2.81776 0
M  V30 275 H 21.2025 0.570211 1.45528 0
M  V30 276 H 21.9375 -1.54498 2.85133 0
M  V30 277 H 21.7225 -0.127655 3.91892 0
M  V30 278 H 23.2125 -1.11211 4.02519 0
M  V30 279 N 23.6496 -1.47581 0.552962 0
M  V30 280 C 24.5796 -2.32762 -0.185451 0
M  V30 281 C 25.5606 -1.43527 -0.912905 0
M  V30 282 O 26.7456 -1.72388 -0.894201 0
M  V30 283 C 23.8756 -3.25219 -1.21859 0
M  V30 284 C 22.8296 -4.23661 -0.607864 0
M  V30 285 C 22.1556 -5.05413 -1.74533 0
M  V30 286 C 23.4556 -5.20481 0.435582 0
M  V30 287 H 25.1496 -2.94749 0.525684 0
M  V30 288 H 22.6956 -1.41738 0.254251 0
M  V30 289 H 24.6486 -3.8365 -1.7433 0
M  V30 290 H 23.3726 -2.61279 -1.95961 0
M  V30 291 H 22.0316 -3.66451 -0.104489 0
M  V30 292 H 21.6796 -4.3788 -2.47529 0
M  V30 293 H 21.3796 -5.72059 -1.34249 0
M  V30 294 H 22.9036 -5.66701 -2.27338 0
M  V30 295 H 24.3176 -5.733 -0.00290157 0
M  V30 296 H 22.7146 -5.95305 0.757067 0
M  V30 297 H 23.7846 -4.66217 1.33303 0
M  V30 298 N 25.1277 -0.289203 -1.54924 0
M  V30 299 C 26.3757 0.322879 -1.99504 0
M  V30 300 C 26.6967 1.55313 -1.1791 0
M  V30 301 O 25.9667 1.94001 -0.272097 0
M  V30 302 H 24.5467 0.122291 -0.736922 0
M  V30 303 H 27.2087 -0.397802 -1.90797 0
M  V30 304 H 26.3047 0.603061 -3.06218 0
M  V30 305 N 26.6058 1.57591 -0.0167156 0
M  V30 306 C 27.5528 2.09462 0.969251 0
M  V30 307 C 28.5228 0.99381 1.33089 0
M  V30 308 O 29.7078 1.26726 1.42636 0
M  V30 309 C 26.8478 2.61622 2.25051 0
M  V30 310 C 25.9608 3.85666 1.94642 0
M  V30 311 C 25.0958 4.26266 3.16972 0
M  V30 312 C 24.1348 5.43101 2.82326 0
M  V30 313 N 23.2718 5.78915 3.97243 0
M  V30 314 H 28.1118 2.93428 0.519997 0
M  V30 315 H 25.6488 1.45044 0.245087 0
M  V30 316 H 27.6068 2.89949 2.99976 0
M  V30 317 H 26.2368 1.80505 2.67615 0
M  V30 318 H 25.2888 3.64145 1.10013 0
M  V30 319 H 26.6008 4.70678 1.65117 0
M  V30 320 H 25.7548 4.55963 4.00228 0
M  V30 321 H 24.4938 3.39996 3.49648 0
M  V30 322 H 23.4988 5.1311 1.97479 0
M  V30 323 H 24.7238 6.3106 2.50879 0
M  V30 324 H 22.6698 4.95602 4.29785 0
M  V30 325 H 22.5868 6.58539 3.71299 0
M  V30 326 H 23.8548 6.13212 4.81239 0
M  V30 327 N 28.0839 -0.256276 1.55502 0
M  V30 328 C 29.3119 -1.00342 1.8094 0
M  V30 329 C 29.7269 -1.79307 0.59114 0
M  V30 330 O 29.0839 -1.77114 -0.440081 0
M  V30 331 C 29.1349 -1.94875 3.04476 0
M  V30 332 O 28.8559 -1.19107 4.21598 0
M  V30 333 C 30.3569 -2.81266 3.42644 0
M  V30 334 H 27.5769 -0.295685 0.602338 0
M  V30 335 H 30.1209 -0.281998 2.02546 0
M  V30 336 H 28.2759 -2.62457 2.84947 0
M  V30 337 H 28.6899 -1.82969 4.91551 0
M  V30 338 H 30.1639 -3.43362 4.32211 0
M  V30 339 H 30.6409 -3.51897 2.62802 0
M  V30 340 H 31.2469 -2.1915 3.64491 0
M  V30 341 N 29.562 -1.4872 -0.521534 0
M  V30 342 C 30.808 -1.574 -1.27879 0
M  V30 343 C 31.141 -0.250817 -1.92573 0
M  V30 344 O 30.416 0.743934 -1.79711 0
M  V30 345 C 30.699 -2.71843 -2.36164 0
M  V30 346 C 30.552 -4.13893 -1.76105 0
M  V30 347 C 31.871 -2.82008 -3.37875 0
M  V30 348 H 28.99 -0.572941 -0.463581 0
M  V30 349 H 31.632 -1.80927 -0.580119 0
M  V30 350 H 29.782 -2.51914 -2.95756 0
M  V30 351 H 31.454 -4.45284 -1.20499 0
M  V30 352 H 29.697 -4.20498 -1.06601 0
M  V30 353 H 30.368 -4.89804 -2.5455 0
M  V30 354 H 32.844 -3.00086 -2.88249 0
M  V30 355 H 31.72 -3.63796 -4.11028 0
M  V30 356 H 31.981 -1.90511 -3.98946 0
M  V30 357 N 31.0401 0.771051 -1.3745 0
M  V30 358 C 32.3171 1.519 -1.23231 0
M  V30 359 C 32.6971 2.10383 0.173809 0
M  V30 360 O 32.0451 1.95583 1.18151 0
M  V30 361 C 32.2551 2.59933 -2.32886 0
M  V30 362 C 33.6031 3.27316 -2.70461 0
M  V30 363 O 34.6271 2.70228 -2.32068 0
M  V30 364 O 33.4861 4.30531 -3.36608 0
M  V30 365 H 30.5801 0.672803 -0.480901 0
M  V30 366 H 33.1261 0.807957 -1.49232 0
M  V30 367 H 31.8981 2.14842 -3.27045 0
M  V30 368 H 31.5211 3.38637 -2.08353 0
M  V30 369 N 32.5182 1.22032 0.997298 0
M  V30 370 C 33.4482 1.01065 2.10495 0
M  V30 371 C 34.4292 -0.0669542 1.69968 0
M  V30 372 O 35.6142 0.0943987 1.9397 0
M  V30 373 C 32.7442 0.582874 3.42374 0
M  V30 374 C 31.6982 1.60592 3.96729 0
M  V30 375 C 31.0242 1.03412 5.24605 0
M  V30 376 C 32.3242 2.99478 4.27914 0
M  V30 377 H 34.0182 1.93708 2.28292 0
M  V30 378 H 31.5642 0.932761 1.09707 0
M  V30 379 H 33.5172 0.423332 4.19268 0
M  V30 380 H 32.2412 -0.379213 3.24391 0
M  V30 381 H 30.9002 1.75316 3.21963 0
M  V30 382 H 30.5482 0.063518 5.0296 0
M  V30 383 H 30.2482 1.71754 5.61938 0
M  V30 384 H 31.7722 0.886066 6.04137 0
M  V30 385 H 33.1862 2.88153 4.95622 0
M  V30 386 H 31.5832 3.64903 4.76409 0
M  V30 387 H 32.6532 3.49742 3.3587 0
M  V30 388 N 33.9963 -1.19345 1.0293 0
M  V30 389 C 35.2213 -1.93538 0.745511 0
M  V30 390 C 35.6463 -1.75007 -0.689511 0
M  V30 391 O 35.0043 -1.05265 -1.47611 0
M  V30 392 C 35.0523 -3.43336 1.10239 0
M  V30 393 O 34.1563 -4.11806 0.221289 0
M  V30 394 H 33.4973 -0.604193 0.275404 0
M  V30 395 H 36.0273 -1.5141 1.37609 0
M  V30 396 H 36.0373 -3.94004 1.05947 0
M  V30 397 H 34.7123 -3.56146 2.14786 0
M  V30 398 H 33.2893 -3.715 0.322842 0
M  V30 399 N 35.4744 -0.807222 -1.35358 0
M  V30 400 C 36.4214 -0.216037 -2.29787 0
M  V30 401 C 37.3914 0.650278 -1.52842 0
M  V30 402 O 38.5764 0.595227 -1.81278 0
M  V30 403 C 35.7164 0.628893 -3.39321 0
M  V30 404 C 34.8294 -0.257927 -4.31229 0
M  V30 405 C 33.9644 0.595069 -5.27856 0
M  V30 406 C 33.0034 -0.292111 -6.11403 0
M  V30 407 N 32.1404 0.520895 -7.00165 0
M  V30 408 H 36.9804 -1.02671 -2.79755 0
M  V30 409 H 34.5174 -0.517839 -1.37684 0
M  V30 410 H 36.4754 1.13393 -4.01494 0
M  V30 411 H 35.1054 1.40482 -2.90628 0
M  V30 412 H 34.1574 -0.881076 -3.70056 0
M  V30 413 H 35.4694 -0.940759 -4.89848 0
M  V30 414 H 34.6234 1.16522 -5.95405 0
M  V30 415 H 33.3624 1.31146 -4.69736 0
M  V30 416 H 32.3674 -0.874525 -5.428 0
M  V30 417 H 33.5924 -1.00638 -6.71602 0
M  V30 418 H 31.5384 1.22125 -6.44532 0
M  V30 419 H 31.4554 -0.103877 -7.55929 0
M  V30 420 H 32.7234 1.0743 -7.72062 0
M  V30 421 N 36.9525 1.47285 -0.560781 0
M  V30 422 C 37.9155 2.28535 0.174488 0
M  V30 423 C 38.9155 1.37153 0.839388 0
M  V30 424 O 40.1055 1.59748 0.694702 0
M  V30 425 C 37.2375 3.16934 1.25561 0
M  V30 426 H 38.4305 2.95012 -0.539262 0
M  V30 427 H 35.9835 1.53034 -0.317865 0
M  V30 428 H 36.7185 2.55157 2.00164 0
M  V30 429 H 36.5035 3.8419 0.783604 0
M  V30 430 H 37.9935 3.78143 1.77193 0
M  V30 431 N 38.4306 0.297415 1.54768 0
M  V30 432 C 39.3406 -0.58983 2.27064 0
M  V30 433 C 40.3566 -1.15144 1.30453 0
M  V30 434 O 41.5326 -1.17699 1.63428 0
M  V30 435 C 38.5976 -1.74714 2.9946 0
M  V30 436 C 37.6586 -1.21997 4.11601 0
M  V30 437 C 36.8916 -2.32212 4.80535 0
M  V30 438 O 37.1146 -3.52036 4.48806 0
M  V30 439 O 36.0486 -1.99106 5.68014 0
M  V30 440 H 39.8746 -0.00348199 3.037 0
M  V30 441 H 37.4596 0.0640035 1.49263 0
M  V30 442 H 39.3416 -2.42147 3.44881 0
M  V30 443 H 38.0166 -2.32016 2.25722 0
M  V30 444 H 36.9236 -0.511458 3.70587 0
M  V30 445 H 38.2566 -0.692419 4.87305 0
M  V30 446 N 39.9087 -1.5758 0.0250728 0
M  V30 447 C 40.8387 -2.13007 -0.956575 0
M  V30 448 C 41.8197 -1.0452 -1.342 0
M  V30 449 O 43.0047 -1.32332 -1.42133 0
M  V30 450 C 40.1347 -2.65386 -2.24026 0
M  V30 451 C 39.0887 -3.78623 -1.99571 0
M  V30 452 C 38.4147 -4.17414 -3.3417 0
M  V30 453 C 39.7147 -5.04867 -1.33814 0
M  V30 454 H 41.4087 -2.9528 -0.494991 0
M  V30 455 H 38.9547 -1.42042 -0.236651 0
M  V30 456 H 40.9077 -3.02794 -2.93076 0
M  V30 457 H 39.6317 -1.80268 -2.72343 0
M  V30 458 H 38.2907 -3.41646 -1.32941 0
M  V30 459 H 37.9387 -3.29284 -3.80238 0
M  V30 460 H 37.6387 -4.93719 -3.18615 0
M  V30 461 H 39.1627 -4.57402 -4.04495 0
M  V30 462 H 40.5767 -5.39888 -1.92857 0
M  V30 463 H 38.9737 -5.86144 -1.28669 0
M  V30 464 H 40.0437 -4.83904 -0.310561 0
M  V30 465 N 41.3868 0.248026 -1.55636 0
M  V30 466 C 42.6328 0.97767 -1.77678 0
M  V30 467 C 42.9658 1.85016 -0.590135 0
M  V30 468 O 42.2408 1.90095 0.411611 0
M  V30 469 C 42.5238 1.83914 -3.09593 0
M  V30 470 C 42.3768 0.99491 -4.38659 0
M  V30 471 C 43.6958 2.82183 -3.37729 0
M  V30 472 H 40.8148 0.354005 -0.646413 0
M  V30 473 H 43.4568 0.248253 -1.88371 0
M  V30 474 H 41.6068 2.46104 -3.00608 0
M  V30 475 H 43.2788 0.391789 -4.59633 0
M  V30 476 H 41.5218 0.299231 -4.32767 0
M  V30 477 H 42.1928 1.63145 -5.2734 0
M  V30 478 H 44.6688 2.30129 -3.4667 0
M  V30 479 H 43.5448 3.39582 -4.31249 0
M  V30 480 H 43.8058 3.58588 -2.58586 0
M  V30 481 N 42.8649 1.48995 0.513639 0
M  V30 482 C 43.8279 1.64229 1.59879 0
M  V30 483 C 44.8279 0.514696 1.5234 0
M  V30 484 O 46.0179 0.78087 1.55718 0
M  V30 485 C 43.1499 1.62783 2.99524 0
M  V30 486 H 44.3429 2.61004 1.47705 0
M  V30 487 H 41.8959 1.37837 0.736936 0
M  V30 488 H 42.6309 0.675461 3.17188 0
M  V30 489 H 42.4159 2.4466 3.06404 0
M  V30 490 H 43.9059 1.76669 3.78388 0
M  V30 491 N 44.343 -0.763751 1.37857 0
M  V30 492 C 45.273 -1.89103 1.36975 0
M  V30 493 C 46.254 -1.68439 0.237152 0
M  V30 494 O 47.439 -1.8918 0.438713 0
M  V30 495 C 44.569 -3.26496 1.18395 0
M  V30 496 C 43.523 -3.61741 2.28751 0
M  V30 497 C 42.849 -4.97762 1.95286 0
M  V30 498 C 44.149 -3.67665 3.70972 0
M  V30 499 H 45.843 -1.90099 2.31307 0
M  V30 500 H 43.389 -0.91319 1.11341 0
M  V30 501 H 45.342 -4.05003 1.16406 0
M  V30 502 H 44.066 -3.25955 0.205215 0
M  V30 503 H 42.725 -2.85547 2.29909 0
M  V30 504 H 42.373 -4.93769 0.959221 0
M  V30 505 H 42.073 -5.22313 2.69189 0
M  V30 506 H 43.597 -5.7866 1.94898 0
M  V30 507 H 45.011 -4.36307 3.719 0
M  V30 508 H 43.408 -4.03718 4.43995 0
M  V30 509 H 44.478 -2.68134 4.0402 0
M  V30 510 N 45.8211 -1.22559 -0.990812 0
M  V30 511 C 47.0701 -1.04553 -1.72486 0
M  V30 512 C 47.3831 0.419349 -1.91052 0
M  V30 513 O 48.5891 0.719121 -2.61803 0
M  V30 514 C 47.0451 -1.82231 -3.10355 0
M  V30 515 C 46.6531 -3.32981 -2.99713 0
M  V30 516 C 48.3971 -1.7268 -3.87791 0
M  V30 517 C 46.3041 -4.03091 -4.32748 0
M  V30 518 H 45.2341 -0.387614 -0.646739 0
M  V30 519 H 47.8851 -1.46429 -1.10593 0
M  V30 520 H 46.2671 -1.33155 -3.72942 0
M  V30 521 H 47.4411 -3.89466 -2.46278 0
M  V30 522 H 45.7561 -3.43231 -2.35758 0
M  V30 523 H 48.3531 -2.22381 -4.86262 0
M  V30 524 H 48.6961 -0.687607 -4.10582 0
M  V30 525 H 49.2291 -2.1931 -3.31885 0
M  V30 526 H 45.9681 -5.07273 -4.15156 0
M  V30 527 H 45.4881 -3.51394 -4.86089 0
M  V30 528 H 47.1671 -4.08804 -5.01486 0
M  V30 529 N 47.2992 1.18797 -1.03562 0
M  V30 530 C 48.2312 2.21731 -0.580337 0
M  V30 531 C 49.2442 1.59051 0.347349 0
M  V30 532 O 50.4332 1.77929 0.142669 0
M  V30 533 C 47.5332 3.38459 0.172805 0
M  V30 534 C 46.7062 4.3072 -0.761496 0
M  V30 535 C 45.7652 5.26174 -0.0525547 0
M  V30 536 O 44.7912 5.65108 -0.681333 0
M  V30 537 N 45.9932 5.67624 1.21586 0
M  V30 538 H 48.7582 2.61417 -1.46565 0
M  V30 539 H 46.3192 1.33531 -0.915476 0
M  V30 540 H 48.3112 3.99335 0.656793 0
M  V30 541 H 46.8812 2.97507 0.959602 0
M  V30 542 H 46.1012 3.67525 -1.42544 0
M  V30 543 H 47.3892 4.89267 -1.39626 0
M  V30 544 H 46.7872 5.38038 1.74732 0
M  V30 545 H 45.3442 6.30721 1.64421 0
M  V30 546 N 48.7773 0.814389 1.34928 0
M  V30 547 C 49.7253 0.218424 2.31572 0
M  V30 548 C 50.7193 -0.636128 1.57002 0
M  V30 549 O 51.9253 -0.52842 1.72069 0
M  V30 550 H 48.3003 0.0518799 0.750208 0
M  V30 551 H 50.2713 1.04852 2.79372 0
M  V30 552 C 49.0203 -0.61207 3.4227 0
M  V30 553 H 48.3433 0.0361578 3.99784 0
M  V30 554 H 49.7833 -0.995317 4.12152 0
M  V30 555 C 48.2423 -1.78087 2.85984 0
M  V30 556 O 48.7723 -2.8787 2.80168 0
M  V30 557 N 46.9783 -1.59488 2.42924 0
M  V30 558 H 46.5253 -0.701874 2.47854 0
M  V30 559 H 46.4833 -2.37846 2.05613 0
M  V30 560 N 50.2554 -1.46986 0.568584 0
M  V30 561 C 51.2184 -2.28624 -0.162366 0
M  V30 562 C 52.2184 -1.37596 -0.832103 0
M  V30 563 O 53.4084 -1.60115 -0.68622 0
M  V30 564 C 50.5404 -3.17596 -1.23878 0
M  V30 565 H 51.7334 -2.94722 0.554899 0
M  V30 566 H 49.2864 -1.52863 0.325976 0
M  V30 567 H 50.0214 -2.56214 -1.98808 0
M  V30 568 H 49.8064 -3.846 -0.763219 0
M  V30 569 H 51.2964 -3.79078 -1.75185 0
M  V30 570 N 51.7335 -0.305618 -1.54608 0
M  V30 571 C 52.9825 0.303098 -1.9941 0
M  V30 572 C 53.2955 1.54648 -1.19764 0
M  V30 573 O 54.5015 2.23007 -1.54855 0
M  V30 574 C 52.9575 0.590588 -3.55021 0
M  V30 575 C 52.5655 -0.634719 -4.43481 0
M  V30 576 C 54.3095 1.16025 -4.08336 0
M  V30 577 C 52.2165 -0.320126 -5.90533 0
M  V30 578 H 51.1465 0.117031 -0.744862 0
M  V30 579 H 53.7975 -0.415045 -1.78745 0
M  V30 580 H 52.1795 1.36845 -3.71604 0
M  V30 581 H 53.3535 -1.41079 -4.38672 0
M  V30 582 H 51.6685 -1.12333 -4.00962 0
M  V30 583 H 54.2655 1.40994 -5.15776 0
M  V30 584 H 54.6085 2.10397 -3.5922 0
M  V30 585 H 55.1415 0.443985 -3.95315 0
M  V30 586 H 51.8805 -1.23254 -6.43808 0
M  V30 587 H 51.4005 0.418579 -5.98338 0
M  V30 588 H 53.0795 0.0766241 -6.46955 0
M  V30 589 N 53.2116 1.57565 -0.0334293 0
M  V30 590 C 54.1586 2.10478 0.946981 0
M  V30 591 C 55.1286 1.00787 1.32027 0
M  V30 592 O 56.3136 1.28232 1.41284 0
M  V30 593 C 53.4536 2.63994 2.22263 0
M  V30 594 C 52.5666 3.87709 1.90541 0
M  V30 595 C 51.7016 4.29604 3.12433 0
M  V30 596 C 50.7406 5.46065 2.76549 0
M  V30 597 N 49.8776 5.83096 3.9108 0
M  V30 598 H 54.7176 2.93963 0.488846 0
M  V30 599 H 52.2546 1.45296 0.22969 0
M  V30 600 H 54.2126 2.93114 2.96884 0
M  V30 601 H 52.8426 1.83333 2.65685 0
M  V30 602 H 51.8946 3.65291 1.06144 0
M  V30 603 H 53.2066 4.72403 1.60116 0
M  V30 604 H 52.3606 4.60182 3.9537 0
M  V30 605 H 51.0996 3.43685 3.46023 0
M  V30 606 H 50.1046 5.15176 1.92026 0
M  V30 607 H 51.3296 6.33685 2.44171 0
M  V30 608 H 49.2756 5.00132 4.24504 0
M  V30 609 H 49.1926 6.6244 3.64293 0
M  V30 610 H 50.4606 6.18282 4.74708 0
M  V30 611 N 54.6897 -0.239769 1.55765 0
M  V30 612 C 55.6217 -1.32001 1.87372 0
M  V30 613 C 56.6347 -1.43944 0.760522 0
M  V30 614 O 57.8237 -1.45167 1.0387 0
M  V30 615 C 54.9237 -2.69779 2.05115 0
M  V30 616 C 54.0967 -2.80014 3.36022 0
M  V30 617 C 53.1557 -3.98684 3.4342 0
M  V30 618 O 52.1817 -3.87877 4.16582 0
M  V30 619 N 53.3837 -5.12176 2.73232 0
M  V30 620 H 56.1487 -1.0522 2.80622 0
M  V30 621 H 53.7097 -0.429857 1.56089 0
M  V30 622 H 55.7017 -3.47517 2.07399 0
M  V30 623 H 54.2717 -2.89237 1.18577 0
M  V30 624 H 53.4917 -1.88896 3.45994 0
M  V30 625 H 54.7797 -2.83808 4.22292 0
M  V30 626 H 54.1777 -5.2385 2.13536 0
M  V30 627 H 52.7347 -5.88022 2.81199 0
M  V30 628 N 56.1678 -1.49265 -0.50573 0
M  V30 629 C 57.1308 -1.65075 -1.59006 0
M  V30 630 C 58.1308 -0.522768 -1.52065 0
M  V30 631 O 59.3208 -0.789117 -1.55302 0
M  V30 632 C 56.4528 -1.64369 -2.98656 0
M  V30 633 H 57.6458 -2.61784 -1.46319 0
M  V30 634 H 55.1988 -1.38226 -0.729616 0
M  V30 635 H 55.9338 -0.692272 -3.16825 0
M  V30 636 H 55.7188 -2.46282 -3.05103 0
M  V30 637 H 57.2088 -1.78674 -3.77446 0
M  V30 638 N 57.6459 0.756429 -1.3826 0
M  V30 639 C 59.0569 1.33359 -1.30661 0
M  V30 640 C 59.4079 1.96161 0.0388875 0
M  V30 641 O 58.5329 1.94874 0.940918 0
M  V30 642 C 59.1279 2.42477 -2.36622 0
M  V30 643 C 57.6869 2.95922 -2.3261 0
M  V30 644 C 56.8339 1.69275 -2.19639 0
M  V30 645 H 59.7849 0.55552 -1.4866 0
M  V30 646 H 59.8059 3.22345 -2.02174 0
M  V30 647 H 59.3179 1.96739 -3.34538 0
M  V30 648 H 57.4189 3.45996 -1.38267 0
M  V30 649 H 57.5319 3.50494 -3.26636 0
M  V30 650 H 55.8959 1.92793 -1.66442 0
M  V30 651 H 56.6789 1.25619 -3.19491 0
M  V30 652 N 59.124 1.23083 0.984299 0
M  V30 653 C 60.349 1.088 1.76571 0
M  V30 654 C 60.774 -0.356657 1.84688 0
M  V30 655 O 60.132 -1.25788 1.30565 0
M  V30 656 C 60.18 1.71371 3.17277 0
M  V30 657 O 59.284 0.973213 4.00752 0
M  V30 658 H 58.625 0.381599 0.543395 0
M  V30 659 H 61.155 1.63057 1.23587 0
M  V30 660 H 61.165 1.76449 3.67872 0
M  V30 661 H 59.84 2.76493 3.10684 0
M  V30 662 H 58.417 0.999078 3.59267 0
M  V30 663 N 60.6021 -1.18246 1.0419 0
M  V30 664 C 61.5651 -2.20128 0.638452 0
M  V30 665 C 62.5651 -1.57885 -0.304805 0
M  V30 666 O 63.7551 -1.73967 -0.0900369 0
M  V30 667 C 60.8871 -3.4084 -0.0637751 0
M  V30 668 H 62.0801 -2.57336 1.54007 0
M  V30 669 H 59.6331 -1.32152 0.834598 0
M  V30 670 H 60.3681 -3.09166 -0.979136 0
M  V30 671 H 60.1531 -3.8726 0.614198 0
M  V30 672 H 61.6431 -4.16274 -0.332512 0
M  V30 673 N 62.0802 -0.821533 -1.34494 0
M  V30 674 C 63.3272 -0.408946 -1.98328 0
M  V30 675 C 63.6552 1.02764 -1.65136 0
M  V30 676 O 62.9102 1.73026 -0.914349 0
M  V30 677 C 63.2092 -0.556512 -3.53041 0
M  V30 678 C 62.8752 -1.95861 -4.0614 0
M  V30 679 C 61.5372 -2.34217 -4.20352 0
M  V30 680 C 63.8892 -2.87523 -4.34718 0
M  V30 681 C 61.2172 -3.63572 -4.6047 0
M  V30 682 C 63.5692 -4.1634 -4.76281 0
M  V30 683 C 62.2332 -4.54675 -4.88699 0
M  V30 684 H 61.5032 -0.149644 -0.725732 0
M  V30 685 H 64.1502 -1.04521 -1.6046 0
M  V30 686 H 62.4552 0.163148 -3.9146 0
M  V30 687 H 64.1522 -0.217826 -4.00408 0
M  V30 688 H 60.7422 -1.65066 -3.95539 0
M  V30 689 H 64.9262 -2.59133 -4.23277 0
M  V30 690 H 60.1822 -3.93101 -4.68275 0
M  V30 691 H 64.3562 -4.87455 -4.97354 0
M  V30 692 H 61.9832 -5.54959 -5.19542 0
M  V30 693 N 63.5583 1.46682 -0.576371 0
M  V30 694 C 64.5063 2.31953 0.17335 0
M  V30 695 C 65.5003 1.44098 0.89062 0
M  V30 696 O 66.7063 1.60759 0.809728 0
M  V30 697 H 63.0813 0.748273 0.0747727 0
M  V30 698 H 65.0523 2.93007 -0.564738 0
M  V30 699 C 63.8013 3.27142 1.17786 0
M  V30 700 H 63.1243 3.94719 0.635361 0
M  V30 701 H 64.5643 3.896 1.67296 0
M  V30 702 C 63.0233 2.52036 2.23561 0
M  V30 703 O 63.5533 2.27877 3.3081 0
M  V30 704 N 61.7593 2.12709 1.97998 0
M  V30 705 H 61.3063 2.32557 1.10792 0
M  V30 706 H 61.2643 1.62776 2.68982 0
M  V30 707 N 65.0364 0.313813 1.54444 0
M  V30 708 C 66.2614 -0.296681 2.05267 0
M  V30 709 C 66.6864 -1.45757 1.18897 0
M  V30 710 O 66.0444 -1.80239 0.195886 0
M  V30 711 C 66.0924 -0.71831 3.53373 0
M  V30 712 O 65.1964 -1.82175 3.69981 0
M  V30 713 H 64.5374 -0.0554061 0.661684 0
M  V30 714 H 67.0674 0.459387 1.99376 0
M  V30 715 H 67.0774 -1.00364 3.95463 0
M  V30 716 H 65.7524 0.130821 4.15694 0
M  V30 717 H 64.3294 -1.53598 3.39797 0
M  V30 718 N 66.5145 -1.57545 0.0417849 0
M  V30 719 C 67.4465 -2.07904 -0.964799 0
M  V30 720 C 68.4595 -1.00497 -1.28079 0
M  V30 721 O 69.6485 -1.28087 -1.24322 0
M  V30 722 C 66.7485 -2.49928 -2.28887 0
M  V30 723 C 65.9215 -3.80562 -2.15619 0
M  V30 724 C 64.9805 -4.08999 -3.31069 0
M  V30 725 O 64.0065 -4.79061 -3.0739 0
M  V30 726 N 65.2085 -3.6017 -4.55256 0
M  V30 727 H 67.9735 -2.94886 -0.535029 0
M  V30 728 H 65.5345 -1.61252 -0.144681 0
M  V30 729 H 67.5265 -2.66034 -3.04972 0
M  V30 730 H 66.0965 -1.68245 -2.63463 0
M  V30 731 H 65.3165 -3.74129 -1.24183 0
M  V30 732 H 66.6045 -4.66126 -2.03971 0
M  V30 733 H 66.0025 -3.03512 -4.77386 0
M  V30 734 H 64.5595 -3.81532 -5.28466 0
M  V30 735 N 67.9926 0.231505 -1.5589 0
M  V30 736 C 69.2206 0.974505 -1.82513 0
M  V30 737 C 69.6356 1.78344 -0.619591 0
M  V30 738 O 68.9926 1.77792 0.411848 0
M  V30 739 C 69.0436 1.90007 -3.07538 0
M  V30 740 O 68.7646 1.12385 -4.2344 0
M  V30 741 C 70.2656 2.75779 -3.47075 0
M  V30 742 H 67.4856 0.286065 -0.606966 0
M  V30 743 H 70.0296 0.249739 -2.02969 0
M  V30 744 H 68.1846 2.57891 -2.89086 0
M  V30 745 H 68.5986 1.75125 -4.944 0
M  V30 746 H 70.0726 3.36443 -4.37619 0
M  V30 747 H 70.5496 3.47672 -2.68367 0
M  V30 748 H 71.1556 2.13323 -3.67931 0
M  V30 749 N 69.4707 1.49531 0.497807 0
M  V30 750 C 70.6957 1.63159 1.28039 0
M  V30 751 C 71.1207 0.30418 1.85624 0
M  V30 752 O 70.4787 -0.728618 1.66015 0
M  V30 753 C 70.5267 2.70537 2.38416 0
M  V30 754 O 69.6307 2.29931 3.42353 0
M  V30 755 H 68.9717 0.546001 0.377861 0
M  V30 756 H 71.5017 1.9574 0.59558 0
M  V30 757 H 71.5117 2.92802 2.84132 0
M  V30 758 H 70.1867 3.6689 1.95869 0
M  V30 759 H 68.7637 2.18009 3.02533 0
M  V30 760 N 70.9488 -0.749086 1.3866 0
M  V30 761 C 72.3648 -1.05276 1.19955 0
M  V30 762 C 72.5648 -2.01435 0.05134 0
M  V30 763 O 71.6208 -2.45232 -0.60147 0
M  V30 764 C 72.9338 -1.62853 2.52783 0
M  V30 765 C 74.4818 -1.75002 2.59506 0
M  V30 766 C 74.9568 -2.35991 3.92521 0
M  V30 767 N 76.4478 -2.43416 3.94085 0
M  V30 768 C 77.1828 -2.91511 4.9377 0
M  V30 769 N 76.6788 -3.39608 6.03853 0
M  V30 770 N 78.4718 -2.90592 4.81157 0
M  V30 771 H 70.6228 -0.111066 2.12109 0
M  V30 772 H 72.8858 -0.111901 0.941373 0
M  V30 773 H 72.5918 -0.99664 3.37283 0
M  V30 774 H 72.4658 -2.61854 2.715 0
M  V30 775 H 74.8528 -2.37317 1.75398 0
M  V30 776 H 74.9338 -0.74693 2.44652 0
M  V30 777 H 74.5778 -1.74308 4.77053 0
M  V30 778 H 74.5078 -3.3695 4.04688 0
M  V30 779 H 76.9988 -2.09405 3.14576 0
M  V30 780 H 77.3118 -3.74775 6.75843 0
M  V30 781 H 75.6568 -3.37653 6.07466 0
M  V30 782 H 78.8478 -2.52332 3.94267 0
M  V30 783 H 79.0208 -3.27762 5.58996 0
M  V30 784 N 72.4269 -1.23603 -0.977757 0
M  V30 785 C 73.3899 -1.02069 -2.05218 0
M  V30 786 C 74.3899 0.0184305 -1.60789 0
M  V30 787 O 75.5799 -0.221569 -1.72785 0
M  V30 788 C 72.7119 -0.544926 -3.36517 0
M  V30 789 H 73.9049 -1.9742 -2.25755 0
M  V30 790 H 71.4579 -1.05684 -1.15155 0
M  V30 791 H 72.1929 0.412241 -3.21669 0
M  V30 792 H 71.9779 -1.2948 -3.70105 0
M  V30 793 H 73.4679 -0.414985 -4.15533 0
M  V30 794 N 73.905 1.17692 -1.04816 0
M  V30 795 C 74.835 2.23777 -0.666791 0
M  V30 796 C 75.816 1.66796 0.33361 0
M  V30 797 O 77.001 1.93039 0.212042 0
M  V30 798 C 74.131 3.47281 -0.0367933 0
M  V30 799 C 73.085 4.17059 -0.961546 0
M  V30 800 C 72.411 5.34342 -0.195626 0
M  V30 801 C 73.711 4.69713 -2.28402 0
M  V30 802 H 75.405 2.55933 -1.55367 0
M  V30 803 H 72.951 1.23019 -0.748484 0
M  V30 804 H 74.904 4.20706 0.241775 0
M  V30 805 H 73.628 3.14381 0.885004 0
M  V30 806 H 72.287 3.45541 -1.22462 0
M  V30 807 H 71.935 4.97692 0.728816 0
M  V30 808 H 71.635 5.81966 -0.811775 0
M  V30 809 H 73.159 6.10553 0.0757473 0
M  V30 810 H 74.573 5.34794 -2.06563 0
M  V30 811 H 72.97 5.279 -2.8538 0
M  V30 812 H 74.04 3.86726 -2.92525 0
M  V30 813 N 75.3831 0.828654 1.34056 0
M  V30 814 C 76.6291 0.42008 1.98402 0
M  V30 815 C 76.9621 -1.01564 1.65525 0
M  V30 816 O 76.2371 -1.70834 0.929831 0
M  V30 817 C 76.5201 0.62927 3.54559 0
M  V30 818 C 76.3731 2.11152 3.97159 0
M  V30 819 C 77.6921 0.0688756 4.40046 0
M  V30 820 H 74.8111 0.154104 0.720709 0
M  V30 821 H 77.4531 1.04228 1.5886 0
M  V30 822 H 75.6031 0.0996418 3.88372 0
M  V30 823 H 77.2751 2.70522 3.73651 0
M  V30 824 H 75.5181 2.59985 3.47261 0
M  V30 825 H 76.1891 2.20868 5.05887 0
M  V30 826 H 78.6651 0.521458 4.1282 0
M  V30 827 H 77.5411 0.245006 5.48353 0
M  V30 828 H 77.8021 -1.0266 4.30015 0
M  V30 829 N 76.8612 -1.46375 0.584142 0
M  V30 830 C 77.7912 -2.33103 -0.136037 0
M  V30 831 C 78.7722 -1.45431 -0.882255 0
M  V30 832 O 79.9572 -1.74246 -0.857434 0
M  V30 833 C 77.0872 -3.27731 -1.14933 0
M  V30 834 C 76.0412 -4.24855 -0.517862 0
M  V30 835 C 75.3672 -5.09001 -1.63773 0
M  V30 836 C 76.6672 -5.19439 0.545886 0
M  V30 837 H 78.3612 -2.93568 0.588086 0
M  V30 838 H 75.9072 -1.41166 0.284259 0
M  V30 839 H 77.8602 -3.87261 -1.66153 0
M  V30 840 H 76.5842 -2.65377 -1.90375 0
M  V30 841 H 75.2432 -3.6659 -0.0267361 0
M  V30 842 H 74.8912 -4.43031 -2.38185 0
M  V30 843 H 74.5912 -5.74777 -1.22085 0
M  V30 844 H 76.1152 -5.71396 -2.15266 0
M  V30 845 H 77.5292 -5.73177 0.118704 0
M  V30 846 H 75.9262 -5.93566 0.88317 0
M  V30 847 H 76.9962 -4.63285 1.43162 0
M  V30 848 N 78.3393 -0.321999 -1.54275 0
M  V30 849 C 79.5863 0.281044 -2.0054 0
M  V30 850 C 79.9143 1.52265 -1.21019 0
M  V30 851 O 79.1693 1.93687 -0.279982 0
M  V30 852 C 79.4683 0.661769 -3.5122 0
M  V30 853 C 79.1343 -0.480482 -4.48333 0
M  V30 854 C 77.7963 -0.794005 -4.74604 0
M  V30 855 C 80.1483 -1.24783 -5.06042 0
M  V30 856 C 77.4763 -1.87763 -5.55844 0
M  V30 857 C 79.8283 -2.32153 -5.88462 0
M  V30 858 C 78.4923 -2.64089 -6.13036 0
M  V30 859 H 77.7623 0.102841 -0.733829 0
M  V30 860 H 80.4093 -0.445453 -1.86247 0
M  V30 861 H 78.7143 1.46867 -3.63232 0
M  V30 862 H 80.4113 1.13989 -3.84457 0
M  V30 863 H 77.0013 -0.226039 -4.28004 0
M  V30 864 H 81.1853 -1.01887 -4.85729 0
M  V30 865 H 76.4413 -2.12954 -5.73115 0
M  V30 866 H 80.6153 -2.92057 -6.32199 0
M  V30 867 H 78.2423 -3.48185 -6.75775 0
M  V30 868 N 79.8174 1.5752 -0.0501392 0
M  V30 869 C 81.0654 1.9227 0.622642 0
M  V30 870 C 81.3864 0.929083 1.71444 0
M  V30 871 O 80.6564 -0.0262186 1.95882 0
M  V30 872 H 79.2364 0.709739 0.232981 0
M  V30 873 H 81.8984 1.94628 -0.102898 0
M  V30 874 H 80.9944 2.93479 1.06191 0
M  V30 875 N 81.2955 -0.223234 1.56011 0
M  V30 876 C 82.2275 -1.30006 1.88762 0
M  V30 877 C 83.2405 -1.43129 0.775746 0
M  V30 878 O 84.4295 -1.44057 1.05403 0
M  V30 879 C 81.5295 -2.67589 2.07965 0
M  V30 880 C 80.7025 -2.76434 3.38973 0
M  V30 881 C 79.7615 -3.95019 3.47629 0
M  V30 882 O 78.7875 -3.83436 4.20672 0
M  V30 883 N 79.9895 -5.09249 2.78649 0
M  V30 884 H 82.7545 -1.02238 2.81722 0
M  V30 885 H 80.3155 -0.413278 1.56536 0
M  V30 886 H 82.3075 -3.45297 2.11073 0
M  V30 887 H 80.8775 -2.87964 1.21638 0
M  V30 888 H 80.0975 -1.85216 3.47978 0
M  V30 889 H 81.3855 -2.79313 4.25278 0
M  V30 890 H 80.7835 -5.21556 2.19081 0
M  V30 891 H 79.3405 -5.85007 2.8742 0
M  V30 892 N 82.7736 -1.49793 -0.48987 0
M  V30 893 C 84.0506 -1.50348 -1.25119 0
M  V30 894 C 84.4306 -0.237466 -2.0976 0
M  V30 895 O 83.7786 0.77981 -2.14782 0
M  V30 896 C 83.9886 -2.78872 -2.09837 0
M  V30 897 C 85.3366 -3.288 -2.68655 0
M  V30 898 O 86.3606 -2.80065 -2.20096 0
M  V30 899 O 85.2196 -4.13707 -3.57083 0
M  V30 900 H 82.3136 -0.602242 -0.566775 0
M  V30 901 H 84.8596 -1.62067 -0.503229 0
M  V30 902 H 83.6316 -3.62499 -1.47343 0
M  V30 903 H 83.2546 -2.70066 -2.91805 0
M  V30 904 N 84.2517 0.741722 -1.39055 0
M  V30 905 C 85.4767 1.53607 -1.39354 0
M  V30 906 C 85.9017 1.88096 0.0116905 0
M  V30 907 O 85.2597 1.5143 0.996924 0
M  V30 908 C 85.3077 2.80441 -2.26682 0
M  V30 909 O 84.4117 3.76088 -1.69208 0
M  V30 910 H 83.7527 0.464142 -0.474835 0
M  V30 911 H 86.2827 0.915665 -1.82967 0
M  V30 912 H 86.2927 3.29246 -2.40959 0
M  V30 913 H 84.9677 2.5467 -3.2881 0
M  V30 914 H 83.5447 3.34833 -1.64138 0
M  V30 915 N 85.7298 1.2412 0.971189 0
M  V30 916 C 86.6618 0.988349 2.06795 0
M  V30 917 C 87.6748 -0.0409541 1.62748 0
M  V30 918 O 88.8638 0.195673 1.77424 0
M  V30 919 C 85.9638 0.469023 3.35639 0
M  V30 920 C 85.1368 1.56065 4.08611 0
M  V30 921 C 84.1958 1.04458 5.15728 0
M  V30 922 O 83.2218 1.73553 5.42096 0
M  V30 923 N 84.4238 -0.122817 5.8037 0
M  V30 924 H 87.1888 1.93265 2.29061 0
M  V30 925 H 84.7498 1.15102 1.13856 0
M  V30 926 H 86.7418 0.108613 4.04554 0
M  V30 927 H 85.3118 -0.380919 3.1027 0
M  V30 928 H 84.5318 2.09341 3.34021 0
M  V30 929 H 85.8198 2.29449 4.54126 0
M  V30 930 H 85.2178 -0.700563 5.61345 0
M  V30 931 H 83.7748 -0.424404 6.50417 0
M  V30 932 N 87.2079 -1.17134 1.05439 0
M  V30 933 C 88.4849 -1.83411 0.679699 0
M  V30 934 C 88.8649 -1.9368 -0.839726 0
M  V30 935 O 88.2129 -1.47325 -1.74664 0
M  V30 936 C 88.4229 -3.20918 1.37159 0
M  V30 937 C 89.7709 -3.96796 1.51123 0
M  V30 938 O 90.7949 -3.30406 1.3308 0
M  V30 939 O 89.6539 -5.15778 1.80651 0
M  V30 940 H 86.7479 -0.79154 0.239569 0
M  V30 941 H 89.2939 -1.24411 1.15413 0
M  V30 942 H 88.0659 -3.08428 2.40807 0
M  V30 943 H 87.6889 -3.87587 0.886674 0
M  V30 944 N 88.686 -0.835752 -1.33615 0
M  V30 945 C 89.933 -0.429959 -1.97883 0
M  V30 946 C 90.261 1.01006 -1.66217 0
M  V30 947 O 89.516 1.72047 -0.93265 0
M  V30 948 C 89.815 -0.593925 -3.52431 0
M  V30 949 C 89.481 -2.00158 -4.04039 0
M  V30 950 C 88.143 -2.38662 -4.17844 0
M  V30 951 C 90.495 -2.92117 -4.31644 0
M  V30 952 C 87.823 -3.68435 -4.56588 0
M  V30 953 C 90.175 -4.21368 -4.71838 0
M  V30 954 C 88.839 -4.59833 -4.83849 0
M  V30 955 H 88.109 -0.157333 -0.724104 0
M  V30 956 H 90.756 -1.06217 -1.59343 0
M  V30 957 H 89.061 0.121619 -3.91611 0
M  V30 958 H 90.758 -0.260282 -4.00154 0
M  V30 959 H 87.348 -1.69252 -3.93766 0
M  V30 960 H 91.532 -2.63608 -4.20505 0
M  V30 961 H 86.788 -3.98046 -4.64079 0
M  V30 962 H 90.962 -4.92703 -4.92155 0
M  V30 963 H 88.589 -5.60438 -5.13627 0
M  V30 964 N 90.1641 1.46063 -0.591896 0
M  V30 965 C 91.4101 2.03203 -0.0894879 0
M  V30 966 C 91.7651 1.45407 1.25994 0
M  V30 967 O 91.0581 0.61326 1.8152 0
M  V30 968 C 91.2521 3.57391 0.0249813 0
M  V30 969 C 91.0811 4.30142 -1.3118 0
M  V30 970 C 89.8511 4.68688 -1.88838 0
M  V30 971 C 92.0491 4.63098 -2.23708 0
M  V30 972 N 90.0311 5.26228 -3.1616 0
M  V30 973 C 91.4021 5.21305 -3.3562 0
M  V30 974 C 93.4571 4.45031 -2.23274 0
M  V30 975 C 92.1601 5.63351 -4.47245 0
M  V30 976 C 94.1861 4.881 -3.33935 0
M  V30 977 C 93.5481 5.46386 -4.44569 0
M  V30 978 H 89.6471 0.778323 -0.0757431 0
M  V30 979 H 92.2311 1.78094 -0.78681 0
M  V30 980 H 90.4021 3.82195 0.69149 0
M  V30 981 H 92.1341 4.0118 0.532613 0
M  V30 982 H 88.8891 4.5174 -1.42223 0
M  V30 983 H 89.3131 5.59512 -3.8115 0
M  V30 984 H 93.9551 3.99295 -1.39008 0
M  V30 985 H 91.6731 6.08061 -5.32247 0
M  V30 986 H 95.2591 4.75866 -3.34728 0
M  V30 987 H 94.1391 5.79102 -5.28782 0
M  V30 988 N 91.6422 0.330177 1.54103 0
M  V30 989 C 92.5902 -0.548226 2.26047 0
M  V30 990 C 93.5842 -1.11309 1.27698 0
M  V30 991 O 94.7902 -1.06036 1.45452 0
M  V30 992 H 91.1652 -0.195456 0.726155 0
M  V30 993 H 93.1362 0.0807567 2.98291 0
M  V30 994 C 91.8852 -1.69415 3.03634 0
M  V30 995 H 91.2082 -1.26876 3.79134 0
M  V30 996 H 92.6482 -2.28423 3.5721 0
M  V30 997 C 91.1072 -2.61569 2.12328 0
M  V30 998 O 91.6372 -3.63462 1.7105 0
M  V30 999 N 89.8432 -2.29952 1.77681 0
M  V30 1000 H 89.3902 -1.47134 2.11446 0
M  V30 1001 H 89.3482 -2.91871 1.16869 0
M  V30 1002 N 93.1203 -1.57491 0.0584922 0
M  V30 1003 C 94.0673 -2.11958 -0.913376 0
M  V30 1004 C 95.0373 -1.02875 -1.30407 0
M  V30 1005 O 96.2223 -1.30464 -1.39226 0
M  V30 1006 C 93.3623 -2.67497 -2.18035 0
M  V30 1007 C 92.4753 -3.90691 -1.84349 0
M  V30 1008 C 91.6103 -4.3452 -3.05559 0
M  V30 1009 C 90.6493 -5.50395 -2.67827 0
M  V30 1010 N 89.7863 -5.89244 -3.81754 0
M  V30 1011 H 94.6263 -2.94704 -0.442017 0
M  V30 1012 H 92.1633 -1.45643 -0.206545 0
M  V30 1013 H 94.1213 -2.978 -2.92183 0
M  V30 1014 H 92.7513 -1.87537 -2.62735 0
M  V30 1015 H 91.8033 -3.66934 -1.00319 0
M  V30 1016 H 93.1153 -4.7489 -1.5258 0
M  V30 1017 H 92.2693 -4.66414 -3.87998 0
M  V30 1018 H 91.0083 -3.49147 -3.40511 0
M  V30 1019 H 90.0133 -5.18165 -1.83806 0
M  V30 1020 H 91.2383 -6.3749 -2.34059 0
M  V30 1021 H 89.1843 -5.06823 -4.16493 0
M  V30 1022 H 89.1013 -6.68151 -3.53708 0
M  V30 1023 H 90.3693 -6.25756 -4.64811 0
M  V30 1024 N 94.5984 0.214957 -1.56127 0
M  V30 1025 C 95.8474 0.936451 -1.78643 0
M  V30 1026 C 96.1604 1.85237 -0.628229 0
M  V30 1027 O 97.3664 2.613 -0.737186 0
M  V30 1028 C 95.8224 1.7154 -3.16389 0
M  V30 1029 C 95.4304 0.845299 -4.39953 0
M  V30 1030 C 97.1744 2.42772 -3.48227 0
M  V30 1031 C 95.0814 1.62198 -5.68723 0
M  V30 1032 H 94.0114 0.353401 -0.666051 0
M  V30 1033 H 96.6624 0.190169 -1.82512 0
M  V30 1034 H 95.0444 2.50484 -3.06715 0
M  V30 1035 H 96.2184 0.0959353 -4.607 0
M  V30 1036 H 94.5334 0.244789 -4.1568 0
M  V30 1037 H 97.1304 3.01394 -4.41663 0
M  V30 1038 H 97.4734 3.15984 -2.71035 0
M  V30 1039 H 98.0064 1.70813 -3.5926 0
M  V30 1040 H 94.7454 0.933011 -6.48826 0
M  V30 1041 H 94.2654 2.34579 -5.52026 0
M  V30 1042 H 95.9444 2.18095 -6.09133 0
M  V30 1043 N 96.0765 1.50051 0.48192 0
M  V30 1044 C 97.0395 1.67584 1.5636 0
M  V30 1045 C 98.0395 0.546894 1.51214 0
M  V30 1046 O 99.2295 0.813725 1.54026 0
M  V30 1047 C 96.3615 1.691 2.96003 0
M  V30 1048 H 97.5545 2.64078 1.42136 0
M  V30 1049 H 95.1075 1.39369 0.707533 0
M  V30 1050 H 95.8425 0.742589 3.15684 0
M  V30 1051 H 95.6275 2.51105 3.01146 0
M  V30 1052 H 97.1175 1.84656 3.74556 0
M  V30 1053 N 97.5546 -0.734337 1.39446 0
M  V30 1054 C 98.7846 -1.52137 1.39778 0
M  V30 1055 C 99.1926 -1.89198 -0.00929312 0
M  V30 1056 O 98.5356 -1.54666 -0.991168 0
M  V30 1057 C 98.5976 -2.83762 2.20724 0
M  V30 1058 C 98.2616 -2.69131 3.69347 0
M  V30 1059 C 99.2586 -2.37635 4.62413 0
M  V30 1060 C 96.9436 -2.85982 4.1294 0
M  V30 1061 C 98.9376 -2.23172 5.97054 0
M  V30 1062 C 96.6246 -2.71137 5.47657 0
M  V30 1063 C 97.6226 -2.39777 6.39528 0
M  V30 1064 O 97.3106 -2.25026 7.71763 0
M  V30 1065 H 97.0426 -0.476717 0.479288 0
M  V30 1066 H 99.5966 -0.915012 1.83893 0
M  V30 1067 H 97.8266 -3.4666 1.71359 0
M  V30 1068 H 99.5156 -3.45383 2.13226 0
M  V30 1069 H 100.282 -2.24267 4.30034 0
M  V30 1070 H 96.1606 -3.09383 3.41765 0
M  V30 1071 H 99.7046 -1.98617 6.68728 0
M  V30 1072 H 95.6016 -2.84083 5.79626 0
M  V30 1073 H 96.3696 -2.40091 7.82495 0
M  V30 1074 N 99.0327 -1.24633 -0.964593 0
M  V30 1075 C 100.258 -1.11596 -1.74818 0
M  V30 1076 C 100.683 0.32723 -1.85232 0
M  V30 1077 O 100.041 1.23695 -1.32549 0
M  V30 1078 C 100.089 -1.76397 -3.1451 0
M  V30 1079 O 99.1927 -1.03685 -3.99153 0
M  V30 1080 H 98.5337 -0.390196 -0.537255 0
M  V30 1081 H 101.064 -1.65002 -1.20977 0
M  V30 1082 H 101.074 -1.8228 -3.65018 0
M  V30 1083 H 99.7487 -2.81401 -3.06246 0
M  V30 1084 H 98.3257 -1.05611 -3.57632 0
M  V30 1085 N 100.511 1.16574 -1.06058 0
M  V30 1086 C 101.421 2.2452 -0.680282 0
M  V30 1087 C 102.437 1.71348 0.302604 0
M  V30 1088 O 103.613 2.00822 0.152513 0
M  V30 1089 C 100.678 3.46629 -0.0700315 0
M  V30 1090 C 99.7388 4.14849 -1.10448 0
M  V30 1091 C 98.9718 5.31129 -0.523256 0
M  V30 1092 O 99.1948 5.66514 0.664709 0
M  V30 1093 O 98.1288 5.88526 -1.26179 0
M  V30 1094 H 101.955 2.59355 -1.58015 0
M  V30 1095 H 99.5398 1.24043 -0.832694 0
M  V30 1096 H 101.422 4.20543 0.268667 0
M  V30 1097 H 100.097 3.13573 0.803353 0
M  V30 1098 H 99.0038 3.42916 -1.49532 0
M  V30 1099 H 100.337 4.51954 -1.94931 0
M  V30 1100 N 101.989 0.842826 1.3317 0
M  V30 1101 C 102.919 0.294028 2.31641 0
M  V30 1102 C 103.9 -0.600401 1.59151 0
M  V30 1103 O 105.085 -0.523124 1.87022 0
M  V30 1104 C 102.215 -0.528416 3.43257 0
M  V30 1105 C 101.169 0.27056 4.27144 0
M  V30 1106 C 100.495 -0.675881 5.30411 0
M  V30 1107 C 101.795 1.48981 5.00602 0
M  V30 1108 H 103.489 1.11681 2.77791 0
M  V30 1109 H 101.035 0.538478 1.33553 0
M  V30 1110 H 102.988 -0.922674 4.11175 0
M  V30 1111 H 101.712 -1.38445 2.95805 0
M  V30 1112 H 100.371 0.646427 3.60856 0
M  V30 1113 H 100.019 -1.52842 4.79216 0
M  V30 1114 H 99.7189 -0.145374 5.8742 0
M  V30 1115 H 101.243 -1.06757 6.01195 0
M  V30 1116 H 102.657 1.16849 5.61266 0
M  V30 1117 H 101.054 1.95739 5.6728 0
M  V30 1118 H 102.124 2.25746 4.29147 0
M  V30 1119 N 103.467 -1.45747 0.599634 0
M  V30 1120 C 104.377 -2.34262 -0.125888 0
M  V30 1121 C 105.393 -1.50768 -0.868625 0
M  V30 1122 O 106.569 -1.83592 -0.828003 0
M  V30 1123 C 103.634 -3.28252 -1.11587 0
M  V30 1124 C 102.695 -4.27651 -0.375956 0
M  V30 1125 C 101.928 -5.1715 -1.31877 0
M  V30 1126 O 102.151 -5.09916 -2.55621 0
M  V30 1127 O 101.085 -5.96286 -0.820157 0
M  V30 1128 H 104.911 -2.97688 0.601315 0
M  V30 1129 H 102.496 -1.44999 0.359934 0
M  V30 1130 H 104.378 -3.86191 -1.68626 0
M  V30 1131 H 103.053 -2.67401 -1.82424 0
M  V30 1132 H 101.96 -3.7335 0.236698 0
M  V30 1133 H 103.293 -4.91334 0.29177 0
M  V30 1134 N 104.945 -0.338344 -1.53925 0
M  V30 1135 C 105.892 0.520845 -2.24846 0
M  V30 1136 C 106.862 1.09976 -1.24477 0
M  V30 1137 O 108.047 1.13735 -1.53196 0
M  V30 1138 C 105.187 1.6685 -3.02084 0
M  V30 1139 C 104.3 1.11739 -4.17299 0
M  V30 1140 C 103.435 2.23193 -4.82036 0
M  V30 1141 C 102.474 1.65407 -5.89328 0
M  V30 1142 N 101.611 2.70582 -6.47866 0
M  V30 1143 H 106.451 -0.0904881 -2.97863 0
M  V30 1144 H 103.988 -0.0564282 -1.46992 0
M  V30 1145 H 105.946 2.34407 -3.45122 0
M  V30 1146 H 104.576 2.2509 -2.31375 0
M  V30 1147 H 103.628 0.332919 -3.7894 0
M  V30 1148 H 104.94 0.654677 -4.94485 0
M  V30 1149 H 104.094 2.98626 -5.28117 0
M  V30 1150 H 102.833 2.72807 -4.04262 0
M  V30 1151 H 101.838 0.884779 -5.42634 0
M  V30 1152 H 103.063 1.16652 -6.69006 0
M  V30 1153 H 101.009 3.1946 -5.72959 0
M  V30 1154 H 100.926 2.28917 -7.20509 0
M  V30 1155 H 102.194 3.45799 -6.98601 0
M  V30 1156 N 106.423 1.57458 -0.0668435 0
M  V30 1157 C 107.669 1.93587 0.6043 0
M  V30 1158 C 108.002 0.946722 1.69561 0
M  V30 1159 O 107.277 -0.0248516 1.94484 0
M  V30 1160 C 107.56 3.40014 1.18585 0
M  V30 1161 C 107.413 4.49685 0.101529 0
M  V30 1162 C 108.732 3.87154 2.09284 0
M  V30 1163 H 105.851 0.703958 0.218202 0
M  V30 1164 H 108.493 1.89542 -0.131804 0
M  V30 1165 H 106.643 3.43592 1.81319 0
M  V30 1166 H 108.315 4.5823 -0.531279 0
M  V30 1167 H 106.558 4.30059 -0.568487 0
M  V30 1168 H 107.229 5.49266 0.54874 0
M  V30 1169 H 109.705 3.85551 1.56491 0
M  V30 1170 H 108.581 4.90231 2.46911 0
M  V30 1171 H 108.842 3.2481 2.99918 0
M  V30 1172 N 107.901 -0.206675 1.56239 0
M  V30 1173 C 109.129 -0.945345 1.8404 0
M  V30 1174 C 109.544 -1.77336 0.647885 0
M  V30 1175 O 108.901 -1.78425 -0.383511 0
M  V30 1176 C 108.952 -1.8509 3.10522 0
M  V30 1177 O 108.673 -1.05634 4.25174 0
M  V30 1178 C 110.174 -2.70222 3.51418 0
M  V30 1179 H 107.394 -0.276372 0.61144 0
M  V30 1180 H 109.938 -0.217417 2.03341 0
M  V30 1181 H 108.093 -2.53259 2.93153 0
M  V30 1182 H 108.507 -1.67238 4.97124 0
M  V30 1183 H 109.981 -3.29438 4.42916 0
M  V30 1184 H 110.458 -3.43358 2.73864 0
M  V30 1185 H 111.064 -2.07443 3.71278 0
M  V30 1186 N 109.379 -1.50304 -0.473955 0
M  V30 1187 C 110.79 -1.54042 -1.0549 0
M  V30 1188 C 111.141 -0.342248 -1.93192 0
M  V30 1189 O 110.266 0.545157 -2.09421 0
M  V30 1190 C 110.861 -2.79152 -1.91989 0
M  V30 1191 C 109.42 -2.8558 -2.45196 0
M  V30 1192 C 108.567 -2.48295 -1.2347 0
M  V30 1193 H 111.518 -1.5661 -0.256693 0
M  V30 1194 H 111.539 -2.60845 -2.7702 0
M  V30 1195 H 111.051 -3.66339 -1.28131 0
M  V30 1196 H 109.152 -2.02738 -3.12615 0
M  V30 1197 H 109.265 -3.88403 -2.80499 0
M  V30 1198 H 107.629 -2.00669 -1.56856 0
M  V30 1199 H 108.412 -3.37787 -0.612789 0
M  V30 1200 N 110.857 0.726932 -1.39834 0
M  V30 1201 C 111.82 1.82269 -1.38962 0
M  V30 1202 C 112.82 1.58248 -0.285334 0
M  V30 1203 O 114.01 1.65499 -0.54366 0
M  V30 1204 C 111.142 3.20186 -1.17019 0
M  V30 1205 H 112.335 1.84443 -2.36476 0
M  V30 1206 H 109.888 0.931416 -1.25516 0
M  V30 1207 H 110.623 3.23669 -0.202204 0
M  V30 1208 H 110.408 3.3902 -1.96998 0
M  V30 1209 H 111.898 4.00235 -1.1917 0
M  V30 1210 N 112.336 1.25143 0.95797 0
M  V30 1211 C 113.246 1.06968 2.08794 0
M  V30 1212 C 114.262 0.00773911 1.73998 0
M  V30 1213 O 115.438 0.207972 2.00323 0
M  V30 1214 C 112.503 0.68691 3.39827 0
M  V30 1215 C 111.564 1.82641 3.88511 0
M  V30 1216 C 110.797 1.46181 5.1329 0
M  V30 1217 O 111.02 0.355971 5.69288 0
M  V30 1218 O 109.954 2.29085 5.566 0
M  V30 1219 H 113.78 2.01723 2.27027 0
M  V30 1220 H 111.365 1.04051 1.07209 0
M  V30 1221 H 113.247 0.485417 4.18595 0
M  V30 1222 H 111.922 -0.231417 3.22872 0
M  V30 1223 H 110.829 2.08274 3.10762 0
M  V30 1224 H 112.162 2.72386 4.09959 0
M  V30 1225 N 113.814 -1.1601 1.06675 0
M  V30 1226 C 114.777 -2.18724 0.685001 0
M  V30 1227 C 115.777 -1.58496 -0.271246 0
M  V30 1228 O 116.967 -1.74119 -0.0531156 0
M  V30 1229 C 114.099 -3.40899 0.00853648 0
M  V30 1230 H 115.292 -2.54011 1.59431 0
M  V30 1231 H 112.845 -1.30352 0.862441 0
M  V30 1232 H 113.58 -3.11173 -0.913337 0
M  V30 1233 H 113.365 -3.8587 0.696204 0
M  V30 1234 H 114.855 -4.16886 -0.24414 0
M  V30 1235 N 115.292 -0.849877 -1.32721 0
M  V30 1236 C 116.539 -0.450923 -1.97416 0
M  V30 1237 C 116.867 0.992376 -1.67279 0
M  V30 1238 O 116.122 1.71048 -0.950845 0
M  V30 1239 C 116.421 -0.631272 -3.51781 0
M  V30 1240 C 116.087 -2.04432 -4.01894 0
M  V30 1241 C 114.749 -2.4308 -4.1529 0
M  V30 1242 C 117.101 -2.96679 -4.28522 0
M  V30 1243 C 114.429 -3.73257 -4.52654 0
M  V30 1244 C 116.781 -4.26349 -4.67343 0
M  V30 1245 C 115.445 -4.64939 -4.78945 0
M  V30 1246 H 114.715 -0.165004 -0.722395 0
M  V30 1247 H 117.362 -1.07901 -1.58207 0
M  V30 1248 H 115.667 0.0800767 -3.91718 0
M  V30 1249 H 117.364 -0.302709 -3.99856 0
M  V30 1250 H 113.954 -1.73419 -3.91949 0
M  V30 1251 H 118.138 -2.68054 -4.17685 0
M  V30 1252 H 113.394 -4.02946 -4.59831 0
M  V30 1253 H 117.568 -4.97895 -4.86902 0
M  V30 1254 H 115.195 -5.65855 -5.07654 0
M  V30 1255 N 116.77 1.45427 -0.607355 0
M  V30 1256 C 117.733 2.28974 0.101693 0
M  V30 1257 C 118.733 1.39754 0.795329 0
M  V30 1258 O 119.923 1.61878 0.643527 0
M  V30 1259 C 117.055 3.20768 1.15414 0
M  V30 1260 H 118.248 2.93147 -0.632844 0
M  V30 1261 H 115.801 1.51945 -0.366391 0
M  V30 1262 H 116.536 2.61395 1.91945 0
M  V30 1263 H 116.321 3.86489 0.66098 0
M  V30 1264 H 117.811 3.83589 1.65073 0
M  V30 1265 N 118.248 0.346503 1.53744 0
M  V30 1266 C 119.496 -0.248612 2.00565 0
M  V30 1267 C 119.817 -1.5083 1.23593 0
M  V30 1268 O 119.087 -1.92858 0.343912 0
M  V30 1269 H 117.667 -0.0948564 0.740953 0
M  V30 1270 H 120.329 0.468341 1.89189 0
M  V30 1271 H 119.425 -0.488994 3.08245 0
M  V30 1272 N 119.726 -1.57421 0.075193 0
M  V30 1273 C 120.954 -1.97946 -0.602076 0
M  V30 1274 C 121.369 -0.953674 -1.62943 0
M  V30 1275 O 120.726 0.0592551 -1.82404 0
M  V30 1276 C 120.777 -3.38546 -1.26762 0
M  V30 1277 O 120.498 -4.37195 -0.281376 0
M  V30 1278 C 121.999 -3.93966 -2.03239 0
M  V30 1279 H 119.219 -0.650918 -0.162931 0
M  V30 1280 H 121.763 -2.03959 0.148601 0
M  V30 1281 H 119.918 -3.33609 -1.96936 0
M  V30 1282 H 120.332 -5.18975 -0.759267 0
M  V30 1283 H 121.806 -4.94555 -2.45193 0
M  V30 1284 H 122.283 -3.30693 -2.8903 0
M  V30 1285 H 122.889 -4.02315 -1.37924 0
M  V30 1286 N 121.204 0.198386 -1.56346 0
M  V30 1287 C 122.151 1.24589 -1.94284 0
M  V30 1288 C 123.121 1.454 -0.802997 0
M  V30 1289 O 124.306 1.58588 -1.06087 0
M  V30 1290 C 121.446 2.58631 -2.28482 0
M  V30 1291 C 120.559 2.45426 -3.55514 0
M  V30 1292 C 119.694 3.7215 -3.79049 0
M  V30 1293 C 118.733 3.53763 -4.99518 0
M  V30 1294 N 117.87 4.72491 -5.19323 0
M  V30 1295 H 122.71 0.915356 -2.83593 0
M  V30 1296 H 120.247 0.440629 -1.40346 0
M  V30 1297 H 122.205 3.3672 -2.46324 0
M  V30 1298 H 120.835 2.89734 -1.42317 0
M  V30 1299 H 119.887 1.58652 -3.45737 0
M  V30 1300 H 121.199 2.27772 -4.43758 0
M  V30 1301 H 120.353 4.58679 -3.97113 0
M  V30 1302 H 119.092 3.92754 -2.89129 0
M  V30 1303 H 118.097 2.65619 -4.8138 0
M  V30 1304 H 119.322 3.34607 -5.90944 0
M  V30 1305 H 117.268 4.93365 -4.3235 0
M  V30 1306 H 117.185 4.5765 -6.01741 0
M  V30 1307 H 118.453 5.6038 -5.41843 0
M  V30 1308 N 122.682 1.50554 0.465978 0
M  V30 1309 C 123.645 1.69233 1.54574 0
M  V30 1310 C 124.645 0.562901 1.50626 0
M  V30 1311 O 125.835 0.830016 1.53155 0
M  V30 1312 C 122.967 1.7223 2.94193 0
M  V30 1313 H 124.16 2.65571 1.39327 0
M  V30 1314 H 121.713 1.40111 0.692711 0
M  V30 1315 H 122.448 0.77603 3.14878 0
M  V30 1316 H 122.233 2.54285 2.98466 0
M  V30 1317 H 123.723 1.88618 3.72576 0
M  V30 1318 N 124.16 -0.719506 1.40217 0
M  V30 1319 C 125.107 -1.83359 1.40172 0
M  V30 1320 C 126.077 -1.64065 0.259206 0
M  V30 1321 O 127.262 -1.85254 0.456677 0
M  V30 1322 C 124.402 -3.2103 1.26624 0
M  V30 1323 C 123.515 -3.51923 2.50548 0
M  V30 1324 C 122.65 -4.79079 2.29471 0
M  V30 1325 C 121.689 -5.02863 3.48992 0
M  V30 1326 N 120.826 -6.2123 3.27135 0
M  V30 1327 H 125.666 -1.82733 2.35399 0
M  V30 1328 H 123.203 -0.892688 1.16917 0
M  V30 1329 H 125.161 -4.00524 1.16776 0
M  V30 1330 H 123.791 -3.20895 0.350176 0
M  V30 1331 H 122.843 -2.67014 2.70939 0
M  V30 1332 H 124.155 -3.6541 3.39525 0
M  V30 1333 H 123.309 -5.66582 2.16955 0
M  V30 1334 H 122.048 -4.67794 1.37913 0
M  V30 1335 H 121.053 -4.13816 3.6199 0
M  V30 1336 H 122.278 -5.16023 4.41472 0
M  V30 1337 H 120.224 -6.11204 2.38256 0
M  V30 1338 H 120.141 -6.35375 4.09675 0
M  V30 1339 H 121.409 -7.11532 3.18344 0
M  V30 1340 N 125.638 -1.25649 -0.95132 0
M  V30 1341 C 126.568 -1.08808 -2.06599 0
M  V30 1342 C 127.549 0.00382547 -1.701 0
M  V30 1343 O 128.734 -0.166325 -1.93486 0
M  V30 1344 C 125.864 -0.709542 -3.39975 0
M  V30 1345 C 124.818 -1.75206 -3.90496 0
M  V30 1346 C 124.144 -1.22811 -5.20405 0
M  V30 1347 C 125.444 -3.15153 -4.16504 0
M  V30 1348 H 127.138 -2.02048 -2.20946 0
M  V30 1349 H 124.684 -0.972835 -1.06169 0
M  V30 1350 H 126.637 -0.578649 -4.17408 0
M  V30 1351 H 125.361 0.258556 -3.25575 0
M  V30 1352 H 124.02 -1.87145 -3.15234 0
M  V30 1353 H 123.668 -0.250145 -5.02378 0
M  V30 1354 H 123.368 -1.92492 -5.55176 0
M  V30 1355 H 124.892 -1.10968 -6.00432 0
M  V30 1356 H 126.306 -3.06349 -4.84586 0
M  V30 1357 H 124.703 -3.82333 -4.62538 0
M  V30 1358 H 125.773 -3.61966 -3.22658 0
M  V30 1359 N 127.117 1.15442 -1.07289 0
M  V30 1360 C 128.027 2.23786 -0.704057 0
M  V30 1361 C 129.043 1.7166 0.284413 0
M  V30 1362 O 130.219 2.00972 0.131205 0
M  V30 1363 C 127.284 3.46535 -0.106792 0
M  V30 1364 C 126.345 4.13654 -1.14842 0
M  V30 1365 C 125.578 5.30544 -0.57956 0
M  V30 1366 O 125.801 5.67187 0.604585 0
M  V30 1367 O 124.735 5.87154 -1.32414 0
M  V30 1368 H 128.561 2.57664 -1.60757 0
M  V30 1369 H 126.146 1.23152 -0.845803 0
M  V30 1370 H 128.028 4.20804 0.224048 0
M  V30 1371 H 126.703 3.14407 0.770049 0
M  V30 1372 H 125.61 3.4131 -1.5316 0
M  V30 1373 H 126.943 4.49861 -1.99714 0
M  V30 1374 N 128.595 0.856903 1.32268 0
M  V30 1375 C 129.82 0.474569 2.01897 0
M  V30 1376 C 130.245 -0.921766 1.63967 0
M  V30 1377 O 129.603 -1.60589 0.84148 0
M  V30 1378 C 129.651 0.623799 3.55164 0
M  V30 1379 O 128.755 -0.342459 4.10976 0
M  V30 1380 H 128.096 0.190422 0.63611 0
M  V30 1381 H 130.626 1.15672 1.68764 0
M  V30 1382 H 130.636 0.512169 4.04773 0
M  V30 1383 H 129.311 1.64202 3.82113 0
M  V30 1384 H 127.888 -0.18688 3.72431 0
M  V30 1385 N 130.073 -1.45103 0.615059 0
M  V30 1386 C 131.32 -2.02183 0.113179 0
M  V30 1387 C 131.648 -1.48249 -1.25906 0
M  V30 1388 O 130.903 -0.650265 -1.84581 0
M  V30 1389 C 131.202 -3.57386 0.0318797 0
M  V30 1390 C 130.868 -4.30505 1.34077 0
M  V30 1391 C 129.53 -4.50197 1.69929 0
M  V30 1392 C 131.882 -4.72238 2.20546 0
M  V30 1393 C 129.21 -5.08881 2.91988 0
M  V30 1394 C 131.562 -5.32272 3.41861 0
M  V30 1395 C 130.226 -5.50187 3.77956 0
M  V30 1396 H 129.496 -0.739842 0.0414151 0
M  V30 1397 H 132.143 -1.74073 0.798168 0
M  V30 1398 H 130.448 -3.84817 -0.736409 0
M  V30 1399 H 132.145 -3.99264 -0.372712 0
M  V30 1400 H 128.735 -4.15496 1.05173 0
M  V30 1401 H 132.919 -4.56751 1.94146 0
M  V30 1402 H 128.175 -5.20939 3.2005 0
M  V30 1403 H 132.349 -5.63563 4.09109 0
M  V30 1404 H 129.976 -5.95427 4.72622 0
M  V30 1405 N 131.551 -0.354651 -1.53558 0
M  V30 1406 C 132.514 0.484566 -2.24019 0
M  V30 1407 C 133.514 1.01861 -1.24422 0
M  V30 1408 O 134.704 0.906097 -1.4878 0
M  V30 1409 C 131.836 1.67615 -2.96847 0
M  V30 1410 H 133.029 -0.131843 -2.9961 0
M  V30 1411 H 130.582 -0.106165 -1.55939 0
M  V30 1412 H 131.317 2.33095 -2.25471 0
M  V30 1413 H 131.102 1.30029 -3.69912 0
M  V30 1414 H 132.592 2.27114 -3.50441 0
M  V30 1415 N 133.029 1.57378 -0.0835403 0
M  V30 1416 C 133.992 2.12252 0.864959 0
M  V30 1417 C 134.992 1.04916 1.21858 0
M  V30 1418 O 136.182 1.30853 1.14991 0
M  V30 1419 C 133.314 2.63358 2.16461 0
M  V30 1420 H 134.507 2.97371 0.388676 0
M  V30 1421 H 132.06 1.55423 0.165317 0
M  V30 1422 H 132.795 1.81727 2.686 0
M  V30 1423 H 132.58 3.41826 1.92087 0
M  V30 1424 H 134.07 3.05847 2.84337 0
M  V30 1425 N 134.507 -0.190092 1.56449 0
M  V30 1426 C 135.755 -0.907908 1.80559 0
M  V30 1427 C 136.076 -1.83583 0.657438 0
M  V30 1428 O 135.346 -1.93203 -0.323924 0
M  V30 1429 H 133.926 -0.338247 0.666032 0
M  V30 1430 H 136.588 -0.194403 1.93928 0
M  V30 1431 H 135.684 -1.49604 2.73907 0
M  V30 1432 N 135.985 -1.50799 -0.457987 0
M  V30 1433 C 137.231 -1.62683 -1.21088 0
M  V30 1434 C 137.564 -0.332268 -1.91336 0
M  V30 1435 O 136.839 0.667043 -1.82704 0
M  V30 1436 C 137.122 -2.81615 -2.24422 0
M  V30 1437 C 136.975 -4.20989 -1.58392 0
M  V30 1438 C 138.294 -2.96085 -3.2561 0
M  V30 1439 H 135.413 -0.592087 -0.438864 0
M  V30 1440 H 138.055 -1.83225 -0.50286 0
M  V30 1441 H 136.205 -2.64231 -2.84806 0
M  V30 1442 H 137.877 -4.49994 -1.01504 0
M  V30 1443 H 136.12 -4.24641 -0.886704 0
M  V30 1444 H 136.791 -5.0016 -2.33547 0
M  V30 1445 H 139.267 -3.12042 -2.75262 0
M  V30 1446 H 138.143 -3.80902 -3.95228 0
M  V30 1447 H 138.404 -2.0726 -3.90507 0
M  V30 1448 N 137.463 0.71206 -1.40597 0
M  V30 1449 C 138.711 1.46907 -1.38791 0
M  V30 1450 C 139.032 1.94998 0.00780391 0
M  V30 1451 O 138.302 1.70587 0.963174 0
M  V30 1452 H 136.882 0.545043 -0.51082 0
M  V30 1453 H 139.544 0.843882 -1.75683 0
M  V30 1454 H 138.64 2.34021 -2.06496 0
M  V30 1455 N 138.941 1.26152 0.944643 0
M  V30 1456 C 140.169 1.14259 1.72489 0
M  V30 1457 C 140.584 -0.302555 1.8636 0
M  V30 1458 O 139.941 -1.20741 1.36849 0
M  V30 1459 C 139.992 1.80266 3.13347 0
M  V30 1460 O 139.713 3.19133 3.00143 0
M  V30 1461 C 141.214 1.74283 4.07603 0
M  V30 1462 H 138.434 0.398051 0.540181 0
M  V30 1463 H 140.978 1.66706 1.18446 0
M  V30 1464 H 139.133 1.31766 3.64303 0
M  V30 1465 H 139.547 3.51744 3.89071 0
M  V30 1466 H 141.021 2.25111 5.04013 0
M  V30 1467 H 141.498 0.708631 4.33446 0
M  V30 1468 H 142.104 2.22319 3.62567 0
M  V30 1469 N 140.419 -1.14872 1.07899 0
M  V30 1470 C 141.668 -1.85135 0.800499 0
M  V30 1471 C 141.981 -1.83547 -0.676014 0
M  V30 1472 O 143.187 -2.49548 -1.06948 0
M  V30 1473 C 141.643 -3.3231 1.38197 0
M  V30 1474 C 141.251 -3.42329 2.8899 0
M  V30 1475 C 142.995 -4.0772 1.18174 0
M  V30 1476 C 140.902 -4.83684 3.403 0
M  V30 1477 H 139.832 -0.693563 0.29578 0
M  V30 1478 H 142.483 -1.29532 1.29976 0
M  V30 1479 H 140.865 -3.87618 0.810431 0
M  V30 1480 H 142.039 -2.97097 3.52236 0
M  V30 1481 H 140.354 -2.80369 3.07867 0
M  V30 1482 H 142.951 -5.12049 1.5398 0
M  V30 1483 H 143.294 -4.16124 0.12117 0
M  V30 1484 H 143.827 -3.58696 1.71994 0
M  V30 1485 H 140.566 -4.80465 4.45907 0
M  V30 1486 H 140.086 -5.29474 2.81811 0
M  V30 1487 H 141.765 -5.52558 3.36584 0
M  V30 1488 N 141.898 -0.863906 -1.31812 0
M  V30 1489 C 142.828 -0.330843 -2.31144 0
M  V30 1490 C 143.809 0.575005 -1.60087 0
M  V30 1491 O 144.994 0.493304 -1.8783 0
M  V30 1492 C 142.124 0.47374 -3.44054 0
M  V30 1493 C 141.078 -0.338481 -4.26659 0
M  V30 1494 C 140.404 0.591412 -5.31419 0
M  V30 1495 C 141.704 -1.56926 -4.98168 0
M  V30 1496 H 143.398 -1.16086 -2.75979 0
M  V30 1497 H 140.944 -0.559657 -1.32679 0
M  V30 1498 H 142.897 0.857143 -4.12591 0
M  V30 1499 H 141.621 1.33721 -2.9797 0
M  V30 1500 H 140.28 -0.703754 -3.59782 0
M  V30 1501 H 139.928 1.45199 -4.81587 0
M  V30 1502 H 139.628 0.0519022 -5.87577 0
M  V30 1503 H 141.152 0.97179 -6.02817 0
M  V30 1504 H 142.566 -1.25764 -5.59336 0
M  V30 1505 H 140.963 -2.04739 -5.64094 0
M  V30 1506 H 142.033 -2.32544 -4.25501 0
M  V30 1507 N 143.376 1.44774 -0.622745 0
M  V30 1508 C 144.306 2.33382 0.0741861 0
M  V30 1509 C 145.287 1.47719 0.843387 0
M  V30 1510 O 146.472 1.76458 0.810934 0
M  V30 1511 C 143.602 3.30663 1.06204 0
M  V30 1512 C 142.556 4.26079 0.405037 0
M  V30 1513 C 141.882 5.13165 1.5022 0
M  V30 1514 C 143.182 5.1781 -0.683414 0
M  V30 1515 H 144.876 2.91905 -0.665713 0
M  V30 1516 H 142.422 1.40363 -0.321587 0
M  V30 1517 H 144.375 3.9153 1.55827 0
M  V30 1518 H 143.099 2.70331 1.83272 0
M  V30 1519 H 141.758 3.66532 -0.0704683 0
M  V30 1520 H 141.406 4.49191 2.26355 0
M  V30 1521 H 141.106 5.77812 1.06803 0
M  V30 1522 H 142.63 5.76902 2.00041 0
M  V30 1523 H 144.044 5.72661 -0.270631 0
M  V30 1524 H 142.441 5.91015 -1.04023 0
M  V30 1525 H 143.511 4.59326 -1.55395 0
M  V30 1526 N 144.854 0.36279 1.53368 0
M  V30 1527 C 146.101 -0.227776 2.01215 0
M  V30 1528 C 146.429 -1.49003 1.25014 0
M  V30 1529 O 145.684 -1.92876 0.331236 0
M  V30 1530 C 145.983 -0.568417 3.52851 0
M  V30 1531 C 145.649 0.59918 4.46901 0
M  V30 1532 C 144.311 0.919559 4.72332 0
M  V30 1533 C 146.663 1.38156 5.02556 0
M  V30 1534 C 143.991 2.02434 5.5067 0
M  V30 1535 C 146.343 2.47674 5.821 0
M  V30 1536 C 145.007 2.8025 6.05819 0
M  V30 1537 H 144.277 -0.083349 0.736297 0
M  V30 1538 H 146.924 0.494677 1.85001 0
M  V30 1539 H 145.229 -1.37185 3.66998 0
M  V30 1540 H 146.926 -1.03756 3.87344 0
M  V30 1541 H 143.516 0.339437 4.27254 0
M  V30 1542 H 147.7 1.14729 4.82857 0
M  V30 1543 H 142.956 2.28075 5.67267 0
M  V30 1544 H 147.13 3.08716 6.24234 0
M  V30 1545 H 144.757 3.65979 6.66306 0
M  V30 1546 N 146.332 -1.57332 0.0918853 0
M  V30 1547 C 147.242 -2.17368 -0.882505 0
M  V30 1548 C 148.258 -1.14226 -1.31257 0
M  V30 1549 O 149.434 -1.46582 -1.38115 0
M  V30 1550 C 146.499 -2.73962 -2.12476 0
M  V30 1551 C 145.56 -3.92048 -1.7492 0
M  V30 1552 C 144.793 -4.45933 -2.93223 0
M  V30 1553 O 145.016 -3.98764 -4.07852 0
M  V30 1554 O 143.95 -5.36999 -2.71875 0
M  V30 1555 H 147.776 -3.01031 -0.40172 0
M  V30 1556 H 145.361 -1.48813 -0.132291 0
M  V30 1557 H 147.243 -3.10147 -2.85283 0
M  V30 1558 H 145.918 -1.93347 -2.59613 0
M  V30 1559 H 144.825 -3.6068 -0.993025 0
M  V30 1560 H 146.158 -4.74017 -1.32548 0
M  V30 1561 N 147.81 0.181792 -1.56548 0
M  V30 1562 C 149.087 0.926765 -1.72251 0
M  V30 1563 C 149.467 2.00831 -0.650386 0
M  V30 1564 O 148.815 2.26008 0.336521 0
M  V30 1565 C 149.025 1.50106 -3.1507 0
M  V30 1566 C 150.373 1.97805 -3.75711 0
M  V30 1567 O 151.397 1.59922 -3.18282 0
M  V30 1568 O 150.256 2.67555 -4.76525 0
M  V30 1569 H 147.35 0.435506 -0.703039 0
M  V30 1570 H 149.896 0.170443 -1.68842 0
M  V30 1571 H 148.668 0.72212 -3.84579 0
M  V30 1572 H 148.291 2.32186 -3.22763 0
M  V30 1573 N 149.288 1.51039 0.449983 0
M  V30 1574 C 150.22 1.67617 1.56324 0
M  V30 1575 C 151.233 0.557083 1.52972 0
M  V30 1576 O 152.422 0.830989 1.57977 0
M  V30 1577 C 149.522 1.66402 2.95235 0
M  V30 1578 C 148.695 2.9469 3.23229 0
M  V30 1579 C 147.754 2.85832 4.41799 0
M  V30 1580 O 146.78 3.59785 4.41071 0
M  V30 1581 N 147.982 2.00821 5.44657 0
M  V30 1582 H 150.747 2.63648 1.42512 0
M  V30 1583 H 148.308 1.48767 0.638737 0
M  V30 1584 H 150.3 1.58062 3.72557 0
M  V30 1585 H 148.87 0.780182 3.02708 0
M  V30 1586 H 148.09 3.16996 2.34323 0
M  V30 1587 H 149.378 3.79636 3.38754 0
M  V30 1588 H 148.776 1.40091 5.48079 0
M  V30 1589 H 147.333 1.98368 6.20881 0
M  V30 1590 N 150.766 -0.704594 1.40972 0
M  V30 1591 C 151.729 -1.80035 1.41845 0
M  V30 1592 C 152.729 -1.57774 0.310474 0
M  V30 1593 O 153.919 -1.64613 0.56992 0
M  V30 1594 C 151.051 -3.18284 1.22098 0
M  V30 1595 H 152.244 -1.80658 2.3938 0
M  V30 1596 H 149.797 -0.911329 1.26982 0
M  V30 1597 H 150.532 -3.23306 0.253672 0
M  V30 1598 H 150.317 -3.35843 2.02366 0
M  V30 1599 H 151.807 -3.98289 1.25522 0
M  V30 1600 N 152.244 -1.26651 -0.937939 0
M  V30 1601 C 153.49 -1.12553 -1.687 0
M  V30 1602 C 153.823 0.329782 -1.91379 0
M  V30 1603 O 153.098 1.24202 -1.4968 0
M  V30 1604 C 153.381 -1.89862 -3.05981 0
M  V30 1605 C 153.234 -3.43318 -2.90607 0
M  V30 1606 C 154.553 -1.69499 -4.0615 0
M  V30 1607 H 151.672 -0.410257 -0.612257 0
M  V30 1608 H 154.314 -1.55685 -1.08913 0
M  V30 1609 H 152.464 -1.53204 -3.57017 0
M  V30 1610 H 154.136 -3.89747 -2.46769 0
M  V30 1611 H 152.379 -3.70179 -2.26164 0
M  V30 1612 H 153.05 -3.92642 -3.8799 0
M  V30 1613 H 155.526 -2.01442 -3.64088 0
M  V30 1614 H 154.402 -2.26002 -5.00214 0
M  V30 1615 H 154.663 -0.640365 -4.37438 0
M  V30 1616 N 153.722 1.14298 -1.08507 0
M  V30 1617 C 154.968 1.85633 -0.816581 0
M  V30 1618 C 155.301 1.82784 0.656021 0
M  V30 1619 O 154.576 1.25926 1.48233 0
M  V30 1620 C 154.859 3.34223 -1.34041 0
M  V30 1621 C 154.712 3.45639 -2.87843 0
M  V30 1622 C 156.031 4.29356 -0.9665 0
M  V30 1623 H 153.15 0.67402 -0.298104 0
M  V30 1624 H 155.792 1.34214 -1.34487 0
M  V30 1625 H 153.942 3.78144 -0.89104 0
M  V30 1626 H 155.614 3.10498 -3.41158 0
M  V30 1627 H 153.857 2.86817 -3.25451 0
M  V30 1628 H 154.528 4.50089 -3.19569 0
M  V30 1629 H 157.004 3.93457 -1.35391 0
M  V30 1630 H 155.88 5.3178 -1.3602 0
M  V30 1631 H 156.141 4.41919 0.126362 0
M  V30 1632 N 155.201 0.870884 1.31352 0
M  V30 1633 C 156.617 0.562932 1.49343 0
M  V30 1634 C 156.817 -0.902725 1.80148 0
M  V30 1635 O 155.873 -1.68484 1.88067 0
M  V30 1636 C 157.186 1.46393 2.62659 0
M  V30 1637 C 158.734 1.46607 2.76542 0
M  V30 1638 C 159.209 2.35266 3.92955 0
M  V30 1639 N 160.7 2.33151 4.00243 0
M  V30 1640 C 161.435 2.98471 4.89594 0
M  V30 1641 N 160.931 3.72964 5.8384 0
M  V30 1642 N 162.724 2.87775 4.82848 0
M  V30 1643 H 154.875 1.81923 1.09626 0
M  V30 1644 H 157.138 0.777934 0.541777 0
M  V30 1645 H 156.844 2.50689 2.46674 0
M  V30 1646 H 156.718 1.16314 3.58819 0
M  V30 1647 H 159.105 0.43069 2.9194 0
M  V30 1648 H 159.186 1.8071 1.81046 0
M  V30 1649 H 158.83 3.38881 3.78315 0
M  V30 1650 H 158.76 1.98487 4.87761 0
M  V30 1651 H 161.251 1.79006 3.32814 0
M  V30 1652 H 161.564 4.19932 6.4875 0
M  V30 1653 H 159.909 3.77073 5.83816 0
M  V30 1654 H 163.1 2.29116 4.08195 0
M  V30 1655 H 163.273 3.38961 5.52277 0
M  V30 1656 N 156.679 -1.44442 0.630414 0
M  V30 1657 C 157.627 -2.32437 -0.0871428 0
M  V30 1658 C 158.621 -1.47304 -0.836525 0
M  V30 1659 O 159.827 -1.63653 -0.749506 0
M  V30 1660 H 156.202 -0.750533 -0.0469495 0
M  V30 1661 H 158.173 -2.90709 0.673096 0
M  V30 1662 C 156.922 -3.31288 -1.05563 0
M  V30 1663 H 156.245 -3.96805 -0.488426 0
M  V30 1664 H 157.685 -3.9554 -1.52721 0
M  V30 1665 C 156.144 -2.6016 -2.14052 0
M  V30 1666 O 156.674 -2.39997 -3.22124 0
M  V30 1667 N 154.88 -2.19911 -1.89967 0
M  V30 1668 H 154.427 -2.36509 -1.02085 0
M  V30 1669 H 154.385 -1.72646 -2.62756 0
M  V30 1670 N 158.157 -0.370918 -1.53173 0
M  V30 1671 C 159.087 0.464847 -2.28826 0
M  V30 1672 C 160.068 1.07936 -1.31468 0
M  V30 1673 O 161.253 1.0956 -1.60344 0
M  V30 1674 C 158.383 1.60196 -3.08147 0
M  V30 1675 C 157.337 1.11443 -4.13237 0
M  V30 1676 C 156.663 2.3422 -4.80672 0
M  V30 1677 C 157.963 0.195384 -5.21934 0
M  V30 1678 H 159.657 -0.166329 -2.98938 0
M  V30 1679 H 157.203 -0.0814359 -1.4377 0
M  V30 1680 H 159.156 2.19332 -3.59822 0
M  V30 1681 H 157.88 2.26045 -2.35735 0
M  V30 1682 H 156.539 0.545727 -3.62515 0
M  V30 1683 H 156.187 2.98537 -4.04827 0
M  V30 1684 H 155.887 2.02269 -5.51689 0
M  V30 1685 H 157.411 2.94032 -5.35143 0
M  V30 1686 H 158.825 0.694375 -5.69079 0
M  V30 1687 H 157.222 -0.0335027 -6.00091 0
M  V30 1688 H 158.292 -0.760961 -4.78892 0
M  V30 1689 N 159.635 1.57281 -0.100228 0
M  V30 1690 C 160.545 2.17833 0.870965 0
M  V30 1691 C 161.561 1.14921 1.30649 0
M  V30 1692 O 162.737 1.47313 1.37335 0
M  V30 1693 C 159.802 2.75085 2.1102 0
M  V30 1694 C 158.863 3.9297 1.72838 0
M  V30 1695 C 158.096 4.47482 2.90854 0
M  V30 1696 O 158.319 4.00922 4.05731 0
M  V30 1697 O 157.253 5.38433 2.69023 0
M  V30 1698 H 161.079 3.0124 0.38575 0
M  V30 1699 H 158.664 1.48881 0.124397 0
M  V30 1700 H 160.546 3.11656 2.83634 0
M  V30 1701 H 159.221 1.94721 2.58584 0
M  V30 1702 H 158.128 3.61201 0.973883 0
M  V30 1703 H 159.461 4.74713 1.30033 0
M  V30 1704 N 161.113 -0.173488 1.56642 0
M  V30 1705 C 162.023 -1.23482 1.99473 0
M  V30 1706 C 163.039 -1.48567 0.905752 0
M  V30 1707 O 164.215 -1.60758 1.21321 0
M  V30 1708 C 161.28 -2.55444 2.34413 0
M  V30 1709 C 160.341 -2.38241 3.57127 0
M  V30 1710 C 159.574 -3.63909 3.90392 0
M  V30 1711 O 159.797 -4.68996 3.24653 0
M  V30 1712 O 158.731 -3.58149 4.83749 0
M  V30 1713 H 162.557 -0.901279 2.90018 0
M  V30 1714 H 160.142 -0.380185 1.44482 0
M  V30 1715 H 162.024 -3.33292 2.57865 0
M  V30 1716 H 160.699 -2.88382 1.4703 0
M  V30 1717 H 159.606 -1.58431 3.38896 0
M  V30 1718 H 160.939 -2.10228 4.45045 0
M  V30 1719 N 162.591 -1.51276 -0.441967 0
M  V30 1720 C 163.539 -1.72823 -1.55676 0
M  V30 1721 C 164.533 -0.59445 -1.58627 0
M  V30 1722 O 165.739 -0.775715 -1.62427 0
M  V30 1723 H 162.114 -0.545983 -0.517113 0
M  V30 1724 H 164.085 -2.6628 -1.34675 0
M  V30 1725 C 162.834 -1.86619 -2.93375 0
M  V30 1726 H 162.157 -2.73264 -2.91834 0
M  V30 1727 H 163.597 -2.05709 -3.70756 0
M  V30 1728 C 162.056 -0.624842 -3.31055 0
M  V30 1729 O 162.586 0.222636 -4.01083 0
M  V30 1730 N 160.792 -0.470288 -2.86769 0
M  V30 1731 H 160.339 -1.161 -2.29953 0
M  V30 1732 H 160.297 0.359051 -3.12343 0
M  V30 1733 N 164.069 0.697108 -1.41344 0
M  V30 1734 C 165.316 1.45714 -1.40619 0
M  V30 1735 C 165.644 1.94494 -0.0147907 0
M  V30 1736 O 164.899 1.69794 0.973066 0
M  V30 1737 C 165.198 2.68553 -2.35826 0
M  V30 1738 C 164.864 2.38438 -3.82698 0
M  V30 1739 C 163.526 2.29936 -4.22709 0
M  V30 1740 C 165.878 2.13567 -4.75435 0
M  V30 1741 C 163.206 1.94656 -5.53467 0
M  V30 1742 C 165.558 1.79797 -6.06511 0
M  V30 1743 C 164.222 1.69789 -6.45545 0
M  V30 1744 H 163.492 0.533206 -0.51456 0
M  V30 1745 H 166.139 0.796901 -1.74131 0
M  V30 1746 H 164.444 3.39503 -1.95563 0
M  V30 1747 H 166.141 3.2669 -2.32539 0
M  V30 1748 H 162.731 2.4595 -3.51008 0
M  V30 1749 H 166.915 2.19082 -4.45328 0
M  V30 1750 H 162.171 1.8546 -5.82593 0
M  V30 1751 H 166.345 1.59572 -6.77872 0
M  V30 1752 H 163.972 1.4222 -7.46778 0
M  V30 1753 N 165.547 1.27147 0.931209 0
M  V30 1754 C 166.958 1.12044 1.49342 0
M  V30 1755 C 167.309 -0.295795 1.93957 0
M  V30 1756 O 166.434 -1.18835 1.80852 0
M  V30 1757 C 167.029 2.02781 2.71414 0
M  V30 1758 C 165.588 1.91794 3.2387 0
M  V30 1759 C 164.735 1.95543 1.96617 0
M  V30 1760 H 167.686 1.40091 0.745672 0
M  V30 1761 H 167.707 1.58156 3.46074 0
M  V30 1762 H 167.219 3.05848 2.38911 0
M  V30 1763 H 165.32 0.916992 3.6114 0
M  V30 1764 H 165.433 2.77852 3.90302 0
M  V30 1765 H 163.797 1.39722 2.12955 0
M  V30 1766 H 164.58 3.00259 1.66432 0
M  V30 1767 N 167.025 -1.13721 1.09112 0
M  V30 1768 C 167.955 -2.21148 0.749385 0
M  V30 1769 C 168.936 -1.6792 -0.271475 0
M  V30 1770 O 170.121 -1.93693 -0.140251 0
M  V30 1771 C 167.251 -3.46905 0.165659 0
M  V30 1772 C 166.205 -4.13203 1.11567 0
M  V30 1773 C 165.531 -5.33248 0.393809 0
M  V30 1774 C 166.831 -4.60912 2.45678 0
M  V30 1775 H 168.525 -2.4999 1.64758 0
M  V30 1776 H 166.071 -1.20156 0.793626 0
M  V30 1777 H 168.024 -4.21313 -0.085466 0
M  V30 1778 H 166.748 -3.17449 -0.767714 0
M  V30 1779 H 165.407 -3.40758 1.35202 0
M  V30 1780 H 165.055 -5.00054 -0.543599 0
M  V30 1781 H 164.755 -5.78552 1.02721 0
M  V30 1782 H 166.279 -6.10413 0.150908 0
M  V30 1783 H 167.693 -5.26759 2.26269 0
M  V30 1784 H 166.09 -5.16944 3.04776 0
M  V30 1785 H 167.16 -3.75603 3.06677 0
M  V30 1786 N 168.503 -0.877838 -1.30888 0
M  V30 1787 C 169.733 -0.506678 -2.00291 0
M  V30 1788 C 170.141 0.907449 -1.66018 0
M  V30 1789 O 169.484 1.60719 -0.88967 0
M  V30 1790 C 169.546 -0.59323 -3.54572 0
M  V30 1791 C 169.21 -1.97038 -4.12341 0
M  V30 1792 C 170.207 -2.93889 -4.28865 0
M  V30 1793 C 167.892 -2.27383 -4.47886 0
M  V30 1794 C 169.886 -4.19224 -4.80136 0
M  V30 1795 C 167.573 -3.52965 -4.98857 0
M  V30 1796 C 168.571 -4.48701 -5.14934 0
M  V30 1797 O 168.259 -5.72056 -5.64808 0
M  V30 1798 H 167.991 -0.1951 -0.647234 0
M  V30 1799 H 170.545 -1.18301 -1.6791 0
M  V30 1800 H 168.775 0.140057 -3.86446 0
M  V30 1801 H 170.464 -0.234372 -4.05223 0
M  V30 1802 H 171.23 -2.71756 -4.01714 0
M  V30 1803 H 167.109 -1.53639 -4.34645 0
M  V30 1804 H 170.653 -4.93956 -4.92599 0
M  V30 1805 H 166.55 -3.74939 -5.25443 0
M  V30 1806 H 167.318 -5.74337 -5.83163 0
M  V30 1807 N 169.982 1.44106 -0.638065 0
M  V30 1808 C 170.945 2.29138 0.0531013 0
M  V30 1809 C 171.945 1.41409 0.765506 0
M  V30 1810 O 173.135 1.63206 0.609046 0
M  V30 1811 C 170.267 3.23144 1.08584 0
M  V30 1812 H 171.46 2.91739 -0.694883 0
M  V30 1813 H 169.013 1.51134 -0.398538 0
M  V30 1814 H 169.748 2.65408 1.86357 0
M  V30 1815 H 169.533 3.87804 0.578852 0
M  V30 1816 H 171.023 3.87004 1.56899 0
M  V30 1817 N 171.46 0.379036 1.52974 0
M  V30 1818 C 172.37 -0.468639 2.29872 0
M  V30 1819 C 173.386 -1.08067 1.36373 0
M  V30 1820 O 174.562 -1.08871 1.69438 0
M  V30 1821 C 171.627 -1.58594 3.083 0
M  V30 1822 C 170.688 -1.00007 4.17489 0
M  V30 1823 C 169.921 -2.06413 4.92168 0
M  V30 1824 O 170.144 -3.27751 4.66835 0
M  V30 1825 O 169.078 -1.68717 5.7777 0
M  V30 1826 H 172.904 0.157508 3.03291 0
M  V30 1827 H 170.489 0.143035 1.48714 0
M  V30 1828 H 172.371 -2.23525 3.57232 0
M  V30 1829 H 171.046 -2.19724 2.37703 0
M  V30 1830 H 169.953 -0.314299 3.72777 0
M  V30 1831 H 171.286 -0.433135 4.90291 0
M  V30 1832 N 172.938 -1.57226 0.108567 0
M  V30 1833 C 173.886 -2.16002 -0.862885 0
M  V30 1834 C 174.88 -1.10644 -1.28274 0
M  V30 1835 O 176.086 -1.28966 -1.2557 0
M  V30 1836 H 172.461 -0.691148 -0.296342 0
M  V30 1837 H 174.432 -2.96427 -0.342575 0
M  V30 1838 C 173.181 -2.76576 -2.10716 0
M  V30 1839 H 172.504 -3.5734 -1.793 0
M  V30 1840 H 173.944 -3.21253 -2.76717 0
M  V30 1841 C 172.403 -1.73137 -2.89007 0
M  V30 1842 O 172.933 -1.17842 -3.84026 0
M  V30 1843 N 171.139 -1.43317 -2.52801 0
M  V30 1844 H 170.686 -1.88473 -1.75601 0
M  V30 1845 H 170.644 -0.743485 -3.05483 0
M  V30 1846 N 174.416 0.165178 -1.56732 0
M  V30 1847 C 175.663 0.880807 -1.8234 0
M  V30 1848 C 175.991 1.81977 -0.686621 0
M  V30 1849 O 175.246 1.92971 0.325697 0
M  V30 1850 C 175.545 1.70405 -3.1416 0
M  V30 1851 C 175.211 0.913475 -4.4155 0
M  V30 1852 C 173.873 0.695303 -4.7615 0
M  V30 1853 C 176.225 0.359349 -5.1996 0
M  V30 1854 C 173.553 -0.0879947 -5.86634 0
M  V30 1855 C 175.905 -0.410893 -6.31264 0
M  V30 1856 C 174.569 -0.639808 -6.64427 0
M  V30 1857 H 173.839 0.32231 -0.667231 0
M  V30 1858 H 176.486 0.145402 -1.90947 0
M  V30 1859 H 174.791 2.50903 -3.00923 0
M  V30 1860 H 176.488 2.26091 -3.31186 0
M  V30 1861 H 173.078 1.09357 -4.14414 0
M  V30 1862 H 177.262 0.515228 -4.93618 0
M  V30 1863 H 172.518 -0.27503 -6.10781 0
M  V30 1864 H 176.692 -0.847494 -6.91224 0
M  V30 1865 H 174.319 -1.24864 -7.49875 0
M  V30 1866 N 175.894 1.51508 0.433938 0
M  V30 1867 C 176.826 1.69266 1.54537 0
M  V30 1868 C 177.839 0.573276 1.52373 0
M  V30 1869 O 179.028 0.847698 1.57087 0
M  V30 1870 C 176.128 1.69524 2.93453 0
M  V30 1871 C 175.301 2.98101 3.20085 0
M  V30 1872 C 174.36 2.90502 4.38742 0
M  V30 1873 O 173.386 3.64442 4.3723 0
M  V30 1874 N 174.588 2.06586 5.42496 0
M  V30 1875 H 177.353 2.65145 1.39708 0
M  V30 1876 H 174.914 1.49437 0.622922 0
M  V30 1877 H 176.906 1.62004 3.70859 0
M  V30 1878 H 175.476 0.812245 3.01863 0
M  V30 1879 H 174.696 3.19464 2.30947 0
M  V30 1880 H 175.984 3.83207 3.34708 0
M  V30 1881 H 175.382 1.45896 5.46563 0
M  V30 1882 H 173.939 2.04943 6.18742 0
M  V30 1883 N 177.372 -0.689602 1.41712 0
M  V30 1884 C 178.783 -1.26973 1.36875 0
M  V30 1885 C 179.134 -1.96124 0.054748 0
M  V30 1886 O 178.259 -1.99141 -0.84687 0
M  V30 1887 C 178.854 -2.30912 2.47922 0
M  V30 1888 C 177.413 -2.84486 2.46464 0
M  V30 1889 C 176.56 -1.58603 2.27465 0
M  V30 1890 H 179.511 -0.48396 1.51141 0
M  V30 1891 H 179.532 -3.12331 2.17323 0
M  V30 1892 H 179.044 -1.80554 3.43543 0
M  V30 1893 H 177.145 -3.39005 1.54617 0
M  V30 1894 H 177.258 -3.34511 3.42986 0
M  V30 1895 H 175.622 -1.84632 1.75451 0
M  V30 1896 H 176.405 -1.10233 3.25121 0
M  V30 1897 N 178.85 -1.27639 -0.924453 0
M  V30 1898 C 180.096 -1.15345 -1.67532 0
M  V30 1899 C 180.451 0.297096 -1.90092 0
M  V30 1900 O 179.744 1.21374 -1.48253 0
M  V30 1901 C 179.938 -1.87407 -3.04325 0
M  V30 1902 C 179.767 -3.3932 -2.95114 0
M  V30 1903 C 178.537 -4.08644 -2.97218 0
M  V30 1904 C 180.735 -4.35242 -2.73987 0
M  V30 1905 N 178.717 -5.47102 -2.78482 0
M  V30 1906 C 180.088 -5.6099 -2.63988 0
M  V30 1907 C 182.143 -4.25294 -2.589 0
M  V30 1908 C 180.846 -6.77924 -2.40442 0
M  V30 1909 C 182.872 -5.41952 -2.36731 0
M  V30 1910 C 182.234 -6.66658 -2.27478 0
M  V30 1911 H 178.333 -0.47696 -0.619704 0
M  V30 1912 H 180.917 -1.6115 -1.09265 0
M  V30 1913 H 179.088 -1.44053 -3.60699 0
M  V30 1914 H 180.82 -1.6759 -3.68369 0
M  V30 1915 H 177.575 -3.60136 -3.07569 0
M  V30 1916 H 177.999 -6.19852 -2.72236 0
M  V30 1917 H 182.641 -3.29598 -2.64811 0
M  V30 1918 H 180.359 -7.73699 -2.3327 0
M  V30 1919 H 183.945 -5.36137 -2.25938 0
M  V30 1920 H 182.825 -7.55405 -2.10555 0
M  V30 1921 N 180.328 1.1314 -1.09713 0
M  V30 1922 C 181.553 1.88862 -0.857081 0
M  V30 1923 C 181.978 1.78729 0.586304 0
M  V30 1924 O 181.336 1.13692 1.41222 0
M  V30 1925 C 181.384 3.36325 -1.30069 0
M  V30 1926 O 180.488 4.09815 -0.461007 0
M  V30 1927 H 179.829 0.587108 -0.310162 0
M  V30 1928 H 182.359 1.43129 -1.46203 0
M  V30 1929 H 182.369 3.87157 -1.28738 0
M  V30 1930 H 181.044 3.43017 -2.35185 0
M  V30 1931 H 179.621 3.68986 -0.538888 0
M  V30 1932 N 181.806 0.884767 1.30421 0
M  V30 1933 C 182.716 0.355398 2.31892 0
M  V30 1934 C 183.732 -0.542261 1.65335 0
M  V30 1935 O 184.908 -0.435432 1.96637 0
M  V30 1936 C 181.973 -0.421661 3.44126 0
M  V30 1937 C 181.034 0.505727 4.26311 0
M  V30 1938 C 180.267 -0.234343 5.33185 0
M  V30 1939 O 180.49 -1.46045 5.51386 0
M  V30 1940 O 179.424 0.415443 6.00465 0
M  V30 1941 H 183.25 1.19685 2.79122 0
M  V30 1942 H 180.835 0.648596 1.34587 0
M  V30 1943 H 182.717 -0.861641 4.12497 0
M  V30 1944 H 181.392 -1.23942 2.99032 0
M  V30 1945 H 180.299 0.994513 3.60639 0
M  V30 1946 H 181.632 1.28948 4.75009 0
M  V30 1947 N 183.284 -1.43765 0.645699 0
M  V30 1948 C 184.216 -2.29027 -0.0890605 0
M  V30 1949 C 185.229 -1.42093 -0.794563 0
M  V30 1950 O 186.418 -1.66104 -0.653575 0
M  V30 1951 C 183.518 -3.18831 -1.14891 0
M  V30 1952 C 182.691 -4.34261 -0.523043 0
M  V30 1953 C 181.75 -5.04994 -1.47878 0
M  V30 1954 O 180.776 -5.6052 -0.990277 0
M  V30 1955 N 181.978 -5.07795 -2.81291 0
M  V30 1956 H 184.743 -2.92727 0.64272 0
M  V30 1957 H 182.304 -1.54373 0.487924 0
M  V30 1958 H 184.296 -3.63015 -1.78892 0
M  V30 1959 H 182.866 -2.56782 -1.78275 0
M  V30 1960 H 182.086 -3.93088 0.295896 0
M  V30 1961 H 183.374 -5.08728 -0.0858147 0
M  V30 1962 H 182.772 -4.64042 -3.23546 0
M  V30 1963 H 181.329 -5.55721 -3.40614 0
M  V30 1964 N 184.763 -0.387143 -1.52771 0
M  V30 1965 C 185.726 0.436939 -2.24997 0
M  V30 1966 C 186.726 0.991991 -1.26555 0
M  V30 1967 O 187.916 0.874335 -1.50669 0
M  V30 1968 C 185.048 1.61281 -3.00335 0
M  V30 1969 H 186.241 -0.195365 -2.99263 0
M  V30 1970 H 183.794 -0.139218 -1.55679 0
M  V30 1971 H 184.529 2.2826 -2.30364 0
M  V30 1972 H 184.314 1.22154 -3.72587 0
M  V30 1973 H 185.804 2.19629 -3.5518 0
M  V30 1974 N 186.241 1.57166 -0.116904 0
M  V30 1975 C 187.191 2.11756 0.845178 0
M  V30 1976 C 188.175 1.03783 1.22955 0
M  V30 1977 O 189.367 1.3002 1.20099 0
M  V30 1978 C 186.496 2.71886 2.09602 0
M  V30 1979 C 185.582 3.86937 1.7361 0
M  V30 1980 N 185.973 4.94073 1.08284 0
M  V30 1981 C 184.271 3.97082 2.03082 0
M  V30 1982 C 184.972 5.74477 0.913855 0
M  V30 1983 N 183.948 5.2423 1.43818 0
M  V30 1984 H 187.75 2.91967 0.336523 0
M  V30 1985 H 185.264 1.62174 0.0856332 0
M  V30 1986 H 187.261 3.09338 2.79492 0
M  V30 1987 H 185.921 1.93138 2.61013 0
M  V30 1988 H 186.932 5.12483 0.747067 0
M  V30 1989 H 183.609 3.29372 2.56554 0
M  V30 1990 H 184.999 6.70701 0.40125 0
M  V30 1991 N 187.719 -0.156864 1.56817 0
M  V30 1992 C 188.967 -0.869404 1.82444 0
M  V30 1993 C 189.288 -1.82147 0.69623 0
M  V30 1994 O 188.558 -1.93847 -0.28287 0
M  V30 1995 H 187.138 -0.324043 0.673056 0
M  V30 1996 H 189.8 -0.153224 1.94297 0
M  V30 1997 H 188.896 -1.43761 2.77019 0
M  V30 1998 N 189.197 -1.51736 -0.425897 0
M  V30 1999 C 190.446 -1.64201 -1.17136 0
M  V30 2000 C 190.759 -0.369705 -1.92074 0
M  V30 2001 O 191.965 -0.373898 -2.68913 0
M  V30 2002 C 190.421 -2.90035 -2.13091 0
M  V30 2003 C 190.029 -4.24312 -1.43747 0
M  V30 2004 C 191.773 -3.1186 -2.87999 0
M  V30 2005 C 189.68 -5.41285 -2.38253 0
M  V30 2006 H 188.61 -0.611624 -0.440944 0
M  V30 2007 H 191.261 -1.78212 -0.437328 0
M  V30 2008 H 189.643 -2.69684 -2.89977 0
M  V30 2009 H 190.817 -4.55086 -0.723408 0
M  V30 2010 H 189.132 -4.08456 -0.809465 0
M  V30 2011 H 191.729 -3.96427 -3.58817 0
M  V30 2012 H 192.072 -2.25403 -3.49999 0
M  V30 2013 H 192.605 -3.32605 -2.18217 0
M  V30 2014 H 189.344 -6.30037 -1.80925 0
M  V30 2015 H 188.864 -5.14872 -3.0768 0
M  V30 2016 H 190.543 -5.73694 -2.99139 0
M  V30 2017 N 190.675 0.682077 -1.42076 0
M  V30 2018 C 191.638 1.77756 -1.44691 0
M  V30 2019 C 192.638 1.5726 -0.335535 0
M  V30 2020 O 193.828 1.63686 -0.596037 0
M  V30 2021 C 190.96 3.16301 -1.27146 0
M  V30 2022 H 192.153 1.76826 -2.42224 0
M  V30 2023 H 189.706 0.891012 -1.28416 0
M  V30 2024 H 190.441 3.22862 -0.305075 0
M  V30 2025 H 190.226 3.32581 -2.07683 0
M  V30 2026 H 191.716 3.96241 -1.31843 0
M  V30 2027 N 192.153 1.28127 0.917671 0
M  V30 2028 C 193.083 1.14248 2.03641 0
M  V30 2029 C 194.064 0.0412748 1.7005 0
M  V30 2030 O 195.249 0.217566 1.92977 0
M  V30 2031 C 192.379 0.799431 3.37974 0
M  V30 2032 C 191.333 1.85497 3.85713 0
M  V30 2033 C 190.659 1.36565 5.16966 0
M  V30 2034 C 191.959 3.26085 4.08002 0
M  V30 2035 H 193.653 2.07835 2.15511 0
M  V30 2036 H 191.199 1.00064 1.03553 0
M  V30 2037 H 193.152 0.689114 4.15727 0
M  V30 2038 H 191.876 -0.172145 3.26146 0
M  V30 2039 H 190.535 1.95437 3.10161 0
M  V30 2040 H 190.183 0.383253 5.01538 0
M  V30 2041 H 189.883 2.07143 5.49878 0
M  V30 2042 H 191.407 1.26848 5.97279 0
M  V30 2043 H 192.821 3.19089 4.76293 0
M  V30 2044 H 191.218 3.94462 4.52238 0
M  V30 2045 H 192.288 3.70394 3.12948 0
M  V30 2046 N 193.631 -1.12557 1.10312 0
M  V30 2047 C 194.861 -1.87592 0.865617 0
M  V30 2048 C 195.269 -1.79851 -0.587389 0
M  V30 2049 O 194.612 -1.16949 -1.41664 0
M  V30 2050 C 194.674 -3.37665 1.23381 0
M  V30 2051 C 194.338 -3.69181 2.69359 0
M  V30 2052 C 195.335 -3.67652 3.67597 0
M  V30 2053 C 193.02 -3.98555 3.05711 0
M  V30 2054 C 195.014 -3.95053 5.00212 0
M  V30 2055 C 192.701 -4.25616 4.38514 0
M  V30 2056 C 193.699 -4.23851 5.35574 0
M  V30 2057 O 193.387 -4.50242 6.65986 0
M  V30 2058 H 193.119 -0.600442 0.310557 0
M  V30 2059 H 195.673 -1.4335 1.47105 0
M  V30 2060 H 193.903 -3.82454 0.571467 0
M  V30 2061 H 195.592 -3.94041 0.973994 0
M  V30 2062 H 196.358 -3.45024 3.40857 0
M  V30 2063 H 192.237 -3.99071 2.30789 0
M  V30 2064 H 195.781 -3.93591 5.75962 0
M  V30 2065 H 191.678 -4.47718 4.64994 0
M  V30 2066 H 192.446 -4.67867 6.71597 0
M  V30 2067 N 195.109 -0.891671 -1.2995 0
M  V30 2068 C 196.072 -0.36828 -2.26222 0
M  V30 2069 C 197.072 0.493014 -1.53056 0
M  V30 2070 O 198.262 0.299213 -1.71611 0
M  V30 2071 C 195.394 0.47442 -3.37583 0
M  V30 2072 H 196.587 -1.21844 -2.74033 0
M  V30 2073 H 194.14 -0.669107 -1.41254 0
M  V30 2074 H 194.875 1.34489 -2.95099 0
M  V30 2075 H 194.66 -0.142615 -3.91841 0
M  V30 2076 H 196.15 0.83218 -4.09224 0
M  V30 2077 N 196.587 1.43421 -0.653314 0
M  V30 2078 C 197.836 2.01032 -0.164076 0
M  V30 2079 C 198.149 1.52147 1.22926 0
M  V30 2080 O 199.355 2.02031 1.81371 0
M  V30 2081 C 197.811 3.59082 -0.24252 0
M  V30 2082 C 197.419 4.1696 -1.63855 0
M  V30 2083 C 199.163 4.24079 0.18911 0
M  V30 2084 C 197.07 5.67304 -1.67092 0
M  V30 2085 H 196 0.751798 -0.0575769 0
M  V30 2086 H 198.651 1.6439 -0.815362 0
M  V30 2087 H 197.033 3.93125 0.476276 0
M  V30 2088 H 198.207 3.94416 -2.38271 0
M  V30 2089 H 196.522 3.64335 -2.01616 0
M  V30 2090 H 199.119 5.34381 0.184775 0
M  V30 2091 H 199.462 3.98005 1.22056 0
M  V30 2092 H 199.995 3.94918 -0.477938 0
M  V30 2093 H 196.734 5.98145 -2.68146 0
M  V30 2094 H 196.254 5.91904 -0.970014 0
M  V30 2095 H 197.933 6.31344 -1.4147 0
M  V30 2096 N 198.065 0.39524 1.52563 0
M  V30 2097 C 199.311 -0.177763 2.02622 0
M  V30 2098 C 199.666 -1.43974 1.27629 0
M  V30 2099 O 198.959 -1.87995 0.36992 0
M  V30 2100 C 199.153 -0.493444 3.53977 0
M  V30 2101 C 198.982 0.736392 4.4363 0
M  V30 2102 C 197.752 1.25744 4.89404 0
M  V30 2103 C 199.95 1.61046 4.88435 0
M  V30 2104 N 197.932 2.44421 5.63145 0
M  V30 2105 C 199.303 2.64359 5.60816 0
M  V30 2106 C 201.358 1.62985 4.70468 0
M  V30 2107 C 200.061 3.69505 6.17137 0
M  V30 2108 C 202.087 2.67042 5.27677 0
M  V30 2109 C 201.449 3.69077 5.99968 0
M  V30 2110 H 197.548 -0.0269794 0.781534 0
M  V30 2111 H 200.132 0.546466 1.86874 0
M  V30 2112 H 198.303 -1.18672 3.69826 0
M  V30 2113 H 200.035 -1.05412 3.90731 0
M  V30 2114 H 196.79 0.817546 4.6649 0
M  V30 2115 H 197.214 3.04485 6.04663 0
M  V30 2116 H 201.856 0.854442 4.14076 0
M  V30 2117 H 199.574 4.4791 6.72608 0
M  V30 2118 H 203.16 2.69433 5.15652 0
M  V30 2119 H 202.04 4.48273 6.43444 0
M  V30 2120 N 199.544 -1.57102 0.125237 0
M  V30 2121 C 200.474 -2.18659 -0.819174 0
M  V30 2122 C 201.455 -1.12843 -1.27281 0
M  V30 2123 O 202.64 -1.41104 -1.33429 0
M  V30 2124 C 199.77 -2.79096 -2.06695 0
M  V30 2125 C 198.724 -3.90548 -1.75088 0
M  V30 2126 C 198.05 -4.37821 -3.06948 0
M  V30 2127 C 199.35 -5.12356 -1.01435 0
M  V30 2128 H 201.044 -2.9783 -0.306202 0
M  V30 2129 H 198.59 -1.4326 -0.145839 0
M  V30 2130 H 200.543 -3.2082 -2.73226 0
M  V30 2131 H 199.267 -1.97223 -2.60328 0
M  V30 2132 H 197.926 -3.49409 -1.10944 0
M  V30 2133 H 197.574 -3.52799 -3.58527 0
M  V30 2134 H 197.274 -5.12982 -2.86571 0
M  V30 2135 H 198.798 -4.822 -3.74587 0
M  V30 2136 H 200.212 -5.5106 -1.58132 0
M  V30 2137 H 198.609 -5.9314 -0.911319 0
M  V30 2138 H 199.679 -4.849 -0.00218681 0
M  V30 2139 N 201.022 0.148545 -1.56898 0
M  V30 2140 C 201.985 1.16736 -1.97244 0
M  V30 2141 C 202.985 1.35947 -0.858777 0
M  V30 2142 O 204.175 1.32966 -1.12542 0
M  V30 2143 C 201.307 2.52798 -2.28705 0
M  V30 2144 H 202.5 0.821279 -2.88435 0
M  V30 2145 H 200.053 0.391831 -1.51309 0
M  V30 2146 H 200.788 2.92381 -1.403 0
M  V30 2147 H 200.573 2.40216 -3.09901 0
M  V30 2148 H 202.063 3.26179 -2.60762 0
M  V30 2149 N 202.5 1.5196 0.417844 0
M  V30 2150 C 203.43 1.77634 1.51554 0
M  V30 2151 C 204.411 0.626918 1.58126 0
M  V30 2152 O 205.596 0.871632 1.7354 0
M  V30 2153 C 202.726 1.91911 2.8946 0
M  V30 2154 C 201.68 3.07463 2.97743 0
M  V30 2155 C 201.006 3.06951 4.37819 0
M  V30 2156 C 202.306 4.47082 2.70027 0
M  V30 2157 H 204 2.6955 1.3032 0
M  V30 2158 H 201.546 1.29706 0.625492 0
M  V30 2159 H 203.499 2.08455 3.6623 0
M  V30 2160 H 202.223 0.966598 3.11969 0
M  V30 2161 H 200.882 2.90656 2.23416 0
M  V30 2162 H 200.53 2.09438 4.57323 0
M  V30 2163 H 200.23 3.84556 4.44286 0
M  V30 2164 H 201.754 3.25613 5.16535 0
M  V30 2165 H 203.168 4.6414 3.36522 0
M  V30 2166 H 201.565 5.2654 2.87881 0
M  V30 2167 H 202.635 4.55777 1.65514 0
M  V30 2168 N 203.978 -0.674533 1.42435 0
M  V30 2169 C 204.941 -1.76986 1.45632 0
M  V30 2170 C 205.941 -1.5708 0.343871 0
M  V30 2171 O 207.131 -1.63367 0.604709 0
M  V30 2172 C 204.263 -3.15623 1.28822 0
M  V30 2173 H 205.456 -1.75539 2.43158 0
M  V30 2174 H 203.009 -0.884189 1.28887 0
M  V30 2175 H 203.744 -3.22696 0.322193 0
M  V30 2176 H 203.529 -3.31475 2.09444 0
M  V30 2177 H 205.019 -3.95537 1.33942 0
M  V30 2178 N 205.456 -1.28612 -0.910864 0
M  V30 2179 C 206.366 -1.14643 -2.0468 0
M  V30 2180 C 207.382 -0.0723121 -1.7385 0
M  V30 2181 O 208.558 -0.282178 -1.99413 0
M  V30 2182 C 205.623 -0.812561 -3.37044 0
M  V30 2183 C 204.684 -1.96935 -3.81465 0
M  V30 2184 C 203.917 -1.65131 -5.07511 0
M  V30 2185 O 204.14 -0.567013 -5.67575 0
M  V30 2186 O 203.074 -2.49585 -5.47714 0
M  V30 2187 H 206.9 -2.1001 -2.19384 0
M  V30 2188 H 204.485 -1.07958 -1.03274 0
M  V30 2189 H 206.367 -0.640441 -4.16505 0
M  V30 2190 H 205.042 0.111426 -3.23508 0
M  V30 2191 H 203.949 -2.19664 -3.02818 0
M  V30 2192 H 205.282 -2.87414 -3.99567 0
M  V30 2193 N 206.934 1.1197 -1.10907 0
M  V30 2194 C 207.866 2.17592 -0.720175 0
M  V30 2195 C 208.879 1.60938 0.245495 0
M  V30 2196 O 210.068 1.78476 0.0292245 0
M  V30 2197 C 207.168 3.38873 -0.0427917 0
M  V30 2198 C 206.341 4.25006 -1.03388 0
M  V30 2199 C 205.4 5.24774 -0.387075 0
M  V30 2200 O 204.426 5.59631 -1.03934 0
M  V30 2201 N 205.628 5.74208 0.852407 0
M  V30 2202 H 208.393 2.51567 -1.62893 0
M  V30 2203 H 205.954 1.27439 -0.998543 0
M  V30 2204 H 207.946 4.02703 0.401501 0
M  V30 2205 H 206.516 3.03007 0.768456 0
M  V30 2206 H 205.736 3.57716 -1.65629 0
M  V30 2207 H 207.024 4.79397 -1.70458 0
M  V30 2208 H 206.422 5.48062 1.40161 0
M  V30 2209 H 204.979 6.39901 1.23977 0
M  V30 2210 N 208.412 0.89855 1.29475 0
M  V30 2211 C 209.36 0.365253 2.29714 0
M  V30 2212 C 210.354 -0.534993 1.6073 0
M  V30 2213 O 211.56 -0.417921 1.75081 0
M  V30 2214 H 207.935 0.0994853 0.74539 0
M  V30 2215 H 209.906 1.22406 2.72138 0
M  V30 2216 C 208.655 -0.393159 3.4547 0
M  V30 2217 H 207.978 0.290332 3.98744 0
M  V30 2218 H 209.418 -0.731189 4.17648 0
M  V30 2219 C 207.877 -1.59539 2.9673 0
M  V30 2220 O 208.407 -2.69469 2.97908 0
M  V30 2221 N 206.613 -1.43716 2.52575 0
M  V30 2222 H 206.16 -0.542828 2.51816 0
M  V30 2223 H 206.118 -2.24288 2.20323 0
M  V30 2224 N 209.89 -1.43072 0.660911 0
M  V30 2225 C 211.139 -2.00942 0.174735 0
M  V30 2226 C 211.452 -1.52797 -1.22117 0
M  V30 2227 O 212.658 -2.02991 -1.80297 0
M  V30 2228 C 211.114 -3.58948 0.261559 0
M  V30 2229 C 210.722 -4.16085 1.66064 0
M  V30 2230 C 212.466 -4.24173 -0.166617 0
M  V30 2231 C 210.373 -5.6641 1.70098 0
M  V30 2232 H 209.303 -0.751483 0.0615631 0
M  V30 2233 H 211.954 -1.63955 0.824069 0
M  V30 2234 H 210.336 -3.93372 -0.455421 0
M  V30 2235 H 211.51 -3.93147 2.40359 0
M  V30 2236 H 209.825 -3.6326 2.03546 0
M  V30 2237 H 212.422 -5.34471 -0.156433 0
M  V30 2238 H 212.765 -3.98647 -1.19943 0
M  V30 2239 H 213.298 -3.94659 0.498875 0
M  V30 2240 H 210.037 -5.96715 2.71315 0
M  V30 2241 H 209.557 -5.91382 1.00139 0
M  V30 2242 H 211.236 -6.30585 1.44816 0
M  V30 2243 N 211.368 -0.403325 -1.52352 0
M  V30 2244 C 212.616 0.174003 -2.0135 0
M  V30 2245 C 212.937 1.46139 -1.29106 0
M  V30 2246 O 212.207 1.91448 -0.415253 0
M  V30 2247 H 210.787 0.0672911 -0.743963 0
M  V30 2248 H 213.449 -0.538235 -1.87321 0
M  V30 2249 H 212.545 0.374254 -3.09848 0
M  V30 2250 N 212.846 1.57033 -0.133567 0
M  V30 2251 C 213.779 2.11824 0.848872 0
M  V30 2252 C 214.757 1.03833 1.2513 0
M  V30 2253 O 215.941 1.31579 1.34978 0
M  V30 2254 C 213.068 2.62692 2.138 0
M  V30 2255 C 212.114 3.82705 1.88253 0
M  V30 2256 S 212.947 5.2438 1.08563 0
M  V30 2257 C 214.103 5.78627 2.38624 0
M  V30 2258 H 214.336 2.94824 0.38289 0
M  V30 2259 H 211.869 1.5419 0.0804796 0
M  V30 2260 H 213.827 2.92652 2.87863 0
M  V30 2261 H 212.488 1.79847 2.57515 0
M  V30 2262 H 211.681 4.16496 2.83809 0
M  V30 2263 H 211.283 3.53437 1.22305 0
M  V30 2264 H 213.575 5.8924 3.34369 0
M  V30 2265 H 214.518 6.76443 2.09358 0
M  V30 2266 H 214.926 5.06783 2.48658 0
M  V30 2267 N 214.325 -0.140222 1.56975 0
M  V30 2268 C 215.55 -0.870414 1.88251 0
M  V30 2269 C 215.975 -1.73637 0.723312 0
M  V30 2270 O 215.333 -1.78329 -0.32689 0
M  V30 2271 C 215.381 -1.69737 3.18154 0
M  V30 2272 O 214.485 -2.80229 3.02565 0
M  V30 2273 H 213.826 -0.242025 0.61832 0
M  V30 2274 H 216.356 -0.128999 2.04193 0
M  V30 2275 H 216.366 -2.09099 3.50345 0
M  V30 2276 H 215.041 -1.06152 4.02125 0
M  V30 2277 H 213.618 -2.44224 2.81796 0
M  V30 2278 N 215.803 -1.52179 -0.40978 0
M  V30 2279 C 217.049 -1.66453 -1.15851 0
M  V30 2280 C 217.382 -0.392972 -1.90182 0
M  V30 2281 O 216.657 0.608579 -1.84734 0
M  V30 2282 C 216.94 -2.88612 -2.15349 0
M  V30 2283 C 216.793 -4.25815 -1.44918 0
M  V30 2284 C 218.112 -3.06294 -3.16026 0
M  V30 2285 H 215.231 -0.60575 -0.419805 0
M  V30 2286 H 217.873 -1.84732 -0.444314 0
M  V30 2287 H 216.023 -2.73158 -2.76255 0
M  V30 2288 H 217.695 -4.52995 -0.871365 0
M  V30 2289 H 215.938 -4.27247 -0.751159 0
M  V30 2290 H 216.609 -5.07337 -2.17516 0
M  V30 2291 H 219.085 -3.20641 -2.65195 0
M  V30 2292 H 217.961 -3.93283 -3.8291 0
M  V30 2293 H 218.222 -2.19579 -3.83715 0
M  V30 2294 N 217.281 0.66697 -1.42791 0
M  V30 2295 C 218.213 1.7925 -1.42836 0
M  V30 2296 C 219.226 1.59496 -0.326333 0
M  V30 2297 O 220.415 1.6847 -0.589916 0
M  V30 2298 C 217.515 3.16476 -1.21229 0
M  V30 2299 C 216.688 3.63011 -2.44013 0
M  V30 2300 C 215.747 4.78993 -2.17834 0
M  V30 2301 O 214.773 4.89137 -2.91091 0
M  V30 2302 N 215.975 5.68248 -1.18635 0
M  V30 2303 H 218.74 1.79695 -2.39854 0
M  V30 2304 H 216.301 0.850338 -1.37771 0
M  V30 2305 H 218.293 3.91734 -1.01621 0
M  V30 2306 H 216.863 3.10884 -0.32706 0
M  V30 2307 H 216.083 2.78346 -2.79137 0
M  V30 2308 H 217.371 3.90845 -3.25757 0
M  V30 2309 H 216.769 5.62712 -0.580615 0
M  V30 2310 H 215.326 6.43285 -1.05013 0
M  V30 2311 N 218.759 1.29093 0.90403 0
M  V30 2312 C 219.709 1.10482 1.99443 0
M  V30 2313 C 220.693 0.0255401 1.6088 0
M  V30 2314 O 221.885 0.24677 1.75271 0
M  V30 2315 C 219.014 0.778882 3.34348 0
M  V30 2316 C 218.1 1.89749 3.79284 0
M  V30 2317 N 218.491 3.14045 3.96497 0
M  V30 2318 C 216.789 1.78955 4.08523 0
M  V30 2319 C 217.49 3.86996 4.34292 0
M  V30 2320 N 216.466 3.14909 4.43095 0
M  V30 2321 H 220.268 2.04778 2.10815 0
M  V30 2322 H 217.782 1.20155 1.09255 0
M  V30 2323 H 219.779 0.62661 4.12164 0
M  V30 2324 H 218.439 -0.156205 3.24324 0
M  V30 2325 H 219.45 3.49548 3.82148 0
M  V30 2326 H 216.127 0.926886 4.07081 0
M  V30 2327 H 217.517 4.93941 4.55491 0
M  V30 2328 N 220.237 -1.11381 1.11499 0
M  V30 2329 C 221.467 -1.86663 0.885464 0
M  V30 2330 C 221.875 -1.80464 -0.568281 0
M  V30 2331 O 221.218 -1.18445 -1.40415 0
M  V30 2332 C 221.28 -3.36337 1.26956 0
M  V30 2333 C 220.944 -3.66304 2.73259 0
M  V30 2334 C 221.941 -3.63733 3.71476 0
M  V30 2335 C 219.626 -3.9529 3.09921 0
M  V30 2336 C 221.62 -3.89725 5.04374 0
M  V30 2337 C 219.307 -4.20941 4.43004 0
M  V30 2338 C 220.305 -4.18147 5.40039 0
M  V30 2339 O 219.993 -4.43153 6.70724 0
M  V30 2340 H 219.725 -0.597114 0.316908 0
M  V30 2341 H 222.279 -1.41782 1.48617 0
M  V30 2342 H 220.509 -3.81826 0.611999 0
M  V30 2343 H 222.198 -3.92986 1.01573 0
M  V30 2344 H 222.964 -3.41389 3.44498 0
M  V30 2345 H 218.843 -3.966 2.35009 0
M  V30 2346 H 222.387 -3.8746 5.80104 0
M  V30 2347 H 218.284 -4.42761 4.69716 0
M  V30 2348 H 219.052 -4.60717 6.76522 0
M  V30 2349 N 221.715 -0.905404 -1.28997 0
M  V30 2350 C 222.663 -0.377431 -2.29517 0
M  V30 2351 C 223.657 0.526461 -1.61012 0
M  V30 2352 O 224.863 0.40863 -1.753 0
M  V30 2353 H 221.238 -0.103437 -0.744852 0
M  V30 2354 H 223.209 -1.23848 -2.71485 0
M  V30 2355 C 221.958 0.374833 -3.45674 0
M  V30 2356 H 221.281 -0.311474 -3.98585 0
M  V30 2357 H 222.721 0.70903 -4.1803 0
M  V30 2358 C 221.18 1.57963 -2.97572 0
M  V30 2359 O 221.71 2.67886 -2.99333 0
M  V30 2360 N 219.916 1.42375 -2.53333 0
M  V30 2361 H 219.463 0.529466 -2.521 0
M  V30 2362 H 219.421 2.23117 -2.21509 0
M  V30 2363 N 223.193 1.4272 -0.668489 0
M  V30 2364 C 224.604 1.84793 -0.266151 0
M  V30 2365 C 224.955 1.55959 1.19043 0
M  V30 2366 O 224.08 1.01622 1.91055 0
M  V30 2367 C 224.675 3.35436 -0.476271 0
M  V30 2368 C 223.234 3.76182 -0.128113 0
M  V30 2369 C 222.381 2.66344 -0.771777 0
M  V30 2370 H 225.332 1.32656 -0.871098 0
M  V30 2371 H 225.353 3.79515 0.273561 0
M  V30 2372 H 224.865 3.5639 -1.53647 0
M  V30 2373 H 222.966 3.60836 0.928891 0
M  V30 2374 H 223.079 4.75766 -0.564231 0
M  V30 2375 H 221.443 2.53885 -0.203652 0
M  V30 2376 H 222.226 2.90123 -1.83531 0
M  V30 2377 N 224.671 0.411399 1.52136 0
M  V30 2378 C 225.601 -0.404015 2.29978 0
M  V30 2379 C 226.582 -1.04412 1.34284 0
M  V30 2380 O 227.767 -1.0527 1.63192 0
M  V30 2381 C 224.897 -1.5197 3.12286 0
M  V30 2382 C 223.851 -1.00448 4.16046 0
M  V30 2383 C 223.177 -2.21393 4.86712 0
M  V30 2384 C 224.477 -0.0569336 5.22269 0
M  V30 2385 H 226.171 0.245529 2.98392 0
M  V30 2386 H 223.717 0.119525 1.43503 0
M  V30 2387 H 225.67 -2.09715 3.6551 0
M  V30 2388 H 224.394 -2.19716 2.41646 0
M  V30 2389 H 223.053 -0.449421 3.63835 0
M  V30 2390 H 222.701 -2.87699 4.12599 0
M  V30 2391 H 222.401 -1.87571 5.56858 0
M  V30 2392 H 223.925 -2.7974 5.4275 0
M  V30 2393 H 225.339 -0.54325 5.7072 0
M  V30 2394 H 223.736 0.192594 5.99791 0
M  V30 2395 H 224.806 0.887663 4.76706 0
M  V30 2396 N 226.149 -1.5696 0.141893 0
M  V30 2397 C 227.395 -1.9625 -0.511248 0
M  V30 2398 C 227.728 -1.02654 -1.64851 0
M  V30 2399 O 227.003 -0.0679676 -1.94381 0
M  V30 2400 C 227.286 -3.45285 -1.02227 0
M  V30 2401 C 227.139 -4.49658 0.113138 0
M  V30 2402 C 228.458 -3.96698 -1.90574 0
M  V30 2403 H 225.577 -0.713567 -0.184367 0
M  V30 2404 H 228.219 -1.88698 0.222087 0
M  V30 2405 H 226.369 -3.51852 -1.64719 0
M  V30 2406 H 228.041 -4.55174 0.749302 0
M  V30 2407 H 226.284 -4.26857 0.773026 0
M  V30 2408 H 226.955 -5.51258 -0.286053 0
M  V30 2409 H 229.431 -3.92578 -1.37918 0
M  V30 2410 H 228.307 -5.01453 -2.2324 0
M  V30 2411 H 228.568 -3.3875 -2.84079 0
M  V30 2412 N 227.627 0.131896 -1.57047 0
M  V30 2413 C 228.904 0.871495 -1.75112 0
M  V30 2414 C 229.284 1.9866 -0.713949 0
M  V30 2415 O 228.632 2.26965 0.264447 0
M  V30 2416 C 228.842 1.40007 -3.19686 0
M  V30 2417 C 230.19 1.85752 -3.81813 0
M  V30 2418 O 231.214 1.49715 -3.23209 0
M  V30 2419 O 230.073 2.5226 -4.84796 0
M  V30 2420 H 227.167 0.412919 -0.716538 0
M  V30 2421 H 229.713 0.116641 -1.69299 0
M  V30 2422 H 228.485 0.599404 -3.86682 0
M  V30 2423 H 228.108 2.218 -3.29986 0
M  V30 2424 N 229.106 1.52395 0.401703 0
M  V30 2425 C 230.069 1.75636 1.47257 0
M  V30 2426 C 231.069 0.62628 1.48103 0
M  V30 2427 O 232.259 0.894227 1.49497 0
M  V30 2428 C 229.391 1.84553 2.86624 0
M  V30 2429 H 230.584 2.71241 1.27938 0
M  V30 2430 H 228.137 1.42923 0.632662 0
M  V30 2431 H 228.872 0.908882 3.11303 0
M  V30 2432 H 228.657 2.66715 2.87412 0
M  V30 2433 H 230.147 2.04251 3.64241 0
M  V30 2434 N 230.584 -0.659388 1.43143 0
M  V30 2435 C 231.516 -1.7849 1.43784 0
M  V30 2436 C 232.529 -1.5932 0.334787 0
M  V30 2437 O 233.718 -1.68155 0.598842 0
M  V30 2438 C 230.818 -3.15828 1.22906 0
M  V30 2439 C 229.991 -3.61711 2.45934 0
M  V30 2440 C 229.05 -4.77831 2.20371 0
M  V30 2441 O 228.076 -4.87586 2.93681 0
M  V30 2442 N 229.278 -5.67611 1.21647 0
M  V30 2443 H 232.043 -1.7842 2.40803 0
M  V30 2444 H 229.604 -0.84302 1.3822 0
M  V30 2445 H 231.596 -3.91189 1.03697 0
M  V30 2446 H 230.166 -3.10707 0.343542 0
M  V30 2447 H 229.386 -2.76861 2.80609 0
M  V30 2448 H 230.674 -3.89112 3.27825 0
M  V30 2449 H 230.072 -5.62397 0.610449 0
M  V30 2450 H 228.629 -6.42719 1.08423 0
M  V30 2451 N 232.062 -1.29571 -0.897171 0
M  V30 2452 C 233.308 -1.17863 -1.65034 0
M  V30 2453 C 233.641 0.268729 -1.92332 0
M  V30 2454 O 232.916 1.19378 -1.53555 0
M  V30 2455 C 233.199 -1.995 -2.99786 0
M  V30 2456 C 233.052 -3.5239 -2.79538 0
M  V30 2457 C 234.371 -1.82335 -4.00552 0
M  V30 2458 H 231.49 -0.429528 -0.598895 0
M  V30 2459 H 234.132 -1.59072 -1.03905 0
M  V30 2460 H 232.282 -1.64485 -3.51962 0
M  V30 2461 H 233.954 -3.97401 -2.34244 0
M  V30 2462 H 232.197 -3.77187 -2.14273 0
M  V30 2463 H 232.868 -4.04787 -3.75302 0
M  V30 2464 H 235.344 -2.12924 -3.57495 0
M  V30 2465 H 234.22 -2.41801 -4.92771 0
M  V30 2466 H 234.481 -0.779209 -4.35179 0
M  V30 2467 N 233.54 1.10788 -1.12088 0
M  V30 2468 C 234.503 2.15207 -0.788577 0
M  V30 2469 C 235.503 1.59609 0.195317 0
M  V30 2470 O 236.693 1.74174 -0.0300193 0
M  V30 2471 C 233.825 3.4047 -0.171174 0
M  V30 2472 H 235.018 2.46116 -1.71368 0
M  V30 2473 H 232.571 1.26089 -0.923652 0
M  V30 2474 H 233.306 3.15176 0.763832 0
M  V30 2475 H 233.091 3.82109 -0.879514 0
M  V30 2476 H 234.581 4.17576 0.04496 0
M  V30 2477 N 235.018 0.912232 1.28515 0
M  V30 2478 C 235.928 0.404506 2.31086 0
M  V30 2479 C 236.944 -0.50707 1.66448 0
M  V30 2480 O 238.12 -0.393624 1.97516 0
M  V30 2481 C 235.185 -0.348572 3.44943 0
M  V30 2482 C 234.246 0.59604 4.25142 0
M  V30 2483 C 233.479 -0.121194 5.33562 0
M  V30 2484 O 233.702 -1.34317 5.5436 0
M  V30 2485 O 232.636 0.542716 5.99448 0
M  V30 2486 H 236.462 1.25579 2.76521 0
M  V30 2487 H 234.047 0.676998 1.33181 0
M  V30 2488 H 235.929 -0.77395 4.14232 0
M  V30 2489 H 234.604 -1.17571 3.01594 0
M  V30 2490 H 233.511 1.07079 3.58448 0
M  V30 2491 H 234.844 1.38995 4.72167 0
M  V30 2492 N 236.496 -1.42363 0.676048 0
M  V30 2493 C 237.443 -2.308 -0.00150904 0
M  V30 2494 C 238.413 -1.46032 -0.791444 0
M  V30 2495 O 239.598 -1.74861 -0.76344 0
M  V30 2496 C 236.738 -3.31883 -0.945919 0
M  V30 2497 C 235.851 -4.31741 -0.149675 0
M  V30 2498 C 234.986 -5.19898 -1.08995 0
M  V30 2499 C 234.025 -6.11434 -0.285465 0
M  V30 2500 N 233.162 -6.92138 -1.17851 0
M  V30 2501 H 238.002 -2.88187 0.758455 0
M  V30 2502 H 235.539 -1.41952 0.38576 0
M  V30 2503 H 237.497 -3.89019 -1.50731 0
M  V30 2504 H 236.127 -2.76093 -1.6725 0
M  V30 2505 H 235.179 -3.76713 0.528359 0
M  V30 2506 H 236.491 -4.96534 0.474866 0
M  V30 2507 H 235.645 -5.81772 -1.72123 0
M  V30 2508 H 234.384 -4.55284 -1.74837 0
M  V30 2509 H 233.389 -5.48627 0.359018 0
M  V30 2510 H 234.614 -6.78097 0.368883 0
M  V30 2511 H 232.56 -6.30152 -1.82332 0
M  V30 2512 H 232.477 -7.53542 -0.609082 0
M  V30 2513 H 233.745 -7.58499 -1.79722 0
M  V30 2514 N 237.974 -0.419461 -1.51915 0
M  V30 2515 C 239.204 0.151915 -2.06041 0
M  V30 2516 C 239.612 1.38539 -1.28855 0
M  V30 2517 O 238.955 1.80592 -0.336463 0
M  V30 2518 C 239.017 0.557119 -3.55157 0
M  V30 2519 C 238.681 -0.567054 -4.53468 0
M  V30 2520 C 239.678 -1.43379 -4.99738 0
M  V30 2521 C 237.363 -0.742693 -4.96779 0
M  V30 2522 C 239.357 -2.46102 -5.87973 0
M  V30 2523 C 237.044 -1.77322 -5.84808 0
M  V30 2524 C 238.042 -2.63078 -6.30301 0
M  V30 2525 O 237.73 -3.64364 -7.16585 0
M  V30 2526 H 237.462 0.0193293 -0.675724 0
M  V30 2527 H 240.016 -0.592073 -1.96682 0
M  V30 2528 H 238.246 1.35355 -3.62238 0
M  V30 2529 H 239.935 1.05759 -3.9188 0
M  V30 2530 H 240.701 -1.30954 -4.66986 0
M  V30 2531 H 236.58 -0.0848307 -4.60922 0
M  V30 2532 H 240.124 -3.13071 -6.23404 0
M  V30 2533 H 236.021 -1.89773 -6.16974 0
M  V30 2534 H 236.789 -3.60731 -7.34721 0
M  V30 2535 N 239.452 1.56882 -0.150215 0
M  V30 2536 C 240.729 1.87844 0.545327 0
M  V30 2537 C 241.109 1.0567 1.82749 0
M  V30 2538 O 240.457 0.144442 2.28043 0
M  V30 2539 C 240.667 3.39526 0.80767 0
M  V30 2540 C 242.015 4.08814 1.14703 0
M  V30 2541 O 243.039 3.44723 0.896917 0
M  V30 2542 O 241.898 5.22004 1.61784 0
M  V30 2543 H 238.992 0.778677 0.278553 0
M  V30 2544 H 241.538 1.68666 -0.187068 0
M  V30 2545 H 240.31 3.91173 -0.0996096 0
M  V30 2546 H 239.933 3.64243 1.59413 0
M  V30 2547 N 240.93 -0.123565 1.57115 0
M  V30 2548 C 241.86 -1.15309 2.03042 0
M  V30 2549 C 242.841 -1.43454 0.914061 0
M  V30 2550 O 244.026 -1.53973 1.18347 0
M  V30 2551 C 241.156 -2.48043 2.43089 0
M  V30 2552 C 240.11 -2.3437 3.58127 0
M  V30 2553 C 239.436 -3.72026 3.84059 0
M  V30 2554 C 240.736 -1.80804 4.90007 0
M  V30 2555 H 242.43 -0.771102 2.893 0
M  V30 2556 H 239.976 -0.369479 1.39179 0
M  V30 2557 H 241.929 -3.20311 2.73823 0
M  V30 2558 H 240.653 -2.88122 1.53796 0
M  V30 2559 H 239.312 -1.64551 3.27595 0
M  V30 2560 H 238.96 -4.09582 2.91979 0
M  V30 2561 H 238.66 -3.63732 4.6149 0
M  V30 2562 H 240.184 -4.45806 4.1724 0
M  V30 2563 H 241.598 -2.42886 5.19307 0
M  V30 2564 H 239.995 -1.83343 5.71407 0
M  V30 2565 H 241.065 -0.76528 4.78823 0
M  V30 2566 N 242.408 -1.52605 -0.393616 0
M  V30 2567 C 243.819 -1.59417 -0.971761 0
M  V30 2568 C 244.17 -0.444173 -1.91106 0
M  V30 2569 O 243.295 0.433382 -2.12016 0
M  V30 2570 C 243.89 -2.88936 -1.76921 0
M  V30 2571 C 242.449 -2.98175 -2.29714 0
M  V30 2572 C 241.596 -2.54491 -1.10135 0
M  V30 2573 H 244.547 -1.57751 -0.173317 0
M  V30 2574 H 244.568 -2.75163 -2.62804 0
M  V30 2575 H 244.08 -3.72616 -1.08532 0
M  V30 2576 H 242.181 -2.19024 -3.01429 0
M  V30 2577 H 242.294 -4.02726 -2.59517 0
M  V30 2578 H 240.658 -2.08702 -1.45999 0
M  V30 2579 H 241.441 -3.4056 -0.432874 0
M  V30 2580 N 243.887 0.651787 -1.4349 0
M  V30 2581 C 245.115 1.43937 -1.48626 0
M  V30 2582 C 245.53 1.8851 -0.104587 0
M  V30 2583 O 244.887 1.5958 0.885464 0
M  V30 2584 C 244.938 2.6734 -2.43334 0
M  V30 2585 O 244.659 2.24631 -3.76128 0
M  V30 2586 C 246.16 3.60683 -2.57726 0
M  V30 2587 H 243.38 0.44213 -0.504739 0
M  V30 2588 H 245.924 0.798944 -1.88248 0
M  V30 2589 H 244.079 3.2752 -2.06904 0
M  V30 2590 H 244.493 3.04485 -4.2707 0
M  V30 2591 H 245.967 4.43933 -3.28067 0
M  V30 2592 H 246.444 4.08126 -1.62265 0
M  V30 2593 H 247.05 3.06384 -2.94973 0
M  V30 2594 N 245.365 1.30045 0.890287 0
M  V30 2595 C 246.313 1.15873 2.01683 0
M  V30 2596 C 247.307 0.0719403 1.69247 0
M  V30 2597 O 248.513 0.232414 1.78493 0
M  V30 2598 H 244.888 0.358203 0.661207 0
M  V30 2599 H 246.859 2.11229 2.10772 0
M  V30 2600 C 245.608 0.861842 3.36849 0
M  V30 2601 H 244.931 1.69016 3.62317 0
M  V30 2602 H 246.371 0.802762 4.16331 0
M  V30 2603 C 244.83 -0.435132 3.34078 0
M  V30 2604 O 245.36 -1.4583 3.74295 0
M  V30 2605 N 243.566 -0.444377 2.87182 0
M  V30 2606 H 243.113 0.388723 2.5465 0
M  V30 2607 H 243.071 -1.31213 2.85711 0
M  V30 2608 N 246.843 -1.10192 1.12674 0
M  V30 2609 C 248.089 -1.82658 0.894847 0
M  V30 2610 C 248.444 -1.83666 -0.573107 0
M  V30 2611 O 247.737 -1.28816 -1.41835 0
M  V30 2612 C 247.931 -3.28552 1.4067 0
M  V30 2613 C 247.76 -3.41756 2.92289 0
M  V30 2614 C 246.53 -3.54021 3.60551 0
M  V30 2615 C 248.728 -3.34949 3.90274 0
M  V30 2616 N 246.71 -3.55827 5.0026 0
M  V30 2617 C 248.081 -3.43531 5.16127 0
M  V30 2618 C 250.136 -3.18565 3.8265 0
M  V30 2619 C 248.839 -3.37416 6.3525 0
M  V30 2620 C 250.865 -3.13772 5.01299 0
M  V30 2621 C 250.227 -3.22938 6.26012 0
M  V30 2622 H 246.326 -0.683044 0.380756 0
M  V30 2623 H 248.91 -1.31752 1.43351 0
M  V30 2624 H 247.081 -3.77946 0.895055 0
M  V30 2625 H 248.813 -3.88991 1.11661 0
M  V30 2626 H 245.568 -3.57135 3.1105 0
M  V30 2627 H 245.992 -3.60335 5.73138 0
M  V30 2628 H 250.634 -3.10354 2.87124 0
M  V30 2629 H 248.352 -3.44391 7.3104 0
M  V30 2630 H 251.938 -3.02242 4.97133 0
M  V30 2631 H 250.818 -3.19235 7.16281 0
M  V30 2632 N 248.321 -0.919034 -1.28029 0
M  V30 2633 C 249.268 -0.410005 -2.27129 0
M  V30 2634 C 250.238 0.518405 -1.57803 0
M  V30 2635 O 251.423 0.439451 -1.8567 0
M  V30 2636 C 248.563 0.339054 -3.4343 0
M  V30 2637 C 247.676 -0.622468 -4.27492 0
M  V30 2638 C 246.811 0.145567 -5.31001 0
M  V30 2639 C 245.85 -0.809226 -6.06727 0
M  V30 2640 N 244.987 -0.0743728 -7.02061 0
M  V30 2641 H 249.827 -1.26011 -2.70047 0
M  V30 2642 H 247.364 -0.632663 -1.328 0
M  V30 2643 H 249.322 0.789586 -4.0966 0
M  V30 2644 H 247.952 1.15346 -3.01488 0
M  V30 2645 H 247.004 -1.19153 -3.61257 0
M  V30 2646 H 248.316 -1.35252 -4.80113 0
M  V30 2647 H 247.47 0.656417 -6.03139 0
M  V30 2648 H 246.209 0.908643 -4.79161 0
M  V30 2649 H 245.214 -1.3314 -5.33436 0
M  V30 2650 H 246.439 -1.57194 -6.60656 0
M  V30 2651 H 244.385 0.670616 -6.52563 0
M  V30 2652 H 244.302 -0.744157 -7.52329 0
M  V30 2653 H 245.57 0.416109 -7.78389 0
M  V30 2654 N 249.799 1.42003 -0.683588 0
M  V30 2655 C 250.732 2.28166 0.039592 0
M  V30 2656 C 251.71 1.41562 0.799942 0
M  V30 2657 O 252.894 1.70997 0.793248 0
M  V30 2658 C 250.021 3.21575 1.06335 0
M  V30 2659 C 249.067 4.24643 0.397562 0
M  V30 2660 S 249.9 5.2869 -0.851296 0
M  V30 2661 C 251.056 6.25666 0.171166 0
M  V30 2662 H 251.289 2.89153 -0.691229 0
M  V30 2663 H 248.822 1.46962 -0.473435 0
M  V30 2664 H 250.78 3.75928 1.6489 0
M  V30 2665 H 249.441 2.59707 1.76667 0
M  V30 2666 H 248.634 4.90223 1.17035 0
M  V30 2667 H 248.236 3.73824 -0.114611 0
M  V30 2668 H 250.528 6.69653 1.02819 0
M  V30 2669 H 251.471 7.06666 -0.450397 0
M  V30 2670 H 251.879 5.62095 0.520578 0
M  V30 2671 N 251.277 0.427512 1.51691 0
M  V30 2672 C 252.693 0.0792977 1.59403 0
M  V30 2673 C 252.893 -1.41035 1.43914 0
M  V30 2674 O 251.949 -2.17922 1.27539 0
M  V30 2675 C 253.262 0.590636 2.94842 0
M  V30 2676 C 254.81 0.550215 3.08126 0
M  V30 2677 C 255.285 1.03836 4.46074 0
M  V30 2678 N 256.776 0.995943 4.52366 0
M  V30 2679 C 257.511 1.34463 5.57411 0
M  V30 2680 N 257.007 1.76569 6.69922 0
M  V30 2681 N 258.8 1.26343 5.47717 0
M  V30 2682 H 250.951 1.39687 1.60004 0
M  V30 2683 H 253.214 0.575003 0.753708 0
M  V30 2684 H 252.92 1.63251 3.11516 0
M  V30 2685 H 252.794 0.0102061 3.77199 0
M  V30 2686 H 255.181 -0.482654 2.91126 0
M  V30 2687 H 255.262 1.16693 2.27632 0
M  V30 2688 H 254.906 2.06965 4.63819 0
M  V30 2689 H 254.836 0.398286 5.25092 0
M  V30 2690 H 257.327 0.68661 3.7161 0
M  V30 2691 H 257.64 2.01438 7.46085 0
M  V30 2692 H 255.985 1.80488 6.71155 0
M  V30 2693 H 259.176 0.933209 4.58703 0
M  V30 2694 H 259.349 1.53846 6.29472 0
M  V30 2695 N 252.755 -1.56801 0.158532 0
M  V30 2696 C 253.718 -2.16138 -0.762705 0
M  V30 2697 C 254.718 -1.1061 -1.16713 0
M  V30 2698 O 255.908 -1.36191 -1.08617 0
M  V30 2699 C 253.04 -2.73386 -2.03649 0
M  V30 2700 H 254.233 -2.98886 -0.246354 0
M  V30 2701 H 251.786 -1.56035 -0.0909744 0
M  V30 2702 H 252.521 -1.94335 -2.59623 0
M  V30 2703 H 252.306 -3.50601 -1.75559 0
M  V30 2704 H 253.796 -3.19065 -2.6942 0
M  V30 2705 N 254.233 0.115231 -1.57178 0
M  V30 2706 C 255.165 1.16694 -1.97269 0
M  V30 2707 C 256.178 1.37445 -0.872502 0
M  V30 2708 O 257.367 1.36454 -1.15077 0
M  V30 2709 C 254.467 2.52627 -2.25905 0
M  V30 2710 C 253.64 2.52427 -3.57211 0
M  V30 2711 C 252.699 3.70134 -3.74016 0
M  V30 2712 O 251.725 3.53546 -4.46087 0
M  V30 2713 N 252.927 4.88844 -3.13068 0
M  V30 2714 H 255.692 0.82588 -2.88096 0
M  V30 2715 H 253.253 0.304461 -1.59011 0
M  V30 2716 H 255.245 3.29937 -2.34359 0
M  V30 2717 H 253.815 2.789 -1.41186 0
M  V30 2718 H 253.035 1.60805 -3.5991 0
M  V30 2719 H 254.323 2.49353 -4.43509 0
M  V30 2720 H 253.721 5.05225 -2.54489 0
M  V30 2721 H 252.278 5.63817 -3.27037 0
M  V30 2722 N 255.711 1.52812 0.385517 0
M  V30 2723 C 256.96 1.67249 1.12741 0
M  V30 2724 C 257.273 0.4205 1.91027 0
M  V30 2725 O 258.479 0.445064 2.67827 0
M  V30 2726 C 256.935 2.95583 2.05326 0
M  V30 2727 C 256.543 4.27974 1.32447 0
M  V30 2728 C 258.287 3.19386 2.7963 0
M  V30 2729 C 256.194 5.47412 2.23818 0
M  V30 2730 H 255.124 0.6231 0.424573 0
M  V30 2731 H 257.775 1.79309 0.389924 0
M  V30 2732 H 256.157 2.77277 2.82725 0
M  V30 2733 H 257.331 4.56844 0.602495 0
M  V30 2734 H 255.646 4.10459 0.700885 0
M  V30 2735 H 258.243 4.05801 3.48181 0
M  V30 2736 H 258.586 2.34604 3.43899 0
M  V30 2737 H 259.119 3.38274 2.09322 0
M  V30 2738 H 255.858 6.34612 1.64157 0
M  V30 2739 H 255.378 5.22849 2.93921 0
M  V30 2740 H 257.057 5.81423 2.83824 0
M  V30 2741 N 257.189 -0.644168 1.43834 0
M  V30 2742 C 258.6 -1.22554 1.40845 0
M  V30 2743 C 258.951 -1.9585 0.117115 0
M  V30 2744 O 258.076 -2.01734 -0.783086 0
M  V30 2745 C 258.671 -2.22907 2.55143 0
M  V30 2746 C 257.23 -2.76501 2.5539 0
M  V30 2747 C 256.377 -1.51287 2.32396 0
M  V30 2748 H 259.328 -0.43563 1.52604 0
M  V30 2749 H 259.349 -3.05259 2.2715 0
M  V30 2750 H 258.861 -1.69533 3.49114 0
M  V30 2751 H 256.962 -3.33914 1.65324 0
M  V30 2752 H 257.075 -3.23429 3.53455 0
M  V30 2753 H 255.439 -1.78957 1.81236 0
M  V30 2754 H 256.222 -0.998336 3.28463 0
M  V30 2755 N 258.668 -1.30515 -0.883378 0
M  V30 2756 C 259.915 -1.1943 -1.63532 0
M  V30 2757 C 260.243 0.250627 -1.92878 0
M  V30 2758 O 259.498 1.19556 -1.54935 0
M  V30 2759 C 259.797 -1.96994 -2.98209 0
M  V30 2760 C 259.463 -3.466 -2.88408 0
M  V30 2761 C 258.125 -3.87397 -2.85442 0
M  V30 2762 C 260.477 -4.41863 -2.76418 0
M  V30 2763 C 257.805 -5.21745 -2.68327 0
M  V30 2764 C 260.157 -5.7632 -2.60841 0
M  V30 2765 C 258.821 -6.16354 -2.56251 0
M  V30 2766 H 258.091 -0.437025 -0.598406 0
M  V30 2767 H 260.738 -1.61635 -1.02696 0
M  V30 2768 H 259.043 -1.47429 -3.63004 0
M  V30 2769 H 260.74 -1.85808 -3.55354 0
M  V30 2770 H 257.33 -3.14182 -2.91527 0
M  V30 2771 H 261.514 -4.11285 -2.77775 0
M  V30 2772 H 256.77 -5.51853 -2.63189 0
M  V30 2773 H 260.944 -6.49772 -2.50538 0
M  V30 2774 H 258.571 -7.20401 -2.42748 0
M  V30 2775 N 260.146 1.09593 -1.13257 0
M  V30 2776 C 261.394 1.81375 -0.891492 0
M  V30 2777 C 261.715 1.86049 0.584009 0
M  V30 2778 O 260.985 1.34481 1.42449 0
M  V30 2779 H 259.565 0.671708 -0.326828 0
M  V30 2780 H 262.227 1.3256 -1.42877 0
M  V30 2781 H 261.323 2.84612 -1.28071 0
M  V30 2782 N 261.624 0.925811 1.2754 0
M  V30 2783 C 262.849 0.580924 1.99098 0
M  V30 2784 C 263.274 -0.833555 1.68622 0
M  V30 2785 O 262.632 -1.55903 0.925422 0
M  V30 2786 C 262.68 0.811186 3.51358 0
M  V30 2787 O 261.784 -0.124129 4.12213 0
M  V30 2788 H 261.125 0.223873 0.625122 0
M  V30 2789 H 263.655 1.24455 1.62395 0
M  V30 2790 H 263.665 0.72601 4.01489 0
M  V30 2791 H 262.34 1.84227 3.72872 0
M  V30 2792 H 260.917 0.0108006 3.72898 0
M  V30 2793 N 263.102 -1.41638 0.69111 0
M  V30 2794 C 264.351 -2.00526 0.217318 0
M  V30 2795 C 264.664 -1.55353 -1.18848 0
M  V30 2796 O 265.87 -2.06769 -1.75951 0
M  V30 2797 C 264.326 -3.58313 0.337639 0
M  V30 2798 C 263.934 -4.12469 1.74852 0
M  V30 2799 C 265.678 -4.24431 -0.0766066 0
M  V30 2800 C 263.585 -5.62675 1.82074 0
M  V30 2801 H 262.515 -0.750008 0.0774893 0
M  V30 2802 H 265.166 -1.6217 0.858661 0
M  V30 2803 H 263.548 -3.9425 -0.371879 0
M  V30 2804 H 264.722 -3.8796 2.48644 0
M  V30 2805 H 263.037 -3.58861 2.11205 0
M  V30 2806 H 265.634 -5.34683 -0.0430284 0
M  V30 2807 H 265.977 -4.01101 -1.1146 0
M  V30 2808 H 266.51 -3.93512 0.582476 0
M  V30 2809 H 263.249 -5.90826 2.83911 0
M  V30 2810 H 262.769 -5.89124 1.12661 0
M  V30 2811 H 264.448 -6.27371 1.58159 0
M  V30 2812 N 264.58 -0.43555 -1.51462 0
M  V30 2813 C 265.49 0.383001 -2.31453 0
M  V30 2814 C 266.506 1.02931 -1.4029 0
M  V30 2815 O 267.682 1.02507 -1.73362 0
M  V30 2816 C 264.747 1.47043 -3.13973 0
M  V30 2817 C 263.808 0.844433 -4.20913 0
M  V30 2818 C 263.041 1.88004 -4.9949 0
M  V30 2819 O 263.264 3.10199 -4.78678 0
M  V30 2820 O 262.198 1.47157 -5.83634 0
M  V30 2821 H 266.024 -0.269964 -3.02498 0
M  V30 2822 H 263.609 -0.19813 -1.4808 0
M  V30 2823 H 265.491 2.10113 -3.65281 0
M  V30 2824 H 264.166 2.10751 -2.45695 0
M  V30 2825 H 263.073 0.175729 -3.73687 0
M  V30 2826 H 264.406 0.250869 -4.9156 0
M  V30 2827 N 266.058 1.56714 -0.166846 0
M  V30 2828 C 267.021 2.16539 0.751232 0
M  V30 2829 C 268.021 1.11228 1.16125 0
M  V30 2830 O 269.211 1.36765 1.07894 0
M  V30 2831 C 266.343 2.74462 2.02196 0
M  V30 2832 H 267.536 2.99013 0.230499 0
M  V30 2833 H 265.089 1.56081 0.0826982 0
M  V30 2834 H 265.824 1.95709 2.58589 0
M  V30 2835 H 265.609 3.51527 1.73698 0
M  V30 2836 H 267.099 3.20489 2.67725 0
M  V30 2837 N 267.536 -0.106894 1.57237 0
M  V30 2838 C 268.947 -0.662723 1.74542 0
M  V30 2839 C 269.298 -1.7971 0.787319 0
M  V30 2840 O 268.423 -2.16368 -0.0369636 0
M  V30 2841 C 269.018 -1.20896 3.16496 0
M  V30 2842 C 267.577 -1.71096 3.35266 0
M  V30 2843 C 266.724 -0.615642 2.7038 0
M  V30 2844 H 269.675 0.119106 1.58252 0
M  V30 2845 H 269.696 -2.07847 3.18716 0
M  V30 2846 H 269.208 -0.383122 3.86204 0
M  V30 2847 H 267.309 -2.56119 2.70618 0
M  V30 2848 H 267.422 -1.81208 4.43509 0
M  V30 2849 H 265.786 -1.05222 2.31949 0
M  V30 2850 H 266.569 0.199419 3.4272 0
M  V30 2851 N 269.014 -1.53014 -0.377408 0
M  V30 2852 C 269.977 -1.77957 -1.44444 0
M  V30 2853 C 270.977 -0.649763 -1.47087 0
M  V30 2854 O 272.167 -0.917897 -1.48055 0
M  V30 2855 C 269.299 -1.89089 -2.83651 0
M  V30 2856 H 270.492 -2.73243 -1.23606 0
M  V30 2857 H 268.045 -1.43912 -0.609844 0
M  V30 2858 H 268.78 -0.958293 -3.09818 0
M  V30 2859 H 268.565 -2.71254 -2.83132 0
M  V30 2860 H 270.055 -2.1002 -3.60945 0
M  V30 2861 N 270.492 0.636531 -1.44174 0
M  V30 2862 C 271.74 1.39343 -1.46383 0
M  V30 2863 C 272.061 1.94766 -0.0955715 0
M  V30 2864 O 271.331 1.75452 0.871395 0
M  V30 2865 H 269.911 0.517199 -0.538994 0
M  V30 2866 H 272.573 0.74957 -1.7991 0
M  V30 2867 H 271.669 2.22746 -2.18611 0
M  V30 2868 N 271.97 1.30982 0.876444 0
M  V30 2869 C 272.88 1.2003 2.01569 0
M  V30 2870 C 273.896 0.11838 1.73597 0
M  V30 2871 O 275.072 0.33495 1.98595 0
M  V30 2872 C 272.137 0.901637 3.34771 0
M  V30 2873 C 271.198 2.06979 3.76109 0
M  V30 2874 C 270.431 1.78529 5.02954 0
M  V30 2875 O 270.654 0.717296 5.65872 0
M  V30 2876 O 269.588 2.64019 5.40905 0
M  V30 2877 H 273.414 2.15753 2.13739 0
M  V30 2878 H 270.999 1.10658 1.00375 0
M  V30 2879 H 272.881 0.750645 4.1466 0
M  V30 2880 H 271.556 -0.0256141 3.2369 0
M  V30 2881 H 270.463 2.27616 2.96887 0
M  V30 2882 H 271.796 2.97907 3.91807 0
M  V30 2883 N 273.449 -1.08991 1.13837 0
M  V30 2884 C 274.396 -2.15748 0.819835 0
M  V30 2885 C 275.366 -1.64636 -0.220026 0
M  V30 2886 O 276.551 -1.90582 -0.0912757 0
M  V30 2887 C 273.691 -3.4382 0.296913 0
M  V30 2888 C 272.804 -4.0881 1.39636 0
M  V30 2889 C 271.939 -5.24655 0.831314 0
M  V30 2890 C 270.978 -5.81575 1.90886 0
M  V30 2891 N 270.115 -6.88774 1.36142 0
M  V30 2892 H 274.955 -2.42338 1.73426 0
M  V30 2893 H 272.492 -1.18935 0.865613 0
M  V30 2894 H 274.45 -4.17193 -0.0244339 0
M  V30 2895 H 273.08 -3.17535 -0.580628 0
M  V30 2896 H 272.132 -3.33258 1.83422 0
M  V30 2897 H 273.444 -4.47141 2.21058 0
M  V30 2898 H 272.598 -6.04942 0.461515 0
M  V30 2899 H 271.337 -4.87698 -0.013932 0
M  V30 2900 H 270.342 -4.99946 2.28767 0
M  V30 2901 H 271.567 -6.20592 2.75758 0
M  V30 2902 H 269.513 -6.53788 0.538254 0
M  V30 2903 H 269.43 -7.25898 2.11208 0
M  V30 2904 H 270.698 -7.72806 1.01933 0
M  V30 2905 N 274.927 -0.932562 -1.27047 0
M  V30 2906 C 275.837 -0.441219 -2.30414 0
M  V30 2907 C 276.853 0.480525 -1.67233 0
M  V30 2908 O 278.029 0.362151 -1.98117 0
M  V30 2909 C 275.094 0.293651 -3.45454 0
M  V30 2910 C 274.155 -0.663601 -4.2414 0
M  V30 2911 C 273.388 0.0362932 -5.33688 0
M  V30 2912 O 273.611 1.2548 -5.56427 0
M  V30 2913 O 272.545 -0.638015 -5.98509 0
M  V30 2914 H 276.371 -1.29962 -2.74488 0
M  V30 2915 H 273.956 -0.6981 -1.32087 0
M  V30 2916 H 275.838 0.707951 -4.15411 0
M  V30 2917 H 274.513 1.12758 -3.03426 0
M  V30 2918 H 273.42 -1.12768 -3.56699 0
M  V30 2919 H 274.753 -1.46489 -4.69896 0
M  V30 2920 N 276.405 1.4127 -0.698611 0
M  V30 2921 C 277.652 2.0118 -0.230865 0
M  V30 2922 C 277.98 1.55338 1.17049 0
M  V30 2923 O 277.235 0.756775 1.80475 0
M  V30 2924 C 277.534 3.56592 -0.240192 0
M  V30 2925 C 277.2 4.21955 -1.58948 0
M  V30 2926 C 275.862 4.39524 -1.95887 0
M  V30 2927 C 278.214 4.58576 -2.47704 0
M  V30 2928 C 275.542 4.90992 -3.2116 0
M  V30 2929 C 277.894 5.11435 -3.72313 0
M  V30 2930 C 276.558 5.27215 -4.0939 0
M  V30 2931 H 275.828 0.736169 -0.0844796 0
M  V30 2932 H 278.475 1.69124 -0.8983 0
M  V30 2933 H 276.78 3.88456 0.510797 0
M  V30 2934 H 278.477 4.00758 0.139296 0
M  V30 2935 H 275.067 4.08657 -1.29219 0
M  V30 2936 H 279.251 4.44654 -2.20445 0
M  V30 2937 H 274.507 5.01393 -3.49878 0
M  V30 2938 H 278.681 5.38752 -4.4127 0
M  V30 2939 H 276.308 5.66859 -5.06533 0
M  V30 2940 N 277.883 0.443576 1.51229 0
M  V30 2941 C 278.816 -0.410089 2.24485 0
M  V30 2942 C 279.794 -1.01949 1.26669 0
M  V30 2943 O 280.978 -1.06075 1.55821 0
M  V30 2944 C 278.105 -1.57211 3.00004 0
M  V30 2945 C 277.151 -1.08279 4.12526 0
M  V30 2946 S 277.984 -0.0197476 5.35496 0
M  V30 2947 C 279.14 -1.18629 6.14555 0
M  V30 2948 H 279.373 0.211832 2.96544 0
M  V30 2949 H 276.906 0.228156 1.52705 0
M  V30 2950 H 278.864 -2.23825 3.44111 0
M  V30 2951 H 277.525 -2.16547 2.27522 0
M  V30 2952 H 276.718 -1.95193 4.64667 0
M  V30 2953 H 276.32 -0.494797 3.70713 0
M  V30 2954 H 278.612 -2.10344 6.4402 0
M  V30 2955 H 279.555 -0.70472 7.04584 0
M  V30 2956 H 279.963 -1.42768 5.46148 0
M  V30 2957 N 279.361 -1.56624 0.175154 0
M  V30 2958 C 280.324 -2.16934 -0.739738 0
M  V30 2959 C 281.324 -1.11842 -1.15533 0
M  V30 2960 O 282.514 -1.37335 -1.07167 0
M  V30 2961 C 279.646 -2.75531 -2.00738 0
M  V30 2962 H 280.839 -2.99131 -0.214639 0
M  V30 2963 H 278.392 -1.56123 -0.0744197 0
M  V30 2964 H 279.127 -1.97078 -2.57548 0
M  V30 2965 H 278.912 -3.52444 -1.71831 0
M  V30 2966 H 280.402 -3.21904 -2.66021 0
M  V30 2967 N 280.839 0.0985539 -1.57292 0
M  V30 2968 C 282.116 0.834155 -1.76921 0
M  V30 2969 C 282.496 1.97101 -0.755928 0
M  V30 2970 O 281.844 2.27474 0.216245 0
M  V30 2971 C 282.054 1.33194 -3.22584 0
M  V30 2972 C 283.402 1.77611 -3.85668 0
M  V30 2973 O 284.426 1.42825 -3.26312 0
M  V30 2974 O 283.285 2.4192 -4.90038 0
M  V30 2975 H 280.379 0.397628 -0.725135 0
M  V30 2976 H 282.925 0.0807044 -1.69508 0
M  V30 2977 H 281.697 0.517248 -3.87866 0
M  V30 2978 H 281.32 2.1475 -3.34616 0
M  V30 2979 N 282.317 1.53212 0.369288 0
M  V30 2980 C 283.249 1.75668 1.47219 0
M  V30 2981 C 284.262 0.637387 1.49804 0
M  V30 2982 O 285.451 0.913561 1.5335 0
M  V30 2983 C 282.551 1.81818 2.85999 0
M  V30 2984 C 281.724 3.11409 3.07153 0
M  V30 2985 C 280.783 3.08849 4.26026 0
M  V30 2986 O 279.809 3.82659 4.2138 0
M  V30 2987 N 281.011 2.29409 5.33246 0
M  V30 2988 H 283.776 2.70832 1.28337 0
M  V30 2989 H 281.337 1.51944 0.55898 0
M  V30 2990 H 283.329 1.77588 3.63655 0
M  V30 2991 H 281.899 0.939544 2.98146 0
M  V30 2992 H 281.119 3.28971 2.1719 0
M  V30 2993 H 282.407 3.97059 3.18154 0
M  V30 2994 H 281.805 1.68946 5.39883 0
M  V30 2995 H 280.362 2.31001 6.09493 0
M  V30 2996 N 283.795 -0.628877 1.44509 0
M  V30 2997 C 284.705 -1.7694 1.54044 0
M  V30 2998 C 285.721 -1.68705 0.425987 0
M  V30 2999 O 286.897 -1.89442 0.683656 0
M  V30 3000 C 283.962 -3.13332 1.48405 0
M  V30 3001 C 283.023 -3.33181 2.70719 0
M  V30 3002 C 282.256 -4.63067 2.6534 0
M  V30 3003 O 282.479 -5.44017 1.71469 0
M  V30 3004 O 281.413 -4.85167 3.56226 0
M  V30 3005 H 285.239 -1.71848 2.50403 0
M  V30 3006 H 282.824 -0.790378 1.26781 0
M  V30 3007 H 284.706 -3.94634 1.47791 0
M  V30 3008 H 283.381 -3.1896 0.551898 0
M  V30 3009 H 282.288 -2.51549 2.769 0
M  V30 3010 H 283.621 -3.32416 3.62988 0
M  V30 3011 N 285.273 -1.31445 -0.869486 0
M  V30 3012 C 286.689 -1.10113 -1.15531 0
M  V30 3013 C 286.889 0.128087 -2.01092 0
M  V30 3014 O 285.945 0.817276 -2.38908 0
M  V30 3015 C 287.258 -2.37291 -1.84698 0
M  V30 3016 C 288.806 -2.42906 -1.97397 0
M  V30 3017 C 289.281 -3.69967 -2.69979 0
M  V30 3018 N 290.772 -3.70864 -2.77514 0
M  V30 3019 C 291.507 -4.65875 -3.34287 0
M  V30 3020 N 291.003 -5.71242 -3.91988 0
M  V30 3021 N 292.796 -4.53394 -3.3225 0
M  V30 3022 H 284.947 -2.1028 -0.299347 0
M  V30 3023 H 287.21 -0.927683 -0.195214 0
M  V30 3024 H 286.916 -3.27078 -1.29278 0
M  V30 3025 H 286.79 -2.47125 -2.84972 0
M  V30 3026 H 289.177 -1.53588 -2.51982 0
M  V30 3027 H 289.258 -2.37036 -0.961643 0
M  V30 3028 H 288.902 -4.59652 -2.16062 0
M  V30 3029 H 288.832 -3.73103 -3.7162 0
M  V30 3030 H 291.323 -2.94697 -2.36563 0
M  V30 3031 H 291.636 -6.39817 -4.33421 0
M  V30 3032 H 289.981 -5.75015 -3.90362 0
M  V30 3033 H 293.172 -3.70252 -2.8641 0
M  V30 3034 H 293.345 -5.27617 -3.76197 0
M  V30 3035 N 286.751 1.08385 -1.14413 0
M  V30 3036 C 287.998 1.80776 -0.912482 0
M  V30 3037 C 288.326 1.86236 0.560934 0
M  V30 3038 O 287.581 1.33431 1.43159 0
M  V30 3039 C 287.88 3.26273 -1.45879 0
M  V30 3040 C 287.546 3.4093 -2.95089 0
M  V30 3041 C 286.208 3.44638 -3.35824 0
M  V30 3042 C 288.56 3.44591 -3.91033 0
M  V30 3043 C 285.888 3.49597 -4.71167 0
M  V30 3044 C 288.24 3.51086 -5.26233 0
M  V30 3045 C 286.904 3.53067 -5.6648 0
M  V30 3046 H 286.174 0.661507 -0.333901 0
M  V30 3047 H 288.821 1.27613 -1.42784 0
M  V30 3048 H 287.126 3.82146 -0.864376 0
M  V30 3049 H 288.823 3.80839 -1.2555 0
M  V30 3050 H 285.413 3.38736 -2.62594 0
M  V30 3051 H 289.597 3.40957 -3.60641 0
M  V30 3052 H 284.853 3.49424 -5.0171 0
M  V30 3053 H 289.027 3.52864 -6.00383 0
M  V30 3054 H 286.654 3.56662 -6.71339 0
M  V30 3055 N 288.23 0.939286 1.26551 0
M  V30 3056 C 289.177 0.446088 2.26448 0
M  V30 3057 C 290.147 -0.493234 1.58608 0
M  V30 3058 O 291.332 -0.409857 1.86346 0
M  V30 3059 C 288.472 -0.284375 3.43926 0
M  V30 3060 C 287.585 0.690399 4.26448 0
M  V30 3061 C 286.72 -0.0610712 5.31165 0
M  V30 3062 C 285.759 0.905649 6.05363 0
M  V30 3063 N 284.896 0.186055 7.01853 0
M  V30 3064 H 289.736 1.30291 2.68008 0
M  V30 3065 H 287.273 0.65371 1.31776 0
M  V30 3066 H 289.231 -0.724313 4.10864 0
M  V30 3067 H 287.861 -1.10535 3.03285 0
M  V30 3068 H 286.913 1.24885 3.59316 0
M  V30 3069 H 288.225 1.42873 4.779 0
M  V30 3070 H 287.379 -0.56038 6.04106 0
M  V30 3071 H 286.118 -0.832297 4.80546 0
M  V30 3072 H 285.123 1.4161 5.3125 0
M  V30 3073 H 286.348 1.67685 6.58072 0
M  V30 3074 H 284.294 -0.566714 6.53548 0
M  V30 3075 H 284.211 0.863752 7.51049 0
M  V30 3076 H 285.479 -0.292221 7.78952 0
M  V30 3077 N 289.708 -1.40897 0.706093 0
M  V30 3078 C 290.954 -2.01352 0.241889 0
M  V30 3079 C 291.287 -1.55832 -1.15888 0
M  V30 3080 O 290.562 -0.774145 -1.7843 0
M  V30 3081 C 290.845 -3.58752 0.311311 0
M  V30 3082 C 290.698 -4.1437 1.74978 0
M  V30 3083 C 292.017 -4.38914 -0.322922 0
M  V30 3084 H 289.136 -0.731562 0.0893687 0
M  V30 3085 H 291.778 -1.67504 0.896802 0
M  V30 3086 H 289.928 -3.87718 -0.246302 0
M  V30 3087 H 291.6 -3.96239 2.36205 0
M  V30 3088 H 289.843 -3.69016 2.28057 0
M  V30 3089 H 290.514 -5.23532 1.74981 0
M  V30 3090 H 292.99 -4.15822 0.152089 0
M  V30 3091 H 291.866 -5.48358 -0.243855 0
M  V30 3092 H 292.127 -4.19176 -1.40513 0
M  V30 3093 N 291.186 -0.45159 -1.50991 0
M  V30 3094 C 292.433 0.110074 -2.02201 0
M  V30 3095 C 292.761 1.4146 -1.33489 0
M  V30 3096 O 292.016 1.90617 -0.443125 0
M  V30 3097 C 292.315 0.361728 -3.55565 0
M  V30 3098 C 291.981 -0.858717 -4.42648 0
M  V30 3099 C 290.643 -1.19338 -4.66167 0
M  V30 3100 C 292.995 -1.67221 -4.93646 0
M  V30 3101 C 290.323 -2.34195 -5.37931 0
M  V30 3102 C 292.675 -2.8119 -5.6667 0
M  V30 3103 C 291.339 -3.15094 -5.88449 0
M  V30 3104 H 290.609 0.040279 -0.739904 0
M  V30 3105 H 293.256 -0.601696 -1.81802 0
M  V30 3106 H 291.561 1.15554 -3.74372 0
M  V30 3107 H 293.258 0.80996 -3.92735 0
M  V30 3108 H 289.848 -0.58796 -4.24548 0
M  V30 3109 H 294.032 -1.42686 -4.75347 0
M  V30 3110 H 289.288 -2.6076 -5.53005 0
M  V30 3111 H 293.462 -3.44585 -6.05173 0
M  V30 3112 H 291.089 -4.04204 -6.43835 0
M  V30 3113 N 292.664 1.56529 -0.183458 0
M  V30 3114 C 293.912 1.96855 0.457452 0
M  V30 3115 C 294.233 1.07104 1.62953 0
M  V30 3116 O 293.503 0.139887 1.954 0
M  V30 3117 H 292.083 0.72693 0.171992 0
M  V30 3118 H 294.745 1.93056 -0.267476 0
M  V30 3119 H 293.841 3.01423 0.809368 0
M  V30 3120 N 294.142 -0.090211 1.57342 0
M  V30 3121 C 295.419 -0.824761 1.77361 0
M  V30 3122 C 295.799 -1.96698 0.76637 0
M  V30 3123 O 295.147 -2.27586 -0.204179 0
M  V30 3124 C 295.357 -1.31481 3.23286 0
M  V30 3125 C 296.705 -1.75563 3.86604 0
M  V30 3126 O 297.729 -1.41093 3.27065 0
M  V30 3127 O 296.588 -2.39317 4.91314 0
M  V30 3128 H 293.682 -0.393776 0.727234 0
M  V30 3129 H 296.228 -0.0717138 1.69548 0
M  V30 3130 H 295 -0.496671 3.88135 0
M  V30 3131 H 294.623 -2.12973 3.35751 0
M  V30 3132 O 295.659 -1.59794 -0.234115 0
M  V30 3133 H 296.35 -1.72743 -0.876335 0
M  V30 END ATOM
M  V30 BEGIN BOND
M  V30 END BOND
M  V30 END CTAB
M  END
$$$$
