drugbank_target|Q8GBW6 Methylmalonyl-CoA carboxyltransferase 12S subunit (DB04045; DB04183)
 OpenBabel12092119593D

  0  0  0     0  0            999 V3000
M  V30 BEGIN CTAB
M  V30 COUNTS 9213 9294 0 0 0
M  V30 BEGIN ATOM
M  V30 1 H -0.908 1.98254 -0.117106 0
M  V30 2 N 0 1.576 0 0
M  V30 3 C 0.933 2.03868 1.02534 0
M  V30 4 C 1.911 0.928543 1.3348 0
M  V30 5 O 3.095 1.19667 1.45644 0
M  V30 6 C 0.222 2.43627 2.35294 0
M  V30 7 C -0.732 3.65373 2.2001 0
M  V30 8 S 0.101 5.13292 1.52614 0
M  V30 9 C 1.257 5.56322 2.86805 0
M  V30 10 H 1.49 2.90518 0.631377 0
M  V30 11 H -0.977 1.52953 0.210867 0
M  V30 12 H 0.981 2.67203 3.11629 0
M  V30 13 H -0.358 1.57376 2.7183 0
M  V30 14 H -1.165 3.90944 3.18086 0
M  V30 15 H -1.563 3.418 1.51819 0
M  V30 16 H 0.729 5.58782 3.83104 0
M  V30 17 H 1.672 6.56266 2.65933 0
M  V30 18 H 2.08 4.83886 2.90714 0
M  V30 19 N 1.4781 -0.272755 1.55222 0
M  V30 20 C 2.4411 -1.32041 1.87344 0
M  V30 21 C 3.4411 -1.42342 0.74803 0
M  V30 22 O 4.6311 -1.41488 1.0162 0
M  V30 23 C 1.7631 -2.70173 2.07893 0
M  V30 24 H 2.9561 -1.04789 2.80997 0
M  V30 25 H 0.5091 -0.51083 1.47717 0
M  V30 26 H 1.2441 -3.02605 1.16622 0
M  V30 27 H 1.0291 -2.64082 2.89833 0
M  V30 28 H 2.5191 -3.45869 2.34017 0
M  V30 29 N 2.9562 -1.48159 -0.537278 0
M  V30 30 C 3.8662 -1.64807 -1.6696 0
M  V30 31 C 4.8822 -0.530651 -1.65711 0
M  V30 32 O 6.0582 -0.800784 -1.84796 0
M  V30 33 C 3.1232 -1.67708 -3.03438 0
M  V30 34 C 2.1842 -2.91025 -3.156 0
M  V30 35 C 1.4172 -2.93778 -4.45567 0
M  V30 36 O 1.6402 -2.05153 -5.3223 0
M  V30 37 O 0.5742 -3.85868 -4.61941 0
M  V30 38 H 4.4002 -2.6066 -1.55853 0
M  V30 39 H 1.9852 -1.31475 -0.709549 0
M  V30 40 H 3.8672 -1.7218 -3.84619 0
M  V30 41 H 2.5422 -0.750278 -3.14885 0
M  V30 42 H 1.4492 -2.92089 -2.33741 0
M  V30 43 H 2.7822 -3.83065 -3.09066 0
M  V30 44 N 4.4343 0.785586 -1.36625 0
M  V30 45 C 5.3823 1.91978 -1.31329 0
M  V30 46 C 6.3763 1.68162 -0.204416 0
M  V30 47 O 7.5823 1.76122 -0.371645 0
M  V30 48 H 3.9573 0.631087 -0.408942 0
M  V30 49 H 5.9283 1.93562 -2.27104 0
M  V30 50 C 4.6773 3.29055 -1.12329 0
M  V30 51 H 4.0003 3.4795 -1.96903 0
M  V30 52 H 5.4403 4.08756 -1.12671 0
M  V30 53 C 3.8993 3.36461 0.171861 0
M  V30 54 O 4.4293 3.84576 1.16035 0
M  V30 55 N 2.6353 2.89782 0.217846 0
M  V30 56 H 2.1823 2.50819 -0.587183 0
M  V30 57 H 2.1403 2.95119 1.08408 0
M  V30 58 N 5.9124 1.20967 1.01018 0
M  V30 59 C 6.8604 0.961223 2.1181 0
M  V30 60 C 7.8544 -0.0897034 1.69162 0
M  V30 61 O 9.0604 0.0612271 1.79896 0
M  V30 62 H 5.4354 0.29355 0.692338 0
M  V30 63 H 7.4064 1.90178 2.29946 0
M  V30 64 C 6.1554 0.536854 3.4353 0
M  V30 65 H 5.4784 1.33713 3.76777 0
M  V30 66 H 6.9184 0.402286 4.22087 0
M  V30 67 C 5.3774 -0.751574 3.2841 0
M  V30 68 O 5.9074 -1.80841 3.58691 0
M  V30 69 N 4.1134 -0.716079 2.81639 0
M  V30 70 H 3.6604 0.144236 2.57196 0
M  V30 71 H 3.6184 -1.57847 2.71904 0
M  V30 72 N 7.3905 -1.2043 1.01659 0
M  V30 73 C 8.3385 -2.25249 0.580143 0
M  V30 74 C 9.3325 -1.65057 -0.381115 0
M  V30 75 O 10.5385 -1.78241 -0.251039 0
M  V30 76 H 6.9135 -0.732695 0.169299 0
M  V30 77 H 8.8845 -2.59389 1.47512 0
M  V30 78 C 7.6335 -3.47638 -0.065788 0
M  V30 79 H 6.9565 -3.94233 0.664874 0
M  V30 80 H 8.3965 -4.2268 -0.334282 0
M  V30 81 C 6.8555 -3.10447 -1.3086 0
M  V30 82 O 7.3855 -3.21981 -2.4019 0
M  V30 83 N 5.5915 -2.64996 -1.1927 0
M  V30 84 H 5.1385 -2.55811 -0.303064 0
M  V30 85 H 5.0965 -2.40482 -2.02523 0
M  V30 86 N 8.8686 -0.792821 -1.36206 0
M  V30 87 C 9.7986 -0.207853 -2.32573 0
M  V30 88 C 10.7796 0.659055 -1.56813 0
M  V30 89 O 11.9646 0.592176 -1.84951 0
M  V30 90 C 9.0946 0.655449 -3.41059 0
M  V30 91 C 8.0486 -0.111842 -4.27854 0
M  V30 92 C 7.3746 0.872274 -5.27537 0
M  V30 93 C 8.6746 -1.30299 -5.05786 0
M  V30 94 H 10.3686 -1.01294 -2.81744 0
M  V30 95 H 7.9146 -0.48854 -1.3546 0
M  V30 96 H 9.8676 1.07464 -4.07467 0
M  V30 97 H 8.5916 1.49328 -2.90463 0
M  V30 98 H 7.2506 -0.512053 -3.63006 0
M  V30 99 H 6.8986 1.70523 -4.73214 0
M  V30 100 H 6.5986 0.363291 -5.86476 0
M  V30 101 H 8.1226 1.28996 -5.96818 0
M  V30 102 H 9.5366 -0.959379 -5.65216 0
M  V30 103 H 7.9336 -1.7455 -5.74154 0
M  V30 104 H 9.0036 -2.09663 -4.37229 0
M  V30 105 N 10.3467 1.47872 -0.545128 0
M  V30 106 C 11.2937 2.29849 0.2093 0
M  V30 107 C 12.2637 1.38313 0.919707 0
M  V30 108 O 13.4487 1.67277 0.917772 0
M  V30 109 C 10.5887 3.22019 1.24088 0
M  V30 110 C 9.7017 4.2864 0.537778 0
M  V30 111 C 8.8367 5.07973 1.5536 0
M  V30 112 C 7.8757 6.06381 0.8348 0
M  V30 113 N 7.0127 6.78717 1.79688 0
M  V30 114 H 11.8527 2.93845 -0.49591 0
M  V30 115 H 9.3897 1.44848 -0.256389 0
M  V30 116 H 11.3477 3.73868 1.85144 0
M  V30 117 H 9.9777 2.59914 1.91428 0
M  V30 118 H 9.0297 3.7994 -0.187046 0
M  V30 119 H 10.3417 4.98793 -0.0258907 0
M  V30 120 H 9.4957 5.63912 2.23803 0
M  V30 121 H 8.2347 4.37693 2.15118 0
M  V30 122 H 7.2397 5.49631 0.136388 0
M  V30 123 H 8.4647 6.78665 0.24313 0
M  V30 124 H 6.4107 6.11177 2.38326 0
M  V30 125 H 6.3277 7.44998 1.28505 0
M  V30 126 H 7.5957 7.39237 2.47282 0
M  V30 127 N 11.8248 0.280983 1.55075 0
M  V30 128 C 12.7548 -0.597469 2.25727 0
M  V30 129 C 13.7358 -1.15417 1.24952 0
M  V30 130 O 14.9208 -1.18722 1.53684 0
M  V30 131 C 12.0508 -1.7789 2.98283 0
M  V30 132 C 11.0048 -1.35347 4.06036 0
M  V30 133 C 10.3308 -2.61846 4.66198 0
M  V30 134 C 11.6308 -0.499354 5.19907 0
M  V30 135 H 13.3248 -0.00824265 2.99399 0
M  V30 136 H 10.8708 -0.0025244 1.44 0
M  V30 137 H 12.8238 -2.39937 3.46422 0
M  V30 138 H 11.5478 -2.39405 2.22155 0
M  V30 139 H 10.2068 -0.756156 3.58717 0
M  V30 140 H 9.8548 -3.21632 3.86732 0
M  V30 141 H 9.5548 -2.3409 5.38958 0
M  V30 142 H 11.0788 -3.24732 5.1709 0
M  V30 143 H 12.4928 -1.02498 5.64063 0
M  V30 144 H 10.8898 -0.316424 5.99265 0
M  V30 145 H 11.9598 0.480459 4.82514 0
M  V30 146 N 13.3029 -1.57598 0.00835791 0
M  V30 147 C 14.2659 -2.07884 -0.965242 0
M  V30 148 C 15.2659 -0.989825 -1.26725 0
M  V30 149 O 16.4559 -1.25218 -1.21104 0
M  V30 150 C 13.5879 -2.52731 -2.28779 0
M  V30 151 H 14.7809 -2.95178 -0.530112 0
M  V30 152 H 12.3339 -1.54458 -0.239283 0
M  V30 153 H 13.0689 -1.68705 -2.76964 0
M  V30 154 H 12.8539 -3.32272 -2.08177 0
M  V30 155 H 14.3439 -2.91933 -2.98605 0
M  V30 156 N 14.781 0.264519 -1.55364 0
M  V30 157 C 16.006 1.01726 -1.80739 0
M  V30 158 C 16.431 1.78836 -0.583044 0
M  V30 159 O 15.789 1.75167 0.467566 0
M  V30 160 C 15.837 1.94482 -3.03659 0
M  V30 161 O 14.941 3.03386 -2.7934 0
M  V30 162 H 14.282 0.290395 -0.597132 0
M  V30 163 H 16.812 0.290854 -2.02522 0
M  V30 164 H 16.822 2.36278 -3.32621 0
M  V30 165 H 15.497 1.37772 -3.92418 0
M  V30 166 H 14.074 2.65844 -2.61498 0
M  V30 167 N 16.2591 1.48442 0.529413 0
M  V30 168 C 17.4871 1.60151 1.30994 0
M  V30 169 C 17.9021 0.261985 1.86973 0
M  V30 170 O 17.2591 -0.748805 1.66431 0
M  V30 171 C 17.3101 2.64854 2.46038 0
M  V30 172 O 17.0311 3.93608 1.92365 0
M  V30 173 C 18.5321 2.87007 3.37849 0
M  V30 174 H 15.7521 0.539971 0.398338 0
M  V30 175 H 18.2961 1.94273 0.638597 0
M  V30 176 H 16.4511 2.33589 3.09055 0
M  V30 177 H 16.8651 4.51055 2.67675 0
M  V30 178 H 18.3391 3.64068 4.14919 0
M  V30 179 H 18.8161 1.95852 3.93114 0
M  V30 180 H 19.4221 3.19579 2.80623 0
M  V30 181 N 17.7372 -0.778329 1.37039 0
M  V30 182 C 18.6702 -1.8984 1.26633 0
M  V30 183 C 19.6482 -1.61923 0.148197 0
M  V30 184 O 20.8322 -1.85742 0.321265 0
M  V30 185 C 17.9592 -3.24916 0.956403 0
M  V30 186 C 17.0052 -3.71752 2.09051 0
M  V30 187 S 17.8382 -3.86201 3.70957 0
M  V30 188 C 18.9942 -5.24135 3.42101 0
M  V30 189 H 19.2272 -1.98377 2.21436 0
M  V30 190 H 16.7602 -0.938738 1.22585 0
M  V30 191 H 18.7182 -4.02936 0.784409 0
M  V30 192 H 17.3792 -3.14089 0.0259713 0
M  V30 193 H 16.5722 -4.69661 1.8285 0
M  V30 194 H 16.1742 -3.00815 2.2223 0
M  V30 195 H 18.4662 -6.09086 2.96682 0
M  V30 196 H 19.4092 -5.55346 4.39314 0
M  V30 197 H 19.8172 -4.91761 2.77185 0
M  V30 198 N 19.2153 -1.21501 -1.00376 0
M  V30 199 C 20.1253 -0.991447 -2.12621 0
M  V30 200 C 21.1413 0.0568446 -1.73907 0
M  V30 201 O 22.3173 -0.13348 -2.00957 0
M  V30 202 C 19.3823 -0.560312 -3.42142 0
M  V30 203 C 18.4433 -1.68096 -3.95022 0
M  V30 204 C 17.6763 -1.2703 -5.18362 0
M  V30 205 O 17.8993 -0.144438 -5.70217 0
M  V30 206 O 16.8333 -2.08269 -5.64719 0
M  V30 207 H 20.6593 -1.93158 -2.34358 0
M  V30 208 H 18.2443 -0.999999 -1.10997 0
M  V30 209 H 20.1263 -0.329724 -4.20108 0
M  V30 210 H 18.8013 0.351089 -3.2179 0
M  V30 211 H 17.7083 -1.96597 -3.18278 0
M  V30 212 H 19.0413 -2.56983 -4.19786 0
M  V30 213 N 20.6934 1.19889 -1.02296 0
M  V30 214 C 21.9414 1.89046 -0.714558 0
M  V30 215 C 22.2624 1.79636 0.758681 0
M  V30 216 O 21.5324 1.20292 1.54618 0
M  V30 217 H 20.1124 0.699802 -0.261317 0
M  V30 218 H 22.7744 1.45574 -1.29592 0
M  V30 219 H 21.8704 2.95524 -1.0036 0
M  V30 220 N 22.1715 0.800033 1.35784 0
M  V30 221 C 23.5875 0.482977 1.52117 0
M  V30 222 C 23.7875 -0.996948 1.75109 0
M  V30 223 O 22.8435 -1.78216 1.78872 0
M  V30 224 C 24.1565 1.32264 2.70049 0
M  V30 225 C 25.7045 1.31742 2.83924 0
M  V30 226 C 26.1795 2.14106 4.04874 0
M  V30 227 N 27.6705 2.11607 4.12039 0
M  V30 228 C 28.4055 2.72099 5.04727 0
M  V30 229 N 27.9015 3.41492 6.02789 0
M  V30 230 N 29.6945 2.61776 4.97423 0
M  V30 231 H 21.8455 1.75856 1.19115 0
M  V30 232 H 24.1085 0.748122 0.582252 0
M  V30 233 H 23.8145 2.37261 2.59616 0
M  V30 234 H 23.6885 0.971303 3.6448 0
M  V30 235 H 26.0755 0.275333 2.93813 0
M  V30 236 H 26.1565 1.70859 1.9037 0
M  V30 237 H 25.8005 3.18351 3.95746 0
M  V30 238 H 25.7305 1.72353 4.97596 0
M  V30 239 H 28.2215 1.61112 3.41835 0
M  V30 240 H 28.5345 3.84953 6.70098 0
M  V30 241 H 26.8795 3.45596 6.02983 0
M  V30 242 H 30.0705 2.07157 4.19766 0
M  V30 243 H 30.2435 3.0921 5.69468 0
M  V30 244 N 23.6496 -1.47581 0.552962 0
M  V30 245 C 24.8956 -2.02782 0.0273648 0
M  V30 246 C 25.2286 -1.42687 -1.31734 0
M  V30 247 O 24.5036 -0.580897 -1.85623 0
M  V30 248 C 24.7866 -3.60031 -0.0702371 0
M  V30 249 C 24.6396 -4.30566 1.30126 0
M  V30 250 C 25.9586 -4.33028 -0.785771 0
M  V30 251 H 23.0776 -0.736912 0.0114185 0
M  V30 252 H 25.7196 -1.76056 0.714432 0
M  V30 253 H 23.8696 -3.82932 -0.655382 0
M  V30 254 H 25.5416 -4.19018 1.92929 0
M  V30 255 H 23.7846 -3.91086 1.87709 0
M  V30 256 H 24.4556 -5.39114 1.18573 0
M  V30 257 H 26.9316 -4.15095 -0.288982 0
M  V30 258 H 25.8076 -5.42695 -0.823013 0
M  V30 259 H 26.0686 -4.01945 -1.841 0
M  V30 260 N 25.1277 -0.289203 -1.54924 0
M  V30 261 C 26.0377 0.601863 -2.26748 0
M  V30 262 C 27.0537 1.15834 -1.2984 0
M  V30 263 O 28.2297 1.18564 -1.62802 0
M  V30 264 C 25.2947 1.76299 -2.98529 0
M  V30 265 C 24.3557 1.24178 -4.10948 0
M  V30 266 C 23.5887 2.34757 -4.79296 0
M  V30 267 O 23.8117 3.54411 -4.46933 0
M  V30 268 O 22.7457 2.02115 -5.66951 0
M  V30 269 H 26.5717 0.0195879 -3.03694 0
M  V30 270 H 24.1567 -0.0560868 -1.49295 0
M  V30 271 H 26.0387 2.43973 -3.43592 0
M  V30 272 H 24.7137 2.33209 -2.24488 0
M  V30 273 H 23.6207 0.531104 -3.70311 0
M  V30 274 H 24.9537 0.718252 -4.86931 0
M  V30 275 N 26.6058 1.57591 -0.0167156 0
M  V30 276 C 27.5378 2.06343 0.997753 0
M  V30 277 C 28.5508 0.984469 1.29661 0
M  V30 278 O 29.7398 1.26093 1.26344 0
M  V30 279 C 26.8398 2.46255 2.32834 0
M  V30 280 C 26.0128 3.77083 2.21646 0
M  V30 281 C 25.0718 4.0368 3.37534 0
M  V30 282 O 24.0978 4.7411 3.14973 0
M  V30 283 N 25.2998 3.52881 4.60929 0
M  V30 284 H 28.0648 2.93997 0.581875 0
M  V30 285 H 25.6258 1.61002 0.170316 0
M  V30 286 H 27.6178 2.61149 3.09166 0
M  V30 287 H 26.1878 1.64032 2.66106 0
M  V30 288 H 25.4078 3.72106 1.30119 0
M  V30 289 H 26.6958 4.62822 2.11361 0
M  V30 290 H 26.0938 2.95878 4.82154 0
M  V30 291 H 24.6508 3.73076 5.34469 0
M  V30 292 N 28.0839 -0.256276 1.55502 0
M  V30 293 C 29.0139 -1.32102 1.92539 0
M  V30 294 C 29.9949 -1.50684 0.789194 0
M  V30 295 O 31.1799 -1.63449 1.04872 0
M  V30 296 C 28.3099 -2.67752 2.21192 0
M  V30 297 C 27.2639 -2.63878 3.36975 0
M  V30 298 C 26.5899 -4.03236 3.51147 0
M  V30 299 C 27.8899 -2.21682 4.72921 0
M  V30 300 H 29.5839 -1.01351 2.81724 0
M  V30 301 H 27.1299 -0.486105 1.35547 0
M  V30 302 H 29.0829 -3.42365 2.45691 0
M  V30 303 H 27.8069 -3.0012 1.28824 0
M  V30 304 H 26.4659 -1.91722 3.12471 0
M  V30 305 H 26.1139 -4.32854 2.56216 0
M  V30 306 H 25.8139 -4.01535 4.29003 0
M  V30 307 H 27.3379 -4.79563 3.77957 0
M  V30 308 H 28.7519 -2.86023 4.96854 0
M  V30 309 H 27.1489 -2.3111 5.53812 0
M  V30 310 H 28.2189 -1.16833 4.70615 0
M  V30 311 N 29.562 -1.4872 -0.521534 0
M  V30 312 C 30.525 -1.63379 -1.60748 0
M  V30 313 C 31.525 -0.50661 -1.52611 0
M  V30 314 O 32.715 -0.772601 -1.5613 0
M  V30 315 C 29.847 -1.61192 -3.00383 0
M  V30 316 H 31.04 -2.60217 -1.49087 0
M  V30 317 H 28.593 -1.37444 -0.744235 0
M  V30 318 H 29.328 -0.65863 -3.17541 0
M  V30 319 H 29.113 -2.43032 -3.07698 0
M  V30 320 H 30.603 -1.7466 -3.7932 0
M  V30 321 N 31.0401 0.771051 -1.3745 0
M  V30 322 C 31.9501 1.91538 -1.35464 0
M  V30 323 C 32.9661 1.72134 -0.254123 0
M  V30 324 O 34.1421 1.95358 -0.489626 0
M  V30 325 C 31.2071 3.26671 -1.16134 0
M  V30 326 C 30.2681 3.58723 -2.35831 0
M  V30 327 C 29.5011 4.87409 -2.17413 0
M  V30 328 O 29.7241 5.58506 -1.15876 0
M  V30 329 O 28.6581 5.18539 -3.05615 0
M  V30 330 H 32.4841 1.96165 -2.31847 0
M  V30 331 H 30.0691 0.9139 -1.18187 0
M  V30 332 H 31.9511 4.07499 -1.07345 0
M  V30 333 H 30.6261 3.22894 -0.228251 0
M  V30 334 H 29.5331 2.78127 -2.50192 0
M  V30 335 H 30.8661 3.67243 -3.27709 0
M  V30 336 N 32.5182 1.22032 0.997298 0
M  V30 337 C 33.4502 0.944263 2.08845 0
M  V30 338 C 34.4632 -0.0754663 1.62625 0
M  V30 339 O 35.6522 0.157994 1.77799 0
M  V30 340 C 32.7522 0.397723 3.36558 0
M  V30 341 C 31.9252 1.47362 4.11829 0
M  V30 342 C 30.9842 0.934951 5.17827 0
M  V30 343 O 30.0102 1.62016 5.45655 0
M  V30 344 N 31.2122 -0.245895 5.79979 0
M  V30 345 H 33.9772 1.88363 2.33109 0
M  V30 346 H 31.5382 1.12661 1.16272 0
M  V30 347 H 33.5302 0.0227771 4.04694 0
M  V30 348 H 32.1002 -0.446646 3.09393 0
M  V30 349 H 31.3202 2.02208 3.38386 0
M  V30 350 H 32.6082 2.19764 4.58891 0
M  V30 351 H 32.0062 -0.819475 5.59733 0
M  V30 352 H 30.5632 -0.562272 6.4937 0
M  V30 353 N 33.9963 -1.19345 1.0293 0
M  V30 354 C 35.4123 -1.41069 0.746446 0
M  V30 355 C 35.6123 -1.90078 -0.668776 0
M  V30 356 O 34.6683 -2.0778 -1.4347 0
M  V30 357 C 35.9813 -2.42141 1.78292 0
M  V30 358 C 37.5293 -2.55887 1.80252 0
M  V30 359 C 38.0043 -3.60214 2.8286 0
M  V30 360 N 39.4953 -3.67711 2.81679 0
M  V30 361 C 40.2303 -4.48128 3.57727 0
M  V30 362 N 39.7263 -5.32248 4.43491 0
M  V30 363 N 41.5193 -4.42782 3.46267 0
M  V30 364 H 33.6703 -0.858536 1.94275 0
M  V30 365 H 35.9333 -0.439541 0.839945 0
M  V30 366 H 35.6393 -2.13155 2.79746 0
M  V30 367 H 35.5133 -3.41323 1.60557 0
M  V30 368 H 37.9003 -2.84196 0.794757 0
M  V30 369 H 37.9813 -1.56858 2.02062 0
M  V30 370 H 37.6253 -3.32647 3.83807 0
M  V30 371 H 37.5553 -4.58895 2.58307 0
M  V30 372 H 40.0463 -3.07634 2.19476 0
M  V30 373 H 40.3593 -5.90729 4.98256 0
M  V30 374 H 38.7043 -5.31707 4.47564 0
M  V30 375 H 41.8953 -3.76107 2.78677 0
M  V30 376 H 42.0683 -5.05215 4.05785 0
M  V30 377 N 35.4744 -0.807222 -1.35358 0
M  V30 378 C 36.4064 -0.175717 -2.28525 0
M  V30 379 C 37.4194 0.625354 -1.5031 0
M  V30 380 O 38.6084 0.457611 -1.72535 0
M  V30 381 C 35.7084 0.773471 -3.29956 0
M  V30 382 C 34.8814 0.0186296 -4.37396 0
M  V30 383 C 33.9404 0.886395 -5.18681 0
M  V30 384 O 32.9664 0.337106 -5.68201 0
M  V30 385 N 34.1684 2.20839 -5.36852 0
M  V30 386 H 36.9334 -0.976091 -2.83359 0
M  V30 387 H 34.4944 -0.662737 -1.47714 0
M  V30 388 H 36.4864 1.35824 -3.81227 0
M  V30 389 H 35.0564 1.47465 -2.75632 0
M  V30 390 H 34.2764 -0.747349 -3.87051 0
M  V30 391 H 35.5644 -0.501577 -5.06322 0
M  V30 392 H 34.9624 2.67858 -4.98265 0
M  V30 393 H 33.5194 2.74237 -5.91301 0
M  V30 394 N 36.9525 1.47285 -0.560781 0
M  V30 395 C 38.1985 2.02764 -0.0381184 0
M  V30 396 C 38.5315 1.43384 1.30976 0
M  V30 397 O 37.8065 0.590733 1.85312 0
M  V30 398 C 38.0895 3.60064 0.0511427 0
M  V30 399 C 37.9425 4.2987 -1.32408 0
M  V30 400 C 39.2615 4.33439 0.762795 0
M  V30 401 H 36.3805 0.736841 -0.0153264 0
M  V30 402 H 39.0225 1.75675 -0.723759 0
M  V30 403 H 37.1725 3.83274 0.635065 0
M  V30 404 H 38.8445 4.17989 -1.95148 0
M  V30 405 H 37.0875 3.90085 -1.8978 0
M  V30 406 H 37.7585 5.38478 -1.21431 0
M  V30 407 H 40.2345 4.15243 0.266965 0
M  V30 408 H 39.1105 5.43124 0.794221 0
M  V30 409 H 39.3715 4.02915 1.81966 0
M  V30 410 N 38.4306 0.297415 1.54768 0
M  V30 411 C 39.6796 -0.313669 1.99246 0
M  V30 412 C 39.9926 -1.55281 1.18942 0
M  V30 413 O 41.1986 -2.23825 1.5367 0
M  V30 414 C 39.6546 -0.609407 3.54703 0
M  V30 415 C 39.2626 0.611192 4.43811 0
M  V30 416 C 41.0066 -1.18188 4.07715 0
M  V30 417 C 38.9136 0.288805 5.90694 0
M  V30 418 H 37.8436 -0.120979 0.744231 0
M  V30 419 H 40.4946 0.40556 1.78962 0
M  V30 420 H 38.8766 -1.38813 3.70873 0
M  V30 421 H 40.0506 1.3875 4.39414 0
M  V30 422 H 38.3656 1.10205 4.01552 0
M  V30 423 H 40.9626 -1.43727 5.15021 0
M  V30 424 H 41.3056 -2.12299 3.58099 0
M  V30 425 H 41.8386 -0.464944 3.95074 0
M  V30 426 H 38.5776 1.19838 6.44453 0
M  V30 427 H 38.0976 -0.450305 5.98107 0
M  V30 428 H 39.7766 -0.110933 6.46905 0
M  V30 429 N 39.9087 -1.5758 0.0250728 0
M  V30 430 C 40.8187 -2.1343 -0.973905 0
M  V30 431 C 41.8347 -1.08556 -1.35984 0
M  V30 432 O 43.0107 -1.40592 -1.44207 0
M  V30 433 C 40.0757 -2.64703 -2.23904 0
M  V30 434 C 39.1367 -3.84276 -1.91391 0
M  V30 435 C 38.3697 -4.33095 -3.11873 0
M  V30 436 O 38.5927 -3.81107 -4.24398 0
M  V30 437 O 37.5267 -5.24984 -2.94406 0
M  V30 438 H 41.3527 -2.99057 -0.529036 0
M  V30 439 H 38.9377 -1.48118 -0.195288 0
M  V30 440 H 40.8197 -2.97769 -2.98181 0
M  V30 441 H 39.4947 -1.82161 -2.6758 0
M  V30 442 H 38.4017 -3.56143 -1.14511 0
M  V30 443 H 39.7347 -4.67968 -1.52534 0
M  V30 444 N 41.3868 0.248026 -1.55636 0
M  V30 445 C 42.3498 1.29044 -1.89421 0
M  V30 446 C 43.3498 1.41134 -0.770581 0
M  V30 447 O 44.5398 1.39854 -1.03858 0
M  V30 448 C 41.6718 2.66831 -2.12165 0
M  V30 449 H 42.8648 1.00305 -2.82629 0
M  V30 450 H 40.4178 0.487265 -1.48511 0
M  V30 451 H 41.1528 3.00711 -1.21422 0
M  V30 452 H 40.9378 2.59438 -2.93997 0
M  V30 453 H 42.4278 3.42103 -2.3949 0
M  V30 454 N 42.8649 1.48995 0.513639 0
M  V30 455 C 44.1129 1.57531 1.26604 0
M  V30 456 C 44.4339 0.258236 1.93283 0
M  V30 457 O 43.7039 -0.721502 1.8213 0
M  V30 458 H 42.2839 0.580387 0.470276 0
M  V30 459 H 44.9459 1.85552 0.596373 0
M  V30 460 H 44.0419 2.36486 2.03669 0
M  V30 461 N 44.343 -0.763751 1.37857 0
M  V30 462 C 45.591 -1.51957 1.33243 0
M  V30 463 C 45.912 -1.94835 -0.0801709 0
M  V30 464 O 45.182 -1.66894 -1.02582 0
M  V30 465 H 43.762 -0.563626 0.49024 0
M  V30 466 H 46.424 -0.908504 1.7243 0
M  V30 467 H 45.52 -2.41523 1.97669 0
M  V30 468 N 45.8211 -1.22559 -0.990812 0
M  V30 469 C 47.0691 -1.04933 -1.72724 0
M  V30 470 C 47.3901 0.416158 -1.90508 0
M  V30 471 O 46.6601 1.29918 -1.46622 0
M  V30 472 H 45.2401 -0.385296 -0.639965 0
M  V30 473 H 47.9021 -1.54105 -1.19322 0
M  V30 474 H 46.9981 -1.52886 -2.72089 0
M  V30 475 N 47.2992 1.18797 -1.03562 0
M  V30 476 C 48.2092 2.25913 -0.632505 0
M  V30 477 C 49.2252 1.70668 0.338882 0
M  V30 478 O 50.4012 2.00453 0.195076 0
M  V30 479 C 47.4662 3.467 0.00350942 0
M  V30 480 C 46.5272 4.17098 -1.01624 0
M  V30 481 C 45.7602 5.32119 -0.410478 0
M  V30 482 O 45.9832 5.64976 0.784725 0
M  V30 483 O 44.9172 5.9107 -1.13667 0
M  V30 484 H 48.7432 2.62648 -1.52478 0
M  V30 485 H 46.3282 1.25781 -0.806195 0
M  V30 486 H 48.2102 4.19878 0.35781 0
M  V30 487 H 46.8852 3.11798 0.869686 0
M  V30 488 H 45.7922 3.4601 -1.42224 0
M  V30 489 H 47.1252 4.55987 -1.85301 0
M  V30 490 N 48.7773 0.814389 1.34928 0
M  V30 491 C 50.1933 0.499084 1.51596 0
M  V30 492 C 50.3933 -0.978319 1.76157 0
M  V30 493 O 49.4493 -1.76309 1.80752 0
M  V30 494 C 50.7623 1.35121 2.68631 0
M  V30 495 C 52.3103 1.34746 2.82511 0
M  V30 496 C 52.7853 2.18388 4.0258 0
M  V30 497 N 54.2763 2.15966 4.09772 0
M  V30 498 C 55.0113 2.77437 5.01813 0
M  V30 499 N 54.5073 3.47866 5.99134 0
M  V30 500 N 56.3003 2.67037 4.94619 0
M  V30 501 H 48.4513 1.7711 1.17243 0
M  V30 502 H 50.7143 0.754256 0.574284 0
M  V30 503 H 50.4203 2.40001 2.57085 0
M  V30 504 H 50.2943 1.00991 3.63429 0
M  V30 505 H 52.6813 0.30648 2.93504 0
M  V30 506 H 52.7623 1.72869 1.88547 0
M  V30 507 H 52.4063 3.2253 3.92347 0
M  V30 508 H 52.3363 1.77621 4.9574 0
M  V30 509 H 54.8273 1.64729 3.40107 0
M  V30 510 H 55.1403 3.92038 6.65977 0
M  V30 511 H 53.4853 3.51972 5.99284 0
M  V30 512 H 56.6763 2.11597 4.17546 0
M  V30 513 H 56.8493 3.15232 5.66156 0
M  V30 514 N 50.2554 -1.46986 0.568584 0
M  V30 515 C 51.6714 -1.57946 0.229189 0
M  V30 516 C 51.8714 -1.56567 -1.26843 0
M  V30 517 O 50.9274 -1.47511 -2.04931 0
M  V30 518 C 52.2404 -2.87963 0.865909 0
M  V30 519 C 53.7884 -3.01568 0.838188 0
M  V30 520 C 54.2634 -4.34301 1.45419 0
M  V30 521 N 55.7544 -4.40965 1.41788 0
M  V30 522 C 56.4894 -5.42256 1.86403 0
M  V30 523 N 55.9854 -6.50297 2.38926 0
M  V30 524 N 57.7784 -5.3337 1.77405 0
M  V30 525 H 49.9294 -1.46126 1.54146 0
M  V30 526 H 52.1924 -0.696156 0.643484 0
M  V30 527 H 51.8984 -2.94742 1.91886 0
M  V30 528 H 51.7724 -3.75423 0.365687 0
M  V30 529 H 54.1594 -2.94379 -0.206106 0
M  V30 530 H 54.2404 -2.1562 1.37629 0
M  V30 531 H 53.8844 -4.42247 2.49761 0
M  V30 532 H 53.8144 -5.19 0.891435 0
M  V30 533 H 56.3054 -3.63484 1.03381 0
M  V30 534 H 56.6184 -7.23777 2.70863 0
M  V30 535 H 54.9634 -6.51155 2.42944 0
M  V30 536 H 58.1544 -4.47865 1.3614 0
M  V30 537 H 58.3274 -6.12169 2.12492 0
M  V30 538 N 51.7335 -0.305618 -1.54608 0
M  V30 539 C 52.9795 0.302746 -2.00528 0
M  V30 540 C 53.3125 1.53184 -1.19367 0
M  V30 541 O 52.5875 1.92598 -0.271321 0
M  V30 542 C 52.8705 0.654756 -3.54097 0
M  V30 543 C 52.7235 -0.583793 -4.45995 0
M  V30 544 C 54.0425 1.47947 -4.14487 0
M  V30 545 H 51.1615 0.108564 -0.72896 0
M  V30 546 H 53.8035 -0.418634 -1.85331 0
M  V30 547 H 51.9535 1.26935 -3.67178 0
M  V30 548 H 53.6255 -1.22224 -4.44814 0
M  V30 549 H 51.8685 -1.21615 -4.16404 0
M  V30 550 H 52.5395 -0.293287 -5.5122 0
M  V30 551 H 55.0155 0.96013 -4.04871 0
M  V30 552 H 53.8915 1.69454 -5.22088 0
M  V30 553 H 54.1525 2.47011 -3.66658 0
M  V30 554 N 53.2116 1.57565 -0.0334293 0
M  V30 555 C 54.1216 2.13943 0.962572 0
M  V30 556 C 55.1376 1.09276 1.35406 0
M  V30 557 O 56.3136 1.41355 1.4346 0
M  V30 558 C 53.3786 2.65887 2.22497 0
M  V30 559 C 52.4396 3.85286 1.8935 0
M  V30 560 C 51.6726 4.34743 3.09571 0
M  V30 561 O 51.8956 3.83352 4.22371 0
M  V30 562 O 50.8296 5.26538 2.91618 0
M  V30 563 H 54.6556 2.99333 0.513169 0
M  V30 564 H 52.2406 1.4822 0.18743 0
M  V30 565 H 54.1226 2.99346 2.96598 0
M  V30 566 H 52.7976 1.83578 2.6661 0
M  V30 567 H 51.7046 3.56746 1.1262 0
M  V30 568 H 53.0376 4.68771 1.5005 0
M  V30 569 N 54.6897 -0.239769 1.55765 0
M  V30 570 C 55.6367 -1.29696 1.90913 0
M  V30 571 C 56.6067 -1.47478 0.764164 0
M  V30 572 O 57.7917 -1.61345 1.01845 0
M  V30 573 C 54.9317 -2.64598 2.21544 0
M  V30 574 C 54.0447 -2.54765 3.48882 0
M  V30 575 C 53.1797 -3.82069 3.69049 0
M  V30 576 C 52.2187 -3.66883 4.89963 0
M  V30 577 N 51.3557 -4.86094 5.06614 0
M  V30 578 H 56.1957 -0.990224 2.81067 0
M  V30 579 H 53.7327 -0.477684 1.39128 0
M  V30 580 H 55.6907 -3.43132 2.3731 0
M  V30 581 H 54.3207 -2.93405 1.34585 0
M  V30 582 H 53.3727 -1.67763 3.41409 0
M  V30 583 H 54.6847 -2.39457 4.37563 0
M  V30 584 H 53.8387 -4.69046 3.84812 0
M  V30 585 H 52.5777 -4.00282 2.78614 0
M  V30 586 H 51.5827 -2.78289 4.74168 0
M  V30 587 H 52.8077 -3.50157 5.81865 0
M  V30 588 H 50.7537 -5.04655 4.19117 0
M  V30 589 H 50.6707 -4.73443 5.89396 0
M  V30 590 H 51.9387 -5.74549 5.26795 0
M  V30 591 N 56.1678 -1.49265 -0.50573 0
M  V30 592 C 57.0998 -1.617 -1.62437 0
M  V30 593 C 58.1128 -0.499924 -1.54934 0
M  V30 594 O 59.3018 -0.771785 -1.60953 0
M  V30 595 C 56.4018 -1.5533 -3.01207 0
M  V30 596 C 55.5748 -2.8249 -3.33943 0
M  V30 597 C 54.6338 -2.69238 -4.52103 0
M  V30 598 O 53.6598 -3.43167 -4.5412 0
M  V30 599 N 54.8618 -1.80468 -5.51735 0
M  V30 600 H 57.6268 -2.58177 -1.52199 0
M  V30 601 H 55.1878 -1.46294 -0.693511 0
M  V30 602 H 57.1798 -1.44125 -3.78167 0
M  V30 603 H 55.7498 -0.667297 -3.05395 0
M  V30 604 H 54.9698 -3.08081 -2.45926 0
M  V30 605 H 56.2578 -3.66802 -3.5261 0
M  V30 606 H 55.6558 -1.19653 -5.52901 0
M  V30 607 H 54.2128 -1.75188 -6.27816 0
M  V30 608 N 57.6459 0.756429 -1.3826 0
M  V30 609 C 58.5959 1.86069 -1.31766 0
M  V30 610 C 59.5799 1.59621 -0.202483 0
M  V30 611 O 60.7719 1.7149 -0.438211 0
M  V30 612 C 57.9009 3.23742 -1.1422 0
M  V30 613 C 56.9869 3.56091 -2.30348 0
M  V30 614 N 57.3779 3.59517 -3.55783 0
M  V30 615 C 55.6759 3.86341 -2.22838 0
M  V30 616 C 56.3769 3.89052 -4.32451 0
M  V30 617 N 55.3529 4.05736 -3.61772 0
M  V30 618 H 59.1549 1.86992 -2.26741 0
M  V30 619 H 56.6689 0.953643 -1.31451 0
M  V30 620 H 58.6659 4.02761 -1.07652 0
M  V30 621 H 57.3259 3.24073 -0.201763 0
M  V30 622 H 58.3369 3.41347 -3.89491 0
M  V30 623 H 55.0139 3.94404 -1.36937 0
M  V30 624 H 56.4039 3.98349 -5.4108 0
M  V30 625 N 59.124 1.23083 0.984299 0
M  V30 626 C 60.349 1.088 1.76571 0
M  V30 627 C 60.774 -0.356657 1.84688 0
M  V30 628 O 60.132 -1.25788 1.30565 0
M  V30 629 C 60.18 1.71371 3.17277 0
M  V30 630 O 59.284 0.973213 4.00752 0
M  V30 631 H 58.625 0.381599 0.543395 0
M  V30 632 H 61.155 1.63057 1.23587 0
M  V30 633 H 61.165 1.76449 3.67872 0
M  V30 634 H 59.84 2.76493 3.10684 0
M  V30 635 H 58.417 0.999078 3.59267 0
M  V30 636 N 60.6021 -1.18246 1.0419 0
M  V30 637 C 61.5341 -2.2142 0.592088 0
M  V30 638 C 62.5471 -1.59233 -0.338909 0
M  V30 639 O 63.7361 -1.78002 -0.133231 0
M  V30 640 C 60.8361 -3.38546 -0.154854 0
M  V30 641 C 60.0091 -4.3031 0.784328 0
M  V30 642 C 59.0681 -5.26138 0.0804583 0
M  V30 643 O 58.0941 -5.64738 0.711292 0
M  V30 644 N 59.2961 -5.68261 -1.18574 0
M  V30 645 H 62.0611 -2.60636 1.47949 0
M  V30 646 H 59.6221 -1.33044 0.922544 0
M  V30 647 H 61.6141 -3.99678 -0.635606 0
M  V30 648 H 60.1841 -2.98012 -0.943811 0
M  V30 649 H 59.4041 -3.66764 1.44491 0
M  V30 650 H 60.6921 -4.8852 1.42218 0
M  V30 651 H 60.0901 -5.38957 -1.71876 0
M  V30 652 H 58.6471 -6.31584 -1.61074 0
M  V30 653 N 62.0802 -0.821533 -1.34494 0
M  V30 654 C 63.3282 -0.408139 -1.97936 0
M  V30 655 C 63.6492 1.03193 -1.65457 0
M  V30 656 O 62.9192 1.71622 -0.944595 0
M  V30 657 H 61.4992 -0.147928 -0.732206 0
M  V30 658 H 64.1612 -1.05067 -1.64155 0
M  V30 659 H 63.2572 -0.52601 -3.07635 0
M  V30 660 N 63.5583 1.46682 -0.576371 0
M  V30 661 C 64.5053 2.30241 0.160499 0
M  V30 662 C 65.4753 1.40233 0.890162 0
M  V30 663 O 66.6603 1.69186 0.882084 0
M  V30 664 C 63.8003 3.24578 1.1723 0
M  V30 665 C 62.9133 4.29684 0.446736 0
M  V30 666 C 62.0483 5.11154 1.44551 0
M  V30 667 C 61.0873 6.08015 0.70599 0
M  V30 668 N 60.2243 6.82376 1.65251 0
M  V30 669 H 65.0643 2.92727 -0.558127 0
M  V30 670 H 62.6013 1.44272 -0.287056 0
M  V30 671 H 64.5593 3.77711 1.77172 0
M  V30 672 H 63.1893 2.63916 1.85872 0
M  V30 673 H 62.2413 3.79458 -0.267594 0
M  V30 674 H 63.5533 4.98626 -0.131686 0
M  V30 675 H 62.7073 5.68533 2.11791 0
M  V30 676 H 61.4463 4.42158 2.05786 0
M  V30 677 H 60.4513 5.49796 0.0197725 0
M  V30 678 H 61.6763 6.79028 0.09912 0
M  V30 679 H 59.6223 6.16094 2.25308 0
M  V30 680 H 59.5393 7.47556 1.12673 0
M  V30 681 H 60.8073 7.44316 2.31546 0
M  V30 682 N 65.0364 0.313813 1.54444 0
M  V30 683 C 65.9684 -0.590425 2.21465 0
M  V30 684 C 66.9814 -1.08753 1.21147 0
M  V30 685 O 68.1704 -1.00278 1.4767 0
M  V30 686 C 65.2704 -1.82179 2.85769 0
M  V30 687 C 64.4434 -1.46502 4.12136 0
M  V30 688 C 63.5024 -2.55288 4.60124 0
M  V30 689 O 62.5284 -2.19842 5.25032 0
M  V30 690 N 63.7304 -3.86053 4.33525 0
M  V30 691 H 66.4954 -0.0166033 2.99695 0
M  V30 692 H 64.0564 0.136578 1.61323 0
M  V30 693 H 66.0484 -2.54328 3.14801 0
M  V30 694 H 64.6184 -2.30369 2.11303 0
M  V30 695 H 63.8384 -0.575595 3.89975 0
M  V30 696 H 65.1264 -1.20221 4.94393 0
M  V30 697 H 64.5244 -4.17654 3.81552 0
M  V30 698 H 63.0814 -4.54461 4.67235 0
M  V30 699 N 66.5145 -1.57545 0.0417849 0
M  V30 700 C 67.7425 -1.96624 -0.643928 0
M  V30 701 C 68.1575 -0.918897 -1.64929 0
M  V30 702 O 67.5145 0.0979323 -1.82237 0
M  V30 703 C 67.5655 -3.35781 -1.33914 0
M  V30 704 O 67.2865 -4.365 -0.374048 0
M  V30 705 C 68.7875 -3.89566 -2.1155 0
M  V30 706 H 66.0075 -0.647316 -0.176702 0
M  V30 707 H 68.5515 -2.04229 0.105304 0
M  V30 708 H 66.7065 -3.29357 -2.03968 0
M  V30 709 H 67.1205 -5.17248 -0.869179 0
M  V30 710 H 68.5945 -4.89242 -2.55628 0
M  V30 711 H 69.0715 -3.24488 -2.9598 0
M  V30 712 H 69.6775 -3.99298 -1.46427 0
M  V30 713 N 67.9926 0.231505 -1.5589 0
M  V30 714 C 68.9556 1.27028 -1.90779 0
M  V30 715 C 69.9556 1.40308 -0.785507 0
M  V30 716 O 71.1456 1.38744 -1.05336 0
M  V30 717 C 68.2776 2.64566 -2.14983 0
M  V30 718 H 69.4706 0.973017 -2.83677 0
M  V30 719 H 67.0236 0.471486 -1.49019 0
M  V30 720 H 67.7586 2.99406 -1.24604 0
M  V30 721 H 67.5436 2.56305 -2.96732 0
M  V30 722 H 69.0336 3.39543 -2.43105 0
M  V30 723 N 69.4707 1.49531 0.497807 0
M  V30 724 C 70.8867 1.36365 0.829266 0
M  V30 725 C 71.0867 0.399184 1.97506 0
M  V30 726 O 70.1427 -0.167977 2.51941 0
M  V30 727 C 71.4557 2.77153 1.16647 0
M  V30 728 C 73.0037 2.85877 1.27449 0
M  V30 729 C 73.4787 4.2744 1.64497 0
M  V30 730 N 74.9697 4.30265 1.7154 0
M  V30 731 C 75.7047 5.3677 2.01656 0
M  V30 732 N 75.2007 6.53516 2.29976 0
M  V30 733 N 76.9937 5.24189 2.02934 0
M  V30 734 H 69.1447 2.10831 -0.257703 0
M  V30 735 H 71.4077 0.946534 -0.0527091 0
M  V30 736 H 71.1137 3.49442 0.397872 0
M  V30 737 H 70.9877 3.12722 2.10915 0
M  V30 738 H 73.3747 2.13824 2.0338 0
M  V30 739 H 73.4557 2.53887 0.312244 0
M  V30 740 H 73.0997 5.00021 0.891151 0
M  V30 741 H 73.0297 4.56896 2.61827 0
M  V30 742 H 75.5207 3.4607 1.51802 0
M  V30 743 H 75.8337 7.30506 2.52153 0
M  V30 744 H 74.1787 6.56737 2.27425 0
M  V30 745 H 77.3697 4.31988 1.80289 0
M  V30 746 H 77.5427 6.07286 2.26071 0
M  V30 747 N 70.9488 -0.749086 1.3866 0
M  V30 748 C 71.8588 -1.89358 1.38494 0
M  V30 749 C 72.8748 -1.71708 0.281476 0
M  V30 750 O 74.0508 -1.94554 0.520643 0
M  V30 751 C 71.1158 -3.24782 1.21316 0
M  V30 752 C 70.1768 -3.54926 2.41508 0
M  V30 753 C 69.4098 -4.83888 2.2514 0
M  V30 754 O 69.6328 -5.56592 1.24746 0
M  V30 755 O 68.5668 -5.13612 3.13826 0
M  V30 756 H 72.3928 -1.92452 2.34938 0
M  V30 757 H 69.9778 -0.894981 1.19626 0
M  V30 758 H 71.8598 -4.05739 1.13814 0
M  V30 759 H 70.5348 -3.2249 0.279592 0
M  V30 760 H 69.4418 -2.74112 2.54585 0
M  V30 761 H 70.7748 -3.61983 3.3351 0
M  V30 762 N 72.4269 -1.23603 -0.977757 0
M  V30 763 C 73.8429 -0.999251 -1.24447 0
M  V30 764 C 74.0429 0.298053 -1.99283 0
M  V30 765 O 73.0989 1.01681 -2.31122 0
M  V30 766 C 74.4119 -2.20784 -2.04144 0
M  V30 767 C 75.9599 -2.25303 -2.17273 0
M  V30 768 C 76.4349 -3.45755 -3.00362 0
M  V30 769 N 77.9259 -3.4601 -3.07947 0
M  V30 770 C 78.6609 -4.35868 -3.72568 0
M  V30 771 N 78.1569 -5.35966 -4.38991 0
M  V30 772 N 79.9499 -4.23605 -3.6948 0
M  V30 773 H 72.1009 -2.06986 -0.476483 0
M  V30 774 H 74.3639 -0.907801 -0.273134 0
M  V30 775 H 74.0699 -3.14945 -1.56533 0
M  V30 776 H 73.9439 -2.22085 -3.04891 0
M  V30 777 H 76.3309 -1.3168 -2.64092 0
M  V30 778 H 76.4119 -2.28033 -1.15907 0
M  V30 779 H 76.0559 -4.39687 -2.5424 0
M  V30 780 H 75.9859 -3.40266 -4.01904 0
M  V30 781 H 78.4769 -2.73588 -2.60688 0
M  V30 782 H 78.7899 -6.00783 -4.86086 0
M  V30 783 H 77.1349 -5.39863 -4.37691 0
M  V30 784 H 80.3259 -3.44647 -3.16759 0
M  V30 785 H 80.4989 -4.93836 -4.1956 0
M  V30 786 N 73.905 1.17692 -1.04816 0
M  V30 787 C 74.835 2.23777 -0.666791 0
M  V30 788 C 75.816 1.66796 0.33361 0
M  V30 789 O 77.001 1.93039 0.212042 0
M  V30 790 C 74.131 3.47281 -0.0367933 0
M  V30 791 C 73.085 4.17059 -0.961546 0
M  V30 792 C 72.411 5.34342 -0.195626 0
M  V30 793 C 73.711 4.69713 -2.28402 0
M  V30 794 H 75.405 2.55933 -1.55367 0
M  V30 795 H 72.951 1.23019 -0.748484 0
M  V30 796 H 74.904 4.20706 0.241775 0
M  V30 797 H 73.628 3.14381 0.885004 0
M  V30 798 H 72.287 3.45541 -1.22462 0
M  V30 799 H 71.935 4.97692 0.728816 0
M  V30 800 H 71.635 5.81966 -0.811775 0
M  V30 801 H 73.159 6.10553 0.0757473 0
M  V30 802 H 74.573 5.34794 -2.06563 0
M  V30 803 H 72.97 5.279 -2.8538 0
M  V30 804 H 74.04 3.86726 -2.92525 0
M  V30 805 N 75.3831 0.828654 1.34056 0
M  V30 806 C 76.3311 0.242973 2.31327 0
M  V30 807 C 77.3251 -0.61944 1.57668 0
M  V30 808 O 78.5311 -0.51014 1.7262 0
M  V30 809 H 74.9061 0.059834 0.749616 0
M  V30 810 H 76.8771 1.07809 2.78244 0
M  V30 811 C 75.6261 -0.575733 3.429 0
M  V30 812 H 74.9491 0.0785582 3.99723 0
M  V30 813 H 76.3891 -0.951547 4.13185 0
M  V30 814 C 74.8481 -1.75044 2.87856 0
M  V30 815 O 75.3781 -2.84882 2.83205 0
M  V30 816 N 73.5841 -1.56903 2.44602 0
M  V30 817 H 73.1311 -0.675547 2.48584 0
M  V30 818 H 73.0891 -2.35652 2.08124 0
M  V30 819 N 76.8612 -1.46375 0.584142 0
M  V30 820 C 77.8092 -2.32042 -0.161047 0
M  V30 821 C 78.8032 -1.44569 -0.882966 0
M  V30 822 O 80.0092 -1.61186 -0.801191 0
M  V30 823 H 76.3842 -0.748659 -0.0708033 0
M  V30 824 H 78.3552 -2.92704 0.580269 0
M  V30 825 C 77.1042 -3.27762 -1.1605 0
M  V30 826 H 76.4272 -3.95051 -0.614419 0
M  V30 827 H 77.8672 -3.90481 -1.65228 0
M  V30 828 C 76.3262 -2.53218 -2.22221 0
M  V30 829 O 76.8562 -2.29628 -3.29597 0
M  V30 830 N 75.0622 -2.13756 -1.96868 0
M  V30 831 H 74.6092 -2.33142 -1.09557 0
M  V30 832 H 74.5672 -1.642 -2.68115 0
M  V30 833 N 78.3393 -0.321999 -1.54275 0
M  V30 834 C 79.2693 0.537411 -2.27231 0
M  V30 835 C 80.2503 1.12064 -1.27968 0
M  V30 836 O 81.4353 1.14606 -1.56777 0
M  V30 837 C 78.5653 1.69919 -3.02894 0
M  V30 838 C 77.5193 1.24534 -4.09482 0
M  V30 839 C 76.8453 2.49394 -4.72977 0
M  V30 840 C 78.1453 0.361335 -5.21049 0
M  V30 841 H 79.8393 -0.0711406 -2.99315 0
M  V30 842 H 77.3853 -0.0356555 -1.43956 0
M  V30 843 H 79.3383 2.30668 -3.52662 0
M  V30 844 H 78.0623 2.33431 -2.28424 0
M  V30 845 H 76.7213 0.660782 -3.60596 0
M  V30 846 H 76.3693 3.11265 -3.95124 0
M  V30 847 H 76.0693 2.19718 -5.44975 0
M  V30 848 H 77.5933 3.10908 -5.25517 0
M  V30 849 H 79.0073 0.875072 -5.66582 0
M  V30 850 H 77.4043 0.157428 -5.99893 0
M  V30 851 H 78.4743 -0.60822 -4.8107 0
M  V30 852 N 79.8174 1.5752 -0.0501392 0
M  V30 853 C 80.7474 2.14502 0.922566 0
M  V30 854 C 81.7284 1.06642 1.3252 0
M  V30 855 O 82.9134 1.34577 1.4001 0
M  V30 856 C 80.0434 2.68916 2.19776 0
M  V30 857 C 78.9974 3.8175 1.93523 0
M  V30 858 C 78.3234 4.22677 3.27487 0
M  V30 859 C 79.6234 5.06932 1.25765 0
M  V30 860 H 81.3174 2.9603 0.447952 0
M  V30 861 H 78.8634 1.42401 0.214024 0
M  V30 862 H 80.8164 3.07419 2.88222 0
M  V30 863 H 79.5404 1.84578 2.69441 0
M  V30 864 H 78.1994 3.43718 1.27489 0
M  V30 865 H 77.8474 3.35291 3.74952 0
M  V30 866 H 77.5474 4.98725 3.1072 0
M  V30 867 H 79.0714 4.63779 3.97166 0
M  V30 868 H 80.4854 5.42888 1.84244 0
M  V30 869 H 78.8824 5.88116 1.19328 0
M  V30 870 H 79.9524 4.84337 0.233536 0
M  V30 871 N 81.2955 -0.223234 1.56011 0
M  V30 872 C 82.5725 -0.972108 1.69733 0
M  V30 873 C 82.9525 -2.02485 0.59691 0
M  V30 874 O 82.3005 -2.25037 -0.396324 0
M  V30 875 C 82.5105 -1.58407 3.10979 0
M  V30 876 C 83.8585 -2.07696 3.70334 0
M  V30 877 O 84.8825 -1.68304 3.1393 0
M  V30 878 O 83.7415 -2.80096 4.69264 0
M  V30 879 H 80.8355 -0.453993 0.691245 0
M  V30 880 H 83.3815 -0.215149 1.68331 0
M  V30 881 H 82.1535 -0.823831 3.82529 0
M  V30 882 H 81.7765 -2.40661 3.16493 0
M  V30 883 N 82.7736 -1.49793 -0.48987 0
M  V30 884 C 84.1846 -1.52914 -1.07118 0
M  V30 885 C 84.5356 -0.321738 -1.93544 0
M  V30 886 O 83.6606 0.567338 -2.08831 0
M  V30 887 C 84.2556 -2.771 -1.94938 0
M  V30 888 C 82.8146 -2.82963 -2.48212 0
M  V30 889 C 81.9616 -2.46972 -1.26096 0
M  V30 890 H 84.9126 -1.56329 -0.273289 0
M  V30 891 H 84.9336 -2.57892 -2.79771 0
M  V30 892 H 84.4456 -3.64959 -1.32009 0
M  V30 893 H 82.5466 -1.99411 -3.14748 0
M  V30 894 H 82.6596 -3.85406 -2.84603 0
M  V30 895 H 81.0236 -1.98994 -1.58976 0
M  V30 896 H 81.8066 -3.37118 -0.648581 0
M  V30 897 N 84.2517 0.741722 -1.39055 0
M  V30 898 C 85.2017 1.84661 -1.33732 0
M  V30 899 C 86.1857 1.59397 -0.219401 0
M  V30 900 O 87.3777 1.71015 -0.456375 0
M  V30 901 C 84.5067 3.22512 -1.17647 0
M  V30 902 C 83.5927 3.53628 -2.34112 0
M  V30 903 N 83.9837 3.55723 -3.59576 0
M  V30 904 C 82.2817 3.83956 -2.26923 0
M  V30 905 C 82.9827 3.84443 -4.36553 0
M  V30 906 N 81.9587 4.01877 -3.66055 0
M  V30 907 H 85.7607 1.84576 -2.28711 0
M  V30 908 H 83.2747 0.939647 -1.32455 0
M  V30 909 H 85.2717 4.01597 -1.11917 0
M  V30 910 H 83.9317 3.2384 -0.236124 0
M  V30 911 H 84.9427 3.37196 -3.93089 0
M  V30 912 H 81.6197 3.92929 -1.41113 0
M  V30 913 H 83.0097 3.92588 -5.45274 0
M  V30 914 N 85.7298 1.2412 0.971189 0
M  V30 915 C 86.9548 1.10667 1.75407 0
M  V30 916 C 87.3798 -0.337048 1.85056 0
M  V30 917 O 86.7378 -1.24396 1.31892 0
M  V30 918 C 86.7858 1.74726 3.15441 0
M  V30 919 O 85.8898 1.01566 3.99697 0
M  V30 920 H 85.2308 0.387341 0.539317 0
M  V30 921 H 87.7608 1.64358 1.2185 0
M  V30 922 H 87.7708 1.80341 3.6598 0
M  V30 923 H 86.4458 2.79773 3.07734 0
M  V30 924 H 85.0228 1.03713 3.58187 0
M  V30 925 N 87.2079 -1.17134 1.05439 0
M  V30 926 C 88.4549 -1.87456 0.765942 0
M  V30 927 C 88.7829 -1.81189 -0.707153 0
M  V30 928 O 88.0379 -1.21633 -1.5331 0
M  V30 929 C 88.3369 -3.36833 1.19491 0
M  V30 930 C 88.0029 -3.63301 2.67063 0
M  V30 931 C 86.6649 -3.70234 3.07376 0
M  V30 932 C 89.0169 -3.74575 3.62413 0
M  V30 933 C 86.3449 -3.85933 4.41896 0
M  V30 934 C 88.6969 -3.91793 4.9667 0
M  V30 935 C 87.3609 -3.96966 5.36633 0
M  V30 936 H 86.6309 -0.685948 0.280278 0
M  V30 937 H 89.2779 -1.38556 1.32192 0
M  V30 938 H 87.5829 -3.87807 0.557969 0
M  V30 939 H 89.2799 -3.89611 0.948893 0
M  V30 940 H 85.8699 -3.58532 2.34846 0
M  V30 941 H 90.0539 -3.68537 3.32406 0
M  V30 942 H 85.3099 -3.88187 4.72357 0
M  V30 943 H 89.4839 -3.99458 5.70444 0
M  V30 944 H 87.1109 -4.08883 6.40874 0
M  V30 945 N 88.686 -0.835752 -1.33615 0
M  V30 946 C 89.963 -0.352017 -1.92406 0
M  V30 947 C 90.343 1.16225 -1.76224 0
M  V30 948 O 89.691 1.97526 -1.14873 0
M  V30 949 C 89.901 -0.795485 -3.39813 0
M  V30 950 C 91.249 -0.801703 -4.16963 0
M  V30 951 O 92.273 -0.738889 -3.48452 0
M  V30 952 O 91.132 -0.886607 -5.3926 0
M  V30 953 H 88.226 -0.0989641 -0.821057 0
M  V30 954 H 90.772 -0.921397 -1.42507 0
M  V30 955 H 89.544 -1.83795 -3.45449 0
M  V30 956 H 89.167 -0.202505 -3.97084 0
M  V30 957 N 90.1641 1.46063 -0.591896 0
M  V30 958 C 91.0741 2.34192 0.13831 0
M  V30 959 C 92.0901 1.50305 0.876608 0
M  V30 960 O 93.2661 1.8315 0.837728 0
M  V30 961 C 90.3311 3.27656 1.13326 0
M  V30 962 C 89.3921 4.27445 0.39863 0
M  V30 963 C 88.6251 5.16443 1.34618 0
M  V30 964 O 88.8481 5.08553 2.58321 0
M  V30 965 O 87.7821 5.95843 0.851768 0
M  V30 966 H 91.6081 2.98002 -0.58552 0
M  V30 967 H 89.1931 1.45188 -0.352239 0
M  V30 968 H 91.0751 3.85291 1.70671 0
M  V30 969 H 89.7501 2.6643 1.83839 0
M  V30 970 H 88.6571 3.73471 -0.216895 0
M  V30 971 H 89.9901 4.91482 -0.265709 0
M  V30 972 N 91.6422 0.330177 1.54103 0
M  V30 973 C 92.8882 -0.270806 2.00984 0
M  V30 974 C 93.2212 -1.51265 1.21789 0
M  V30 975 O 92.4962 -1.92142 0.301927 0
M  V30 976 C 92.7792 -0.598339 3.55094 0
M  V30 977 C 92.6322 0.654674 4.4501 0
M  V30 978 C 93.9512 -1.41334 4.16789 0
M  V30 979 H 91.0702 -0.0969531 0.730595 0
M  V30 980 H 93.7122 0.448066 1.84641 0
M  V30 981 H 91.8622 -1.21078 3.69151 0
M  V30 982 H 93.5342 1.29285 4.42813 0
M  V30 983 H 91.7772 1.28224 4.14416 0
M  V30 984 H 92.4482 0.380944 5.50684 0
M  V30 985 H 94.9242 -0.895597 4.06347 0
M  V30 986 H 93.8002 -1.61127 5.24718 0
M  V30 987 H 94.0612 -2.41146 3.70541 0
M  V30 988 N 93.1203 -1.57491 0.0584922 0
M  V30 989 C 94.3683 -1.92597 -0.612436 0
M  V30 990 C 94.6893 -0.938162 -1.70949 0
M  V30 991 O 93.9593 0.0158301 -1.95894 0
M  V30 992 H 92.5393 -0.710964 -0.229214 0
M  V30 993 H 95.2013 -1.94571 0.113218 0
M  V30 994 H 94.2973 -2.94038 -1.04633 0
M  V30 995 N 94.5984 0.214957 -1.56127 0
M  V30 996 C 95.5614 1.24997 -1.92116 0
M  V30 997 C 96.5614 1.39467 -0.800344 0
M  V30 998 O 97.7514 1.37619 -1.06802 0
M  V30 999 C 94.8834 2.62271 -2.17777 0
M  V30 1000 H 96.0764 0.942875 -2.84693 0
M  V30 1001 H 93.6294 0.455654 -1.49511 0
M  V30 1002 H 94.3644 2.98068 -1.27773 0
M  V30 1003 H 94.1494 2.53143 -2.99434 0
M  V30 1004 H 95.6394 3.36946 -2.46693 0
M  V30 1005 N 96.0765 1.50051 0.48192 0
M  V30 1006 C 97.3235 1.60498 1.23477 0
M  V30 1007 C 97.6515 0.300331 1.92167 0
M  V30 1008 O 96.9065 -0.713094 1.82246 0
M  V30 1009 C 97.2055 2.72717 2.30998 0
M  V30 1010 C 96.8715 4.13572 1.79636 0
M  V30 1011 C 95.5335 4.519 1.65348 0
M  V30 1012 C 97.8855 5.01649 1.41412 0
M  V30 1013 C 95.2135 5.76057 1.11244 0
M  V30 1014 C 97.5655 6.26343 0.887538 0
M  V30 1015 C 96.2295 6.63483 0.731207 0
M  V30 1016 H 95.4995 0.587303 0.451836 0
M  V30 1017 H 98.1465 1.83948 0.532468 0
M  V30 1018 H 96.4515 2.43312 3.07094 0
M  V30 1019 H 98.1485 2.78006 2.88988 0
M  V30 1020 H 94.7385 3.83329 1.91721 0
M  V30 1021 H 98.9225 4.72679 1.51289 0
M  V30 1022 H 94.1785 6.03516 0.978686 0
M  V30 1023 H 98.3525 6.93958 0.582654 0
M  V30 1024 H 95.9795 7.59568 0.309806 0
M  V30 1025 N 97.5546 -0.734337 1.39446 0
M  V30 1026 C 98.9706 -1.03997 1.21065 0
M  V30 1027 C 99.1706 -2.01369 0.0727019 0
M  V30 1028 O 98.2266 -2.45856 -0.575426 0
M  V30 1029 C 99.5396 -1.60163 2.54496 0
M  V30 1030 C 101.088 -1.7224 2.61347 0
M  V30 1031 C 101.563 -2.31814 3.95002 0
M  V30 1032 N 103.054 -2.39223 3.96644 0
M  V30 1033 C 103.789 -2.86258 4.96834 0
M  V30 1034 N 103.285 -3.33184 6.07421 0
M  V30 1035 N 105.078 -2.85473 4.84213 0
M  V30 1036 H 97.2286 -0.0885624 2.12215 0
M  V30 1037 H 99.4916 -0.10191 0.942506 0
M  V30 1038 H 99.1976 -0.960811 3.38321 0
M  V30 1039 H 99.0716 -2.5896 2.74262 0
M  V30 1040 H 101.459 -2.35443 1.77906 0
M  V30 1041 H 101.54 -0.720939 2.4543 0
M  V30 1042 H 101.184 -1.69238 4.78875 0
M  V30 1043 H 101.114 -3.32638 4.08239 0
M  V30 1044 H 103.605 -2.06057 3.16779 0
M  V30 1045 H 103.918 -3.67586 6.7978 0
M  V30 1046 H 102.263 -3.31191 6.11013 0
M  V30 1047 H 105.454 -2.48136 3.96921 0
M  V30 1048 H 105.627 -3.21814 5.62441 0
M  V30 1049 N 99.0327 -1.24633 -0.964593 0
M  V30 1050 C 99.9797 -1.04144 -2.05968 0
M  V30 1051 C 100.95 0.046262 -1.66036 0
M  V30 1052 O 102.135 -0.108972 -1.90489 0
M  V30 1053 C 99.2747 -0.65563 -3.38815 0
M  V30 1054 C 98.3877 -1.81714 -3.91923 0
M  V30 1055 C 97.5227 -1.37662 -5.13052 0
M  V30 1056 C 96.5617 -2.50788 -5.58365 0
M  V30 1057 N 95.6987 -2.07582 -6.70712 0
M  V30 1058 H 100.539 -1.9787 -2.22827 0
M  V30 1059 H 98.0757 -0.9855 -1.09208 0
M  V30 1060 H 100.034 -0.412954 -4.15151 0
M  V30 1061 H 98.6637 0.244627 -3.21872 0
M  V30 1062 H 97.7157 -2.1734 -3.12198 0
M  V30 1063 H 99.0277 -2.66705 -4.21509 0
M  V30 1064 H 98.1817 -1.093 -5.96773 0
M  V30 1065 H 96.9207 -0.497293 -4.85158 0
M  V30 1066 H 95.9257 -2.79906 -4.73215 0
M  V30 1067 H 97.1507 -3.39283 -5.88272 0
M  V30 1068 H 95.0967 -1.22051 -6.44546 0
M  V30 1069 H 95.0137 -2.86125 -6.99763 0
M  V30 1070 H 96.2817 -1.82369 -7.57867 0
M  V30 1071 N 100.511 1.16574 -1.06058 0
M  V30 1072 C 101.461 2.18854 -0.63929 0
M  V30 1073 C 102.445 1.57505 0.328798 0
M  V30 1074 O 103.637 1.76408 0.144623 0
M  V30 1075 C 100.766 3.43291 -0.0247203 0
M  V30 1076 C 99.8518 4.11722 -1.01716 0
M  V30 1077 N 100.243 4.55841 -2.19186 0
M  V30 1078 C 98.5408 4.37872 -0.847569 0
M  V30 1079 C 99.2418 5.08751 -2.82042 0
M  V30 1080 N 98.2178 5.01489 -2.09784 0
M  V30 1081 H 102.02 2.5068 -1.53417 0
M  V30 1082 H 99.5338 1.32999 -0.931935 0
M  V30 1083 H 101.531 4.15856 0.294915 0
M  V30 1084 H 100.191 3.12954 0.865448 0
M  V30 1085 H 101.202 4.49649 -2.56975 0
M  V30 1086 H 97.8788 4.17499 -0.00918848 0
M  V30 1087 H 99.2688 5.52944 -3.81709 0
M  V30 1088 N 101.989 0.842826 1.3317 0
M  V30 1089 C 103.405 0.531128 1.50503 0
M  V30 1090 C 103.605 -0.940734 1.78192 0
M  V30 1091 O 102.661 -1.72436 1.84451 0
M  V30 1092 C 103.974 1.40789 2.65705 0
M  V30 1093 C 105.522 1.40708 2.79589 0
M  V30 1094 C 105.997 2.26878 3.97857 0
M  V30 1095 N 107.488 2.24609 4.05099 0
M  V30 1096 C 108.223 2.88019 4.95815 0
M  V30 1097 N 107.719 3.60496 5.9162 0
M  V30 1098 N 109.512 2.77469 4.88843 0
M  V30 1099 H 101.663 1.79557 1.1346 0
M  V30 1100 H 103.926 0.766267 0.558156 0
M  V30 1101 H 103.632 2.454 2.51936 0
M  V30 1102 H 103.506 1.08677 3.61205 0
M  V30 1103 H 105.893 0.368668 2.92788 0
M  V30 1104 H 105.974 1.76829 1.84838 0
M  V30 1105 H 105.618 3.3078 3.85418 0
M  V30 1106 H 105.548 1.88096 4.91861 0
M  V30 1107 H 108.039 1.71906 3.36536 0
M  V30 1108 H 108.352 4.06076 6.57512 0
M  V30 1109 H 106.697 3.64604 5.91683 0
M  V30 1110 H 109.888 2.20406 4.12963 0
M  V30 1111 H 110.061 3.2717 5.59342 0
M  V30 1112 N 103.467 -1.45747 0.599634 0
M  V30 1113 C 104.695 -2.06668 0.0978551 0
M  V30 1114 C 105.11 -1.44562 -1.21439 0
M  V30 1115 O 104.467 -0.556923 -1.73795 0
M  V30 1116 C 104.518 -3.61456 -0.0567044 0
M  V30 1117 O 104.239 -4.21242 1.20361 0
M  V30 1118 C 105.74 -4.39345 -0.590869 0
M  V30 1119 H 102.96 -0.667825 0.0651943 0
M  V30 1120 H 105.504 -1.87115 0.82511 0
M  V30 1121 H 103.659 -3.80378 -0.734251 0
M  V30 1122 H 104.073 -5.14323 1.02821 0
M  V30 1123 H 105.547 -5.48182 -0.648131 0
M  V30 1124 H 106.024 -4.08568 -1.61147 0
M  V30 1125 H 106.63 -4.25268 0.0523679 0
M  V30 1126 N 104.945 -0.338344 -1.53925 0
M  V30 1127 C 106.173 0.261298 -2.05243 0
M  V30 1128 C 106.588 1.44625 -1.21363 0
M  V30 1129 O 105.945 1.80811 -0.247736 0
M  V30 1130 C 105.996 0.681412 -3.5502 0
M  V30 1131 O 105.717 -0.456414 -4.35716 0
M  V30 1132 C 107.218 1.34232 -4.22489 0
M  V30 1133 H 104.438 0.0513685 -0.669031 0
M  V30 1134 H 106.982 -0.488822 -1.98572 0
M  V30 1135 H 105.137 1.38148 -3.61931 0
M  V30 1136 H 105.551 -0.122564 -5.24357 0
M  V30 1137 H 107.025 1.58708 -5.28693 0
M  V30 1138 H 107.502 2.29426 -3.74514 0
M  V30 1139 H 108.108 0.684424 -4.19757 0
M  V30 1140 N 106.423 1.57458 -0.0668435 0
M  V30 1141 C 107.353 2.15468 0.899764 0
M  V30 1142 C 108.334 1.08042 1.31381 0
M  V30 1143 O 109.519 1.36054 1.38574 0
M  V30 1144 C 106.649 2.71232 2.16911 0
M  V30 1145 C 105.603 3.83781 1.89463 0
M  V30 1146 C 104.929 4.26127 3.22986 0
M  V30 1147 C 106.229 5.08238 1.20381 0
M  V30 1148 H 107.923 2.96488 0.416529 0
M  V30 1149 H 105.469 1.4262 0.198908 0
M  V30 1150 H 107.422 3.10458 2.84945 0
M  V30 1151 H 106.146 1.87426 2.67468 0
M  V30 1152 H 104.805 3.45051 1.23836 0
M  V30 1153 H 104.453 3.39249 3.71374 0
M  V30 1154 H 104.153 5.01993 3.05413 0
M  V30 1155 H 105.677 4.67966 3.92225 0
M  V30 1156 H 107.091 5.44811 1.78475 0
M  V30 1157 H 105.488 5.89349 1.13083 0
M  V30 1158 H 106.558 4.84558 0.182153 0
M  V30 1159 N 107.901 -0.206675 1.56239 0
M  V30 1160 C 109.148 -0.928842 1.79941 0
M  V30 1161 C 109.476 -1.83734 0.638131 0
M  V30 1162 O 108.731 -1.92039 -0.376746 0
M  V30 1163 C 109.03 -1.78675 3.09532 0
M  V30 1164 C 108.696 -1.03022 4.38973 0
M  V30 1165 C 107.358 -0.821302 4.74139 0
M  V30 1166 C 109.71 -0.497081 5.18824 0
M  V30 1167 C 107.038 -0.0675719 5.86661 0
M  V30 1168 C 109.39 0.24338 6.32132 0
M  V30 1169 C 108.054 0.463422 6.65889 0
M  V30 1170 H 107.324 -0.339887 0.658451 0
M  V30 1171 H 109.971 -0.195977 1.90495 0
M  V30 1172 H 108.276 -2.58794 2.94165 0
M  V30 1173 H 109.973 -2.34792 3.25075 0
M  V30 1174 H 106.563 -1.20306 4.11369 0
M  V30 1175 H 110.747 -0.645921 4.92079 0
M  V30 1176 H 106.003 0.112995 6.11296 0
M  V30 1177 H 110.177 0.66393 6.93228 0
M  V30 1178 H 107.804 1.04938 7.52922 0
M  V30 1179 N 109.379 -1.50304 -0.473955 0
M  V30 1180 C 110.627 -1.60832 -1.22382 0
M  V30 1181 C 110.948 -0.30939 -1.9253 0
M  V30 1182 O 110.218 0.67296 -1.83978 0
M  V30 1183 H 108.798 -0.592652 -0.454723 0
M  V30 1184 H 111.46 -1.87068 -0.546968 0
M  V30 1185 H 110.556 -2.41803 -1.97327 0
M  V30 1186 N 110.857 0.726932 -1.39834 0
M  V30 1187 C 111.79 1.8501 -1.33592 0
M  V30 1188 C 112.768 1.61262 -0.208191 0
M  V30 1189 O 113.952 1.84422 -0.389981 0
M  V30 1190 C 111.079 3.21143 -1.07633 0
M  V30 1191 C 110.125 3.63737 -2.22705 0
M  V30 1192 S 110.958 3.72167 -3.85035 0
M  V30 1193 C 112.114 5.11077 -3.61318 0
M  V30 1194 H 112.347 1.90022 -2.28646 0
M  V30 1195 H 109.88 0.892595 -1.25985 0
M  V30 1196 H 111.838 3.99747 -0.933415 0
M  V30 1197 H 110.499 3.13776 -0.142526 0
M  V30 1198 H 109.692 4.62551 -2.00155 0
M  V30 1199 H 109.294 2.9236 -2.33242 0
M  V30 1200 H 111.586 5.97656 -3.19083 0
M  V30 1201 H 112.529 5.38658 -4.59623 0
M  V30 1202 H 112.937 4.81135 -2.95245 0
M  V30 1203 N 112.336 1.25143 0.95797 0
M  V30 1204 C 113.613 1.00472 1.67823 0
M  V30 1205 C 113.993 -0.470056 2.058 0
M  V30 1206 O 113.341 -1.44663 1.76875 0
M  V30 1207 C 113.551 1.9372 2.90299 0
M  V30 1208 C 114.899 2.21371 3.62326 0
M  V30 1209 O 115.923 1.91451 3.00375 0
M  V30 1210 O 114.782 2.72231 4.7387 0
M  V30 1211 H 111.876 0.380752 0.734137 0
M  V30 1212 H 114.422 1.36283 1.01119 0
M  V30 1213 H 113.194 2.93316 2.59001 0
M  V30 1214 H 112.817 1.58286 3.64735 0
M  V30 1215 N 113.814 -1.1601 1.06675 0
M  V30 1216 C 114.761 -2.20525 0.680967 0
M  V30 1217 C 115.731 -1.62904 -0.324283 0
M  V30 1218 O 116.916 -1.89615 -0.212294 0
M  V30 1219 C 114.056 -3.45013 0.0776551 0
M  V30 1220 C 113.169 -4.16863 1.13355 0
M  V30 1221 C 112.304 -5.2888 0.49597 0
M  V30 1222 C 111.343 -5.92537 1.53513 0
M  V30 1223 N 110.48 -6.96038 0.920631 0
M  V30 1224 H 115.32 -2.52876 1.57663 0
M  V30 1225 H 112.857 -1.24199 0.788223 0
M  V30 1226 H 114.815 -4.16193 -0.289704 0
M  V30 1227 H 113.445 -3.132 -0.781393 0
M  V30 1228 H 112.497 -3.44248 1.61857 0
M  V30 1229 H 113.809 -4.60294 1.92174 0
M  V30 1230 H 112.963 -6.06653 0.0758604 0
M  V30 1231 H 111.702 -4.86622 -0.324062 0
M  V30 1232 H 110.707 -5.13482 1.9651 0
M  V30 1233 H 111.932 -6.36873 2.35733 0
M  V30 1234 H 109.878 -6.55888 0.12138 0
M  V30 1235 H 109.795 -7.3786 1.64616 0
M  V30 1236 H 111.063 -7.77725 0.525795 0
M  V30 1237 N 115.292 -0.849877 -1.32721 0
M  V30 1238 C 116.255 -0.296122 -2.27279 0
M  V30 1239 C 117.255 0.541458 -1.5141 0
M  V30 1240 O 118.445 0.353658 -1.70572 0
M  V30 1241 C 115.577 0.581579 -3.35902 0
M  V30 1242 H 116.77 -1.13064 -2.77771 0
M  V30 1243 H 114.323 -0.62383 -1.43311 0
M  V30 1244 H 115.058 1.43809 -2.9067 0
M  V30 1245 H 114.843 -0.0178814 -3.92096 0
M  V30 1246 H 116.333 0.961951 -4.0637 0
M  V30 1247 N 116.77 1.45427 -0.607355 0
M  V30 1248 C 118.016 2.0254 -0.102607 0
M  V30 1249 C 118.349 1.47478 1.26348 0
M  V30 1250 O 117.624 0.64939 1.83339 0
M  V30 1251 C 117.907 3.60044 -0.0634347 0
M  V30 1252 C 117.76 4.2544 -1.46017 0
M  V30 1253 C 119.079 4.35646 0.624514 0
M  V30 1254 H 116.198 0.73598 -0.0387607 0
M  V30 1255 H 118.84 1.73284 -0.779282 0
M  V30 1256 H 116.99 3.85101 0.512808 0
M  V30 1257 H 118.662 4.11569 -2.08347 0
M  V30 1258 H 116.905 3.83849 -2.02094 0
M  V30 1259 H 117.576 5.34342 -1.385 0
M  V30 1260 H 120.052 4.15882 0.134723 0
M  V30 1261 H 118.928 5.45376 0.621028 0
M  V30 1262 H 119.189 4.08501 1.69055 0
M  V30 1263 N 118.248 0.346503 1.53744 0
M  V30 1264 C 119.494 -0.249473 2.0126 0
M  V30 1265 C 119.827 -1.49965 1.23386 0
M  V30 1266 O 119.102 -1.91811 0.32229 0
M  V30 1267 C 119.385 -0.560643 3.55709 0
M  V30 1268 C 119.238 0.701836 4.44291 0
M  V30 1269 C 120.557 -1.36905 4.18264 0
M  V30 1270 H 117.676 -0.0891987 0.731582 0
M  V30 1271 H 120.318 0.467624 1.84156 0
M  V30 1272 H 118.468 -1.17156 3.70414 0
M  V30 1273 H 120.14 1.33974 4.41417 0
M  V30 1274 H 118.383 1.32612 4.13033 0
M  V30 1275 H 119.054 0.43933 5.50249 0
M  V30 1276 H 121.53 -0.852448 4.07275 0
M  V30 1277 H 120.406 -1.55553 5.26398 0
M  V30 1278 H 120.667 -2.37203 3.73078 0
M  V30 1279 N 119.726 -1.57421 0.075193 0
M  V30 1280 C 121.137 -1.81021 -0.456964 0
M  V30 1281 C 121.488 -0.98936 -1.69429 0
M  V30 1282 O 120.613 -0.212865 -2.15351 0
M  V30 1283 C 121.208 -3.28329 -0.83581 0
M  V30 1284 C 119.767 -3.52764 -1.31281 0
M  V30 1285 C 118.914 -2.75676 -0.299648 0
M  V30 1286 H 121.865 -1.55822 0.300856 0
M  V30 1287 H 121.886 -3.40564 -1.69696 0
M  V30 1288 H 121.398 -3.88046 0.0649238 0
M  V30 1289 H 119.499 -2.98355 -2.23193 0
M  V30 1290 H 119.612 -4.61451 -1.28839 0
M  V30 1291 H 117.976 -2.42538 -0.777641 0
M  V30 1292 H 118.759 -3.38132 0.593417 0
M  V30 1293 N 121.204 0.198386 -1.56346 0
M  V30 1294 C 122.167 1.22952 -1.93431 0
M  V30 1295 C 123.167 1.38611 -0.815092 0
M  V30 1296 O 124.357 1.36479 -1.08255 0
M  V30 1297 C 121.489 2.59946 -2.20546 0
M  V30 1298 H 122.682 0.912626 -2.85677 0
M  V30 1299 H 120.235 0.43977 -1.49986 0
M  V30 1300 H 120.97 2.96696 -1.30927 0
M  V30 1301 H 120.755 2.49953 -3.02102 0
M  V30 1302 H 122.245 3.3431 -2.50253 0
M  V30 1303 N 122.682 1.50554 0.465978 0
M  V30 1304 C 123.959 1.5232 1.22712 0
M  V30 1305 C 124.339 0.270807 2.09356 0
M  V30 1306 O 123.687 -0.745541 2.15995 0
M  V30 1307 C 123.897 2.82175 2.05374 0
M  V30 1308 C 125.245 3.33033 2.6339 0
M  V30 1309 O 126.269 2.83531 2.15612 0
M  V30 1310 O 125.128 4.19336 3.50456 0
M  V30 1311 H 122.222 0.611183 0.557122 0
M  V30 1312 H 124.768 1.62847 0.477381 0
M  V30 1313 H 123.54 3.64797 1.41558 0
M  V30 1314 H 123.163 2.74675 2.87471 0
M  V30 1315 N 124.16 -0.719506 1.40217 0
M  V30 1316 C 125.408 -1.47641 1.3801 0
M  V30 1317 C 125.729 -1.94992 -0.018145 0
M  V30 1318 O 124.999 -1.70073 -0.972207 0
M  V30 1319 H 123.579 -0.547744 0.507923 0
M  V30 1320 H 126.241 -0.853187 1.75233 0
M  V30 1321 H 125.337 -2.35112 2.05253 0
M  V30 1322 N 125.638 -1.25649 -0.95132 0
M  V30 1323 C 126.884 -1.10757 -1.69884 0
M  V30 1324 C 127.217 0.350061 -1.91019 0
M  V30 1325 O 126.492 1.25783 -1.48354 0
M  V30 1326 C 126.775 -1.86606 -3.07978 0
M  V30 1327 C 126.628 -3.40217 -2.94232 0
M  V30 1328 C 127.947 -1.65182 -4.07925 0
M  V30 1329 H 125.066 -0.40374 -0.616574 0
M  V30 1330 H 127.708 -1.54521 -1.10558 0
M  V30 1331 H 125.858 -1.49409 -3.58621 0
M  V30 1332 H 127.53 -3.87108 -2.50889 0
M  V30 1333 H 125.773 -3.67759 -2.30078 0
M  V30 1334 H 126.444 -3.88505 -3.92133 0
M  V30 1335 H 128.92 -1.9757 -3.66204 0
M  V30 1336 H 127.796 -2.20683 -5.02583 0
M  V30 1337 H 128.057 -0.593933 -4.38092 0
M  V30 1338 N 127.117 1.15442 -1.07289 0
M  V30 1339 C 128.363 1.86489 -0.796846 0
M  V30 1340 C 128.696 1.82078 0.675371 0
M  V30 1341 O 127.971 1.24346 1.4956 0
M  V30 1342 C 128.254 3.35626 -1.30489 0
M  V30 1343 C 128.107 3.48673 -2.84161 0
M  V30 1344 C 129.426 4.30357 -0.920907 0
M  V30 1345 H 126.545 0.677144 -0.290939 0
M  V30 1346 H 129.187 1.35633 -1.33056 0
M  V30 1347 H 127.337 3.79068 -0.850883 0
M  V30 1348 H 129.009 3.14099 -3.37846 0
M  V30 1349 H 127.252 2.90253 -3.22391 0
M  V30 1350 H 127.923 4.53453 -3.14777 0
M  V30 1351 H 130.399 3.94871 -1.3121 0
M  V30 1352 H 129.275 5.33193 -1.30372 0
M  V30 1353 H 129.536 4.4176 0.173226 0
M  V30 1354 N 128.595 0.856903 1.32268 0
M  V30 1355 C 129.823 0.475439 2.01363 0
M  V30 1356 C 130.238 -0.928486 1.64392 0
M  V30 1357 O 129.595 -1.60624 0.866387 0
M  V30 1358 C 129.646 0.607545 3.56358 0
M  V30 1359 O 129.367 1.95617 3.92002 0
M  V30 1360 C 130.868 0.225382 4.42727 0
M  V30 1361 H 128.088 0.186636 0.644521 0
M  V30 1362 H 130.632 1.15446 1.68797 0
M  V30 1363 H 128.787 -0.0237719 3.87393 0
M  V30 1364 H 129.201 1.95455 4.86721 0
M  V30 1365 H 130.675 0.368813 5.50767 0
M  V30 1366 H 131.152 -0.834369 4.31202 0
M  V30 1367 H 131.758 0.831864 4.17085 0
M  V30 1368 N 130.073 -1.45103 0.615059 0
M  V30 1369 C 131.321 -2.01784 0.112955 0
M  V30 1370 C 131.642 -1.48504 -1.26378 0
M  V30 1371 O 130.912 -0.682245 -1.83636 0
M  V30 1372 H 129.492 -0.745993 0.0387668 0
M  V30 1373 H 132.154 -1.77808 0.798141 0
M  V30 1374 H 131.25 -3.12025 0.0684069 0
M  V30 1375 N 131.551 -0.354651 -1.53558 0
M  V30 1376 C 132.967 -0.00315426 -1.596 0
M  V30 1377 C 133.167 1.47741 -1.37021 0
M  V30 1378 O 132.223 2.23759 -1.16996 0
M  V30 1379 C 133.536 -0.44929 -2.97325 0
M  V30 1380 C 135.084 -0.402578 -3.104 0
M  V30 1381 C 135.559 -0.824355 -4.5052 0
M  V30 1382 N 137.05 -0.778979 -4.56603 0
M  V30 1383 C 137.785 -1.07715 -5.63192 0
M  V30 1384 N 137.281 -1.44405 -6.77583 0
M  V30 1385 N 139.074 -1.00066 -5.53121 0
M  V30 1386 H 131.225 -1.31893 -1.66487 0
M  V30 1387 H 133.488 -0.538388 -0.780284 0
M  V30 1388 H 133.194 -1.48202 -3.1895 0
M  V30 1389 H 133.068 0.169772 -3.76818 0
M  V30 1390 H 135.455 0.621004 -2.88492 0
M  V30 1391 H 135.536 -1.05699 -2.32941 0
M  V30 1392 H 135.18 -1.846 -4.73165 0
M  V30 1393 H 135.11 -0.147304 -5.26394 0
M  V30 1394 H 137.601 -0.508528 -3.74463 0
M  V30 1395 H 137.914 -1.65612 -7.54846 0
M  V30 1396 H 136.259 -1.4826 -6.79002 0
M  V30 1397 H 139.45 -0.713293 -4.62633 0
M  V30 1398 H 139.623 -1.23638 -6.36096 0
M  V30 1399 N 133.029 1.57378 -0.0835403 0
M  V30 1400 C 134.277 1.93547 0.581718 0
M  V30 1401 C 134.598 0.96524 1.69435 0
M  V30 1402 O 133.868 0.0153369 1.95894 0
M  V30 1403 H 132.448 0.714521 0.217874 0
M  V30 1404 H 135.11 1.94366 -0.144158 0
M  V30 1405 H 134.206 2.95665 0.999423 0
M  V30 1406 N 134.507 -0.190092 1.56449 0
M  V30 1407 C 135.735 -0.925772 1.85033 0
M  V30 1408 C 136.15 -1.76638 0.666658 0
M  V30 1409 O 135.507 -1.78822 -0.364565 0
M  V30 1410 C 135.558 -1.81786 3.12468 0
M  V30 1411 O 135.279 -1.01118 4.26271 0
M  V30 1412 C 136.78 -2.6648 3.54265 0
M  V30 1413 H 134 -0.269872 0.614337 0
M  V30 1414 H 136.544 -0.195837 2.0356 0
M  V30 1415 H 134.699 -2.50136 2.95822 0
M  V30 1416 H 135.113 -1.61956 4.98869 0
M  V30 1417 H 136.587 -3.24722 4.46385 0
M  V30 1418 H 137.064 -3.40434 2.77491 0
M  V30 1419 H 137.67 -2.03493 3.73458 0
M  V30 1420 N 135.985 -1.50799 -0.457987 0
M  V30 1421 C 137.234 -1.6168 -1.20593 0
M  V30 1422 C 137.547 -0.32888 -1.92815 0
M  V30 1423 O 138.753 -0.316773 -2.69646 0
M  V30 1424 C 137.209 -2.8545 -2.19195 0
M  V30 1425 C 136.817 -4.21168 -1.52715 0
M  V30 1426 C 138.561 -3.05681 -2.94549 0
M  V30 1427 C 136.468 -5.3611 -2.4968 0
M  V30 1428 H 135.398 -0.602134 -0.453818 0
M  V30 1429 H 138.049 -1.77245 -0.475031 0
M  V30 1430 H 136.431 -2.63472 -2.95632 0
M  V30 1431 H 137.605 -4.53449 -0.819775 0
M  V30 1432 H 135.92 -4.06648 -0.895922 0
M  V30 1433 H 138.517 -3.88727 -3.67145 0
M  V30 1434 H 138.86 -2.17929 -3.54701 0
M  V30 1435 H 139.393 -3.27901 -2.25223 0
M  V30 1436 H 136.132 -6.26057 -1.94249 0
M  V30 1437 H 135.652 -5.0823 -3.18532 0
M  V30 1438 H 137.331 -5.6722 -3.11241 0
M  V30 1439 N 137.463 0.71206 -1.40597 0
M  V30 1440 C 138.393 1.83889 -1.43899 0
M  V30 1441 C 139.374 1.67442 -0.299504 0
M  V30 1442 O 140.559 1.87421 -0.508624 0
M  V30 1443 C 137.689 3.21877 -1.30431 0
M  V30 1444 C 136.643 3.53002 -2.42019 0
M  V30 1445 C 135.969 4.90172 -2.13626 0
M  V30 1446 C 137.269 3.53643 -3.84362 0
M  V30 1447 H 138.963 1.81383 -2.38203 0
M  V30 1448 H 136.509 0.871237 -1.14654 0
M  V30 1449 H 138.462 4.00404 -1.31357 0
M  V30 1450 H 137.186 3.24968 -0.326049 0
M  V30 1451 H 135.845 2.76818 -2.40349 0
M  V30 1452 H 135.493 4.89869 -1.14182 0
M  V30 1453 H 135.193 5.11962 -2.88389 0
M  V30 1454 H 136.717 5.71028 -2.1624 0
M  V30 1455 H 138.131 4.22203 -3.87837 0
M  V30 1456 H 136.528 3.86961 -4.58673 0
M  V30 1457 H 137.598 2.52954 -4.13693 0
M  V30 1458 N 138.941 1.26152 0.944643 0
M  V30 1459 C 140.189 1.11271 1.6871 0
M  V30 1460 C 140.51 -0.345166 1.91921 0
M  V30 1461 O 139.78 -1.24387 1.51343 0
M  V30 1462 H 138.36 0.408783 0.625224 0
M  V30 1463 H 141.022 1.58427 1.1352 0
M  V30 1464 H 140.118 1.62879 2.66227 0
M  V30 1465 N 140.419 -1.14872 1.07899 0
M  V30 1466 C 141.835 -1.37776 0.805606 0
M  V30 1467 C 142.035 -1.92743 -0.587555 0
M  V30 1468 O 141.091 -2.13678 -1.34528 0
M  V30 1469 C 142.404 -2.34361 1.88402 0
M  V30 1470 C 143.952 -2.48012 1.90942 0
M  V30 1471 C 144.427 -3.47893 2.97883 0
M  V30 1472 N 145.918 -3.55433 2.97021 0
M  V30 1473 C 146.653 -4.32553 3.76412 0
M  V30 1474 N 146.149 -5.12959 4.65666 0
M  V30 1475 N 147.942 -4.27697 3.64735 0
M  V30 1476 H 140.093 -0.775365 1.97742 0
M  V30 1477 H 142.356 -0.403521 0.857831 0
M  V30 1478 H 142.062 -2.01098 2.88535 0
M  V30 1479 H 141.936 -3.34206 1.74889 0
M  V30 1480 H 144.323 -2.8057 0.914579 0
M  V30 1481 H 144.404 -1.48147 2.08534 0
M  V30 1482 H 144.048 -3.16069 3.97571 0
M  V30 1483 H 143.978 -4.47527 2.77538 0
M  V30 1484 H 146.469 -2.98048 2.32326 0
M  V30 1485 H 146.782 -5.69065 5.22862 0
M  V30 1486 H 145.127 -5.12245 4.69712 0
M  V30 1487 H 148.318 -3.63949 2.94378 0
M  V30 1488 H 148.491 -4.8755 4.26848 0
M  V30 1489 N 141.898 -0.863906 -1.31812 0
M  V30 1490 C 143.309 -0.52522 -1.7916 0
M  V30 1491 C 143.66 0.957518 -1.71248 0
M  V30 1492 O 142.785 1.74734 -1.27659 0
M  V30 1493 C 143.38 -0.9466 -3.25307 0
M  V30 1494 C 141.939 -0.659668 -3.70574 0
M  V30 1495 C 141.086 -1.14126 -2.52726 0
M  V30 1496 H 144.037 -1.05022 -1.1898 0
M  V30 1497 H 144.058 -0.266766 -3.79564 0
M  V30 1498 H 143.57 -2.02579 -3.31034 0
M  V30 1499 H 141.671 0.408416 -3.70355 0
M  V30 1500 H 141.784 -1.23245 -4.62977 0
M  V30 1501 H 140.148 -0.561216 -2.4844 0
M  V30 1502 H 140.931 -2.22775 -2.61201 0
M  V30 1503 N 143.376 1.44774 -0.622745 0
M  V30 1504 C 144.622 2.0242 -0.124083 0
M  V30 1505 C 144.955 1.4881 1.24777 0
M  V30 1506 O 144.23 0.668799 1.8264 0
M  V30 1507 C 144.513 3.59957 -0.101619 0
M  V30 1508 C 144.366 4.23867 -1.50521 0
M  V30 1509 C 145.685 4.36284 0.578272 0
M  V30 1510 H 142.804 0.735528 -0.0465645 0
M  V30 1511 H 145.446 1.72447 -0.797617 0
M  V30 1512 H 143.596 3.85623 0.471934 0
M  V30 1513 H 145.268 4.09336 -2.12701 0
M  V30 1514 H 143.511 3.81684 -2.06154 0
M  V30 1515 H 144.182 5.32843 -1.4416 0
M  V30 1516 H 146.658 4.16001 0.0906057 0
M  V30 1517 H 145.534 5.46004 0.563149 0
M  V30 1518 H 145.795 4.10271 1.64713 0
M  V30 1519 N 144.854 0.36279 1.53368 0
M  V30 1520 C 145.804 -0.501391 2.22419 0
M  V30 1521 C 146.788 -1.0509 1.2184 0
M  V30 1522 O 147.98 -0.981404 1.47301 0
M  V30 1523 C 145.109 -1.64201 3.01484 0
M  V30 1524 C 144.195 -1.10552 4.09438 0
M  V30 1525 N 144.586 -0.291788 5.04958 0
M  V30 1526 C 142.884 -1.3806 4.24094 0
M  V30 1527 C 143.585 0.00162655 5.817 0
M  V30 1528 N 142.561 -0.595244 5.40331 0
M  V30 1529 H 146.363 0.127159 2.93625 0
M  V30 1530 H 143.877 0.170658 1.61501 0
M  V30 1531 H 145.874 -2.27326 3.49469 0
M  V30 1532 H 144.534 -2.27365 2.31809 0
M  V30 1533 H 145.545 0.0687731 5.17854 0
M  V30 1534 H 142.222 -2.01522 3.65644 0
M  V30 1535 H 143.612 0.659278 6.68658 0
M  V30 1536 N 146.332 -1.57332 0.0918853 0
M  V30 1537 C 147.295 -2.12708 -0.85369 0
M  V30 1538 C 148.295 -1.05561 -1.213 0
M  V30 1539 O 149.485 -1.31461 -1.14296 0
M  V30 1540 C 146.617 -2.64503 -2.15061 0
M  V30 1541 H 147.81 -2.97573 -0.3729 0
M  V30 1542 H 145.363 -1.55509 -0.157072 0
M  V30 1543 H 146.098 -1.83149 -2.67632 0
M  V30 1544 H 145.883 -3.4284 -1.90272 0
M  V30 1545 H 147.373 -3.07351 -2.82711 0
M  V30 1546 N 147.81 0.181792 -1.56548 0
M  V30 1547 C 148.773 1.20894 -1.94724 0
M  V30 1548 C 149.773 1.37738 -0.829747 0
M  V30 1549 O 150.963 1.35323 -1.09697 0
M  V30 1550 C 148.095 2.57593 -2.23291 0
M  V30 1551 H 149.288 0.882275 -2.86629 0
M  V30 1552 H 146.841 0.423838 -1.50444 0
M  V30 1553 H 147.576 2.95291 -1.34067 0
M  V30 1554 H 147.361 2.46735 -3.04736 0
M  V30 1555 H 148.851 3.31637 -2.53785 0
M  V30 1556 N 149.288 1.51039 0.449983 0
M  V30 1557 C 150.513 1.6715 1.22783 0
M  V30 1558 C 150.938 0.363081 1.84563 0
M  V30 1559 O 150.296 -0.675433 1.68249 0
M  V30 1560 C 150.344 2.77985 2.29689 0
M  V30 1561 O 149.448 2.40707 3.34864 0
M  V30 1562 H 148.789 0.557746 0.360299 0
M  V30 1563 H 151.319 1.97535 0.533005 0
M  V30 1564 H 151.329 3.01693 2.74673 0
M  V30 1565 H 150.004 3.72935 1.84098 0
M  V30 1566 H 148.581 2.27523 2.95445 0
M  V30 1567 N 150.766 -0.704594 1.40972 0
M  V30 1568 C 151.698 -1.82974 1.38033 0
M  V30 1569 C 152.711 -1.60305 0.283931 0
M  V30 1570 O 153.9 -1.69975 0.545042 0
M  V30 1571 C 151 -3.19578 1.12795 0
M  V30 1572 C 150.173 -3.69352 2.34302 0
M  V30 1573 C 149.232 -4.84601 2.05058 0
M  V30 1574 O 148.258 -4.96682 2.7802 0
M  V30 1575 N 149.46 -5.71194 1.03528 0
M  V30 1576 H 152.225 -1.85991 2.35005 0
M  V30 1577 H 149.786 -0.886567 1.35468 0
M  V30 1578 H 151.778 -3.9429 0.911987 0
M  V30 1579 H 150.348 -3.11642 0.24452 0
M  V30 1580 H 149.568 -2.85649 2.71659 0
M  V30 1581 H 150.856 -3.99345 3.1528 0
M  V30 1582 H 150.254 -5.64054 0.431217 0
M  V30 1583 H 148.811 -6.45843 0.879205 0
M  V30 1584 N 152.244 -1.26651 -0.937939 0
M  V30 1585 C 153.521 -1.0313 -1.66204 0
M  V30 1586 C 153.901 0.437256 -2.06522 0
M  V30 1587 O 153.249 1.41831 -1.79154 0
M  V30 1588 C 153.459 -1.98314 -2.87181 0
M  V30 1589 C 154.807 -2.27107 -3.58758 0
M  V30 1590 O 155.831 -1.96205 -2.97291 0
M  V30 1591 O 154.69 -2.79736 -4.69479 0
M  V30 1592 H 151.784 -0.392384 -0.727986 0
M  V30 1593 H 154.33 -1.37874 -0.989382 0
M  V30 1594 H 153.102 -2.97399 -2.54302 0
M  V30 1595 H 152.725 -1.64068 -3.6217 0
M  V30 1596 N 153.722 1.14298 -1.08507 0
M  V30 1597 C 154.969 1.85359 -0.815373 0
M  V30 1598 C 155.297 1.83001 0.658865 0
M  V30 1599 O 154.552 1.25655 1.50031 0
M  V30 1600 C 154.851 3.33547 -1.28379 0
M  V30 1601 C 154.517 3.56093 -2.76602 0
M  V30 1602 C 153.179 3.61955 -3.17084 0
M  V30 1603 C 155.531 3.64834 -3.72217 0
M  V30 1604 C 152.859 3.74082 -4.51973 0
M  V30 1605 C 155.211 3.78487 -5.06883 0
M  V30 1606 C 153.875 3.82598 -5.46969 0
M  V30 1607 H 153.145 0.678276 -0.298366 0
M  V30 1608 H 155.792 1.35002 -1.35819 0
M  V30 1609 H 154.097 3.86191 -0.660593 0
M  V30 1610 H 155.794 3.86959 -1.05186 0
M  V30 1611 H 152.384 3.52179 -2.4427 0
M  V30 1612 H 156.568 3.59595 -3.42061 0
M  V30 1613 H 151.824 3.75527 -4.82483 0
M  V30 1614 H 155.998 3.84193 -5.80834 0
M  V30 1615 H 153.625 3.91747 -6.51489 0
M  V30 1616 N 155.201 0.870884 1.31352 0
M  V30 1617 C 156.429 0.49677 2.00848 0
M  V30 1618 C 156.844 -0.910998 1.65367 0
M  V30 1619 O 156.201 -1.59696 0.883374 0
M  V30 1620 C 156.252 0.645308 3.55694 0
M  V30 1621 O 155.973 1.99764 3.89905 0
M  V30 1622 C 157.474 0.272326 4.42463 0
M  V30 1623 H 154.694 0.193462 0.642506 0
M  V30 1624 H 157.238 1.1723 1.67563 0
M  V30 1625 H 155.393 0.0173176 3.87396 0
M  V30 1626 H 155.807 2.00607 4.84621 0
M  V30 1627 H 157.281 0.427208 5.50344 0
M  V30 1628 H 157.758 -0.788587 4.32062 0
M  V30 1629 H 158.364 0.876054 4.1618 0
M  V30 1630 N 156.679 -1.44442 0.630414 0
M  V30 1631 C 157.925 -2.02351 0.134816 0
M  V30 1632 C 158.258 -1.4947 -1.23986 0
M  V30 1633 O 157.533 -0.678475 -1.82283 0
M  V30 1634 C 157.816 -3.59898 0.120707 0
M  V30 1635 C 157.669 -4.23063 1.52767 0
M  V30 1636 C 158.988 -4.36585 -0.555127 0
M  V30 1637 H 156.107 -0.73527 0.0504646 0
M  V30 1638 H 158.749 -1.72022 0.806751 0
M  V30 1639 H 156.899 -3.85868 -0.451477 0
M  V30 1640 H 158.571 -4.08202 2.14869 0
M  V30 1641 H 156.814 -3.80586 2.08175 0
M  V30 1642 H 157.485 -5.32071 1.46984 0
M  V30 1643 H 159.961 -4.16044 -0.0685429 0
M  V30 1644 H 158.837 -5.46294 -0.534185 0
M  V30 1645 H 159.098 -4.11138 -1.62535 0
M  V30 1646 N 158.157 -0.370918 -1.53173 0
M  V30 1647 C 159.09 0.516727 -2.22273 0
M  V30 1648 C 160.068 1.07877 -1.21661 0
M  V30 1649 O 161.252 1.13389 -1.50583 0
M  V30 1650 C 158.379 1.71346 -2.92161 0
M  V30 1651 C 157.425 1.27838 -4.0689 0
M  V30 1652 S 158.258 0.275217 -5.34792 0
M  V30 1653 C 159.414 1.47816 -6.08195 0
M  V30 1654 H 159.647 -0.0701054 -2.97217 0
M  V30 1655 H 157.18 -0.155038 -1.5362 0
M  V30 1656 H 159.138 2.39988 -3.3304 0
M  V30 1657 H 157.799 2.27156 -2.16931 0
M  V30 1658 H 156.992 2.17141 -4.54825 0
M  V30 1659 H 156.594 0.671105 -3.6793 0
M  V30 1660 H 158.886 2.40831 -6.33251 0
M  V30 1661 H 159.829 1.04008 -7.0042 0
M  V30 1662 H 160.237 1.68663 -5.38714 0
M  V30 1663 N 159.635 1.57281 -0.100228 0
M  V30 1664 C 160.883 1.94153 0.561157 0
M  V30 1665 C 161.204 0.983157 1.68401 0
M  V30 1666 O 160.474 0.0361132 1.95867 0
M  V30 1667 H 159.054 0.716791 0.210283 0
M  V30 1668 H 161.716 1.94202 -0.164765 0
M  V30 1669 H 160.812 2.96709 0.968008 0
M  V30 1670 N 161.113 -0.173488 1.56642 0
M  V30 1671 C 162.361 -0.888706 1.81512 0
M  V30 1672 C 162.682 -1.82875 0.676872 0
M  V30 1673 O 161.952 -1.93536 -0.303414 0
M  V30 1674 H 160.532 -0.331164 0.669582 0
M  V30 1675 H 163.194 -0.173823 1.94123 0
M  V30 1676 H 162.29 -1.46691 2.75478 0
M  V30 1677 N 162.591 -1.51276 -0.441967 0
M  V30 1678 C 163.816 -1.67799 -1.21895 0
M  V30 1679 C 164.241 -0.372864 -1.84367 0
M  V30 1680 O 163.599 0.666501 -1.68604 0
M  V30 1681 C 163.647 -2.79199 -2.28211 0
M  V30 1682 O 162.751 -2.42479 -3.33583 0
M  V30 1683 H 162.092 -0.559649 -0.357336 0
M  V30 1684 H 164.622 -1.97815 -0.522522 0
M  V30 1685 H 164.632 -3.03146 -2.73069 0
M  V30 1686 H 163.307 -3.73906 -1.82118 0
M  V30 1687 H 161.884 -2.29087 -2.94234 0
M  V30 1688 N 164.069 0.697108 -1.41344 0
M  V30 1689 C 165.032 1.79281 -1.42797 0
M  V30 1690 C 166.032 1.57607 -0.318837 0
M  V30 1691 O 167.222 1.64309 -0.578642 0
M  V30 1692 C 164.354 3.17632 -1.23785 0
M  V30 1693 H 165.547 1.79385 -2.40335 0
M  V30 1694 H 163.1 0.904582 -1.27464 0
M  V30 1695 H 163.835 3.23167 -0.270814 0
M  V30 1696 H 163.62 3.34765 -2.04144 0
M  V30 1697 H 165.11 3.97617 -1.27633 0
M  V30 1698 N 165.547 1.27147 0.931209 0
M  V30 1699 C 166.795 1.13055 1.6752 0
M  V30 1700 C 167.116 -0.324791 1.92276 0
M  V30 1701 O 166.386 -1.22775 1.52654 0
M  V30 1702 H 164.966 0.415391 0.620854 0
M  V30 1703 H 167.628 1.59623 1.11833 0
M  V30 1704 H 166.724 1.65694 2.64485 0
M  V30 1705 N 167.025 -1.13721 1.09112 0
M  V30 1706 C 167.935 -2.22638 0.73957 0
M  V30 1707 C 168.951 -1.72091 -0.257068 0
M  V30 1708 O 170.127 -2.01155 -0.0992154 0
M  V30 1709 C 167.192 -3.46322 0.16191 0
M  V30 1710 C 166.253 -4.11775 1.21408 0
M  V30 1711 C 165.486 -5.29555 0.663891 0
M  V30 1712 O 165.709 -5.68077 -0.514274 0
M  V30 1713 O 164.643 -5.84973 1.41738 0
M  V30 1714 H 168.469 -2.55074 1.64836 0
M  V30 1715 H 166.054 -1.21791 0.865289 0
M  V30 1716 H 167.936 -4.21107 -0.157073 0
M  V30 1717 H 166.611 -3.15593 -0.719932 0
M  V30 1718 H 165.518 -3.3883 1.58571 0
M  V30 1719 H 166.851 -4.46627 2.06845 0
M  V30 1720 N 168.503 -0.877838 -1.30888 0
M  V30 1721 C 169.731 -0.507414 -2.00581 0
M  V30 1722 C 170.146 0.902216 -1.65848 0
M  V30 1723 O 169.503 1.59225 -0.891831 0
M  V30 1724 C 169.554 -0.664162 -3.55347 0
M  V30 1725 O 169.275 -2.01829 -3.8884 0
M  V30 1726 C 170.776 -0.295787 -4.42312 0
M  V30 1727 H 167.996 -0.196866 -0.641471 0
M  V30 1728 H 170.54 -1.18117 -1.66939 0
M  V30 1729 H 168.695 -0.0378619 -3.87381 0
M  V30 1730 H 169.109 -2.03174 -4.8355 0
M  V30 1731 H 170.583 -0.456388 -5.5011 0
M  V30 1732 H 171.06 0.765663 -4.32475 0
M  V30 1733 H 171.666 -0.898113 -4.15709 0
M  V30 1734 N 169.982 1.44106 -0.638065 0
M  V30 1735 C 170.914 2.28976 0.101205 0
M  V30 1736 C 171.927 1.4167 0.802088 0
M  V30 1737 O 173.116 1.65755 0.662375 0
M  V30 1738 C 170.216 3.18217 1.16581 0
M  V30 1739 C 169.389 4.33978 0.546066 0
M  V30 1740 C 168.448 5.04202 1.50554 0
M  V30 1741 O 167.474 5.59986 1.01999 0
M  V30 1742 N 168.676 5.06296 2.8398 0
M  V30 1743 H 171.441 2.93064 -0.627186 0
M  V30 1744 H 169.002 1.54629 -0.479731 0
M  V30 1745 H 170.994 3.62061 1.80815 0
M  V30 1746 H 169.564 2.55833 1.79634 0
M  V30 1747 H 168.784 3.93239 -0.275046 0
M  V30 1748 H 170.072 5.08675 0.112793 0
M  V30 1749 H 169.47 4.62319 3.26002 0
M  V30 1750 H 168.027 5.53907 3.43556 0
M  V30 1751 N 171.46 0.379036 1.52974 0
M  V30 1752 C 172.685 -0.209353 2.06341 0
M  V30 1753 C 173.11 -1.40583 1.24972 0
M  V30 1754 O 172.468 -1.79246 0.272155 0
M  V30 1755 C 172.516 -0.567786 3.56102 0
M  V30 1756 O 171.62 -1.66318 3.77375 0
M  V30 1757 H 170.961 -0.0272919 0.663439 0
M  V30 1758 H 173.491 0.543536 1.97248 0
M  V30 1759 H 173.501 -0.835003 3.99364 0
M  V30 1760 H 172.176 0.307013 4.14765 0
M  V30 1761 H 170.753 -1.39048 3.46006 0
M  V30 1762 N 172.938 -1.57226 0.108567 0
M  V30 1763 C 174.166 -1.99179 -0.559954 0
M  V30 1764 C 174.581 -0.988022 -1.60884 0
M  V30 1765 O 173.938 0.0205512 -1.82488 0
M  V30 1766 C 173.989 -3.41159 -1.19552 0
M  V30 1767 O 173.71 -4.37694 -0.188577 0
M  V30 1768 C 175.211 -3.98188 -1.94837 0
M  V30 1769 H 172.431 -0.654228 -0.149088 0
M  V30 1770 H 174.975 -2.03598 0.19183 0
M  V30 1771 H 173.13 -3.37711 -1.89815 0
M  V30 1772 H 173.544 -5.20469 -0.649014 0
M  V30 1773 H 175.018 -4.99644 -2.34648 0
M  V30 1774 H 175.495 -3.3675 -2.81951 0
M  V30 1775 H 176.101 -4.0515 -1.2936 0
M  V30 1776 N 174.416 0.165178 -1.56732 0
M  V30 1777 C 175.363 1.2044 -1.96883 0
M  V30 1778 C 176.333 1.43664 -0.833657 0
M  V30 1779 O 177.518 1.56302 -1.09427 0
M  V30 1780 C 174.658 2.53727 -2.33916 0
M  V30 1781 C 173.771 2.3783 -3.6064 0
M  V30 1782 C 172.906 3.64026 -3.86857 0
M  V30 1783 C 171.945 3.43088 -5.06909 0
M  V30 1784 N 171.082 4.61369 -5.29229 0
M  V30 1785 H 175.922 0.854996 -2.85471 0
M  V30 1786 H 173.459 0.41076 -1.41249 0
M  V30 1787 H 175.417 3.31419 -2.53411 0
M  V30 1788 H 174.047 2.8665 -1.48431 0
M  V30 1789 H 173.099 1.51282 -3.49024 0
M  V30 1790 H 174.411 2.18308 -4.4849 0
M  V30 1791 H 173.565 4.50152 -4.06753 0
M  V30 1792 H 172.304 3.86533 -2.97394 0
M  V30 1793 H 171.309 2.55349 -4.86906 0
M  V30 1794 H 172.534 3.21997 -5.97909 0
M  V30 1795 H 170.48 4.84084 -4.42718 0
M  V30 1796 H 170.397 4.44783 -6.11313 0
M  V30 1797 H 171.665 5.48761 -5.53608 0
M  V30 1798 N 175.894 1.51508 0.433938 0
M  V30 1799 C 177.14 1.64588 1.18484 0
M  V30 1800 C 177.473 0.362666 1.90784 0
M  V30 1801 O 176.748 -0.637892 1.83742 0
M  V30 1802 C 177.031 2.85149 2.19913 0
M  V30 1803 C 176.884 4.23456 1.51674 0
M  V30 1804 C 178.203 3.01227 3.20858 0
M  V30 1805 H 175.322 0.598994 0.429389 0
M  V30 1806 H 177.964 1.84002 0.473647 0
M  V30 1807 H 176.114 2.68729 2.80566 0
M  V30 1808 H 177.786 4.51552 0.943322 0
M  V30 1809 H 176.029 4.25998 0.819035 0
M  V30 1810 H 176.7 5.03812 2.2556 0
M  V30 1811 H 179.176 3.16382 2.70263 0
M  V30 1812 H 178.052 3.87141 3.89118 0
M  V30 1813 H 178.313 2.13447 3.8716 0
M  V30 1814 N 177.372 -0.689602 1.41712 0
M  V30 1815 C 178.618 -1.45181 1.41599 0
M  V30 1816 C 178.951 -1.94181 0.0270081 0
M  V30 1817 O 178.226 -1.6993 -0.946265 0
M  V30 1818 C 178.509 -2.65945 2.42787 0
M  V30 1819 C 178.362 -2.22672 3.90816 0
M  V30 1820 C 179.681 -3.68149 2.41151 0
M  V30 1821 H 176.8 -0.526576 0.515642 0
M  V30 1822 H 179.442 -0.784947 1.73028 0
M  V30 1823 H 177.592 -3.2284 2.16116 0
M  V30 1824 H 179.264 -1.71058 4.28412 0
M  V30 1825 H 177.507 -1.54394 4.05395 0
M  V30 1826 H 178.178 -3.0935 4.57172 0
M  V30 1827 H 180.654 -3.2094 2.64834 0
M  V30 1828 H 179.53 -4.50248 3.13955 0
M  V30 1829 H 179.791 -4.18259 1.43221 0
M  V30 1830 N 178.85 -1.27639 -0.924453 0
M  V30 1831 C 179.76 -1.12466 -2.05885 0
M  V30 1832 C 180.776 -0.053869 -1.73917 0
M  V30 1833 O 181.952 -0.261012 -1.99702 0
M  V30 1834 C 179.017 -0.776768 -3.37886 0
M  V30 1835 C 178.078 -1.92878 -3.83532 0
M  V30 1836 C 177.311 -1.59739 -5.09234 0
M  V30 1837 O 177.534 -0.506782 -5.68144 0
M  V30 1838 O 176.468 -2.43761 -5.50331 0
M  V30 1839 H 180.294 -2.07671 -2.21599 0
M  V30 1840 H 177.879 -1.06857 -1.04413 0
M  V30 1841 H 179.761 -0.596229 -4.17161 0
M  V30 1842 H 178.436 0.145732 -3.23372 0
M  V30 1843 H 177.343 -2.1644 -3.0513 0
M  V30 1844 H 178.676 -2.8316 -4.02593 0
M  V30 1845 N 180.328 1.1314 -1.09713 0
M  V30 1846 C 181.556 1.88321 -0.856898 0
M  V30 1847 C 181.971 1.79276 0.592073 0
M  V30 1848 O 181.328 1.16142 1.40774 0
M  V30 1849 C 181.379 3.37812 -1.28706 0
M  V30 1850 O 181.1 3.46627 -2.67921 0
M  V30 1851 C 182.601 4.29952 -1.07964 0
M  V30 1852 H 179.821 0.596094 -0.308079 0
M  V30 1853 H 182.365 1.43205 -1.45988 0
M  V30 1854 H 180.52 3.805 -0.727912 0
M  V30 1855 H 180.934 4.39579 -2.8613 0
M  V30 1856 H 182.408 5.33159 -1.42986 0
M  V30 1857 H 182.885 4.39196 -0.0176577 0
M  V30 1858 H 183.491 3.93036 -1.62489 0
M  V30 1859 N 181.806 0.884767 1.30421 0
M  V30 1860 C 182.739 0.295999 2.26272 0
M  V30 1861 C 183.717 -0.58332 1.51777 0
M  V30 1862 O 184.901 -0.53346 1.80794 0
M  V30 1863 C 182.028 -0.57944 3.33707 0
M  V30 1864 C 181.074 0.230525 4.25877 0
M  V30 1865 S 181.907 1.61867 5.1045 0
M  V30 1866 C 183.063 0.749756 6.21393 0
M  V30 1867 H 183.296 1.10848 2.75862 0
M  V30 1868 H 180.829 0.684178 1.38414 0
M  V30 1869 H 182.787 -1.07879 3.96071 0
M  V30 1870 H 181.448 -1.36601 2.82841 0
M  V30 1871 H 180.641 -0.437542 5.02097 0
M  V30 1872 H 180.243 0.662493 3.68086 0
M  V30 1873 H 182.535 -0.0333547 6.77492 0
M  V30 1874 H 183.478 1.48356 6.92384 0
M  V30 1875 H 183.886 0.310751 5.63644 0
M  V30 1876 N 183.284 -1.43765 0.645699 0
M  V30 1877 C 184.194 -2.34544 -0.0512957 0
M  V30 1878 C 185.21 -1.53455 -0.82022 0
M  V30 1879 O 186.386 -1.86133 -0.769176 0
M  V30 1880 C 183.451 -3.31636 -1.01087 0
M  V30 1881 C 182.512 -4.2863 -0.239712 0
M  V30 1882 C 181.745 -5.21084 -1.15358 0
M  V30 1883 O 181.968 -5.1779 -2.39269 0
M  V30 1884 O 180.902 -5.98593 -0.630038 0
M  V30 1885 H 184.728 -2.95624 0.695718 0
M  V30 1886 H 182.313 -1.43781 0.405882 0
M  V30 1887 H 184.195 -3.9136 -1.56254 0
M  V30 1888 H 182.87 -2.73069 -1.73824 0
M  V30 1889 H 181.777 -3.72408 0.355356 0
M  V30 1890 H 183.11 -4.90157 0.447936 0
M  V30 1891 N 184.763 -0.387143 -1.52771 0
M  V30 1892 C 185.695 0.484089 -2.2403 0
M  V30 1893 C 186.708 1.02849 -1.26198 0
M  V30 1894 O 187.897 0.931186 -1.52286 0
M  V30 1895 C 184.997 1.68337 -2.94136 0
M  V30 1896 C 184.17 1.26672 -4.18656 0
M  V30 1897 C 183.229 2.33045 -4.7178 0
M  V30 1898 O 182.255 1.94541 -5.34923 0
M  V30 1899 N 183.457 3.64929 -4.5145 0
M  V30 1900 H 186.222 -0.126404 -2.99433 0
M  V30 1901 H 183.783 -0.213392 -1.60488 0
M  V30 1902 H 185.775 2.39019 -3.26577 0
M  V30 1903 H 184.345 2.20025 -2.22053 0
M  V30 1904 H 183.565 0.388878 -3.92277 0
M  V30 1905 H 184.853 0.964964 -4.99566 0
M  V30 1906 H 184.251 3.98974 -4.01044 0
M  V30 1907 H 182.808 4.31651 -4.88386 0
M  V30 1908 N 186.241 1.57166 -0.116904 0
M  V30 1909 C 187.204 2.14039 0.819742 0
M  V30 1910 C 188.204 1.07477 1.19605 0
M  V30 1911 O 189.394 1.33263 1.1219 0
M  V30 1912 C 186.526 2.67891 2.10826 0
M  V30 1913 H 187.719 2.98128 0.325511 0
M  V30 1914 H 185.272 1.55739 0.132312 0
M  V30 1915 H 186.007 1.87384 2.64685 0
M  V30 1916 H 185.792 3.45823 1.84793 0
M  V30 1917 H 187.282 3.11809 2.77785 0
M  V30 1918 N 187.719 -0.156864 1.56817 0
M  V30 1919 C 188.649 -1.19589 2.00551 0
M  V30 1920 C 189.63 -1.4536 0.883426 0
M  V30 1921 O 190.815 -1.56449 1.15054 0
M  V30 1922 C 187.945 -2.53143 2.37773 0
M  V30 1923 C 186.899 -2.41913 3.53075 0
M  V30 1924 C 186.225 -3.80088 3.76081 0
M  V30 1925 C 187.525 -1.91157 4.86062 0
M  V30 1926 H 189.219 -0.832293 2.87599 0
M  V30 1927 H 186.765 -0.398918 1.38364 0
M  V30 1928 H 188.718 -3.26047 2.66967 0
M  V30 1929 H 187.442 -2.91319 1.4765 0
M  V30 1930 H 186.101 -1.71462 3.24031 0
M  V30 1931 H 185.749 -4.15683 2.83225 0
M  V30 1932 H 185.449 -3.73439 4.53671 0
M  V30 1933 H 186.973 -4.54556 4.0769 0
M  V30 1934 H 188.387 -2.53846 5.14038 0
M  V30 1935 H 186.784 -1.95422 5.67389 0
M  V30 1936 H 187.854 -0.866673 4.77092 0
M  V30 1937 N 189.197 -1.51736 -0.425897 0
M  V30 1938 C 190.127 -1.76827 -1.52494 0
M  V30 1939 C 191.108 -0.618524 -1.58456 0
M  V30 1940 O 192.293 -0.862416 -1.74 0
M  V30 1941 C 189.423 -1.90374 -2.90474 0
M  V30 1942 C 188.377 -3.0588 -2.99369 0
M  V30 1943 C 187.703 -3.04625 -4.3944 0
M  V30 1944 C 189.003 -4.45644 -2.72394 0
M  V30 1945 H 190.697 -2.68855 -1.31748 0
M  V30 1946 H 188.243 -1.29372 -0.632362 0
M  V30 1947 H 190.196 -2.0651 -3.6733 0
M  V30 1948 H 188.92 -0.95004 -3.12477 0
M  V30 1949 H 187.579 -2.89467 -2.24954 0
M  V30 1950 H 187.227 -2.0701 -4.58428 0
M  V30 1951 H 186.927 -3.82195 -4.46319 0
M  V30 1952 H 188.451 -3.22869 -5.18255 0
M  V30 1953 H 189.865 -4.62348 -3.38979 0
M  V30 1954 H 188.262 -5.25006 -2.9067 0
M  V30 1955 H 189.332 -4.54893 -1.67929 0
M  V30 1956 N 190.675 0.682077 -1.42076 0
M  V30 1957 C 191.903 1.47057 -1.4554 0
M  V30 1958 C 192.318 1.8869 -0.0645779 0
M  V30 1959 O 191.675 1.57666 0.919115 0
M  V30 1960 C 191.726 2.72442 -2.37609 0
M  V30 1961 O 191.447 2.32559 -3.71279 0
M  V30 1962 C 192.948 3.66069 -2.50017 0
M  V30 1963 H 190.168 0.452737 -0.495248 0
M  V30 1964 H 192.712 0.838695 -1.8651 0
M  V30 1965 H 190.867 3.31835 -1.9991 0
M  V30 1966 H 191.281 3.13475 -4.20516 0
M  V30 1967 H 192.755 4.50792 -3.18576 0
M  V30 1968 H 193.232 4.11476 -1.53572 0
M  V30 1969 H 193.838 3.12572 -2.88407 0
M  V30 1970 N 192.153 1.28127 0.917671 0
M  V30 1971 C 193.401 1.14825 1.66312 0
M  V30 1972 C 193.722 -0.304379 1.9261 0
M  V30 1973 O 192.992 -1.21149 1.53947 0
M  V30 1974 H 191.572 0.421953 0.616413 0
M  V30 1975 H 194.234 1.608 1.10134 0
M  V30 1976 H 193.33 1.68489 2.62712 0
M  V30 1977 N 193.631 -1.12557 1.10312 0
M  V30 1978 C 194.859 -1.87864 0.866873 0
M  V30 1979 C 195.274 -1.79588 -0.582557 0
M  V30 1980 O 194.631 -1.16887 -1.40156 0
M  V30 1981 C 194.682 -3.37125 1.30496 0
M  V30 1982 O 194.403 -3.45201 2.69755 0
M  V30 1983 C 195.904 -4.29373 1.10243 0
M  V30 1984 H 193.124 -0.594452 0.311236 0
M  V30 1985 H 195.668 -1.42429 1.46745 0
M  V30 1986 H 193.823 -3.80109 0.748081 0
M  V30 1987 H 194.237 -4.38056 2.88457 0
M  V30 1988 H 195.711 -5.32394 1.45811 0
M  V30 1989 H 196.188 -4.39181 0.0409492 0
M  V30 1990 H 196.794 -3.92169 1.64571 0
M  V30 1991 N 195.109 -0.891671 -1.2995 0
M  V30 1992 C 196.52 -0.563104 -1.78006 0
M  V30 1993 C 196.871 0.920978 -1.73241 0
M  V30 1994 O 195.996 1.71987 -1.31337 0
M  V30 1995 C 196.591 -1.01539 -3.23226 0
M  V30 1996 C 195.15 -0.738124 -3.69092 0
M  V30 1997 C 194.297 -1.19461 -2.50249 0
M  V30 1998 H 197.248 -1.07522 -1.16725 0
M  V30 1999 H 197.269 -0.347217 -3.78912 0
M  V30 2000 H 196.781 -2.09555 -3.26662 0
M  V30 2001 H 194.882 0.329766 -3.71138 0
M  V30 2002 H 194.995 -1.33037 -4.60259 0
M  V30 2003 H 193.359 -0.613787 -2.47194 0
M  V30 2004 H 194.142 -2.28265 -2.56417 0
M  V30 2005 N 196.587 1.43421 -0.653314 0
M  V30 2006 C 197.834 2.01812 -0.166745 0
M  V30 2007 C 198.162 1.51535 1.21931 0
M  V30 2008 O 197.417 0.698975 1.82792 0
M  V30 2009 C 197.716 3.57176 -0.126623 0
M  V30 2010 C 197.382 4.26798 -1.45444 0
M  V30 2011 C 196.044 4.45534 -1.81805 0
M  V30 2012 C 198.396 4.66225 -2.32989 0
M  V30 2013 C 195.724 5.00961 -3.05377 0
M  V30 2014 C 198.076 5.23021 -3.55853 0
M  V30 2015 C 196.74 5.39973 -3.9241 0
M  V30 2016 H 196.01 0.738484 -0.0610162 0
M  V30 2017 H 198.657 1.71896 -0.84404 0
M  V30 2018 H 196.962 3.86634 0.634123 0
M  V30 2019 H 198.659 4.00112 0.266723 0
M  V30 2020 H 195.249 4.12561 -1.16153 0
M  V30 2021 H 199.433 4.51443 -2.06187 0
M  V30 2022 H 194.689 5.12271 -3.3375 0
M  V30 2023 H 198.863 5.52518 -4.23907 0
M  V30 2024 H 196.49 5.82687 -4.88242 0
M  V30 2025 N 198.065 0.39524 1.52563 0
M  V30 2026 C 198.995 -0.428384 2.29537 0
M  V30 2027 C 199.976 -1.05831 1.33169 0
M  V30 2028 O 201.161 -1.06995 1.62067 0
M  V30 2029 C 198.291 -1.55274 3.10656 0
M  V30 2030 C 197.245 -1.04855 4.14957 0
M  V30 2031 C 196.571 -2.26543 4.84337 0
M  V30 2032 C 197.871 -0.112324 5.22179 0
M  V30 2033 H 199.565 0.213867 2.98635 0
M  V30 2034 H 197.111 0.104298 1.43622 0
M  V30 2035 H 199.064 -2.1358 3.63265 0
M  V30 2036 H 197.788 -2.22266 2.39302 0
M  V30 2037 H 196.447 -0.487985 3.63338 0
M  V30 2038 H 196.095 -2.92059 4.09525 0
M  V30 2039 H 195.795 -1.93466 5.54837 0
M  V30 2040 H 197.319 -2.85481 5.39753 0
M  V30 2041 H 198.733 -0.603752 5.70112 0
M  V30 2042 H 197.13 0.128968 5.99961 0
M  V30 2043 H 198.2 0.837052 4.77621 0
M  V30 2044 N 199.544 -1.57102 0.125237 0
M  V30 2045 C 200.791 -1.95407 -0.531248 0
M  V30 2046 C 201.119 -1.0089 -1.66287 0
M  V30 2047 O 200.374 -0.0339431 -1.95671 0
M  V30 2048 C 200.673 -3.40096 -1.09862 0
M  V30 2049 C 200.339 -4.50815 -0.0876989 0
M  V30 2050 C 199.001 -4.80824 0.19026 0
M  V30 2051 C 201.353 -5.17724 0.600902 0
M  V30 2052 C 198.681 -5.75058 1.163 0
M  V30 2053 C 201.033 -6.13005 1.56231 0
M  V30 2054 C 199.697 -6.41403 1.8482 0
M  V30 2055 H 198.967 -0.715046 -0.194397 0
M  V30 2056 H 201.614 -1.90373 0.207463 0
M  V30 2057 H 199.919 -3.41855 -1.91422 0
M  V30 2058 H 201.616 -3.6705 -1.61478 0
M  V30 2059 H 198.206 -4.27444 -0.314528 0
M  V30 2060 H 202.39 -4.94691 0.399333 0
M  V30 2061 H 197.646 -5.95362 1.39117 0
M  V30 2062 H 201.82 -6.63934 2.10153 0
M  V30 2063 H 199.447 -7.14229 2.60349 0
M  V30 2064 N 201.022 0.148545 -1.56898 0
M  V30 2065 C 202.269 0.861418 -1.83264 0
M  V30 2066 C 202.597 1.81239 -0.705883 0
M  V30 2067 O 201.852 1.93305 0.305212 0
M  V30 2068 C 202.151 1.67064 -3.1595 0
M  V30 2069 C 201.817 0.866591 -4.42494 0
M  V30 2070 C 200.479 0.644762 -4.76861 0
M  V30 2071 C 202.831 0.30418 -5.20312 0
M  V30 2072 C 200.159 -0.15021 -5.86508 0
M  V30 2073 C 202.511 -0.477824 -6.30793 0
M  V30 2074 C 201.175 -0.710244 -6.63711 0
M  V30 2075 H 200.445 0.315215 -0.670612 0
M  V30 2076 H 203.092 0.125142 -1.91091 0
M  V30 2077 H 201.397 2.47698 -3.03567 0
M  V30 2078 H 203.094 2.22566 -3.33565 0
M  V30 2079 H 199.684 1.04955 -4.15551 0
M  V30 2080 H 203.868 0.462844 -4.94137 0
M  V30 2081 H 199.124 -0.339796 -6.10455 0
M  V30 2082 H 203.298 -0.92076 -6.90286 0
M  V30 2083 H 200.925 -1.3281 -7.48509 0
M  V30 2084 N 202.5 1.5196 0.417844 0
M  V30 2085 C 203.73 1.69181 1.18581 0
M  V30 2086 C 204.138 0.397104 1.84986 0
M  V30 2087 O 203.481 -0.636011 1.72339 0
M  V30 2088 C 203.543 2.76497 2.29759 0
M  V30 2089 C 203.207 4.18514 1.83563 0
M  V30 2090 C 204.204 5.02648 1.32821 0
M  V30 2091 C 201.889 4.64708 1.90661 0
M  V30 2092 C 203.883 6.31044 0.897894 0
M  V30 2093 C 201.57 5.93096 1.47241 0
M  V30 2094 C 202.568 6.76093 0.968891 0
M  V30 2095 O 202.256 8.02078 0.540924 0
M  V30 2096 H 201.988 0.570457 0.362705 0
M  V30 2097 H 204.542 1.99249 0.498885 0
M  V30 2098 H 202.772 2.41786 3.01789 0
M  V30 2099 H 204.461 2.82403 2.91553 0
M  V30 2100 H 205.227 4.68154 1.26716 0
M  V30 2101 H 201.106 4.00216 2.28797 0
M  V30 2102 H 204.65 6.95776 0.504192 0
M  V30 2103 H 200.547 6.271 1.53022 0
M  V30 2104 H 201.315 8.15794 0.66502 0
M  V30 2105 N 203.978 -0.674533 1.42435 0
M  V30 2106 C 205.255 -1.4305 1.33402 0
M  V30 2107 C 205.635 -2.11081 -0.0284674 0
M  V30 2108 O 204.983 -2.03257 -1.04397 0
M  V30 2109 C 205.193 -2.43272 2.50239 0
M  V30 2110 C 206.541 -3.07907 2.92367 0
M  V30 2111 O 207.565 -2.53599 2.50132 0
M  V30 2112 O 206.424 -4.0632 3.65467 0
M  V30 2113 H 203.518 -0.638076 0.526106 0
M  V30 2114 H 206.064 -0.703235 1.54443 0
M  V30 2115 H 204.836 -1.91803 3.41068 0
M  V30 2116 H 204.459 -3.23479 2.31186 0
M  V30 2117 N 205.456 -1.28612 -0.910864 0
M  V30 2118 C 206.681 -1.1891 -1.69927 0
M  V30 2119 C 207.106 0.248372 -1.86453 0
M  V30 2120 O 206.464 1.17961 -1.37676 0
M  V30 2121 C 206.512 -1.89578 -3.06745 0
M  V30 2122 O 205.616 -1.20521 -3.94396 0
M  V30 2123 H 204.957 -0.412632 -0.520222 0
M  V30 2124 H 207.487 -1.69985 -1.1387 0
M  V30 2125 H 207.497 -1.97597 -3.56958 0
M  V30 2126 H 206.172 -2.94136 -2.94035 0
M  V30 2127 H 204.749 -1.20684 -3.52831 0
M  V30 2128 N 206.934 1.1197 -1.10907 0
M  V30 2129 C 208.182 1.83225 -0.852819 0
M  V30 2130 C 208.503 1.84769 0.623341 0
M  V30 2131 O 207.773 1.3143 1.45269 0
M  V30 2132 H 206.353 0.67849 -0.312507 0
M  V30 2133 H 209.015 1.3556 -1.40033 0
M  V30 2134 H 208.111 2.87265 -1.22005 0
M  V30 2135 N 208.412 0.89855 1.29475 0
M  V30 2136 C 209.66 0.522847 1.9522 0
M  V30 2137 C 209.981 -0.93371 1.71192 0
M  V30 2138 O 209.251 -1.65823 1.04305 0
M  V30 2139 H 207.831 0.190366 0.722336 0
M  V30 2140 H 210.493 1.14459 1.5775 0
M  V30 2141 H 209.589 0.704476 3.04045 0
M  V30 2142 N 209.89 -1.43072 0.660911 0
M  V30 2143 C 210.853 -2.29194 -0.0166406 0
M  V30 2144 C 211.853 -1.42609 -0.742912 0
M  V30 2145 O 213.043 -1.64155 -0.583004 0
M  V30 2146 C 210.175 -3.24831 -1.0343 0
M  V30 2147 H 211.368 -2.90596 0.741208 0
M  V30 2148 H 208.921 -1.5048 0.422532 0
M  V30 2149 H 209.656 -2.68339 -1.82111 0
M  V30 2150 H 209.441 -3.88676 -0.517082 0
M  V30 2151 H 210.931 -3.89451 -1.50723 0
M  V30 2152 N 211.368 -0.403325 -1.52352 0
M  V30 2153 C 212.784 -0.0539281 -1.59509 0
M  V30 2154 C 212.984 1.43307 -1.41652 0
M  V30 2155 O 212.04 2.19924 -1.24056 0
M  V30 2156 C 213.353 -0.543654 -2.95745 0
M  V30 2157 C 214.901 -0.501125 -3.08962 0
M  V30 2158 C 215.376 -0.967267 -4.47669 0
M  V30 2159 N 216.867 -0.923849 -4.53893 0
M  V30 2160 C 217.602 -1.25578 -5.5948 0
M  V30 2161 N 217.098 -1.65889 -6.72646 0
M  V30 2162 N 218.891 -1.17613 -5.49658 0
M  V30 2163 H 211.042 -1.37123 -1.62206 0
M  V30 2164 H 213.305 -0.56294 -0.76276 0
M  V30 2165 H 213.011 -1.58275 -3.14073 0
M  V30 2166 H 212.885 0.0498042 -3.77167 0
M  V30 2167 H 215.272 0.528909 -2.90321 0
M  V30 2168 H 215.353 -1.13056 -2.2946 0
M  V30 2169 H 214.997 -1.9956 -4.67053 0
M  V30 2170 H 214.927 -0.314698 -5.25659 0
M  V30 2171 H 217.418 -0.627403 -3.72655 0
M  V30 2172 H 217.731 -1.89543 -7.49195 0
M  V30 2173 H 216.076 -1.69787 -6.73942 0
M  V30 2174 H 219.267 -0.860115 -4.6013 0
M  V30 2175 H 219.44 -1.43812 -6.3184 0
M  V30 2176 N 212.846 1.57033 -0.133567 0
M  V30 2177 C 214.095 1.94861 0.520768 0
M  V30 2178 C 214.408 1.02012 1.66892 0
M  V30 2179 O 215.614 1.29365 2.38699 0
M  V30 2180 C 214.07 3.46362 0.977809 0
M  V30 2181 C 213.678 4.47773 -0.142674 0
M  V30 2182 C 215.422 3.93083 1.60269 0
M  V30 2183 C 213.329 5.90468 0.331883 0
M  V30 2184 H 212.259 0.727453 0.198315 0
M  V30 2185 H 214.91 1.82227 -0.215759 0
M  V30 2186 H 213.292 3.54282 1.7692 0
M  V30 2187 H 214.466 4.51536 -0.919317 0
M  V30 2188 H 212.781 4.10891 -0.675124 0
M  V30 2189 H 215.378 4.97121 1.96914 0
M  V30 2190 H 215.721 3.33876 2.48662 0
M  V30 2191 H 216.254 3.88025 0.876453 0
M  V30 2192 H 212.993 6.53463 -0.516341 0
M  V30 2193 H 212.513 5.90094 1.07469 0
M  V30 2194 H 214.192 6.42179 0.788332 0
M  V30 2195 N 214.325 -0.140222 1.56975 0
M  V30 2196 C 215.257 -1.19818 1.95388 0
M  V30 2197 C 216.27 -1.38816 0.850525 0
M  V30 2198 O 217.459 -1.38267 1.12891 0
M  V30 2199 C 214.559 -2.56189 2.21857 0
M  V30 2200 C 213.732 -2.58077 3.5315 0
M  V30 2201 C 212.791 -3.76037 3.6808 0
M  V30 2202 O 211.817 -3.60598 4.40406 0
M  V30 2203 N 213.019 -4.93763 3.05251 0
M  V30 2204 H 215.784 -0.871609 2.86746 0
M  V30 2205 H 213.345 -0.32972 1.58507 0
M  V30 2206 H 215.337 -3.33623 2.2908 0
M  V30 2207 H 213.907 -2.81111 1.36731 0
M  V30 2208 H 213.127 -1.6651 3.57307 0
M  V30 2209 H 214.415 -2.56377 4.39486 0
M  V30 2210 H 213.813 -5.09209 2.46419 0
M  V30 2211 H 212.37 -5.68949 3.18026 0
M  V30 2212 N 215.803 -1.52179 -0.40978 0
M  V30 2213 C 216.713 -1.78364 -1.52392 0
M  V30 2214 C 217.729 -0.669183 -1.60617 0
M  V30 2215 O 218.905 -0.954518 -1.77344 0
M  V30 2216 C 215.97 -1.92822 -2.88133 0
M  V30 2217 C 215.031 -3.16725 -2.898 0
M  V30 2218 C 214.264 -3.30483 -4.19067 0
M  V30 2219 O 214.487 -2.49522 -5.12928 0
M  V30 2220 O 213.421 -4.2363 -4.27576 0
M  V30 2221 H 217.247 -2.72931 -1.33201 0
M  V30 2222 H 214.832 -1.37016 -0.59557 0
M  V30 2223 H 216.714 -2.04157 -3.68643 0
M  V30 2224 H 215.389 -1.01444 -3.07393 0
M  V30 2225 H 214.296 -3.10848 -2.08146 0
M  V30 2226 H 215.629 -4.07881 -2.75489 0
M  V30 2227 N 217.281 0.66697 -1.42791 0
M  V30 2228 C 218.529 1.42417 -1.43394 0
M  V30 2229 C 218.85 1.94925 -0.0542373 0
M  V30 2230 O 218.12 1.73564 0.908415 0
M  V30 2231 H 216.7 0.528515 -0.527902 0
M  V30 2232 H 219.362 0.787562 -1.78279 0
M  V30 2233 H 218.458 2.27333 -2.13837 0
M  V30 2234 N 218.759 1.29093 0.90403 0
M  V30 2235 C 220.008 1.16187 1.64874 0
M  V30 2236 C 220.321 -0.286742 1.93487 0
M  V30 2237 O 221.527 -0.537062 2.66135 0
M  V30 2238 C 219.983 2.03177 2.97064 0
M  V30 2239 C 219.591 3.52836 2.76062 0
M  V30 2240 C 221.335 1.98984 3.74974 0
M  V30 2241 C 219.242 4.31945 4.03952 0
M  V30 2242 H 218.172 0.431246 0.618501 0
M  V30 2243 H 220.823 1.53699 1.00243 0
M  V30 2244 H 219.205 1.5853 3.62883 0
M  V30 2245 H 220.379 4.05507 2.18863 0
M  V30 2246 H 218.694 3.58656 2.11553 0
M  V30 2247 H 221.291 2.55351 4.69787 0
M  V30 2248 H 221.634 0.968815 4.0487 0
M  V30 2249 H 222.167 2.41652 3.15989 0
M  V30 2250 H 218.906 5.34667 3.79225 0
M  V30 2251 H 218.426 3.84045 4.60727 0
M  V30 2252 H 220.105 4.42379 4.72133 0
M  V30 2253 N 220.237 -1.11381 1.11499 0
M  V30 2254 C 221.514 -1.7955 0.775965 0
M  V30 2255 C 221.894 -1.97859 -0.73588 0
M  V30 2256 O 221.242 -1.56376 -1.66609 0
M  V30 2257 C 221.452 -3.13196 1.53977 0
M  V30 2258 C 222.8 -3.88227 1.71944 0
M  V30 2259 O 223.824 -3.22887 1.50407 0
M  V30 2260 O 222.683 -5.05477 2.07738 0
M  V30 2261 H 219.777 -0.777728 0.28119 0
M  V30 2262 H 222.323 -1.18118 1.21845 0
M  V30 2263 H 221.095 -2.95229 2.56818 0
M  V30 2264 H 220.718 -3.82342 1.09088 0
M  V30 2265 N 221.715 -0.905404 -1.28997 0
M  V30 2266 C 222.94 -0.549175 -1.99997 0
M  V30 2267 C 223.365 0.860276 -1.67275 0
M  V30 2268 O 222.723 1.57355 -0.900502 0
M  V30 2269 C 222.771 -0.755185 -3.52604 0
M  V30 2270 O 221.875 0.189692 -4.11964 0
M  V30 2271 H 221.216 -0.213899 -0.628604 0
M  V30 2272 H 223.746 -1.21856 -1.64354 0
M  V30 2273 H 223.756 -0.662045 -4.02593 0
M  V30 2274 H 222.431 -1.78271 -3.75755 0
M  V30 2275 H 221.008 0.0485257 -3.72868 0
M  V30 2276 N 223.193 1.4272 -0.668489 0
M  V30 2277 C 224.123 2.335 -0.000100175 0
M  V30 2278 C 225.104 1.50328 0.795964 0
M  V30 2279 O 226.289 1.78949 0.754385 0
M  V30 2280 C 223.419 3.33874 0.956302 0
M  V30 2281 C 222.373 4.27152 0.269278 0
M  V30 2282 C 221.699 5.17684 1.33818 0
M  V30 2283 C 222.999 5.15373 -0.847805 0
M  V30 2284 H 224.693 2.89639 -0.758244 0
M  V30 2285 H 222.239 1.39269 -0.366079 0
M  V30 2286 H 224.192 3.9629 1.43292 0
M  V30 2287 H 222.916 2.76025 1.74579 0
M  V30 2288 H 221.575 3.66123 -0.187042 0
M  V30 2289 H 221.223 4.56165 2.1195 0
M  V30 2290 H 220.923 5.80918 0.883659 0
M  V30 2291 H 222.447 5.82974 1.81586 0
M  V30 2292 H 223.861 5.7151 -0.452681 0
M  V30 2293 H 222.258 5.87407 -1.22773 0
M  V30 2294 H 223.328 4.5415 -1.69929 0
M  V30 2295 N 224.671 0.411399 1.52136 0
M  V30 2296 C 225.896 -0.165538 2.06738 0
M  V30 2297 C 226.321 -1.379 1.27926 0
M  V30 2298 O 225.679 -1.78628 0.310114 0
M  V30 2299 C 225.727 -0.492124 3.57226 0
M  V30 2300 O 224.831 -1.58276 3.80818 0
M  V30 2301 H 224.172 -0.0132132 0.663869 0
M  V30 2302 H 226.702 0.585253 1.96051 0
M  V30 2303 H 226.712 -0.750104 4.01045 0
M  V30 2304 H 225.387 0.394922 4.14021 0
M  V30 2305 H 223.964 -1.31677 3.48877 0
M  V30 2306 N 226.149 -1.5696 0.141893 0
M  V30 2307 C 227.397 -1.95573 -0.509484 0
M  V30 2308 C 227.718 -1.02746 -1.65736 0
M  V30 2309 O 226.988 -0.0880311 -1.95702 0
M  V30 2310 H 225.568 -0.722115 -0.191205 0
M  V30 2311 H 228.23 -1.93697 0.216196 0
M  V30 2312 H 227.326 -2.99171 -0.889 0
M  V30 2313 N 227.627 0.131896 -1.57047 0
M  V30 2314 C 228.857 0.855219 -1.88068 0
M  V30 2315 C 229.265 1.74557 -0.729817 0
M  V30 2316 O 228.608 1.81083 0.308962 0
M  V30 2317 C 228.67 1.75119 -3.13964 0
M  V30 2318 C 228.334 1.03646 -4.45091 0
M  V30 2319 C 229.331 0.383276 -5.18485 0
M  V30 2320 C 227.016 1.02148 -4.91804 0
M  V30 2321 C 229.01 -0.275347 -6.36805 0
M  V30 2322 C 226.697 0.359047 -6.10044 0
M  V30 2323 C 227.695 -0.288222 -6.82392 0
M  V30 2324 O 227.383 -0.94011 -7.98384 0
M  V30 2325 H 227.115 0.251864 -0.627328 0
M  V30 2326 H 229.669 0.124782 -2.05021 0
M  V30 2327 H 227.899 2.52295 -2.9306 0
M  V30 2328 H 229.588 2.3478 -3.31109 0
M  V30 2329 H 230.354 0.386562 -4.83457 0
M  V30 2330 H 226.233 1.5147 -4.35405 0
M  V30 2331 H 229.777 -0.781148 -6.93213 0
M  V30 2332 H 225.674 0.35348 -6.44531 0
M  V30 2333 H 226.442 -0.84329 -8.14144 0
M  V30 2334 N 229.106 1.52395 0.401703 0
M  V30 2335 C 230.354 1.66488 1.14569 0
M  V30 2336 C 230.675 0.400897 1.90835 0
M  V30 2337 O 229.945 -0.584415 1.8698 0
M  V30 2338 H 228.525 0.613672 0.425929 0
M  V30 2339 H 231.187 1.89464 0.457093 0
M  V30 2340 H 230.283 2.50942 1.85566 0
M  V30 2341 N 230.584 -0.659388 1.43143 0
M  V30 2342 C 231.531 -1.77249 1.47822 0
M  V30 2343 C 232.501 -1.62818 0.328558 0
M  V30 2344 O 233.686 -1.83151 0.534838 0
M  V30 2345 C 230.826 -3.15371 1.40126 0
M  V30 2346 C 229.939 -3.4098 2.65249 0
M  V30 2347 C 229.074 -4.68915 2.49584 0
M  V30 2348 C 228.113 -4.87608 3.70006 0
M  V30 2349 N 227.25 -6.06796 3.53189 0
M  V30 2350 H 232.09 -1.72584 2.42938 0
M  V30 2351 H 229.627 -0.842297 1.20598 0
M  V30 2352 H 231.585 -3.9521 1.33659 0
M  V30 2353 H 230.215 -3.19121 0.485964 0
M  V30 2354 H 229.267 -2.55282 2.8202 0
M  V30 2355 H 230.579 -3.50681 3.54717 0
M  V30 2356 H 229.733 -5.56871 2.4079 0
M  V30 2357 H 228.472 -4.61524 1.5763 0
M  V30 2358 H 227.477 -3.9809 3.79215 0
M  V30 2359 H 228.702 -4.96834 4.62961 0
M  V30 2360 H 226.648 -6.00549 2.63965 0
M  V30 2361 H 226.565 -6.17428 4.36255 0
M  V30 2362 H 227.833 -6.9739 3.48236 0
M  V30 2363 N 232.062 -1.29571 -0.897171 0
M  V30 2364 C 232.995 -1.0924 -2.00354 0
M  V30 2365 C 233.973 -0.00354011 -1.626 0
M  V30 2366 O 235.157 -0.15473 -1.87864 0
M  V30 2367 C 232.284 -0.66352 -3.32137 0
M  V30 2368 C 231.33 -1.75146 -3.88878 0
M  V30 2369 S 232.163 -3.35124 -4.17674 0
M  V30 2370 C 233.319 -2.9411 -5.52494 0
M  V30 2371 H 233.552 -2.02907 -2.17292 0
M  V30 2372 H 231.085 -1.13746 -1.04408 0
M  V30 2373 H 233.043 -0.422791 -4.08317 0
M  V30 2374 H 231.704 0.253588 -3.13075 0
M  V30 2375 H 230.897 -1.40337 -4.84068 0
M  V30 2376 H 230.499 -1.94584 -3.19395 0
M  V30 2377 H 232.791 -2.41312 -6.33068 0
M  V30 2378 H 233.734 -3.88161 -5.9223 0
M  V30 2379 H 234.142 -2.32332 -5.14473 0
M  V30 2380 N 233.54 1.10788 -1.12088 0
M  V30 2381 C 234.787 1.82671 -0.873931 0
M  V30 2382 C 235.115 1.85004 0.600311 0
M  V30 2383 O 234.37 1.30365 1.45957 0
M  V30 2384 C 234.669 3.29294 -1.38926 0
M  V30 2385 C 234.335 3.47113 -2.87791 0
M  V30 2386 C 232.997 3.51684 -3.28439 0
M  V30 2387 C 235.349 3.52808 -3.83635 0
M  V30 2388 C 232.677 3.59513 -4.63646 0
M  V30 2389 C 235.029 3.62169 -5.18668 0
M  V30 2390 C 233.693 3.65003 -5.58864 0
M  V30 2391 H 232.963 0.668441 -0.319794 0
M  V30 2392 H 235.61 1.30613 -1.40045 0
M  V30 2393 H 233.915 3.83894 -0.783122 0
M  V30 2394 H 235.612 3.83416 -1.17443 0
M  V30 2395 H 232.202 3.4423 -2.5535 0
M  V30 2396 H 236.386 3.4853 -3.53328 0
M  V30 2397 H 231.642 3.59987 -4.94185 0
M  V30 2398 H 235.816 3.6552 -5.92763 0
M  V30 2399 H 233.443 3.70822 -6.63623 0
M  V30 2400 N 235.018 0.912232 1.28515 0
M  V30 2401 C 236.265 0.544599 1.95039 0
M  V30 2402 C 236.593 -0.911435 1.71823 0
M  V30 2403 O 235.848 -1.66317 1.03137 0
M  V30 2404 C 236.147 0.798392 3.48368 0
M  V30 2405 C 235.813 2.23374 3.91682 0
M  V30 2406 C 234.475 2.62617 4.03219 0
M  V30 2407 C 236.827 3.16786 4.13879 0
M  V30 2408 C 234.155 3.94429 4.3433 0
M  V30 2409 C 236.507 4.48161 4.46469 0
M  V30 2410 C 235.171 4.8726 4.56217 0
M  V30 2411 H 234.441 0.199283 0.7137 0
M  V30 2412 H 237.088 1.15327 1.52879 0
M  V30 2413 H 235.393 0.106908 3.91654 0
M  V30 2414 H 237.09 0.493141 3.97956 0
M  V30 2415 H 233.68 1.91922 3.83228 0
M  V30 2416 H 237.864 2.87677 4.0442 0
M  V30 2417 H 233.12 4.24426 4.40082 0
M  V30 2418 H 237.294 5.20559 4.62592 0
M  V30 2419 H 234.921 5.89431 4.80078 0
M  V30 2420 N 236.496 -1.42363 0.676048 0
M  V30 2421 C 237.459 -2.29199 0.00766941 0
M  V30 2422 C 238.459 -1.43389 -0.727745 0
M  V30 2423 O 239.649 -1.64764 -0.56556 0
M  V30 2424 C 236.781 -3.2591 -0.999785 0
M  V30 2425 H 237.974 -2.89794 0.771988 0
M  V30 2426 H 235.527 -1.50024 0.438468 0
M  V30 2427 H 236.262 -2.70256 -1.79255 0
M  V30 2428 H 236.047 -3.89202 -0.475829 0
M  V30 2429 H 237.537 -3.91028 -1.46583 0
M  V30 2430 N 237.974 -0.419461 -1.51915 0
M  V30 2431 C 238.922 0.415502 -2.28859 0
M  V30 2432 C 239.916 1.03674 -1.3397 0
M  V30 2433 O 241.122 0.973757 -1.51387 0
M  V30 2434 H 237.497 0.152786 -0.736315 0
M  V30 2435 H 239.468 -0.254531 -2.97312 0
M  V30 2436 C 238.217 1.51425 -3.12995 0
M  V30 2437 H 237.54 1.04556 -3.85886 0
M  V30 2438 H 238.98 2.07208 -3.6992 0
M  V30 2439 C 237.439 2.48745 -2.27217 0
M  V30 2440 O 237.969 3.52871 -1.9195 0
M  V30 2441 N 236.175 2.19202 -1.90785 0
M  V30 2442 H 235.722 1.34556 -2.19664 0
M  V30 2443 H 235.68 2.84561 -1.33687 0
M  V30 2444 N 239.452 1.56882 -0.150215 0
M  V30 2445 C 240.698 1.96518 0.500834 0
M  V30 2446 C 241.031 1.03527 1.64304 0
M  V30 2447 O 240.306 0.0782751 1.94342 0
M  V30 2448 C 240.589 3.45822 1.00395 0
M  V30 2449 C 240.442 4.49591 -0.136983 0
M  V30 2450 C 241.761 3.97704 1.88467 0
M  V30 2451 H 238.88 0.714535 0.18058 0
M  V30 2452 H 241.522 1.88577 -0.232091 0
M  V30 2453 H 239.672 3.5272 1.62851 0
M  V30 2454 H 241.344 4.5477 -0.77343 0
M  V30 2455 H 239.587 4.26441 -0.795652 0
M  V30 2456 H 240.258 5.51402 0.256815 0
M  V30 2457 H 242.734 3.93304 1.35834 0
M  V30 2458 H 241.61 5.0263 2.20578 0
M  V30 2459 H 241.871 3.40252 2.82279 0
M  V30 2460 N 240.93 -0.123565 1.57115 0
M  V30 2461 C 241.877 -1.15177 2.00007 0
M  V30 2462 C 242.847 -1.41403 0.871454 0
M  V30 2463 O 244.032 -1.53346 1.13533 0
M  V30 2464 C 241.172 -2.47436 2.40561 0
M  V30 2465 C 240.285 -2.28184 3.66819 0
M  V30 2466 C 239.42 -3.53641 3.96373 0
M  V30 2467 C 238.459 -3.29528 5.15827 0
M  V30 2468 N 237.596 -4.47175 5.41275 0
M  V30 2469 H 242.436 -0.779008 2.87638 0
M  V30 2470 H 239.973 -0.373166 1.42288 0
M  V30 2471 H 241.931 -3.24584 2.62109 0
M  V30 2472 H 240.561 -2.82614 1.55978 0
M  V30 2473 H 239.613 -1.41976 3.52912 0
M  V30 2474 H 240.925 -2.0634 4.5412 0
M  V30 2475 H 240.079 -4.39209 4.18545 0
M  V30 2476 H 238.818 -3.78512 3.07538 0
M  V30 2477 H 237.823 -2.42349 4.93505 0
M  V30 2478 H 239.048 -3.06031 6.06236 0
M  V30 2479 H 236.994 -4.72175 4.55397 0
M  V30 2480 H 236.911 -4.28419 6.22891 0
M  V30 2481 H 238.179 -5.3389 5.67963 0
M  V30 2482 N 242.408 -1.52605 -0.393616 0
M  V30 2483 C 243.338 -1.80022 -1.48709 0
M  V30 2484 C 244.319 -0.651995 -1.57108 0
M  V30 2485 O 245.504 -0.89913 -1.72132 0
M  V30 2486 C 242.634 -1.96492 -2.86371 0
M  V30 2487 C 241.588 -3.12161 -2.92813 0
M  V30 2488 C 240.914 -3.13877 -4.3288 0
M  V30 2489 C 242.214 -4.51322 -2.6288 0
M  V30 2490 H 243.908 -2.71589 -1.26015 0
M  V30 2491 H 241.454 -1.30684 -0.604778 0
M  V30 2492 H 243.407 -2.14255 -3.62867 0
M  V30 2493 H 242.131 -1.01611 -3.10391 0
M  V30 2494 H 240.79 -2.94173 -2.18764 0
M  V30 2495 H 240.438 -2.16687 -4.53933 0
M  V30 2496 H 240.138 -3.91576 -4.38112 0
M  V30 2497 H 241.662 -3.33789 -5.1129 0
M  V30 2498 H 243.076 -4.69435 -3.29096 0
M  V30 2499 H 241.473 -5.31053 -2.79468 0
M  V30 2500 H 242.543 -4.58353 -1.58242 0
M  V30 2501 N 243.887 0.651787 -1.4349 0
M  V30 2502 C 245.112 1.44434 -1.48841 0
M  V30 2503 C 245.537 1.8779 -0.107955 0
M  V30 2504 O 244.895 1.57464 0.898602 0
M  V30 2505 C 244.943 2.65458 -2.44059 0
M  V30 2506 O 244.047 3.64566 -1.92784 0
M  V30 2507 H 243.388 0.433005 -0.503391 0
M  V30 2508 H 245.918 0.797451 -1.88419 0
M  V30 2509 H 245.928 3.13255 -2.6141 0
M  V30 2510 H 244.603 2.33244 -3.4434 0
M  V30 2511 H 243.18 3.23716 -1.851 0
M  V30 2512 N 245.365 1.30045 0.890287 0
M  V30 2513 C 246.613 1.18327 1.63839 0
M  V30 2514 C 246.934 -0.263455 1.93212 0
M  V30 2515 O 246.204 -1.17856 1.56482 0
M  V30 2516 H 244.784 0.434933 0.607324 0
M  V30 2517 H 247.446 1.631 1.06698 0
M  V30 2518 H 246.542 1.74024 2.59079 0
M  V30 2519 N 246.843 -1.10192 1.12674 0
M  V30 2520 C 248.089 -1.82475 0.884915 0
M  V30 2521 C 248.422 -1.85093 -0.58773 0
M  V30 2522 O 247.697 -1.3134 -1.43457 0
M  V30 2523 C 247.98 -3.29018 1.46353 0
M  V30 2524 C 247.833 -3.34718 3.00473 0
M  V30 2525 C 249.152 -4.25473 1.12519 0
M  V30 2526 H 246.271 -0.662492 0.322915 0
M  V30 2527 H 248.913 -1.2913 1.39375 0
M  V30 2528 H 247.063 -3.74576 1.03077 0
M  V30 2529 H 248.735 -2.97622 3.52447 0
M  V30 2530 H 246.978 -2.74541 3.35872 0
M  V30 2531 H 247.649 -4.37918 3.36053 0
M  V30 2532 H 250.125 -3.88161 1.499 0
M  V30 2533 H 249.001 -5.26365 1.55663 0
M  V30 2534 H 249.262 -4.42084 0.0377407 0
M  V30 2535 N 248.321 -0.919034 -1.28029 0
M  V30 2536 C 249.567 -0.555757 -1.95036 0
M  V30 2537 C 249.9 0.899198 -1.72128 0
M  V30 2538 O 249.175 1.64023 -1.04531 0
M  V30 2539 C 249.458 -0.872024 -3.49382 0
M  V30 2540 C 249.311 -2.3801 -3.81669 0
M  V30 2541 C 250.63 -0.37185 -4.38526 0
M  V30 2542 H 247.749 -0.203386 -0.708381 0
M  V30 2543 H 250.391 -1.14924 -1.51303 0
M  V30 2544 H 248.541 -0.366946 -3.86763 0
M  V30 2545 H 250.213 -2.9562 -3.54128 0
M  V30 2546 H 248.456 -2.83289 -3.28526 0
M  V30 2547 H 249.127 -2.55192 -4.8947 0
M  V30 2548 H 251.603 -0.804602 -4.08247 0
M  V30 2549 H 250.479 -0.622173 -5.45362 0
M  V30 2550 H 250.74 0.727934 -4.36066 0
M  V30 2551 N 249.799 1.42003 -0.683588 0
M  V30 2552 C 251.21 1.84501 -0.285736 0
M  V30 2553 C 251.561 1.57213 1.17382 0
M  V30 2554 O 250.686 1.03642 1.89966 0
M  V30 2555 C 251.281 3.34912 -0.511821 0
M  V30 2556 C 249.84 3.76025 -0.168005 0
M  V30 2557 C 248.987 2.6551 -0.799983 0
M  V30 2558 H 251.938 1.31724 -0.885119 0
M  V30 2559 H 251.959 3.79784 0.233292 0
M  V30 2560 H 251.471 3.54741 -1.57418 0
M  V30 2561 H 249.572 3.61801 0.890567 0
M  V30 2562 H 249.685 4.75141 -0.614661 0
M  V30 2563 H 248.049 2.53654 -0.230568 0
M  V30 2564 H 248.832 2.8816 -1.86597 0
M  V30 2565 N 251.277 0.427512 1.51691 0
M  V30 2566 C 252.209 -0.424521 2.25234 0
M  V30 2567 C 253.222 -0.994671 1.2888 0
M  V30 2568 O 254.411 -0.890483 1.54702 0
M  V30 2569 C 251.511 -1.60479 2.98496 0
M  V30 2570 C 250.684 -1.15527 4.21868 0
M  V30 2571 C 249.743 -2.20454 4.77793 0
M  V30 2572 O 248.769 -1.8029 5.39893 0
M  V30 2573 N 249.971 -3.52831 4.60967 0
M  V30 2574 H 252.736 0.205749 2.98993 0
M  V30 2575 H 250.297 0.255867 1.59865 0
M  V30 2576 H 252.289 -2.30276 3.32799 0
M  V30 2577 H 250.859 -2.14061 2.27809 0
M  V30 2578 H 250.079 -0.284736 3.9317 0
M  V30 2579 H 251.367 -0.832173 5.01949 0
M  V30 2580 H 250.765 -3.88201 4.11481 0
M  V30 2581 H 249.322 -4.18551 4.99658 0
M  V30 2582 N 252.755 -1.56801 0.158532 0
M  V30 2583 C 254.004 -1.95665 -0.489702 0
M  V30 2584 C 254.317 -1.04654 -1.65248 0
M  V30 2585 O 255.523 -1.33146 -2.3661 0
M  V30 2586 C 253.979 -3.47874 -0.922582 0
M  V30 2587 C 253.587 -4.47489 0.213893 0
M  V30 2588 C 255.331 -3.95583 -1.53996 0
M  V30 2589 C 253.238 -5.90921 -0.237903 0
M  V30 2590 H 252.168 -0.730516 -0.186716 0
M  V30 2591 H 254.819 -1.81861 0.244722 0
M  V30 2592 H 253.201 -3.57051 -1.71261 0
M  V30 2593 H 254.375 -4.50017 0.991036 0
M  V30 2594 H 252.69 -4.09764 0.740407 0
M  V30 2595 H 255.287 -5.0019 -1.8898 0
M  V30 2596 H 255.63 -3.37789 -2.43319 0
M  V30 2597 H 256.163 -3.8937 -0.814611 0
M  V30 2598 H 252.902 -6.52559 0.620236 0
M  V30 2599 H 252.422 -5.91729 -0.980676 0
M  V30 2600 H 254.101 -6.43352 -0.686067 0
M  V30 2601 N 254.233 0.115231 -1.57178 0
M  V30 2602 C 255.196 1.12526 -1.99676 0
M  V30 2603 C 256.196 1.34095 -0.88742 0
M  V30 2604 O 257.386 1.30548 -1.15337 0
M  V30 2605 C 254.518 2.4789 -2.34015 0
M  V30 2606 H 255.711 0.759912 -2.90113 0
M  V30 2607 H 253.264 0.359648 -1.52106 0
M  V30 2608 H 253.999 2.89339 -1.4647 0
M  V30 2609 H 253.784 2.33588 -3.14927 0
M  V30 2610 H 255.274 3.20575 -2.67622 0
M  V30 2611 N 255.711 1.52812 0.385517 0
M  V30 2612 C 256.96 1.67249 1.12741 0
M  V30 2613 C 257.273 0.4205 1.91027 0
M  V30 2614 O 258.479 0.445064 2.67827 0
M  V30 2615 C 256.935 2.95583 2.05326 0
M  V30 2616 C 256.543 4.27974 1.32447 0
M  V30 2617 C 258.287 3.19386 2.7963 0
M  V30 2618 C 256.194 5.47412 2.23818 0
M  V30 2619 H 255.124 0.6231 0.424573 0
M  V30 2620 H 257.775 1.79309 0.389924 0
M  V30 2621 H 256.157 2.77277 2.82725 0
M  V30 2622 H 257.331 4.56844 0.602495 0
M  V30 2623 H 255.646 4.10459 0.700885 0
M  V30 2624 H 258.243 4.05801 3.48181 0
M  V30 2625 H 258.586 2.34604 3.43899 0
M  V30 2626 H 259.119 3.38274 2.09322 0
M  V30 2627 H 255.858 6.34612 1.64157 0
M  V30 2628 H 255.378 5.22849 2.93921 0
M  V30 2629 H 257.057 5.81423 2.83824 0
M  V30 2630 N 257.189 -0.644168 1.43834 0
M  V30 2631 C 258.438 -1.39985 1.45214 0
M  V30 2632 C 258.751 -1.95421 0.0835494 0
M  V30 2633 O 259.957 -2.71488 -0.0251748 0
M  V30 2634 C 258.413 -2.53384 2.55587 0
M  V30 2635 C 258.021 -2.04517 3.98594 0
M  V30 2636 C 259.765 -3.30685 2.66172 0
M  V30 2637 C 257.672 -3.1518 5.00416 0
M  V30 2638 H 256.602 -0.526005 0.540218 0
M  V30 2639 H 259.253 -0.694367 1.69855 0
M  V30 2640 H 257.635 -3.26446 2.24163 0
M  V30 2641 H 258.809 -1.38405 4.39523 0
M  V30 2642 H 257.124 -1.40068 3.92135 0
M  V30 2643 H 259.721 -4.13158 3.39418 0
M  V30 2644 H 260.064 -3.79312 1.71546 0
M  V30 2645 H 260.597 -2.64708 2.96942 0
M  V30 2646 H 257.336 -2.71511 5.96625 0
M  V30 2647 H 256.856 -3.79974 4.64091 0
M  V30 2648 H 258.535 -3.80166 5.23529 0
M  V30 2649 N 258.668 -1.30515 -0.883378 0
M  V30 2650 C 259.631 -1.1701 -1.97082 0
M  V30 2651 C 260.631 -0.10089 -1.60483 0
M  V30 2652 O 261.821 -0.349127 -1.70666 0
M  V30 2653 C 258.953 -0.793045 -3.31547 0
M  V30 2654 H 260.146 -2.13622 -2.10489 0
M  V30 2655 H 257.699 -1.13935 -1.06998 0
M  V30 2656 H 258.434 0.172499 -3.23841 0
M  V30 2657 H 258.219 -1.56576 -3.5948 0
M  V30 2658 H 259.709 -0.722073 -4.1131 0
M  V30 2659 N 260.146 1.09593 -1.13257 0
M  V30 2660 C 261.394 1.81375 -0.891492 0
M  V30 2661 C 261.715 1.86049 0.584009 0
M  V30 2662 O 260.985 1.34481 1.42449 0
M  V30 2663 H 259.565 0.671708 -0.326828 0
M  V30 2664 H 262.227 1.3256 -1.42877 0
M  V30 2665 H 261.323 2.84612 -1.28071 0
M  V30 2666 N 261.624 0.925811 1.2754 0
M  V30 2667 C 263.035 0.610102 1.7645 0
M  V30 2668 C 263.386 -0.874723 1.75622 0
M  V30 2669 O 262.511 -1.68444 1.35851 0
M  V30 2670 C 263.106 1.10073 3.20421 0
M  V30 2671 C 261.665 0.835723 3.67005 0
M  V30 2672 C 260.812 1.26054 2.46993 0
M  V30 2673 H 263.763 1.10579 1.13833 0
M  V30 2674 H 263.784 0.447557 3.77859 0
M  V30 2675 H 263.296 2.18143 3.20991 0
M  V30 2676 H 261.397 -0.231249 3.71882 0
M  V30 2677 H 261.51 1.45193 4.56569 0
M  V30 2678 H 259.874 0.679111 2.45479 0
M  V30 2679 H 260.657 2.34984 2.50275 0
M  V30 2680 N 263.102 -1.41638 0.69111 0
M  V30 2681 C 264.342 -2.03166 0.224291 0
M  V30 2682 C 264.706 -1.53537 -1.15284 0
M  V30 2683 O 265.907 -2.0696 -1.71525 0
M  V30 2684 C 264.178 -3.56342 0.274758 0
M  V30 2685 S 265.737 -4.3864 -0.118669 0
M  V30 2686 H 262.555 -0.705188 0.0907263 0
M  V30 2687 H 265.157 -1.7314 0.907895 0
M  V30 2688 H 263.861 -3.89958 1.2791 0
M  V30 2689 H 263.392 -3.91063 -0.428142 0
M  V30 2690 H 265.407 -4.77549 -1.34764 0
M  V30 2691 N 264.58 -0.43555 -1.51462 0
M  V30 2692 C 265.543 0.365137 -2.26273 0
M  V30 2693 C 266.543 0.951227 -1.29647 0
M  V30 2694 O 267.733 0.825958 -1.53374 0
M  V30 2695 C 264.865 1.51645 -3.05314 0
M  V30 2696 H 266.058 -0.290474 -2.9849 0
M  V30 2697 H 263.611 -0.188676 -1.55157 0
M  V30 2698 H 264.346 2.20816 -2.3751 0
M  V30 2699 H 264.131 1.10238 -3.76284 0
M  V30 2700 H 265.621 2.08218 -3.61987 0
M  V30 2701 N 266.058 1.56714 -0.166846 0
M  V30 2702 C 267.306 1.96358 0.478305 0
M  V30 2703 C 267.627 1.0537 1.6408 0
M  V30 2704 O 266.897 0.119154 1.95537 0
M  V30 2705 H 265.477 0.725065 0.179692 0
M  V30 2706 H 268.139 1.93329 -0.246985 0
M  V30 2707 H 267.235 3.00547 0.841292 0
M  V30 2708 N 267.536 -0.106894 1.57237 0
M  V30 2709 C 268.784 -0.810921 1.85117 0
M  V30 2710 C 269.105 -1.7984 0.753827 0
M  V30 2711 O 268.375 -1.94649 -0.221056 0
M  V30 2712 H 266.955 -0.302466 0.683025 0
M  V30 2713 H 269.617 -0.0913324 1.94686 0
M  V30 2714 H 268.713 -1.34875 2.81452 0
M  V30 2715 N 269.014 -1.53014 -0.377408 0
M  V30 2716 C 269.977 -1.77957 -1.44444 0
M  V30 2717 C 270.977 -0.649763 -1.47087 0
M  V30 2718 O 272.167 -0.917897 -1.48055 0
M  V30 2719 C 269.299 -1.89089 -2.83651 0
M  V30 2720 H 270.492 -2.73243 -1.23606 0
M  V30 2721 H 268.045 -1.43912 -0.609844 0
M  V30 2722 H 268.78 -0.958293 -3.09818 0
M  V30 2723 H 268.565 -2.71254 -2.83132 0
M  V30 2724 H 270.055 -2.1002 -3.60945 0
M  V30 2725 N 270.492 0.636531 -1.44174 0
M  V30 2726 C 271.717 1.42847 -1.50364 0
M  V30 2727 C 272.142 1.87665 -0.127867 0
M  V30 2728 O 271.5 1.58408 0.88185 0
M  V30 2729 C 271.548 2.62854 -2.4686 0
M  V30 2730 O 270.652 3.62501 -1.9664 0
M  V30 2731 H 269.993 0.427642 -0.507955 0
M  V30 2732 H 272.523 0.777422 -1.89255 0
M  V30 2733 H 272.533 3.10465 -2.64718 0
M  V30 2734 H 271.208 2.29578 -3.46795 0
M  V30 2735 H 269.785 3.21735 -1.88523 0
M  V30 2736 N 271.97 1.30982 0.876444 0
M  V30 2737 C 273.2 1.23063 1.65949 0
M  V30 2738 C 273.608 -0.207537 1.88058 0
M  V30 2739 O 272.951 -1.14781 1.43426 0
M  V30 2740 C 273.013 1.89768 3.05333 0
M  V30 2741 C 272.677 3.39106 3.0636 0
M  V30 2742 C 273.674 4.3496 2.84791 0
M  V30 2743 C 271.359 3.80693 3.27686 0
M  V30 2744 C 273.353 5.70375 2.84519 0
M  V30 2745 C 271.04 5.16223 3.27043 0
M  V30 2746 C 272.038 6.10875 3.05485 0
M  V30 2747 O 271.726 7.43928 3.04674 0
M  V30 2748 H 271.458 0.426685 0.524324 0
M  V30 2749 H 274.012 1.7329 1.10271 0
M  V30 2750 H 272.242 1.34082 3.6271 0
M  V30 2751 H 273.931 1.75853 3.65829 0
M  V30 2752 H 274.697 4.0416 2.68103 0
M  V30 2753 H 270.576 3.07457 3.43499 0
M  V30 2754 H 274.12 6.44228 2.67611 0
M  V30 2755 H 270.017 5.4666 3.43269 0
M  V30 2756 H 270.785 7.53022 3.2078 0
M  V30 2757 N 273.449 -1.08991 1.13837 0
M  V30 2758 C 274.674 -1.85551 0.926585 0
M  V30 2759 C 275.099 -1.80782 -0.519566 0
M  V30 2760 O 274.457 -1.18855 -1.36906 0
M  V30 2761 C 274.505 -3.31266 1.42462 0
M  V30 2762 O 273.609 -4.07822 0.612789 0
M  V30 2763 H 272.95 -0.575192 0.331738 0
M  V30 2764 H 275.48 -1.37604 1.51414 0
M  V30 2765 H 275.49 -3.82112 1.43019 0
M  V30 2766 H 274.165 -3.34052 2.47754 0
M  V30 2767 H 272.742 -3.66731 0.675463 0
M  V30 2768 N 274.927 -0.932562 -1.27047 0
M  V30 2769 C 276.338 -0.619451 -1.76124 0
M  V30 2770 C 276.689 0.865397 -1.76083 0
M  V30 2771 O 275.814 1.67722 -1.36742 0
M  V30 2772 C 276.409 -1.11771 -3.19832 0
M  V30 2773 C 274.968 -0.855174 -3.66557 0
M  V30 2774 C 274.115 -1.27362 -2.46321 0
M  V30 2775 H 277.066 -1.11181 -1.13245 0
M  V30 2776 H 277.087 -0.46759 -3.77616 0
M  V30 2777 H 276.599 -2.19842 -3.1983 0
M  V30 2778 H 274.7 0.211524 -3.71999 0
M  V30 2779 H 274.813 -1.47613 -4.55793 0
M  V30 2780 H 273.177 -0.692119 -2.45116 0
M  V30 2781 H 273.96 -2.36307 -2.49025 0
M  V30 2782 N 276.405 1.4127 -0.698611 0
M  V30 2783 C 277.368 2.29158 -0.044132 0
M  V30 2784 C 278.368 1.44529 0.704841 0
M  V30 2785 O 279.558 1.65643 0.539276 0
M  V30 2786 C 276.69 3.27459 0.947809 0
M  V30 2787 H 277.883 2.88529 -0.817994 0
M  V30 2788 H 275.436 1.49307 -0.46228 0
M  V30 2789 H 276.171 2.73073 1.74933 0
M  V30 2790 H 275.956 3.8991 0.41385 0
M  V30 2791 H 277.446 3.93311 1.40344 0
M  V30 2792 N 277.883 0.443576 1.51229 0
M  V30 2793 C 278.813 -0.355142 2.30783 0
M  V30 2794 C 279.794 -1.0154 1.36468 0
M  V30 2795 O 280.979 -1.01785 1.65389 0
M  V30 2796 C 278.109 -1.45312 3.15439 0
M  V30 2797 C 277.063 -0.916002 4.18083 0
M  V30 2798 C 276.389 -2.1102 4.91299 0
M  V30 2799 C 277.689 0.0538602 5.22272 0
M  V30 2800 H 279.383 0.308767 2.97804 0
M  V30 2801 H 276.929 0.149937 1.43217 0
M  V30 2802 H 278.882 -2.01914 3.69876 0
M  V30 2803 H 277.606 -2.14541 2.46252 0
M  V30 2804 H 276.265 -0.372145 3.64706 0
M  V30 2805 H 275.913 -2.78882 4.18609 0
M  V30 2806 H 275.613 -1.75717 5.60712 0
M  V30 2807 H 277.137 -2.68164 5.48562 0
M  V30 2808 H 278.551 -0.422069 5.71744 0
M  V30 2809 H 276.948 0.319776 5.99247 0
M  V30 2810 H 278.018 0.98858 4.74716 0
M  V30 2811 N 279.361 -1.56624 0.175154 0
M  V30 2812 C 280.589 -2.01374 -0.474971 0
M  V30 2813 C 281.004 -1.05537 -1.56548 0
M  V30 2814 O 280.361 -0.0568668 -1.82411 0
M  V30 2815 C 280.412 -3.45923 -1.04975 0
M  V30 2816 O 280.133 -4.381 -0.00276605 0
M  V30 2817 C 281.634 -4.06093 -1.77773 0
M  V30 2818 H 278.854 -0.659962 -0.121206 0
M  V30 2819 H 281.398 -2.02601 0.27801 0
M  V30 2820 H 279.553 -3.45458 -1.75321 0
M  V30 2821 H 279.967 -5.22753 -0.427681 0
M  V30 2822 H 281.441 -5.09147 -2.13245 0
M  V30 2823 H 281.918 -3.48405 -2.67414 0
M  V30 2824 H 282.524 -4.10272 -1.12059 0
M  V30 2825 N 280.839 0.0985539 -1.57292 0
M  V30 2826 C 282.116 0.834155 -1.76921 0
M  V30 2827 C 282.496 1.97101 -0.755928 0
M  V30 2828 O 281.844 2.27474 0.216245 0
M  V30 2829 C 282.054 1.33194 -3.22584 0
M  V30 2830 C 283.402 1.77611 -3.85668 0
M  V30 2831 O 284.426 1.42825 -3.26312 0
M  V30 2832 O 283.285 2.4192 -4.90038 0
M  V30 2833 H 280.379 0.397628 -0.725135 0
M  V30 2834 H 282.925 0.0807044 -1.69508 0
M  V30 2835 H 281.697 0.517248 -3.87866 0
M  V30 2836 H 281.32 2.1475 -3.34616 0
M  V30 2837 N 282.317 1.53212 0.369288 0
M  V30 2838 C 283.564 1.69215 1.11232 0
M  V30 2839 C 283.892 0.442048 1.8941 0
M  V30 2840 O 283.147 -0.575944 1.87033 0
M  V30 2841 C 283.446 2.89101 2.10132 0
M  V30 2842 C 283.112 4.25758 1.48463 0
M  V30 2843 C 281.774 4.6292 1.31372 0
M  V30 2844 C 284.126 5.10757 1.03811 0
M  V30 2845 C 281.454 5.82722 0.68207 0
M  V30 2846 C 283.806 6.31201 0.420487 0
M  V30 2847 C 282.47 6.67079 0.237038 0
M  V30 2848 H 281.74 0.619201 0.407027 0
M  V30 2849 H 284.387 1.87391 0.394552 0
M  V30 2850 H 282.692 2.65421 2.88199 0
M  V30 2851 H 284.389 2.98676 2.6757 0
M  V30 2852 H 280.979 3.96494 1.62758 0
M  V30 2853 H 285.163 4.82599 1.1581 0
M  V30 2854 H 280.419 6.09113 0.528316 0
M  V30 2855 H 284.593 6.96368 0.0662874 0
M  V30 2856 H 282.22 7.59774 -0.254477 0
M  V30 2857 N 283.795 -0.628877 1.44509 0
M  V30 2858 C 285.044 -1.38437 1.4669 0
M  V30 2859 C 285.357 -1.95322 0.104272 0
M  V30 2860 O 286.563 -2.715 0.00362163 0
M  V30 2861 C 285.019 -2.50659 2.5826 0
M  V30 2862 C 284.627 -2.00277 4.0074 0
M  V30 2863 C 286.371 -3.27844 2.69664 0
M  V30 2864 C 284.278 -3.09854 5.0373 0
M  V30 2865 H 283.208 -0.520245 0.545766 0
M  V30 2866 H 285.859 -0.676313 1.70582 0
M  V30 2867 H 284.241 -3.2405 2.27612 0
M  V30 2868 H 285.415 -1.33736 4.40966 0
M  V30 2869 H 283.73 -1.35901 3.93599 0
M  V30 2870 H 286.327 -4.09534 3.43781 0
M  V30 2871 H 286.67 -3.77471 1.75559 0
M  V30 2872 H 287.203 -2.61543 2.99733 0
M  V30 2873 H 283.942 -2.65168 5.99472 0
M  V30 2874 H 283.462 -3.7503 4.68095 0
M  V30 2875 H 285.141 -3.74592 5.27532 0
M  V30 2876 N 285.273 -1.31445 -0.869486 0
M  V30 2877 C 286.522 -1.20517 -1.61736 0
M  V30 2878 C 286.835 0.235341 -1.94179 0
M  V30 2879 O 288.041 0.466312 -2.67465 0
M  V30 2880 C 286.497 -2.10982 -2.91573 0
M  V30 2881 C 286.105 -3.60032 -2.66611 0
M  V30 2882 C 287.849 -2.08856 -3.69567 0
M  V30 2883 C 285.756 -4.42503 -3.92358 0
M  V30 2884 H 284.686 -0.447493 -0.606849 0
M  V30 2885 H 287.337 -1.56303 -0.96133 0
M  V30 2886 H 285.719 -1.68095 -3.58553 0
M  V30 2887 H 286.893 -4.11167 -2.08035 0
M  V30 2888 H 285.208 -3.64139 -2.0197 0
M  V30 2889 H 287.805 -2.67716 -4.62852 0
M  V30 2890 H 288.148 -1.07582 -4.02159 0
M  V30 2891 H 288.681 -2.49945 -3.09471 0
M  V30 2892 H 285.42 -5.44533 -3.64916 0
M  V30 2893 H 284.94 -3.96125 -4.50383 0
M  V30 2894 H 286.619 -4.54741 -4.60238 0
M  V30 2895 N 286.751 1.08385 -1.14413 0
M  V30 2896 C 287.684 2.14642 -0.774871 0
M  V30 2897 C 288.662 1.60761 0.243876 0
M  V30 2898 O 289.846 1.88031 0.132883 0
M  V30 2899 C 286.973 3.38366 -0.150491 0
M  V30 2900 C 286.019 4.10997 -1.13945 0
M  V30 2901 S 286.852 4.63797 -2.67679 0
M  V30 2902 C 288.008 5.90808 -2.06631 0
M  V30 2903 H 288.241 2.45633 -1.67487 0
M  V30 2904 H 285.774 1.20498 -0.96538 0
M  V30 2905 H 287.732 4.09996 0.203334 0
M  V30 2906 H 286.393 3.05572 0.72694 0
M  V30 2907 H 285.586 4.99783 -0.65059 0
M  V30 2908 H 285.188 3.4528 -1.43727 0
M  V30 2909 H 287.48 6.62411 -1.4219 0
M  V30 2910 H 288.423 6.4439 -2.93542 0
M  V30 2911 H 288.831 5.4383 -1.51357 0
M  V30 2912 N 288.23 0.939286 1.26551 0
M  V30 2913 C 289.458 0.602536 1.97932 0
M  V30 2914 C 289.873 -0.82206 1.69964 0
M  V30 2915 O 289.23 -1.54789 0.966784 0
M  V30 2916 C 289.281 0.832946 3.51773 0
M  V30 2917 O 289.002 2.20151 3.78768 0
M  V30 2918 C 290.503 0.506483 4.40397 0
M  V30 2919 H 287.723 0.227248 0.631347 0
M  V30 2920 H 290.267 1.25948 1.61113 0
M  V30 2921 H 288.422 0.222644 3.8676 0
M  V30 2922 H 288.836 2.26013 4.73306 0
M  V30 2923 H 290.31 0.718333 5.47306 0
M  V30 2924 H 290.787 -0.558451 4.35635 0
M  V30 2925 H 291.393 1.09543 4.10951 0
M  V30 2926 N 289.708 -1.40897 0.706093 0
M  V30 2927 C 290.655 -2.30751 0.0474474 0
M  V30 2928 C 291.625 -1.47678 -0.76029 0
M  V30 2929 O 292.81 -1.76441 -0.726177 0
M  V30 2930 C 289.95 -3.33815 -0.875309 0
M  V30 2931 C 289.063 -4.31961 -0.0580623 0
M  V30 2932 C 288.198 -5.22093 -0.979425 0
M  V30 2933 C 287.237 -6.11902 -0.155706 0
M  V30 2934 N 286.374 -6.94482 -1.03144 0
M  V30 2935 H 291.214 -2.86513 0.819413 0
M  V30 2936 H 288.751 -1.41102 0.415783 0
M  V30 2937 H 290.709 -3.92129 -1.42446 0
M  V30 2938 H 289.339 -2.79579 -1.61356 0
M  V30 2939 H 288.391 -3.75507 0.608147 0
M  V30 2940 H 289.703 -4.95415 0.580082 0
M  V30 2941 H 288.857 -5.85292 -1.59744 0
M  V30 2942 H 287.596 -4.5889 -1.65141 0
M  V30 2943 H 286.601 -5.47742 0.475309 0
M  V30 2944 H 287.826 -6.77162 0.512635 0
M  V30 2945 H 285.772 -6.33877 -1.68924 0
M  V30 2946 H 285.689 -7.54665 -0.449108 0
M  V30 2947 H 286.957 -7.6214 -1.63593 0
M  V30 2948 N 291.186 -0.45159 -1.50991 0
M  V30 2949 C 292.133 0.352625 -2.2809 0
M  V30 2950 C 293.103 1.0044 -1.32291 0
M  V30 2951 O 294.288 1.02058 -1.6121 0
M  V30 2952 C 291.428 1.43983 -3.13629 0
M  V30 2953 C 290.541 0.804772 -4.24438 0
M  V30 2954 C 289.676 1.86822 -4.97263 0
M  V30 2955 C 288.715 1.21236 -5.99973 0
M  V30 2956 N 287.852 2.2178 -6.66152 0
M  V30 2957 H 292.692 -0.311186 -2.96371 0
M  V30 2958 H 290.229 -0.165308 -1.46168 0
M  V30 2959 H 292.187 2.08161 -3.61559 0
M  V30 2960 H 290.817 2.07307 -2.47434 0
M  V30 2961 H 289.869 0.0509129 -3.80366 0
M  V30 2962 H 291.181 0.286076 -4.97979 0
M  V30 2963 H 290.335 2.58628 -5.48813 0
M  V30 2964 H 289.074 2.42068 -4.23385 0
M  V30 2965 H 288.079 0.479828 -5.47702 0
M  V30 2966 H 289.304 0.667051 -6.75816 0
M  V30 2967 H 287.25 2.76079 -5.95077 0
M  V30 2968 H 287.167 1.74841 -7.35504 0
M  V30 2969 H 288.435 2.93026 -7.22327 0
M  V30 2970 N 292.664 1.56529 -0.183458 0
M  V30 2971 C 293.627 2.17324 0.728223 0
M  V30 2972 C 294.627 1.12453 1.14939 0
M  V30 2973 O 295.817 1.37902 1.06437 0
M  V30 2974 C 292.949 2.76591 1.99274 0
M  V30 2975 H 294.142 2.99241 0.198772 0
M  V30 2976 H 291.695 1.5616 0.0661391 0
M  V30 2977 H 292.43 1.98441 2.56499 0
M  V30 2978 H 292.215 3.5335 1.69959 0
M  V30 2979 H 293.705 3.23311 2.6431 0
M  V30 2980 N 294.142 -0.090211 1.57342 0
M  V30 2981 C 295.092 -1.11557 1.98844 0
M  V30 2982 C 296.076 -1.35503 0.867624 0
M  V30 2983 O 297.268 -1.36113 1.13148 0
M  V30 2984 C 294.397 -2.43446 2.42051 0
M  V30 2985 C 293.483 -2.22853 3.60828 0
M  V30 2986 N 293.874 -1.72141 4.75606 0
M  V30 2987 C 292.172 -2.53401 3.67021 0
M  V30 2988 C 292.873 -1.65932 5.57531 0
M  V30 2989 N 291.849 -2.11323 5.00843 0
M  V30 2990 H 295.651 -0.716499 2.85032 0
M  V30 2991 H 293.165 -0.297567 1.59651 0
M  V30 2992 H 295.162 -3.17644 2.70014 0
M  V30 2993 H 293.822 -2.84087 1.57241 0
M  V30 2994 H 294.833 -1.41268 4.98261 0
M  V30 2995 H 291.51 -2.97532 2.92884 0
M  V30 2996 H 292.9 -1.27733 6.59647 0
M  V30 2997 N 295.62 -1.53406 -0.361157 0
M  V30 2998 C 296.553 -1.74946 -1.46524 0
M  V30 2999 C 297.531 -0.59795 -1.51206 0
M  V30 3000 O 298.715 -0.831062 -1.69191 0
M  V30 3001 C 295.842 -1.83224 -2.84863 0
M  V30 3002 C 294.888 -3.05233 -2.97885 0
M  V30 3003 S 295.721 -4.6466 -2.66179 0
M  V30 3004 C 296.877 -4.75793 -4.06659 0
M  V30 3005 H 297.11 -2.68319 -1.28033 0
M  V30 3006 H 294.643 -1.44051 -0.555764 0
M  V30 3007 H 296.601 -1.88679 -3.64569 0
M  V30 3008 H 295.262 -0.908948 -3.00661 0
M  V30 3009 H 294.455 -3.07648 -3.9921 0
M  V30 3010 H 294.057 -2.97913 -2.26106 0
M  V30 3011 H 296.349 -4.5612 -5.0096 0
M  V30 3012 H 297.292 -5.7786 -4.09247 0
M  V30 3013 H 297.7 -4.04389 -3.93865 0
M  V30 3014 N 297.098 0.621204 -1.44841 0
M  V30 3015 C 298.345 1.38055 -1.48145 0
M  V30 3016 C 298.673 1.94143 -0.117867 0
M  V30 3017 O 297.928 1.74713 0.881694 0
M  V30 3018 C 298.227 2.55675 -2.4973 0
M  V30 3019 C 297.893 2.17817 -3.94799 0
M  V30 3020 C 296.555 2.07205 -4.34303 0
M  V30 3021 C 298.907 1.88065 -4.86087 0
M  V30 3022 C 296.235 1.65045 -5.63007 0
M  V30 3023 C 298.587 1.47394 -6.15189 0
M  V30 3024 C 297.251 1.35331 -6.53637 0
M  V30 3025 H 296.521 0.505181 -0.542101 0
M  V30 3026 H 299.168 0.703477 -1.78111 0
M  V30 3027 H 297.473 3.2866 -2.13284 0
M  V30 3028 H 299.17 3.13904 -2.4953 0
M  V30 3029 H 295.76 2.26998 -3.63552 0
M  V30 3030 H 299.944 1.95168 -4.56315 0
M  V30 3031 H 295.2 1.54317 -5.91605 0
M  V30 3032 H 299.374 1.23415 -6.85377 0
M  V30 3033 H 297.001 1.02435 -7.53267 0
M  V30 3034 N 298.576 1.31904 0.862503 0
M  V30 3035 C 299.825 1.21373 1.61094 0
M  V30 3036 C 300.138 -0.22504 1.94301 0
M  V30 3037 O 301.344 -0.452121 2.67709 0
M  V30 3038 C 299.8 2.12525 2.9045 0
M  V30 3039 C 299.408 3.61441 2.64697 0
M  V30 3040 C 301.152 2.10813 3.68454 0
M  V30 3041 C 299.059 4.44578 3.90006 0
M  V30 3042 H 297.989 0.450705 0.604468 0
M  V30 3043 H 300.64 1.56811 0.953027 0
M  V30 3044 H 299.022 1.69994 3.57656 0
M  V30 3045 H 300.196 4.12264 2.05851 0
M  V30 3046 H 298.511 3.65205 2.00036 0
M  V30 3047 H 301.108 2.70167 4.61426 0
M  V30 3048 H 301.451 1.09713 4.01583 0
M  V30 3049 H 301.984 2.51583 3.08141 0
M  V30 3050 H 298.723 5.46461 3.62023 0
M  V30 3051 H 298.243 3.98508 4.48276 0
M  V30 3052 H 299.922 4.57176 4.5782 0
M  V30 3053 N 300.054 -1.07777 1.14986 0
M  V30 3054 C 301.282 -1.84018 0.945773 0
M  V30 3055 C 301.697 -1.81897 -0.505863 0
M  V30 3056 O 301.054 -1.22726 -1.35072 0
M  V30 3057 C 301.105 -3.31287 1.44677 0
M  V30 3058 O 300.826 -3.33449 2.84154 0
M  V30 3059 C 302.327 -4.24311 1.28355 0
M  V30 3060 H 299.547 -0.580716 0.336169 0
M  V30 3061 H 302.091 -1.36077 1.52654 0
M  V30 3062 H 300.246 -3.76594 0.908625 0
M  V30 3063 H 300.66 -4.25427 3.06777 0
M  V30 3064 H 302.134 -5.2573 1.68261 0
M  V30 3065 H 302.611 -4.38612 0.227184 0
M  V30 3066 H 303.217 -3.84836 1.81056 0
M  V30 3067 N 301.532 -0.945985 -1.26051 0
M  V30 3068 C 302.78 -0.594941 -1.93145 0
M  V30 3069 C 303.101 0.86953 -1.7454 0
M  V30 3070 O 302.371 1.61838 -1.10387 0
M  V30 3071 H 300.951 -0.217044 -0.714773 0
M  V30 3072 H 303.613 -1.20235 -1.53393 0
M  V30 3073 H 302.709 -0.816835 -3.01221 0
M  V30 3074 N 303.011 1.40521 -0.713556 0
M  V30 3075 C 304.422 1.83853 -0.324807 0
M  V30 3076 C 304.773 1.59667 1.14021 0
M  V30 3077 O 303.898 1.07649 1.87725 0
M  V30 3078 C 304.493 3.33751 -0.582746 0
M  V30 3079 C 303.052 3.75584 -0.247727 0
M  V30 3080 C 302.199 2.63753 -0.856121 0
M  V30 3081 H 305.15 1.29817 -0.91286 0
M  V30 3082 H 305.171 3.80194 0.152682 0
M  V30 3083 H 304.683 3.51322 -1.64908 0
M  V30 3084 H 302.784 3.63608 0.813624 0
M  V30 3085 H 302.897 4.7373 -0.715307 0
M  V30 3086 H 301.261 2.53108 -0.28432 0
M  V30 3087 H 302.044 2.84137 -1.92668 0
M  V30 3088 N 304.489 0.459591 1.5075 0
M  V30 3089 C 305.421 -0.37665 2.26084 0
M  V30 3090 C 306.434 -0.967109 1.30961 0
M  V30 3091 O 307.623 -0.857468 1.56556 0
M  V30 3092 C 304.723 -1.54112 3.01832 0
M  V30 3093 C 303.896 -1.06553 4.24223 0
M  V30 3094 C 302.955 -2.1027 4.82362 0
M  V30 3095 O 301.981 -1.68798 5.43595 0
M  V30 3096 N 303.183 -3.42974 4.68347 0
M  V30 3097 H 305.948 0.269124 2.98489 0
M  V30 3098 H 303.509 0.28972 1.59287 0
M  V30 3099 H 305.501 -2.23165 3.37608 0
M  V30 3100 H 304.071 -2.0918 2.32298 0
M  V30 3101 H 303.291 -0.201274 3.93686 0
M  V30 3102 H 304.579 -0.725516 5.03601 0
M  V30 3103 H 303.977 -3.79385 4.19623 0
M  V30 3104 H 302.534 -4.07858 5.08424 0
M  V30 3105 N 305.967 -1.56429 0.191757 0
M  V30 3106 C 307.213 -1.97777 -0.448554 0
M  V30 3107 C 307.546 -1.07847 -1.61501 0
M  V30 3108 O 306.821 -0.129774 -1.94067 0
M  V30 3109 C 307.104 -3.48362 -0.911906 0
M  V30 3110 C 306.957 -4.4907 0.256136 0
M  V30 3111 C 308.276 -4.02561 -1.77857 0
M  V30 3112 H 305.395 -0.719071 -0.161572 0
M  V30 3113 H 308.037 -1.87896 0.282007 0
M  V30 3114 H 306.187 -3.56914 -1.53442 0
M  V30 3115 H 307.859 -4.5256 0.893733 0
M  V30 3116 H 306.102 -4.24181 0.908436 0
M  V30 3117 H 306.773 -5.51889 -0.11053 0
M  V30 3118 H 309.249 -3.96767 -1.25359 0
M  V30 3119 H 308.125 -5.08301 -2.07174 0
M  V30 3120 H 308.386 -3.47616 -2.73158 0
M  V30 3121 N 307.445 0.0818655 -1.57387 0
M  V30 3122 C 308.694 0.781681 -1.85937 0
M  V30 3123 C 309.007 1.79246 -0.782957 0
M  V30 3124 O 310.213 2.54112 -0.955987 0
M  V30 3125 C 308.669 1.44109 -3.29789 0
M  V30 3126 C 308.277 0.469396 -4.45534 0
M  V30 3127 C 310.021 2.12386 -3.67549 0
M  V30 3128 C 307.928 1.13415 -5.80423 0
M  V30 3129 H 306.858 0.295682 -0.693605 0
M  V30 3130 H 309.509 0.0348051 -1.83467 0
M  V30 3131 H 307.891 2.23588 -3.2684 0
M  V30 3132 H 309.065 -0.294856 -4.59856 0
M  V30 3133 H 307.38 -0.108383 -4.16259 0
M  V30 3134 H 309.977 2.62878 -4.65617 0
M  V30 3135 H 310.32 2.91877 -2.96839 0
M  V30 3136 H 310.853 1.39751 -3.72444 0
M  V30 3137 H 307.592 0.379771 -6.54399 0
M  V30 3138 H 307.112 1.8695 -5.69921 0
M  V30 3139 H 308.791 1.65686 -6.25426 0
M  V30 3140 N 308.923 1.53595 0.353017 0
M  V30 3141 C 309.87 1.80919 1.43308 0
M  V30 3142 C 310.84 0.654288 1.5267 0
M  V30 3143 O 312.025 0.897759 1.6836 0
M  V30 3144 C 309.165 2.01605 2.80089 0
M  V30 3145 C 308.278 3.29321 2.79593 0
M  V30 3146 C 307.413 3.40125 4.0803 0
M  V30 3147 C 306.452 4.61826 4.01725 0
M  V30 3148 N 305.589 4.69716 5.21834 0
M  V30 3149 H 310.429 2.73074 1.19308 0
M  V30 3150 H 307.966 1.35263 0.578131 0
M  V30 3151 H 309.924 2.11586 3.59565 0
M  V30 3152 H 308.554 1.12772 3.0246 0
M  V30 3153 H 307.606 3.28229 1.92276 0
M  V30 3154 H 308.918 4.18884 2.70809 0
M  V30 3155 H 308.072 3.49488 4.95927 0
M  V30 3156 H 306.811 2.48601 4.19582 0
M  V30 3157 H 305.816 4.52552 3.12213 0
M  V30 3158 H 307.041 5.54705 3.91764 0
M  V30 3159 H 304.987 3.81097 5.33948 0
M  V30 3160 H 304.904 5.53202 5.1527 0
M  V30 3161 H 306.172 4.83376 6.11529 0
M  V30 3162 N 310.401 -0.613514 1.45168 0
M  V30 3163 C 311.626 -1.40437 1.52618 0
M  V30 3164 C 312.051 -1.87438 0.157707 0
M  V30 3165 O 311.409 -1.59791 -0.856537 0
M  V30 3166 C 311.457 -2.58894 2.51011 0
M  V30 3167 O 310.561 -3.59326 2.02382 0
M  V30 3168 H 309.902 -0.419506 0.514695 0
M  V30 3169 H 312.432 -0.747215 1.90467 0
M  V30 3170 H 312.442 -3.06214 2.69624 0
M  V30 3171 H 311.117 -2.24032 3.50403 0
M  V30 3172 H 309.694 -3.18695 1.93618 0
M  V30 3173 N 311.879 -1.3236 -0.855495 0
M  V30 3174 C 313.125 -1.23054 -1.612 0
M  V30 3175 C 313.458 0.207404 -1.93089 0
M  V30 3176 O 312.733 1.14432 -1.57275 0
M  V30 3177 C 313.016 -2.08937 -2.93287 0
M  V30 3178 C 312.869 -3.61105 -2.68185 0
M  V30 3179 C 314.188 -1.94986 -3.94549 0
M  V30 3180 H 311.307 -0.448364 -0.584926 0
M  V30 3181 H 313.949 -1.62297 -0.987917 0
M  V30 3182 H 312.099 -1.75599 -3.46551 0
M  V30 3183 H 313.771 -4.04652 -2.21483 0
M  V30 3184 H 312.014 -3.83813 -2.02164 0
M  V30 3185 H 312.685 -4.16522 -3.62234 0
M  V30 3186 H 315.161 -2.24189 -3.5054 0
M  V30 3187 H 314.037 -2.57356 -4.84829 0
M  V30 3188 H 314.298 -0.917263 -4.3248 0
M  V30 3189 N 313.357 1.07166 -1.15556 0
M  V30 3190 C 314.585 1.83514 -0.955519 0
M  V30 3191 C 315 1.82163 0.49621 0
M  V30 3192 O 314.357 1.23441 1.34419 0
M  V30 3193 C 314.408 3.30515 -1.46432 0
M  V30 3194 O 314.129 3.31937 -2.85918 0
M  V30 3195 C 315.63 4.23625 -1.30603 0
M  V30 3196 H 312.85 0.578926 -0.339244 0
M  V30 3197 H 315.394 1.35265 -1.53374 0
M  V30 3198 H 313.549 3.76106 -0.928584 0
M  V30 3199 H 313.963 4.23794 -3.09029 0
M  V30 3200 H 315.437 5.24831 -1.71047 0
M  V30 3201 H 315.914 4.38485 -0.250441 0
M  V30 3202 H 316.52 3.83871 -1.83094 0
M  V30 3203 N 314.835 0.952656 1.25548 0
M  V30 3204 C 316.083 0.605176 1.92826 0
M  V30 3205 C 316.404 -0.860261 1.74999 0
M  V30 3206 O 315.674 -1.6125 1.11244 0
M  V30 3207 H 314.254 0.220832 0.713612 0
M  V30 3208 H 316.916 1.21047 1.52754 0
M  V30 3209 H 316.012 0.832798 3.00784 0
M  V30 3210 N 316.313 -1.40141 0.720998 0
M  V30 3211 C 317.223 -2.34486 0.0731031 0
M  V30 3212 C 318.239 -1.57587 -0.737723 0
M  V30 3213 O 319.415 -1.89949 -0.669429 0
M  V30 3214 C 316.48 -3.36528 -0.833656 0
M  V30 3215 C 315.541 -4.29298 -0.0121673 0
M  V30 3216 C 314.774 -5.26466 -0.875742 0
M  V30 3217 O 314.997 -5.29745 -2.11485 0
M  V30 3218 O 313.931 -6.01092 -0.31185 0
M  V30 3219 H 317.757 -2.9152 0.851444 0
M  V30 3220 H 315.342 -1.41427 0.481527 0
M  V30 3221 H 317.224 -3.99093 -1.35289 0
M  V30 3222 H 315.899 -2.81899 -1.59105 0
M  V30 3223 H 314.806 -3.70001 0.552262 0
M  V30 3224 H 316.139 -4.87094 0.707129 0
M  V30 3225 N 317.792 -0.46758 -1.50504 0
M  V30 3226 C 319.069 0.15003 -1.95024 0
M  V30 3227 C 319.449 1.57304 -1.40779 0
M  V30 3228 O 318.797 2.20281 -0.607319 0
M  V30 3229 C 319.007 0.0969324 -3.48865 0
M  V30 3230 C 320.355 0.287565 -4.23625 0
M  V30 3231 O 321.379 0.173678 -3.55776 0
M  V30 3232 O 320.238 0.517186 -5.44047 0
M  V30 3233 H 317.332 0.113582 -0.819163 0
M  V30 3234 H 319.878 -0.52773 -1.61286 0
M  V30 3235 H 318.65 -0.896732 -3.80886 0
M  V30 3236 H 318.273 0.816303 -3.8913 0
M  V30 3237 N 319.27 1.56325 -0.20005 0
M  V30 3238 C 320.516 1.98012 0.438059 0
M  V30 3239 C 320.849 1.08702 1.60927 0
M  V30 3240 O 320.124 0.140064 1.93995 0
M  V30 3241 C 320.407 3.48841 0.893419 0
M  V30 3242 C 320.26 4.48928 -0.279947 0
M  V30 3243 C 321.579 4.03498 1.75719 0
M  V30 3244 H 318.698 0.719918 0.157757 0
M  V30 3245 H 321.34 1.87743 -0.291968 0
M  V30 3246 H 319.49 3.57723 1.51547 0
M  V30 3247 H 321.162 4.52079 -0.91772 0
M  V30 3248 H 319.405 4.23694 -0.930919 0
M  V30 3249 H 320.076 5.5194 0.0812601 0
M  V30 3250 H 322.552 3.97427 1.23253 0
M  V30 3251 H 321.428 5.09393 2.04476 0
M  V30 3252 H 321.689 3.4906 2.71311 0
M  V30 3253 N 320.748 -0.0735177 1.57428 0
M  V30 3254 C 321.976 -0.785969 1.9139 0
M  V30 3255 C 322.391 -1.71207 0.795847 0
M  V30 3256 O 321.748 -1.81033 -0.230915 0
M  V30 3257 C 321.799 -1.58107 3.25091 0
M  V30 3258 O 321.52 -0.6922 4.32597 0
M  V30 3259 C 323.021 -2.39467 3.73055 0
M  V30 3260 H 320.241 -0.223558 0.632663 0
M  V30 3261 H 322.785 -0.044302 2.04452 0
M  V30 3262 H 320.94 -2.27503 3.13562 0
M  V30 3263 H 321.354 -1.24504 5.09508 0
M  V30 3264 H 322.828 -2.90716 4.69242 0
M  V30 3265 H 323.305 -3.18913 3.01979 0
M  V30 3266 H 323.911 -1.7523 3.87523 0
M  V30 3267 N 322.226 -1.5378 -0.344866 0
M  V30 3268 C 323.189 -1.80981 -1.40637 0
M  V30 3269 C 324.189 -0.680816 -1.45676 0
M  V30 3270 O 325.379 -0.949095 -1.46075 0
M  V30 3271 C 322.511 -1.95063 -2.79577 0
M  V30 3272 H 323.704 -2.75803 -1.17783 0
M  V30 3273 H 321.257 -1.45173 -0.579181 0
M  V30 3274 H 321.992 -1.02379 -3.07716 0
M  V30 3275 H 321.777 -2.77198 -2.77315 0
M  V30 3276 H 323.267 -2.17629 -3.56409 0
M  V30 3277 N 323.704 0.605807 -1.45491 0
M  V30 3278 C 324.981 1.36522 -1.40075 0
M  V30 3279 C 325.361 2.10976 -0.0722744 0
M  V30 3280 O 324.709 2.08007 0.945808 0
M  V30 3281 C 324.919 2.31056 -2.61561 0
M  V30 3282 C 326.267 2.93608 -3.06724 0
M  V30 3283 O 327.291 2.41376 -2.61946 0
M  V30 3284 O 326.15 3.88421 -3.84437 0
M  V30 3285 H 323.244 0.612248 -0.555951 0
M  V30 3286 H 325.79 0.628747 -1.57623 0
M  V30 3287 H 324.562 1.75311 -3.49831 0
M  V30 3288 H 324.185 3.12081 -2.46356 0
M  V30 3289 N 325.182 1.32811 0.848464 0
M  V30 3290 C 326.092 1.24278 1.98978 0
M  V30 3291 C 327.108 0.155176 1.73307 0
M  V30 3292 O 328.284 0.376999 1.9784 0
M  V30 3293 C 325.349 0.972444 3.32783 0
M  V30 3294 C 324.41 2.14911 3.71634 0
M  V30 3295 C 323.643 1.89157 4.99054 0
M  V30 3296 O 323.866 0.837165 5.64223 0
M  V30 3297 O 322.8 2.75433 5.35183 0
M  V30 3298 H 326.626 2.20238 2.09115 0
M  V30 3299 H 324.211 1.12762 0.980052 0
M  V30 3300 H 326.093 0.838432 4.12975 0
M  V30 3301 H 324.768 0.043051 3.23671 0
M  V30 3302 H 323.675 2.33862 2.91992 0
M  V30 3303 H 325.008 3.06151 3.85399 0
M  V30 3304 N 326.66 -1.06551 1.16123 0
M  V30 3305 C 327.59 -2.15935 0.88851 0
M  V30 3306 C 328.571 -1.69306 -0.164135 0
M  V30 3307 O 329.756 -1.94193 -0.0167857 0
M  V30 3308 C 326.886 -3.45149 0.385942 0
M  V30 3309 C 325.84 -4.05271 1.3762 0
M  V30 3310 C 325.166 -5.29664 0.732137 0
M  V30 3311 C 326.466 -4.44355 2.74493 0
M  V30 3312 H 328.16 -2.39006 1.80323 0
M  V30 3313 H 325.706 -1.14866 0.868435 0
M  V30 3314 H 327.659 -4.21004 0.182647 0
M  V30 3315 H 326.383 -3.21689 -0.564274 0
M  V30 3316 H 325.042 -3.3147 1.56599 0
M  V30 3317 H 324.69 -5.02499 -0.224483 0
M  V30 3318 H 324.39 -5.70848 1.39307 0
M  V30 3319 H 325.914 -6.08218 0.538802 0
M  V30 3320 H 327.328 -5.11303 2.59311 0
M  V30 3321 H 325.725 -4.96515 3.37035 0
M  V30 3322 H 326.795 -3.55339 3.29943 0
M  V30 3323 N 328.138 -0.959301 -1.25041 0
M  V30 3324 C 329.386 -0.615393 -1.92503 0
M  V30 3325 C 329.707 0.850969 -1.75452 0
M  V30 3326 O 328.977 1.60658 -1.12098 0
M  V30 3327 H 327.557 -0.224613 -0.712431 0
M  V30 3328 H 330.219 -1.21855 -1.5211 0
M  V30 3329 H 329.315 -0.848738 -3.00338 0
M  V30 3330 N 329.616 1.39756 -0.72842 0
M  V30 3331 C 330.864 2.00248 -0.272946 0
M  V30 3332 C 331.185 1.58077 1.14178 0
M  V30 3333 O 330.455 0.826014 1.77634 0
M  V30 3334 H 329.035 0.740554 -0.0979247 0
M  V30 3335 H 331.697 1.70903 -0.936912 0
M  V30 3336 H 330.793 3.10495 -0.316142 0
M  V30 3337 N 331.094 0.475555 1.50254 0
M  V30 3338 C 332.057 -0.305016 2.27161 0
M  V30 3339 C 333.057 -0.916519 1.32123 0
M  V30 3340 O 334.247 -0.785003 1.5551 0
M  V30 3341 C 331.379 -1.43496 3.09227 0
M  V30 3342 H 332.572 0.369511 2.97615 0
M  V30 3343 H 330.125 0.229747 1.54602 0
M  V30 3344 H 330.86 -2.14441 2.43281 0
M  V30 3345 H 330.645 -1.00223 3.79075 0
M  V30 3346 H 332.135 -1.98548 3.67381 0
M  V30 3347 N 332.573 -1.56217 0.208337 0
M  V30 3348 C 333.483 -2.23316 -0.718836 0
M  V30 3349 C 334.499 -1.23648 -1.22422 0
M  V30 3350 O 335.675 -1.56423 -1.26861 0
M  V30 3351 C 332.74 -2.88968 -1.91568 0
M  V30 3352 C 331.801 -4.03943 -1.45357 0
M  V30 3353 C 331.034 -4.66455 -2.59337 0
M  V30 3354 O 331.257 -4.27919 -3.77149 0
M  V30 3355 O 330.191 -5.55686 -2.31293 0
M  V30 3356 H 334.017 -3.03182 -0.177315 0
M  V30 3357 H 331.602 -1.49384 -0.0215402 0
M  V30 3358 H 333.484 -3.30455 -2.61491 0
M  V30 3359 H 332.159 -2.12071 -2.44556 0
M  V30 3360 H 331.066 -3.67052 -0.722746 0
M  V30 3361 H 332.399 -4.82543 -0.970219 0
M  V30 3362 N 334.051 0.0651679 -1.57465 0
M  V30 3363 C 335.014 1.06117 -2.03155 0
M  V30 3364 C 336.014 1.31204 -0.929632 0
M  V30 3365 O 337.204 1.26813 -1.19432 0
M  V30 3366 C 334.336 2.4032 -2.41783 0
M  V30 3367 H 335.529 0.667231 -2.92383 0
M  V30 3368 H 333.082 0.311075 -1.53173 0
M  V30 3369 H 333.817 2.84532 -1.55601 0
M  V30 3370 H 333.602 2.23451 -3.22199 0
M  V30 3371 H 335.092 3.11898 -2.77685 0
M  V30 3372 N 335.529 1.53961 0.336706 0
M  V30 3373 C 336.479 1.7881 1.41461 0
M  V30 3374 C 337.463 0.643561 1.47469 0
M  V30 3375 O 338.655 0.903166 1.52223 0
M  V30 3376 C 335.784 2.00722 2.78506 0
M  V30 3377 C 334.87 3.2126 2.76862 0
M  V30 3378 N 335.261 4.42588 2.44845 0
M  V30 3379 C 333.559 3.22568 3.08004 0
M  V30 3380 C 334.26 5.2447 2.51607 0
M  V30 3381 N 333.236 4.61344 2.87511 0
M  V30 3382 H 337.038 2.70205 1.15615 0
M  V30 3383 H 334.552 1.52978 0.545112 0
M  V30 3384 H 336.549 2.1666 3.5618 0
M  V30 3385 H 335.209 1.10573 3.05293 0
M  V30 3386 H 336.22 4.69819 2.17922 0
M  V30 3387 H 332.897 2.42409 3.39918 0
M  V30 3388 H 334.287 6.31324 2.29955 0
M  V30 3389 N 337.007 -0.598083 1.45811 0
M  V30 3390 C 337.94 -1.7223 1.49706 0
M  V30 3391 C 338.918 -1.58732 0.352535 0
M  V30 3392 O 340.102 -1.80162 0.554438 0
M  V30 3393 C 337.229 -3.10148 1.3611 0
M  V30 3394 C 336.275 -3.42209 2.54549 0
M  V30 3395 S 337.108 -3.35989 4.16979 0
M  V30 3396 C 338.264 -4.76471 4.05865 0
M  V30 3397 H 338.497 -1.68665 2.44826 0
M  V30 3398 H 336.03 -0.775541 1.33509 0
M  V30 3399 H 337.988 -3.8972 1.28953 0
M  V30 3400 H 336.649 -3.11219 0.424451 0
M  V30 3401 H 335.842 -4.42652 2.40988 0
M  V30 3402 H 335.444 -2.70173 2.58617 0
M  V30 3403 H 337.736 -5.665 3.71596 0
M  V30 3404 H 338.679 -4.95089 5.06253 0
M  V30 3405 H 339.087 -4.52599 3.37364 0
M  V30 3406 N 338.485 -1.33259 -0.841409 0
M  V30 3407 C 339.448 -1.23221 -1.9326 0
M  V30 3408 C 340.448 -0.151895 -1.60081 0
M  V30 3409 O 341.638 -0.403246 -1.69468 0
M  V30 3410 C 338.77 -0.898123 -3.28856 0
M  V30 3411 H 339.963 -2.2021 -2.03587 0
M  V30 3412 H 337.516 -1.17281 -1.03319 0
M  V30 3413 H 338.251 0.0693841 -3.24226 0
M  V30 3414 H 338.036 -1.67934 -3.54317 0
M  V30 3415 H 339.526 -0.852563 -4.08805 0
M  V30 3416 N 339.963 1.05934 -1.16686 0
M  V30 3417 C 341.212 1.78188 -0.945085 0
M  V30 3418 C 341.525 1.88338 0.528021 0
M  V30 3419 O 342.731 2.57258 0.867799 0
M  V30 3420 C 341.187 3.20277 -1.64167 0
M  V30 3421 C 340.795 3.18281 -3.15279 0
M  V30 3422 C 342.539 3.97039 -1.502 0
M  V30 3423 C 340.446 4.55112 -3.7766 0
M  V30 3424 H 339.376 0.667866 -0.349959 0
M  V30 3425 H 342.027 1.18794 -1.39858 0
M  V30 3426 H 340.409 3.79952 -1.11589 0
M  V30 3427 H 341.583 2.68167 -3.74731 0
M  V30 3428 H 339.898 2.55018 -3.29173 0
M  V30 3429 H 342.495 4.98194 -1.94183 0
M  V30 3430 H 342.838 4.13845 -0.451461 0
M  V30 3431 H 343.371 3.43894 -1.99954 0
M  V30 3432 H 340.11 4.43512 -4.82677 0
M  V30 3433 H 339.63 5.05406 -3.22994 0
M  V30 3434 H 341.309 5.24064 -3.79428 0
M  V30 3435 N 341.441 0.965919 1.2453 0
M  V30 3436 C 342.666 0.643971 1.97149 0
M  V30 3437 C 343.091 -0.779487 1.71189 0
M  V30 3438 O 342.449 -1.5288 0.974553 0
M  V30 3439 C 342.497 0.922557 3.48599 0
M  V30 3440 O 341.601 0.00707672 4.12399 0
M  V30 3441 H 340.942 0.243647 0.617683 0
M  V30 3442 H 343.472 1.29558 1.58353 0
M  V30 3443 H 343.482 0.853373 3.98976 0
M  V30 3444 H 342.157 1.95996 3.66822 0
M  V30 3445 H 340.734 0.12943 3.72675 0
M  V30 3446 N 342.919 -1.39368 0.735821 0
M  V30 3447 C 344.167 -2.00101 0.283562 0
M  V30 3448 C 344.488 -1.5868 -1.13338 0
M  V30 3449 O 343.758 -0.835423 -1.77193 0
M  V30 3450 H 342.338 -0.740024 0.101851 0
M  V30 3451 H 345 -1.70404 0.945962 0
M  V30 3452 H 344.096 -3.10323 0.332604 0
M  V30 3453 N 344.397 -0.483516 -1.5 0
M  V30 3454 C 345.345 0.318061 -2.30415 0
M  V30 3455 C 346.339 0.978988 -1.38247 0
M  V30 3456 O 347.545 0.908673 -1.55381 0
M  V30 3457 H 343.92 0.121419 -0.742133 0
M  V30 3458 H 345.891 -0.380403 -2.95965 0
M  V30 3459 C 344.64 1.38013 -3.19136 0
M  V30 3460 H 343.963 0.880952 -3.89973 0
M  V30 3461 H 345.403 1.91332 -3.78375 0
M  V30 3462 C 343.862 2.38884 -2.37563 0
M  V30 3463 O 344.392 3.44412 -2.06744 0
M  V30 3464 N 342.598 2.10912 -1.99911 0
M  V30 3465 H 342.145 1.25118 -2.25174 0
M  V30 3466 H 342.103 2.78635 -1.45636 0
M  V30 3467 N 345.875 1.56104 -0.216619 0
M  V30 3468 C 347.124 1.97348 0.416744 0
M  V30 3469 C 347.437 1.10715 1.6125 0
M  V30 3470 O 348.643 1.41836 2.31506 0
M  V30 3471 C 347.099 3.51059 0.792835 0
M  V30 3472 C 346.707 4.46387 -0.379828 0
M  V30 3473 C 348.451 4.01026 1.39208 0
M  V30 3474 C 346.358 5.91397 0.0184223 0
M  V30 3475 H 345.288 0.736942 0.159475 0
M  V30 3476 H 347.939 1.80827 -0.31205 0
M  V30 3477 H 346.321 3.63162 1.57891 0
M  V30 3478 H 347.495 4.46029 -1.15737 0
M  V30 3479 H 345.81 4.06734 -0.891979 0
M  V30 3480 H 348.407 5.0686 1.70286 0
M  V30 3481 H 348.75 3.46587 2.30614 0
M  V30 3482 H 349.283 3.92125 0.669537 0
M  V30 3483 H 346.022 6.49807 -0.862002 0
M  V30 3484 H 345.542 5.94961 0.760384 0
M  V30 3485 H 347.221 6.45455 0.446818 0
M  V30 3486 N 347.353 -0.0568162 1.57498 0
M  V30 3487 C 348.303 -1.07315 2.01166 0
M  V30 3488 C 349.287 -1.33632 0.896171 0
M  V30 3489 O 350.479 -1.33682 1.16009 0
M  V30 3490 C 347.608 -2.38257 2.47161 0
M  V30 3491 C 346.694 -2.1515 3.65474 0
M  V30 3492 N 347.085 -1.62014 4.7915 0
M  V30 3493 C 345.383 -2.45559 3.72313 0
M  V30 3494 C 346.084 -1.54069 5.60926 0
M  V30 3495 N 345.06 -2.00652 5.05213 0
M  V30 3496 H 348.862 -0.655878 2.86488 0
M  V30 3497 H 346.376 -0.263635 1.60246 0
M  V30 3498 H 348.373 -3.11845 2.76691 0
M  V30 3499 H 347.033 -2.80687 1.63232 0
M  V30 3500 H 348.044 -1.30667 5.01145 0
M  V30 3501 H 344.721 -2.91253 2.99129 0
M  V30 3502 H 346.111 -1.13712 6.62208 0
M  V30 3503 N 348.832 -1.54138 -0.328536 0
M  V30 3504 C 350.079 -1.72105 -1.06706 0
M  V30 3505 C 350.407 -0.492111 -1.88171 0
M  V30 3506 O 349.662 0.526153 -1.88494 0
M  V30 3507 C 349.961 -2.9457 -2.02393 0
M  V30 3508 C 349.627 -4.29544 -1.37122 0
M  V30 3509 C 348.289 -4.6624 -1.19052 0
M  V30 3510 C 350.641 -5.1333 -0.902331 0
M  V30 3511 C 347.969 -5.84325 -0.527331 0
M  V30 3512 C 350.321 -6.32094 -0.252988 0
M  V30 3513 C 348.985 -6.67473 -0.0600901 0
M  V30 3514 H 348.255 -0.629775 -0.390466 0
M  V30 3515 H 350.902 -1.88372 -0.34473 0
M  V30 3516 H 349.207 -2.72969 -2.81061 0
M  V30 3517 H 350.904 -3.05665 -2.59557 0
M  V30 3518 H 347.494 -4.0067 -1.52188 0
M  V30 3519 H 351.678 -4.855 -1.02974 0
M  V30 3520 H 346.934 -6.103 -0.366634 0
M  V30 3521 H 351.108 -6.96299 0.118366 0
M  V30 3522 H 348.735 -7.58832 0.455828 0
M  V30 3523 N 350.31 0.590341 -1.46126 0
M  V30 3524 C 351.556 1.35082 -1.51264 0
M  V30 3525 C 351.889 1.93534 -0.160711 0
M  V30 3526 O 351.164 1.76045 0.826956 0
M  V30 3527 C 351.447 2.48588 -2.6053 0
M  V30 3528 C 351.3 1.95221 -4.05227 0
M  V30 3529 C 352.619 3.50662 -2.6594 0
M  V30 3530 H 349.738 0.489803 -0.550692 0
M  V30 3531 H 352.38 0.663887 -1.78024 0
M  V30 3532 H 350.53 3.07186 -2.37843 0
M  V30 3533 H 352.202 1.41139 -4.39178 0
M  V30 3534 H 350.445 1.26101 -4.15068 0
M  V30 3535 H 351.116 2.77121 -4.77397 0
M  V30 3536 H 353.592 3.01934 -2.86313 0
M  V30 3537 H 352.468 4.27551 -3.44226 0
M  V30 3538 H 352.729 4.07399 -1.71694 0
M  V30 3539 N 351.788 1.33704 0.83433 0
M  V30 3540 C 352.751 1.24244 1.92603 0
M  V30 3541 C 353.751 0.160383 1.59998 0
M  V30 3542 O 354.941 0.412228 1.69252 0
M  V30 3543 C 352.073 0.91555 3.28376 0
M  V30 3544 H 353.266 2.21287 2.02416 0
M  V30 3545 H 350.819 1.17827 1.02696 0
M  V30 3546 H 351.554 -0.0521886 3.24258 0
M  V30 3547 H 351.339 1.69811 3.53422 0
M  V30 3548 H 352.829 0.874231 4.08347 0
M  V30 3549 N 353.266 -1.05314 1.17247 0
M  V30 3550 C 354.176 -2.16538 0.90268 0
M  V30 3551 C 355.192 -1.73523 -0.128707 0
M  V30 3552 O 356.368 -2.01337 0.0502701 0
M  V30 3553 C 353.433 -3.44167 0.418356 0
M  V30 3554 C 352.494 -4.01635 1.51618 0
M  V30 3555 C 351.727 -5.23171 1.05487 0
M  V30 3556 O 351.95 -5.70327 -0.0914715 0
M  V30 3557 O 350.884 -5.72848 1.8474 0
M  V30 3558 H 354.71 -2.42145 1.83302 0
M  V30 3559 H 352.295 -1.15037 0.953246 0
M  V30 3560 H 354.177 -4.21112 0.155726 0
M  V30 3561 H 352.852 -3.20063 -0.48385 0
M  V30 3562 H 351.759 -3.26135 1.83268 0
M  V30 3563 H 353.092 -4.30053 2.39405 0
M  V30 3564 N 354.744 -0.972509 -1.24016 0
M  V30 3565 C 356.021 -0.553733 -1.87598 0
M  V30 3566 C 356.401 0.969158 -1.87538 0
M  V30 3567 O 355.749 1.84255 -1.35139 0
M  V30 3568 C 355.959 -1.15076 -3.29482 0
M  V30 3569 C 357.307 -1.23862 -4.06132 0
M  V30 3570 O 358.331 -1.10363 -3.38672 0
M  V30 3571 O 357.19 -1.45252 -5.26844 0
M  V30 3572 H 354.284 -0.185331 -0.805966 0
M  V30 3573 H 356.83 -1.06709 -1.31952 0
M  V30 3574 H 355.602 -2.19333 -3.2405 0
M  V30 3575 H 355.225 -0.621746 -3.92709 0
M  V30 3576 N 356.222 1.38976 -0.743202 0
M  V30 3577 C 357.499 1.94351 -0.220705 0
M  V30 3578 C 357.879 1.67935 1.2791 0
M  V30 3579 O 357.227 1.01211 2.04862 0
M  V30 3580 C 357.437 3.44426 -0.563171 0
M  V30 3581 C 358.785 4.2144 -0.517046 0
M  V30 3582 O 359.809 3.52661 -0.500846 0
M  V30 3583 O 358.668 5.44032 -0.518806 0
M  V30 3584 H 355.762 0.825879 -0.043047 0
M  V30 3585 H 358.308 1.48429 -0.822618 0
M  V30 3586 H 357.08 3.5712 -1.59941 0
M  V30 3587 H 356.703 3.97543 0.0672883 0
M  V30 3588 N 357.7 0.491464 1.49741 0
M  V30 3589 C 358.977 -0.118984 1.95238 0
M  V30 3590 C 359.357 -1.55044 1.43264 0
M  V30 3591 O 358.705 -2.19287 0.642287 0
M  V30 3592 C 358.915 -0.0414187 3.48975 0
M  V30 3593 C 360.263 -0.220133 4.24029 0
M  V30 3594 O 361.287 -0.117055 3.56008 0
M  V30 3595 O 360.146 -0.430567 5.44801 0
M  V30 3596 H 357.24 -0.100536 0.820866 0
M  V30 3597 H 359.786 0.553322 1.60426 0
M  V30 3598 H 358.558 0.957214 3.79412 0
M  V30 3599 H 358.181 -0.754292 3.9038 0
M  V30 3600 N 359.178 -1.55987 0.224894 0
M  V30 3601 C 360.141 -2.19178 -0.670348 0
M  V30 3602 C 361.141 -1.15461 -1.11917 0
M  V30 3603 O 362.331 -1.40675 -1.02743 0
M  V30 3604 C 359.463 -2.81777 -1.9187 0
M  V30 3605 H 360.656 -2.99662 -0.119364 0
M  V30 3606 H 358.209 -1.5628 -0.0247128 0
M  V30 3607 H 358.944 -2.05172 -2.51147 0
M  V30 3608 H 358.729 -3.57732 -1.60531 0
M  V30 3609 H 360.219 -3.30205 -2.55645 0
M  V30 3610 N 360.656 0.0484629 -1.57525 0
M  V30 3611 C 361.619 1.03956 -2.04269 0
M  V30 3612 C 362.619 1.30211 -0.943496 0
M  V30 3613 O 363.809 1.25539 -1.20771 0
M  V30 3614 C 360.941 2.37742 -2.44319 0
M  V30 3615 H 362.134 0.636182 -2.93075 0
M  V30 3616 H 359.687 0.294811 -1.53494 0
M  V30 3617 H 360.422 2.82866 -1.5861 0
M  V30 3618 H 360.207 2.20021 -3.24551 0
M  V30 3619 H 361.697 3.08936 -2.80978 0
M  V30 3620 N 362.134 1.5431 0.320358 0
M  V30 3621 C 363.044 1.86946 1.41734 0
M  V30 3622 C 364.06 0.761689 1.56443 0
M  V30 3623 O 365.236 1.05629 1.71477 0
M  V30 3624 C 362.301 2.09293 2.76401 0
M  V30 3625 C 361.362 3.33082 2.70841 0
M  V30 3626 C 360.595 3.54353 3.99086 0
M  V30 3627 O 360.818 2.79002 4.97508 0
M  V30 3628 O 359.752 4.47838 4.0215 0
M  V30 3629 H 363.578 2.80232 1.17062 0
M  V30 3630 H 361.163 1.40255 0.514673 0
M  V30 3631 H 363.045 2.25303 3.56113 0
M  V30 3632 H 361.72 1.19194 3.00956 0
M  V30 3633 H 360.627 3.22454 1.89668 0
M  V30 3634 H 361.96 4.23249 2.5124 0
M  V30 3635 N 363.613 -0.582584 1.46437 0
M  V30 3636 C 364.543 -1.70187 1.59871 0
M  V30 3637 C 365.524 -1.64066 0.449042 0
M  V30 3638 O 366.709 -1.82081 0.6753 0
M  V30 3639 C 363.839 -3.08827 1.58881 0
M  V30 3640 C 362.793 -3.29779 2.72819 0
M  V30 3641 C 362.119 -4.68947 2.5689 0
M  V30 3642 C 363.419 -3.17601 4.1464 0
M  V30 3643 H 365.113 -1.592 2.53566 0
M  V30 3644 H 362.659 -0.764472 1.22032 0
M  V30 3645 H 364.612 -3.86951 1.66873 0
M  V30 3646 H 363.336 -3.20713 0.617306 0
M  V30 3647 H 361.995 -2.54054 2.64296 0
M  V30 3648 H 361.643 -4.77599 1.57823 0
M  V30 3649 H 361.343 -4.83919 3.33312 0
M  V30 3650 H 362.867 -5.4924 2.66773 0
M  V30 3651 H 364.281 -3.8557 4.24274 0
M  V30 3652 H 362.678 -3.44094 4.9165 0
M  V30 3653 H 363.748 -2.14681 4.34788 0
M  V30 3654 N 365.091 -1.34144 -0.827227 0
M  V30 3655 C 366.34 -1.25602 -1.5782 0
M  V30 3656 C 366.653 0.173445 -1.94829 0
M  V30 3657 O 367.859 0.380984 -2.68814 0
M  V30 3658 C 366.315 -2.20151 -2.84713 0
M  V30 3659 C 365.923 -3.68331 -2.55021 0
M  V30 3660 C 367.667 -2.20508 -3.62735 0
M  V30 3661 C 365.574 -4.54762 -3.78082 0
M  V30 3662 H 364.504 -0.466573 -0.592306 0
M  V30 3663 H 367.155 -1.59283 -0.911116 0
M  V30 3664 H 365.537 -1.79417 -3.53023 0
M  V30 3665 H 366.711 -4.17577 -1.94849 0
M  V30 3666 H 365.026 -3.7038 -1.90283 0
M  V30 3667 H 367.623 -2.82306 -4.54101 0
M  V30 3668 H 367.966 -1.20322 -3.98533 0
M  V30 3669 H 368.499 -2.59664 -3.01362 0
M  V30 3670 H 365.238 -5.55867 -3.47407 0
M  V30 3671 H 364.758 -4.10254 -4.37552 0
M  V30 3672 H 366.437 -4.69153 -4.45538 0
M  V30 3673 N 366.569 1.04691 -1.17803 0
M  V30 3674 C 367.532 2.10724 -0.901545 0
M  V30 3675 C 368.532 1.6042 0.110437 0
M  V30 3676 O 369.722 1.7377 -0.122303 0
M  V30 3677 C 366.854 3.39084 -0.351409 0
M  V30 3678 H 368.047 2.36686 -1.84174 0
M  V30 3679 H 365.6 1.21015 -0.98919 0
M  V30 3680 H 366.335 3.18782 0.59569 0
M  V30 3681 H 366.12 3.76909 -1.08083 0
M  V30 3682 H 367.61 4.17227 -0.176451 0
M  V30 3683 N 368.047 0.979072 1.23499 0
M  V30 3684 C 368.994 0.517904 2.24914 0
M  V30 3685 C 369.964 -0.442525 1.60097 0
M  V30 3686 O 371.149 -0.350365 1.87556 0
M  V30 3687 C 368.289 -0.174813 3.44657 0
M  V30 3688 C 367.402 0.825721 4.24035 0
M  V30 3689 C 366.537 0.107946 5.3109 0
M  V30 3690 C 365.576 1.09778 6.02175 0
M  V30 3691 N 364.713 0.40925 7.00906 0
M  V30 3692 H 369.553 1.38751 2.63727 0
M  V30 3693 H 367.09 0.695303 1.2963 0
M  V30 3694 H 369.048 -0.593233 4.12961 0
M  V30 3695 H 367.678 -1.0083 3.06648 0
M  V30 3696 H 366.73 1.36253 3.55161 0
M  V30 3697 H 368.042 1.58005 4.73113 0
M  V30 3698 H 367.196 -0.367904 6.05583 0
M  V30 3699 H 365.935 -0.678994 4.8295 0
M  V30 3700 H 364.94 1.5844 5.26476 0
M  V30 3701 H 366.165 1.88536 6.52404 0
M  V30 3702 H 364.111 -0.358506 6.5502 0
M  V30 3703 H 364.028 1.10226 7.47921 0
M  V30 3704 H 365.296 -0.0442557 7.79487 0
M  V30 3705 N 369.525 -1.3858 0.750561 0
M  V30 3706 C 370.472 -2.30483 0.120835 0
M  V30 3707 C 371.442 -1.50022 -0.712923 0
M  V30 3708 O 372.627 -1.78662 -0.669676 0
M  V30 3709 C 369.767 -3.36431 -0.768666 0
M  V30 3710 C 368.88 -4.31927 0.0793922 0
M  V30 3711 C 368.015 -5.24944 -0.81283 0
M  V30 3712 C 367.054 -6.12088 0.0390447 0
M  V30 3713 N 366.191 -6.97412 -0.809969 0
M  V30 3714 H 371.031 -2.83761 0.91015 0
M  V30 3715 H 368.568 -1.39707 0.460463 0
M  V30 3716 H 370.526 -3.96462 -1.29898 0
M  V30 3717 H 369.156 -2.8457 -1.5238 0
M  V30 3718 H 368.208 -3.73382 0.727303 0
M  V30 3719 H 369.52 -4.93319 0.737401 0
M  V30 3720 H 368.674 -5.90078 -1.41042 0
M  V30 3721 H 367.413 -4.63911 -1.50458 0
M  V30 3722 H 366.418 -5.45952 0.649328 0
M  V30 3723 H 367.643 -6.75189 0.727809 0
M  V30 3724 H 365.589 -6.38931 -1.48672 0
M  V30 3725 H 365.506 -7.55712 -0.208789 0
M  V30 3726 H 366.774 -7.66959 -1.39263 0
M  V30 3727 N 371.003 -0.499398 -1.49478 0
M  V30 3728 C 371.933 0.269244 -2.31943 0
M  V30 3729 C 372.914 0.964054 -1.40143 0
M  V30 3730 O 374.099 0.955767 -1.69052 0
M  V30 3731 C 371.229 1.33504 -3.20615 0
M  V30 3732 C 370.183 0.760202 -4.21195 0
M  V30 3733 C 369.509 1.9264 -4.98792 0
M  V30 3734 C 370.809 -0.247661 -5.21712 0
M  V30 3735 H 372.503 -0.419082 -2.96452 0
M  V30 3736 H 370.049 -0.202988 -1.42562 0
M  V30 3737 H 372.002 1.88048 -3.77115 0
M  V30 3738 H 370.726 2.05253 -2.54045 0
M  V30 3739 H 369.385 0.23653 -3.65836 0
M  V30 3740 H 369.033 2.63154 -4.28671 0
M  V30 3741 H 368.733 1.54785 -5.66847 0
M  V30 3742 H 370.257 2.4762 -5.58137 0
M  V30 3743 H 371.671 0.209579 -5.72917 0
M  V30 3744 H 370.068 -0.541962 -5.97648 0
M  V30 3745 H 371.138 -1.16409 -4.7072 0
M  V30 3746 N 372.481 1.55866 -0.233164 0
M  V30 3747 C 373.411 2.23783 0.666599 0
M  V30 3748 C 374.392 1.21343 1.19205 0
M  V30 3749 O 375.577 1.4996 1.23392 0
M  V30 3750 C 372.707 2.92671 1.86978 0
M  V30 3751 C 371.661 4.01682 1.47768 0
M  V30 3752 C 370.987 4.57926 2.76058 0
M  V30 3753 C 372.287 5.18126 0.658993 0
M  V30 3754 H 373.981 2.99232 0.100306 0
M  V30 3755 H 371.527 1.43924 0.046804 0
M  V30 3756 H 373.48 3.3888 2.50476 0
M  V30 3757 H 372.204 2.14688 2.46123 0
M  V30 3758 H 370.863 3.56222 0.866106 0
M  V30 3759 H 370.511 3.76659 3.33372 0
M  V30 3760 H 370.211 5.31505 2.50552 0
M  V30 3761 H 371.735 5.06859 3.40479 0
M  V30 3762 H 373.149 5.60644 1.19795 0
M  V30 3763 H 371.546 5.98009 0.500552 0
M  V30 3764 H 372.616 4.83763 -0.331856 0
M  V30 3765 N 373.959 -0.0401083 1.57549 0
M  V30 3766 C 375.184 -0.748931 1.93406 0
M  V30 3767 C 375.609 -1.68686 0.832274 0
M  V30 3768 O 374.967 -1.80047 -0.212818 0
M  V30 3769 C 375.015 -1.4916 3.28304 0
M  V30 3770 O 374.119 -2.6042 3.19774 0
M  V30 3771 H 373.46 -0.202212 0.63246 0
M  V30 3772 H 375.99 0.00112086 2.046 0
M  V30 3773 H 376 -1.86395 3.62934 0
M  V30 3774 H 374.675 -0.80364 4.08062 0
M  V30 3775 H 373.252 -2.25808 2.96758 0
M  V30 3776 N 375.437 -1.54477 -0.31217 0
M  V30 3777 C 376.684 -1.73227 -1.04875 0
M  V30 3778 C 377.012 -0.512042 -1.87639 0
M  V30 3779 O 376.267 0.506131 -1.89042 0
M  V30 3780 C 376.566 -2.967 -1.99258 0
M  V30 3781 C 376.232 -4.30974 -1.32559 0
M  V30 3782 C 374.894 -4.67477 -1.141 0
M  V30 3783 C 377.246 -5.14258 -0.847835 0
M  V30 3784 C 374.574 -5.84852 -0.465326 0
M  V30 3785 C 376.926 -6.32327 -0.185931 0
M  V30 3786 C 375.59 -6.67499 0.0107077 0
M  V30 3787 H 374.86 -0.633881 -0.383765 0
M  V30 3788 H 377.507 -1.88727 -0.324731 0
M  V30 3789 H 375.812 -2.75935 -2.7815 0
M  V30 3790 H 377.509 -3.08401 -2.563 0
M  V30 3791 H 374.099 -4.02262 -1.4793 0
M  V30 3792 H 378.283 -4.86565 -0.978192 0
M  V30 3793 H 373.539 -6.10654 -0.301883 0
M  V30 3794 H 377.713 -6.96135 0.192211 0
M  V30 3795 H 375.34 -7.58306 0.536287 0
M  V30 3796 N 376.915 0.57481 -1.46744 0
M  V30 3797 C 377.845 1.69337 -1.60771 0
M  V30 3798 C 378.826 1.63825 -0.457736 0
M  V30 3799 O 380.011 1.8172 -0.684947 0
M  V30 3800 C 377.141 3.0798 -1.60517 0
M  V30 3801 C 376.095 3.28327 -2.74564 0
M  V30 3802 C 375.421 4.67578 -2.59373 0
M  V30 3803 C 376.721 3.15398 -4.16319 0
M  V30 3804 H 378.415 1.57853 -2.54407 0
M  V30 3805 H 375.961 0.75799 -1.22436 0
M  V30 3806 H 377.914 3.86061 -1.68923 0
M  V30 3807 H 376.638 3.20381 -0.634305 0
M  V30 3808 H 375.297 2.52649 -2.65639 0
M  V30 3809 H 374.945 4.76755 -1.60353 0
M  V30 3810 H 374.645 4.82144 -3.35873 0
M  V30 3811 H 376.169 5.47817 -2.69682 0
M  V30 3812 H 377.583 3.83315 -4.26313 0
M  V30 3813 H 375.98 3.41482 -4.93468 0
M  V30 3814 H 377.05 2.12372 -4.3592 0
M  V30 3815 N 378.394 1.34581 0.820102 0
M  V30 3816 C 379.805 1.24298 1.39309 0
M  V30 3817 C 380.156 -0.130351 1.95767 0
M  V30 3818 O 379.281 -1.0308 1.90272 0
M  V30 3819 C 379.876 2.25054 2.53251 0
M  V30 3820 C 378.435 2.18552 3.0645 0
M  V30 3821 C 377.582 2.11503 1.79337 0
M  V30 3822 H 380.533 1.45906 0.624262 0
M  V30 3823 H 380.554 1.86917 3.31425 0
M  V30 3824 H 380.066 3.24996 2.1213 0
M  V30 3825 H 378.167 1.21976 3.52069 0
M  V30 3826 H 378.28 3.0993 3.65349 0
M  V30 3827 H 376.644 1.57268 2.00347 0
M  V30 3828 H 377.427 3.13284 1.40386 0
M  V30 3829 N 379.872 -1.04064 1.18357 0
M  V30 3830 C 380.804 -2.12114 0.868358 0
M  V30 3831 C 381.817 -1.62247 -0.134045 0
M  V30 3832 O 383.006 -1.78253 0.0937933 0
M  V30 3833 C 380.106 -3.37773 0.276132 0
M  V30 3834 C 379.279 -4.16874 1.3242 0
M  V30 3835 C 378.338 -5.20861 0.747662 0
M  V30 3836 O 377.364 -5.51141 1.42239 0
M  V30 3837 N 378.566 -5.78715 -0.454823 0
M  V30 3838 H 381.331 -2.39748 1.79836 0
M  V30 3839 H 378.892 -1.20258 1.08396 0
M  V30 3840 H 380.884 -4.04513 -0.123133 0
M  V30 3841 H 379.454 -3.07581 -0.557895 0
M  V30 3842 H 378.674 -3.45456 1.89878 0
M  V30 3843 H 379.962 -4.66516 2.03078 0
M  V30 3844 H 379.36 -5.56415 -1.02073 0
M  V30 3845 H 377.917 -6.46921 -0.79601 0
M  V30 3846 N 381.35 -0.985608 -1.22978 0
M  V30 3847 C 382.298 -0.522631 -2.26652 0
M  V30 3848 C 383.292 0.422998 -1.64034 0
M  V30 3849 O 384.498 0.296319 -1.77544 0
M  V30 3850 H 380.873 -0.150597 -0.736766 0
M  V30 3851 H 382.844 -1.40863 -2.63059 0
M  V30 3852 C 381.593 0.154238 -3.47358 0
M  V30 3853 H 380.916 -0.564329 -3.95797 0
M  V30 3854 H 382.356 0.441744 -4.21693 0
M  V30 3855 C 380.815 1.38719 -3.07016 0
M  V30 3856 O 381.345 2.48307 -3.15764 0
M  V30 3857 N 379.551 1.25975 -2.61875 0
M  V30 3858 H 379.098 0.368068 -2.54957 0
M  V30 3859 H 379.056 2.08578 -2.3525 0
M  V30 3860 N 382.828 1.3818 -0.7579 0
M  V30 3861 C 383.776 2.32277 -0.122482 0
M  V30 3862 C 384.77 1.54238 0.700505 0
M  V30 3863 O 385.976 1.69737 0.599119 0
M  V30 3864 H 382.351 0.751712 -0.0208143 0
M  V30 3865 H 384.322 2.83469 -0.932099 0
M  V30 3866 C 383.071 3.39447 0.753076 0
M  V30 3867 H 382.394 3.99591 0.129184 0
M  V30 3868 H 383.834 4.07684 1.16489 0
M  V30 3869 C 382.293 2.78375 1.8976 0
M  V30 3870 O 382.823 2.68025 2.99208 0
M  V30 3871 N 381.029 2.36121 1.69397 0
M  V30 3872 H 380.576 2.4474 0.803762 0
M  V30 3873 H 380.534 1.95602 2.46145 0
M  V30 3874 N 384.306 0.507319 1.49211 0
M  V30 3875 C 385.534 -0.0315749 2.06876 0
M  V30 3876 C 385.949 -1.30241 1.36685 0
M  V30 3877 O 385.306 -1.76937 0.447152 0
M  V30 3878 C 385.357 -0.282627 3.60393 0
M  V30 3879 O 385.078 0.937835 4.27944 0
M  V30 3880 C 386.579 -0.864453 4.3479 0
M  V30 3881 H 383.799 0.0233048 0.670595 0
M  V30 3882 H 386.343 0.706484 1.91909 0
M  V30 3883 H 384.498 -0.97068 3.75042 0
M  V30 3884 H 384.912 0.704567 5.19746 0
M  V30 3885 H 386.386 -0.989664 5.43056 0
M  V30 3886 H 386.863 -1.86382 3.97692 0
M  V30 3887 H 387.469 -0.213672 4.24763 0
M  V30 3888 N 385.784 -1.5574 0.241426 0
M  V30 3889 C 386.694 -2.2479 -0.671305 0
M  V30 3890 C 387.71 -1.26217 -1.19772 0
M  V30 3891 O 388.886 -1.59079 -1.23514 0
M  V30 3892 C 385.951 -2.92966 -1.85396 0
M  V30 3893 C 385.012 -4.06935 -1.36756 0
M  V30 3894 C 384.245 -4.71851 -2.49384 0
M  V30 3895 O 384.468 -4.35823 -3.67987 0
M  V30 3896 O 383.402 -5.60467 -2.19454 0
M  V30 3897 H 387.228 -3.0349 -0.112966 0
M  V30 3898 H 384.813 -1.49397 0.0101513 0
M  V30 3899 H 386.695 -3.35927 -2.54423 0
M  V30 3900 H 385.37 -2.17211 -2.40002 0
M  V30 3901 H 384.277 -3.68503 -0.644726 0
M  V30 3902 H 385.61 -4.84492 -0.867647 0
M  V30 3903 N 387.262 0.0317525 -1.57568 0
M  V30 3904 C 388.172 1.05021 -2.0978 0
M  V30 3905 C 389.188 1.39809 -1.03583 0
M  V30 3906 O 390.364 1.49182 -1.35302 0
M  V30 3907 C 387.429 2.33301 -2.56459 0
M  V30 3908 C 386.49 2.0512 -3.77127 0
M  V30 3909 C 385.723 3.27283 -4.2157 0
M  V30 3910 O 385.946 4.37861 -3.65559 0
M  V30 3911 O 384.88 3.13141 -5.14029 0
M  V30 3912 H 388.706 0.636505 -2.96955 0
M  V30 3913 H 386.291 0.248559 -1.47318 0
M  V30 3914 H 388.173 3.08722 -2.86825 0
M  V30 3915 H 386.848 2.73973 -1.72397 0
M  V30 3916 H 385.755 1.27276 -3.51784 0
M  V30 3917 H 387.088 1.69305 -4.62165 0
M  V30 3918 N 388.74 1.54641 0.303973 0
M  V30 3919 C 389.703 1.84646 1.35789 0
M  V30 3920 C 390.703 0.7192 1.4382 0
M  V30 3921 O 391.893 0.987491 1.43507 0
M  V30 3922 C 389.025 2.02407 2.74307 0
M  V30 3923 H 390.218 2.78829 1.10429 0
M  V30 3924 H 387.771 1.46658 0.540487 0
M  V30 3925 H 388.506 1.10502 3.04893 0
M  V30 3926 H 388.291 2.84453 2.69868 0
M  V30 3927 H 389.781 2.27002 3.50514 0
M  V30 3928 N 390.218 -0.567019 1.47046 0
M  V30 3929 C 391.443 -1.3551 1.57009 0
M  V30 3930 C 391.868 -1.86841 0.217259 0
M  V30 3931 O 391.226 -1.62435 -0.805268 0
M  V30 3932 C 391.274 -2.50777 2.5912 0
M  V30 3933 O 390.378 -3.52706 2.13711 0
M  V30 3934 H 389.719 -0.402919 0.52778 0
M  V30 3935 H 392.249 -0.686241 1.92748 0
M  V30 3936 H 392.259 -2.97481 2.79229 0
M  V30 3937 H 390.934 -2.12771 3.57353 0
M  V30 3938 H 389.511 -3.12374 2.03659 0
M  V30 3939 N 391.696 -1.35014 -0.812953 0
M  V30 3940 C 392.943 -1.27931 -1.56971 0
M  V30 3941 C 393.271 0.148034 -1.93936 0
M  V30 3942 O 392.526 1.11175 -1.61054 0
M  V30 3943 C 392.825 -2.12524 -2.87347 0
M  V30 3944 C 392.491 -3.61401 -2.6963 0
M  V30 3945 C 391.153 -4.01983 -2.64506 0
M  V30 3946 C 393.505 -4.55894 -2.52607 0
M  V30 3947 C 390.833 -5.35235 -2.40293 0
M  V30 3948 C 393.185 -5.89336 -2.29925 0
M  V30 3949 C 391.849 -6.2907 -2.23219 0
M  V30 3950 H 391.119 -0.468131 -0.574399 0
M  V30 3951 H 393.766 -1.66851 -0.939836 0
M  V30 3952 H 392.071 -1.66463 -3.54679 0
M  V30 3953 H 393.768 -2.04383 -3.45005 0
M  V30 3954 H 390.358 -3.29193 -2.74463 0
M  V30 3955 H 394.542 -4.25431 -2.55583 0
M  V30 3956 H 389.798 -5.65028 -2.33566 0
M  V30 3957 H 393.972 -6.62139 -2.15743 0
M  V30 3958 H 391.599 -7.32256 -2.04219 0
M  V30 3959 N 393.175 1.03435 -1.18907 0
M  V30 3960 C 394.421 1.77005 -0.989798 0
M  V30 3961 C 394.754 1.88205 0.478816 0
M  V30 3962 O 394.029 1.39481 1.35556 0
M  V30 3963 C 394.312 3.19925 -1.65287 0
M  V30 3964 C 394.165 3.1663 -3.19477 0
M  V30 3965 C 395.484 4.18189 -1.37134 0
M  V30 3966 H 392.603 0.642538 -0.360991 0
M  V30 3967 H 395.245 1.20784 -1.46667 0
M  V30 3968 H 393.395 3.67929 -1.24741 0
M  V30 3969 H 395.067 2.76567 -3.692 0
M  V30 3970 H 393.31 2.54491 -3.51307 0
M  V30 3971 H 393.981 4.1758 -3.61013 0
M  V30 3972 H 396.457 3.78761 -1.72276 0
M  V30 3973 H 395.333 5.16394 -1.86087 0
M  V30 3974 H 395.594 4.41112 -0.295424 0
M  V30 3975 N 394.653 0.992116 1.22453 0
M  V30 3976 C 395.601 0.534644 2.26372 0
M  V30 3977 C 396.595 -0.414293 1.64256 0
M  V30 3978 O 397.801 -0.286899 1.77699 0
M  V30 3979 H 394.176 0.154502 0.735957 0
M  V30 3980 H 396.147 1.42256 2.62309 0
M  V30 3981 C 394.896 -0.135815 3.47435 0
M  V30 3982 H 394.219 0.585311 3.95492 0
M  V30 3983 H 395.659 -0.419374 4.21921 0
M  V30 3984 C 394.118 -1.37089 3.07747 0
M  V30 3985 O 394.648 -2.46629 3.17076 0
M  V30 3986 N 392.854 -1.24585 2.62539 0
M  V30 3987 H 392.401 -0.354542 2.55149 0
M  V30 3988 H 392.359 -2.07327 2.36353 0
M  V30 3989 N 396.131 -1.37776 0.765217 0
M  V30 3990 C 397.542 -1.82521 0.392819 0
M  V30 3991 C 397.893 -1.63789 -1.08017 0
M  V30 3992 O 397.018 -1.14542 -1.83601 0
M  V30 3993 C 397.613 -3.31358 0.706214 0
M  V30 3994 C 396.172 -3.74406 0.386952 0
M  V30 3995 C 395.319 -2.60394 0.953422 0
M  V30 3996 H 398.27 -1.2634 0.960412 0
M  V30 3997 H 398.291 -3.80498 -0.0114706 0
M  V30 3998 H 397.803 -3.44959 1.77833 0
M  V30 3999 H 395.904 -3.66377 -0.678112 0
M  V30 4000 H 396.017 -4.70749 0.890636 0
M  V30 4001 H 394.381 -2.51878 0.378064 0
M  V30 4002 H 395.164 -2.76791 2.03081 0
M  V30 4003 N 397.609 -0.515225 -1.4894 0
M  V30 4004 C 398.557 0.269115 -2.31038 0
M  V30 4005 C 399.551 0.949443 -1.40292 0
M  V30 4006 O 400.757 0.87551 -1.57273 0
M  V30 4007 H 397.132 0.10565 -0.744542 0
M  V30 4008 H 399.103 -0.443096 -2.95092 0
M  V30 4009 C 397.852 1.31213 -3.21991 0
M  V30 4010 H 397.175 0.798034 -3.91754 0
M  V30 4011 H 398.615 1.83263 -3.82349 0
M  V30 4012 C 397.074 2.33791 -2.42576 0
M  V30 4013 O 397.604 3.3995 -2.14003 0
M  V30 4014 N 395.81 2.06625 -2.0434 0
M  V30 4015 H 395.357 1.20314 -2.27777 0
M  V30 4016 H 395.315 2.75483 -1.51514 0
M  V30 4017 N 399.087 1.5561 -0.249682 0
M  V30 4018 C 400.035 2.22894 0.664906 0
M  V30 4019 C 401.029 1.21743 1.17792 0
M  V30 4020 O 402.235 1.39748 1.13449 0
M  V30 4021 H 398.61 0.715022 0.232912 0
M  V30 4022 H 400.581 2.98307 0.0742998 0
M  V30 4023 C 399.33 2.94424 1.84959 0
M  V30 4024 H 398.653 3.72031 1.46399 0
M  V30 4025 H 400.093 3.44862 2.4667 0
M  V30 4026 C 398.552 1.98454 2.72245 0
M  V30 4027 O 399.082 1.51939 3.71857 0
M  V30 4028 N 397.288 1.65496 2.38871 0
M  V30 4029 H 396.835 2.03517 1.57919 0
M  V30 4030 H 396.793 1.0155 2.97548 0
M  V30 4031 N 400.565 -0.0233959 1.57583 0
M  V30 4032 C 401.842 -0.748794 1.807 0
M  V30 4033 C 402.222 -1.9327 0.849106 0
M  V30 4034 O 401.57 -2.28247 -0.107468 0
M  V30 4035 C 401.78 -1.17651 3.28571 0
M  V30 4036 C 403.128 -1.59008 3.93702 0
M  V30 4037 O 404.152 -1.27094 3.32755 0
M  V30 4038 O 403.011 -2.18264 5.01022 0
M  V30 4039 H 400.105 -0.362578 0.743281 0
M  V30 4040 H 402.651 0.000261958 1.697 0
M  V30 4041 H 401.423 -0.331603 3.89892 0
M  V30 4042 H 401.046 -1.98541 3.44481 0
M  V30 4043 N 402.043 -1.548 -0.295768 0
M  V30 4044 C 403.289 -1.74588 -1.03184 0
M  V30 4045 C 403.622 -0.532962 -1.86744 0
M  V30 4046 O 402.897 0.469872 -1.88739 0
M  V30 4047 C 403.18 -3.03791 -1.93347 0
M  V30 4048 C 403.033 -4.35392 -1.12933 0
M  V30 4049 C 404.352 -3.28892 -2.92435 0
M  V30 4050 H 401.471 -0.635221 -0.373715 0
M  V30 4051 H 404.113 -1.87519 -0.30606 0
M  V30 4052 H 402.263 -2.92898 -2.55232 0
M  V30 4053 H 403.935 -4.58211 -0.532943 0
M  V30 4054 H 402.178 -4.31642 -0.432168 0
M  V30 4055 H 402.849 -5.22074 -1.79284 0
M  V30 4056 H 405.325 -3.39429 -2.4068 0
M  V30 4057 H 404.201 -4.20603 -3.52682 0
M  V30 4058 H 404.462 -2.47437 -3.6637 0
M  V30 4059 N 403.521 0.559213 -1.47345 0
M  V30 4060 C 404.746 1.34676 -1.57725 0
M  V30 4061 C 405.171 1.86723 -0.227164 0
M  V30 4062 O 404.529 1.6286 0.796642 0
M  V30 4063 C 404.577 2.49399 -2.60447 0
M  V30 4064 O 403.681 3.51567 -2.15578 0
M  V30 4065 H 403.022 0.400115 -0.52991 0
M  V30 4066 H 405.552 0.676009 -1.93109 0
M  V30 4067 H 405.562 2.95996 -2.80803 0
M  V30 4068 H 404.237 2.10873 -3.58477 0
M  V30 4069 H 402.814 3.11289 -2.05313 0
M  V30 4070 N 404.999 1.35443 0.805782 0
M  V30 4071 C 406.41 1.25768 1.37983 0
M  V30 4072 C 406.761 -0.10958 1.95894 0
M  V30 4073 O 405.886 -1.01056 1.91355 0
M  V30 4074 C 406.481 2.27727 2.5085 0
M  V30 4075 C 405.04 2.2179 3.04115 0
M  V30 4076 C 404.187 2.13393 1.77084 0
M  V30 4077 H 407.138 1.4656 0.608752 0
M  V30 4078 H 407.159 1.90422 3.29424 0
M  V30 4079 H 406.671 3.27227 2.08671 0
M  V30 4080 H 404.772 1.25703 3.50756 0
M  V30 4081 H 404.885 3.13788 3.62042 0
M  V30 4082 H 403.249 1.59384 1.98668 0
M  V30 4083 H 404.032 3.14755 1.37056 0
M  V30 4084 N 406.477 -1.02803 1.19454 0
M  V30 4085 C 407.425 -2.13213 0.929673 0
M  V30 4086 C 408.419 -1.69011 -0.114806 0
M  V30 4087 O 409.625 -1.79967 0.0345147 0
M  V30 4088 H 406 -0.69662 0.28324 0
M  V30 4089 H 407.971 -2.32744 1.86743 0
M  V30 4090 C 406.72 -3.4429 0.485797 0
M  V30 4091 H 406.043 -3.7872 1.28105 0
M  V30 4092 H 407.483 -4.22638 0.339582 0
M  V30 4093 C 405.942 -3.27258 -0.800244 0
M  V30 4094 O 406.472 -3.55967 -1.86146 0
M  V30 4095 N 404.678 -2.80545 -0.75781 0
M  V30 4096 H 404.225 -2.57382 0.106039 0
M  V30 4097 H 404.183 -2.6953 -1.61867 0
M  V30 4098 N 407.956 -0.998596 -1.21925 0
M  V30 4099 C 409.184 -0.696286 -1.94832 0
M  V30 4100 C 409.599 0.740032 -1.73692 0
M  V30 4101 O 408.956 1.5 -1.03953 0
M  V30 4102 C 409.007 -0.999833 -3.47398 0
M  V30 4103 O 408.728 -2.37972 -3.67833 0
M  V30 4104 C 410.229 -0.716025 -4.37479 0
M  V30 4105 H 407.449 -0.257111 -0.619786 0
M  V30 4106 H 409.993 -1.33491 -1.54921 0
M  V30 4107 H 408.148 -0.406918 -3.85257 0
M  V30 4108 H 408.562 -2.48338 -4.61983 0
M  V30 4109 H 410.036 -0.978642 -5.43256 0
M  V30 4110 H 410.513 0.349968 -4.37803 0
M  V30 4111 H 411.119 -1.29025 -4.05256 0
M  V30 4112 N 409.434 1.37368 -0.772513 0
M  V30 4113 C 410.344 2.34053 -0.160081 0
M  V30 4114 C 411.36 1.60216 0.678728 0
M  V30 4115 O 412.536 1.92303 0.59847 0
M  V30 4116 C 409.601 3.3939 0.708182 0
M  V30 4117 C 408.662 4.29048 -0.147172 0
M  V30 4118 C 407.895 5.29354 0.679744 0
M  V30 4119 O 408.118 5.3723 1.91678 0
M  V30 4120 O 407.052 6.01835 0.0885444 0
M  V30 4121 H 410.878 2.88159 -0.959053 0
M  V30 4122 H 408.463 1.39543 -0.533685 0
M  V30 4123 H 410.345 4.03839 1.20384 0
M  V30 4124 H 409.02 2.8761 1.48533 0
M  V30 4125 H 407.927 3.67697 -0.689205 0
M  V30 4126 H 409.26 4.84134 -0.887423 0
M  V30 4127 N 410.912 0.523116 1.48665 0
M  V30 4128 C 411.842 -0.23231 2.32342 0
M  V30 4129 C 412.823 -0.941637 1.41659 0
M  V30 4130 O 414.008 -0.928751 1.70552 0
M  V30 4131 C 411.138 -1.28387 3.22698 0
M  V30 4132 C 410.092 -0.693098 4.22351 0
M  V30 4133 C 409.418 -1.8468 5.01794 0
M  V30 4134 C 410.718 0.33063 5.21252 0
M  V30 4135 H 412.412 0.466192 2.95748 0
M  V30 4136 H 409.958 0.225643 1.42221 0
M  V30 4137 H 411.911 -1.82024 3.80059 0
M  V30 4138 H 410.635 -2.01186 2.57278 0
M  V30 4139 H 409.294 -0.178299 3.66166 0
M  V30 4140 H 408.942 -2.56301 4.32804 0
M  V30 4141 H 408.642 -1.45747 5.69238 0
M  V30 4142 H 410.166 -2.38709 5.62006 0
M  V30 4143 H 411.58 -0.118407 5.73178 0
M  V30 4144 H 409.977 0.636974 5.9671 0
M  V30 4145 H 411.047 1.23883 4.68808 0
M  V30 4146 N 412.39 -1.55475 0.257931 0
M  V30 4147 C 413.806 -1.59307 -0.0966563 0
M  V30 4148 C 414.006 -1.27514 -1.5602 0
M  V30 4149 O 413.062 -1.02774 -2.30637 0
M  V30 4150 C 414.375 -2.99552 0.262481 0
M  V30 4151 C 415.923 -3.1231 0.207683 0
M  V30 4152 C 416.398 -4.54793 0.541012 0
M  V30 4153 N 417.889 -4.6058 0.491921 0
M  V30 4154 C 418.624 -5.68825 0.722857 0
M  V30 4155 N 418.12 -6.85287 1.0175 0
M  V30 4156 N 419.913 -5.58296 0.652815 0
M  V30 4157 H 412.064 -1.74409 1.21224 0
M  V30 4158 H 414.327 -0.812424 0.48854 0
M  V30 4159 H 414.033 -3.27593 1.27967 0
M  V30 4160 H 413.907 -3.75019 -0.40508 0
M  V30 4161 H 416.294 -2.84044 -0.800195 0
M  V30 4162 H 416.375 -2.39095 0.909255 0
M  V30 4163 H 416.019 -4.83783 1.5465 0
M  V30 4164 H 415.949 -5.26285 -0.18216 0
M  V30 4165 H 418.44 -3.7691 0.273366 0
M  V30 4166 H 418.753 -7.63725 1.18084 0
M  V30 4167 H 417.098 -6.86945 1.05509 0
M  V30 4168 H 420.289 -4.66189 0.422592 0
M  V30 4169 H 420.462 -6.42582 0.836182 0
M  V30 4170 N 413.868 0.0150385 -1.57593 0
M  V30 4171 C 415.145 0.7392 -1.81094 0
M  V30 4172 C 415.525 1.92817 -0.859344 0
M  V30 4173 O 414.873 2.28301 0.095362 0
M  V30 4174 C 415.083 1.15907 -3.29191 0
M  V30 4175 C 416.431 1.56918 -3.9454 0
M  V30 4176 O 417.455 1.25328 -3.33424 0
M  V30 4177 O 416.314 2.15604 -5.02173 0
M  V30 4178 H 413.408 0.358631 -0.745193 0
M  V30 4179 H 415.954 -0.00926156 -1.69697 0
M  V30 4180 H 414.726 0.310921 -3.90063 0
M  V30 4181 H 414.349 1.96711 -3.45529 0
M  V30 4182 N 415.346 1.54954 0.287554 0
M  V30 4183 C 416.595 1.74081 1.01877 0
M  V30 4184 C 416.908 0.541135 1.87966 0
M  V30 4185 O 418.114 0.614491 2.64455 0
M  V30 4186 C 416.57 3.08042 1.86113 0
M  V30 4187 C 416.178 4.35531 1.04961 0
M  V30 4188 C 417.922 3.36523 2.58752 0
M  V30 4189 C 415.829 5.60538 1.88551 0
M  V30 4190 H 414.759 0.64884 0.384087 0
M  V30 4191 H 417.41 1.81426 0.275101 0
M  V30 4192 H 415.792 2.94696 2.64519 0
M  V30 4193 H 416.966 4.59751 0.31074 0
M  V30 4194 H 415.281 4.14085 0.43843 0
M  V30 4195 H 417.878 4.27122 3.21668 0
M  V30 4196 H 418.221 2.56 3.28283 0
M  V30 4197 H 418.754 3.50901 1.87386 0
M  V30 4198 H 415.493 6.43767 1.23466 0
M  V30 4199 H 415.013 5.40483 2.60074 0
M  V30 4200 H 416.692 5.98297 2.46273 0
M  V30 4201 N 416.824 -0.551391 1.4764 0
M  V30 4202 C 418.07 -1.31024 1.54792 0
M  V30 4203 C 418.403 -1.9304 0.211967 0
M  V30 4204 O 417.678 -1.78175 -0.77999 0
M  V30 4205 C 417.961 -2.41593 2.67029 0
M  V30 4206 C 417.814 -1.84408 4.10261 0
M  V30 4207 C 419.133 -3.43488 2.75143 0
M  V30 4208 H 416.252 -0.475031 0.563485 0
M  V30 4209 H 418.894 -0.616454 1.79722 0
M  V30 4210 H 417.044 -3.00772 2.45904 0
M  V30 4211 H 418.716 -1.29445 4.42766 0
M  V30 4212 H 416.959 -1.15051 4.18265 0
M  V30 4213 H 417.63 -2.64367 4.84576 0
M  V30 4214 H 420.106 -2.94236 2.94218 0
M  V30 4215 H 418.982 -4.18274 3.55441 0
M  V30 4216 H 419.243 -4.02703 1.82435 0
M  V30 4217 N 418.302 -1.35869 -0.798587 0
M  V30 4218 C 419.713 -1.26498 -1.37314 0
M  V30 4219 C 420.064 0.0991899 -1.95949 0
M  V30 4220 O 419.189 1.0004 -1.91888 0
M  V30 4221 C 419.784 -2.29054 -2.49639 0
M  V30 4222 C 418.343 -2.234 -3.02935 0
M  V30 4223 C 417.49 -2.14329 -1.75949 0
M  V30 4224 H 420.441 -1.46881 -0.600971 0
M  V30 4225 H 420.462 -1.92166 -3.28409 0
M  V30 4226 H 419.974 -3.2833 -2.06933 0
M  V30 4227 H 418.075 -1.27562 -3.50084 0
M  V30 4228 H 418.188 -3.15703 -3.60372 0
M  V30 4229 H 416.552 -1.60435 -1.9782 0
M  V30 4230 H 417.335 -3.15477 -1.35384 0
M  V30 4231 N 419.78 1.02168 -1.19998 0
M  V30 4232 C 421.029 1.75091 -1.0013 0
M  V30 4233 C 421.342 1.89923 0.467835 0
M  V30 4234 O 422.548 2.59888 0.785515 0
M  V30 4235 C 421.004 3.14892 -1.74273 0
M  V30 4236 C 420.612 3.0809 -3.25245 0
M  V30 4237 C 422.356 3.9206 -1.62755 0
M  V30 4238 C 420.263 4.42867 -3.91948 0
M  V30 4239 H 419.193 0.656394 -0.37103 0
M  V30 4240 H 421.844 1.14284 -1.43567 0
M  V30 4241 H 420.226 3.7621 -1.2362 0
M  V30 4242 H 421.4 2.5611 -3.83072 0
M  V30 4243 H 419.715 2.44416 -3.3712 0
M  V30 4244 H 422.312 4.91764 -2.09934 0
M  V30 4245 H 422.655 4.12199 -0.582894 0
M  V30 4246 H 423.188 3.37359 -2.10793 0
M  V30 4247 H 419.927 4.27931 -4.96543 0
M  V30 4248 H 419.447 4.94874 -3.3891 0
M  V30 4249 H 421.126 5.11728 -3.95909 0
M  V30 4250 N 421.258 1.00505 1.21394 0
M  V30 4251 C 422.535 0.603277 1.86064 0
M  V30 4252 C 422.915 -0.919095 1.90042 0
M  V30 4253 O 422.263 -1.80607 1.39977 0
M  V30 4254 C 422.473 1.23772 3.26315 0
M  V30 4255 C 423.821 1.34586 4.02705 0
M  V30 4256 O 424.845 1.19304 3.35626 0
M  V30 4257 O 423.704 1.59169 5.22807 0
M  V30 4258 H 420.798 0.206634 0.800769 0
M  V30 4259 H 423.344 1.1017 1.29076 0
M  V30 4260 H 422.116 2.27848 3.18121 0
M  V30 4261 H 421.739 0.725648 3.90922 0
M  V30 4262 N 422.737 -1.36956 0.779787 0
M  V30 4263 C 423.985 -1.99097 0.347079 0
M  V30 4264 C 424.306 -1.62206 -1.08232 0
M  V30 4265 O 423.576 -0.891373 -1.74446 0
M  V30 4266 H 422.156 -0.736409 0.125342 0
M  V30 4267 H 424.818 -1.67308 0.999696 0
M  V30 4268 H 423.914 -3.09107 0.431162 0
M  V30 4269 N 424.215 -0.530993 -1.48385 0
M  V30 4270 C 425.162 0.231223 -2.29639 0
M  V30 4271 C 426.132 0.932864 -1.37429 0
M  V30 4272 O 427.317 0.933692 -1.66394 0
M  V30 4273 C 424.457 1.27155 -3.2082 0
M  V30 4274 C 423.57 0.578655 -4.28107 0
M  V30 4275 C 422.705 1.602 -5.06467 0
M  V30 4276 C 421.744 0.892625 -6.05556 0
M  V30 4277 N 420.881 1.86157 -6.76971 0
M  V30 4278 H 425.721 -0.467848 -2.94305 0
M  V30 4279 H 423.258 -0.242556 -1.45086 0
M  V30 4280 H 425.216 1.88703 -3.72085 0
M  V30 4281 H 423.846 1.939 -2.58075 0
M  V30 4282 H 422.898 -0.150782 -3.80101 0
M  V30 4283 H 424.21 0.0217065 -4.98795 0
M  V30 4284 H 423.364 2.29173 -5.61751 0
M  V30 4285 H 422.103 2.19285 -4.35621 0
M  V30 4286 H 421.108 0.188829 -5.49476 0
M  V30 4287 H 422.333 0.307878 -6.78402 0
M  V30 4288 H 420.279 2.44147 -6.08875 0
M  V30 4289 H 420.196 1.35608 -7.43738 0
M  V30 4290 H 421.464 2.54325 -7.36844 0
M  V30 4291 N 425.693 1.55336 -0.266172 0
M  V30 4292 C 426.64 2.22172 0.625165 0
M  V30 4293 C 427.61 1.19211 1.15663 0
M  V30 4294 O 428.795 1.47723 1.20758 0
M  V30 4295 C 425.935 2.93972 1.8076 0
M  V30 4296 C 425.048 4.11632 1.31084 0
M  V30 4297 C 424.183 4.71099 2.45436 0
M  V30 4298 C 423.222 5.8097 1.92718 0
M  V30 4299 N 422.359 6.34538 3.00509 0
M  V30 4300 H 427.199 2.9796 0.0485582 0
M  V30 4301 H 424.736 1.47095 0.0122024 0
M  V30 4302 H 426.694 3.33811 2.50251 0
M  V30 4303 H 425.324 2.20623 2.35638 0
M  V30 4304 H 424.376 3.76975 0.509326 0
M  V30 4305 H 425.688 4.90893 0.884633 0
M  V30 4306 H 424.842 5.13612 3.22936 0
M  V30 4307 H 423.581 3.91096 2.91368 0
M  V30 4308 H 422.586 5.37916 1.13695 0
M  V30 4309 H 423.811 6.62836 1.47733 0
M  V30 4310 H 421.757 5.57433 3.45839 0
M  V30 4311 H 421.674 7.09046 2.62279 0
M  V30 4312 H 422.942 6.81709 3.78011 0
M  V30 4313 N 427.171 -0.0066808 1.57599 0
M  V30 4314 C 428.419 -0.691552 1.899 0
M  V30 4315 C 428.74 -1.74682 0.866672 0
M  V30 4316 O 428.01 -1.95661 -0.0968189 0
M  V30 4317 H 426.59 -0.258416 0.700878 0
M  V30 4318 H 429.252 0.0326655 1.94873 0
M  V30 4319 H 428.348 -1.16702 2.8946 0
M  V30 4320 N 428.649 -1.55105 -0.279332 0
M  V30 4321 C 429.879 -1.7917 -1.02867 0
M  V30 4322 C 430.287 -0.56204 -1.80659 0
M  V30 4323 O 429.63 0.478266 -1.77365 0
M  V30 4324 C 429.692 -2.96061 -2.03932 0
M  V30 4325 C 429.356 -4.33341 -1.45137 0
M  V30 4326 C 430.353 -5.12565 -0.870266 0
M  V30 4327 C 428.038 -4.79987 -1.48048 0
M  V30 4328 C 430.032 -6.36565 -0.326097 0
M  V30 4329 C 427.719 -6.03944 -0.932443 0
M  V30 4330 C 428.717 -6.8207 -0.356247 0
M  V30 4331 O 428.405 -8.03691 0.183412 0
M  V30 4332 H 428.137 -0.600796 -0.309872 0
M  V30 4333 H 430.691 -2.02932 -0.317468 0
M  V30 4334 H 428.921 -2.67975 -2.78794 0
M  V30 4335 H 430.61 -3.07506 -2.64943 0
M  V30 4336 H 431.376 -4.77661 -0.840521 0
M  V30 4337 H 427.255 -4.1919 -1.91835 0
M  V30 4338 H 430.799 -6.97489 0.124286 0
M  V30 4339 H 426.696 -6.3833 -0.959407 0
M  V30 4340 H 427.464 -8.18468 0.0721681 0
M  V30 4341 N 430.127 0.543554 -1.4793 0
M  V30 4342 C 431.404 1.30458 -1.4574 0
M  V30 4343 C 431.784 2.1048 -0.161692 0
M  V30 4344 O 431.132 2.11831 0.856734 0
M  V30 4345 C 431.342 2.19754 -2.71126 0
M  V30 4346 C 432.69 2.80334 -3.18901 0
M  V30 4347 O 433.714 2.30049 -2.71948 0
M  V30 4348 O 432.573 3.71766 -4.00565 0
M  V30 4349 H 429.667 0.588117 -0.581418 0
M  V30 4350 H 432.213 0.561328 -1.60147 0
M  V30 4351 H 430.985 1.60316 -3.56952 0
M  V30 4352 H 430.608 3.01351 -2.59371 0
M  V30 4353 N 431.605 1.3629 0.791371 0
M  V30 4354 C 432.851 1.30605 1.55146 0
M  V30 4355 C 433.184 -0.115042 1.93859 0
M  V30 4356 O 432.459 -1.06798 1.62556 0
M  V30 4357 C 432.742 2.22692 2.82985 0
M  V30 4358 C 432.595 3.73489 2.50651 0
M  V30 4359 C 433.914 2.13588 3.84796 0
M  V30 4360 H 431.033 0.475761 0.562868 0
M  V30 4361 H 433.675 1.66825 0.909358 0
M  V30 4362 H 431.825 1.91933 3.37778 0
M  V30 4363 H 433.497 4.14758 2.01924 0
M  V30 4364 H 431.74 3.93021 1.83622 0
M  V30 4365 H 432.411 4.3333 3.41949 0
M  V30 4366 H 434.887 2.40659 3.39445 0
M  V30 4367 H 433.763 2.80195 4.71998 0
M  V30 4368 H 434.024 1.12256 4.27611 0
M  V30 4369 N 433.083 -1.0153 1.20538 0
M  V30 4370 C 434.499 -1.27461 0.96051 0
M  V30 4371 C 434.699 -1.98273 -0.359193 0
M  V30 4372 O 433.755 -2.27886 -1.0874 0
M  V30 4373 C 435.068 -2.10837 2.14402 0
M  V30 4374 C 436.616 -2.24099 2.18515 0
M  V30 4375 C 437.091 -3.10852 3.36355 0
M  V30 4376 N 438.582 -3.18441 3.36377 0
M  V30 4377 C 439.317 -3.85795 4.24205 0
M  V30 4378 N 438.813 -4.55264 5.22213 0
M  V30 4379 N 440.606 -3.82331 4.12043 0
M  V30 4380 H 432.757 -0.539907 2.05423 0
M  V30 4381 H 435.02 -0.30092 0.898972 0
M  V30 4382 H 434.726 -1.66144 3.09983 0
M  V30 4383 H 434.6 -3.11576 2.12604 0
M  V30 4384 H 436.987 -2.68016 1.23497 0
M  V30 4385 H 437.068 -1.22865 2.24361 0
M  V30 4386 H 436.712 -2.6764 4.31661 0
M  V30 4387 H 436.642 -4.12177 3.27746 0
M  V30 4388 H 439.133 -2.68978 2.65442 0
M  V30 4389 H 439.446 -5.04331 5.85551 0
M  V30 4390 H 437.791 -4.54085 5.26148 0
M  V30 4391 H 440.982 -3.27207 3.34743 0
M  V30 4392 H 441.155 -4.34547 4.807 0
M  V30 4393 N 434.561 -1.01147 -1.20859 0
M  V30 4394 C 435.838 -0.613136 -1.85742 0
M  V30 4395 C 436.218 0.909004 -1.90526 0
M  V30 4396 O 435.566 1.79862 -1.40932 0
M  V30 4397 C 435.776 -1.255 -3.25654 0
M  V30 4398 C 437.124 -1.3672 -4.01986 0
M  V30 4399 O 438.148 -1.21082 -3.34989 0
M  V30 4400 O 437.007 -1.6194 -5.21956 0
M  V30 4401 H 434.101 -0.210878 -0.799662 0
M  V30 4402 H 436.647 -1.10853 -1.2849 0
M  V30 4403 H 435.419 -2.29532 -3.16908 0
M  V30 4404 H 435.042 -0.746369 -3.90532 0
M  V30 4405 N 436.039 1.36541 -0.78704 0
M  V30 4406 C 437.285 1.99599 -0.358872 0
M  V30 4407 C 437.618 1.62323 1.06606 0
M  V30 4408 O 436.893 0.876858 1.73613 0
M  V30 4409 C 437.176 3.56327 -0.519944 0
M  V30 4410 C 437.029 4.03464 -1.98839 0
M  V30 4411 C 438.348 4.4005 0.0664737 0
M  V30 4412 H 435.467 0.725107 -0.131869 0
M  V30 4413 H 438.109 1.6199 -0.992936 0
M  V30 4414 H 436.259 3.88495 0.0198321 0
M  V30 4415 H 437.931 3.81793 -2.58905 0
M  V30 4416 H 436.174 3.55092 -2.49183 0
M  V30 4417 H 436.845 5.12439 -2.05207 0
M  V30 4418 H 439.321 4.14228 -0.394267 0
M  V30 4419 H 438.197 5.48847 -0.0762682 0
M  V30 4420 H 438.458 4.26655 1.15835 0
M  V30 4421 N 437.518 0.538854 1.48102 0
M  V30 4422 C 438.767 0.0059532 2.01699 0
M  V30 4423 C 439.08 -1.34476 1.42041 0
M  V30 4424 O 440.286 -1.96653 1.87189 0
M  V30 4425 C 438.742 -0.0397627 3.59878 0
M  V30 4426 C 438.35 1.30659 4.28523 0
M  V30 4427 C 440.094 -0.521024 4.2129 0
M  V30 4428 C 438.001 1.22098 5.78659 0
M  V30 4429 H 436.931 -0.00154456 0.753998 0
M  V30 4430 H 439.582 0.683963 1.70277 0
M  V30 4431 H 437.964 -0.783037 3.88181 0
M  V30 4432 H 439.138 2.06613 4.11883 0
M  V30 4433 H 437.453 1.7243 3.79021 0
M  V30 4434 H 440.05 -0.603184 5.31287 0
M  V30 4435 H 440.393 -1.52885 3.8721 0
M  V30 4436 H 440.926 0.166834 3.9745 0
M  V30 4437 H 437.665 2.20424 6.17328 0
M  V30 4438 H 437.185 0.50295 5.97688 0
M  V30 4439 H 438.864 0.915345 6.40492 0
M  V30 4440 N 438.996 -1.55193 0.274407 0
M  V30 4441 C 439.959 -2.212 -0.600279 0
M  V30 4442 C 440.959 -1.18963 -1.08187 0
M  V30 4443 O 442.149 -1.43873 -0.982158 0
M  V30 4444 C 439.281 -2.87739 -1.82809 0
M  V30 4445 H 440.474 -2.9989 -0.0239682 0
M  V30 4446 H 438.027 -1.5628 0.0250192 0
M  V30 4447 H 438.762 -2.13058 -2.44493 0
M  V30 4448 H 438.547 -3.62658 -1.49069 0
M  V30 4449 H 440.037 -3.38171 -2.45011 0
M  V30 4450 N 440.474 -0.00167713 -1.576 0
M  V30 4451 C 441.421 0.989195 -2.08527 0
M  V30 4452 C 442.391 1.34031 -0.981065 0
M  V30 4453 O 443.576 1.43839 -1.2536 0
M  V30 4454 C 440.716 2.27537 -2.59463 0
M  V30 4455 C 439.829 1.98314 -3.83791 0
M  V30 4456 C 438.964 3.21025 -4.23222 0
M  V30 4457 C 438.003 2.87495 -5.40382 0
M  V30 4458 N 437.14 4.02749 -5.75098 0
M  V30 4459 H 441.98 0.547973 -2.92919 0
M  V30 4460 H 439.517 0.258917 -1.44803 0
M  V30 4461 H 441.475 3.02729 -2.87073 0
M  V30 4462 H 440.105 2.69325 -1.77943 0
M  V30 4463 H 439.157 1.13482 -3.63078 0
M  V30 4464 H 440.469 1.69601 -4.69081 0
M  V30 4465 H 439.623 4.04561 -4.52123 0
M  V30 4466 H 438.362 3.52877 -3.36644 0
M  V30 4467 H 437.367 2.02367 -5.11202 0
M  V30 4468 H 438.592 2.56889 -6.28637 0
M  V30 4469 H 436.538 4.34494 -4.91478 0
M  V30 4470 H 436.455 3.77566 -6.54966 0
M  V30 4471 H 437.723 4.87068 -6.08592 0
M  V30 4472 N 441.952 1.55251 0.271103 0
M  V30 4473 C 443.201 1.75151 1.00025 0
M  V30 4474 C 443.514 0.561041 1.87381 0
M  V30 4475 O 444.72 0.642506 2.63788 0
M  V30 4476 C 443.176 3.09999 1.82835 0
M  V30 4477 C 442.784 4.3662 1.00336 0
M  V30 4478 C 444.528 3.39249 2.55168 0
M  V30 4479 C 442.435 5.62506 1.82595 0
M  V30 4480 H 441.365 0.652877 0.377183 0
M  V30 4481 H 444.016 1.81708 0.255843 0
M  V30 4482 H 442.398 2.97485 2.61378 0
M  V30 4483 H 443.572 4.60055 0.261959 0
M  V30 4484 H 441.887 4.14527 0.394486 0
M  V30 4485 H 444.484 4.3051 3.1712 0
M  V30 4486 H 444.827 2.59467 3.2555 0
M  V30 4487 H 445.36 3.52869 1.83653 0
M  V30 4488 H 442.099 6.45041 1.16631 0
M  V30 4489 H 441.619 5.43211 2.54327 0
M  V30 4490 H 443.298 6.00875 2.39913 0
M  V30 4491 N 443.43 -0.535701 1.48216 0
M  V30 4492 C 444.676 -1.29375 1.56173 0
M  V30 4493 C 445.009 -1.92804 0.232429 0
M  V30 4494 O 444.284 -1.78992 -0.761048 0
M  V30 4495 C 444.567 -2.38747 2.69577 0
M  V30 4496 C 444.42 -1.80046 4.12193 0
M  V30 4497 C 445.739 -3.40551 2.78771 0
M  V30 4498 H 442.858 -0.469027 0.568491 0
M  V30 4499 H 445.5 -0.597358 1.80365 0
M  V30 4500 H 443.65 -2.98147 2.4908 0
M  V30 4501 H 445.322 -1.24742 4.44114 0
M  V30 4502 H 443.565 -1.10609 4.19462 0
M  V30 4503 H 444.236 -2.59212 4.87353 0
M  V30 4504 H 446.712 -2.91099 2.97322 0
M  V30 4505 H 445.588 -4.1448 3.59857 0
M  V30 4506 H 445.849 -4.00746 1.86696 0
M  V30 4507 N 444.908 -1.36708 -0.784132 0
M  V30 4508 C 446.185 -1.21776 -1.53069 0
M  V30 4509 C 446.565 0.193876 -2.10208 0
M  V30 4510 O 445.913 1.20012 -1.94446 0
M  V30 4511 C 446.123 -2.30395 -2.62143 0
M  V30 4512 C 447.471 -2.67325 -3.29882 0
M  V30 4513 O 448.495 -2.29478 -2.7243 0
M  V30 4514 O 447.354 -3.32485 -4.33724 0
M  V30 4515 H 444.448 -0.474459 -0.677361 0
M  V30 4516 H 446.994 -1.48454 -0.82216 0
M  V30 4517 H 445.766 -3.2498 -2.17953 0
M  V30 4518 H 445.389 -2.05112 -3.40609 0
M  V30 4519 N 446.386 1.0089 -1.21074 0
M  V30 4520 C 447.632 1.7497 -1.03717 0
M  V30 4521 C 447.987 1.8764 0.425344 0
M  V30 4522 O 447.28 1.39679 1.3115 0
M  V30 4523 C 447.474 3.16335 -1.66334 0
M  V30 4524 C 447.303 3.17449 -3.18522 0
M  V30 4525 C 446.073 3.2425 -3.87543 0
M  V30 4526 C 448.271 3.02877 -4.15656 0
M  V30 4527 N 446.253 3.14949 -5.26954 0
M  V30 4528 C 447.624 3.0143 -5.41793 0
M  V30 4529 C 449.679 2.8715 -4.06755 0
M  V30 4530 C 448.382 2.85869 -6.60054 0
M  V30 4531 C 450.408 2.72944 -5.24648 0
M  V30 4532 C 449.77 2.72171 -6.49694 0
M  V30 4533 H 445.869 0.650627 -0.43383 0
M  V30 4534 H 448.453 1.19944 -1.53367 0
M  V30 4535 H 446.624 3.69638 -1.19256 0
M  V30 4536 H 448.356 3.78888 -1.42219 0
M  V30 4537 H 445.111 3.31288 -3.38446 0
M  V30 4538 H 445.535 3.13651 -5.9996 0
M  V30 4539 H 450.177 2.86557 -3.10878 0
M  V30 4540 H 447.895 2.8521 -7.56096 0
M  V30 4541 H 451.481 2.61782 -5.19578 0
M  V30 4542 H 450.361 2.61307 -7.39384 0
M  V30 4543 N 447.864 1.01787 1.20321 0
M  V30 4544 C 449.112 0.706538 1.89347 0
M  V30 4545 C 449.433 -0.766289 1.79313 0
M  V30 4546 O 448.703 -1.55126 1.19635 0
M  V30 4547 H 447.283 0.258348 0.700903 0
M  V30 4548 H 449.945 1.28974 1.46122 0
M  V30 4549 H 449.041 0.991066 2.95946 0
M  V30 4550 N 449.342 -1.36122 0.79427 0
M  V30 4551 C 450.619 -1.93398 0.292685 0
M  V30 4552 C 450.999 -1.72567 -1.21589 0
M  V30 4553 O 450.347 -1.08745 -2.00965 0
M  V30 4554 C 450.557 -3.42099 0.690614 0
M  V30 4555 C 451.905 -4.19231 0.673105 0
M  V30 4556 O 452.929 -3.50559 0.631389 0
M  V30 4557 O 451.788 -5.41732 0.720362 0
M  V30 4558 H 448.882 -0.823712 0.0736693 0
M  V30 4559 H 451.428 -1.45273 0.87714 0
M  V30 4560 H 450.2 -3.50938 1.73085 0
M  V30 4561 H 449.823 -3.97519 0.0803036 0
M  V30 4562 N 450.82 -0.546701 -1.47814 0
M  V30 4563 C 452.05 -0.0232519 -2.06587 0
M  V30 4564 C 452.458 1.2712 -1.40133 0
M  V30 4565 O 451.801 1.77091 -0.488305 0
M  V30 4566 C 451.863 0.254117 -3.58601 0
M  V30 4567 C 451.527 -0.949331 -4.47031 0
M  V30 4568 C 452.524 -1.85216 -4.85789 0
M  V30 4569 C 450.209 -1.16104 -4.88697 0
M  V30 4570 C 452.203 -2.95047 -5.65001 0
M  V30 4571 C 449.89 -2.26247 -5.67676 0
M  V30 4572 C 450.888 -3.1555 -6.05737 0
M  V30 4573 O 450.576 -4.23784 -6.83127 0
M  V30 4574 H 450.308 -0.0380082 -0.674931 0
M  V30 4575 H 452.862 -0.756631 -1.90956 0
M  V30 4576 H 451.092 1.04168 -3.72406 0
M  V30 4577 H 452.781 0.72167 -3.99433 0
M  V30 4578 H 453.547 -1.70061 -4.54207 0
M  V30 4579 H 449.426 -0.475159 -4.58545 0
M  V30 4580 H 452.97 -3.64778 -5.94628 0
M  V30 4581 H 448.867 -2.41379 -5.98671 0
M  V30 4582 H 449.635 -4.21701 -7.01506 0
M  V30 4583 N 452.299 1.55045 -0.282633 0
M  V30 4584 C 453.229 2.2579 0.595066 0
M  V30 4585 C 454.21 1.25074 1.15284 0
M  V30 4586 O 455.395 1.5381 1.18559 0
M  V30 4587 C 452.525 2.98472 1.77572 0
M  V30 4588 C 451.479 4.0618 1.34914 0
M  V30 4589 C 450.805 4.66477 2.6135 0
M  V30 4590 C 452.105 5.1996 0.493821 0
M  V30 4591 H 453.799 2.994 0.00505653 0
M  V30 4592 H 451.345 1.44 0.000992001 0
M  V30 4593 H 453.298 3.46677 2.39568 0
M  V30 4594 H 452.022 2.2241 2.39168 0
M  V30 4595 H 450.681 3.58797 0.752338 0
M  V30 4596 H 450.329 3.87074 3.2122 0
M  V30 4597 H 450.029 5.39207 2.33516 0
M  V30 4598 H 451.553 5.17435 3.24181 0
M  V30 4599 H 452.967 5.64172 1.01898 0
M  V30 4600 H 451.364 5.99299 0.310047 0
M  V30 4601 H 452.434 4.82462 -0.485593 0
M  V30 4602 N 453.777 0.010035 1.57597 0
M  V30 4603 C 454.687 -0.994226 2.12491 0
M  V30 4604 C 455.703 -1.37013 1.07254 0
M  V30 4605 O 456.879 -1.45542 1.3921 0
M  V30 4606 C 453.944 -2.2642 2.62555 0
M  V30 4607 C 453.005 -1.95049 3.82432 0
M  V30 4608 C 452.238 -3.15991 4.30099 0
M  V30 4609 O 452.461 -4.28015 3.7704 0
M  V30 4610 O 451.395 -2.99403 5.22151 0
M  V30 4611 H 455.221 -0.557549 2.98538 0
M  V30 4612 H 452.806 -0.209413 1.47925 0
M  V30 4613 H 454.688 -3.01009 2.9491 0
M  V30 4614 H 453.363 -2.69306 1.796 0
M  V30 4615 H 452.27 -1.17904 3.55034 0
M  V30 4616 H 453.603 -1.56992 4.66491 0
M  V30 4617 N 455.255 -1.55392 -0.262866 0
M  V30 4618 C 456.501 -1.76737 -0.99458 0
M  V30 4619 C 456.834 -0.572453 -1.85571 0
M  V30 4620 O 456.109 0.429732 -1.89693 0
M  V30 4621 C 456.392 -3.07824 -1.8686 0
M  V30 4622 C 456.245 -4.3769 -1.03672 0
M  V30 4623 C 457.564 -3.35021 -2.85393 0
M  V30 4624 H 454.683 -0.643005 -0.360157 0
M  V30 4625 H 457.325 -1.88126 -0.266216 0
M  V30 4626 H 455.475 -2.98245 -2.48962 0
M  V30 4627 H 457.147 -4.59238 -0.43563 0
M  V30 4628 H 455.39 -4.32461 -0.340513 0
M  V30 4629 H 456.061 -5.25759 -1.6817 0
M  V30 4630 H 458.537 -3.44458 -2.33426 0
M  V30 4631 H 457.413 -4.27989 -3.43681 0
M  V30 4632 H 457.674 -2.55153 -3.61039 0
M  V30 4633 N 456.733 0.527833 -1.48498 0
M  V30 4634 C 457.68 1.6322 -1.6318 0
M  V30 4635 C 458.65 1.59199 -0.473815 0
M  V30 4636 O 459.835 1.77591 -0.697563 0
M  V30 4637 C 456.975 3.01474 -1.67951 0
M  V30 4638 C 456.088 3.15713 -2.94871 0
M  V30 4639 C 455.223 4.44539 -2.90789 0
M  V30 4640 C 454.262 4.52315 -4.12404 0
M  V30 4641 N 453.399 5.72533 -4.06387 0
M  V30 4642 H 458.239 1.50011 -2.57489 0
M  V30 4643 H 455.776 0.730298 -1.27691 0
M  V30 4644 H 457.734 3.81572 -1.68698 0
M  V30 4645 H 456.364 3.1345 -0.771306 0
M  V30 4646 H 455.416 2.28854 -3.03859 0
M  V30 4647 H 456.728 3.1732 -3.8485 0
M  V30 4648 H 455.882 5.3293 -2.89949 0
M  V30 4649 H 454.621 4.45457 -1.98542 0
M  V30 4650 H 453.626 3.62331 -4.13517 0
M  V30 4651 H 454.851 4.53134 -5.05812 0
M  V30 4652 H 452.797 5.74344 -3.16962 0
M  V30 4653 H 452.714 5.75643 -4.90073 0
M  V30 4654 H 453.982 6.63204 -4.0961 0
M  V30 4655 N 458.211 1.37122 0.776871 0
M  V30 4656 C 459.174 1.32301 1.8716 0
M  V30 4657 C 460.174 0.228099 1.59174 0
M  V30 4658 O 461.364 0.483642 1.67352 0
M  V30 4659 C 458.496 1.054 3.24197 0
M  V30 4660 H 459.689 2.29673 1.92848 0
M  V30 4661 H 457.242 1.22077 0.97606 0
M  V30 4662 H 457.977 0.0853872 3.24188 0
M  V30 4663 H 457.762 1.84648 3.45901 0
M  V30 4664 H 459.252 1.04664 4.04271 0
M  V30 4665 N 459.689 -1.00246 1.21608 0
M  V30 4666 C 460.937 -1.73717 1.0328 0
M  V30 4667 C 461.258 -1.90102 -0.434318 0
M  V30 4668 O 460.528 -1.45376 -1.31311 0
M  V30 4669 H 459.108 -0.643613 0.379172 0
M  V30 4670 H 461.77 -1.20787 1.52959 0
M  V30 4671 H 460.866 -2.73535 1.50283 0
M  V30 4672 N 461.167 -1.02423 -1.1978 0
M  V30 4673 C 462.397 -0.736387 -1.93031 0
M  V30 4674 C 462.805 0.708023 -1.75453 0
M  V30 4675 O 462.148 1.4927 -1.07071 0
M  V30 4676 C 462.21 -1.00194 -3.45255 0
M  V30 4677 C 461.874 -2.43698 -3.86601 0
M  V30 4678 C 462.871 -3.41814 -3.91738 0
M  V30 4679 C 460.556 -2.77975 -4.18372 0
M  V30 4680 C 462.55 -4.72265 -4.28071 0
M  V30 4681 C 460.237 -4.08636 -4.54378 0
M  V30 4682 C 461.235 -5.05592 -4.59201 0
M  V30 4683 O 460.923 -6.33914 -4.94376 0
M  V30 4684 H 460.655 -0.269116 -0.620123 0
M  V30 4685 H 463.209 -1.37043 -1.52998 0
M  V30 4686 H 461.439 -0.310747 -3.85449 0
M  V30 4687 H 463.128 -0.704488 -3.9974 0
M  V30 4688 H 463.894 -3.16671 -3.67348 0
M  V30 4689 H 459.773 -2.0319 -4.13805 0
M  V30 4690 H 463.317 -5.4794 -4.3175 0
M  V30 4691 H 459.214 -4.33556 -4.78226 0
M  V30 4692 H 459.982 -6.38317 -5.12341 0
M  V30 4693 N 462.645 1.35699 -0.801477 0
M  V30 4694 C 463.608 2.28199 -0.213994 0
M  V30 4695 C 464.608 1.49359 0.595691 0
M  V30 4696 O 465.798 1.69186 0.414921 0
M  V30 4697 C 462.93 3.33587 0.702297 0
M  V30 4698 H 464.123 2.81666 -1.02976 0
M  V30 4699 H 461.676 1.45467 -0.571759 0
M  V30 4700 H 462.411 2.85297 1.54195 0
M  V30 4701 H 462.196 3.91906 0.123484 0
M  V30 4702 H 463.686 4.02638 1.10783 0
M  V30 4703 N 464.123 0.554532 1.47522 0
M  V30 4704 C 465.351 0.034257 2.06872 0
M  V30 4705 C 465.766 -1.25826 1.40759 0
M  V30 4706 O 465.123 -1.75425 0.503217 0
M  V30 4707 C 465.174 -0.167827 3.6111 0
M  V30 4708 O 464.895 1.07351 4.24744 0
M  V30 4709 C 466.396 -0.72569 4.3732 0
M  V30 4710 H 463.616 0.0446275 0.669514 0
M  V30 4711 H 466.16 0.767181 1.89564 0
M  V30 4712 H 464.315 -0.850872 3.7794 0
M  V30 4713 H 464.729 0.869563 5.17242 0
M  V30 4714 H 466.203 -0.816394 5.45929 0
M  V30 4715 H 466.68 -1.73635 4.0342 0
M  V30 4716 H 467.286 -0.0784292 4.25228 0
M  V30 4717 N 465.601 -1.54893 0.290851 0
M  V30 4718 C 466.549 -2.24579 -0.605576 0
M  V30 4719 C 467.543 -1.24824 -1.14522 0
M  V30 4720 O 468.749 -1.42706 -1.09704 0
M  V30 4721 H 465.124 -0.720946 -0.213872 0
M  V30 4722 H 467.095 -2.984 0.0048173 0
M  V30 4723 C 465.844 -2.99224 -1.77088 0
M  V30 4724 H 465.167 -3.75782 -1.36484 0
M  V30 4725 H 466.607 -3.51281 -2.3744 0
M  V30 4726 C 465.066 -2.05602 -2.66888 0
M  V30 4727 O 465.596 -1.61745 -3.67698 0
M  V30 4728 N 463.802 -1.71771 -2.34399 0
M  V30 4729 H 463.349 -2.07633 -1.52468 0
M  V30 4730 H 463.307 -1.09403 -2.94751 0
M  V30 4731 N 467.08 -0.0183926 -1.57589 0
M  V30 4732 C 468.01 0.965596 -2.12599 0
M  V30 4733 C 468.991 1.34641 -1.0395 0
M  V30 4734 O 470.176 1.42693 -1.31729 0
M  V30 4735 C 467.306 2.25149 -2.64434 0
M  V30 4736 C 466.26 2.01175 -3.77773 0
M  V30 4737 C 465.586 3.35937 -4.15994 0
M  V30 4738 C 466.886 1.35953 -5.04296 0
M  V30 4739 H 468.58 0.507504 -2.95067 0
M  V30 4740 H 466.126 0.242671 -1.41941 0
M  V30 4741 H 468.079 2.94357 -3.01549 0
M  V30 4742 H 466.803 2.73105 -1.79112 0
M  V30 4743 H 465.462 1.34388 -3.4108 0
M  V30 4744 H 465.11 3.81631 -3.27669 0
M  V30 4745 H 464.81 3.20705 -4.92364 0
M  V30 4746 H 466.334 4.0643 -4.55683 0
M  V30 4747 H 467.748 1.95144 -5.39065 0
M  V30 4748 H 466.145 1.31152 -5.85593 0
M  V30 4749 H 467.215 0.331071 -4.83768 0
M  V30 4750 N 468.558 1.5553 0.254621 0
M  V30 4751 C 469.804 1.77262 0.985193 0
M  V30 4752 C 470.137 0.582286 1.85265 0
M  V30 4753 O 469.412 -0.419666 1.89919 0
M  V30 4754 C 469.695 3.0881 1.85225 0
M  V30 4755 C 469.548 4.38233 1.0135 0
M  V30 4756 C 470.867 3.3653 2.83612 0
M  V30 4757 H 467.986 0.644906 0.356742 0
M  V30 4758 H 470.628 1.88264 0.256236 0
M  V30 4759 H 468.778 2.99562 2.47376 0
M  V30 4760 H 470.45 4.59463 0.411269 0
M  V30 4761 H 468.693 4.32636 0.317574 0
M  V30 4762 H 469.364 5.26644 1.65379 0
M  V30 4763 H 471.84 3.45691 2.31596 0
M  V30 4764 H 470.716 4.29805 3.41407 0
M  V30 4765 H 470.977 2.57064 3.59681 0
M  V30 4766 N 470.036 -0.519951 1.48776 0
M  V30 4767 C 471.264 -1.29971 1.60982 0
M  V30 4768 C 471.679 -1.86803 0.273885 0
M  V30 4769 O 471.036 -1.66904 -0.738193 0
M  V30 4770 C 471.087 -2.44346 2.66415 0
M  V30 4771 O 470.808 -1.89855 3.94825 0
M  V30 4772 C 472.309 -3.36014 2.89153 0
M  V30 4773 H 469.529 -0.394891 0.542496 0
M  V30 4774 H 472.073 -0.626214 1.94676 0
M  V30 4775 H 470.228 -3.07562 2.35552 0
M  V30 4776 H 470.642 -2.64798 4.5275 0
M  V30 4777 H 472.116 -4.12593 3.66703 0
M  V30 4778 H 472.593 -3.91859 1.98351 0
M  V30 4779 H 473.199 -2.78582 3.21359 0
M  V30 4780 N 471.514 -1.37532 -0.769588 0
M  V30 4781 C 472.477 -1.33292 -1.86456 0
M  V30 4782 C 473.477 -0.236537 -1.59051 0
M  V30 4783 O 474.667 -0.492511 -1.67093 0
M  V30 4784 C 471.799 -1.07118 -3.23633 0
M  V30 4785 H 472.992 -2.30692 -1.91628 0
M  V30 4786 H 470.545 -1.22593 -0.969572 0
M  V30 4787 H 471.28 -0.102578 -3.24138 0
M  V30 4788 H 471.065 -1.86479 -3.44917 0
M  V30 4789 H 472.555 -1.06806 -4.03711 0
M  V30 4790 N 472.992 0.995999 -1.22138 0
M  V30 4791 C 474.239 1.7351 -1.04406 0
M  V30 4792 C 474.567 1.89884 0.421244 0
M  V30 4793 O 473.822 1.43683 1.32867 0
M  V30 4794 C 474.121 3.14553 -1.6968 0
M  V30 4795 C 473.787 3.18102 -3.19565 0
M  V30 4796 C 472.449 3.18778 -3.60464 0
M  V30 4797 C 474.801 3.14636 -4.15516 0
M  V30 4798 C 472.129 3.13684 -4.95801 0
M  V30 4799 C 474.481 3.11084 -5.50826 0
M  V30 4800 C 473.145 3.10074 -5.91109 0
M  V30 4801 H 472.415 0.634916 -0.38205 0
M  V30 4802 H 475.062 1.1667 -1.51857 0
M  V30 4803 H 473.367 3.74682 -1.14546 0
M  V30 4804 H 475.064 3.70477 -1.53454 0
M  V30 4805 H 471.654 3.18324 -2.86998 0
M  V30 4806 H 475.838 3.13266 -3.84939 0
M  V30 4807 H 471.094 3.11245 -5.26247 0
M  V30 4808 H 475.268 3.07357 -6.24904 0
M  V30 4809 H 472.895 3.05882 -6.95946 0
M  V30 4810 N 474.47 1.03057 1.19235 0
M  V30 4811 C 475.433 0.617418 2.20727 0
M  V30 4812 C 476.433 -0.319856 1.57587 0
M  V30 4813 O 477.623 -0.106633 1.73873 0
M  V30 4814 C 474.755 -0.096296 3.40764 0
M  V30 4815 H 475.948 1.51544 2.58794 0
M  V30 4816 H 473.501 0.821949 1.32942 0
M  V30 4817 H 474.236 -1.00859 3.08217 0
M  V30 4818 H 474.021 0.577217 3.87828 0
M  V30 4819 H 475.511 -0.372219 4.15938 0
M  V30 4820 N 475.948 -1.35272 0.808662 0
M  V30 4821 C 477.364 -1.51806 0.492653 0
M  V30 4822 C 477.564 -1.7574 -0.985778 0
M  V30 4823 O 476.62 -1.80003 -1.77074 0
M  V30 4824 C 477.933 -2.69202 1.33981 0
M  V30 4825 C 479.481 -2.8308 1.33547 0
M  V30 4826 C 479.956 -4.03502 2.16679 0
M  V30 4827 N 481.447 -4.10684 2.14227 0
M  V30 4828 C 482.182 -5.02984 2.75308 0
M  V30 4829 N 481.678 -6.00603 3.45323 0
M  V30 4830 N 483.471 -4.95746 2.64938 0
M  V30 4831 H 475.622 -1.17993 1.76611 0
M  V30 4832 H 477.885 -0.577476 0.751814 0
M  V30 4833 H 477.591 -2.581 2.38909 0
M  V30 4834 H 477.465 -3.63854 0.994491 0
M  V30 4835 H 479.852 -2.93631 0.294036 0
M  V30 4836 H 479.933 -1.89278 1.72068 0
M  V30 4837 H 479.577 -3.93711 3.20864 0
M  V30 4838 H 479.507 -4.96489 1.75517 0
M  V30 4839 H 481.998 -3.40802 1.63285 0
M  V30 4840 H 482.311 -6.67633 3.89212 0
M  V30 4841 H 480.656 -6.0077 3.49428 0
M  V30 4842 H 483.847 -4.18439 2.09825 0
M  V30 4843 H 484.02 -5.67487 3.12829 0
M  V30 4844 N 477.426 -0.562348 -1.47226 0
M  V30 4845 C 478.672 -0.0402761 -2.0276 0
M  V30 4846 C 479.005 1.30823 -1.43523 0
M  V30 4847 O 478.28 1.85249 -0.592705 0
M  V30 4848 C 478.563 0.047311 -3.60069 0
M  V30 4849 C 478.416 -1.32865 -4.29729 0
M  V30 4850 C 479.735 0.758182 -4.3352 0
M  V30 4851 H 476.854 -0.0161105 -0.736824 0
M  V30 4852 H 479.496 -0.725628 -1.75598 0
M  V30 4853 H 477.646 0.630986 -3.83342 0
M  V30 4854 H 479.318 -1.95593 -4.17781 0
M  V30 4855 H 477.561 -1.90195 -3.89882 0
M  V30 4856 H 478.232 -1.22004 -5.38349 0
M  V30 4857 H 480.708 0.262546 -4.15271 0
M  V30 4858 H 479.584 0.78844 -5.43208 0
M  V30 4859 H 479.845 1.81537 -4.03109 0
M  V30 4860 N 478.904 1.54736 -0.299062 0
M  V30 4861 C 479.852 2.24897 0.593658 0
M  V30 4862 C 480.846 1.25429 1.13859 0
M  V30 4863 O 482.052 1.43286 1.08945 0
M  V30 4864 H 478.427 0.72207 0.210046 0
M  V30 4865 H 480.398 2.98393 -0.0206421 0
M  V30 4866 C 479.147 3.00159 1.75499 0
M  V30 4867 H 478.47 3.76501 1.34489 0
M  V30 4868 H 479.91 3.52535 2.35574 0
M  V30 4869 C 478.369 2.07015 2.65794 0
M  V30 4870 O 478.899 1.63692 3.66835 0
M  V30 4871 N 477.105 1.73012 2.33485 0
M  V30 4872 H 476.652 2.08439 1.51364 0
M  V30 4873 H 476.61 1.10965 2.94167 0
M  V30 4874 N 480.382 0.0267497 1.57577 0
M  V30 4875 C 481.63 -0.651116 1.91324 0
M  V30 4876 C 481.951 -1.72804 0.90353 0
M  V30 4877 O 481.221 -1.95822 -0.0552946 0
M  V30 4878 H 479.801 -0.243491 0.706202 0
M  V30 4879 H 482.463 0.0739935 1.94759 0
M  V30 4880 H 481.559 -1.10536 2.9187 0
M  V30 4881 N 481.861 -1.55662 -0.24637 0
M  V30 4882 C 483.277 -1.48098 -0.594907 0
M  V30 4883 C 483.477 -0.717044 -1.8831 0
M  V30 4884 O 482.533 -0.246618 -2.51293 0
M  V30 4885 C 483.846 -2.92507 -0.697146 0
M  V30 4886 C 485.394 -3.02881 -0.789436 0
M  V30 4887 C 485.869 -4.48598 -0.923232 0
M  V30 4888 N 487.36 -4.52538 -0.988088 0
M  V30 4889 C 488.095 -5.62536 -1.11089 0
M  V30 4890 N 487.591 -6.82342 -1.19919 0
M  V30 4891 N 489.384 -5.50334 -1.14408 0
M  V30 4892 H 481.535 -2.0377 0.599278 0
M  V30 4893 H 483.798 -0.925145 0.20691 0
M  V30 4894 H 483.504 -3.51242 0.179396 0
M  V30 4895 H 483.378 -3.43024 -1.5689 0
M  V30 4896 H 485.765 -2.44226 -1.65643 0
M  V30 4897 H 485.846 -2.55574 0.107482 0
M  V30 4898 H 485.49 -5.07864 -0.0607927 0
M  V30 4899 H 485.42 -4.93587 -1.8352 0
M  V30 4900 H 487.911 -3.66248 -0.931167 0
M  V30 4901 H 488.224 -7.61924 -1.29197 0
M  V30 4902 H 486.569 -6.85102 -1.16876 0
M  V30 4903 H 489.76 -4.5567 -1.07158 0
M  V30 4904 H 489.933 -6.36096 -1.23634 0
M  V30 4905 N 483.339 0.512053 -1.4905 0
M  V30 4906 C 484.564 1.2959 -1.6193 0
M  V30 4907 C 484.989 1.85906 -0.286454 0
M  V30 4908 O 484.347 1.65312 0.744426 0
M  V30 4909 C 484.395 2.40987 -2.68249 0
M  V30 4910 O 483.499 3.44531 -2.26654 0
M  V30 4911 H 482.84 0.383053 -0.542371 0
M  V30 4912 H 485.37 0.614231 -1.95162 0
M  V30 4913 H 485.38 2.86913 -2.90078 0
M  V30 4914 H 484.055 1.99361 -3.65004 0
M  V30 4915 H 482.632 3.046 -2.15112 0
M  V30 4916 N 484.817 1.37938 0.762283 0
M  V30 4917 C 486.063 1.33866 1.52341 0
M  V30 4918 C 486.396 -0.0738961 1.94059 0
M  V30 4919 O 485.671 -1.03326 1.64785 0
M  V30 4920 C 485.954 2.28644 2.78197 0
M  V30 4921 C 485.807 3.78722 2.42672 0
M  V30 4922 C 487.126 2.21702 3.80179 0
M  V30 4923 H 484.245 0.487593 0.55265 0
M  V30 4924 H 486.887 1.68717 0.873767 0
M  V30 4925 H 485.037 1.99055 3.33631 0
M  V30 4926 H 486.709 4.18948 1.93081 0
M  V30 4927 H 484.952 3.96827 1.75244 0
M  V30 4928 H 485.623 4.40486 3.3268 0
M  V30 4929 H 488.099 2.47805 3.34263 0
M  V30 4930 H 486.975 2.90143 4.65949 0
M  V30 4931 H 487.236 1.21301 4.25133 0
M  V30 4932 N 486.295 -0.989507 1.22664 0
M  V30 4933 C 487.543 -1.72612 1.05117 0
M  V30 4934 C 487.864 -1.90552 -0.414131 0
M  V30 4935 O 487.134 -1.4676 -1.29762 0
M  V30 4936 H 485.714 -0.639555 0.385977 0
M  V30 4937 H 488.376 -1.19158 1.54232 0
M  V30 4938 H 487.472 -2.71926 1.53175 0
M  V30 4939 N 487.773 -1.03688 -1.18687 0
M  V30 4940 C 489.022 -0.733235 -1.879 0
M  V30 4941 C 489.335 0.741745 -1.8099 0
M  V30 4942 O 490.541 1.15875 -2.4553 0
M  V30 4943 C 488.997 -1.26127 -3.37076 0
M  V30 4944 C 488.605 -2.76461 -3.52524 0
M  V30 4945 C 490.349 -1.03398 -4.11715 0
M  V30 4946 C 488.256 -3.22642 -4.95637 0
M  V30 4947 H 487.186 -0.270584 -0.703776 0
M  V30 4948 H 489.837 -1.25222 -1.34133 0
M  V30 4949 H 488.219 -0.670165 -3.90288 0
M  V30 4950 H 489.393 -3.41296 -3.09602 0
M  V30 4951 H 487.708 -2.97559 -2.91286 0
M  V30 4952 H 490.305 -1.3542 -5.17267 0
M  V30 4953 H 490.648 0.0289246 -4.1629 0
M  V30 4954 H 491.181 -1.5895 -3.64664 0
M  V30 4955 H 487.92 -4.28296 -4.96228 0
M  V30 4956 H 487.44 -2.62539 -5.39289 0
M  V30 4957 H 489.119 -3.16444 -5.64333 0
M  V30 4958 N 489.251 1.34841 -0.815825 0
M  V30 4959 C 490.497 1.98793 -0.401129 0
M  V30 4960 C 490.83 1.64548 1.03139 0
M  V30 4961 O 490.105 0.913487 1.71714 0
M  V30 4962 C 490.388 3.55143 -0.595409 0
M  V30 4963 C 490.241 3.99155 -2.07352 0
M  V30 4964 C 491.56 4.40092 -0.0268823 0
M  V30 4965 H 488.679 0.722146 -0.14722 0
M  V30 4966 H 491.321 1.59847 -1.02707 0
M  V30 4967 H 489.471 3.8845 -0.0625779 0
M  V30 4968 H 491.143 3.76216 -2.66945 0
M  V30 4969 H 489.386 3.49726 -2.56659 0
M  V30 4970 H 490.057 5.07971 -2.1603 0
M  V30 4971 H 492.533 4.13298 -0.482042 0
M  V30 4972 H 491.409 5.48562 -0.19267 0
M  V30 4973 H 491.67 4.29016 1.06759 0
M  V30 4974 N 490.729 0.570148 1.46925 0
M  V30 4975 C 491.692 -0.159933 2.28641 0
M  V30 4976 C 492.692 -0.830638 1.37685 0
M  V30 4977 O 493.882 -0.684516 1.60187 0
M  V30 4978 C 491.014 -1.2354 3.17727 0
M  V30 4979 H 492.207 0.558035 2.94662 0
M  V30 4980 H 489.76 0.327603 1.52828 0
M  V30 4981 H 490.495 -1.98535 2.56426 0
M  V30 4982 H 490.28 -0.759125 3.84681 0
M  V30 4983 H 491.77 -1.74782 3.79264 0
M  V30 4984 N 492.207 -1.54576 0.307264 0
M  V30 4985 C 493.155 -2.25208 -0.581723 0
M  V30 4986 C 494.149 -1.26031 -1.13192 0
M  V30 4987 O 495.355 -1.43862 -1.08184 0
M  V30 4988 H 491.73 -0.723173 -0.206214 0
M  V30 4989 H 493.701 -2.98378 0.0364663 0
M  V30 4990 C 492.45 -3.01086 -1.73904 0
M  V30 4991 H 491.773 -3.77208 -1.32491 0
M  V30 4992 H 493.213 -3.5378 -2.33701 0
M  V30 4993 C 491.672 -2.08422 -2.64692 0
M  V30 4994 O 492.202 -1.65636 -3.65961 0
M  V30 4995 N 490.408 -1.74247 -2.32564 0
M  V30 4996 H 489.955 -2.09238 -1.50257 0
M  V30 4997 H 489.913 -1.12524 -2.93574 0
M  V30 4998 N 493.685 -0.035106 -1.57561 0
M  V30 4999 C 494.617 0.973604 -2.07494 0
M  V30 5000 C 495.63 1.28504 -0.999534 0
M  V30 5001 O 496.819 1.24864 -1.27559 0
M  V30 5002 C 493.919 2.29945 -2.48955 0
M  V30 5003 C 493.092 2.1723 -3.79644 0
M  V30 5004 C 492.151 3.328 -4.07592 0
M  V30 5005 O 491.177 3.09418 -4.77754 0
M  V30 5006 N 492.379 4.56779 -3.58236 0
M  V30 5007 H 495.144 0.547525 -2.94656 0
M  V30 5008 H 492.705 0.151515 -1.61189 0
M  V30 5009 H 494.697 3.06097 -2.64739 0
M  V30 5010 H 493.267 2.64173 -1.67126 0
M  V30 5011 H 492.487 1.25768 -3.73599 0
M  V30 5012 H 493.775 2.05945 -4.65257 0
M  V30 5013 H 493.173 4.78668 -3.01485 0
M  V30 5014 H 491.73 5.30079 -3.79288 0
M  V30 5015 N 495.163 1.55791 0.238111 0
M  V30 5016 C 496.574 1.68383 0.806472 0
M  V30 5017 C 496.925 0.634157 1.85669 0
M  V30 5018 O 496.05 -0.217913 2.153 0
M  V30 5019 C 496.645 3.05268 1.46959 0
M  V30 5020 C 495.204 3.1977 1.98555 0
M  V30 5021 C 494.351 2.64279 0.839763 0
M  V30 5022 H 497.302 1.58694 0.0137535 0
M  V30 5023 H 497.323 3.00203 2.33792 0
M  V30 5024 H 496.835 3.81643 0.704993 0
M  V30 5025 H 494.936 2.48234 2.77868 0
M  V30 5026 H 495.049 4.26788 2.17689 0
M  V30 5027 H 493.413 2.22329 1.24265 0
M  V30 5028 H 494.196 3.43187 0.0881032 0
M  V30 5029 N 496.642 -0.504142 1.49319 0
M  V30 5030 C 497.867 -1.28729 1.62615 0
M  V30 5031 C 498.292 -1.85752 0.296309 0
M  V30 5032 O 497.65 -1.65704 -0.735649 0
M  V30 5033 C 497.698 -2.39561 2.69524 0
M  V30 5034 O 496.802 -3.43324 2.28478 0
M  V30 5035 H 496.143 -0.380172 0.544395 0
M  V30 5036 H 498.673 -0.603872 1.95485 0
M  V30 5037 H 498.683 -2.8537 2.91595 0
M  V30 5038 H 497.358 -1.97423 3.66056 0
M  V30 5039 H 495.935 -3.03455 2.16725 0
M  V30 5040 N 498.12 -1.38341 -0.754957 0
M  V30 5041 C 499.366 -1.34672 -1.51628 0
M  V30 5042 C 499.699 0.0636036 -1.94096 0
M  V30 5043 O 498.974 1.0245 -1.6533 0
M  V30 5044 C 499.257 -2.30116 -2.76981 0
M  V30 5045 C 499.11 -3.80003 -2.4066 0
M  V30 5046 C 500.429 -2.23715 -3.78998 0
M  V30 5047 H 497.548 -0.490517 -0.550056 0
M  V30 5048 H 500.19 -1.69178 -0.864807 0
M  V30 5049 H 498.34 -2.00821 -3.3257 0
M  V30 5050 H 500.012 -4.19966 -1.90856 0
M  V30 5051 H 498.255 -3.97751 -1.73137 0
M  V30 5052 H 498.926 -4.42244 -3.30339 0
M  V30 5053 H 501.402 -2.49574 -3.32945 0
M  V30 5054 H 500.278 -2.9261 -4.64403 0
M  V30 5055 H 500.539 -1.23554 -4.24484 0
M  V30 5056 N 499.598 0.982988 -1.23187 0
M  V30 5057 C 500.531 2.07302 -0.953993 0
M  V30 5058 C 501.509 1.62249 0.106753 0
M  V30 5059 O 502.693 1.88481 -0.0269525 0
M  V30 5060 C 499.82 3.35873 -0.436716 0
M  V30 5061 C 498.866 3.99862 -1.48367 0
M  V30 5062 S 499.699 4.39443 -3.06023 0
M  V30 5063 C 500.855 5.7117 -2.55959 0
M  V30 5064 H 501.088 2.30554 -1.87702 0
M  V30 5065 H 498.621 1.11883 -1.06403 0
M  V30 5066 H 500.579 4.10244 -0.144872 0
M  V30 5067 H 499.24 3.10634 0.465351 0
M  V30 5068 H 498.433 4.92471 -1.07182 0
M  V30 5069 H 498.035 3.31857 -1.72473 0
M  V30 5070 H 500.327 6.47977 -1.97818 0
M  V30 5071 H 501.27 6.17194 -3.47098 0
M  V30 5072 H 501.678 5.29046 -1.96902 0
M  V30 5073 N 501.076 1.04316 1.18135 0
M  V30 5074 C 502.301 0.768047 1.92655 0
M  V30 5075 C 502.726 -0.66904 1.758 0
M  V30 5076 O 502.084 -1.46372 1.06981 0
M  V30 5077 C 502.132 1.14239 3.42026 0
M  V30 5078 O 501.236 0.269333 4.1152 0
M  V30 5079 H 500.577 0.282436 0.600937 0
M  V30 5080 H 503.107 1.39367 1.49793 0
M  V30 5081 H 503.117 1.10538 3.92741 0
M  V30 5082 H 501.792 2.18928 3.53615 0
M  V30 5083 H 500.369 0.366175 3.71098 0
M  V30 5084 N 502.554 -1.34406 0.822964 0
M  V30 5085 C 503.802 -1.97892 0.410245 0
M  V30 5086 C 504.123 -1.65567 -1.03017 0
M  V30 5087 O 503.393 -0.94642 -1.71522 0
M  V30 5088 H 501.973 -0.732049 0.148707 0
M  V30 5089 H 504.635 -1.64043 1.05242 0
M  V30 5090 H 503.731 -3.07579 0.529284 0
M  V30 5091 N 504.032 -0.577932 -1.46621 0
M  V30 5092 C 505.272 -0.0643097 -2.04299 0
M  V30 5093 C 505.636 1.26967 -1.44026 0
M  V30 5094 O 506.837 1.87224 -1.92875 0
M  V30 5095 C 505.108 0.00547588 -3.574 0
M  V30 5096 S 506.667 0.462216 -4.36359 0
M  V30 5097 H 503.485 -0.0351573 -0.71013 0
M  V30 5098 H 506.087 -0.76935 -1.79725 0
M  V30 5099 H 504.791 -0.969423 -3.98786 0
M  V30 5100 H 504.322 0.733435 -3.86503 0
M  V30 5101 H 506.337 1.71791 -4.65513 0
M  V30 5102 N 505.51 1.54411 -0.315457 0
M  V30 5103 C 506.44 2.27002 0.547039 0
M  V30 5104 C 507.421 1.27492 1.12605 0
M  V30 5105 O 508.606 1.5629 1.15269 0
M  V30 5106 C 505.736 3.02171 1.71201 0
M  V30 5107 C 504.69 4.0895 1.26268 0
M  V30 5108 C 504.016 4.71915 2.51396 0
M  V30 5109 C 505.316 5.20891 0.383419 0
M  V30 5110 H 507.01 2.99343 -0.0584517 0
M  V30 5111 H 504.556 1.4397 -0.0295527 0
M  V30 5112 H 506.509 3.51681 2.32161 0
M  V30 5113 H 505.233 2.27433 2.34397 0
M  V30 5114 H 503.892 3.60312 0.676062 0
M  V30 5115 H 503.54 3.93801 3.12937 0
M  V30 5116 H 503.24 5.44039 2.22026 0
M  V30 5117 H 504.764 5.24195 3.13133 0
M  V30 5118 H 506.178 5.66206 0.899082 0
M  V30 5119 H 504.575 5.99821 0.182857 0
M  V30 5120 H 505.645 4.81324 -0.587821 0
M  V30 5121 N 506.988 0.0434614 1.5754 0
M  V30 5122 C 508.265 -0.671479 1.83713 0
M  V30 5123 C 508.645 -1.89495 0.930315 0
M  V30 5124 O 507.993 -2.28498 -0.0105639 0
M  V30 5125 C 508.203 -1.0361 3.33266 0
M  V30 5126 C 509.551 -1.42167 4.00092 0
M  V30 5127 O 510.575 -1.12866 3.37846 0
M  V30 5128 O 509.434 -1.96817 5.09829 0
M  V30 5129 H 506.528 -0.330726 0.75799 0
M  V30 5130 H 509.074 0.0722373 1.69546 0
M  V30 5131 H 507.846 -0.165938 3.90948 0
M  V30 5132 H 507.469 -1.83751 3.52592 0
M  V30 5133 N 508.466 -1.55915 -0.229846 0
M  V30 5134 C 509.715 -1.77742 -0.953455 0
M  V30 5135 C 510.028 -0.610524 -1.85828 0
M  V30 5136 O 511.234 -0.712219 -2.61992 0
M  V30 5137 C 509.69 -3.14738 -1.74551 0
M  V30 5138 C 509.298 -4.39126 -0.887242 0
M  V30 5139 C 511.042 -3.45895 -2.46084 0
M  V30 5140 C 508.949 -5.67149 -1.67617 0
M  V30 5141 H 507.879 -0.662648 -0.359741 0
M  V30 5142 H 510.53 -1.82322 -0.207576 0
M  V30 5143 H 508.912 -3.04311 -2.53399 0
M  V30 5144 H 510.086 -4.60588 -0.139892 0
M  V30 5145 H 508.401 -4.15427 -0.284443 0
M  V30 5146 H 510.998 -4.38767 -3.05594 0
M  V30 5147 H 511.341 -2.68007 -3.18556 0
M  V30 5148 H 511.874 -3.57614 -1.74233 0
M  V30 5149 H 508.613 -6.47906 -0.994881 0
M  V30 5150 H 508.133 -5.49763 -2.39836 0
M  V30 5151 H 509.812 -6.07025 -2.23898 0
M  V30 5152 N 509.944 0.496216 -1.49584 0
M  V30 5153 C 510.892 1.61805 -1.67098 0
M  V30 5154 C 511.886 1.60667 -0.536877 0
M  V30 5155 O 513.092 1.65118 -0.716654 0
M  V30 5156 H 509.467 0.53646 -0.526986 0
M  V30 5157 H 511.438 1.44187 -2.61252 0
M  V30 5158 C 510.187 2.99912 -1.75921 0
M  V30 5159 H 509.51 3.01496 -2.62565 0
M  V30 5160 H 510.95 3.77931 -1.92209 0
M  V30 5161 C 509.409 3.33092 -0.505088 0
M  V30 5162 O 509.939 4.00019 0.367085 0
M  V30 5163 N 508.145 2.88278 -0.366599 0
M  V30 5164 H 507.692 2.33989 -1.07735 0
M  V30 5165 H 507.65 3.10846 0.47142 0
M  V30 5166 N 511.423 1.38739 0.74761 0
M  V30 5167 C 512.386 1.36241 1.84312 0
M  V30 5168 C 513.386 0.261811 1.58654 0
M  V30 5169 O 514.576 0.519031 1.66288 0
M  V30 5170 C 511.708 1.12253 3.21888 0
M  V30 5171 H 512.901 2.33712 1.87933 0
M  V30 5172 H 510.454 1.2412 0.949946 0
M  V30 5173 H 511.189 0.154133 3.23934 0
M  V30 5174 H 510.974 1.91943 3.41907 0
M  V30 5175 H 512.464 1.13215 4.0196 0
M  V30 5176 N 512.901 -0.976442 1.23707 0
M  V30 5177 C 514.126 -1.75875 1.09922 0
M  V30 5178 C 514.551 -1.84911 -0.34489 0
M  V30 5179 O 513.909 -1.31363 -1.24954 0
M  V30 5180 C 513.957 -3.16179 1.73388 0
M  V30 5181 O 513.061 -4.00124 0.99871 0
M  V30 5182 H 512.402 -0.540954 0.385052 0
M  V30 5183 H 514.932 -1.22546 1.6384 0
M  V30 5184 H 514.942 -3.66741 1.78788 0
M  V30 5185 H 513.617 -3.08917 2.78466 0
M  V30 5186 H 512.194 -3.58624 1.02193 0
M  V30 5187 N 514.379 -1.04941 -1.1758 0
M  V30 5188 C 515.656 -0.671918 -1.83697 0
M  V30 5189 C 516.036 0.847929 -1.93322 0
M  V30 5190 O 515.384 1.75287 -1.46583 0
M  V30 5191 C 515.594 -1.35797 -3.21497 0
M  V30 5192 C 516.942 -1.4944 -3.97433 0
M  V30 5193 O 517.966 -1.31678 -3.30967 0
M  V30 5194 O 516.825 -1.78463 -5.1654 0
M  V30 5195 H 513.919 -0.236212 -0.792548 0
M  V30 5196 H 516.465 -1.14884 -1.24899 0
M  V30 5197 H 515.237 -2.39498 -3.09446 0
M  V30 5198 H 514.86 -0.870236 -3.8796 0
M  V30 5199 N 515.857 1.33968 -0.830081 0
M  V30 5200 C 516.804 2.29387 -0.255008 0
M  V30 5201 C 517.774 1.53923 0.624243 0
M  V30 5202 O 518.959 1.82262 0.564372 0
M  V30 5203 C 516.099 3.4034 0.571209 0
M  V30 5204 C 515.212 4.30729 -0.331083 0
M  V30 5205 C 514.347 5.2879 0.505389 0
M  V30 5206 C 513.386 6.10819 -0.395843 0
M  V30 5207 N 512.523 7.00948 0.401979 0
M  V30 5208 H 517.363 2.77972 -1.07404 0
M  V30 5209 H 514.9 1.36785 -0.541133 0
M  V30 5210 H 516.858 4.03361 1.06562 0
M  V30 5211 H 515.488 2.9297 1.35529 0
M  V30 5212 H 514.54 3.68507 -0.943759 0
M  V30 5213 H 515.852 4.88181 -1.02377 0
M  V30 5214 H 515.006 5.97297 1.06399 0
M  V30 5215 H 513.745 4.71894 1.23155 0
M  V30 5216 H 512.75 5.41238 -0.966529 0
M  V30 5217 H 513.975 6.69797 -1.12023 0
M  V30 5218 H 511.921 6.46512 1.11168 0
M  V30 5219 H 511.838 7.55643 -0.232167 0
M  V30 5220 H 513.106 7.73774 0.943102 0
M  V30 5221 N 517.335 0.585699 1.46312 0
M  V30 5222 C 518.298 -0.135673 2.28798 0
M  V30 5223 C 519.298 -0.815988 1.38558 0
M  V30 5224 O 520.488 -0.667487 1.60904 0
M  V30 5225 C 517.62 -1.20163 3.1902 0
M  V30 5226 H 518.813 0.589257 2.94054 0
M  V30 5227 H 516.366 0.343794 1.52472 0
M  V30 5228 H 517.101 -1.95804 2.58517 0
M  V30 5229 H 516.886 -0.718282 3.85465 0
M  V30 5230 H 518.376 -1.70749 3.81096 0
M  V30 5231 N 518.813 -1.54241 0.323641 0
M  V30 5232 C 519.776 -2.22997 -0.529602 0
M  V30 5233 C 520.776 -1.22345 -1.04347 0
M  V30 5234 O 521.966 -1.46924 -0.935889 0
M  V30 5235 C 519.098 -2.93409 -1.73562 0
M  V30 5236 H 520.291 -2.99815 0.0714518 0
M  V30 5237 H 517.844 -1.56121 0.0747258 0
M  V30 5238 H 518.579 -2.20729 -2.37591 0
M  V30 5239 H 518.364 -3.67217 -1.37456 0
M  V30 5240 H 519.854 -3.45794 -2.34128 0
M  V30 5241 N 520.291 -0.0518155 -1.57515 0
M  V30 5242 C 521.201 0.937539 -2.15052 0
M  V30 5243 C 522.217 1.34121 -1.10849 0
M  V30 5244 O 523.393 1.418 -1.4302 0
M  V30 5245 C 520.458 2.19379 -2.68466 0
M  V30 5246 C 519.519 1.84841 -3.87469 0
M  V30 5247 C 518.752 3.04477 -4.38326 0
M  V30 5248 O 518.975 4.17868 -3.88256 0
M  V30 5249 O 517.909 2.85453 -5.29906 0
M  V30 5250 H 521.735 0.478201 -2.99912 0
M  V30 5251 H 519.32 0.17012 -1.48428 0
M  V30 5252 H 521.202 2.93084 -3.02787 0
M  V30 5253 H 519.877 2.64449 -1.86677 0
M  V30 5254 H 518.784 1.08449 -3.58036 0
M  V30 5255 H 520.117 1.44569 -4.7049 0
M  V30 5256 N 521.769 1.56035 0.221574 0
M  V30 5257 C 523.016 1.79047 0.94597 0
M  V30 5258 C 523.344 0.62057 1.84334 0
M  V30 5259 O 522.599 -0.395053 1.91671 0
M  V30 5260 C 522.898 3.07813 1.8162 0
M  V30 5261 C 522.564 4.3797 1.07206 0
M  V30 5262 C 521.226 4.73334 0.866508 0
M  V30 5263 C 523.578 5.18326 0.546565 0
M  V30 5264 C 520.906 5.8657 0.123549 0
M  V30 5265 C 523.258 6.32335 -0.18305 0
M  V30 5266 C 521.922 6.66301 -0.399861 0
M  V30 5267 H 521.192 0.655178 0.346155 0
M  V30 5268 H 523.839 1.90299 0.214146 0
M  V30 5269 H 522.144 2.91682 2.61589 0
M  V30 5270 H 523.841 3.2282 2.37884 0
M  V30 5271 H 520.431 4.10202 1.24226 0
M  V30 5272 H 524.615 4.9144 0.692847 0
M  V30 5273 H 519.871 6.11376 -0.0546591 0
M  V30 5274 H 524.045 6.9383 -0.59775 0
M  V30 5275 H 521.672 7.53889 -0.977489 0
M  V30 5276 N 523.247 -0.488276 1.49845 0
M  V30 5277 C 524.493 -1.24341 1.6021 0
M  V30 5278 C 524.826 -1.91967 0.293651 0
M  V30 5279 O 524.101 -1.81323 -0.703718 0
M  V30 5280 C 524.384 -2.3005 2.77036 0
M  V30 5281 C 524.237 -1.66842 4.17713 0
M  V30 5282 C 525.556 -3.31509 2.89464 0
M  V30 5283 H 522.675 -0.450704 0.583125 0
M  V30 5284 H 525.317 -0.539673 1.82174 0
M  V30 5285 H 523.467 -2.90071 2.58439 0
M  V30 5286 H 525.139 -1.1055 4.47858 0
M  V30 5287 H 523.382 -0.972079 4.22768 0
M  V30 5288 H 524.053 -2.43576 4.95353 0
M  V30 5289 H 526.529 -2.81493 3.06433 0
M  V30 5290 H 525.405 -4.02822 3.72861 0
M  V30 5291 H 525.666 -3.94603 1.99351 0
M  V30 5292 N 524.725 -1.39134 -0.740242 0
M  V30 5293 C 525.673 -1.3757 -1.87556 0
M  V30 5294 C 526.667 -0.259593 -1.67399 0
M  V30 5295 O 527.873 -0.429349 -1.74804 0
M  V30 5296 H 524.248 -0.42947 -0.6173 0
M  V30 5297 H 526.219 -2.33345 -1.85991 0
M  V30 5298 C 524.968 -1.23087 -3.25184 0
M  V30 5299 H 524.291 -2.08237 -3.41288 0
M  V30 5300 H 525.731 -1.26049 -4.0483 0
M  V30 5301 C 524.19 0.0611471 -3.36845 0
M  V30 5302 O 524.72 1.03328 -3.88183 0
M  V30 5303 N 522.926 0.122454 -2.90342 0
M  V30 5304 H 522.473 -0.669329 -2.48752 0
M  V30 5305 H 522.431 0.986463 -2.98523 0
M  V30 5306 N 526.204 0.969867 -1.24223 0
M  V30 5307 C 527.451 1.71256 -1.08063 0
M  V30 5308 C 527.779 1.90734 0.380872 0
M  V30 5309 O 527.034 1.46469 1.29789 0
M  V30 5310 C 527.333 3.10883 -1.76314 0
M  V30 5311 C 526.999 3.11252 -3.26241 0
M  V30 5312 C 525.661 3.1106 -3.67144 0
M  V30 5313 C 528.013 3.05751 -4.22097 0
M  V30 5314 C 525.341 3.03097 -5.02344 0
M  V30 5315 C 527.693 2.9933 -5.57301 0
M  V30 5316 C 526.357 2.97466 -5.97554 0
M  V30 5317 H 525.627 0.62667 -0.395431 0
M  V30 5318 H 528.274 1.13422 -1.54297 0
M  V30 5319 H 526.579 3.72168 -1.22468 0
M  V30 5320 H 528.276 3.67138 -1.61277 0
M  V30 5321 H 524.866 3.12165 -2.93685 0
M  V30 5322 H 529.05 3.05031 -3.91497 0
M  V30 5323 H 524.306 3.00013 -5.32731 0
M  V30 5324 H 528.48 2.94033 -6.31283 0
M  V30 5325 H 526.107 2.91051 -7.02277 0
M  V30 5326 N 527.682 1.05563 1.17022 0
M  V30 5327 C 528.922 0.777033 1.89054 0
M  V30 5328 C 529.286 -0.683617 1.79418 0
M  V30 5329 O 530.487 -1.07648 2.46303 0
M  V30 5330 C 528.758 1.24886 3.34871 0
M  V30 5331 S 530.317 1.0982 4.24835 0
M  V30 5332 H 527.135 0.282082 0.652649 0
M  V30 5333 H 529.737 1.35103 1.41306 0
M  V30 5334 H 528.441 2.30699 3.3942 0
M  V30 5335 H 527.972 0.669292 3.87665 0
M  V30 5336 H 529.987 0.02462 4.96194 0
M  V30 5337 N 529.16 -1.33526 0.837174 0
M  V30 5338 C 530.437 -1.92369 0.354065 0
M  V30 5339 C 530.817 -1.76348 -1.16038 0
M  V30 5340 O 530.165 -1.15083 -1.97403 0
M  V30 5341 C 530.375 -3.39728 0.799101 0
M  V30 5342 C 531.723 -4.16877 0.806139 0
M  V30 5343 O 532.747 -3.48373 0.742597 0
M  V30 5344 O 531.606 -5.39166 0.892345 0
M  V30 5345 H 528.7 -0.820952 0.0998378 0
M  V30 5346 H 531.246 -1.42409 0.922913 0
M  V30 5347 H 530.018 -3.45254 1.84162 0
M  V30 5348 H 529.641 -3.97062 0.206731 0
M  V30 5349 N 530.638 -0.59345 -1.46 0
M  V30 5350 C 531.863 -0.0872365 -2.07216 0
M  V30 5351 C 532.288 1.2131 -1.43755 0
M  V30 5352 O 531.646 1.73528 -0.525152 0
M  V30 5353 C 531.694 0.0538197 -3.6056 0
M  V30 5354 O 530.798 1.10765 -3.97247 0
M  V30 5355 H 530.139 -0.0676598 -0.660544 0
M  V30 5356 H 532.669 -0.819445 -1.87473 0
M  V30 5357 H 532.679 0.256567 -4.07193 0
M  V30 5358 H 531.354 -0.895739 -4.0614 0
M  V30 5359 H 529.931 0.882501 -3.62307 0
M  V30 5360 N 532.116 1.54067 -0.331816 0
M  V30 5361 C 533.363 2.00715 0.268269 0
M  V30 5362 C 533.691 1.21986 1.51491 0
M  V30 5363 O 532.946 0.292309 1.93505 0
M  V30 5364 C 533.245 3.51634 0.639392 0
M  V30 5365 C 532.911 4.48018 -0.509019 0
M  V30 5366 C 531.573 4.74089 -0.824209 0
M  V30 5367 C 533.925 5.05237 -1.28003 0
M  V30 5368 C 531.253 5.54637 -1.91298 0
M  V30 5369 C 533.605 5.86972 -2.35895 0
M  V30 5370 C 532.269 6.11342 -2.67987 0
M  V30 5371 H 531.539 0.734469 0.0981667 0
M  V30 5372 H 534.186 1.8596 -0.457304 0
M  V30 5373 H 532.491 3.6416 1.44551 0
M  V30 5374 H 534.188 3.85175 1.11539 0
M  V30 5375 H 530.778 4.27851 -0.253287 0
M  V30 5376 H 534.962 4.8507 -1.04978 0
M  V30 5377 H 530.218 5.71747 -2.16599 0
M  V30 5378 H 534.392 6.30327 -2.96076 0
M  V30 5379 H 532.019 6.73544 -3.5248 0
M  V30 5380 N 533.594 0.0601682 1.57485 0
M  V30 5381 C 534.542 -0.928899 2.13247 0
M  V30 5382 C 535.536 -1.31616 1.06647 0
M  V30 5383 O 536.742 -1.29476 1.25043 0
M  V30 5384 H 533.117 -0.317455 0.681708 0
M  V30 5385 H 535.088 -0.433566 2.95233 0
M  V30 5386 C 533.837 -2.19121 2.69965 0
M  V30 5387 H 533.16 -1.90204 3.51657 0
M  V30 5388 H 534.6 -2.86465 3.12592 0
M  V30 5389 C 533.059 -2.94195 1.64168 0
M  V30 5390 O 533.589 -3.87468 1.05978 0
M  V30 5391 N 531.795 -2.57089 1.35476 0
M  V30 5392 H 531.342 -1.81314 1.82984 0
M  V30 5393 H 531.3 -3.07624 0.649196 0
M  V30 5394 N 535.072 -1.5615 -0.213296 0
M  V30 5395 C 536.321 -1.78743 -0.93455 0
M  V30 5396 C 536.634 -0.630199 -1.8517 0
M  V30 5397 O 537.84 -0.739966 -2.61222 0
M  V30 5398 C 536.296 -3.16571 -1.71203 0
M  V30 5399 C 535.904 -4.40043 -0.840617 0
M  V30 5400 C 537.648 -3.48485 -2.42401 0
M  V30 5401 C 535.555 -5.68895 -1.61592 0
M  V30 5402 H 534.485 -0.666426 -0.352692 0
M  V30 5403 H 537.136 -1.82532 -0.188227 0
M  V30 5404 H 535.518 -3.06981 -2.50157 0
M  V30 5405 H 536.692 -4.6071 -0.0910326 0
M  V30 5406 H 535.007 -4.15706 -0.240365 0
M  V30 5407 H 537.604 -4.41983 -3.00924 0
M  V30 5408 H 537.947 -2.71371 -3.15695 0
M  V30 5409 H 538.48 -3.59442 -1.7043 0
M  V30 5410 H 535.219 -6.48925 -0.926106 0
M  V30 5411 H 534.739 -5.52275 -2.33991 0
M  V30 5412 H 536.418 -6.09365 -2.17447 0
M  V30 5413 N 536.55 0.480323 -1.50102 0
M  V30 5414 C 537.961 1.06142 -1.53593 0
M  V30 5415 C 538.312 1.93335 -0.334055 0
M  V30 5416 O 537.437 2.09188 0.55403 0
M  V30 5417 C 538.032 1.9317 -2.78336 0
M  V30 5418 C 536.591 2.46405 -2.84538 0
M  V30 5419 C 535.738 1.24521 -2.4777 0
M  V30 5420 H 538.689 0.26333 -1.565 0
M  V30 5421 H 538.71 2.78123 -2.59669 0
M  V30 5422 H 538.222 1.29683 -3.65792 0
M  V30 5423 H 536.323 3.13472 -2.01411 0
M  V30 5424 H 536.436 2.82143 -3.87211 0
M  V30 5425 H 534.8 1.57706 -2.00003 0
M  V30 5426 H 535.583 0.627102 -3.37524 0
M  V30 5427 N 538.028 1.39524 0.732853 0
M  V30 5428 C 538.958 1.41153 1.86005 0
M  V30 5429 C 539.939 0.274614 1.67869 0
M  V30 5430 O 541.124 0.480745 1.88155 0
M  V30 5431 C 538.254 1.25638 3.23778 0
M  V30 5432 C 537.208 2.36752 3.56556 0
M  V30 5433 C 536.534 2.06326 4.93289 0
M  V30 5434 C 537.834 3.79069 3.5931 0
M  V30 5435 H 539.528 2.35484 1.84899 0
M  V30 5436 H 537.074 1.13348 0.888162 0
M  V30 5437 H 539.027 1.25398 4.0231 0
M  V30 5438 H 537.751 0.277772 3.25417 0
M  V30 5439 H 536.41 2.36213 2.80355 0
M  V30 5440 H 536.058 1.06897 4.9151 0
M  V30 5441 H 535.758 2.80757 5.16187 0
M  V30 5442 H 537.282 2.07739 5.74175 0
M  V30 5443 H 538.696 3.81526 4.27914 0
M  V30 5444 H 537.093 4.52878 3.93728 0
M  V30 5445 H 538.163 4.09893 2.59068 0
M  V30 5446 N 539.506 -0.963266 1.24736 0
M  V30 5447 C 540.752 -1.70933 1.09131 0
M  V30 5448 C 541.085 -1.90676 -0.368273 0
M  V30 5449 O 540.36 -1.47147 -1.27193 0
M  V30 5450 C 540.643 -3.09744 1.83658 0
M  V30 5451 C 540.496 -2.97465 3.37394 0
M  V30 5452 C 541.815 -4.09483 1.61282 0
M  V30 5453 H 538.934 -0.620398 0.397838 0
M  V30 5454 H 541.576 -1.12028 1.53459 0
M  V30 5455 H 539.726 -3.60031 1.4598 0
M  V30 5456 H 541.398 -2.54571 3.84696 0
M  V30 5457 H 539.641 -2.33576 3.65547 0
M  V30 5458 H 540.312 -3.95822 3.84745 0
M  V30 5459 H 542.788 -3.68073 1.94066 0
M  V30 5460 H 541.664 -5.04666 2.15878 0
M  V30 5461 H 541.925 -4.38639 0.552102 0
M  V30 5462 N 540.985 -1.06182 -1.16461 0
M  V30 5463 C 541.917 -0.629584 -2.20383 0
M  V30 5464 C 542.93 0.311834 -1.59786 0
M  V30 5465 O 544.119 0.103 -1.78203 0
M  V30 5466 C 541.219 0.0973695 -3.3876 0
M  V30 5467 C 540.392 -0.857252 -4.28917 0
M  V30 5468 C 539.451 -0.169749 -5.25926 0
M  V30 5469 O 538.477 -0.807044 -5.6345 0
M  V30 5470 N 539.679 1.08911 -5.70192 0
M  V30 5471 H 542.444 -1.52352 -2.58087 0
M  V30 5472 H 540.005 -0.944993 -1.31459 0
M  V30 5473 H 541.997 0.567676 -4.00699 0
M  V30 5474 H 540.567 0.893093 -2.99571 0
M  V30 5475 H 539.787 -1.50696 -3.64259 0
M  V30 5476 H 541.075 -1.50489 -4.86035 0
M  V30 5477 H 540.473 1.62703 -5.41797 0
M  V30 5478 H 539.03 1.50331 -6.34227 0
M  V30 5479 N 542.463 1.3308 -0.844243 0
M  V30 5480 C 543.393 2.3161 -0.296493 0
M  V30 5481 C 544.374 1.59215 0.598707 0
M  V30 5482 O 545.559 1.87077 0.521134 0
M  V30 5483 C 542.689 3.43313 0.524762 0
M  V30 5484 C 541.643 4.27115 -0.275106 0
M  V30 5485 C 540.969 5.30483 0.670236 0
M  V30 5486 C 542.269 5.00443 -1.49514 0
M  V30 5487 H 543.963 2.77672 -1.11976 0
M  V30 5488 H 541.509 1.33496 -0.539899 0
M  V30 5489 H 543.462 4.11273 0.918298 0
M  V30 5490 H 542.186 2.95952 1.3813 0
M  V30 5491 H 540.845 3.60787 -0.650267 0
M  V30 5492 H 540.493 4.79379 1.52332 0
M  V30 5493 H 540.193 5.87435 0.139123 0
M  V30 5494 H 541.717 6.01308 1.06117 0
M  V30 5495 H 543.131 5.61141 -1.17447 0
M  V30 5496 H 541.528 5.67071 -1.96343 0
M  V30 5497 H 542.598 4.28906 -2.26202 0
M  V30 5498 N 543.941 0.601185 1.45683 0
M  V30 5499 C 545.187 0.0940202 2.02582 0
M  V30 5500 C 545.52 -1.26972 1.46941 0
M  V30 5501 O 544.795 -1.83613 0.641612 0
M  V30 5502 C 545.078 0.0481715 3.60068 0
M  V30 5503 C 544.931 1.44212 4.26055 0
M  V30 5504 C 546.25 -0.642975 4.35378 0
M  V30 5505 H 543.369 0.0356404 0.736138 0
M  V30 5506 H 546.011 0.771929 1.73612 0
M  V30 5507 H 544.161 -0.529128 3.8488 0
M  V30 5508 H 545.833 2.06601 4.12449 0
M  V30 5509 H 544.076 2.00465 3.84703 0
M  V30 5510 H 544.747 1.36234 5.34925 0
M  V30 5511 H 547.223 -0.152351 4.15821 0
M  V30 5512 H 546.099 -0.644141 5.45107 0
M  V30 5513 H 546.36 -1.70785 4.0778 0
M  V30 5514 N 545.419 -1.53889 0.339982 0
M  V30 5515 C 546.696 -1.93084 -0.312719 0
M  V30 5516 C 547.076 -1.2712 -1.68534 0
M  V30 5517 O 546.424 -0.420835 -2.24591 0
M  V30 5518 C 546.634 -3.4683 -0.388558 0
M  V30 5519 C 547.982 -4.19732 -0.641088 0
M  V30 5520 O 549.006 -3.53075 -0.470818 0
M  V30 5521 O 547.865 -5.3781 -0.970685 0
M  V30 5522 H 544.959 -0.806784 -0.18174 0
M  V30 5523 H 547.505 -1.65137 0.390898 0
M  V30 5524 H 546.277 -3.87055 0.574821 0
M  V30 5525 H 545.9 -3.80933 -1.1391 0
M  V30 5526 N 546.897 -0.0685191 -1.57451 0
M  V30 5527 C 548.143 0.602239 -1.93652 0
M  V30 5528 C 548.476 1.6946 -0.948526 0
M  V30 5529 O 547.751 1.94487 0.022782 0
M  V30 5530 C 548.034 1.18223 -3.4014 0
M  V30 5531 C 547.887 0.0967431 -4.49696 0
M  V30 5532 C 549.206 2.08872 -3.87377 0
M  V30 5533 H 546.325 0.217453 -0.70419 0
M  V30 5534 H 548.967 -0.133821 -1.89528 0
M  V30 5535 H 547.117 1.80953 -3.43785 0
M  V30 5536 H 548.789 -0.536155 -4.58174 0
M  V30 5537 H 547.032 -0.573063 -4.29998 0
M  V30 5538 H 547.703 0.542894 -5.49324 0
M  V30 5539 H 550.179 1.56081 -3.85717 0
M  V30 5540 H 549.055 2.46389 -4.90493 0
M  V30 5541 H 549.316 2.99572 -3.25129 0
M  V30 5542 N 548.375 1.56261 0.205012 0
M  V30 5543 C 549.786 1.70056 0.770574 0
M  V30 5544 C 550.137 0.673398 1.84282 0
M  V30 5545 O 549.262 -0.172196 2.15714 0
M  V30 5546 C 549.857 3.08316 1.40451 0
M  V30 5547 C 548.416 3.2391 1.91727 0
M  V30 5548 C 547.563 2.66001 0.783516 0
M  V30 5549 H 550.514 1.58688 -0.019911 0
M  V30 5550 H 550.535 3.05094 2.27371 0
M  V30 5551 H 550.047 3.83053 0.623882 0
M  V30 5552 H 548.148 2.54072 2.7254 0
M  V30 5553 H 548.261 4.3131 2.08588 0
M  V30 5554 H 546.625 2.24915 1.19521 0
M  V30 5555 H 547.408 3.43297 0.0152883 0
M  V30 5556 N 549.853 -0.472356 1.50355 0
M  V30 5557 C 551.101 -1.22211 1.60962 0
M  V30 5558 C 551.422 -1.92497 0.311439 0
M  V30 5559 O 550.692 -1.8405 -0.671002 0
M  V30 5560 H 549.272 -0.454092 0.593135 0
M  V30 5561 H 551.934 -0.544977 1.87126 0
M  V30 5562 H 551.03 -1.9707 2.42012 0
M  V30 5563 N 551.331 -1.39911 -0.725443 0
M  V30 5564 C 552.578 -1.37654 -1.48518 0
M  V30 5565 C 552.906 0.0243982 -1.94485 0
M  V30 5566 O 552.161 1.00708 -1.67799 0
M  V30 5567 C 552.46 -2.30368 -2.7325 0
M  V30 5568 C 552.126 -3.77817 -2.461 0
M  V30 5569 C 550.788 -4.17991 -2.38405 0
M  V30 5570 C 553.14 -4.71036 -2.23103 0
M  V30 5571 C 550.468 -5.49433 -2.05768 0
M  V30 5572 C 552.82 -6.02766 -1.9198 0
M  V30 5573 C 551.484 -6.41993 -1.82761 0
M  V30 5574 H 550.754 -0.503713 -0.543465 0
M  V30 5575 H 553.401 -1.7249 -0.831822 0
M  V30 5576 H 551.706 -1.88683 -3.43375 0
M  V30 5577 H 553.403 -2.2591 -3.31309 0
M  V30 5578 H 549.993 -3.45982 -2.52972 0
M  V30 5579 H 554.177 -4.40823 -2.2801 0
M  V30 5580 H 549.433 -5.78738 -1.9716 0
M  V30 5581 H 553.607 -6.74519 -1.73197 0
M  V30 5582 H 551.234 -7.43761 -1.57237 0
M  V30 5583 N 552.809 0.956637 -1.25245 0
M  V30 5584 C 553.739 2.07058 -1.07931 0
M  V30 5585 C 554.72 1.70096 0.0110361 0
M  V30 5586 O 555.905 1.93555 -0.158121 0
M  V30 5587 C 553.035 3.40272 -0.695124 0
M  V30 5588 C 551.989 3.91235 -1.73549 0
M  V30 5589 C 551.315 5.20921 -1.20604 0
M  V30 5590 C 552.615 4.17837 -3.13385 0
M  V30 5591 H 554.309 2.218 -2.01109 0
M  V30 5592 H 551.855 1.06581 -0.968326 0
M  V30 5593 H 553.808 4.1765 -0.560949 0
M  V30 5594 H 552.532 3.25462 0.272355 0
M  V30 5595 H 551.191 3.16025 -1.85807 0
M  V30 5596 H 550.839 5.02479 -0.228846 0
M  V30 5597 H 550.539 5.55987 -1.90136 0
M  V30 5598 H 552.063 6.00897 -1.08421 0
M  V30 5599 H 553.477 4.8588 -3.04292 0
M  V30 5600 H 551.874 4.64154 -3.80369 0
M  V30 5601 H 552.944 3.2419 -3.60595 0
M  V30 5602 N 554.287 1.06798 1.15896 0
M  V30 5603 C 555.698 0.811355 1.68149 0
M  V30 5604 C 556.049 -0.664339 1.8461 0
M  V30 5605 O 555.174 -1.51485 1.54535 0
M  V30 5606 C 555.769 1.46624 3.05429 0
M  V30 5607 C 554.328 1.25726 3.54781 0
M  V30 5608 C 553.475 1.53949 2.3064 0
M  V30 5609 H 556.426 1.23078 1.00187 0
M  V30 5610 H 556.447 0.88437 3.7008 0
M  V30 5611 H 555.959 2.54025 2.93416 0
M  V30 5612 H 554.06 0.20322 3.72045 0
M  V30 5613 H 554.173 1.97354 4.36564 0
M  V30 5614 H 552.537 0.96025 2.35905 0
M  V30 5615 H 553.32 2.6252 2.2122 0
M  V30 5616 N 555.766 -1.3263 0.851289 0
M  V30 5617 C 557.014 -1.96978 0.452128 0
M  V30 5618 C 557.335 -1.67715 -0.99482 0
M  V30 5619 O 556.605 -0.98259 -1.69476 0
M  V30 5620 H 555.185 -0.72873 0.164202 0
M  V30 5621 H 557.847 -1.61774 1.08698 0
M  V30 5622 H 556.943 -3.06387 0.594407 0
M  V30 5623 N 557.244 -0.608902 -1.45362 0
M  V30 5624 C 558.49 -0.104762 -2.02529 0
M  V30 5625 C 558.823 1.26191 -1.47613 0
M  V30 5626 O 558.098 1.8327 -0.65134 0
M  V30 5627 C 558.381 -0.0672661 -3.60037 0
M  V30 5628 C 558.234 -1.4647 -4.25284 0
M  V30 5629 C 559.553 0.619877 -4.35713 0
M  V30 5630 H 556.672 -0.0395438 -0.735938 0
M  V30 5631 H 559.314 -0.781126 -1.73201 0
M  V30 5632 H 557.464 0.50871 -3.85155 0
M  V30 5633 H 559.136 -2.08785 -4.11347 0
M  V30 5634 H 557.379 -2.02502 -3.83634 0
M  V30 5635 H 558.05 -1.39069 -5.34195 0
M  V30 5636 H 560.526 0.130297 -4.15896 0
M  V30 5637 H 559.402 0.615224 -5.45441 0
M  V30 5638 H 559.663 1.68621 -4.0868 0
M  V30 5639 N 558.722 1.53707 -0.348139 0
M  V30 5640 C 559.654 2.22725 0.540946 0
M  V30 5641 C 560.667 1.2354 1.06027 0
M  V30 5642 O 561.856 1.49867 0.96964 0
M  V30 5643 C 558.956 2.89756 1.75768 0
M  V30 5644 C 558.129 4.15297 1.37285 0
M  V30 5645 C 557.188 4.65697 2.44976 0
M  V30 5646 O 556.214 5.29798 2.08092 0
M  V30 5647 N 557.416 4.42017 3.763 0
M  V30 5648 H 560.181 2.99658 -0.0501592 0
M  V30 5649 H 557.742 1.60979 -0.17248 0
M  V30 5650 H 559.734 3.20388 2.47252 0
M  V30 5651 H 558.304 2.16382 2.25605 0
M  V30 5652 H 557.524 3.9116 0.488584 0
M  V30 5653 H 558.812 4.96948 1.09179 0
M  V30 5654 H 558.21 3.9076 4.09051 0
M  V30 5655 H 556.767 4.77242 4.4394 0
M  V30 5656 N 560.2 0.0768682 1.57412 0
M  V30 5657 C 561.132 -0.918248 2.10002 0
M  V30 5658 C 562.145 -1.25808 1.03325 0
M  V30 5659 O 563.334 -1.21438 1.30824 0
M  V30 5660 C 560.434 -2.23263 2.54964 0
M  V30 5661 C 559.607 -2.07088 3.8527 0
M  V30 5662 C 558.666 -3.21876 4.16272 0
M  V30 5663 O 557.692 -2.96643 4.8579 0
M  V30 5664 N 558.894 -4.4712 3.70221 0
M  V30 5665 H 561.659 -0.469209 2.96004 0
M  V30 5666 H 559.22 -0.108725 1.61535 0
M  V30 5667 H 561.212 -2.9897 2.72762 0
M  V30 5668 H 559.782 -2.59649 1.74072 0
M  V30 5669 H 559.002 -1.15818 3.76802 0
M  V30 5670 H 560.29 -1.93537 4.70554 0
M  V30 5671 H 559.688 -4.70506 3.1407 0
M  V30 5672 H 558.245 -5.19837 3.93209 0
M  V30 5673 N 561.678 -1.56367 -0.196722 0
M  V30 5674 C 562.588 -1.97617 -1.2643 0
M  V30 5675 C 563.604 -0.883598 -1.49895 0
M  V30 5676 O 564.78 -1.18921 -1.62541 0
M  V30 5677 C 561.845 -2.30595 -2.58895 0
M  V30 5678 C 560.906 -3.53551 -2.43516 0
M  V30 5679 C 560.139 -3.84946 -3.69665 0
M  V30 5680 O 560.362 -3.17655 -4.73763 0
M  V30 5681 O 559.296 -4.78379 -3.65291 0
M  V30 5682 H 563.122 -2.88648 -0.944233 0
M  V30 5683 H 560.707 -1.43901 -0.401592 0
M  V30 5684 H 562.589 -2.52889 -3.37083 0
M  V30 5685 H 561.264 -1.42732 -2.90533 0
M  V30 5686 H 560.171 -3.36507 -1.63445 0
M  V30 5687 H 561.504 -4.41875 -2.16812 0
M  V30 5688 N 563.156 0.464375 -1.50603 0
M  V30 5689 C 564.386 1.23727 -1.65454 0
M  V30 5690 C 564.794 1.86119 -0.340032 0
M  V30 5691 O 564.137 1.70301 0.688706 0
M  V30 5692 C 564.199 2.38153 -2.69301 0
M  V30 5693 C 563.863 1.96345 -4.12671 0
M  V30 5694 C 564.86 1.48215 -4.98326 0
M  V30 5695 C 562.545 2.04861 -4.58625 0
M  V30 5696 C 564.539 1.09152 -6.27985 0
M  V30 5697 C 562.226 1.65409 -5.88288 0
M  V30 5698 C 563.224 1.17634 -6.72794 0
M  V30 5699 O 562.912 0.787312 -8.00035 0
M  V30 5700 H 562.644 0.380075 -0.559034 0
M  V30 5701 H 565.198 0.559919 -1.97621 0
M  V30 5702 H 563.428 3.09081 -2.32392 0
M  V30 5703 H 565.117 3.00099 -2.73304 0
M  V30 5704 H 565.883 1.41052 -4.64036 0
M  V30 5705 H 561.762 2.40996 -3.92991 0
M  V30 5706 H 565.306 0.717909 -6.93896 0
M  V30 5707 H 561.203 1.72233 -6.22098 0
M  V30 5708 H 561.971 0.915567 -8.13363 0
M  V30 5709 N 564.634 1.40294 0.718013 0
M  V30 5710 C 565.882 1.38167 1.47494 0
M  V30 5711 C 566.203 -0.01607 1.94993 0
M  V30 5712 O 565.473 -0.970396 1.70177 0
M  V30 5713 H 564.053 0.508505 0.547203 0
M  V30 5714 H 566.715 1.75324 0.851322 0
M  V30 5715 H 565.811 2.05503 2.34894 0
M  V30 5716 N 566.112 -0.949982 1.2575 0
M  V30 5717 C 567.36 -1.6918 1.10555 0
M  V30 5718 C 567.681 -1.91773 -0.353298 0
M  V30 5719 O 566.951 -1.50814 -1.25027 0
M  V30 5720 H 565.531 -0.626952 0.406129 0
M  V30 5721 H 568.193 -1.1419 1.57945 0
M  V30 5722 H 567.289 -2.66915 1.61749 0
M  V30 5723 N 567.59 -1.07411 -1.15328 0
M  V30 5724 C 568.839 -0.792643 -1.85473 0
M  V30 5725 C 569.152 0.683789 -1.83259 0
M  V30 5726 O 570.358 1.08005 -2.49093 0
M  V30 5727 C 568.814 -1.36787 -3.32892 0
M  V30 5728 C 568.422 -2.87536 -3.43551 0
M  V30 5729 C 570.166 -1.16444 -4.08217 0
M  V30 5730 C 568.073 -3.38247 -4.85122 0
M  V30 5731 H 567.003 -0.292838 -0.694811 0
M  V30 5732 H 569.654 -1.29426 -1.30082 0
M  V30 5733 H 568.036 -0.793993 -3.87958 0
M  V30 5734 H 569.21 -3.50973 -2.98588 0
M  V30 5735 H 567.525 -3.06676 -2.81672 0
M  V30 5736 H 570.122 -1.51808 -5.12697 0
M  V30 5737 H 570.465 -0.10353 -4.16171 0
M  V30 5738 H 570.998 -1.70472 -3.59422 0
M  V30 5739 H 567.737 -4.43866 -4.82351 0
M  V30 5740 H 567.257 -2.79564 -5.30664 0
M  V30 5741 H 568.936 -3.34238 -5.5398 0
M  V30 5742 N 569.068 1.32177 -0.85831 0
M  V30 5743 C 570.317 1.96392 -0.459689 0
M  V30 5744 C 570.63 1.68659 0.990632 0
M  V30 5745 O 571.836 2.26641 1.49485 0
M  V30 5746 C 570.292 3.51542 -0.7711 0
M  V30 5747 C 569.9 3.8813 -2.2374 0
M  V30 5748 C 571.644 4.2221 -0.44038 0
M  V30 5749 C 569.551 5.36341 -2.49183 0
M  V30 5750 H 568.481 0.735007 -0.168169 0
M  V30 5751 H 571.132 1.50518 -1.0496 0
M  V30 5752 H 569.514 3.95846 -0.11058 0
M  V30 5753 H 570.688 3.54824 -2.94001 0
M  V30 5754 H 569.003 3.30497 -2.533 0
M  V30 5755 H 571.6 5.31234 -0.607855 0
M  V30 5756 H 571.943 4.11683 0.618291 0
M  V30 5757 H 572.476 3.83502 -1.05695 0
M  V30 5758 H 569.215 5.51892 -3.53689 0
M  V30 5759 H 568.735 5.7104 -1.83504 0
M  V30 5760 H 570.414 6.03466 -2.33318 0
M  V30 5761 N 570.547 0.616602 1.45037 0
M  V30 5762 C 571.963 0.280994 1.57107 0
M  V30 5763 C 572.163 -1.21627 1.60653 0
M  V30 5764 O 571.219 -1.9997 1.54169 0
M  V30 5765 C 572.532 0.960116 2.8496 0
M  V30 5766 C 574.08 0.936884 2.98649 0
M  V30 5767 C 574.555 1.59619 4.29285 0
M  V30 5768 N 576.046 1.5621 4.36065 0
M  V30 5769 C 576.781 2.04131 5.35834 0
M  V30 5770 N 576.277 2.60177 6.4209 0
M  V30 5771 N 578.07 1.94845 5.27249 0
M  V30 5772 H 570.221 1.58867 1.40979 0
M  V30 5773 H 572.484 0.666024 0.674623 0
M  V30 5774 H 572.19 2.01473 2.88273 0
M  V30 5775 H 572.064 0.488921 3.74018 0
M  V30 5776 H 574.451 -0.109209 2.94898 0
M  V30 5777 H 574.532 1.44643 2.10979 0
M  V30 5778 H 574.176 2.64166 4.33796 0
M  V30 5779 H 574.106 1.06159 5.15789 0
M  V30 5780 H 576.597 1.15276 3.59889 0
M  V30 5781 H 576.91 2.94513 7.1448 0
M  V30 5782 H 575.255 2.64221 6.42816 0
M  V30 5783 H 578.446 1.50792 4.43147 0
M  V30 5784 H 578.619 2.32504 6.04852 0
M  V30 5785 N 572.025 -1.5352 0.356285 0
M  V30 5786 C 572.975 -2.22204 -0.510815 0
M  V30 5787 C 573.959 -1.21393 -1.05605 0
M  V30 5788 O 575.151 -1.46883 -0.987639 0
M  V30 5789 C 572.28 -3.00786 -1.65478 0
M  V30 5790 C 571.366 -4.08965 -1.12287 0
M  V30 5791 N 571.757 -5.04829 -0.313191 0
M  V30 5792 C 570.055 -4.23505 -1.39856 0
M  V30 5793 C 570.756 -5.81695 -0.0230322 0
M  V30 5794 N 569.732 -5.40074 -0.618144 0
M  V30 5795 H 573.534 -2.93676 0.114711 0
M  V30 5796 H 571.048 -1.61572 0.163811 0
M  V30 5797 H 573.045 -3.48502 -2.28806 0
M  V30 5798 H 571.705 -2.30843 -2.28345 0
M  V30 5799 H 572.716 -5.17879 0.0468202 0
M  V30 5800 H 569.393 -3.64786 -2.0307 0
M  V30 5801 H 570.783 -6.68931 0.630927 0
M  V30 5802 N 573.503 -0.0852151 -1.57369 0
M  V30 5803 C 574.751 0.579658 -1.93609 0
M  V30 5804 C 575.072 1.69332 -0.967043 0
M  V30 5805 O 574.342 1.95892 -0.0174215 0
M  V30 5806 H 572.922 0.217113 -0.714752 0
M  V30 5807 H 575.584 -0.146226 -1.94351 0
M  V30 5808 H 574.68 0.996276 -2.95771 0
M  V30 5809 N 574.981 1.5647 0.188427 0
M  V30 5810 C 575.944 1.9421 1.21718 0
M  V30 5811 C 576.944 0.823901 1.38089 0
M  V30 5812 O 578.134 1.09122 1.35787 0
M  V30 5813 C 575.266 2.22197 2.58537 0
M  V30 5814 H 576.459 2.86252 0.894418 0
M  V30 5815 H 574.012 1.50263 0.430211 0
M  V30 5816 H 574.747 1.32814 2.95856 0
M  V30 5817 H 574.532 3.03688 2.48025 0
M  V30 5818 H 576.022 2.52376 3.3271 0
M  V30 5819 N 576.459 -0.456382 1.50847 0
M  V30 5820 C 577.406 -1.55249 1.70782 0
M  V30 5821 C 578.376 -1.56757 0.549231 0
M  V30 5822 O 579.561 -1.74061 0.7815 0
M  V30 5823 C 576.701 -2.93118 1.82143 0
M  V30 5824 C 575.814 -3.01285 3.09598 0
M  V30 5825 C 574.949 -4.30159 3.11667 0
M  V30 5826 C 573.988 -4.32124 4.33515 0
M  V30 5827 N 573.125 -5.52492 4.3324 0
M  V30 5828 H 577.965 -1.37555 2.64353 0
M  V30 5829 H 575.502 -0.668543 1.3103 0
M  V30 5830 H 577.46 -3.73088 1.86711 0
M  V30 5831 H 576.09 -3.09413 0.919978 0
M  V30 5832 H 575.142 -2.14096 3.14431 0
M  V30 5833 H 576.454 -2.98597 3.99551 0
M  V30 5834 H 575.608 -5.18489 3.15046 0
M  V30 5835 H 574.347 -4.35477 2.1957 0
M  V30 5836 H 573.352 -3.42189 4.30333 0
M  V30 5837 H 574.577 -4.28485 5.26856 0
M  V30 5838 H 572.523 -5.58567 3.44004 0
M  V30 5839 H 572.44 -5.51605 5.16979 0
M  V30 5840 H 573.708 -6.42906 4.40786 0
M  V30 5841 N 577.937 -1.40673 -0.710563 0
M  V30 5842 C 578.87 -1.35742 -1.83438 0
M  V30 5843 C 579.848 -0.226997 -1.61008 0
M  V30 5844 O 581.032 -0.411477 -1.83954 0
M  V30 5845 C 578.159 -1.11374 -3.19865 0
M  V30 5846 C 577.205 -2.26935 -3.61113 0
M  V30 5847 S 578.038 -3.89352 -3.67648 0
M  V30 5848 C 579.194 -3.67258 -5.06826 0
M  V30 5849 H 579.427 -2.30848 -1.87341 0
M  V30 5850 H 576.96 -1.27018 -0.877831 0
M  V30 5851 H 578.918 -0.980004 -3.9863 0
M  V30 5852 H 577.579 -0.179135 -3.13589 0
M  V30 5853 H 576.772 -2.0554 -4.60184 0
M  V30 5854 H 576.374 -2.36638 -2.89618 0
M  V30 5855 H 578.666 -3.26036 -5.93891 0
M  V30 5856 H 579.609 -4.65878 -5.33257 0
M  V30 5857 H 580.017 -3.0084 -4.77656 0
M  V30 5858 N 579.415 0.9433 -1.26252 0
M  V30 5859 C 580.345 2.05902 -1.10122 0
M  V30 5860 C 581.326 1.70099 -0.00700552 0
M  V30 5861 O 582.511 1.93377 -0.178641 0
M  V30 5862 C 579.641 3.39516 -0.731175 0
M  V30 5863 C 578.595 3.89372 -1.77688 0
M  V30 5864 C 577.921 5.19613 -1.26122 0
M  V30 5865 C 579.221 4.14489 -3.17799 0
M  V30 5866 H 580.915 2.19655 -2.03451 0
M  V30 5867 H 578.461 1.05548 -0.979576 0
M  V30 5868 H 580.414 4.17031 -0.605215 0
M  V30 5869 H 579.138 3.25733 0.23782 0
M  V30 5870 H 577.797 3.14036 -1.89148 0
M  V30 5871 H 577.445 5.02208 -0.282128 0
M  V30 5872 H 577.145 5.53939 -1.96023 0
M  V30 5873 H 578.669 5.99713 -1.14789 0
M  V30 5874 H 580.083 4.82625 -3.09428 0
M  V30 5875 H 578.48 4.60094 -3.85271 0
M  V30 5876 H 579.55 3.20347 -3.64014 0
M  V30 5877 N 580.893 1.08022 1.14757 0
M  V30 5878 C 582.123 0.827646 1.89298 0
M  V30 5879 C 582.531 -0.623506 1.78631 0
M  V30 5880 O 581.874 -1.43991 1.14071 0
M  V30 5881 C 581.936 1.16553 3.40082 0
M  V30 5882 C 581.6 2.61866 3.74533 0
M  V30 5883 C 582.597 3.60116 3.74984 0
M  V30 5884 C 580.282 2.97619 4.04633 0
M  V30 5885 C 582.276 4.92151 4.05051 0
M  V30 5886 C 579.963 4.2985 4.34364 0
M  V30 5887 C 580.961 5.26926 4.34555 0
M  V30 5888 O 580.649 6.5678 4.63568 0
M  V30 5889 H 580.381 0.298396 0.606577 0
M  V30 5890 H 582.935 1.44187 1.46285 0
M  V30 5891 H 581.165 0.494296 3.83528 0
M  V30 5892 H 582.854 0.894407 3.95923 0
M  V30 5893 H 583.62 3.33837 3.51821 0
M  V30 5894 H 579.499 2.22702 4.03639 0
M  V30 5895 H 583.043 5.67915 4.05115 0
M  V30 5896 H 578.94 4.55879 4.56995 0
M  V30 5897 H 579.708 6.62035 4.81303 0
M  V30 5898 N 582.371 -1.3172 0.865308 0
M  V30 5899 C 583.334 -2.26918 0.322627 0
M  V30 5900 C 584.334 -1.52031 -0.523751 0
M  V30 5901 O 585.524 -1.70973 -0.333727 0
M  V30 5902 C 582.656 -3.36558 -0.542338 0
M  V30 5903 H 583.849 -2.76432 1.16298 0
M  V30 5904 H 581.402 -1.42573 0.640512 0
M  V30 5905 H 582.137 -2.92329 -1.40407 0
M  V30 5906 H 581.922 -3.92048 0.0636395 0
M  V30 5907 H 583.412 -4.07465 -0.91446 0
M  V30 5908 N 583.85 -0.624285 -1.44708 0
M  V30 5909 C 585.08 -0.132726 -2.06173 0
M  V30 5910 C 585.488 1.19513 -1.46674 0
M  V30 5911 O 584.831 1.74254 -0.581491 0
M  V30 5912 C 584.893 0.0636732 -3.59444 0
M  V30 5913 C 584.557 -1.18496 -4.4137 0
M  V30 5914 C 585.553 -2.10706 -4.75288 0
M  V30 5915 C 583.239 -1.41846 -4.81856 0
M  V30 5916 C 585.233 -3.24582 -5.48567 0
M  V30 5917 C 582.92 -2.5602 -5.54885 0
M  V30 5918 C 583.918 -3.47215 -5.88159 0
M  V30 5919 O 583.606 -4.59399 -6.59703 0
M  V30 5920 H 583.338 -0.0737313 -0.671967 0
M  V30 5921 H 585.892 -0.856789 -1.86677 0
M  V30 5922 H 584.122 0.842809 -3.77404 0
M  V30 5923 H 585.811 0.508924 -4.02697 0
M  V30 5924 H 586.577 -1.93898 -4.44554 0
M  V30 5925 H 582.456 -0.717556 -4.55381 0
M  V30 5926 H 586 -3.95785 -5.74456 0
M  V30 5927 H 581.897 -2.72774 -5.85034 0
M  V30 5928 H 582.665 -4.58293 -6.78166 0
M  V30 5929 N 585.328 1.53329 -0.364422 0
M  V30 5930 C 586.553 2.06132 0.229033 0
M  V30 5931 C 586.978 1.23625 1.41769 0
M  V30 5932 O 586.336 0.255038 1.79497 0
M  V30 5933 C 586.384 3.55544 0.60174 0
M  V30 5934 O 585.488 3.75771 1.69912 0
M  V30 5935 H 584.829 0.663148 0.0336213 0
M  V30 5936 H 587.359 1.97758 -0.524689 0
M  V30 5937 H 587.369 3.98549 0.873073 0
M  V30 5938 H 586.044 4.15039 -0.267421 0
M  V30 5939 H 584.621 3.44663 1.42343 0
M  V30 5940 N 586.806 0.0935595 1.57322 0
M  V30 5941 C 587.716 -0.880192 2.17462 0
M  V30 5942 C 588.732 -1.31135 1.14366 0
M  V30 5943 O 589.908 -1.37958 1.46729 0
M  V30 5944 C 586.973 -2.12184 2.74188 0
M  V30 5945 C 586.034 -1.74503 3.92234 0
M  V30 5946 C 585.267 -2.92748 4.46245 0
M  V30 5947 O 585.49 -4.07427 3.99198 0
M  V30 5948 O 584.424 -2.71303 5.37288 0
M  V30 5949 H 588.25 -0.398516 3.01074 0
M  V30 5950 H 585.835 -0.130707 1.48827 0
M  V30 5951 H 587.717 -2.84953 3.10451 0
M  V30 5952 H 586.392 -2.59407 1.93623 0
M  V30 5953 H 585.299 -0.989186 3.60785 0
M  V30 5954 H 586.632 -1.32044 4.74157 0
M  V30 5955 N 588.284 -1.56567 -0.180126 0
M  V30 5956 C 589.247 -1.94852 -1.20686 0
M  V30 5957 C 590.247 -0.831212 -1.3765 0
M  V30 5958 O 591.437 -1.09841 -1.35206 0
M  V30 5959 C 588.569 -2.23565 -2.57355 0
M  V30 5960 H 589.762 -2.86722 -0.879225 0
M  V30 5961 H 587.315 -1.50489 -0.422237 0
M  V30 5962 H 588.05 -1.34381 -2.95148 0
M  V30 5963 H 587.835 -3.04999 -2.46411 0
M  V30 5964 H 589.325 -2.54137 -3.31367 0
M  V30 5965 N 589.762 0.448376 -1.51087 0
M  V30 5966 C 590.99 1.22143 -1.66999 0
M  V30 5967 C 591.405 1.85283 -0.362699 0
M  V30 5968 O 590.762 1.70236 0.65772 0
M  V30 5969 C 590.813 2.31357 -2.7777 0
M  V30 5970 O 590.534 1.70801 -4.03434 0
M  V30 5971 C 592.035 3.21836 -3.04855 0
M  V30 5972 H 589.255 0.368558 -0.560719 0
M  V30 5973 H 591.799 0.532618 -1.97442 0
M  V30 5974 H 589.954 2.95973 -2.49958 0
M  V30 5975 H 590.368 2.42895 -4.64868 0
M  V30 5976 H 591.842 3.94627 -3.85971 0
M  V30 5977 H 592.319 3.81949 -2.16821 0
M  V30 5978 H 592.925 2.62933 -3.34285 0
M  V30 5979 N 591.24 1.41047 0.703093 0
M  V30 5980 C 592.486 1.40207 1.46526 0
M  V30 5981 C 592.819 0.00847763 1.94198 0
M  V30 5982 O 592.094 -0.962437 1.69019 0
M  V30 5983 C 592.377 2.40238 2.6825 0
M  V30 5984 C 592.23 3.88674 2.26391 0
M  V30 5985 C 593.549 2.37627 3.70434 0
M  V30 5986 H 590.668 0.510594 0.531472 0
M  V30 5987 H 593.31 1.72271 0.801422 0
M  V30 5988 H 591.46 2.13026 3.24888 0
M  V30 5989 H 593.132 4.2676 1.75138 0
M  V30 5990 H 591.375 4.03903 1.58255 0
M  V30 5991 H 592.046 4.542 3.13698 0
M  V30 5992 H 594.522 2.61759 3.23452 0
M  V30 5993 H 593.398 3.09645 4.53223 0
M  V30 5994 H 593.659 1.39223 4.19606 0
M  V30 5995 N 592.718 -0.936591 1.26751 0
M  V30 5996 C 594.129 -1.49816 1.1141 0
M  V30 5997 C 594.48 -1.9383 -0.304015 0
M  V30 5998 O 593.605 -1.80346 -1.196 0
M  V30 5999 C 594.2 -2.72271 2.01629 0
M  V30 6000 C 592.759 -3.2468 1.9042 0
M  V30 6001 C 591.906 -1.97444 1.94708 0
M  V30 6002 H 594.857 -0.751604 1.39773 0
M  V30 6003 H 594.878 -3.46741 1.56688 0
M  V30 6004 H 594.39 -2.40205 3.04833 0
M  V30 6005 H 592.491 -3.61525 0.901674 0
M  V30 6006 H 592.604 -3.91476 2.76195 0
M  V30 6007 H 590.968 -2.13545 1.38818 0
M  V30 6008 H 591.751 -1.67703 2.9955 0
M  V30 6009 N 594.196 -1.08629 -1.14182 0
M  V30 6010 C 595.143 -0.718299 -2.19338 0
M  V30 6011 C 596.113 0.296587 -1.63431 0
M  V30 6012 O 597.298 0.180079 -1.89948 0
M  V30 6013 C 594.438 -0.136203 -3.44831 0
M  V30 6014 C 593.551 -1.20414 -4.14879 0
M  V30 6015 C 592.686 -0.585666 -5.27962 0
M  V30 6016 C 591.725 -1.63548 -5.89846 0
M  V30 6017 N 590.862 -1.03864 -6.94375 0
M  V30 6018 H 595.702 -1.61932 -2.50164 0
M  V30 6019 H 593.239 -0.80919 -1.22844 0
M  V30 6020 H 595.197 0.219021 -4.16625 0
M  V30 6021 H 593.827 0.728121 -3.14481 0
M  V30 6022 H 592.879 -1.67676 -3.41451 0
M  V30 6023 H 594.191 -1.99959 -4.56966 0
M  V30 6024 H 593.345 -0.178818 -6.06436 0
M  V30 6025 H 592.084 0.24142 -4.87102 0
M  V30 6026 H 591.089 -2.05197 -5.10073 0
M  V30 6027 H 592.314 -2.46509 -6.3278 0
M  V30 6028 H 590.26 -0.232687 -6.55587 0
M  V30 6029 H 590.177 -1.77116 -7.3496 0
M  V30 6030 H 591.445 -0.657724 -7.7672 0
M  V30 6031 N 595.674 1.31259 -0.872281 0
M  V30 6032 C 596.923 1.95893 -0.480493 0
M  V30 6033 C 597.236 1.697 0.972688 0
M  V30 6034 O 598.442 2.28214 1.47073 0
M  V30 6035 C 596.898 3.50705 -0.808342 0
M  V30 6036 C 596.506 3.85735 -2.27844 0
M  V30 6037 C 598.25 4.21719 -0.485136 0
M  V30 6038 C 596.157 5.33668 -2.54858 0
M  V30 6039 H 595.087 0.733182 -0.175955 0
M  V30 6040 H 597.738 1.49396 -1.0655 0
M  V30 6041 H 596.12 3.95706 -0.152558 0
M  V30 6042 H 597.294 3.51686 -2.97748 0
M  V30 6043 H 595.609 3.27792 -2.56791 0
M  V30 6044 H 598.206 5.30559 -0.664166 0
M  V30 6045 H 598.549 4.12316 0.574592 0
M  V30 6046 H 599.082 3.82359 -1.09756 0
M  V30 6047 H 595.821 5.48109 -3.59523 0
M  V30 6048 H 595.341 5.69061 -1.8955 0
M  V30 6049 H 597.02 6.00958 -2.39706 0
M  V30 6050 N 597.152 0.631951 1.44375 0
M  V30 6051 C 598.38 0.143867 2.06399 0
M  V30 6052 C 598.795 -1.18188 1.47231 0
M  V30 6053 O 598.152 -1.72511 0.595498 0
M  V30 6054 C 598.203 0.0238253 3.61492 0
M  V30 6055 O 597.924 1.29715 4.18456 0
M  V30 6056 C 599.425 -0.492856 4.40552 0
M  V30 6057 H 596.645 0.0800542 0.666207 0
M  V30 6058 H 599.189 0.866586 1.85231 0
M  V30 6059 H 597.344 -0.649338 3.81919 0
M  V30 6060 H 597.758 1.14252 5.11905 0
M  V30 6061 H 599.232 -0.525861 5.49489 0
M  V30 6062 H 599.709 -1.52006 4.12057 0
M  V30 6063 H 600.315 0.147085 4.25046 0
M  V30 6064 N 598.631 -1.53133 0.372548 0
M  V30 6065 C 599.877 -2.01654 -0.215277 0
M  V30 6066 C 600.21 -1.25914 -1.47849 0
M  V30 6067 O 599.485 -0.3548 -1.91237 0
M  V30 6068 C 599.768 -3.56609 -0.500187 0
M  V30 6069 C 599.621 -4.43036 0.777145 0
M  V30 6070 C 600.94 -4.20528 -1.29786 0
M  V30 6071 H 598.059 -0.732991 -0.0767686 0
M  V30 6072 H 600.701 -1.83335 0.498814 0
M  V30 6073 H 598.851 -3.7235 -1.10852 0
M  V30 6074 H 600.523 -4.39079 1.41447 0
M  V30 6075 H 598.766 -4.10723 1.39604 0
M  V30 6076 H 599.437 -5.49424 0.532662 0
M  V30 6077 H 601.913 -4.08663 -0.783198 0
M  V30 6078 H 600.789 -5.28962 -1.46596 0
M  V30 6079 H 601.05 -3.77051 -2.30836 0
M  V30 6080 N 600.109 -0.101901 -1.5727 0
M  V30 6081 C 601.355 0.561027 -1.94885 0
M  V30 6082 C 601.688 1.6741 -0.984258 0
M  V30 6083 O 600.963 1.94491 -0.0184767 0
M  V30 6084 C 601.246 1.10982 -3.42571 0
M  V30 6085 C 601.099 0.00133418 -4.498 0
M  V30 6086 C 602.418 2.00608 -3.9172 0
M  V30 6087 H 599.537 0.202467 -0.708644 0
M  V30 6088 H 602.179 -0.173992 -1.89202 0
M  V30 6089 H 600.329 1.73621 -3.47546 0
M  V30 6090 H 602.001 -0.63322 -4.56933 0
M  V30 6091 H 600.244 -0.664143 -4.28686 0
M  V30 6092 H 600.915 0.426253 -5.50352 0
M  V30 6093 H 603.391 1.47864 -3.88941 0
M  V30 6094 H 602.267 2.3593 -4.95609 0
M  V30 6095 H 602.528 2.92608 -3.3141 0
M  V30 6096 N 601.587 1.56661 0.17182 0
M  V30 6097 C 602.517 1.99401 1.21498 0
M  V30 6098 C 603.498 0.869516 1.46197 0
M  V30 6099 O 604.683 1.13556 1.57539 0
M  V30 6100 C 601.813 2.35346 2.55401 0
M  V30 6101 C 600.767 3.5075 2.45272 0
M  V30 6102 C 600.093 3.72437 3.8366 0
M  V30 6103 C 601.393 4.84216 1.95787 0
M  V30 6104 H 603.087 2.86792 0.859699 0
M  V30 6105 H 600.633 1.37977 0.412103 0
M  V30 6106 H 602.586 2.63843 3.2858 0
M  V30 6107 H 601.31 1.44864 2.92715 0
M  V30 6108 H 599.969 3.2238 1.74547 0
M  V30 6109 H 599.617 2.79246 4.18367 0
M  V30 6110 H 599.317 4.50087 3.77751 0
M  V30 6111 H 600.841 4.03334 4.58426 0
M  V30 6112 H 602.255 5.11592 2.5874 0
M  V30 6113 H 600.652 5.65498 2.00827 0
M  V30 6114 H 601.722 4.76243 0.912159 0
M  V30 6115 N 603.065 -0.440357 1.51323 0
M  V30 6116 C 604.481 -0.7766 1.39431 0
M  V30 6117 C 604.681 -1.95838 0.474296 0
M  V30 6118 O 603.737 -2.52398 -0.0716692 0
M  V30 6119 C 605.05 -1.05981 2.81405 0
M  V30 6120 C 606.598 -1.16442 2.90534 0
M  V30 6121 C 607.073 -1.48058 4.33408 0
M  V30 6122 N 608.564 -1.54988 4.36501 0
M  V30 6123 C 609.299 -1.81017 5.44078 0
M  V30 6124 N 608.795 -2.04858 6.61819 0
M  V30 6125 N 610.588 -1.82774 5.31554 0
M  V30 6126 H 602.739 0.338006 2.09693 0
M  V30 6127 H 605.002 0.0888072 0.943831 0
M  V30 6128 H 604.708 -0.264173 3.50706 0
M  V30 6129 H 604.582 -1.98822 3.20546 0
M  V30 6130 H 606.969 -1.95068 2.21432 0
M  V30 6131 H 607.05 -0.215088 2.54894 0
M  V30 6132 H 606.694 -0.699605 5.03059 0
M  V30 6133 H 606.624 -2.44192 4.66559 0
M  V30 6134 H 609.115 -1.38479 3.51613 0
M  V30 6135 H 609.428 -2.2408 7.396 0
M  V30 6136 H 607.773 -2.02187 6.6494 0
M  V30 6137 H 610.964 -1.63665 4.38556 0
M  V30 6138 H 611.137 -2.02722 6.15474 0
M  V30 6139 N 604.543 -1.41418 -0.695603 0
M  V30 6140 C 605.49 -1.43264 -1.80954 0
M  V30 6141 C 606.46 -0.287016 -1.63601 0
M  V30 6142 O 607.645 -0.488054 -1.84452 0
M  V30 6143 C 604.785 -1.32054 -3.18835 0
M  V30 6144 C 603.898 -2.56485 -3.4762 0
M  V30 6145 C 603.033 -2.3757 -4.75115 0
M  V30 6146 C 602.072 -3.57477 -4.96867 0
M  V30 6147 N 601.209 -3.37632 -6.15588 0
M  V30 6148 H 606.049 -2.38467 -1.78711 0
M  V30 6149 H 603.586 -1.18415 -0.872715 0
M  V30 6150 H 605.544 -1.23558 -3.98484 0
M  V30 6151 H 604.174 -0.404592 -3.20254 0
M  V30 6152 H 603.226 -2.75432 -2.62376 0
M  V30 6153 H 604.538 -3.45678 -3.59594 0
M  V30 6154 H 603.692 -2.2654 -5.62818 0
M  V30 6155 H 602.431 -1.45834 -4.65386 0
M  V30 6156 H 601.436 -3.68961 -4.07612 0
M  V30 6157 H 602.661 -4.50167 -5.08455 0
M  V30 6158 H 600.607 -2.48596 -6.07072 0
M  V30 6159 H 600.524 -4.20401 -6.2833 0
M  V30 6160 H 601.792 -3.30375 -7.06026 0
M  V30 6161 N 606.021 0.929856 -1.27246 0
M  V30 6162 C 606.984 2.01172 -1.09829 0
M  V30 6163 C 607.984 1.60743 -0.0429687 0
M  V30 6164 O 609.174 1.71813 -0.287373 0
M  V30 6165 C 606.306 3.34191 -0.673003 0
M  V30 6166 H 607.499 2.18054 -2.05895 0
M  V30 6167 H 605.052 1.11036 -1.10003 0
M  V30 6168 H 605.787 3.23009 0.289134 0
M  V30 6169 H 605.572 3.64892 -1.43515 0
M  V30 6170 H 607.062 4.13646 -0.573323 0
M  V30 6171 N 607.499 1.09233 1.13605 0
M  V30 6172 C 608.729 0.847677 1.88409 0
M  V30 6173 C 609.137 -0.604524 1.79282 0
M  V30 6174 O 608.48 -1.42773 1.15592 0
M  V30 6175 C 608.542 1.20153 3.38827 0
M  V30 6176 C 608.206 2.65824 3.71735 0
M  V30 6177 C 609.203 3.64072 3.71143 0
M  V30 6178 C 606.888 3.01894 4.01454 0
M  V30 6179 C 608.882 4.96419 3.99808 0
M  V30 6180 C 606.569 4.34433 4.29781 0
M  V30 6181 C 607.567 5.31505 4.28942 0
M  V30 6182 O 607.255 6.61659 4.56576 0
M  V30 6183 H 606.987 0.304813 0.603378 0
M  V30 6184 H 609.541 1.4573 1.44748 0
M  V30 6185 H 607.771 0.534946 3.82982 0
M  V30 6186 H 609.46 0.936349 3.94952 0
M  V30 6187 H 610.226 3.37549 3.4826 0
M  V30 6188 H 606.105 2.26971 4.01255 0
M  V30 6189 H 609.649 5.7218 3.99069 0
M  V30 6190 H 605.546 4.607 4.52135 0
M  V30 6191 H 606.314 6.67102 4.74254 0
M  V30 6192 N 608.977 -1.30795 0.87923 0
M  V30 6193 C 610.225 -1.95974 0.493809 0
M  V30 6194 C 610.546 -1.69787 -0.959021 0
M  V30 6195 O 609.816 -1.01832 -1.67353 0
M  V30 6196 H 608.396 -0.725083 0.179622 0
M  V30 6197 H 611.058 -1.59432 1.12105 0
M  V30 6198 H 610.154 -3.05058 0.659263 0
M  V30 6199 N 610.455 -0.639598 -1.44038 0
M  V30 6200 C 611.703 -0.147188 -2.01563 0
M  V30 6201 C 612.024 1.2384 -1.50628 0
M  V30 6202 O 611.294 1.82452 -0.713316 0
M  V30 6203 H 609.874 -0.0514231 -0.745228 0
M  V30 6204 H 612.536 -0.828205 -1.76428 0
M  V30 6205 H 611.632 -0.121358 -3.11864 0
M  V30 6206 N 611.933 1.52934 -0.380664 0
M  V30 6207 C 613.158 2.06363 0.207157 0
M  V30 6208 C 613.583 1.25122 1.4045 0
M  V30 6209 O 612.941 0.274062 1.79217 0
M  V30 6210 C 612.989 3.56162 0.563996 0
M  V30 6211 O 612.093 3.77552 1.65917 0
M  V30 6212 H 611.434 0.663468 0.0265859 0
M  V30 6213 H 613.964 1.9719 -0.545635 0
M  V30 6214 H 613.974 3.99453 0.830752 0
M  V30 6215 H 612.649 4.14732 -0.311427 0
M  V30 6216 H 611.226 3.46154 1.3868 0
M  V30 6217 N 613.412 0.11024 1.57214 0
M  V30 6218 C 614.642 -0.557025 1.98949 0
M  V30 6219 C 615.05 -1.61317 0.988606 0
M  V30 6220 O 614.393 -1.83679 -0.0279159 0
M  V30 6221 C 614.455 -1.24956 3.37085 0
M  V30 6222 C 614.119 -0.342398 4.55716 0
M  V30 6223 C 615.116 0.415511 5.18237 0
M  V30 6224 C 612.801 -0.256029 5.01647 0
M  V30 6225 C 614.795 1.24761 6.25071 0
M  V30 6226 C 612.482 0.579713 6.08344 0
M  V30 6227 C 613.48 1.33017 6.69922 0
M  V30 6228 O 613.168 2.15205 7.74559 0
M  V30 6229 H 612.9 -0.152792 0.658506 0
M  V30 6230 H 615.454 0.19076 2.04512 0
M  V30 6231 H 613.684 -2.04424 3.2825 0
M  V30 6232 H 615.373 -1.81286 3.63167 0
M  V30 6233 H 616.139 0.358605 4.83672 0
M  V30 6234 H 612.018 -0.829831 4.5347 0
M  V30 6235 H 615.562 1.83386 6.73064 0
M  V30 6236 H 611.459 0.638044 6.42339 0
M  V30 6237 H 612.227 2.08052 7.91617 0
M  V30 6238 N 614.89 -1.56749 -0.16351 0
M  V30 6239 C 615.82 -2.00042 -1.20438 0
M  V30 6240 C 616.801 -0.877256 -1.45733 0
M  V30 6241 O 617.986 -1.1439 -1.56935 0
M  V30 6242 C 615.116 -2.36697 -2.54149 0
M  V30 6243 C 614.07 -3.52046 -2.43408 0
M  V30 6244 C 613.396 -3.74466 -3.81679 0
M  V30 6245 C 614.696 -4.85247 -1.93216 0
M  V30 6246 H 616.39 -2.87244 -0.844477 0
M  V30 6247 H 613.936 -1.38194 -0.40478 0
M  V30 6248 H 615.889 -2.65582 -3.27176 0
M  V30 6249 H 614.613 -1.46414 -2.91943 0
M  V30 6250 H 613.272 -3.23301 -1.72834 0
M  V30 6251 H 612.92 -2.81461 -4.1688 0
M  V30 6252 H 612.62 -4.52084 -3.75359 0
M  V30 6253 H 614.144 -4.0576 -4.5628 0
M  V30 6254 H 615.558 -5.12957 -2.56023 0
M  V30 6255 H 613.955 -5.66556 -1.97825 0
M  V30 6256 H 615.025 -4.7672 -0.88689 0
M  V30 6257 N 616.368 0.432326 -1.51554 0
M  V30 6258 C 617.331 1.50765 -1.72634 0
M  V30 6259 C 618.331 1.49334 -0.596314 0
M  V30 6260 O 619.521 1.51268 -0.863925 0
M  V30 6261 C 616.653 2.90284 -1.7874 0
M  V30 6262 H 617.846 1.33377 -2.68609 0
M  V30 6263 H 615.399 0.661329 -1.4162 0
M  V30 6264 H 616.134 3.13071 -0.845977 0
M  V30 6265 H 615.919 2.92727 -2.6087 0
M  V30 6266 H 617.409 3.68282 -1.96871 0
M  V30 6267 N 617.846 1.41785 0.688094 0
M  V30 6268 C 618.779 1.38643 1.81255 0
M  V30 6269 C 619.757 0.252583 1.60626 0
M  V30 6270 O 620.941 0.440691 1.83276 0
M  V30 6271 C 618.068 1.16449 3.18053 0
M  V30 6272 C 617.114 2.32651 3.57457 0
M  V30 6273 S 617.947 3.95152 3.61407 0
M  V30 6274 C 619.103 3.75275 5.00919 0
M  V30 6275 H 619.336 2.33799 1.83644 0
M  V30 6276 H 616.869 1.28398 0.857513 0
M  V30 6277 H 618.827 1.0433 3.97021 0
M  V30 6278 H 617.488 0.229002 3.13264 0
M  V30 6279 H 616.681 2.12835 4.56856 0
M  V30 6280 H 616.283 2.41215 2.85817 0
M  V30 6281 H 618.575 3.35443 5.88629 0
M  V30 6282 H 619.518 4.74302 5.25778 0
M  V30 6283 H 619.926 3.08401 4.7281 0
M  V30 6284 N 619.324 -0.923095 1.27737 0
M  V30 6285 C 620.564 -1.6858 1.15586 0
M  V30 6286 C 620.928 -1.89758 -0.292562 0
M  V30 6287 O 622.129 -2.6339 -0.536583 0
M  V30 6288 C 620.4 -3.01275 1.92271 0
M  V30 6289 S 621.959 -3.924 1.96387 0
M  V30 6290 H 618.777 -0.579069 0.412554 0
M  V30 6291 H 621.379 -1.09866 1.61709 0
M  V30 6292 H 620.083 -2.83556 2.96689 0
M  V30 6293 H 619.614 -3.6504 1.46661 0
M  V30 6294 H 621.629 -4.84667 1.06361 0
M  V30 6295 N 620.802 -1.09834 -1.13024 0
M  V30 6296 C 621.75 -0.736283 -2.20639 0
M  V30 6297 C 622.744 0.264725 -1.67319 0
M  V30 6298 O 623.95 0.125745 -1.7956 0
M  V30 6299 H 620.325 -0.220136 -0.719058 0
M  V30 6300 H 622.296 -1.65295 -2.48436 0
M  V30 6301 C 621.045 -0.177544 -3.47246 0
M  V30 6302 H 620.368 -0.939009 -3.88616 0
M  V30 6303 H 621.808 0.0378007 -4.23983 0
M  V30 6304 C 620.267 1.08824 -3.1884 0
M  V30 6305 O 620.797 2.1708 -3.37993 0
M  V30 6306 N 619.003 1.00442 -2.7269 0
M  V30 6307 H 618.55 0.123383 -2.57304 0
M  V30 6308 H 618.508 1.85206 -2.5406 0
M  V30 6309 N 622.28 1.30327 -0.886154 0
M  V30 6310 C 623.696 1.48676 -0.580323 0
M  V30 6311 C 623.896 1.81189 0.881639 0
M  V30 6312 O 622.952 1.90021 1.66278 0
M  V30 6313 C 624.265 2.60932 -1.49449 0
M  V30 6314 C 625.813 2.74812 -1.49824 0
M  V30 6315 C 626.288 3.90183 -2.39836 0
M  V30 6316 N 627.779 3.97495 -2.37806 0
M  V30 6317 C 628.514 4.86078 -3.04165 0
M  V30 6318 N 628.01 5.79448 -3.79753 0
M  V30 6319 N 629.803 4.79456 -2.93391 0
M  V30 6320 H 621.954 1.07495 -1.8319 0
M  V30 6321 H 624.217 0.532661 -0.784204 0
M  V30 6322 H 623.923 2.43731 -2.5355 0
M  V30 6323 H 623.797 3.57437 -1.20494 0
M  V30 6324 H 626.184 2.91418 -0.464731 0
M  V30 6325 H 626.265 1.78924 -1.82811 0
M  V30 6326 H 625.909 3.74334 -3.43273 0
M  V30 6327 H 625.839 4.85411 -2.04166 0
M  V30 6328 H 628.33 3.30703 -1.82877 0
M  V30 6329 H 628.643 6.43805 -4.27475 0
M  V30 6330 H 626.988 5.79376 -3.8386 0
M  V30 6331 H 630.179 4.05494 -2.33864 0
M  V30 6332 H 630.352 5.48283 -3.45383 0
M  V30 6333 N 623.758 0.647228 1.43697 0
M  V30 6334 C 625.035 0.0883758 1.954 0
M  V30 6335 C 625.415 -1.39006 1.58873 0
M  V30 6336 O 624.763 -2.11255 0.87083 0
M  V30 6337 C 624.973 0.328263 3.47453 0
M  V30 6338 C 626.321 0.230009 4.23977 0
M  V30 6339 O 627.345 0.260496 3.55246 0
M  V30 6340 O 626.204 0.148615 5.46298 0
M  V30 6341 H 623.298 -0.0130683 0.826897 0
M  V30 6342 H 625.844 0.72005 1.53666 0
M  V30 6343 H 624.616 1.3535 3.67146 0
M  V30 6344 H 624.239 -0.336772 3.96171 0
M  V30 6345 N 625.236 -1.5273 0.388769 0
M  V30 6346 C 626.166 -2.29353 -0.438111 0
M  V30 6347 C 627.147 -1.32719 -1.06394 0
M  V30 6348 O 628.332 -1.61612 -1.07681 0
M  V30 6349 C 625.462 -3.09995 -1.56589 0
M  V30 6350 C 624.416 -4.14509 -1.06613 0
M  V30 6351 C 623.742 -4.83372 -2.28594 0
M  V30 6352 C 625.042 -5.22127 -0.134459 0
M  V30 6353 H 626.736 -2.98723 0.201206 0
M  V30 6354 H 624.282 -1.43665 0.0982089 0
M  V30 6355 H 626.235 -3.62357 -2.15118 0
M  V30 6356 H 624.959 -2.38357 -2.23279 0
M  V30 6357 H 623.618 -3.63128 -0.503383 0
M  V30 6358 H 623.266 -4.08283 -2.93792 0
M  V30 6359 H 622.966 -5.54012 -1.95817 0
M  V30 6360 H 624.49 -5.38538 -2.87766 0
M  V30 6361 H 625.904 -5.69851 -0.627914 0
M  V30 6362 H 624.301 -6.00011 0.103534 0
M  V30 6363 H 625.371 -4.77971 0.816798 0
M  V30 6364 N 626.714 -0.118576 -1.57153 0
M  V30 6365 C 627.962 0.538461 -1.94795 0
M  V30 6366 C 628.283 1.67243 -1.00274 0
M  V30 6367 O 627.553 1.95811 -0.0589692 0
M  V30 6368 H 626.133 0.201904 -0.719197 0
M  V30 6369 H 628.795 -0.187418 -1.93997 0
M  V30 6370 H 627.891 0.933315 -2.97818 0
M  V30 6371 N 628.193 1.56834 0.155195 0
M  V30 6372 C 629.156 1.96748 1.17571 0
M  V30 6373 C 630.156 0.853006 1.3631 0
M  V30 6374 O 631.346 1.11978 1.33441 0
M  V30 6375 C 628.478 2.27631 2.53765 0
M  V30 6376 H 629.671 2.88085 0.833498 0
M  V30 6377 H 627.224 1.51141 0.398242 0
M  V30 6378 H 627.959 1.39059 2.92973 0
M  V30 6379 H 627.744 3.0888 2.41527 0
M  V30 6380 H 629.234 2.59377 3.27282 0
M  V30 6381 N 629.671 -0.424282 1.51781 0
M  V30 6382 C 630.948 -1.18464 1.55646 0
M  V30 6383 C 631.328 -2.08529 0.328438 0
M  V30 6384 O 630.676 -2.17969 -0.685693 0
M  V30 6385 C 630.886 -1.97514 2.87731 0
M  V30 6386 C 632.234 -2.54106 3.40169 0
M  V30 6387 O 633.258 -2.07711 2.89369 0
M  V30 6388 O 632.117 -3.38759 4.28841 0
M  V30 6389 H 629.211 -0.540055 0.626314 0
M  V30 6390 H 631.757 -0.432291 1.64102 0
M  V30 6391 H 630.529 -1.31444 3.68562 0
M  V30 6392 H 630.152 -2.79787 2.82498 0
M  V30 6393 N 631.149 -1.42148 -0.680565 0
M  V30 6394 C 632.112 -1.4488 -1.77602 0
M  V30 6395 C 633.112 -0.337209 -1.57224 0
M  V30 6396 O 634.302 -0.597778 -1.63622 0
M  V30 6397 C 631.434 -1.27483 -3.16166 0
M  V30 6398 H 632.627 -2.42412 -1.76568 0
M  V30 6399 H 630.18 -1.28511 -0.889645 0
M  V30 6400 H 630.915 -0.30851 -3.22829 0
M  V30 6401 H 630.7 -2.08037 -3.3236 0
M  V30 6402 H 632.19 -1.32265 -3.96101 0
M  V30 6403 N 632.627 0.916307 -1.28225 0
M  V30 6404 C 633.873 1.66765 -1.154 0
M  V30 6405 C 634.206 1.91912 0.297251 0
M  V30 6406 O 633.481 1.51766 1.21644 0
M  V30 6407 C 633.764 3.02715 -1.95028 0
M  V30 6408 C 633.617 2.84738 -3.48201 0
M  V30 6409 C 634.936 4.03215 -1.76369 0
M  V30 6410 H 632.055 0.605205 -0.42059 0
M  V30 6411 H 634.697 1.06255 -1.57512 0
M  V30 6412 H 632.847 3.54365 -1.59242 0
M  V30 6413 H 634.519 2.40118 -3.9388 0
M  V30 6414 H 632.762 2.19848 -3.73964 0
M  V30 6415 H 633.433 3.8127 -3.99171 0
M  V30 6416 H 635.909 3.60617 -2.07593 0
M  V30 6417 H 634.785 4.96306 -2.34459 0
M  V30 6418 H 635.046 4.36288 -0.71452 0
M  V30 6419 N 634.105 1.10431 1.1244 0
M  V30 6420 C 635.335 0.867612 1.87499 0
M  V30 6421 C 635.743 -0.585475 1.79913 0
M  V30 6422 O 635.086 -1.41539 1.171 0
M  V30 6423 C 635.148 1.2374 3.37533 0
M  V30 6424 C 634.812 2.69751 3.68895 0
M  V30 6425 C 635.809 3.67988 3.67261 0
M  V30 6426 C 633.494 3.06135 3.98229 0
M  V30 6427 C 635.488 5.00632 3.9452 0
M  V30 6428 C 633.175 4.38967 4.25149 0
M  V30 6429 C 634.173 5.36025 4.23281 0
M  V30 6430 O 633.861 6.66465 4.49533 0
M  V30 6431 H 633.593 0.311196 0.600111 0
M  V30 6432 H 636.147 1.47257 1.43194 0
M  V30 6433 H 634.377 0.575537 3.82393 0
M  V30 6434 H 636.066 0.978187 3.93937 0
M  V30 6435 H 636.832 3.41224 3.44661 0
M  V30 6436 H 632.711 2.31214 3.98825 0
M  V30 6437 H 636.255 5.7638 3.92978 0
M  V30 6438 H 632.152 4.6547 4.47223 0
M  V30 6439 H 632.92 6.72095 4.67152 0
M  V30 6440 N 635.583 -1.29855 0.893053 0
M  V30 6441 C 636.546 -2.26183 0.370687 0
M  V30 6442 C 637.546 -1.53108 -0.491385 0
M  V30 6443 O 638.736 -1.71643 -0.297386 0
M  V30 6444 C 635.868 -3.37633 -0.470827 0
M  V30 6445 H 637.061 -2.73903 1.22135 0
M  V30 6446 H 634.614 -1.41183 0.67061 0
M  V30 6447 H 635.349 -2.95241 -1.34175 0
M  V30 6448 H 635.134 -3.91825 0.146784 0
M  V30 6449 H 636.624 -4.09313 -0.827825 0
M  V30 6450 N 637.061 -0.65484 -1.43351 0
M  V30 6451 C 638.307 -0.177749 -2.02622 0
M  V30 6452 C 638.662 1.19553 -1.50748 0
M  V30 6453 O 637.955 1.78683 -0.691599 0
M  V30 6454 C 638.149 -0.130424 -3.57162 0
M  V30 6455 C 637.978 -1.49757 -4.24032 0
M  V30 6456 C 636.748 -2.09036 -4.60035 0
M  V30 6457 C 638.946 -2.4363 -4.52934 0
M  V30 6458 N 636.928 -3.3874 -5.11985 0
M  V30 6459 C 638.299 -3.57968 -5.0622 0
M  V30 6460 C 640.354 -2.42412 -4.34903 0
M  V30 6461 C 639.057 -4.71314 -5.43374 0
M  V30 6462 C 641.083 -3.5484 -4.7312 0
M  V30 6463 C 640.445 -4.67903 -5.26541 0
M  V30 6464 H 636.544 -0.10951 -0.774294 0
M  V30 6465 H 639.128 -0.863495 -1.74505 0
M  V30 6466 H 637.299 0.524671 -3.8484 0
M  V30 6467 H 639.031 0.35769 -4.03116 0
M  V30 6468 H 635.786 -1.61729 -4.4513 0
M  V30 6469 H 636.21 -4.05116 -5.42412 0
M  V30 6470 H 640.852 -1.56236 -3.92874 0
M  V30 6471 H 638.57 -5.5818 -5.84346 0
M  V30 6472 H 642.156 -3.55101 -4.60863 0
M  V30 6473 H 641.036 -5.5346 -5.55564 0
M  V30 6474 N 638.539 1.52521 -0.396863 0
M  V30 6475 C 639.95 1.86547 0.0754868 0
M  V30 6476 C 640.301 1.31621 1.45501 0
M  V30 6477 O 639.426 0.650563 2.0639 0
M  V30 6478 C 640.021 3.38495 0.143754 0
M  V30 6479 C 638.58 3.72205 0.560413 0
M  V30 6480 C 637.727 2.75954 -0.272856 0
M  V30 6481 H 640.678 1.46323 -0.614434 0
M  V30 6482 H 640.699 3.68153 0.961425 0
M  V30 6483 H 640.211 3.78442 -0.860415 0
M  V30 6484 H 638.312 3.3783 1.57167 0
M  V30 6485 H 638.425 4.78074 0.313314 0
M  V30 6486 H 636.789 2.53339 0.263 0
M  V30 6487 H 637.572 3.1874 -1.27515 0
M  V30 6488 N 640.017 0.126909 1.57088 0
M  V30 6489 C 641.242 -0.53997 2.00248 0
M  V30 6490 C 641.667 -1.58927 1.00618 0
M  V30 6491 O 641.025 -1.81288 -0.0210131 0
M  V30 6492 C 641.073 -1.13565 3.4225 0
M  V30 6493 O 640.177 -2.25103 3.45547 0
M  V30 6494 H 639.518 -0.13412 0.650314 0
M  V30 6495 H 642.048 0.217718 2.03438 0
M  V30 6496 H 642.058 -1.46925 3.80627 0
M  V30 6497 H 640.733 -0.367122 4.14277 0
M  V30 6498 H 639.31 -1.93123 3.18995 0
M  V30 6499 N 641.495 -1.56914 -0.146875 0
M  V30 6500 C 642.458 -1.97368 -1.16526 0
M  V30 6501 C 643.458 -0.860223 -1.35856 0
M  V30 6502 O 644.648 -1.12684 -1.32846 0
M  V30 6503 C 641.78 -2.28974 -2.52555 0
M  V30 6504 H 642.973 -2.88523 -0.818209 0
M  V30 6505 H 640.526 -1.5135 -0.390221 0
M  V30 6506 H 641.261 -1.40611 -2.92231 0
M  V30 6507 H 641.046 -3.10157 -2.39886 0
M  V30 6508 H 642.536 -2.61109 -3.25902 0
M  V30 6509 N 642.974 0.416227 -1.52004 0
M  V30 6510 C 643.884 1.53147 -1.77717 0
M  V30 6511 C 644.9 1.609 -0.662368 0
M  V30 6512 O 646.076 1.77747 -0.946991 0
M  V30 6513 C 643.141 2.88948 -1.91598 0
M  V30 6514 C 642.202 2.9114 -3.15493 0
M  V30 6515 C 641.435 4.20464 -3.28703 0
M  V30 6516 O 641.658 5.13981 -2.47345 0
M  V30 6517 O 640.592 4.29368 -4.21813 0
M  V30 6518 H 644.418 1.34357 -2.72363 0
M  V30 6519 H 642.003 0.601373 -1.36762 0
M  V30 6520 H 643.885 3.69505 -2.02593 0
M  V30 6521 H 642.56 3.07821 -1.00141 0
M  V30 6522 H 641.467 2.09461 -3.09962 0
M  V30 6523 H 642.8 2.77216 -4.06709 0
M  V30 6524 N 644.452 1.42507 0.673017 0
M  V30 6525 C 645.701 1.42364 1.42883 0
M  V30 6526 C 646.014 0.0441598 1.9555 0
M  V30 6527 O 647.22 -0.0798679 2.71382 0
M  V30 6528 C 645.676 2.5043 2.58482 0
M  V30 6529 C 645.284 3.94392 2.12506 0
M  V30 6530 C 647.028 2.59455 3.35981 0
M  V30 6531 C 644.935 4.93964 3.25198 0
M  V30 6532 H 643.865 0.52951 0.536782 0
M  V30 6533 H 646.516 1.68422 0.728448 0
M  V30 6534 H 644.898 2.1754 3.30896 0
M  V30 6535 H 646.072 4.36645 1.47233 0
M  V30 6536 H 644.387 3.89233 1.4794 0
M  V30 6537 H 646.984 3.31025 4.19912 0
M  V30 6538 H 647.327 1.63869 3.82691 0
M  V30 6539 H 647.86 2.91549 2.70637 0
M  V30 6540 H 644.599 5.91034 2.83477 0
M  V30 6541 H 644.119 4.56341 3.89247 0
M  V30 6542 H 645.798 5.15763 3.90637 0
M  V30 6543 N 645.93 -0.909495 1.28709 0
M  V30 6544 C 646.893 -1.99399 1.13016 0
M  V30 6545 C 647.893 -1.60654 0.068536 0
M  V30 6546 O 649.083 -1.71334 0.314671 0
M  V30 6547 C 646.215 -3.33078 0.726085 0
M  V30 6548 H 647.408 -2.14751 2.09338 0
M  V30 6549 H 644.961 -1.09272 1.11756 0
M  V30 6550 H 645.696 -3.23428 -0.23771 0
M  V30 6551 H 645.481 -3.62562 1.49302 0
M  V30 6552 H 646.971 -4.12681 0.639058 0
M  V30 6553 N 647.408 -1.11026 -1.11852 0
M  V30 6554 C 648.654 -0.857729 -1.83768 0
M  V30 6555 C 648.987 0.615143 -1.842 0
M  V30 6556 O 648.262 1.45391 -1.29196 0
M  V30 6557 C 648.545 -1.41453 -3.31154 0
M  V30 6558 C 648.398 -2.95471 -3.39142 0
M  V30 6559 C 649.717 -1.0619 -4.27097 0
M  V30 6560 H 646.836 -0.313044 -0.667212 0
M  V30 6561 H 649.478 -1.37443 -1.31185 0
M  V30 6562 H 647.628 -0.975052 -3.76065 0
M  V30 6563 H 649.3 -3.4799 -3.02821 0
M  V30 6564 H 647.543 -3.31759 -2.79497 0
M  V30 6565 H 648.214 -3.29515 -4.42859 0
M  V30 6566 H 650.69 -1.44122 -3.90344 0
M  V30 6567 H 649.566 -1.47832 -5.28618 0
M  V30 6568 H 649.827 0.0278912 -4.42091 0
M  V30 6569 N 648.886 1.2938 -0.899927 0
M  V30 6570 C 649.819 2.25911 -0.322386 0
M  V30 6571 C 650.797 1.52447 0.565567 0
M  V30 6572 O 651.981 1.81404 0.512324 0
M  V30 6573 C 649.108 3.3436 0.540455 0
M  V30 6574 C 648.154 4.25579 -0.280211 0
M  V30 6575 S 648.987 5.08526 -1.67814 0
M  V30 6576 C 650.143 6.20476 -0.822224 0
M  V30 6577 H 650.376 2.7455 -1.1406 0
M  V30 6578 H 647.909 1.37606 -0.700285 0
M  V30 6579 H 649.867 3.97303 1.0325 0
M  V30 6580 H 648.528 2.84416 1.33291 0
M  V30 6581 H 647.721 5.02574 0.378915 0
M  V30 6582 H 647.323 3.67287 -0.705405 0
M  V30 6583 H 649.615 6.77485 -0.0457138 0
M  V30 6584 H 650.558 6.90606 -1.56426 0
M  V30 6585 H 650.966 5.63243 -0.37651 0
M  V30 6586 N 650.364 0.662433 1.43002 0
M  V30 6587 C 651.612 0.179237 2.01304 0
M  V30 6588 C 651.933 -1.21428 1.52579 0
M  V30 6589 O 651.203 -1.81294 0.742252 0
M  V30 6590 H 649.783 0.0632725 0.744316 0
M  V30 6591 H 652.445 0.856169 1.75088 0
M  V30 6592 H 651.541 0.170957 3.11631 0
M  V30 6593 N 651.842 -1.52309 0.404946 0
M  V30 6594 C 652.805 -2.25491 -0.410651 0
M  V30 6595 C 653.805 -1.27704 -0.977154 0
M  V30 6596 O 654.995 -1.51679 -0.856691 0
M  V30 6597 C 652.127 -3.02197 -1.57765 0
M  V30 6598 H 653.32 -2.99015 0.230277 0
M  V30 6599 H 650.873 -1.55506 0.157377 0
M  V30 6600 H 651.608 -2.33013 -2.25556 0
M  V30 6601 H 651.393 -3.73987 -1.17797 0
M  V30 6602 H 652.883 -3.57719 -2.15469 0
M  V30 6603 N 653.32 -0.135238 -1.57019 0
M  V30 6604 C 654.23 0.822226 -2.19719 0
M  V30 6605 C 655.246 1.28057 -1.17802 0
M  V30 6606 O 656.422 1.3402 -1.50335 0
M  V30 6607 C 653.487 2.0484 -2.79717 0
M  V30 6608 C 652.548 1.64042 -3.96723 0
M  V30 6609 C 651.781 2.80814 -4.53849 0
M  V30 6610 O 652.004 3.967 -4.0986 0
M  V30 6611 O 650.938 2.56963 -5.44292 0
M  V30 6612 H 654.764 0.318552 -3.02025 0
M  V30 6613 H 652.349 0.0912021 -1.49121 0
M  V30 6614 H 654.231 2.76622 -3.17897 0
M  V30 6615 H 652.906 2.54182 -2.00432 0
M  V30 6616 H 651.813 0.893182 -3.63281 0
M  V30 6617 H 653.146 1.19426 -4.77492 0
M  V30 6618 N 654.798 1.5699 0.138552 0
M  V30 6619 C 656.046 1.83446 0.848053 0
M  V30 6620 C 656.367 0.71744 1.81322 0
M  V30 6621 O 655.637 -0.260228 1.94164 0
M  V30 6622 H 654.217 0.676792 0.316166 0
M  V30 6623 H 656.879 1.94462 0.130538 0
M  V30 6624 H 655.975 2.78677 1.40518 0
M  V30 6625 N 656.276 -0.40816 1.52223 0
M  V30 6626 C 657.239 -1.48 1.7501 0
M  V30 6627 C 658.239 -1.48367 0.619996 0
M  V30 6628 O 659.429 -1.49874 0.887881 0
M  V30 6629 C 656.561 -2.87403 1.83336 0
M  V30 6630 H 657.754 -1.29086 2.70697 0
M  V30 6631 H 655.307 -0.638715 1.42654 0
M  V30 6632 H 656.042 -3.11686 0.895677 0
M  V30 6633 H 655.827 -2.8854 2.65494 0
M  V30 6634 H 657.317 -3.65103 2.02705 0
M  V30 6635 N 657.755 -1.42862 -0.66545 0
M  V30 6636 C 658.718 -1.46756 -1.76055 0
M  V30 6637 C 659.718 -0.353866 -1.56858 0
M  V30 6638 O 660.908 -0.615099 -1.62979 0
M  V30 6639 C 658.04 -1.30829 -3.14796 0
M  V30 6640 H 659.233 -2.44271 -1.73987 0
M  V30 6641 H 656.786 -1.29447 -0.875965 0
M  V30 6642 H 657.521 -0.342733 -3.22484 0
M  V30 6643 H 657.306 -2.11551 -3.30134 0
M  V30 6644 H 658.796 -1.36458 -3.94676 0
M  V30 6645 N 659.233 0.902656 -1.29189 0
M  V30 6646 C 660.181 2.0278 -1.13943 0
M  V30 6647 C 661.175 1.69308 -0.055787 0
M  V30 6648 O 662.381 1.78707 -0.215371 0
M  V30 6649 H 658.756 0.664595 -0.351877 0
M  V30 6650 H 660.727 2.12778 -2.09208 0
M  V30 6651 C 659.476 3.37657 -0.82966 0
M  V30 6652 H 658.799 3.63913 -1.65551 0
M  V30 6653 H 660.239 4.17078 -0.762998 0
M  V30 6654 C 658.698 3.33648 0.466991 0
M  V30 6655 O 659.228 3.72886 1.49395 0
M  V30 6656 N 657.434 2.86745 0.471761 0
M  V30 6657 H 656.981 2.55009 -0.364406 0
M  V30 6658 H 656.939 2.84446 1.33933 0
M  V30 6659 N 660.711 1.11618 1.11262 0
M  V30 6660 C 661.957 0.867463 1.83311 0
M  V30 6661 C 662.29 -0.605366 1.84524 0
M  V30 6662 O 661.565 -1.44704 1.29965 0
M  V30 6663 C 661.848 1.43207 3.30399 0
M  V30 6664 C 661.701 2.97265 3.3757 0
M  V30 6665 C 663.02 1.08454 4.26528 0
M  V30 6666 H 660.139 0.316578 0.665543 0
M  V30 6667 H 662.781 1.38137 1.30454 0
M  V30 6668 H 660.931 0.994982 3.75543 0
M  V30 6669 H 662.603 3.49591 3.00971 0
M  V30 6670 H 660.846 3.33237 2.77733 0
M  V30 6671 H 661.517 3.31859 4.41105 0
M  V30 6672 H 663.993 1.4619 3.89574 0
M  V30 6673 H 662.869 1.50633 5.27826 0
M  V30 6674 H 663.13 -0.00444568 4.421 0
M  V30 6675 N 662.189 -1.289 0.906776 0
M  V30 6676 C 663.438 -1.9455 0.532262 0
M  V30 6677 C 663.751 -1.72219 -0.927353 0
M  V30 6678 O 664.957 -2.32033 -1.40971 0
M  V30 6679 C 663.413 -3.48438 0.901041 0
M  V30 6680 C 663.021 -3.79558 2.37991 0
M  V30 6681 C 664.765 -4.20284 0.596777 0
M  V30 6682 C 662.672 -5.26723 2.68918 0
M  V30 6683 H 661.602 -0.728259 0.195333 0
M  V30 6684 H 664.253 -1.46519 1.10474 0
M  V30 6685 H 662.635 -3.95162 0.257419 0
M  V30 6686 H 663.809 -3.43668 3.06967 0
M  V30 6687 H 662.124 -3.20868 2.65391 0
M  V30 6688 H 664.721 -5.28612 0.8046 0
M  V30 6689 H 665.064 -4.13694 -0.465072 0
M  V30 6690 H 665.597 -3.79315 1.19855 0
M  V30 6691 H 662.336 -5.38384 3.73928 0
M  V30 6692 H 661.856 -5.63836 2.04571 0
M  V30 6693 H 663.535 -5.94391 2.55555 0
M  V30 6694 N 663.667 -0.670007 -1.42649 0
M  V30 6695 C 664.914 -0.190286 -2.01604 0
M  V30 6696 C 665.242 1.20155 -1.52948 0
M  V30 6697 O 664.497 1.81964 -0.72026 0
M  V30 6698 C 664.796 -0.168298 -3.57004 0
M  V30 6699 C 664.462 -1.50415 -4.25072 0
M  V30 6700 C 663.124 -1.86992 -4.43382 0
M  V30 6701 C 665.476 -2.38414 -4.63474 0
M  V30 6702 C 662.804 -3.11203 -4.97363 0
M  V30 6703 C 665.156 -3.61933 -5.18833 0
M  V30 6704 C 663.82 -3.98685 -5.35356 0
M  V30 6705 H 663.09 -0.0696305 -0.737721 0
M  V30 6706 H 665.737 -0.864044 -1.70899 0
M  V30 6707 H 664.042 0.588958 -3.87348 0
M  V30 6708 H 665.739 0.22001 -4.00396 0
M  V30 6709 H 662.329 -1.20959 -4.11177 0
M  V30 6710 H 666.513 -2.11442 -4.49006 0
M  V30 6711 H 661.769 -3.39705 -5.08341 0
M  V30 6712 H 665.943 -4.30326 -5.47533 0
M  V30 6713 H 663.57 -4.95009 -5.76949 0
M  V30 6714 N 665.145 1.52092 -0.413018 0
M  V30 6715 C 666.561 1.59471 -0.0640836 0
M  V30 6716 C 666.761 1.42562 1.42402 0
M  V30 6717 O 665.817 1.25453 2.19129 0
M  V30 6718 C 667.13 2.95392 -0.562474 0
M  V30 6719 C 668.678 3.08637 -0.520788 0
M  V30 6720 C 669.153 4.47044 -0.995752 0
M  V30 6721 N 670.644 4.53296 -0.952732 0
M  V30 6722 C 671.379 5.58669 -1.29138 0
M  V30 6723 N 670.875 6.71576 -1.70168 0
M  V30 6724 N 672.668 5.48898 -1.2111 0
M  V30 6725 H 664.819 1.6133 -1.38153 0
M  V30 6726 H 667.082 0.75916 -0.567785 0
M  V30 6727 H 666.788 3.13059 -1.60271 0
M  V30 6728 H 666.662 3.77191 0.0257875 0
M  V30 6729 H 669.049 2.90652 0.510412 0
M  V30 6730 H 669.13 2.28735 -1.14515 0
M  V30 6731 H 668.774 4.65773 -2.0253 0
M  V30 6732 H 668.704 5.25448 -0.348162 0
M  V30 6733 H 671.195 3.72248 -0.651119 0
M  V30 6734 H 671.508 7.47973 -1.9431 0
M  V30 6735 H 669.853 6.72847 -1.74075 0
M  V30 6736 H 673.044 4.59573 -0.889396 0
M  V30 6737 H 673.217 6.30912 -1.47833 0
M  V30 6738 N 666.623 0.143563 1.56945 0
M  V30 6739 C 667.57 -0.797433 2.16586 0
M  V30 6740 C 668.54 -1.24654 1.09775 0
M  V30 6741 O 669.725 -1.31968 1.37801 0
M  V30 6742 C 666.865 -2.03253 2.78895 0
M  V30 6743 C 665.978 -1.62954 4.00087 0
M  V30 6744 C 665.113 -2.81617 4.50406 0
M  V30 6745 C 664.152 -2.37675 5.64072 0
M  V30 6746 N 663.289 -3.49335 6.09023 0
M  V30 6747 H 668.129 -0.282023 2.96662 0
M  V30 6748 H 665.666 -0.127494 1.46546 0
M  V30 6749 H 667.624 -2.75653 3.13163 0
M  V30 6750 H 666.254 -2.52211 2.01469 0
M  V30 6751 H 665.306 -0.803322 3.71821 0
M  V30 6752 H 666.618 -1.26679 4.82446 0
M  V30 6753 H 665.772 -3.62212 4.86711 0
M  V30 6754 H 664.511 -3.21134 3.67048 0
M  V30 6755 H 663.516 -1.55519 5.27346 0
M  V30 6756 H 664.741 -1.99247 6.49213 0
M  V30 6757 H 662.687 -3.8848 5.28601 0
M  V30 6758 H 662.604 -3.17064 6.86299 0
M  V30 6759 H 663.872 -4.30297 6.49973 0
M  V30 6760 N 668.101 -1.57061 -0.130224 0
M  V30 6761 C 669.011 -2.02802 -1.17934 0
M  V30 6762 C 670.027 -0.946378 -1.46013 0
M  V30 6763 O 671.203 -1.25708 -1.57351 0
M  V30 6764 C 668.268 -2.41368 -2.48882 0
M  V30 6765 C 667.329 -3.63561 -2.28301 0
M  V30 6766 C 666.562 -4.00279 -3.53005 0
M  V30 6767 O 666.785 -3.37463 -4.59864 0
M  V30 6768 O 665.719 -4.93441 -3.44673 0
M  V30 6769 H 669.545 -2.92394 -0.820958 0
M  V30 6770 H 667.13 -1.45475 -0.340197 0
M  V30 6771 H 669.012 -2.66958 -3.26054 0
M  V30 6772 H 667.687 -1.54926 -2.84217 0
M  V30 6773 H 666.594 -3.43136 -1.49025 0
M  V30 6774 H 667.927 -4.50673 -1.97875 0
M  V30 6775 N 669.579 0.400081 -1.52437 0
M  V30 6776 C 670.828 1.14332 -1.66166 0
M  V30 6777 C 671.141 1.91419 -0.402253 0
M  V30 6778 O 672.347 2.6824 -0.419487 0
M  V30 6779 C 670.803 2.08137 -2.9361 0
M  V30 6780 C 670.411 1.36524 -4.26691 0
M  V30 6781 C 672.155 2.82664 -3.16703 0
M  V30 6782 C 670.062 2.29031 -5.45251 0
M  V30 6783 H 668.992 0.430499 -0.61902 0
M  V30 6784 H 671.643 0.407017 -1.78929 0
M  V30 6785 H 670.025 2.85358 -2.74567 0
M  V30 6786 H 671.199 0.646061 -4.56249 0
M  V30 6787 H 669.514 0.74002 -4.09771 0
M  V30 6788 H 672.111 3.52037 -4.0246 0
M  V30 6789 H 672.454 3.46122 -2.31312 0
M  V30 6790 H 672.987 2.12541 -3.36261 0
M  V30 6791 H 669.726 1.70206 -6.33017 0
M  V30 6792 H 669.246 2.98896 -5.2002 0
M  V30 6793 H 670.925 2.89359 -5.78689 0
M  V30 6794 N 671.057 1.43213 0.657864 0
M  V30 6795 C 672.004 1.48011 1.77092 0
M  V30 6796 C 672.974 0.330291 1.62783 0
M  V30 6797 O 674.159 0.536787 1.83094 0
M  V30 6798 C 671.299 1.40461 3.15222 0
M  V30 6799 C 670.412 2.65612 3.40697 0
M  V30 6800 C 669.547 2.50083 4.68649 0
M  V30 6801 C 668.586 3.70525 4.87214 0
M  V30 6802 N 667.723 3.53835 6.0642 0
M  V30 6803 H 672.563 2.43121 1.72326 0
M  V30 6804 H 670.1 1.20687 0.841013 0
M  V30 6805 H 672.058 1.34079 3.95068 0
M  V30 6806 H 670.688 0.489359 3.19069 0
M  V30 6807 H 669.74 2.82292 2.54982 0
M  V30 6808 H 671.052 3.5509 3.50303 0
M  V30 6809 H 670.206 2.41383 5.56614 0
M  V30 6810 H 668.945 1.58121 4.61356 0
M  V30 6811 H 667.95 3.79639 3.97686 0
M  V30 6812 H 669.175 4.63489 4.96341 0
M  V30 6813 H 667.121 2.64604 6.00267 0
M  V30 6814 H 667.038 4.36912 6.16963 0
M  V30 6815 H 668.306 3.48978 6.97019 0
M  V30 6816 N 672.536 -0.895792 1.29666 0
M  V30 6817 C 673.499 -1.98189 1.15124 0
M  V30 6818 C 674.499 -1.60572 0.0855717 0
M  V30 6819 O 675.689 -1.70991 0.332826 0
M  V30 6820 C 672.821 -3.32289 0.761372 0
M  V30 6821 H 674.014 -2.12518 2.11603 0
M  V30 6822 H 671.567 -1.0808 1.12908 0
M  V30 6823 H 672.302 -3.23662 -0.203393 0
M  V30 6824 H 672.087 -3.60958 1.53139 0
M  V30 6825 H 673.577 -4.1198 0.682792 0
M  V30 6826 N 674.014 -1.12206 -1.10668 0
M  V30 6827 C 674.977 -0.790867 -2.15123 0
M  V30 6828 C 675.977 0.193618 -1.5963 0
M  V30 6829 O 677.167 -0.0318728 -1.74171 0
M  V30 6830 C 674.299 -0.174797 -3.40452 0
M  V30 6831 H 675.492 -1.7163 -2.45933 0
M  V30 6832 H 673.045 -0.924993 -1.2599 0
M  V30 6833 H 673.78 0.760478 -3.15257 0
M  V30 6834 H 673.565 -0.88358 -3.82015 0
M  V30 6835 H 675.055 0.0405162 -4.1758 0
M  V30 6836 N 675.492 1.28418 -0.913599 0
M  V30 6837 C 676.769 1.89977 -0.465619 0
M  V30 6838 C 677.149 1.82813 1.05559 0
M  V30 6839 O 676.497 1.26397 1.90358 0
M  V30 6840 C 676.707 3.34492 -0.995813 0
M  V30 6841 C 678.055 4.11468 -1.04782 0
M  V30 6842 O 679.079 3.43451 -0.944445 0
M  V30 6843 O 677.938 5.33046 -1.20518 0
M  V30 6844 H 675.032 0.813734 -0.147532 0
M  V30 6845 H 677.578 1.36786 -1.00437 0
M  V30 6846 H 676.35 3.33929 -2.03978 0
M  V30 6847 H 675.973 3.95181 -0.437878 0
M  V30 6848 N 676.97 0.677563 1.42291 0
M  V30 6849 C 678.247 0.129803 1.95169 0
M  V30 6850 C 678.627 -1.35605 1.61786 0
M  V30 6851 O 677.975 -2.09361 0.915444 0
M  V30 6852 C 678.185 0.401889 3.46678 0
M  V30 6853 C 679.533 0.319889 4.23393 0
M  V30 6854 O 680.557 0.33579 3.54614 0
M  V30 6855 O 679.416 0.264459 5.4586 0
M  V30 6856 H 676.51 0.00447433 0.826988 0
M  V30 6857 H 679.056 0.752483 1.52105 0
M  V30 6858 H 677.828 1.43108 3.64192 0
M  V30 6859 H 677.451 -0.252662 3.96796 0
M  V30 6860 N 678.448 -1.51871 0.421078 0
M  V30 6861 C 679.859 -1.86644 -0.0457991 0
M  V30 6862 C 680.21 -1.33919 -1.43388 0
M  V30 6863 O 679.335 -0.683316 -2.05328 0
M  V30 6864 C 679.93 -3.38681 -0.0898844 0
M  V30 6865 C 678.489 -3.73049 -0.501127 0
M  V30 6866 C 677.636 -2.75485 0.316723 0
M  V30 6867 H 680.587 -1.45327 0.637635 0
M  V30 6868 H 680.608 -3.69636 -0.902734 0
M  V30 6869 H 680.12 -3.77025 0.920513 0
M  V30 6870 H 678.221 -3.40288 -1.51773 0
M  V30 6871 H 678.334 -4.78512 -0.237217 0
M  V30 6872 H 676.698 -2.53725 -0.222663 0
M  V30 6873 H 677.481 -3.16671 1.32569 0
M  V30 6874 N 679.926 -0.151884 -1.56866 0
M  V30 6875 C 681.203 0.543328 -1.87902 0
M  V30 6876 C 681.583 1.82636 -1.05864 0
M  V30 6877 O 680.931 2.28028 -0.146868 0
M  V30 6878 C 681.141 0.804056 -3.39611 0
M  V30 6879 C 682.489 1.14267 -4.08935 0
M  V30 6880 O 683.513 0.893248 -3.44818 0
M  V30 6881 O 682.372 1.61229 -5.22176 0
M  V30 6882 H 679.466 0.277724 -0.778973 0
M  V30 6883 H 682.012 -0.188862 -1.68646 0
M  V30 6884 H 680.784 -0.103772 -3.91162 0
M  V30 6885 H 680.407 1.59025 -3.64413 0
M  V30 6886 N 681.404 1.57128 0.121893 0
M  V30 6887 C 682.367 1.99197 1.13372 0
M  V30 6888 C 683.367 0.881728 1.3447 0
M  V30 6889 O 684.557 1.14783 1.31036 0
M  V30 6890 C 681.689 2.32963 2.4888 0
M  V30 6891 H 682.882 2.89788 0.772204 0
M  V30 6892 H 680.435 1.51952 0.366093 0
M  V30 6893 H 681.17 1.45243 2.89957 0
M  V30 6894 H 680.955 3.13934 2.34921 0
M  V30 6895 H 682.445 2.66261 3.21706 0
M  V30 6896 N 682.882 -0.391992 1.52647 0
M  V30 6897 C 683.815 -1.50019 1.71958 0
M  V30 6898 C 684.793 -1.5238 0.567365 0
M  V30 6899 O 685.977 -1.70831 0.796806 0
M  V30 6900 C 683.104 -2.88496 1.77447 0
M  V30 6901 C 682.15 -3.03974 2.99169 0
M  V30 6902 S 682.983 -2.75487 4.59203 0
M  V30 6903 C 684.139 -4.16163 4.67503 0
M  V30 6904 H 684.372 -1.33413 2.65685 0
M  V30 6905 H 681.905 -0.584674 1.42902 0
M  V30 6906 H 683.863 -3.68296 1.81296 0
M  V30 6907 H 682.524 -3.02431 0.848188 0
M  V30 6908 H 681.717 -4.05328 2.99542 0
M  V30 6909 H 681.319 -2.32062 2.93297 0
M  V30 6910 H 683.611 -5.10048 4.45934 0
M  V30 6911 H 684.554 -4.20806 5.69498 0
M  V30 6912 H 684.962 -4.01933 3.96371 0
M  V30 6913 N 684.36 -1.4356 -0.65026 0
M  V30 6914 C 685.776 -1.27025 -0.966269 0
M  V30 6915 C 685.976 -0.192117 -2.00582 0
M  V30 6916 O 685.032 0.428459 -2.48838 0
M  V30 6917 C 686.345 -2.63556 -1.44772 0
M  V30 6918 C 687.893 -2.71111 -1.56421 0
M  V30 6919 C 688.368 -4.08067 -2.07956 0
M  V30 6920 N 689.859 -4.10146 -2.15254 0
M  V30 6921 C 690.594 -5.12952 -2.56258 0
M  V30 6922 N 690.09 -6.26129 -2.96537 0
M  V30 6923 N 691.883 -5.00306 -2.56224 0
M  V30 6924 H 684.034 -2.12367 0.0375758 0
M  V30 6925 H 686.297 -0.946894 -0.0457782 0
M  V30 6926 H 686.003 -3.43429 -0.758271 0
M  V30 6927 H 685.877 -2.89152 -2.42221 0
M  V30 6928 H 688.264 -1.91569 -2.24467 0
M  V30 6929 H 688.345 -2.49277 -0.573967 0
M  V30 6930 H 687.989 -4.88077 -1.40511 0
M  V30 6931 H 687.919 -4.27266 -3.07817 0
M  V30 6932 H 690.41 -3.28453 -1.86887 0
M  V30 6933 H 690.723 -7.00403 -3.26582 0
M  V30 6934 H 689.068 -6.29597 -2.94334 0
M  V30 6935 H 692.259 -4.10952 -2.24135 0
M  V30 6936 H 692.432 -5.80553 -2.87857 0
M  V30 6937 N 685.838 0.888903 -1.30139 0
M  V30 6938 C 686.801 1.97576 -1.16174 0
M  V30 6939 C 687.801 1.60525 -0.094086 0
M  V30 6940 O 688.991 1.70812 -0.341889 0
M  V30 6941 C 686.123 3.3188 -0.778983 0
M  V30 6942 H 687.316 2.11393 -2.12728 0
M  V30 6943 H 684.869 1.0748 -1.1348 0
M  V30 6944 H 685.604 3.23765 0.186225 0
M  V30 6945 H 685.389 3.60141 -1.55051 0
M  V30 6946 H 686.879 4.11612 -0.704631 0
M  V30 6947 N 687.317 1.12792 1.10072 0
M  V30 6948 C 688.227 0.812369 2.20086 0
M  V30 6949 C 689.243 -0.200349 1.72843 0
M  V30 6950 O 690.419 -0.0330262 2.01373 0
M  V30 6951 C 687.484 0.275685 3.45602 0
M  V30 6952 C 686.545 1.34881 4.07561 0
M  V30 6953 C 685.778 0.837639 5.27086 0
M  V30 6954 O 686.001 -0.327224 5.69461 0
M  V30 6955 O 684.935 1.60894 5.79997 0
M  V30 6956 H 688.761 1.73133 2.49517 0
M  V30 6957 H 686.346 0.904863 1.18881 0
M  V30 6958 H 688.228 -0.0185375 4.21396 0
M  V30 6959 H 686.903 -0.615783 3.17789 0
M  V30 6960 H 685.81 1.69625 3.33434 0
M  V30 6961 H 687.143 2.21418 4.39585 0
M  V30 6962 N 688.795 -1.27931 0.920396 0
M  V30 6963 C 689.742 -2.27085 0.412422 0
M  V30 6964 C 690.712 -1.57858 -0.516725 0
M  V30 6965 O 691.897 -1.85717 -0.437475 0
M  V30 6966 C 689.037 -3.43466 -0.335399 0
M  V30 6967 C 688.15 -4.27425 0.627017 0
M  V30 6968 C 687.285 -5.31016 -0.139916 0
M  V30 6969 C 686.324 -6.06641 0.815683 0
M  V30 6970 N 685.461 -7.02052 0.0818439 0
M  V30 6971 H 690.301 -2.69913 1.26298 0
M  V30 6972 H 687.838 -1.32732 0.634076 0
M  V30 6973 H 689.796 -4.09744 -0.785226 0
M  V30 6974 H 688.426 -3.01611 -1.15025 0
M  V30 6975 H 687.478 -3.6113 1.19537 0
M  V30 6976 H 688.79 -4.79969 1.35763 0
M  V30 6977 H 687.944 -6.03208 -0.649998 0
M  V30 6978 H 686.683 -4.79257 -0.903543 0
M  V30 6979 H 685.688 -5.33294 1.33708 0
M  V30 6980 H 686.913 -6.60489 1.57897 0
M  V30 6981 H 684.859 -6.52634 -0.663671 0
M  V30 6982 H 684.776 -7.52249 0.752163 0
M  V30 6983 H 686.044 -7.78432 -0.407825 0
M  V30 6984 N 690.273 -0.685099 -1.4193 0
M  V30 6985 C 691.522 -0.208816 -2.00616 0
M  V30 6986 C 691.835 1.19506 -1.54847 0
M  V30 6987 O 693.041 1.76826 -2.06021 0
M  V30 6988 C 691.497 -0.322446 -3.58453 0
M  V30 6989 C 691.105 -1.73102 -4.13206 0
M  V30 6990 C 692.849 0.0945979 -4.24395 0
M  V30 6991 C 690.756 -1.79687 -5.63442 0
M  V30 6992 H 689.686 -0.0743092 -0.750329 0
M  V30 6993 H 692.337 -0.851778 -1.62533 0
M  V30 6994 H 690.719 0.388588 -3.94089 0
M  V30 6995 H 691.893 -2.46997 -3.8901 0
M  V30 6996 H 690.208 -2.09682 -3.59753 0
M  V30 6997 H 692.805 0.0656937 -5.3466 0
M  V30 6998 H 693.148 1.1316 -4.00625 0
M  V30 6999 H 693.681 -0.56579 -3.93756 0
M  V30 7000 H 690.42 -2.81404 -5.92024 0
M  V30 7001 H 689.94 -1.10162 -5.89597 0
M  V30 7002 H 691.619 -1.55498 -6.28036 0
M  V30 7003 N 691.751 1.51645 -0.429126 0
M  V30 7004 C 692.661 2.31288 0.392809 0
M  V30 7005 C 693.677 1.39852 1.03525 0
M  V30 7006 O 694.853 1.72926 1.03241 0
M  V30 7007 C 691.918 3.13347 1.48372 0
M  V30 7008 C 690.979 4.20551 0.862268 0
M  V30 7009 C 690.212 4.98688 1.9012 0
M  V30 7010 O 690.435 4.77359 3.12225 0
M  V30 7011 O 689.369 5.83005 1.4963 0
M  V30 7012 H 693.195 3.02609 -0.257138 0
M  V30 7013 H 690.78 1.48163 -0.191851 0
M  V30 7014 H 692.662 3.64387 2.1166 0
M  V30 7015 H 691.337 2.44799 2.1179 0
M  V30 7016 H 690.244 3.73609 0.191568 0
M  V30 7017 H 691.577 4.91449 0.271704 0
M  V30 7018 N 693.229 0.160201 1.56784 0
M  V30 7019 C 694.139 -0.787167 2.21 0
M  V30 7020 C 695.155 -1.26167 1.19825 0
M  V30 7021 O 696.331 -1.31611 1.52448 0
M  V30 7022 C 693.396 -2.00364 2.8294 0
M  V30 7023 C 692.457 -1.5771 3.99282 0
M  V30 7024 C 691.69 -2.73558 4.58259 0
M  V30 7025 O 691.913 -3.90129 4.16119 0
M  V30 7026 O 690.847 -2.48271 5.48311 0
M  V30 7027 H 694.673 -0.270462 3.02493 0
M  V30 7028 H 692.258 -0.0674666 1.49248 0
M  V30 7029 H 694.14 -2.71529 3.22257 0
M  V30 7030 H 692.815 -2.50961 2.04451 0
M  V30 7031 H 691.722 -0.835274 3.64656 0
M  V30 7032 H 693.055 -1.11815 4.79331 0
M  V30 7033 N 694.707 -1.5719 -0.113559 0
M  V30 7034 C 695.937 -1.89053 -0.833212 0
M  V30 7035 C 696.345 -0.750139 -1.73694 0
M  V30 7036 O 695.688 0.287808 -1.81431 0
M  V30 7037 C 695.75 -3.15986 -1.71443 0
M  V30 7038 C 695.414 -4.46271 -0.984449 0
M  V30 7039 C 696.411 -5.18897 -0.322741 0
M  V30 7040 C 694.096 -4.92963 -0.964011 0
M  V30 7041 C 696.09 -6.3644 0.349646 0
M  V30 7042 C 693.777 -6.10422 -0.287828 0
M  V30 7043 C 694.775 -6.82009 0.36784 0
M  V30 7044 O 694.463 -7.97233 1.03322 0
M  V30 7045 H 694.195 -0.630225 -0.244526 0
M  V30 7046 H 696.749 -2.05152 -0.100847 0
M  V30 7047 H 694.979 -2.95984 -2.48858 0
M  V30 7048 H 696.668 -3.33826 -2.309 0
M  V30 7049 H 697.434 -4.83875 -0.330114 0
M  V30 7050 H 693.313 -4.37143 -1.46379 0
M  V30 7051 H 696.857 -6.92254 0.861996 0
M  V30 7052 H 692.754 -6.449 -0.278237 0
M  V30 7053 H 693.522 -8.13105 0.938247 0
M  V30 7054 N 696.185 0.383891 -1.52853 0
M  V30 7055 C 697.117 1.48889 -1.74255 0
M  V30 7056 C 698.13 1.50405 -0.623063 0
M  V30 7057 O 699.319 1.54215 -0.898887 0
M  V30 7058 C 696.419 2.87721 -1.79081 0
M  V30 7059 C 695.592 3.10111 -3.08464 0
M  V30 7060 C 694.651 4.28954 -3.0477 0
M  V30 7061 O 693.677 4.25012 -3.78621 0
M  V30 7062 N 694.879 5.35411 -2.24311 0
M  V30 7063 H 697.644 1.30915 -2.69595 0
M  V30 7064 H 695.205 0.573454 -1.51404 0
M  V30 7065 H 697.197 3.65333 -1.7411 0
M  V30 7066 H 695.767 2.99029 -0.911052 0
M  V30 7067 H 694.987 2.20319 -3.26884 0
M  V30 7068 H 696.275 3.21928 -3.94005 0
M  V30 7069 H 695.673 5.41471 -1.63787 0
M  V30 7070 H 694.23 6.1167 -2.25175 0
M  V30 7071 N 697.663 1.43903 0.642637 0
M  V30 7072 C 698.611 1.50164 1.77634 0
M  V30 7073 C 699.605 0.374294 1.65213 0
M  V30 7074 O 700.811 0.548748 1.71431 0
M  V30 7075 H 697.186 0.470974 0.586249 0
M  V30 7076 H 699.157 2.45603 1.69474 0
M  V30 7077 C 697.906 1.45196 3.15933 0
M  V30 7078 H 697.229 2.31253 3.26132 0
M  V30 7079 H 698.669 1.53638 3.95185 0
M  V30 7080 C 697.128 0.171043 3.36466 0
M  V30 7081 O 697.658 -0.763413 3.94379 0
M  V30 7082 N 695.864 0.077847 2.90496 0
M  V30 7083 H 695.411 0.8391 2.43551 0
M  V30 7084 H 695.369 -0.778473 3.0461 0
M  V30 7085 N 699.141 -0.881989 1.30609 0
M  V30 7086 C 700.104 -1.96957 1.1722 0
M  V30 7087 C 701.104 -1.60472 0.102598 0
M  V30 7088 O 702.294 -1.70628 0.350943 0
M  V30 7089 C 699.426 -3.31463 0.796572 0
M  V30 7090 H 700.619 -2.10262 2.13846 0
M  V30 7091 H 698.172 -1.06877 1.14048 0
M  V30 7092 H 698.907 -3.23859 -0.169053 0
M  V30 7093 H 698.692 -3.59314 1.56959 0
M  V30 7094 H 700.182 -4.11233 0.72645 0
M  V30 7095 N 700.619 -1.13374 -1.09472 0
M  V30 7096 C 701.866 -0.89519 -1.81639 0
M  V30 7097 C 702.194 0.57868 -1.85692 0
M  V30 7098 O 701.449 1.44426 -1.32059 0
M  V30 7099 C 701.748 -1.42759 -3.2765 0
M  V30 7100 C 701.414 -2.91822 -3.43731 0
M  V30 7101 C 700.076 -3.32521 -3.47827 0
M  V30 7102 C 702.428 -3.87727 -3.48307 0
M  V30 7103 C 699.756 -4.6781 -3.54078 0
M  V30 7104 C 702.108 -5.22859 -3.56091 0
M  V30 7105 C 700.772 -5.63086 -3.58456 0
M  V30 7106 H 700.042 -0.327573 -0.664663 0
M  V30 7107 H 702.689 -1.4156 -1.28969 0
M  V30 7108 H 700.994 -0.827871 -3.82954 0
M  V30 7109 H 702.691 -1.2191 -3.8202 0
M  V30 7110 H 699.281 -2.5935 -3.41226 0
M  V30 7111 H 703.465 -3.57371 -3.44383 0
M  V30 7112 H 698.721 -4.98353 -3.54195 0
M  V30 7113 H 702.895 -5.96989 -3.58577 0
M  V30 7114 H 700.522 -6.67905 -3.63052 0
M  V30 7115 N 702.098 1.27442 -0.927168 0
M  V30 7116 C 703.046 2.28844 -0.416333 0
M  V30 7117 C 704.04 1.61882 0.499057 0
M  V30 7118 O 705.246 1.75969 0.378817 0
M  V30 7119 H 701.621 0.742989 -0.116065 0
M  V30 7120 H 703.592 2.69344 -1.28438 0
M  V30 7121 C 702.341 3.4626 0.316107 0
M  V30 7122 H 701.664 3.97999 -0.379082 0
M  V30 7123 H 703.104 4.19173 0.637975 0
M  V30 7124 C 701.563 3.00211 1.5289 0
M  V30 7125 O 702.093 3.03837 2.62766 0
M  V30 7126 N 700.299 2.55713 1.38054 0
M  V30 7127 H 699.846 2.52962 0.4866 0
M  V30 7128 H 699.804 2.25264 2.19325 0
M  V30 7129 N 703.576 0.692616 1.41565 0
M  V30 7130 C 704.804 0.231279 2.05603 0
M  V30 7131 C 705.219 -1.11837 1.52111 0
M  V30 7132 O 704.576 -1.6983 0.66813 0
M  V30 7133 C 704.627 0.177125 3.61066 0
M  V30 7134 O 704.348 1.47346 4.12578 0
M  V30 7135 C 705.849 -0.30556 4.42246 0
M  V30 7136 H 703.069 0.108238 0.662213 0
M  V30 7137 H 705.613 0.944369 1.81389 0
M  V30 7138 H 703.768 -0.486769 3.8433 0
M  V30 7139 H 704.182 1.35861 5.06599 0
M  V30 7140 H 705.656 -0.29233 5.51225 0
M  V30 7141 H 706.133 -1.34393 4.18133 0
M  V30 7142 H 706.739 0.327229 4.24039 0
M  V30 7143 N 705.054 -1.51416 0.437162 0
M  V30 7144 C 706.465 -1.86682 -0.0260005 0
M  V30 7145 C 706.816 -1.35432 -1.4196 0
M  V30 7146 O 705.941 -0.705055 -2.04592 0
M  V30 7147 C 706.536 -3.38757 -0.0539577 0
M  V30 7148 C 705.095 -3.7356 -0.461532 0
M  V30 7149 C 704.242 -2.75134 0.345924 0
M  V30 7150 H 707.193 -1.44642 0.653013 0
M  V30 7151 H 707.214 -3.70573 -0.863478 0
M  V30 7152 H 706.726 -3.76028 0.96045 0
M  V30 7153 H 704.827 -3.41878 -1.48155 0
M  V30 7154 H 704.94 -4.78737 -0.186451 0
M  V30 7155 H 703.304 -2.53947 -0.195739 0
M  V30 7156 H 704.087 -3.15247 1.35921 0
M  V30 7157 N 706.532 -0.168513 -1.56696 0
M  V30 7158 C 707.762 0.482802 -2.0088 0
M  V30 7159 C 708.17 1.57537 -1.0478 0
M  V30 7160 O 707.513 1.83656 -0.0402746 0
M  V30 7161 C 707.575 1.1236 -3.4149 0
M  V30 7162 C 707.239 0.173027 -4.56672 0
M  V30 7163 C 708.236 -0.607565 -5.16338 0
M  V30 7164 C 705.921 0.0696691 -5.02252 0
M  V30 7165 C 707.915 -1.47874 -6.2001 0
M  V30 7166 C 705.602 -0.805096 -6.05773 0
M  V30 7167 C 706.6 -1.57789 -6.64524 0
M  V30 7168 O 706.288 -2.43804 -7.66038 0
M  V30 7169 H 706.02 0.128246 -0.663723 0
M  V30 7170 H 708.574 -0.266532 -2.03663 0
M  V30 7171 H 706.804 1.921 -3.35611 0
M  V30 7172 H 708.493 1.67683 -3.69645 0
M  V30 7173 H 709.259 -0.53787 -4.82008 0
M  V30 7174 H 705.138 0.660957 -4.56237 0
M  V30 7175 H 708.682 -2.0824 -6.65794 0
M  V30 7176 H 704.579 -0.876005 -6.39528 0
M  V30 7177 H 705.347 -2.37289 -7.83349 0
M  V30 7178 N 708.01 1.57248 0.105221 0
M  V30 7179 C 709.256 1.85845 0.811753 0
M  V30 7180 C 709.589 0.756219 1.78871 0
M  V30 7181 O 708.864 -0.236736 1.93054 0
M  V30 7182 C 709.147 3.25059 1.54947 0
M  V30 7183 C 709 4.45898 0.591185 0
M  V30 7184 C 710.319 3.6203 2.50245 0
M  V30 7185 H 707.438 0.675973 0.293649 0
M  V30 7186 H 710.08 1.89849 0.0756269 0
M  V30 7187 H 708.23 3.21776 2.17698 0
M  V30 7188 H 709.902 4.61291 -0.0285352 0
M  V30 7189 H 708.145 4.33693 -0.0962343 0
M  V30 7190 H 708.816 5.40009 1.1443 0
M  V30 7191 H 711.292 3.66192 1.97593 0
M  V30 7192 H 710.168 4.60389 2.98886 0
M  V30 7193 H 710.429 2.90176 3.33542 0
M  V30 7194 N 709.488 -0.375779 1.53054 0
M  V30 7195 C 710.451 -1.44254 1.7811 0
M  V30 7196 C 711.451 -1.47018 0.651328 0
M  V30 7197 O 712.641 -1.47957 0.919472 0
M  V30 7198 C 709.773 -2.8345 1.89391 0
M  V30 7199 H 710.966 -1.23316 2.73374 0
M  V30 7200 H 708.519 -0.608312 1.43977 0
M  V30 7201 H 709.254 -3.09716 0.961589 0
M  V30 7202 H 709.039 -2.82844 2.71555 0
M  V30 7203 H 710.529 -3.60722 2.10404 0
M  V30 7204 N 710.966 -1.44241 -0.634997 0
M  V30 7205 C 711.929 -1.50457 -1.72903 0
M  V30 7206 C 712.929 -0.387058 -1.56072 0
M  V30 7207 O 714.119 -0.649531 -1.61638 0
M  V30 7208 C 711.251 -1.37477 -3.1195 0
M  V30 7209 H 712.444 -2.47907 -1.68767 0
M  V30 7210 H 709.997 -1.31276 -0.84831 0
M  V30 7211 H 710.732 -0.41106 -3.21684 0
M  V30 7212 H 710.517 -2.18506 -3.25573 0
M  V30 7213 H 712.007 -1.44799 -3.91692 0
M  V30 7214 N 712.444 0.87505 -1.31075 0
M  V30 7215 C 713.407 1.96333 -1.18263 0
M  V30 7216 C 714.407 1.60416 -0.111106 0
M  V30 7217 O 715.597 1.7044 -0.359987 0
M  V30 7218 C 712.729 3.31036 -0.81414 0
M  V30 7219 H 713.922 2.09125 -2.14958 0
M  V30 7220 H 711.475 1.06271 -1.14614 0
M  V30 7221 H 712.21 3.23944 0.151875 0
M  V30 7222 H 711.995 3.58476 -1.58862 0
M  V30 7223 H 713.485 4.10842 -0.748249 0
M  V30 7224 N 713.922 1.13953 1.08869 0
M  V30 7225 C 715.338 0.878924 1.33218 0
M  V30 7226 C 715.538 -0.482478 1.95638 0
M  V30 7227 O 714.594 -1.22778 2.2064 0
M  V30 7228 C 715.907 2.00798 2.23832 0
M  V30 7229 C 717.455 2.04073 2.37325 0
M  V30 7230 C 717.93 3.16258 3.31278 0
M  V30 7231 N 719.421 3.15805 3.38853 0
M  V30 7232 C 720.156 3.99249 4.11567 0
M  V30 7233 N 719.652 4.92721 4.87029 0
M  V30 7234 N 721.445 3.87327 4.0735 0
M  V30 7235 H 713.596 2.01645 0.66731 0
M  V30 7236 H 715.859 0.878395 0.356547 0
M  V30 7237 H 715.565 2.98986 1.85203 0
M  V30 7238 H 715.439 1.92704 3.24261 0
M  V30 7239 H 717.826 1.06495 2.75214 0
M  V30 7240 H 717.907 2.16239 1.36654 0
M  V30 7241 H 717.551 4.14079 2.9411 0
M  V30 7242 H 717.481 3.0133 4.31866 0
M  V30 7243 H 719.972 2.48102 2.8505 0
M  V30 7244 H 720.285 5.52867 5.39961 0
M  V30 7245 H 718.63 4.96723 4.86098 0
M  V30 7246 H 721.821 3.13627 3.475 0
M  V30 7247 H 721.994 4.52585 4.63757 0
M  V30 7248 N 715.4 -1.26948 0.933913 0
M  V30 7249 C 716.648 -1.93704 0.576484 0
M  V30 7250 C 716.969 -1.73702 -0.886145 0
M  V30 7251 O 716.239 -1.08838 -1.62884 0
M  V30 7252 H 714.819 -0.716812 0.210214 0
M  V30 7253 H 717.481 -1.54534 1.18766 0
M  V30 7254 H 716.577 -3.01987 0.788055 0
M  V30 7255 N 716.879 -0.700114 -1.41195 0
M  V30 7256 C 717.811 0.00155823 -2.292 0
M  V30 7257 C 718.824 0.739736 -1.45023 0
M  V30 7258 O 720.013 0.589684 -1.68478 0
M  V30 7259 C 717.113 1.02635 -3.22985 0
M  V30 7260 C 716.286 0.356871 -4.35942 0
M  V30 7261 C 715.345 1.28491 -5.10271 0
M  V30 7262 O 714.371 0.775562 -5.63892 0
M  V30 7263 N 715.573 2.61699 -5.18164 0
M  V30 7264 H 718.338 -0.754008 -2.9006 0
M  V30 7265 H 715.899 -0.546504 -1.52397 0
M  V30 7266 H 717.891 1.64902 -3.6958 0
M  V30 7267 H 716.461 1.68341 -2.63401 0
M  V30 7268 H 715.681 -0.445753 -3.91672 0
M  V30 7269 H 716.969 -0.108469 -5.08684 0
M  V30 7270 H 716.367 3.05594 -4.76056 0
M  V30 7271 H 714.924 3.19149 -5.6832 0
M  V30 7272 N 718.357 1.51182 -0.445186 0
M  V30 7273 C 719.603 2.02452 0.11882 0
M  V30 7274 C 719.936 1.32824 1.41673 0
M  V30 7275 O 719.211 0.445637 1.89326 0
M  V30 7276 C 719.494 3.5859 0.329475 0
M  V30 7277 C 719.347 4.38823 -0.987638 0
M  V30 7278 C 720.666 4.26241 1.09575 0
M  V30 7279 H 717.785 0.735819 0.0417092 0
M  V30 7280 H 720.427 1.80747 -0.585718 0
M  V30 7281 H 718.577 3.77214 0.9296 0
M  V30 7282 H 720.249 4.3183 -1.62235 0
M  V30 7283 H 718.492 4.03594 -1.59041 0
M  V30 7284 H 719.163 5.46257 -0.794192 0
M  V30 7285 H 721.639 4.11934 0.587328 0
M  V30 7286 H 720.515 5.35354 1.21191 0
M  V30 7287 H 720.776 3.87635 2.12584 0
M  V30 7288 N 719.835 0.176821 1.56605 0
M  V30 7289 C 721.112 -0.513365 1.88743 0
M  V30 7290 C 721.492 -1.80929 1.08757 0
M  V30 7291 O 720.84 -2.27765 0.183127 0
M  V30 7292 C 721.05 -0.749925 3.40848 0
M  V30 7293 C 722.398 -1.07747 4.10701 0
M  V30 7294 O 723.422 -0.838277 3.46196 0
M  V30 7295 O 722.281 -1.52901 5.24675 0
M  V30 7296 H 719.375 -0.265296 0.783292 0
M  V30 7297 H 721.921 0.215669 1.68324 0
M  V30 7298 H 720.693 0.16599 3.90948 0
M  V30 7299 H 720.316 -1.53208 3.66897 0
M  V30 7300 N 721.313 -1.57302 -0.09688 0
M  V30 7301 C 722.59 -1.7701 -0.832272 0
M  V30 7302 C 722.97 -0.758025 -1.97021 0
M  V30 7303 O 722.318 0.213824 -2.27497 0
M  V30 7304 C 722.528 -3.22725 -1.32851 0
M  V30 7305 C 723.876 -3.85856 -1.772 0
M  V30 7306 O 724.9 -3.26464 -1.42478 0
M  V30 7307 O 723.759 -4.90295 -2.41398 0
M  V30 7308 H 720.853 -0.725558 -0.396856 0
M  V30 7309 H 723.399 -1.69516 -0.0789005 0
M  V30 7310 H 722.171 -3.87921 -0.51312 0
M  V30 7311 H 721.794 -3.34845 -2.14394 0
M  V30 7312 N 722.791 0.367657 -1.53252 0
M  V30 7313 C 724.037 1.11216 -1.69584 0
M  V30 7314 C 724.37 1.89026 -0.445269 0
M  V30 7315 O 723.645 1.86342 0.557404 0
M  V30 7316 C 723.928 2.07308 -2.94441 0
M  V30 7317 C 723.781 1.3312 -4.2965 0
M  V30 7318 C 725.1 3.07459 -3.14892 0
M  V30 7319 H 722.219 0.40294 -0.617096 0
M  V30 7320 H 724.861 0.393201 -1.85887 0
M  V30 7321 H 723.011 2.68617 -2.80673 0
M  V30 7322 H 724.683 0.746111 -4.55226 0
M  V30 7323 H 722.926 0.633051 -4.29156 0
M  V30 7324 H 723.597 2.03443 -5.13142 0
M  V30 7325 H 726.073 2.56252 -3.27832 0
M  V30 7326 H 724.949 3.71919 -4.03693 0
M  V30 7327 H 725.21 3.77514 -2.30077 0
M  V30 7328 N 724.269 1.44576 0.627338 0
M  V30 7329 C 725.518 1.46837 1.38281 0
M  V30 7330 C 725.831 0.10635 1.95311 0
M  V30 7331 O 727.037 0.00651084 2.71499 0
M  V30 7332 C 725.493 2.58527 2.50384 0
M  V30 7333 C 725.101 4.00953 1.99851 0
M  V30 7334 C 726.845 2.70013 3.27557 0
M  V30 7335 C 724.752 5.0406 3.09318 0
M  V30 7336 H 723.682 0.546319 0.519664 0
M  V30 7337 H 726.333 1.70654 0.674497 0
M  V30 7338 H 724.715 2.27957 3.23808 0
M  V30 7339 H 725.889 4.41108 1.33267 0
M  V30 7340 H 724.204 3.93743 1.35482 0
M  V30 7341 H 726.801 3.44217 4.09168 0
M  V30 7342 H 727.144 1.75961 3.77284 0
M  V30 7343 H 727.677 3.00011 2.61224 0
M  V30 7344 H 724.416 5.99753 2.6453 0
M  V30 7345 H 723.936 4.68493 3.74532 0
M  V30 7346 H 725.615 5.2793 3.74031 0
M  V30 7347 N 725.747 -0.868086 1.31537 0
M  V30 7348 C 727.024 -1.60384 1.11965 0
M  V30 7349 C 727.404 -2.08584 -0.324949 0
M  V30 7350 O 726.752 -1.86561 -1.31937 0
M  V30 7351 C 726.962 -2.76038 2.13551 0
M  V30 7352 C 728.31 -3.45954 2.46173 0
M  V30 7353 O 729.334 -2.86247 2.11993 0
M  V30 7354 O 728.193 -4.53666 3.04711 0
M  V30 7355 H 725.287 -0.705705 0.431172 0
M  V30 7356 H 727.833 -0.913385 1.43022 0
M  V30 7357 H 726.605 -2.37849 3.10714 0
M  V30 7358 H 726.228 -3.52769 1.83411 0
M  V30 7359 N 727.225 -1.14528 -1.08264 0
M  V30 7360 C 728.636 -0.925261 -1.6216 0
M  V30 7361 C 728.987 0.535587 -1.88748 0
M  V30 7362 O 728.112 1.4048 -1.64604 0
M  V30 7363 C 728.707 -1.67316 -2.94603 0
M  V30 7364 C 727.266 -1.49868 -3.45278 0
M  V30 7365 C 726.413 -1.69471 -2.19487 0
M  V30 7366 H 729.364 -1.29687 -0.914707 0
M  V30 7367 H 729.385 -1.13721 -3.63109 0
M  V30 7368 H 728.897 -2.73635 -2.75219 0
M  V30 7369 H 726.998 -0.459032 -3.69762 0
M  V30 7370 H 727.111 -2.2696 -4.21931 0
M  V30 7371 H 725.475 -1.12048 -2.2873 0
M  V30 7372 H 726.258 -2.77136 -2.0261 0
M  V30 7373 N 728.703 1.26451 -0.940633 0
M  V30 7374 C 729.666 2.24651 -0.454378 0
M  V30 7375 C 730.666 1.54826 0.434222 0
M  V30 7376 O 731.856 1.72628 0.233477 0
M  V30 7377 C 728.988 3.39148 0.345192 0
M  V30 7378 H 730.181 2.69182 -1.32217 0
M  V30 7379 H 727.734 1.38596 -0.722547 0
M  V30 7380 H 728.469 3.00018 1.23125 0
M  V30 7381 H 728.254 3.9101 -0.292107 0
M  V30 7382 H 729.744 4.12103 0.675341 0
M  V30 7383 N 730.181 0.707592 1.40822 0
M  V30 7384 C 731.458 0.171172 1.9485 0
M  V30 7385 C 731.838 -1.32143 1.64625 0
M  V30 7386 O 731.186 -2.07372 0.959647 0
M  V30 7387 C 731.396 0.475334 3.45748 0
M  V30 7388 C 732.744 0.409625 4.22619 0
M  V30 7389 O 733.768 0.410934 3.53822 0
M  V30 7390 O 732.627 0.380185 5.45176 0
M  V30 7391 H 729.721 0.022015 0.826707 0
M  V30 7392 H 732.267 0.784577 1.50474 0
M  V30 7393 H 731.039 1.50801 3.61075 0
M  V30 7394 H 730.662 -0.168439 3.97243 0
M  V30 7395 N 731.66 -1.50943 0.453197 0
M  V30 7396 C 732.888 -2.06628 -0.106135 0
M  V30 7397 C 733.303 -1.31901 -1.35084 0
M  V30 7398 O 732.66 -0.383074 -1.78434 0
M  V30 7399 C 732.711 -3.5914 -0.412368 0
M  V30 7400 O 732.432 -4.31047 0.782948 0
M  V30 7401 C 733.933 -4.31391 -1.02064 0
M  V30 7402 H 731.153 -0.670999 -0.000885896 0
M  V30 7403 H 733.697 -1.94331 0.63684 0
M  V30 7404 H 731.852 -3.71299 -1.10526 0
M  V30 7405 H 732.266 -5.21948 0.516736 0
M  V30 7406 H 733.74 -5.39135 -1.1848 0
M  V30 7407 H 734.217 -3.90714 -2.00598 0
M  V30 7408 H 734.823 -4.23716 -0.366664 0
M  V30 7409 N 733.138 -0.185124 -1.56509 0
M  V30 7410 C 734.554 0.170865 -1.58683 0
M  V30 7411 C 734.754 1.61799 -1.20098 0
M  V30 7412 O 733.81 2.35181 -0.919038 0
M  V30 7413 C 735.123 -0.122459 -3.00451 0
M  V30 7414 C 736.671 -0.0617699 -3.12939 0
M  V30 7415 C 737.146 -0.328269 -4.56822 0
M  V30 7416 N 738.637 -0.276533 -4.62374 0
M  V30 7417 C 739.372 -0.456722 -5.71578 0
M  V30 7418 N 738.868 -0.69672 -6.89288 0
M  V30 7419 N 740.661 -0.391669 -5.60734 0
M  V30 7420 H 732.812 -1.12956 -1.79874 0
M  V30 7421 H 735.075 -0.45011 -0.834329 0
M  V30 7422 H 734.781 -1.12546 -3.33206 0
M  V30 7423 H 734.655 0.579578 -3.72721 0
M  V30 7424 H 737.042 0.931826 -2.80002 0
M  V30 7425 H 737.123 -0.796732 -2.43076 0
M  V30 7426 H 736.767 -1.31914 -4.9047 0
M  V30 7427 H 736.697 0.427465 -5.24862 0
M  V30 7428 H 739.188 -0.0972458 -3.77775 0
M  V30 7429 H 739.501 -0.823291 -7.68402 0
M  V30 7430 H 737.846 -0.733497 -6.91119 0
M  V30 7431 H 741.037 -0.204663 -4.67652 0
M  V30 7432 H 741.21 -0.535518 -6.45783 0
M  V30 7433 N 734.616 1.57351 0.0885366 0
M  V30 7434 C 736.032 1.53331 0.442916 0
M  V30 7435 C 736.232 0.902831 1.80142 0
M  V30 7436 O 735.288 0.498147 2.47537 0
M  V30 7437 C 736.601 2.98036 0.399372 0
M  V30 7438 C 738.149 3.09286 0.480759 0
M  V30 7439 C 738.624 4.5561 0.467296 0
M  V30 7440 N 740.115 4.60182 0.52786 0
M  V30 7441 C 740.85 5.70857 0.539388 0
M  V30 7442 N 740.346 6.90944 0.506729 0
M  V30 7443 N 742.139 5.59051 0.584691 0
M  V30 7444 H 734.29 1.96709 -0.801215 0
M  V30 7445 H 736.553 0.899639 -0.298922 0
M  V30 7446 H 736.259 3.47656 -0.531806 0
M  V30 7447 H 736.133 3.57066 1.21589 0
M  V30 7448 H 738.52 2.5965 1.40236 0
M  V30 7449 H 738.601 2.53197 -0.364023 0
M  V30 7450 H 738.245 5.05899 -0.450384 0
M  V30 7451 H 738.175 5.09544 1.32938 0
M  V30 7452 H 740.666 3.73757 0.558028 0
M  V30 7453 H 740.979 7.71055 0.518989 0
M  V30 7454 H 739.324 6.93384 0.473675 0
M  V30 7455 H 742.515 4.64138 0.607781 0
M  V30 7456 H 742.688 6.45307 0.590206 0
M  V30 7457 N 736.094 -0.359525 1.53444 0
M  V30 7458 C 737.041 -1.44073 1.8031 0
M  V30 7459 C 738.011 -1.52946 0.647811 0
M  V30 7460 O 739.196 -1.68739 0.890614 0
M  V30 7461 C 736.336 -2.80941 2.00416 0
M  V30 7462 C 735.449 -2.80986 3.28132 0
M  V30 7463 C 734.584 -4.09468 3.38393 0
M  V30 7464 C 733.623 -4.03679 4.60119 0
M  V30 7465 N 732.76 -5.23821 4.675 0
M  V30 7466 H 737.6 -1.20464 2.72566 0
M  V30 7467 H 735.137 -0.583859 1.35017 0
M  V30 7468 H 737.095 -3.60459 2.1006 0
M  V30 7469 H 735.725 -3.02936 1.11489 0
M  V30 7470 H 734.777 -1.93666 3.27411 0
M  V30 7471 H 736.089 -2.72583 4.17732 0
M  V30 7472 H 735.243 -4.97404 3.47382 0
M  V30 7473 H 733.982 -4.20632 2.4682 0
M  V30 7474 H 732.987 -3.14129 4.51224 0
M  V30 7475 H 734.212 -3.94112 5.5304 0
M  V30 7476 H 732.158 -5.35559 3.7883 0
M  V30 7477 H 732.075 -5.17611 5.51013 0
M  V30 7478 H 733.343 -6.13572 4.8078 0
M  V30 7479 N 737.572 -1.44907 -0.619662 0
M  V30 7480 C 738.821 -1.47569 -1.37501 0
M  V30 7481 C 739.134 -0.116707 -1.95252 0
M  V30 7482 O 740.34 -0.020909 -2.71492 0
M  V30 7483 C 738.796 -2.59851 -2.49009 0
M  V30 7484 C 738.404 -4.02008 -1.97722 0
M  V30 7485 C 740.148 -2.71746 -3.2612 0
M  V30 7486 C 738.055 -5.05693 -3.0664 0
M  V30 7487 H 736.985 -0.549068 -0.51676 0
M  V30 7488 H 739.636 -1.71009 -0.665437 0
M  V30 7489 H 738.018 -2.29671 -3.22594 0
M  V30 7490 H 739.192 -4.41809 -1.30925 0
M  V30 7491 H 737.507 -3.94456 -1.33392 0
M  V30 7492 H 740.104 -3.46382 -4.07337 0
M  V30 7493 H 740.447 -1.77959 -3.76346 0
M  V30 7494 H 740.98 -3.01392 -2.5963 0
M  V30 7495 H 737.719 -6.01148 -2.61345 0
M  V30 7496 H 737.239 -4.70473 -3.72042 0
M  V30 7497 H 738.918 -5.29906 -3.71226 0
M  V30 7498 N 739.05 0.861098 -1.31996 0
M  V30 7499 C 740.013 1.95068 -1.20338 0
M  V30 7500 C 741.013 1.60289 -0.128114 0
M  V30 7501 O 742.203 1.70048 -0.378044 0
M  V30 7502 C 739.335 3.30153 -0.849205 0
M  V30 7503 H 740.528 2.06833 -2.17164 0
M  V30 7504 H 738.081 1.05049 -1.15734 0
M  V30 7505 H 738.816 3.24087 0.117508 0
M  V30 7506 H 738.601 3.56771 -1.62655 0
M  V30 7507 H 740.091 4.10025 -0.791782 0
M  V30 7508 N 740.528 1.15101 1.07655 0
M  V30 7509 C 741.753 0.948177 1.84457 0
M  V30 7510 C 742.178 -0.498432 1.81376 0
M  V30 7511 O 741.536 -1.35509 1.20445 0
M  V30 7512 C 741.584 1.46318 3.29581 0
M  V30 7513 O 740.688 0.660342 4.07079 0
M  V30 7514 H 740.029 0.338428 0.571281 0
M  V30 7515 H 742.559 1.5301 1.35828 0
M  V30 7516 H 742.569 1.47468 3.80417 0
M  V30 7517 H 741.244 2.51635 3.31138 0
M  V30 7518 H 739.821 0.718216 3.65918 0
M  V30 7519 N 742.006 -1.2595 0.947325 0
M  V30 7520 C 742.969 -2.24407 0.466285 0
M  V30 7521 C 743.969 -1.55054 -0.426005 0
M  V30 7522 O 745.159 -1.7275 -0.224319 0
M  V30 7523 C 742.291 -3.39326 -0.327201 0
M  V30 7524 H 743.484 -2.68477 1.33642 0
M  V30 7525 H 741.037 -1.38211 0.729887 0
M  V30 7526 H 741.772 -3.00667 -1.21532 0
M  V30 7527 H 741.557 -3.9085 0.312839 0
M  V30 7528 H 743.047 -4.12455 -0.653477 0
M  V30 7529 N 743.484 -0.715051 -1.40445 0
M  V30 7530 C 744.414 -0.0768699 -2.33373 0
M  V30 7531 C 745.395 0.746109 -1.52863 0
M  V30 7532 O 746.58 0.695142 -1.81332 0
M  V30 7533 C 743.71 0.846014 -3.36838 0
M  V30 7534 C 742.664 0.128694 -4.27806 0
M  V30 7535 C 741.99 1.16726 -5.21804 0
M  V30 7536 C 743.29 -1.01679 -5.12307 0
M  V30 7537 H 744.984 -0.853061 -2.8699 0
M  V30 7538 H 742.53 -0.41167 -1.3799 0
M  V30 7539 H 744.483 1.30185 -4.00786 0
M  V30 7540 H 743.207 1.6541 -2.81615 0
M  V30 7541 H 741.866 -0.307314 -3.6531 0
M  V30 7542 H 741.514 1.96838 -4.62887 0
M  V30 7543 H 741.214 0.692188 -5.83509 0
M  V30 7544 H 742.738 1.62321 -5.88629 0
M  V30 7545 H 744.152 -0.640337 -5.69713 0
M  V30 7546 H 742.549 -1.4202 -5.83053 0
M  V30 7547 H 743.619 -1.84769 -4.48317 0
M  V30 7548 N 744.962 1.50701 -0.461195 0
M  V30 7549 C 745.872 2.32069 0.343661 0
M  V30 7550 C 746.888 1.42016 1.00535 0
M  V30 7551 O 748.064 1.75077 0.995498 0
M  V30 7552 C 745.129 3.16424 1.41692 0
M  V30 7553 C 744.19 4.22286 0.772869 0
M  V30 7554 C 743.423 5.02609 1.79499 0
M  V30 7555 O 743.646 4.83874 3.0203 0
M  V30 7556 O 742.58 5.86047 1.3723 0
M  V30 7557 H 746.406 3.01996 -0.321268 0
M  V30 7558 H 743.991 1.47723 -0.223235 0
M  V30 7559 H 745.873 3.68795 2.03883 0
M  V30 7560 H 744.548 2.49236 2.0655 0
M  V30 7561 H 743.455 3.73931 0.112277 0
M  V30 7562 H 744.788 4.91915 0.167399 0
M  V30 7563 N 746.441 0.193421 1.56409 0
M  V30 7564 C 747.374 -0.767384 2.1491 0
M  V30 7565 C 748.352 -1.21075 1.08534 0
M  V30 7566 O 749.536 -1.29856 1.36637 0
M  V30 7567 C 746.663 -2.03615 2.70663 0
M  V30 7568 C 745.709 -1.73505 3.89613 0
M  V30 7569 S 746.542 -0.884645 5.28142 0
M  V30 7570 C 747.698 -2.1636 5.87315 0
M  V30 7571 H 747.931 -0.270053 2.96071 0
M  V30 7572 H 745.464 -0.0215546 1.54385 0
M  V30 7573 H 747.422 -2.7648 3.03429 0
M  V30 7574 H 746.083 -2.50461 1.89547 0
M  V30 7575 H 745.276 -2.67701 4.27027 0
M  V30 7576 H 744.878 -1.08723 3.57848 0
M  V30 7577 H 747.17 -3.11629 6.01576 0
M  V30 7578 H 748.113 -1.8338 6.83943 0
M  V30 7579 H 748.521 -2.29129 5.15907 0
M  V30 7580 N 747.919 -1.57396 -0.0801906 0
M  V30 7581 C 749.149 -1.90778 -0.792924 0
M  V30 7582 C 749.557 -0.786814 -1.72064 0
M  V30 7583 O 748.9 0.249259 -1.82001 0
M  V30 7584 C 748.962 -3.19552 -1.64702 0
M  V30 7585 C 748.626 -4.48259 -0.889567 0
M  V30 7586 C 749.623 -5.19465 -0.212602 0
M  V30 7587 C 747.308 -4.94896 -0.859229 0
M  V30 7588 C 749.302 -6.35555 0.484566 0
M  V30 7589 C 746.989 -6.10895 -0.158284 0
M  V30 7590 C 747.987 -6.81075 0.512421 0
M  V30 7591 O 747.675 -7.94862 1.20209 0
M  V30 7592 H 747.407 -0.63527 -0.231103 0
M  V30 7593 H 749.961 -2.0532 -0.0573081 0
M  V30 7594 H 748.191 -3.01196 -2.42524 0
M  V30 7595 H 749.88 -3.38649 -2.23767 0
M  V30 7596 H 750.646 -4.84467 -0.227403 0
M  V30 7597 H 746.525 -4.4015 -1.37073 0
M  V30 7598 H 750.069 -6.9027 1.00864 0
M  V30 7599 H 745.966 -6.45345 -0.141381 0
M  V30 7600 H 746.734 -8.10932 1.11051 0
M  V30 7601 N 749.397 0.351382 -1.53633 0
M  V30 7602 C 750.36 1.41403 -1.80383 0
M  V30 7603 C 751.36 1.45963 -0.674635 0
M  V30 7604 O 752.55 1.46476 -0.942895 0
M  V30 7605 C 749.682 2.80401 -1.93876 0
M  V30 7606 H 750.875 1.18951 -2.75301 0
M  V30 7607 H 748.428 0.58533 -1.44926 0
M  V30 7608 H 749.163 3.08147 -1.01074 0
M  V30 7609 H 748.948 2.78488 -2.7602 0
M  V30 7610 H 750.438 3.57329 -2.16116 0
M  V30 7611 N 750.875 1.45233 0.611969 0
M  V30 7612 C 752.103 1.52539 1.39784 0
M  V30 7613 C 752.518 0.156533 1.8815 0
M  V30 7614 O 751.875 -0.84112 1.61961 0
M  V30 7615 C 751.926 2.50614 2.60528 0
M  V30 7616 O 751.647 3.8218 2.14173 0
M  V30 7617 C 753.148 2.67574 3.53439 0
M  V30 7618 H 750.368 0.51674 0.428043 0
M  V30 7619 H 752.912 1.90379 0.746727 0
M  V30 7620 H 751.067 2.15858 3.2169 0
M  V30 7621 H 751.481 4.35305 2.92592 0
M  V30 7622 H 752.955 3.40184 4.34717 0
M  V30 7623 H 753.432 1.73458 4.03496 0
M  V30 7624 H 754.038 3.0331 2.98133 0
M  V30 7625 N 752.353 -0.854086 1.3245 0
M  V30 7626 C 753.3 -1.96271 1.21434 0
M  V30 7627 C 754.27 -1.6582 0.0963851 0
M  V30 7628 O 755.455 -1.88851 0.27203 0
M  V30 7629 C 752.595 -3.31939 0.943952 0
M  V30 7630 C 751.708 -3.74885 2.14675 0
M  V30 7631 C 750.843 -4.99347 1.81179 0
M  V30 7632 C 749.882 -5.34785 2.97777 0
M  V30 7633 N 749.019 -6.50425 2.6437 0
M  V30 7634 H 753.859 -2.05025 2.16261 0
M  V30 7635 H 751.396 -1.00348 1.07558 0
M  V30 7636 H 753.354 -4.10076 0.767675 0
M  V30 7637 H 751.984 -3.22784 0.0324763 0
M  V30 7638 H 751.036 -2.92396 2.43328 0
M  V30 7639 H 752.348 -3.97068 3.01891 0
M  V30 7640 H 751.502 -5.85193 1.60107 0
M  V30 7641 H 750.241 -4.79101 0.911777 0
M  V30 7642 H 749.246 -4.47451 3.1948 0
M  V30 7643 H 750.471 -5.56988 3.88511 0
M  V30 7644 H 748.417 -6.31695 1.7691 0
M  V30 7645 H 748.334 -6.7263 3.45116 0
M  V30 7646 H 749.602 -7.39422 2.46729 0
M  V30 7647 N 753.831 -1.1567 -1.07043 0
M  V30 7648 C 755.247 -0.900006 -1.31803 0
M  V30 7649 C 755.447 0.451293 -1.96381 0
M  V30 7650 O 754.503 1.19252 -2.22565 0
M  V30 7651 C 755.816 -2.04334 -2.20609 0
M  V30 7652 C 757.364 -2.07823 -2.34048 0
M  V30 7653 C 757.839 -3.21488 -3.26204 0
M  V30 7654 N 759.33 -3.21156 -3.33786 0
M  V30 7655 C 760.065 -4.05746 -4.05163 0
M  V30 7656 N 759.561 -5.00407 -4.79129 0
M  V30 7657 N 761.354 -3.93759 -4.01136 0
M  V30 7658 H 753.505 -2.02681 -0.635146 0
M  V30 7659 H 755.768 -0.883956 -0.342528 0
M  V30 7660 H 755.474 -3.01895 -1.80423 0
M  V30 7661 H 755.348 -1.97838 -3.21154 0
M  V30 7662 H 757.735 -1.1086 -2.73485 0
M  V30 7663 H 757.816 -2.18386 -1.33197 0
M  V30 7664 H 757.46 -4.18706 -2.87485 0
M  V30 7665 H 757.39 -3.08162 -4.27017 0
M  V30 7666 H 759.881 -2.52606 -2.81067 0
M  V30 7667 H 760.194 -5.61387 -5.31097 0
M  V30 7668 H 758.539 -5.04393 -4.78135 0
M  V30 7669 H 761.73 -3.19115 -3.42466 0
M  V30 7670 H 761.903 -4.59906 -4.56498 0
M  V30 7671 N 755.309 1.25446 -0.953992 0
M  V30 7672 C 756.241 2.25111 -0.431004 0
M  V30 7673 C 757.254 1.56377 0.452764 0
M  V30 7674 O 758.443 1.76579 0.261144 0
M  V30 7675 C 755.543 3.3655 0.39839 0
M  V30 7676 C 754.716 4.34843 -0.472229 0
M  V30 7677 C 753.775 5.25351 0.29886 0
M  V30 7678 O 752.801 5.68396 -0.302522 0
M  V30 7679 N 754.003 5.5824 1.59211 0
M  V30 7680 H 756.768 2.70619 -1.28785 0
M  V30 7681 H 754.329 1.39346 -0.824281 0
M  V30 7682 H 756.321 3.94059 0.921941 0
M  V30 7683 H 754.891 2.90436 1.15609 0
M  V30 7684 H 754.111 3.76222 -1.17689 0
M  V30 7685 H 755.399 4.97497 -1.06648 0
M  V30 7686 H 754.797 5.25172 2.10264 0
M  V30 7687 H 753.354 6.18336 2.06164 0
M  V30 7688 N 756.787 0.722489 1.40064 0
M  V30 7689 C 758.015 0.274838 2.05066 0
M  V30 7690 C 758.43 -1.08586 1.54449 0
M  V30 7691 O 757.787 -1.68375 0.704003 0
M  V30 7692 C 757.838 0.253673 3.60609 0
M  V30 7693 O 757.559 1.56064 4.0936 0
M  V30 7694 C 759.06 -0.211684 4.42794 0
M  V30 7695 H 756.28 0.12226 0.659768 0
M  V30 7696 H 758.824 0.982632 1.79345 0
M  V30 7697 H 756.979 -0.405137 3.85276 0
M  V30 7698 H 757.393 1.46576 5.03603 0
M  V30 7699 H 758.867 -0.175341 5.51721 0
M  V30 7700 H 759.344 -1.25493 4.2089 0
M  V30 7701 H 759.95 0.4171 4.2325 0
M  V30 7702 N 758.265 -1.50454 0.469181 0
M  V30 7703 C 759.681 -1.59124 0.123226 0
M  V30 7704 C 759.881 -1.47749 -1.37013 0
M  V30 7705 O 758.937 -1.335 -2.14322 0
M  V30 7706 C 760.25 -2.93101 0.67172 0
M  V30 7707 C 761.798 -3.06491 0.634978 0
M  V30 7708 C 762.273 -4.43041 1.16098 0
M  V30 7709 N 763.764 -4.49448 1.12031 0
M  V30 7710 C 764.499 -5.53491 1.49784 0
M  V30 7711 N 763.995 -6.64798 1.94976 0
M  V30 7712 N 765.788 -5.44025 1.41399 0
M  V30 7713 H 757.939 -1.56091 1.44046 0
M  V30 7714 H 760.202 -0.737564 0.59557 0
M  V30 7715 H 759.908 -3.06895 1.7178 0
M  V30 7716 H 759.782 -3.77027 0.114222 0
M  V30 7717 H 762.169 -2.92346 -0.402187 0
M  V30 7718 H 762.25 -2.24328 1.22926 0
M  V30 7719 H 761.894 -4.57935 2.19677 0
M  V30 7720 H 761.824 -5.23794 0.542939 0
M  V30 7721 H 764.315 -3.69575 0.788828 0
M  V30 7722 H 764.628 -7.40246 2.21936 0
M  V30 7723 H 762.973 -6.65923 1.98927 0
M  V30 7724 H 766.164 -4.55955 1.05935 0
M  V30 7725 H 766.337 -6.2499 1.71147 0
M  V30 7726 N 759.743 -0.201713 -1.56304 0
M  V30 7727 C 761.154 0.309711 -1.84113 0
M  V30 7728 C 761.505 1.60912 -1.12258 0
M  V30 7729 O 760.63 2.12937 -0.385587 0
M  V30 7730 C 761.225 0.568706 -3.33993 0
M  V30 7731 C 759.784 1.02448 -3.6219 0
M  V30 7732 C 758.931 0.0766842 -2.77194 0
M  V30 7733 H 761.882 -0.425356 -1.52893 0
M  V30 7734 H 761.903 1.41721 -3.53122 0
M  V30 7735 H 761.415 -0.37719 -3.86263 0
M  V30 7736 H 759.516 1.98443 -3.15359 0
M  V30 7737 H 759.629 0.912619 -4.70328 0
M  V30 7738 H 757.993 0.579809 -2.48013 0
M  V30 7739 H 758.776 -0.863774 -3.32256 0
M  V30 7740 N 761.222 1.57436 0.0718424 0
M  V30 7741 C 762.185 2.02703 1.06977 0
M  V30 7742 C 763.185 0.924062 1.31597 0
M  V30 7743 O 764.375 1.18894 1.27318 0
M  V30 7744 C 761.507 2.40763 2.41342 0
M  V30 7745 H 762.7 2.92098 0.679619 0
M  V30 7746 H 760.253 1.5304 0.317565 0
M  V30 7747 H 760.988 1.54394 2.8519 0
M  V30 7748 H 760.773 3.21249 2.24814 0
M  V30 7749 H 762.263 2.76361 3.13073 0
M  V30 7750 N 762.7 -0.34323 1.53817 0
M  V30 7751 C 763.647 -1.42153 1.81827 0
M  V30 7752 C 764.617 -1.52251 0.663996 0
M  V30 7753 O 765.802 -1.67784 0.908461 0
M  V30 7754 C 762.942 -2.78799 2.03384 0
M  V30 7755 C 762.055 -2.7749 3.31094 0
M  V30 7756 C 761.19 -4.05856 3.42717 0
M  V30 7757 C 760.229 -3.98776 4.64375 0
M  V30 7758 N 759.366 -5.18833 4.73029 0
M  V30 7759 H 764.206 -1.17567 2.73829 0
M  V30 7760 H 761.743 -0.569506 1.35628 0
M  V30 7761 H 763.701 -3.58211 2.13872 0
M  V30 7762 H 762.331 -3.01736 1.14696 0
M  V30 7763 H 761.383 -1.90182 3.29446 0
M  V30 7764 H 762.695 -2.68137 4.206 0
M  V30 7765 H 761.849 -4.93691 3.52638 0
M  V30 7766 H 760.588 -4.1799 2.51267 0
M  V30 7767 H 759.593 -3.09325 4.5453 0
M  V30 7768 H 760.818 -3.88224 5.57189 0
M  V30 7769 H 758.764 -5.31511 3.84489 0
M  V30 7770 H 758.681 -5.11737 5.56472 0
M  V30 7771 H 759.949 -6.08439 4.87261 0
M  V30 7772 N 764.178 -1.45556 -0.604258 0
M  V30 7773 C 765.125 -1.54482 -1.71476 0
M  V30 7774 C 766.095 -0.390479 -1.61445 0
M  V30 7775 O 767.28 -0.604371 -1.80975 0
M  V30 7776 C 764.42 -1.52064 -3.09791 0
M  V30 7777 C 763.533 -2.78073 -3.30604 0
M  V30 7778 C 762.668 -2.67304 -4.59044 0
M  V30 7779 C 761.707 -3.88352 -4.73127 0
M  V30 7780 N 760.844 -3.76098 -5.9287 0
M  V30 7781 H 765.684 -2.49349 -1.63184 0
M  V30 7782 H 763.221 -1.23725 -0.795641 0
M  V30 7783 H 765.179 -1.48649 -3.89819 0
M  V30 7784 H 763.809 -0.607442 -3.17033 0
M  V30 7785 H 762.861 -2.91561 -2.44329 0
M  V30 7786 H 764.173 -3.67847 -3.36883 0
M  V30 7787 H 763.327 -2.61875 -5.47272 0
M  V30 7788 H 762.066 -1.75135 -4.55169 0
M  V30 7789 H 761.071 -3.94137 -3.83322 0
M  V30 7790 H 762.296 -4.81591 -4.78797 0
M  V30 7791 H 760.242 -2.867 -5.90033 0
M  V30 7792 H 760.159 -4.59509 -6.00323 0
M  V30 7793 H 761.427 -3.74607 -6.83586 0
M  V30 7794 N 765.656 0.84705 -1.32902 0
M  V30 7795 C 767.067 1.41785 -1.21466 0
M  V30 7796 C 767.418 1.95464 0.169767 0
M  V30 7797 O 766.543 1.88157 1.06892 0
M  V30 7798 C 767.138 2.57734 -2.19906 0
M  V30 7799 C 765.697 3.10791 -2.12334 0
M  V30 7800 C 764.844 1.83562 -2.07847 0
M  V30 7801 H 767.795 0.653532 -1.44619 0
M  V30 7802 H 767.816 3.35123 -1.80202 0
M  V30 7803 H 767.328 2.18635 -3.20656 0
M  V30 7804 H 765.429 3.54455 -1.14858 0
M  V30 7805 H 765.542 3.71519 -3.02506 0
M  V30 7806 H 763.906 2.03475 -1.53199 0
M  V30 7807 H 764.689 1.4667 -3.10392 0
M  V30 7808 N 767.134 1.16236 1.06428 0
M  V30 7809 C 768.38 0.954417 1.79617 0
M  V30 7810 C 768.735 -0.512411 1.85451 0
M  V30 7811 O 768.028 -1.37523 1.33409 0
M  V30 7812 C 768.222 1.51396 3.2375 0
M  V30 7813 C 768.051 3.03367 3.31962 0
M  V30 7814 C 766.821 3.71996 3.41975 0
M  V30 7815 C 769.019 4.01075 3.21937 0
M  V30 7816 N 767.001 5.11688 3.39187 0
M  V30 7817 C 768.372 5.27142 3.26376 0
M  V30 7818 C 770.427 3.92917 3.05812 0
M  V30 7819 C 769.13 6.46 3.16348 0
M  V30 7820 C 771.156 5.11344 2.97121 0
M  V30 7821 C 770.518 6.36291 3.02181 0
M  V30 7822 H 766.617 0.403007 0.670156 0
M  V30 7823 H 769.201 1.47605 1.26968 0
M  V30 7824 H 767.372 1.01883 3.74799 0
M  V30 7825 H 769.104 1.2439 3.85109 0
M  V30 7826 H 765.859 3.22623 3.46715 0
M  V30 7827 H 766.283 5.84676 3.41297 0
M  V30 7828 H 770.925 2.97172 3.00746 0
M  V30 7829 H 768.643 7.41968 3.2017 0
M  V30 7830 H 772.229 5.06801 2.85734 0
M  V30 7831 H 771.109 7.26389 2.95513 0
M  V30 7832 N 768.612 -1.24939 0.960631 0
M  V30 7833 C 769.559 -2.25658 0.484459 0
M  V30 7834 C 770.529 -1.59422 -0.466242 0
M  V30 7835 O 771.714 -1.87015 -0.378169 0
M  V30 7836 C 768.854 -3.44359 -0.225958 0
M  V30 7837 C 767.967 -4.25214 0.762682 0
M  V30 7838 C 767.102 -5.31192 0.0290931 0
M  V30 7839 C 766.141 -6.03739 1.00827 0
M  V30 7840 N 765.278 -7.01437 0.305155 0
M  V30 7841 H 770.118 -2.65758 1.34821 0
M  V30 7842 H 767.655 -1.30648 0.675983 0
M  V30 7843 H 769.613 -4.12035 -0.654472 0
M  V30 7844 H 768.243 -3.05118 -1.05371 0
M  V30 7845 H 767.295 -3.57144 1.30966 0
M  V30 7846 H 768.607 -4.75406 1.50964 0
M  V30 7847 H 767.761 -6.04971 -0.457763 0
M  V30 7848 H 766.5 -4.81889 -0.750614 0
M  V30 7849 H 765.505 -5.2877 1.50607 0
M  V30 7850 H 766.73 -6.55131 1.7883 0
M  V30 7851 H 764.676 -6.54415 -0.455704 0
M  V30 7852 H 764.593 -7.49475 0.991104 0
M  V30 7853 H 765.861 -7.79336 -0.159966 0
M  V30 7854 N 770.09 -0.729906 -1.39679 0
M  V30 7855 C 771.02 -0.101618 -2.33279 0
M  V30 7856 C 772.001 0.729854 -1.53646 0
M  V30 7857 O 773.186 0.67587 -1.82059 0
M  V30 7858 C 770.316 0.81024 -3.37716 0
M  V30 7859 C 769.27 0.0833126 -4.27919 0
M  V30 7860 C 768.596 1.11185 -5.23012 0
M  V30 7861 C 769.896 -1.07107 -5.112 0
M  V30 7862 H 771.59 -0.883452 -2.86069 0
M  V30 7863 H 769.136 -0.426283 -1.37546 0
M  V30 7864 H 771.089 1.25927 -4.02145 0
M  V30 7865 H 769.813 1.62413 -2.83354 0
M  V30 7866 H 768.472 -0.346043 -3.64963 0
M  V30 7867 H 768.12 1.91917 -4.64948 0
M  V30 7868 H 767.82 0.63026 -5.8421 0
M  V30 7869 H 769.344 1.56068 -5.90318 0
M  V30 7870 H 770.758 -0.700726 -5.69002 0
M  V30 7871 H 769.155 -1.48196 -5.81514 0
M  V30 7872 H 770.225 -1.89513 -4.46332 0
M  V30 7873 N 771.568 1.50203 -0.477153 0
M  V30 7874 C 772.979 1.86685 -0.0235041 0
M  V30 7875 C 773.33 1.39148 1.38319 0
M  V30 7876 O 772.455 0.759051 2.02651 0
M  V30 7877 C 773.05 3.38781 -0.0358767 0
M  V30 7878 C 771.609 3.74652 0.362327 0
M  V30 7879 C 770.756 2.7412 -0.41875 0
M  V30 7880 H 773.707 1.4286 -0.691133 0
M  V30 7881 H 773.728 3.72732 0.764924 0
M  V30 7882 H 773.24 3.73349 -1.05981 0
M  V30 7883 H 771.341 3.45686 1.39039 0
M  V30 7884 H 771.454 4.79063 0.059457 0
M  V30 7885 H 769.818 2.54376 0.128341 0
M  V30 7886 H 770.601 3.11532 -1.44231 0
M  V30 7887 N 773.046 0.209999 1.56195 0
M  V30 7888 C 773.976 -0.699746 2.22769 0
M  V30 7889 C 774.957 -1.20993 1.1956 0
M  V30 7890 O 776.142 -1.25605 1.48112 0
M  V30 7891 C 773.272 -1.91302 2.89863 0
M  V30 7892 C 772.226 -1.53715 3.99444 0
M  V30 7893 C 771.552 -2.82826 4.53777 0
M  V30 7894 C 772.852 -0.735836 5.17091 0
M  V30 7895 H 774.546 -0.144716 2.9905 0
M  V30 7896 H 772.092 -0.0681645 1.43839 0
M  V30 7897 H 774.045 -2.5548 3.35124 0
M  V30 7898 H 772.769 -2.49283 2.11011 0
M  V30 7899 H 771.428 -0.918892 3.54897 0
M  V30 7900 H 771.076 -3.38927 3.71669 0
M  V30 7901 H 770.776 -2.58415 5.27727 0
M  V30 7902 H 772.3 -3.47966 5.01749 0
M  V30 7903 H 773.714 -1.28105 5.58804 0
M  V30 7904 H 772.111 -0.589272 5.972 0
M  V30 7905 H 773.181 0.260004 4.84202 0
M  V30 7906 N 774.524 -1.57472 -0.0634922 0
M  V30 7907 C 775.454 -2.07297 -1.07473 0
M  V30 7908 C 776.435 -0.968162 -1.39859 0
M  V30 7909 O 777.62 -1.24139 -1.49343 0
M  V30 7910 C 774.75 -2.52381 -2.38581 0
M  V30 7911 C 773.704 -3.66813 -2.20526 0
M  V30 7912 C 773.03 -3.97982 -3.57092 0
M  V30 7913 C 774.33 -4.96553 -1.61965 0
M  V30 7914 H 776.024 -2.92033 -0.660092 0
M  V30 7915 H 773.57 -1.40488 -0.316074 0
M  V30 7916 H 775.523 -2.85852 -3.09624 0
M  V30 7917 H 774.247 -1.64684 -2.8204 0
M  V30 7918 H 772.906 -3.33639 -1.51924 0
M  V30 7919 H 772.554 -3.07403 -3.98136 0
M  V30 7920 H 772.254 -4.7504 -3.45848 0
M  V30 7921 H 773.778 -4.33956 -4.29552 0
M  V30 7922 H 775.192 -5.28201 -2.22883 0
M  V30 7923 H 773.589 -5.7799 -1.61394 0
M  V30 7924 H 774.659 -4.81396 -0.581918 0
M  V30 7925 N 776.003 0.335068 -1.53997 0
M  V30 7926 C 777.228 1.09859 -1.75914 0
M  V30 7927 C 777.653 1.81308 -0.500915 0
M  V30 7928 O 777.011 1.72854 0.54693 0
M  V30 7929 C 777.059 2.08122 -2.94478 0
M  V30 7930 O 776.163 3.15805 -2.65219 0
M  V30 7931 H 775.504 0.317313 -0.583274 0
M  V30 7932 H 778.034 0.382872 -2.00986 0
M  V30 7933 H 778.044 2.51195 -3.21504 0
M  V30 7934 H 776.719 1.55517 -3.8573 0
M  V30 7935 H 775.296 2.77489 -2.49107 0
M  V30 7936 N 777.481 1.45874 0.596531 0
M  V30 7937 C 778.391 1.57947 1.73464 0
M  V30 7938 C 779.407 0.463461 1.67714 0
M  V30 7939 O 780.583 0.725685 1.87872 0
M  V30 7940 C 777.648 1.55348 3.09948 0
M  V30 7941 C 776.709 2.78074 3.27068 0
M  V30 7942 C 775.942 2.75589 4.57041 0
M  V30 7943 O 776.165 1.83545 5.40063 0
M  V30 7944 O 775.099 3.66945 4.77111 0
M  V30 7945 H 778.925 2.54169 1.66228 0
M  V30 7946 H 776.51 1.2851 0.76194 0
M  V30 7947 H 778.392 1.56545 3.91244 0
M  V30 7948 H 777.067 0.622811 3.17652 0
M  V30 7949 H 775.974 2.82435 2.45319 0
M  V30 7950 H 777.307 3.70303 3.24248 0
M  V30 7951 N 778.959 -0.83999 1.33349 0
M  V30 7952 C 779.869 -1.98182 1.25543 0
M  V30 7953 C 780.885 -1.73204 0.166208 0
M  V30 7954 O 782.061 -1.97596 0.389589 0
M  V30 7955 C 779.126 -3.32157 0.993614 0
M  V30 7956 C 778.187 -3.70258 2.17273 0
M  V30 7957 C 777.42 -4.9784 1.92331 0
M  V30 7958 O 777.643 -5.63679 0.873074 0
M  V30 7959 O 776.577 -5.33418 2.78835 0
M  V30 7960 H 780.403 -2.07708 2.21565 0
M  V30 7961 H 777.988 -0.972852 1.13384 0
M  V30 7962 H 779.87 -4.12433 0.864711 0
M  V30 7963 H 778.545 -3.23637 0.0636596 0
M  V30 7964 H 777.452 -2.90497 2.35716 0
M  V30 7965 H 778.785 -3.83442 3.08598 0
M  V30 7966 N 780.437 -1.16799 -1.0581 0
M  V30 7967 C 781.347 -0.893492 -2.16919 0
M  V30 7968 C 782.363 0.136061 -1.73467 0
M  V30 7969 O 783.539 -0.0417348 -2.01357 0
M  V30 7970 C 780.604 -0.403763 -3.44341 0
M  V30 7971 C 779.665 -1.49914 -4.02274 0
M  V30 7972 C 778.898 -1.03269 -5.23614 0
M  V30 7973 O 779.121 0.115647 -5.70283 0
M  V30 7974 O 778.055 -1.8231 -5.73626 0
M  V30 7975 H 781.881 -1.82274 -2.42919 0
M  V30 7976 H 779.466 -0.948361 -1.1544 0
M  V30 7977 H 781.348 -0.137874 -4.21174 0
M  V30 7978 H 780.023 0.497413 -3.19855 0
M  V30 7979 H 778.93 -1.81883 -3.26909 0
M  V30 7980 H 780.263 -2.3758 -4.31064 0
M  V30 7981 N 781.915 1.24427 -0.967243 0
M  V30 7982 C 783.164 1.91789 -0.624478 0
M  V30 7983 C 783.477 1.76448 0.844129 0
M  V30 7984 O 784.683 2.38495 1.2974 0
M  V30 7985 C 783.139 3.43743 -1.06626 0
M  V30 7986 C 782.747 3.67771 -2.55829 0
M  V30 7987 C 784.491 4.16958 -0.79662 0
M  V30 7988 C 782.398 5.13293 -2.93742 0
M  V30 7989 H 781.328 0.71811 -0.229856 0
M  V30 7990 H 783.979 1.41081 -1.17339 0
M  V30 7991 H 782.361 3.93484 -0.445663 0
M  V30 7992 H 783.535 3.28631 -3.23015 0
M  V30 7993 H 781.85 3.07841 -2.80398 0
M  V30 7994 H 784.447 5.24171 -1.05589 0
M  V30 7995 H 784.79 4.15442 0.267163 0
M  V30 7996 H 785.323 3.73164 -1.37816 0
M  V30 7997 H 782.062 5.19931 -3.9919 0
M  V30 7998 H 781.582 5.53433 -2.3124 0
M  V30 7999 H 783.261 5.81521 -2.83623 0
M  V30 8000 N 783.393 0.737304 1.3929 0
M  V30 8001 C 784.326 0.0475454 2.2815 0
M  V30 8002 C 785.304 -0.745314 1.44512 0
M  V30 8003 O 786.488 -0.727387 1.739 0
M  V30 8004 C 783.615 -0.939803 3.254 0
M  V30 8005 C 782.661 -0.235153 4.25851 0
M  V30 8006 S 783.494 1.05252 5.25055 0
M  V30 8007 C 784.65 0.0678242 6.25863 0
M  V30 8008 H 784.883 0.801117 2.86303 0
M  V30 8009 H 782.416 0.529197 1.45048 0
M  V30 8010 H 784.374 -1.50417 3.81949 0
M  V30 8011 H 783.035 -1.66623 2.66262 0
M  V30 8012 H 782.228 -0.982336 4.94334 0
M  V30 8013 H 781.83 0.257245 3.73114 0
M  V30 8014 H 784.122 -0.771779 6.7309 0
M  V30 8015 H 785.065 0.719858 7.04431 0
M  V30 8016 H 785.473 -0.305604 5.63672 0
M  V30 8017 N 784.871 -1.49948 0.485112 0
M  V30 8018 C 785.834 -2.27351 -0.290546 0
M  V30 8019 C 786.834 -1.32704 -0.908087 0
M  V30 8020 O 788.024 -1.56007 -0.775085 0
M  V30 8021 C 785.156 -3.10135 -1.41524 0
M  V30 8022 H 786.349 -2.97374 0.388454 0
M  V30 8023 H 783.902 -1.54453 0.239586 0
M  V30 8024 H 784.637 -2.44641 -2.12888 0
M  V30 8025 H 784.422 -3.79705 -0.978074 0
M  V30 8026 H 785.912 -3.68638 -1.96204 0
M  V30 8027 N 786.349 -0.21828 -1.56081 0
M  V30 8028 C 787.626 0.463143 -1.90038 0
M  V30 8029 C 788.006 1.77982 -1.13515 0
M  V30 8030 O 787.354 2.27199 -0.24345 0
M  V30 8031 C 787.564 0.659292 -3.42716 0
M  V30 8032 C 788.912 0.968203 -4.13414 0
M  V30 8033 O 789.936 0.746195 -3.48296 0
M  V30 8034 O 788.795 1.38936 -5.28544 0
M  V30 8035 H 785.889 0.244435 -0.790051 0
M  V30 8036 H 788.435 -0.260221 -1.67693 0
M  V30 8037 H 787.207 -0.269584 -3.9037 0
M  V30 8038 H 786.83 1.43426 -3.7083 0
M  V30 8039 N 787.827 1.57504 0.0551401 0
M  V30 8040 C 788.737 2.08198 1.08124 0
M  V30 8041 C 789.753 1.01496 1.41331 0
M  V30 8042 O 790.929 1.33073 1.51174 0
M  V30 8043 C 787.994 2.52968 2.37083 0
M  V30 8044 C 787.055 3.7404 2.10696 0
M  V30 8045 C 786.288 4.16665 3.33505 0
M  V30 8046 O 786.511 3.59019 4.4324 0
M  V30 8047 O 785.445 5.09324 3.20737 0
M  V30 8048 H 789.271 2.95977 0.680518 0
M  V30 8049 H 786.856 1.46933 0.270401 0
M  V30 8050 H 788.738 2.82211 3.12946 0
M  V30 8051 H 787.413 1.6831 2.76502 0
M  V30 8052 H 786.32 3.49855 1.32484 0
M  V30 8053 H 787.653 4.59601 1.76148 0
M  V30 8054 N 789.305 -0.326896 1.54172 0
M  V30 8055 C 790.215 -1.42525 1.86343 0
M  V30 8056 C 791.231 -1.56764 0.75505 0
M  V30 8057 O 792.407 -1.71924 1.04901 0
M  V30 8058 C 789.472 -2.77286 2.08119 0
M  V30 8059 C 788.533 -2.7225 3.31931 0
M  V30 8060 C 787.766 -4.00584 3.52659 0
M  V30 8061 O 787.989 -4.98686 2.76891 0
M  V30 8062 O 786.923 -4.04045 4.46129 0
M  V30 8063 H 790.749 -1.18249 2.79734 0
M  V30 8064 H 788.334 -0.520614 1.40036 0
M  V30 8065 H 790.216 -3.57065 2.23791 0
M  V30 8066 H 788.891 -3.01459 1.17917 0
M  V30 8067 H 787.798 -1.91033 3.21647 0
M  V30 8068 H 789.131 -2.53032 4.2218 0
M  V30 8069 N 790.784 -1.46188 -0.588786 0
M  V30 8070 C 791.694 -1.58865 -1.72624 0
M  V30 8071 C 792.71 -0.472348 -1.67466 0
M  V30 8072 O 793.886 -0.735638 -1.87484 0
M  V30 8073 C 790.951 -1.56989 -3.0912 0
M  V30 8074 C 790.012 -2.79804 -3.25589 0
M  V30 8075 C 789.245 -2.78009 -4.55573 0
M  V30 8076 O 789.468 -1.86406 -5.39082 0
M  V30 8077 O 788.402 -3.6947 -4.75159 0
M  V30 8078 H 792.228 -2.55047 -1.64878 0
M  V30 8079 H 789.813 -1.28912 -0.755115 0
M  V30 8080 H 791.695 -1.58618 -3.90408 0
M  V30 8081 H 790.37 -0.639648 -3.17317 0
M  V30 8082 H 789.277 -2.83732 -2.43818 0
M  V30 8083 H 790.61 -3.72017 -3.22279 0
M  V30 8084 N 792.262 0.832906 -1.33792 0
M  V30 8085 C 793.209 1.94314 -1.24541 0
M  V30 8086 C 794.179 1.65646 -0.122753 0
M  V30 8087 O 795.364 1.88394 -0.30204 0
M  V30 8088 C 792.504 3.30395 -0.996641 0
M  V30 8089 C 791.617 3.71422 -2.20612 0
M  V30 8090 C 790.752 4.96401 -1.89101 0
M  V30 8091 C 789.791 5.2998 -3.06247 0
M  V30 8092 N 788.928 6.46137 -2.74685 0
M  V30 8093 H 793.768 2.01559 -2.19495 0
M  V30 8094 H 791.305 0.986243 -1.09141 0
M  V30 8095 H 793.263 4.08803 -0.832817 0
M  V30 8096 H 791.893 3.22691 -0.0838242 0
M  V30 8097 H 790.945 2.88488 -2.47949 0
M  V30 8098 H 792.257 3.92215 -3.0817 0
M  V30 8099 H 791.411 5.82572 -1.69396 0
M  V30 8100 H 790.15 4.7759 -0.987882 0
M  V30 8101 H 789.155 4.42312 -3.26559 0
M  V30 8102 H 790.38 5.50737 -3.97323 0
M  V30 8103 H 788.326 6.28801 -1.86938 0
M  V30 8104 H 788.243 6.67054 -3.55774 0
M  V30 8105 H 789.511 7.35403 -2.58461 0
M  V30 8106 N 793.74 1.17359 1.05189 0
M  V30 8107 C 795.017 0.871914 1.75091 0
M  V30 8108 C 795.397 -0.627821 2.01548 0
M  V30 8109 O 794.745 -1.5791 1.65156 0
M  V30 8110 C 794.955 1.70687 3.04413 0
M  V30 8111 C 796.303 1.92684 3.78362 0
M  V30 8112 O 797.327 1.67645 3.14282 0
M  V30 8113 O 796.186 2.34765 4.93505 0
M  V30 8114 H 793.28 0.322831 0.761386 0
M  V30 8115 H 795.826 1.28054 1.11357 0
M  V30 8116 H 794.598 2.72405 2.80911 0
M  V30 8117 H 794.221 1.29602 3.75884 0
M  V30 8118 N 795.218 -1.23913 0.973828 0
M  V30 8119 C 796.148 -2.27453 0.527969 0
M  V30 8120 C 797.129 -1.6443 -0.435513 0
M  V30 8121 O 798.314 -1.9137 -0.330306 0
M  V30 8122 C 795.444 -3.4685 -0.176757 0
M  V30 8123 C 794.398 -4.22181 0.703352 0
M  V30 8124 C 793.724 -5.34534 -0.133215 0
M  V30 8125 C 795.024 -4.82865 1.99096 0
M  V30 8126 H 796.718 -2.65 1.3934 0
M  V30 8127 H 794.264 -1.27388 0.671446 0
M  V30 8128 H 796.217 -4.18424 -0.499934 0
M  V30 8129 H 794.941 -3.08346 -1.07659 0
M  V30 8130 H 793.6 -3.52416 1.00989 0
M  V30 8131 H 793.248 -4.92271 -1.03338 0
M  V30 8132 H 792.948 -5.85855 0.452494 0
M  V30 8133 H 794.472 -6.08933 -0.450924 0
M  V30 8134 H 795.886 -5.46481 1.73297 0
M  V30 8135 H 794.283 -5.44444 2.52389 0
M  V30 8136 H 795.353 -4.03977 2.68199 0
M  V30 8137 N 796.696 -0.74468 -1.38897 0
M  V30 8138 C 797.629 -0.0596441 -2.28122 0
M  V30 8139 C 798.607 0.73764 -1.44906 0
M  V30 8140 O 799.791 0.718155 -1.74284 0
M  V30 8141 C 796.918 0.922533 -3.25894 0
M  V30 8142 C 795.964 0.212566 -4.2597 0
M  V30 8143 S 796.797 -1.08035 -5.24489 0
M  V30 8144 C 797.953 -0.101014 -6.25818 0
M  V30 8145 H 798.186 -0.816289 -2.85874 0
M  V30 8146 H 795.719 -0.536882 -1.44765 0
M  V30 8147 H 797.677 1.4839 -3.82741 0
M  V30 8148 H 796.338 1.65209 -2.67142 0
M  V30 8149 H 795.531 0.956106 -4.94848 0
M  V30 8150 H 795.133 -0.277029 -3.72973 0
M  V30 8151 H 797.425 0.736072 -6.7349 0
M  V30 8152 H 798.368 -0.757206 -7.0404 0
M  V30 8153 H 798.776 0.275706 -5.63826 0
M  V30 8154 N 798.174 1.49689 -0.493057 0
M  V30 8155 C 799.423 2.01622 0.0560733 0
M  V30 8156 C 799.736 1.37838 1.3878 0
M  V30 8157 O 800.942 1.81054 2.02316 0
M  V30 8158 C 799.398 3.59586 0.150409 0
M  V30 8159 C 799.006 4.32338 -1.1742 0
M  V30 8160 C 800.75 4.19489 0.650327 0
M  V30 8161 C 798.657 5.8214 -1.04246 0
M  V30 8162 H 797.587 0.753594 0.0247297 0
M  V30 8163 H 800.238 1.723 -0.631279 0
M  V30 8164 H 798.62 3.8559 0.902035 0
M  V30 8165 H 799.794 4.18042 -1.9385 0
M  V30 8166 H 798.109 3.84144 -1.60694 0
M  V30 8167 H 800.706 5.29181 0.766272 0
M  V30 8168 H 801.049 3.82326 1.6472 0
M  V30 8169 H 801.582 3.97775 -0.0445371 0
M  V30 8170 H 798.321 6.23814 -2.01336 0
M  V30 8171 H 797.841 5.98952 -0.31892 0
M  V30 8172 H 799.52 6.43004 -0.717957 0
M  V30 8173 N 799.652 0.226554 1.55963 0
M  V30 8174 C 800.615 -0.668015 2.19249 0
M  V30 8175 C 801.615 -1.11794 1.1558 0
M  V30 8176 O 802.805 -1.02593 1.40784 0
M  V30 8177 C 799.937 -1.91571 2.81981 0
M  V30 8178 H 801.13 -0.116175 2.99675 0
M  V30 8179 H 798.683 -0.0230497 1.56283 0
M  V30 8180 H 799.418 -2.50929 2.05439 0
M  V30 8181 H 799.203 -1.6015 3.57903 0
M  V30 8182 H 800.693 -2.55294 3.30477 0
M  V30 8183 N 801.13 -1.57531 -0.0467866 0
M  V30 8184 C 802.358 -1.92696 -0.753371 0
M  V30 8185 C 802.773 -0.824792 -1.69831 0
M  V30 8186 O 802.13 0.200155 -1.81399 0
M  V30 8187 C 802.181 -3.27728 -1.52566 0
M  V30 8188 O 801.902 -4.3371 -0.618674 0
M  V30 8189 C 803.403 -3.77066 -2.33101 0
M  V30 8190 H 800.623 -0.636367 -0.212788 0
M  V30 8191 H 803.167 -2.04498 -0.00959361 0
M  V30 8192 H 801.322 -3.17378 -2.22148 0
M  V30 8193 H 801.736 -5.11548 -1.15839 0
M  V30 8194 H 803.21 -4.74109 -2.82709 0
M  V30 8195 H 803.687 -3.07348 -3.13741 0
M  V30 8196 H 804.293 -3.90442 -1.68628 0
M  V30 8197 N 802.608 0.318715 -1.54344 0
M  V30 8198 C 803.538 1.39751 -1.87061 0
M  V30 8199 C 804.519 1.53741 -0.727848 0
M  V30 8200 O 805.704 1.67541 -0.982016 0
M  V30 8201 C 802.834 2.76446 -2.10226 0
M  V30 8202 C 801.788 2.77239 -3.26071 0
M  V30 8203 C 801.114 4.17056 -3.34617 0
M  V30 8204 C 802.414 2.40555 -4.63606 0
M  V30 8205 H 804.108 1.12619 -2.77412 0
M  V30 8206 H 801.654 0.540318 -1.33479 0
M  V30 8207 H 803.607 3.51985 -2.31699 0
M  V30 8208 H 802.331 3.05066 -1.16629 0
M  V30 8209 H 800.99 2.04155 -3.04493 0
M  V30 8210 H 800.638 4.42824 -2.3857 0
M  V30 8211 H 800.338 4.18492 -4.12478 0
M  V30 8212 H 801.862 4.94401 -3.5833 0
M  V30 8213 H 803.276 3.05808 -4.84927 0
M  V30 8214 H 801.673 2.53234 -5.44052 0
M  V30 8215 H 802.743 1.35698 -4.65526 0
M  V30 8216 N 804.086 1.46499 0.581025 0
M  V30 8217 C 805.034 1.57562 1.71105 0
M  V30 8218 C 806.028 0.44403 1.63477 0
M  V30 8219 O 807.234 0.620964 1.6895 0
M  V30 8220 H 803.609 0.495415 0.565746 0
M  V30 8221 H 805.58 2.5257 1.58905 0
M  V30 8222 C 804.329 1.58465 3.0949 0
M  V30 8223 H 803.652 2.44877 3.16031 0
M  V30 8224 H 805.092 1.70261 3.88313 0
M  V30 8225 C 803.551 0.313596 3.35437 0
M  V30 8226 O 804.081 -0.595456 3.97262 0
M  V30 8227 N 802.287 0.200986 2.89904 0
M  V30 8228 H 801.834 0.941643 2.39773 0
M  V30 8229 H 801.792 -0.648577 3.07638 0
M  V30 8230 N 805.565 -0.825799 1.34232 0
M  V30 8231 C 806.512 -1.93651 1.2557 0
M  V30 8232 C 807.482 -1.65578 0.131536 0
M  V30 8233 O 808.667 -1.88231 0.312027 0
M  V30 8234 C 805.807 -3.29862 1.01415 0
M  V30 8235 C 804.92 -3.70247 2.22579 0
M  V30 8236 C 804.055 -4.95392 1.91731 0
M  V30 8237 C 803.094 -5.28349 3.09053 0
M  V30 8238 N 802.231 -6.44671 2.78107 0
M  V30 8239 H 807.071 -2.00392 2.20561 0
M  V30 8240 H 804.608 -0.980441 1.09662 0
M  V30 8241 H 806.566 -4.08356 0.854485 0
M  V30 8242 H 805.196 -3.22642 0.100936 0
M  V30 8243 H 804.248 -2.87169 2.49476 0
M  V30 8244 H 805.56 -3.90575 3.10246 0
M  V30 8245 H 804.714 -5.81665 1.72484 0
M  V30 8246 H 803.453 -4.77059 1.0132 0
M  V30 8247 H 802.458 -4.40574 3.289 0
M  V30 8248 H 803.683 -5.48622 4.00239 0
M  V30 8249 H 801.629 -6.278 1.9027 0
M  V30 8250 H 801.546 -6.65158 3.59306 0
M  V30 8251 H 802.814 -7.34022 2.62358 0
M  V30 8252 N 807.043 -1.17915 -1.04565 0
M  V30 8253 C 808.459 -0.927761 -1.29864 0
M  V30 8254 C 808.659 0.409536 -1.97294 0
M  V30 8255 O 807.715 1.14505 -2.25044 0
M  V30 8256 C 809.028 -2.08967 -2.16225 0
M  V30 8257 C 810.576 -2.12741 -2.29587 0
M  V30 8258 C 811.051 -3.28335 -3.19312 0
M  V30 8259 N 812.542 -3.28164 -3.26898 0
M  V30 8260 C 813.277 -4.14249 -3.96466 0
M  V30 8261 N 812.773 -5.10457 -4.68407 0
M  V30 8262 N 814.566 -4.02179 -3.92694 0
M  V30 8263 H 806.717 -2.03983 -0.592011 0
M  V30 8264 H 808.98 -0.891023 -0.323701 0
M  V30 8265 H 808.686 -3.05654 -1.73979 0
M  V30 8266 H 808.56 -2.04606 -3.16885 0
M  V30 8267 H 810.947 -1.16636 -2.71072 0
M  V30 8268 H 811.028 -2.21162 -1.28535 0
M  V30 8269 H 810.672 -4.2471 -2.78539 0
M  V30 8270 H 810.602 -3.17151 -4.20384 0
M  V30 8271 H 813.093 -2.58511 -2.75646 0
M  V30 8272 H 813.406 -5.72526 -5.1907 0
M  V30 8273 H 811.751 -5.14422 -4.67328 0
M  V30 8274 H 814.942 -3.26308 -3.3562 0
M  V30 8275 H 815.115 -4.69486 -4.4664 0
M  V30 8276 N 808.521 1.23394 -0.980386 0
M  V30 8277 C 809.767 1.92094 -0.650223 0
M  V30 8278 C 810.1 1.76309 0.814173 0
M  V30 8279 O 809.375 1.12406 1.5873 0
M  V30 8280 C 809.658 3.44713 -1.04139 0
M  V30 8281 C 809.511 3.69606 -2.56342 0
M  V30 8282 C 810.83 4.36191 -0.585296 0
M  V30 8283 H 807.949 0.697618 -0.237695 0
M  V30 8284 H 810.591 1.45517 -1.22167 0
M  V30 8285 H 808.741 3.84513 -0.55515 0
M  V30 8286 H 810.413 3.39288 -3.1254 0
M  V30 8287 H 808.656 3.14318 -2.98976 0
M  V30 8288 H 809.327 4.76441 -2.78762 0
M  V30 8289 H 811.803 4.03836 -1.00276 0
M  V30 8290 H 810.679 5.41679 -0.887428 0
M  V30 8291 H 810.94 4.39097 0.51438 0
M  V30 8292 N 809.999 0.752036 1.385 0
M  V30 8293 C 810.962 0.131587 2.28822 0
M  V30 8294 C 811.962 -0.649149 1.47115 0
M  V30 8295 O 813.152 -0.475645 1.67581 0
M  V30 8296 C 810.284 -0.822101 3.30839 0
M  V30 8297 H 811.477 0.927551 2.85196 0
M  V30 8298 H 809.03 0.518945 1.47434 0
M  V30 8299 H 809.765 -1.6438 2.79553 0
M  V30 8300 H 809.55 -0.264689 3.91206 0
M  V30 8301 H 811.04 -1.25226 3.98382 0
M  V30 8302 N 811.477 -1.49425 0.500989 0
M  V30 8303 C 812.702 -2.07356 -0.0425154 0
M  V30 8304 C 813.127 -1.35887 -1.30063 0
M  V30 8305 O 812.485 -0.41561 -1.76472 0
M  V30 8306 C 812.533 -3.59518 -0.279188 0
M  V30 8307 O 811.637 -3.89542 -1.3539 0
M  V30 8308 H 810.978 -0.663482 0.0262207 0
M  V30 8309 H 813.508 -1.92231 0.700607 0
M  V30 8310 H 813.518 -4.04791 -0.5107 0
M  V30 8311 H 812.193 -4.10946 0.640009 0
M  V30 8312 H 810.77 -3.56079 -1.10734 0
M  V30 8313 N 812.955 -0.234822 -1.55841 0
M  V30 8314 C 813.885 0.664217 -2.23854 0
M  V30 8315 C 814.866 1.19076 -1.2147 0
M  V30 8316 O 816.051 1.23232 -1.50091 0
M  V30 8317 C 813.181 1.86666 -2.9287 0
M  V30 8318 C 812.135 1.47341 -4.01839 0
M  V30 8319 C 811.461 2.75571 -4.58219 0
M  V30 8320 C 812.761 0.653479 -5.18196 0
M  V30 8321 H 814.455 0.0971213 -2.99242 0
M  V30 8322 H 812.001 0.0452724 -1.43929 0
M  V30 8323 H 813.954 2.50116 -3.39146 0
M  V30 8324 H 812.678 2.45894 -2.1495 0
M  V30 8325 H 811.337 0.862314 -3.56314 0
M  V30 8326 H 810.985 3.32971 -3.77014 0
M  V30 8327 H 810.685 2.49987 -5.31771 0
M  V30 8328 H 812.209 3.39939 -5.07221 0
M  V30 8329 H 813.623 1.19198 -5.60771 0
M  V30 8330 H 812.02 0.494188 -5.98062 0
M  V30 8331 H 813.09 -0.337004 -4.83728 0
M  V30 8332 N 814.433 1.57553 0.0384317 0
M  V30 8333 C 815.343 2.09333 1.0591 0
M  V30 8334 C 816.359 1.0299 1.40247 0
M  V30 8335 O 817.535 1.34669 1.49754 0
M  V30 8336 C 814.6 2.55468 2.34386 0
M  V30 8337 C 813.661 3.76254 2.06716 0
M  V30 8338 C 812.894 4.20179 3.29067 0
M  V30 8339 O 813.117 3.637 4.39407 0
M  V30 8340 O 812.051 5.12697 3.15317 0
M  V30 8341 H 815.877 2.96683 0.649087 0
M  V30 8342 H 813.462 1.47211 0.254802 0
M  V30 8343 H 815.344 2.85514 3.09935 0
M  V30 8344 H 814.019 1.71234 2.74701 0
M  V30 8345 H 812.926 3.51241 1.28766 0
M  V30 8346 H 814.259 4.61443 1.71263 0
M  V30 8347 N 815.911 -0.310526 1.54511 0
M  V30 8348 C 817.136 -1.07046 1.7764 0
M  V30 8349 C 817.561 -1.80488 0.529696 0
M  V30 8350 O 816.919 -1.73702 -0.519361 0
M  V30 8351 C 816.967 -2.03411 2.97752 0
M  V30 8352 O 816.071 -3.11545 2.7021 0
M  V30 8353 H 815.412 -0.307994 0.588248 0
M  V30 8354 H 817.942 -0.350848 2.01569 0
M  V30 8355 H 817.952 -2.46048 3.2546 0
M  V30 8356 H 816.627 -1.49361 3.88155 0
M  V30 8357 H 815.204 -2.7349 2.53491 0
M  V30 8358 N 817.389 -1.46805 -0.573248 0
M  V30 8359 C 818.299 -1.60687 -1.70929 0
M  V30 8360 C 819.315 -0.490084 -1.66956 0
M  V30 8361 O 820.491 -0.755482 -1.86693 0
M  V30 8362 C 817.556 -1.60259 -3.07438 0
M  V30 8363 C 816.617 -2.83242 -3.22603 0
M  V30 8364 C 815.85 -2.82825 -4.52599 0
M  V30 8365 O 816.073 -1.92113 -5.37074 0
M  V30 8366 O 815.007 -3.74489 -4.71213 0
M  V30 8367 H 818.833 -2.56782 -1.62163 0
M  V30 8368 H 816.418 -1.29706 -0.741399 0
M  V30 8369 H 818.3 -1.6275 -3.88704 0
M  V30 8370 H 816.975 -0.673268 -3.16621 0
M  V30 8371 H 815.882 -2.86302 -2.40794 0
M  V30 8372 H 817.215 -3.75415 -3.18315 0
M  V30 8373 N 818.867 0.818669 -1.34668 0
M  V30 8374 C 819.797 1.94468 -1.29245 0
M  V30 8375 C 820.778 1.69257 -0.169101 0
M  V30 8376 O 821.963 1.90794 -0.362143 0
M  V30 8377 C 819.093 3.31001 -1.05145 0
M  V30 8378 C 818.047 3.70663 -2.13992 0
M  V30 8379 C 817.373 5.05226 -1.75074 0
M  V30 8380 C 818.673 3.82312 -3.55858 0
M  V30 8381 H 820.367 1.99263 -2.2346 0
M  V30 8382 H 817.913 0.957304 -1.07572 0
M  V30 8383 H 819.866 4.09364 -0.999949 0
M  V30 8384 H 818.59 3.26517 -0.0737312 0
M  V30 8385 H 817.249 2.94578 -2.18219 0
M  V30 8386 H 816.897 4.97233 -0.759518 0
M  V30 8387 H 816.597 5.32734 -2.47928 0
M  V30 8388 H 818.121 5.86042 -1.71427 0
M  V30 8389 H 819.535 4.50935 -3.5402 0
M  V30 8390 H 817.932 4.21278 -4.2737 0
M  V30 8391 H 819.002 2.84193 -3.9289 0
M  V30 8392 N 820.346 1.18468 1.03938 0
M  V30 8393 C 821.594 0.978895 1.76811 0
M  V30 8394 C 821.915 -0.49257 1.88676 0
M  V30 8395 O 821.185 -1.3572 1.41269 0
M  V30 8396 H 819.765 0.359201 0.654968 0
M  V30 8397 H 822.427 1.49173 1.25433 0
M  V30 8398 H 821.523 1.418 2.78027 0
M  V30 8399 N 821.824 -1.22873 0.986916 0
M  V30 8400 C 823.049 -1.96028 0.677341 0
M  V30 8401 C 823.474 -1.72487 -0.750319 0
M  V30 8402 O 822.832 -1.00036 -1.51203 0
M  V30 8403 C 822.88 -3.46983 0.981593 0
M  V30 8404 O 821.984 -4.12328 0.0770729 0
M  V30 8405 H 821.325 -0.613458 0.254096 0
M  V30 8406 H 823.855 -1.56132 1.32227 0
M  V30 8407 H 823.865 -3.9747 0.920969 0
M  V30 8408 H 822.54 -3.63442 2.02194 0
M  V30 8409 H 821.117 -3.72402 0.192666 0
M  V30 8410 N 823.302 -0.75937 -1.38099 0
M  V30 8411 C 824.232 -0.151077 -2.33011 0
M  V30 8412 C 825.213 0.697099 -1.5516 0
M  V30 8413 O 826.398 0.637101 -1.83452 0
M  V30 8414 C 823.528 0.738423 -3.39359 0
M  V30 8415 C 822.482 -0.0074741 -4.27999 0
M  V30 8416 C 821.808 1.00066 -5.25253 0
M  V30 8417 C 823.108 -1.17926 -5.08813 0
M  V30 8418 H 824.802 -0.943933 -2.84131 0
M  V30 8419 H 822.348 -0.455362 -1.36611 0
M  V30 8420 H 824.301 1.17369 -4.04725 0
M  V30 8421 H 823.025 1.56366 -2.86735 0
M  V30 8422 H 821.684 -0.423379 -3.64147 0
M  V30 8423 H 821.332 1.82012 -4.68914 0
M  V30 8424 H 821.032 0.506199 -5.85416 0
M  V30 8425 H 822.556 1.43512 -5.93495 0
M  V30 8426 H 823.97 -0.821262 -5.67387 0
M  V30 8427 H 822.367 -1.60497 -5.78239 0
M  V30 8428 H 823.437 -1.98938 -4.42212 0
M  V30 8429 N 824.78 1.49157 -0.508906 0
M  V30 8430 C 825.712 2.272 0.302115 0
M  V30 8431 C 826.725 1.3407 0.923529 0
M  V30 8432 O 827.914 1.5929 0.805532 0
M  V30 8433 C 825.014 3.06736 1.44105 0
M  V30 8434 C 824.187 4.27497 0.925477 0
M  V30 8435 C 823.246 4.89014 1.94297 0
M  V30 8436 O 822.272 5.48851 1.50834 0
M  V30 8437 N 823.474 4.7937 3.2739 0
M  V30 8438 H 826.239 2.97443 -0.367115 0
M  V30 8439 H 823.8 1.58248 -0.341933 0
M  V30 8440 H 825.792 3.44763 2.11944 0
M  V30 8441 H 824.362 2.3905 2.0143 0
M  V30 8442 H 823.582 3.94135 0.0717301 0
M  V30 8443 H 824.87 5.05714 0.55955 0
M  V30 8444 H 824.268 4.31869 3.65384 0
M  V30 8445 H 822.825 5.21559 3.90922 0
M  V30 8446 N 826.258 0.243083 1.55714 0
M  V30 8447 C 827.483 -0.389944 2.03701 0
M  V30 8448 C 827.908 -1.51025 1.12129 0
M  V30 8449 O 827.266 -1.80944 0.11352 0
M  V30 8450 C 827.314 -0.878649 3.49731 0
M  V30 8451 O 826.418 -1.98851 3.61292 0
M  V30 8452 H 825.759 -0.0855115 0.658471 0
M  V30 8453 H 828.289 0.368023 2.01263 0
M  V30 8454 H 828.299 -1.18287 3.90477 0
M  V30 8455 H 826.974 -0.0588107 4.15858 0
M  V30 8456 H 825.551 -1.68928 3.32442 0
M  V30 8457 N 827.736 -1.57571 -0.0300757 0
M  V30 8458 C 829.013 -1.80381 -0.756447 0
M  V30 8459 C 829.393 -0.840906 -1.93628 0
M  V30 8460 O 828.741 0.117143 -2.282 0
M  V30 8461 C 828.951 -3.2807 -1.19043 0
M  V30 8462 C 830.299 -3.93025 -1.60676 0
M  V30 8463 O 831.323 -3.32213 -1.28503 0
M  V30 8464 O 830.182 -5.00092 -2.20386 0
M  V30 8465 H 827.276 -0.741737 -0.365725 0
M  V30 8466 H 829.822 -1.69699 -0.00693177 0
M  V30 8467 H 828.594 -3.89748 -0.348128 0
M  V30 8468 H 828.217 -3.43637 -1.99999 0
M  V30 8469 N 829.214 0.302327 -1.54673 0
M  V30 8470 C 830.442 1.05669 -1.77881 0
M  V30 8471 C 830.857 1.80983 -0.537648 0
M  V30 8472 O 830.214 1.7573 0.492467 0
M  V30 8473 C 830.265 2.03828 -2.98557 0
M  V30 8474 O 829.986 1.3157 -4.17877 0
M  V30 8475 C 831.487 2.91314 -3.34143 0
M  V30 8476 H 828.707 0.313436 -0.593295 0
M  V30 8477 H 831.251 0.342003 -2.0162 0
M  V30 8478 H 829.406 2.70801 -2.7703 0
M  V30 8479 H 829.82 1.97481 -4.85903 0
M  V30 8480 H 831.294 3.56042 -4.21827 0
M  V30 8481 H 831.771 3.59544 -2.52239 0
M  V30 8482 H 832.377 2.29874 -3.57824 0
M  V30 8483 N 830.692 1.47107 0.565454 0
M  V30 8484 C 831.624 1.55024 1.6882 0
M  V30 8485 C 832.637 0.4371 1.56822 0
M  V30 8486 O 833.826 0.706315 1.63931 0
M  V30 8487 C 830.926 1.43069 3.0722 0
M  V30 8488 C 830.099 2.68807 3.45053 0
M  V30 8489 C 829.158 2.50806 4.62583 0
M  V30 8490 O 828.184 3.24593 4.67577 0
M  V30 8491 N 829.386 1.58093 5.58558 0
M  V30 8492 H 832.151 2.51836 1.62477 0
M  V30 8493 H 829.712 1.43382 0.751885 0
M  V30 8494 H 831.704 1.28773 3.83666 0
M  V30 8495 H 830.274 0.543721 3.07835 0
M  V30 8496 H 829.494 2.97923 2.58138 0
M  V30 8497 H 830.782 3.52298 3.67101 0
M  V30 8498 H 830.18 0.972807 5.57273 0
M  V30 8499 H 828.737 1.49753 6.34364 0
M  V30 8500 N 832.17 -0.811516 1.35101 0
M  V30 8501 C 833.418 -1.56525 1.27845 0
M  V30 8502 C 833.739 -1.94435 -0.14829 0
M  V30 8503 O 833.009 -1.63203 -1.08359 0
M  V30 8504 H 831.589 -0.580433 0.47022 0
M  V30 8505 H 834.251 -0.968277 1.69146 0
M  V30 8506 H 833.347 -2.48291 1.89097 0
M  V30 8507 N 833.648 -1.19017 -1.03309 0
M  V30 8508 C 834.894 -0.991681 -1.769 0
M  V30 8509 C 835.227 0.476813 -1.88255 0
M  V30 8510 O 834.502 1.35407 -1.39625 0
M  V30 8511 C 834.785 -1.65627 -3.19749 0
M  V30 8512 C 834.638 -3.19813 -3.1629 0
M  V30 8513 C 835.957 -1.37579 -4.18043 0
M  V30 8514 H 833.076 -0.361674 -0.642153 0
M  V30 8515 H 835.718 -1.46795 -1.20628 0
M  V30 8516 H 833.868 -1.25132 -3.67796 0
M  V30 8517 H 835.54 -3.69494 -2.76174 0
M  V30 8518 H 833.783 -3.51578 -2.54117 0
M  V30 8519 H 834.454 -3.61457 -4.17196 0
M  V30 8520 H 836.93 -1.72679 -3.78578 0
M  V30 8521 H 835.806 -1.86636 -5.16196 0
M  V30 8522 H 836.067 -0.300118 -4.4108 0
M  V30 8523 N 835.127 1.22348 -0.993418 0
M  V30 8524 C 836.355 1.95125 -0.688021 0
M  V30 8525 C 836.77 1.73377 0.747388 0
M  V30 8526 O 836.127 1.03317 1.50439 0
M  V30 8527 C 836.178 3.47819 -0.985097 0
M  V30 8528 O 835.899 3.68838 -2.3641 0
M  V30 8529 C 837.4 4.37779 -0.697474 0
M  V30 8530 H 834.62 0.62087 -0.254481 0
M  V30 8531 H 837.164 1.55485 -1.32833 0
M  V30 8532 H 835.319 3.85426 -0.390583 0
M  V30 8533 H 835.733 4.63032 -2.46377 0
M  V30 8534 H 837.207 5.43666 -0.955604 0
M  V30 8535 H 837.684 4.37651 0.368524 0
M  V30 8536 H 838.29 4.05799 -1.27306 0
M  V30 8537 N 836.605 0.766683 1.37694 0
M  V30 8538 C 837.515 0.150158 2.34119 0
M  V30 8539 C 838.531 -0.685513 1.59927 0
M  V30 8540 O 839.707 -0.606616 1.92047 0
M  V30 8541 C 836.772 -0.722562 3.39087 0
M  V30 8542 C 835.833 0.128983 4.29106 0
M  V30 8543 C 835.066 -0.702178 5.29061 0
M  V30 8544 O 835.289 -1.93954 5.36412 0
M  V30 8545 O 834.223 -0.114056 6.01792 0
M  V30 8546 H 838.049 0.946829 2.88563 0
M  V30 8547 H 835.634 0.527765 1.39768 0
M  V30 8548 H 837.516 -1.22095 4.03325 0
M  V30 8549 H 836.191 -1.49751 2.86978 0
M  V30 8550 H 835.098 0.673612 3.67985 0
M  V30 8551 H 836.431 0.866892 4.84506 0
M  V30 8552 N 838.083 -1.48885 0.516809 0
M  V30 8553 C 839.36 -1.95412 -0.0858293 0
M  V30 8554 C 839.74 -1.45875 -1.5259 0
M  V30 8555 O 839.088 -0.679415 -2.18166 0
M  V30 8556 C 839.298 -3.48995 0.0178194 0
M  V30 8557 C 840.646 -4.24342 -0.14813 0
M  V30 8558 O 841.67 -3.56155 -0.0566125 0
M  V30 8559 O 840.529 -5.45454 -0.338035 0
M  V30 8560 H 837.623 -0.822455 -0.0865884 0
M  V30 8561 H 840.169 -1.59464 0.580472 0
M  V30 8562 H 838.941 -3.77732 1.02147 0
M  V30 8563 H 838.564 -3.91604 -0.687924 0
M  V30 8564 N 839.561 -0.251338 -1.55583 0
M  V30 8565 C 840.807 0.37272 -1.99346 0
M  V30 8566 C 841.14 1.57266 -1.13934 0
M  V30 8567 O 840.415 1.9343 -0.20377 0
M  V30 8568 C 840.698 0.778245 -3.5159 0
M  V30 8569 C 840.551 -0.427394 -4.47765 0
M  V30 8570 C 841.87 1.62358 -4.09057 0
M  V30 8571 H 838.989 0.134002 -0.724715 0
M  V30 8572 H 841.631 -0.353536 -1.86682 0
M  V30 8573 H 839.781 1.39704 -3.62512 0
M  V30 8574 H 841.453 -1.06586 -4.48818 0
M  V30 8575 H 839.696 -1.06972 -4.20404 0
M  V30 8576 H 840.367 -0.10025 -5.51909 0
M  V30 8577 H 842.843 1.1012 -4.01264 0
M  V30 8578 H 841.719 1.87617 -5.1584 0
M  V30 8579 H 841.98 2.59688 -3.57791 0
M  V30 8580 N 841.039 1.57585 0.0217189 0
M  V30 8581 C 841.969 2.10073 1.01939 0
M  V30 8582 C 842.95 1.0049 1.37243 0
M  V30 8583 O 844.135 1.28055 1.45999 0
M  V30 8584 C 841.265 2.58618 2.31806 0
M  V30 8585 C 840.219 3.72531 2.10724 0
M  V30 8586 C 839.545 4.07309 3.46415 0
M  V30 8587 C 840.845 5.00672 1.48743 0
M  V30 8588 H 842.539 2.9368 0.582432 0
M  V30 8589 H 840.085 1.41277 0.278715 0
M  V30 8590 H 842.038 2.9396 3.01936 0
M  V30 8591 H 840.762 1.72104 2.77575 0
M  V30 8592 H 839.421 3.37549 1.43025 0
M  V30 8593 H 839.069 3.17851 3.89846 0
M  V30 8594 H 838.769 4.84042 3.33132 0
M  V30 8595 H 840.293 4.45192 4.17895 0
M  V30 8596 H 841.707 5.33925 2.088 0
M  V30 8597 H 840.104 5.82065 1.46013 0
M  V30 8598 H 841.174 4.82769 0.45408 0
M  V30 8599 N 842.517 -0.29412 1.54831 0
M  V30 8600 C 843.745 -1.04724 1.78439 0
M  V30 8601 C 844.16 -1.80695 0.547239 0
M  V30 8602 O 843.517 -1.75989 -0.483141 0
M  V30 8603 C 843.568 -2.02242 2.99634 0
M  V30 8604 O 843.289 -1.29352 4.18568 0
M  V30 8605 C 844.79 -2.89537 3.35683 0
M  V30 8606 H 842.01 -0.310285 0.594949 0
M  V30 8607 H 844.554 -0.331306 2.01798 0
M  V30 8608 H 842.709 -2.69328 2.78462 0
M  V30 8609 H 843.123 -1.94901 4.86943 0
M  V30 8610 H 844.597 -3.538 4.23709 0
M  V30 8611 H 845.074 -3.58201 2.54143 0
M  V30 8612 H 845.68 -2.27973 3.59038 0
M  V30 8613 N 843.995 -1.47404 -0.557645 0
M  V30 8614 C 844.958 -1.59411 -1.64684 0
M  V30 8615 C 845.958 -0.469244 -1.53801 0
M  V30 8616 O 847.148 -0.734298 -1.57967 0
M  V30 8617 C 844.28 -1.5382 -3.04224 0
M  V30 8618 H 845.473 -2.56504 -1.55389 0
M  V30 8619 H 843.026 -1.35588 -0.777531 0
M  V30 8620 H 843.761 -0.581 -3.19053 0
M  V30 8621 H 843.546 -2.35456 -3.13533 0
M  V30 8622 H 845.036 -1.65358 -3.83466 0
M  V30 8623 N 845.473 0.80434 -1.35529 0
M  V30 8624 C 846.722 1.55665 -1.28263 0
M  V30 8625 C 847.035 1.95096 0.140352 0
M  V30 8626 O 848.241 2.69422 0.335303 0
M  V30 8627 C 846.697 2.80935 -2.24952 0
M  V30 8628 C 846.305 2.48733 -3.72607 0
M  V30 8629 C 848.049 3.5894 -2.26632 0
M  V30 8630 C 845.956 3.70308 -4.61114 0
M  V30 8631 H 844.886 0.584301 -0.476559 0
M  V30 8632 H 847.537 0.88395 -1.60806 0
M  V30 8633 H 845.919 3.49927 -1.85383 0
M  V30 8634 H 847.093 1.87733 -4.20824 0
M  V30 8635 H 845.408 1.83969 -3.73557 0
M  V30 8636 H 848.005 4.49244 -2.89973 0
M  V30 8637 H 848.348 3.96433 -1.27069 0
M  V30 8638 H 848.881 2.96912 -2.64742 0
M  V30 8639 H 845.62 3.37922 -5.61684 0
M  V30 8640 H 845.14 4.30526 -4.17621 0
M  V30 8641 H 846.819 4.37511 -4.76648 0
M  V30 8642 N 846.951 1.19563 1.02676 0
M  V30 8643 C 848.176 1.02556 1.80269 0
M  V30 8644 C 848.601 -0.421056 1.83327 0
M  V30 8645 O 847.959 -1.30279 1.26084 0
M  V30 8646 C 848.007 1.60165 3.23078 0
M  V30 8647 O 847.111 0.832404 4.03912 0
M  V30 8648 H 846.452 0.362354 0.556413 0
M  V30 8649 H 848.982 1.58633 1.29216 0
M  V30 8650 H 848.992 1.6347 3.7382 0
M  V30 8651 H 847.667 2.65454 3.20167 0
M  V30 8652 H 846.244 0.872768 3.62543 0
M  V30 8653 N 848.429 -1.21819 0.999893 0
M  V30 8654 C 849.392 -2.22227 0.561044 0
M  V30 8655 C 850.392 -1.56722 -0.359858 0
M  V30 8656 O 851.582 -1.73546 -0.150848 0
M  V30 8657 C 848.714 -3.40409 -0.182987 0
M  V30 8658 H 849.907 -2.62567 1.44909 0
M  V30 8659 H 847.46 -1.34991 0.78785 0
M  V30 8660 H 848.195 -3.05551 -1.08671 0
M  V30 8661 H 847.98 -3.89171 0.47833 0
M  V30 8662 H 849.47 -4.14856 -0.477952 0
M  V30 8663 N 849.908 -0.773975 -1.37286 0
M  V30 8664 C 851.154 -0.339809 -1.99933 0
M  V30 8665 C 851.487 1.0815 -1.61299 0
M  V30 8666 O 850.762 1.74442 -0.860252 0
M  V30 8667 C 851.045 -0.485919 -3.56806 0
M  V30 8668 C 850.898 -1.9498 -4.05343 0
M  V30 8669 C 852.217 0.108461 -4.39966 0
M  V30 8670 H 849.336 -0.124944 -0.726332 0
M  V30 8671 H 851.978 -0.977433 -1.6293 0
M  V30 8672 H 850.128 0.0569023 -3.88458 0
M  V30 8673 H 851.8 -2.5525 -3.84246 0
M  V30 8674 H 850.043 -2.45784 -3.57453 0
M  V30 8675 H 850.714 -2.00308 -5.14374 0
M  V30 8676 H 853.19 -0.354722 -4.14585 0
M  V30 8677 H 852.066 -0.0238926 -5.48895 0
M  V30 8678 H 852.327 1.19901 -4.25531 0
M  V30 8679 N 851.386 1.48609 -0.524698 0
M  V30 8680 C 852.349 2.28041 0.230166 0
M  V30 8681 C 853.349 1.35065 0.872584 0
M  V30 8682 O 854.539 1.58007 0.73345 0
M  V30 8683 C 851.671 3.13778 1.33252 0
M  V30 8684 H 852.864 2.96239 -0.467161 0
M  V30 8685 H 850.417 1.53763 -0.280452 0
M  V30 8686 H 851.152 2.502 2.06327 0
M  V30 8687 H 850.937 3.82165 0.877058 0
M  V30 8688 H 852.427 3.7371 1.86362 0
M  V30 8689 N 852.864 0.259585 1.55447 0
M  V30 8690 C 853.827 -0.621359 2.20617 0
M  V30 8691 C 854.827 -1.09317 1.17925 0
M  V30 8692 O 856.017 -0.995842 1.42929 0
M  V30 8693 C 853.149 -1.85546 2.85982 0
M  V30 8694 H 854.342 -0.0525833 2.99854 0
M  V30 8695 H 851.895 0.0101055 1.56297 0
M  V30 8696 H 852.63 -2.46515 2.10715 0
M  V30 8697 H 852.415 -1.52523 3.61219 0
M  V30 8698 H 853.905 -2.48227 3.35817 0
M  V30 8699 N 854.342 -1.57594 -0.0133615 0
M  V30 8700 C 855.572 -1.93969 -0.711295 0
M  V30 8701 C 855.98 -0.859084 -1.68572 0
M  V30 8702 O 855.323 0.171842 -1.82894 0
M  V30 8703 C 855.385 -3.2625 -1.51001 0
M  V30 8704 C 855.049 -4.51628 -0.698645 0
M  V30 8705 C 856.046 -5.19899 0.00791185 0
M  V30 8706 C 853.731 -4.98095 -0.648553 0
M  V30 8707 C 855.725 -6.32928 0.753691 0
M  V30 8708 C 853.412 -6.11017 0.10096 0
M  V30 8709 C 854.41 -6.78289 0.800828 0
M  V30 8710 O 854.098 -7.89048 1.53814 0
M  V30 8711 H 853.83 -0.6445 -0.203951 0
M  V30 8712 H 856.384 -2.05378 0.0298267 0
M  V30 8713 H 854.614 -3.11211 -2.29531 0
M  V30 8714 H 856.303 -3.47835 -2.09202 0
M  V30 8715 H 857.069 -4.84995 -0.0217192 0
M  V30 8716 H 852.948 -4.45568 -1.18282 0
M  V30 8717 H 856.492 -6.85371 1.3005 0
M  V30 8718 H 852.389 -6.45364 0.132459 0
M  V30 8719 H 853.157 -8.05492 1.45345 0
M  V30 8720 N 855.82 0.285905 -1.54985 0
M  V30 8721 C 856.75 1.35752 -1.89983 0
M  V30 8722 C 857.731 1.52163 -0.760295 0
M  V30 8723 O 858.916 1.65421 -1.01733 0
M  V30 8724 C 856.046 2.71925 -2.16042 0
M  V30 8725 C 855 2.70261 -3.31878 0
M  V30 8726 C 854.326 4.09864 -3.43388 0
M  V30 8727 C 855.626 2.30667 -4.68604 0
M  V30 8728 H 857.32 1.06709 -2.79738 0
M  V30 8729 H 854.866 0.511884 -1.34595 0
M  V30 8730 H 856.819 3.46992 -2.39113 0
M  V30 8731 H 855.543 3.02523 -1.23074 0
M  V30 8732 H 854.202 1.97651 -3.08755 0
M  V30 8733 H 853.85 4.37664 -2.47909 0
M  V30 8734 H 853.55 4.09648 -4.21262 0
M  V30 8735 H 855.074 4.86689 -3.68736 0
M  V30 8736 H 856.488 2.95453 -4.91305 0
M  V30 8737 H 854.885 2.41637 -5.49301 0
M  V30 8738 H 855.955 1.25793 -4.68299 0
M  V30 8739 N 857.298 1.47698 0.54982 0
M  V30 8740 C 858.546 1.54397 1.30407 0
M  V30 8741 C 858.867 0.211026 1.93855 0
M  V30 8742 O 858.137 -0.765701 1.80316 0
M  V30 8743 H 856.717 0.568747 0.484289 0
M  V30 8744 H 859.379 1.84042 0.641444 0
M  V30 8745 H 858.475 2.31449 2.09375 0
M  V30 8746 N 858.776 -0.797141 1.35954 0
M  V30 8747 C 859.724 -1.93084 1.29697 0
M  V30 8748 C 860.718 -1.68329 0.190152 0
M  V30 8749 O 861.924 -1.7643 0.3567 0
M  V30 8750 H 858.299 -0.634531 0.403577 0
M  V30 8751 H 860.27 -1.95481 2.25455 0
M  V30 8752 C 859.019 -3.29996 1.09536 0
M  V30 8753 H 858.342 -3.49607 1.93946 0
M  V30 8754 H 859.782 -4.09696 1.09202 0
M  V30 8755 C 858.241 -3.36304 -0.200381 0
M  V30 8756 O 858.771 -3.83579 -1.19291 0
M  V30 8757 N 856.977 -2.89587 -0.242406 0
M  V30 8758 H 856.524 -2.51307 0.565897 0
M  V30 8759 H 856.482 -2.94189 -1.10906 0
M  V30 8760 N 860.254 -1.20106 -1.0204 0
M  V30 8761 C 861.531 -0.918029 -1.72718 0
M  V30 8762 C 861.911 0.574163 -2.03142 0
M  V30 8763 O 861.259 1.53476 -1.69285 0
M  V30 8764 C 861.469 -1.78698 -2.9978 0
M  V30 8765 C 862.817 -2.02648 -3.7312 0
M  V30 8766 O 863.841 -1.75919 -3.09727 0
M  V30 8767 O 862.7 -2.47767 -4.87107 0
M  V30 8768 H 859.794 -0.342904 -0.752559 0
M  V30 8769 H 862.34 -1.30961 -1.07923 0
M  V30 8770 H 861.112 -2.79757 -2.7359 0
M  V30 8771 H 860.735 -1.39522 -3.72316 0
M  V30 8772 N 861.732 1.21287 -1.00634 0
M  V30 8773 C 862.98 1.90013 -0.688438 0
M  V30 8774 C 863.301 1.78573 0.783365 0
M  V30 8775 O 862.571 1.1815 1.56261 0
M  V30 8776 H 861.151 0.703336 -0.251648 0
M  V30 8777 H 863.813 1.47346 -1.27574 0
M  V30 8778 H 862.909 2.96879 -0.962781 0
M  V30 8779 N 863.21 0.781244 1.36873 0
M  V30 8780 C 864.435 0.360398 2.04245 0
M  V30 8781 C 864.86 -1.01242 1.58529 0
M  V30 8782 O 864.218 -1.65063 0.749936 0
M  V30 8783 C 864.266 0.42329 3.58107 0
M  V30 8784 O 863.37 -0.572796 4.08403 0
M  V30 8785 H 862.711 0.154386 0.645803 0
M  V30 8786 H 865.241 1.06008 1.74996 0
M  V30 8787 H 865.251 0.283967 4.07011 0
M  V30 8788 H 863.926 1.42477 3.90734 0
M  V30 8789 H 862.503 -0.395809 3.70793 0
M  V30 8790 N 864.689 -1.48329 0.532571 0
M  V30 8791 C 865.652 -2.2816 -0.218069 0
M  V30 8792 C 866.652 -1.35526 -0.865409 0
M  V30 8793 O 867.842 -1.58394 -0.725061 0
M  V30 8794 C 864.974 -3.1448 -1.31586 0
M  V30 8795 H 866.167 -2.95987 0.482865 0
M  V30 8796 H 863.72 -1.53612 0.288603 0
M  V30 8797 H 864.455 -2.5129 -2.04997 0
M  V30 8798 H 864.24 -3.82625 -0.856779 0
M  V30 8799 H 865.73 -3.74693 -1.84377 0
M  V30 8800 N 866.167 -0.267825 -1.55308 0
M  V30 8801 C 867.077 0.633055 -2.25897 0
M  V30 8802 C 868.093 1.17613 -1.28231 0
M  V30 8803 O 869.269 1.20797 -1.61153 0
M  V30 8804 C 866.334 1.80397 -2.96071 0
M  V30 8805 C 865.395 1.29829 -4.09198 0
M  V30 8806 C 864.628 2.4134 -4.76016 0
M  V30 8807 O 864.851 3.60537 -4.42006 0
M  V30 8808 O 863.785 2.09909 -5.64111 0
M  V30 8809 H 867.611 0.0614381 -3.03638 0
M  V30 8810 H 865.196 -0.0355072 -1.49358 0
M  V30 8811 H 867.078 2.48685 -3.40197 0
M  V30 8812 H 865.753 2.36281 -2.21253 0
M  V30 8813 H 864.66 0.582086 -3.69544 0
M  V30 8814 H 865.993 0.785288 -4.85895 0
M  V30 8815 N 867.645 1.57599 0.00500368 0
M  V30 8816 C 868.891 1.90631 0.691919 0
M  V30 8817 C 869.224 0.868443 1.737 0
M  V30 8818 O 868.499 -0.113482 1.94169 0
M  V30 8819 C 868.782 3.34255 1.33961 0
M  V30 8820 C 868.635 4.48755 0.306413 0
M  V30 8821 C 869.954 3.77211 2.26715 0
M  V30 8822 H 867.073 0.693279 0.250066 0
M  V30 8823 H 869.715 1.89946 -0.0452634 0
M  V30 8824 H 867.865 3.3497 1.96793 0
M  V30 8825 H 869.537 4.60176 -0.321841 0
M  V30 8826 H 867.78 4.32203 -0.371852 0
M  V30 8827 H 868.451 5.46193 0.798554 0
M  V30 8828 H 870.927 3.78017 1.73904 0
M  V30 8829 H 869.803 4.78466 2.69002 0
M  V30 8830 H 870.064 3.10801 3.14413 0
M  V30 8831 N 869.123 -0.277682 1.55134 0
M  V30 8832 C 870.369 -1.0114 1.7578 0
M  V30 8833 C 870.702 -1.86109 0.554719 0
M  V30 8834 O 869.977 -1.89275 -0.447813 0
M  V30 8835 C 870.26 -1.89789 3.06027 0
M  V30 8836 C 870.113 -1.07844 4.3668 0
M  V30 8837 C 871.432 -2.88577 3.32282 0
M  V30 8838 H 868.551 -0.366277 0.639539 0
M  V30 8839 H 871.193 -0.284155 1.87863 0
M  V30 8840 H 869.343 -2.51796 2.95856 0
M  V30 8841 H 871.015 -0.479432 4.58802 0
M  V30 8842 H 869.258 -0.381764 4.32117 0
M  V30 8843 H 869.929 -1.73179 5.24131 0
M  V30 8844 H 872.405 -2.36702 3.42215 0
M  V30 8845 H 871.281 -3.47749 4.2469 0
M  V30 8846 H 871.542 -3.63458 2.51696 0
M  V30 8847 N 870.601 -1.47988 -0.541979 0
M  V30 8848 C 871.551 -1.58019 -1.64359 0
M  V30 8849 C 872.535 -0.438056 -1.54822 0
M  V30 8850 O 873.727 -0.688837 -1.63046 0
M  V30 8851 C 870.856 -1.61182 -3.03109 0
M  V30 8852 C 869.942 -2.80834 -3.17794 0
M  V30 8853 N 870.333 -4.05379 -3.02492 0
M  V30 8854 C 868.631 -2.77914 -3.48826 0
M  V30 8855 C 869.332 -4.85592 -3.20274 0
M  V30 8856 N 868.308 -4.18188 -3.47304 0
M  V30 8857 H 872.11 -2.52071 -1.5112 0
M  V30 8858 H 869.624 -1.44193 -0.747137 0
M  V30 8859 H 871.621 -1.66461 -3.82226 0
M  V30 8860 H 870.281 -0.682375 -3.17449 0
M  V30 8861 H 871.292 -4.36003 -2.79503 0
M  V30 8862 H 867.969 -1.94174 -3.69598 0
M  V30 8863 H 869.359 -5.94394 -3.13282 0
M  V30 8864 N 872.079 0.78992 -1.36375 0
M  V30 8865 C 873.326 1.54777 -1.30576 0
M  V30 8866 C 873.654 1.94159 0.115095 0
M  V30 8867 O 872.909 1.62918 1.08426 0
M  V30 8868 C 873.208 2.83698 -2.17371 0
M  V30 8869 C 872.874 2.63457 -3.65925 0
M  V30 8870 C 871.536 2.57645 -4.06415 0
M  V30 8871 C 873.888 2.44833 -4.60115 0
M  V30 8872 C 871.216 2.31174 -5.39236 0
M  V30 8873 C 873.568 2.19889 -5.93154 0
M  V30 8874 C 872.232 2.1251 -6.32768 0
M  V30 8875 H 871.502 0.566371 -0.477813 0
M  V30 8876 H 874.149 0.91138 -1.68422 0
M  V30 8877 H 872.454 3.51802 -1.72459 0
M  V30 8878 H 874.151 3.41487 -2.10209 0
M  V30 8879 H 870.741 2.68836 -3.33804 0
M  V30 8880 H 874.925 2.48325 -4.29707 0
M  V30 8881 H 870.181 2.23942 -5.68911 0
M  V30 8882 H 874.355 2.04473 -6.65705 0
M  V30 8883 H 871.982 1.91761 -7.35616 0
M  V30 8884 N 873.557 1.20646 1.01402 0
M  V30 8885 C 874.52 0.959314 2.08158 0
M  V30 8886 C 875.52 -0.0661558 1.60664 0
M  V30 8887 O 876.71 0.170177 1.73367 0
M  V30 8888 C 873.842 0.444785 3.37986 0
M  V30 8889 H 875.035 1.90631 2.31517 0
M  V30 8890 H 872.588 1.02219 1.18241 0
M  V30 8891 H 873.323 -0.507553 3.20304 0
M  V30 8892 H 873.108 1.18435 3.73785 0
M  V30 8893 H 874.598 0.291443 4.16582 0
M  V30 8894 N 875.035 -1.20752 1.01276 0
M  V30 8895 C 876.446 -1.7175 0.732033 0
M  V30 8896 C 876.797 -1.8131 -0.749733 0
M  V30 8897 O 875.922 -1.47301 -1.58529 0
M  V30 8898 C 876.517 -3.11936 1.32217 0
M  V30 8899 C 875.076 -3.6026 1.09039 0
M  V30 8900 C 874.223 -2.37571 1.43022 0
M  V30 8901 H 877.174 -1.0582 1.1827 0
M  V30 8902 H 877.195 -3.73802 0.710771 0
M  V30 8903 H 876.707 -3.04946 2.40061 0
M  V30 8904 H 874.808 -3.72588 0.0294464 0
M  V30 8905 H 874.921 -4.45295 1.76775 0
M  V30 8906 H 873.285 -2.40128 0.849159 0
M  V30 8907 H 874.068 -2.33225 2.51915 0
M  V30 8908 N 876.513 -0.788492 -1.36457 0
M  V30 8909 C 877.738 -0.371224 -2.04051 0
M  V30 8910 C 878.163 1.004 -1.59064 0
M  V30 8911 O 877.521 1.64663 -0.758679 0
M  V30 8912 C 877.569 -0.442275 -3.57877 0
M  V30 8913 O 876.673 0.55113 -4.08701 0
M  V30 8914 H 876.014 -0.157808 -0.644975 0
M  V30 8915 H 878.544 -1.06935 -1.74431 0
M  V30 8916 H 878.554 -0.305548 -4.06854 0
M  V30 8917 H 877.229 -1.44547 -3.89973 0
M  V30 8918 H 875.806 0.37614 -3.70998 0
M  V30 8919 N 877.991 1.48044 -0.54043 0
M  V30 8920 C 879.402 1.86418 -0.102662 0
M  V30 8921 C 879.753 1.4489 1.32293 0
M  V30 8922 O 878.878 0.844319 1.99249 0
M  V30 8923 C 879.473 3.38324 -0.179533 0
M  V30 8924 C 878.032 3.75852 0.203098 0
M  V30 8925 C 877.179 2.72097 -0.534637 0
M  V30 8926 H 880.13 1.398 -0.751103 0
M  V30 8927 H 880.151 3.75641 0.606147 0
M  V30 8928 H 879.663 3.68518 -1.21721 0
M  V30 8929 H 877.764 3.51272 1.24252 0
M  V30 8930 H 877.877 4.78884 -0.143784 0
M  V30 8931 H 876.241 2.54692 0.0203358 0
M  V30 8932 H 877.024 3.05135 -1.57314 0
M  V30 8933 N 879.47 0.276058 1.55163 0
M  V30 8934 C 880.418 -0.626978 2.2399 0
M  V30 8935 C 881.412 -1.15708 1.23725 0
M  V30 8936 O 882.618 -1.1106 1.41653 0
M  V30 8937 H 878.993 -0.220742 0.718872 0
M  V30 8938 H 880.964 -0.0236569 2.98391 0
M  V30 8939 C 879.713 -1.79935 2.97521 0
M  V30 8940 H 879.036 -1.40064 3.74463 0
M  V30 8941 H 880.476 -2.40781 3.48999 0
M  V30 8942 C 878.935 -2.68838 2.03046 0
M  V30 8943 O 879.465 -3.69224 1.58229 0
M  V30 8944 N 877.671 -2.36028 1.69527 0
M  V30 8945 H 877.218 -1.54442 2.06169 0
M  V30 8946 H 877.176 -2.95782 1.06586 0
M  V30 8947 N 880.948 -1.576 0.00335426 0
M  V30 8948 C 882.194 -1.91833 -0.676149 0
M  V30 8949 C 882.549 -0.878079 -1.71194 0
M  V30 8950 O 881.842 0.109297 -1.91288 0
M  V30 8951 C 882.036 -3.3058 -1.35837 0
M  V30 8952 C 881.865 -4.48004 -0.390171 0
M  V30 8953 C 880.635 -5.053 0.000648493 0
M  V30 8954 C 882.833 -5.13142 0.344982 0
M  V30 8955 N 880.815 -6.06241 0.966709 0
M  V30 8956 C 882.186 -6.08944 1.16562 0
M  V30 8957 C 884.241 -4.96222 0.408457 0
M  V30 8958 C 882.944 -6.89649 2.04395 0
M  V30 8959 C 884.97 -5.77514 1.27403 0
M  V30 8960 C 884.332 -6.72912 2.08251 0
M  V30 8961 H 880.431 -0.750263 -0.220519 0
M  V30 8962 H 883.015 -1.94593 0.0644891 0
M  V30 8963 H 881.186 -3.28687 -2.06928 0
M  V30 8964 H 882.918 -3.52233 -1.99284 0
M  V30 8965 H 879.673 -4.72165 -0.368428 0
M  V30 8966 H 880.097 -6.61394 1.44521 0
M  V30 8967 H 884.739 -4.22316 -0.202324 0
M  V30 8968 H 882.457 -7.62878 2.66539 0
M  V30 8969 H 886.043 -5.66462 1.3271 0
M  V30 8970 H 884.923 -7.34721 2.74145 0
M  V30 8971 N 882.426 0.269451 -1.5528 0
M  V30 8972 C 883.672 1.00206 -1.76314 0
M  V30 8973 C 884.005 1.85812 -0.564581 0
M  V30 8974 O 883.28 1.89509 0.437769 0
M  V30 8975 C 883.563 1.88163 -3.07029 0
M  V30 8976 C 883.416 1.05527 -4.37246 0
M  V30 8977 C 884.735 2.8681 -3.33808 0
M  V30 8978 H 881.854 0.36288 -0.641473 0
M  V30 8979 H 884.496 0.274188 -1.88011 0
M  V30 8980 H 882.646 2.50224 -2.97187 0
M  V30 8981 H 884.318 0.455094 -4.5905 0
M  V30 8982 H 882.561 0.358842 -4.32313 0
M  V30 8983 H 883.232 1.70397 -5.25042 0
M  V30 8984 H 885.708 2.34884 -3.43466 0
M  V30 8985 H 884.584 3.45492 -4.26528 0
M  V30 8986 H 884.845 3.62118 -2.5362 0
M  V30 8987 N 883.904 1.48273 0.534124 0
M  V30 8988 C 885.32 1.34302 0.862272 0
M  V30 8989 C 885.52 0.350902 1.98421 0
M  V30 8990 O 884.576 -0.229364 2.51456 0
M  V30 8991 C 885.889 2.74227 1.23371 0
M  V30 8992 C 887.437 2.82684 1.34383 0
M  V30 8993 C 887.912 4.23301 1.74871 0
M  V30 8994 N 889.403 4.25954 1.81981 0
M  V30 8995 C 890.138 5.31693 2.14686 0
M  V30 8996 N 889.634 6.47714 2.45844 0
M  V30 8997 N 891.427 5.19084 2.15657 0
M  V30 8998 H 883.578 2.11397 -0.206215 0
M  V30 8999 H 885.841 0.947537 -0.0296116 0
M  V30 9000 H 885.547 3.48368 0.482967 0
M  V30 9001 H 885.421 3.07485 2.18478 0
M  V30 9002 H 887.808 2.08801 2.08534 0
M  V30 9003 H 887.889 2.5305 0.374063 0
M  V30 9004 H 887.533 4.97699 1.01282 0
M  V30 9005 H 887.463 4.50376 2.7289 0
M  V30 9006 H 889.954 3.42266 1.60196 0
M  V30 9007 H 890.267 7.2414 2.69892 0
M  V30 9008 H 888.612 6.50995 2.43372 0
M  V30 9009 H 891.803 4.27463 1.9077 0
M  V30 9010 H 891.976 6.01592 2.40813 0
M  V30 9011 N 885.382 -0.782676 1.36792 0
M  V30 9012 C 886.292 -1.92679 1.33835 0
M  V30 9013 C 887.308 -1.72344 0.23952 0
M  V30 9014 O 888.484 -1.95766 0.473045 0
M  V30 9015 C 885.549 -3.27644 1.1336 0
M  V30 9016 C 884.61 -3.6071 2.32781 0
M  V30 9017 C 883.843 -4.89234 2.13273 0
M  V30 9018 O 884.066 -5.59468 1.11136 0
M  V30 9019 O 883 -5.21112 3.01208 0
M  V30 9020 H 886.826 -1.98124 2.30175 0
M  V30 9021 H 884.411 -0.923887 1.17408 0
M  V30 9022 H 886.293 -4.08394 1.03886 0
M  V30 9023 H 884.968 -3.23076 0.200868 0
M  V30 9024 H 883.875 -2.80238 2.47825 0
M  V30 9025 H 885.208 -3.70008 3.24584 0
M  V30 9026 N 886.86 -1.21182 -1.00761 0
M  V30 9027 C 888.108 -1.02543 -1.74153 0
M  V30 9028 C 888.429 0.442372 -1.89916 0
M  V30 9029 O 887.699 1.31927 -1.44818 0
M  V30 9030 H 886.279 -0.37644 -0.645214 0
M  V30 9031 H 888.941 -1.52446 -1.21434 0
M  V30 9032 H 888.037 -1.49122 -2.7417 0
M  V30 9033 N 888.338 1.20213 -1.01915 0
M  V30 9034 C 889.754 1.41696 -0.734459 0
M  V30 9035 C 889.954 1.89504 0.684867 0
M  V30 9036 O 889.01 2.06556 1.45227 0
M  V30 9037 C 890.323 2.43644 -1.76233 0
M  V30 9038 C 891.871 2.57406 -1.78076 0
M  V30 9039 C 892.346 3.626 -2.79796 0
M  V30 9040 N 893.837 3.70086 -2.78551 0
M  V30 9041 C 894.572 4.51145 -3.53915 0
M  V30 9042 N 894.068 5.35988 -4.38963 0
M  V30 9043 N 895.861 4.45702 -3.425 0
M  V30 9044 H 888.012 0.874976 -1.93541 0
M  V30 9045 H 890.275 0.446647 -0.836188 0
M  V30 9046 H 889.981 2.15519 -2.77929 0
M  V30 9047 H 889.855 3.42672 -1.57657 0
M  V30 9048 H 892.242 2.8486 -0.770634 0
M  V30 9049 H 892.323 1.58565 -2.00725 0
M  V30 9050 H 891.967 3.35889 -3.80973 0
M  V30 9051 H 891.897 4.61069 -2.54407 0
M  V30 9052 H 894.388 3.09484 -2.1686 0
M  V30 9053 H 894.701 5.94932 -4.9323 0
M  V30 9054 H 893.046 5.35482 -4.4304 0
M  V30 9055 H 896.237 3.78456 -2.75478 0
M  V30 9056 H 896.41 5.08637 -4.01487 0
M  V30 9057 N 889.816 0.795718 1.36037 0
M  V30 9058 C 891.232 0.478145 1.52269 0
M  V30 9059 C 891.432 -1.0025 1.74792 0
M  V30 9060 O 890.488 -1.78783 1.78305 0
M  V30 9061 C 891.801 1.31406 2.70468 0
M  V30 9062 C 893.349 1.3084 2.84341 0
M  V30 9063 C 893.824 2.12819 4.05551 0
M  V30 9064 N 895.315 2.10298 4.12709 0
M  V30 9065 C 896.05 2.70495 5.05589 0
M  V30 9066 N 895.546 3.39576 6.03871 0
M  V30 9067 N 897.339 2.60195 4.98252 0
M  V30 9068 H 889.49 1.75477 1.19673 0
M  V30 9069 H 891.753 0.74627 0.584624 0
M  V30 9070 H 891.459 2.36435 2.60368 0
M  V30 9071 H 891.333 0.959726 3.64786 0
M  V30 9072 H 893.72 0.266003 2.93899 0
M  V30 9073 H 893.801 1.70254 1.90912 0
M  V30 9074 H 893.445 3.17093 3.96755 0
M  V30 9075 H 893.375 1.70772 4.98141 0
M  V30 9076 H 895.866 1.60026 3.42345 0
M  V30 9077 H 896.179 3.82823 6.71317 0
M  V30 9078 H 894.524 3.43679 6.04077 0
M  V30 9079 H 897.715 2.05823 4.20422 0
M  V30 9080 H 897.888 3.074 5.70447 0
M  V30 9081 N 891.294 -1.47756 0.548274 0
M  V30 9082 C 892.257 -2.28379 -0.193857 0
M  V30 9083 C 893.257 -1.36436 -0.850986 0
M  V30 9084 O 894.447 -1.59154 -0.70822 0
M  V30 9085 C 891.579 -3.15858 -1.28243 0
M  V30 9086 H 892.772 -2.95458 0.514231 0
M  V30 9087 H 890.325 -1.53298 0.304879 0
M  V30 9088 H 891.06 -2.5345 -2.0232 0
M  V30 9089 H 890.845 -3.83512 -0.816148 0
M  V30 9090 H 892.335 -3.76627 -1.80393 0
M  V30 9091 N 892.772 -0.284283 -1.55015 0
M  V30 9092 C 893.702 0.592663 -2.25853 0
M  V30 9093 C 894.683 1.15151 -1.25197 0
M  V30 9094 O 895.868 1.18395 -1.53936 0
M  V30 9095 C 892.998 1.77254 -2.98661 0
M  V30 9096 C 891.952 1.34482 -4.06323 0
M  V30 9097 C 891.278 2.60853 -4.66754 0
M  V30 9098 C 892.578 0.488288 -5.20013 0
M  V30 9099 H 894.272 0.00187041 -2.994 0
M  V30 9100 H 891.818 -0.000540402 -1.44 0
M  V30 9101 H 893.771 2.39199 -3.46932 0
M  V30 9102 H 892.495 2.38931 -2.22664 0
M  V30 9103 H 891.154 0.748519 -3.58877 0
M  V30 9104 H 890.802 3.20808 -3.87416 0
M  V30 9105 H 890.502 2.32942 -5.39455 0
M  V30 9106 H 892.026 3.23631 -5.1778 0
M  V30 9107 H 893.44 1.01298 -5.6428 0
M  V30 9108 H 891.837 0.303669 -5.99331 0
M  V30 9109 H 892.907 -0.490727 -4.8241 0
M  V30 9110 N 894.251 1.57596 -0.0117121 0
M  V30 9111 C 895.183 2.06025 1.0043 0
M  V30 9112 C 896.196 0.980348 1.29973 0
M  V30 9113 O 897.385 1.25691 1.26744 0
M  V30 9114 C 894.485 2.45514 2.33615 0
M  V30 9115 C 893.658 3.76378 2.22842 0
M  V30 9116 C 892.717 4.02606 3.38814 0
M  V30 9117 O 891.743 4.73108 3.16477 0
M  V30 9118 N 892.945 3.51416 4.62047 0
M  V30 9119 H 895.71 2.93811 0.591206 0
M  V30 9120 H 893.271 1.60947 0.175427 0
M  V30 9121 H 895.263 2.60166 3.09993 0
M  V30 9122 H 893.833 1.63186 2.66625 0
M  V30 9123 H 893.053 3.71691 1.313 0
M  V30 9124 H 894.341 4.62149 2.12829 0
M  V30 9125 H 893.739 2.94346 4.83091 0
M  V30 9126 H 892.296 3.71377 5.35651 0
M  V30 9127 N 895.729 -0.261212 1.5542 0
M  V30 9128 C 896.677 -1.34298 1.89913 0
M  V30 9129 C 897.671 -1.50547 0.776665 0
M  V30 9130 O 898.877 -1.52191 0.961139 0
M  V30 9131 H 895.252 -0.4494 0.602946 0
M  V30 9132 H 897.223 -1.02464 2.80256 0
M  V30 9133 C 895.972 -2.69423 2.19788 0
M  V30 9134 H 895.295 -2.57715 3.05652 0
M  V30 9135 H 896.735 -3.44026 2.47835 0
M  V30 9136 C 895.194 -3.21423 1.00939 0
M  V30 9137 O 895.724 -4.00921 0.250034 0
M  V30 9138 N 893.93 -2.7926 0.803883 0
M  V30 9139 H 893.477 -2.14724 1.42308 0
M  V30 9140 H 893.435 -3.14398 0.0103257 0
M  V30 9141 N 897.207 -1.48554 -0.526253 0
M  V30 9142 C 898.157 -1.59753 -1.62674 0
M  V30 9143 C 899.141 -0.454452 -1.54349 0
M  V30 9144 O 900.333 -0.706091 -1.62306 0
M  V30 9145 C 897.462 -1.64388 -3.01383 0
M  V30 9146 C 896.548 -2.84188 -3.14798 0
M  V30 9147 N 896.939 -4.08564 -2.98176 0
M  V30 9148 C 895.237 -2.81599 -3.45859 0
M  V30 9149 C 895.938 -4.88961 -3.15106 0
M  V30 9150 N 894.914 -4.21848 -3.42849 0
M  V30 9151 H 898.716 -2.5366 -1.48438 0
M  V30 9152 H 896.23 -1.44977 -0.731801 0
M  V30 9153 H 898.227 -1.70505 -3.80439 0
M  V30 9154 H 896.887 -0.716006 -3.16707 0
M  V30 9155 H 897.898 -4.38943 -2.74862 0
M  V30 9156 H 894.575 -1.98083 -3.67518 0
M  V30 9157 H 895.965 -5.97683 -3.0696 0
M  V30 9158 N 898.685 0.775411 -1.37205 0
M  V30 9159 C 899.91 1.5696 -1.35567 0
M  V30 9160 C 900.335 1.88012 0.0575554 0
M  V30 9161 O 899.693 1.48954 1.03355 0
M  V30 9162 C 899.741 2.85886 -2.19776 0
M  V30 9163 O 898.845 3.80103 -1.59987 0
M  V30 9164 H 898.186 0.475583 -0.463375 0
M  V30 9165 H 900.716 0.96001 -1.80679 0
M  V30 9166 H 900.726 3.35024 -2.32859 0
M  V30 9167 H 899.401 2.62613 -3.22502 0
M  V30 9168 H 897.978 3.38736 -1.55924 0
M  V30 9169 N 900.163 1.21714 1.00117 0
M  V30 9170 C 901.412 1.03087 1.73367 0
M  V30 9171 C 901.725 -0.435532 1.90689 0
M  V30 9172 O 902.931 -0.741291 2.61184 0
M  V30 9173 C 901.387 1.79593 3.11888 0
M  V30 9174 C 900.995 3.30428 3.02525 0
M  V30 9175 C 902.739 1.69386 3.89241 0
M  V30 9176 C 900.646 3.99408 4.3615 0
M  V30 9177 H 899.576 0.382117 0.650002 0
M  V30 9178 H 902.227 1.45486 1.11831 0
M  V30 9179 H 900.609 1.29988 3.74058 0
M  V30 9180 H 901.783 3.87364 2.49571 0
M  V30 9181 H 900.098 3.4122 2.38659 0
M  V30 9182 H 902.695 2.18251 4.8813 0
M  V30 9183 H 903.038 0.652773 4.1115 0
M  V30 9184 H 903.571 2.16489 3.33733 0
M  V30 9185 H 900.31 5.03735 4.19442 0
M  V30 9186 H 899.83 3.47261 4.8905 0
M  V30 9187 H 901.509 4.04537 5.04934 0
M  V30 9188 N 901.641 -1.19671 1.02551 0
M  V30 9189 C 903.057 -1.41305 0.741963 0
M  V30 9190 C 903.257 -1.89865 -0.674807 0
M  V30 9191 O 902.313 -2.07323 -1.44129 0
M  V30 9192 C 903.626 -2.42706 1.77522 0
M  V30 9193 C 905.174 -2.56458 1.79438 0
M  V30 9194 C 905.649 -3.61111 2.81715 0
M  V30 9195 N 907.14 -3.68603 2.8051 0
M  V30 9196 C 907.875 -4.49262 3.56302 0
M  V30 9197 N 907.371 -5.33653 4.41799 0
M  V30 9198 N 909.164 -4.43879 3.44859 0
M  V30 9199 H 901.315 -0.8647 1.94002 0
M  V30 9200 H 903.578 -0.442206 0.838545 0
M  V30 9201 H 903.284 -2.14042 2.79068 0
M  V30 9202 H 903.158 -3.41831 1.59472 0
M  V30 9203 H 905.545 -2.84447 0.78573 0
M  V30 9204 H 905.626 -1.57499 2.01563 0
M  V30 9205 H 905.27 -3.33864 3.82749 0
M  V30 9206 H 905.2 -4.59713 2.56849 0
M  V30 9207 H 907.691 -3.08329 2.18498 0
M  V30 9208 H 908.004 -5.92308 4.96378 0
M  V30 9209 H 906.349 -5.33125 4.45873 0
M  V30 9210 H 909.54 -3.7699 2.77482 0
M  V30 9211 H 909.713 -5.06501 4.04179 0
M  V30 9212 O 903.158 -0.938774 -1.31413 0
M  V30 9213 H 903.849 -0.565583 -1.85259 0
M  V30 END ATOM
M  V30 BEGIN BOND
M  V30 END BOND
M  V30 END CTAB
M  END
$$$$
