drugbank_target|Q8GEZ8 B12-independent glycerol dehydratase (DB01839)
 OpenBabel12092120223D

  0  0  0     0  0            999 V3000
M  V30 BEGIN CTAB
M  V30 COUNTS 12337 12459 0 0 0
M  V30 BEGIN ATOM
M  V30 1 H -0.908 1.98254 -0.117106 0
M  V30 2 N 0 1.576 0 0
M  V30 3 C 0.933 2.03868 1.02534 0
M  V30 4 C 1.911 0.928543 1.3348 0
M  V30 5 O 3.095 1.19667 1.45644 0
M  V30 6 C 0.222 2.43627 2.35294 0
M  V30 7 C -0.732 3.65373 2.2001 0
M  V30 8 S 0.101 5.13292 1.52614 0
M  V30 9 C 1.257 5.56322 2.86805 0
M  V30 10 H 1.49 2.90518 0.631377 0
M  V30 11 H -0.977 1.52953 0.210867 0
M  V30 12 H 0.981 2.67203 3.11629 0
M  V30 13 H -0.358 1.57376 2.7183 0
M  V30 14 H -1.165 3.90944 3.18086 0
M  V30 15 H -1.563 3.418 1.51819 0
M  V30 16 H 0.729 5.58782 3.83104 0
M  V30 17 H 1.672 6.56266 2.65933 0
M  V30 18 H 2.08 4.83886 2.90714 0
M  V30 19 N 1.4781 -0.272755 1.55222 0
M  V30 20 C 2.7271 -1.00211 1.75045 0
M  V30 21 C 3.0401 -1.87441 0.559046 0
M  V30 22 O 4.2461 -2.63856 0.639698 0
M  V30 23 C 2.7021 -1.83165 3.09804 0
M  V30 24 C 2.3101 -1.008 4.36513 0
M  V30 25 C 4.0541 -2.55529 3.38977 0
M  V30 26 C 1.9611 -1.83194 5.62311 0
M  V30 27 H 0.8911 -0.377878 0.652476 0
M  V30 28 H 3.5421 -0.257776 1.8168 0
M  V30 29 H 1.9241 -2.61694 2.97207 0
M  V30 30 H 3.0981 -0.266855 4.60027 0
M  V30 31 H 1.4131 -0.398897 4.14485 0
M  V30 32 H 4.0101 -3.17578 4.30172 0
M  V30 33 H 4.3531 -3.25825 2.59121 0
M  V30 34 H 4.8861 -1.84029 3.52673 0
M  V30 35 H 1.6251 -1.17318 6.44916 0
M  V30 36 H 1.1451 -2.54905 5.4294 0
M  V30 37 H 2.8241 -2.40552 6.00619 0
M  V30 38 N 2.9562 -1.48159 -0.537278 0
M  V30 39 C 4.1812 -1.59707 -1.32319 0
M  V30 40 C 4.6062 -0.254859 -1.86365 0
M  V30 41 O 3.9642 0.772378 -1.64024 0
M  V30 42 C 4.0122 -2.6412 -2.45505 0
M  V30 43 O 3.1162 -2.20774 -3.48328 0
M  V30 44 H 2.4572 -0.535791 -0.392204 0
M  V30 45 H 4.9872 -1.94092 -0.647268 0
M  V30 46 H 4.9972 -2.85166 -2.91795 0
M  V30 47 H 3.6722 -3.61567 -2.05528 0
M  V30 48 H 2.2492 -2.09911 -3.08207 0
M  V30 49 N 4.4343 0.785586 -1.36625 0
M  V30 50 C 5.3813 1.89838 -1.31264 0
M  V30 51 C 6.3513 1.65115 -0.180633 0
M  V30 52 O 7.5363 1.87222 -0.36777 0
M  V30 53 C 4.6763 3.26706 -1.11163 0
M  V30 54 C 3.7893 3.63476 -2.33472 0
M  V30 55 C 2.9243 4.89481 -2.06353 0
M  V30 56 C 1.9633 5.18941 -3.24602 0
M  V30 57 N 1.1003 6.36131 -2.97123 0
M  V30 58 H 5.9403 1.93756 -2.26413 0
M  V30 59 H 3.4773 0.947454 -1.12524 0
M  V30 60 H 5.4353 4.05639 -0.975337 0
M  V30 61 H 4.0653 3.222 -0.196674 0
M  V30 62 H 3.1173 2.79636 -2.57891 0
M  V30 63 H 4.4293 3.81193 -3.21704 0
M  V30 64 H 3.5833 5.76288 -1.89675 0
M  V30 65 H 2.3223 4.73841 -1.15437 0
M  V30 66 H 1.3273 4.30615 -3.41834 0
M  V30 67 H 2.5523 5.36498 -4.16349 0
M  V30 68 H 0.4983 6.21875 -2.08823 0
M  V30 69 H 0.4153 6.54198 -3.78894 0
M  V30 70 H 1.6833 7.2591 -2.84033 0
M  V30 71 N 5.9124 1.20967 1.01018 0
M  V30 72 C 7.1604 1.02172 1.74371 0
M  V30 73 C 7.4814 -0.446414 1.89821 0
M  V30 74 O 6.7514 -1.32234 1.44537 0
M  V30 75 H 5.3314 0.375066 0.646014 0
M  V30 76 H 7.9934 1.52187 1.21758 0
M  V30 77 H 7.0894 1.48538 2.74487 0
M  V30 78 N 7.3905 -1.2043 1.01659 0
M  V30 79 C 8.6375 -1.89797 0.705917 0
M  V30 80 C 8.9655 -1.78848 -0.764439 0
M  V30 81 O 8.2205 -1.16694 -1.57102 0
M  V30 82 C 8.5195 -3.40464 1.08714 0
M  V30 83 C 8.1855 -3.71614 2.5537 0
M  V30 84 C 6.8475 -3.79826 2.95441 0
M  V30 85 C 9.1995 -3.85915 3.50313 0
M  V30 86 C 6.5275 -3.99797 4.29394 0
M  V30 87 C 8.8795 -4.07396 4.83954 0
M  V30 88 C 7.5435 -4.13837 5.23732 0
M  V30 89 H 6.8135 -0.694518 0.258313 0
M  V30 90 H 9.4605 -1.42691 1.27717 0
M  V30 91 H 7.7655 -3.89385 0.434309 0
M  V30 92 H 9.4625 -3.92433 0.824461 0
M  V30 93 H 6.0525 -3.65822 2.23321 0
M  V30 94 H 10.2365 -3.78926 3.20513 0
M  V30 95 H 5.4925 -4.03018 4.59768 0
M  V30 96 H 9.6665 -4.17404 5.57447 0
M  V30 97 H 7.2935 -4.29064 6.27541 0
M  V30 98 N 8.8686 -0.792821 -1.36206 0
M  V30 99 C 10.0936 -0.377701 -2.03932 0
M  V30 100 C 10.5186 0.998947 -1.59382 0
M  V30 101 O 9.8766 1.64421 -0.763903 0
M  V30 102 C 9.9246 -0.453635 -3.57735 0
M  V30 103 O 9.0286 0.538151 -4.08874 0
M  V30 104 H 8.3696 -0.159855 -0.644471 0
M  V30 105 H 10.8996 -1.07488 -1.7409 0
M  V30 106 H 10.9096 -0.318464 -4.06755 0
M  V30 107 H 9.5846 -1.45784 -3.89512 0
M  V30 108 H 8.1616 0.364359 -3.71116 0
M  V30 109 N 10.3467 1.47872 -0.545128 0
M  V30 110 C 11.5747 2.06889 -0.021084 0
M  V30 111 C 11.9897 1.39955 1.2672 0
M  V30 112 O 11.3467 0.492036 1.75742 0
M  V30 113 C 11.3977 3.60996 0.190817 0
M  V30 114 O 11.1187 4.25419 -1.04644 0
M  V30 115 C 12.6197 4.36849 0.753521 0
M  V30 116 H 9.8397 0.669785 -0.0403635 0
M  V30 117 H 12.3837 1.90049 -0.755095 0
M  V30 118 H 10.5387 3.77391 0.87492 0
M  V30 119 H 10.9527 5.17785 -0.836611 0
M  V30 120 H 12.4267 5.45399 0.851139 0
M  V30 121 H 12.9037 4.02306 1.762 0
M  V30 122 H 13.5097 4.25169 0.105503 0
M  V30 123 N 11.8248 0.280983 1.55075 0
M  V30 124 C 12.7568 -0.637268 2.20163 0
M  V30 125 C 13.7698 -1.11298 1.18813 0
M  V30 126 O 14.9588 -1.03388 1.4551 0
M  V30 127 C 12.0588 -1.88199 2.81841 0
M  V30 128 C 11.2318 -1.55211 4.08936 0
M  V30 129 C 10.2908 -2.64991 4.54606 0
M  V30 130 O 9.3168 -2.30929 5.2025 0
M  V30 131 N 10.5188 -3.95161 4.25238 0
M  V30 132 H 13.2838 -0.0801694 2.99593 0
M  V30 133 H 10.8448 0.102329 1.61576 0
M  V30 134 H 12.8368 -2.60948 3.09335 0
M  V30 135 H 11.4068 -2.34799 2.06369 0
M  V30 136 H 10.6268 -0.658185 3.88666 0
M  V30 137 H 11.9148 -1.30681 4.91732 0
M  V30 138 H 11.3128 -4.25653 3.72607 0
M  V30 139 H 9.8698 -4.6427 4.5749 0
M  V30 140 N 13.3029 -1.57598 0.00835791 0
M  V30 141 C 14.5309 -1.95214 -0.68549 0
M  V30 142 C 14.9459 -0.883706 -1.66841 0
M  V30 143 O 14.3029 0.136565 -1.81988 0
M  V30 144 C 14.3539 -3.32865 -1.41007 0
M  V30 145 O 14.0749 -4.35609 -0.466552 0
M  V30 146 C 15.5759 -3.84991 -2.19765 0
M  V30 147 H 12.7959 -0.643422 -0.190392 0
M  V30 148 H 15.3399 -2.04406 0.0619607 0
M  V30 149 H 13.4949 -3.24956 -2.10908 0
M  V30 150 H 13.9089 -5.15288 -0.978699 0
M  V30 151 H 15.3829 -4.8371 -2.65948 0
M  V30 152 H 15.8599 -3.18137 -3.02796 0
M  V30 153 H 16.4659 -3.96103 -1.54864 0
M  V30 154 N 14.781 0.264519 -1.55364 0
M  V30 155 C 15.691 1.34902 -1.91934 0
M  V30 156 C 16.707 1.53595 -0.817593 0
M  V30 157 O 17.883 1.67558 -1.11742 0
M  V30 158 C 14.948 2.68676 -2.19121 0
M  V30 159 C 14.009 2.58657 -3.4263 0
M  V30 160 C 13.242 3.86051 -3.68511 0
M  V30 161 O 13.465 4.87126 -2.96757 0
M  V30 162 O 12.399 3.85744 -4.62045 0
M  V30 163 H 16.225 1.06883 -2.8427 0
M  V30 164 H 13.81 0.463775 -1.42019 0
M  V30 165 H 15.692 3.47759 -2.37995 0
M  V30 166 H 14.367 2.96463 -1.29966 0
M  V30 167 H 13.274 1.7792 -3.29082 0
M  V30 168 H 14.607 2.35818 -4.32031 0
M  V30 169 N 16.2591 1.48442 0.529413 0
M  V30 170 C 17.6751 1.34575 0.858004 0
M  V30 171 C 17.8751 0.3572 1.98309 0
M  V30 172 O 16.9311 -0.221379 2.51528 0
M  V30 173 C 18.2441 2.74617 1.22499 0
M  V30 174 C 19.7921 2.83109 1.33484 0
M  V30 175 C 20.2671 4.23854 1.73526 0
M  V30 176 N 21.7581 4.2653 1.80628 0
M  V30 177 C 22.4931 5.32372 2.12997 0
M  V30 178 N 21.9891 6.48491 2.43786 0
M  V30 179 N 23.7821 5.19766 2.14008 0
M  V30 180 H 15.9331 2.1133 -0.212925 0
M  V30 181 H 18.1961 0.947439 -0.0326199 0
M  V30 182 H 17.9021 3.4852 0.471905 0
M  V30 183 H 17.7761 3.08177 2.17501 0
M  V30 184 H 20.1631 2.09462 2.0787 0
M  V30 185 H 20.2441 2.53168 0.366027 0
M  V30 186 H 19.8881 4.98018 0.997013 0
M  V30 187 H 19.8181 4.5124 2.71459 0
M  V30 188 H 22.3091 3.42772 1.59108 0
M  V30 189 H 22.6221 7.24993 2.67592 0
M  V30 190 H 20.9671 6.51765 2.41304 0
M  V30 191 H 24.1581 4.28066 1.89412 0
M  V30 192 H 24.3311 6.02354 2.38902 0
M  V30 193 N 17.7372 -0.778329 1.37039 0
M  V30 194 C 18.9862 -1.53189 1.3121 0
M  V30 195 C 19.2992 -1.95328 -0.103095 0
M  V30 196 O 20.5052 -2.70012 -0.283826 0
M  V30 197 C 18.9612 -2.76591 2.30272 0
M  V30 198 C 18.5692 -2.41577 3.77286 0
M  V30 199 C 20.3132 -3.5455 2.33441 0
M  V30 200 C 18.2202 -3.61441 4.68096 0
M  V30 201 H 17.1502 -0.5751 0.487622 0
M  V30 202 H 19.8012 -0.853101 1.62464 0
M  V30 203 H 18.1832 -3.46326 1.92027 0
M  V30 204 H 19.3572 -1.79668 4.2433 0
M  V30 205 H 17.6722 -1.76806 3.76999 0
M  V30 206 H 20.2692 -4.43628 2.98493 0
M  V30 207 H 20.6122 -3.93936 1.34611 0
M  V30 208 H 21.1452 -2.91805 2.7036 0
M  V30 209 H 17.8842 -3.27142 5.6803 0
M  V30 210 H 17.4042 -4.22478 4.25761 0
M  V30 211 H 19.0832 -4.28335 4.8491 0
M  V30 212 N 19.2153 -1.21501 -1.00376 0
M  V30 213 C 20.1633 -0.972442 -2.11297 0
M  V30 214 C 21.1573 0.080731 -1.69208 0
M  V30 215 O 22.3633 -0.0707666 -1.79861 0
M  V30 216 H 18.7383 -0.297218 -0.690772 0
M  V30 217 H 20.7093 -1.91394 -2.28934 0
M  V30 218 C 19.4583 -0.555065 -3.43241 0
M  V30 219 H 18.7813 -1.35709 -3.76062 0
M  V30 220 H 20.2213 -0.424664 -4.21868 0
M  V30 221 C 18.6803 0.734147 -3.28804 0
M  V30 222 O 19.2103 1.78937 -3.59645 0
M  V30 223 N 17.4163 0.701133 -2.82015 0
M  V30 224 H 16.9633 -0.157874 -2.57116 0
M  V30 225 H 16.9213 1.56403 -2.72737 0
M  V30 226 N 20.6934 1.19889 -1.02296 0
M  V30 227 C 21.9424 1.88743 -0.711257 0
M  V30 228 C 22.2554 1.80112 0.762817 0
M  V30 229 O 23.4614 2.44161 1.18733 0
M  V30 230 C 21.9174 3.38525 -1.22185 0
M  V30 231 C 21.5254 3.55727 -2.72328 0
M  V30 232 C 23.2694 4.12893 -0.985864 0
M  V30 233 C 21.1764 4.99369 -3.16835 0
M  V30 234 H 20.1064 0.706885 -0.262353 0
M  V30 235 H 22.7574 1.35586 -1.23648 0
M  V30 236 H 21.1394 3.91044 -0.624571 0
M  V30 237 H 22.3134 3.13564 -3.3766 0
M  V30 238 H 20.6284 2.94739 -2.9414 0
M  V30 239 H 23.2254 5.18813 -1.29374 0
M  V30 240 H 23.5684 4.16228 0.0775055 0
M  V30 241 H 24.1014 3.66494 -1.54684 0
M  V30 242 H 20.8404 5.01193 -4.22476 0
M  V30 243 H 20.3604 5.42317 -2.56228 0
M  V30 244 H 22.0394 5.67988 -3.09837 0
M  V30 245 N 22.1715 0.800033 1.35784 0
M  V30 246 C 23.1015 0.220184 2.3246 0
M  V30 247 C 24.0825 -0.65073 1.57161 0
M  V30 248 O 25.2675 -0.582359 1.85263 0
M  V30 249 C 22.3975 -0.637353 3.41402 0
M  V30 250 C 21.3515 0.134531 4.27789 0
M  V30 251 C 20.6775 -0.844285 5.27992 0
M  V30 252 C 21.9775 1.32979 5.05088 0
M  V30 253 H 23.6715 1.02787 2.81203 0
M  V30 254 H 21.2175 0.495717 1.35199 0
M  V30 255 H 23.1705 -1.05302 4.08031 0
M  V30 256 H 21.8945 -1.47785 2.91251 0
M  V30 257 H 20.5535 0.531296 3.6273 0
M  V30 258 H 20.2015 -1.68011 4.74111 0
M  V30 259 H 19.9015 -0.332184 5.8666 0
M  V30 260 H 21.4255 -1.2583 5.97494 0
M  V30 261 H 22.8395 0.98934 5.64699 0
M  V30 262 H 21.2365 1.77593 5.7322 0
M  V30 263 H 22.3065 2.11978 4.36111 0
M  V30 264 N 23.6496 -1.47581 0.552962 0
M  V30 265 C 24.5966 -2.29957 -0.197108 0
M  V30 266 C 25.5666 -1.38799 -0.912359 0
M  V30 267 O 26.7516 -1.67761 -0.908888 0
M  V30 268 C 23.8916 -3.22672 -1.22379 0
M  V30 269 C 23.0046 -4.28919 -0.515038 0
M  V30 270 C 22.1396 -5.0879 -1.52664 0
M  V30 271 C 21.1786 -6.06815 -0.802631 0
M  V30 272 N 20.3156 -6.7966 -1.76086 0
M  V30 273 H 25.1556 -2.93578 0.511486 0
M  V30 274 H 22.6926 -1.4471 0.264067 0
M  V30 275 H 24.6506 -3.74845 -1.83159 0
M  V30 276 H 23.2806 -2.60925 -1.90047 0
M  V30 277 H 22.3326 -3.79835 0.207192 0
M  V30 278 H 23.6446 -4.98773 0.0523425 0
M  V30 279 H 22.7986 -5.65091 -2.20809 0
M  V30 280 H 21.5376 -4.38828 -2.12794 0
M  V30 281 H 20.5426 -5.49695 -0.107238 0
M  V30 282 H 21.7676 -6.78784 -0.207135 0
M  V30 283 H 19.7136 -6.12432 -2.35081 0
M  V30 284 H 19.6306 -7.45669 -1.24552 0
M  V30 285 H 20.8986 -7.40538 -2.43359 0
M  V30 286 N 25.1277 -0.289203 -1.54924 0
M  V30 287 C 26.0907 0.579144 -2.21762 0
M  V30 288 C 27.0907 1.07047 -1.1999 0
M  V30 289 O 28.2807 0.968384 -1.44803 0
M  V30 290 C 25.4127 1.80055 -2.8947 0
M  V30 291 H 26.6057 -0.00464908 -2.999 0
M  V30 292 H 24.1587 -0.0399306 -1.56249 0
M  V30 293 H 24.8937 2.42449 -2.15381 0
M  V30 294 H 24.6787 1.45602 -3.64064 0
M  V30 295 H 26.1687 2.41773 -3.40493 0
M  V30 296 N 26.6058 1.57591 -0.0167156 0
M  V30 297 C 27.5378 2.06343 0.997753 0
M  V30 298 C 28.5508 0.984469 1.29661 0
M  V30 299 O 29.7398 1.26093 1.26344 0
M  V30 300 C 26.8398 2.46255 2.32834 0
M  V30 301 C 26.0128 3.77083 2.21646 0
M  V30 302 C 25.0718 4.0368 3.37534 0
M  V30 303 O 24.0978 4.7411 3.14973 0
M  V30 304 N 25.2998 3.52881 4.60929 0
M  V30 305 H 28.0648 2.93997 0.581875 0
M  V30 306 H 25.6258 1.61002 0.170316 0
M  V30 307 H 27.6178 2.61149 3.09166 0
M  V30 308 H 26.1878 1.64032 2.66106 0
M  V30 309 H 25.4078 3.72106 1.30119 0
M  V30 310 H 26.6958 4.62822 2.11361 0
M  V30 311 H 26.0938 2.95878 4.82154 0
M  V30 312 H 24.6508 3.73076 5.34469 0
M  V30 313 N 28.0839 -0.256276 1.55502 0
M  V30 314 C 29.3329 -0.983486 1.76098 0
M  V30 315 C 29.6459 -1.86837 0.578896 0
M  V30 316 O 30.8519 -2.63163 0.667648 0
M  V30 317 C 29.3079 -1.79868 3.1173 0
M  V30 318 C 28.9159 -0.961648 4.37557 0
M  V30 319 C 30.6599 -2.51919 3.41668 0
M  V30 320 C 28.5669 -1.77219 5.64223 0
M  V30 321 H 27.4969 -0.370936 0.656447 0
M  V30 322 H 30.1479 -0.238492 1.81944 0
M  V30 323 H 28.5299 -2.58527 2.99966 0
M  V30 324 H 29.7039 -0.218048 4.60284 0
M  V30 325 H 28.0189 -0.354913 4.14885 0
M  V30 326 H 30.6159 -3.12998 4.33516 0
M  V30 327 H 30.9589 -3.23059 2.62562 0
M  V30 328 H 31.4919 -1.80278 3.54605 0
M  V30 329 H 28.2309 -1.10471 6.46124 0
M  V30 330 H 27.7509 -2.49132 5.45613 0
M  V30 331 H 29.4299 -2.34169 6.03137 0
M  V30 332 N 29.562 -1.4872 -0.521534 0
M  V30 333 C 30.492 -1.66771 -1.63431 0
M  V30 334 C 31.473 -0.516499 -1.62069 0
M  V30 335 O 32.658 -0.750013 -1.79132 0
M  V30 336 C 29.788 -1.71515 -3.01993 0
M  V30 337 C 28.742 -2.86222 -3.18216 0
M  V30 338 C 28.068 -2.76061 -4.57924 0
M  V30 339 C 29.368 -4.27419 -3.00184 0
M  V30 340 H 31.062 -2.59932 -1.48579 0
M  V30 341 H 28.608 -1.25089 -0.713358 0
M  V30 342 H 30.561 -1.82731 -3.7972 0
M  V30 343 H 29.285 -0.749393 -3.17886 0
M  V30 344 H 27.944 -2.74575 -2.42908 0
M  V30 345 H 27.592 -1.77437 -4.70665 0
M  V30 346 H 27.292 -3.53037 -4.69722 0
M  V30 347 H 28.816 -2.89256 -5.37739 0
M  V30 348 H 30.23 -4.39855 -3.67697 0
M  V30 349 H 28.627 -5.05458 -3.2347 0
M  V30 350 H 29.697 -4.43293 -1.96518 0
M  V30 351 N 31.0401 0.771051 -1.3745 0
M  V30 352 C 31.9881 1.90574 -1.33358 0
M  V30 353 C 32.9821 1.67936 -0.22224 0
M  V30 354 O 34.1881 1.75717 -0.390304 0
M  V30 355 H 30.5631 0.626714 -0.415612 0
M  V30 356 H 32.5341 1.91142 -2.29144 0
M  V30 357 C 31.2831 3.27845 -1.15813 0
M  V30 358 H 30.6061 3.45842 -2.00583 0
M  V30 359 H 32.0461 4.07538 -1.17 0
M  V30 360 C 30.5051 3.36625 0.136165 0
M  V30 361 O 31.0351 3.85785 1.11949 0
M  V30 362 N 29.2411 2.89997 0.187099 0
M  V30 363 H 28.7881 2.50182 -0.613753 0
M  V30 364 H 28.7461 2.96252 1.05272 0
M  V30 365 N 32.5182 1.22032 0.997298 0
M  V30 366 C 33.4812 0.987909 2.06816 0
M  V30 367 C 34.4812 -0.0440084 1.6074 0
M  V30 368 O 35.6712 0.194053 1.73116 0
M  V30 369 C 32.8032 0.49132 3.37341 0
M  V30 370 H 33.9962 1.93803 2.28868 0
M  V30 371 H 31.5492 1.03838 1.16822 0
M  V30 372 H 32.2842 -0.463364 3.20973 0
M  V30 373 H 32.0692 1.23575 3.72118 0
M  V30 374 H 33.5592 0.348824 4.16141 0
M  V30 375 N 33.9963 -1.19345 1.0293 0
M  V30 376 C 34.9433 -2.2258 0.610464 0
M  V30 377 C 35.9133 -1.6179 -0.375946 0
M  V30 378 O 37.0983 -1.88844 -0.272511 0
M  V30 379 C 34.2383 -3.45085 -0.0321473 0
M  V30 380 C 33.3513 -4.20258 1.00035 0
M  V30 381 C 32.4863 -5.3019 0.32746 0
M  V30 382 C 31.5253 -5.97121 1.34584 0
M  V30 383 N 30.6623 -6.98615 0.698726 0
M  V30 384 H 35.5023 -2.57764 1.49538 0
M  V30 385 H 33.0393 -1.26644 0.748311 0
M  V30 386 H 34.9973 -4.15061 -0.421966 0
M  V30 387 H 33.6273 -3.10555 -0.88064 0
M  V30 388 H 32.6793 -3.49223 1.50823 0
M  V30 389 H 33.9913 -4.66175 1.77433 0
M  V30 390 H 33.1453 -6.06587 -0.11718 0
M  V30 391 H 31.8843 -4.85345 -0.478713 0
M  V30 392 H 30.8893 -5.19474 1.80074 0
M  V30 393 H 32.1143 -6.4405 2.15352 0
M  V30 394 H 30.0603 -6.55942 -0.0873471 0
M  V30 395 H 29.9773 -7.42724 1.41058 0
M  V30 396 H 31.2453 -7.79004 0.278102 0
M  V30 397 N 35.4744 -0.807222 -1.35358 0
M  V30 398 C 36.8854 -0.44876 -1.81226 0
M  V30 399 C 37.2364 1.02929 -1.67033 0
M  V30 400 O 36.3614 1.79991 -1.20133 0
M  V30 401 C 36.9564 -0.807774 -3.2903 0
M  V30 402 C 35.5154 -0.501901 -3.73039 0
M  V30 403 C 34.6624 -1.03304 -2.57339 0
M  V30 404 H 37.6134 -0.998808 -1.23327 0
M  V30 405 H 37.6344 -0.10554 -3.80354 0
M  V30 406 H 37.1464 -1.88357 -3.39328 0
M  V30 407 H 35.2474 0.565128 -3.68289 0
M  V30 408 H 35.3604 -1.03497 -4.67787 0
M  V30 409 H 33.7244 -0.455339 -2.50597 0
M  V30 410 H 34.5074 -2.11496 -2.70415 0
M  V30 411 N 36.9525 1.47285 -0.560781 0
M  V30 412 C 38.1925 2.0436 -0.0404627 0
M  V30 413 C 38.5565 1.42534 1.28639 0
M  V30 414 O 39.7575 1.90677 1.89462 0
M  V30 415 C 38.0285 3.57369 0.0471856 0
M  V30 416 S 39.5875 4.3579 0.513109 0
M  V30 417 H 36.4055 0.710492 -0.0268674 0
M  V30 418 H 39.0075 1.80611 -0.748323 0
M  V30 419 H 37.7115 3.9989 -0.922817 0
M  V30 420 H 37.2425 3.8562 0.778491 0
M  V30 421 H 39.2575 4.63476 1.77212 0
M  V30 422 N 38.4306 0.297415 1.54768 0
M  V30 423 C 39.6766 -0.313376 2.00364 0
M  V30 424 C 40.0096 -1.53815 1.18553 0
M  V30 425 O 39.2846 -1.92739 0.261103 0
M  V30 426 C 39.5676 -0.673525 3.53745 0
M  V30 427 C 39.4206 0.560133 4.46299 0
M  V30 428 C 40.7396 -1.50143 4.13697 0
M  V30 429 H 37.8586 -0.112428 0.728374 0
M  V30 430 H 40.5006 0.4088 1.8555 0
M  V30 431 H 38.6506 -1.28881 3.665 0
M  V30 432 H 40.3226 1.19863 4.45455 0
M  V30 433 H 38.5656 1.19405 4.17043 0
M  V30 434 H 39.2366 0.26405 5.51368 0
M  V30 435 H 41.7126 -0.981588 4.04356 0
M  V30 436 H 40.5886 -1.72221 5.21182 0
M  V30 437 H 40.8496 -2.48952 3.65343 0
M  V30 438 N 39.9087 -1.5758 0.0250728 0
M  V30 439 C 40.8187 -2.1343 -0.973905 0
M  V30 440 C 41.8347 -1.08556 -1.35984 0
M  V30 441 O 43.0107 -1.40592 -1.44207 0
M  V30 442 C 40.0757 -2.64703 -2.23904 0
M  V30 443 C 39.1367 -3.84276 -1.91391 0
M  V30 444 C 38.3697 -4.33095 -3.11873 0
M  V30 445 O 38.5927 -3.81107 -4.24398 0
M  V30 446 O 37.5267 -5.24984 -2.94406 0
M  V30 447 H 41.3527 -2.99057 -0.529036 0
M  V30 448 H 38.9377 -1.48118 -0.195288 0
M  V30 449 H 40.8197 -2.97769 -2.98181 0
M  V30 450 H 39.4947 -1.82161 -2.6758 0
M  V30 451 H 38.4017 -3.56143 -1.14511 0
M  V30 452 H 39.7347 -4.67968 -1.52534 0
M  V30 453 N 41.3868 0.248026 -1.55636 0
M  V30 454 C 42.6118 0.998028 -1.81808 0
M  V30 455 C 43.0368 1.78207 -0.601979 0
M  V30 456 O 42.3948 1.75653 0.448961 0
M  V30 457 C 42.4428 1.9125 -3.05705 0
M  V30 458 O 41.5468 3.00406 -2.82542 0
M  V30 459 H 40.8878 0.284045 -0.600179 0
M  V30 460 H 43.4178 0.269357 -2.02819 0
M  V30 461 H 43.4278 2.32737 -3.35108 0
M  V30 462 H 42.1028 1.33602 -3.93857 0
M  V30 463 H 40.6798 2.63056 -2.64303 0
M  V30 464 N 42.8649 1.48995 0.513639 0
M  V30 465 C 43.7749 1.67443 1.64317 0
M  V30 466 C 44.7909 0.556947 1.64846 0
M  V30 467 O 45.9669 0.830082 1.83498 0
M  V30 468 C 43.0319 1.72515 3.00732 0
M  V30 469 C 42.0929 2.96009 3.1093 0
M  V30 470 C 41.3259 3.00829 4.40837 0
M  V30 471 O 41.5489 2.13594 5.28898 0
M  V30 472 O 40.4829 3.93168 4.55744 0
M  V30 473 H 44.3089 2.63106 1.51687 0
M  V30 474 H 41.8939 1.32588 0.688543 0
M  V30 475 H 43.7759 1.78277 3.81831 0
M  V30 476 H 42.4509 0.800278 3.13651 0
M  V30 477 H 41.3579 2.9577 2.29065 0
M  V30 478 H 42.6909 3.87934 3.02933 0
M  V30 479 N 44.343 -0.763751 1.37857 0
M  V30 480 C 45.759 -1.06542 1.18832 0
M  V30 481 C 45.959 -2.01478 0.0299722 0
M  V30 482 O 45.015 -2.4458 -0.627447 0
M  V30 483 C 46.328 -1.65525 2.51042 0
M  V30 484 C 47.876 -1.77745 2.57635 0
M  V30 485 C 48.351 -2.4014 3.89996 0
M  V30 486 N 49.842 -2.47582 3.91481 0
M  V30 487 C 50.577 -2.96732 4.9065 0
M  V30 488 N 50.073 -3.45993 6.00217 0
M  V30 489 N 51.866 -2.95679 4.78048 0
M  V30 490 H 44.017 -0.133556 2.1198 0
M  V30 491 H 46.28 -0.121879 0.940133 0
M  V30 492 H 45.986 -1.03236 3.36207 0
M  V30 493 H 45.86 -2.64719 2.68707 0
M  V30 494 H 48.247 -2.39164 1.72872 0
M  V30 495 H 48.328 -0.772836 2.43846 0
M  V30 496 H 47.972 -1.79358 4.75177 0
M  V30 497 H 47.902 -3.41223 4.01092 0
M  V30 498 H 50.393 -2.1273 3.12337 0
M  V30 499 H 50.706 -3.81922 6.7183 0
M  V30 500 H 49.051 -3.44077 6.03851 0
M  V30 501 H 52.242 -2.56499 3.91568 0
M  V30 502 H 52.415 -3.33672 5.55488 0
M  V30 503 N 45.8211 -1.22559 -0.990812 0
M  V30 504 C 46.7841 -0.998863 -2.0629 0
M  V30 505 C 47.7841 0.0354834 -1.60761 0
M  V30 506 O 48.9741 -0.203231 -1.7301 0
M  V30 507 C 46.1061 -0.509203 -3.37076 0
M  V30 508 H 47.2991 -1.95014 -2.27837 0
M  V30 509 H 44.8521 -1.04456 -1.16269 0
M  V30 510 H 45.5871 0.446335 -3.21214 0
M  V30 511 H 45.3721 -1.25547 -3.71457 0
M  V30 512 H 46.8621 -0.370888 -4.1595 0
M  V30 513 N 47.2992 1.18797 -1.03562 0
M  V30 514 C 48.5482 1.87978 -0.731235 0
M  V30 515 C 48.8612 1.80911 0.743671 0
M  V30 516 O 50.0672 2.45407 1.16137 0
M  V30 517 C 48.5232 3.3721 -1.25768 0
M  V30 518 C 48.1312 3.52818 -2.76085 0
M  V30 519 C 49.8752 4.11825 -1.0296 0
M  V30 520 C 47.7822 4.9598 -3.22114 0
M  V30 521 H 46.7122 0.704063 -0.269835 0
M  V30 522 H 49.3632 1.34266 -1.25079 0
M  V30 523 H 47.7452 3.90359 -0.666011 0
M  V30 524 H 48.9192 3.09965 -3.40966 0
M  V30 525 H 47.2342 2.91602 -2.97249 0
M  V30 526 H 49.8312 5.17411 -1.34869 0
M  V30 527 H 50.1742 4.16287 0.0333546 0
M  V30 528 H 50.7072 3.64833 -1.58562 0
M  V30 529 H 47.4462 4.96684 -4.27768 0
M  V30 530 H 46.9662 5.39569 -2.61965 0
M  V30 531 H 48.6452 5.6467 -3.15844 0
M  V30 532 N 48.7773 0.814389 1.34928 0
M  V30 533 C 49.7073 0.244827 2.32213 0
M  V30 534 C 50.6883 -0.634024 1.57842 0
M  V30 535 O 51.8733 -0.562676 1.8587 0
M  V30 536 C 49.0033 -0.601106 3.42058 0
M  V30 537 C 47.9573 0.179896 4.27622 0
M  V30 538 C 47.2833 -0.788237 5.28858 0
M  V30 539 C 48.5833 1.38329 5.03649 0
M  V30 540 H 50.2773 1.05763 2.80097 0
M  V30 541 H 47.8233 0.510029 1.34665 0
M  V30 542 H 49.7763 -1.00968 4.09125 0
M  V30 543 H 48.5003 -1.44688 2.92802 0
M  V30 544 H 47.1593 0.569739 3.62146 0
M  V30 545 H 46.8073 -1.62973 4.75866 0
M  V30 546 H 46.5073 -0.269942 5.8698 0
M  V30 547 H 48.0313 -1.19485 5.98795 0
M  V30 548 H 49.4453 1.04918 5.63618 0
M  V30 549 H 47.8423 1.83662 5.71304 0
M  V30 550 H 48.9123 2.16592 4.33839 0
M  V30 551 N 50.2554 -1.46986 0.568584 0
M  V30 552 C 51.5044 -2.01646 0.0465894 0
M  V30 553 C 51.8174 -1.44721 -1.31587 0
M  V30 554 O 53.0234 -1.91113 -1.92842 0
M  V30 555 C 51.4794 -3.59885 0.032752 0
M  V30 556 C 51.0874 -4.25804 1.39266 0
M  V30 557 C 52.8314 -4.22255 -0.436038 0
M  V30 558 C 50.7384 -5.76081 1.33732 0
M  V30 559 H 49.6684 -0.753876 0.013647 0
M  V30 560 H 52.3194 -1.68864 0.718131 0
M  V30 561 H 50.7014 -3.8968 -0.704669 0
M  V30 562 H 51.8754 -4.07637 2.1487 0
M  V30 563 H 50.1904 -3.7547 1.80032 0
M  V30 564 H 52.7874 -5.32394 -0.49602 0
M  V30 565 H 53.1304 -3.90212 -1.45053 0
M  V30 566 H 53.6634 -3.97033 0.246877 0
M  V30 567 H 50.4024 -6.12761 2.32817 0
M  V30 568 H 49.9224 -5.96553 0.623267 0
M  V30 569 H 51.6014 -6.38518 1.0442 0
M  V30 570 N 51.7335 -0.305618 -1.54608 0
M  V30 571 C 52.9615 0.304775 -2.04643 0
M  V30 572 C 53.3765 1.47167 -1.18268 0
M  V30 573 O 52.7335 1.81296 -0.209328 0
M  V30 574 C 52.7845 0.756564 -3.53495 0
M  V30 575 O 52.5055 -0.36389 -4.36586 0
M  V30 576 C 54.0065 1.43163 -4.19546 0
M  V30 577 H 51.2265 0.0655481 -0.667791 0
M  V30 578 H 53.7705 -0.446592 -1.99564 0
M  V30 579 H 51.9255 1.45794 -3.58919 0
M  V30 580 H 52.3395 -0.0113121 -5.24499 0
M  V30 581 H 53.8135 1.69886 -5.25207 0
M  V30 582 H 54.2905 2.37318 -3.69563 0
M  V30 583 H 54.8965 0.773307 -4.18211 0
M  V30 584 N 53.2116 1.57565 -0.0334293 0
M  V30 585 C 54.1216 2.13943 0.962572 0
M  V30 586 C 55.1376 1.09276 1.35406 0
M  V30 587 O 56.3136 1.41355 1.4346 0
M  V30 588 C 53.3786 2.65887 2.22497 0
M  V30 589 C 52.4396 3.85286 1.8935 0
M  V30 590 C 51.6726 4.34743 3.09571 0
M  V30 591 O 51.8956 3.83352 4.22371 0
M  V30 592 O 50.8296 5.26538 2.91618 0
M  V30 593 H 54.6556 2.99333 0.513169 0
M  V30 594 H 52.2406 1.4822 0.18743 0
M  V30 595 H 54.1226 2.99346 2.96598 0
M  V30 596 H 52.7976 1.83578 2.6661 0
M  V30 597 H 51.7046 3.56746 1.1262 0
M  V30 598 H 53.0376 4.68771 1.5005 0
M  V30 599 N 54.6897 -0.239769 1.55765 0
M  V30 600 C 55.9147 -0.988373 1.82335 0
M  V30 601 C 56.3397 -1.77886 0.611421 0
M  V30 602 O 55.6977 -1.75889 -0.439639 0
M  V30 603 C 55.7457 -1.89627 3.06715 0
M  V30 604 O 54.8497 -2.98904 2.84131 0
M  V30 605 H 54.1907 -0.280858 0.601677 0
M  V30 606 H 56.7207 -0.258597 2.02959 0
M  V30 607 H 56.7307 -2.30957 3.36338 0
M  V30 608 H 55.4057 -1.31511 3.9456 0
M  V30 609 H 53.9827 -2.61651 2.65694 0
M  V30 610 N 56.1678 -1.49265 -0.50573 0
M  V30 611 C 57.4148 -1.58513 -1.26015 0
M  V30 612 C 57.7428 -0.26972 -1.92621 0
M  V30 613 O 56.9978 0.741997 -1.81088 0
M  V30 614 C 57.2968 -2.69008 -2.35308 0
M  V30 615 C 56.9628 -4.10662 -1.86192 0
M  V30 616 C 55.6248 -4.49212 -1.72516 0
M  V30 617 C 57.9768 -4.99336 -1.49375 0
M  V30 618 C 55.3048 -5.74214 -1.20394 0
M  V30 619 C 57.6568 -6.24852 -0.987072 0
M  V30 620 C 56.3208 -6.62236 -0.836669 0
M  V30 621 H 55.5908 -0.580041 -0.461122 0
M  V30 622 H 58.2378 -1.83078 -0.561665 0
M  V30 623 H 56.5428 -2.38396 -3.10926 0
M  V30 624 H 58.2398 -2.73373 -2.93374 0
M  V30 625 H 54.8298 -3.8023 -1.97795 0
M  V30 626 H 59.0138 -4.70212 -1.5879 0
M  V30 627 H 54.2698 -6.01883 -1.07458 0
M  V30 628 H 58.4438 -6.92944 -0.692983 0
M  V30 629 H 56.0708 -7.58979 -0.430607 0
M  V30 630 N 57.6459 0.756429 -1.3826 0
M  V30 631 C 58.5929 1.87011 -1.35261 0
M  V30 632 C 59.5629 1.64695 -0.215616 0
M  V30 633 O 60.7479 1.864 -0.407399 0
M  V30 634 C 57.8879 3.24275 -1.18068 0
M  V30 635 C 57.0009 3.58442 -2.41129 0
M  V30 636 C 56.1359 4.84994 -2.16689 0
M  V30 637 C 55.1749 5.11939 -3.35537 0
M  V30 638 N 54.3119 6.29685 -3.10549 0
M  V30 639 H 59.1519 1.8891 -2.30472 0
M  V30 640 H 56.6889 0.923373 -1.14509 0
M  V30 641 H 58.6469 4.03479 -1.06116 0
M  V30 642 H 57.2769 3.21711 -0.264973 0
M  V30 643 H 56.3289 2.74103 -2.63764 0
M  V30 644 H 57.6409 3.74283 -3.29717 0
M  V30 645 H 56.7949 5.72135 -2.01857 0
M  V30 646 H 55.5339 4.71286 -1.25462 0
M  V30 647 H 54.5389 4.23268 -3.50891 0
M  V30 648 H 55.7639 5.27546 -4.27635 0
M  V30 649 H 53.7099 6.17306 -2.21967 0
M  V30 650 H 53.6269 6.46014 -3.92686 0
M  V30 651 H 54.8949 7.19722 -2.99367 0
M  V30 652 N 59.124 1.23083 0.984299 0
M  V30 653 C 60.056 0.96636 2.07832 0
M  V30 654 C 61.069 -0.0582135 1.62696 0
M  V30 655 O 62.258 0.176843 1.77622 0
M  V30 656 C 59.358 0.433397 3.36117 0
M  V30 657 C 58.531 1.51722 4.10243 0
M  V30 658 C 57.59 0.989821 5.16807 0
M  V30 659 O 56.616 1.67794 5.43906 0
M  V30 660 N 57.818 -0.184367 5.80207 0
M  V30 661 H 60.583 1.90824 2.31098 0
M  V30 662 H 58.144 1.13888 1.1507 0
M  V30 663 H 60.136 0.065699 4.04647 0
M  V30 664 H 58.706 -0.413806 3.09849 0
M  V30 665 H 57.926 2.05786 3.36223 0
M  V30 666 H 59.214 2.24619 4.56534 0
M  V30 667 H 58.612 -0.760062 5.60571 0
M  V30 668 H 57.169 -0.493366 6.4993 0
M  V30 669 N 60.6021 -1.18246 1.0419 0
M  V30 670 C 61.8301 -1.92195 0.766072 0
M  V30 671 C 62.2451 -1.76247 -0.676933 0
M  V30 672 O 61.6021 -1.09293 -1.46155 0
M  V30 673 C 61.6531 -3.43568 1.12442 0
M  V30 674 O 61.3741 -3.59015 2.51078 0
M  V30 675 C 62.8751 -4.34613 0.873275 0
M  V30 676 H 60.0951 -0.610114 0.279288 0
M  V30 677 H 62.6391 -1.50007 1.38989 0
M  V30 678 H 60.7941 -3.8354 0.545542 0
M  V30 679 H 61.2081 -4.5273 2.64831 0
M  V30 680 H 62.6821 -5.39374 1.17385 0
M  V30 681 H 63.1591 -4.38781 -0.191909 0
M  V30 682 H 63.7651 -4.00341 1.43551 0
M  V30 683 N 62.0802 -0.821533 -1.34494 0
M  V30 684 C 62.9902 -0.244355 -2.33324 0
M  V30 685 C 64.0062 0.620527 -1.62559 0
M  V30 686 O 65.1822 0.528754 -1.94335 0
M  V30 687 C 62.2472 0.585368 -3.41723 0
M  V30 688 C 61.3082 -0.301752 -4.28238 0
M  V30 689 C 60.5412 0.488466 -5.3146 0
M  V30 690 O 60.7642 1.72186 -5.4379 0
M  V30 691 O 59.6982 -0.12848 -6.01763 0
M  V30 692 H 63.5242 -1.06231 -2.84515 0
M  V30 693 H 61.1092 -0.583645 -1.37528 0
M  V30 694 H 62.9912 1.05747 -4.07916 0
M  V30 695 H 61.6662 1.38068 -2.92778 0
M  V30 696 H 60.5732 -0.821315 -3.64973 0
M  V30 697 H 61.9062 -1.06138 -4.8062 0
M  V30 698 N 63.5583 1.46682 -0.576371 0
M  V30 699 C 64.8063 2.02013 -0.0594163 0
M  V30 700 C 65.1273 1.45101 1.30271 0
M  V30 701 O 64.3973 0.633317 1.8538 0
M  V30 702 H 62.9773 0.746759 -0.0189745 0
M  V30 703 H 65.6393 1.79862 -0.750717 0
M  V30 704 H 64.7353 3.12097 0.014345 0
M  V30 705 N 65.0364 0.313813 1.54444 0
M  V30 706 C 65.9684 -0.590425 2.21465 0
M  V30 707 C 66.9814 -1.08753 1.21147 0
M  V30 708 O 68.1704 -1.00278 1.4767 0
M  V30 709 C 65.2704 -1.82179 2.85769 0
M  V30 710 C 64.4434 -1.46502 4.12136 0
M  V30 711 C 63.5024 -2.55288 4.60124 0
M  V30 712 O 62.5284 -2.19842 5.25032 0
M  V30 713 N 63.7304 -3.86053 4.33525 0
M  V30 714 H 66.4954 -0.0166033 2.99695 0
M  V30 715 H 64.0564 0.136578 1.61323 0
M  V30 716 H 66.0484 -2.54328 3.14801 0
M  V30 717 H 64.6184 -2.30369 2.11303 0
M  V30 718 H 63.8384 -0.575595 3.89975 0
M  V30 719 H 65.1264 -1.20221 4.94393 0
M  V30 720 H 64.5244 -4.17654 3.81552 0
M  V30 721 H 63.0814 -4.54461 4.67235 0
M  V30 722 N 66.5145 -1.57545 0.0417849 0
M  V30 723 C 67.9255 -1.80011 -0.495259 0
M  V30 724 C 68.2765 -0.953199 -1.71489 0
M  V30 725 O 67.4015 -0.167138 -2.15754 0
M  V30 726 C 67.9965 -3.26482 -0.905265 0
M  V30 727 C 66.5555 -3.499 -1.38734 0
M  V30 728 C 65.7025 -2.74979 -0.358056 0
M  V30 729 H 68.6535 -1.56425 0.267736 0
M  V30 730 H 68.6745 -3.36887 -1.76882 0
M  V30 731 H 68.1865 -3.88096 -0.017401 0
M  V30 732 H 66.2875 -2.93553 -2.29471 0
M  V30 733 H 66.4005 -4.58615 -1.38598 0
M  V30 734 H 64.7645 -2.40834 -0.828912 0
M  V30 735 H 65.5475 -3.39315 0.521561 0
M  V30 736 N 67.9926 0.231505 -1.5589 0
M  V30 737 C 68.9556 1.27028 -1.90779 0
M  V30 738 C 69.9556 1.40308 -0.785507 0
M  V30 739 O 71.1456 1.38744 -1.05336 0
M  V30 740 C 68.2776 2.64566 -2.14983 0
M  V30 741 H 69.4706 0.973017 -2.83677 0
M  V30 742 H 67.0236 0.471486 -1.49019 0
M  V30 743 H 67.7586 2.99406 -1.24604 0
M  V30 744 H 67.5436 2.56305 -2.96732 0
M  V30 745 H 69.0336 3.39543 -2.43105 0
M  V30 746 N 69.4707 1.49531 0.497807 0
M  V30 747 C 70.7197 1.58426 1.24837 0
M  V30 748 C 71.0327 0.277643 1.93619 0
M  V30 749 O 72.2387 0.24517 2.70391 0
M  V30 750 C 70.6947 2.79538 2.26686 0
M  V30 751 C 70.3027 4.16971 1.63828 0
M  V30 752 C 72.0467 2.97764 3.0255 0
M  V30 753 C 69.9537 5.29301 2.63807 0
M  V30 754 H 68.8837 0.58989 0.469623 0
M  V30 755 H 71.5347 1.75923 0.521857 0
M  V30 756 H 69.9167 2.55542 3.02514 0
M  V30 757 H 71.0907 4.51116 0.939711 0
M  V30 758 H 69.4057 4.04129 1.00342 0
M  V30 759 H 72.0027 3.78856 3.77323 0
M  V30 760 H 72.3457 2.08448 3.60354 0
M  V30 761 H 72.8787 3.21815 2.33838 0
M  V30 762 H 69.6177 6.20687 2.10779 0
M  V30 763 H 69.1377 4.99606 3.31894 0
M  V30 764 H 70.8167 5.58768 3.2617 0
M  V30 765 N 70.9488 -0.749086 1.3866 0
M  V30 766 C 71.8788 -1.8764 1.38973 0
M  V30 767 C 72.8598 -1.68178 0.255004 0
M  V30 768 O 74.0448 -1.88704 0.458754 0
M  V30 769 C 71.1748 -3.25222 1.21851 0
M  V30 770 C 70.1288 -3.59295 2.32575 0
M  V30 771 C 69.4548 -4.95663 2.00555 0
M  V30 772 C 70.7548 -3.63709 3.7485 0
M  V30 773 H 72.4488 -1.87635 2.3331 0
M  V30 774 H 69.9948 -0.901329 1.12303 0
M  V30 775 H 71.9478 -4.03746 1.20695 0
M  V30 776 H 70.6718 -3.25719 0.239775 0
M  V30 777 H 69.3308 -2.83093 2.32925 0
M  V30 778 H 68.9788 -4.92724 1.01154 0
M  V30 779 H 68.6788 -5.19429 2.74714 0
M  V30 780 H 70.2028 -5.7656 2.01024 0
M  V30 781 H 71.6168 -4.32338 3.76506 0
M  V30 782 H 70.0138 -3.98986 4.48252 0
M  V30 783 H 71.0838 -2.63834 4.06841 0
M  V30 784 N 72.4269 -1.23603 -0.977757 0
M  V30 785 C 73.8429 -0.999251 -1.24447 0
M  V30 786 C 74.0429 0.298053 -1.99283 0
M  V30 787 O 73.0989 1.01681 -2.31122 0
M  V30 788 C 74.4119 -2.20784 -2.04144 0
M  V30 789 C 75.9599 -2.25303 -2.17273 0
M  V30 790 C 76.4349 -3.45755 -3.00362 0
M  V30 791 N 77.9259 -3.4601 -3.07947 0
M  V30 792 C 78.6609 -4.35868 -3.72568 0
M  V30 793 N 78.1569 -5.35966 -4.38991 0
M  V30 794 N 79.9499 -4.23605 -3.6948 0
M  V30 795 H 72.1009 -2.06986 -0.476483 0
M  V30 796 H 74.3639 -0.907801 -0.273134 0
M  V30 797 H 74.0699 -3.14945 -1.56533 0
M  V30 798 H 73.9439 -2.22085 -3.04891 0
M  V30 799 H 76.3309 -1.3168 -2.64092 0
M  V30 800 H 76.4119 -2.28033 -1.15907 0
M  V30 801 H 76.0559 -4.39687 -2.5424 0
M  V30 802 H 75.9859 -3.40266 -4.01904 0
M  V30 803 H 78.4769 -2.73588 -2.60688 0
M  V30 804 H 78.7899 -6.00783 -4.86086 0
M  V30 805 H 77.1349 -5.39863 -4.37691 0
M  V30 806 H 80.3259 -3.44647 -3.16759 0
M  V30 807 H 80.4989 -4.93836 -4.1956 0
M  V30 808 N 73.905 1.17692 -1.04816 0
M  V30 809 C 75.321 1.39863 -0.768794 0
M  V30 810 C 75.521 1.91118 0.638451 0
M  V30 811 O 74.577 2.10036 1.40146 0
M  V30 812 C 75.89 2.39274 -1.82122 0
M  V30 813 C 77.438 2.52987 -1.843 0
M  V30 814 C 77.913 3.55669 -2.88555 0
M  V30 815 N 79.404 3.63183 -2.87493 0
M  V30 816 C 80.139 4.42381 -3.64811 0
M  V30 817 N 79.635 5.25125 -4.51903 0
M  V30 818 N 81.428 4.37217 -3.53267 0
M  V30 819 H 73.579 0.82752 -1.95617 0
M  V30 820 H 75.842 0.426123 -0.846831 0
M  V30 821 H 75.548 2.08678 -2.83102 0
M  V30 822 H 75.422 3.38725 -1.65967 0
M  V30 823 H 77.809 2.82896 -0.839869 0
M  V30 824 H 77.89 1.53623 -2.04532 0
M  V30 825 H 77.534 3.26499 -3.89051 0
M  V30 826 H 77.464 4.54728 -2.65575 0
M  V30 827 H 79.955 3.04103 -2.24343 0
M  V30 828 H 80.268 5.82728 -5.07591 0
M  V30 829 H 78.613 5.24519 -4.55966 0
M  V30 830 H 81.804 3.71626 -2.84625 0
M  V30 831 H 81.977 4.98696 -4.13771 0
M  V30 832 N 75.3831 0.828654 1.34056 0
M  V30 833 C 76.3461 0.259927 2.27721 0
M  V30 834 C 77.3461 -0.565478 1.50529 0
M  V30 835 O 78.5361 -0.38075 1.69988 0
M  V30 836 C 75.6681 -0.634944 3.34935 0
M  V30 837 H 76.8611 1.0863 2.79534 0
M  V30 838 H 74.4141 0.600951 1.44285 0
M  V30 839 H 75.1491 -1.48416 2.88346 0
M  V30 840 H 74.9341 -0.0444999 3.92075 0
M  V30 841 H 76.4241 -1.02648 4.04788 0
M  V30 842 N 76.8612 -1.46375 0.584142 0
M  V30 843 C 77.7912 -2.33103 -0.136037 0
M  V30 844 C 78.7722 -1.45431 -0.882255 0
M  V30 845 O 79.9572 -1.74246 -0.857434 0
M  V30 846 C 77.0872 -3.27731 -1.14933 0
M  V30 847 C 76.0412 -4.24855 -0.517862 0
M  V30 848 C 75.3672 -5.09001 -1.63773 0
M  V30 849 C 76.6672 -5.19439 0.545886 0
M  V30 850 H 78.3612 -2.93568 0.588086 0
M  V30 851 H 75.9072 -1.41166 0.284259 0
M  V30 852 H 77.8602 -3.87261 -1.66153 0
M  V30 853 H 76.5842 -2.65377 -1.90375 0
M  V30 854 H 75.2432 -3.6659 -0.0267361 0
M  V30 855 H 74.8912 -4.43031 -2.38185 0
M  V30 856 H 74.5912 -5.74777 -1.22085 0
M  V30 857 H 76.1152 -5.71396 -2.15266 0
M  V30 858 H 77.5292 -5.73177 0.118704 0
M  V30 859 H 75.9262 -5.93566 0.88317 0
M  V30 860 H 76.9962 -4.63285 1.43162 0
M  V30 861 N 78.3393 -0.321999 -1.54275 0
M  V30 862 C 79.3023 0.531975 -2.22941 0
M  V30 863 C 80.3023 1.04478 -1.22234 0
M  V30 864 O 81.4923 0.937452 -1.46825 0
M  V30 865 C 78.6243 1.73874 -2.93224 0
M  V30 866 H 79.8173 -0.0682612 -2.99822 0
M  V30 867 H 77.3703 -0.0730644 -1.56129 0
M  V30 868 H 78.1053 2.37825 -2.20476 0
M  V30 869 H 77.8903 1.37847 -3.6707 0
M  V30 870 H 79.3803 2.34496 -3.45545 0
M  V30 871 N 79.8174 1.5752 -0.0501392 0
M  V30 872 C 80.7474 2.14502 0.922566 0
M  V30 873 C 81.7284 1.06642 1.3252 0
M  V30 874 O 82.9134 1.34577 1.4001 0
M  V30 875 C 80.0434 2.68916 2.19776 0
M  V30 876 C 78.9974 3.8175 1.93523 0
M  V30 877 C 78.3234 4.22677 3.27487 0
M  V30 878 C 79.6234 5.06932 1.25765 0
M  V30 879 H 81.3174 2.9603 0.447952 0
M  V30 880 H 78.8634 1.42401 0.214024 0
M  V30 881 H 80.8164 3.07419 2.88222 0
M  V30 882 H 79.5404 1.84578 2.69441 0
M  V30 883 H 78.1994 3.43718 1.27489 0
M  V30 884 H 77.8474 3.35291 3.74952 0
M  V30 885 H 77.5474 4.98725 3.1072 0
M  V30 886 H 79.0714 4.63779 3.97166 0
M  V30 887 H 80.4854 5.42888 1.84244 0
M  V30 888 H 78.8824 5.88116 1.19328 0
M  V30 889 H 79.9524 4.84337 0.233536 0
M  V30 890 N 81.2955 -0.223234 1.56011 0
M  V30 891 C 82.2425 -1.27664 1.92277 0
M  V30 892 C 83.2125 -1.46659 0.779763 0
M  V30 893 O 84.3975 -1.60256 1.03551 0
M  V30 894 C 81.5375 -2.62234 2.24338 0
M  V30 895 C 80.6505 -2.51051 3.51564 0
M  V30 896 C 79.7855 -3.78133 3.7308 0
M  V30 897 C 78.8245 -3.61665 4.93827 0
M  V30 898 N 77.9615 -4.80693 5.11741 0
M  V30 899 H 82.8015 -0.960358 2.82101 0
M  V30 900 H 80.3385 -0.462901 1.39627 0
M  V30 901 H 82.2965 -3.40596 2.40936 0
M  V30 902 H 80.9265 -2.91961 1.3769 0
M  V30 903 H 79.9785 -1.64132 3.43169 0
M  V30 904 H 81.2905 -2.34803 4.40079 0
M  V30 905 H 80.4445 -4.64938 3.89766 0
M  V30 906 H 79.1835 -3.97304 2.82844 0
M  V30 907 H 78.1885 -2.73244 4.77093 0
M  V30 908 H 79.4135 -3.43966 5.85546 0
M  V30 909 H 77.3595 -5.00181 4.24446 0
M  V30 910 H 77.2765 -4.67165 5.94384 0
M  V30 911 H 78.5445 -5.6893 5.3286 0
M  V30 912 N 82.7736 -1.49793 -0.48987 0
M  V30 913 C 83.7236 -1.63673 -1.5873 0
M  V30 914 C 84.7076 -0.491956 -1.53195 0
M  V30 915 O 85.8996 -0.745461 -1.60536 0
M  V30 916 C 83.0286 -1.71689 -2.97284 0
M  V30 917 C 82.1146 -2.91781 -3.07774 0
M  V30 918 N 82.5056 -4.15714 -2.88124 0
M  V30 919 C 80.8036 -2.89949 -3.38889 0
M  V30 920 C 81.5046 -4.965 -3.03088 0
M  V30 921 N 80.4806 -4.30083 -3.3246 0
M  V30 922 H 84.2826 -2.57204 -1.42208 0
M  V30 923 H 81.7966 -1.46719 -0.69623 0
M  V30 924 H 83.7936 -1.79732 -3.76168 0
M  V30 925 H 82.4536 -0.793024 -3.14867 0
M  V30 926 H 83.4646 -4.45515 -2.64077 0
M  V30 927 H 80.1416 -2.06987 -3.62578 0
M  V30 928 H 81.5316 -6.04991 -2.92294 0
M  V30 929 N 84.2517 0.741722 -1.39055 0
M  V30 930 C 85.5007 1.49656 -1.35225 0
M  V30 931 C 85.8137 1.95533 0.0512708 0
M  V30 932 O 87.0197 2.7067 0.212138 0
M  V30 933 C 85.4757 2.70389 -2.37525 0
M  V30 934 C 85.0837 2.31489 -3.83558 0
M  V30 935 C 86.8277 3.48236 -2.42759 0
M  V30 936 C 84.7347 3.48903 -4.77515 0
M  V30 937 H 83.6647 0.56197 -0.502699 0
M  V30 938 H 86.3157 0.809727 -1.64668 0
M  V30 939 H 84.6977 3.41113 -2.01142 0
M  V30 940 H 85.8717 1.68354 -4.28945 0
M  V30 941 H 84.1867 1.66749 -3.81554 0
M  V30 942 H 86.7837 4.35558 -3.1015 0
M  V30 943 H 87.1267 3.90229 -1.45008 0
M  V30 944 H 87.6597 2.84535 -2.78002 0
M  V30 945 H 84.3987 3.11966 -5.76504 0
M  V30 946 H 83.9187 4.11041 -4.36813 0
M  V30 947 H 85.5977 4.15328 -4.96096 0
M  V30 948 N 85.7298 1.2412 0.971189 0
M  V30 949 C 86.6598 1.05508 2.08304 0
M  V30 950 C 87.6408 -0.0308864 1.70072 0
M  V30 951 O 88.8258 0.135521 1.93727 0
M  V30 952 C 85.9558 0.655365 3.4106 0
M  V30 953 C 84.9098 1.68971 3.93234 0
M  V30 954 C 84.2358 1.14516 5.22293 0
M  V30 955 C 85.5358 3.08487 4.21465 0
M  V30 956 H 87.2298 1.98507 2.24132 0
M  V30 957 H 84.7758 0.955821 1.07704 0
M  V30 958 H 86.7288 0.51217 4.18276 0
M  V30 959 H 85.4528 -0.31032 3.25122 0
M  V30 960 H 84.1118 1.82106 3.18171 0
M  V30 961 H 83.7598 0.170189 5.02712 0
M  V30 962 H 83.4598 1.83635 5.58168 0
M  V30 963 H 84.9838 1.01401 6.02121 0
M  V30 964 H 86.3978 2.98601 4.89398 0
M  V30 965 H 84.7948 3.74926 4.68562 0
M  V30 966 H 85.8648 3.56787 3.28376 0
M  V30 967 N 87.2079 -1.17134 1.05439 0
M  V30 968 C 88.1179 -2.24878 0.668365 0
M  V30 969 C 89.1339 -1.71186 -0.311687 0
M  V30 970 O 90.3099 -2.00738 -0.163161 0
M  V30 971 C 87.3749 -3.46662 0.051648 0
M  V30 972 C 86.4359 -4.15429 1.08246 0
M  V30 973 C 85.6689 -5.31399 0.495082 0
M  V30 974 O 85.8919 -5.66153 -0.694743 0
M  V30 975 O 84.8259 -5.89187 1.23056 0
M  V30 976 H 88.6519 -2.60189 1.56637 0
M  V30 977 H 86.2369 -1.24482 0.826104 0
M  V30 978 H 88.1189 -4.20394 -0.290966 0
M  V30 979 H 86.7939 -3.13142 -0.819971 0
M  V30 980 H 85.7009 -3.43704 1.47711 0
M  V30 981 H 87.0339 -4.52982 1.92532 0
M  V30 982 N 88.686 -0.835752 -1.33615 0
M  V30 983 C 89.634 -0.255238 -2.31195 0
M  V30 984 C 90.628 0.61107 -1.57995 0
M  V30 985 O 91.834 0.500979 -1.72888 0
M  V30 986 H 88.209 -0.0638085 -0.749288 0
M  V30 987 H 90.18 -1.09283 -2.77669 0
M  V30 988 C 88.929 0.55754 -3.43201 0
M  V30 989 H 88.252 -0.0997553 -3.99676 0
M  V30 990 H 89.692 0.929622 -4.13683 0
M  V30 991 C 88.151 1.73515 -2.88781 0
M  V30 992 O 88.681 2.83376 -2.84712 0
M  V30 993 N 86.887 1.55603 -2.4543 0
M  V30 994 H 86.434 0.662354 -2.48939 0
M  V30 995 H 86.392 2.34545 -2.09371 0
M  V30 996 N 90.1641 1.46063 -0.591896 0
M  V30 997 C 91.4131 2.01547 -0.0786637 0
M  V30 998 C 91.7261 1.46796 1.29268 0
M  V30 999 O 92.9321 1.94157 1.89777 0
M  V30 1000 C 91.3881 3.59787 -0.0900024 0
M  V30 1001 C 90.9961 4.23534 -1.46023 0
M  V30 1002 C 92.7401 4.22895 0.368806 0
M  V30 1003 C 90.6471 5.73881 -1.4288 0
M  V30 1004 H 89.5771 0.753564 -0.0256388 0
M  V30 1005 H 92.2281 1.677 -0.744905 0
M  V30 1006 H 90.6101 3.90752 0.642586 0
M  V30 1007 H 91.7841 4.04167 -2.21328 0
M  V30 1008 H 90.0991 3.72558 -1.85982 0
M  V30 1009 H 92.6961 5.33116 0.411258 0
M  V30 1010 H 93.0391 3.9247 1.38827 0
M  V30 1011 H 93.5721 3.9659 -0.31001 0
M  V30 1012 H 90.3111 6.0898 -2.42536 0
M  V30 1013 H 89.8311 5.95486 -0.718095 0
M  V30 1014 H 91.5101 6.36776 -1.14565 0
M  V30 1015 N 91.6422 0.330177 1.54103 0
M  V30 1016 C 93.0532 -0.15652 1.86043 0
M  V30 1017 C 93.4042 -1.51086 1.2517 0
M  V30 1018 O 92.5292 -2.09023 0.560217 0
M  V30 1019 C 93.1242 -0.290784 3.3755 0
M  V30 1020 C 91.6832 -0.721705 3.69416 0
M  V30 1021 C 90.8302 0.152622 2.7688 0
M  V30 1022 H 93.7812 0.550237 1.48856 0
M  V30 1023 H 93.8022 -1.12058 3.63625 0
M  V30 1024 H 93.3142 0.695068 3.81825 0
M  V30 1025 H 91.4152 -1.71706 3.30678 0
M  V30 1026 H 91.5282 -0.520869 4.7626 0
M  V30 1027 H 89.8922 -0.372894 2.51956 0
M  V30 1028 H 90.6752 1.13536 3.23982 0
M  V30 1029 N 93.1203 -1.57491 0.0584922 0
M  V30 1030 C 94.3693 -1.92155 -0.613146 0
M  V30 1031 C 94.6823 -0.939334 -1.71569 0
M  V30 1032 O 95.8883 -1.17829 -2.44599 0
M  V30 1033 C 94.3443 -3.41303 -1.14195 0
M  V30 1034 C 93.9523 -4.47944 -0.0711265 0
M  V30 1035 C 95.6963 -3.84988 -1.78841 0
M  V30 1036 C 93.6033 -5.88212 -0.613225 0
M  V30 1037 H 92.5333 -0.717162 -0.232796 0
M  V30 1038 H 95.1843 -1.83049 0.12857 0
M  V30 1039 H 93.5663 -3.45437 -1.93621 0
M  V30 1040 H 94.7403 -4.55408 0.702836 0
M  V30 1041 H 93.0553 -4.13644 0.478313 0
M  V30 1042 H 95.6523 -4.87159 -2.20408 0
M  V30 1043 H 95.9953 -3.21632 -2.64308 0
M  V30 1044 H 96.5283 -3.83401 -1.06059 0
M  V30 1045 H 93.2673 -6.55183 0.203978 0
M  V30 1046 H 92.7873 -5.84294 -1.35501 0
M  V30 1047 H 94.4663 -6.37687 -1.09383 0
M  V30 1048 N 94.5984 0.214957 -1.56127 0
M  V30 1049 C 95.8264 0.955092 -1.83536 0
M  V30 1050 C 96.2414 1.77677 -0.638472 0
M  V30 1051 O 95.5984 1.78219 0.392968 0
M  V30 1052 C 95.6494 1.86734 -3.09536 0
M  V30 1053 O 95.3704 1.07887 -4.24608 0
M  V30 1054 C 96.8714 2.72082 -3.4998 0
M  V30 1055 H 94.0914 0.279611 -0.609966 0
M  V30 1056 H 96.6354 0.228197 -2.03223 0
M  V30 1057 H 94.7904 2.5481 -2.91806 0
M  V30 1058 H 95.2044 1.69872 -4.9623 0
M  V30 1059 H 96.6784 3.31782 -4.41163 0
M  V30 1060 H 97.1554 3.44806 -2.7204 0
M  V30 1061 H 97.7614 2.09409 -3.70173 0
M  V30 1062 N 96.0765 1.50051 0.48192 0
M  V30 1063 C 97.3255 1.59741 1.23149 0
M  V30 1064 C 97.6385 0.298163 1.93314 0
M  V30 1065 O 98.8445 0.273835 2.70116 0
M  V30 1066 C 97.3005 2.81926 2.23708 0
M  V30 1067 C 96.9085 4.18685 1.59396 0
M  V30 1068 C 98.6525 3.00956 2.99375 0
M  V30 1069 C 96.5595 5.3207 2.58178 0
M  V30 1070 H 95.4895 0.594838 0.46334 0
M  V30 1071 H 98.1405 1.76467 0.503169 0
M  V30 1072 H 96.5225 2.58736 2.99786 0
M  V30 1073 H 97.6965 4.52088 0.891811 0
M  V30 1074 H 96.0115 4.05171 0.960503 0
M  V30 1075 H 98.6085 3.82836 3.73283 0
M  V30 1076 H 98.9515 2.12258 3.58123 0
M  V30 1077 H 99.4845 3.24277 2.30411 0
M  V30 1078 H 96.2235 6.22888 2.04184 0
M  V30 1079 H 95.7435 5.03098 3.26577 0
M  V30 1080 H 97.4225 5.62196 3.20225 0
M  V30 1081 N 97.5546 -0.734337 1.39446 0
M  V30 1082 C 98.9706 -1.03997 1.21065 0
M  V30 1083 C 99.1706 -2.01369 0.0727019 0
M  V30 1084 O 98.2266 -2.45856 -0.575426 0
M  V30 1085 C 99.5396 -1.60163 2.54496 0
M  V30 1086 C 101.088 -1.7224 2.61347 0
M  V30 1087 C 101.563 -2.31814 3.95002 0
M  V30 1088 N 103.054 -2.39223 3.96644 0
M  V30 1089 C 103.789 -2.86258 4.96834 0
M  V30 1090 N 103.285 -3.33184 6.07421 0
M  V30 1091 N 105.078 -2.85473 4.84213 0
M  V30 1092 H 97.2286 -0.0885624 2.12215 0
M  V30 1093 H 99.4916 -0.10191 0.942506 0
M  V30 1094 H 99.1976 -0.960811 3.38321 0
M  V30 1095 H 99.0716 -2.5896 2.74262 0
M  V30 1096 H 101.459 -2.35443 1.77906 0
M  V30 1097 H 101.54 -0.720939 2.4543 0
M  V30 1098 H 101.184 -1.69238 4.78875 0
M  V30 1099 H 101.114 -3.32638 4.08239 0
M  V30 1100 H 103.605 -2.06057 3.16779 0
M  V30 1101 H 103.918 -3.67586 6.7978 0
M  V30 1102 H 102.263 -3.31191 6.11013 0
M  V30 1103 H 105.454 -2.48136 3.96921 0
M  V30 1104 H 105.627 -3.21814 5.62441 0
M  V30 1105 N 99.0327 -1.24633 -0.964593 0
M  V30 1106 C 100.31 -0.995809 -1.68354 0
M  V30 1107 C 100.69 0.480964 -2.05548 0
M  V30 1108 O 100.038 1.45599 -1.76105 0
M  V30 1109 C 100.248 -1.92177 -2.91323 0
M  V30 1110 C 101.596 -2.19446 -3.63495 0
M  V30 1111 O 102.62 -1.89855 -3.01386 0
M  V30 1112 O 101.479 -2.69714 -4.75307 0
M  V30 1113 H 98.5727 -0.376854 -0.736146 0
M  V30 1114 H 101.119 -1.35745 -1.0184 0
M  V30 1115 H 99.8907 -2.91938 -2.60553 0
M  V30 1116 H 99.5137 -1.56349 -3.65569 0
M  V30 1117 N 100.511 1.16574 -1.06058 0
M  V30 1118 C 101.443 2.2045 -0.627239 0
M  V30 1119 C 102.456 1.59752 0.313534 0
M  V30 1120 O 103.645 1.78192 0.104896 0
M  V30 1121 C 100.745 3.3875 0.100974 0
M  V30 1122 C 99.9178 4.29008 -0.852687 0
M  V30 1123 C 98.9768 5.25944 -0.164152 0
M  V30 1124 O 98.0028 5.63535 -0.801047 0
M  V30 1125 N 99.2048 5.70075 1.09518 0
M  V30 1126 H 101.97 2.58249 -1.52077 0
M  V30 1127 H 99.5308 1.3156 -0.943594 0
M  V30 1128 H 101.523 4.00638 0.57194 0
M  V30 1129 H 100.093 2.99476 0.89628 0
M  V30 1130 H 99.3128 3.64419 -1.50308 0
M  V30 1131 H 100.601 4.86195 -1.49972 0
M  V30 1132 H 99.9988 5.41624 1.6328 0
M  V30 1133 H 98.5558 6.34067 1.51006 0
M  V30 1134 N 101.989 0.842826 1.3317 0
M  V30 1135 C 102.899 0.281444 2.32906 0
M  V30 1136 C 103.915 -0.594587 1.63526 0
M  V30 1137 O 105.091 -0.49777 1.95152 0
M  V30 1138 C 102.156 -0.530929 3.42611 0
M  V30 1139 C 101.217 0.369843 4.27704 0
M  V30 1140 C 100.45 -0.403853 5.3217 0
M  V30 1141 O 100.673 -1.63513 5.46461 0
M  V30 1142 O 99.6069 0.224199 6.01482 0
M  V30 1143 H 103.433 1.10744 2.82789 0
M  V30 1144 H 101.018 0.60545 1.36582 0
M  V30 1145 H 102.9 -0.992437 4.09547 0
M  V30 1146 H 101.575 -1.33392 2.94938 0
M  V30 1147 H 100.482 0.879275 3.6362 0
M  V30 1148 H 101.815 1.13771 4.78871 0
M  V30 1149 N 103.467 -1.45747 0.599634 0
M  V30 1150 C 104.397 -2.33235 -0.111306 0
M  V30 1151 C 105.378 -1.46359 -0.866781 0
M  V30 1152 O 106.563 -1.75146 -0.838904 0
M  V30 1153 C 103.693 -3.28932 -1.11451 0
M  V30 1154 C 102.647 -4.25381 -0.472772 0
M  V30 1155 C 101.973 -5.1071 -1.58365 0
M  V30 1156 C 103.273 -5.18831 0.600948 0
M  V30 1157 H 104.967 -2.92927 0.61919 0
M  V30 1158 H 102.513 -1.40857 0.299215 0
M  V30 1159 H 104.466 -3.89002 -1.62036 0
M  V30 1160 H 103.19 -2.67381 -1.8755 0
M  V30 1161 H 101.849 -3.66598 0.0121472 0
M  V30 1162 H 101.497 -4.45533 -2.33473 0
M  V30 1163 H 101.197 -5.7604 -1.15982 0
M  V30 1164 H 102.721 -5.73647 -2.09194 0
M  V30 1165 H 104.135 -5.73019 0.179491 0
M  V30 1166 H 102.532 -5.92595 0.946076 0
M  V30 1167 H 103.602 -4.6174 1.48068 0
M  V30 1168 N 104.945 -0.338344 -1.53925 0
M  V30 1169 C 106.194 0.260732 -2.00008 0
M  V30 1170 C 106.507 1.52073 -1.23017 0
M  V30 1171 O 107.713 2.19672 -1.5955 0
M  V30 1172 C 106.169 0.51515 -3.56194 0
M  V30 1173 C 105.777 -0.728645 -4.42035 0
M  V30 1174 C 107.521 1.07337 -4.10706 0
M  V30 1175 C 105.428 -0.445315 -5.89721 0
M  V30 1176 H 104.358 0.101205 -0.747177 0
M  V30 1177 H 107.009 -0.452866 -1.77824 0
M  V30 1178 H 105.391 1.28932 -3.74423 0
M  V30 1179 H 106.565 -1.50352 -4.35581 0
M  V30 1180 H 104.88 -1.20813 -3.98489 0
M  V30 1181 H 107.477 1.30022 -5.18651 0
M  V30 1182 H 107.82 2.0273 -3.63602 0
M  V30 1183 H 108.353 0.360034 -3.96167 0
M  V30 1184 H 105.092 -1.36883 -6.41049 0
M  V30 1185 H 104.612 0.291569 -5.99091 0
M  V30 1186 H 106.291 -0.0606218 -6.46972 0
M  V30 1187 N 106.423 1.57458 -0.0668435 0
M  V30 1188 C 107.669 1.93587 0.6043 0
M  V30 1189 C 108.002 0.946722 1.69561 0
M  V30 1190 O 107.277 -0.0248516 1.94484 0
M  V30 1191 C 107.56 3.40014 1.18585 0
M  V30 1192 C 107.413 4.49685 0.101529 0
M  V30 1193 C 108.732 3.87154 2.09284 0
M  V30 1194 H 105.851 0.703958 0.218202 0
M  V30 1195 H 108.493 1.89542 -0.131804 0
M  V30 1196 H 106.643 3.43592 1.81319 0
M  V30 1197 H 108.315 4.5823 -0.531279 0
M  V30 1198 H 106.558 4.30059 -0.568487 0
M  V30 1199 H 107.229 5.49266 0.54874 0
M  V30 1200 H 109.705 3.85551 1.56491 0
M  V30 1201 H 108.581 4.90231 2.46911 0
M  V30 1202 H 108.842 3.2481 2.99918 0
M  V30 1203 N 107.901 -0.206675 1.56239 0
M  V30 1204 C 109.149 -0.927007 1.79586 0
M  V30 1205 C 109.47 -1.8427 0.637929 0
M  V30 1206 O 108.74 -1.92849 -0.344398 0
M  V30 1207 H 107.32 -0.345292 0.662407 0
M  V30 1208 H 109.982 -0.21496 1.93711 0
M  V30 1209 H 109.078 -1.52501 2.72305 0
M  V30 1210 N 109.379 -1.50304 -0.473955 0
M  V30 1211 C 110.604 -1.65175 -1.25427 0
M  V30 1212 C 111.029 -0.333673 -1.85117 0
M  V30 1213 O 110.387 0.702114 -1.67153 0
M  V30 1214 C 110.435 -2.74295 -2.34082 0
M  V30 1215 O 109.539 -2.35349 -3.38651 0
M  V30 1216 H 108.88 -0.551944 -0.369126 0
M  V30 1217 H 111.41 -1.96662 -0.564364 0
M  V30 1218 H 111.42 -2.97285 -2.79438 0
M  V30 1219 H 110.095 -3.69959 -1.90008 0
M  V30 1220 H 108.672 -2.22794 -2.99027 0
M  V30 1221 N 110.857 0.726932 -1.39834 0
M  V30 1222 C 111.787 1.85405 -1.41941 0
M  V30 1223 C 112.768 1.67751 -0.281728 0
M  V30 1224 O 113.953 1.8795 -0.488717 0
M  V30 1225 C 111.083 3.23243 -1.2701 0
M  V30 1226 C 110.037 3.55549 -2.38262 0
M  V30 1227 C 109.363 4.9241 -2.08415 0
M  V30 1228 C 110.663 3.577 -3.80589 0
M  V30 1229 H 112.357 1.83899 -2.36266 0
M  V30 1230 H 109.903 0.883349 -1.13723 0
M  V30 1231 H 111.856 4.01775 -1.27103 0
M  V30 1232 H 110.58 3.25296 -0.291564 0
M  V30 1233 H 109.239 2.79351 -2.37399 0
M  V30 1234 H 108.887 4.91052 -1.0898 0
M  V30 1235 H 108.587 5.14992 -2.82943 0
M  V30 1236 H 110.111 5.73289 -2.10171 0
M  V30 1237 H 111.525 4.26293 -3.83337 0
M  V30 1238 H 109.922 3.91804 -4.54543 0
M  V30 1239 H 110.992 2.57328 -4.10987 0
M  V30 1240 N 112.336 1.25143 0.95797 0
M  V30 1241 C 113.564 1.12424 1.73691 0
M  V30 1242 C 113.979 -0.322304 1.86029 0
M  V30 1243 O 113.336 -1.22186 1.35561 0
M  V30 1244 C 113.387 1.76933 3.15241 0
M  V30 1245 O 113.108 3.15932 3.03511 0
M  V30 1246 C 114.609 1.6995 4.09429 0
M  V30 1247 H 111.829 0.3923 0.544373 0
M  V30 1248 H 114.373 1.6544 1.20207 0
M  V30 1249 H 112.528 1.27895 3.6568 0
M  V30 1250 H 112.942 3.47598 3.9278 0
M  V30 1251 H 114.416 2.19753 5.06372 0
M  V30 1252 H 114.893 0.662619 4.34173 0
M  V30 1253 H 115.499 2.18461 3.64904 0
M  V30 1254 N 113.814 -1.1601 1.06675 0
M  V30 1255 C 114.761 -2.20525 0.680967 0
M  V30 1256 C 115.731 -1.62904 -0.324283 0
M  V30 1257 O 116.916 -1.89615 -0.212294 0
M  V30 1258 C 114.056 -3.45013 0.0776551 0
M  V30 1259 C 113.169 -4.16863 1.13355 0
M  V30 1260 C 112.304 -5.2888 0.49597 0
M  V30 1261 C 111.343 -5.92537 1.53513 0
M  V30 1262 N 110.48 -6.96038 0.920631 0
M  V30 1263 H 115.32 -2.52876 1.57663 0
M  V30 1264 H 112.857 -1.24199 0.788223 0
M  V30 1265 H 114.815 -4.16193 -0.289704 0
M  V30 1266 H 113.445 -3.132 -0.781393 0
M  V30 1267 H 112.497 -3.44248 1.61857 0
M  V30 1268 H 113.809 -4.60294 1.92174 0
M  V30 1269 H 112.963 -6.06653 0.0758604 0
M  V30 1270 H 111.702 -4.86622 -0.324062 0
M  V30 1271 H 110.707 -5.13482 1.9651 0
M  V30 1272 H 111.932 -6.36873 2.35733 0
M  V30 1273 H 109.878 -6.55888 0.12138 0
M  V30 1274 H 109.795 -7.3786 1.64616 0
M  V30 1275 H 111.063 -7.77725 0.525795 0
M  V30 1276 N 115.292 -0.849877 -1.32721 0
M  V30 1277 C 116.202 -0.293791 -2.32753 0
M  V30 1278 C 117.218 0.585906 -1.63839 0
M  V30 1279 O 118.394 0.487413 -1.95413 0
M  V30 1280 C 115.459 0.512752 -3.42887 0
M  V30 1281 C 114.52 -0.39252 -4.27502 0
M  V30 1282 C 113.753 0.375625 -5.32377 0
M  V30 1283 O 113.976 1.60613 -5.4732 0
M  V30 1284 O 112.91 -0.256094 -6.01355 0
M  V30 1285 H 116.736 -1.12242 -2.82197 0
M  V30 1286 H 114.321 -0.612685 -1.36259 0
M  V30 1287 H 116.203 0.970704 -4.10067 0
M  V30 1288 H 114.878 1.31826 -2.95641 0
M  V30 1289 H 113.785 -0.898547 -3.63149 0
M  V30 1290 H 115.118 -1.16309 -4.7826 0
M  V30 1291 N 116.77 1.45427 -0.607355 0
M  V30 1292 C 118.181 1.85756 -0.187535 0
M  V30 1293 C 118.532 1.5077 1.25551 0
M  V30 1294 O 117.657 0.93427 1.95193 0
M  V30 1295 C 118.252 3.37154 -0.333572 0
M  V30 1296 C 116.811 3.76387 0.0315542 0
M  V30 1297 C 115.958 2.69377 -0.658117 0
M  V30 1298 H 118.909 1.36231 -0.81405 0
M  V30 1299 H 118.93 3.78014 0.43428 0
M  V30 1300 H 118.442 3.62586 -1.38393 0
M  V30 1301 H 116.543 3.56571 1.0811 0
M  V30 1302 H 116.656 4.77731 -0.361935 0
M  V30 1303 H 115.02 2.5452 -0.0957873 0
M  V30 1304 H 115.803 2.97646 -1.7106 0
M  V30 1305 N 118.248 0.346503 1.53744 0
M  V30 1306 C 119.664 -0.00530975 1.59599 0
M  V30 1307 C 119.864 -1.48465 1.36236 0
M  V30 1308 O 118.92 -2.24376 1.15808 0
M  V30 1309 C 120.233 0.433516 2.97559 0
M  V30 1310 C 121.781 0.386111 3.10609 0
M  V30 1311 C 122.256 0.800451 4.50951 0
M  V30 1312 N 123.747 0.754753 4.5701 0
M  V30 1313 C 124.482 1.04727 5.63755 0
M  V30 1314 N 123.978 1.4081 6.7834 0
M  V30 1315 N 125.771 0.971316 5.53644 0
M  V30 1316 H 117.922 1.31009 1.67184 0
M  V30 1317 H 120.185 0.534242 0.783128 0
M  V30 1318 H 119.891 1.46509 3.19731 0
M  V30 1319 H 119.765 -0.189753 3.76722 0
M  V30 1320 H 122.152 -0.636295 2.88158 0
M  V30 1321 H 122.233 1.04462 2.33498 0
M  V30 1322 H 121.877 1.82088 4.74137 0
M  V30 1323 H 121.807 0.119386 5.26465 0
M  V30 1324 H 124.298 0.488662 3.74727 0
M  V30 1325 H 124.611 1.61607 7.55714 0
M  V30 1326 H 122.956 1.44657 6.79779 0
M  V30 1327 H 126.147 0.688748 4.63005 0
M  V30 1328 H 126.32 1.20263 6.36742 0
M  V30 1329 N 119.726 -1.57421 0.075193 0
M  V30 1330 C 120.951 -1.98364 -0.605515 0
M  V30 1331 C 121.376 -0.953383 -1.62149 0
M  V30 1332 O 120.734 0.0806053 -1.81121 0
M  V30 1333 C 120.782 -3.38332 -1.24756 0
M  V30 1334 O 119.886 -3.37959 -2.36342 0
M  V30 1335 H 119.227 -0.645553 -0.155428 0
M  V30 1336 H 121.757 -2.04044 0.150714 0
M  V30 1337 H 121.767 -3.75591 -1.5936 0
M  V30 1338 H 120.442 -4.12846 -0.503129 0
M  V30 1339 H 119.019 -3.12474 -2.03506 0
M  V30 1340 N 121.204 0.198386 -1.56346 0
M  V30 1341 C 122.429 0.939682 -1.84891 0
M  V30 1342 C 122.854 1.76202 -0.658369 0
M  V30 1343 O 122.212 1.76993 0.392851 0
M  V30 1344 C 122.26 1.81428 -3.11635 0
M  V30 1345 O 121.364 2.91265 -2.91956 0
M  V30 1346 H 120.705 0.264807 -0.608912 0
M  V30 1347 H 123.235 0.204695 -2.03573 0
M  V30 1348 H 123.245 2.21958 -3.42343 0
M  V30 1349 H 121.92 1.21004 -3.97908 0
M  V30 1350 H 120.497 2.54514 -2.72538 0
M  V30 1351 N 122.682 1.50554 0.465978 0
M  V30 1352 C 123.614 1.65949 1.58093 0
M  V30 1353 C 124.627 0.540827 1.53554 0
M  V30 1354 O 125.816 0.814187 1.5885 0
M  V30 1355 C 122.916 1.63261 2.96983 0
M  V30 1356 C 122.089 2.91245 3.26336 0
M  V30 1357 C 121.148 2.8113 4.44806 0
M  V30 1358 O 120.174 3.55086 4.44862 0
M  V30 1359 N 121.376 1.95032 5.46756 0
M  V30 1360 H 124.141 2.62122 1.45301 0
M  V30 1361 H 121.702 1.48082 0.65448 0
M  V30 1362 H 123.694 1.54101 3.74212 0
M  V30 1363 H 122.264 0.748032 3.03518 0
M  V30 1364 H 121.484 3.14493 2.37672 0
M  V30 1365 H 122.772 3.76022 3.42761 0
M  V30 1366 H 122.17 1.3427 5.49534 0
M  V30 1367 H 120.727 1.91772 6.2295 0
M  V30 1368 N 124.16 -0.719506 1.40217 0
M  V30 1369 C 125.406 -1.48152 1.38488 0
M  V30 1370 C 125.739 -1.94195 -0.0141867 0
M  V30 1371 O 125.014 -1.67884 -0.982096 0
M  V30 1372 C 125.297 -2.71035 2.37091 0
M  V30 1373 C 125.15 -2.30912 3.86005 0
M  V30 1374 C 126.469 -3.73182 2.33288 0
M  V30 1375 H 123.588 -0.537395 0.504357 0
M  V30 1376 H 126.23 -0.821472 1.71324 0
M  V30 1377 H 124.38 -3.27352 2.0922 0
M  V30 1378 H 126.052 -1.80107 4.24687 0
M  V30 1379 H 124.295 -1.62958 4.02029 0
M  V30 1380 H 124.966 -3.18978 4.50508 0
M  V30 1381 H 127.442 -3.26485 2.57966 0
M  V30 1382 H 126.318 -4.56806 3.04334 0
M  V30 1383 H 126.579 -4.21202 1.34317 0
M  V30 1384 N 125.638 -1.25649 -0.95132 0
M  V30 1385 C 126.885 -1.10594 -1.69633 0
M  V30 1386 C 127.213 0.352515 -1.91279 0
M  V30 1387 O 126.468 1.27601 -1.4838 0
M  V30 1388 C 126.767 -1.80909 -3.08231 0
M  V30 1389 C 126.433 -3.30825 -3.06375 0
M  V30 1390 C 125.095 -3.71722 -3.05576 0
M  V30 1391 C 127.447 -4.26589 -2.99452 0
M  V30 1392 C 124.775 -5.06788 -2.95606 0
M  V30 1393 C 127.127 -5.61683 -2.91024 0
M  V30 1394 C 125.791 -6.01904 -2.88562 0
M  V30 1395 H 125.061 -0.404691 -0.620731 0
M  V30 1396 H 127.708 -1.55964 -1.11119 0
M  V30 1397 H 126.013 -1.27979 -3.70309 0
M  V30 1398 H 127.71 -1.6671 -3.64704 0
M  V30 1399 H 124.3 -2.98287 -3.07771 0
M  V30 1400 H 128.484 -3.95982 -2.99185 0
M  V30 1401 H 123.74 -5.37126 -2.92071 0
M  V30 1402 H 127.914 -6.35578 -2.84629 0
M  V30 1403 H 125.541 -7.06521 -2.80593 0
M  V30 1404 N 127.117 1.15442 -1.07289 0
M  V30 1405 C 128.528 1.67803 -0.818475 0
M  V30 1406 C 128.879 1.8489 0.656507 0
M  V30 1407 O 128.004 1.55176 1.50829 0
M  V30 1408 C 128.599 3.04805 -1.47917 0
M  V30 1409 C 127.158 3.54245 -1.27229 0
M  V30 1410 C 126.305 2.29986 -1.54925 0
M  V30 1411 H 129.256 0.996646 -1.23502 0
M  V30 1412 H 129.277 3.69702 -0.90005 0
M  V30 1413 H 128.789 2.92336 -2.55267 0
M  V30 1414 H 126.89 3.71956 -0.21899 0
M  V30 1415 H 127.003 4.35723 -1.99203 0
M  V30 1416 H 125.367 2.35496 -0.970242 0
M  V30 1417 H 126.15 2.20105 -2.63455 0
M  V30 1418 N 128.595 0.856903 1.32268 0
M  V30 1419 C 129.505 0.306131 2.32594 0
M  V30 1420 C 130.521 -0.577209 1.64147 0
M  V30 1421 O 131.697 -0.477043 1.95669 0
M  V30 1422 C 128.762 -0.494561 3.43154 0
M  V30 1423 C 127.823 0.415186 4.27288 0
M  V30 1424 C 127.056 -0.347387 5.32568 0
M  V30 1425 O 127.279 -1.57708 5.48165 0
M  V30 1426 O 126.213 0.287982 6.01211 0
M  V30 1427 H 130.039 1.13737 2.81598 0
M  V30 1428 H 127.624 0.619902 1.35932 0
M  V30 1429 H 129.506 -0.948944 4.10576 0
M  V30 1430 H 128.181 -1.30257 2.96336 0
M  V30 1431 H 127.088 0.917793 3.62667 0
M  V30 1432 H 128.421 1.18844 4.77637 0
M  V30 1433 N 130.073 -1.45103 0.615059 0
M  V30 1434 C 131.32 -2.02183 0.113179 0
M  V30 1435 C 131.648 -1.48249 -1.25906 0
M  V30 1436 O 130.903 -0.650265 -1.84581 0
M  V30 1437 C 131.202 -3.57386 0.0318797 0
M  V30 1438 C 130.868 -4.30505 1.34077 0
M  V30 1439 C 129.53 -4.50197 1.69929 0
M  V30 1440 C 131.882 -4.72238 2.20546 0
M  V30 1441 C 129.21 -5.08881 2.91988 0
M  V30 1442 C 131.562 -5.32272 3.41861 0
M  V30 1443 C 130.226 -5.50187 3.77956 0
M  V30 1444 H 129.496 -0.739842 0.0414151 0
M  V30 1445 H 132.143 -1.74073 0.798168 0
M  V30 1446 H 130.448 -3.84817 -0.736409 0
M  V30 1447 H 132.145 -3.99264 -0.372712 0
M  V30 1448 H 128.735 -4.15496 1.05173 0
M  V30 1449 H 132.919 -4.56751 1.94146 0
M  V30 1450 H 128.175 -5.20939 3.2005 0
M  V30 1451 H 132.349 -5.63563 4.09109 0
M  V30 1452 H 129.976 -5.95427 4.72622 0
M  V30 1453 N 131.551 -0.354651 -1.53558 0
M  V30 1454 C 132.776 0.242153 -2.05981 0
M  V30 1455 C 133.201 1.42553 -1.2272 0
M  V30 1456 O 132.559 1.79656 -0.243604 0
M  V30 1457 C 132.607 0.624367 -3.55154 0
M  V30 1458 O 131.711 1.72301 -3.74681 0
M  V30 1459 H 131.052 0.0378432 -0.662921 0
M  V30 1460 H 133.582 -0.512087 -1.98088 0
M  V30 1461 H 133.592 0.898433 -3.97985 0
M  V30 1462 H 132.267 -0.240989 -4.15201 0
M  V30 1463 H 130.844 1.44535 -3.4375 0
M  V30 1464 N 133.029 1.57378 -0.0835403 0
M  V30 1465 C 133.977 2.14602 0.89714 0
M  V30 1466 C 134.971 1.08589 1.30018 0
M  V30 1467 O 136.177 1.26952 1.27606 0
M  V30 1468 H 132.552 0.686346 0.3073 0
M  V30 1469 H 134.523 2.95845 0.38969 0
M  V30 1470 C 133.272 2.73188 2.15089 0
M  V30 1471 H 132.595 3.54442 1.84962 0
M  V30 1472 H 134.035 3.1681 2.81793 0
M  V30 1473 C 132.494 1.68517 2.91725 0
M  V30 1474 O 133.024 1.11718 3.85852 0
M  V30 1475 N 131.23 1.39277 2.55049 0
M  V30 1476 H 130.777 1.85655 1.78577 0
M  V30 1477 H 130.735 0.694791 3.06627 0
M  V30 1478 N 134.507 -0.190092 1.56449 0
M  V30 1479 C 135.454 -1.23557 1.94942 0
M  V30 1480 C 136.424 -1.44972 0.810696 0
M  V30 1481 O 137.609 -1.58023 1.06927 0
M  V30 1482 C 134.749 -2.57416 2.2985 0
M  V30 1483 C 133.862 -2.43537 3.5681 0
M  V30 1484 C 132.997 -3.70134 3.81017 0
M  V30 1485 C 132.036 -3.51109 5.01387 0
M  V30 1486 N 131.173 -4.6973 5.21822 0
M  V30 1487 H 136.013 -0.900304 2.84075 0
M  V30 1488 H 133.55 -0.43318 1.40577 0
M  V30 1489 H 135.508 -3.35409 2.48106 0
M  V30 1490 H 134.138 -2.88975 1.43852 0
M  V30 1491 H 133.19 -1.56816 3.46573 0
M  V30 1492 H 134.502 -2.25415 4.4496 0
M  V30 1493 H 133.656 -4.56566 3.9954 0
M  V30 1494 H 132.395 -3.91215 2.91207 0
M  V30 1495 H 131.4 -2.63063 4.82782 0
M  V30 1496 H 132.625 -3.31468 5.9271 0
M  V30 1497 H 130.571 -4.91065 4.34961 0
M  V30 1498 H 130.488 -4.54452 6.0416 0
M  V30 1499 H 131.756 -5.57499 5.44808 0
M  V30 1500 N 135.985 -1.50799 -0.457987 0
M  V30 1501 C 137.231 -1.63648 -1.20792 0
M  V30 1502 C 137.586 -0.338662 -1.89396 0
M  V30 1503 O 136.879 0.664291 -1.79716 0
M  V30 1504 C 137.073 -2.76358 -2.2663 0
M  V30 1505 C 136.902 -4.16974 -1.68411 0
M  V30 1506 C 135.672 -4.83199 -1.47807 0
M  V30 1507 C 137.87 -5.00774 -1.17176 0
M  V30 1508 N 135.852 -6.07991 -0.849692 0
M  V30 1509 C 137.223 -6.16397 -0.667403 0
M  V30 1510 C 139.278 -4.86452 -1.06155 0
M  V30 1511 C 137.981 -7.19272 -0.0636908 0
M  V30 1512 C 140.007 -5.89515 -0.471759 0
M  V30 1513 C 139.369 -7.04397 0.0221557 0
M  V30 1514 H 135.468 -0.652888 -0.43042 0
M  V30 1515 H 138.052 -1.87962 -0.507785 0
M  V30 1516 H 136.223 -2.53744 -2.94056 0
M  V30 1517 H 137.955 -2.78496 -2.93636 0
M  V30 1518 H 134.71 -4.40714 -1.73403 0
M  V30 1519 H 135.134 -6.74733 -0.553537 0
M  V30 1520 H 139.776 -3.97907 -1.42932 0
M  V30 1521 H 137.494 -8.07481 0.316253 0
M  V30 1522 H 141.08 -5.805 -0.388671 0
M  V30 1523 H 139.96 -7.82782 0.471375 0
M  V30 1524 N 137.463 0.71206 -1.40597 0
M  V30 1525 C 138.393 1.83889 -1.43899 0
M  V30 1526 C 139.374 1.67442 -0.299504 0
M  V30 1527 O 140.559 1.87421 -0.508624 0
M  V30 1528 C 137.689 3.21877 -1.30431 0
M  V30 1529 C 136.643 3.53002 -2.42019 0
M  V30 1530 C 135.969 4.90172 -2.13626 0
M  V30 1531 C 137.269 3.53643 -3.84362 0
M  V30 1532 H 138.963 1.81383 -2.38203 0
M  V30 1533 H 136.509 0.871237 -1.14654 0
M  V30 1534 H 138.462 4.00404 -1.31357 0
M  V30 1535 H 137.186 3.24968 -0.326049 0
M  V30 1536 H 135.845 2.76818 -2.40349 0
M  V30 1537 H 135.493 4.89869 -1.14182 0
M  V30 1538 H 135.193 5.11962 -2.88389 0
M  V30 1539 H 136.717 5.71028 -2.1624 0
M  V30 1540 H 138.131 4.22203 -3.87837 0
M  V30 1541 H 136.528 3.86961 -4.58673 0
M  V30 1542 H 137.598 2.52954 -4.13693 0
M  V30 1543 N 138.941 1.26152 0.944643 0
M  V30 1544 C 139.873 1.03199 2.04652 0
M  V30 1545 C 140.886 -0.00642356 1.62799 0
M  V30 1546 O 142.075 0.233263 1.76969 0
M  V30 1547 C 139.175 0.540111 3.34568 0
M  V30 1548 C 138.348 1.64697 4.05208 0
M  V30 1549 C 137.407 1.15374 5.13396 0
M  V30 1550 O 136.433 1.85013 5.38293 0
M  V30 1551 N 137.635 0.00031529 5.805 0
M  V30 1552 H 140.4 1.9808 2.2491 0
M  V30 1553 H 137.961 1.17491 1.11389 0
M  V30 1554 H 139.953 0.194401 4.04233 0
M  V30 1555 H 138.523 -0.315021 3.11009 0
M  V30 1556 H 137.743 2.16379 3.29506 0
M  V30 1557 H 139.031 2.3903 4.49157 0
M  V30 1558 H 138.429 -0.581336 5.62705 0
M  V30 1559 H 136.986 -0.286346 6.51171 0
M  V30 1560 N 140.419 -1.14872 1.07899 0
M  V30 1561 C 141.696 -1.81928 0.71845 0
M  V30 1562 C 142.076 -1.95417 -0.798455 0
M  V30 1563 O 141.424 -1.50997 -1.715 0
M  V30 1564 C 141.634 -3.17937 1.43935 0
M  V30 1565 C 142.982 -3.93501 1.59506 0
M  V30 1566 O 144.006 -3.27509 1.40058 0
M  V30 1567 O 142.865 -5.1183 1.91551 0
M  V30 1568 H 139.959 -0.78628 0.256305 0
M  V30 1569 H 142.505 -1.21934 1.18026 0
M  V30 1570 H 141.277 -3.0325 2.47295 0
M  V30 1571 H 140.9 -3.85619 0.968687 0
M  V30 1572 N 141.898 -0.863906 -1.31812 0
M  V30 1573 C 142.808 -0.318461 -2.32428 0
M  V30 1574 C 143.824 0.568496 -1.64451 0
M  V30 1575 O 145 0.46666 -1.95919 0
M  V30 1576 C 142.065 0.476355 -3.43412 0
M  V30 1577 C 141.126 -0.43784 -4.27061 0
M  V30 1578 C 140.359 0.319138 -5.32745 0
M  V30 1579 O 140.582 1.54799 -5.48993 0
M  V30 1580 O 139.516 -0.319861 -6.01049 0
M  V30 1581 H 143.342 -1.15229 -2.80991 0
M  V30 1582 H 140.927 -0.627103 -1.35602 0
M  V30 1583 H 142.809 0.927156 -4.11074 0
M  V30 1584 H 141.484 1.28683 -2.97022 0
M  V30 1585 H 140.391 -0.937013 -3.62175 0
M  V30 1586 H 141.724 -1.21375 -4.77 0
M  V30 1587 N 143.376 1.44774 -0.622745 0
M  V30 1588 C 144.306 2.33382 0.0741861 0
M  V30 1589 C 145.287 1.47719 0.843387 0
M  V30 1590 O 146.472 1.76458 0.810934 0
M  V30 1591 C 143.602 3.30663 1.06204 0
M  V30 1592 C 142.556 4.26079 0.405037 0
M  V30 1593 C 141.882 5.13165 1.5022 0
M  V30 1594 C 143.182 5.1781 -0.683414 0
M  V30 1595 H 144.876 2.91905 -0.665713 0
M  V30 1596 H 142.422 1.40363 -0.321587 0
M  V30 1597 H 144.375 3.9153 1.55827 0
M  V30 1598 H 143.099 2.70331 1.83272 0
M  V30 1599 H 141.758 3.66532 -0.0704683 0
M  V30 1600 H 141.406 4.49191 2.26355 0
M  V30 1601 H 141.106 5.77812 1.06803 0
M  V30 1602 H 142.63 5.76902 2.00041 0
M  V30 1603 H 144.044 5.72661 -0.270631 0
M  V30 1604 H 142.441 5.91015 -1.04023 0
M  V30 1605 H 143.511 4.59326 -1.55395 0
M  V30 1606 N 144.854 0.36279 1.53368 0
M  V30 1607 C 146.131 -0.284021 1.93527 0
M  V30 1608 C 146.511 -1.66628 1.29608 0
M  V30 1609 O 145.859 -2.23942 0.45413 0
M  V30 1610 C 146.069 -0.337028 3.47369 0
M  V30 1611 C 147.417 -0.578708 4.20638 0
M  V30 1612 O 148.441 -0.418352 3.53735 0
M  V30 1613 O 147.3 -0.89074 5.39192 0
M  V30 1614 H 144.394 -0.169743 0.809393 0
M  V30 1615 H 146.94 0.41537 1.64538 0
M  V30 1616 H 145.712 0.632217 3.86159 0
M  V30 1617 H 145.335 -1.08243 3.82582 0
M  V30 1618 N 146.332 -1.57332 0.0918853 0
M  V30 1619 C 147.748 -1.57389 -0.264766 0
M  V30 1620 C 147.948 -1.10281 -1.68643 0
M  V30 1621 O 147.004 -0.777801 -2.40222 0
M  V30 1622 C 148.317 -3.00648 -0.0561195 0
M  V30 1623 C 149.865 -3.12754 -0.124116 0
M  V30 1624 C 150.34 -4.57965 0.0564972 0
M  V30 1625 N 151.831 -4.632 0.00155611 0
M  V30 1626 C 152.566 -5.73281 0.116598 0
M  V30 1627 N 152.062 -6.92208 0.286294 0
M  V30 1628 N 153.855 -5.6207 0.0580973 0
M  V30 1629 H 146.006 -1.86262 1.02079 0
M  V30 1630 H 148.269 -0.859579 0.399786 0
M  V30 1631 H 147.975 -3.393 0.925669 0
M  V30 1632 H 147.849 -3.68623 -0.799823 0
M  V30 1633 H 150.236 -2.73976 -1.09641 0
M  V30 1634 H 150.317 -2.47377 0.651024 0
M  V30 1635 H 149.961 -4.97436 1.02564 0
M  V30 1636 H 149.891 -5.21399 -0.738297 0
M  V30 1637 H 152.382 -3.77686 -0.127192 0
M  V30 1638 H 152.695 -7.71934 0.365676 0
M  V30 1639 H 151.04 -6.94254 0.32192 0
M  V30 1640 H 154.231 -4.68043 -0.0733204 0
M  V30 1641 H 154.404 -6.47824 0.151203 0
M  V30 1642 N 147.81 0.181792 -1.56548 0
M  V30 1643 C 148.74 1.22765 -1.98623 0
M  V30 1644 C 149.721 1.46747 -0.860189 0
M  V30 1645 O 150.906 1.58259 -1.12551 0
M  V30 1646 C 148.036 2.56894 -2.33715 0
M  V30 1647 C 146.99 2.475 -3.49182 0
M  V30 1648 C 146.316 3.86023 -3.69986 0
M  V30 1649 C 147.616 1.98866 -4.82959 0
M  V30 1650 H 149.31 0.877942 -2.86239 0
M  V30 1651 H 146.856 0.42088 -1.37712 0
M  V30 1652 H 148.809 3.30253 -2.61746 0
M  V30 1653 H 147.533 2.93632 -1.42997 0
M  V30 1654 H 146.192 1.76596 -3.21262 0
M  V30 1655 H 145.84 4.20136 -2.76576 0
M  V30 1656 H 145.54 3.80609 -4.47672 0
M  V30 1657 H 147.064 4.60984 -4.00407 0
M  V30 1658 H 148.478 2.61992 -5.09934 0
M  V30 1659 H 146.875 2.04424 -5.64208 0
M  V30 1660 H 147.945 0.942465 -4.75653 0
M  V30 1661 N 149.288 1.51039 0.449983 0
M  V30 1662 C 150.236 1.71995 1.5659 0
M  V30 1663 C 151.23 0.586029 1.5894 0
M  V30 1664 O 152.436 0.76709 1.62837 0
M  V30 1665 H 148.811 0.543233 0.520001 0
M  V30 1666 H 150.782 2.65562 1.36085 0
M  V30 1667 C 149.531 1.8506 2.9436 0
M  V30 1668 H 148.854 2.71712 2.93279 0
M  V30 1669 H 150.294 2.0374 3.71842 0
M  V30 1670 C 148.753 0.607277 3.31382 0
M  V30 1671 O 149.283 -0.243903 4.00959 0
M  V30 1672 N 147.489 0.455073 2.87015 0
M  V30 1673 H 147.036 1.14879 2.30566 0
M  V30 1674 H 146.994 -0.375611 3.12148 0
M  V30 1675 N 150.766 -0.704594 1.40972 0
M  V30 1676 C 151.713 -1.81862 1.42109 0
M  V30 1677 C 152.683 -1.63781 0.276593 0
M  V30 1678 O 153.868 -1.84759 0.4763 0
M  V30 1679 C 151.008 -3.19669 1.30022 0
M  V30 1680 C 150.121 -3.49246 2.54267 0
M  V30 1681 C 149.256 -4.76618 2.3454 0
M  V30 1682 C 148.295 -4.99133 3.54306 0
M  V30 1683 N 147.432 -6.17726 3.33706 0
M  V30 1684 H 152.272 -1.80226 2.37324 0
M  V30 1685 H 149.809 -0.880238 1.17857 0
M  V30 1686 H 151.767 -3.99263 1.21018 0
M  V30 1687 H 150.397 -3.20506 0.384192 0
M  V30 1688 H 149.449 -2.64125 2.73756 0
M  V30 1689 H 150.761 -3.61788 3.43381 0
M  V30 1690 H 149.915 -5.64249 2.22952 0
M  V30 1691 H 148.654 -4.66305 1.42867 0
M  V30 1692 H 147.659 -4.09953 3.66359 0
M  V30 1693 H 148.884 -5.11311 4.4692 0
M  V30 1694 H 146.83 -6.08642 2.44725 0
M  V30 1695 H 146.747 -6.30995 4.16391 0
M  V30 1696 H 148.015 -7.08115 3.25873 0
M  V30 1697 N 152.244 -1.26651 -0.937939 0
M  V30 1698 C 153.66 -1.03834 -1.21205 0
M  V30 1699 C 153.86 0.234502 -2.00131 0
M  V30 1700 O 152.916 0.942767 -2.3424 0
M  V30 1701 C 154.229 -2.27167 -1.97017 0
M  V30 1702 C 155.777 -2.32101 -2.09996 0
M  V30 1703 C 156.252 -3.55136 -2.8921 0
M  V30 1704 N 157.743 -3.55632 -2.96783 0
M  V30 1705 C 158.478 -4.475 -3.58512 0
M  V30 1706 N 157.974 -5.4966 -4.21717 0
M  V30 1707 N 159.767 -4.35145 -3.55816 0
M  V30 1708 H 151.918 -2.08398 -0.410391 0
M  V30 1709 H 154.181 -0.916031 -0.244114 0
M  V30 1710 H 153.887 -3.19765 -1.46434 0
M  V30 1711 H 153.761 -2.31672 -2.97671 0
M  V30 1712 H 156.148 -1.40015 -2.59769 0
M  V30 1713 H 156.229 -2.31605 -1.08594 0
M  V30 1714 H 155.873 -4.47553 -2.40123 0
M  V30 1715 H 155.803 -3.5288 -3.90875 0
M  V30 1716 H 158.294 -2.81743 -2.51852 0
M  V30 1717 H 158.607 -6.15943 -4.66727 0
M  V30 1718 H 156.952 -5.53514 -4.20294 0
M  V30 1719 H 160.143 -3.5455 -3.05634 0
M  V30 1720 H 160.316 -5.06934 -4.03636 0
M  V30 1721 N 153.722 1.14298 -1.08507 0
M  V30 1722 C 154.95 1.89219 -0.836876 0
M  V30 1723 C 155.365 1.78638 0.611054 0
M  V30 1724 O 154.722 1.14643 1.41998 0
M  V30 1725 C 154.773 3.39158 -1.25116 0
M  V30 1726 O 154.494 3.49449 -2.64229 0
M  V30 1727 C 155.995 4.31073 -1.03398 0
M  V30 1728 H 153.215 0.599328 -0.301739 0
M  V30 1729 H 155.759 1.44746 -1.44461 0
M  V30 1730 H 153.914 3.81251 -0.687514 0
M  V30 1731 H 154.328 4.42589 -2.81452 0
M  V30 1732 H 155.802 5.34646 -1.37323 0
M  V30 1733 H 156.279 4.3919 0.0289259 0
M  V30 1734 H 156.885 3.94738 -1.58311 0
M  V30 1735 N 155.201 0.870884 1.31352 0
M  V30 1736 C 156.449 0.48132 1.96285 0
M  V30 1737 C 156.77 -0.969813 1.69173 0
M  V30 1738 O 156.04 -1.67998 1.00764 0
M  V30 1739 H 154.62 0.175002 0.726212 0
M  V30 1740 H 157.282 1.11087 1.60143 0
M  V30 1741 H 156.378 0.639825 3.05471 0
M  V30 1742 N 156.679 -1.44442 0.630414 0
M  V30 1743 C 157.956 -1.9549 0.0655657 0
M  V30 1744 C 158.336 -1.5724 -1.40851 0
M  V30 1745 O 157.684 -0.846116 -2.12257 0
M  V30 1746 C 157.894 -3.47812 0.287691 0
M  V30 1747 C 159.242 -4.24216 0.180513 0
M  V30 1748 O 160.266 -3.55526 0.219019 0
M  V30 1749 O 159.125 -5.46434 0.0848493 0
M  V30 1750 H 156.219 -0.826688 -0.0227177 0
M  V30 1751 H 158.765 -1.54496 0.702068 0
M  V30 1752 H 157.537 -3.687 1.31056 0
M  V30 1753 H 157.16 -3.95751 -0.382984 0
M  V30 1754 N 158.157 -0.370918 -1.53173 0
M  V30 1755 C 159.12 0.460778 -2.24521 0
M  V30 1756 C 160.12 1.00536 -1.25496 0
M  V30 1757 O 161.31 0.890266 -1.49733 0
M  V30 1758 C 158.442 1.64457 -2.98608 0
M  V30 1759 H 159.635 -0.163613 -2.99453 0
M  V30 1760 H 157.188 -0.122699 -1.55818 0
M  V30 1761 H 157.923 2.30691 -2.2793 0
M  V30 1762 H 157.708 1.26099 -3.7127 0
M  V30 1763 H 159.198 2.23384 -3.5283 0
M  V30 1764 N 159.635 1.57281 -0.100228 0
M  V30 1765 C 160.882 1.94537 0.562268 0
M  V30 1766 C 161.21 0.982315 1.67871 0
M  V30 1767 O 160.465 0.00280936 1.957 0
M  V30 1768 C 160.764 3.38305 1.15259 0
M  V30 1769 C 160.43 4.50618 0.159409 0
M  V30 1770 C 159.092 4.81066 -0.113741 0
M  V30 1771 C 161.444 5.18615 -0.518461 0
M  V30 1772 C 158.772 5.76835 -1.07137 0
M  V30 1773 C 161.124 6.15412 -1.46459 0
M  V30 1774 C 159.788 6.44262 -1.74592 0
M  V30 1775 H 159.058 0.711863 0.205748 0
M  V30 1776 H 161.705 1.90679 -0.17715 0
M  V30 1777 H 160.01 3.38766 1.96836 0
M  V30 1778 H 161.707 3.64435 1.67297 0
M  V30 1779 H 158.297 4.2689 0.382491 0
M  V30 1780 H 162.481 4.95264 -0.320581 0
M  V30 1781 H 157.737 5.975 -1.29628 0
M  V30 1782 H 161.911 6.67194 -1.99564 0
M  V30 1783 H 159.538 7.1828 -2.48953 0
M  V30 1784 N 161.113 -0.173488 1.56642 0
M  V30 1785 C 162.045 -1.23935 1.92802 0
M  V30 1786 C 163.058 -1.40589 0.820889 0
M  V30 1787 O 164.247 -1.40631 1.09933 0
M  V30 1788 C 161.347 -2.60837 2.16373 0
M  V30 1789 C 160.52 -2.6551 3.47596 0
M  V30 1790 C 159.579 -3.8376 3.60021 0
M  V30 1791 O 158.605 -3.69859 4.32658 0
M  V30 1792 N 159.807 -5.00127 2.94709 0
M  V30 1793 H 162.572 -0.932236 2.84832 0
M  V30 1794 H 160.133 -0.363268 1.57772 0
M  V30 1795 H 162.125 -3.38407 2.21952 0
M  V30 1796 H 160.695 -2.83948 1.30738 0
M  V30 1797 H 159.915 -1.74052 3.53694 0
M  V30 1798 H 161.203 -2.65641 4.33949 0
M  V30 1799 H 160.601 -5.14322 2.35563 0
M  V30 1800 H 159.158 -5.75567 3.05886 0
M  V30 1801 N 162.591 -1.51276 -0.441967 0
M  V30 1802 C 163.84 -1.6295 -1.18871 0
M  V30 1803 C 164.153 -0.349312 -1.92456 0
M  V30 1804 O 165.359 -0.345355 -2.69295 0
M  V30 1805 C 163.815 -2.87759 -2.16155 0
M  V30 1806 C 163.423 -4.22764 -1.48239 0
M  V30 1807 C 165.167 -3.08788 -2.91291 0
M  V30 1808 C 163.074 -5.38728 -2.4398 0
M  V30 1809 H 162.004 -0.606913 -0.447406 0
M  V30 1810 H 164.655 -1.77739 -0.456205 0
M  V30 1811 H 163.037 -2.66593 -2.92821 0
M  V30 1812 H 164.211 -4.54293 -0.771635 0
M  V30 1813 H 162.526 -4.07575 -0.852741 0
M  V30 1814 H 165.123 -3.92599 -3.63002 0
M  V30 1815 H 165.466 -2.21679 -3.5237 0
M  V30 1816 H 165.999 -3.30272 -2.21733 0
M  V30 1817 H 162.738 -6.28082 -1.87598 0
M  V30 1818 H 162.258 -5.1158 -3.13123 0
M  V30 1819 H 163.937 -5.70489 -3.05207 0
M  V30 1820 N 164.069 0.697108 -1.41344 0
M  V30 1821 C 165.294 1.49096 -1.44171 0
M  V30 1822 C 165.719 1.88038 -0.0481568 0
M  V30 1823 O 165.077 1.54525 0.948243 0
M  V30 1824 C 165.125 2.73088 -2.3549 0
M  V30 1825 O 164.229 3.70514 -1.81088 0
M  V30 1826 H 163.57 0.448801 -0.489361 0
M  V30 1827 H 166.1 0.856992 -1.85787 0
M  V30 1828 H 166.11 3.21413 -2.51312 0
M  V30 1829 H 164.785 2.44081 -3.36745 0
M  V30 1830 H 163.362 3.29441 -1.74708 0
M  V30 1831 N 165.547 1.27147 0.931209 0
M  V30 1832 C 166.457 1.11372 2.06478 0
M  V30 1833 C 167.473 0.044645 1.73943 0
M  V30 1834 O 168.649 0.250417 1.99837 0
M  V30 1835 C 165.714 0.758838 3.38294 0
M  V30 1836 C 164.775 1.90841 3.84549 0
M  V30 1837 C 164.008 1.57036 5.10074 0
M  V30 1838 O 164.231 0.476645 5.68405 0
M  V30 1839 O 163.165 2.40839 5.51616 0
M  V30 1840 H 166.991 2.06493 2.22698 0
M  V30 1841 H 164.576 1.06301 1.04978 0
M  V30 1842 H 166.458 0.574098 4.17471 0
M  V30 1843 H 165.133 -0.162879 3.2329 0
M  V30 1844 H 164.04 2.14819 3.06274 0
M  V30 1845 H 165.373 2.81021 4.04089 0
M  V30 1846 N 167.025 -1.13721 1.09112 0
M  V30 1847 C 167.935 -2.22638 0.73957 0
M  V30 1848 C 168.951 -1.72091 -0.257068 0
M  V30 1849 O 170.127 -2.01155 -0.0992154 0
M  V30 1850 C 167.192 -3.46322 0.16191 0
M  V30 1851 C 166.253 -4.11775 1.21408 0
M  V30 1852 C 165.486 -5.29555 0.663891 0
M  V30 1853 O 165.709 -5.68077 -0.514274 0
M  V30 1854 O 164.643 -5.84973 1.41738 0
M  V30 1855 H 168.469 -2.55074 1.64836 0
M  V30 1856 H 166.054 -1.21791 0.865289 0
M  V30 1857 H 167.936 -4.21107 -0.157073 0
M  V30 1858 H 166.611 -3.15593 -0.719932 0
M  V30 1859 H 165.518 -3.3883 1.58571 0
M  V30 1860 H 166.851 -4.46627 2.06845 0
M  V30 1861 N 168.503 -0.877838 -1.30888 0
M  V30 1862 C 169.728 -0.506629 -2.01117 0
M  V30 1863 C 170.153 0.895564 -1.65412 0
M  V30 1864 O 169.511 1.5923 -0.866922 0
M  V30 1865 C 169.559 -0.680223 -3.54126 0
M  V30 1866 O 168.663 0.277033 -4.11468 0
M  V30 1867 H 168.004 -0.200518 -0.633 0
M  V30 1868 H 170.534 -1.18342 -1.66902 0
M  V30 1869 H 170.544 -0.5765 -4.03907 0
M  V30 1870 H 169.219 -1.70261 -3.79452 0
M  V30 1871 H 167.796 0.127606 -3.72682 0
M  V30 1872 N 169.982 1.44106 -0.638065 0
M  V30 1873 C 170.929 2.30715 0.062701 0
M  V30 1874 C 171.899 1.43882 0.829883 0
M  V30 1875 O 173.084 1.72775 0.809532 0
M  V30 1876 C 170.224 3.29258 1.03358 0
M  V30 1877 C 169.337 4.31192 0.26409 0
M  V30 1878 C 168.472 5.16825 1.22741 0
M  V30 1879 C 167.511 6.10462 0.447475 0
M  V30 1880 N 166.648 6.8877 1.36161 0
M  V30 1881 H 171.488 2.90096 -0.681781 0
M  V30 1882 H 169.025 1.42925 -0.347988 0
M  V30 1883 H 170.983 3.84886 1.60992 0
M  V30 1884 H 169.613 2.71562 1.74511 0
M  V30 1885 H 168.665 3.77981 -0.428295 0
M  V30 1886 H 169.977 4.97619 -0.343052 0
M  V30 1887 H 169.131 5.77004 1.87487 0
M  V30 1888 H 167.87 4.50488 1.86847 0
M  V30 1889 H 166.875 5.49386 -0.213433 0
M  V30 1890 H 168.1 6.78837 -0.188968 0
M  V30 1891 H 166.046 6.25096 1.98975 0
M  V30 1892 H 165.963 7.51663 0.808656 0
M  V30 1893 H 167.231 7.53467 1.99769 0
M  V30 1894 N 171.46 0.379036 1.52974 0
M  V30 1895 C 172.37 -0.468639 2.29872 0
M  V30 1896 C 173.386 -1.08067 1.36373 0
M  V30 1897 O 174.562 -1.08871 1.69438 0
M  V30 1898 C 171.627 -1.58594 3.083 0
M  V30 1899 C 170.688 -1.00007 4.17489 0
M  V30 1900 C 169.921 -2.06413 4.92168 0
M  V30 1901 O 170.144 -3.27751 4.66835 0
M  V30 1902 O 169.078 -1.68717 5.7777 0
M  V30 1903 H 172.904 0.157508 3.03291 0
M  V30 1904 H 170.489 0.143035 1.48714 0
M  V30 1905 H 172.371 -2.23525 3.57232 0
M  V30 1906 H 171.046 -2.19724 2.37703 0
M  V30 1907 H 169.953 -0.314299 3.72777 0
M  V30 1908 H 171.286 -0.433135 4.90291 0
M  V30 1909 N 172.938 -1.57226 0.108567 0
M  V30 1910 C 173.885 -2.14756 -0.845481 0
M  V30 1911 C 174.855 -1.06971 -1.27068 0
M  V30 1912 O 176.04 -1.34827 -1.35005 0
M  V30 1913 C 173.18 -2.74298 -2.09415 0
M  V30 1914 C 172.293 -3.96358 -1.71826 0
M  V30 1915 C 171.428 -4.44021 -2.9158 0
M  V30 1916 C 170.467 -5.58637 -2.50181 0
M  V30 1917 N 169.604 -6.01091 -3.62814 0
M  V30 1918 H 174.444 -2.95961 -0.348035 0
M  V30 1919 H 171.981 -1.46226 -0.160106 0
M  V30 1920 H 173.939 -3.06945 -2.82561 0
M  V30 1921 H 172.569 -1.95801 -2.56636 0
M  V30 1922 H 171.621 -3.69939 -0.885947 0
M  V30 1923 H 172.933 -4.79504 -1.37394 0
M  V30 1924 H 172.087 -4.78522 -3.72963 0
M  V30 1925 H 170.826 -3.59803 -3.29231 0
M  V30 1926 H 169.831 -5.23751 -1.67228 0
M  V30 1927 H 171.056 -6.44613 -2.13659 0
M  V30 1928 H 169.002 -5.19817 -4.00158 0
M  V30 1929 H 168.919 -6.79066 -3.32273 0
M  V30 1930 H 170.187 -6.40227 -4.44668 0
M  V30 1931 N 174.416 0.165178 -1.56732 0
M  V30 1932 C 175.346 1.20651 -1.99914 0
M  V30 1933 C 176.327 1.45827 -0.875705 0
M  V30 1934 O 177.512 1.57057 -1.14223 0
M  V30 1935 C 174.642 2.54401 -2.36427 0
M  V30 1936 C 173.596 2.43782 -3.51787 0
M  V30 1937 C 172.922 3.82078 -3.7406 0
M  V30 1938 C 174.222 1.93732 -4.85041 0
M  V30 1939 H 175.916 0.847534 -2.87154 0
M  V30 1940 H 173.462 0.40625 -1.38151 0
M  V30 1941 H 175.415 3.27458 -2.65234 0
M  V30 1942 H 174.139 2.92098 -1.46103 0
M  V30 1943 H 172.798 1.73178 -3.23117 0
M  V30 1944 H 172.446 4.17179 -2.81017 0
M  V30 1945 H 172.146 3.7584 -4.51684 0
M  V30 1946 H 173.67 4.56712 -4.05274 0
M  V30 1947 H 175.084 2.56569 -5.12684 0
M  V30 1948 H 173.481 1.98428 -5.66345 0
M  V30 1949 H 174.551 0.891962 -4.76626 0
M  V30 1950 N 175.894 1.51508 0.433938 0
M  V30 1951 C 176.841 1.73068 1.52696 0
M  V30 1952 C 177.811 0.572441 1.55924 0
M  V30 1953 O 178.996 0.807253 1.72882 0
M  V30 1954 C 176.136 1.86474 2.90381 0
M  V30 1955 C 175.249 3.14037 2.96656 0
M  V30 1956 C 174.384 3.18019 4.25485 0
M  V30 1957 C 173.423 4.39882 4.2564 0
M  V30 1958 N 172.56 4.41394 5.45999 0
M  V30 1959 H 177.4 2.66366 1.33615 0
M  V30 1960 H 174.937 1.32008 0.649018 0
M  V30 1961 H 176.895 1.92229 3.70275 0
M  V30 1962 H 175.525 0.965809 3.08013 0
M  V30 1963 H 174.577 3.17575 2.09404 0
M  V30 1964 H 175.889 4.0394 2.92633 0
M  V30 1965 H 175.043 3.22708 5.13755 0
M  V30 1966 H 173.782 2.2601 4.3217 0
M  V30 1967 H 172.787 4.35366 3.35763 0
M  V30 1968 H 174.012 5.33159 4.20617 0
M  V30 1969 H 171.958 3.52258 5.53399 0
M  V30 1970 H 171.875 5.25111 5.4387 0
M  V30 1971 H 173.143 4.50281 6.36292 0
M  V30 1972 N 177.372 -0.689602 1.41712 0
M  V30 1973 C 178.649 -1.44457 1.31877 0
M  V30 1974 C 179.029 -2.11039 -0.0508537 0
M  V30 1975 O 178.377 -2.02138 -1.06547 0
M  V30 1976 C 178.587 -2.45913 2.47645 0
M  V30 1977 C 179.935 -3.10991 2.89084 0
M  V30 1978 O 180.959 -2.56238 2.47428 0
M  V30 1979 O 179.818 -4.10174 3.61137 0
M  V30 1980 H 176.912 -0.64362 0.519309 0
M  V30 1981 H 179.458 -0.719576 1.53689 0
M  V30 1982 H 178.23 -1.95409 3.39015 0
M  V30 1983 H 177.853 -3.25913 2.27742 0
M  V30 1984 N 178.85 -1.27639 -0.924453 0
M  V30 1985 C 180.096 -1.14336 -1.67497 0
M  V30 1986 C 180.429 0.309465 -1.91718 0
M  V30 1987 O 179.704 1.22608 -1.50989 0
M  V30 1988 C 179.987 -1.93096 -3.0395 0
M  V30 1989 C 179.84 -3.46381 -2.8695 0
M  V30 1990 C 181.159 -1.73798 -4.0433 0
M  V30 1991 H 178.278 -0.416728 -0.607871 0
M  V30 1992 H 180.92 -1.56832 -1.07256 0
M  V30 1993 H 179.07 -1.56982 -3.55372 0
M  V30 1994 H 180.742 -3.92343 -2.42621 0
M  V30 1995 H 178.985 -3.72557 -2.22225 0
M  V30 1996 H 179.656 -3.96735 -3.83804 0
M  V30 1997 H 182.132 -2.05293 -3.61931 0
M  V30 1998 H 181.008 -2.31294 -4.97789 0
M  V30 1999 H 181.269 -0.686725 -4.36734 0
M  V30 2000 N 180.328 1.1314 -1.09713 0
M  V30 2001 C 181.575 1.84484 -0.834987 0
M  V30 2002 C 181.903 1.83689 0.639418 0
M  V30 2003 O 181.158 1.2724 1.4869 0
M  V30 2004 C 181.457 3.32167 -1.3191 0
M  V30 2005 C 181.123 3.53139 -2.80363 0
M  V30 2006 C 179.785 3.58571 -3.20905 0
M  V30 2007 C 182.137 3.60866 -3.76065 0
M  V30 2008 C 179.465 3.69267 -4.55916 0
M  V30 2009 C 181.817 3.73089 -5.10869 0
M  V30 2010 C 180.481 3.76775 -5.50996 0
M  V30 2011 H 179.751 0.675073 -0.305544 0
M  V30 2012 H 182.398 1.33554 -1.37243 0
M  V30 2013 H 180.703 3.85469 -0.701517 0
M  V30 2014 H 182.4 3.85821 -1.09284 0
M  V30 2015 H 178.99 3.49569 -2.47991 0
M  V30 2016 H 183.174 3.55946 -3.45855 0
M  V30 2017 H 178.43 3.70388 -4.86438 0
M  V30 2018 H 182.604 3.78011 -5.84877 0
M  V30 2019 H 180.231 3.84815 -6.55608 0
M  V30 2020 N 181.806 0.884767 1.30421 0
M  V30 2021 C 182.716 0.355398 2.31892 0
M  V30 2022 C 183.732 -0.542261 1.65335 0
M  V30 2023 O 184.908 -0.435432 1.96637 0
M  V30 2024 C 181.973 -0.421661 3.44126 0
M  V30 2025 C 181.034 0.505727 4.26311 0
M  V30 2026 C 180.267 -0.234343 5.33185 0
M  V30 2027 O 180.49 -1.46045 5.51386 0
M  V30 2028 O 179.424 0.415443 6.00465 0
M  V30 2029 H 183.25 1.19685 2.79122 0
M  V30 2030 H 180.835 0.648596 1.34587 0
M  V30 2031 H 182.717 -0.861641 4.12497 0
M  V30 2032 H 181.392 -1.23942 2.99032 0
M  V30 2033 H 180.299 0.994513 3.60639 0
M  V30 2034 H 181.632 1.28948 4.75009 0
M  V30 2035 N 183.284 -1.43765 0.645699 0
M  V30 2036 C 184.514 -2.05953 0.163318 0
M  V30 2037 C 184.922 -1.48432 -1.17322 0
M  V30 2038 O 184.265 -0.607295 -1.73371 0
M  V30 2039 C 184.327 -3.59499 -0.0103065 0
M  V30 2040 C 183.991 -4.39563 1.25035 0
M  V30 2041 C 184.988 -4.72108 2.17739 0
M  V30 2042 C 182.673 -4.79697 1.48983 0
M  V30 2043 C 184.667 -5.43688 3.3269 0
M  V30 2044 C 182.354 -5.51023 2.64229 0
M  V30 2045 C 183.352 -5.8294 3.55908 0
M  V30 2046 O 183.04 -6.5281 4.69142 0
M  V30 2047 H 182.772 -0.670798 0.0836986 0
M  V30 2048 H 185.326 -1.85384 0.884407 0
M  V30 2049 H 183.556 -3.78613 -0.78669 0
M  V30 2050 H 185.245 -4.03408 -0.449087 0
M  V30 2051 H 186.011 -4.41627 2.00476 0
M  V30 2052 H 181.89 -4.54266 0.785078 0
M  V30 2053 H 185.434 -5.68517 4.04269 0
M  V30 2054 H 181.331 -5.8092 2.81429 0
M  V30 2055 H 182.099 -6.71288 4.6831 0
M  V30 2056 N 184.763 -0.387143 -1.52771 0
M  V30 2057 C 186.009 0.188506 -2.02525 0
M  V30 2058 C 186.364 1.44649 -1.26864 0
M  V30 2059 O 185.657 1.88189 -0.359945 0
M  V30 2060 C 185.851 0.512209 -3.53711 0
M  V30 2061 C 185.68 -0.712855 -4.44014 0
M  V30 2062 C 184.45 -1.23147 -4.90064 0
M  V30 2063 C 186.648 -1.58453 -4.89282 0
M  V30 2064 N 184.63 -2.41431 -5.64433 0
M  V30 2065 C 186.001 -2.61381 -5.6221 0
M  V30 2066 C 188.056 -1.60488 -4.71326 0
M  V30 2067 C 186.759 -3.66227 -6.19088 0
M  V30 2068 C 188.785 -2.6424 -5.29085 0
M  V30 2069 C 188.147 -3.6589 -6.01917 0
M  V30 2070 H 184.246 0.0311236 -0.78138 0
M  V30 2071 H 186.83 -0.536548 -1.87161 0
M  V30 2072 H 185.001 1.20632 -3.69192 0
M  V30 2073 H 186.733 1.07482 -3.90166 0
M  V30 2074 H 183.488 -0.792795 -4.66917 0
M  V30 2075 H 183.912 -3.01274 -6.0627 0
M  V30 2076 H 188.554 -0.83247 -4.14524 0
M  V30 2077 H 186.272 -4.44337 -6.74974 0
M  V30 2078 H 189.858 -2.66695 -5.17074 0
M  V30 2079 H 188.738 -4.44855 -6.45813 0
M  V30 2080 N 186.241 1.57166 -0.116904 0
M  V30 2081 C 187.189 2.16457 0.851418 0
M  V30 2082 C 188.183 1.11323 1.27686 0
M  V30 2083 O 189.389 1.2963 1.24884 0
M  V30 2084 H 185.764 0.69271 0.292672 0
M  V30 2085 H 187.735 2.96605 0.32685 0
M  V30 2086 C 186.484 2.77689 2.09246 0
M  V30 2087 H 185.807 3.58285 1.77402 0
M  V30 2088 H 187.247 3.22716 2.7501 0
M  V30 2089 C 185.706 1.74667 2.88085 0
M  V30 2090 O 186.236 1.19877 3.83396 0
M  V30 2091 N 184.442 1.44656 2.52038 0
M  V30 2092 H 183.989 1.89402 1.74599 0
M  V30 2093 H 183.947 0.759675 3.05084 0
M  V30 2094 N 187.719 -0.156864 1.56817 0
M  V30 2095 C 188.967 -0.869404 1.82444 0
M  V30 2096 C 189.288 -1.82147 0.69623 0
M  V30 2097 O 188.558 -1.93847 -0.28287 0
M  V30 2098 H 187.138 -0.324043 0.673056 0
M  V30 2099 H 189.8 -0.153224 1.94297 0
M  V30 2100 H 188.896 -1.43761 2.77019 0
M  V30 2101 N 189.197 -1.51736 -0.425897 0
M  V30 2102 C 190.144 -1.73875 -1.51776 0
M  V30 2103 C 191.114 -0.580702 -1.55618 0
M  V30 2104 O 192.299 -0.81641 -1.72451 0
M  V30 2105 C 189.439 -1.88012 -2.89388 0
M  V30 2106 C 188.552 -3.15606 -2.94986 0
M  V30 2107 C 187.687 -3.20271 -4.23793 0
M  V30 2108 C 186.726 -4.42134 -4.23302 0
M  V30 2109 N 185.863 -4.44284 -5.43651 0
M  V30 2110 H 190.703 -2.67071 -1.32201 0
M  V30 2111 H 188.24 -1.32351 -0.642008 0
M  V30 2112 H 190.198 -1.9419 -3.69251 0
M  V30 2113 H 188.828 -0.98213 -3.07496 0
M  V30 2114 H 187.88 -3.18681 -2.07717 0
M  V30 2115 H 189.192 -4.05486 -2.90486 0
M  V30 2116 H 188.346 -3.25428 -5.12036 0
M  V30 2117 H 187.085 -2.28299 -4.30965 0
M  V30 2118 H 186.09 -4.3714 -3.3345 0
M  V30 2119 H 187.315 -5.35382 -4.17783 0
M  V30 2120 H 185.261 -3.55188 -5.51523 0
M  V30 2121 H 185.178 -5.27988 -5.41078 0
M  V30 2122 H 186.446 -4.53649 -6.33895 0
M  V30 2123 N 190.675 0.682077 -1.42076 0
M  V30 2124 C 191.903 1.47057 -1.4554 0
M  V30 2125 C 192.318 1.8869 -0.0645779 0
M  V30 2126 O 191.675 1.57666 0.919115 0
M  V30 2127 C 191.726 2.72442 -2.37609 0
M  V30 2128 O 191.447 2.32559 -3.71279 0
M  V30 2129 C 192.948 3.66069 -2.50017 0
M  V30 2130 H 190.168 0.452737 -0.495248 0
M  V30 2131 H 192.712 0.838695 -1.8651 0
M  V30 2132 H 190.867 3.31835 -1.9991 0
M  V30 2133 H 191.281 3.13475 -4.20516 0
M  V30 2134 H 192.755 4.50792 -3.18576 0
M  V30 2135 H 193.232 4.11476 -1.53572 0
M  V30 2136 H 193.838 3.12572 -2.88407 0
M  V30 2137 N 192.153 1.28127 0.917671 0
M  V30 2138 C 193.381 1.17892 1.70026 0
M  V30 2139 C 193.796 -0.262958 1.8696 0
M  V30 2140 O 193.153 -1.17811 1.3938 0
M  V30 2141 C 193.204 1.86872 3.09453 0
M  V30 2142 O 192.925 3.25428 2.93306 0
M  V30 2143 C 194.426 1.8289 4.03815 0
M  V30 2144 H 191.646 0.40942 0.531617 0
M  V30 2145 H 194.19 1.69181 1.14883 0
M  V30 2146 H 192.345 1.39464 3.61426 0
M  V30 2147 H 192.759 3.59918 3.81523 0
M  V30 2148 H 194.233 2.35751 4.99125 0
M  V30 2149 H 194.71 0.800412 4.31845 0
M  V30 2150 H 195.316 2.29959 3.57769 0
M  V30 2151 N 193.631 -1.12557 1.10312 0
M  V30 2152 C 194.856 -1.88405 0.867085 0
M  V30 2153 C 195.281 -1.79038 -0.576817 0
M  V30 2154 O 194.639 -1.14439 -1.40618 0
M  V30 2155 C 194.687 -3.3563 1.31851 0
M  V30 2156 O 193.791 -4.09565 0.482734 0
M  V30 2157 H 193.132 -0.585455 0.313271 0
M  V30 2158 H 195.662 -1.42352 1.4696 0
M  V30 2159 H 195.672 -3.86469 1.3079 0
M  V30 2160 H 194.347 -3.41765 2.37001 0
M  V30 2161 H 192.924 -3.68695 0.558448 0
M  V30 2162 N 195.109 -0.891671 -1.2995 0
M  V30 2163 C 196.019 -0.367691 -2.31701 0
M  V30 2164 C 197.035 0.533486 -1.6562 0
M  V30 2165 O 198.211 0.424997 -1.96865 0
M  V30 2166 C 195.276 0.403406 -3.44345 0
M  V30 2167 C 194.337 -0.528328 -4.26037 0
M  V30 2168 C 193.57 0.206063 -5.33302 0
M  V30 2169 O 193.793 1.43119 -5.52153 0
M  V30 2170 O 192.727 -0.447281 -6.00236 0
M  V30 2171 H 196.553 -1.21163 -2.78484 0
M  V30 2172 H 194.138 -0.655725 -1.34241 0
M  V30 2173 H 196.02 0.839753 -4.12948 0
M  V30 2174 H 194.695 1.22354 -2.99685 0
M  V30 2175 H 193.602 -1.01362 -3.60106 0
M  V30 2176 H 194.935 -1.31465 -4.74318 0
M  V30 2177 N 196.587 1.43421 -0.653314 0
M  V30 2178 C 197.517 2.33487 0.0246656 0
M  V30 2179 C 198.498 1.49475 0.811863 0
M  V30 2180 O 199.683 1.78139 0.773322 0
M  V30 2181 C 196.813 3.32841 0.99166 0
M  V30 2182 C 195.767 4.26842 0.314568 0
M  V30 2183 C 195.093 5.16236 1.39302 0
M  V30 2184 C 196.393 5.16243 -0.793095 0
M  V30 2185 H 198.087 2.90427 -0.727481 0
M  V30 2186 H 195.633 1.39649 -0.351287 0
M  V30 2187 H 197.586 3.94747 1.47487 0
M  V30 2188 H 196.31 2.74158 1.77497 0
M  V30 2189 H 194.969 3.663 -0.148199 0
M  V30 2190 H 194.617 4.53891 2.16776 0
M  V30 2191 H 194.317 5.79948 0.945223 0
M  V30 2192 H 195.841 5.81015 1.87759 0
M  V30 2193 H 197.255 5.71958 -0.392039 0
M  V30 2194 H 195.652 5.88676 -1.16536 0
M  V30 2195 H 196.722 4.55927 -1.65103 0
M  V30 2196 N 198.065 0.39524 1.52563 0
M  V30 2197 C 199.028 -0.425001 2.25225 0
M  V30 2198 C 200.028 -0.985266 1.27079 0
M  V30 2199 O 201.218 -0.866332 1.5113 0
M  V30 2200 C 198.35 -1.59686 3.01186 0
M  V30 2201 H 199.543 0.211233 2.99155 0
M  V30 2202 H 197.096 0.147472 1.55603 0
M  V30 2203 H 197.831 -2.27035 2.31572 0
M  V30 2204 H 197.616 -1.20176 3.73229 0
M  V30 2205 H 199.106 -2.17743 3.5634 0
M  V30 2206 N 199.544 -1.57102 0.125237 0
M  V30 2207 C 200.772 -1.99761 -0.538797 0
M  V30 2208 C 201.187 -1.00503 -1.59827 0
M  V30 2209 O 200.544 0.00119474 -1.825 0
M  V30 2210 C 200.595 -3.42408 -1.15927 0
M  V30 2211 O 200.316 -4.37869 -0.142143 0
M  V30 2212 C 201.817 -4.00232 -1.90602 0
M  V30 2213 H 199.037 -0.655772 -0.14214 0
M  V30 2214 H 201.581 -2.03383 0.213413 0
M  V30 2215 H 199.736 -3.39706 -1.86223 0
M  V30 2216 H 200.15 -5.21128 -0.593775 0
M  V30 2217 H 201.624 -5.02105 -2.29335 0
M  V30 2218 H 202.101 -3.39721 -2.78363 0
M  V30 2219 H 202.707 -4.06499 -1.25055 0
M  V30 2220 N 201.022 0.148545 -1.56898 0
M  V30 2221 C 202.247 0.880385 -1.87787 0
M  V30 2222 C 202.672 1.74018 -0.714093 0
M  V30 2223 O 202.03 1.78153 0.336343 0
M  V30 2224 C 202.078 1.71422 -3.17249 0
M  V30 2225 O 201.182 2.8183 -3.01074 0
M  V30 2226 H 200.523 0.245301 -0.617028 0
M  V30 2227 H 203.053 0.139826 -2.04122 0
M  V30 2228 H 203.063 2.10954 -3.49231 0
M  V30 2229 H 201.738 1.08284 -4.01556 0
M  V30 2230 H 200.315 2.45715 -2.80497 0
M  V30 2231 N 202.5 1.5196 0.417844 0
M  V30 2232 C 203.73 1.69181 1.18581 0
M  V30 2233 C 204.138 0.397104 1.84986 0
M  V30 2234 O 203.481 -0.636011 1.72339 0
M  V30 2235 C 203.543 2.76497 2.29759 0
M  V30 2236 C 203.207 4.18514 1.83563 0
M  V30 2237 C 204.204 5.02648 1.32821 0
M  V30 2238 C 201.889 4.64708 1.90661 0
M  V30 2239 C 203.883 6.31044 0.897894 0
M  V30 2240 C 201.57 5.93096 1.47241 0
M  V30 2241 C 202.568 6.76093 0.968891 0
M  V30 2242 O 202.256 8.02078 0.540924 0
M  V30 2243 H 201.988 0.570457 0.362705 0
M  V30 2244 H 204.542 1.99249 0.498885 0
M  V30 2245 H 202.772 2.41786 3.01789 0
M  V30 2246 H 204.461 2.82403 2.91553 0
M  V30 2247 H 205.227 4.68154 1.26716 0
M  V30 2248 H 201.106 4.00216 2.28797 0
M  V30 2249 H 204.65 6.95776 0.504192 0
M  V30 2250 H 200.547 6.271 1.53022 0
M  V30 2251 H 201.315 8.15794 0.66502 0
M  V30 2252 N 203.978 -0.674533 1.42435 0
M  V30 2253 C 204.911 -1.79924 1.40366 0
M  V30 2254 C 205.889 -1.60378 0.267899 0
M  V30 2255 O 207.073 -1.82847 0.458159 0
M  V30 2256 C 204.2 -3.16927 1.19478 0
M  V30 2257 C 203.246 -3.55221 2.36051 0
M  V30 2258 S 204.079 -3.5762 3.98583 0
M  V30 2259 C 205.235 -4.97315 3.80038 0
M  V30 2260 H 205.468 -1.81405 2.35541 0
M  V30 2261 H 203.001 -0.845221 1.29211 0
M  V30 2262 H 204.959 -3.96007 1.08114 0
M  V30 2263 H 203.62 -3.13031 0.258883 0
M  V30 2264 H 202.813 -4.54804 2.17185 0
M  V30 2265 H 202.415 -2.83502 2.43932 0
M  V30 2266 H 204.707 -5.85401 3.41045 0
M  V30 2267 H 205.65 -5.21228 4.79298 0
M  V30 2268 H 206.058 -4.69845 3.12899 0
M  V30 2269 N 205.456 -1.28612 -0.910864 0
M  V30 2270 C 206.684 -1.18792 -1.69399 0
M  V30 2271 C 207.099 0.253039 -1.87097 0
M  V30 2272 O 206.456 1.17071 -1.40003 0
M  V30 2273 C 206.507 -1.88511 -3.08457 0
M  V30 2274 O 206.228 -3.26979 -2.91576 0
M  V30 2275 C 207.729 -1.85029 -4.02839 0
M  V30 2276 H 204.949 -0.412233 -0.529438 0
M  V30 2277 H 207.493 -1.69788 -1.13984 0
M  V30 2278 H 205.648 -1.41379 -3.60681 0
M  V30 2279 H 206.062 -3.61936 -3.79608 0
M  V30 2280 H 207.536 -2.38395 -4.97867 0
M  V30 2281 H 208.013 -0.823303 -4.31414 0
M  V30 2282 H 208.619 -2.31853 -3.56545 0
M  V30 2283 N 206.934 1.1197 -1.10907 0
M  V30 2284 C 207.844 2.21433 -0.774896 0
M  V30 2285 C 208.86 1.72478 0.229657 0
M  V30 2286 O 210.036 2.01288 0.0672008 0
M  V30 2287 C 207.101 3.4602 -0.216986 0
M  V30 2288 C 206.162 4.09791 -1.27944 0
M  V30 2289 C 205.395 5.28431 -0.748055 0
M  V30 2290 O 205.618 5.68823 0.423833 0
M  V30 2291 O 204.552 5.82644 -1.51027 0
M  V30 2292 H 208.378 2.5242 -1.68873 0
M  V30 2293 H 205.963 1.20399 -0.884555 0
M  V30 2294 H 207.845 4.21304 0.090059 0
M  V30 2295 H 206.52 3.16698 0.669633 0
M  V30 2296 H 205.427 3.36265 -1.63941 0
M  V30 2297 H 206.76 4.4328 -2.13925 0
M  V30 2298 N 208.412 0.89855 1.29475 0
M  V30 2299 C 209.322 0.379974 2.31502 0
M  V30 2300 C 210.338 -0.524695 1.659 0
M  V30 2301 O 211.514 -0.414551 1.97087 0
M  V30 2302 C 208.579 -0.385138 3.44554 0
M  V30 2303 C 207.64 0.550914 4.2575 0
M  V30 2304 C 206.873 -0.177778 5.33404 0
M  V30 2305 O 207.096 -1.40189 5.52904 0
M  V30 2306 O 206.03 0.479106 5.9999 0
M  V30 2307 H 209.856 1.22639 2.77837 0
M  V30 2308 H 207.441 0.662834 1.33891 0
M  V30 2309 H 209.323 -0.817841 4.13388 0
M  V30 2310 H 207.998 -1.20763 3.0033 0
M  V30 2311 H 206.905 1.03271 3.59564 0
M  V30 2312 H 208.238 1.33979 4.73614 0
M  V30 2313 N 209.89 -1.43072 0.660911 0
M  V30 2314 C 211.118 -2.06067 0.185422 0
M  V30 2315 C 211.533 -1.49582 -1.15198 0
M  V30 2316 O 210.89 -0.630134 -1.71276 0
M  V30 2317 C 210.941 -3.61371 0.0966523 0
M  V30 2318 O 210.662 -4.15758 1.38119 0
M  V30 2319 C 212.163 -4.41455 -0.403996 0
M  V30 2320 H 209.383 -0.664459 0.0934604 0
M  V30 2321 H 211.927 -1.83447 0.90373 0
M  V30 2322 H 210.082 -3.8315 -0.572259 0
M  V30 2323 H 210.496 -5.09499 1.24542 0
M  V30 2324 H 211.97 -5.50437 -0.415045 0
M  V30 2325 H 212.447 -4.15036 -1.43674 0
M  V30 2326 H 213.053 -4.24663 0.232691 0
M  V30 2327 N 211.368 -0.403325 -1.52352 0
M  V30 2328 C 212.784 -0.0539281 -1.59509 0
M  V30 2329 C 212.984 1.43307 -1.41652 0
M  V30 2330 O 212.04 2.19924 -1.24056 0
M  V30 2331 C 213.353 -0.543654 -2.95745 0
M  V30 2332 C 214.901 -0.501125 -3.08962 0
M  V30 2333 C 215.376 -0.967267 -4.47669 0
M  V30 2334 N 216.867 -0.923849 -4.53893 0
M  V30 2335 C 217.602 -1.25578 -5.5948 0
M  V30 2336 N 217.098 -1.65889 -6.72646 0
M  V30 2337 N 218.891 -1.17613 -5.49658 0
M  V30 2338 H 211.042 -1.37123 -1.62206 0
M  V30 2339 H 213.305 -0.56294 -0.76276 0
M  V30 2340 H 213.011 -1.58275 -3.14073 0
M  V30 2341 H 212.885 0.0498042 -3.77167 0
M  V30 2342 H 215.272 0.528909 -2.90321 0
M  V30 2343 H 215.353 -1.13056 -2.2946 0
M  V30 2344 H 214.997 -1.9956 -4.67053 0
M  V30 2345 H 214.927 -0.314698 -5.25659 0
M  V30 2346 H 217.418 -0.627403 -3.72655 0
M  V30 2347 H 217.731 -1.89543 -7.49195 0
M  V30 2348 H 216.076 -1.69787 -6.73942 0
M  V30 2349 H 219.267 -0.860115 -4.6013 0
M  V30 2350 H 219.44 -1.43812 -6.3184 0
M  V30 2351 N 212.846 1.57033 -0.133567 0
M  V30 2352 C 213.756 2.19632 0.824564 0
M  V30 2353 C 214.772 1.17666 1.28182 0
M  V30 2354 O 215.948 1.50193 1.3418 0
M  V30 2355 C 213.013 2.79499 2.05137 0
M  V30 2356 C 212.074 3.96548 1.64464 0
M  V30 2357 C 211.307 4.5355 2.81297 0
M  V30 2358 O 211.53 4.09438 3.97136 0
M  V30 2359 O 210.464 5.44018 2.57542 0
M  V30 2360 H 214.29 3.01991 0.321766 0
M  V30 2361 H 211.875 1.49112 0.0927889 0
M  V30 2362 H 213.757 3.17602 2.7696 0
M  V30 2363 H 212.432 2.00162 2.54395 0
M  V30 2364 H 211.339 3.63186 0.897048 0
M  V30 2365 H 212.672 4.77364 1.19934 0
M  V30 2366 N 214.325 -0.140222 1.56975 0
M  V30 2367 C 215.288 -1.15689 1.97861 0
M  V30 2368 C 216.288 -1.3549 0.865974 0
M  V30 2369 O 217.478 -1.32367 1.13246 0
M  V30 2370 C 214.61 -2.51582 2.30042 0
M  V30 2371 H 215.803 -0.805971 2.88867 0
M  V30 2372 H 213.356 -0.383801 1.51515 0
M  V30 2373 H 214.091 -2.91632 1.41849 0
M  V30 2374 H 213.876 -2.38569 3.11171 0
M  V30 2375 H 215.366 -3.24792 2.62488 0
M  V30 2376 N 215.803 -1.52179 -0.40978 0
M  V30 2377 C 217.049 -1.66453 -1.15851 0
M  V30 2378 C 217.382 -0.392972 -1.90182 0
M  V30 2379 O 216.657 0.608579 -1.84734 0
M  V30 2380 C 216.94 -2.88612 -2.15349 0
M  V30 2381 C 216.793 -4.25815 -1.44918 0
M  V30 2382 C 218.112 -3.06294 -3.16026 0
M  V30 2383 H 215.231 -0.60575 -0.419805 0
M  V30 2384 H 217.873 -1.84732 -0.444314 0
M  V30 2385 H 216.023 -2.73158 -2.76255 0
M  V30 2386 H 217.695 -4.52995 -0.871365 0
M  V30 2387 H 215.938 -4.27247 -0.751159 0
M  V30 2388 H 216.609 -5.07337 -2.17516 0
M  V30 2389 H 219.085 -3.20641 -2.65195 0
M  V30 2390 H 217.961 -3.93283 -3.8291 0
M  V30 2391 H 218.222 -2.19579 -3.83715 0
M  V30 2392 N 217.281 0.66697 -1.42791 0
M  V30 2393 C 218.229 1.80157 -1.47127 0
M  V30 2394 C 219.223 1.65825 -0.346199 0
M  V30 2395 O 220.429 1.72338 -0.519572 0
M  V30 2396 H 216.804 0.594158 -0.460956 0
M  V30 2397 H 218.775 1.73619 -2.42692 0
M  V30 2398 C 217.524 3.18351 -1.39813 0
M  V30 2399 H 216.847 3.3001 -2.25684 0
M  V30 2400 H 218.287 3.97736 -1.46908 0
M  V30 2401 C 216.746 3.36707 -0.11391 0
M  V30 2402 O 217.276 3.93027 0.830241 0
M  V30 2403 N 215.482 2.90586 -0.0285295 0
M  V30 2404 H 215.029 2.4494 -0.79764 0
M  V30 2405 H 214.987 3.03245 0.830063 0
M  V30 2406 N 218.759 1.29093 0.90403 0
M  V30 2407 C 219.999 1.18076 1.66845 0
M  V30 2408 C 220.363 -0.26436 1.90171 0
M  V30 2409 O 221.564 -0.497423 2.64157 0
M  V30 2410 C 219.835 1.96722 2.98388 0
M  V30 2411 S 221.394 2.0219 3.89441 0
M  V30 2412 H 218.212 0.421104 0.572881 0
M  V30 2413 H 220.814 1.63322 1.07453 0
M  V30 2414 H 219.518 3.00866 2.7912 0
M  V30 2415 H 219.049 1.52064 3.62823 0
M  V30 2416 H 221.064 1.13545 4.83034 0
M  V30 2417 N 220.237 -1.11381 1.11499 0
M  V30 2418 C 221.514 -1.7955 0.775965 0
M  V30 2419 C 221.894 -1.97859 -0.73588 0
M  V30 2420 O 221.242 -1.56376 -1.66609 0
M  V30 2421 C 221.452 -3.13196 1.53977 0
M  V30 2422 C 222.8 -3.88227 1.71944 0
M  V30 2423 O 223.824 -3.22887 1.50407 0
M  V30 2424 O 222.683 -5.05477 2.07738 0
M  V30 2425 H 219.777 -0.777728 0.28119 0
M  V30 2426 H 222.323 -1.18118 1.21845 0
M  V30 2427 H 221.095 -2.95229 2.56818 0
M  V30 2428 H 220.718 -3.82342 1.09088 0
M  V30 2429 N 221.715 -0.905404 -1.28997 0
M  V30 2430 C 222.961 -0.535039 -1.95615 0
M  V30 2431 C 223.294 0.917404 -1.71165 0
M  V30 2432 O 222.569 1.65123 -1.02785 0
M  V30 2433 C 222.852 -0.834918 -3.50287 0
M  V30 2434 C 222.705 -2.33948 -3.84172 0
M  V30 2435 C 224.024 -0.325318 -4.38896 0
M  V30 2436 H 221.143 -0.195861 -0.710498 0
M  V30 2437 H 223.785 -1.13313 -1.52513 0
M  V30 2438 H 221.935 -0.325904 -3.87131 0
M  V30 2439 H 223.607 -2.91847 -3.57243 0
M  V30 2440 H 221.85 -2.79789 -3.31513 0
M  V30 2441 H 222.521 -2.49987 -4.92149 0
M  V30 2442 H 224.997 -0.761256 -4.09077 0
M  V30 2443 H 223.873 -0.564295 -5.45992 0
M  V30 2444 H 224.134 0.774144 -4.35269 0
M  V30 2445 N 223.193 1.4272 -0.668489 0
M  V30 2446 C 224.44 2.01624 -0.18814 0
M  V30 2447 C 224.768 1.5282 1.20317 0
M  V30 2448 O 224.023 0.718323 1.8204 0
M  V30 2449 C 224.322 3.57021 -0.164499 0
M  V30 2450 C 223.988 4.25232 -1.49962 0
M  V30 2451 C 222.65 4.4358 -1.8652 0
M  V30 2452 C 225.002 4.63727 -2.37921 0
M  V30 2453 C 222.33 4.97694 -3.10674 0
M  V30 2454 C 224.682 5.19218 -3.6138 0
M  V30 2455 C 223.346 5.3578 -3.98115 0
M  V30 2456 H 222.616 0.737795 -0.0688454 0
M  V30 2457 H 225.263 1.70991 -0.862225 0
M  V30 2458 H 223.568 3.87285 0.593079 0
M  V30 2459 H 225.265 4.00372 0.224271 0
M  V30 2460 H 221.855 4.11306 -1.20522 0
M  V30 2461 H 226.039 4.4923 -2.10964 0
M  V30 2462 H 221.295 5.08702 -3.39164 0
M  V30 2463 H 225.469 5.4799 -4.29743 0
M  V30 2464 H 223.096 5.77475 -4.94395 0
M  V30 2465 N 224.671 0.411399 1.52136 0
M  V30 2466 C 225.899 -0.163076 2.06256 0
M  V30 2467 C 226.314 -1.3867 1.28125 0
M  V30 2468 O 225.671 -1.79423 0.333721 0
M  V30 2469 C 225.722 -0.511252 3.57867 0
M  V30 2470 O 225.443 0.66378 4.33042 0
M  V30 2471 C 226.944 -1.13921 4.28412 0
M  V30 2472 H 224.164 -0.0193897 0.67072 0
M  V30 2473 H 226.708 0.583007 1.96013 0
M  V30 2474 H 224.863 -1.20723 3.6811 0
M  V30 2475 H 225.277 0.372601 5.23175 0
M  V30 2476 H 226.751 -1.33302 5.35663 0
M  V30 2477 H 227.228 -2.11296 3.85033 0
M  V30 2478 H 227.834 -0.483373 4.22544 0
M  V30 2479 N 226.149 -1.5696 0.141893 0
M  V30 2480 C 227.395 -1.9625 -0.511248 0
M  V30 2481 C 227.728 -1.02654 -1.64851 0
M  V30 2482 O 227.003 -0.0679676 -1.94381 0
M  V30 2483 C 227.286 -3.45285 -1.02227 0
M  V30 2484 C 227.139 -4.49658 0.113138 0
M  V30 2485 C 228.458 -3.96698 -1.90574 0
M  V30 2486 H 225.577 -0.713567 -0.184367 0
M  V30 2487 H 228.219 -1.88698 0.222087 0
M  V30 2488 H 226.369 -3.51852 -1.64719 0
M  V30 2489 H 228.041 -4.55174 0.749302 0
M  V30 2490 H 226.284 -4.26857 0.773026 0
M  V30 2491 H 226.955 -5.51258 -0.286053 0
M  V30 2492 H 229.431 -3.92578 -1.37918 0
M  V30 2493 H 228.307 -5.01453 -2.2324 0
M  V30 2494 H 228.568 -3.3875 -2.84079 0
M  V30 2495 N 227.627 0.131896 -1.57047 0
M  V30 2496 C 228.875 0.840269 -1.83804 0
M  V30 2497 C 229.196 1.81017 -0.72512 0
M  V30 2498 O 228.466 1.94272 0.251995 0
M  V30 2499 H 227.046 0.313294 -0.678127 0
M  V30 2500 H 229.708 0.122294 -1.94516 0
M  V30 2501 H 228.804 1.39335 -2.79271 0
M  V30 2502 N 229.106 1.52395 0.401703 0
M  V30 2503 C 230.054 1.7689 1.51039 0
M  V30 2504 C 231.048 0.636298 1.56996 0
M  V30 2505 O 232.254 0.818507 1.60314 0
M  V30 2506 H 228.629 0.559502 0.502456 0
M  V30 2507 H 230.6 2.69757 1.27568 0
M  V30 2508 C 229.349 1.94331 2.88324 0
M  V30 2509 H 228.672 2.80905 2.84486 0
M  V30 2510 H 230.112 2.15466 3.65172 0
M  V30 2511 C 228.571 0.712396 3.29282 0
M  V30 2512 O 229.101 -0.116218 4.01532 0
M  V30 2513 N 227.307 0.546154 2.85422 0
M  V30 2514 H 226.854 1.22156 2.26794 0
M  V30 2515 H 226.812 -0.276113 3.13185 0
M  V30 2516 N 230.584 -0.659388 1.43143 0
M  V30 2517 C 231.814 -1.44513 1.47646 0
M  V30 2518 C 232.222 -1.88981 0.0910095 0
M  V30 2519 O 231.565 -1.59702 -0.907789 0
M  V30 2520 C 231.627 -2.71663 2.35456 0
M  V30 2521 C 231.291 -2.49175 3.83094 0
M  V30 2522 C 232.288 -2.1279 4.74359 0
M  V30 2523 C 229.973 -2.63691 4.27519 0
M  V30 2524 C 231.967 -1.9121 6.08044 0
M  V30 2525 C 229.654 -2.41726 5.61259 0
M  V30 2526 C 230.652 -2.0554 6.51339 0
M  V30 2527 O 230.34 -1.838 7.82606 0
M  V30 2528 H 230.072 -0.45064 0.503884 0
M  V30 2529 H 232.626 -0.816248 1.88485 0
M  V30 2530 H 230.856 -3.37089 1.89493 0
M  V30 2531 H 232.545 -3.33595 2.31235 0
M  V30 2532 H 233.311 -2.01157 4.41317 0
M  V30 2533 H 229.19 -2.90832 3.57684 0
M  V30 2534 H 232.734 -1.62889 6.78316 0
M  V30 2535 H 228.631 -2.52959 5.9387 0
M  V30 2536 H 229.399 -1.98275 7.94122 0
M  V30 2537 N 232.062 -1.29571 -0.897171 0
M  V30 2538 C 233.292 -1.20408 -1.67886 0
M  V30 2539 C 233.7 0.237429 -1.87704 0
M  V30 2540 O 233.043 1.17048 -1.41582 0
M  V30 2541 C 233.105 -1.84887 -3.08314 0
M  V30 2542 C 232.769 -3.34189 -3.11716 0
M  V30 2543 C 233.766 -4.30374 -2.91675 0
M  V30 2544 C 231.451 -3.75431 -3.33701 0
M  V30 2545 C 233.445 -5.65776 -2.93557 0
M  V30 2546 C 231.132 -5.10955 -3.35214 0
M  V30 2547 C 232.13 -6.05938 -3.15164 0
M  V30 2548 O 231.818 -7.38987 -3.1647 0
M  V30 2549 H 231.55 -0.418289 -0.531046 0
M  V30 2550 H 234.104 -1.71514 -1.13014 0
M  V30 2551 H 232.334 -1.28295 -3.64798 0
M  V30 2552 H 234.023 -1.70011 -3.6858 0
M  V30 2553 H 234.789 -3.99844 -2.74499 0
M  V30 2554 H 230.668 -3.01953 -3.48347 0
M  V30 2555 H 234.212 -6.39889 -2.77826 0
M  V30 2556 H 230.109 -5.4113 -3.51922 0
M  V30 2557 H 230.877 -7.47823 -3.3272 0
M  V30 2558 N 233.54 1.10788 -1.12088 0
M  V30 2559 C 234.77 1.86191 -0.895351 0
M  V30 2560 C 235.178 1.80763 0.558702 0
M  V30 2561 O 234.521 1.19188 1.39785 0
M  V30 2562 C 234.583 3.35659 -1.28737 0
M  V30 2563 C 234.247 3.64849 -2.75198 0
M  V30 2564 C 235.244 3.61757 -3.734 0
M  V30 2565 C 232.929 3.93641 -3.12013 0
M  V30 2566 C 234.923 3.87045 -5.06434 0
M  V30 2567 C 232.61 4.18585 -4.4523 0
M  V30 2568 C 233.608 4.15277 -5.42249 0
M  V30 2569 O 233.296 4.3959 -6.73065 0
M  V30 2570 H 233.028 0.595425 -0.32007 0
M  V30 2571 H 235.582 1.40992 -1.49367 0
M  V30 2572 H 233.812 3.81497 -0.63224 0
M  V30 2573 H 235.501 3.92441 -1.03656 0
M  V30 2574 H 236.267 3.39557 -3.46303 0
M  V30 2575 H 232.146 3.95348 -2.37109 0
M  V30 2576 H 235.69 3.84378 -5.82151 0
M  V30 2577 H 231.587 4.40264 -4.72057 0
M  V30 2578 H 232.355 4.57123 -6.78956 0
M  V30 2579 N 235.018 0.912232 1.28515 0
M  V30 2580 C 235.966 0.389597 2.29314 0
M  V30 2581 C 236.96 -0.517915 1.61289 0
M  V30 2582 O 238.166 -0.399328 1.75515 0
M  V30 2583 H 234.541 0.107386 0.744293 0
M  V30 2584 H 236.512 1.25286 2.70825 0
M  V30 2585 C 235.261 -0.356496 3.45868 0
M  V30 2586 H 234.584 0.332608 3.98414 0
M  V30 2587 H 236.024 -0.686851 4.184 0
M  V30 2588 C 234.483 -1.56383 2.98406 0
M  V30 2589 O 235.013 -2.66294 3.00749 0
M  V30 2590 N 233.219 -1.41029 2.54085 0
M  V30 2591 H 232.766 -0.516089 2.52377 0
M  V30 2592 H 232.724 -2.21939 2.22689 0
M  V30 2593 N 236.496 -1.42363 0.676048 0
M  V30 2594 C 237.744 -2.01123 0.198437 0
M  V30 2595 C 238.065 -1.53731 -1.19966 0
M  V30 2596 O 237.335 -0.759518 -1.80577 0
M  V30 2597 H 235.915 -0.743678 0.0703721 0
M  V30 2598 H 238.577 -1.74263 0.872837 0
M  V30 2599 H 237.673 -3.11454 0.200686 0
M  V30 2600 N 237.974 -0.419461 -1.51915 0
M  V30 2601 C 239.22 0.153166 -2.02221 0
M  V30 2602 C 239.553 1.43907 -1.30401 0
M  V30 2603 O 238.828 1.90055 -0.413438 0
M  V30 2604 C 239.111 0.390291 -3.57979 0
M  V30 2605 C 238.964 -0.913014 -4.40436 0
M  V30 2606 C 240.283 1.16794 -4.2432 0
M  V30 2607 H 237.402 0.0541924 -0.735005 0
M  V30 2608 H 240.044 -0.554955 -1.81715 0
M  V30 2609 H 238.194 0.993491 -3.75582 0
M  V30 2610 H 239.866 -1.54882 -4.34522 0
M  V30 2611 H 238.109 -1.52168 -4.06236 0
M  V30 2612 H 238.78 -0.701361 -5.47526 0
M  V30 2613 H 241.256 0.657161 -4.10878 0
M  V30 2614 H 240.132 1.3026 -5.3322 0
M  V30 2615 H 240.393 2.19132 -3.83971 0
M  V30 2616 N 239.452 1.56882 -0.150215 0
M  V30 2617 C 240.7 1.9584 0.499105 0
M  V30 2618 C 241.021 1.03623 1.65188 0
M  V30 2619 O 240.291 0.0984084 1.95653 0
M  V30 2620 H 238.871 0.723119 0.187373 0
M  V30 2621 H 241.533 1.9358 -0.226466 0
M  V30 2622 H 240.629 2.99638 0.873122 0
M  V30 2623 N 240.93 -0.123565 1.57115 0
M  V30 2624 C 241.88 -1.1575 1.96433 0
M  V30 2625 C 242.864 -1.37313 0.838686 0
M  V30 2626 O 244.056 -1.38482 1.10235 0
M  V30 2627 C 241.185 -2.48526 2.36833 0
M  V30 2628 C 240.271 -2.30457 3.5602 0
M  V30 2629 N 240.662 -1.8219 4.71848 0
M  V30 2630 C 238.96 -2.61129 3.61563 0
M  V30 2631 C 239.661 -1.77721 5.53886 0
M  V30 2632 N 238.637 -2.21899 4.96248 0
M  V30 2633 H 242.439 -0.776797 2.83449 0
M  V30 2634 H 239.953 -0.331364 1.58983 0
M  V30 2635 H 241.95 -3.233 2.63216 0
M  V30 2636 H 240.61 -2.87358 1.5118 0
M  V30 2637 H 241.621 -1.51805 4.95152 0
M  V30 2638 H 238.298 -3.03678 2.86507 0
M  V30 2639 H 239.688 -1.41697 6.56789 0
M  V30 2640 N 242.408 -1.52605 -0.393616 0
M  V30 2641 C 243.654 -1.67672 -1.14079 0
M  V30 2642 C 243.987 -0.413121 -1.89755 0
M  V30 2643 O 243.262 0.588952 -1.85369 0
M  V30 2644 C 243.545 -2.9088 -2.12276 0
M  V30 2645 C 243.398 -4.27329 -1.40394 0
M  V30 2646 C 244.717 -3.09628 -3.12759 0
M  V30 2647 H 241.836 -0.610168 -0.413356 0
M  V30 2648 H 244.478 -1.85193 -0.424696 0
M  V30 2649 H 242.628 -2.76073 -2.73342 0
M  V30 2650 H 244.3 -4.53894 -0.82327 0
M  V30 2651 H 242.543 -4.2802 -0.705801 0
M  V30 2652 H 243.214 -5.09615 -2.12123 0
M  V30 2653 H 245.69 -3.23436 -2.61779 0
M  V30 2654 H 244.566 -3.97322 -3.78717 0
M  V30 2655 H 244.827 -2.23637 -3.81365 0
M  V30 2656 N 243.887 0.651787 -1.4349 0
M  V30 2657 C 245.112 1.44434 -1.48841 0
M  V30 2658 C 245.537 1.8779 -0.107955 0
M  V30 2659 O 244.895 1.57464 0.898602 0
M  V30 2660 C 244.943 2.65458 -2.44059 0
M  V30 2661 O 244.047 3.64566 -1.92784 0
M  V30 2662 H 243.388 0.433005 -0.503391 0
M  V30 2663 H 245.918 0.797451 -1.88419 0
M  V30 2664 H 245.928 3.13255 -2.6141 0
M  V30 2665 H 244.603 2.33244 -3.4434 0
M  V30 2666 H 243.18 3.23716 -1.851 0
M  V30 2667 N 245.365 1.30045 0.890287 0
M  V30 2668 C 246.611 1.18737 1.64406 0
M  V30 2669 C 246.944 -0.258525 1.92472 0
M  V30 2670 O 246.219 -1.18562 1.54186 0
M  V30 2671 C 246.502 2.01087 2.98724 0
M  V30 2672 C 246.355 3.53867 2.77665 0
M  V30 2673 C 247.674 1.84457 3.9958 0
M  V30 2674 H 244.793 0.432698 0.596608 0
M  V30 2675 H 247.435 1.5962 1.0306 0
M  V30 2676 H 245.585 1.66349 3.51084 0
M  V30 2677 H 247.257 3.98637 2.32133 0
M  V30 2678 H 245.5 3.78318 2.12269 0
M  V30 2679 H 246.171 4.06772 3.7315 0
M  V30 2680 H 248.647 2.14817 3.56361 0
M  V30 2681 H 247.523 2.44411 4.91482 0
M  V30 2682 H 247.784 0.802276 4.3476 0
M  V30 2683 N 246.843 -1.10192 1.12674 0
M  V30 2684 C 248.12 -1.78717 0.794965 0
M  V30 2685 C 248.5 -1.98628 -0.714853 0
M  V30 2686 O 247.848 -1.58135 -1.64941 0
M  V30 2687 C 248.058 -3.11546 1.5729 0
M  V30 2688 C 249.406 -3.86382 1.76052 0
M  V30 2689 O 250.43 -3.21274 1.53823 0
M  V30 2690 O 249.289 -5.03246 2.13087 0
M  V30 2691 H 246.383 -0.774702 0.289423 0
M  V30 2692 H 248.929 -1.16819 1.23091 0
M  V30 2693 H 247.701 -2.92489 2.59935 0
M  V30 2694 H 247.324 -3.81164 1.13137 0
M  V30 2695 N 248.321 -0.919034 -1.28029 0
M  V30 2696 C 249.551 -0.570143 -1.98577 0
M  V30 2697 C 249.959 0.854172 -1.68821 0
M  V30 2698 O 249.302 1.57807 -0.940351 0
M  V30 2699 C 249.364 -0.705734 -3.52505 0
M  V30 2700 C 249.028 -2.10057 -4.05863 0
M  V30 2701 C 250.025 -3.07385 -4.19298 0
M  V30 2702 C 247.71 -2.41517 -4.40426 0
M  V30 2703 C 249.704 -4.34287 -4.66555 0
M  V30 2704 C 247.391 -3.68657 -4.87376 0
M  V30 2705 C 248.389 -4.64856 -5.00398 0
M  V30 2706 O 248.077 -5.89735 -5.46322 0
M  V30 2707 H 247.809 -0.215592 -0.6407 0
M  V30 2708 H 250.363 -1.23583 -1.64062 0
M  V30 2709 H 248.593 0.0170414 -3.86696 0
M  V30 2710 H 250.282 -0.363172 -4.04272 0
M  V30 2711 H 251.048 -2.84398 -3.92865 0
M  V30 2712 H 246.927 -1.67389 -4.29537 0
M  V30 2713 H 250.471 -5.09377 -4.76635 0
M  V30 2714 H 246.368 -3.91466 -5.13249 0
M  V30 2715 H 247.136 -5.92599 -5.64596 0
M  V30 2716 N 249.799 1.42003 -0.683588 0
M  V30 2717 C 251.047 2.01015 -0.209101 0
M  V30 2718 C 251.368 1.54365 1.19149 0
M  V30 2719 O 250.638 0.769083 1.80172 0
M  V30 2720 H 249.218 0.743294 -0.074315 0
M  V30 2721 H 251.88 1.73798 -0.882066 0
M  V30 2722 H 250.976 3.11343 -0.2172 0
M  V30 2723 N 251.277 0.427512 1.51691 0
M  V30 2724 C 252.224 -0.388867 2.275 0
M  V30 2725 C 253.194 -1.02532 1.30677 0
M  V30 2726 O 254.379 -1.0461 1.59566 0
M  V30 2727 C 251.519 -1.48954 3.11298 0
M  V30 2728 C 250.632 -0.872194 4.23104 0
M  V30 2729 C 249.767 -1.94709 4.94228 0
M  V30 2730 C 248.806 -1.30766 5.97969 0
M  V30 2731 N 247.943 -2.32349 6.62539 0
M  V30 2732 H 252.783 0.263997 2.96828 0
M  V30 2733 H 250.32 0.142033 1.46413 0
M  V30 2734 H 252.278 -2.13887 3.58201 0
M  V30 2735 H 250.908 -2.11217 2.44105 0
M  V30 2736 H 249.96 -0.111419 3.80237 0
M  V30 2737 H 251.272 -0.365264 4.97461 0
M  V30 2738 H 250.426 -2.67327 5.44629 0
M  V30 2739 H 249.165 -2.48773 4.1948 0
M  V30 2740 H 248.17 -0.566902 5.4687 0
M  V30 2741 H 249.395 -0.774483 6.74669 0
M  V30 2742 H 247.341 -2.85511 5.90609 0
M  V30 2743 H 247.258 -1.8652 7.3263 0
M  V30 2744 H 248.526 -3.04481 7.17574 0
M  V30 2745 N 252.755 -1.56801 0.158532 0
M  V30 2746 C 254.001 -1.96781 -0.490405 0
M  V30 2747 C 254.334 -1.04397 -1.63753 0
M  V30 2748 O 253.609 -0.0885805 -1.94298 0
M  V30 2749 C 253.892 -3.4635 -0.985594 0
M  V30 2750 C 253.745 -4.49512 0.160824 0
M  V30 2751 C 255.064 -3.98697 -1.86355 0
M  V30 2752 H 252.183 -0.715482 -0.176788 0
M  V30 2753 H 254.825 -1.88451 0.242088 0
M  V30 2754 H 252.975 -3.53579 -1.60978 0
M  V30 2755 H 254.647 -4.54353 0.797537 0
M  V30 2756 H 252.89 -4.26013 0.818256 0
M  V30 2757 H 253.561 -5.51531 -0.227569 0
M  V30 2758 H 256.037 -3.94019 -1.33746 0
M  V30 2759 H 254.913 -5.03792 -2.17909 0
M  V30 2760 H 255.174 -3.41744 -2.8047 0
M  V30 2761 N 254.233 0.115231 -1.57178 0
M  V30 2762 C 255.163 1.1423 -2.03651 0
M  V30 2763 C 256.144 1.42967 -0.921655 0
M  V30 2764 O 257.329 1.53343 -1.19162 0
M  V30 2765 C 254.459 2.4675 -2.44401 0
M  V30 2766 C 253.413 2.32467 -3.59365 0
M  V30 2767 C 252.739 3.69984 -3.86026 0
M  V30 2768 C 254.039 1.78203 -4.90959 0
M  V30 2769 H 255.733 0.755749 -2.89705 0
M  V30 2770 H 253.279 0.362093 -1.39373 0
M  V30 2771 H 255.232 3.18854 -2.75517 0
M  V30 2772 H 253.956 2.87302 -1.55322 0
M  V30 2773 H 252.615 1.62811 -3.28463 0
M  V30 2774 H 252.263 4.08028 -2.94147 0
M  V30 2775 H 251.963 3.61279 -4.63412 0
M  V30 2776 H 253.487 4.43587 -4.19599 0
M  V30 2777 H 254.901 2.40128 -5.20587 0
M  V30 2778 H 253.298 1.8031 -5.72371 0
M  V30 2779 H 254.368 0.739876 -4.79222 0
M  V30 2780 N 255.711 1.52812 0.385517 0
M  V30 2781 C 257.127 1.4214 0.725829 0
M  V30 2782 C 257.327 0.544589 1.94001 0
M  V30 2783 O 256.383 0.0193693 2.52493 0
M  V30 2784 C 257.696 2.85042 0.957668 0
M  V30 2785 C 259.244 2.94543 1.05892 0
M  V30 2786 C 259.719 4.38464 1.32337 0
M  V30 2787 N 261.21 4.41804 1.39151 0
M  V30 2788 C 261.945 5.5025 1.61285 0
M  V30 2789 N 261.441 6.68775 1.80866 0
M  V30 2790 N 263.234 5.37798 1.63492 0
M  V30 2791 H 255.385 2.08338 -0.413383 0
M  V30 2792 H 257.648 0.940016 -0.122775 0
M  V30 2793 H 257.354 3.51431 0.137568 0
M  V30 2794 H 257.228 3.27505 1.87137 0
M  V30 2795 H 259.615 2.28321 1.86959 0
M  V30 2796 H 259.696 2.55504 0.123057 0
M  V30 2797 H 259.34 5.05254 0.517793 0
M  V30 2798 H 259.27 4.75059 2.27214 0
M  V30 2799 H 261.761 3.56377 1.25713 0
M  V30 2800 H 262.074 7.47197 1.97271 0
M  V30 2801 H 260.419 6.71797 1.78083 0
M  V30 2802 H 263.61 4.44171 1.47749 0
M  V30 2803 H 263.783 6.22382 1.80402 0
M  V30 2804 N 257.189 -0.644168 1.43834 0
M  V30 2805 C 258.435 -1.40603 1.46146 0
M  V30 2806 C 258.768 -1.93997 0.0887717 0
M  V30 2807 O 258.043 -1.72854 -0.891724 0
M  V30 2808 C 258.326 -2.58086 2.51124 0
M  V30 2809 C 258.179 -2.10126 3.97702 0
M  V30 2810 C 259.498 -3.60291 2.52742 0
M  V30 2811 H 256.617 -0.509905 0.532134 0
M  V30 2812 H 259.259 -0.729502 1.75437 0
M  V30 2813 H 257.409 -3.15801 2.26278 0
M  V30 2814 H 259.081 -1.57342 4.33637 0
M  V30 2815 H 257.324 -1.41419 4.10101 0
M  V30 2816 H 257.995 -2.94649 4.66783 0
M  V30 2817 H 260.471 -3.12352 2.7491 0
M  V30 2818 H 259.347 -4.40032 3.28121 0
M  V30 2819 H 259.608 -4.1349 1.56455 0
M  V30 2820 N 258.668 -1.30515 -0.883378 0
M  V30 2821 C 259.916 -1.19194 -1.63209 0
M  V30 2822 C 260.237 0.253205 -1.93349 0
M  V30 2823 O 259.507 1.17025 -1.57105 0
M  V30 2824 H 258.087 -0.438148 -0.605009 0
M  V30 2825 H 260.749 -1.63663 -1.05832 0
M  V30 2826 H 259.845 -1.75396 -2.58153 0
M  V30 2827 N 260.146 1.09593 -1.13257 0
M  V30 2828 C 261.393 1.81734 -0.893257 0
M  V30 2829 C 261.721 1.8563 0.580656 0
M  V30 2830 O 260.976 1.31906 1.44566 0
M  V30 2831 C 261.275 3.27802 -1.42411 0
M  V30 2832 C 260.941 3.44041 -2.91456 0
M  V30 2833 C 259.603 3.48181 -3.3215 0
M  V30 2834 C 261.955 3.48719 -3.87356 0
M  V30 2835 C 259.283 3.54575 -4.67433 0
M  V30 2836 C 261.635 3.56648 -5.2248 0
M  V30 2837 C 260.299 3.59055 -5.62704 0
M  V30 2838 H 259.569 0.665011 -0.326866 0
M  V30 2839 H 262.216 1.2912 -1.41422 0
M  V30 2840 H 260.521 3.83042 -0.823795 0
M  V30 2841 H 262.218 3.82149 -1.21503 0
M  V30 2842 H 258.808 3.41502 -2.58987 0
M  V30 2843 H 262.992 3.44763 -3.57004 0
M  V30 2844 H 258.248 3.54725 -4.97976 0
M  V30 2845 H 262.422 3.59212 -5.96607 0
M  V30 2846 H 260.049 3.63763 -6.67518 0
M  V30 2847 N 261.624 0.925811 1.2754 0
M  V30 2848 C 262.572 0.413897 2.28888 0
M  V30 2849 C 263.566 -0.500779 1.61829 0
M  V30 2850 O 264.772 -0.38069 1.75928 0
M  V30 2851 H 261.147 0.115274 0.743112 0
M  V30 2852 H 263.118 1.28151 2.69481 0
M  V30 2853 C 261.867 -0.319792 3.46226 0
M  V30 2854 H 261.19 0.374846 3.98039 0
M  V30 2855 H 262.63 -0.642435 4.19105 0
M  V30 2856 C 261.089 -1.53209 3.00048 0
M  V30 2857 O 261.619 -2.6309 3.03557 0
M  V30 2858 N 259.825 -1.38326 2.55566 0
M  V30 2859 H 259.372 -0.489292 2.5291 0
M  V30 2860 H 259.33 -2.19564 2.25031 0
M  V30 2861 N 263.102 -1.41638 0.69111 0
M  V30 2862 C 264.35 -2.00902 0.219758 0
M  V30 2863 C 264.671 -1.54994 -1.18329 0
M  V30 2864 O 263.941 -0.778628 -1.79762 0
M  V30 2865 H 262.521 -0.74289 0.0782558 0
M  V30 2866 H 265.183 -1.73327 0.891271 0
M  V30 2867 H 264.279 -3.11224 0.233708 0
M  V30 2868 N 264.58 -0.43555 -1.51462 0
M  V30 2869 C 265.829 0.133007 -2.01261 0
M  V30 2870 C 266.142 1.43942 -1.32439 0
M  V30 2871 O 267.348 2.09081 -1.73198 0
M  V30 2872 C 265.804 0.287581 -3.58749 0
M  V30 2873 C 265.412 -1.00829 -4.36506 0
M  V30 2874 C 267.156 0.810004 -4.167 0
M  V30 2875 C 265.063 -0.819454 -5.85695 0
M  V30 2876 H 263.993 0.0534822 -0.752101 0
M  V30 2877 H 266.644 -0.565038 -1.74584 0
M  V30 2878 H 265.026 1.04859 -3.81865 0
M  V30 2879 H 266.2 -1.77749 -4.25138 0
M  V30 2880 H 264.515 -1.45911 -3.89999 0
M  V30 2881 H 267.112 0.967743 -5.2587 0
M  V30 2882 H 267.455 1.79196 -3.75758 0
M  V30 2883 H 267.988 0.107357 -3.97655 0
M  V30 2884 H 264.727 -1.77374 -6.31046 0
M  V30 2885 H 264.247 -0.0900208 -5.99732 0
M  V30 2886 H 265.926 -0.471949 -6.45276 0
M  V30 2887 N 266.058 1.56714 -0.166846 0
M  V30 2888 C 267.307 1.95922 0.479318 0
M  V30 2889 C 267.62 1.05529 1.6469 0
M  V30 2890 O 268.826 1.34399 2.35901 0
M  V30 2891 C 267.282 3.48359 0.90412 0
M  V30 2892 C 266.89 4.47369 -0.237621 0
M  V30 2893 C 268.634 3.96394 1.51896 0
M  V30 2894 C 266.541 5.91039 0.206561 0
M  V30 2895 H 265.471 0.731495 0.18284 0
M  V30 2896 H 268.122 1.81728 -0.254363 0
M  V30 2897 H 266.504 3.57955 1.69365 0
M  V30 2898 H 267.678 4.49485 -1.01489 0
M  V30 2899 H 265.993 4.09366 -0.762128 0
M  V30 2900 H 268.59 5.01186 1.86325 0
M  V30 2901 H 268.933 3.39075 2.41524 0
M  V30 2902 H 269.466 3.89796 0.79395 0
M  V30 2903 H 266.205 6.52221 -0.654834 0
M  V30 2904 H 265.725 5.9224 0.949282 0
M  V30 2905 H 267.404 6.43707 0.651939 0
M  V30 2906 N 267.536 -0.106894 1.57237 0
M  V30 2907 C 268.484 -1.14944 2.02215 0
M  V30 2908 C 269.478 -1.42167 0.92114 0
M  V30 2909 O 270.684 -1.41987 1.10634 0
M  V30 2910 H 267.059 -0.387841 0.64427 0
M  V30 2911 H 269.03 -0.743683 2.88984 0
M  V30 2912 C 267.779 -2.4647 2.4525 0
M  V30 2913 H 267.102 -2.26363 3.29545 0
M  V30 2914 H 268.542 -3.17948 2.80508 0
M  V30 2915 C 267.001 -3.09921 1.321 0
M  V30 2916 O 267.531 -3.9651 0.643622 0
M  V30 2917 N 265.737 -2.69986 1.07497 0
M  V30 2918 H 265.284 -1.99667 1.62761 0
M  V30 2919 H 265.242 -3.12769 0.319876 0
M  V30 2920 N 269.014 -1.53014 -0.377408 0
M  V30 2921 C 269.924 -1.81557 -1.48574 0
M  V30 2922 C 270.94 -0.703102 -1.59162 0
M  V30 2923 O 272.116 -0.99192 -1.75279 0
M  V30 2924 C 269.181 -1.9889 -2.83978 0
M  V30 2925 C 268.242 -3.22801 -2.83016 0
M  V30 2926 C 267.475 -3.39298 -4.11962 0
M  V30 2927 O 267.698 -2.60345 -5.0752 0
M  V30 2928 O 266.632 -4.32604 -4.18494 0
M  V30 2929 H 270.458 -2.75695 -1.27382 0
M  V30 2930 H 268.043 -1.38248 -0.566373 0
M  V30 2931 H 269.925 -2.11931 -3.6423 0
M  V30 2932 H 268.6 -1.07942 -3.05172 0
M  V30 2933 H 267.507 -3.15193 -2.01505 0
M  V30 2934 H 268.84 -4.13632 -2.66775 0
M  V30 2935 N 270.492 0.636531 -1.44174 0
M  V30 2936 C 271.455 1.73063 -1.50273 0
M  V30 2937 C 272.455 1.56113 -0.385397 0
M  V30 2938 O 273.645 1.61707 -0.64781 0
M  V30 2939 C 270.777 3.12096 -1.37145 0
M  V30 2940 H 271.97 1.69031 -2.47727 0
M  V30 2941 H 269.523 0.849706 -1.31186 0
M  V30 2942 H 270.258 3.21728 -0.407636 0
M  V30 2943 H 270.043 3.25805 -2.18159 0
M  V30 2944 H 271.533 3.91846 -1.44382 0
M  V30 2945 N 271.97 1.30982 0.876444 0
M  V30 2946 C 272.917 1.18085 1.98304 0
M  V30 2947 C 273.887 0.0682263 1.6596 0
M  V30 2948 O 275.072 0.239937 1.89285 0
M  V30 2949 C 272.212 0.887475 3.33493 0
M  V30 2950 C 271.325 2.08281 3.78475 0
M  V30 2951 C 270.46 1.72678 5.0235 0
M  V30 2952 C 269.499 2.88657 5.39762 0
M  V30 2953 N 268.636 2.53292 6.54819 0
M  V30 2954 H 273.476 2.1275 2.08666 0
M  V30 2955 H 271.013 1.05839 1.02159 0
M  V30 2956 H 272.971 0.697961 4.1132 0
M  V30 2957 H 271.601 -0.022315 3.22792 0
M  V30 2958 H 270.653 2.3833 2.96484 0
M  V30 2959 H 271.965 2.95108 4.02135 0
M  V30 2960 H 271.119 1.50151 5.87826 0
M  V30 2961 H 269.858 0.830327 4.8058 0
M  V30 2962 H 268.863 3.1184 4.52809 0
M  V30 2963 H 270.088 3.79002 5.63502 0
M  V30 2964 H 268.034 1.66163 6.34607 0
M  V30 2965 H 267.951 3.3365 6.7839 0
M  V30 2966 H 269.219 2.34143 7.43503 0
M  V30 2967 N 273.449 -1.08991 1.13837 0
M  V30 2968 C 274.359 -2.19301 0.833333 0
M  V30 2969 C 275.375 -1.73026 -0.183847 0
M  V30 2970 O 276.551 -2.01395 -0.0138092 0
M  V30 2971 C 273.616 -3.45323 0.308651 0
M  V30 2972 C 272.677 -4.06255 1.38764 0
M  V30 2973 C 271.91 -5.26262 0.887896 0
M  V30 2974 O 272.133 -5.69747 -0.27287 0
M  V30 2975 O 271.067 -5.78435 1.66421 0
M  V30 2976 H 274.893 -2.47854 1.75506 0
M  V30 2977 H 272.478 -1.18012 0.916166 0
M  V30 2978 H 274.36 -4.21394 0.0216739 0
M  V30 2979 H 273.035 -3.18362 -0.585431 0
M  V30 2980 H 271.942 -3.318 1.72799 0
M  V30 2981 H 273.275 -4.37452 2.25602 0
M  V30 2982 N 274.927 -0.932562 -1.27047 0
M  V30 2983 C 275.859 -0.392734 -2.2581 0
M  V30 2984 C 276.872 0.479241 -1.55586 0
M  V30 2985 O 278.061 0.291078 -1.76111 0
M  V30 2986 C 275.161 0.455456 -3.35826 0
M  V30 2987 C 274.334 -0.398355 -4.35582 0
M  V30 2988 C 273.393 0.387985 -5.24768 0
M  V30 2989 O 272.419 -0.206003 -5.68827 0
M  V30 2990 N 273.621 1.68664 -5.55457 0
M  V30 2991 H 276.386 -1.24173 -2.72766 0
M  V30 2992 H 273.947 -0.800511 -1.40725 0
M  V30 2993 H 275.939 0.988692 -3.92437 0
M  V30 2994 H 274.509 1.20522 -2.88432 0
M  V30 2995 H 273.729 -1.11286 -3.78165 0
M  V30 2996 H 275.017 -0.981889 -4.99236 0
M  V30 2997 H 274.415 2.19147 -5.21528 0
M  V30 2998 H 272.972 2.1663 -6.14748 0
M  V30 2999 N 276.405 1.4127 -0.698611 0
M  V30 3000 C 277.335 2.33447 -0.049629 0
M  V30 3001 C 278.316 1.51982 0.763898 0
M  V30 3002 O 279.501 1.80509 0.716257 0
M  V30 3003 C 276.631 3.35828 0.885267 0
M  V30 3004 C 275.585 4.27627 0.178613 0
M  V30 3005 C 274.911 5.20406 1.22807 0
M  V30 3006 C 276.211 5.13459 -0.956933 0
M  V30 3007 H 277.905 2.87966 -0.81951 0
M  V30 3008 H 275.451 1.38461 -0.395538 0
M  V30 3009 H 277.404 3.9924 1.34854 0
M  V30 3010 H 276.128 2.79666 1.68685 0
M  V30 3011 H 274.787 3.65643 -0.26466 0
M  V30 3012 H 274.435 4.60558 2.02226 0
M  V30 3013 H 274.135 5.82661 0.760239 0
M  V30 3014 H 275.659 5.86695 1.69179 0
M  V30 3015 H 277.073 5.70421 -0.573805 0
M  V30 3016 H 275.47 5.8467 -1.35205 0
M  V30 3017 H 276.54 4.50443 -1.79524 0
M  V30 3018 N 277.883 0.443576 1.51229 0
M  V30 3019 C 278.793 -0.370721 2.31652 0
M  V30 3020 C 279.809 -1.02186 1.40833 0
M  V30 3021 O 280.985 -1.01586 1.73903 0
M  V30 3022 C 278.05 -1.45376 3.14749 0
M  V30 3023 C 277.111 -0.822099 4.21355 0
M  V30 3024 C 276.344 -1.85353 5.0048 0
M  V30 3025 O 276.567 -3.07656 4.80316 0
M  V30 3026 O 275.501 -1.4406 5.84406 0
M  V30 3027 H 279.327 0.286002 3.0235 0
M  V30 3028 H 276.912 0.20598 1.47973 0
M  V30 3029 H 278.794 -2.08173 3.66391 0
M  V30 3030 H 277.469 -2.09445 2.46809 0
M  V30 3031 H 276.376 -0.155909 3.73775 0
M  V30 3032 H 277.709 -0.224797 4.91686 0
M  V30 3033 N 279.361 -1.56624 0.175154 0
M  V30 3034 C 280.308 -2.18149 -0.753634 0
M  V30 3035 C 281.278 -1.12265 -1.22417 0
M  V30 3036 O 282.463 -1.40432 -1.29165 0
M  V30 3037 C 279.603 -2.82933 -1.97592 0
M  V30 3038 C 278.716 -4.03289 -1.5486 0
M  V30 3039 C 277.851 -4.55988 -2.72485 0
M  V30 3040 C 276.89 -5.68746 -2.26262 0
M  V30 3041 N 276.027 -6.15938 -3.36994 0
M  V30 3042 H 280.867 -2.9717 -0.222195 0
M  V30 3043 H 278.404 -1.46774 -0.0979422 0
M  V30 3044 H 280.362 -3.18653 -2.69288 0
M  V30 3045 H 278.992 -2.06509 -2.481 0
M  V30 3046 H 278.044 -3.73364 -0.728246 0
M  V30 3047 H 279.356 -4.849 -1.16933 0
M  V30 3048 H 278.51 -4.9391 -3.52332 0
M  V30 3049 H 277.249 -3.73443 -3.13674 0
M  V30 3050 H 276.254 -5.30372 -1.44863 0
M  V30 3051 H 277.479 -6.53095 -1.86127 0
M  V30 3052 H 275.425 -5.36321 -3.77751 0
M  V30 3053 H 275.342 -6.92548 -3.03172 0
M  V30 3054 H 276.61 -6.58511 -4.17114 0
M  V30 3055 N 280.839 0.0985539 -1.57292 0
M  V30 3056 C 281.787 1.1387 -2.02821 0
M  V30 3057 C 282.781 1.41676 -0.928666 0
M  V30 3058 O 283.987 1.41398 -1.11385 0
M  V30 3059 H 280.362 0.384419 -0.646317 0
M  V30 3060 H 282.333 0.728347 -2.89375 0
M  V30 3061 C 281.082 2.45166 -2.46554 0
M  V30 3062 H 280.405 2.24613 -3.3074 0
M  V30 3063 H 281.845 3.16456 -2.8219 0
M  V30 3064 C 280.304 3.09216 -1.33742 0
M  V30 3065 O 280.834 3.96163 -0.66464 0
M  V30 3066 N 279.04 2.69413 -1.08928 0
M  V30 3067 H 278.587 1.98801 -1.63817 0
M  V30 3068 H 278.545 3.12594 -0.336458 0
M  V30 3069 N 282.317 1.53212 0.369288 0
M  V30 3070 C 283.733 1.42902 0.710712 0
M  V30 3071 C 283.933 0.565135 1.93413 0
M  V30 3072 O 282.989 0.0461484 2.52458 0
M  V30 3073 C 284.302 2.86042 0.927382 0
M  V30 3074 C 285.85 2.9565 1.02762 0
M  V30 3075 C 286.325 4.39843 1.27679 0
M  V30 3076 N 287.816 4.43256 1.34457 0
M  V30 3077 C 288.551 5.51929 1.55439 0
M  V30 3078 N 288.047 6.70655 1.73762 0
M  V30 3079 N 289.84 5.39502 1.57779 0
M  V30 3080 H 281.991 2.07888 -0.435457 0
M  V30 3081 H 284.254 0.938661 -0.132739 0
M  V30 3082 H 283.96 3.51557 0.100287 0
M  V30 3083 H 283.834 3.29472 1.83653 0
M  V30 3084 H 286.221 2.30291 1.84527 0
M  V30 3085 H 286.302 2.5562 0.0959504 0
M  V30 3086 H 285.946 5.05774 0.464175 0
M  V30 3087 H 285.876 4.77443 2.22162 0
M  V30 3088 H 288.367 3.5769 1.21926 0
M  V30 3089 H 288.68 7.49248 1.89335 0
M  V30 3090 H 287.025 6.73648 1.70948 0
M  V30 3091 H 290.216 4.45713 1.43029 0
M  V30 3092 H 290.389 6.2426 1.7379 0
M  V30 3093 N 283.795 -0.628877 1.44509 0
M  V30 3094 C 285.02 -1.42048 1.5112 0
M  V30 3095 C 285.445 -1.87594 0.137818 0
M  V30 3096 O 284.803 -1.58873 -0.873437 0
M  V30 3097 C 284.851 -2.61541 2.48251 0
M  V30 3098 O 283.955 -3.61453 1.98559 0
M  V30 3099 H 283.296 -0.424942 0.510216 0
M  V30 3100 H 285.826 -0.767374 1.89664 0
M  V30 3101 H 285.836 -3.09057 2.66361 0
M  V30 3102 H 284.511 -2.27736 3.48007 0
M  V30 3103 H 283.088 -3.20731 1.90227 0
M  V30 3104 N 285.273 -1.31445 -0.869486 0
M  V30 3105 C 286.522 -1.20517 -1.61736 0
M  V30 3106 C 286.835 0.235341 -1.94179 0
M  V30 3107 O 288.041 0.466312 -2.67465 0
M  V30 3108 C 286.497 -2.10982 -2.91573 0
M  V30 3109 C 286.105 -3.60032 -2.66611 0
M  V30 3110 C 287.849 -2.08856 -3.69567 0
M  V30 3111 C 285.756 -4.42503 -3.92358 0
M  V30 3112 H 284.686 -0.447493 -0.606849 0
M  V30 3113 H 287.337 -1.56303 -0.96133 0
M  V30 3114 H 285.719 -1.68095 -3.58553 0
M  V30 3115 H 286.893 -4.11167 -2.08035 0
M  V30 3116 H 285.208 -3.64139 -2.0197 0
M  V30 3117 H 287.805 -2.67716 -4.62852 0
M  V30 3118 H 288.148 -1.07582 -4.02159 0
M  V30 3119 H 288.681 -2.49945 -3.09471 0
M  V30 3120 H 285.42 -5.44533 -3.64916 0
M  V30 3121 H 284.94 -3.96125 -4.50383 0
M  V30 3122 H 286.619 -4.54741 -4.60238 0
M  V30 3123 N 286.751 1.08385 -1.14413 0
M  V30 3124 C 288.028 1.77429 -0.823297 0
M  V30 3125 C 288.408 1.9974 0.683163 0
M  V30 3126 O 287.756 1.60739 1.62405 0
M  V30 3127 C 287.966 3.09004 -1.62227 0
M  V30 3128 C 289.314 3.83532 -1.82177 0
M  V30 3129 O 290.338 3.18786 -1.58915 0
M  V30 3130 O 289.197 4.99792 -2.21067 0
M  V30 3131 H 286.291 0.769999 -0.301712 0
M  V30 3132 H 288.837 1.14846 -1.24934 0
M  V30 3133 H 287.609 2.88316 -2.64555 0
M  V30 3134 H 287.232 3.79316 -1.19187 0
M  V30 3135 N 288.23 0.939286 1.26551 0
M  V30 3136 C 289.641 0.628782 1.75793 0
M  V30 3137 C 289.992 -0.856046 1.7654 0
M  V30 3138 O 289.117 -1.66994 1.3763 0
M  V30 3139 C 289.712 1.13465 3.19235 0
M  V30 3140 C 288.271 0.874601 3.66098 0
M  V30 3141 C 287.418 1.28667 2.45642 0
M  V30 3142 H 290.369 1.1178 1.12654 0
M  V30 3143 H 290.39 0.487609 3.77363 0
M  V30 3144 H 289.902 2.21535 3.1866 0
M  V30 3145 H 288.003 -0.191793 3.72106 0
M  V30 3146 H 288.116 1.50028 4.55004 0
M  V30 3147 H 286.48 0.705109 2.44745 0
M  V30 3148 H 287.263 2.37625 2.47769 0
M  V30 3149 N 289.708 -1.40897 0.706093 0
M  V30 3150 C 290.985 -1.94868 0.169099 0
M  V30 3151 C 291.365 -1.64485 -1.32318 0
M  V30 3152 O 290.713 -0.95744 -2.07474 0
M  V30 3153 C 290.923 -3.45798 0.471654 0
M  V30 3154 C 292.271 -4.22663 0.405127 0
M  V30 3155 O 293.295 -3.53865 0.407168 0
M  V30 3156 O 292.154 -5.45216 0.374383 0
M  V30 3157 H 289.248 -0.82673 0.0211352 0
M  V30 3158 H 291.794 -1.50558 0.782976 0
M  V30 3159 H 290.566 -3.61235 1.50416 0
M  V30 3160 H 290.189 -3.97225 -0.172666 0
M  V30 3161 N 291.186 -0.45159 -1.50991 0
M  V30 3162 C 292.433 0.110074 -2.02201 0
M  V30 3163 C 292.761 1.4146 -1.33489 0
M  V30 3164 O 292.016 1.90617 -0.443125 0
M  V30 3165 C 292.315 0.361728 -3.55565 0
M  V30 3166 C 291.981 -0.858717 -4.42648 0
M  V30 3167 C 290.643 -1.19338 -4.66167 0
M  V30 3168 C 292.995 -1.67221 -4.93646 0
M  V30 3169 C 290.323 -2.34195 -5.37931 0
M  V30 3170 C 292.675 -2.8119 -5.6667 0
M  V30 3171 C 291.339 -3.15094 -5.88449 0
M  V30 3172 H 290.609 0.040279 -0.739904 0
M  V30 3173 H 293.256 -0.601696 -1.81802 0
M  V30 3174 H 291.561 1.15554 -3.74372 0
M  V30 3175 H 293.258 0.80996 -3.92735 0
M  V30 3176 H 289.848 -0.58796 -4.24548 0
M  V30 3177 H 294.032 -1.42686 -4.75347 0
M  V30 3178 H 289.288 -2.6076 -5.53005 0
M  V30 3179 H 293.462 -3.44585 -6.05173 0
M  V30 3180 H 291.089 -4.04204 -6.43835 0
M  V30 3181 N 292.664 1.56529 -0.183458 0
M  V30 3182 C 293.913 1.96419 0.458511 0
M  V30 3183 C 294.226 1.0727 1.63562 0
M  V30 3184 O 295.432 1.36893 2.34462 0
M  V30 3185 C 293.888 3.49298 0.867122 0
M  V30 3186 C 293.496 4.47092 -0.285057 0
M  V30 3187 C 295.24 3.97983 1.47683 0
M  V30 3188 C 293.147 5.91225 0.143862 0
M  V30 3189 H 292.077 0.733394 0.175071 0
M  V30 3190 H 294.728 1.81448 -0.273624 0
M  V30 3191 H 293.11 3.59731 1.65559 0
M  V30 3192 H 294.284 4.48383 -1.0625 0
M  V30 3193 H 292.599 4.08535 -0.805503 0
M  V30 3194 H 295.196 5.03134 1.80999 0
M  V30 3195 H 295.539 3.41618 2.37914 0
M  V30 3196 H 296.072 3.90617 0.752562 0
M  V30 3197 H 292.811 6.5149 -0.723974 0
M  V30 3198 H 292.331 5.93214 0.886413 0
M  V30 3199 H 294.01 6.44362 0.583628 0
M  V30 3200 N 294.142 -0.090211 1.57342 0
M  V30 3201 C 295.089 -1.10909 2.02405 0
M  V30 3202 C 296.059 -1.39523 0.901252 0
M  V30 3203 O 297.244 -1.50903 1.1676 0
M  V30 3204 C 294.384 -2.42277 2.45755 0
M  V30 3205 C 293.497 -2.20352 3.71576 0
M  V30 3206 C 292.632 -3.45154 4.03785 0
M  V30 3207 C 291.671 -3.18512 5.22701 0
M  V30 3208 N 290.808 -4.35593 5.50639 0
M  V30 3209 H 295.648 -0.71782 2.89225 0
M  V30 3210 H 293.185 -0.342901 1.43048 0
M  V30 3211 H 295.143 -3.18951 2.68935 0
M  V30 3212 H 293.773 -2.79242 1.61938 0
M  V30 3213 H 292.825 -1.34458 3.55844 0
M  V30 3214 H 294.137 -1.96661 4.58395 0
M  V30 3215 H 293.291 -4.30233 4.27767 0
M  V30 3216 H 292.03 -3.71904 3.15498 0
M  V30 3217 H 291.035 -2.31827 4.98534 0
M  V30 3218 H 292.26 -2.93103 6.12591 0
M  V30 3219 H 290.206 -4.6241 4.6531 0
M  V30 3220 H 290.123 -4.1511 6.31838 0
M  V30 3221 H 291.391 -5.21723 5.7916 0
M  V30 3222 N 295.62 -1.53406 -0.361157 0
M  V30 3223 C 296.567 -1.80156 -1.44265 0
M  V30 3224 C 297.537 -0.646183 -1.53015 0
M  V30 3225 O 298.722 -0.888818 -1.68833 0
M  V30 3226 C 295.862 -2.00116 -2.81154 0
M  V30 3227 C 294.975 -3.27833 -2.81335 0
M  V30 3228 C 294.11 -3.37957 -4.09828 0
M  V30 3229 C 293.149 -4.59689 -4.04168 0
M  V30 3230 N 292.286 -4.66942 -5.24318 0
M  V30 3231 H 297.126 -2.72438 -1.20754 0
M  V30 3232 H 294.663 -1.34954 -0.585296 0
M  V30 3233 H 296.621 -2.09677 -3.60682 0
M  V30 3234 H 295.251 -1.11167 -3.03054 0
M  V30 3235 H 294.303 -3.27204 -1.94014 0
M  V30 3236 H 295.615 -4.17442 -2.73027 0
M  V30 3237 H 294.769 -3.46853 -4.97773 0
M  V30 3238 H 293.508 -2.46372 -4.20894 0
M  V30 3239 H 292.513 -4.50889 -3.14609 0
M  V30 3240 H 293.738 -5.5262 -3.947 0
M  V30 3241 H 291.684 -3.7826 -5.35962 0
M  V30 3242 H 291.601 -5.50462 -5.18197 0
M  V30 3243 H 292.869 -4.80127 -6.14084 0
M  V30 3244 N 297.098 0.621204 -1.44841 0
M  V30 3245 C 298.008 1.7612 -1.5498 0
M  V30 3246 C 299.024 1.68477 -0.434927 0
M  V30 3247 O 300.2 1.89076 -0.693693 0
M  V30 3248 C 297.265 3.1254 -1.50065 0
M  V30 3249 C 296.326 3.31741 -2.72482 0
M  V30 3250 C 295.559 4.61653 -2.67792 0
M  V30 3251 O 295.782 5.431 -1.74352 0
M  V30 3252 O 294.716 4.83271 -3.58794 0
M  V30 3253 H 298.542 1.70518 -2.51311 0
M  V30 3254 H 296.127 0.783643 -1.27198 0
M  V30 3255 H 298.009 3.93844 -1.49882 0
M  V30 3256 H 296.684 3.18663 -0.568806 0
M  V30 3257 H 295.591 2.50077 -2.7823 0
M  V30 3258 H 296.924 3.30486 -3.64746 0
M  V30 3259 N 298.576 1.31904 0.862503 0
M  V30 3260 C 299.523 1.20182 1.9704 0
M  V30 3261 C 300.493 0.0858247 1.65878 0
M  V30 3262 O 301.678 0.26 1.8902 0
M  V30 3263 C 298.818 0.922797 3.32533 0
M  V30 3264 C 297.931 2.12284 3.76244 0
M  V30 3265 C 297.066 1.77996 5.00491 0
M  V30 3266 C 296.105 2.94366 5.36671 0
M  V30 3267 N 295.242 2.60223 6.52095 0
M  V30 3268 H 300.082 2.14951 2.06398 0
M  V30 3269 H 297.619 1.06917 1.01031 0
M  V30 3270 H 299.577 0.741548 4.10557 0
M  V30 3271 H 298.207 0.0119227 3.22798 0
M  V30 3272 H 297.259 2.41461 2.9394 0
M  V30 3273 H 298.571 2.99357 3.98982 0
M  V30 3274 H 297.725 1.56377 5.862 0
M  V30 3275 H 296.464 0.881252 4.79672 0
M  V30 3276 H 295.469 3.16625 4.49476 0
M  V30 3277 H 296.694 3.84957 5.59451 0
M  V30 3278 H 294.64 1.72884 6.32809 0
M  V30 3279 H 294.557 3.40827 6.74814 0
M  V30 3280 H 295.825 2.42016 7.40978 0
M  V30 3281 N 300.054 -1.07777 1.14986 0
M  V30 3282 C 301.301 -1.8029 0.922056 0
M  V30 3283 C 301.629 -1.86531 -0.55105 0
M  V30 3284 O 300.884 -1.34189 -1.42449 0
M  V30 3285 C 301.183 -3.25495 1.47608 0
M  V30 3286 C 300.849 -3.39361 2.96893 0
M  V30 3287 C 299.511 -3.42852 3.37647 0
M  V30 3288 C 301.863 -3.42512 3.92854 0
M  V30 3289 C 299.191 -3.47094 4.73015 0
M  V30 3290 C 301.543 -3.4829 5.28088 0
M  V30 3291 C 300.207 -3.50058 5.68345 0
M  V30 3292 H 299.477 -0.659727 0.337404 0
M  V30 3293 H 302.124 -1.26854 1.43459 0
M  V30 3294 H 300.429 -3.81683 0.88463 0
M  V30 3295 H 302.126 -3.80168 1.27568 0
M  V30 3296 H 298.716 -3.37339 2.64387 0
M  V30 3297 H 302.9 -3.3904 3.62444 0
M  V30 3298 H 298.156 -3.46758 5.03556 0
M  V30 3299 H 302.33 -3.49675 6.02246 0
M  V30 3300 H 299.957 -3.53097 6.73221 0
M  V30 3301 N 301.532 -0.945985 -1.26051 0
M  V30 3302 C 302.462 -0.477172 -2.28572 0
M  V30 3303 C 303.443 0.472032 -1.63419 0
M  V30 3304 O 304.628 0.372853 -1.90587 0
M  V30 3305 C 301.758 0.253975 -3.4637 0
M  V30 3306 C 300.712 -0.609135 -4.23643 0
M  V30 3307 C 300.038 0.252252 -5.34105 0
M  V30 3308 C 301.338 -1.8829 -4.8718 0
M  V30 3309 H 303.032 -1.33402 -2.68038 0
M  V30 3310 H 300.578 -0.642904 -1.28852 0
M  V30 3311 H 302.531 0.593016 -4.17207 0
M  V30 3312 H 301.255 1.145 -3.05871 0
M  V30 3313 H 299.914 -0.931138 -3.54578 0
M  V30 3314 H 299.562 1.14278 -4.89846 0
M  V30 3315 H 299.262 -0.32188 -5.86718 0
M  V30 3316 H 300.786 0.586454 -6.07777 0
M  V30 3317 H 302.2 -1.61081 -5.50205 0
M  V30 3318 H 300.597 -2.40199 -5.49931 0
M  V30 3319 H 301.667 -2.59134 -4.09851 0
M  V30 3320 N 303.011 1.40521 -0.713556 0
M  V30 3321 C 303.959 2.32549 -0.0485227 0
M  V30 3322 C 304.953 1.51931 0.74922 0
M  V30 3323 O 306.159 1.67745 0.652816 0
M  V30 3324 H 302.534 0.751994 0.00311138 0
M  V30 3325 H 304.505 2.86291 -0.841443 0
M  V30 3326 C 303.254 3.36879 0.860687 0
M  V30 3327 H 302.577 3.98978 0.256246 0
M  V30 3328 H 304.017 4.03772 1.294 0
M  V30 3329 C 302.476 2.72197 1.9852 0
M  V30 3330 O 303.006 2.5837 3.07584 0
M  V30 3331 N 301.212 2.30612 1.76823 0
M  V30 3332 H 300.759 2.42059 0.881217 0
M  V30 3333 H 300.717 1.87672 2.52243 0
M  V30 3334 N 304.489 0.459591 1.5075 0
M  V30 3335 C 305.714 -0.0996819 2.0716 0
M  V30 3336 C 306.139 -1.33761 1.32249 0
M  V30 3337 O 305.497 -1.77551 0.366786 0
M  V30 3338 C 305.545 -0.378226 3.58611 0
M  V30 3339 O 304.649 -1.46081 3.85661 0
M  V30 3340 H 303.99 0.00791392 0.663953 0
M  V30 3341 H 306.52 0.647329 1.9409 0
M  V30 3342 H 306.53 -0.622135 4.03229 0
M  V30 3343 H 305.205 0.526439 4.12555 0
M  V30 3344 H 303.782 -1.20511 3.5289 0
M  V30 3345 N 305.967 -1.56429 0.191757 0
M  V30 3346 C 307.213 -1.97777 -0.448554 0
M  V30 3347 C 307.546 -1.07847 -1.61501 0
M  V30 3348 O 306.821 -0.129774 -1.94067 0
M  V30 3349 C 307.104 -3.48362 -0.911906 0
M  V30 3350 C 306.957 -4.4907 0.256136 0
M  V30 3351 C 308.276 -4.02561 -1.77857 0
M  V30 3352 H 305.395 -0.719071 -0.161572 0
M  V30 3353 H 308.037 -1.87896 0.282007 0
M  V30 3354 H 306.187 -3.56914 -1.53442 0
M  V30 3355 H 307.859 -4.5256 0.893733 0
M  V30 3356 H 306.102 -4.24181 0.908436 0
M  V30 3357 H 306.773 -5.51889 -0.11053 0
M  V30 3358 H 309.249 -3.96767 -1.25359 0
M  V30 3359 H 308.125 -5.08301 -2.07174 0
M  V30 3360 H 308.386 -3.47616 -2.73158 0
M  V30 3361 N 307.445 0.0818655 -1.57387 0
M  V30 3362 C 308.694 0.781681 -1.85937 0
M  V30 3363 C 309.007 1.79246 -0.782957 0
M  V30 3364 O 310.213 2.54112 -0.955987 0
M  V30 3365 C 308.669 1.44109 -3.29789 0
M  V30 3366 C 308.277 0.469396 -4.45534 0
M  V30 3367 C 310.021 2.12386 -3.67549 0
M  V30 3368 C 307.928 1.13415 -5.80423 0
M  V30 3369 H 306.858 0.295682 -0.693605 0
M  V30 3370 H 309.509 0.0348051 -1.83467 0
M  V30 3371 H 307.891 2.23588 -3.2684 0
M  V30 3372 H 309.065 -0.294856 -4.59856 0
M  V30 3373 H 307.38 -0.108383 -4.16259 0
M  V30 3374 H 309.977 2.62878 -4.65617 0
M  V30 3375 H 310.32 2.91877 -2.96839 0
M  V30 3376 H 310.853 1.39751 -3.72444 0
M  V30 3377 H 307.592 0.379771 -6.54399 0
M  V30 3378 H 307.112 1.8695 -5.69921 0
M  V30 3379 H 308.791 1.65686 -6.25426 0
M  V30 3380 N 308.923 1.53595 0.353017 0
M  V30 3381 C 310.172 1.69603 1.09168 0
M  V30 3382 C 310.485 0.460925 1.90092 0
M  V30 3383 O 311.691 0.501774 2.66823 0
M  V30 3384 C 310.147 2.99872 1.9901 0
M  V30 3385 C 309.755 4.30687 1.23339 0
M  V30 3386 C 311.499 3.25246 2.72792 0
M  V30 3387 C 309.406 5.52036 2.12156 0
M  V30 3388 H 308.336 0.631966 0.411261 0
M  V30 3389 H 310.987 1.80096 0.351802 0
M  V30 3390 H 309.369 2.83212 2.7678 0
M  V30 3391 H 310.543 4.58019 0.505456 0
M  V30 3392 H 308.858 4.11853 0.613663 0
M  V30 3393 H 311.455 4.13095 3.39495 0
M  V30 3394 H 311.798 2.41846 3.38846 0
M  V30 3395 H 312.331 3.42638 2.021 0
M  V30 3396 H 309.07 6.37951 1.50659 0
M  V30 3397 H 308.59 5.28966 2.82764 0
M  V30 3398 H 310.269 5.87313 2.71427 0
M  V30 3399 N 310.401 -0.613514 1.45168 0
M  V30 3400 C 311.626 -1.40437 1.52618 0
M  V30 3401 C 312.051 -1.87438 0.157707 0
M  V30 3402 O 311.409 -1.59791 -0.856537 0
M  V30 3403 C 311.457 -2.58894 2.51011 0
M  V30 3404 O 310.561 -3.59326 2.02382 0
M  V30 3405 H 309.902 -0.419506 0.514695 0
M  V30 3406 H 312.432 -0.747215 1.90467 0
M  V30 3407 H 312.442 -3.06214 2.69624 0
M  V30 3408 H 311.117 -2.24032 3.50403 0
M  V30 3409 H 309.694 -3.18695 1.93618 0
M  V30 3410 N 311.879 -1.3236 -0.855495 0
M  V30 3411 C 313.119 -1.24187 -1.62348 0
M  V30 3412 C 313.483 0.193597 -1.91021 0
M  V30 3413 O 314.684 0.39904 -2.65822 0
M  V30 3414 C 312.955 -2.07661 -2.90881 0
M  V30 3415 S 314.514 -2.16505 -3.81669 0
M  V30 3416 H 311.332 -0.442076 -0.556857 0
M  V30 3417 H 313.934 -1.67198 -1.01317 0
M  V30 3418 H 312.638 -3.11018 -2.67761 0
M  V30 3419 H 312.169 -1.65425 -3.56929 0
M  V30 3420 H 314.184 -1.31394 -4.78487 0
M  V30 3421 N 313.357 1.07166 -1.15556 0
M  V30 3422 C 314.267 2.17947 -0.868116 0
M  V30 3423 C 315.283 1.73297 0.156297 0
M  V30 3424 O 316.459 2.01392 -0.0182327 0
M  V30 3425 C 313.524 3.44789 -0.36355 0
M  V30 3426 C 312.585 4.03996 -1.45209 0
M  V30 3427 C 311.818 5.24783 -0.971508 0
M  V30 3428 O 312.041 5.70109 0.182194 0
M  V30 3429 O 310.975 5.75715 -1.75603 0
M  V30 3430 H 314.801 2.4503 -1.79427 0
M  V30 3431 H 312.386 1.16539 -0.934824 0
M  V30 3432 H 314.268 4.21307 -0.0887113 0
M  V30 3433 H 312.943 3.19253 0.534708 0
M  V30 3434 H 311.85 3.29009 -1.78056 0
M  V30 3435 H 313.183 4.33808 -2.32533 0
M  V30 3436 N 314.835 0.952656 1.25548 0
M  V30 3437 C 315.798 0.475794 2.24207 0
M  V30 3438 C 316.798 -0.419428 1.55234 0
M  V30 3439 O 317.988 -0.216994 1.72843 0
M  V30 3440 C 315.12 -0.312814 3.39462 0
M  V30 3441 H 316.313 1.34779 2.67908 0
M  V30 3442 H 313.866 0.735739 1.37901 0
M  V30 3443 H 314.601 -1.20257 3.01179 0
M  V30 3444 H 314.386 0.329404 3.90714 0
M  V30 3445 H 315.876 -0.635986 4.12729 0
M  V30 3446 N 316.313 -1.40141 0.720998 0
M  V30 3447 C 317.276 -2.29058 0.0805834 0
M  V30 3448 C 318.276 -1.45632 -0.681758 0
M  V30 3449 O 319.466 -1.6648 -0.512856 0
M  V30 3450 C 316.598 -3.28925 -0.895593 0
M  V30 3451 H 317.791 -2.87191 0.863793 0
M  V30 3452 H 315.344 -1.48553 0.485975 0
M  V30 3453 H 316.079 -2.75822 -1.70566 0
M  V30 3454 H 315.864 -3.90519 -0.351766 0
M  V30 3455 H 317.354 -3.95494 -1.34069 0
M  V30 3456 N 317.792 -0.46758 -1.50504 0
M  V30 3457 C 319.041 0.0902868 -2.01498 0
M  V30 3458 C 319.354 1.411 -1.35463 0
M  V30 3459 O 320.56 2.0536 -1.77594 0
M  V30 3460 C 319.016 0.21142 -3.59278 0
M  V30 3461 C 318.624 -1.10065 -4.34269 0
M  V30 3462 C 320.368 0.721433 -4.18325 0
M  V30 3463 C 318.275 -0.943505 -5.83825 0
M  V30 3464 H 317.205 0.037517 -0.753066 0
M  V30 3465 H 319.856 -0.601943 -1.73346 0
M  V30 3466 H 318.238 0.967352 -3.84003 0
M  V30 3467 H 319.412 -1.86726 -4.21272 0
M  V30 3468 H 317.727 -1.5415 -3.86816 0
M  V30 3469 H 320.324 0.85598 -5.27804 0
M  V30 3470 H 320.667 1.71186 -3.79475 0
M  V30 3471 H 321.2 0.0229843 -3.97793 0
M  V30 3472 H 317.939 -1.90719 -6.27141 0
M  V30 3473 H 317.459 -0.217213 -5.99407 0
M  V30 3474 H 319.138 -0.608715 -6.4413 0
M  V30 3475 N 319.27 1.56325 -0.20005 0
M  V30 3476 C 320.498 2.02105 0.442874 0
M  V30 3477 C 320.913 1.08014 1.5485 0
M  V30 3478 O 320.27 0.0858797 1.82298 0
M  V30 3479 C 320.321 3.47549 0.994583 0
M  V30 3480 O 320.042 4.38049 -0.0669322 0
M  V30 3481 C 321.543 4.0887 1.7129 0
M  V30 3482 H 318.763 0.661807 0.110691 0
M  V30 3483 H 321.307 2.02134 -0.310207 0
M  V30 3484 H 319.462 3.48204 1.69803 0
M  V30 3485 H 319.876 5.23368 0.344462 0
M  V30 3486 H 321.35 5.12475 2.05118 0
M  V30 3487 H 321.827 3.52615 2.61838 0
M  V30 3488 H 322.433 4.12002 1.05518 0
M  V30 3489 N 320.748 -0.0735177 1.57428 0
M  V30 3490 C 321.978 -0.78483 1.91112 0
M  V30 3491 C 322.386 -1.71729 0.7941 0
M  V30 3492 O 321.729 -1.82105 -0.241542 0
M  V30 3493 C 321.791 -1.63346 3.20247 0
M  V30 3494 C 321.455 -0.870557 4.48632 0
M  V30 3495 C 322.452 -0.19058 5.19551 0
M  V30 3496 C 320.137 -0.838242 4.95256 0
M  V30 3497 C 322.131 0.511503 6.35344 0
M  V30 3498 C 319.818 -0.132386 6.10957 0
M  V30 3499 C 320.816 0.541288 6.80852 0
M  V30 3500 O 320.504 1.23578 7.94345 0
M  V30 3501 H 320.236 -0.228408 0.636244 0
M  V30 3502 H 322.79 -0.0486039 2.05342 0
M  V30 3503 H 321.02 -2.41245 3.02222 0
M  V30 3504 H 322.709 -2.22329 3.39595 0
M  V30 3505 H 323.475 -0.206864 4.84559 0
M  V30 3506 H 319.354 -1.35206 4.40727 0
M  V30 3507 H 322.898 1.03789 6.89836 0
M  V30 3508 H 318.795 -0.114023 6.45399 0
M  V30 3509 H 319.563 1.14487 8.10454 0
M  V30 3510 N 322.226 -1.5378 -0.344866 0
M  V30 3511 C 323.472 -1.71216 -1.08687 0
M  V30 3512 C 323.805 -0.473281 -1.88345 0
M  V30 3513 O 323.08 0.52968 -1.87149 0
M  V30 3514 C 323.363 -2.97486 -2.02914 0
M  V30 3515 C 323.216 -4.31579 -1.26727 0
M  V30 3516 C 324.535 -3.19422 -3.0275 0
M  V30 3517 H 321.654 -0.62301 -0.393735 0
M  V30 3518 H 324.296 -1.8645 -0.365563 0
M  V30 3519 H 322.446 -2.84629 -2.64421 0
M  V30 3520 H 324.118 -4.56284 -0.67845 0
M  V30 3521 H 322.361 -4.30049 -0.569273 0
M  V30 3522 H 323.032 -5.16106 -1.95803 0
M  V30 3523 H 325.508 -3.316 -2.51357 0
M  V30 3524 H 324.384 -4.09169 -3.65885 0
M  V30 3525 H 324.645 -2.35656 -3.74057 0
M  V30 3526 N 323.704 0.605807 -1.45491 0
M  V30 3527 C 324.652 1.73754 -1.54636 0
M  V30 3528 C 325.646 1.64207 -0.416219 0
M  V30 3529 O 326.852 1.69979 -0.592199 0
M  V30 3530 H 323.227 0.574073 -0.485741 0
M  V30 3531 H 325.198 1.63169 -2.49837 0
M  V30 3532 C 323.947 3.12135 -1.53189 0
M  V30 3533 H 323.27 3.20141 -2.39478 0
M  V30 3534 H 324.71 3.91147 -1.63645 0
M  V30 3535 C 323.169 3.35921 -0.256616 0
M  V30 3536 O 323.699 3.96194 0.662798 0
M  V30 3537 N 321.905 2.90204 -0.151751 0
M  V30 3538 H 321.452 2.41336 -0.90081 0
M  V30 3539 H 321.41 3.06492 0.700699 0
M  V30 3540 N 325.182 1.32811 0.848464 0
M  V30 3541 C 326.598 1.11937 1.13764 0
M  V30 3542 C 326.798 -0.0960789 2.01271 0
M  V30 3543 O 325.854 -0.779165 2.40178 0
M  V30 3544 C 327.167 2.402 1.809 0
M  V30 3545 C 328.715 2.46016 1.93508 0
M  V30 3546 C 329.19 3.74215 2.64059 0
M  V30 3547 N 330.681 3.75232 2.71579 0
M  V30 3548 C 331.416 4.71134 3.26833 0
M  V30 3549 N 330.912 5.77406 3.8285 0
M  V30 3550 N 332.705 4.58623 3.24995 0
M  V30 3551 H 324.856 2.1073 0.265855 0
M  V30 3552 H 327.119 0.930671 0.180431 0
M  V30 3553 H 326.825 3.29093 1.24058 0
M  V30 3554 H 326.699 2.51628 2.81004 0
M  V30 3555 H 329.086 1.57577 2.49506 0
M  V30 3556 H 329.167 2.38536 0.923811 0
M  V30 3557 H 328.811 4.63031 2.08722 0
M  V30 3558 H 328.741 3.78968 3.65637 0
M  V30 3559 H 331.232 2.98423 2.31845 0
M  V30 3560 H 331.545 6.46632 4.23187 0
M  V30 3561 H 329.89 5.81152 3.81165 0
M  V30 3562 H 333.081 3.74762 2.80484 0
M  V30 3563 H 333.254 5.33535 3.67756 0
M  V30 3564 N 326.66 -1.06551 1.16123 0
M  V30 3565 C 327.89 -1.8274 0.963838 0
M  V30 3566 C 328.298 -1.82712 -0.491228 0
M  V30 3567 O 327.641 -1.24294 -1.35265 0
M  V30 3568 C 327.703 -3.3065 1.41106 0
M  V30 3569 C 327.367 -3.54384 2.88549 0
M  V30 3570 C 328.364 -3.4765 3.86569 0
M  V30 3571 C 326.049 -3.81789 3.26408 0
M  V30 3572 C 328.043 -3.67982 5.2045 0
M  V30 3573 C 325.73 -4.01772 4.60459 0
M  V30 3574 C 326.728 -3.94866 5.57288 0
M  V30 3575 O 326.416 -4.14306 6.88916 0
M  V30 3576 H 326.148 -0.583136 0.341948 0
M  V30 3577 H 328.702 -1.35351 1.54497 0
M  V30 3578 H 326.932 -3.78887 0.773394 0
M  V30 3579 H 328.621 -3.88324 1.1815 0
M  V30 3580 H 329.387 -3.2647 3.58667 0
M  V30 3581 H 325.266 -3.86276 2.51619 0
M  V30 3582 H 328.81 -3.62507 5.96015 0
M  V30 3583 H 324.707 -4.2244 4.88072 0
M  V30 3584 H 325.475 -4.31609 6.95454 0
M  V30 3585 N 328.138 -0.959301 -1.25041 0
M  V30 3586 C 329.101 -0.487677 -2.23952 0
M  V30 3587 C 330.101 0.41119 -1.55454 0
M  V30 3588 O 331.291 0.207825 -1.72956 0
M  V30 3589 C 328.423 0.294807 -3.39623 0
M  V30 3590 H 329.616 -1.36198 -2.67189 0
M  V30 3591 H 327.169 -0.743042 -1.37508 0
M  V30 3592 H 327.904 1.18658 -3.01813 0
M  V30 3593 H 327.689 -0.35012 -3.90534 0
M  V30 3594 H 329.179 0.614089 -4.1306 0
M  V30 3595 N 329.616 1.39756 -0.72842 0
M  V30 3596 C 330.563 2.30647 -0.0841519 0
M  V30 3597 C 331.533 1.48869 0.7367 0
M  V30 3598 O 332.718 1.77574 0.698015 0
M  V30 3599 C 329.858 3.35165 0.822091 0
M  V30 3600 C 328.971 4.31999 -0.0106663 0
M  V30 3601 C 328.106 5.23585 0.896241 0
M  V30 3602 C 327.145 6.12072 0.0583381 0
M  V30 3603 N 326.282 6.96035 0.920818 0
M  V30 3604 H 331.122 2.85173 -0.864891 0
M  V30 3605 H 328.659 1.40422 -0.438179 0
M  V30 3606 H 330.617 3.94345 1.36189 0
M  V30 3607 H 329.247 2.8211 1.56888 0
M  V30 3608 H 328.299 3.74492 -0.66781 0
M  V30 3609 H 329.611 4.9443 -0.658825 0
M  V30 3610 H 328.765 5.87759 1.50412 0
M  V30 3611 H 327.504 4.61459 1.57819 0
M  V30 3612 H 326.509 5.46916 -0.562389 0
M  V30 3613 H 327.734 6.76261 -0.6203 0
M  V30 3614 H 325.68 6.36485 1.58818 0
M  V30 3615 H 325.597 7.55284 0.32899 0
M  V30 3616 H 326.865 7.64646 1.51447 0
M  V30 3617 N 331.094 0.475555 1.50254 0
M  V30 3618 C 332.041 -0.316293 2.28622 0
M  V30 3619 C 333.011 -0.983227 1.33873 0
M  V30 3620 O 334.196 -0.994805 1.62814 0
M  V30 3621 C 331.336 -1.38975 3.1588 0
M  V30 3622 C 330.449 -0.737146 4.25664 0
M  V30 3623 C 329.584 -1.78887 5.00173 0
M  V30 3624 C 328.623 -1.11676 6.01826 0
M  V30 3625 N 327.76 -2.11154 6.69596 0
M  V30 3626 H 332.6 0.358297 2.95838 0
M  V30 3627 H 330.137 0.188541 1.45887 0
M  V30 3628 H 332.095 -2.02383 3.64825 0
M  V30 3629 H 330.725 -2.03344 2.50701 0
M  V30 3630 H 329.777 0.0096065 3.80399 0
M  V30 3631 H 331.089 -0.206816 4.98371 0
M  V30 3632 H 330.243 -2.49865 5.52859 0
M  V30 3633 H 328.982 -2.35302 4.27182 0
M  V30 3634 H 327.987 -0.392633 5.48396 0
M  V30 3635 H 329.212 -0.55945 6.76792 0
M  V30 3636 H 327.158 -2.66577 5.99394 0
M  V30 3637 H 327.075 -1.63118 7.38193 0
M  V30 3638 H 328.343 -2.81497 7.26897 0
M  V30 3639 N 332.573 -1.56217 0.208337 0
M  V30 3640 C 333.536 -2.18455 -0.693557 0
M  V30 3641 C 334.536 -1.14268 -1.13135 0
M  V30 3642 O 335.726 -1.39577 -1.0423 0
M  V30 3643 C 332.858 -2.79727 -1.94848 0
M  V30 3644 H 334.051 -2.99519 -0.15114 0
M  V30 3645 H 331.604 -1.56245 -0.041287 0
M  V30 3646 H 332.339 -2.02497 -2.53309 0
M  V30 3647 H 332.124 -3.56009 -1.64316 0
M  V30 3648 H 333.614 -3.27475 -2.59133 0
M  V30 3649 N 334.051 0.0651679 -1.57465 0
M  V30 3650 C 334.998 1.07675 -2.04144 0
M  V30 3651 C 335.968 1.38071 -0.923335 0
M  V30 3652 O 337.153 1.49026 -1.19146 0
M  V30 3653 C 334.293 2.38337 -2.49579 0
M  V30 3654 C 333.406 2.14413 -3.75035 0
M  V30 3655 C 332.541 3.38686 -4.09225 0
M  V30 3656 C 331.58 3.10156 -5.27702 0
M  V30 3657 N 330.717 4.26778 -5.57499 0
M  V30 3658 H 335.557 0.671716 -2.90331 0
M  V30 3659 H 333.094 0.3201 -1.43575 0
M  V30 3660 H 335.052 3.14632 -2.73975 0
M  V30 3661 H 333.682 2.7663 -1.6636 0
M  V30 3662 H 332.734 1.2878 -3.57939 0
M  V30 3663 H 334.046 1.89344 -4.61466 0
M  V30 3664 H 333.2 4.23373 -4.34558 0
M  V30 3665 H 331.939 3.66837 -3.21374 0
M  V30 3666 H 330.944 2.23866 -5.02159 0
M  V30 3667 H 332.169 2.8332 -6.17176 0
M  V30 3668 H 330.115 4.54948 -4.72608 0
M  V30 3669 H 330.032 4.05005 -6.38362 0
M  V30 3670 H 331.3 5.12443 -5.87386 0
M  V30 3671 N 335.529 1.53961 0.336706 0
M  V30 3672 C 336.439 1.85432 1.43708 0
M  V30 3673 C 337.455 0.745053 1.57242 0
M  V30 3674 O 338.631 1.03804 1.72588 0
M  V30 3675 C 335.696 2.06349 2.78605 0
M  V30 3676 C 334.757 3.30191 2.74358 0
M  V30 3677 C 333.99 3.50101 4.02822 0
M  V30 3678 O 334.213 2.7371 5.00439 0
M  V30 3679 O 333.147 4.43547 4.06878 0
M  V30 3680 H 336.973 2.78975 1.20028 0
M  V30 3681 H 334.558 1.39701 0.52952 0
M  V30 3682 H 336.44 2.21513 3.58483 0
M  V30 3683 H 335.115 1.15995 3.02203 0
M  V30 3684 H 334.022 3.20425 1.93078 0
M  V30 3685 H 335.355 4.2056 2.55715 0
M  V30 3686 N 337.007 -0.598083 1.45811 0
M  V30 3687 C 338.256 -1.35295 1.49594 0
M  V30 3688 C 338.569 -1.95057 0.145679 0
M  V30 3689 O 339.775 -2.71431 0.0612099 0
M  V30 3690 C 338.231 -2.45124 2.63519 0
M  V30 3691 C 337.839 -1.91732 4.04899 0
M  V30 3692 C 339.583 -3.2205 2.76558 0
M  V30 3693 C 337.49 -2.991 5.1019 0
M  V30 3694 H 336.42 -0.508552 0.556679 0
M  V30 3695 H 339.071 -0.639977 1.71978 0
M  V30 3696 H 337.453 -3.19149 2.34435 0
M  V30 3697 H 338.627 -1.24352 4.43704 0
M  V30 3698 H 336.942 -1.27522 3.96393 0
M  V30 3699 H 339.539 -4.0215 3.52391 0
M  V30 3700 H 339.882 -3.73663 1.83526 0
M  V30 3701 H 340.415 -2.55127 3.05213 0
M  V30 3702 H 337.154 -2.52393 6.04961 0
M  V30 3703 H 336.674 -3.65017 4.75944 0
M  V30 3704 H 338.353 -3.63318 5.35359 0
M  V30 3705 N 338.485 -1.33259 -0.841409 0
M  V30 3706 C 339.448 -1.23221 -1.9326 0
M  V30 3707 C 340.448 -0.151895 -1.60081 0
M  V30 3708 O 341.638 -0.403246 -1.69468 0
M  V30 3709 C 338.77 -0.898123 -3.28856 0
M  V30 3710 H 339.963 -2.2021 -2.03587 0
M  V30 3711 H 337.516 -1.17281 -1.03319 0
M  V30 3712 H 338.251 0.0693841 -3.24226 0
M  V30 3713 H 338.036 -1.67934 -3.54317 0
M  V30 3714 H 339.526 -0.852563 -4.08805 0
M  V30 3715 N 339.963 1.05934 -1.16686 0
M  V30 3716 C 341.24 1.75643 -0.860747 0
M  V30 3717 C 341.62 2.01144 0.640641 0
M  V30 3718 O 340.968 1.64147 1.58959 0
M  V30 3719 C 341.178 3.05493 -1.68745 0
M  V30 3720 C 342.526 3.79581 -1.90271 0
M  V30 3721 O 343.55 3.15344 -1.65641 0
M  V30 3722 O 342.409 4.9499 -2.31618 0
M  V30 3723 H 339.503 0.763426 -0.317977 0
M  V30 3724 H 342.049 1.1217 -1.27342 0
M  V30 3725 H 340.821 2.8264 -2.70611 0
M  V30 3726 H 340.444 3.76702 -1.27206 0
M  V30 3727 N 341.441 0.965919 1.2453 0
M  V30 3728 C 342.389 0.486506 2.27455 0
M  V30 3729 C 343.383 -0.449041 1.6334 0
M  V30 3730 O 344.589 -0.324527 1.7705 0
M  V30 3731 H 340.964 0.138857 0.739069 0
M  V30 3732 H 342.935 1.3666 2.65267 0
M  V30 3733 C 341.684 -0.209481 3.47068 0
M  V30 3734 H 341.007 0.50129 3.96645 0
M  V30 3735 H 342.447 -0.508775 4.20936 0
M  V30 3736 C 340.906 -1.43586 3.0477 0
M  V30 3737 O 341.436 -2.53299 3.11773 0
M  V30 3738 N 339.642 -1.30126 2.59838 0
M  V30 3739 H 339.189 -0.408583 2.54339 0
M  V30 3740 H 339.147 -2.12294 2.31902 0
M  V30 3741 N 342.919 -1.39368 0.735821 0
M  V30 3742 C 344.147 -2.04795 0.294393 0
M  V30 3743 C 344.562 -1.55478 -1.07107 0
M  V30 3744 O 343.919 -0.720038 -1.67695 0
M  V30 3745 C 343.97 -3.6035 0.288071 0
M  V30 3746 O 343.691 -4.07852 1.59963 0
M  V30 3747 C 345.192 -4.42976 -0.169422 0
M  V30 3748 H 342.412 -0.658571 0.128551 0
M  V30 3749 H 344.956 -1.78399 0.999701 0
M  V30 3750 H 343.111 -3.85645 -0.368355 0
M  V30 3751 H 343.525 -5.02181 1.51375 0
M  V30 3752 H 344.999 -5.51864 -0.122687 0
M  V30 3753 H 345.476 -4.22068 -1.21472 0
M  V30 3754 H 346.082 -4.22832 0.457469 0
M  V30 3755 N 344.397 -0.483516 -1.5 0
M  V30 3756 C 345.622 0.0667119 -2.07293 0
M  V30 3757 C 346.047 1.3164 -1.3436 0
M  V30 3758 O 345.405 1.76945 -0.394987 0
M  V30 3759 C 345.453 0.321126 -3.59167 0
M  V30 3760 O 344.557 1.39927 -3.87936 0
M  V30 3761 H 343.898 -0.0184758 -0.663743 0
M  V30 3762 H 346.428 -0.678125 -1.93035 0
M  V30 3763 H 346.438 0.557906 -4.04168 0
M  V30 3764 H 345.113 -0.592007 -4.11665 0
M  V30 3765 H 343.69 1.14882 -3.54763 0
M  V30 3766 N 345.875 1.56104 -0.216619 0
M  V30 3767 C 347.152 1.89988 0.465165 0
M  V30 3768 C 347.532 1.13326 1.78102 0
M  V30 3769 O 346.88 0.241033 2.27225 0
M  V30 3770 C 347.09 3.42646 0.662939 0
M  V30 3771 C 348.438 4.13311 0.972602 0
M  V30 3772 O 349.462 3.48217 0.749901 0
M  V30 3773 O 348.321 5.28396 1.39499 0
M  V30 3774 H 345.415 0.78979 0.245276 0
M  V30 3775 H 347.961 1.67721 -0.258436 0
M  V30 3776 H 346.733 3.90399 -0.26543 0
M  V30 3777 H 346.356 3.70677 1.43821 0
M  V30 3778 N 347.353 -0.0568162 1.57498 0
M  V30 3779 C 348.316 -1.05038 2.03715 0
M  V30 3780 C 349.316 -1.30709 0.936577 0
M  V30 3781 O 350.506 -1.26178 1.20103 0
M  V30 3782 C 347.638 -2.39034 2.43055 0
M  V30 3783 H 348.831 -0.651715 2.92733 0
M  V30 3784 H 346.384 -0.302947 1.53336 0
M  V30 3785 H 347.119 -2.83703 1.57108 0
M  V30 3786 H 346.904 -2.21739 3.2338 0
M  V30 3787 H 348.394 -3.10421 2.79336 0
M  V30 3788 N 348.832 -1.54138 -0.328536 0
M  V30 3789 C 349.779 -1.83176 -1.40411 0
M  V30 3790 C 350.749 -0.678494 -1.5161 0
M  V30 3791 O 351.934 -0.92443 -1.6691 0
M  V30 3792 C 349.074 -2.06035 -2.76846 0
M  V30 3793 C 348.187 -3.33727 -2.74318 0
M  V30 3794 C 347.322 -3.46574 -4.02567 0
M  V30 3795 C 346.361 -4.68159 -3.94327 0
M  V30 3796 N 345.498 -4.77959 -5.14296 0
M  V30 3797 H 350.338 -2.74938 -1.14948 0
M  V30 3798 H 347.875 -1.36166 -0.556538 0
M  V30 3799 H 349.833 -2.1728 -3.56153 0
M  V30 3800 H 348.463 -1.1757 -3.00628 0
M  V30 3801 H 347.515 -3.31246 -1.8703 0
M  V30 3802 H 348.827 -4.23139 -2.64111 0
M  V30 3803 H 347.981 -3.57333 -4.90304 0
M  V30 3804 H 346.72 -2.55245 -4.15574 0
M  V30 3805 H 345.725 -4.57461 -3.04974 0
M  V30 3806 H 346.95 -5.60868 -3.82889 0
M  V30 3807 H 344.896 -3.89544 -5.27818 0
M  V30 3808 H 344.813 -5.6133 -5.06404 0
M  V30 3809 H 346.081 -4.93044 -6.03761 0
M  V30 3810 N 350.31 0.590341 -1.46126 0
M  V30 3811 C 351.726 0.912917 -1.30912 0
M  V30 3812 C 351.926 1.99616 -0.274893 0
M  V30 3813 O 350.982 2.50397 0.325197 0
M  V30 3814 C 352.295 1.3375 -2.69317 0
M  V30 3815 C 353.843 1.45077 -2.77348 0
M  V30 3816 C 354.318 1.90904 -4.16317 0
M  V30 3817 N 355.809 1.9811 -4.18696 0
M  V30 3818 C 356.544 2.34828 -5.23109 0
M  V30 3819 N 356.04 2.70393 -6.37856 0
M  V30 3820 N 357.833 2.35317 -5.10473 0
M  V30 3821 H 349.984 -0.125358 -2.1203 0
M  V30 3822 H 352.247 0.00658481 -0.947977 0
M  V30 3823 H 351.953 0.615614 -3.4627 0
M  V30 3824 H 351.827 2.30058 -2.9892 0
M  V30 3825 H 354.214 2.16353 -2.00687 0
M  V30 3826 H 354.295 0.4704 -2.51438 0
M  V30 3827 H 353.939 1.20209 -4.9347 0
M  V30 3828 H 353.869 2.89886 -4.39629 0
M  V30 3829 H 356.36 1.73146 -3.359 0
M  V30 3830 H 356.673 2.97341 -7.13308 0
M  V30 3831 H 355.018 2.68048 -6.41229 0
M  V30 3832 H 358.209 2.0695 -4.19868 0
M  V30 3833 H 358.382 2.63605 -5.9196 0
M  V30 3834 N 351.788 1.33704 0.83433 0
M  V30 3835 C 352.735 1.24335 1.94447 0
M  V30 3836 C 353.705 0.120991 1.65659 0
M  V30 3837 O 354.89 0.300035 1.88426 0
M  V30 3838 C 352.03 0.993124 3.30501 0
M  V30 3839 C 351.143 2.20217 3.71657 0
M  V30 3840 C 350.278 1.88572 4.96602 0
M  V30 3841 C 349.317 3.05683 5.30306 0
M  V30 3842 N 348.454 2.73997 6.46429 0
M  V30 3843 H 353.294 2.1928 2.01792 0
M  V30 3844 H 350.831 1.09035 0.987404 0
M  V30 3845 H 352.789 0.828467 4.08892 0
M  V30 3846 H 351.419 0.0803902 3.227 0
M  V30 3847 H 350.471 2.47642 2.88752 0
M  V30 3848 H 351.783 3.07752 3.92543 0
M  V30 3849 H 350.937 1.68776 5.82752 0
M  V30 3850 H 349.676 0.982799 4.77695 0
M  V30 3851 H 348.681 3.26088 4.42659 0
M  V30 3852 H 349.906 3.96737 5.51159 0
M  V30 3853 H 347.852 1.86268 6.28999 0
M  V30 3854 H 347.769 3.55064 6.67432 0
M  V30 3855 H 349.037 2.57679 7.35678 0
M  V30 3856 N 353.266 -1.05314 1.17247 0
M  V30 3857 C 354.229 -2.112 0.890357 0
M  V30 3858 C 355.229 -1.60359 -0.118943 0
M  V30 3859 O 356.419 -1.73833 0.113086 0
M  V30 3860 C 353.551 -3.39266 0.333422 0
M  V30 3861 H 354.744 -2.37659 1.82916 0
M  V30 3862 H 352.297 -1.21538 0.982758 0
M  V30 3863 H 353.032 -3.18462 -0.612587 0
M  V30 3864 H 352.817 -3.77477 1.06082 0
M  V30 3865 H 354.307 -4.17315 0.154322 0
M  V30 3866 N 354.744 -0.972509 -1.24016 0
M  V30 3867 C 355.654 -0.5143 -2.28893 0
M  V30 3868 C 356.67 0.427078 -1.68677 0
M  V30 3869 O 357.846 0.298939 -1.99169 0
M  V30 3870 C 354.911 0.183598 -3.46214 0
M  V30 3871 C 353.972 -0.798202 -4.21814 0
M  V30 3872 C 353.205 -0.133514 -5.33533 0
M  V30 3873 O 353.428 1.07714 -5.60137 0
M  V30 3874 O 352.362 -0.828103 -5.96176 0
M  V30 3875 H 356.188 -1.38629 -2.70214 0
M  V30 3876 H 353.773 -0.739769 -1.29799 0
M  V30 3877 H 355.655 0.575433 -4.17453 0
M  V30 3878 H 354.33 1.03048 -3.0686 0
M  V30 3879 H 353.237 -1.24059 -3.52931 0
M  V30 3880 H 354.57 -1.61364 -4.64997 0
M  V30 3881 N 356.222 1.38976 -0.743202 0
M  V30 3882 C 357.152 2.33171 -0.123873 0
M  V30 3883 C 358.133 1.54336 0.71516 0
M  V30 3884 O 359.318 1.82696 0.658467 0
M  V30 3885 C 356.448 3.38474 0.777978 0
M  V30 3886 C 355.402 4.27979 0.0424758 0
M  V30 3887 C 354.728 5.2405 1.06189 0
M  V30 3888 C 356.028 5.10155 -1.1198 0
M  V30 3889 H 357.722 2.85213 -0.910709 0
M  V30 3890 H 355.268 1.37133 -0.439388 0
M  V30 3891 H 357.221 4.03328 1.22084 0
M  V30 3892 H 355.945 2.84891 1.59702 0
M  V30 3893 H 354.604 3.64616 -0.380853 0
M  V30 3894 H 354.252 4.66758 1.87472 0
M  V30 3895 H 353.952 5.84785 0.574485 0
M  V30 3896 H 355.476 5.9178 1.50428 0
M  V30 3897 H 356.89 5.68307 -0.75499 0
M  V30 3898 H 355.287 5.80073 -1.53738 0
M  V30 3899 H 356.357 4.44504 -1.93764 0
M  V30 3900 N 357.7 0.491464 1.49741 0
M  V30 3901 C 358.648 -0.305837 2.30581 0
M  V30 3902 C 359.642 -0.971642 1.38764 0
M  V30 3903 O 360.848 -0.90042 1.5586 0
M  V30 3904 H 357.223 -0.117482 0.742767 0
M  V30 3905 H 359.194 0.396093 2.95759 0
M  V30 3906 C 357.943 -1.36319 3.19863 0
M  V30 3907 H 357.266 -0.860258 3.90435 0
M  V30 3908 H 358.706 -1.89323 3.79385 0
M  V30 3909 C 357.165 -2.37621 2.38826 0
M  V30 3910 O 357.695 -3.43311 2.08567 0
M  V30 3911 N 355.901 -2.09849 2.01026 0
M  V30 3912 H 355.448 -1.23922 2.25834 0
M  V30 3913 H 355.406 -2.77859 1.47112 0
M  V30 3914 N 359.178 -1.55987 0.224894 0
M  V30 3915 C 360.088 -2.24066 -0.69511 0
M  V30 3916 C 361.104 -1.24939 -1.21104 0
M  V30 3917 O 362.28 -1.5776 -1.25195 0
M  V30 3918 C 359.345 -2.90983 -1.88493 0
M  V30 3919 C 358.406 -4.05462 -1.41064 0
M  V30 3920 C 357.639 -4.69179 -2.54375 0
M  V30 3921 O 357.862 -4.31895 -3.72589 0
M  V30 3922 O 356.796 -5.58108 -2.25386 0
M  V30 3923 H 360.622 -3.03353 -0.145149 0
M  V30 3924 H 358.207 -1.49399 -0.00569476 0
M  V30 3925 H 360.089 -3.33209 -2.57972 0
M  V30 3926 H 358.764 -2.14653 -2.42293 0
M  V30 3927 H 357.671 -3.67798 -0.683774 0
M  V30 3928 H 359.004 -4.83545 -0.918985 0
M  V30 3929 N 360.656 0.0484629 -1.57525 0
M  V30 3930 C 361.905 0.742065 -1.87553 0
M  V30 3931 C 362.218 1.77545 -0.820802 0
M  V30 3932 O 363.424 2.52027 -1.00967 0
M  V30 3933 C 361.88 1.37081 -3.32771 0
M  V30 3934 C 361.488 0.374786 -4.4643 0
M  V30 3935 C 363.232 2.04542 -3.71972 0
M  V30 3936 C 361.139 1.01077 -5.82698 0
M  V30 3937 H 360.069 0.280903 -0.699721 0
M  V30 3938 H 362.72 -0.00411877 -1.835 0
M  V30 3939 H 361.102 2.16605 -3.31509 0
M  V30 3940 H 362.276 -0.392331 -4.59127 0
M  V30 3941 H 360.591 -0.196653 -4.15935 0
M  V30 3942 H 363.188 2.52943 -4.71088 0
M  V30 3943 H 363.531 2.85515 -3.02964 0
M  V30 3944 H 364.064 1.31819 -3.75325 0
M  V30 3945 H 360.803 0.240878 -6.55057 0
M  V30 3946 H 360.323 1.74819 -5.73758 0
M  V30 3947 H 362.002 1.52383 -6.28799 0
M  V30 3948 N 362.134 1.5431 0.320358 0
M  V30 3949 C 363.097 1.83195 1.3774 0
M  V30 3950 C 364.097 0.703906 1.44575 0
M  V30 3951 O 365.287 0.972214 1.44546 0
M  V30 3952 C 362.419 1.99487 2.76438 0
M  V30 3953 H 363.612 2.77642 1.1338 0
M  V30 3954 H 361.165 1.46076 0.556012 0
M  V30 3955 H 361.9 1.07262 3.06048 0
M  V30 3956 H 361.685 2.81575 2.7287 0
M  V30 3957 H 363.175 2.23271 3.52902 0
M  V30 3958 N 363.613 -0.582584 1.46437 0
M  V30 3959 C 364.56 -1.69164 1.5701 0
M  V30 3960 C 365.53 -1.60847 0.414403 0
M  V30 3961 O 366.715 -1.80058 0.631171 0
M  V30 3962 C 363.855 -3.075 1.56646 0
M  V30 3963 C 362.968 -3.2644 2.82951 0
M  V30 3964 C 362.103 -4.55026 2.7409 0
M  V30 3965 C 361.142 -4.6731 3.95333 0
M  V30 3966 N 360.279 -5.87221 3.84858 0
M  V30 3967 H 365.119 -1.59464 2.51744 0
M  V30 3968 H 362.656 -0.777186 1.24893 0
M  V30 3969 H 364.614 -3.8757 1.5442 0
M  V30 3970 H 363.244 -3.16096 0.654439 0
M  V30 3971 H 362.296 -2.39974 2.95155 0
M  V30 3972 H 363.608 -3.31385 3.72808 0
M  V30 3973 H 362.762 -5.43324 2.6997 0
M  V30 3974 H 361.501 -4.52519 1.81873 0
M  V30 3975 H 360.506 -3.77429 3.99784 0
M  V30 3976 H 361.731 -4.71595 4.88646 0
M  V30 3977 H 359.677 -5.85712 2.95427 0
M  V30 3978 H 359.594 -5.93435 4.6837 0
M  V30 3979 H 360.862 -6.7795 3.84713 0
M  V30 3980 N 365.091 -1.34144 -0.827227 0
M  V30 3981 C 366.34 -1.25602 -1.5782 0
M  V30 3982 C 366.653 0.173445 -1.94829 0
M  V30 3983 O 367.859 0.380984 -2.68814 0
M  V30 3984 C 366.315 -2.20151 -2.84713 0
M  V30 3985 C 365.923 -3.68331 -2.55021 0
M  V30 3986 C 367.667 -2.20508 -3.62735 0
M  V30 3987 C 365.574 -4.54762 -3.78082 0
M  V30 3988 H 364.504 -0.466573 -0.592306 0
M  V30 3989 H 367.155 -1.59283 -0.911116 0
M  V30 3990 H 365.537 -1.79417 -3.53023 0
M  V30 3991 H 366.711 -4.17577 -1.94849 0
M  V30 3992 H 365.026 -3.7038 -1.90283 0
M  V30 3993 H 367.623 -2.82306 -4.54101 0
M  V30 3994 H 367.966 -1.20322 -3.98533 0
M  V30 3995 H 368.499 -2.59664 -3.01362 0
M  V30 3996 H 365.238 -5.55867 -3.47407 0
M  V30 3997 H 364.758 -4.10254 -4.37552 0
M  V30 3998 H 366.437 -4.69153 -4.45538 0
M  V30 3999 N 366.569 1.04691 -1.17803 0
M  V30 4000 C 367.809 1.79352 -0.980423 0
M  V30 4001 C 368.173 1.85853 0.481958 0
M  V30 4002 O 369.374 2.56656 0.798809 0
M  V30 4003 C 367.645 3.19088 -1.6099 0
M  V30 4004 S 369.204 4.10164 -1.55918 0
M  V30 4005 H 366.022 0.617631 -0.352211 0
M  V30 4006 H 368.624 1.25575 -1.49837 0
M  V30 4007 H 367.328 3.11962 -2.66661 0
M  V30 4008 H 366.859 3.77941 -1.09197 0
M  V30 4009 H 368.874 4.92907 -0.570685 0
M  V30 4010 N 368.047 0.979072 1.23499 0
M  V30 4011 C 369.272 0.664845 1.96455 0
M  V30 4012 C 369.697 -0.761287 1.72006 0
M  V30 4013 O 369.055 -1.51837 0.990713 0
M  V30 4014 C 369.103 0.959479 3.47601 0
M  V30 4015 O 368.207 0.0508168 4.12369 0
M  V30 4016 H 367.548 0.250185 0.615064 0
M  V30 4017 H 370.078 1.31231 1.5697 0
M  V30 4018 H 370.088 0.895642 3.98048 0
M  V30 4019 H 368.763 1.99876 3.64723 0
M  V30 4020 H 367.34 0.16895 3.72517 0
M  V30 4021 N 369.525 -1.3858 0.750561 0
M  V30 4022 C 370.472 -2.30483 0.120835 0
M  V30 4023 C 371.442 -1.50022 -0.712923 0
M  V30 4024 O 372.627 -1.78662 -0.669676 0
M  V30 4025 C 369.767 -3.36431 -0.768666 0
M  V30 4026 C 368.88 -4.31927 0.0793922 0
M  V30 4027 C 368.015 -5.24944 -0.81283 0
M  V30 4028 C 367.054 -6.12088 0.0390447 0
M  V30 4029 N 366.191 -6.97412 -0.809969 0
M  V30 4030 H 371.031 -2.83761 0.91015 0
M  V30 4031 H 368.568 -1.39707 0.460463 0
M  V30 4032 H 370.526 -3.96462 -1.29898 0
M  V30 4033 H 369.156 -2.8457 -1.5238 0
M  V30 4034 H 368.208 -3.73382 0.727303 0
M  V30 4035 H 369.52 -4.93319 0.737401 0
M  V30 4036 H 368.674 -5.90078 -1.41042 0
M  V30 4037 H 367.413 -4.63911 -1.50458 0
M  V30 4038 H 366.418 -5.45952 0.649328 0
M  V30 4039 H 367.643 -6.75189 0.727809 0
M  V30 4040 H 365.589 -6.38931 -1.48672 0
M  V30 4041 H 365.506 -7.55712 -0.208789 0
M  V30 4042 H 366.774 -7.66959 -1.39263 0
M  V30 4043 N 371.003 -0.499398 -1.49478 0
M  V30 4044 C 372.249 0.0457576 -2.02748 0
M  V30 4045 C 372.582 1.36793 -1.37846 0
M  V30 4046 O 371.857 1.87596 -0.513601 0
M  V30 4047 C 372.14 0.199986 -3.59544 0
M  V30 4048 C 371.993 -1.1452 -4.34977 0
M  V30 4049 C 373.312 0.94137 -4.29914 0
M  V30 4050 H 370.431 0.0151552 -0.736844 0
M  V30 4051 H 373.073 -0.650498 -1.78518 0
M  V30 4052 H 371.223 0.793007 -3.8032 0
M  V30 4053 H 372.895 -1.77697 -4.25701 0
M  V30 4054 H 371.138 -1.73488 -3.97598 0
M  V30 4055 H 371.809 -0.990607 -5.43039 0
M  V30 4056 H 374.285 0.43844 -4.13784 0
M  V30 4057 H 373.161 1.01812 -5.39375 0
M  V30 4058 H 373.422 1.98471 -3.95046 0
M  V30 4059 N 372.481 1.55866 -0.233164 0
M  V30 4060 C 373.706 2.03449 0.402906 0
M  V30 4061 C 374.131 1.11166 1.51736 0
M  V30 4062 O 373.489 0.101996 1.81013 0
M  V30 4063 C 373.537 3.49165 0.9009 0
M  V30 4064 O 372.641 3.60019 2.01147 0
M  V30 4065 H 371.982 0.657913 0.0897025 0
M  V30 4066 H 374.512 2.01493 -0.355201 0
M  V30 4067 H 374.522 3.89716 1.2077 0
M  V30 4068 H 373.197 4.15813 0.0852889 0
M  V30 4069 H 371.774 3.3136 1.71042 0
M  V30 4070 N 373.959 -0.0401083 1.57549 0
M  V30 4071 C 375.207 -0.731677 1.8839 0
M  V30 4072 C 375.528 -1.76481 0.829425 0
M  V30 4073 O 374.798 -1.95411 -0.1383 0
M  V30 4074 H 373.378 -0.273225 0.695239 0
M  V30 4075 H 376.04 -0.00867725 1.94898 0
M  V30 4076 H 375.136 -1.22816 2.86919 0
M  V30 4077 N 375.437 -1.54477 -0.31217 0
M  V30 4078 C 376.347 -1.87695 -1.4074 0
M  V30 4079 C 377.363 -0.769975 -1.56036 0
M  V30 4080 O 378.539 -1.06537 -1.70915 0
M  V30 4081 C 375.604 -2.10755 -2.75287 0
M  V30 4082 C 374.665 -3.34514 -2.69071 0
M  V30 4083 C 373.898 -3.56465 -3.97201 0
M  V30 4084 O 374.121 -2.81637 -4.96021 0
M  V30 4085 O 373.055 -4.49964 -3.9977 0
M  V30 4086 H 376.881 -2.80849 -1.15574 0
M  V30 4087 H 374.466 -1.40526 -0.507228 0
M  V30 4088 H 376.348 -2.27188 -3.54913 0
M  V30 4089 H 375.023 -1.20788 -3.0032 0
M  V30 4090 H 373.93 -3.23456 -1.87955 0
M  V30 4091 H 375.263 -4.24575 -2.48992 0
M  V30 4092 N 376.915 0.57481 -1.46744 0
M  V30 4093 C 378.163 1.33009 -1.52161 0
M  V30 4094 C 378.484 1.94185 -0.178092 0
M  V30 4095 O 377.754 1.7899 0.796196 0
M  V30 4096 H 376.334 0.493873 -0.560445 0
M  V30 4097 H 378.996 0.672589 -1.82927 0
M  V30 4098 H 378.092 2.13273 -2.27862 0
M  V30 4099 N 378.394 1.34581 0.820102 0
M  V30 4100 C 379.357 1.2628 1.91275 0
M  V30 4101 C 380.357 0.177344 1.59819 0
M  V30 4102 O 381.547 0.430156 1.68806 0
M  V30 4103 C 378.679 0.950327 3.27386 0
M  V30 4104 H 379.872 2.23421 2.00057 0
M  V30 4105 H 377.425 1.1891 1.0144 0
M  V30 4106 H 378.16 -0.0177938 3.24295 0
M  V30 4107 H 377.945 1.73549 3.51601 0
M  V30 4108 H 379.435 0.917492 4.07396 0
M  V30 4109 N 379.872 -1.04064 1.18357 0
M  V30 4110 C 380.819 -2.12077 0.910603 0
M  V30 4111 C 381.789 -1.65421 -0.15 0
M  V30 4112 O 382.974 -1.90797 -0.0103614 0
M  V30 4113 C 380.114 -3.42252 0.442472 0
M  V30 4114 C 379.227 -4.0252 1.5685 0
M  V30 4115 C 378.362 -5.20657 1.05309 0
M  V30 4116 C 377.401 -5.72955 2.1538 0
M  V30 4117 N 376.538 -6.8238 1.65233 0
M  V30 4118 H 381.378 -2.34764 1.83548 0
M  V30 4119 H 378.915 -1.15157 0.915279 0
M  V30 4120 H 380.873 -4.16921 0.152534 0
M  V30 4121 H 379.503 -3.19712 -0.445428 0
M  V30 4122 H 378.555 -3.25178 1.97391 0
M  V30 4123 H 379.867 -4.37362 2.39824 0
M  V30 4124 H 379.021 -6.0244 0.717677 0
M  V30 4125 H 377.76 -4.87318 0.19293 0
M  V30 4126 H 376.765 -4.89793 2.49766 0
M  V30 4127 H 377.99 -6.08337 3.01832 0
M  V30 4128 H 375.936 -6.50917 0.815064 0
M  V30 4129 H 375.853 -7.16286 2.41805 0
M  V30 4130 H 377.121 -7.67788 1.34619 0
M  V30 4131 N 381.35 -0.985608 -1.22978 0
M  V30 4132 C 382.575 -0.675254 -1.961 0
M  V30 4133 C 383 0.752154 -1.72407 0
M  V30 4134 O 382.358 1.5131 -0.998751 0
M  V30 4135 C 382.406 -0.977899 -3.47087 0
M  V30 4136 O 381.51 -0.072685 -4.12336 0
M  V30 4137 H 380.851 -0.253443 -0.613728 0
M  V30 4138 H 383.381 -1.32061 -1.56272 0
M  V30 4139 H 383.391 -0.916739 -3.97567 0
M  V30 4140 H 382.066 -2.01807 -3.63657 0
M  V30 4141 H 380.643 -0.188703 -3.72422 0
M  V30 4142 N 382.828 1.3818 -0.7579 0
M  V30 4143 C 384.075 2.00019 -0.315985 0
M  V30 4144 C 384.403 1.60163 1.10355 0
M  V30 4145 O 383.658 0.83264 1.77103 0
M  V30 4146 C 383.957 3.55252 -0.391218 0
M  V30 4147 C 383.623 4.14834 -1.76702 0
M  V30 4148 C 382.285 4.30821 -2.14353 0
M  V30 4149 C 384.637 4.47658 -2.66931 0
M  V30 4150 C 381.965 4.76928 -3.41696 0
M  V30 4151 C 384.317 4.95184 -3.93669 0
M  V30 4152 C 382.981 5.09377 -4.31383 0
M  V30 4153 H 382.251 0.731923 -0.115627 0
M  V30 4154 H 384.898 1.65161 -0.969223 0
M  V30 4155 H 383.203 3.90273 0.34558 0
M  V30 4156 H 384.9 4.00988 -0.030805 0
M  V30 4157 H 381.49 4.02808 -1.46435 0
M  V30 4158 H 385.674 4.34904 -2.39106 0
M  V30 4159 H 380.93 4.86103 -3.70829 0
M  V30 4160 H 385.104 5.19551 -4.63724 0
M  V30 4161 H 382.731 5.44865 -5.30119 0
M  V30 4162 N 384.306 0.507319 1.49211 0
M  V30 4163 C 385.536 -0.0315292 2.06576 0
M  V30 4164 C 385.944 -1.30791 1.36713 0
M  V30 4165 O 385.287 -1.78324 0.441181 0
M  V30 4166 C 385.349 -0.349104 3.57801 0
M  V30 4167 C 385.013 0.830475 4.49391 0
M  V30 4168 C 386.01 1.72271 4.90529 0
M  V30 4169 C 383.695 1.03107 4.91604 0
M  V30 4170 C 385.689 2.79964 5.72625 0
M  V30 4171 C 383.376 2.11116 5.73475 0
M  V30 4172 C 384.374 2.99379 6.1389 0
M  V30 4173 O 384.062 4.05523 6.94123 0
M  V30 4174 H 383.794 0.0201002 0.675701 0
M  V30 4175 H 386.348 0.705737 1.92895 0
M  V30 4176 H 384.578 -1.14005 3.69513 0
M  V30 4177 H 386.267 -0.827319 3.97379 0
M  V30 4178 H 387.033 1.57958 4.58557 0
M  V30 4179 H 382.912 0.353417 4.59643 0
M  V30 4180 H 386.456 3.48884 6.04091 0
M  V30 4181 H 382.353 2.25421 6.0486 0
M  V30 4182 H 383.121 4.02953 7.1244 0
M  V30 4183 N 385.784 -1.5574 0.241426 0
M  V30 4184 C 386.694 -2.2479 -0.671305 0
M  V30 4185 C 387.71 -1.26217 -1.19772 0
M  V30 4186 O 388.886 -1.59079 -1.23514 0
M  V30 4187 C 385.951 -2.92966 -1.85396 0
M  V30 4188 C 385.012 -4.06935 -1.36756 0
M  V30 4189 C 384.245 -4.71851 -2.49384 0
M  V30 4190 O 384.468 -4.35823 -3.67987 0
M  V30 4191 O 383.402 -5.60467 -2.19454 0
M  V30 4192 H 387.228 -3.0349 -0.112966 0
M  V30 4193 H 384.813 -1.49397 0.0101513 0
M  V30 4194 H 386.695 -3.35927 -2.54423 0
M  V30 4195 H 385.37 -2.17211 -2.40002 0
M  V30 4196 H 384.277 -3.68503 -0.644726 0
M  V30 4197 H 385.61 -4.84492 -0.867647 0
M  V30 4198 N 387.262 0.0317525 -1.57568 0
M  V30 4199 C 388.225 1.01783 -2.0536 0
M  V30 4200 C 389.225 1.29203 -0.957253 0
M  V30 4201 O 390.415 1.24251 -1.22095 0
M  V30 4202 C 387.547 2.35137 -2.46827 0
M  V30 4203 H 388.74 0.605062 -2.93733 0
M  V30 4204 H 386.293 0.278514 -1.53799 0
M  V30 4205 H 387.028 2.81168 -1.61602 0
M  V30 4206 H 386.813 2.16566 -3.26866 0
M  V30 4207 H 388.303 3.05938 -2.84239 0
M  V30 4208 N 388.74 1.54641 0.303973 0
M  V30 4209 C 389.98 1.75516 1.04755 0
M  V30 4210 C 390.344 0.528211 1.84591 0
M  V30 4211 O 391.545 0.614645 2.61678 0
M  V30 4212 C 389.816 3.00685 1.93193 0
M  V30 4213 S 391.375 3.42549 2.74237 0
M  V30 4214 H 388.193 0.616987 0.353339 0
M  V30 4215 H 390.795 1.92842 0.321292 0
M  V30 4216 H 389.499 3.8811 1.33411 0
M  V30 4217 H 389.03 2.85937 2.70191 0
M  V30 4218 H 391.045 2.99386 3.95705 0
M  V30 4219 N 390.218 -0.567019 1.47046 0
M  V30 4220 C 391.15 -1.68985 1.54844 0
M  V30 4221 C 392.163 -1.56869 0.435431 0
M  V30 4222 O 393.352 -1.64006 0.70457 0
M  V30 4223 C 390.452 -3.07373 1.42742 0
M  V30 4224 C 389.625 -3.45339 2.6844 0
M  V30 4225 C 388.684 -4.62849 2.50314 0
M  V30 4226 O 387.71 -4.67922 3.24095 0
M  V30 4227 N 388.912 -5.58726 1.57499 0
M  V30 4228 H 391.677 -1.62745 2.51663 0
M  V30 4229 H 389.238 -0.753411 1.43302 0
M  V30 4230 H 391.23 -3.83803 1.28365 0
M  V30 4231 H 389.8 -3.07893 0.540445 0
M  V30 4232 H 389.02 -2.58455 2.97648 0
M  V30 4233 H 390.308 -3.67476 3.51907 0
M  V30 4234 H 389.706 -5.57376 0.966876 0
M  V30 4235 H 388.263 -6.34523 1.49078 0
M  V30 4236 N 391.696 -1.35014 -0.812953 0
M  V30 4237 C 392.626 -1.30069 -1.93919 0
M  V30 4238 C 393.607 -0.176275 -1.69184 0
M  V30 4239 O 394.792 -0.370227 -1.90638 0
M  V30 4240 C 391.922 -1.06547 -3.30552 0
M  V30 4241 C 390.876 -2.15561 -3.69753 0
M  V30 4242 C 390.202 -1.77214 -5.04479 0
M  V30 4243 C 391.502 -3.57476 -3.808 0
M  V30 4244 H 393.196 -2.24303 -1.98314 0
M  V30 4245 H 390.742 -1.07977 -0.952736 0
M  V30 4246 H 392.695 -1.01729 -4.08937 0
M  V30 4247 H 391.419 -0.0875719 -3.26483 0
M  V30 4248 H 390.078 -2.19466 -2.9365 0
M  V30 4249 H 389.726 -0.780589 -4.96906 0
M  V30 4250 H 389.426 -2.50184 -5.31678 0
M  V30 4251 H 390.95 -1.7391 -5.8531 0
M  V30 4252 H 392.364 -3.55929 -4.4943 0
M  V30 4253 H 390.761 -4.29152 -4.19462 0
M  V30 4254 H 391.831 -3.94091 -2.82525 0
M  V30 4255 N 393.175 1.03435 -1.18907 0
M  V30 4256 C 394.422 1.76743 -0.988334 0
M  V30 4257 C 394.75 1.88447 0.481441 0
M  V30 4258 O 394.005 1.39383 1.37371 0
M  V30 4259 C 394.304 3.19792 -1.59586 0
M  V30 4260 C 393.97 3.28108 -3.09283 0
M  V30 4261 C 392.632 3.30084 -3.5014 0
M  V30 4262 C 394.984 3.27696 -4.05296 0
M  V30 4263 C 392.312 3.29299 -4.85571 0
M  V30 4264 C 394.664 3.28451 -5.4065 0
M  V30 4265 C 393.328 3.28723 -5.80946 0
M  V30 4266 H 392.598 0.64675 -0.361657 0
M  V30 4267 H 395.245 1.21442 -1.48068 0
M  V30 4268 H 393.55 3.78136 -1.02568 0
M  V30 4269 H 395.247 3.75171 -1.41589 0
M  V30 4270 H 391.837 3.27294 -2.76725 0
M  V30 4271 H 396.021 3.25354 -3.74778 0
M  V30 4272 H 391.277 3.2783 -5.16079 0
M  V30 4273 H 395.451 3.27082 -6.14809 0
M  V30 4274 H 393.078 3.27868 -6.85862 0
M  V30 4275 N 394.653 0.992116 1.22453 0
M  V30 4276 C 395.899 0.678177 1.91761 0
M  V30 4277 C 396.254 -0.781141 1.75829 0
M  V30 4278 O 395.547 -1.55747 1.11595 0
M  V30 4279 C 395.741 1.01832 3.42586 0
M  V30 4280 C 395.57 2.50916 3.73191 0
M  V30 4281 C 394.34 3.17308 3.93248 0
M  V30 4282 C 396.538 3.49032 3.77732 0
M  V30 4283 N 394.52 4.55876 4.11157 0
M  V30 4284 C 395.891 4.73055 4.00773 0
M  V30 4285 C 397.946 3.43349 3.60577 0
M  V30 4286 C 396.649 5.92089 4.0844 0
M  V30 4287 C 398.675 4.61759 3.69503 0
M  V30 4288 C 398.037 5.84582 3.92993 0
M  V30 4289 H 394.136 0.299425 0.722405 0
M  V30 4290 H 396.72 1.27197 1.47408 0
M  V30 4291 H 394.891 0.453118 3.85748 0
M  V30 4292 H 396.623 0.660454 3.99274 0
M  V30 4293 H 393.378 2.67778 3.9063 0
M  V30 4294 H 393.802 5.27748 4.24042 0
M  V30 4295 H 398.444 2.49408 3.41402 0
M  V30 4296 H 396.162 6.86435 4.26418 0
M  V30 4297 H 399.748 4.58951 3.57569 0
M  V30 4298 H 398.628 6.74676 3.99728 0
M  V30 4299 N 396.131 -1.37776 0.765217 0
M  V30 4300 C 397.378 -1.99849 0.326588 0
M  V30 4301 C 397.706 -1.60746 -1.09504 0
M  V30 4302 O 396.961 -0.84202 -1.76659 0
M  V30 4303 C 397.26 -3.5504 0.410053 0
M  V30 4304 C 396.926 -4.13891 1.78899 0
M  V30 4305 C 395.588 -4.29678 2.16635 0
M  V30 4306 C 397.94 -4.46236 2.69301 0
M  V30 4307 C 395.268 -4.7511 3.44221 0
M  V30 4308 C 397.62 -4.93089 3.9629 0
M  V30 4309 C 396.284 -5.07082 4.34078 0
M  V30 4310 H 395.554 -0.7313 0.119507 0
M  V30 4311 H 398.201 -1.64645 0.977968 0
M  V30 4312 H 396.506 -3.90451 -0.324878 0
M  V30 4313 H 398.203 -4.00966 0.0520699 0
M  V30 4314 H 394.793 -4.02026 1.48569 0
M  V30 4315 H 398.977 -4.3363 2.41409 0
M  V30 4316 H 394.233 -4.84129 3.73402 0
M  V30 4317 H 398.407 -5.17084 4.66472 0
M  V30 4318 H 396.034 -5.42046 5.33001 0
M  V30 4319 N 397.609 -0.515225 -1.4894 0
M  V30 4320 C 398.858 0.0261361 -2.01683 0
M  V30 4321 C 399.171 1.36719 -1.39883 0
M  V30 4322 O 400.377 1.99606 -1.84037 0
M  V30 4323 C 398.833 0.0970111 -3.59769 0
M  V30 4324 C 398.441 -1.23825 -4.30548 0
M  V30 4325 C 400.185 0.587981 -4.20408 0
M  V30 4326 C 398.092 -1.12877 -5.80528 0
M  V30 4327 H 397.022 0.0135398 -0.753878 0
M  V30 4328 H 399.673 -0.656787 -1.71343 0
M  V30 4329 H 398.055 0.844694 -3.86886 0
M  V30 4330 H 399.229 -2.00034 -4.15118 0
M  V30 4331 H 397.544 -1.66379 -3.81716 0
M  V30 4332 H 400.141 0.68763 -5.3026 0
M  V30 4333 H 400.484 1.59026 -3.84729 0
M  V30 4334 H 401.017 -0.103582 -3.97665 0
M  V30 4335 H 397.756 -2.10575 -6.20756 0
M  V30 4336 H 397.276 -0.407799 -5.98412 0
M  V30 4337 H 398.955 -0.813332 -6.41868 0
M  V30 4338 N 399.087 1.5561 -0.249682 0
M  V30 4339 C 400.037 2.18157 0.662673 0
M  V30 4340 C 401.021 1.1383 1.13717 0
M  V30 4341 O 402.213 1.39731 1.08648 0
M  V30 4342 C 399.342 2.88672 1.85805 0
M  V30 4343 C 398.428 4.00258 1.40193 0
M  V30 4344 N 398.819 5.01473 0.660213 0
M  V30 4345 C 397.117 4.12864 1.68698 0
M  V30 4346 C 397.818 5.80155 0.423695 0
M  V30 4347 N 396.794 5.34533 0.988721 0
M  V30 4348 H 400.596 2.93769 0.0878688 0
M  V30 4349 H 398.11 1.62316 -0.0521183 0
M  V30 4350 H 400.107 3.31912 2.5227 0
M  V30 4351 H 398.767 2.14564 2.43705 0
M  V30 4352 H 399.778 5.16971 0.310047 0
M  V30 4353 H 396.455 3.4993 2.27717 0
M  V30 4354 H 397.845 6.71688 -0.168616 0
M  V30 4355 N 400.565 -0.0233959 1.57583 0
M  V30 4356 C 401.528 -1.00693 2.05897 0
M  V30 4357 C 402.528 -1.28693 0.964092 0
M  V30 4358 O 403.718 -1.23602 1.22753 0
M  V30 4359 C 400.85 -2.33825 2.4807 0
M  V30 4360 H 402.043 -0.589476 2.9405 0
M  V30 4361 H 399.596 -0.270354 1.53944 0
M  V30 4362 H 400.331 -2.80307 1.6309 0
M  V30 4363 H 400.116 -2.1483 3.2801 0
M  V30 4364 H 401.606 -3.04426 2.85857 0
M  V30 4365 N 402.043 -1.548 -0.295768 0
M  V30 4366 C 403.292 -1.73538 -1.02798 0
M  V30 4367 C 403.605 -0.531159 -1.8825 0
M  V30 4368 O 404.811 -0.600458 -2.64777 0
M  V30 4369 C 403.267 -3.07051 -1.87744 0
M  V30 4370 C 402.875 -4.34968 -1.07269 0
M  V30 4371 C 404.619 -3.35146 -2.60533 0
M  V30 4372 C 402.526 -5.5953 -1.91521 0
M  V30 4373 H 401.456 -0.646794 -0.387522 0
M  V30 4374 H 404.107 -1.81278 -0.284718 0
M  V30 4375 H 402.489 -2.93289 -2.66078 0
M  V30 4376 H 403.663 -4.5958 -0.335117 0
M  V30 4377 H 401.978 -4.13847 -0.460384 0
M  V30 4378 H 404.575 -4.2541 -3.23929 0
M  V30 4379 H 404.918 -2.54255 -3.29636 0
M  V30 4380 H 405.451 -3.49902 -1.89244 0
M  V30 4381 H 402.19 -6.43103 -1.26878 0
M  V30 4382 H 401.71 -5.39096 -2.62937 0
M  V30 4383 H 403.389 -5.96982 -2.49442 0
M  V30 4384 N 403.521 0.559213 -1.47345 0
M  V30 4385 C 404.77 1.31281 -1.53128 0
M  V30 4386 C 405.083 1.94602 -0.197344 0
M  V30 4387 O 406.289 2.71173 -0.133154 0
M  V30 4388 C 404.745 2.38051 -2.69925 0
M  V30 4389 C 404.353 1.8093 -4.0984 0
M  V30 4390 C 406.097 3.14604 -2.84999 0
M  V30 4391 C 404.004 2.85468 -5.1794 0
M  V30 4392 H 402.934 0.493614 -0.569966 0
M  V30 4393 H 405.585 0.594155 -1.73615 0
M  V30 4394 H 403.967 3.12822 -2.42814 0
M  V30 4395 H 405.141 1.12544 -4.46845 0
M  V30 4396 H 403.456 1.16967 -3.99634 0
M  V30 4397 H 406.053 3.92666 -3.62929 0
M  V30 4398 H 406.396 3.68665 -1.93369 0
M  V30 4399 H 406.929 2.46945 -3.1187 0
M  V30 4400 H 403.668 2.36264 -6.1144 0
M  V30 4401 H 403.188 3.52269 -4.85455 0
M  V30 4402 H 404.867 3.48996 -5.44803 0
M  V30 4403 N 404.999 1.35443 0.805782 0
M  V30 4404 C 405.947 1.28465 1.93906 0
M  V30 4405 C 406.941 0.17943 1.68447 0
M  V30 4406 O 408.147 0.345459 1.76654 0
M  V30 4407 H 404.522 0.399528 0.637088 0
M  V30 4408 H 406.493 2.24206 1.96912 0
M  V30 4409 C 405.242 1.07432 3.30687 0
M  V30 4410 H 404.565 1.91716 3.50835 0
M  V30 4411 H 406.005 1.06591 4.10383 0
M  V30 4412 C 404.464 -0.22179 3.36169 0
M  V30 4413 O 404.994 -1.21731 3.82811 0
M  V30 4414 N 403.2 -0.260841 2.89427 0
M  V30 4415 H 402.747 0.549884 2.51663 0
M  V30 4416 H 402.705 -1.12777 2.93477 0
M  V30 4417 N 406.477 -1.02803 1.19454 0
M  V30 4418 C 407.726 -1.7562 0.991996 0
M  V30 4419 C 408.039 -1.89672 -0.477901 0
M  V30 4420 O 409.245 -2.59468 -0.799287 0
M  V30 4421 C 407.701 -3.15812 1.72601 0
M  V30 4422 C 407.309 -3.0981 3.23607 0
M  V30 4423 C 409.053 -3.92918 1.60674 0
M  V30 4424 C 406.96 -4.44939 3.89594 0
M  V30 4425 H 405.89 -0.658352 0.367543 0
M  V30 4426 H 408.541 -1.15044 1.42959 0
M  V30 4427 H 406.923 -3.7686 1.21624 0
M  V30 4428 H 408.097 -2.58138 3.81709 0
M  V30 4429 H 406.412 -2.46201 3.35819 0
M  V30 4430 H 409.009 -4.9287 2.07323 0
M  V30 4431 H 409.352 -4.12502 0.561025 0
M  V30 4432 H 409.885 -3.38472 2.09001 0
M  V30 4433 H 406.624 -4.30559 4.94267 0
M  V30 4434 H 406.144 -4.96664 3.36281 0
M  V30 4435 H 407.823 -5.1382 3.93189 0
M  V30 4436 N 407.956 -0.998596 -1.21925 0
M  V30 4437 C 408.866 -0.562736 -2.27751 0
M  V30 4438 C 409.882 0.391203 -1.69545 0
M  V30 4439 O 411.058 0.256625 -1.99758 0
M  V30 4440 C 408.123 0.11012 -3.46525 0
M  V30 4441 C 407.184 -0.887495 -4.20026 0
M  V30 4442 C 406.417 -0.246654 -5.3313 0
M  V30 4443 O 406.64 0.958088 -5.62296 0
M  V30 4444 O 405.574 -0.954374 -5.94286 0
M  V30 4445 H 409.4 -1.44329 -2.67213 0
M  V30 4446 H 406.985 -0.767135 -1.28201 0
M  V30 4447 H 408.867 0.486756 -4.18579 0
M  V30 4448 H 407.542 0.965154 -3.08976 0
M  V30 4449 H 406.449 -1.31517 -3.5022 0
M  V30 4450 H 407.782 -1.71191 -4.6147 0
M  V30 4451 N 409.434 1.37368 -0.772513 0
M  V30 4452 C 410.659 2.0447 -0.347386 0
M  V30 4453 C 411.084 1.57882 1.0225 0
M  V30 4454 O 410.442 0.73941 1.65537 0
M  V30 4455 C 410.49 3.58369 -0.400479 0
M  V30 4456 O 409.594 4.0803 0.598789 0
M  V30 4457 H 408.935 0.646773 -0.15027 0
M  V30 4458 H 411.465 1.75667 -1.04892 0
M  V30 4459 H 411.475 4.07183 -0.258045 0
M  V30 4460 H 410.15 3.91633 -1.39986 0
M  V30 4461 H 408.727 3.70534 0.419411 0
M  V30 4462 N 410.912 0.523116 1.48665 0
M  V30 4463 C 411.86 -0.256859 2.31177 0
M  V30 4464 C 412.854 -0.94199 1.40794 0
M  V30 4465 O 414.06 -0.867157 1.57735 0
M  V30 4466 H 410.435 -0.1017 0.745091 0
M  V30 4467 H 412.406 0.458739 2.94853 0
M  V30 4468 C 411.155 -1.29503 3.22683 0
M  V30 4469 H 410.478 -0.777248 3.92172 0
M  V30 4470 H 411.918 -1.81233 3.83315 0
M  V30 4471 C 410.377 -2.32501 2.43813 0
M  V30 4472 O 410.907 -3.3881 2.15803 0
M  V30 4473 N 409.113 -2.05538 2.05432 0
M  V30 4474 H 408.66 -1.19104 2.28412 0
M  V30 4475 H 408.618 -2.74676 1.52973 0
M  V30 4476 N 412.39 -1.55475 0.257931 0
M  V30 4477 C 413.638 -1.98813 -0.363009 0
M  V30 4478 C 413.959 -1.14757 -1.57657 0
M  V30 4479 O 413.229 -0.232956 -1.9451 0
M  V30 4480 H 411.809 -0.734308 -0.137113 0
M  V30 4481 H 414.471 -1.9156 0.359281 0
M  V30 4482 H 413.567 -3.04941 -0.664634 0
M  V30 4483 N 413.868 0.0150385 -1.57593 0
M  V30 4484 C 414.818 1.01943 -2.0394 0
M  V30 4485 C 415.802 1.31209 -0.931286 0
M  V30 4486 O 416.994 1.30559 -1.19513 0
M  V30 4487 C 414.123 2.31621 -2.53391 0
M  V30 4488 C 413.209 2.05384 -3.7105 0
M  V30 4489 N 413.6 1.49253 -4.83278 0
M  V30 4490 C 411.898 2.35601 -3.78693 0
M  V30 4491 C 412.599 1.39143 -5.64813 0
M  V30 4492 N 411.575 1.87187 -5.10355 0
M  V30 4493 H 415.377 0.57969 -2.88126 0
M  V30 4494 H 412.891 0.221056 -1.60888 0
M  V30 4495 H 414.888 3.044 -2.84862 0
M  V30 4496 H 413.548 2.76261 -1.70616 0
M  V30 4497 H 414.559 1.17334 -5.04433 0
M  V30 4498 H 411.236 2.8322 -3.06746 0
M  V30 4499 H 412.626 0.961153 -6.6499 0
M  V30 4500 N 415.346 1.54954 0.287554 0
M  V30 4501 C 416.571 1.79209 1.04397 0
M  V30 4502 C 416.996 0.556431 1.79682 0
M  V30 4503 O 416.354 -0.493518 1.74454 0
M  V30 4504 C 416.402 3.00739 1.98969 0
M  V30 4505 O 415.506 2.74805 3.075 0
M  V30 4506 H 414.847 0.592755 0.299227 0
M  V30 4507 H 417.377 2.02068 0.320886 0
M  V30 4508 H 417.387 3.29077 2.4119 0
M  V30 4509 H 416.062 3.90329 1.43582 0
M  V30 4510 H 414.639 2.57523 2.69697 0
M  V30 4511 N 416.824 -0.551391 1.4764 0
M  V30 4512 C 418.073 -1.30467 1.53822 0
M  V30 4513 C 418.386 -1.94495 0.207661 0
M  V30 4514 O 419.592 -2.71099 0.147533 0
M  V30 4515 C 418.048 -2.36616 2.71184 0
M  V30 4516 C 417.656 -1.78754 4.10793 0
M  V30 4517 C 419.4 -3.13088 2.86663 0
M  V30 4518 C 417.307 -2.82717 5.19447 0
M  V30 4519 H 416.237 -0.490584 0.572576 0
M  V30 4520 H 418.888 -0.58494 1.73927 0
M  V30 4521 H 417.27 -3.11529 2.4447 0
M  V30 4522 H 418.444 -1.10173 4.47435 0
M  V30 4523 H 416.759 -1.14846 4.00249 0
M  V30 4524 H 419.356 -3.90736 3.65007 0
M  V30 4525 H 419.699 -3.67635 1.95321 0
M  V30 4526 H 420.232 -2.45288 3.13175 0
M  V30 4527 H 416.971 -2.33018 6.12685 0
M  V30 4528 H 416.491 -3.4969 4.87316 0
M  V30 4529 H 418.17 -3.46102 5.46646 0
M  V30 4530 N 418.302 -1.35869 -0.798587 0
M  V30 4531 C 419.527 -1.32883 -1.59238 0
M  V30 4532 C 419.952 0.0894587 -1.87887 0
M  V30 4533 O 419.31 1.05869 -1.47178 0
M  V30 4534 C 419.358 -2.14892 -2.89575 0
M  V30 4535 O 418.462 -1.53512 -3.82763 0
M  V30 4536 H 417.803 -0.455236 -0.48338 0
M  V30 4537 H 420.333 -1.79024 -0.990539 0
M  V30 4538 H 420.343 -2.27139 -3.38928 0
M  V30 4539 H 419.018 -3.17998 -2.68049 0
M  V30 4540 H 417.595 -1.50153 -3.41334 0
M  V30 4541 N 419.78 1.02168 -1.19998 0
M  V30 4542 C 421.191 1.57135 -1.00825 0
M  V30 4543 C 421.542 1.91276 0.436818 0
M  V30 4544 O 420.667 1.71679 1.3174 0
M  V30 4545 C 421.262 2.85514 -1.82393 0
M  V30 4546 C 419.821 3.37027 -1.67601 0
M  V30 4547 C 418.968 2.10388 -1.80644 0
M  V30 4548 H 421.919 0.846106 -1.34264 0
M  V30 4549 H 421.94 3.56711 -1.32429 0
M  V30 4550 H 421.452 2.60634 -2.87561 0
M  V30 4551 H 419.553 3.66878 -0.650485 0
M  V30 4552 H 419.666 4.09572 -2.4857 0
M  V30 4553 H 418.03 2.22601 -1.23778 0
M  V30 4554 H 418.813 1.8794 -2.87286 0
M  V30 4555 N 421.258 1.00505 1.21394 0
M  V30 4556 C 422.221 0.570459 2.21987 0
M  V30 4557 C 423.221 -0.353211 1.56873 0
M  V30 4558 O 424.411 -0.14349 1.73608 0
M  V30 4559 C 421.543 -0.168555 3.40483 0
M  V30 4560 H 422.736 1.46021 2.6195 0
M  V30 4561 H 420.289 0.793565 1.34656 0
M  V30 4562 H 421.024 -1.07374 3.06009 0
M  V30 4563 H 420.809 0.494823 3.88965 0
M  V30 4564 H 422.299 -0.460362 4.15055 0
M  V30 4565 N 422.737 -1.36956 0.779787 0
M  V30 4566 C 424.153 -1.52817 0.460342 0
M  V30 4567 C 424.353 -1.7361 -1.02283 0
M  V30 4568 O 423.409 -1.76207 -1.80852 0
M  V30 4569 C 424.722 -2.71983 1.28241 0
M  V30 4570 C 426.27 -2.85849 1.27512 0
M  V30 4571 C 426.745 -4.08008 2.08072 0
M  V30 4572 N 428.236 -4.15135 2.05467 0
M  V30 4573 C 428.971 -5.08711 2.64577 0
M  V30 4574 N 428.467 -6.07792 3.32506 0
M  V30 4575 N 430.26 -5.01254 2.54363 0
M  V30 4576 H 422.411 -1.21713 1.74068 0
M  V30 4577 H 424.674 -0.593294 0.739396 0
M  V30 4578 H 424.38 -2.63109 2.33381 0
M  V30 4579 H 424.254 -3.65882 0.917088 0
M  V30 4580 H 426.641 -2.94189 0.231686 0
M  V30 4581 H 426.722 -1.92886 1.68014 0
M  V30 4582 H 426.366 -4.00429 3.12441 0
M  V30 4583 H 426.296 -5.001 1.64947 0
M  V30 4584 H 428.787 -3.44189 1.5602 0
M  V30 4585 H 429.1 -6.75739 3.74963 0
M  V30 4586 H 427.445 -6.08047 3.36606 0
M  V30 4587 H 430.636 -4.22795 2.00902 0
M  V30 4588 H 430.809 -5.73995 3.00722 0
M  V30 4589 N 424.215 -0.530993 -1.48385 0
M  V30 4590 C 425.462 0.0027373 -2.025 0
M  V30 4591 C 425.79 1.34186 -1.40799 0
M  V30 4592 O 425.045 1.88 -0.543544 0
M  V30 4593 C 425.344 0.172742 -3.56982 0
M  V30 4594 C 425.01 -1.09215 -4.37473 0
M  V30 4595 C 423.672 -1.43881 -4.59186 0
M  V30 4596 C 426.024 -1.93153 -4.84088 0
M  V30 4597 C 423.352 -2.62381 -5.2476 0
M  V30 4598 C 425.704 -3.10833 -5.50968 0
M  V30 4599 C 424.368 -3.45843 -5.70919 0
M  V30 4600 H 423.638 0.00100165 -0.740999 0
M  V30 4601 H 426.285 -0.697219 -1.78357 0
M  V30 4602 H 424.59 0.955473 -3.79971 0
M  V30 4603 H 426.287 0.600642 -3.96476 0
M  V30 4604 H 422.877 -0.812177 -4.20834 0
M  V30 4605 H 427.061 -1.67683 -4.67115 0
M  V30 4606 H 422.317 -2.89707 -5.38405 0
M  V30 4607 H 426.491 -3.7618 -5.86056 0
M  V30 4608 H 424.118 -4.37764 -6.21503 0
M  V30 4609 N 425.693 1.55336 -0.266172 0
M  V30 4610 C 426.97 1.91372 0.404486 0
M  V30 4611 C 427.35 1.18935 1.74407 0
M  V30 4612 O 426.698 0.3132 2.26343 0
M  V30 4613 C 426.908 3.44581 0.553593 0
M  V30 4614 C 428.256 4.16196 0.840618 0
M  V30 4615 O 429.28 3.50426 0.638739 0
M  V30 4616 O 428.139 5.32567 1.22618 0
M  V30 4617 H 425.233 0.797194 0.220025 0
M  V30 4618 H 427.779 1.66813 -0.311664 0
M  V30 4619 H 426.551 3.89357 -0.389498 0
M  V30 4620 H 426.174 3.75065 1.31955 0
M  V30 4621 N 427.171 -0.0066808 1.57599 0
M  V30 4622 C 428.103 -1.02827 2.04839 0
M  V30 4623 C 429.116 -1.31108 0.965113 0
M  V30 4624 O 430.305 -1.28202 1.24203 0
M  V30 4625 C 427.405 -2.36464 2.42771 0
M  V30 4626 C 426.578 -2.27219 3.73751 0
M  V30 4627 C 425.637 -3.43489 3.98625 0
M  V30 4628 O 424.663 -3.21976 4.69382 0
M  V30 4629 N 425.865 -4.66116 3.46 0
M  V30 4630 H 428.63 -0.625455 2.93101 0
M  V30 4631 H 426.191 -0.194198 1.60731 0
M  V30 4632 H 428.183 -3.13008 2.56531 0
M  V30 4633 H 426.753 -2.68512 1.60063 0
M  V30 4634 H 425.973 -1.35629 3.70133 0
M  V30 4635 H 427.261 -2.18208 4.59633 0
M  V30 4636 H 426.659 -4.86493 2.88688 0
M  V30 4637 H 425.216 -5.39949 3.65101 0
M  V30 4638 N 428.649 -1.55105 -0.279332 0
M  V30 4639 C 429.879 -1.7917 -1.02867 0
M  V30 4640 C 430.287 -0.56204 -1.80659 0
M  V30 4641 O 429.63 0.478266 -1.77365 0
M  V30 4642 C 429.692 -2.96061 -2.03932 0
M  V30 4643 C 429.356 -4.33341 -1.45137 0
M  V30 4644 C 430.353 -5.12565 -0.870266 0
M  V30 4645 C 428.038 -4.79987 -1.48048 0
M  V30 4646 C 430.032 -6.36565 -0.326097 0
M  V30 4647 C 427.719 -6.03944 -0.932443 0
M  V30 4648 C 428.717 -6.8207 -0.356247 0
M  V30 4649 O 428.405 -8.03691 0.183412 0
M  V30 4650 H 428.137 -0.600796 -0.309872 0
M  V30 4651 H 430.691 -2.02932 -0.317468 0
M  V30 4652 H 428.921 -2.67975 -2.78794 0
M  V30 4653 H 430.61 -3.07506 -2.64943 0
M  V30 4654 H 431.376 -4.77661 -0.840521 0
M  V30 4655 H 427.255 -4.1919 -1.91835 0
M  V30 4656 H 430.799 -6.97489 0.124286 0
M  V30 4657 H 426.696 -6.3833 -0.959407 0
M  V30 4658 H 427.464 -8.18468 0.0721681 0
M  V30 4659 N 430.127 0.543554 -1.4793 0
M  V30 4660 C 431.06 1.66556 -1.55995 0
M  V30 4661 C 432.038 1.57315 -0.411205 0
M  V30 4662 O 433.222 1.7798 -0.620922 0
M  V30 4663 C 430.349 3.04883 -1.47527 0
M  V30 4664 C 429.395 3.32526 -2.67074 0
M  V30 4665 S 430.228 3.20282 -4.29162 0
M  V30 4666 C 431.384 4.61079 -4.23269 0
M  V30 4667 H 431.617 1.59462 -2.50917 0
M  V30 4668 H 429.15 0.725456 -1.36296 0
M  V30 4669 H 431.108 3.84665 -1.43328 0
M  V30 4670 H 429.769 3.09429 -0.539665 0
M  V30 4671 H 428.962 4.33403 -2.5725 0
M  V30 4672 H 428.564 2.60389 -2.68466 0
M  V30 4673 H 430.856 5.52318 -3.92365 0
M  V30 4674 H 431.799 4.75959 -5.24279 0
M  V30 4675 H 432.207 4.39766 -3.5393 0
M  V30 4676 N 431.605 1.3629 0.791371 0
M  V30 4677 C 432.835 1.33368 1.57786 0
M  V30 4678 C 433.243 -0.0875188 1.88997 0
M  V30 4679 O 432.586 -1.05427 1.50435 0
M  V30 4680 C 432.648 2.08802 2.92646 0
M  V30 4681 C 432.312 3.57903 2.84174 0
M  V30 4682 C 433.309 4.52191 2.56553 0
M  V30 4683 C 430.994 4.00762 3.02812 0
M  V30 4684 C 432.988 5.87315 2.47669 0
M  V30 4685 C 430.675 5.35977 2.93551 0
M  V30 4686 C 431.673 6.29066 2.66017 0
M  V30 4687 O 431.361 7.61798 2.56746 0
M  V30 4688 H 431.093 0.459166 0.496128 0
M  V30 4689 H 433.647 1.79952 0.990269 0
M  V30 4690 H 431.877 1.56878 3.53449 0
M  V30 4691 H 433.566 1.98762 3.53904 0
M  V30 4692 H 434.332 4.20393 2.41858 0
M  V30 4693 H 430.211 3.2868 3.2325 0
M  V30 4694 H 433.755 6.59943 2.26099 0
M  V30 4695 H 429.652 5.67384 3.07808 0
M  V30 4696 H 430.42 7.71898 2.72242 0
M  V30 4697 N 433.083 -1.0153 1.20538 0
M  V30 4698 C 434.494 -1.56598 1.01657 0
M  V30 4699 C 434.845 -1.91505 -0.426668 0
M  V30 4700 O 433.97 -1.72375 -1.30827 0
M  V30 4701 C 434.565 -2.84542 1.83905 0
M  V30 4702 C 433.124 -3.36133 1.69386 0
M  V30 4703 C 432.271 -2.09427 1.81757 0
M  V30 4704 H 435.222 -0.838974 1.34711 0
M  V30 4705 H 435.243 -3.56004 1.34319 0
M  V30 4706 H 434.755 -2.59105 2.8894 0
M  V30 4707 H 432.856 -3.66528 0.669933 0
M  V30 4708 H 432.969 -4.08248 2.50739 0
M  V30 4709 H 431.333 -2.21941 1.24957 0
M  V30 4710 H 432.116 -1.86414 2.88279 0
M  V30 4711 N 434.561 -1.01147 -1.20859 0
M  V30 4712 C 435.791 -0.715872 -1.93801 0
M  V30 4713 C 436.199 0.726592 -1.74692 0
M  V30 4714 O 435.542 1.50397 -1.05482 0
M  V30 4715 C 435.604 -0.965269 -3.46299 0
M  V30 4716 C 435.268 -2.39584 -3.89164 0
M  V30 4717 C 436.265 -3.3764 -3.95342 0
M  V30 4718 C 433.95 -2.73522 -4.21297 0
M  V30 4719 C 435.944 -4.67698 -4.33056 0
M  V30 4720 C 433.631 -4.03794 -4.58687 0
M  V30 4721 C 434.629 -5.00693 -4.64538 0
M  V30 4722 O 434.317 -6.28635 -5.01072 0
M  V30 4723 H 434.049 -0.262524 -0.622942 0
M  V30 4724 H 436.603 -1.35413 -1.54443 0
M  V30 4725 H 434.833 -0.269847 -3.85757 0
M  V30 4726 H 436.522 -0.662051 -4.00464 0
M  V30 4727 H 437.288 -3.12757 -3.70686 0
M  V30 4728 H 433.167 -1.9879 -4.15937 0
M  V30 4729 H 436.711 -5.4333 -4.37537 0
M  V30 4730 H 432.608 -4.28459 -4.82797 0
M  V30 4731 H 433.376 -6.32847 -5.19083 0
M  V30 4732 N 436.039 1.36541 -0.78704 0
M  V30 4733 C 437.269 2.03266 -0.369662 0
M  V30 4734 C 437.677 1.59481 1.01796 0
M  V30 4735 O 437.02 0.778612 1.66383 0
M  V30 4736 C 437.082 3.57779 -0.351371 0
M  V30 4737 C 436.746 4.24756 -1.68617 0
M  V30 4738 C 437.743 4.47811 -2.64124 0
M  V30 4739 C 435.428 4.62277 -1.96481 0
M  V30 4740 C 437.422 5.07464 -3.85693 0
M  V30 4741 C 435.109 5.21649 -3.18317 0
M  V30 4742 C 436.107 5.44182 -4.12741 0
M  V30 4743 O 435.795 6.02307 -5.32429 0
M  V30 4744 H 435.527 0.658977 -0.150751 0
M  V30 4745 H 438.081 1.75548 -1.0664 0
M  V30 4746 H 436.311 3.84606 0.401847 0
M  V30 4747 H 438 4.05879 0.0410147 0
M  V30 4748 H 438.766 4.19221 -2.43883 0
M  V30 4749 H 434.645 4.44065 -1.23805 0
M  V30 4750 H 438.189 5.24968 -4.59407 0
M  V30 4751 H 434.086 5.49664 -3.38437 0
M  V30 4752 H 434.854 6.20775 -5.33461 0
M  V30 4753 N 437.518 0.538854 1.48102 0
M  V30 4754 C 438.428 -0.222648 2.33541 0
M  V30 4755 C 439.444 -0.930225 1.47047 0
M  V30 4756 O 440.62 -0.903211 1.80011 0
M  V30 4757 C 437.685 -1.25064 3.23357 0
M  V30 4758 C 436.746 -0.552469 4.2573 0
M  V30 4759 C 435.979 -1.53149 5.11254 0
M  V30 4760 O 436.202 -2.76487 4.9891 0
M  V30 4761 O 435.136 -1.06602 5.92385 0
M  V30 4762 H 438.962 0.477707 2.99919 0
M  V30 4763 H 436.547 0.299669 1.46364 0
M  V30 4764 H 438.429 -1.8445 3.78888 0
M  V30 4765 H 437.104 -1.93325 2.59629 0
M  V30 4766 H 436.011 0.082114 3.7401 0
M  V30 4767 H 437.344 0.0883526 4.92121 0
M  V30 4768 N 438.996 -1.55193 0.274407 0
M  V30 4769 C 439.944 -2.23924 -0.629362 0
M  V30 4770 C 440.938 -1.23602 -1.1584 0
M  V30 4771 O 442.144 -1.41535 -1.11211 0
M  V30 4772 H 438.519 -0.718637 -0.221507 0
M  V30 4773 H 440.49 -2.98388 -0.0268322 0
M  V30 4774 C 439.239 -2.97329 -1.80252 0
M  V30 4775 H 438.562 -3.74313 -1.40462 0
M  V30 4776 H 440.002 -3.48743 -2.41152 0
M  V30 4777 C 438.461 -2.0276 -2.69054 0
M  V30 4778 O 438.991 -1.57836 -3.69392 0
M  V30 4779 N 437.197 -1.69275 -2.36208 0
M  V30 4780 H 436.744 -2.06004 -1.54661 0
M  V30 4781 H 436.702 -1.06271 -2.95895 0
M  V30 4782 N 440.474 -0.00167713 -1.576 0
M  V30 4783 C 441.751 0.719951 -1.81868 0
M  V30 4784 C 442.131 1.91895 -0.879747 0
M  V30 4785 O 441.479 2.28389 0.0711423 0
M  V30 4786 C 441.689 1.12409 -3.30402 0
M  V30 4787 C 443.037 1.52724 -3.96182 0
M  V30 4788 O 444.061 1.21784 -3.34734 0
M  V30 4789 O 442.92 2.10265 -5.04431 0
M  V30 4790 H 440.014 0.350707 -0.748955 0
M  V30 4791 H 442.56 -0.0272597 -1.69678 0
M  V30 4792 H 441.332 0.269532 -3.90371 0
M  V30 4793 H 440.955 1.93035 -3.47596 0
M  V30 4794 N 441.952 1.55251 0.271103 0
M  V30 4795 C 442.899 1.88261 1.33516 0
M  V30 4796 C 443.869 0.734296 1.48988 0
M  V30 4797 O 445.054 0.985741 1.63364 0
M  V30 4798 C 442.194 2.16168 2.69008 0
M  V30 4799 C 441.307 3.43678 2.61743 0
M  V30 4800 C 440.442 3.61276 3.89427 0
M  V30 4801 C 439.481 4.82472 3.7668 0
M  V30 4802 N 438.618 4.96717 4.96202 0
M  V30 4803 H 443.458 2.79015 1.04665 0
M  V30 4804 H 440.995 1.38137 0.505618 0
M  V30 4805 H 442.953 2.30349 3.47844 0
M  V30 4806 H 441.583 1.28646 2.96057 0
M  V30 4807 H 440.635 3.37959 1.74607 0
M  V30 4808 H 441.947 4.3265 2.48224 0
M  V30 4809 H 441.101 3.75284 4.76704 0
M  V30 4810 H 439.84 2.70492 4.05814 0
M  V30 4811 H 438.845 4.68465 2.87786 0
M  V30 4812 H 440.07 5.74692 3.61809 0
M  V30 4813 H 438.016 4.08865 5.12997 0
M  V30 4814 H 437.933 5.79738 4.85222 0
M  V30 4815 H 439.201 5.15113 5.85046 0
M  V30 4816 N 443.43 -0.535701 1.48216 0
M  V30 4817 C 444.378 -1.66179 1.62749 0
M  V30 4818 C 445.372 -1.62034 0.49409 0
M  V30 4819 O 446.578 -1.6696 0.672624 0
M  V30 4820 H 442.953 -0.550244 0.512578 0
M  V30 4821 H 444.924 -1.51063 2.57337 0
M  V30 4822 C 443.673 -3.04471 1.67907 0
M  V30 4823 H 442.996 -3.08351 2.54479 0
M  V30 4824 H 444.436 -3.82894 1.82121 0
M  V30 4825 C 442.895 -3.34314 0.416596 0
M  V30 4826 O 443.425 -3.98905 -0.473014 0
M  V30 4827 N 441.631 -2.89149 0.290038 0
M  V30 4828 H 441.178 -2.36764 1.01493 0
M  V30 4829 H 441.136 -3.09486 -0.55367 0
M  V30 4830 N 444.908 -1.36708 -0.784132 0
M  V30 4831 C 446.157 -1.30559 -1.53744 0
M  V30 4832 C 446.47 0.111374 -1.95283 0
M  V30 4833 O 447.676 0.29527 -2.6989 0
M  V30 4834 C 446.132 -2.29098 -2.77565 0
M  V30 4835 C 445.74 -3.76258 -2.43174 0
M  V30 4836 C 447.484 -2.31936 -3.55536 0
M  V30 4837 C 445.391 -4.6656 -3.63422 0
M  V30 4838 H 444.321 -0.48518 -0.577162 0
M  V30 4839 H 446.972 -1.62101 -0.859981 0
M  V30 4840 H 445.354 -1.90557 -3.47137 0
M  V30 4841 H 446.528 -4.23565 -1.81465 0
M  V30 4842 H 444.843 -3.76246 -1.78403 0
M  V30 4843 H 447.44 -2.9661 -4.44889 0
M  V30 4844 H 447.783 -1.3294 -3.94503 0
M  V30 4845 H 448.316 -2.6912 -2.92949 0
M  V30 4846 H 445.055 -5.66638 -3.29547 0
M  V30 4847 H 444.575 -4.23966 -4.24279 0
M  V30 4848 H 446.254 -4.8309 -4.30387 0
M  V30 4849 N 446.386 1.0089 -1.21074 0
M  V30 4850 C 447.614 1.78191 -1.05145 0
M  V30 4851 C 448.029 1.84537 0.398952 0
M  V30 4852 O 447.386 1.30393 1.27687 0
M  V30 4853 C 447.437 3.22288 -1.63746 0
M  V30 4854 O 447.158 3.16315 -3.03111 0
M  V30 4855 C 448.659 4.16106 -1.52875 0
M  V30 4856 H 445.879 0.560129 -0.369454 0
M  V30 4857 H 448.423 1.26945 -1.60328 0
M  V30 4858 H 446.578 3.70655 -1.12664 0
M  V30 4859 H 446.992 4.06817 -3.31059 0
M  V30 4860 H 448.466 5.15026 -1.98626 0
M  V30 4861 H 448.943 4.36541 -0.482521 0
M  V30 4862 H 449.549 3.73625 -2.03185 0
M  V30 4863 N 447.864 1.01787 1.20321 0
M  V30 4864 C 449.141 0.622978 1.85414 0
M  V30 4865 C 449.521 -0.898887 1.91006 0
M  V30 4866 O 448.869 -1.79112 1.41884 0
M  V30 4867 C 449.079 1.27226 3.24984 0
M  V30 4868 C 450.427 1.3885 4.01255 0
M  V30 4869 O 451.451 1.22857 3.34342 0
M  V30 4870 O 450.31 1.64705 5.2109 0
M  V30 4871 H 447.404 0.215116 0.798533 0
M  V30 4872 H 449.95 1.11533 1.27901 0
M  V30 4873 H 448.722 2.31209 3.15687 0
M  V30 4874 H 448.345 0.767069 3.90131 0
M  V30 4875 N 449.342 -1.36122 0.79427 0
M  V30 4876 C 450.289 -2.29982 0.194101 0
M  V30 4877 C 451.259 -1.52214 -0.664833 0
M  V30 4878 O 452.444 -1.80702 -0.612498 0
M  V30 4879 C 449.584 -3.38706 -0.661244 0
M  V30 4880 C 448.697 -4.31456 0.216766 0
M  V30 4881 C 447.832 -5.27265 -0.645411 0
M  V30 4882 C 446.871 -6.11653 0.233756 0
M  V30 4883 N 446.008 -6.99636 -0.587682 0
M  V30 4884 H 450.848 -2.80722 0.999965 0
M  V30 4885 H 448.385 -1.38172 0.504677 0
M  V30 4886 H 450.343 -4.00394 -1.17219 0
M  V30 4887 H 448.973 -2.89274 -1.43249 0
M  V30 4888 H 448.025 -3.7088 0.845724 0
M  V30 4889 H 449.337 -4.90724 0.893973 0
M  V30 4890 H 448.491 -5.94266 -1.22198 0
M  V30 4891 H 447.23 -4.68463 -1.35623 0
M  V30 4892 H 446.235 -5.4361 0.82269 0
M  V30 4893 H 447.46 -6.72531 0.942247 0
M  V30 4894 H 445.406 -6.43337 -1.2827 0
M  V30 4895 H 445.323 -7.55993 0.0317402 0
M  V30 4896 H 446.591 -7.71001 -1.14792 0
M  V30 4897 N 450.82 -0.546701 -1.47814 0
M  V30 4898 C 452.067 -0.0187407 -2.02491 0
M  V30 4899 C 452.395 1.32685 -1.42215 0
M  V30 4900 O 451.65 1.87413 -0.563454 0
M  V30 4901 C 451.949 0.134869 -3.57145 0
M  V30 4902 C 451.615 -1.13849 -4.3629 0
M  V30 4903 C 450.277 -1.48743 -4.57634 0
M  V30 4904 C 452.629 -1.98277 -4.82012 0
M  V30 4905 C 449.957 -2.67932 -5.21948 0
M  V30 4906 C 452.309 -3.16659 -5.4764 0
M  V30 4907 C 450.973 -3.51879 -5.67219 0
M  V30 4908 H 450.243 -0.0068577 -0.740968 0
M  V30 4909 H 452.89 -0.716097 -1.77607 0
M  V30 4910 H 451.195 0.915118 -3.80963 0
M  V30 4911 H 452.892 0.558556 -3.97091 0
M  V30 4912 H 449.482 -0.856767 -4.19949 0
M  V30 4913 H 453.666 -1.72628 -4.6531 0
M  V30 4914 H 448.922 -2.95401 -5.35302 0
M  V30 4915 H 453.096 -3.82374 -5.82033 0
M  V30 4916 H 450.723 -4.44331 -6.16825 0
M  V30 4917 N 452.299 1.55045 -0.282633 0
M  V30 4918 C 453.262 2.21515 0.588539 0
M  V30 4919 C 454.262 1.19535 1.07554 0
M  V30 4920 O 455.452 1.44391 0.974514 0
M  V30 4921 C 452.584 2.88704 1.8128 0
M  V30 4922 H 453.777 2.99899 0.00806397 0
M  V30 4923 H 451.33 1.56265 -0.0333067 0
M  V30 4924 H 452.065 2.14352 2.43359 0
M  V30 4925 H 451.85 3.63443 1.47144 0
M  V30 4926 H 453.34 3.39465 2.43214 0
M  V30 4927 N 453.777 0.010035 1.57597 0
M  V30 4928 C 454.709 -1.00649 2.05918 0
M  V30 4929 C 455.722 -1.30077 0.978964 0
M  V30 4930 O 456.911 -1.26878 1.25556 0
M  V30 4931 C 454.011 -2.33876 2.45265 0
M  V30 4932 C 453.184 -2.23242 3.7614 0
M  V30 4933 C 452.243 -3.39242 4.02245 0
M  V30 4934 O 451.269 -3.1698 4.72771 0
M  V30 4935 N 452.471 -4.6242 3.50924 0
M  V30 4936 H 455.236 -0.594333 2.93748 0
M  V30 4937 H 452.797 -0.17714 1.60928 0
M  V30 4938 H 454.789 -3.1027 2.59836 0
M  V30 4939 H 453.359 -2.66799 1.62902 0
M  V30 4940 H 452.579 -1.31696 3.71551 0
M  V30 4941 H 453.867 -2.13321 4.61922 0
M  V30 4942 H 453.265 -4.83404 2.93832 0
M  V30 4943 H 451.822 -5.36046 3.70807 0
M  V30 4944 N 455.255 -1.55392 -0.262866 0
M  V30 4945 C 456.165 -1.92077 -1.34698 0
M  V30 4946 C 457.181 -0.819227 -1.53508 0
M  V30 4947 O 458.357 -1.11921 -1.67439 0
M  V30 4948 C 455.422 -2.19407 -2.68443 0
M  V30 4949 C 454.483 -3.42905 -2.58292 0
M  V30 4950 C 453.716 -3.68921 -3.85659 0
M  V30 4951 O 453.939 -2.97275 -4.8681 0
M  V30 4952 O 452.873 -4.62455 -3.85252 0
M  V30 4953 H 456.699 -2.84384 -1.06581 0
M  V30 4954 H 454.284 -1.42069 -0.462264 0
M  V30 4955 H 456.166 -2.38365 -3.47506 0
M  V30 4956 H 454.841 -1.30282 -2.96325 0
M  V30 4957 H 453.748 -3.29272 -1.7757 0
M  V30 4958 H 455.081 -4.32282 -2.35358 0
M  V30 4959 N 456.733 0.527833 -1.48498 0
M  V30 4960 C 457.663 1.64136 -1.66077 0
M  V30 4961 C 458.644 1.62286 -0.509625 0
M  V30 4962 O 459.829 1.79449 -0.742413 0
M  V30 4963 C 456.959 3.02717 -1.70234 0
M  V30 4964 C 455.913 3.19426 -2.8487 0
M  V30 4965 C 455.239 4.5909 -2.74118 0
M  V30 4966 C 456.539 3.01993 -4.26142 0
M  V30 4967 H 458.233 1.4968 -2.593 0
M  V30 4968 H 455.779 0.718654 -1.24785 0
M  V30 4969 H 457.732 3.80491 -1.8112 0
M  V30 4970 H 456.456 3.18201 -0.735911 0
M  V30 4971 H 455.115 2.4407 -2.73542 0
M  V30 4972 H 454.763 4.71413 -1.7544 0
M  V30 4973 H 454.463 4.71214 -3.51042 0
M  V30 4974 H 455.987 5.3896 -2.86974 0
M  V30 4975 H 457.401 3.69558 -4.38292 0
M  V30 4976 H 455.798 3.2561 -5.04082 0
M  V30 4977 H 456.868 1.98396 -4.42456 0
M  V30 4978 N 458.211 1.37122 0.776871 0
M  V30 4979 C 459.46 1.31373 1.53049 0
M  V30 4980 C 459.773 -0.101016 1.95339 0
M  V30 4981 O 460.979 -0.280953 2.70042 0
M  V30 4982 C 459.435 2.30567 2.76346 0
M  V30 4983 C 459.043 3.77543 2.41175 0
M  V30 4984 C 460.787 2.33818 3.54301 0
M  V30 4985 C 458.694 4.68481 3.60943 0
M  V30 4986 H 457.624 0.488234 0.574581 0
M  V30 4987 H 460.275 1.62554 0.851372 0
M  V30 4988 H 458.657 1.92396 3.46121 0
M  V30 4989 H 459.831 4.24521 1.79216 0
M  V30 4990 H 458.146 3.77187 1.76405 0
M  V30 4991 H 460.743 2.98965 4.4331 0
M  V30 4992 H 461.086 1.3503 3.93793 0
M  V30 4993 H 461.619 2.7067 2.91518 0
M  V30 4994 H 458.358 5.68378 3.26537 0
M  V30 4995 H 457.878 4.2621 4.22025 0
M  V30 4996 H 459.557 4.85366 4.27819 0
M  V30 4997 N 459.689 -1.00246 1.21608 0
M  V30 4998 C 460.966 -1.71336 0.943568 0
M  V30 4999 C 461.346 -2.03972 -0.543943 0
M  V30 5000 O 460.694 -1.71545 -1.50946 0
M  V30 5001 C 460.904 -2.97094 1.83128 0
M  V30 5002 C 462.252 -3.70071 2.08165 0
M  V30 5003 O 463.276 -3.07081 1.80498 0
M  V30 5004 O 462.135 -4.83376 2.54971 0
M  V30 5005 H 459.229 -0.747386 0.354039 0
M  V30 5006 H 461.775 -1.05967 1.32549 0
M  V30 5007 H 460.547 -2.69407 2.83788 0
M  V30 5008 H 460.17 -3.70204 1.45034 0
M  V30 5009 N 461.167 -1.02423 -1.1978 0
M  V30 5010 C 462.407 -0.726635 -1.91048 0
M  V30 5011 C 462.771 0.730947 -1.77542 0
M  V30 5012 O 463.972 1.14141 -2.43362 0
M  V30 5013 C 462.243 -1.15964 -3.38064 0
M  V30 5014 S 463.802 -0.985172 -4.27598 0
M  V30 5015 H 460.62 -0.264679 -0.659899 0
M  V30 5016 H 463.222 -1.31309 -1.44838 0
M  V30 5017 H 461.926 -2.21619 -3.45417 0
M  V30 5018 H 461.457 -0.566274 -3.89303 0
M  V30 5019 H 463.472 0.106946 -4.96085 0
M  V30 5020 N 462.645 1.35699 -0.801477 0
M  V30 5021 C 463.894 1.98165 -0.375979 0
M  V30 5022 C 464.207 1.64306 1.06127 0
M  V30 5023 O 465.413 2.20097 1.58964 0
M  V30 5024 C 463.869 3.54497 -0.621305 0
M  V30 5025 C 463.477 3.9727 -2.07076 0
M  V30 5026 C 465.221 4.23697 -0.26091 0
M  V30 5027 C 463.128 5.46427 -2.26211 0
M  V30 5028 H 462.058 0.741478 -0.136844 0
M  V30 5029 H 464.709 1.54834 -0.984814 0
M  V30 5030 H 463.091 3.95958 0.0574112 0
M  V30 5031 H 464.265 3.66974 -2.78687 0
M  V30 5032 H 462.58 3.40943 -2.39054 0
M  V30 5033 H 465.177 5.33334 -0.381994 0
M  V30 5034 H 465.52 4.0869 0.792344 0
M  V30 5035 H 466.053 3.87639 -0.893339 0
M  V30 5036 H 462.792 5.66396 -3.29963 0
M  V30 5037 H 462.312 5.78309 -1.59119 0
M  V30 5038 H 463.991 6.12819 -2.07513 0
M  V30 5039 N 464.123 0.554532 1.47522 0
M  V30 5040 C 465.369 0.0377449 2.03365 0
M  V30 5041 C 465.724 -1.29654 1.42154 0
M  V30 5042 O 465.017 -1.83022 0.566865 0
M  V30 5043 C 465.211 -0.115927 3.57212 0
M  V30 5044 C 465.04 1.20191 4.33341 0
M  V30 5045 C 463.81 1.76849 4.73342 0
M  V30 5046 C 466.008 2.11849 4.68641 0
M  V30 5047 N 463.99 3.02665 5.34104 0
M  V30 5048 C 465.361 3.22245 5.29677 0
M  V30 5049 C 467.416 2.11876 4.5057 0
M  V30 5050 C 466.119 4.32763 5.74551 0
M  V30 5051 C 468.145 3.21405 4.9644 0
M  V30 5052 C 467.507 4.30519 5.57523 0
M  V30 5053 H 463.606 0.0559107 0.779999 0
M  V30 5054 H 466.19 0.741232 1.80038 0
M  V30 5055 H 464.361 -0.788533 3.80311 0
M  V30 5056 H 466.093 -0.634538 3.99695 0
M  V30 5057 H 462.848 1.30681 4.55214 0
M  V30 5058 H 463.272 3.66788 5.69031 0
M  V30 5059 H 467.914 1.28801 4.02704 0
M  V30 5060 H 465.632 5.166 6.2141 0
M  V30 5061 H 469.218 3.22509 4.8423 0
M  V30 5062 H 468.098 5.13873 5.92371 0
M  V30 5063 N 465.601 -1.54893 0.290851 0
M  V30 5064 C 466.85 -1.99111 -0.322113 0
M  V30 5065 C 467.163 -1.18283 -1.55784 0
M  V30 5066 O 468.369 -1.5272 -2.24475 0
M  V30 5067 C 466.825 -3.54442 -0.624438 0
M  V30 5068 C 466.433 -4.44066 0.592373 0
M  V30 5069 C 468.177 -4.07211 -1.19916 0
M  V30 5070 C 466.084 -5.90812 0.263762 0
M  V30 5071 H 465.014 -0.743712 -0.124133 0
M  V30 5072 H 467.665 -1.79132 0.39797 0
M  V30 5073 H 466.047 -3.70281 -1.40384 0
M  V30 5074 H 467.221 -4.39999 1.36886 0
M  V30 5075 H 465.536 -4.02015 1.08502 0
M  V30 5076 H 468.133 -5.14407 -1.45909 0
M  V30 5077 H 468.476 -3.57196 -2.13815 0
M  V30 5078 H 469.009 -3.94873 -0.481687 0
M  V30 5079 H 465.748 -6.44955 1.17105 0
M  V30 5080 H 465.268 -5.97911 -0.475655 0
M  V30 5081 H 466.947 -6.46852 -0.138354 0
M  V30 5082 N 467.08 -0.0183926 -1.57589 0
M  V30 5083 C 468.027 0.967022 -2.09565 0
M  V30 5084 C 468.997 1.32983 -0.995225 0
M  V30 5085 O 470.182 1.42501 -1.26878 0
M  V30 5086 C 467.322 2.24772 -2.61861 0
M  V30 5087 C 466.435 1.94232 -3.85873 0
M  V30 5088 C 465.57 3.16518 -4.26603 0
M  V30 5089 C 464.609 2.81748 -5.43401 0
M  V30 5090 N 463.746 3.96626 -5.79338 0
M  V30 5091 H 468.586 0.516874 -2.93483 0
M  V30 5092 H 466.123 0.243544 -1.4507 0
M  V30 5093 H 468.081 2.99667 -2.90268 0
M  V30 5094 H 466.711 2.67423 -1.8079 0
M  V30 5095 H 465.763 1.09625 -3.64262 0
M  V30 5096 H 467.075 1.64616 -4.70853 0
M  V30 5097 H 466.229 3.99743 -4.56389 0
M  V30 5098 H 464.968 3.49286 -3.40368 0
M  V30 5099 H 463.973 1.96933 -5.1332 0
M  V30 5100 H 465.198 2.50207 -6.31327 0
M  V30 5101 H 463.144 4.29257 -4.96059 0
M  V30 5102 H 463.061 3.70598 -6.58933 0
M  V30 5103 H 464.329 4.80586 -6.13724 0
M  V30 5104 N 468.558 1.5553 0.254621 0
M  V30 5105 C 469.488 1.9268 1.31897 0
M  V30 5106 C 470.469 0.790797 1.506 0
M  V30 5107 O 471.654 1.05045 1.63337 0
M  V30 5108 C 468.784 2.21477 2.67517 0
M  V30 5109 C 467.738 3.37256 2.63519 0
M  V30 5110 C 467.064 3.51576 4.02862 0
M  V30 5111 C 468.364 4.73157 2.21179 0
M  V30 5112 H 470.058 2.81832 1.01051 0
M  V30 5113 H 467.604 1.35599 0.484662 0
M  V30 5114 H 469.557 2.46055 3.42104 0
M  V30 5115 H 468.281 1.29144 2.99982 0
M  V30 5116 H 466.94 3.12675 1.9139 0
M  V30 5117 H 466.588 2.56676 4.32581 0
M  V30 5118 H 466.288 4.2943 4.01078 0
M  V30 5119 H 467.812 3.78467 4.79161 0
M  V30 5120 H 469.226 4.97158 2.85494 0
M  V30 5121 H 467.623 5.54058 2.30521 0
M  V30 5122 H 468.693 4.70739 1.16332 0
M  V30 5123 N 470.036 -0.519951 1.48776 0
M  V30 5124 C 470.984 -1.64443 1.64503 0
M  V30 5125 C 471.978 -1.61501 0.511248 0
M  V30 5126 O 473.184 -1.66238 0.690294 0
M  V30 5127 H 469.559 -0.544776 0.518385 0
M  V30 5128 H 471.53 -1.48325 2.58925 0
M  V30 5129 C 470.279 -3.02673 1.71127 0
M  V30 5130 H 469.602 -3.05635 2.57735 0
M  V30 5131 H 471.042 -3.80941 1.86172 0
M  V30 5132 C 469.501 -3.33854 0.452032 0
M  V30 5133 O 470.031 -3.99385 -0.430678 0
M  V30 5134 N 468.237 -2.88825 0.32069 0
M  V30 5135 H 467.784 -2.35674 1.03998 0
M  V30 5136 H 467.742 -3.10056 -0.520814 0
M  V30 5137 N 471.514 -1.37532 -0.769588 0
M  V30 5138 C 472.791 -1.23392 -1.51768 0
M  V30 5139 C 473.171 0.17157 -2.10402 0
M  V30 5140 O 472.519 1.17943 -1.95708 0
M  V30 5141 C 472.729 -2.33163 -2.59685 0
M  V30 5142 C 474.077 -2.70809 -3.27028 0
M  V30 5143 O 475.101 -2.32355 -2.69981 0
M  V30 5144 O 473.96 -3.37066 -4.30173 0
M  V30 5145 H 471.054 -0.481617 -0.67229 0
M  V30 5146 H 473.6 -1.49318 -0.806368 0
M  V30 5147 H 472.372 -3.27273 -2.14494 0
M  V30 5148 H 471.995 -2.08713 -3.38415 0
M  V30 5149 N 472.992 0.995999 -1.22138 0
M  V30 5150 C 474.241 1.72928 -1.03821 0
M  V30 5151 C 474.554 1.90872 0.427444 0
M  V30 5152 O 475.76 2.61496 0.730212 0
M  V30 5153 C 474.216 3.11124 -1.80913 0
M  V30 5154 C 473.824 3.01122 -3.31707 0
M  V30 5155 C 475.568 3.8852 -1.71035 0
M  V30 5156 C 473.475 4.34453 -4.01253 0
M  V30 5157 H 472.405 0.648376 -0.384869 0
M  V30 5158 H 475.056 1.11213 -1.45959 0
M  V30 5159 H 473.438 3.73503 -1.31573 0
M  V30 5160 H 474.612 2.47926 -3.88419 0
M  V30 5161 H 472.927 2.3721 -3.42228 0
M  V30 5162 H 475.524 4.872 -2.20318 0
M  V30 5163 H 475.867 4.1087 -0.670196 0
M  V30 5164 H 476.4 3.32812 -2.17902 0
M  V30 5165 H 473.139 4.17303 -5.05508 0
M  V30 5166 H 472.659 4.87574 -3.49331 0
M  V30 5167 H 474.338 5.03215 -4.06674 0
M  V30 5168 N 474.47 1.03057 1.19235 0
M  V30 5169 C 475.418 0.606391 2.24557 0
M  V30 5170 C 476.412 -0.361826 1.65491 0
M  V30 5171 O 477.618 -0.23022 1.78522 0
M  V30 5172 H 473.993 0.177838 0.730669 0
M  V30 5173 H 475.964 1.50529 2.5765 0
M  V30 5174 C 474.713 -0.0252127 3.47691 0
M  V30 5175 H 474.036 0.710838 3.9343 0
M  V30 5176 H 475.476 -0.284931 4.23042 0
M  V30 5177 C 473.935 -1.27229 3.11953 0
M  V30 5178 O 474.465 -2.36416 3.24762 0
M  V30 5179 N 472.671 -1.16169 2.6637 0
M  V30 5180 H 472.218 -0.273189 2.56147 0
M  V30 5181 H 472.176 -1.99703 2.42829 0
M  V30 5182 N 475.948 -1.35272 0.808662 0
M  V30 5183 C 476.895 -2.29764 0.218482 0
M  V30 5184 C 477.865 -1.52911 -0.648652 0
M  V30 5185 O 479.05 -1.81341 -0.593297 0
M  V30 5186 C 476.19 -3.39388 -0.625282 0
M  V30 5187 C 475.303 -4.31202 0.262516 0
M  V30 5188 C 474.438 -5.27919 -0.589451 0
M  V30 5189 C 473.477 -6.11371 0.298617 0
M  V30 5190 N 472.614 -7.0022 -0.513443 0
M  V30 5191 H 477.454 -2.79645 1.02968 0
M  V30 5192 H 474.991 -1.37629 0.519303 0
M  V30 5193 H 476.949 -4.01615 -1.12966 0
M  V30 5194 H 475.579 -2.90777 -1.40173 0
M  V30 5195 H 474.631 -3.69962 0.885013 0
M  V30 5196 H 475.943 -4.89748 0.945971 0
M  V30 5197 H 475.097 -5.95529 -1.15888 0
M  V30 5198 H 473.836 -4.69875 -1.30647 0
M  V30 5199 H 472.841 -5.42707 0.880301 0
M  V30 5200 H 474.066 -6.71494 1.01352 0
M  V30 5201 H 472.012 -6.44662 -1.21439 0
M  V30 5202 H 471.929 -7.55917 0.111922 0
M  V30 5203 H 473.197 -7.72175 -1.06608 0
M  V30 5204 N 477.426 -0.562348 -1.47226 0
M  V30 5205 C 478.672 -0.0402761 -2.0276 0
M  V30 5206 C 479.005 1.30823 -1.43523 0
M  V30 5207 O 478.28 1.85249 -0.592705 0
M  V30 5208 C 478.563 0.047311 -3.60069 0
M  V30 5209 C 478.416 -1.32865 -4.29729 0
M  V30 5210 C 479.735 0.758182 -4.3352 0
M  V30 5211 H 476.854 -0.0161105 -0.736824 0
M  V30 5212 H 479.496 -0.725628 -1.75598 0
M  V30 5213 H 477.646 0.630986 -3.83342 0
M  V30 5214 H 479.318 -1.95593 -4.17781 0
M  V30 5215 H 477.561 -1.90195 -3.89882 0
M  V30 5216 H 478.232 -1.22004 -5.38349 0
M  V30 5217 H 480.708 0.262546 -4.15271 0
M  V30 5218 H 479.584 0.78844 -5.43208 0
M  V30 5219 H 479.845 1.81537 -4.03109 0
M  V30 5220 N 478.904 1.54736 -0.299062 0
M  V30 5221 C 480.32 1.59507 0.0543849 0
M  V30 5222 C 480.52 1.31606 1.52585 0
M  V30 5223 O 479.576 1.08853 2.27832 0
M  V30 5224 C 480.889 2.98751 -0.34181 0
M  V30 5225 C 482.437 3.1165 -0.290414 0
M  V30 5226 C 482.912 4.53199 -0.661402 0
M  V30 5227 N 484.403 4.59114 -0.613863 0
M  V30 5228 C 485.138 5.66709 -0.873417 0
M  V30 5229 N 484.634 6.82349 -1.19884 0
M  V30 5230 N 486.427 5.56369 -0.800608 0
M  V30 5231 H 478.578 1.71133 -1.25806 0
M  V30 5232 H 480.841 0.799186 -0.509908 0
M  V30 5233 H 480.547 3.24085 -1.36608 0
M  V30 5234 H 480.421 3.75961 0.305508 0
M  V30 5235 H 482.808 2.86066 0.724605 0
M  V30 5236 H 482.889 2.366 -0.972327 0
M  V30 5237 H 482.533 4.79513 -1.67422 0
M  V30 5238 H 482.463 5.26583 0.0425612 0
M  V30 5239 H 484.954 3.76053 -0.3732 0
M  V30 5240 H 485.267 7.60326 -1.38291 0
M  V30 5241 H 483.612 6.83906 -1.23685 0
M  V30 5242 H 486.803 4.64904 -0.546045 0
M  V30 5243 H 486.976 6.40139 -1.00626 0
M  V30 5244 N 480.382 0.0267497 1.57577 0
M  V30 5245 C 481.659 -0.690926 1.82991 0
M  V30 5246 C 482.039 -1.90471 0.910164 0
M  V30 5247 O 481.387 -2.28474 -0.0347985 0
M  V30 5248 C 481.597 -1.07139 3.32148 0
M  V30 5249 C 482.945 -1.46402 3.98562 0
M  V30 5250 O 483.969 -1.16443 3.36629 0
M  V30 5251 O 482.828 -2.02214 5.07712 0
M  V30 5252 H 479.922 -0.338747 0.75444 0
M  V30 5253 H 482.468 0.0542506 1.69613 0
M  V30 5254 H 481.24 -0.207394 3.9075 0
M  V30 5255 H 480.863 -1.87481 3.50623 0
M  V30 5256 N 481.861 -1.55662 -0.24637 0
M  V30 5257 C 482.771 -1.93495 -1.32653 0
M  V30 5258 C 483.787 -0.835462 -1.5263 0
M  V30 5259 O 484.963 -1.1369 -1.66242 0
M  V30 5260 C 482.028 -2.22242 -2.66101 0
M  V30 5261 C 481.089 -3.45625 -2.54641 0
M  V30 5262 C 480.322 -3.72991 -3.81724 0
M  V30 5263 O 480.545 -3.02421 -4.8363 0
M  V30 5264 O 479.479 -4.66515 -3.80325 0
M  V30 5265 H 483.305 -2.85498 -1.03559 0
M  V30 5266 H 480.89 -1.42551 -0.44717 0
M  V30 5267 H 482.772 -2.42037 -3.44958 0
M  V30 5268 H 481.447 -1.33417 -2.94926 0
M  V30 5269 H 480.354 -3.31136 -1.74067 0
M  V30 5270 H 481.687 -4.34754 -2.3076 0
M  V30 5271 N 483.339 0.512053 -1.4905 0
M  V30 5272 C 484.588 1.26343 -1.57227 0
M  V30 5273 C 484.901 1.93876 -0.259155 0
M  V30 5274 O 486.107 2.70612 -0.219358 0
M  V30 5275 C 484.563 2.29343 -2.77362 0
M  V30 5276 C 484.171 1.67799 -4.15388 0
M  V30 5277 C 485.915 3.05378 -2.94864 0
M  V30 5278 C 483.822 2.68845 -5.2676 0
M  V30 5279 H 482.752 0.475231 -0.585382 0
M  V30 5280 H 485.403 0.53862 -1.75417 0
M  V30 5281 H 483.785 3.04938 -2.52643 0
M  V30 5282 H 484.959 0.982715 -4.50199 0
M  V30 5283 H 483.274 1.04194 -4.03153 0
M  V30 5284 H 485.871 3.80921 -3.75238 0
M  V30 5285 H 486.214 3.62327 -2.05 0
M  V30 5286 H 486.747 2.36898 -3.19569 0
M  V30 5287 H 483.486 2.16692 -6.18647 0
M  V30 5288 H 483.006 3.36647 -4.96416 0
M  V30 5289 H 484.685 3.31487 -5.5563 0
M  V30 5290 N 484.817 1.37938 0.762283 0
M  V30 5291 C 486.042 1.37059 1.55659 0
M  V30 5292 C 486.467 -0.0396123 1.88058 0
M  V30 5293 O 485.825 -1.01929 1.49934 0
M  V30 5294 C 485.873 2.22494 2.83776 0
M  V30 5295 O 484.977 1.63607 3.78559 0
M  V30 5296 H 484.318 0.467892 0.47114 0
M  V30 5297 H 486.848 1.81587 0.942725 0
M  V30 5298 H 486.858 2.36045 3.32786 0
M  V30 5299 H 485.533 3.24993 2.59524 0
M  V30 5300 H 484.11 1.5915 3.37233 0
M  V30 5301 N 486.295 -0.989507 1.22664 0
M  V30 5302 C 487.523 -1.76496 1.07967 0
M  V30 5303 C 487.938 -1.85148 -0.369543 0
M  V30 5304 O 487.295 -1.32408 -1.25596 0
M  V30 5305 C 487.346 -3.19642 1.68853 0
M  V30 5306 O 487.067 -3.11453 3.08105 0
M  V30 5307 C 488.568 -4.13621 1.59475 0
M  V30 5308 H 485.788 -0.55418 0.378319 0
M  V30 5309 H 488.332 -1.24378 1.62328 0
M  V30 5310 H 486.487 -3.68816 1.18547 0
M  V30 5311 H 486.901 -4.01499 3.37489 0
M  V30 5312 H 488.375 -5.11801 2.06795 0
M  V30 5313 H 488.852 -4.35718 0.55191 0
M  V30 5314 H 489.458 -3.70346 2.09103 0
M  V30 5315 N 487.773 -1.03688 -1.18687 0
M  V30 5316 C 488.72 -0.624624 -2.22187 0
M  V30 5317 C 489.69 0.365636 -1.62026 0
M  V30 5318 O 490.875 0.260481 -1.89014 0
M  V30 5319 C 488.015 0.0101738 -3.45099 0
M  V30 5320 C 487.128 -1.02709 -4.19613 0
M  V30 5321 C 486.263 -0.361213 -5.2997 0
M  V30 5322 C 485.302 -1.38384 -5.96252 0
M  V30 5323 N 484.439 -0.743196 -6.98155 0
M  V30 5324 H 489.279 -1.51176 -2.56807 0
M  V30 5325 H 486.816 -0.75636 -1.26165 0
M  V30 5326 H 488.774 0.395528 -4.15321 0
M  V30 5327 H 487.404 0.860848 -3.1111 0
M  V30 5328 H 486.456 -1.53043 -3.48256 0
M  V30 5329 H 487.768 -1.80398 -4.65036 0
M  V30 5330 H 486.922 0.0785537 -6.06649 0
M  V30 5331 H 485.661 0.447799 -4.8564 0
M  V30 5332 H 484.666 -1.83378 -5.18317 0
M  V30 5333 H 485.891 -2.19448 -6.42666 0
M  V30 5334 H 483.837 0.0455789 -6.55984 0
M  V30 5335 H 483.754 -1.45784 -7.41811 0
M  V30 5336 H 485.022 -0.327698 -7.78811 0
M  V30 5337 N 489.251 1.34841 -0.815825 0
M  V30 5338 C 490.201 2.27075 -0.205169 0
M  V30 5339 C 491.185 1.48205 0.626414 0
M  V30 5340 O 492.377 1.70306 0.482157 0
M  V30 5341 C 489.506 3.37322 0.637871 0
M  V30 5342 C 488.592 4.23609 -0.203948 0
M  V30 5343 N 488.983 4.89558 -1.27149 0
M  V30 5344 C 487.281 4.45998 0.0128971 0
M  V30 5345 C 487.982 5.53597 -1.7862 0
M  V30 5346 N 486.958 5.32535 -1.0912 0
M  V30 5347 H 490.76 2.75563 -1.02187 0
M  V30 5348 H 488.274 1.48477 -0.657912 0
M  V30 5349 H 490.271 4.02359 1.09146 0
M  V30 5350 H 488.931 2.90385 1.45281 0
M  V30 5351 H 489.942 4.9077 -1.65423 0
M  V30 5352 H 486.619 4.09837 0.79624 0
M  V30 5353 H 488.009 6.16184 -2.67892 0
M  V30 5354 N 490.729 0.570148 1.46925 0
M  V30 5355 C 491.976 0.0509529 2.02436 0
M  V30 5356 C 492.304 -1.30405 1.44308 0
M  V30 5357 O 491.559 -1.86493 0.593198 0
M  V30 5358 C 491.858 -0.0780336 3.57315 0
M  V30 5359 C 491.524 1.20775 4.34424 0
M  V30 5360 C 490.186 1.56004 4.5521 0
M  V30 5361 C 492.538 2.0592 4.78797 0
M  V30 5362 C 489.866 2.76201 5.17619 0
M  V30 5363 C 492.218 3.25332 5.42533 0
M  V30 5364 C 490.882 3.60859 5.61549 0
M  V30 5365 H 490.152 0.018645 0.740765 0
M  V30 5366 H 492.799 0.744262 1.76445 0
M  V30 5367 H 491.104 -0.854394 3.82371 0
M  V30 5368 H 492.801 -0.495312 3.97929 0
M  V30 5369 H 489.391 0.923469 4.18533 0
M  V30 5370 H 493.575 1.80008 4.62505 0
M  V30 5371 H 488.831 3.0388 5.30535 0
M  V30 5372 H 493.005 3.91586 5.75876 0
M  V30 5373 H 490.632 4.54088 6.09678 0
M  V30 5374 N 492.207 -1.54576 0.307264 0
M  V30 5375 C 493.455 -1.99867 -0.299574 0
M  V30 5376 C 493.776 -1.19714 -1.53927 0
M  V30 5377 O 493.046 -0.29472 -1.9367 0
M  V30 5378 H 491.626 -0.738299 -0.113683 0
M  V30 5379 H 494.288 -1.9032 0.420042 0
M  V30 5380 H 493.384 -3.06901 -0.567283 0
M  V30 5381 N 493.685 -0.035106 -1.57561 0
M  V30 5382 C 494.933 0.64096 -1.91667 0
M  V30 5383 C 495.254 1.72323 -0.912681 0
M  V30 5384 O 494.524 1.95849 0.0449089 0
M  V30 5385 H 493.104 0.239743 -0.707483 0
M  V30 5386 H 495.766 -0.084321 -1.94718 0
M  V30 5387 H 494.862 1.08987 -2.92452 0
M  V30 5388 N 495.163 1.55791 0.238111 0
M  V30 5389 C 496.393 1.81834 0.980809 0
M  V30 5390 C 496.801 0.609741 1.79106 0
M  V30 5391 O 496.144 -0.431073 1.78571 0
M  V30 5392 C 496.206 3.01363 1.96011 0
M  V30 5393 C 495.87 4.37037 1.33597 0
M  V30 5394 C 496.867 5.14692 0.734063 0
M  V30 5395 C 494.552 4.83743 1.3527 0
M  V30 5396 C 496.546 6.37206 0.157208 0
M  V30 5397 C 494.233 6.06204 0.77199 0
M  V30 5398 C 495.231 6.82775 0.175282 0
M  V30 5399 O 494.919 8.02922 -0.396432 0
M  V30 5400 H 494.651 0.6088 0.293834 0
M  V30 5401 H 497.205 2.03702 0.263552 0
M  V30 5402 H 495.435 2.75273 2.71591 0
M  V30 5403 H 497.124 3.14422 2.56697 0
M  V30 5404 H 497.89 4.79722 0.713582 0
M  V30 5405 H 493.769 4.24129 1.80653 0
M  V30 5406 H 497.313 6.96915 -0.30917 0
M  V30 5407 H 493.21 6.4065 0.789828 0
M  V30 5408 H 493.978 8.17989 -0.289145 0
M  V30 5409 N 496.642 -0.504142 1.49319 0
M  V30 5410 C 498.053 -1.08572 1.51885 0
M  V30 5411 C 498.404 -1.93842 0.303255 0
M  V30 5412 O 497.529 -2.0828 -0.58724 0
M  V30 5413 C 498.124 -1.97574 2.75227 0
M  V30 5414 C 496.683 -2.509 2.80581 0
M  V30 5415 C 495.83 -1.28447 2.45757 0
M  V30 5416 H 498.781 -0.288194 1.56061 0
M  V30 5417 H 498.802 -2.82219 2.55211 0
M  V30 5418 H 498.314 -1.35486 3.63683 0
M  V30 5419 H 496.415 -3.16636 1.96398 0
M  V30 5420 H 496.528 -2.88268 3.82673 0
M  V30 5421 H 494.892 -1.60868 1.97468 0
M  V30 5422 H 495.675 -0.68072 3.36483 0
M  V30 5423 N 498.12 -1.38341 -0.754957 0
M  V30 5424 C 499.053 -1.29837 -1.87663 0
M  V30 5425 C 500.031 -0.175659 -1.61648 0
M  V30 5426 O 501.215 -0.352745 -1.8517 0
M  V30 5427 C 498.342 -1.01141 -3.23246 0
M  V30 5428 C 497.388 -2.15331 -3.6815 0
M  V30 5429 S 498.221 -3.77459 -3.79849 0
M  V30 5430 C 499.377 -3.50948 -5.18253 0
M  V30 5431 H 499.61 -2.24771 -1.9459 0
M  V30 5432 H 497.143 -1.24161 -0.917796 0
M  V30 5433 H 499.101 -0.852687 -4.01546 0
M  V30 5434 H 497.762 -0.0792784 -3.14 0
M  V30 5435 H 496.955 -1.90795 -4.6649 0
M  V30 5436 H 496.557 -2.27304 -2.97 0
M  V30 5437 H 498.849 -3.06977 -6.03963 0
M  V30 5438 H 499.792 -4.48677 -5.47809 0
M  V30 5439 H 500.2 -2.85492 -4.86985 0
M  V30 5440 N 499.598 0.982988 -1.23187 0
M  V30 5441 C 500.828 1.75666 -1.08743 0
M  V30 5442 C 501.236 1.85662 0.364195 0
M  V30 5443 O 500.579 1.33317 1.26382 0
M  V30 5444 C 500.641 3.20144 -1.63549 0
M  V30 5445 C 500.305 3.33665 -3.12277 0
M  V30 5446 C 501.302 3.20194 -4.096 0
M  V30 5447 C 498.987 3.58397 -3.51933 0
M  V30 5448 C 500.981 3.31256 -5.44563 0
M  V30 5449 C 498.668 3.69098 -4.87042 0
M  V30 5450 C 499.666 3.55537 -5.83166 0
M  V30 5451 O 499.354 3.65864 -7.1582 0
M  V30 5452 H 499.086 0.558194 -0.381307 0
M  V30 5453 H 501.64 1.24387 -1.63454 0
M  V30 5454 H 499.87 3.72659 -1.03256 0
M  V30 5455 H 501.559 3.79262 -1.4462 0
M  V30 5456 H 502.325 3.00987 -3.80305 0
M  V30 5457 H 498.204 3.68025 -2.77631 0
M  V30 5458 H 501.748 3.20588 -6.19572 0
M  V30 5459 H 497.645 3.87814 -5.16014 0
M  V30 5460 H 498.413 3.82675 -7.23534 0
M  V30 5461 N 501.076 1.04316 1.18135 0
M  V30 5462 C 502.008 0.594444 2.21357 0
M  V30 5463 C 503.021 -0.337215 1.59269 0
M  V30 5464 O 504.21 -0.131337 1.78016 0
M  V30 5465 C 501.31 -0.151251 3.38562 0
M  V30 5466 C 500.483 0.788907 4.30227 0
M  V30 5467 C 499.542 0.0860572 5.2613 0
M  V30 5468 O 498.568 0.717302 5.64662 0
M  V30 5469 N 499.77 -1.17969 5.68387 0
M  V30 5470 H 502.535 1.48227 2.60478 0
M  V30 5471 H 500.096 0.92396 1.32946 0
M  V30 5472 H 502.088 -0.631352 3.99745 0
M  V30 5473 H 500.658 -0.940639 2.98112 0
M  V30 5474 H 499.878 1.44882 3.6661 0
M  V30 5475 H 501.166 1.42738 4.88368 0
M  V30 5476 H 500.564 -1.71302 5.3914 0
M  V30 5477 H 499.121 -1.60402 6.31755 0
M  V30 5478 N 502.554 -1.34406 0.822964 0
M  V30 5479 C 503.502 -2.31428 0.233165 0
M  V30 5480 C 504.496 -1.57404 -0.626118 0
M  V30 5481 O 505.702 -1.72402 -0.517453 0
M  V30 5482 H 502.077 -0.749863 0.0566557 0
M  V30 5483 H 504.048 -2.78699 1.06628 0
M  V30 5484 C 502.797 -3.42653 -0.590264 0
M  V30 5485 H 502.12 -3.99753 0.0616129 0
M  V30 5486 H 503.56 -4.12778 -0.969054 0
M  V30 5487 C 502.019 -2.87112 -1.76262 0
M  V30 5488 O 502.549 -2.81995 -2.8608 0
M  V30 5489 N 500.755 -2.43934 -1.57938 0
M  V30 5490 H 500.302 -2.48296 -0.686078 0
M  V30 5491 H 500.26 -2.07123 -2.36532 0
M  V30 5492 N 504.032 -0.577932 -1.46621 0
M  V30 5493 C 504.962 0.145917 -2.33044 0
M  V30 5494 C 505.943 0.888412 -1.45056 0
M  V30 5495 O 507.128 0.864812 -1.73881 0
M  V30 5496 C 504.258 1.16322 -3.27241 0
M  V30 5497 C 503.212 0.535868 -4.24632 0
M  V30 5498 C 502.538 1.65929 -5.08303 0
M  V30 5499 C 503.838 -0.523861 -5.19666 0
M  V30 5500 H 505.532 -0.575636 -2.93814 0
M  V30 5501 H 503.078 -0.278272 -1.41286 0
M  V30 5502 H 505.031 1.67793 -3.86553 0
M  V30 5503 H 503.755 1.91498 -2.64567 0
M  V30 5504 H 502.414 0.0422759 -3.66576 0
M  V30 5505 H 502.062 2.40061 -4.42018 0
M  V30 5506 H 501.762 1.2452 -5.74255 0
M  V30 5507 H 503.286 2.17686 -5.70478 0
M  V30 5508 H 504.7 -0.0944059 -5.73222 0
M  V30 5509 H 503.097 -0.858 -5.93935 0
M  V30 5510 H 504.167 -1.41197 -4.63887 0
M  V30 5511 N 505.51 1.54411 -0.315457 0
M  V30 5512 C 506.759 1.99599 0.290395 0
M  V30 5513 C 507.072 1.20746 1.53882 0
M  V30 5514 O 508.278 1.56272 2.22017 0
M  V30 5515 C 506.734 3.5539 0.56797 0
M  V30 5516 C 506.342 4.43068 -0.662945 0
M  V30 5517 C 508.086 4.09067 1.13422 0
M  V30 5518 C 505.993 5.90317 -0.357722 0
M  V30 5519 H 504.923 0.745592 0.112286 0
M  V30 5520 H 507.574 1.78477 -0.426418 0
M  V30 5521 H 505.956 3.72468 1.34476 0
M  V30 5522 H 507.13 4.37765 -1.43869 0
M  V30 5523 H 505.445 4.00238 -1.14884 0
M  V30 5524 H 508.042 5.16663 1.37707 0
M  V30 5525 H 508.385 3.60552 2.08106 0
M  V30 5526 H 508.918 3.95589 0.418805 0
M  V30 5527 H 505.657 6.4301 -1.27351 0
M  V30 5528 H 505.177 5.98592 0.380472 0
M  V30 5529 H 506.856 6.4699 0.0354284 0
M  V30 5530 N 506.988 0.0434614 1.5754 0
M  V30 5531 C 508.234 -0.632971 1.92669 0
M  V30 5532 C 508.567 -1.70947 0.921446 0
M  V30 5533 O 507.842 -1.94426 -0.0537202 0
M  V30 5534 C 508.125 -1.23619 3.38216 0
M  V30 5535 C 507.978 -0.168274 4.49485 0
M  V30 5536 C 509.297 -2.15008 3.84005 0
M  V30 5537 H 506.416 -0.228629 0.700641 0
M  V30 5538 H 509.058 0.103651 1.89717 0
M  V30 5539 H 507.208 -1.864 3.40863 0
M  V30 5540 H 508.88 0.463196 4.58969 0
M  V30 5541 H 507.123 0.504581 4.30855 0
M  V30 5542 H 507.794 -0.630218 5.48391 0
M  V30 5543 H 510.27 -1.62198 3.83185 0
M  V30 5544 H 509.146 -2.54161 4.86511 0
M  V30 5545 H 509.407 -3.04707 3.20322 0
M  V30 5546 N 508.466 -1.55915 -0.229846 0
M  V30 5547 C 509.714 -1.7819 -0.953565 0
M  V30 5548 C 510.035 -0.610504 -1.85197 0
M  V30 5549 O 509.305 0.372988 -1.92316 0
M  V30 5550 H 507.885 -0.657208 -0.355087 0
M  V30 5551 H 510.547 -1.9337 -0.243693 0
M  V30 5552 H 509.643 -2.70011 -1.56527 0
M  V30 5553 N 509.944 0.496216 -1.49584 0
M  V30 5554 C 511.192 1.24756 -1.58998 0
M  V30 5555 C 511.513 1.92968 -0.280775 0
M  V30 5556 O 510.783 1.82959 0.700198 0
M  V30 5557 H 509.363 0.463471 -0.585836 0
M  V30 5558 H 512.025 0.574678 -1.86235 0
M  V30 5559 H 511.121 2.00895 -2.38847 0
M  V30 5560 N 511.423 1.38739 0.74761 0
M  V30 5561 C 512.355 1.32341 1.87132 0
M  V30 5562 C 513.368 0.234502 1.61102 0
M  V30 5563 O 514.557 0.492516 1.71571 0
M  V30 5564 C 511.657 1.02915 3.22896 0
M  V30 5565 C 510.83 2.22834 3.76383 0
M  V30 5566 C 509.889 1.90059 4.90677 0
M  V30 5567 O 508.915 2.62615 5.04997 0
M  V30 5568 N 510.117 0.859141 5.74107 0
M  V30 5569 H 512.882 2.29175 1.93129 0
M  V30 5570 H 510.443 1.32678 0.927805 0
M  V30 5571 H 512.435 0.79031 3.96908 0
M  V30 5572 H 511.005 0.148572 3.12247 0
M  V30 5573 H 510.225 2.62747 2.93867 0
M  V30 5574 H 511.513 3.02851 4.08851 0
M  V30 5575 H 510.911 0.257564 5.65113 0
M  V30 5576 H 509.468 0.680189 6.48241 0
M  V30 5577 N 512.901 -0.976442 1.23707 0
M  V30 5578 C 513.849 -2.09078 1.01927 0
M  V30 5579 C 514.843 -1.69345 -0.0430193 0
M  V30 5580 O 516.049 -1.79659 0.110814 0
M  V30 5581 H 512.424 -0.68398 0.312531 0
M  V30 5582 H 514.395 -2.24614 1.96447 0
M  V30 5583 C 513.144 -3.41919 0.631385 0
M  V30 5584 H 512.467 -3.72946 1.44053 0
M  V30 5585 H 513.907 -4.20817 0.518532 0
M  V30 5586 C 512.366 -3.30357 -0.660723 0
M  V30 5587 O 512.896 -3.63542 -1.70881 0
M  V30 5588 N 511.102 -2.83507 -0.638139 0
M  V30 5589 H 510.649 -2.567 0.215108 0
M  V30 5590 H 510.607 -2.76153 -1.50289 0
M  V30 5591 N 514.379 -1.04941 -1.1758 0
M  V30 5592 C 515.604 -0.778253 -1.92245 0
M  V30 5593 C 516.029 0.659707 -1.76152 0
M  V30 5594 O 515.387 1.45803 -1.07755 0
M  V30 5595 C 515.435 -1.16051 -3.41416 0
M  V30 5596 O 514.539 -0.291153 -4.11371 0
M  V30 5597 H 513.88 -0.285619 -0.599431 0
M  V30 5598 H 516.41 -1.40159 -1.49052 0
M  V30 5599 H 516.42 -1.12619 -3.92149 0
M  V30 5600 H 515.095 -2.208 -3.52449 0
M  V30 5601 H 513.672 -0.385851 -3.70898 0
M  V30 5602 N 515.857 1.33968 -0.830081 0
M  V30 5603 C 516.767 2.33164 -0.259207 0
M  V30 5604 C 517.783 1.62951 0.610164 0
M  V30 5605 O 518.959 1.94668 0.516369 0
M  V30 5606 C 516.024 3.42088 0.563598 0
M  V30 5607 C 515.085 4.28037 -0.329014 0
M  V30 5608 C 514.318 5.3176 0.454616 0
M  V30 5609 O 514.541 5.44876 1.6872 0
M  V30 5610 O 513.475 6.01669 -0.166794 0
M  V30 5611 H 517.301 2.83832 -1.08041 0
M  V30 5612 H 514.886 1.37154 -0.59239 0
M  V30 5613 H 516.768 4.08581 1.03147 0
M  V30 5614 H 515.443 2.93651 1.36201 0
M  V30 5615 H 514.35 3.64443 -0.844538 0
M  V30 5616 H 515.683 4.79934 -1.09196 0
M  V30 5617 N 517.335 0.585699 1.46312 0
M  V30 5618 C 518.583 0.072278 2.01971 0
M  V30 5619 C 518.904 -1.29345 1.45928 0
M  V30 5620 O 518.174 -1.84973 0.645109 0
M  V30 5621 H 516.754 0.023729 0.746623 0
M  V30 5622 H 519.416 0.762155 1.7938 0
M  V30 5623 H 518.512 0.00552767 3.121 0
M  V30 5624 N 518.813 -1.54241 0.323641 0
M  V30 5625 C 519.76 -2.24339 -0.542277 0
M  V30 5626 C 520.73 -1.23421 -1.11159 0
M  V30 5627 O 521.915 -1.52104 -1.15192 0
M  V30 5628 C 519.055 -3.00479 -1.69725 0
M  V30 5629 C 518.168 -4.16214 -1.15716 0
M  V30 5630 C 517.303 -4.79884 -2.27783 0
M  V30 5631 C 516.342 -5.87722 -1.71023 0
M  V30 5632 N 515.479 -6.45254 -2.76752 0
M  V30 5633 H 520.319 -2.97935 0.0620613 0
M  V30 5634 H 517.856 -1.47039 0.0423993 0
M  V30 5635 H 519.814 -3.42869 -2.3769 0
M  V30 5636 H 518.444 -2.29217 -2.27288 0
M  V30 5637 H 517.496 -3.78605 -0.369063 0
M  V30 5638 H 518.808 -4.93838 -0.701832 0
M  V30 5639 H 517.962 -5.25243 -3.03651 0
M  V30 5640 H 516.701 -4.01641 -2.76652 0
M  V30 5641 H 515.706 -5.41765 -0.936518 0
M  V30 5642 H 516.931 -6.67863 -1.2303 0
M  V30 5643 H 514.877 -5.69884 -3.24912 0
M  V30 5644 H 514.794 -7.18292 -2.35782 0
M  V30 5645 H 516.062 -6.95269 -3.5245 0
M  V30 5646 N 520.291 -0.0518155 -1.57515 0
M  V30 5647 C 521.568 0.661727 -1.84067 0
M  V30 5648 C 521.948 1.88999 -0.940351 0
M  V30 5649 O 521.296 2.285 -0.00155404 0
M  V30 5650 C 521.506 1.01841 -3.3381 0
M  V30 5651 C 522.854 1.40043 -4.00841 0
M  V30 5652 O 523.878 1.11073 -3.38439 0
M  V30 5653 O 522.737 1.94111 -5.10865 0
M  V30 5654 H 519.831 0.326702 -0.759733 0
M  V30 5655 H 522.377 -0.0812277 -1.69505 0
M  V30 5656 H 521.149 0.145202 -3.91031 0
M  V30 5657 H 520.772 1.81879 -3.53562 0
M  V30 5658 N 521.769 1.56035 0.221574 0
M  V30 5659 C 522.732 1.91584 1.2581 0
M  V30 5660 C 523.732 0.794425 1.39805 0
M  V30 5661 O 524.922 1.06217 1.38071 0
M  V30 5662 C 522.054 2.16663 2.63192 0
M  V30 5663 H 523.247 2.8429 0.954935 0
M  V30 5664 H 520.8 1.49316 0.461988 0
M  V30 5665 H 521.535 1.26508 2.98607 0
M  V30 5666 H 521.32 2.98358 2.5441 0
M  V30 5667 H 522.81 2.45262 3.37988 0
M  V30 5668 N 523.247 -0.488276 1.49845 0
M  V30 5669 C 524.475 -1.26527 1.63702 0
M  V30 5670 C 524.89 -1.8618 0.313447 0
M  V30 5671 O 524.247 -1.68432 -0.702624 0
M  V30 5672 C 524.298 -2.3864 2.71538 0
M  V30 5673 O 524.019 -1.81437 3.98763 0
M  V30 5674 C 525.52 -3.29805 2.96215 0
M  V30 5675 H 522.74 -0.383295 0.55075 0
M  V30 5676 H 525.284 -0.584779 1.95961 0
M  V30 5677 H 523.439 -3.02496 2.42023 0
M  V30 5678 H 523.853 -2.55135 4.58265 0
M  V30 5679 H 525.327 -4.04722 3.75372 0
M  V30 5680 H 525.804 -3.87563 2.06619 0
M  V30 5681 H 526.41 -2.71703 3.27196 0
M  V30 5682 N 524.725 -1.39134 -0.740242 0
M  V30 5683 C 525.673 -1.3757 -1.87556 0
M  V30 5684 C 526.667 -0.259593 -1.67399 0
M  V30 5685 O 527.873 -0.429349 -1.74804 0
M  V30 5686 H 524.248 -0.42947 -0.6173 0
M  V30 5687 H 526.219 -2.33345 -1.85991 0
M  V30 5688 C 524.968 -1.23087 -3.25184 0
M  V30 5689 H 524.291 -2.08237 -3.41288 0
M  V30 5690 H 525.731 -1.26049 -4.0483 0
M  V30 5691 C 524.19 0.0611471 -3.36845 0
M  V30 5692 O 524.72 1.03328 -3.88183 0
M  V30 5693 N 522.926 0.122454 -2.90342 0
M  V30 5694 H 522.473 -0.669329 -2.48752 0
M  V30 5695 H 522.431 0.986463 -2.98523 0
M  V30 5696 N 526.204 0.969867 -1.24223 0
M  V30 5697 C 527.151 2.06407 -1.0327 0
M  V30 5698 C 528.121 1.66014 0.0533 0
M  V30 5699 O 529.306 1.90533 -0.100896 0
M  V30 5700 C 526.446 3.3909 -0.641262 0
M  V30 5701 C 525.559 3.9269 -1.80051 0
M  V30 5702 C 524.694 5.13631 -1.35486 0
M  V30 5703 C 523.733 5.59423 -2.48419 0
M  V30 5704 N 522.87 6.71586 -2.04737 0
M  V30 5705 H 527.71 2.23663 -1.96923 0
M  V30 5706 H 525.247 1.09624 -0.980862 0
M  V30 5707 H 527.205 4.15323 -0.395351 0
M  V30 5708 H 525.835 3.21765 0.258269 0
M  V30 5709 H 524.887 3.13116 -2.16014 0
M  V30 5710 H 526.199 4.22636 -2.64916 0
M  V30 5711 H 525.353 5.97231 -1.0677 0
M  V30 5712 H 524.092 4.85364 -0.476722 0
M  V30 5713 H 523.097 4.74398 -2.77897 0
M  V30 5714 H 524.322 5.89705 -3.36786 0
M  V30 5715 H 522.268 6.45058 -1.19318 0
M  V30 5716 H 522.185 7.0097 -2.83156 0
M  V30 5717 H 523.453 7.58633 -1.79154 0
M  V30 5718 N 527.682 1.05563 1.17022 0
M  V30 5719 C 528.928 0.769074 1.87652 0
M  V30 5720 C 529.261 -0.702326 1.81055 0
M  V30 5721 O 528.536 -1.5139 1.22112 0
M  V30 5722 C 528.819 1.25492 3.37526 0
M  V30 5723 C 528.672 2.78953 3.52853 0
M  V30 5724 C 529.991 0.856919 4.31677 0
M  V30 5725 H 527.11 0.280854 0.681388 0
M  V30 5726 H 529.752 1.31027 1.37593 0
M  V30 5727 H 527.902 0.794516 3.80289 0
M  V30 5728 H 529.574 3.33146 3.19079 0
M  V30 5729 H 527.817 3.18046 2.95007 0
M  V30 5730 H 528.488 3.08011 4.58076 0
M  V30 5731 H 530.964 1.25334 3.96775 0
M  V30 5732 H 529.84 1.22443 5.35069 0
M  V30 5733 H 530.101 -0.238787 4.41455 0
M  V30 5734 N 529.16 -1.33526 0.837174 0
M  V30 5735 C 530.385 -2.0258 0.444545 0
M  V30 5736 C 530.81 -1.6258 -0.946006 0
M  V30 5737 O 530.168 -0.817548 -1.6182 0
M  V30 5738 C 530.216 -3.5605 0.571006 0
M  V30 5739 O 529.32 -4.10422 -0.403431 0
M  V30 5740 H 528.661 -0.638866 0.180958 0
M  V30 5741 H 531.191 -1.70462 1.13154 0
M  V30 5742 H 531.201 -4.05488 0.452024 0
M  V30 5743 H 529.876 -3.84509 1.58512 0
M  V30 5744 H 528.453 -3.72113 -0.242147 0
M  V30 5745 N 530.638 -0.59345 -1.46 0
M  V30 5746 C 531.868 -0.0889642 -2.06408 0
M  V30 5747 C 532.276 1.22597 -1.44106 0
M  V30 5748 O 531.619 1.75448 -0.544398 0
M  V30 5749 C 531.681 0.139902 -3.59228 0
M  V30 5750 C 531.345 -1.09107 -4.43784 0
M  V30 5751 C 532.342 -2.00577 -4.79651 0
M  V30 5752 C 530.027 -1.31593 -4.84756 0
M  V30 5753 C 532.021 -3.12873 -5.55328 0
M  V30 5754 C 529.708 -2.44192 -5.60191 0
M  V30 5755 C 530.706 -3.34661 -5.95392 0
M  V30 5756 O 530.394 -4.45302 -6.69299 0
M  V30 5757 H 530.126 -0.0594613 -0.67338 0
M  V30 5758 H 532.68 -0.817 -1.88452 0
M  V30 5759 H 530.91 0.922672 -3.75531 0
M  V30 5760 H 532.599 0.594228 -4.01527 0
M  V30 5761 H 533.365 -1.84425 -4.48567 0
M  V30 5762 H 529.244 -0.620801 -4.56801 0
M  V30 5763 H 532.788 -3.83511 -5.82722 0
M  V30 5764 H 528.685 -2.60303 -5.90688 0
M  V30 5765 H 529.453 -4.43805 -6.87735 0
M  V30 5766 N 532.116 1.54067 -0.331816 0
M  V30 5767 C 533.049 2.20886 0.573127 0
M  V30 5768 C 534.027 1.18876 1.10938 0
M  V30 5769 O 535.211 1.47649 1.17184 0
M  V30 5770 C 532.338 2.87706 1.78726 0
M  V30 5771 C 531.384 4.03505 1.38152 0
M  V30 5772 S 532.217 5.33919 0.41123 0
M  V30 5773 C 533.373 6.04236 1.63246 0
M  V30 5774 H 533.606 2.97299 0.00555737 0
M  V30 5775 H 531.139 1.53964 -0.115893 0
M  V30 5776 H 533.097 3.26825 2.48386 0
M  V30 5777 H 531.758 2.1108 2.32603 0
M  V30 5778 H 530.951 4.49152 2.28645 0
M  V30 5779 H 530.553 3.66102 0.764524 0
M  V30 5780 H 532.845 6.26917 2.56869 0
M  V30 5781 H 533.788 6.97546 1.218 0
M  V30 5782 H 534.196 5.34247 1.82318 0
M  V30 5783 N 533.594 0.0601682 1.57485 0
M  V30 5784 C 534.557 -0.896373 2.10945 0
M  V30 5785 C 535.557 -1.23402 1.03095 0
M  V30 5786 O 536.747 -1.16921 1.29132 0
M  V30 5787 C 533.879 -2.20346 2.60116 0
M  V30 5788 H 535.072 -0.432778 2.96761 0
M  V30 5789 H 532.625 -0.188372 1.55161 0
M  V30 5790 H 533.36 -2.71268 1.7772 0
M  V30 5791 H 533.145 -1.9714 3.38937 0
M  V30 5792 H 534.635 -2.88846 3.01592 0
M  V30 5793 N 535.072 -1.5615 -0.213296 0
M  V30 5794 C 536.002 -1.96109 -1.26742 0
M  V30 5795 C 536.983 -0.830448 -1.48451 0
M  V30 5796 O 538.168 -1.09339 -1.60495 0
M  V30 5797 C 535.298 -2.28492 -2.61551 0
M  V30 5798 C 534.252 -3.44124 -2.54485 0
M  V30 5799 C 533.578 -3.62134 -3.93399 0
M  V30 5800 C 534.878 -4.78855 -2.08556 0
M  V30 5801 H 536.572 -2.84412 -0.935434 0
M  V30 5802 H 534.118 -1.36836 -0.44854 0
M  V30 5803 H 536.071 -2.55039 -3.3546 0
M  V30 5804 H 534.795 -1.37052 -2.96453 0
M  V30 5805 H 533.454 -3.17639 -1.83033 0
M  V30 5806 H 533.102 -2.68055 -4.25623 0
M  V30 5807 H 532.802 -4.39913 -3.89551 0
M  V30 5808 H 534.326 -3.91038 -4.68958 0
M  V30 5809 H 535.74 -5.04552 -2.72213 0
M  V30 5810 H 534.137 -5.59975 -2.1575 0
M  V30 5811 H 535.207 -4.73657 -1.03811 0
M  V30 5812 N 536.55 0.480323 -1.50102 0
M  V30 5813 C 537.46 1.60547 -1.71061 0
M  V30 5814 C 538.476 1.63564 -0.593529 0
M  V30 5815 O 539.652 1.81604 -0.870751 0
M  V30 5816 C 536.717 2.96814 -1.79171 0
M  V30 5817 C 535.778 3.04259 -3.02861 0
M  V30 5818 C 535.011 4.34027 -3.10574 0
M  V30 5819 O 535.234 5.24009 -2.25323 0
M  V30 5820 O 534.168 4.46873 -4.03223 0
M  V30 5821 H 537.994 1.45788 -2.6642 0
M  V30 5822 H 535.579 0.658838 -1.34088 0
M  V30 5823 H 537.461 3.77765 -1.86738 0
M  V30 5824 H 536.136 3.11791 -0.869947 0
M  V30 5825 H 535.043 2.22419 -3.008 0
M  V30 5826 H 536.376 2.94216 -3.94586 0
M  V30 5827 N 538.028 1.39524 0.732853 0
M  V30 5828 C 538.991 1.38189 1.82857 0
M  V30 5829 C 539.991 0.278624 1.58368 0
M  V30 5830 O 541.181 0.536639 1.65728 0
M  V30 5831 C 538.313 1.15661 3.2068 0
M  V30 5832 H 539.506 2.35692 1.85444 0
M  V30 5833 H 537.059 1.2512 0.936728 0
M  V30 5834 H 537.794 0.188482 3.23752 0
M  V30 5835 H 537.579 1.95559 3.39852 0
M  V30 5836 H 539.069 1.17472 4.00737 0
M  V30 5837 N 539.506 -0.963266 1.24736 0
M  V30 5838 C 540.469 -2.04013 1.04457 0
M  V30 5839 C 541.469 -1.608 0.000335555 0
M  V30 5840 O 542.659 -1.72515 0.241719 0
M  V30 5841 C 539.791 -3.35858 0.584162 0
M  V30 5842 H 540.984 -2.23436 2.00041 0
M  V30 5843 H 538.537 -1.13914 1.07021 0
M  V30 5844 H 539.272 -3.22128 -0.374673 0
M  V30 5845 H 539.057 -3.68568 1.3379 0
M  V30 5846 H 540.547 -4.1502 0.463451 0
M  V30 5847 N 540.985 -1.06182 -1.16461 0
M  V30 5848 C 542.231 -0.779015 -1.87241 0
M  V30 5849 C 542.564 0.692715 -1.81425 0
M  V30 5850 O 541.839 1.5074 -1.22913 0
M  V30 5851 C 542.122 -1.2728 -3.36856 0
M  V30 5852 C 541.975 -2.80821 -3.51368 0
M  V30 5853 C 543.294 -0.879799 -4.31216 0
M  V30 5854 H 540.413 -0.284464 -0.679889 0
M  V30 5855 H 543.055 -1.31755 -1.36896 0
M  V30 5856 H 541.205 -0.814673 -3.79862 0
M  V30 5857 H 542.877 -3.34833 -3.17308 0
M  V30 5858 H 541.12 -3.19606 -2.93316 0
M  V30 5859 H 541.791 -3.10435 -4.56436 0
M  V30 5860 H 544.267 -1.27436 -3.96105 0
M  V30 5861 H 543.143 -1.25278 -5.34412 0
M  V30 5862 H 543.404 0.215372 -4.41575 0
M  V30 5863 N 542.463 1.3308 -0.844243 0
M  V30 5864 C 543.413 2.26589 -0.253289 0
M  V30 5865 C 544.397 1.49501 0.594836 0
M  V30 5866 O 545.589 1.71291 0.445924 0
M  V30 5867 C 542.718 3.38599 0.566176 0
M  V30 5868 C 541.804 4.23081 -0.293756 0
M  V30 5869 N 542.195 4.86751 -1.37505 0
M  V30 5870 C 540.493 4.45925 -0.0817086 0
M  V30 5871 C 541.194 5.49684 -1.90323 0
M  V30 5872 N 540.17 5.30101 -1.20391 0
M  V30 5873 H 543.972 2.73334 -1.08009 0
M  V30 5874 H 541.486 1.47048 -0.689258 0
M  V30 5875 H 543.483 4.04584 1.00587 0
M  V30 5876 H 542.143 2.93401 1.39089 0
M  V30 5877 H 543.154 4.87151 -1.75796 0
M  V30 5878 H 539.831 4.11434 0.709129 0
M  V30 5879 H 541.221 6.10363 -2.80902 0
M  V30 5880 N 543.941 0.601185 1.45683 0
M  V30 5881 C 545.187 0.0940202 2.02582 0
M  V30 5882 C 545.52 -1.26972 1.46941 0
M  V30 5883 O 544.795 -1.83613 0.641612 0
M  V30 5884 C 545.078 0.0481715 3.60068 0
M  V30 5885 C 544.931 1.44212 4.26055 0
M  V30 5886 C 546.25 -0.642975 4.35378 0
M  V30 5887 H 543.369 0.0356404 0.736138 0
M  V30 5888 H 546.011 0.771929 1.73612 0
M  V30 5889 H 544.161 -0.529128 3.8488 0
M  V30 5890 H 545.833 2.06601 4.12449 0
M  V30 5891 H 544.076 2.00465 3.84703 0
M  V30 5892 H 544.747 1.36234 5.34925 0
M  V30 5893 H 547.223 -0.152351 4.15821 0
M  V30 5894 H 546.099 -0.644141 5.45107 0
M  V30 5895 H 546.36 -1.70785 4.0778 0
M  V30 5896 N 545.419 -1.53889 0.339982 0
M  V30 5897 C 546.366 -2.24902 -0.518452 0
M  V30 5898 C 547.336 -1.24593 -1.09844 0
M  V30 5899 O 548.521 -1.53317 -1.13572 0
M  V30 5900 C 545.661 -3.02262 -1.66529 0
M  V30 5901 C 544.774 -4.17418 -1.11295 0
M  V30 5902 C 543.909 -4.82273 -2.2268 0
M  V30 5903 C 542.948 -5.89503 -1.6478 0
M  V30 5904 N 542.085 -6.48153 -2.69893 0
M  V30 5905 H 546.925 -2.97853 0.0936579 0
M  V30 5906 H 544.462 -1.46986 0.0579924 0
M  V30 5907 H 546.42 -3.45371 -2.3404 0
M  V30 5908 H 545.05 -2.31614 -2.24844 0
M  V30 5909 H 544.102 -3.78976 -0.328886 0
M  V30 5910 H 545.414 -4.94554 -0.649414 0
M  V30 5911 H 544.568 -5.28435 -2.98063 0
M  V30 5912 H 543.307 -4.04552 -2.72376 0
M  V30 5913 H 542.312 -5.42728 -0.879004 0
M  V30 5914 H 543.537 -6.6913 -1.1594 0
M  V30 5915 H 541.483 -5.73298 -3.1885 0
M  V30 5916 H 541.4 -7.20752 -2.28151 0
M  V30 5917 H 542.668 -6.98968 -3.45056 0
M  V30 5918 N 546.897 -0.0685191 -1.57451 0
M  V30 5919 C 547.827 0.89747 -2.15564 0
M  V30 5920 C 548.808 1.31266 -1.08181 0
M  V30 5921 O 549.993 1.38429 -1.36202 0
M  V30 5922 C 547.123 2.16623 -2.71463 0
M  V30 5923 C 546.077 1.89054 -3.83982 0
M  V30 5924 C 545.403 3.22532 -4.26471 0
M  V30 5925 C 546.703 1.1984 -5.08366 0
M  V30 5926 H 548.397 0.413373 -2.96533 0
M  V30 5927 H 545.943 0.197391 -1.42641 0
M  V30 5928 H 547.896 2.84614 -3.10761 0
M  V30 5929 H 546.62 2.67269 -1.8771 0
M  V30 5930 H 545.279 1.23469 -3.45183 0
M  V30 5931 H 544.927 3.71013 -3.39644 0
M  V30 5932 H 544.627 3.04879 -5.02317 0
M  V30 5933 H 546.151 3.91727 -4.68383 0
M  V30 5934 H 547.565 1.77896 -5.45001 0
M  V30 5935 H 545.962 1.12456 -5.89469 0
M  V30 5936 H 547.032 0.176996 -4.84577 0
M  V30 5937 N 548.375 1.56261 0.205012 0
M  V30 5938 C 549.786 1.70056 0.770574 0
M  V30 5939 C 550.137 0.673398 1.84282 0
M  V30 5940 O 549.262 -0.172196 2.15714 0
M  V30 5941 C 549.857 3.08316 1.40451 0
M  V30 5942 C 548.416 3.2391 1.91727 0
M  V30 5943 C 547.563 2.66001 0.783516 0
M  V30 5944 H 550.514 1.58688 -0.019911 0
M  V30 5945 H 550.535 3.05094 2.27371 0
M  V30 5946 H 550.047 3.83053 0.623882 0
M  V30 5947 H 548.148 2.54072 2.7254 0
M  V30 5948 H 548.261 4.3131 2.08588 0
M  V30 5949 H 546.625 2.24915 1.19521 0
M  V30 5950 H 547.408 3.43297 0.0152883 0
M  V30 5951 N 549.853 -0.472356 1.50355 0
M  V30 5952 C 550.785 -1.58795 1.65278 0
M  V30 5953 C 551.798 -1.53782 0.534313 0
M  V30 5954 O 552.987 -1.59193 0.807446 0
M  V30 5955 C 550.087 -2.97672 1.62001 0
M  V30 5956 C 549.26 -3.27568 2.89859 0
M  V30 5957 C 548.319 -4.45993 2.79242 0
M  V30 5958 O 547.345 -4.46364 3.53197 0
M  V30 5959 N 548.547 -5.47578 1.92713 0
M  V30 5960 H 551.312 -1.46411 2.61503 0
M  V30 5961 H 548.873 -0.660751 1.47803 0
M  V30 5962 H 550.865 -3.74862 1.52513 0
M  V30 5963 H 549.435 -3.03832 0.735159 0
M  V30 5964 H 548.655 -2.39003 3.13483 0
M  V30 5965 H 549.943 -3.44352 3.74565 0
M  V30 5966 H 549.341 -5.50099 1.31939 0
M  V30 5967 H 547.898 -6.23757 1.8913 0
M  V30 5968 N 551.331 -1.39911 -0.725443 0
M  V30 5969 C 552.742 -1.33599 -1.30415 0
M  V30 5970 C 553.093 -0.00481792 -1.96199 0
M  V30 5971 O 552.218 0.897275 -1.96921 0
M  V30 5972 C 552.813 -2.41965 -2.37146 0
M  V30 5973 C 551.372 -2.39144 -2.90667 0
M  V30 5974 C 550.519 -2.23355 -1.64341 0
M  V30 5975 H 553.47 -1.4986 -0.522267 0
M  V30 5976 H 553.491 -2.09304 -3.17761 0
M  V30 5977 H 553.003 -3.38837 -1.89238 0
M  V30 5978 H 551.104 -1.4594 -3.4283 0
M  V30 5979 H 551.217 -3.34362 -3.43131 0
M  V30 5980 H 549.581 -1.70696 -1.89037 0
M  V30 5981 H 550.364 -3.2221 -1.18471 0
M  V30 5982 N 552.809 0.956637 -1.25245 0
M  V30 5983 C 554.034 1.74104 -1.12706 0
M  V30 5984 C 554.459 1.85436 0.315429 0
M  V30 5985 O 553.817 1.33334 1.22848 0
M  V30 5986 C 553.865 3.1338 -1.78396 0
M  V30 5987 O 552.969 3.98485 -1.06224 0
M  V30 5988 H 552.31 0.53476 -0.393609 0
M  V30 5989 H 554.84 1.19924 -1.65769 0
M  V30 5990 H 554.85 3.6385 -1.846 0
M  V30 5991 H 553.525 3.04448 -2.83345 0
M  V30 5992 H 552.102 3.56952 -1.07886 0
M  V30 5993 N 554.287 1.06798 1.15896 0
M  V30 5994 C 555.217 0.704677 2.22613 0
M  V30 5995 C 556.198 -0.305252 1.67339 0
M  V30 5996 O 557.383 -0.179247 1.93371 0
M  V30 5997 C 554.513 0.0957325 3.47168 0
M  V30 5998 C 553.467 1.0322 4.15367 0
M  V30 5999 C 552.793 0.286293 5.33933 0
M  V30 6000 C 554.093 2.36341 4.65768 0
M  V30 6001 H 555.787 1.59688 2.53259 0
M  V30 6002 H 553.333 0.769257 1.21731 0
M  V30 6003 H 555.286 -0.170333 4.21056 0
M  V30 6004 H 554.01 -0.831516 3.15838 0
M  V30 6005 H 552.669 1.28309 3.43413 0
M  V30 6006 H 552.317 -0.644237 4.98857 0
M  V30 6007 H 552.017 0.910436 5.80504 0
M  V30 6008 H 553.541 0.0278938 6.10594 0
M  V30 6009 H 554.955 2.1561 5.31211 0
M  V30 6010 H 553.352 2.94299 5.2298 0
M  V30 6011 H 554.422 2.99047 3.81705 0
M  V30 6012 N 555.766 -1.3263 0.851289 0
M  V30 6013 C 556.991 -2.02097 0.466006 0
M  V30 6014 C 557.416 -1.63574 -0.928709 0
M  V30 6015 O 556.774 -0.834665 -1.60944 0
M  V30 6016 C 556.822 -3.55425 0.608737 0
M  V30 6017 O 555.926 -4.10827 -0.359878 0
M  V30 6018 H 555.267 -0.636911 0.187724 0
M  V30 6019 H 557.797 -1.69253 1.14955 0
M  V30 6020 H 557.807 -4.04986 0.495006 0
M  V30 6021 H 556.482 -3.82806 1.62581 0
M  V30 6022 H 555.059 -3.72349 -0.202666 0
M  V30 6023 N 557.244 -0.608902 -1.45362 0
M  V30 6024 C 558.49 -0.104762 -2.02529 0
M  V30 6025 C 558.823 1.26191 -1.47613 0
M  V30 6026 O 558.098 1.8327 -0.65134 0
M  V30 6027 C 558.381 -0.0672661 -3.60037 0
M  V30 6028 C 558.234 -1.4647 -4.25284 0
M  V30 6029 C 559.553 0.619877 -4.35713 0
M  V30 6030 H 556.672 -0.0395438 -0.735938 0
M  V30 6031 H 559.314 -0.781126 -1.73201 0
M  V30 6032 H 557.464 0.50871 -3.85155 0
M  V30 6033 H 559.136 -2.08785 -4.11347 0
M  V30 6034 H 557.379 -2.02502 -3.83634 0
M  V30 6035 H 558.05 -1.39069 -5.34195 0
M  V30 6036 H 560.526 0.130297 -4.15896 0
M  V30 6037 H 559.402 0.615224 -5.45441 0
M  V30 6038 H 559.663 1.68621 -4.0868 0
M  V30 6039 N 558.722 1.53707 -0.348139 0
M  V30 6040 C 560.138 1.596 0.00361134 0
M  V30 6041 C 560.338 1.36394 1.4832 0
M  V30 6042 O 559.394 1.16046 2.24253 0
M  V30 6043 C 560.707 2.97512 -0.436682 0
M  V30 6044 C 562.255 3.10568 -0.389416 0
M  V30 6045 C 562.73 4.50866 -0.805249 0
M  V30 6046 N 564.221 4.56929 -0.759616 0
M  V30 6047 C 564.956 5.63643 -1.05327 0
M  V30 6048 N 564.452 6.78189 -1.41531 0
M  V30 6049 N 566.245 5.5354 -0.977207 0
M  V30 6050 H 558.396 1.67044 -1.31187 0
M  V30 6051 H 560.659 0.782559 -0.535075 0
M  V30 6052 H 560.365 3.19575 -1.46849 0
M  V30 6053 H 560.239 3.76742 0.185744 0
M  V30 6054 H 562.626 2.88226 0.633228 0
M  V30 6055 H 562.707 2.33387 -1.04711 0
M  V30 6056 H 562.351 4.73943 -1.82593 0
M  V30 6057 H 562.281 5.26452 -0.124989 0
M  V30 6058 H 564.772 3.74675 -0.49265 0
M  V30 6059 H 565.085 7.55541 -1.62411 0
M  V30 6060 H 563.43 6.79624 -1.45381 0
M  V30 6061 H 566.621 4.62932 -0.693675 0
M  V30 6062 H 566.794 6.36614 -1.2094 0
M  V30 6063 N 560.2 0.0768682 1.57412 0
M  V30 6064 C 561.449 -0.590679 1.92857 0
M  V30 6065 C 561.762 -1.70461 0.959293 0
M  V30 6066 O 562.968 -2.43207 1.20675 0
M  V30 6067 C 561.424 -1.10204 3.42612 0
M  V30 6068 C 561.032 -0.0188447 4.47996 0
M  V30 6069 C 562.776 -1.74336 3.87049 0
M  V30 6070 C 560.683 -0.544536 5.88888 0
M  V30 6071 H 559.613 -0.224411 0.71983 0
M  V30 6072 H 562.264 0.149924 1.82887 0
M  V30 6073 H 560.646 -1.89577 3.47673 0
M  V30 6074 H 561.82 0.755936 4.54557 0
M  V30 6075 H 560.135 0.526555 4.13057 0
M  V30 6076 H 562.732 -2.14708 4.89699 0
M  V30 6077 H 563.075 -2.60537 3.24694 0
M  V30 6078 H 563.608 -1.01577 3.84613 0
M  V30 6079 H 560.347 0.280426 6.549 0
M  V30 6080 H 559.867 -1.28673 5.85836 0
M  V30 6081 H 561.546 -1.01933 6.3892 0
M  V30 6082 N 561.678 -1.56367 -0.196722 0
M  V30 6083 C 562.924 -1.81698 -0.914182 0
M  V30 6084 C 563.279 -0.65367 -1.80956 0
M  V30 6085 O 562.572 0.351224 -1.88353 0
M  V30 6086 C 562.766 -3.10663 -1.767 0
M  V30 6087 C 562.595 -4.39428 -0.955689 0
M  V30 6088 C 561.365 -5.01221 -0.64076 0
M  V30 6089 C 563.563 -5.1337 -0.309165 0
M  V30 6090 N 561.545 -6.13608 0.189358 0
M  V30 6091 C 562.916 -6.18815 0.383225 0
M  V30 6092 C 564.971 -4.97393 -0.224726 0
M  V30 6093 C 563.674 -7.10015 1.15201 0
M  V30 6094 C 565.7 -5.89014 0.530658 0
M  V30 6095 C 565.062 -6.93903 1.2115 0
M  V30 6096 H 561.161 -0.716203 -0.31397 0
M  V30 6097 H 563.745 -1.93838 -0.18304 0
M  V30 6098 H 561.916 -2.99762 -2.46976 0
M  V30 6099 H 563.648 -3.24088 -2.42382 0
M  V30 6100 H 560.403 -4.63669 -0.96479 0
M  V30 6101 H 560.827 -6.74389 0.593979 0
M  V30 6102 H 565.469 -4.16331 -0.736754 0
M  V30 6103 H 563.187 -7.9054 1.67547 0
M  V30 6104 H 566.773 -5.78726 0.597326 0
M  V30 6105 H 565.653 -7.63576 1.78665 0
M  V30 6106 N 563.156 0.464375 -1.50603 0
M  V30 6107 C 564.104 1.58224 -1.70493 0
M  V30 6108 C 565.098 1.59492 -0.570836 0
M  V30 6109 O 566.304 1.63561 -0.751517 0
M  V30 6110 H 562.679 0.525161 -0.538247 0
M  V30 6111 H 564.65 1.38613 -2.64252 0
M  V30 6112 C 563.399 2.96113 -1.82243 0
M  V30 6113 H 562.722 2.95858 -2.68901 0
M  V30 6114 H 564.162 3.73769 -2.00182 0
M  V30 6115 C 562.621 3.31946 -0.575628 0
M  V30 6116 O 563.151 4.00708 0.282152 0
M  V30 6117 N 561.357 2.87436 -0.427665 0
M  V30 6118 H 560.904 2.31652 -1.12674 0
M  V30 6119 H 560.862 3.11776 0.405379 0
M  V30 6120 N 564.634 1.40294 0.718013 0
M  V30 6121 C 565.581 1.40367 1.8321 0
M  V30 6122 C 566.551 0.260952 1.64037 0
M  V30 6123 O 567.736 0.458648 1.85205 0
M  V30 6124 C 564.876 1.26965 3.20895 0
M  V30 6125 C 563.989 2.50922 3.51656 0
M  V30 6126 C 563.124 2.29981 4.78834 0
M  V30 6127 C 562.163 3.49527 5.02491 0
M  V30 6128 N 561.3 3.27796 6.20882 0
M  V30 6129 H 566.14 2.35593 1.82482 0
M  V30 6130 H 563.677 1.17012 0.891444 0
M  V30 6131 H 565.635 1.17202 4.00399 0
M  V30 6132 H 564.265 0.353591 3.20858 0
M  V30 6133 H 563.317 2.71223 2.66725 0
M  V30 6134 H 564.629 3.39913 3.65048 0
M  V30 6135 H 563.783 2.17558 5.66351 0
M  V30 6136 H 562.522 1.38411 4.67647 0
M  V30 6137 H 561.527 3.6243 4.1343 0
M  V30 6138 H 562.752 4.42021 5.15553 0
M  V30 6139 H 560.698 2.38906 6.1095 0
M  V30 6140 H 560.615 4.10351 6.34939 0
M  V30 6141 H 561.883 3.19101 7.11193 0
M  V30 6142 N 566.112 -0.949982 1.2575 0
M  V30 6143 C 567.34 -1.72972 1.13527 0
M  V30 6144 C 567.755 -1.8623 -0.310453 0
M  V30 6145 O 567.112 -1.36336 -1.2132 0
M  V30 6146 C 567.163 -3.14108 1.78936 0
M  V30 6147 O 566.884 -3.01493 3.17858 0
M  V30 6148 C 568.385 -4.08338 1.72554 0
M  V30 6149 H 565.605 -0.541864 0.395758 0
M  V30 6150 H 568.149 -1.19151 1.66202 0
M  V30 6151 H 566.304 -3.64858 1.30221 0
M  V30 6152 H 566.718 -3.90559 3.50092 0
M  V30 6153 H 568.192 -5.04963 2.22973 0
M  V30 6154 H 568.669 -4.33742 0.690251 0
M  V30 6155 H 569.275 -3.63506 2.2078 0
M  V30 6156 N 567.59 -1.07411 -1.15328 0
M  V30 6157 C 569.001 -0.820261 -1.67716 0
M  V30 6158 C 569.352 0.654539 -1.8496 0
M  V30 6159 O 568.477 1.50664 -1.55337 0
M  V30 6160 C 569.072 -1.48242 -3.04647 0
M  V30 6161 C 567.631 -1.27606 -3.5411 0
M  V30 6162 C 566.778 -1.5517 -2.29821 0
M  V30 6163 H 569.729 -1.23608 -0.995332 0
M  V30 6164 H 569.75 -0.903984 -3.69606 0
M  V30 6165 H 569.262 -2.55578 -2.92064 0
M  V30 6166 H 567.363 -0.222948 -3.71932 0
M  V30 6167 H 567.476 -1.99667 -4.35511 0
M  V30 6168 H 565.84 -0.972747 -2.35393 0
M  V30 6169 H 566.623 -2.63689 -2.19824 0
M  V30 6170 N 569.068 1.32177 -0.85831 0
M  V30 6171 C 570.345 1.91781 -0.384624 0
M  V30 6172 C 570.725 1.78171 1.13217 0
M  V30 6173 O 570.073 1.18209 1.95548 0
M  V30 6174 C 570.283 3.38414 -0.853047 0
M  V30 6175 C 571.631 4.15542 -0.872359 0
M  V30 6176 O 572.655 3.47148 -0.797926 0
M  V30 6177 O 571.514 5.37678 -0.978009 0
M  V30 6178 H 568.608 0.819259 -0.112886 0
M  V30 6179 H 571.154 1.40923 -0.945453 0
M  V30 6180 H 569.926 3.4228 -1.89632 0
M  V30 6181 H 569.549 3.96683 -0.269874 0
M  V30 6182 N 570.547 0.616602 1.45037 0
M  V30 6183 C 571.457 -0.0985401 2.34393 0
M  V30 6184 C 572.473 -0.850971 1.51771 0
M  V30 6185 O 573.649 -0.806521 1.84546 0
M  V30 6186 C 570.714 -1.07748 3.29532 0
M  V30 6187 C 569.775 -0.326022 4.2806 0
M  V30 6188 C 569.008 -1.25833 5.18654 0
M  V30 6189 O 569.231 -2.49652 5.12864 0
M  V30 6190 O 568.165 -0.750512 5.97203 0
M  V30 6191 H 571.991 0.636016 2.96966 0
M  V30 6192 H 569.576 0.376832 1.44569 0
M  V30 6193 H 571.458 -1.64107 3.88133 0
M  V30 6194 H 570.133 -1.79291 2.69512 0
M  V30 6195 H 569.04 0.280253 3.73049 0
M  V30 6196 H 570.373 0.349091 4.9096 0
M  V30 6197 N 572.025 -1.5352 0.356285 0
M  V30 6198 C 573.272 -2.01117 -0.236303 0
M  V30 6199 C 573.6 -1.24381 -1.49531 0
M  V30 6200 O 572.855 -0.323057 -1.93015 0
M  V30 6201 C 573.154 -3.52607 -0.583369 0
M  V30 6202 C 572.82 -4.47151 0.58023 0
M  V30 6203 C 571.482 -4.72718 0.899528 0
M  V30 6204 C 573.834 -5.03137 1.36024 0
M  V30 6205 C 571.162 -5.51523 2.00098 0
M  V30 6206 C 573.514 -5.83145 2.45204 0
M  V30 6207 C 572.178 -6.07001 2.77679 0
M  V30 6208 H 571.448 -0.735938 -0.0864695 0
M  V30 6209 H 574.095 -1.85209 0.48683 0
M  V30 6210 H 572.4 -3.66413 -1.38739 0
M  V30 6211 H 574.097 -3.86901 -1.05397 0
M  V30 6212 H 570.687 -4.27394 0.321322 0
M  V30 6213 H 574.871 -4.83339 1.12682 0
M  V30 6214 H 570.127 -5.68229 2.25668 0
M  V30 6215 H 574.301 -6.25537 3.06067 0
M  V30 6216 H 571.928 -6.67851 3.63151 0
M  V30 6217 N 573.503 -0.0852151 -1.57369 0
M  V30 6218 C 574.433 0.874556 -2.16503 0
M  V30 6219 C 575.414 1.30111 -1.09568 0
M  V30 6220 O 576.599 1.36977 -1.37662 0
M  V30 6221 C 573.729 2.13731 -2.73745 0
M  V30 6222 C 572.683 1.84971 -3.85966 0
M  V30 6223 C 572.009 3.17991 -4.29867 0
M  V30 6224 C 573.309 1.14442 -5.09608 0
M  V30 6225 H 575.003 0.381899 -2.96954 0
M  V30 6226 H 572.549 0.18225 -1.42842 0
M  V30 6227 H 574.502 2.81302 -3.13763 0
M  V30 6228 H 573.226 2.65263 -1.90534 0
M  V30 6229 H 571.885 1.19801 -3.46473 0
M  V30 6230 H 571.533 3.6739 -3.4356 0
M  V30 6231 H 571.233 2.99534 -5.05523 0
M  V30 6232 H 572.757 3.86737 -4.72511 0
M  V30 6233 H 574.171 1.72105 -5.46857 0
M  V30 6234 H 572.568 1.06197 -5.90629 0
M  V30 6235 H 573.638 0.12559 -4.84737 0
M  V30 6236 N 574.981 1.5647 0.188427 0
M  V30 6237 C 575.911 1.98101 1.23606 0
M  V30 6238 C 576.892 0.853961 1.47111 0
M  V30 6239 O 578.077 1.11879 1.58735 0
M  V30 6240 C 575.207 2.32624 2.57882 0
M  V30 6241 C 574.161 3.48129 2.48978 0
M  V30 6242 C 573.487 3.68347 3.87588 0
M  V30 6243 C 574.787 4.82112 2.00911 0
M  V30 6244 H 576.481 2.85864 0.890068 0
M  V30 6245 H 574.027 1.37532 0.426714 0
M  V30 6246 H 575.98 2.60343 3.3136 0
M  V30 6247 H 574.704 1.41751 2.94235 0
M  V30 6248 H 573.363 3.20511 1.77956 0
M  V30 6249 H 573.011 2.74793 4.21305 0
M  V30 6250 H 572.711 4.46055 3.82503 0
M  V30 6251 H 574.235 3.98449 4.62678 0
M  V30 6252 H 575.649 5.08819 2.64151 0
M  V30 6253 H 574.046 5.63337 2.06814 0
M  V30 6254 H 575.116 4.75249 0.96262 0
M  V30 6255 N 576.459 -0.456382 1.50847 0
M  V30 6256 C 577.875 -0.791345 1.386 0
M  V30 6257 C 578.075 -1.9633 0.453498 0
M  V30 6258 O 577.131 -2.52308 -0.0984353 0
M  V30 6259 C 578.444 -1.08959 2.80265 0
M  V30 6260 C 579.992 -1.19517 2.89283 0
M  V30 6261 C 580.467 -1.52647 4.31814 0
M  V30 6262 N 581.958 -1.59609 4.34832 0
M  V30 6263 C 582.693 -1.86777 5.42127 0
M  V30 6264 N 582.189 -2.11866 6.59609 0
M  V30 6265 N 583.982 -1.88402 5.29586 0
M  V30 6266 H 576.133 0.315746 2.1004 0
M  V30 6267 H 578.396 0.0787916 0.94472 0
M  V30 6268 H 578.102 -0.301355 3.50407 0
M  V30 6269 H 577.976 -2.02211 3.18419 0
M  V30 6270 H 580.363 -1.97406 2.19351 0
M  V30 6271 H 580.444 -0.242111 2.54652 0
M  V30 6272 H 580.088 -0.752922 5.02288 0
M  V30 6273 H 580.018 -2.49127 4.63943 0
M  V30 6274 H 582.509 -1.42201 3.50125 0
M  V30 6275 H 582.822 -2.31912 7.37182 0
M  V30 6276 H 581.167 -2.09228 6.62758 0
M  V30 6277 H 584.358 -1.68307 4.36795 0
M  V30 6278 H 584.531 -2.09238 6.13289 0
M  V30 6279 N 577.937 -1.40673 -0.710563 0
M  V30 6280 C 578.9 -1.4108 -1.80635 0
M  V30 6281 C 579.9 -0.303783 -1.57904 0
M  V30 6282 O 581.09 -0.562937 -1.64853 0
M  V30 6283 C 578.222 -1.20748 -3.18799 0
M  V30 6284 H 579.415 -2.38612 -1.81671 0
M  V30 6285 H 576.968 -1.26595 -0.916704 0
M  V30 6286 H 577.703 -0.239964 -3.23411 0
M  V30 6287 H 577.488 -2.00941 -3.36698 0
M  V30 6288 H 578.978 -1.23833 -3.98817 0
M  V30 6289 N 579.415 0.9433 -1.26252 0
M  V30 6290 C 580.378 2.02326 -1.07689 0
M  V30 6291 C 581.378 1.60779 -0.0259174 0
M  V30 6292 O 582.568 1.72108 -0.269134 0
M  V30 6293 C 579.7 3.34886 -0.63752 0
M  V30 6294 H 580.893 2.20225 -2.0357 0
M  V30 6295 H 578.446 1.12197 -1.08819 0
M  V30 6296 H 579.181 3.22684 0.323377 0
M  V30 6297 H 578.966 3.66393 -1.39637 0
M  V30 6298 H 580.456 4.14231 -0.529418 0
M  V30 6299 N 580.893 1.08022 1.14757 0
M  V30 6300 C 581.803 0.718292 2.23333 0
M  V30 6301 C 582.819 -0.273477 1.71837 0
M  V30 6302 O 583.995 -0.118406 2.01052 0
M  V30 6303 C 581.06 0.128855 3.4646 0
M  V30 6304 C 580.121 1.17473 4.12915 0
M  V30 6305 C 579.354 0.61333 5.30164 0
M  V30 6306 O 579.577 -0.568458 5.6756 0
M  V30 6307 O 578.511 1.3615 5.86299 0
M  V30 6308 H 582.337 1.62394 2.56636 0
M  V30 6309 H 579.922 0.853628 1.22611 0
M  V30 6310 H 581.804 -0.197249 4.20938 0
M  V30 6311 H 580.479 -0.750014 3.14891 0
M  V30 6312 H 579.386 1.5533 3.40328 0
M  V30 6313 H 580.719 2.02574 4.48581 0
M  V30 6314 N 582.371 -1.3172 0.865308 0
M  V30 6315 C 583.301 -2.31109 0.333302 0
M  V30 6316 C 584.282 -1.60148 -0.573301 0
M  V30 6317 O 585.467 -1.87882 -0.491305 0
M  V30 6318 C 582.597 -3.44104 -0.470078 0
M  V30 6319 C 581.551 -4.26623 0.343021 0
M  V30 6320 C 580.877 -5.31482 -0.585756 0
M  V30 6321 C 582.177 -4.98001 1.57456 0
M  V30 6322 H 583.871 -2.75855 1.1638 0
M  V30 6323 H 581.417 -1.3262 0.561069 0
M  V30 6324 H 583.37 -4.12682 -0.852752 0
M  V30 6325 H 582.094 -2.98112 -1.33404 0
M  V30 6326 H 580.753 -3.59707 0.707583 0
M  V30 6327 H 580.401 -4.81741 -1.44686 0
M  V30 6328 H 580.101 -5.87582 -0.0456494 0
M  V30 6329 H 581.625 -6.0292 -0.965375 0
M  V30 6330 H 583.039 -5.59201 1.26359 0
M  V30 6331 H 581.436 -5.63876 2.05339 0
M  V30 6332 H 582.506 -4.25253 2.32997 0
M  V30 6333 N 583.85 -0.624285 -1.44708 0
M  V30 6334 C 585.077 -0.132919 -2.06473 0
M  V30 6335 C 585.493 1.18967 -1.46602 0
M  V30 6336 O 584.85 1.72824 -0.586341 0
M  V30 6337 C 584.901 -0.00465418 -3.615 0
M  V30 6338 O 584.622 -1.27494 -4.19138 0
M  V30 6339 C 586.123 0.516213 -4.40284 0
M  V30 6340 H 583.343 -0.0765201 -0.666623 0
M  V30 6341 H 585.887 -0.856751 -1.85688 0
M  V30 6342 H 584.042 0.669583 -3.8157 0
M  V30 6343 H 584.456 -1.11536 -5.12504 0
M  V30 6344 H 585.93 0.554994 -5.49203 0
M  V30 6345 H 586.407 1.5419 -4.11245 0
M  V30 6346 H 587.013 -0.124542 -4.25118 0
M  V30 6347 N 585.328 1.53329 -0.364422 0
M  V30 6348 C 586.744 1.59594 -0.0133165 0
M  V30 6349 C 586.944 1.37959 1.46865 0
M  V30 6350 O 586 1.18418 2.2301 0
M  V30 6351 C 587.313 2.97032 -0.468213 0
M  V30 6352 C 588.861 3.10138 -0.422334 0
M  V30 6353 C 589.336 4.49986 -0.853024 0
M  V30 6354 N 590.827 4.56098 -0.808037 0
M  V30 6355 C 591.562 5.62495 -1.11299 0
M  V30 6356 N 591.058 6.7665 -1.48717 0
M  V30 6357 N 592.851 5.52473 -1.03586 0
M  V30 6358 H 585.002 1.65644 -1.32951 0
M  V30 6359 H 587.265 0.77684 -0.543345 0
M  V30 6360 H 586.971 3.18 -1.5023 0
M  V30 6361 H 586.845 3.76918 0.145775 0
M  V30 6362 H 589.232 2.88881 0.602622 0
M  V30 6363 H 589.313 2.32263 -1.0718 0
M  V30 6364 H 588.957 4.7198 -1.87609 0
M  V30 6365 H 588.887 5.26289 -0.180819 0
M  V30 6366 H 591.378 3.74131 -0.532361 0
M  V30 6367 H 591.691 7.53776 -1.70415 0
M  V30 6368 H 590.036 6.78044 -1.52581 0
M  V30 6369 H 593.227 4.6217 -0.742736 0
M  V30 6370 H 593.4 6.35295 -1.27686 0
M  V30 6371 N 586.806 0.0935595 1.57322 0
M  V30 6372 C 587.716 -0.880192 2.17462 0
M  V30 6373 C 588.732 -1.31135 1.14366 0
M  V30 6374 O 589.908 -1.37958 1.46729 0
M  V30 6375 C 586.973 -2.12184 2.74188 0
M  V30 6376 C 586.034 -1.74503 3.92234 0
M  V30 6377 C 585.267 -2.92748 4.46245 0
M  V30 6378 O 585.49 -4.07427 3.99198 0
M  V30 6379 O 584.424 -2.71303 5.37288 0
M  V30 6380 H 588.25 -0.398516 3.01074 0
M  V30 6381 H 585.835 -0.130707 1.48827 0
M  V30 6382 H 587.717 -2.84953 3.10451 0
M  V30 6383 H 586.392 -2.59407 1.93623 0
M  V30 6384 H 585.299 -0.989186 3.60785 0
M  V30 6385 H 586.632 -1.32044 4.74157 0
M  V30 6386 N 588.284 -1.56567 -0.180126 0
M  V30 6387 C 589.532 -1.81133 -0.896392 0
M  V30 6388 C 589.853 -0.669114 -1.83161 0
M  V30 6389 O 589.123 0.311616 -1.93406 0
M  V30 6390 H 587.703 -0.668172 -0.333999 0
M  V30 6391 H 590.365 -1.94048 -0.182051 0
M  V30 6392 H 589.461 -2.74854 -1.47857 0
M  V30 6393 N 589.762 0.448376 -1.51087 0
M  V30 6394 C 590.692 1.55102 -1.74544 0
M  V30 6395 C 591.673 1.59357 -0.594932 0
M  V30 6396 O 592.858 1.75261 -0.836491 0
M  V30 6397 C 589.988 2.93268 -1.86041 0
M  V30 6398 C 588.942 3.03877 -3.01402 0
M  V30 6399 C 588.268 4.43914 -2.98068 0
M  V30 6400 C 589.568 2.7898 -4.41551 0
M  V30 6401 H 591.262 1.35724 -2.66869 0
M  V30 6402 H 588.808 0.651498 -1.28419 0
M  V30 6403 H 590.761 3.70356 -2.01034 0
M  V30 6404 H 589.485 3.13853 -0.903548 0
M  V30 6405 H 588.144 2.29227 -2.86096 0
M  V30 6406 H 587.792 4.6145 -2.00182 0
M  V30 6407 H 587.492 4.51944 -3.75527 0
M  V30 6408 H 589.016 5.22991 -3.1514 0
M  V30 6409 H 590.43 3.45805 -4.57265 0
M  V30 6410 H 588.827 2.98431 -5.20633 0
M  V30 6411 H 589.897 1.74663 -4.5235 0
M  V30 6412 N 591.24 1.41047 0.703093 0
M  V30 6413 C 592.488 1.39723 1.4602 0
M  V30 6414 C 592.809 0.00461257 1.94999 0
M  V30 6415 O 592.079 -0.952292 1.71196 0
M  V30 6416 H 590.659 0.514281 0.541779 0
M  V30 6417 H 593.321 1.76217 0.832678 0
M  V30 6418 H 592.417 2.07982 2.32701 0
M  V30 6419 N 592.718 -0.936591 1.26751 0
M  V30 6420 C 593.648 -2.05315 1.11212 0
M  V30 6421 C 594.629 -1.70092 0.0160262 0
M  V30 6422 O 595.814 -1.93279 0.188894 0
M  V30 6423 C 592.944 -3.39123 0.749171 0
M  V30 6424 C 591.898 -3.88425 1.79751 0
M  V30 6425 C 591.224 -5.18936 1.28876 0
M  V30 6426 C 592.524 -4.12798 3.19992 0
M  V30 6427 H 594.218 -2.18573 2.04613 0
M  V30 6428 H 591.764 -1.05027 0.985159 0
M  V30 6429 H 593.717 -4.16704 0.627323 0
M  V30 6430 H 592.441 -3.25855 -0.220543 0
M  V30 6431 H 591.1 -3.13028 1.90811 0
M  V30 6432 H 590.748 -5.02051 0.308757 0
M  V30 6433 H 590.448 -5.52892 1.98958 0
M  V30 6434 H 591.972 -5.99096 1.17967 0
M  V30 6435 H 593.386 -4.80977 3.11983 0
M  V30 6436 H 591.783 -4.58044 3.87705 0
M  V30 6437 H 592.853 -3.18412 3.65707 0
M  V30 6438 N 594.196 -1.08629 -1.14182 0
M  V30 6439 C 595.607 -0.838003 -1.66836 0
M  V30 6440 C 595.958 0.634885 -1.85644 0
M  V30 6441 O 595.083 1.49008 -1.56926 0
M  V30 6442 C 595.678 -1.51465 -3.03058 0
M  V30 6443 C 594.237 -1.31355 -3.52736 0
M  V30 6444 C 593.384 -1.57599 -2.28162 0
M  V30 6445 H 596.335 -1.24656 -0.982165 0
M  V30 6446 H 596.356 -0.943134 -3.68626 0
M  V30 6447 H 595.868 -2.58661 -2.89337 0
M  V30 6448 H 593.969 -0.262384 -3.71675 0
M  V30 6449 H 594.082 -2.04275 -4.33369 0
M  V30 6450 H 592.446 -0.997659 -2.34348 0
M  V30 6451 H 593.229 -2.66006 -2.17015 0
M  V30 6452 N 595.674 1.31259 -0.872281 0
M  V30 6453 C 596.637 2.26744 -0.334656 0
M  V30 6454 C 597.637 1.52307 0.515681 0
M  V30 6455 O 598.827 1.71148 0.324656 0
M  V30 6456 C 595.959 3.36841 0.524482 0
M  V30 6457 H 597.152 2.75812 -1.17762 0
M  V30 6458 H 594.705 1.42232 -0.648064 0
M  V30 6459 H 595.44 2.93069 1.38855 0
M  V30 6460 H 595.225 3.92009 -0.0844299 0
M  V30 6461 H 596.715 4.07944 0.892838 0
M  V30 6462 N 597.152 0.631951 1.44375 0
M  V30 6463 C 598.382 0.143658 2.061 0
M  V30 6464 C 598.79 -1.18733 1.47306 0
M  V30 6465 O 598.133 -1.73943 0.590724 0
M  V30 6466 C 598.195 -0.0446102 3.59472 0
M  V30 6467 C 597.859 1.20835 4.40736 0
M  V30 6468 C 598.856 2.13224 4.74164 0
M  V30 6469 C 596.541 1.44399 4.81097 0
M  V30 6470 C 598.535 3.27487 5.46838 0
M  V30 6471 C 596.222 2.58959 5.53519 0
M  V30 6472 C 597.22 3.50329 5.86309 0
M  V30 6473 O 596.908 4.62891 6.57257 0
M  V30 6474 H 596.64 0.0772939 0.671567 0
M  V30 6475 H 599.194 0.866677 1.8622 0
M  V30 6476 H 597.424 -0.822783 3.77845 0
M  V30 6477 H 599.113 -0.487561 4.02961 0
M  V30 6478 H 599.879 1.96253 4.4352 0
M  V30 6479 H 595.758 0.741696 4.54994 0
M  V30 6480 H 599.302 3.98826 5.72349 0
M  V30 6481 H 595.199 2.75873 5.83579 0
M  V30 6482 H 595.967 4.61883 6.75726 0
M  V30 6483 N 598.631 -1.53133 0.372548 0
M  V30 6484 C 599.861 -2.05476 -0.215202 0
M  V30 6485 C 600.269 -1.24534 -1.42436 0
M  V30 6486 O 599.612 -0.280771 -1.81542 0
M  V30 6487 C 599.674 -3.53276 -0.666068 0
M  V30 6488 C 599.338 -4.54998 0.427342 0
M  V30 6489 C 600.335 -5.03911 1.27944 0
M  V30 6490 C 598.02 -4.98828 0.589579 0
M  V30 6491 C 600.014 -5.95263 2.27905 0
M  V30 6492 C 597.701 -5.89984 1.59255 0
M  V30 6493 C 598.699 -6.38093 2.43571 0
M  V30 6494 O 598.387 -7.27451 3.42156 0
M  V30 6495 H 598.119 -0.67481 -0.040099 0
M  V30 6496 H 600.673 -1.98409 0.531312 0
M  V30 6497 H 598.903 -3.57904 -1.4643 0
M  V30 6498 H 600.592 -3.88442 -1.1776 0
M  V30 6499 H 601.358 -4.70792 1.16532 0
M  V30 6500 H 597.237 -4.60965 -0.0569456 0
M  V30 6501 H 600.781 -6.32736 2.93753 0
M  V30 6502 H 596.678 -6.22518 1.70711 0
M  V30 6503 H 597.446 -7.45467 3.37967 0
M  V30 6504 N 600.109 -0.101901 -1.5727 0
M  V30 6505 C 601.057 0.872034 -2.15635 0
M  V30 6506 C 602.051 1.28742 -1.10099 0
M  V30 6507 O 603.257 1.26116 -1.28432 0
M  V30 6508 H 599.632 0.299269 -0.689886 0
M  V30 6509 H 601.603 0.355137 -2.96279 0
M  V30 6510 C 600.352 2.11886 -2.7568 0
M  V30 6511 H 599.675 1.80813 -3.56576 0
M  V30 6512 H 601.115 2.78077 -3.20077 0
M  V30 6513 C 599.574 2.89739 -1.7191 0
M  V30 6514 O 600.104 3.84522 -1.16213 0
M  V30 6515 N 598.31 2.53407 -1.42245 0
M  V30 6516 H 597.857 1.76398 -1.87727 0
M  V30 6517 H 597.815 3.05795 -0.730529 0
M  V30 6518 N 601.587 1.56661 0.17182 0
M  V30 6519 C 602.864 1.72838 0.915778 0
M  V30 6520 C 603.244 0.66316 2.00413 0
M  V30 6521 O 602.592 -0.322123 2.26218 0
M  V30 6522 C 602.802 3.16019 1.48097 0
M  V30 6523 C 604.15 3.76962 1.95408 0
M  V30 6524 O 605.174 3.19294 1.57892 0
M  V30 6525 O 604.033 4.78219 2.64516 0
M  V30 6526 H 601.127 0.705797 0.431021 0
M  V30 6527 H 603.673 1.68947 0.159689 0
M  V30 6528 H 602.445 3.85031 0.697618 0
M  V30 6529 H 602.068 3.24234 2.30126 0
M  V30 6530 N 603.065 -0.440357 1.51323 0
M  V30 6531 C 603.975 -1.55955 1.75258 0
M  V30 6532 C 604.991 -1.61933 0.636687 0
M  V30 6533 O 606.167 -1.79231 0.918593 0
M  V30 6534 C 603.232 -2.9196 1.86977 0
M  V30 6535 C 602.293 -2.96122 3.10822 0
M  V30 6536 C 601.526 -4.2564 3.21973 0
M  V30 6537 O 601.749 -5.17851 2.39137 0
M  V30 6538 O 600.683 -4.36025 4.14929 0
M  V30 6539 H 604.509 -1.38673 2.70191 0
M  V30 6540 H 602.094 -0.623055 1.35788 0
M  V30 6541 H 603.976 -3.72682 1.96688 0
M  V30 6542 H 602.651 -3.09375 0.952307 0
M  V30 6543 H 601.558 -2.14366 3.06591 0
M  V30 6544 H 602.891 -2.83651 4.02247 0
M  V30 6545 N 604.543 -1.41418 -0.695603 0
M  V30 6546 C 605.789 -1.40982 -1.4578 0
M  V30 6547 C 606.122 -0.0187763 -1.94191 0
M  V30 6548 O 605.397 0.95346 -1.69527 0
M  V30 6549 C 605.68 -2.41657 -2.66972 0
M  V30 6550 C 605.533 -3.89869 -2.24327 0
M  V30 6551 C 606.852 -2.39589 -3.69168 0
M  V30 6552 H 603.971 -0.513405 -0.528757 0
M  V30 6553 H 606.613 -1.72693 -0.792275 0
M  V30 6554 H 604.763 -2.14746 -3.23754 0
M  V30 6555 H 606.435 -4.27683 -1.72872 0
M  V30 6556 H 604.678 -4.04737 -1.56111 0
M  V30 6557 H 605.349 -4.55857 -3.11285 0
M  V30 6558 H 607.825 -2.63471 -3.2206 0
M  V30 6559 H 606.701 -3.12044 -4.51575 0
M  V30 6560 H 606.962 -1.41447 -4.18862 0
M  V30 6561 N 606.021 0.929856 -1.27246 0
M  V30 6562 C 607.27 1.67182 -1.12842 0
M  V30 6563 C 607.583 1.9287 0.325666 0
M  V30 6564 O 608.789 2.64999 0.590572 0
M  V30 6565 C 607.245 3.01097 -1.97151 0
M  V30 6566 C 606.853 2.83115 -3.47203 0
M  V30 6567 C 608.597 3.78907 -1.91389 0
M  V30 6568 C 606.504 4.12573 -4.23719 0
M  V30 6569 H 605.434 0.627064 -0.418697 0
M  V30 6570 H 608.085 1.0332 -1.51649 0
M  V30 6571 H 606.467 3.66004 -1.51186 0
M  V30 6572 H 607.641 2.26989 -4.01015 0
M  V30 6573 H 605.956 2.18736 -3.54321 0
M  V30 6574 H 608.553 4.74837 -2.45834 0
M  V30 6575 H 608.896 4.0674 -0.887047 0
M  V30 6576 H 609.429 3.20794 -2.35237 0
M  V30 6577 H 606.168 3.8992 -5.26918 0
M  V30 6578 H 605.688 4.68371 -3.74685 0
M  V30 6579 H 607.367 4.8095 -4.32777 0
M  V30 6580 N 607.499 1.09233 1.13605 0
M  V30 6581 C 608.748 0.82205 1.84188 0
M  V30 6582 C 609.061 -0.654548 1.84323 0
M  V30 6583 O 610.267 -1.04029 2.50779 0
M  V30 6584 C 608.723 1.42066 3.30674 0
M  V30 6585 C 608.331 2.92965 3.38933 0
M  V30 6586 C 610.075 1.22924 4.06313 0
M  V30 6587 C 607.982 3.45922 4.79679 0
M  V30 6588 H 606.912 0.303854 0.690064 0
M  V30 6589 H 609.563 1.31479 1.28006 0
M  V30 6590 H 607.945 0.855613 3.86646 0
M  V30 6591 H 609.119 3.55679 2.92966 0
M  V30 6592 H 607.434 3.11118 2.76757 0
M  V30 6593 H 610.031 1.59945 5.10217 0
M  V30 6594 H 610.374 0.169726 4.15954 0
M  V30 6595 H 610.907 1.76168 3.56665 0
M  V30 6596 H 607.646 4.51484 4.75229 0
M  V30 6597 H 607.166 2.87971 5.26149 0
M  V30 6598 H 608.845 3.43009 5.48592 0
M  V30 6599 N 608.977 -1.30795 0.87923 0
M  V30 6600 C 610.388 -1.78535 0.546093 0
M  V30 6601 C 610.739 -1.72354 -0.937467 0
M  V30 6602 O 609.864 -1.2969 -1.73233 0
M  V30 6603 C 610.459 -3.24181 0.9845 0
M  V30 6604 C 609.018 -3.69779 0.702871 0
M  V30 6605 C 608.165 -2.51377 1.17068 0
M  V30 6606 H 611.116 -1.17746 1.06403 0
M  V30 6607 H 611.137 -3.79227 0.311045 0
M  V30 6608 H 610.649 -3.28647 2.06429 0
M  V30 6609 H 608.75 -3.70806 -0.365166 0
M  V30 6610 H 608.863 -4.61507 1.28639 0
M  V30 6611 H 607.227 -2.47768 0.590172 0
M  V30 6612 H 608.01 -2.58584 2.25808 0
M  V30 6613 N 610.455 -0.639598 -1.44038 0
M  V30 6614 C 611.418 0.0506628 -2.29144 0
M  V30 6615 C 612.418 0.764001 -1.41491 0
M  V30 6616 O 613.608 0.607309 -1.63271 0
M  V30 6617 C 610.74 1.0824 -3.2326 0
M  V30 6618 H 611.933 -0.697987 -2.91664 0
M  V30 6619 H 609.486 -0.400146 -1.51091 0
M  V30 6620 H 610.221 1.86075 -2.65606 0
M  V30 6621 H 610.006 0.574725 -3.87865 0
M  V30 6622 H 611.496 1.56487 -3.87171 0
M  V30 6623 N 611.933 1.52934 -0.380664 0
M  V30 6624 C 612.863 2.29118 0.450268 0
M  V30 6625 C 613.844 1.32153 1.07096 0
M  V30 6626 O 615.029 1.61038 1.08537 0
M  V30 6627 C 612.159 3.09161 1.58231 0
M  V30 6628 C 611.113 4.13938 1.0881 0
M  V30 6629 C 610.439 4.82153 2.31155 0
M  V30 6630 C 611.739 5.22048 0.162146 0
M  V30 6631 H 613.433 2.98826 -0.185361 0
M  V30 6632 H 610.979 1.43715 -0.0905886 0
M  V30 6633 H 612.932 3.61211 2.17036 0
M  V30 6634 H 611.656 2.3717 2.2454 0
M  V30 6635 H 610.315 3.62855 0.522633 0
M  V30 6636 H 609.963 4.06719 2.95953 0
M  V30 6637 H 609.663 5.52966 1.98752 0
M  V30 6638 H 611.187 5.37004 2.90618 0
M  V30 6639 H 612.601 5.6951 0.658126 0
M  V30 6640 H 610.998 6.00057 -0.0717122 0
M  V30 6641 H 612.068 4.78398 -0.791438 0
M  V30 6642 N 613.412 0.11024 1.57214 0
M  V30 6643 C 614.658 -0.550684 1.9518 0
M  V30 6644 C 614.991 -1.66885 0.993122 0
M  V30 6645 O 614.266 -1.94479 0.0287907 0
M  V30 6646 C 614.549 -1.09163 3.43155 0
M  V30 6647 C 614.402 0.0225198 4.49794 0
M  V30 6648 C 615.721 -1.98527 3.92778 0
M  V30 6649 H 612.84 -0.198706 0.709708 0
M  V30 6650 H 615.482 0.184024 1.89107 0
M  V30 6651 H 613.632 -1.71775 3.48462 0
M  V30 6652 H 615.304 0.657443 4.56591 0
M  V30 6653 H 613.547 0.686868 4.28328 0
M  V30 6654 H 614.218 -0.39706 5.5057 0
M  V30 6655 H 616.694 -1.458 3.8972 0
M  V30 6656 H 615.57 -2.33298 4.96853 0
M  V30 6657 H 615.831 -2.90846 3.32958 0
M  V30 6658 N 614.89 -1.56749 -0.16351 0
M  V30 6659 C 616.115 -1.86938 -0.898264 0
M  V30 6660 C 616.54 -0.697456 -1.74692 0
M  V30 6661 O 615.898 0.353327 -1.77824 0
M  V30 6662 C 615.946 -3.15599 -1.74441 0
M  V30 6663 O 615.05 -2.98371 -2.8469 0
M  V30 6664 H 614.391 -0.614659 -0.251178 0
M  V30 6665 H 616.921 -2.03979 -0.159298 0
M  V30 6666 H 616.931 -3.47202 -2.14277 0
M  V30 6667 H 615.606 -4.00505 -1.1211 0
M  V30 6668 H 614.183 -2.7814 -2.4838 0
M  V30 6669 N 616.368 0.432326 -1.51554 0
M  V30 6670 C 617.784 0.769195 -1.39841 0
M  V30 6671 C 617.984 1.95584 -0.484675 0
M  V30 6672 O 617.04 2.52433 0.0582829 0
M  V30 6673 C 618.353 1.04487 -2.81963 0
M  V30 6674 C 619.901 1.149 -2.91148 0
M  V30 6675 C 620.376 1.45758 -4.34187 0
M  V30 6676 N 621.867 1.52671 -4.37317 0
M  V30 6677 C 622.602 1.78129 -5.4503 0
M  V30 6678 N 622.098 2.01345 -6.62897 0
M  V30 6679 N 623.891 1.79953 -5.32516 0
M  V30 6680 H 616.042 -0.349122 -2.09511 0
M  V30 6681 H 618.305 -0.0938113 -0.943347 0
M  V30 6682 H 618.011 0.24557 -3.50842 0
M  V30 6683 H 617.885 1.97119 -3.21596 0
M  V30 6684 H 620.272 1.93891 -2.22464 0
M  V30 6685 H 620.353 0.201568 -2.55005 0
M  V30 6686 H 619.997 0.672917 -5.03423 0
M  V30 6687 H 619.927 2.41715 -4.67848 0
M  V30 6688 H 622.418 1.36612 -3.52343 0
M  V30 6689 H 622.731 2.20155 -7.40778 0
M  V30 6690 H 621.076 1.98657 -6.66003 0
M  V30 6691 H 624.267 1.61337 -4.39418 0
M  V30 6692 H 624.44 1.99455 -6.1654 0
M  V30 6693 N 617.846 1.41785 0.688094 0
M  V30 6694 C 619.094 1.41264 1.4453 0
M  V30 6695 C 619.415 0.0252946 1.94984 0
M  V30 6696 O 618.685 -0.934081 1.72197 0
M  V30 6697 H 617.265 0.519998 0.536294 0
M  V30 6698 H 619.927 1.7709 0.813941 0
M  V30 6699 H 619.023 2.10439 2.30482 0
M  V30 6700 N 619.324 -0.923095 1.27737 0
M  V30 6701 C 620.254 -2.04124 1.13383 0
M  V30 6702 C 621.235 -1.70066 0.0340658 0
M  V30 6703 O 622.42 -1.93068 0.209383 0
M  V30 6704 C 619.55 -3.3831 0.785097 0
M  V30 6705 C 618.504 -3.86496 1.8386 0
M  V30 6706 C 617.83 -5.1754 1.34373 0
M  V30 6707 C 619.13 -4.09381 3.24353 0
M  V30 6708 H 620.824 -2.1639 2.06919 0
M  V30 6709 H 618.37 -1.03976 0.996243 0
M  V30 6710 H 620.323 -4.16016 0.671485 0
M  V30 6711 H 619.047 -3.2607 -0.185969 0
M  V30 6712 H 617.706 -3.10987 1.9412 0
M  V30 6713 H 617.354 -5.01696 0.361989 0
M  V30 6714 H 617.054 -5.50751 2.04811 0
M  V30 6715 H 618.578 -5.97811 1.24315 0
M  V30 6716 H 619.992 -4.77641 3.17067 0
M  V30 6717 H 618.389 -4.53906 3.92542 0
M  V30 6718 H 619.459 -3.14515 3.69064 0
M  V30 6719 N 620.802 -1.09834 -1.13024 0
M  V30 6720 C 622.03 -0.858902 -1.8823 0
M  V30 6721 C 622.445 0.590164 -1.79339 0
M  V30 6722 O 621.802 1.4065 -1.16292 0
M  V30 6723 C 621.853 -1.29066 -3.37675 0
M  V30 6724 O 621.574 -2.6829 -3.46341 0
M  V30 6725 C 623.075 -1.08421 -4.29837 0
M  V30 6726 H 620.295 -0.308713 -0.595766 0
M  V30 6727 H 622.839 -1.4614 -1.4305 0
M  V30 6728 H 620.994 -0.731961 -3.80422 0
M  V30 6729 H 621.408 -2.86598 -4.39274 0
M  V30 6730 H 622.882 -1.43553 -5.33007 0
M  V30 6731 H 623.359 -0.0223315 -4.39194 0
M  V30 6732 H 623.965 -1.62907 -3.92863 0
M  V30 6733 N 622.28 1.30327 -0.886154 0
M  V30 6734 C 623.21 2.30549 -0.370028 0
M  V30 6735 C 624.191 1.61039 0.547751 0
M  V30 6736 O 625.376 1.8864 0.461353 0
M  V30 6737 C 622.506 3.44808 0.415275 0
M  V30 6738 C 621.46 4.26024 -0.41085 0
M  V30 6739 C 620.786 5.32347 0.501128 0
M  V30 6740 C 622.086 4.95433 -1.65359 0
M  V30 6741 H 623.78 2.73969 -1.20754 0
M  V30 6742 H 621.326 1.3171 -0.582097 0
M  V30 6743 H 623.279 4.13986 0.78699 0
M  V30 6744 H 622.003 3.00197 1.28644 0
M  V30 6745 H 620.662 3.58535 -0.764719 0
M  V30 6746 H 620.31 4.83982 1.37004 0
M  V30 6747 H 620.01 5.87581 -0.0478356 0
M  V30 6748 H 621.534 6.0438 0.869333 0
M  V30 6749 H 622.948 5.5712 -1.35239 0
M  V30 6750 H 621.345 5.60537 -2.14284 0
M  V30 6751 H 622.415 4.21493 -2.39733 0
M  V30 6752 N 623.758 0.647228 1.43697 0
M  V30 6753 C 624.668 -0.0487997 2.34549 0
M  V30 6754 C 625.684 -0.818586 1.53542 0
M  V30 6755 O 626.86 -0.767195 1.86215 0
M  V30 6756 C 623.925 -1.00734 3.31743 0
M  V30 6757 C 622.986 -0.23515 4.28655 0
M  V30 6758 C 622.219 -1.14803 5.21206 0
M  V30 6759 O 622.442 -2.38717 5.18045 0
M  V30 6760 O 621.376 -0.623667 5.9866 0
M  V30 6761 H 625.202 0.698863 2.9555 0
M  V30 6762 H 622.787 0.407412 1.43738 0
M  V30 6763 H 624.669 -1.55837 3.91526 0
M  V30 6764 H 623.344 -1.73534 2.73254 0
M  V30 6765 H 622.251 0.359319 3.7237 0
M  V30 6766 H 623.584 0.453152 4.9011 0
M  V30 6767 N 625.236 -1.5273 0.388769 0
M  V30 6768 C 626.513 -1.93981 -0.251133 0
M  V30 6769 C 626.893 -1.32418 -1.64404 0
M  V30 6770 O 626.241 -0.492074 -2.23139 0
M  V30 6771 C 626.451 -3.47891 -0.27802 0
M  V30 6772 C 627.799 -4.21559 -0.507229 0
M  V30 6773 O 628.823 -3.54394 -0.358252 0
M  V30 6774 O 627.682 -5.40626 -0.799094 0
M  V30 6775 H 624.776 -0.812157 -0.15598 0
M  V30 6776 H 627.322 -1.63809 0.443237 0
M  V30 6777 H 626.094 -3.8503 0.697669 0
M  V30 6778 H 625.717 -3.84364 -1.01733 0
M  V30 6779 N 626.714 -0.118576 -1.57153 0
M  V30 6780 C 627.677 0.817464 -2.14127 0
M  V30 6781 C 628.677 1.1949 -1.07604 0
M  V30 6782 O 629.867 1.12048 -1.33382 0
M  V30 6783 C 626.999 2.10541 -2.68115 0
M  V30 6784 H 628.192 0.322339 -2.98163 0
M  V30 6785 H 625.745 0.130655 -1.55753 0
M  V30 6786 H 626.48 2.64485 -1.87665 0
M  V30 6787 H 626.265 1.84425 -3.4602 0
M  V30 6788 H 627.755 2.77453 -3.12105 0
M  V30 6789 N 628.193 1.56834 0.155195 0
M  V30 6790 C 629.609 1.51315 0.50755 0
M  V30 6791 C 629.809 0.825614 1.83809 0
M  V30 6792 O 628.865 0.39271 2.49427 0
M  V30 6793 C 630.178 2.96074 0.52542 0
M  V30 6794 C 631.726 3.06968 0.611505 0
M  V30 6795 C 632.201 4.53218 0.660115 0
M  V30 6796 N 633.692 4.5753 0.722564 0
M  V30 6797 C 634.427 5.68056 0.781023 0
M  V30 6798 N 633.923 6.88173 0.799327 0
M  V30 6799 N 635.716 5.56068 0.821278 0
M  V30 6800 H 627.867 1.9993 -0.717063 0
M  V30 6801 H 630.13 0.911507 -0.260496 0
M  V30 6802 H 629.836 3.49599 -0.383875 0
M  V30 6803 H 629.71 3.51587 1.36624 0
M  V30 6804 H 632.097 2.53468 1.51122 0
M  V30 6805 H 632.178 2.54513 -0.256306 0
M  V30 6806 H 631.822 5.07354 -0.23541 0
M  V30 6807 H 631.752 5.03447 1.5443 0
M  V30 6808 H 634.243 3.71054 0.716049 0
M  V30 6809 H 634.556 7.6816 0.845553 0
M  V30 6810 H 632.901 6.90751 0.767337 0
M  V30 6811 H 636.092 4.61142 0.804091 0
M  V30 6812 H 636.265 6.42223 0.863372 0
M  V30 6813 N 629.671 -0.424282 1.51781 0
M  V30 6814 C 630.948 -1.18464 1.55646 0
M  V30 6815 C 631.328 -2.08529 0.328438 0
M  V30 6816 O 630.676 -2.17969 -0.685693 0
M  V30 6817 C 630.886 -1.97514 2.87731 0
M  V30 6818 C 632.234 -2.54106 3.40169 0
M  V30 6819 O 633.258 -2.07711 2.89369 0
M  V30 6820 O 632.117 -3.38759 4.28841 0
M  V30 6821 H 629.211 -0.540055 0.626314 0
M  V30 6822 H 631.757 -0.432291 1.64102 0
M  V30 6823 H 630.529 -1.31444 3.68562 0
M  V30 6824 H 630.152 -2.79787 2.82498 0
M  V30 6825 N 631.149 -1.42148 -0.680565 0
M  V30 6826 C 632.379 -1.45485 -1.46689 0
M  V30 6827 C 632.787 -0.0629451 -1.89095 0
M  V30 6828 O 632.13 0.931397 -1.58337 0
M  V30 6829 C 632.192 -2.31397 -2.75129 0
M  V30 6830 C 631.856 -3.79353 -2.54834 0
M  V30 6831 C 632.853 -4.71148 -2.19808 0
M  V30 6832 C 630.538 -4.23557 -2.70008 0
M  V30 6833 C 632.532 -6.05139 -2.00215 0
M  V30 6834 C 630.219 -5.57609 -2.50031 0
M  V30 6835 C 631.217 -6.48216 -2.15187 0
M  V30 6836 O 630.905 -7.79792 -1.95397 0
M  V30 6837 H 630.637 -0.497139 -0.458071 0
M  V30 6838 H 633.191 -1.87252 -0.844139 0
M  V30 6839 H 631.421 -1.84468 -3.39865 0
M  V30 6840 H 633.11 -2.26257 -3.36991 0
M  V30 6841 H 633.876 -4.38282 -2.07686 0
M  V30 6842 H 629.755 -3.53327 -2.96109 0
M  V30 6843 H 633.299 -6.75823 -1.72941 0
M  V30 6844 H 629.196 -5.9005 -2.61748 0
M  V30 6845 H 629.964 -7.91091 -2.10042 0
M  V30 6846 N 632.627 0.916307 -1.28225 0
M  V30 6847 C 633.875 1.6619 -1.15002 0
M  V30 6848 C 634.196 1.92642 0.302329 0
M  V30 6849 O 633.466 1.54076 1.20985 0
M  V30 6850 H 632.046 0.615964 -0.422608 0
M  V30 6851 H 634.708 1.09963 -1.60917 0
M  V30 6852 H 633.804 2.62533 -1.68769 0
M  V30 6853 N 634.105 1.10431 1.1244 0
M  V30 6854 C 635.354 0.841539 1.83306 0
M  V30 6855 C 635.667 -0.634961 1.85007 0
M  V30 6856 O 636.873 -1.01363 2.51869 0
M  V30 6857 C 635.329 1.45565 3.29149 0
M  V30 6858 C 634.937 2.96544 3.35806 0
M  V30 6859 C 636.681 1.27227 4.04986 0
M  V30 6860 C 634.588 3.5099 4.75983 0
M  V30 6861 H 633.518 0.311156 0.686803 0
M  V30 6862 H 636.169 1.32829 1.26604 0
M  V30 6863 H 634.551 0.896574 3.85717 0
M  V30 6864 H 635.725 3.58766 2.89177 0
M  V30 6865 H 634.04 3.14036 2.73442 0
M  V30 6866 H 636.637 1.65348 5.08492 0
M  V30 6867 H 636.98 0.213834 4.1575 0
M  V30 6868 H 637.513 1.79941 3.54776 0
M  V30 6869 H 634.252 4.56499 4.70413 0
M  V30 6870 H 633.772 2.93535 5.23065 0
M  V30 6871 H 635.451 3.48808 5.44924 0
M  V30 6872 N 635.583 -1.29855 0.893053 0
M  V30 6873 C 636.832 -1.95104 0.511597 0
M  V30 6874 C 637.145 -1.71226 -0.945567 0
M  V30 6875 O 638.351 -2.30525 -1.43424 0
M  V30 6876 C 636.807 -3.49374 0.864034 0
M  V30 6877 C 636.415 -3.82061 2.33952 0
M  V30 6878 C 638.159 -4.20894 0.552167 0
M  V30 6879 C 636.066 -5.29546 2.63316 0
M  V30 6880 H 634.996 -0.73029 0.187597 0
M  V30 6881 H 637.647 -1.47682 1.08914 0
M  V30 6882 H 636.029 -3.95413 0.215493 0
M  V30 6883 H 637.203 -3.46904 3.03305 0
M  V30 6884 H 635.518 -3.23665 2.61973 0
M  V30 6885 H 638.115 -5.29435 0.748489 0
M  V30 6886 H 638.458 -4.13178 -0.508924 0
M  V30 6887 H 638.991 -3.80564 1.15825 0
M  V30 6888 H 635.73 -5.4232 3.68197 0
M  V30 6889 H 635.25 -5.65974 1.9858 0
M  V30 6890 H 636.929 -5.97068 2.49236 0
M  V30 6891 N 637.061 -0.65484 -1.43351 0
M  V30 6892 C 638.309 -0.168559 -2.01396 0
M  V30 6893 C 638.63 1.22235 -1.51933 0
M  V30 6894 O 637.9 1.81685 -0.732627 0
M  V30 6895 H 636.48 -0.0593244 -0.744641 0
M  V30 6896 H 639.142 -0.846871 -1.75539 0
M  V30 6897 H 638.238 -0.154428 -3.11718 0
M  V30 6898 N 638.539 1.52521 -0.396863 0
M  V30 6899 C 639.779 2.03583 0.182578 0
M  V30 6900 C 640.143 1.2766 1.43412 0
M  V30 6901 O 641.344 1.68884 2.09121 0
M  V30 6902 C 639.615 3.54724 0.436519 0
M  V30 6903 S 641.174 4.27598 0.985163 0
M  V30 6904 H 637.992 0.709186 0.0507529 0
M  V30 6905 H 640.594 1.87693 -0.546955 0
M  V30 6906 H 639.298 4.07567 -0.481343 0
M  V30 6907 H 638.829 3.74834 1.19427 0
M  V30 6908 H 640.844 4.41393 2.26686 0
M  V30 6909 N 640.017 0.126909 1.57088 0
M  V30 6910 C 641.263 -0.529952 1.95753 0
M  V30 6911 C 641.596 -1.65823 1.01077 0
M  V30 6912 O 640.871 -1.94437 0.0494162 0
M  V30 6913 C 641.154 -1.05517 3.44294 0
M  V30 6914 C 641.007 0.0702253 4.49745 0
M  V30 6915 C 642.326 -1.9435 3.94862 0
M  V30 6916 H 639.445 -0.191168 0.711775 0
M  V30 6917 H 642.087 0.204071 1.88901 0
M  V30 6918 H 640.237 -1.68069 3.50264 0
M  V30 6919 H 641.909 0.705834 4.55868 0
M  V30 6920 H 640.152 0.732259 4.27575 0
M  V30 6921 H 640.823 -0.338642 5.5096 0
M  V30 6922 H 643.299 -1.41658 3.91244 0
M  V30 6923 H 642.175 -2.28015 4.993 0
M  V30 6924 H 642.436 -2.87299 3.36024 0
M  V30 6925 N 641.495 -1.56914 -0.146875 0
M  V30 6926 C 642.405 -2.0154 -1.20079 0
M  V30 6927 C 643.421 -0.930838 -1.47008 0
M  V30 6928 O 644.597 -1.24032 -1.58676 0
M  V30 6929 C 641.662 -2.38715 -2.51428 0
M  V30 6930 C 640.723 -3.6112 -2.32145 0
M  V30 6931 C 639.956 -3.96512 -3.57231 0
M  V30 6932 O 640.179 -3.32566 -4.63418 0
M  V30 6933 O 639.113 -4.89758 -3.49887 0
M  V30 6934 H 642.939 -2.91506 -0.851924 0
M  V30 6935 H 640.524 -1.45106 -0.355607 0
M  V30 6936 H 642.406 -2.63485 -3.28867 0
M  V30 6937 H 641.081 -1.51903 -2.85845 0
M  V30 6938 H 639.988 -3.41536 -1.52656 0
M  V30 6939 H 641.321 -4.48549 -2.02644 0
M  V30 6940 N 642.974 0.416227 -1.52004 0
M  V30 6941 C 644.385 0.995319 -1.57957 0
M  V30 6942 C 644.736 1.91744 -0.415754 0
M  V30 6943 O 643.861 2.11349 0.464808 0
M  V30 6944 C 644.456 1.81191 -2.86278 0
M  V30 6945 C 643.015 2.34115 -2.94732 0
M  V30 6946 C 642.162 1.139 -2.52828 0
M  V30 6947 H 645.113 0.196716 -1.57476 0
M  V30 6948 H 645.134 2.66859 -2.71231 0
M  V30 6949 H 644.646 1.14051 -3.70963 0
M  V30 6950 H 642.747 3.04647 -2.14525 0
M  V30 6951 H 642.86 2.65466 -3.98829 0
M  V30 6952 H 641.224 1.49081 -2.06511 0
M  V30 6953 H 642.007 0.483383 -3.3988 0
M  V30 6954 N 644.452 1.42507 0.673017 0
M  V30 6955 C 645.384 1.42074 1.79854 0
M  V30 6956 C 646.397 0.319569 1.59633 0
M  V30 6957 O 647.586 0.582769 1.68719 0
M  V30 6958 C 644.686 1.19886 3.16987 0
M  V30 6959 C 643.859 2.42471 3.64042 0
M  V30 6960 C 642.918 2.15802 4.79913 0
M  V30 6961 O 641.944 2.89015 4.90366 0
M  V30 6962 N 643.146 1.16225 5.68746 0
M  V30 6963 H 645.911 2.3909 1.8071 0
M  V30 6964 H 643.472 1.37409 0.856171 0
M  V30 6965 H 645.464 0.999591 3.92161 0
M  V30 6966 H 644.034 0.313879 3.1102 0
M  V30 6967 H 643.254 2.77954 2.79526 0
M  V30 6968 H 644.542 3.24097 3.92223 0
M  V30 6969 H 643.94 0.556756 5.62954 0
M  V30 6970 H 642.497 1.02285 6.43724 0
M  V30 6971 N 645.93 -0.909495 1.28709 0
M  V30 6972 C 646.877 -2.01245 1.13 0
M  V30 6973 C 647.847 -1.6608 0.0259684 0
M  V30 6974 O 649.032 -1.89835 0.191687 0
M  V30 6975 C 646.172 -3.35644 0.802315 0
M  V30 6976 C 645.285 -3.83653 1.98582 0
M  V30 6977 C 644.42 -5.06582 1.59837 0
M  V30 6978 C 643.459 -5.46934 2.74827 0
M  V30 6979 N 642.596 -6.61053 2.36546 0
M  V30 6980 H 647.436 -2.14013 2.0737 0
M  V30 6981 H 644.973 -1.0482 1.03205 0
M  V30 6982 H 646.931 -4.12963 0.593057 0
M  V30 6983 H 645.561 -3.22631 -0.104457 0
M  V30 6984 H 644.613 -3.02454 2.30708 0
M  V30 6985 H 645.925 -4.09515 2.84779 0
M  V30 6986 H 645.079 -5.91457 1.35143 0
M  V30 6987 H 643.818 -4.82537 0.707753 0
M  V30 6988 H 642.823 -4.60599 3.00215 0
M  V30 6989 H 644.048 -5.72965 3.64538 0
M  V30 6990 H 641.994 -6.3863 1.49959 0
M  V30 6991 H 641.911 -6.86662 3.16277 0
M  V30 6992 H 643.179 -7.49221 2.15146 0
M  V30 6993 N 647.408 -1.11026 -1.11852 0
M  V30 6994 C 648.819 -0.873203 -1.65021 0
M  V30 6995 C 649.17 0.595364 -1.86949 0
M  V30 6996 O 648.295 1.45645 -1.60051 0
M  V30 6997 C 648.89 -1.57859 -2.99777 0
M  V30 6998 C 647.449 -1.38807 -3.49871 0
M  V30 6999 C 646.596 -1.62403 -2.24768 0
M  V30 7000 H 649.547 -1.26712 -0.955503 0
M  V30 7001 H 649.568 -1.02111 -3.66543 0
M  V30 7002 H 649.08 -2.6474 -2.83786 0
M  V30 7003 H 647.181 -0.341163 -3.71035 0
M  V30 7004 H 647.294 -2.13421 -4.28938 0
M  V30 7005 H 645.658 -1.04714 -2.32179 0
M  V30 7006 H 646.441 -2.70549 -2.11324 0
M  V30 7007 N 648.886 1.2938 -0.899927 0
M  V30 7008 C 650.134 1.95164 -0.524924 0
M  V30 7009 C 650.455 1.71292 0.931888 0
M  V30 7010 O 649.725 1.04481 1.65712 0
M  V30 7011 H 648.305 0.722133 -0.191135 0
M  V30 7012 H 650.967 1.57628 -1.14627 0
M  V30 7013 H 650.063 3.0397 -0.707711 0
M  V30 7014 N 650.364 0.662433 1.43002 0
M  V30 7015 C 651.311 -0.0235324 2.30788 0
M  V30 7016 C 652.281 -0.805342 1.4527 0
M  V30 7017 O 653.466 -0.78009 1.74124 0
M  V30 7018 C 650.606 -0.977545 3.30965 0
M  V30 7019 C 649.719 -0.190865 4.31578 0
M  V30 7020 C 648.854 -1.13951 5.18834 0
M  V30 7021 C 647.893 -0.343796 6.11134 0
M  V30 7022 N 647.03 -1.2445 6.90982 0
M  V30 7023 H 651.87 0.730921 2.88897 0
M  V30 7024 H 649.407 0.372197 1.42313 0
M  V30 7025 H 651.365 -1.54437 3.87563 0
M  V30 7026 H 649.995 -1.69877 2.74484 0
M  V30 7027 H 649.047 0.492388 3.772 0
M  V30 7028 H 650.359 0.427464 4.96965 0
M  V30 7029 H 649.513 -1.77666 5.80103 0
M  V30 7030 H 648.252 -1.79174 4.53595 0
M  V30 7031 H 647.257 0.30665 5.48944 0
M  V30 7032 H 648.482 0.304161 6.78419 0
M  V30 7033 H 646.428 -1.88336 6.28383 0
M  V30 7034 H 646.345 -0.680959 7.52927 0
M  V30 7035 H 647.613 -1.86952 7.56749 0
M  V30 7036 N 651.842 -1.52309 0.404946 0
M  V30 7037 C 653.07 -2.06185 -0.171818 0
M  V30 7038 C 653.485 -1.27536 -1.39212 0
M  V30 7039 O 652.842 -0.326112 -1.79563 0
M  V30 7040 C 652.893 -3.57647 -0.526417 0
M  V30 7041 O 652.614 -4.3332 0.645417 0
M  V30 7042 C 654.115 -4.27925 -1.15736 0
M  V30 7043 H 651.335 -0.670632 -0.0222328 0
M  V30 7044 H 653.879 -1.96259 0.574692 0
M  V30 7045 H 652.034 -3.67595 -1.22282 0
M  V30 7046 H 652.448 -5.23328 0.35042 0
M  V30 7047 H 653.922 -5.35093 -1.35572 0
M  V30 7048 H 654.399 -3.84134 -2.12926 0
M  V30 7049 H 655.005 -4.22335 -0.501281 0
M  V30 7050 N 653.32 -0.135238 -1.57019 0
M  V30 7051 C 654.23 0.822226 -2.19719 0
M  V30 7052 C 655.246 1.28057 -1.17802 0
M  V30 7053 O 656.422 1.3402 -1.50335 0
M  V30 7054 C 653.487 2.0484 -2.79717 0
M  V30 7055 C 652.548 1.64042 -3.96723 0
M  V30 7056 C 651.781 2.80814 -4.53849 0
M  V30 7057 O 652.004 3.967 -4.0986 0
M  V30 7058 O 650.938 2.56963 -5.44292 0
M  V30 7059 H 654.764 0.318552 -3.02025 0
M  V30 7060 H 652.349 0.0912021 -1.49121 0
M  V30 7061 H 654.231 2.76622 -3.17897 0
M  V30 7062 H 652.906 2.54182 -2.00432 0
M  V30 7063 H 651.813 0.893182 -3.63281 0
M  V30 7064 H 653.146 1.19426 -4.77492 0
M  V30 7065 N 654.798 1.5699 0.138552 0
M  V30 7066 C 656.046 1.83446 0.848053 0
M  V30 7067 C 656.367 0.71744 1.81322 0
M  V30 7068 O 655.637 -0.260228 1.94164 0
M  V30 7069 H 654.217 0.676792 0.316166 0
M  V30 7070 H 656.879 1.94462 0.130538 0
M  V30 7071 H 655.975 2.78677 1.40518 0
M  V30 7072 N 656.276 -0.40816 1.52223 0
M  V30 7073 C 657.522 -1.15347 1.67531 0
M  V30 7074 C 657.877 -1.8818 0.400748 0
M  V30 7075 O 657.17 -1.81803 -0.604845 0
M  V30 7076 C 657.364 -2.17422 2.83659 0
M  V30 7077 C 657.193 -1.54611 4.22286 0
M  V30 7078 C 655.963 -1.31841 4.87797 0
M  V30 7079 C 658.161 -1.00648 5.04355 0
M  V30 7080 N 656.143 -0.649338 6.10456 0
M  V30 7081 C 657.514 -0.464384 6.18258 0
M  V30 7082 C 659.569 -0.901041 4.89679 0
M  V30 7083 C 658.272 0.172825 7.19092 0
M  V30 7084 C 660.298 -0.277684 5.90748 0
M  V30 7085 C 659.66 0.253734 7.03943 0
M  V30 7086 H 655.759 -0.408722 0.666686 0
M  V30 7087 H 658.343 -0.445713 1.8953 0
M  V30 7088 H 656.514 -2.85554 2.63274 0
M  V30 7089 H 658.246 -2.84321 2.87999 0
M  V30 7090 H 655.001 -1.58819 4.46176 0
M  V30 7091 H 655.425 -0.3314 6.76188 0
M  V30 7092 H 660.067 -1.29772 4.02392 0
M  V30 7093 H 657.785 0.581564 8.06005 0
M  V30 7094 H 661.371 -0.197605 5.81464 0
M  V30 7095 H 660.251 0.728482 7.80809 0
M  V30 7096 N 657.755 -1.42862 -0.66545 0
M  V30 7097 C 658.705 -1.43521 -1.7716 0
M  V30 7098 C 659.689 -0.305267 -1.57978 0
M  V30 7099 O 660.881 -0.548176 -1.68297 0
M  V30 7100 C 658.01 -1.34914 -3.15679 0
M  V30 7101 C 657.096 -2.5289 -3.40452 0
M  V30 7102 N 657.487 -3.78284 -3.3576 0
M  V30 7103 C 655.785 -2.47351 -3.71124 0
M  V30 7104 C 656.486 -4.56701 -3.60276 0
M  V30 7105 N 655.462 -3.87249 -3.81496 0
M  V30 7106 H 659.264 -2.38357 -1.7194 0
M  V30 7107 H 656.778 -1.37342 -0.866653 0
M  V30 7108 H 658.775 -1.33468 -3.94958 0
M  V30 7109 H 657.435 -0.410881 -3.2209 0
M  V30 7110 H 658.446 -4.10746 -3.15448 0
M  V30 7111 H 655.123 -1.62152 -3.84725 0
M  V30 7112 H 656.513 -5.65704 -3.6253 0
M  V30 7113 N 659.233 0.902656 -1.29189 0
M  V30 7114 C 660.51 1.63296 -1.07674 0
M  V30 7115 C 660.89 2.07649 0.380137 0
M  V30 7116 O 660.238 1.82997 1.36837 0
M  V30 7117 C 660.448 2.81603 -2.06158 0
M  V30 7118 C 661.796 3.52359 -2.36914 0
M  V30 7119 O 662.82 2.91767 -2.04329 0
M  V30 7120 O 661.679 4.61586 -2.92576 0
M  V30 7121 H 658.773 0.716889 -0.41231 0
M  V30 7122 H 661.319 0.950984 -1.4055 0
M  V30 7123 H 660.091 2.46004 -3.04299 0
M  V30 7124 H 659.714 3.57508 -1.73993 0
M  V30 7125 N 660.711 1.11618 1.11262 0
M  V30 7126 C 661.936 0.889013 1.8738 0
M  V30 7127 C 662.361 -0.555884 1.79698 0
M  V30 7128 O 661.719 -1.39272 1.16073 0
M  V30 7129 C 661.767 1.35759 3.34069 0
M  V30 7130 O 660.871 0.530499 4.08974 0
M  V30 7131 H 660.212 0.320082 0.581759 0
M  V30 7132 H 662.742 1.48611 1.40627 0
M  V30 7133 H 662.752 1.35291 3.84916 0
M  V30 7134 H 661.427 2.40973 3.38976 0
M  V30 7135 H 660.004 0.601439 3.68018 0
M  V30 7136 N 662.189 -1.289 0.906776 0
M  V30 7137 C 663.152 -2.25777 0.394656 0
M  V30 7138 C 664.152 -1.53621 -0.475119 0
M  V30 7139 O 665.342 -1.71949 -0.279165 0
M  V30 7140 C 662.474 -3.38113 -0.43499 0
M  V30 7141 H 663.667 -2.72592 1.25033 0
M  V30 7142 H 661.22 -1.40463 0.685547 0
M  V30 7143 H 661.955 -2.96648 -1.31036 0
M  V30 7144 H 661.74 -3.91647 0.188334 0
M  V30 7145 H 663.23 -4.10168 -0.784365 0
M  V30 7146 N 663.667 -0.670007 -1.42649 0
M  V30 7147 C 664.914 -0.190286 -2.01604 0
M  V30 7148 C 665.242 1.20155 -1.52948 0
M  V30 7149 O 664.497 1.81964 -0.72026 0
M  V30 7150 C 664.796 -0.168298 -3.57004 0
M  V30 7151 C 664.462 -1.50415 -4.25072 0
M  V30 7152 C 663.124 -1.86992 -4.43382 0
M  V30 7153 C 665.476 -2.38414 -4.63474 0
M  V30 7154 C 662.804 -3.11203 -4.97363 0
M  V30 7155 C 665.156 -3.61933 -5.18833 0
M  V30 7156 C 663.82 -3.98685 -5.35356 0
M  V30 7157 H 663.09 -0.0696305 -0.737721 0
M  V30 7158 H 665.737 -0.864044 -1.70899 0
M  V30 7159 H 664.042 0.588958 -3.87348 0
M  V30 7160 H 665.739 0.22001 -4.00396 0
M  V30 7161 H 662.329 -1.20959 -4.11177 0
M  V30 7162 H 666.513 -2.11442 -4.49006 0
M  V30 7163 H 661.769 -3.39705 -5.08341 0
M  V30 7164 H 665.943 -4.30326 -5.47533 0
M  V30 7165 H 663.57 -4.95009 -5.76949 0
M  V30 7166 N 665.145 1.52092 -0.413018 0
M  V30 7167 C 666.392 2.01855 0.161497 0
M  V30 7168 C 666.72 1.29845 1.44812 0
M  V30 7169 O 665.975 0.394471 1.91683 0
M  V30 7170 C 666.274 3.54529 0.4521 0
M  V30 7171 C 665.94 4.4469 -0.745788 0
M  V30 7172 C 664.602 4.69053 -1.07435 0
M  V30 7173 C 666.954 4.97742 -1.54604 0
M  V30 7174 C 664.282 5.43717 -2.20429 0
M  V30 7175 C 666.634 5.73642 -2.66678 0
M  V30 7176 C 665.298 5.96277 -3.00016 0
M  V30 7177 H 664.568 0.73864 0.0590961 0
M  V30 7178 H 667.215 1.83274 -0.555234 0
M  V30 7179 H 665.52 3.7131 1.25045 0
M  V30 7180 H 667.217 3.90546 0.909647 0
M  V30 7181 H 663.807 4.25907 -0.479725 0
M  V30 7182 H 667.991 4.78824 -1.30543 0
M  V30 7183 H 663.247 5.59462 -2.46602 0
M  V30 7184 H 667.421 6.13746 -3.29072 0
M  V30 7185 H 665.048 6.53913 -3.87688 0
M  V30 7186 N 666.623 0.143563 1.56945 0
M  V30 7187 C 667.571 -0.814556 2.17871 0
M  V30 7188 C 668.565 -1.25778 1.13474 0
M  V30 7189 O 669.771 -1.22666 1.31731 0
M  V30 7190 H 666.146 -0.280873 0.697578 0
M  V30 7191 H 668.117 -0.276459 2.97117 0
M  V30 7192 C 666.866 -2.04503 2.81201 0
M  V30 7193 H 666.189 -1.71296 3.61245 0
M  V30 7194 H 667.629 -2.69493 3.27337 0
M  V30 7195 C 666.088 -2.85079 1.79532 0
M  V30 7196 O 666.618 -3.81306 1.26368 0
M  V30 7197 N 664.824 -2.49546 1.48913 0
M  V30 7198 H 664.371 -1.71359 1.92338 0
M  V30 7199 H 664.329 -3.03751 0.811348 0
M  V30 7200 N 668.101 -1.57061 -0.130224 0
M  V30 7201 C 669.031 -2.02552 -1.16168 0
M  V30 7202 C 670.012 -0.907971 -1.4384 0
M  V30 7203 O 671.197 -1.17693 -1.54473 0
M  V30 7204 C 668.327 -2.42035 -2.49071 0
M  V30 7205 C 667.281 -3.5713 -2.35886 0
M  V30 7206 C 666.607 -3.82478 -3.7365 0
M  V30 7207 C 667.907 -4.89236 -1.8288 0
M  V30 7208 H 669.601 -2.8897 -0.783359 0
M  V30 7209 H 667.147 -1.39021 -0.375376 0
M  V30 7210 H 669.1 -2.72462 -3.21469 0
M  V30 7211 H 667.824 -1.52573 -2.88771 0
M  V30 7212 H 666.483 -3.26895 -1.65938 0
M  V30 7213 H 666.131 -2.9024 -4.10816 0
M  V30 7214 H 665.831 -4.59944 -3.65685 0
M  V30 7215 H 667.355 -4.15347 -4.47571 0
M  V30 7216 H 668.769 -5.18272 -2.45085 0
M  V30 7217 H 667.166 -5.70624 -1.85763 0
M  V30 7218 H 668.236 -4.78494 -0.785571 0
M  V30 7219 N 669.579 0.400081 -1.52437 0
M  V30 7220 C 670.542 1.4707 -1.75793 0
M  V30 7221 C 671.542 1.48036 -0.627856 0
M  V30 7222 O 672.732 1.49401 -0.895817 0
M  V30 7223 C 669.864 2.86427 -1.84858 0
M  V30 7224 H 671.057 1.27649 -2.71377 0
M  V30 7225 H 668.61 0.631141 -1.42991 0
M  V30 7226 H 669.345 3.11207 -0.912194 0
M  V30 7227 H 669.13 2.87128 -2.6702 0
M  V30 7228 H 670.62 3.64023 -2.04638 0
M  V30 7229 N 671.057 1.43213 0.657864 0
M  V30 7230 C 672.473 1.26511 0.972992 0
M  V30 7231 C 672.673 0.181477 2.00681 0
M  V30 7232 O 671.729 -0.441649 2.48608 0
M  V30 7233 C 673.042 2.62784 1.46168 0
M  V30 7234 C 674.59 2.70278 1.57857 0
M  V30 7235 C 675.065 4.06958 2.10117 0
M  V30 7236 N 676.556 4.08999 2.17426 0
M  V30 7237 C 677.291 5.11585 2.58975 0
M  V30 7238 N 676.787 6.24548 2.99853 0
M  V30 7239 N 678.58 4.9894 2.58873 0
M  V30 7240 H 670.731 2.12384 -0.0263129 0
M  V30 7241 H 672.994 0.946638 0.0507992 0
M  V30 7242 H 672.7 3.43022 0.776474 0
M  V30 7243 H 672.574 2.87863 2.43751 0
M  V30 7244 H 674.961 1.90376 2.25479 0
M  V30 7245 H 675.042 2.4897 0.587179 0
M  V30 7246 H 674.686 4.87325 1.43098 0
M  V30 7247 H 674.616 4.25628 3.10078 0
M  V30 7248 H 677.107 3.27457 1.88627 0
M  V30 7249 H 677.42 6.98661 3.30292 0
M  V30 7250 H 675.765 6.28027 2.97669 0
M  V30 7251 H 678.956 4.09757 2.26311 0
M  V30 7252 H 679.129 5.79019 2.90932 0
M  V30 7253 N 672.536 -0.895792 1.29666 0
M  V30 7254 C 673.785 -1.64131 1.17234 0
M  V30 7255 C 674.098 -1.93665 -0.274416 0
M  V30 7256 O 675.304 -2.66472 -0.520105 0
M  V30 7257 C 673.76 -2.95764 2.05065 0
M  V30 7258 C 673.368 -2.7381 3.54587 0
M  V30 7259 C 675.112 -3.737 2.01367 0
M  V30 7260 C 673.019 -4.01194 4.34508 0
M  V30 7261 H 671.949 -0.615742 0.435175 0
M  V30 7262 H 674.6 -0.992626 1.54335 0
M  V30 7263 H 672.982 -3.61867 1.60837 0
M  V30 7264 H 674.156 -2.16277 4.06892 0
M  V30 7265 H 672.471 -2.09265 3.59996 0
M  V30 7266 H 675.068 -4.68152 2.58337 0
M  V30 7267 H 675.411 -4.04245 0.994575 0
M  V30 7268 H 675.944 -3.14444 2.43659 0
M  V30 7269 H 672.683 -3.75813 5.37071 0
M  V30 7270 H 672.203 -4.58272 3.86971 0
M  V30 7271 H 673.882 -4.69307 4.45376 0
M  V30 7272 N 674.014 -1.12206 -1.10668 0
M  V30 7273 C 675.26 -0.877172 -1.82848 0
M  V30 7274 C 675.593 0.595571 -1.84842 0
M  V30 7275 O 674.868 1.44013 -1.30731 0
M  V30 7276 C 675.151 -1.44957 -3.29635 0
M  V30 7277 C 675.004 -2.99051 -3.35989 0
M  V30 7278 C 676.323 -1.10714 -4.25946 0
M  V30 7279 H 673.442 -0.320103 -0.663854 0
M  V30 7280 H 676.084 -1.38827 -1.2972 0
M  V30 7281 H 674.234 -1.01488 -3.7501 0
M  V30 7282 H 675.906 -3.51182 -2.99113 0
M  V30 7283 H 674.149 -3.34705 -2.75962 0
M  V30 7284 H 674.82 -3.34194 -4.39339 0
M  V30 7285 H 677.296 -1.48254 -3.88793 0
M  V30 7286 H 676.172 -1.5343 -5.2702 0
M  V30 7287 H 676.433 -0.019 -4.42096 0
M  V30 7288 N 675.492 1.28418 -0.913599 0
M  V30 7289 C 676.402 2.31043 -0.406965 0
M  V30 7290 C 677.418 1.66501 0.505298 0
M  V30 7291 O 678.594 1.97558 0.391522 0
M  V30 7292 C 675.659 3.4498 0.344901 0
M  V30 7293 C 674.72 4.25078 -0.600563 0
M  V30 7294 C 673.953 5.33575 0.115516 0
M  V30 7295 O 674.176 5.54503 1.33727 0
M  V30 7296 O 673.11 5.9939 -0.549095 0
M  V30 7297 H 676.936 2.76387 -1.25873 0
M  V30 7298 H 674.521 1.33109 -0.678415 0
M  V30 7299 H 676.403 4.14314 0.769542 0
M  V30 7300 H 675.078 3.01719 1.1725 0
M  V30 7301 H 673.985 3.58334 -1.0746 0
M  V30 7302 H 675.318 4.72018 -1.39497 0
M  V30 7303 N 676.97 0.677563 1.42291 0
M  V30 7304 C 677.9 0.014968 2.33495 0
M  V30 7305 C 678.881 -0.786376 1.50831 0
M  V30 7306 O 680.066 -0.742975 1.79426 0
M  V30 7307 C 677.196 -0.935023 3.34477 0
M  V30 7308 C 676.15 -0.242074 4.27315 0
M  V30 7309 C 675.476 -1.30519 5.18526 0
M  V30 7310 C 676.776 0.880604 5.14823 0
M  V30 7311 H 678.47 0.776671 2.89151 0
M  V30 7312 H 676.016 0.37494 1.39033 0
M  V30 7313 H 677.969 -1.40766 3.97194 0
M  V30 7314 H 676.693 -1.72818 2.77131 0
M  V30 7315 H 675.352 0.210351 3.65996 0
M  V30 7316 H 675 -2.09041 4.57505 0
M  V30 7317 H 674.7 -0.846652 5.81468 0
M  V30 7318 H 676.224 -1.7787 5.84119 0
M  V30 7319 H 677.638 0.489062 5.7121 0
M  V30 7320 H 676.035 1.26511 5.86613 0
M  V30 7321 H 677.105 1.72818 4.53059 0
M  V30 7322 N 678.448 -1.51871 0.421078 0
M  V30 7323 C 679.676 -2.06356 -0.14994 0
M  V30 7324 C 680.091 -1.29006 -1.37851 0
M  V30 7325 O 679.448 -0.345139 -1.79207 0
M  V30 7326 C 679.499 -3.58185 -0.488454 0
M  V30 7327 O 679.22 -4.32611 0.691341 0
M  V30 7328 C 680.721 -4.29129 -1.11191 0
M  V30 7329 H 677.941 -0.67083 -0.0151186 0
M  V30 7330 H 680.485 -1.95638 0.595476 0
M  V30 7331 H 678.64 -3.68871 -1.18376 0
M  V30 7332 H 679.054 -5.22927 0.405906 0
M  V30 7333 H 680.528 -5.36501 -1.29889 0
M  V30 7334 H 681.005 -3.86371 -2.0884 0
M  V30 7335 H 681.611 -4.22843 -0.456458 0
M  V30 7336 N 679.926 -0.151884 -1.56866 0
M  V30 7337 C 681.175 0.497992 -1.95456 0
M  V30 7338 C 681.488 1.6569 -1.03953 0
M  V30 7339 O 682.694 2.37173 -1.32142 0
M  V30 7340 C 681.15 0.93732 -3.4748 0
M  V30 7341 C 680.758 -0.194921 -4.47576 0
M  V30 7342 C 682.502 1.55671 -3.94926 0
M  V30 7343 C 680.409 0.26295 -5.90815 0
M  V30 7344 H 679.339 0.189811 -0.729717 0
M  V30 7345 H 681.99 -0.237011 -1.81963 0
M  V30 7346 H 680.372 1.72773 -3.56322 0
M  V30 7347 H 681.546 -0.971951 -4.50433 0
M  V30 7348 H 679.861 -0.72303 -4.10075 0
M  V30 7349 H 682.458 1.91099 -4.99385 0
M  V30 7350 H 682.801 2.44748 -3.36755 0
M  V30 7351 H 683.334 0.831109 -3.89021 0
M  V30 7352 H 680.073 -0.592568 -6.52816 0
M  V30 7353 H 679.593 1.00575 -5.91308 0
M  V30 7354 H 681.272 0.713333 -6.43056 0
M  V30 7355 N 681.404 1.57128 0.121893 0
M  V30 7356 C 682.352 2.01109 1.16868 0
M  V30 7357 C 683.346 0.907532 1.43039 0
M  V30 7358 O 684.552 1.09274 1.43036 0
M  V30 7359 H 680.927 0.640539 0.393971 0
M  V30 7360 H 682.898 2.88261 0.771224 0
M  V30 7361 C 681.647 2.42887 2.48799 0
M  V30 7362 H 680.97 3.2737 2.29498 0
M  V30 7363 H 682.41 2.77461 3.20611 0
M  V30 7364 C 680.869 1.29137 3.11168 0
M  V30 7365 O 681.399 0.605756 3.97106 0
M  V30 7366 N 679.605 1.04916 2.71 0
M  V30 7367 H 679.152 1.60848 2.01211 0
M  V30 7368 H 679.11 0.290016 3.1306 0
M  V30 7369 N 682.882 -0.391992 1.52647 0
M  V30 7370 C 684.107 -1.16312 1.71716 0
M  V30 7371 C 684.532 -1.83042 0.433279 0
M  V30 7372 O 683.89 -1.70705 -0.610707 0
M  V30 7373 C 683.938 -2.18908 2.86551 0
M  V30 7374 O 683.042 -3.2543 2.53316 0
M  V30 7375 H 682.383 -0.338743 0.571095 0
M  V30 7376 H 684.913 -0.457202 1.99426 0
M  V30 7377 H 684.923 -2.62954 3.1196 0
M  V30 7378 H 683.598 -1.69726 3.79692 0
M  V30 7379 H 682.175 -2.86543 2.38637 0
M  V30 7380 N 684.36 -1.4356 -0.65026 0
M  V30 7381 C 685.608 -1.45046 -1.40734 0
M  V30 7382 C 685.929 -0.0769822 -1.94848 0
M  V30 7383 O 685.199 0.888098 -1.74613 0
M  V30 7384 H 683.779 -0.534034 -0.522318 0
M  V30 7385 H 686.441 -1.79186 -0.766703 0
M  V30 7386 H 685.537 -2.16476 -2.24822 0
M  V30 7387 N 685.838 0.888903 -1.30139 0
M  V30 7388 C 687.085 1.64037 -1.18736 0
M  V30 7389 C 687.413 1.92771 0.258801 0
M  V30 7390 O 686.668 1.54427 1.20212 0
M  V30 7391 C 686.967 2.99041 -1.95728 0
M  V30 7392 C 686.633 2.89874 -3.45375 0
M  V30 7393 C 685.295 2.87082 -3.86183 0
M  V30 7394 C 687.647 2.78289 -4.40687 0
M  V30 7395 C 684.975 2.70536 -5.20603 0
M  V30 7396 C 687.327 2.63282 -5.75209 0
M  V30 7397 C 685.991 2.58861 -6.15262 0
M  V30 7398 H 685.261 0.600253 -0.434485 0
M  V30 7399 H 687.908 1.0338 -1.61198 0
M  V30 7400 H 686.213 3.63626 -1.45888 0
M  V30 7401 H 687.91 3.56139 -1.843 0
M  V30 7402 H 684.5 2.92856 -3.12943 0
M  V30 7403 H 688.684 2.79516 -4.10103 0
M  V30 7404 H 683.94 2.65526 -5.50732 0
M  V30 7405 H 688.114 2.5329 -6.48704 0
M  V30 7406 H 685.741 2.45799 -7.19366 0
M  V30 7407 N 687.317 1.12792 1.10072 0
M  V30 7408 C 688.594 0.796867 1.78632 0
M  V30 7409 C 688.974 -0.712739 1.98704 0
M  V30 7410 O 688.322 -1.64773 1.5831 0
M  V30 7411 C 688.532 1.57622 3.11378 0
M  V30 7412 C 689.88 1.76463 3.86194 0
M  V30 7413 O 690.904 1.54165 3.2111 0
M  V30 7414 O 689.763 2.13623 5.03018 0
M  V30 7415 H 686.857 0.290248 0.774394 0
M  V30 7416 H 689.403 1.23215 1.16688 0
M  V30 7417 H 688.175 2.60246 2.92212 0
M  V30 7418 H 687.798 1.13543 3.81043 0
M  V30 7419 N 688.795 -1.27931 0.920396 0
M  V30 7420 C 689.742 -2.27085 0.412422 0
M  V30 7421 C 690.712 -1.57858 -0.516725 0
M  V30 7422 O 691.897 -1.85717 -0.437475 0
M  V30 7423 C 689.037 -3.43466 -0.335399 0
M  V30 7424 C 688.15 -4.27425 0.627017 0
M  V30 7425 C 687.285 -5.31016 -0.139916 0
M  V30 7426 C 686.324 -6.06641 0.815683 0
M  V30 7427 N 685.461 -7.02052 0.0818439 0
M  V30 7428 H 690.301 -2.69913 1.26298 0
M  V30 7429 H 687.838 -1.32732 0.634076 0
M  V30 7430 H 689.796 -4.09744 -0.785226 0
M  V30 7431 H 688.426 -3.01611 -1.15025 0
M  V30 7432 H 687.478 -3.6113 1.19537 0
M  V30 7433 H 688.79 -4.79969 1.35763 0
M  V30 7434 H 687.944 -6.03208 -0.649998 0
M  V30 7435 H 686.683 -4.79257 -0.903543 0
M  V30 7436 H 685.688 -5.33294 1.33708 0
M  V30 7437 H 686.913 -6.60489 1.57897 0
M  V30 7438 H 684.859 -6.52634 -0.663671 0
M  V30 7439 H 684.776 -7.52249 0.752163 0
M  V30 7440 H 686.044 -7.78432 -0.407825 0
M  V30 7441 N 690.273 -0.685099 -1.4193 0
M  V30 7442 C 691.221 -0.00165985 -2.326 0
M  V30 7443 C 692.215 0.779678 -1.50391 0
M  V30 7444 O 693.421 0.68648 -1.66395 0
M  V30 7445 H 689.796 0.0182616 -0.751778 0
M  V30 7446 H 691.767 -0.783592 -2.87928 0
M  V30 7447 C 690.516 0.928385 -3.35077 0
M  V30 7448 H 689.839 0.336578 -3.98381 0
M  V30 7449 H 691.279 1.37509 -4.01083 0
M  V30 7450 C 689.738 2.03964 -2.68142 0
M  V30 7451 O 690.268 3.12727 -2.5212 0
M  V30 7452 N 688.474 1.81433 -2.27003 0
M  V30 7453 H 688.021 0.929807 -2.40234 0
M  V30 7454 H 687.979 2.55973 -1.82552 0
M  V30 7455 N 691.751 1.51645 -0.429126 0
M  V30 7456 C 692.698 2.27542 0.386446 0
M  V30 7457 C 693.668 1.30786 1.02393 0
M  V30 7458 O 694.853 1.59678 1.0444 0
M  V30 7459 C 691.993 3.11457 1.48623 0
M  V30 7460 C 691.106 4.23196 0.867691 0
M  V30 7461 C 690.241 4.94435 1.94183 0
M  V30 7462 C 689.28 5.98108 1.30129 0
M  V30 7463 N 688.417 6.62786 2.31644 0
M  V30 7464 H 693.257 2.968 -0.267155 0
M  V30 7465 H 690.794 1.46397 -0.143591 0
M  V30 7466 H 692.752 3.58429 2.13506 0
M  V30 7467 H 691.382 2.44329 2.10957 0
M  V30 7468 H 690.434 3.80248 0.107373 0
M  V30 7469 H 691.746 4.97499 0.35997 0
M  V30 7470 H 690.9 5.44914 2.66747 0
M  V30 7471 H 689.639 4.19744 2.48326 0
M  V30 7472 H 688.644 5.4693 0.561082 0
M  V30 7473 H 689.869 6.74751 0.767303 0
M  V30 7474 H 687.815 5.90913 2.84883 0
M  V30 7475 H 687.732 7.32828 1.85741 0
M  V30 7476 H 689 7.17897 3.03717 0
M  V30 7477 N 693.229 0.160201 1.56784 0
M  V30 7478 C 694.161 -0.80564 2.14574 0
M  V30 7479 C 695.174 -1.20154 1.09849 0
M  V30 7480 O 696.363 -1.14333 1.37078 0
M  V30 7481 C 693.463 -2.09434 2.6644 0
M  V30 7482 C 692.636 -1.86375 3.95706 0
M  V30 7483 C 691.695 -2.99358 4.32749 0
M  V30 7484 O 690.721 -2.70475 5.00831 0
M  V30 7485 N 691.923 -4.26867 3.93402 0
M  V30 7486 H 694.688 -0.311644 2.98075 0
M  V30 7487 H 692.249 -0.0229465 1.61884 0
M  V30 7488 H 694.241 -2.84091 2.88226 0
M  V30 7489 H 692.811 -2.50057 1.8759 0
M  V30 7490 H 692.031 -0.956821 3.82412 0
M  V30 7491 H 693.319 -1.68322 4.80151 0
M  V30 7492 H 692.717 -4.53197 3.38569 0
M  V30 7493 H 691.274 -4.98263 4.20211 0
M  V30 7494 N 694.707 -1.5719 -0.113559 0
M  V30 7495 C 695.956 -1.84325 -0.818984 0
M  V30 7496 C 696.269 -0.746685 -1.80787 0
M  V30 7497 O 697.475 -0.904596 -2.55987 0
M  V30 7498 C 695.931 -3.26818 -1.50724 0
M  V30 7499 C 695.539 -4.44498 -0.559065 0
M  V30 7500 C 697.283 -3.63196 -2.19748 0
M  V30 7501 C 695.19 -5.7802 -1.25086 0
M  V30 7502 H 694.12 -0.687507 -0.309596 0
M  V30 7503 H 696.771 -1.8336 -0.0717621 0
M  V30 7504 H 695.153 -3.22269 -2.30128 0
M  V30 7505 H 696.327 -4.60356 0.202146 0
M  V30 7506 H 694.642 -4.16393 0.024495 0
M  V30 7507 H 697.239 -4.60226 -2.72206 0
M  V30 7508 H 697.582 -2.90899 -2.97798 0
M  V30 7509 H 698.115 -3.69553 -1.47226 0
M  V30 7510 H 694.854 -6.53501 -0.511539 0
M  V30 7511 H 694.374 -5.66038 -1.98395 0
M  V30 7512 H 696.053 -6.2196 -1.78253 0
M  V30 7513 N 696.185 0.383891 -1.52853 0
M  V30 7514 C 697.433 1.12619 -1.67814 0
M  V30 7515 C 697.754 1.90354 -0.423141 0
M  V30 7516 O 697.024 1.87649 0.562554 0
M  V30 7517 H 695.604 0.418738 -0.618601 0
M  V30 7518 H 698.266 0.43495 -1.89985 0
M  V30 7519 H 697.362 1.82624 -2.5309 0
M  V30 7520 N 697.663 1.43903 0.642637 0
M  V30 7521 C 699.074 1.40975 1.22404 0
M  V30 7522 C 699.425 0.1192 1.95838 0
M  V30 7523 O 698.55 -0.780939 2.01818 0
M  V30 7524 C 699.145 2.5538 2.22636 0
M  V30 7525 C 697.704 2.55684 2.76229 0
M  V30 7526 C 696.851 2.32556 1.51039 0
M  V30 7527 H 699.802 1.5265 0.434006 0
M  V30 7528 H 699.823 2.27474 3.05017 0
M  V30 7529 H 699.335 3.49294 1.69161 0
M  V30 7530 H 697.436 1.65679 3.33738 0
M  V30 7531 H 697.549 3.53799 3.23053 0
M  V30 7532 H 695.913 1.81427 1.78764 0
M  V30 7533 H 696.696 3.28569 0.99484 0
M  V30 7534 N 699.141 -0.881989 1.30609 0
M  V30 7535 C 700.088 -1.98803 1.17244 0
M  V30 7536 C 701.058 -1.65987 0.0611905 0
M  V30 7537 O 702.243 -1.89385 0.231911 0
M  V30 7538 C 699.383 -3.33867 0.87333 0
M  V30 7539 C 698.496 -3.79354 2.06675 0
M  V30 7540 C 697.631 -5.03078 1.70547 0
M  V30 7541 C 696.67 -5.40981 2.86366 0
M  V30 7542 N 695.807 -6.55886 2.50514 0
M  V30 7543 H 700.647 -2.09566 2.11863 0
M  V30 7544 H 698.184 -1.02607 1.05405 0
M  V30 7545 H 700.142 -4.11612 0.680519 0
M  V30 7546 H 698.772 -3.2278 -0.0359983 0
M  V30 7547 H 697.824 -2.97492 2.37071 0
M  V30 7548 H 699.136 -4.03382 2.93401 0
M  V30 7549 H 698.29 -5.88457 1.47658 0
M  V30 7550 H 697.029 -4.80927 0.809947 0
M  V30 7551 H 696.034 -4.54127 3.09917 0
M  V30 7552 H 697.259 -5.65104 3.76609 0
M  V30 7553 H 695.205 -6.35306 1.63471 0
M  V30 7554 H 695.122 -6.79799 3.30771 0
M  V30 7555 H 696.39 -7.44489 2.30989 0
M  V30 7556 N 700.619 -1.13374 -1.09472 0
M  V30 7557 C 701.847 -0.918351 -1.85402 0
M  V30 7558 C 702.262 0.53281 -1.81126 0
M  V30 7559 O 701.619 1.36879 -1.20708 0
M  V30 7560 C 701.67 -1.39743 -3.33398 0
M  V30 7561 O 701.391 -2.79172 -3.37631 0
M  V30 7562 C 702.892 -1.22042 -4.2617 0
M  V30 7563 H 700.112 -0.327511 -0.585643 0
M  V30 7564 H 702.656 -1.50617 -1.38328 0
M  V30 7565 H 700.811 -0.852619 -3.77901 0
M  V30 7566 H 701.225 -3.00428 -4.29934 0
M  V30 7567 H 702.699 -1.60438 -5.2817 0
M  V30 7568 H 703.176 -0.162047 -4.38901 0
M  V30 7569 H 703.782 -1.75323 -3.87482 0
M  V30 7570 N 702.098 1.27442 -0.927168 0
M  V30 7571 C 703.03 2.25975 -0.383158 0
M  V30 7572 C 704.043 1.55382 0.485832 0
M  V30 7573 O 705.232 1.75986 0.298541 0
M  V30 7574 C 702.332 3.35629 0.469688 0
M  V30 7575 C 701.505 4.35747 -0.379886 0
M  V30 7576 C 700.564 5.24598 0.410227 0
M  V30 7577 O 699.59 5.68909 -0.181888 0
M  V30 7578 N 700.792 5.54737 1.71017 0
M  V30 7579 H 703.557 2.7329 -1.23015 0
M  V30 7580 H 701.118 1.41063 -0.794539 0
M  V30 7581 H 703.11 3.92015 1.00532 0
M  V30 7582 H 701.68 2.87919 1.21744 0
M  V30 7583 H 700.9 3.78634 -1.09682 0
M  V30 7584 H 702.188 4.99648 -0.960717 0
M  V30 7585 H 701.586 5.20594 2.21356 0
M  V30 7586 H 700.143 6.13824 2.19234 0
M  V30 7587 N 703.576 0.692616 1.41565 0
M  V30 7588 C 704.524 0.0139952 2.32596 0
M  V30 7589 C 705.518 -0.771691 1.50802 0
M  V30 7590 O 706.724 -0.677646 1.66757 0
M  V30 7591 H 703.099 -0.0142745 0.751865 0
M  V30 7592 H 705.07 0.798851 2.87508 0
M  V30 7593 C 703.819 -0.910602 3.35564 0
M  V30 7594 H 703.142 -0.315446 3.98554 0
M  V30 7595 H 704.582 -1.3538 4.01806 0
M  V30 7596 C 703.041 -2.02539 2.6922 0
M  V30 7597 O 703.571 -3.11386 2.53775 0
M  V30 7598 N 701.777 -1.80227 2.27962 0
M  V30 7599 H 701.324 -0.917054 2.40724 0
M  V30 7600 H 701.282 -2.55001 1.83907 0
M  V30 7601 N 705.054 -1.51416 0.437162 0
M  V30 7602 C 706.301 -2.02086 -0.129364 0
M  V30 7603 C 706.629 -1.32133 -1.42728 0
M  V30 7604 O 705.884 -0.424916 -1.91031 0
M  V30 7605 C 706.183 -3.55203 -0.39564 0
M  V30 7606 C 705.849 -4.43447 0.81644 0
M  V30 7607 C 704.511 -4.67285 1.14884 0
M  V30 7608 C 706.863 -4.95219 1.62503 0
M  V30 7609 C 704.191 -5.40141 2.29052 0
M  V30 7610 C 706.543 -5.69327 2.7577 0
M  V30 7611 C 705.207 -5.91429 3.09464 0
M  V30 7612 H 704.477 -0.739486 -0.0473375 0
M  V30 7613 H 707.124 -1.82368 0.584321 0
M  V30 7614 H 705.429 -3.73252 -1.19121 0
M  V30 7615 H 707.126 -3.91944 -0.847399 0
M  V30 7616 H 703.716 -4.2509 0.547422 0
M  V30 7617 H 707.9 -4.76686 1.38144 0
M  V30 7618 H 703.156 -5.55468 2.55471 0
M  V30 7619 H 707.33 -6.08433 3.38795 0
M  V30 7620 H 704.957 -6.47662 3.98042 0
M  V30 7621 N 706.532 -0.168513 -1.56696 0
M  V30 7622 C 707.442 0.775435 -2.21414 0
M  V30 7623 C 708.458 1.25529 -1.20492 0
M  V30 7624 O 709.634 1.30801 -1.53144 0
M  V30 7625 C 706.699 1.9886 -2.83999 0
M  V30 7626 C 705.76 1.5559 -4.00113 0
M  V30 7627 C 704.993 2.71124 -4.59704 0
M  V30 7628 O 705.216 3.87917 -4.18182 0
M  V30 7629 O 704.15 2.4536 -5.4962 0
M  V30 7630 H 707.976 0.254416 -3.02632 0
M  V30 7631 H 705.561 0.0595507 -1.49281 0
M  V30 7632 H 707.443 2.69816 -3.23693 0
M  V30 7633 H 706.118 2.49874 -2.05779 0
M  V30 7634 H 705.025 0.815924 -3.65094 0
M  V30 7635 H 706.358 1.09271 -4.79917 0
M  V30 7636 N 708.01 1.57248 0.105221 0
M  V30 7637 C 708.92 2.04653 1.14693 0
M  V30 7638 C 709.936 0.969488 1.44489 0
M  V30 7639 O 711.112 1.28196 1.55331 0
M  V30 7640 C 708.177 2.45297 2.45011 0
M  V30 7641 C 707.238 3.67148 2.22489 0
M  V30 7642 C 706.471 4.05844 3.46592 0
M  V30 7643 O 706.694 3.44736 4.54437 0
M  V30 7644 O 705.628 4.98862 3.36779 0
M  V30 7645 H 709.454 2.93663 0.774336 0
M  V30 7646 H 707.039 1.45998 0.31701 0
M  V30 7647 H 708.921 2.72112 3.21766 0
M  V30 7648 H 707.596 1.59429 2.81717 0
M  V30 7649 H 706.503 3.45463 1.43547 0
M  V30 7650 H 707.836 4.53764 1.9068 0
M  V30 7651 N 709.488 -0.375779 1.53054 0
M  V30 7652 C 710.421 -1.48187 1.7354 0
M  V30 7653 C 711.399 -1.5177 0.583495 0
M  V30 7654 O 712.583 -1.69976 0.81488 0
M  V30 7655 C 709.71 -2.86598 1.80497 0
M  V30 7656 C 708.756 -3.00784 3.02376 0
M  V30 7657 S 709.589 -2.70601 4.62099 0
M  V30 7658 C 710.745 -4.11181 4.71891 0
M  V30 7659 H 710.978 -1.30587 2.67085 0
M  V30 7660 H 708.511 -0.569485 1.43514 0
M  V30 7661 H 710.469 -3.66353 1.85192 0
M  V30 7662 H 709.13 -3.01514 0.880217 0
M  V30 7663 H 708.323 -4.02128 3.03824 0
M  V30 7664 H 707.925 -2.28939 2.95742 0
M  V30 7665 H 710.217 -5.0529 4.51319 0
M  V30 7666 H 711.16 -4.14742 5.73929 0
M  V30 7667 H 711.568 -3.97706 4.00612 0
M  V30 7668 N 710.966 -1.44241 -0.634997 0
M  V30 7669 C 711.913 -1.5081 -1.74714 0
M  V30 7670 C 712.883 -0.356147 -1.62237 0
M  V30 7671 O 714.068 -0.565848 -1.82216 0
M  V30 7672 C 711.208 -1.45458 -3.12947 0
M  V30 7673 C 710.321 -2.70998 -3.36428 0
M  V30 7674 C 709.456 -2.57507 -4.64611 0
M  V30 7675 C 708.495 -3.78229 -4.81258 0
M  V30 7676 N 707.632 -3.63438 -6.00714 0
M  V30 7677 H 712.472 -2.45832 -1.68436 0
M  V30 7678 H 710.009 -1.2201 -0.821706 0
M  V30 7679 H 711.967 -1.40347 -3.92885 0
M  V30 7680 H 710.597 -0.540058 -3.1825 0
M  V30 7681 H 709.649 -2.86312 -2.50458 0
M  V30 7682 H 710.961 -3.60619 -3.44609 0
M  V30 7683 H 710.115 -2.50207 -5.52703 0
M  V30 7684 H 708.854 -1.65441 -4.58782 0
M  V30 7685 H 707.859 -3.85918 -3.91596 0
M  V30 7686 H 709.084 -4.71327 -4.88904 0
M  V30 7687 H 707.03 -2.7412 -5.95982 0
M  V30 7688 H 706.947 -4.46672 -6.09934 0
M  V30 7689 H 708.215 -3.60022 -6.91378 0
M  V30 7690 N 712.444 0.87505 -1.31075 0
M  V30 7691 C 713.669 1.66583 -1.23551 0
M  V30 7692 C 714.094 1.87067 0.19686 0
M  V30 7693 O 713.452 1.40877 1.1412 0
M  V30 7694 C 713.5 3.01401 -1.97965 0
M  V30 7695 O 712.604 3.90923 -1.31351 0
M  V30 7696 H 711.945 0.508645 -0.426821 0
M  V30 7697 H 714.475 1.09139 -1.7306 0
M  V30 7698 H 714.485 3.51374 -2.07366 0
M  V30 7699 H 713.16 2.85812 -3.02133 0
M  V30 7700 H 711.737 3.49369 -1.30368 0
M  V30 7701 N 713.922 1.13953 1.08869 0
M  V30 7702 C 715.169 0.90481 1.81161 0
M  V30 7703 C 715.497 -0.568824 1.85996 0
M  V30 7704 O 714.752 -1.43723 1.32823 0
M  V30 7705 C 715.051 1.44495 3.26888 0
M  V30 7706 C 714.717 2.93641 3.42178 0
M  V30 7707 C 713.379 3.34361 3.46059 0
M  V30 7708 C 715.731 3.89568 3.46246 0
M  V30 7709 C 713.059 4.69681 3.51592 0
M  V30 7710 C 715.411 5.2474 3.53314 0
M  V30 7711 C 714.075 5.64979 3.55465 0
M  V30 7712 H 713.345 0.331094 0.662916 0
M  V30 7713 H 715.992 1.42242 1.28217 0
M  V30 7714 H 714.297 0.848169 3.82509 0
M  V30 7715 H 715.994 1.23934 3.81368 0
M  V30 7716 H 712.584 2.61156 3.39846 0
M  V30 7717 H 716.768 3.59192 3.42483 0
M  V30 7718 H 712.024 5.00224 3.51547 0
M  V30 7719 H 716.198 5.98882 3.55406 0
M  V30 7720 H 713.825 6.69821 3.59505 0
M  V30 7721 N 715.4 -1.26948 0.933913 0
M  V30 7722 C 716.677 -1.89212 0.495784 0
M  V30 7723 C 717.057 -1.84469 -1.02637 0
M  V30 7724 O 716.405 -1.29409 -1.88323 0
M  V30 7725 C 716.615 -3.32865 1.0489 0
M  V30 7726 C 717.963 -4.09749 1.11315 0
M  V30 7727 O 718.987 -3.41905 0.998966 0
M  V30 7728 O 717.846 -5.31061 1.28983 0
M  V30 7729 H 714.94 -0.811284 0.160459 0
M  V30 7730 H 717.486 -1.35171 1.02601 0
M  V30 7731 H 716.258 -3.30642 2.09265 0
M  V30 7732 H 715.881 -3.94435 0.500692 0
M  V30 7733 N 716.879 -0.700114 -1.41195 0
M  V30 7734 C 717.789 -0.0382854 -2.34569 0
M  V30 7735 C 718.805 0.761036 -1.56474 0
M  V30 7736 O 719.981 0.697553 -1.88934 0
M  V30 7737 C 717.046 0.883522 -3.35253 0
M  V30 7738 C 716.107 0.0758957 -4.29233 0
M  V30 7739 C 715.34 0.9538 -5.25108 0
M  V30 7740 O 715.563 2.19326 -5.26547 0
M  V30 7741 O 714.497 0.401049 -6.00562 0
M  V30 7742 H 718.323 -0.808073 -2.92752 0
M  V30 7743 H 715.908 -0.460479 -1.42127 0
M  V30 7744 H 717.79 1.41199 -3.9704 0
M  V30 7745 H 716.465 1.63272 -2.79506 0
M  V30 7746 H 715.372 -0.497274 -3.7078 0
M  V30 7747 H 716.705 -0.634741 -4.8809 0
M  V30 7748 N 718.357 1.51182 -0.445186 0
M  V30 7749 C 719.604 2.02152 0.118645 0
M  V30 7750 C 719.932 1.32888 1.42025 0
M  V30 7751 O 719.187 0.435041 1.90803 0
M  V30 7752 C 719.486 3.55408 0.376797 0
M  V30 7753 C 719.152 4.43008 -0.839945 0
M  V30 7754 C 717.814 4.66669 -1.17361 0
M  V30 7755 C 720.166 4.9435 -1.65127 0
M  V30 7756 C 717.494 5.38919 -2.31913 0
M  V30 7757 C 719.846 5.67857 -2.78786 0
M  V30 7758 C 718.51 5.89779 -3.12597 0
M  V30 7759 H 717.78 0.739727 0.0434152 0
M  V30 7760 H 720.427 1.82055 -0.593984 0
M  V30 7761 H 718.732 3.73879 1.1714 0
M  V30 7762 H 720.429 3.92388 0.826602 0
M  V30 7763 H 717.019 4.24793 -0.569958 0
M  V30 7764 H 721.203 4.75947 -1.4067 0
M  V30 7765 H 716.459 5.54105 -2.58413 0
M  V30 7766 H 720.633 6.06628 -3.42017 0
M  V30 7767 H 718.26 6.45542 -4.01471 0
M  V30 7768 N 719.835 0.176821 1.56605 0
M  V30 7769 C 720.768 -0.790135 2.14084 0
M  V30 7770 C 721.746 -1.22219 1.07244 0
M  V30 7771 O 722.93 -1.31298 1.35252 0
M  V30 7772 C 720.057 -2.06475 2.68488 0
M  V30 7773 C 719.103 -1.77628 3.87751 0
M  V30 7774 S 719.936 -0.940612 5.27174 0
M  V30 7775 C 721.092 -2.22577 5.84988 0
M  V30 7776 H 721.325 -0.30144 2.95768 0
M  V30 7777 H 718.858 -0.0379279 1.54353 0
M  V30 7778 H 720.816 -2.79683 3.00479 0
M  V30 7779 H 719.477 -2.52457 1.8688 0
M  V30 7780 H 718.67 -2.72215 4.24164 0
M  V30 7781 H 718.272 -1.12512 3.56675 0
M  V30 7782 H 720.564 -3.17992 5.98237 0
M  V30 7783 H 721.507 -1.90624 6.81959 0
M  V30 7784 H 721.915 -2.34588 5.13448 0
M  V30 7785 N 721.313 -1.57302 -0.09688 0
M  V30 7786 C 722.26 -2.01933 -1.11766 0
M  V30 7787 C 723.23 -0.895329 -1.39904 0
M  V30 7788 O 724.415 -1.16119 -1.51397 0
M  V30 7789 C 721.555 -2.44726 -2.43317 0
M  V30 7790 C 720.668 -3.70639 -2.21925 0
M  V30 7791 C 719.803 -4.02318 -3.46862 0
M  V30 7792 C 718.842 -5.21346 -3.20725 0
M  V30 7793 N 717.979 -5.48787 -4.37924 0
M  V30 7794 H 722.819 -2.88919 -0.730075 0
M  V30 7795 H 720.356 -1.42901 -0.348962 0
M  V30 7796 H 722.314 -2.6758 -3.20088 0
M  V30 7797 H 720.944 -1.60753 -2.79926 0
M  V30 7798 H 719.996 -3.55271 -1.35965 0
M  V30 7799 H 721.308 -4.57557 -1.98603 0
M  V30 7800 H 720.462 -4.25939 -4.32042 0
M  V30 7801 H 719.201 -3.13918 -3.73238 0
M  V30 7802 H 718.206 -4.97547 -2.33938 0
M  V30 7803 H 719.431 -6.11343 -2.95697 0
M  V30 7804 H 717.377 -4.63346 -4.64378 0
M  V30 7805 H 717.294 -6.30073 -4.17785 0
M  V30 7806 H 718.562 -5.76943 -5.24173 0
M  V30 7807 N 722.791 0.367657 -1.53252 0
M  V30 7808 C 723.754 1.43308 -1.78873 0
M  V30 7809 C 724.754 1.46671 -0.659115 0
M  V30 7810 O 725.944 1.47468 -0.927306 0
M  V30 7811 C 723.076 2.82442 -1.90892 0
M  V30 7812 H 724.269 1.21864 -2.74024 0
M  V30 7813 H 721.822 0.600668 -1.44297 0
M  V30 7814 H 722.557 3.09202 -0.978 0
M  V30 7815 H 722.342 2.81399 -2.73051 0
M  V30 7816 H 723.832 3.59601 -2.12314 0
M  V30 7817 N 724.269 1.44576 0.627338 0
M  V30 7818 C 725.499 1.50829 1.41189 0
M  V30 7819 C 725.907 0.133083 1.88731 0
M  V30 7820 O 725.25 -0.87199 1.61685 0
M  V30 7821 C 725.312 2.41449 2.66351 0
M  V30 7822 C 724.976 3.88549 2.40579 0
M  V30 7823 C 725.973 4.78981 2.0217 0
M  V30 7824 C 723.658 4.33287 2.54102 0
M  V30 7825 C 725.652 6.12153 1.77618 0
M  V30 7826 C 723.339 5.66505 2.29163 0
M  V30 7827 C 724.337 6.55756 1.9098 0
M  V30 7828 O 724.025 7.86506 1.66321 0
M  V30 7829 H 723.757 0.513797 0.439304 0
M  V30 7830 H 726.311 1.90256 0.774059 0
M  V30 7831 H 724.541 1.96955 3.32784 0
M  V30 7832 H 726.23 2.38608 3.28361 0
M  V30 7833 H 726.996 4.45689 1.91277 0
M  V30 7834 H 722.875 3.64074 2.82792 0
M  V30 7835 H 726.419 6.81776 1.47739 0
M  V30 7836 H 722.316 5.99358 2.39668 0
M  V30 7837 H 723.084 7.98341 1.80536 0
M  V30 7838 N 725.747 -0.868086 1.31537 0
M  V30 7839 C 726.694 -1.97548 1.19346 0
M  V30 7840 C 727.664 -1.65913 0.0787922 0
M  V30 7841 O 728.849 -1.89129 0.251985 0
M  V30 7842 C 725.989 -3.32922 0.908692 0
M  V30 7843 C 725.102 -3.77141 2.10687 0
M  V30 7844 C 724.237 -5.01241 1.75873 0
M  V30 7845 C 723.276 -5.37914 2.92088 0
M  V30 7846 N 722.413 -6.53192 2.57457 0
M  V30 7847 H 727.253 -2.07307 2.14074 0
M  V30 7848 H 724.79 -1.01483 1.06487 0
M  V30 7849 H 726.748 -4.10867 0.724138 0
M  V30 7850 H 725.378 -3.228 -0.0017611 0
M  V30 7851 H 724.43 -2.94961 2.40213 0
M  V30 7852 H 725.742 -4.00248 2.97663 0
M  V30 7853 H 724.896 -5.86858 1.53891 0
M  V30 7854 H 723.635 -4.80041 0.86091 0
M  V30 7855 H 722.64 -4.50814 3.14717 0
M  V30 7856 H 723.865 -5.61077 3.82582 0
M  V30 7857 H 721.811 -6.33536 1.702 0
M  V30 7858 H 721.728 -6.76252 3.37963 0
M  V30 7859 H 722.996 -7.41997 2.38873 0
M  V30 7860 N 727.225 -1.14528 -1.08264 0
M  V30 7861 C 728.188 -0.83632 -2.13397 0
M  V30 7862 C 729.188 0.159715 -1.60005 0
M  V30 7863 O 730.378 -0.0688098 -1.74064 0
M  V30 7864 C 727.51 -0.246973 -3.40004 0
M  V30 7865 H 728.703 -1.76808 -2.42237 0
M  V30 7866 H 726.256 -0.951509 -1.24 0
M  V30 7867 H 726.991 0.693436 -3.168 0
M  V30 7868 H 726.776 -0.964412 -3.80055 0
M  V30 7869 H 728.266 -0.0480679 -4.17572 0
M  V30 7870 N 728.703 1.26451 -0.940633 0
M  V30 7871 C 729.635 2.25556 -0.407104 0
M  V30 7872 C 730.648 1.55888 0.469324 0
M  V30 7873 O 731.837 1.76292 0.279858 0
M  V30 7874 C 728.937 3.36109 0.434064 0
M  V30 7875 C 728.11 4.3532 -0.426082 0
M  V30 7876 C 727.169 5.25004 0.354563 0
M  V30 7877 O 726.195 5.68684 -0.242219 0
M  V30 7878 N 727.397 5.5652 1.65123 0
M  V30 7879 H 730.162 2.7197 -1.25907 0
M  V30 7880 H 727.723 1.40212 -0.809456 0
M  V30 7881 H 729.715 3.93059 0.963684 0
M  V30 7882 H 728.285 2.89194 1.18683 0
M  V30 7883 H 727.505 3.77449 -1.13692 0
M  V30 7884 H 728.793 4.986 -1.01366 0
M  V30 7885 H 728.191 5.22912 2.15822 0
M  V30 7886 H 726.748 6.16115 2.12711 0
M  V30 7887 N 730.181 0.707592 1.40822 0
M  V30 7888 C 731.114 -0.000859377 2.282 0
M  V30 7889 C 732.092 -0.7758 1.42899 0
M  V30 7890 O 733.276 -0.76411 1.72318 0
M  V30 7891 C 730.403 -1.00861 3.23334 0
M  V30 7892 C 729.449 -0.32543 4.25257 0
M  V30 7893 S 730.282 0.940908 5.27169 0
M  V30 7894 C 731.438 -0.0649459 6.25866 0
M  V30 7895 H 731.671 0.740207 2.87938 0
M  V30 7896 H 729.204 0.498311 1.46138 0
M  V30 7897 H 731.162 -1.58485 3.78672 0
M  V30 7898 H 729.823 -1.72233 2.62668 0
M  V30 7899 H 729.016 -1.08697 4.92139 0
M  V30 7900 H 728.618 0.178044 3.73576 0
M  V30 7901 H 730.91 -0.914377 6.71301 0
M  V30 7902 H 731.853 0.570276 7.058 0
M  V30 7903 H 732.261 -0.425098 5.62897 0
M  V30 7904 N 731.66 -1.50943 0.453197 0
M  V30 7905 C 732.57 -2.31884 -0.355963 0
M  V30 7906 C 733.586 -1.41481 -1.01287 0
M  V30 7907 O 734.762 -1.74546 -1.00477 0
M  V30 7908 C 731.827 -3.15668 -1.43369 0
M  V30 7909 C 730.888 -4.2187 -0.795253 0
M  V30 7910 C 730.121 -5.0165 -1.82162 0
M  V30 7911 O 730.344 -4.82266 -3.04592 0
M  V30 7912 O 729.278 -5.85311 -1.40336 0
M  V30 7913 H 733.104 -3.02162 0.305248 0
M  V30 7914 H 730.689 -1.47839 0.215398 0
M  V30 7915 H 732.571 -3.67709 -2.05836 0
M  V30 7916 H 731.246 -2.48137 -2.07869 0
M  V30 7917 H 730.153 -3.73867 -0.132106 0
M  V30 7918 H 731.486 -4.9182 -0.193484 0
M  V30 7919 N 733.138 -0.185124 -1.56509 0
M  V30 7920 C 734.368 0.461469 -2.0138 0
M  V30 7921 C 734.776 1.56417 -1.06445 0
M  V30 7922 O 734.119 1.83603 -0.0597515 0
M  V30 7923 C 734.181 1.08731 -3.42663 0
M  V30 7924 C 733.845 0.124581 -4.5683 0
M  V30 7925 C 734.842 -0.662295 -5.15664 0
M  V30 7926 C 732.527 0.0163947 -5.02297 0
M  V30 7927 C 734.521 -1.54442 -6.18406 0
M  V30 7928 C 732.208 -0.869301 -6.04885 0
M  V30 7929 C 733.206 -1.64828 -6.62813 0
M  V30 7930 O 732.894 -2.51915 -7.63409 0
M  V30 7931 H 732.626 0.1212 -0.665046 0
M  V30 7932 H 735.18 -0.288119 -2.03369 0
M  V30 7933 H 733.41 1.8853 -3.37629 0
M  V30 7934 H 735.099 1.63753 -3.71403 0
M  V30 7935 H 735.865 -0.588963 -4.81411 0
M  V30 7936 H 731.744 0.61253 -4.56913 0
M  V30 7937 H 735.288 -2.15289 -6.63548 0
M  V30 7938 H 731.185 -0.943786 -6.38563 0
M  V30 7939 H 731.953 -2.45584 -7.80789 0
M  V30 7940 N 734.616 1.57351 0.0885366 0
M  V30 7941 C 735.863 1.86419 0.790824 0
M  V30 7942 C 736.191 0.774561 1.78412 0
M  V30 7943 O 735.446 -0.23119 1.9433 0
M  V30 7944 C 735.745 3.22098 1.5488 0
M  V30 7945 C 735.411 4.4548 0.697025 0
M  V30 7946 C 734.073 4.78975 0.462237 0
M  V30 7947 C 736.425 5.21094 0.105315 0
M  V30 7948 C 733.753 5.85507 -0.374016 0
M  V30 7949 C 736.105 6.28509 -0.718298 0
M  V30 7950 C 734.769 6.60515 -0.963116 0
M  V30 7951 H 734.039 0.682157 0.289383 0
M  V30 7952 H 736.686 1.91429 0.0520961 0
M  V30 7953 H 734.991 3.12803 2.35927 0
M  V30 7954 H 736.688 3.41819 2.09669 0
M  V30 7955 H 733.278 4.19255 0.890137 0
M  V30 7956 H 737.462 4.95544 0.273856 0
M  V30 7957 H 732.718 6.08713 -0.572606 0
M  V30 7958 H 736.892 6.86268 -1.18362 0
M  V30 7959 H 734.519 7.42893 -1.6129 0
M  V30 7960 N 736.094 -0.359525 1.53444 0
M  V30 7961 C 737.34 -1.10315 1.70172 0
M  V30 7962 C 737.673 -1.88788 0.455287 0
M  V30 7963 O 736.948 -1.86635 -0.547514 0
M  V30 7964 C 737.231 -2.05744 2.95536 0
M  V30 7965 C 737.084 -1.3084 4.3035 0
M  V30 7966 C 738.403 -3.05784 3.16518 0
M  V30 7967 H 735.522 -0.399662 0.619225 0
M  V30 7968 H 738.164 -0.383338 1.86093 0
M  V30 7969 H 736.314 -2.67125 2.82093 0
M  V30 7970 H 737.986 -0.721959 4.55615 0
M  V30 7971 H 736.229 -0.610283 4.29486 0
M  V30 7972 H 736.9 -2.00718 5.14214 0
M  V30 7973 H 739.376 -2.5451 3.29187 0
M  V30 7974 H 738.252 -3.69772 4.05659 0
M  V30 7975 H 738.513 -3.76289 2.32076 0
M  V30 7976 N 737.572 -1.44907 -0.619662 0
M  V30 7977 C 738.519 -1.52654 -1.73105 0
M  V30 7978 C 739.489 -0.373334 -1.6185 0
M  V30 7979 O 740.674 -0.585143 -1.81606 0
M  V30 7980 C 737.814 -1.48769 -3.11387 0
M  V30 7981 C 736.927 -2.74551 -3.33535 0
M  V30 7982 C 736.062 -2.62421 -4.61854 0
M  V30 7983 C 735.101 -3.83312 -4.77219 0
M  V30 7984 N 734.238 -3.69789 -5.96826 0
M  V30 7985 H 739.078 -2.47605 -1.65819 0
M  V30 7986 H 736.615 -1.22875 -0.808719 0
M  V30 7987 H 738.573 -1.44507 -3.91374 0
M  V30 7988 H 737.203 -0.573783 -3.1766 0
M  V30 7989 H 736.255 -2.88953 -2.47408 0
M  V30 7990 H 737.567 -3.64253 -3.40765 0
M  V30 7991 H 736.721 -2.56056 -5.50019 0
M  V30 7992 H 735.46 -1.70298 -4.57001 0
M  V30 7993 H 734.465 -3.90049 -3.87481 0
M  V30 7994 H 735.69 -4.76486 -4.83878 0
M  V30 7995 H 733.636 -2.80426 -5.93041 0
M  V30 7996 H 733.553 -4.53116 -6.05163 0
M  V30 7997 H 734.821 -3.67335 -6.87521 0
M  V30 7998 N 739.05 0.861098 -1.31996 0
M  V30 7999 C 740 1.95703 -1.1698 0
M  V30 8000 C 740.984 1.60709 -0.0784201 0
M  V30 8001 O 742.176 1.74365 -0.304262 0
M  V30 8002 C 739.305 3.31606 -0.888388 0
M  V30 8003 C 738.391 3.7284 -2.02117 0
M  V30 8004 N 738.782 3.85957 -3.26911 0
M  V30 8005 C 737.08 4.02419 -1.92289 0
M  V30 8006 C 737.781 4.21333 -4.01065 0
M  V30 8007 N 736.757 4.32502 -3.29307 0
M  V30 8008 H 740.559 2.03968 -2.11599 0
M  V30 8009 H 738.073 1.05245 -1.23682 0
M  V30 8010 H 740.07 4.09881 -0.761782 0
M  V30 8011 H 738.73 3.24662 0.0494898 0
M  V30 8012 H 739.741 3.70449 -3.61923 0
M  V30 8013 H 736.418 4.03814 -1.06022 0
M  V30 8014 H 737.808 4.39005 -5.08649 0
M  V30 8015 N 740.528 1.15101 1.07655 0
M  V30 8016 C 741.461 0.788522 2.14144 0
M  V30 8017 C 742.439 -0.233635 1.60913 0
M  V30 8018 O 743.623 -0.120908 1.88112 0
M  V30 8019 C 740.75 0.172033 3.38263 0
M  V30 8020 C 739.796 1.16559 4.10264 0
M  V30 8021 S 740.629 2.70627 4.62084 0
M  V30 8022 C 741.785 2.10389 5.8948 0
M  V30 8023 H 742.018 1.69047 2.44561 0
M  V30 8024 H 739.551 0.973033 1.19881 0
M  V30 8025 H 741.509 -0.177223 4.10117 0
M  V30 8026 H 740.17 -0.707468 3.06029 0
M  V30 8027 H 739.363 0.6824 4.99359 0
M  V30 8028 H 738.965 1.45923 3.44358 0
M  V30 8029 H 741.257 1.46405 6.61492 0
M  V30 8030 H 742.2 2.97639 6.42508 0
M  V30 8031 H 742.608 1.54816 5.42856 0
M  V30 8032 N 742.006 -1.2595 0.947325 0
M  V30 8033 C 743.246 -1.95218 0.605743 0
M  V30 8034 C 743.61 -1.72624 -0.84054 0
M  V30 8035 O 744.811 -2.35748 -1.29136 0
M  V30 8036 C 743.082 -3.44654 0.94596 0
M  V30 8037 S 744.641 -4.32922 0.715849 0
M  V30 8038 H 741.459 -0.675159 0.222894 0
M  V30 8039 H 744.061 -1.52766 1.21995 0
M  V30 8040 H 742.765 -3.586 1.99585 0
M  V30 8041 H 742.296 -3.92082 0.321718 0
M  V30 8042 H 744.311 -4.94445 -0.416959 0
M  V30 8043 N 743.484 -0.715051 -1.40445 0
M  V30 8044 C 744.724 -0.258742 -2.02756 0
M  V30 8045 C 745.088 1.12661 -1.55472 0
M  V30 8046 O 746.289 1.67988 -2.09842 0
M  V30 8047 C 744.56 -0.335201 -3.55825 0
M  V30 8048 S 746.119 0.044201 -4.38778 0
M  V30 8049 H 742.937 -0.102683 -0.703546 0
M  V30 8050 H 745.539 -0.937151 -1.71574 0
M  V30 8051 H 744.243 -1.34511 -3.87731 0
M  V30 8052 H 743.774 0.361705 -3.91734 0
M  V30 8053 H 745.789 1.26639 -4.79768 0
M  V30 8054 N 744.962 1.50701 -0.461195 0
M  V30 8055 C 745.925 2.2686 0.326679 0
M  V30 8056 C 746.925 1.31243 0.929085 0
M  V30 8057 O 748.115 1.54754 0.799807 0
M  V30 8058 C 745.247 3.07844 1.46441 0
M  V30 8059 H 746.44 2.97954 -0.341095 0
M  V30 8060 H 743.993 1.54814 -0.214984 0
M  V30 8061 H 744.728 2.41223 2.16753 0
M  V30 8062 H 744.513 3.78101 1.03836 0
M  V30 8063 H 746.003 3.65469 2.02044 0
M  V30 8064 N 746.441 0.193421 1.56409 0
M  V30 8065 C 747.718 -0.493318 1.89277 0
M  V30 8066 C 748.098 -1.79765 1.10669 0
M  V30 8067 O 747.446 -2.27558 0.207274 0
M  V30 8068 C 747.656 -0.713732 3.41624 0
M  V30 8069 C 749.004 -1.03385 4.11821 0
M  V30 8070 O 750.028 -0.801511 3.47065 0
M  V30 8071 O 748.887 -1.47327 5.26267 0
M  V30 8072 H 745.981 -0.256973 0.786062 0
M  V30 8073 H 748.527 0.23351 1.68086 0
M  V30 8074 H 747.299 0.207446 3.9075 0
M  V30 8075 H 746.922 -1.49308 3.68501 0
M  V30 8076 N 747.919 -1.57396 -0.0801906 0
M  V30 8077 C 748.867 -2.04136 -1.11495 0
M  V30 8078 C 749.861 -0.945137 -1.40583 0
M  V30 8079 O 751.067 -1.13028 -1.40088 0
M  V30 8080 H 747.442 -0.65076 -0.37685 0
M  V30 8081 H 749.413 -2.90205 -0.694526 0
M  V30 8082 C 748.162 -2.49399 -2.42272 0
M  V30 8083 H 747.485 -3.33339 -2.20737 0
M  V30 8084 H 748.925 -2.85864 -3.13142 0
M  V30 8085 C 747.384 -1.37341 -3.07635 0
M  V30 8086 O 747.914 -0.710829 -3.95361 0
M  V30 8087 N 746.12 -1.12064 -2.68123 0
M  V30 8088 H 745.667 -1.66126 -1.96875 0
M  V30 8089 H 745.625 -0.372916 -3.12181 0
M  V30 8090 N 749.397 0.351382 -1.53633 0
M  V30 8091 C 750.637 1.10102 -1.72212 0
M  V30 8092 C 751.001 1.86128 -0.471198 0
M  V30 8093 O 752.202 2.63445 -0.533887 0
M  V30 8094 C 750.473 2.02348 -2.94602 0
M  V30 8095 S 752.032 2.84641 -3.33954 0
M  V30 8096 H 748.85 0.372145 -0.60583 0
M  V30 8097 H 751.452 0.38044 -1.91763 0
M  V30 8098 H 750.156 1.45283 -3.83824 0
M  V30 8099 H 749.687 2.78856 -2.77493 0
M  V30 8100 H 751.702 4.04724 -2.87076 0
M  V30 8101 N 750.875 1.45233 0.611969 0
M  V30 8102 C 752.124 1.48296 1.36716 0
M  V30 8103 C 752.437 0.12706 1.95187 0
M  V30 8104 O 753.643 0.0353066 2.71477 0
M  V30 8105 C 752.099 2.61168 2.47627 0
M  V30 8106 C 751.707 4.03051 1.95587 0
M  V30 8107 C 753.451 2.73472 3.24674 0
M  V30 8108 C 751.358 5.07312 3.03954 0
M  V30 8109 H 750.288 0.5518 0.513841 0
M  V30 8110 H 752.939 1.7136 0.656359 0
M  V30 8111 H 751.321 2.31379 3.21372 0
M  V30 8112 H 752.495 4.42497 1.2858 0
M  V30 8113 H 750.81 3.95158 1.31298 0
M  V30 8114 H 753.407 3.48537 4.05494 0
M  V30 8115 H 753.75 1.79953 3.75397 0
M  V30 8116 H 754.283 3.02765 2.58028 0
M  V30 8117 H 751.022 6.02525 2.58154 0
M  V30 8118 H 750.542 4.7244 3.69541 0
M  V30 8119 H 752.221 5.31867 3.6841 0
M  V30 8120 N 752.353 -0.854086 1.3245 0
M  V30 8121 C 753.63 -1.59188 1.1366 0
M  V30 8122 C 754.01 -2.08917 -0.302807 0
M  V30 8123 O 753.358 -1.8795 -1.29951 0
M  V30 8124 C 753.568 -2.73757 2.16467 0
M  V30 8125 C 754.916 -3.43323 2.49829 0
M  V30 8126 O 755.94 -2.83983 2.15017 0
M  V30 8127 O 754.799 -4.50409 3.09506 0
M  V30 8128 H 751.893 -0.701092 0.438633 0
M  V30 8129 H 754.439 -0.898165 1.43983 0
M  V30 8130 H 753.211 -2.3454 3.1322 0
M  V30 8131 H 752.834 -3.50804 1.87142 0
M  V30 8132 N 753.831 -1.1567 -1.07043 0
M  V30 8133 C 755.08 -0.928039 -1.79082 0
M  V30 8134 C 755.393 0.545968 -1.87826 0
M  V30 8135 O 756.599 0.892308 -2.56418 0
M  V30 8136 C 755.055 -1.61103 -3.21829 0
M  V30 8137 C 754.663 -3.12228 -3.21275 0
M  V30 8138 C 756.407 -1.46404 -3.98455 0
M  V30 8139 C 754.314 -3.733 -4.58695 0
M  V30 8140 H 753.244 -0.34357 -0.671175 0
M  V30 8141 H 755.895 -1.38718 -1.20123 0
M  V30 8142 H 754.277 -1.07958 -3.81 0
M  V30 8143 H 755.451 -3.72155 -2.71731 0
M  V30 8144 H 753.766 -3.26725 -2.58147 0
M  V30 8145 H 756.363 -1.8942 -5.00024 0
M  V30 8146 H 756.706 -0.41195 -4.14257 0
M  V30 8147 H 757.239 -1.96663 -3.45787 0
M  V30 8148 H 753.978 -4.78423 -4.48098 0
M  V30 8149 H 753.498 -3.18157 -5.08465 0
M  V30 8150 H 755.177 -3.7441 -5.27661 0
M  V30 8151 N 755.309 1.25446 -0.953992 0
M  V30 8152 C 756.272 2.24156 -0.478179 0
M  V30 8153 C 757.272 1.55278 0.417776 0
M  V30 8154 O 758.462 1.72866 0.215155 0
M  V30 8155 C 755.594 3.39495 0.309202 0
M  V30 8156 H 756.787 2.67764 -1.35064 0
M  V30 8157 H 754.34 1.37822 -0.737206 0
M  V30 8158 H 755.075 3.01307 1.19936 0
M  V30 8159 H 754.86 3.90679 -0.333562 0
M  V30 8160 H 756.35 4.12796 0.631594 0
M  V30 8161 N 756.787 0.722489 1.40064 0
M  V30 8162 C 757.737 0.0506801 2.27944 0
M  V30 8163 C 758.721 -0.725493 1.43615 0
M  V30 8164 O 759.913 -0.596559 1.66644 0
M  V30 8165 C 757.042 -0.865195 3.32219 0
M  V30 8166 C 756.128 -0.0838393 4.24017 0
M  V30 8167 N 756.519 0.936516 4.97054 0
M  V30 8168 C 754.817 -0.315371 4.44884 0
M  V30 8169 C 755.518 1.4066 5.64437 0
M  V30 8170 N 754.494 0.727485 5.3871 0
M  V30 8171 H 758.296 0.832609 2.8186 0
M  V30 8172 H 755.81 0.555691 1.52597 0
M  V30 8173 H 757.807 -1.36186 3.94029 0
M  V30 8174 H 756.467 -1.64642 2.79862 0
M  V30 8175 H 757.478 1.31755 5.0086 0
M  V30 8176 H 754.155 -1.07238 4.03492 0
M  V30 8177 H 755.545 2.25482 6.32936 0
M  V30 8178 N 758.265 -1.50454 0.469181 0
M  V30 8179 C 759.228 -2.2703 -0.314643 0
M  V30 8180 C 760.228 -1.31734 -0.922111 0
M  V30 8181 O 761.418 -1.55176 -0.791588 0
M  V30 8182 C 758.55 -3.08616 -1.44806 0
M  V30 8183 H 759.743 -2.97769 0.356892 0
M  V30 8184 H 757.296 -1.54698 0.223191 0
M  V30 8185 H 758.031 -2.42369 -2.1547 0
M  V30 8186 H 757.816 -3.78647 -1.01829 0
M  V30 8187 H 759.306 -3.66536 -2.00103 0
M  V30 8188 N 759.743 -0.201713 -1.56304 0
M  V30 8189 C 760.653 0.728296 -2.23009 0
M  V30 8190 C 761.669 1.22945 -1.23128 0
M  V30 8191 O 762.845 1.27523 -1.55884 0
M  V30 8192 C 759.91 1.92792 -2.88153 0
M  V30 8193 C 758.971 1.47068 -4.03323 0
M  V30 8194 C 758.204 2.61312 -4.65351 0
M  V30 8195 O 758.427 3.7896 -4.26317 0
M  V30 8196 O 757.361 2.33646 -5.54701 0
M  V30 8197 H 761.187 0.190166 -3.03104 0
M  V30 8198 H 758.772 0.0278725 -1.49374 0
M  V30 8199 H 760.654 2.6289 -3.29343 0
M  V30 8200 H 759.329 2.45452 -2.11033 0
M  V30 8201 H 758.236 0.738299 -3.66742 0
M  V30 8202 H 759.569 0.990666 -4.82127 0
M  V30 8203 N 761.222 1.57436 0.0718424 0
M  V30 8204 C 762.638 1.53792 0.426628 0
M  V30 8205 C 762.838 0.921887 1.79174 0
M  V30 8206 O 761.894 0.524374 2.46995 0
M  V30 8207 C 763.207 2.98443 0.367739 0
M  V30 8208 C 764.755 3.09778 0.447928 0
M  V30 8209 C 765.23 4.5608 0.418946 0
M  V30 8210 N 766.721 4.60716 0.479022 0
M  V30 8211 C 767.456 5.71397 0.47881 0
M  V30 8212 N 766.952 6.91443 0.433417 0
M  V30 8213 N 768.745 5.59639 0.525364 0
M  V30 8214 H 760.896 1.95848 -0.822033 0
M  V30 8215 H 763.159 0.896418 -0.308447 0
M  V30 8216 H 762.865 3.47072 -0.56865 0
M  V30 8217 H 762.739 3.58335 1.17795 0
M  V30 8218 H 765.126 2.61122 1.37474 0
M  V30 8219 H 765.207 2.52796 -0.390857 0
M  V30 8220 H 764.851 5.05393 -0.504016 0
M  V30 8221 H 764.781 5.10925 1.27526 0
M  V30 8222 H 767.272 3.74328 0.518355 0
M  V30 8223 H 767.585 7.71562 0.43718 0
M  V30 8224 H 765.93 6.93847 0.400106 0
M  V30 8225 H 769.121 4.64756 0.558519 0
M  V30 8226 H 769.294 6.45896 0.52173 0
M  V30 8227 N 762.7 -0.34323 1.53817 0
M  V30 8228 C 763.663 -1.40444 1.8113 0
M  V30 8229 C 764.663 -1.45604 0.682366 0
M  V30 8230 O 765.853 -1.45974 0.950649 0
M  V30 8231 C 762.985 -2.79369 1.95361 0
M  V30 8232 H 764.178 -1.17489 2.75928 0
M  V30 8233 H 761.731 -0.577636 1.45234 0
M  V30 8234 H 762.466 -3.07607 1.02707 0
M  V30 8235 H 762.251 -2.7702 2.77493 0
M  V30 8236 H 763.741 -3.56178 2.18008 0
M  V30 8237 N 764.178 -1.45556 -0.604258 0
M  V30 8238 C 765.589 -1.44171 -1.18624 0
M  V30 8239 C 765.94 -0.171081 -1.95453 0
M  V30 8240 O 765.065 0.727156 -2.03817 0
M  V30 8241 C 765.66 -2.61193 -2.15786 0
M  V30 8242 C 764.219 -2.62918 -2.69353 0
M  V30 8243 C 763.366 -2.36479 -1.4482 0
M  V30 8244 H 766.317 -1.53747 -0.393381 0
M  V30 8245 H 766.338 -2.35481 -2.98879 0
M  V30 8246 H 765.85 -3.53656 -1.59841 0
M  V30 8247 H 763.951 -1.7447 -3.29228 0
M  V30 8248 H 764.064 -3.6224 -3.13559 0
M  V30 8249 H 762.428 -1.86103 -1.73891 0
M  V30 8250 H 763.211 -3.31091 -0.907376 0
M  V30 8251 N 765.656 0.84705 -1.32902 0
M  V30 8252 C 766.586 1.97166 -1.25091 0
M  V30 8253 C 767.567 1.69578 -0.133161 0
M  V30 8254 O 768.752 1.91519 -0.321591 0
M  V30 8255 C 765.882 3.33157 -0.981006 0
M  V30 8256 C 764.836 3.75119 -2.06082 0
M  V30 8257 C 764.162 5.08826 -1.64318 0
M  V30 8258 C 765.462 3.89774 -3.47669 0
M  V30 8259 H 767.156 2.03958 -2.19184 0
M  V30 8260 H 764.702 0.979907 -1.05517 0
M  V30 8261 H 766.655 4.11393 -0.912891 0
M  V30 8262 H 765.379 3.266 -0.00445559 0
M  V30 8263 H 764.038 2.9914 -2.11921 0
M  V30 8264 H 763.686 4.98732 -0.653876 0
M  V30 8265 H 763.386 5.37873 -2.36572 0
M  V30 8266 H 764.91 5.89546 -1.58958 0
M  V30 8267 H 766.324 4.58343 -3.44376 0
M  V30 8268 H 764.721 4.30248 -4.18338 0
M  V30 8269 H 765.791 2.92463 -3.86773 0
M  V30 8270 N 767.134 1.16236 1.06428 0
M  V30 8271 C 768.545 0.950942 1.60667 0
M  V30 8272 C 768.896 -0.505491 1.89576 0
M  V30 8273 O 768.021 -1.37843 1.66818 0
M  V30 8274 C 768.616 1.71982 2.91904 0
M  V30 8275 C 767.175 1.55342 3.4285 0
M  V30 8276 C 766.322 1.72942 2.16763 0
M  V30 8277 H 769.273 1.31126 0.893959 0
M  V30 8278 H 769.294 1.19483 3.61253 0
M  V30 8279 H 768.806 2.77978 2.70831 0
M  V30 8280 H 766.907 0.5178 3.68985 0
M  V30 8281 H 767.02 2.33643 4.18267 0
M  V30 8282 H 765.384 1.15673 2.26918 0
M  V30 8283 H 766.167 2.80324 1.98175 0
M  V30 8284 N 768.612 -1.24939 0.960631 0
M  V30 8285 C 769.859 -1.92818 0.618663 0
M  V30 8286 C 770.187 -1.75177 -0.845173 0
M  V30 8287 O 769.442 -1.09412 -1.62258 0
M  V30 8288 C 769.741 -3.45066 0.930809 0
M  V30 8289 C 769.407 -3.82869 2.38164 0
M  V30 8290 C 768.069 -3.92899 2.7782 0
M  V30 8291 C 770.421 -4.01483 3.32356 0
M  V30 8292 C 767.749 -4.18955 4.10723 0
M  V30 8293 C 770.101 -4.29033 4.6488 0
M  V30 8294 C 768.765 -4.37282 5.04322 0
M  V30 8295 H 768.035 -0.705571 0.226385 0
M  V30 8296 H 770.682 -1.48365 1.21079 0
M  V30 8297 H 768.987 -3.9096 0.256355 0
M  V30 8298 H 770.684 -3.95783 0.644712 0
M  V30 8299 H 767.274 -3.75622 2.06413 0
M  V30 8300 H 771.458 -3.93143 3.02907 0
M  V30 8301 H 766.714 -4.23558 4.40918 0
M  V30 8302 H 770.888 -4.42381 5.3784 0
M  V30 8303 H 768.515 -4.57225 6.0733 0
M  V30 8304 N 770.09 -0.729906 -1.39679 0
M  V30 8305 C 771.02 -0.101618 -2.33279 0
M  V30 8306 C 772.001 0.729854 -1.53646 0
M  V30 8307 O 773.186 0.67587 -1.82059 0
M  V30 8308 C 770.316 0.81024 -3.37716 0
M  V30 8309 C 769.27 0.0833126 -4.27919 0
M  V30 8310 C 768.596 1.11185 -5.23012 0
M  V30 8311 C 769.896 -1.07107 -5.112 0
M  V30 8312 H 771.59 -0.883452 -2.86069 0
M  V30 8313 H 769.136 -0.426283 -1.37546 0
M  V30 8314 H 771.089 1.25927 -4.02145 0
M  V30 8315 H 769.813 1.62413 -2.83354 0
M  V30 8316 H 768.472 -0.346043 -3.64963 0
M  V30 8317 H 768.12 1.91917 -4.64948 0
M  V30 8318 H 767.82 0.63026 -5.8421 0
M  V30 8319 H 769.344 1.56068 -5.90318 0
M  V30 8320 H 770.758 -0.700726 -5.69002 0
M  V30 8321 H 769.155 -1.48196 -5.81514 0
M  V30 8322 H 770.225 -1.89513 -4.46332 0
M  V30 8323 N 771.568 1.50203 -0.477153 0
M  V30 8324 C 772.793 2.07263 0.0754986 0
M  V30 8325 C 773.218 1.33801 1.32208 0
M  V30 8326 O 772.576 0.387482 1.77111 0
M  V30 8327 C 772.624 3.59028 0.336348 0
M  V30 8328 O 771.728 3.87339 1.4157 0
M  V30 8329 H 771.069 0.663815 -0.015662 0
M  V30 8330 H 773.599 1.93321 -0.669936 0
M  V30 8331 H 773.609 4.03927 0.575034 0
M  V30 8332 H 772.284 4.11912 -0.574551 0
M  V30 8333 H 770.861 3.54272 1.16385 0
M  V30 8334 N 773.046 0.209999 1.56195 0
M  V30 8335 C 774.271 -0.433064 2.02828 0
M  V30 8336 C 774.696 -1.5337 1.08901 0
M  V30 8337 O 774.054 -1.81144 0.0751132 0
M  V30 8338 C 774.102 -0.952635 3.47789 0
M  V30 8339 O 773.206 -2.0647 3.56993 0
M  V30 8340 H 772.547 -0.0994594 0.656509 0
M  V30 8341 H 775.077 0.32525 2.01998 0
M  V30 8342 H 775.087 -1.26542 3.8788 0
M  V30 8343 H 773.762 -0.147007 4.1564 0
M  V30 8344 H 772.339 -1.75942 3.28784 0
M  V30 8345 N 774.524 -1.57472 -0.0634922 0
M  V30 8346 C 775.457 -1.99571 -1.10664 0
M  V30 8347 C 776.435 -0.874015 -1.37112 0
M  V30 8348 O 777.619 -1.13702 -1.50347 0
M  V30 8349 C 774.746 -2.3395 -2.44918 0
M  V30 8350 C 773.792 -3.56213 -2.34551 0
M  V30 8351 S 774.625 -5.06727 -1.73169 0
M  V30 8352 C 775.781 -5.44316 -3.08984 0
M  V30 8353 H 776.014 -2.87739 -0.747905 0
M  V30 8354 H 773.547 -1.5198 -0.272316 0
M  V30 8355 H 775.505 -2.54431 -3.22141 0
M  V30 8356 H 774.166 -1.46297 -2.7795 0
M  V30 8357 H 773.359 -3.77812 -3.33578 0
M  V30 8358 H 772.961 -3.35406 -1.65466 0
M  V30 8359 H 775.253 -5.42894 -4.05305 0
M  V30 8360 H 776.196 -6.4502 -2.92156 0
M  V30 8361 H 776.604 -4.71781 -3.09972 0
M  V30 8362 N 776.003 0.335068 -1.53997 0
M  V30 8363 C 777.249 1.07594 -1.71905 0
M  V30 8364 C 777.582 1.88039 -0.485264 0
M  V30 8365 O 776.857 1.87482 0.517752 0
M  V30 8366 C 777.14 2.01016 -2.98772 0
M  V30 8367 C 776.993 1.23977 -4.32377 0
M  V30 8368 C 778.312 3.0071 -3.21343 0
M  V30 8369 H 775.431 0.38976 -0.625505 0
M  V30 8370 H 778.073 0.353684 -1.86679 0
M  V30 8371 H 776.223 2.62603 -2.86307 0
M  V30 8372 H 777.895 0.649383 -4.56706 0
M  V30 8373 H 776.138 0.541878 -4.30402 0
M  V30 8374 H 776.809 1.92512 -5.17342 0
M  V30 8375 H 779.285 2.4924 -3.33194 0
M  V30 8376 H 778.161 3.63272 -4.11491 0
M  V30 8377 H 778.422 3.72549 -2.38033 0
M  V30 8378 N 777.481 1.45874 0.596531 0
M  V30 8379 C 778.758 1.40942 1.35627 0
M  V30 8380 C 779.138 0.0857066 2.10926 0
M  V30 8381 O 778.486 -0.932544 2.08605 0
M  V30 8382 C 778.696 2.63027 2.29386 0
M  V30 8383 C 780.044 3.08588 2.91649 0
M  V30 8384 O 781.068 2.63478 2.39704 0
M  V30 8385 O 779.927 3.86902 3.85965 0
M  V30 8386 H 777.021 0.559838 0.608696 0
M  V30 8387 H 779.567 1.5802 0.618698 0
M  V30 8388 H 778.339 3.5094 1.7308 0
M  V30 8389 H 777.962 2.48338 3.10506 0
M  V30 8390 N 778.959 -0.83999 1.33349 0
M  V30 8391 C 779.907 -1.97113 1.23488 0
M  V30 8392 C 780.901 -1.68849 0.136503 0
M  V30 8393 O 782.107 -1.77476 0.300389 0
M  V30 8394 H 778.482 -0.647049 0.383185 0
M  V30 8395 H 780.453 -2.02554 2.19122 0
M  V30 8396 C 779.202 -3.33314 0.989815 0
M  V30 8397 H 778.525 -3.556 1.82726 0
M  V30 8398 H 779.965 -4.12963 0.961123 0
M  V30 8399 C 778.424 -3.35496 -0.307272 0
M  V30 8400 O 778.954 -3.79589 -1.31434 0
M  V30 8401 N 777.16 -2.88669 -0.334414 0
M  V30 8402 H 776.707 -2.5298 0.485659 0
M  V30 8403 H 776.665 -2.90512 -1.20209 0
M  V30 8404 N 780.437 -1.16799 -1.0581 0
M  V30 8405 C 781.677 -0.963264 -1.80279 0
M  V30 8406 C 782.041 0.499671 -1.85384 0
M  V30 8407 O 783.242 0.823264 -2.55882 0
M  V30 8408 C 781.513 -1.57938 -3.20609 0
M  V30 8409 S 783.072 -1.51997 -4.11634 0
M  V30 8410 H 779.89 -0.346302 -0.620964 0
M  V30 8411 H 782.492 -1.48632 -1.26999 0
M  V30 8412 H 781.196 -2.63672 -3.14492 0
M  V30 8413 H 780.727 -1.05586 -3.78966 0
M  V30 8414 H 782.742 -0.523625 -4.93429 0
M  V30 8415 N 781.915 1.24427 -0.967243 0
M  V30 8416 C 783.164 1.91789 -0.624478 0
M  V30 8417 C 783.477 1.76448 0.844129 0
M  V30 8418 O 784.683 2.38495 1.2974 0
M  V30 8419 C 783.139 3.43743 -1.06626 0
M  V30 8420 C 782.747 3.67771 -2.55829 0
M  V30 8421 C 784.491 4.16958 -0.79662 0
M  V30 8422 C 782.398 5.13293 -2.93742 0
M  V30 8423 H 781.328 0.71811 -0.229856 0
M  V30 8424 H 783.979 1.41081 -1.17339 0
M  V30 8425 H 782.361 3.93484 -0.445663 0
M  V30 8426 H 783.535 3.28631 -3.23015 0
M  V30 8427 H 781.85 3.07841 -2.80398 0
M  V30 8428 H 784.447 5.24171 -1.05589 0
M  V30 8429 H 784.79 4.15442 0.267163 0
M  V30 8430 H 785.323 3.73164 -1.37816 0
M  V30 8431 H 782.062 5.19931 -3.9919 0
M  V30 8432 H 781.582 5.53433 -2.3124 0
M  V30 8433 H 783.261 5.81521 -2.83623 0
M  V30 8434 N 783.393 0.737304 1.3929 0
M  V30 8435 C 784.641 0.285691 2.00071 0
M  V30 8436 C 784.962 -1.13169 1.58801 0
M  V30 8437 O 784.232 -1.77104 0.837308 0
M  V30 8438 H 782.812 0.102638 0.739915 0
M  V30 8439 H 785.474 0.947775 1.70303 0
M  V30 8440 H 784.57 0.335906 3.10287 0
M  V30 8441 N 784.871 -1.49948 0.485112 0
M  V30 8442 C 785.818 -2.28819 -0.301729 0
M  V30 8443 C 786.788 -1.34496 -0.974683 0
M  V30 8444 O 787.973 -1.63444 -0.984418 0
M  V30 8445 C 785.113 -3.16758 -1.36961 0
M  V30 8446 C 784.226 -4.26125 -0.710027 0
M  V30 8447 C 783.361 -5.01302 -1.75699 0
M  V30 8448 C 782.4 -6.02525 -1.07841 0
M  V30 8449 N 781.537 -6.70927 -2.06886 0
M  V30 8450 H 786.377 -2.95604 0.377127 0
M  V30 8451 H 783.914 -1.45764 0.197826 0
M  V30 8452 H 785.872 -3.66106 -2.00056 0
M  V30 8453 H 784.502 -2.51991 -2.01744 0
M  V30 8454 H 783.554 -3.80385 0.0338278 0
M  V30 8455 H 784.866 -4.98493 -0.175079 0
M  V30 8456 H 784.02 -5.54438 -2.46339 0
M  V30 8457 H 782.759 -4.28672 -2.32577 0
M  V30 8458 H 781.764 -5.48635 -0.357706 0
M  V30 8459 H 782.989 -6.77134 -0.516345 0
M  V30 8460 H 780.935 -6.01079 -2.62755 0
M  V30 8461 H 780.852 -7.39216 -1.58414 0
M  V30 8462 H 782.12 -7.28675 -2.76863 0
M  V30 8463 N 786.349 -0.21828 -1.56081 0
M  V30 8464 C 787.597 0.413488 -1.97825 0
M  V30 8465 C 787.918 1.60527 -1.10707 0
M  V30 8466 O 787.188 1.9504 -0.183378 0
M  V30 8467 H 785.768 0.155757 -0.730581 0
M  V30 8468 H 788.43 -0.310413 -1.92412 0
M  V30 8469 H 787.526 0.742024 -3.03151 0
M  V30 8470 N 787.827 1.57504 0.0551401 0
M  V30 8471 C 788.774 2.04825 1.06373 0
M  V30 8472 C 789.744 0.932108 1.37481 0
M  V30 8473 O 790.929 1.20093 1.48265 0
M  V30 8474 C 788.069 2.51091 2.36743 0
M  V30 8475 C 787.182 3.76392 2.12021 0
M  V30 8476 C 786.317 4.11373 3.36074 0
M  V30 8477 C 785.356 5.29666 3.0679 0
M  V30 8478 N 784.493 5.60205 4.2322 0
M  V30 8479 H 789.333 2.90753 0.653216 0
M  V30 8480 H 786.87 1.43776 0.310951 0
M  V30 8481 H 788.828 2.75973 3.12881 0
M  V30 8482 H 787.458 1.68118 2.75565 0
M  V30 8483 H 786.51 3.58751 1.26498 0
M  V30 8484 H 787.822 4.62662 1.86401 0
M  V30 8485 H 786.976 4.37245 4.20597 0
M  V30 8486 H 785.715 3.23704 3.64784 0
M  V30 8487 H 784.72 5.03574 2.20664 0
M  V30 8488 H 785.945 6.18968 2.79385 0
M  V30 8489 H 783.891 4.75495 4.5193 0
M  V30 8490 H 783.808 6.40928 4.00933 0
M  V30 8491 H 785.076 5.90637 5.08692 0
M  V30 8492 N 789.305 -0.326896 1.54172 0
M  V30 8493 C 790.53 -1.08924 1.76494 0
M  V30 8494 C 790.955 -1.81039 0.510523 0
M  V30 8495 O 790.313 -1.73141 -0.537756 0
M  V30 8496 C 790.361 -2.06558 2.95578 0
M  V30 8497 O 789.465 -3.14394 2.6689 0
M  V30 8498 H 788.806 -0.314216 0.584948 0
M  V30 8499 H 791.336 -0.372207 2.01186 0
M  V30 8500 H 791.346 -2.49487 3.22832 0
M  V30 8501 H 790.021 -1.53469 3.86549 0
M  V30 8502 H 788.598 -2.76164 2.50576 0
M  V30 8503 N 790.784 -1.46188 -0.588786 0
M  V30 8504 C 791.714 -1.59148 -1.70863 0
M  V30 8505 C 792.695 -0.442083 -1.64255 0
M  V30 8506 O 793.88 -0.667575 -1.82365 0
M  V30 8507 C 791.01 -1.5757 -3.09498 0
M  V30 8508 C 789.964 -2.71418 -3.30932 0
M  V30 8509 C 789.29 -2.549 -4.70032 0
M  V30 8510 C 790.59 -4.1329 -3.19356 0
M  V30 8511 H 792.284 -2.52889 -1.60274 0
M  V30 8512 H 789.83 -1.21707 -0.769638 0
M  V30 8513 H 791.783 -1.65231 -3.87655 0
M  V30 8514 H 790.507 -0.603705 -3.20972 0
M  V30 8515 H 789.166 -2.63216 -2.55172 0
M  V30 8516 H 788.814 -1.55797 -4.78264 0
M  V30 8517 H 788.514 -3.31257 -4.85327 0
M  V30 8518 H 790.038 -2.64443 -5.50366 0
M  V30 8519 H 791.452 -4.22636 -3.87365 0
M  V30 8520 H 789.849 -4.90187 -3.46175 0
M  V30 8521 H 790.919 -4.33874 -2.16522 0
M  V30 8522 N 792.262 0.832906 -1.33792 0
M  V30 8523 C 793.194 1.95042 -1.2038 0
M  V30 8524 C 794.207 1.62253 -0.133299 0
M  V30 8525 O 795.396 1.74315 -0.384261 0
M  V30 8526 C 792.496 3.287 -0.825215 0
M  V30 8527 C 791.669 3.89581 -1.98861 0
M  V30 8528 C 790.728 5.01602 -1.59003 0
M  V30 8529 O 789.754 5.20431 -2.30522 0
M  V30 8530 N 790.956 5.78356 -0.498446 0
M  V30 8531 H 793.721 2.07083 -2.16649 0
M  V30 8532 H 791.282 1.00896 -1.26616 0
M  V30 8533 H 793.274 4.01074 -0.540559 0
M  V30 8534 H 791.844 3.12565 0.0469796 0
M  V30 8535 H 791.064 3.09723 -2.43856 0
M  V30 8536 H 792.352 4.26989 -2.76691 0
M  V30 8537 H 791.75 5.65618 0.0963297 0
M  V30 8538 H 790.307 6.51226 -0.273485 0
M  V30 8539 N 793.74 1.17359 1.05189 0
M  V30 8540 C 795.017 0.871914 1.75091 0
M  V30 8541 C 795.397 -0.627821 2.01548 0
M  V30 8542 O 794.745 -1.5791 1.65156 0
M  V30 8543 C 794.955 1.70687 3.04413 0
M  V30 8544 C 796.303 1.92684 3.78362 0
M  V30 8545 O 797.327 1.67645 3.14282 0
M  V30 8546 O 796.186 2.34765 4.93505 0
M  V30 8547 H 793.28 0.322831 0.761386 0
M  V30 8548 H 795.826 1.28054 1.11357 0
M  V30 8549 H 794.598 2.72405 2.80911 0
M  V30 8550 H 794.221 1.29602 3.75884 0
M  V30 8551 N 795.218 -1.23913 0.973828 0
M  V30 8552 C 796.466 -1.91771 0.637817 0
M  V30 8553 C 796.787 -1.76434 -0.830435 0
M  V30 8554 O 796.057 -1.13965 -1.59339 0
M  V30 8555 H 794.637 -0.709761 0.232912 0
M  V30 8556 H 797.299 -1.50677 1.23622 0
M  V30 8557 H 796.395 -2.99327 0.883731 0
M  V30 8558 N 796.696 -0.74468 -1.38897 0
M  V30 8559 C 797.944 -0.296298 -1.99916 0
M  V30 8560 C 798.265 1.12325 -1.59399 0
M  V30 8561 O 797.535 1.76658 -0.846689 0
M  V30 8562 H 796.115 -0.106561 -0.73936 0
M  V30 8563 H 798.777 -0.956793 -1.69798 0
M  V30 8564 H 797.873 -0.352356 -3.10105 0
M  V30 8565 N 798.174 1.49689 -0.493057 0
M  V30 8566 C 799.137 2.27502 0.278485 0
M  V30 8567 C 800.137 1.33184 0.901037 0
M  V30 8568 O 801.327 1.56415 0.766801 0
M  V30 8569 C 798.459 3.10881 1.39878 0
M  V30 8570 H 799.652 2.97163 -0.404219 0
M  V30 8571 H 797.205 1.54324 -0.247774 0
M  V30 8572 H 797.94 2.45767 2.11587 0
M  V30 8573 H 797.725 3.80219 0.957924 0
M  V30 8574 H 799.215 3.69673 1.94247 0
M  V30 8575 N 799.652 0.226554 1.55963 0
M  V30 8576 C 800.562 -0.692725 2.24139 0
M  V30 8577 C 801.578 -1.20971 1.25068 0
M  V30 8578 O 802.754 -1.25027 1.57893 0
M  V30 8579 C 799.819 -1.88183 2.91184 0
M  V30 8580 C 798.88 -1.40633 4.05612 0
M  V30 8581 C 798.113 -2.53875 4.6945 0
M  V30 8582 O 798.336 -3.72129 4.32292 0
M  V30 8583 O 797.27 -2.24792 5.58348 0
M  V30 8584 H 801.096 -0.141921 3.03368 0
M  V30 8585 H 798.681 -0.0041049 1.49399 0
M  V30 8586 H 800.563 -2.57617 3.33484 0
M  V30 8587 H 799.238 -2.42064 2.14911 0
M  V30 8588 H 798.145 -0.67986 3.67871 0
M  V30 8589 H 799.478 -0.913838 4.83642 0
M  V30 8590 N 801.13 -1.57531 -0.0467866 0
M  V30 8591 C 802.36 -1.92417 -0.752279 0
M  V30 8592 C 802.768 -0.823134 -1.70356 0
M  V30 8593 O 802.111 0.210598 -1.82489 0
M  V30 8594 C 802.173 -3.22974 -1.57887 0
M  V30 8595 C 801.837 -4.50045 -0.794285 0
M  V30 8596 C 802.834 -5.19799 -0.102368 0
M  V30 8597 C 800.519 -4.96608 -0.754061 0
M  V30 8598 C 802.513 -6.34385 0.619267 0
M  V30 8599 C 800.2 -6.11093 -0.0286682 0
M  V30 8600 C 801.198 -6.79835 0.656772 0
M  V30 8601 O 800.886 -7.92133 1.37042 0
M  V30 8602 H 800.618 -0.640029 -0.217576 0
M  V30 8603 H 803.172 -2.05395 -0.0137438 0
M  V30 8604 H 801.402 -3.06273 -2.3608 0
M  V30 8605 H 803.091 -3.43319 -2.16533 0
M  V30 8606 H 803.857 -4.8484 -0.124589 0
M  V30 8607 H 799.736 -4.42958 -1.27706 0
M  V30 8608 H 803.28 -6.87975 1.15483 0
M  V30 8609 H 799.177 -6.455 -0.00446214 0
M  V30 8610 H 799.945 -8.08394 1.28227 0
M  V30 8611 N 802.608 0.318715 -1.54344 0
M  V30 8612 C 803.556 1.41254 -1.84798 0
M  V30 8613 C 804.55 1.53325 -0.720256 0
M  V30 8614 O 805.756 1.55653 -0.903992 0
M  V30 8615 H 802.131 0.471468 -0.585851 0
M  V30 8616 H 804.102 1.12795 -2.7626 0
M  V30 8617 C 802.851 2.77395 -2.09637 0
M  V30 8618 H 802.174 2.68881 -2.95876 0
M  V30 8619 H 803.614 3.52987 -2.34896 0
M  V30 8620 C 802.073 3.24948 -0.889398 0
M  V30 8621 O 802.603 4.01573 -0.101063 0
M  V30 8622 N 800.809 2.82051 -0.699684 0
M  V30 8623 H 800.356 2.19858 -1.3424 0
M  V30 8624 H 800.314 3.1422 0.106368 0
M  V30 8625 N 804.086 1.46499 0.581025 0
M  V30 8626 C 805.333 1.51896 1.33918 0
M  V30 8627 C 805.661 0.171361 1.93744 0
M  V30 8628 O 804.916 -0.833178 1.77078 0
M  V30 8629 C 805.215 2.56686 2.48691 0
M  V30 8630 C 804.881 4.00656 2.06847 0
M  V30 8631 C 803.543 4.39852 1.9515 0
M  V30 8632 C 805.895 4.91089 1.74589 0
M  V30 8633 C 803.223 5.67345 1.49456 0
M  V30 8634 C 805.575 6.1902 1.30373 0
M  V30 8635 C 804.239 6.57121 1.17255 0
M  V30 8636 H 803.509 0.555826 0.490039 0
M  V30 8637 H 806.156 1.79983 0.654092 0
M  V30 8638 H 804.461 2.22266 3.22653 0
M  V30 8639 H 806.158 2.58091 3.06904 0
M  V30 8640 H 802.748 3.69674 2.16886 0
M  V30 8641 H 806.932 4.61523 1.8251 0
M  V30 8642 H 802.188 5.95635 1.37944 0
M  V30 8643 H 806.362 6.8852 1.04467 0
M  V30 8644 H 803.989 7.55805 0.816236 0
M  V30 8645 N 805.565 -0.825799 1.34232 0
M  V30 8646 C 806.79 -1.61883 1.29648 0
M  V30 8647 C 807.215 -1.87669 -0.127295 0
M  V30 8648 O 806.573 -1.45016 -1.08813 0
M  V30 8649 C 806.621 -2.93846 2.09014 0
M  V30 8650 O 805.725 -3.85778 1.4577 0
M  V30 8651 H 805.066 -0.492454 0.445405 0
M  V30 8652 H 807.596 -1.02641 1.76992 0
M  V30 8653 H 807.606 -3.43435 2.20264 0
M  V30 8654 H 806.281 -2.74401 3.12533 0
M  V30 8655 H 804.858 -3.4429 1.43245 0
M  V30 8656 N 807.043 -1.17915 -1.04565 0
M  V30 8657 C 808.291 -0.969505 -1.77327 0
M  V30 8658 C 808.612 0.502569 -1.88412 0
M  V30 8659 O 807.882 1.36467 -1.40547 0
M  V30 8660 H 806.462 -0.355723 -0.656864 0
M  V30 8661 H 809.124 -1.48506 -1.26223 0
M  V30 8662 H 808.22 -1.40324 -2.78775 0
M  V30 8663 N 808.521 1.23394 -0.980386 0
M  V30 8664 C 809.932 1.73631 -0.686239 0
M  V30 8665 C 810.283 1.79259 0.797541 0
M  V30 8666 O 809.408 1.43046 1.62379 0
M  V30 8667 C 810.003 3.15332 -1.239 0
M  V30 8668 C 808.562 3.63024 -0.994494 0
M  V30 8669 C 807.709 2.41279 -1.36673 0
M  V30 8670 H 810.66 1.08918 -1.15423 0
M  V30 8671 H 810.681 3.75556 -0.611414 0
M  V30 8672 H 810.193 3.11204 -2.31892 0
M  V30 8673 H 808.294 3.72535 0.0693492 0
M  V30 8674 H 808.407 4.49825 -1.64906 0
M  V30 8675 H 806.771 2.42295 -0.785195 0
M  V30 8676 H 807.554 2.39822 -2.45642 0
M  V30 8677 N 809.999 0.752036 1.385 0
M  V30 8678 C 810.931 0.0835089 2.29048 0
M  V30 8679 C 811.944 -0.685402 1.47669 0
M  V30 8680 O 813.133 -0.526748 1.70551 0
M  V30 8681 C 810.233 -0.905772 3.26572 0
M  V30 8682 C 809.406 -0.194828 4.36966 0
M  V30 8683 C 808.465 -1.09464 5.14688 0
M  V30 8684 O 807.491 -0.565743 5.66381 0
M  V30 8685 N 808.693 -2.42287 5.2752 0
M  V30 8686 H 811.458 0.861142 2.87062 0
M  V30 8687 H 809.019 0.602689 1.50264 0
M  V30 8688 H 811.011 -1.51072 3.75446 0
M  V30 8689 H 809.581 -1.58449 2.69467 0
M  V30 8690 H 808.801 0.590812 3.89747 0
M  V30 8691 H 810.089 0.297189 5.07931 0
M  V30 8692 H 809.487 -2.87715 4.8707 0
M  V30 8693 H 808.044 -2.97836 5.79773 0
M  V30 8694 N 811.477 -1.49425 0.500989 0
M  V30 8695 C 812.725 -2.02053 -0.0434495 0
M  V30 8696 C 813.046 -1.38285 -1.37486 0
M  V30 8697 O 812.316 -0.538171 -1.88363 0
M  V30 8698 H 810.896 -0.746757 -0.0190469 0
M  V30 8699 H 813.558 -1.83449 0.658227 0
M  V30 8700 H 812.654 -3.11619 -0.173129 0
M  V30 8701 N 812.955 -0.234822 -1.55841 0
M  V30 8702 C 814.201 0.393843 -1.98939 0
M  V30 8703 C 814.534 1.58466 -1.1226 0
M  V30 8704 O 813.809 1.93635 -0.183242 0
M  V30 8705 C 814.092 0.815492 -3.50745 0
M  V30 8706 C 813.945 -0.379878 -4.48193 0
M  V30 8707 C 815.264 1.66687 -4.07312 0
M  V30 8708 H 812.383 0.141681 -0.723253 0
M  V30 8709 H 815.025 -0.333716 -1.87046 0
M  V30 8710 H 813.175 1.43541 -3.6101 0
M  V30 8711 H 814.847 -1.0182 -4.49923 0
M  V30 8712 H 813.09 -1.02507 -4.21515 0
M  V30 8713 H 813.761 -0.0417069 -5.51984 0
M  V30 8714 H 816.237 1.14369 -4.00074 0
M  V30 8715 H 815.113 1.93078 -5.13821 0
M  V30 8716 H 815.374 2.63468 -3.55017 0
M  V30 8717 N 814.433 1.57553 0.0384317 0
M  V30 8718 C 815.681 1.88468 0.729672 0
M  V30 8719 C 816.002 0.831302 1.76393 0
M  V30 8720 O 815.272 -0.13622 1.95426 0
M  V30 8721 H 813.852 0.695529 0.272485 0
M  V30 8722 H 816.514 1.94899 0.0066032 0
M  V30 8723 H 815.61 2.8705 1.22511 0
M  V30 8724 N 815.911 -0.310526 1.54511 0
M  V30 8725 C 817.157 -1.04846 1.73595 0
M  V30 8726 C 817.49 -1.87244 0.515118 0
M  V30 8727 O 816.765 -1.88282 -0.48786 0
M  V30 8728 C 817.048 -1.96237 3.01932 0
M  V30 8729 C 816.901 -1.17082 4.34295 0
M  V30 8730 C 818.22 -2.9556 3.26086 0
M  V30 8731 H 815.339 -0.37976 0.631626 0
M  V30 8732 H 817.981 -0.32394 1.87218 0
M  V30 8733 H 816.131 -2.58015 2.90449 0
M  V30 8734 H 817.803 -0.576643 4.57682 0
M  V30 8735 H 816.046 -0.473336 4.3121 0
M  V30 8736 H 816.717 -1.84257 5.20339 0
M  V30 8737 H 819.193 -2.43908 3.37117 0
M  V30 8738 H 818.069 -3.5668 4.17218 0
M  V30 8739 H 818.33 -3.68715 2.4393 0
M  V30 8740 N 817.389 -1.46805 -0.573248 0
M  V30 8741 C 818.352 -1.57655 -1.66366 0
M  V30 8742 C 819.352 -0.452905 -1.5429 0
M  V30 8743 O 820.542 -0.717502 -1.58737 0
M  V30 8744 C 817.674 -1.50584 -3.05839 0
M  V30 8745 H 818.867 -2.54842 -1.581 0
M  V30 8746 H 816.42 -1.34756 -0.791868 0
M  V30 8747 H 817.155 -0.547127 -3.19651 0
M  V30 8748 H 816.94 -2.32118 -3.16012 0
M  V30 8749 H 818.43 -1.61282 -3.85199 0
M  V30 8750 N 818.867 0.818669 -1.34668 0
M  V30 8751 C 819.815 1.95123 -1.26609 0
M  V30 8752 C 820.809 1.68611 -0.163348 0
M  V30 8753 O 822.015 1.76975 -0.328586 0
M  V30 8754 H 818.39 0.640871 -0.393431 0
M  V30 8755 H 820.361 1.99043 -2.22316 0
M  V30 8756 C 819.11 3.31697 -1.04272 0
M  V30 8757 H 818.433 3.52648 -1.8836 0
M  V30 8758 H 819.873 4.11382 -1.0267 0
M  V30 8759 C 818.332 3.35942 0.253858 0
M  V30 8760 O 818.862 3.81632 1.25378 0
M  V30 8761 N 817.068 2.89165 0.288447 0
M  V30 8762 H 816.615 2.52176 -0.525845 0
M  V30 8763 H 816.573 2.92387 1.15572 0
M  V30 8764 N 820.346 1.18468 1.03938 0
M  V30 8765 C 821.595 0.975193 1.76558 0
M  V30 8766 C 821.908 -0.495978 1.89207 0
M  V30 8767 O 823.114 -0.824009 2.58694 0
M  V30 8768 C 821.57 1.69579 3.17444 0
M  V30 8769 C 821.178 3.20636 3.12884 0
M  V30 8770 C 822.922 1.56917 3.94433 0
M  V30 8771 C 820.829 3.8533 4.48636 0
M  V30 8772 H 819.759 0.361244 0.66183 0
M  V30 8773 H 822.41 1.41854 1.16403 0
M  V30 8774 H 820.792 1.18022 3.78004 0
M  V30 8775 H 821.966 3.79228 2.61768 0
M  V30 8776 H 820.281 3.33454 2.49394 0
M  V30 8777 H 822.878 2.02611 4.94826 0
M  V30 8778 H 823.221 0.521638 4.13019 0
M  V30 8779 H 823.754 2.05762 3.40451 0
M  V30 8780 H 820.493 4.90136 4.35255 0
M  V30 8781 H 820.013 3.31526 4.99851 0
M  V30 8782 H 821.692 3.88269 5.17549 0
M  V30 8783 N 821.824 -1.22873 0.986916 0
M  V30 8784 C 823.072 -1.91084 0.658121 0
M  V30 8785 C 823.393 -1.77304 -0.811675 0
M  V30 8786 O 822.663 -1.15649 -1.58121 0
M  V30 8787 H 821.243 -0.707251 0.240427 0
M  V30 8788 H 823.905 -1.49357 1.25213 0
M  V30 8789 H 823.001 -2.98373 0.915428 0
M  V30 8790 N 823.302 -0.75937 -1.38099 0
M  V30 8791 C 824.579 -0.243371 -1.9408 0
M  V30 8792 C 824.959 1.25942 -1.69416 0
M  V30 8793 O 824.307 2.03667 -1.03595 0
M  V30 8794 C 824.517 -0.603328 -3.43745 0
M  V30 8795 C 825.865 -0.566195 -4.20808 0
M  V30 8796 O 826.889 -0.541969 -3.52053 0
M  V30 8797 O 825.748 -0.582261 -5.43389 0
M  V30 8798 H 822.842 -0.0526825 -0.82532 0
M  V30 8799 H 825.388 -0.839884 -1.47459 0
M  V30 8800 H 824.16 -1.64098 -3.55229 0
M  V30 8801 H 823.783 0.0208887 -3.97595 0
M  V30 8802 N 824.78 1.49157 -0.508906 0
M  V30 8803 C 826.005 2.07376 0.0315182 0
M  V30 8804 C 826.43 1.36575 1.2934 0
M  V30 8805 O 825.788 0.424963 1.76249 0
M  V30 8806 C 825.836 3.59661 0.260118 0
M  V30 8807 O 824.94 3.90255 1.33322 0
M  V30 8808 H 824.281 0.663334 -0.029739 0
M  V30 8809 H 826.811 1.91857 -0.710791 0
M  V30 8810 H 826.821 4.05056 0.489225 0
M  V30 8811 H 825.496 4.10601 -0.661794 0
M  V30 8812 H 824.073 3.56661 1.08844 0
M  V30 8813 N 826.258 0.243083 1.55714 0
M  V30 8814 C 827.188 -0.652336 2.24203 0
M  V30 8815 C 828.169 -1.1843 1.221 0
M  V30 8816 O 829.354 -1.22435 1.50743 0
M  V30 8817 C 826.484 -1.85111 2.93856 0
M  V30 8818 C 825.438 -1.45208 4.02615 0
M  V30 8819 C 824.764 -2.73137 4.59674 0
M  V30 8820 C 826.064 -0.625988 5.18535 0
M  V30 8821 H 827.758 -0.0812504 2.9929 0
M  V30 8822 H 825.304 -0.0376388 1.43951 0
M  V30 8823 H 827.257 -2.48314 3.40468 0
M  V30 8824 H 825.981 -2.44751 2.16251 0
M  V30 8825 H 824.64 -0.843406 3.56766 0
M  V30 8826 H 824.288 -3.30967 3.78774 0
M  V30 8827 H 823.988 -2.47163 5.33089 0
M  V30 8828 H 825.512 -3.37245 5.09017 0
M  V30 8829 H 826.926 -1.16223 5.61396 0
M  V30 8830 H 825.323 -0.462465 5.98315 0
M  V30 8831 H 826.393 0.362652 4.83542 0
M  V30 8832 N 827.736 -1.57571 -0.0300757 0
M  V30 8833 C 828.982 -1.89506 -0.722159 0
M  V30 8834 C 829.315 -0.840699 -1.7506 0
M  V30 8835 O 828.59 0.144358 -1.93964 0
M  V30 8836 C 828.873 -3.32081 -1.39262 0
M  V30 8837 C 828.726 -4.48211 -0.377768 0
M  V30 8838 C 830.045 -3.73557 -2.32687 0
M  V30 8839 H 827.164 -0.689213 -0.261064 0
M  V30 8840 H 829.806 -1.89994 0.0150388 0
M  V30 8841 H 827.956 -3.31796 -2.02098 0
M  V30 8842 H 829.628 -4.6063 0.248591 0
M  V30 8843 H 827.871 -4.3274 0.303045 0
M  V30 8844 H 828.542 -5.44854 -0.885347 0
M  V30 8845 H 831.018 -3.75202 -1.79896 0
M  V30 8846 H 829.894 -4.74125 -2.7658 0
M  V30 8847 H 830.155 -3.05759 -3.19317 0
M  V30 8848 N 829.214 0.302327 -1.54673 0
M  V30 8849 C 830.177 1.35592 -1.8479 0
M  V30 8850 C 831.177 1.43743 -0.72073 0
M  V30 8851 O 832.367 1.43402 -0.989017 0
M  V30 8852 C 829.499 2.74091 -2.02699 0
M  V30 8853 H 830.692 1.10132 -2.78946 0
M  V30 8854 H 828.245 0.538926 -1.46715 0
M  V30 8855 H 828.98 3.04775 -1.10826 0
M  V30 8856 H 828.765 2.69565 -2.8474 0
M  V30 8857 H 830.255 3.50272 -2.27374 0
M  V30 8858 N 830.692 1.47107 0.565454 0
M  V30 8859 C 831.938 1.53535 1.32495 0
M  V30 8860 C 832.271 0.193537 1.93233 0
M  V30 8861 O 831.546 -0.796956 1.77423 0
M  V30 8862 C 831.829 2.64712 2.4413 0
M  V30 8863 C 831.682 4.08482 1.88314 0
M  V30 8864 C 833.001 2.71853 3.46098 0
M  V30 8865 H 830.12 0.558926 0.480386 0
M  V30 8866 H 832.762 1.79125 0.633575 0
M  V30 8867 H 830.912 2.43023 3.03104 0
M  V30 8868 H 832.584 4.4151 1.33665 0
M  V30 8869 H 830.827 4.17148 1.19037 0
M  V30 8870 H 831.498 4.82032 2.68978 0
M  V30 8871 H 833.974 2.91397 2.97031 0
M  V30 8872 H 832.85 3.51433 4.21646 0
M  V30 8873 H 833.111 1.78584 4.04426 0
M  V30 8874 N 832.17 -0.811516 1.35101 0
M  V30 8875 C 833.117 -1.92308 1.27617 0
M  V30 8876 C 834.087 -1.6543 0.149091 0
M  V30 8877 O 835.272 -1.8789 0.331974 0
M  V30 8878 C 832.412 -3.28768 1.04908 0
M  V30 8879 C 831.525 -3.67865 2.26493 0
M  V30 8880 C 830.66 -4.9333 1.96974 0
M  V30 8881 C 829.699 -5.25041 3.1464 0
M  V30 8882 N 828.836 -6.41685 2.84929 0
M  V30 8883 H 833.676 -1.98041 2.22674 0
M  V30 8884 H 831.213 -0.968755 1.10696 0
M  V30 8885 H 833.171 -4.07426 0.897749 0
M  V30 8886 H 831.801 -3.22517 0.135151 0
M  V30 8887 H 830.853 -2.84507 2.52507 0
M  V30 8888 H 832.165 -3.87263 3.14371 0
M  V30 8889 H 831.319 -5.79803 1.78643 0
M  V30 8890 H 830.058 -4.75958 1.06374 0
M  V30 8891 H 829.063 -4.3706 3.33554 0
M  V30 8892 H 830.288 -5.44346 4.06035 0
M  V30 8893 H 828.234 -6.25747 1.96918 0
M  V30 8894 H 828.151 -6.6131 3.66341 0
M  V30 8895 H 829.419 -7.31198 2.70128 0
M  V30 8896 N 833.648 -1.19017 -1.03309 0
M  V30 8897 C 834.595 -0.924088 -2.11493 0
M  V30 8898 C 835.565 0.139464 -1.65513 0
M  V30 8899 O 836.75 -0.00178761 -1.908 0
M  V30 8900 C 833.89 -0.464255 -3.41963 0
M  V30 8901 C 833.003 -1.5941 -4.01513 0
M  V30 8902 C 832.138 -1.08622 -5.19976 0
M  V30 8903 C 831.177 -2.19024 -5.71572 0
M  V30 8904 N 830.314 -1.69575 -6.81314 0
M  V30 8905 H 835.154 -1.85039 -2.33591 0
M  V30 8906 H 832.691 -0.922593 -1.14572 0
M  V30 8907 H 834.649 -0.179078 -4.16815 0
M  V30 8908 H 833.279 0.425062 -3.19989 0
M  V30 8909 H 832.331 -1.99458 -3.23915 0
M  V30 8910 H 833.643 -2.42604 -4.35826 0
M  V30 8911 H 832.797 -0.756022 -6.01971 0
M  V30 8912 H 831.536 -0.223955 -4.87186 0
M  V30 8913 H 830.541 -2.5288 -4.88193 0
M  V30 8914 H 831.766 -3.05699 -6.06403 0
M  V30 8915 H 829.712 -0.856494 -6.50385 0
M  V30 8916 H 829.629 -2.46361 -7.14732 0
M  V30 8917 H 830.897 -1.39505 -7.66915 0
M  V30 8918 N 835.127 1.22348 -0.993418 0
M  V30 8919 C 836.376 1.90422 -0.665019 0
M  V30 8920 C 836.689 1.78199 0.806512 0
M  V30 8921 O 837.895 2.41193 1.24652 0
M  V30 8922 C 836.351 3.41403 -1.13893 0
M  V30 8923 C 835.959 3.62262 -2.63572 0
M  V30 8924 C 837.703 4.15175 -0.884884 0
M  V30 8925 C 835.61 5.06947 -3.04564 0
M  V30 8926 H 834.54 0.713073 -0.245037 0
M  V30 8927 H 837.191 1.3856 -1.20305 0
M  V30 8928 H 835.573 3.9245 -0.529027 0
M  V30 8929 H 836.747 3.21705 -3.29913 0
M  V30 8930 H 835.062 3.01824 -2.86865 0
M  V30 8931 H 837.659 5.21813 -1.16684 0
M  V30 8932 H 838.002 4.15915 0.178982 0
M  V30 8933 H 838.535 3.70157 -1.45701 0
M  V30 8934 H 835.274 5.11346 -4.10128 0
M  V30 8935 H 834.794 5.48404 -2.42927 0
M  V30 8936 H 836.473 5.75374 -2.95894 0
M  V30 8937 N 836.605 0.766683 1.37694 0
M  V30 8938 C 837.851 0.329201 2.0011 0
M  V30 8939 C 838.184 -1.09004 1.60723 0
M  V30 8940 O 837.459 -1.74895 0.850989 0
M  V30 8941 C 837.742 0.466989 3.57059 0
M  V30 8942 C 837.595 1.92828 4.06371 0
M  V30 8943 C 838.914 -0.131792 4.39903 0
M  V30 8944 H 836.033 0.12109 0.726984 0
M  V30 8945 H 838.675 0.968779 1.63446 0
M  V30 8946 H 836.825 -0.0775023 3.88423 0
M  V30 8947 H 838.497 2.53208 3.85595 0
M  V30 8948 H 836.74 2.43884 3.58752 0
M  V30 8949 H 837.411 1.97577 5.15429 0
M  V30 8950 H 839.887 0.332731 4.14768 0
M  V30 8951 H 838.763 -0.005217 5.489 0
M  V30 8952 H 839.024 -1.22156 4.24889 0
M  V30 8953 N 838.083 -1.48885 0.516809 0
M  V30 8954 C 839.33 -2.02488 -0.0220602 0
M  V30 8955 C 839.658 -1.39513 -1.35523 0
M  V30 8956 O 838.913 -0.52558 -1.8851 0
M  V30 8957 C 839.212 -3.56801 -0.206798 0
M  V30 8958 C 838.878 -4.38496 1.05035 0
M  V30 8959 C 837.54 -4.60538 1.39492 0
M  V30 8960 C 839.892 -4.85909 1.88525 0
M  V30 8961 C 837.22 -5.2724 2.57361 0
M  V30 8962 C 839.572 -5.53909 3.05561 0
M  V30 8963 C 838.236 -5.74193 3.4038 0
M  V30 8964 H 837.506 -0.740956 -0.00807238 0
M  V30 8965 H 840.153 -1.79014 0.680168 0
M  V30 8966 H 838.458 -3.79042 -0.991687 0
M  V30 8967 H 840.155 -3.95885 -0.638447 0
M  V30 8968 H 836.745 -4.2159 0.771984 0
M  V30 8969 H 840.929 -4.68694 1.63218 0
M  V30 8970 H 836.185 -5.41145 2.84556 0
M  V30 8971 H 840.359 -5.89619 3.7057 0
M  V30 8972 H 837.986 -6.25652 4.31814 0
M  V30 8973 N 839.561 -0.251338 -1.55583 0
M  V30 8974 C 840.838 0.422729 -1.90977 0
M  V30 8975 C 841.218 1.75534 -1.17265 0
M  V30 8976 O 840.566 2.26632 -0.291588 0
M  V30 8977 C 840.776 0.586448 -3.44037 0
M  V30 8978 C 842.124 0.880294 -4.15375 0
M  V30 8979 O 843.148 0.672148 -3.49801 0
M  V30 8980 O 842.007 1.27694 -5.31372 0
M  V30 8981 H 839.101 0.227622 -0.795058 0
M  V30 8982 H 841.647 -0.295733 -1.67103 0
M  V30 8983 H 840.419 -0.352327 -3.89711 0
M  V30 8984 H 840.042 1.35528 -3.73789 0
M  V30 8985 N 841.039 1.57585 0.0217189 0
M  V30 8986 C 841.949 2.10444 1.03684 0
M  V30 8987 C 842.965 1.04472 1.39146 0
M  V30 8988 O 844.141 1.36249 1.48317 0
M  V30 8989 C 841.206 2.5794 2.31664 0
M  V30 8990 C 840.267 3.78425 2.02714 0
M  V30 8991 C 839.5 4.23646 3.24592 0
M  V30 8992 O 839.723 3.6834 4.35525 0
M  V30 8993 O 838.657 5.16013 3.09862 0
M  V30 8994 H 842.483 2.97354 0.617584 0
M  V30 8995 H 840.068 1.47473 0.239174 0
M  V30 8996 H 841.95 2.88785 3.06889 0
M  V30 8997 H 840.625 1.74138 2.7287 0
M  V30 8998 H 839.532 3.52587 1.25033 0
M  V30 8999 H 840.865 4.63234 1.66359 0
M  V30 9000 N 842.517 -0.29412 1.54831 0
M  V30 9001 C 843.465 -1.38296 1.87021 0
M  V30 9002 C 844.459 -1.5216 0.744557 0
M  V30 9003 O 845.665 -1.54196 0.92864 0
M  V30 9004 H 842.04 -0.462088 0.593278 0
M  V30 9005 H 844.011 -1.08386 2.7802 0
M  V30 9006 C 842.76 -2.74024 2.14023 0
M  V30 9007 H 842.083 -2.6414 3.00117 0
M  V30 9008 H 843.523 -3.49205 2.40482 0
M  V30 9009 C 841.982 -3.23492 0.940982 0
M  V30 9010 O 842.512 -4.01361 0.164937 0
M  V30 9011 N 840.718 -2.80902 0.744467 0
M  V30 9012 H 840.265 -2.17694 1.37721 0
M  V30 9013 H 840.223 -3.14349 -0.0563652 0
M  V30 9014 N 843.995 -1.47404 -0.557645 0
M  V30 9015 C 844.942 -1.59859 -1.66475 0
M  V30 9016 C 845.912 -0.441644 -1.60121 0
M  V30 9017 O 847.097 -0.661641 -1.78961 0
M  V30 9018 C 844.237 -1.61843 -3.04797 0
M  V30 9019 C 843.35 -2.8845 -3.2159 0
M  V30 9020 C 842.485 -2.81773 -4.50308 0
M  V30 9021 C 841.524 -4.03208 -4.60532 0
M  V30 9022 N 840.661 -3.94769 -5.80604 0
M  V30 9023 H 845.501 -2.54415 -1.55168 0
M  V30 9024 H 843.038 -1.26194 -0.755876 0
M  V30 9025 H 844.996 -1.60976 -3.84893 0
M  V30 9026 H 843.626 -0.707997 -3.1494 0
M  V30 9027 H 842.678 -2.99186 -2.34929 0
M  V30 9028 H 843.99 -3.78379 -3.25009 0
M  V30 9029 H 843.144 -2.79153 -5.38663 0
M  V30 9030 H 841.883 -1.89527 -4.49367 0
M  V30 9031 H 840.888 -4.06133 -3.70589 0
M  V30 9032 H 842.113 -4.9658 -4.63233 0
M  V30 9033 H 840.059 -3.05326 -5.80613 0
M  V30 9034 H 839.976 -4.78375 -5.854 0
M  V30 9035 H 841.244 -3.96165 -6.71322 0
M  V30 9036 N 845.473 0.80434 -1.35529 0
M  V30 9037 C 846.722 1.55665 -1.28263 0
M  V30 9038 C 847.035 1.95096 0.140352 0
M  V30 9039 O 848.241 2.69422 0.335303 0
M  V30 9040 C 846.697 2.80935 -2.24952 0
M  V30 9041 C 846.305 2.48733 -3.72607 0
M  V30 9042 C 848.049 3.5894 -2.26632 0
M  V30 9043 C 845.956 3.70308 -4.61114 0
M  V30 9044 H 844.886 0.584301 -0.476559 0
M  V30 9045 H 847.537 0.88395 -1.60806 0
M  V30 9046 H 845.919 3.49927 -1.85383 0
M  V30 9047 H 847.093 1.87733 -4.20824 0
M  V30 9048 H 845.408 1.83969 -3.73557 0
M  V30 9049 H 848.005 4.49244 -2.89973 0
M  V30 9050 H 848.348 3.96433 -1.27069 0
M  V30 9051 H 848.881 2.96912 -2.64742 0
M  V30 9052 H 845.62 3.37922 -5.61684 0
M  V30 9053 H 845.14 4.30526 -4.17621 0
M  V30 9054 H 846.819 4.37511 -4.76648 0
M  V30 9055 N 846.951 1.19563 1.02676 0
M  V30 9056 C 848.179 1.02488 1.79732 0
M  V30 9057 C 848.594 -0.426302 1.83924 0
M  V30 9058 O 847.951 -1.29609 1.28483 0
M  V30 9059 C 848.002 1.58944 3.24683 0
M  V30 9060 O 847.723 2.98382 3.2078 0
M  V30 9061 C 849.224 1.46681 4.1833 0
M  V30 9062 H 846.444 0.361098 0.565552 0
M  V30 9063 H 848.988 1.58426 1.29311 0
M  V30 9064 H 847.143 1.0715 3.72287 0
M  V30 9065 H 847.557 3.24983 4.11687 0
M  V30 9066 H 849.031 1.90959 5.17918 0
M  V30 9067 H 849.508 0.417663 4.3721 0
M  V30 9068 H 850.114 1.97616 3.76601 0
M  V30 9069 N 848.429 -1.21819 0.999893 0
M  V30 9070 C 849.84 -1.72517 0.713775 0
M  V30 9071 C 850.191 -1.80505 -0.768922 0
M  V30 9072 O 849.316 -1.45611 -1.60083 0
M  V30 9073 C 849.911 -3.13321 1.28901 0
M  V30 9074 C 848.47 -3.61396 1.05212 0
M  V30 9075 C 847.617 -2.39074 1.40494 0
M  V30 9076 H 850.568 -1.07068 1.17141 0
M  V30 9077 H 850.589 -3.74535 0.671084 0
M  V30 9078 H 850.101 -3.07475 2.36814 0
M  V30 9079 H 848.202 -3.72599 -0.0100732 0
M  V30 9080 H 848.315 -4.47145 1.72042 0
M  V30 9081 H 846.679 -2.41015 0.823642 0
M  V30 9082 H 847.462 -2.35884 2.49427 0
M  V30 9083 N 849.908 -0.773975 -1.37286 0
M  V30 9084 C 851.133 -0.349561 -2.04433 0
M  V30 9085 C 851.558 1.02082 -1.5799 0
M  V30 9086 O 850.916 1.65458 -0.741172 0
M  V30 9087 C 850.964 -0.404292 -3.58326 0
M  V30 9088 O 850.068 0.594447 -4.08093 0
M  V30 9089 H 849.409 -0.150959 -0.646612 0
M  V30 9090 H 851.939 -1.05079 -1.75555 0
M  V30 9091 H 851.949 -0.262378 -4.07155 0
M  V30 9092 H 850.624 -1.40403 -3.91484 0
M  V30 9093 H 849.201 0.415468 -3.70578 0
M  V30 9094 N 851.386 1.48609 -0.524698 0
M  V30 9095 C 852.296 2.33318 0.244923 0
M  V30 9096 C 853.312 1.46153 0.944214 0
M  V30 9097 O 854.488 1.79141 0.920347 0
M  V30 9098 C 851.553 3.22149 1.28144 0
M  V30 9099 C 850.614 4.25184 0.593068 0
M  V30 9100 C 849.847 5.0977 1.5802 0
M  V30 9101 O 850.07 4.96249 2.81235 0
M  V30 9102 O 849.004 5.9134 1.1225 0
M  V30 9103 H 852.83 3.00362 -0.449066 0
M  V30 9104 H 850.415 1.46643 -0.285689 0
M  V30 9105 H 852.297 3.77111 1.88057 0
M  V30 9106 H 850.972 2.57772 1.95793 0
M  V30 9107 H 849.879 3.74071 -0.0464214 0
M  V30 9108 H 851.212 4.92183 -0.0413893 0
M  V30 9109 N 852.864 0.259585 1.55447 0
M  V30 9110 C 853.794 -0.62852 2.24882 0
M  V30 9111 C 854.775 -1.17128 1.23349 0
M  V30 9112 O 855.96 -1.20829 1.52033 0
M  V30 9113 C 853.09 -1.81983 2.95803 0
M  V30 9114 C 852.044 -1.40929 4.04132 0
M  V30 9115 C 851.37 -2.68246 4.62545 0
M  V30 9116 C 852.67 -0.570956 5.1917 0
M  V30 9117 H 854.364 -0.0495021 2.99359 0
M  V30 9118 H 851.91 -0.0223688 1.43983 0
M  V30 9119 H 853.863 -2.44689 3.43082 0
M  V30 9120 H 852.587 -2.42444 2.18835 0
M  V30 9121 H 851.246 -0.805519 3.57641 0
M  V30 9122 H 850.894 -3.26931 3.82263 0
M  V30 9123 H 850.594 -2.41495 5.35681 0
M  V30 9124 H 852.118 -3.31827 5.12565 0
M  V30 9125 H 853.532 -1.10262 5.62597 0
M  V30 9126 H 851.929 -0.398979 5.98772 0
M  V30 9127 H 852.999 0.413918 4.8313 0
M  V30 9128 N 854.342 -1.57594 -0.0133615 0
M  V30 9129 C 855.289 -2.07574 -1.00905 0
M  V30 9130 C 856.259 -0.968231 -1.34961 0
M  V30 9131 O 857.444 -1.23981 -1.45028 0
M  V30 9132 C 854.584 -2.5728 -2.30002 0
M  V30 9133 C 853.697 -3.81881 -2.01967 0
M  V30 9134 C 852.832 -4.20139 -3.25049 0
M  V30 9135 C 851.871 -5.37614 -2.92639 0
M  V30 9136 N 851.008 -5.71229 -4.08218 0
M  V30 9137 H 855.848 -2.92382 -0.575899 0
M  V30 9138 H 853.385 -1.4455 -0.272722 0
M  V30 9139 H 855.343 -2.84171 -3.05454 0
M  V30 9140 H 853.973 -1.75365 -2.71011 0
M  V30 9141 H 853.025 -3.61979 -1.16942 0
M  V30 9142 H 854.337 -4.67441 -1.74069 0
M  V30 9143 H 853.491 -4.48242 -4.08857 0
M  V30 9144 H 852.23 -3.33262 -3.56073 0
M  V30 9145 H 851.235 -5.09248 -2.07235 0
M  V30 9146 H 852.46 -6.26157 -2.62876 0
M  V30 9147 H 850.406 -4.8731 -4.39164 0
M  V30 9148 H 850.323 -6.51333 -3.83799 0
M  V30 9149 H 851.591 -6.03917 -4.92854 0
M  V30 9150 N 855.82 0.285905 -1.54985 0
M  V30 9151 C 856.767 1.35306 -1.86978 0
M  V30 9152 C 857.737 1.49682 -0.720046 0
M  V30 9153 O 858.922 1.64297 -0.970107 0
M  V30 9154 C 856.062 2.71059 -2.13591 0
M  V30 9155 C 855.175 2.6501 -3.41165 0
M  V30 9156 C 854.31 3.92856 -3.57544 0
M  V30 9157 C 853.349 3.81266 -4.78855 0
M  V30 9158 N 852.486 5.00919 -4.9196 0
M  V30 9159 H 857.326 1.07323 -2.78003 0
M  V30 9160 H 854.863 0.518776 -1.37649 0
M  V30 9161 H 856.821 3.50026 -2.27019 0
M  V30 9162 H 855.451 2.97271 -1.25816 0
M  V30 9163 H 854.503 1.77824 -3.36278 0
M  V30 9164 H 855.815 2.52342 -4.30262 0
M  V30 9165 H 854.969 4.80263 -3.70718 0
M  V30 9166 H 853.708 4.08377 -2.66608 0
M  V30 9167 H 852.713 2.92243 -4.65698 0
M  V30 9168 H 853.938 3.67277 -5.71213 0
M  V30 9169 H 851.884 5.16875 -4.03951 0
M  V30 9170 H 851.801 4.90732 -5.75081 0
M  V30 9171 H 853.069 5.89935 -5.09507 0
M  V30 9172 N 857.298 1.47698 0.54982 0
M  V30 9173 C 858.526 1.5833 1.33188 0
M  V30 9174 C 858.941 0.236193 1.87317 0
M  V30 9175 O 858.298 -0.77167 1.65383 0
M  V30 9176 C 858.349 2.61438 2.49664 0
M  V30 9177 O 858.07 3.9092 1.97771 0
M  V30 9178 C 859.571 2.82324 3.41772 0
M  V30 9179 H 856.791 0.53443 0.405741 0
M  V30 9180 H 859.335 1.93375 0.665309 0
M  V30 9181 H 857.49 2.29307 3.12245 0
M  V30 9182 H 857.904 4.47323 2.73866 0
M  V30 9183 H 859.378 3.58316 4.19897 0
M  V30 9184 H 859.855 1.90416 3.95776 0
M  V30 9185 H 860.461 3.15682 2.85 0
M  V30 9186 N 858.776 -0.797141 1.35954 0
M  V30 9187 C 859.706 -1.92387 1.32323 0
M  V30 9188 C 860.687 -1.68967 0.196007 0
M  V30 9189 O 861.872 -1.90193 0.39245 0
M  V30 9190 C 859.002 -3.29286 1.10398 0
M  V30 9191 C 857.956 -3.67212 2.19862 0
M  V30 9192 C 857.282 -5.02377 1.8309 0
M  V30 9193 C 858.582 -3.76602 3.61896 0
M  V30 9194 H 860.276 -1.95683 2.26602 0
M  V30 9195 H 857.822 -0.94007 1.09081 0
M  V30 9196 H 859.775 -4.07721 1.06495 0
M  V30 9197 H 858.499 -3.26358 0.125668 0
M  V30 9198 H 857.158 -2.91069 2.22878 0
M  V30 9199 H 856.806 -4.95961 0.838527 0
M  V30 9200 H 856.506 -5.28722 2.56372 0
M  V30 9201 H 858.03 -5.8324 1.80729 0
M  V30 9202 H 859.444 -4.45246 3.6115 0
M  V30 9203 H 857.841 -4.14425 4.34018 0
M  V30 9204 H 858.911 -2.77906 3.97361 0
M  V30 9205 N 860.254 -1.20106 -1.0204 0
M  V30 9206 C 861.202 -0.943231 -2.12617 0
M  V30 9207 C 862.196 0.104042 -1.6908 0
M  V30 9208 O 863.402 -0.0459732 -1.79941 0
M  V30 9209 H 859.777 -0.28767 -0.694802 0
M  V30 9210 H 861.748 -1.88221 -2.3155 0
M  V30 9211 C 860.497 -0.50771 -3.43973 0
M  V30 9212 H 859.82 -1.30514 -3.77897 0
M  V30 9213 H 861.26 -0.366486 -4.22413 0
M  V30 9214 C 859.719 0.77939 -3.27761 0
M  V30 9215 O 860.249 1.83876 -3.57145 0
M  V30 9216 N 858.455 0.739931 -2.81022 0
M  V30 9217 H 858.002 -0.122426 -2.57309 0
M  V30 9218 H 857.96 1.60147 -2.70556 0
M  V30 9219 N 861.732 1.21287 -1.00634 0
M  V30 9220 C 862.68 2.25733 -0.561026 0
M  V30 9221 C 863.674 1.64728 0.395095 0
M  V30 9222 O 864.88 1.78022 0.266141 0
M  V30 9223 H 861.255 0.734104 -0.163081 0
M  V30 9224 H 863.226 2.60631 -1.45307 0
M  V30 9225 C 861.975 3.47569 0.0952587 0
M  V30 9226 H 861.298 3.94782 -0.631427 0
M  V30 9227 H 862.738 4.22382 0.370105 0
M  V30 9228 C 861.197 3.09326 1.33488 0
M  V30 9229 O 861.727 3.19933 2.42912 0
M  V30 9230 N 859.933 2.63976 1.21512 0
M  V30 9231 H 859.48 2.55545 0.324741 0
M  V30 9232 H 859.438 2.38757 2.04555 0
M  V30 9233 N 863.21 0.781244 1.36873 0
M  V30 9234 C 864.487 0.274217 1.93668 0
M  V30 9235 C 864.867 -1.2323 1.71399 0
M  V30 9236 O 864.215 -2.01993 1.06822 0
M  V30 9237 C 864.425 0.657939 3.42742 0
M  V30 9238 C 865.773 0.63307 4.19854 0
M  V30 9239 O 866.797 0.597909 3.51146 0
M  V30 9240 O 865.656 0.668636 5.42394 0
M  V30 9241 H 862.75 0.0658059 0.824378 0
M  V30 9242 H 865.296 0.863238 1.46104 0
M  V30 9243 H 864.068 1.69728 3.52573 0
M  V30 9244 H 863.691 0.0423678 3.97577 0
M  V30 9245 N 864.689 -1.48329 0.532571 0
M  V30 9246 C 865.936 -2.025 -0.000582356 0
M  V30 9247 C 866.264 -1.40942 -1.34036 0
M  V30 9248 O 865.519 -0.545545 -1.87942 0
M  V30 9249 C 865.818 -3.57 -0.168943 0
M  V30 9250 C 865.484 -4.37357 1.0968 0
M  V30 9251 C 864.146 -4.59033 1.44369 0
M  V30 9252 C 866.498 -4.83882 1.93669 0
M  V30 9253 C 863.826 -5.24481 2.62939 0
M  V30 9254 C 866.178 -5.50637 3.11419 0
M  V30 9255 C 864.842 -5.70551 3.46451 0
M  V30 9256 H 864.112 -0.741 -0.000213099 0
M  V30 9257 H 866.759 -1.78282 0.699117 0
M  V30 9258 H 865.064 -3.80072 -0.951429 0
M  V30 9259 H 866.761 -3.9654 -0.596422 0
M  V30 9260 H 863.351 -4.20748 0.816655 0
M  V30 9261 H 867.535 -4.66936 1.6818 0
M  V30 9262 H 862.791 -5.38096 2.9028 0
M  V30 9263 H 866.965 -5.85655 3.76803 0
M  V30 9264 H 864.592 -6.21037 4.38425 0
M  V30 9265 N 866.167 -0.267825 -1.55308 0
M  V30 9266 C 867.114 0.6228 -2.22238 0
M  V30 9267 C 868.084 1.15536 -1.19334 0
M  V30 9268 O 869.269 1.206 -1.47852 0
M  V30 9269 C 866.409 1.80447 -2.94164 0
M  V30 9270 C 865.522 1.30646 -4.11771 0
M  V30 9271 C 864.657 2.44935 -4.7136 0
M  V30 9272 C 863.696 1.92099 -5.81175 0
M  V30 9273 N 862.833 2.99834 -6.34857 0
M  V30 9274 H 867.673 0.0453874 -2.97965 0
M  V30 9275 H 865.21 0.0106371 -1.47096 0
M  V30 9276 H 867.168 2.49896 -3.34078 0
M  V30 9277 H 865.798 2.35403 -2.20874 0
M  V30 9278 H 864.85 0.505314 -3.77029 0
M  V30 9279 H 866.162 0.879409 -4.90987 0
M  V30 9280 H 865.316 3.2239 -5.13955 0
M  V30 9281 H 864.055 2.90951 -3.91406 0
M  V30 9282 H 863.06 1.13122 -5.38037 0
M  V30 9283 H 864.285 1.47027 -6.62993 0
M  V30 9284 H 862.231 3.45246 -5.578 0
M  V30 9285 H 862.148 2.61524 -7.09324 0
M  V30 9286 H 863.416 3.77286 -6.82111 0
M  V30 9287 N 867.645 1.57599 0.00500368 0
M  V30 9288 C 868.593 2.09223 1.01628 0
M  V30 9289 C 869.587 1.01113 1.35913 0
M  V30 9290 O 870.793 1.19583 1.34536 0
M  V30 9291 H 867.168 0.667999 0.345372 0
M  V30 9292 H 869.139 2.93188 0.555274 0
M  V30 9293 C 867.888 2.60674 2.30097 0
M  V30 9294 H 867.211 3.43491 2.04582 0
M  V30 9295 H 868.651 3.00479 2.99146 0
M  V30 9296 C 867.11 1.51862 3.00731 0
M  V30 9297 O 867.64 0.898651 3.91519 0
M  V30 9298 N 865.846 1.24729 2.62471 0
M  V30 9299 H 865.393 1.7533 1.88725 0
M  V30 9300 H 865.351 0.521437 3.10046 0
M  V30 9301 N 869.123 -0.277682 1.55134 0
M  V30 9302 C 870.348 -1.03254 1.7987 0
M  V30 9303 C 870.773 -1.79324 0.567861 0
M  V30 9304 O 870.131 -1.74764 -0.4824 0
M  V30 9305 C 870.179 -1.9705 3.02 0
M  V30 9306 O 869.283 -3.05744 2.76757 0
M  V30 9307 H 868.624 -0.295447 0.594649 0
M  V30 9308 H 871.154 -0.308013 2.02268 0
M  V30 9309 H 871.164 -2.3909 3.30606 0
M  V30 9310 H 869.839 -1.41094 3.91236 0
M  V30 9311 H 868.416 -2.68052 2.59235 0
M  V30 9312 N 870.601 -1.47988 -0.541979 0
M  V30 9313 C 871.511 -1.64276 -1.67483 0
M  V30 9314 C 872.527 -0.525387 -1.65879 0
M  V30 9315 O 873.703 -0.794912 -1.85049 0
M  V30 9316 C 870.768 -1.66744 -3.03969 0
M  V30 9317 C 869.829 -2.90021 -3.16522 0
M  V30 9318 C 869.062 -2.92362 -4.46498 0
M  V30 9319 O 869.285 -2.03462 -5.32878 0
M  V30 9320 O 868.219 -3.84399 -4.63164 0
M  V30 9321 H 872.045 -2.60164 -1.5668 0
M  V30 9322 H 869.63 -1.31249 -0.71372 0
M  V30 9323 H 871.512 -1.70958 -3.85164 0
M  V30 9324 H 870.187 -0.740277 -3.15122 0
M  V30 9325 H 869.094 -2.91345 -2.34667 0
M  V30 9326 H 870.427 -3.82082 -3.10281 0
M  V30 9327 N 872.079 0.78992 -1.36375 0
M  V30 9328 C 872.989 1.93386 -1.32812 0
M  V30 9329 C 874.005 1.72468 -0.230377 0
M  V30 9330 O 875.181 1.96014 -0.462657 0
M  V30 9331 C 872.246 3.2824 -1.11621 0
M  V30 9332 C 871.307 3.61939 -2.30865 0
M  V30 9333 C 870.54 4.90359 -2.10675 0
M  V30 9334 O 870.763 5.6005 -1.08168 0
M  V30 9335 O 869.697 5.22702 -2.9844 0
M  V30 9336 H 873.523 1.99342 -2.29121 0
M  V30 9337 H 871.108 0.9301 -1.16917 0
M  V30 9338 H 872.99 4.08939 -1.01719 0
M  V30 9339 H 871.665 3.23178 -0.183732 0
M  V30 9340 H 870.572 2.81549 -2.46335 0
M  V30 9341 H 871.905 3.71725 -3.22617 0
M  V30 9342 N 873.557 1.20646 1.01402 0
M  V30 9343 C 874.806 1.01242 1.7445 0
M  V30 9344 C 875.119 -0.455732 1.90217 0
M  V30 9345 O 876.325 -0.768951 2.60383 0
M  V30 9346 C 874.781 1.76275 3.13776 0
M  V30 9347 C 874.389 3.27201 3.06013 0
M  V30 9348 C 876.133 1.65248 3.91016 0
M  V30 9349 C 874.04 3.9476 4.40362 0
M  V30 9350 H 872.97 0.375202 0.654018 0
M  V30 9351 H 875.621 1.44292 1.13367 0
M  V30 9352 H 874.003 1.26013 3.75415 0
M  V30 9353 H 875.177 3.84695 2.53665 0
M  V30 9354 H 873.492 3.38669 2.42265 0
M  V30 9355 H 876.089 2.13061 4.90417 0
M  V30 9356 H 876.432 0.609128 4.1182 0
M  V30 9357 H 876.965 2.12937 3.3601 0
M  V30 9358 H 873.704 4.99258 4.24761 0
M  V30 9359 H 873.224 3.42054 4.92706 0
M  V30 9360 H 874.903 3.99159 5.09196 0
M  V30 9361 N 875.035 -1.20752 1.01276 0
M  V30 9362 C 875.967 -2.22798 0.537917 0
M  V30 9363 C 876.98 -1.5836 -0.377638 0
M  V30 9364 O 878.169 -1.77624 -0.176599 0
M  V30 9365 C 875.269 -3.38068 -0.237364 0
M  V30 9366 C 874.442 -4.32095 0.679161 0
M  V30 9367 C 873.501 -5.26178 -0.0478676 0
M  V30 9368 O 872.527 -5.66305 0.573366 0
M  V30 9369 N 873.729 -5.65201 -1.32396 0
M  V30 9370 H 876.494 -2.64166 1.4155 0
M  V30 9371 H 874.055 -1.35254 0.889826 0
M  V30 9372 H 876.047 -3.98009 -0.73288 0
M  V30 9373 H 874.617 -2.95622 -1.0162 0
M  V30 9374 H 873.837 -3.70179 1.35505 0
M  V30 9375 H 875.125 -4.91842 1.30263 0
M  V30 9376 H 874.523 -5.34606 -1.84968 0
M  V30 9377 H 873.08 -6.27468 -1.76428 0
M  V30 9378 N 876.513 -0.788492 -1.36457 0
M  V30 9379 C 877.476 -0.192209 -2.28393 0
M  V30 9380 C 878.476 0.609916 -1.48784 0
M  V30 9381 O 879.666 0.431046 -1.68783 0
M  V30 9382 C 876.798 0.734096 -3.32902 0
M  V30 9383 H 877.991 -1.00284 -2.82636 0
M  V30 9384 H 875.544 -0.557852 -1.46006 0
M  V30 9385 H 876.279 1.5691 -2.83813 0
M  V30 9386 H 876.064 0.160875 -3.9177 0
M  V30 9387 H 877.554 1.1462 -4.01562 0
M  V30 9388 N 877.991 1.48044 -0.54043 0
M  V30 9389 C 878.921 2.32597 0.205178 0
M  V30 9390 C 879.902 1.42748 0.925041 0
M  V30 9391 O 881.087 1.71624 0.908784 0
M  V30 9392 C 878.217 3.24175 1.24612 0
M  V30 9393 C 877.171 4.23131 0.64376 0
M  V30 9394 C 876.497 5.03915 1.78812 0
M  V30 9395 C 877.797 5.20831 -0.39144 0
M  V30 9396 H 879.491 2.95184 -0.500676 0
M  V30 9397 H 877.037 1.41948 -0.242225 0
M  V30 9398 H 878.99 3.82158 1.77576 0
M  V30 9399 H 877.714 2.59608 1.98169 0
M  V30 9400 H 876.373 3.66349 0.135554 0
M  V30 9401 H 876.021 4.35765 2.51232 0
M  V30 9402 H 875.721 5.709 1.39094 0
M  V30 9403 H 877.245 5.64753 2.32134 0
M  V30 9404 H 878.659 5.73277 0.0515064 0
M  V30 9405 H 877.056 5.95926 -0.706569 0
M  V30 9406 H 878.126 4.6733 -1.29345 0
M  V30 9407 N 879.47 0.276058 1.55163 0
M  V30 9408 C 880.4 -0.604633 2.25536 0
M  V30 9409 C 881.381 -1.15813 1.24585 0
M  V30 9410 O 882.566 -1.1921 1.53306 0
M  V30 9411 C 879.696 -1.78836 2.97716 0
M  V30 9412 C 878.65 -1.36635 4.05604 0
M  V30 9413 C 877.976 -2.63325 4.65364 0
M  V30 9414 C 879.276 -0.515858 5.19746 0
M  V30 9415 H 880.97 -0.0177483 2.99395 0
M  V30 9416 H 878.516 -0.00709627 1.43998 0
M  V30 9417 H 880.469 -2.41036 3.45658 0
M  V30 9418 H 879.193 -2.40109 2.21394 0
M  V30 9419 H 877.852 -0.767541 3.58475 0
M  V30 9420 H 877.5 -3.22858 3.85709 0
M  V30 9421 H 877.2 -2.358 5.38212 0
M  V30 9422 H 878.724 -3.26372 5.16056 0
M  V30 9423 H 880.138 -1.04289 5.63735 0
M  V30 9424 H 878.535 -0.335449 5.99162 0
M  V30 9425 H 879.605 0.465137 4.82664 0
M  V30 9426 N 880.948 -1.576 0.00335426 0
M  V30 9427 C 881.895 -2.08632 -0.986975 0
M  V30 9428 C 882.865 -0.982491 -1.33927 0
M  V30 9429 O 884.05 -1.25513 -1.43705 0
M  V30 9430 C 881.19 -2.59705 -2.27261 0
M  V30 9431 C 880.303 -3.84002 -1.97905 0
M  V30 9432 C 879.438 -4.23563 -3.20574 0
M  V30 9433 C 878.477 -5.40688 -2.8692 0
M  V30 9434 N 877.614 -5.75526 -4.02136 0
M  V30 9435 H 882.454 -2.92977 -0.544855 0
M  V30 9436 H 879.991 -1.44831 -0.257376 0
M  V30 9437 H 881.949 -2.87395 -3.02423 0
M  V30 9438 H 880.579 -1.7823 -2.69136 0
M  V30 9439 H 879.631 -3.63199 -1.13096 0
M  V30 9440 H 880.943 -4.69261 -1.69102 0
M  V30 9441 H 880.097 -4.52554 -4.04079 0
M  V30 9442 H 878.836 -3.37019 -3.52518 0
M  V30 9443 H 877.841 -5.11417 -2.01822 0
M  V30 9444 H 879.066 -6.2891 -2.5622 0
M  V30 9445 H 877.012 -4.9194 -4.33971 0
M  V30 9446 H 876.929 -6.55367 -3.76869 0
M  V30 9447 H 878.197 -6.0911 -4.8642 0
M  V30 9448 N 882.426 0.269451 -1.5528 0
M  V30 9449 C 883.374 1.35303 -1.89198 0
M  V30 9450 C 884.368 1.50956 -0.768671 0
M  V30 9451 O 885.574 1.52699 -0.953054 0
M  V30 9452 H 881.949 0.452591 -0.600554 0
M  V30 9453 H 883.92 1.03949 -2.79709 0
M  V30 9454 C 882.669 2.70585 -2.18356 0
M  V30 9455 H 881.992 2.59332 -3.04281 0
M  V30 9456 H 883.432 3.45335 -2.46007 0
M  V30 9457 C 881.891 3.21954 -0.992327 0
M  V30 9458 O 882.421 4.01048 -0.228769 0
M  V30 9459 N 880.627 2.79682 -0.789062 0
M  V30 9460 H 880.174 2.15475 -1.41167 0
M  V30 9461 H 880.132 3.14399 0.00634776 0
M  V30 9462 N 883.904 1.48273 0.534124 0
M  V30 9463 C 884.867 1.6201 1.62127 0
M  V30 9464 C 885.867 0.493653 1.53035 0
M  V30 9465 O 887.057 0.759337 1.56779 0
M  V30 9466 C 884.189 1.5864 3.01739 0
M  V30 9467 H 885.382 2.58944 1.51288 0
M  V30 9468 H 882.935 1.36808 0.755861 0
M  V30 9469 H 883.67 0.631685 3.18088 0
M  V30 9470 H 883.455 2.40415 3.09747 0
M  V30 9471 H 884.945 1.71438 3.80787 0
M  V30 9472 N 885.382 -0.782676 1.36792 0
M  V30 9473 C 886.793 -1.35828 1.28092 0
M  V30 9474 C 887.144 -1.96052 -0.076315 0
M  V30 9475 O 886.269 -1.93042 -0.977935 0
M  V30 9476 C 886.864 -2.46949 2.31952 0
M  V30 9477 C 885.423 -3.00307 2.2692 0
M  V30 9478 C 884.57 -1.73436 2.16368 0
M  V30 9479 H 887.521 -0.583788 1.47572 0
M  V30 9480 H 887.542 -3.26144 1.95986 0
M  V30 9481 H 887.054 -2.03087 3.30722 0
M  V30 9482 H 885.155 -3.48571 1.31639 0
M  V30 9483 H 885.268 -3.56663 3.19887 0
M  V30 9484 H 883.632 -1.95934 1.62733 0
M  V30 9485 H 884.415 -1.31693 3.17036 0
M  V30 9486 N 886.86 -1.21182 -1.00761 0
M  V30 9487 C 887.807 -0.968741 -2.09485 0
M  V30 9488 C 888.777 0.104325 -1.65772 0
M  V30 9489 O 889.962 -0.0422587 -1.90753 0
M  V30 9490 C 887.102 -0.536686 -3.40901 0
M  V30 9491 C 886.215 -1.6789 -3.98041 0
M  V30 9492 C 885.35 -1.19627 -5.17555 0
M  V30 9493 C 884.389 -2.31099 -5.66798 0
M  V30 9494 N 883.526 -1.83988 -6.77564 0
M  V30 9495 H 888.366 -1.89952 -2.29613 0
M  V30 9496 H 885.903 -0.946688 -1.12589 0
M  V30 9497 H 887.861 -0.26745 -4.16342 0
M  V30 9498 H 886.491 0.357092 -3.20819 0
M  V30 9499 H 885.543 -2.06284 -3.19611 0
M  V30 9500 H 886.855 -2.51794 -4.30582 0
M  V30 9501 H 886.009 -0.883539 -6.00232 0
M  V30 9502 H 884.748 -0.327244 -4.86601 0
M  V30 9503 H 883.753 -2.63178 -4.82719 0
M  V30 9504 H 884.978 -3.18493 -5.99782 0
M  V30 9505 H 882.924 -0.994257 -6.48422 0
M  V30 9506 H 882.841 -2.61466 -7.09346 0
M  V30 9507 H 884.109 -1.55741 -7.63783 0
M  V30 9508 N 888.338 1.20213 -1.01915 0
M  V30 9509 C 889.585 1.89647 -0.709955 0
M  V30 9510 C 889.913 1.7901 0.760631 0
M  V30 9511 O 889.168 1.17028 1.56853 0
M  V30 9512 C 889.467 3.40232 -1.09438 0
M  V30 9513 C 889.133 3.7107 -2.5616 0
M  V30 9514 C 887.795 3.79196 -2.96249 0
M  V30 9515 C 890.147 3.85169 -3.51133 0
M  V30 9516 C 887.475 3.98882 -4.30244 0
M  V30 9517 C 889.827 4.06365 -4.8482 0
M  V30 9518 C 888.491 4.12722 -5.24611 0
M  V30 9519 H 887.761 0.693967 -0.259791 0
M  V30 9520 H 890.408 1.42419 -1.2802 0
M  V30 9521 H 888.713 3.89292 -0.442596 0
M  V30 9522 H 890.41 3.92257 -0.832811 0
M  V30 9523 H 887 3.65346 -2.24099 0
M  V30 9524 H 891.184 3.78243 -3.21319 0
M  V30 9525 H 886.44 4.02039 -4.60624 0
M  V30 9526 H 890.614 4.16216 -5.58334 0
M  V30 9527 H 888.241 4.27728 -6.28453 0
M  V30 9528 N 889.816 0.795718 1.36037 0
M  V30 9529 C 891.064 0.370291 1.98679 0
M  V30 9530 C 891.385 -1.06332 1.63458 0
M  V30 9531 O 890.655 -1.73394 0.911671 0
M  V30 9532 H 889.235 0.133928 0.734896 0
M  V30 9533 H 891.897 1.01915 1.6613 0
M  V30 9534 H 890.993 0.467207 3.08583 0
M  V30 9535 N 891.294 -1.47756 0.548274 0
M  V30 9536 C 892.242 -2.3158 -0.217584 0
M  V30 9537 C 893.236 -1.42372 -0.917957 0
M  V30 9538 O 894.442 -1.59184 -0.840259 0
M  V30 9539 H 890.817 -0.74671 -0.0890388 0
M  V30 9540 H 892.788 -2.94032 0.508719 0
M  V30 9541 C 891.537 -3.24834 -1.24008 0
M  V30 9542 H 890.86 -3.93435 -0.710572 0
M  V30 9543 H 892.3 -3.86336 -1.74701 0
M  V30 9544 C 890.759 -2.47724 -2.2833 0
M  V30 9545 O 891.289 -2.21522 -3.35098 0
M  V30 9546 N 889.495 -2.08891 -2.02022 0
M  V30 9547 H 889.042 -2.30401 -1.1521 0
M  V30 9548 H 889 -1.57613 -2.7204 0
M  V30 9549 N 892.772 -0.284283 -1.55015 0
M  V30 9550 C 894.049 0.382125 -1.91831 0
M  V30 9551 C 894.429 1.73007 -1.20962 0
M  V30 9552 O 893.777 2.25962 -0.339594 0
M  V30 9553 C 893.987 0.513341 -3.45204 0
M  V30 9554 C 895.335 0.791989 -4.17148 0
M  V30 9555 O 896.359 0.597799 -3.51148 0
M  V30 9556 O 895.218 1.16394 -5.33961 0
M  V30 9557 H 892.312 0.210707 -0.799707 0
M  V30 9558 H 894.858 -0.331111 -1.66438 0
M  V30 9559 H 893.63 -0.434911 -3.88876 0
M  V30 9560 H 893.253 1.27569 -3.76579 0
M  V30 9561 N 894.251 1.57596 -0.0117121 0
M  V30 9562 C 895.5 1.9025 0.669921 0
M  V30 9563 C 895.813 0.887986 1.74282 0
M  V30 9564 O 897.019 1.10516 2.47989 0
M  V30 9565 C 895.475 3.37762 1.24277 0
M  V30 9566 C 895.083 4.47535 0.204076 0
M  V30 9567 C 896.827 3.79509 1.90192 0
M  V30 9568 C 894.734 5.86132 0.787577 0
M  V30 9569 H 893.664 0.709935 0.253984 0
M  V30 9570 H 896.315 1.8335 -0.0741718 0
M  V30 9571 H 894.697 3.39537 2.03791 0
M  V30 9572 H 895.871 4.57294 -0.56733 0
M  V30 9573 H 894.186 4.14881 -0.355305 0
M  V30 9574 H 896.783 4.80402 2.34773 0
M  V30 9575 H 897.126 3.13643 2.7374 0
M  V30 9576 H 897.659 3.80084 1.17394 0
M  V30 9577 H 894.398 6.55499 -0.00938418 0
M  V30 9578 H 893.918 5.80014 1.52787 0
M  V30 9579 H 895.597 6.34158 1.28265 0
M  V30 9580 N 895.729 -0.261212 1.5542 0
M  V30 9581 C 897.006 -1.01321 1.67312 0
M  V30 9582 C 897.386 -2.0388 0.547356 0
M  V30 9583 O 896.734 -2.24003 -0.451083 0
M  V30 9584 C 896.944 -1.65943 3.07024 0
M  V30 9585 C 898.292 -2.16666 3.65159 0
M  V30 9586 O 899.316 -1.75909 3.09733 0
M  V30 9587 O 898.175 -2.91455 4.62294 0
M  V30 9588 H 895.269 -0.470714 0.679968 0
M  V30 9589 H 897.815 -0.256133 1.67756 0
M  V30 9590 H 896.587 -0.916868 3.80407 0
M  V30 9591 H 896.21 -2.48308 3.1053 0
M  V30 9592 N 897.207 -1.48554 -0.526253 0
M  V30 9593 C 898.117 -1.66044 -1.65731 0
M  V30 9594 C 899.133 -0.542951 -1.65312 0
M  V30 9595 O 900.309 -0.814495 -1.84195 0
M  V30 9596 C 897.374 -1.69959 -3.02184 0
M  V30 9597 C 896.435 -2.93362 -3.13428 0
M  V30 9598 C 895.668 -2.97081 -4.43372 0
M  V30 9599 O 895.891 -2.09103 -5.3069 0
M  V30 9600 O 894.825 -3.8929 -4.59061 0
M  V30 9601 H 898.651 -2.61811 -1.53912 0
M  V30 9602 H 896.236 -1.31999 -0.699759 0
M  V30 9603 H 898.118 -1.75033 -3.83329 0
M  V30 9604 H 896.793 -0.773658 -3.14319 0
M  V30 9605 H 895.7 -2.93818 -2.31564 0
M  V30 9606 H 897.033 -3.85352 -3.06211 0
M  V30 9607 N 898.685 0.775411 -1.37205 0
M  V30 9608 C 899.931 1.53611 -1.32407 0
M  V30 9609 C 900.264 1.9398 0.0924103 0
M  V30 9610 O 899.539 1.63791 1.04893 0
M  V30 9611 C 899.822 2.80367 -2.25979 0
M  V30 9612 C 899.675 2.46275 -3.76389 0
M  V30 9613 C 900.994 3.82277 -2.18064 0
M  V30 9614 H 898.113 0.557278 -0.482297 0
M  V30 9615 H 900.755 0.889826 -1.67875 0
M  V30 9616 H 898.905 3.35515 -1.95862 0
M  V30 9617 H 900.577 1.9707 -4.17087 0
M  V30 9618 H 898.82 1.79023 -3.95137 0
M  V30 9619 H 899.491 3.36868 -4.37291 0
M  V30 9620 H 901.967 3.36613 -2.44604 0
M  V30 9621 H 900.843 4.68696 -2.85684 0
M  V30 9622 H 901.104 4.26272 -1.17239 0
M  V30 9623 N 900.163 1.21714 1.00117 0
M  V30 9624 C 901.44 0.945391 1.71236 0
M  V30 9625 C 901.82 -0.541772 2.0403 0
M  V30 9626 O 901.168 -1.50763 1.71705 0
M  V30 9627 C 901.378 1.83444 2.96899 0
M  V30 9628 C 902.726 2.08558 3.69849 0
M  V30 9629 O 903.75 1.80824 3.06889 0
M  V30 9630 O 902.609 2.55485 4.83104 0
M  V30 9631 H 899.703 0.354834 0.747009 0
M  V30 9632 H 902.249 1.32661 1.05825 0
M  V30 9633 H 901.021 2.84075 2.69105 0
M  V30 9634 H 900.644 1.45428 3.70049 0
M  V30 9635 N 901.641 -1.19671 1.02551 0
M  V30 9636 C 902.589 -2.24812 0.596867 0
M  V30 9637 C 903.583 -1.65336 -0.368839 0
M  V30 9638 O 904.789 -1.78422 -0.237786 0
M  V30 9639 H 901.164 -0.731417 0.174739 0
M  V30 9640 H 903.135 -2.58286 1.49435 0
M  V30 9641 C 901.884 -3.47677 -0.0399514 0
M  V30 9642 H 901.207 -3.93728 0.694153 0
M  V30 9643 H 902.647 -4.22917 -0.302861 0
M  V30 9644 C 901.106 -3.11411 -1.2855 0
M  V30 9645 O 901.636 -3.23757 -2.37791 0
M  V30 9646 N 899.842 -2.65875 -1.17297 0
M  V30 9647 H 899.389 -2.56029 -0.284045 0
M  V30 9648 H 899.347 -2.41981 -2.00731 0
M  V30 9649 N 903.119 -0.802921 -1.35613 0
M  V30 9650 C 904.049 -0.225131 -2.32412 0
M  V30 9651 C 905.03 0.647383 -1.57299 0
M  V30 9652 O 906.215 0.578414 -1.85386 0
M  V30 9653 C 903.345 0.630085 -3.41537 0
M  V30 9654 C 902.299 -0.143635 -4.27759 0
M  V30 9655 C 901.625 0.833046 -5.28171 0
M  V30 9656 C 902.925 -1.34054 -5.04804 0
M  V30 9657 H 904.619 -1.03385 -2.80984 0
M  V30 9658 H 902.165 -0.498593 -1.35093 0
M  V30 9659 H 904.118 1.04433 -4.08254 0
M  V30 9660 H 902.842 1.47165 -2.91565 0
M  V30 9661 H 901.501 -0.539015 -3.62616 0
M  V30 9662 H 901.149 1.67001 -4.74468 0
M  V30 9663 H 900.849 0.319697 -5.8673 0
M  V30 9664 H 902.373 1.24558 -5.97761 0
M  V30 9665 H 903.787 -1.00136 -5.64487 0
M  V30 9666 H 902.184 -1.78812 -5.72841 0
M  V30 9667 H 903.254 -2.12906 -4.35659 0
M  V30 9668 N 904.597 1.47463 -0.556102 0
M  V30 9669 C 905.56 2.28478 0.181743 0
M  V30 9670 C 906.56 1.36886 0.843738 0
M  V30 9671 O 907.75 1.59527 0.69977 0
M  V30 9672 C 904.882 3.16534 1.26566 0
M  V30 9673 H 906.075 2.95182 -0.529892 0
M  V30 9674 H 903.628 1.53134 -0.313005 0
M  V30 9675 H 904.363 2.5452 2.00973 0
M  V30 9676 H 904.148 3.83939 0.795798 0
M  V30 9677 H 905.638 3.77579 1.78393 0
M  V30 9678 N 906.075 0.2925 1.54862 0
M  V30 9679 C 907.491 -0.0611461 1.59483 0
M  V30 9680 C 907.691 -1.53141 1.30958 0
M  V30 9681 O 906.747 -2.28291 1.07887 0
M  V30 9682 C 908.06 0.329143 2.98893 0
M  V30 9683 C 909.608 0.2772 3.1177 0
M  V30 9684 C 910.083 0.642185 4.53475 0
M  V30 9685 N 911.574 0.594396 4.5937 0
M  V30 9686 C 912.309 0.849385 5.67074 0
M  V30 9687 N 911.805 1.1699 6.82851 0
M  V30 9688 N 913.598 0.777016 5.56704 0
M  V30 9689 H 905.749 1.25079 1.71665 0
M  V30 9690 H 908.012 0.506516 0.80134 0
M  V30 9691 H 907.718 1.35233 3.24661 0
M  V30 9692 H 907.592 -0.321442 3.75828 0
M  V30 9693 H 909.979 -0.736725 2.85756 0
M  V30 9694 H 910.06 0.962289 2.3701 0
M  V30 9695 H 909.704 1.65388 4.80218 0
M  V30 9696 H 909.634 -0.0648831 5.2656 0
M  V30 9697 H 912.125 0.357256 3.76208 0
M  V30 9698 H 912.438 1.35067 7.60905 0
M  V30 9699 H 910.783 1.20785 6.84424 0
M  V30 9700 H 913.974 0.526333 4.65132 0
M  V30 9701 H 914.147 0.979113 6.4056 0
M  V30 9702 N 907.553 -1.57587 0.0200696 0
M  V30 9703 C 908.463 -2.13119 -0.980676 0
M  V30 9704 C 909.479 -1.08124 -1.36328 0
M  V30 9705 O 910.655 -1.40134 -1.44653 0
M  V30 9706 C 907.72 -2.63991 -2.24743 0
M  V30 9707 C 906.781 -3.83667 -1.9261 0
M  V30 9708 C 906.014 -4.32103 -3.13246 0
M  V30 9709 O 906.237 -3.79758 -4.25606 0
M  V30 9710 O 905.171 -5.24047 -2.96072 0
M  V30 9711 H 908.997 -2.98887 -0.538528 0
M  V30 9712 H 906.582 -1.48055 -0.19999 0
M  V30 9713 H 908.464 -2.9682 -2.99125 0
M  V30 9714 H 907.139 -1.81311 -2.68157 0
M  V30 9715 H 906.046 -3.55778 -1.15641 0
M  V30 9716 H 907.379 -4.67482 -1.54019 0
M  V30 9717 N 909.032 0.252966 -1.55557 0
M  V30 9718 C 910.28 0.979912 -1.76754 0
M  V30 9719 C 910.601 1.86083 -0.582944 0
M  V30 9720 O 909.871 1.91742 0.401497 0
M  V30 9721 H 908.451 0.364805 -0.651864 0
M  V30 9722 H 911.113 0.272372 -1.92987 0
M  V30 9723 H 910.209 1.60518 -2.67657 0
M  V30 9724 N 910.51 1.48831 0.518367 0
M  V30 9725 C 911.473 1.63721 1.604 0
M  V30 9726 C 912.473 0.509857 1.52503 0
M  V30 9727 O 913.663 0.775922 1.55965 0
M  V30 9728 C 910.795 1.61831 3.00039 0
M  V30 9729 H 911.988 2.60534 1.48533 0
M  V30 9730 H 909.541 1.37602 0.741309 0
M  V30 9731 H 910.276 0.665387 3.17401 0
M  V30 9732 H 910.061 2.43686 3.0718 0
M  V30 9733 H 911.551 1.75467 3.78947 0
M  V30 9734 N 911.988 -0.768124 1.37614 0
M  V30 9735 C 912.918 -1.89537 1.36374 0
M  V30 9736 C 913.899 -1.68513 0.231803 0
M  V30 9737 O 915.084 -1.89318 0.432705 0
M  V30 9738 C 912.214 -3.26871 1.17358 0
M  V30 9739 C 911.168 -3.62466 2.27602 0
M  V30 9740 C 910.494 -4.9838 1.93705 0
M  V30 9741 C 911.794 -3.68841 3.69802 0
M  V30 9742 H 913.488 -1.90832 2.30702 0
M  V30 9743 H 911.034 -0.91672 1.11051 0
M  V30 9744 H 912.987 -4.05371 1.15119 0
M  V30 9745 H 911.711 -3.26018 0.194865 0
M  V30 9746 H 910.37 -2.86276 2.29002 0
M  V30 9747 H 910.018 -4.94071 0.943539 0
M  V30 9748 H 909.718 -5.23165 2.6753 0
M  V30 9749 H 911.242 -5.79276 1.93059 0
M  V30 9750 H 912.656 -4.37485 3.70513 0
M  V30 9751 H 911.053 -4.05126 4.42711 0
M  V30 9752 H 912.123 -2.69415 4.03167 0
M  V30 9753 N 913.466 -1.22244 -0.994698 0
M  V30 9754 C 914.712 -1.04746 -1.73655 0
M  V30 9755 C 915.045 0.41668 -1.89677 0
M  V30 9756 O 914.32 1.30897 -1.43862 0
M  V30 9757 C 914.603 -1.75716 -3.14318 0
M  V30 9758 C 914.456 -3.29714 -3.05955 0
M  V30 9759 C 915.775 -1.50809 -4.13455 0
M  V30 9760 H 912.894 -0.381921 -0.630322 0
M  V30 9761 H 915.536 -1.50559 -1.15897 0
M  V30 9762 H 913.686 -1.3677 -3.63629 0
M  V30 9763 H 915.358 -3.78093 -2.64279 0
M  V30 9764 H 913.601 -3.59484 -2.42804 0
M  V30 9765 H 914.272 -3.74547 -4.05485 0
M  V30 9766 H 916.748 -1.84636 -3.72892 0
M  V30 9767 H 915.624 -2.02964 -5.09997 0
M  V30 9768 H 915.885 -0.440292 -4.39902 0
M  V30 9769 N 914.944 1.19125 -1.03184 0
M  V30 9770 C 916.174 1.92558 -0.748663 0
M  V30 9771 C 916.582 1.759 0.696837 0
M  V30 9772 O 915.925 1.08019 1.48585 0
M  V30 9773 C 915.987 3.4461 -1.02391 0
M  V30 9774 C 915.651 3.85041 -2.46155 0
M  V30 9775 C 916.648 3.89554 -3.44302 0
M  V30 9776 C 914.333 4.16594 -2.80633 0
M  V30 9777 C 916.327 4.25055 -4.74981 0
M  V30 9778 C 914.014 4.51767 -4.11521 0
M  V30 9779 C 915.012 4.55972 -5.08506 0
M  V30 9780 O 914.7 4.9033 -6.37049 0
M  V30 9781 H 914.432 0.618397 -0.273059 0
M  V30 9782 H 916.986 1.52122 -1.38015 0
M  V30 9783 H 915.216 3.85244 -0.335284 0
M  V30 9784 H 916.905 3.99283 -0.729927 0
M  V30 9785 H 917.671 3.65324 -3.19003 0
M  V30 9786 H 913.55 4.12503 -2.05821 0
M  V30 9787 H 917.094 4.28252 -5.50678 0
M  V30 9788 H 912.991 4.75455 -4.36592 0
M  V30 9789 H 913.759 5.08266 -6.41566 0
M  V30 9790 N 916.422 0.810101 1.35185 0
M  V30 9791 C 917.662 0.397802 2.00492 0
M  V30 9792 C 918.026 -1.01684 1.62863 0
M  V30 9793 O 919.227 -1.53133 2.20916 0
M  V30 9794 C 917.498 0.579524 3.5267 0
M  V30 9795 S 919.057 0.258169 4.3804 0
M  V30 9796 H 915.875 0.150904 0.694801 0
M  V30 9797 H 918.477 1.05312 1.64711 0
M  V30 9798 H 917.181 1.60901 3.77543 0
M  V30 9799 H 916.712 -0.0909886 3.93295 0
M  V30 9800 H 918.727 -0.932882 4.87352 0
M  V30 9801 N 917.9 -1.47166 0.563914 0
M  V30 9802 C 919.316 -1.58018 0.224173 0
M  V30 9803 C 919.516 -1.56163 -1.27339 0
M  V30 9804 O 918.572 -1.4686 -2.05398 0
M  V30 9805 C 919.885 -2.88236 0.856762 0
M  V30 9806 C 921.433 -3.01833 0.82861 0
M  V30 9807 C 921.908 -4.34761 1.44039 0
M  V30 9808 N 923.399 -4.41413 1.40388 0
M  V30 9809 C 924.134 -5.42845 1.84681 0
M  V30 9810 N 923.63 -6.51052 2.3686 0
M  V30 9811 N 925.423 -5.33931 1.75711 0
M  V30 9812 H 917.574 -1.46615 1.53681 0
M  V30 9813 H 919.837 -0.698195 0.64127 0
M  V30 9814 H 919.543 -2.95349 1.90949 0
M  V30 9815 H 919.417 -3.75537 0.353766 0
M  V30 9816 H 921.804 -2.94312 -0.215451 0
M  V30 9817 H 921.885 -2.16056 1.36943 0
M  V30 9818 H 921.529 -4.43037 2.48355 0
M  V30 9819 H 921.459 -5.1928 0.874953 0
M  V30 9820 H 923.95 -3.63811 1.02227 0
M  V30 9821 H 924.263 -7.24633 2.68564 0
M  V30 9822 H 922.608 -6.51924 2.40875 0
M  V30 9823 H 925.799 -4.48295 1.34718 0
M  V30 9824 H 925.972 -6.12841 2.10547 0
M  V30 9825 N 919.378 -0.300708 -1.54705 0
M  V30 9826 C 920.288 0.584996 -2.27189 0
M  V30 9827 C 921.304 1.14866 -1.30697 0
M  V30 9828 O 922.48 1.17351 -1.63679 0
M  V30 9829 C 919.545 1.74076 -2.99831 0
M  V30 9830 C 918.606 1.2112 -4.1186 0
M  V30 9831 C 917.839 2.31188 -4.81028 0
M  V30 9832 O 918.062 3.5108 -4.49554 0
M  V30 9833 O 916.996 1.97897 -5.68437 0
M  V30 9834 H 920.822 -0.00298177 -3.037 0
M  V30 9835 H 918.407 -0.0671802 -1.49249 0
M  V30 9836 H 920.289 2.41413 -3.45395 0
M  V30 9837 H 918.964 2.31535 -2.26215 0
M  V30 9838 H 917.871 0.50357 -3.70695 0
M  V30 9839 H 919.204 0.682046 -4.87452 0
M  V30 9840 N 920.856 1.57574 -0.0284266 0
M  V30 9841 C 922.102 1.92056 0.651327 0
M  V30 9842 C 922.435 0.905092 1.71819 0
M  V30 9843 O 921.71 -0.0722703 1.94366 0
M  V30 9844 C 921.993 3.37021 1.26841 0
M  V30 9845 C 921.846 4.49304 0.211157 0
M  V30 9846 C 923.165 3.81936 2.18662 0
M  V30 9847 H 920.284 0.698428 0.235304 0
M  V30 9848 H 922.926 1.89807 -0.0855435 0
M  V30 9849 H 921.076 3.39068 1.89644 0
M  V30 9850 H 922.748 4.5939 -0.419379 0
M  V30 9851 H 920.991 4.31317 -0.463445 0
M  V30 9852 H 921.662 5.47764 0.682518 0
M  V30 9853 H 924.138 3.8162 1.65847 0
M  V30 9854 H 923.014 4.84064 2.58792 0
M  V30 9855 H 923.275 3.174 3.07749 0
M  V30 9856 N 922.334 -0.244713 1.55689 0
M  V30 9857 C 923.282 -1.32276 1.91326 0
M  V30 9858 C 924.276 -1.49714 0.792589 0
M  V30 9859 O 925.482 -1.51163 0.977227 0
M  V30 9860 H 921.857 -0.442979 0.607679 0
M  V30 9861 H 923.828 -0.99486 2.81327 0
M  V30 9862 C 922.577 -2.67077 2.22633 0
M  V30 9863 H 921.9 -2.54458 3.08368 0
M  V30 9864 H 923.34 -3.41378 2.5147 0
M  V30 9865 C 921.799 -3.20335 1.04342 0
M  V30 9866 O 922.329 -4.00633 0.292543 0
M  V30 9867 N 920.535 -2.78392 0.833457 0
M  V30 9868 H 920.082 -2.13202 1.44577 0
M  V30 9869 H 920.04 -3.1437 0.0436713 0
M  V30 9870 N 923.813 -1.49104 -0.510467 0
M  V30 9871 C 924.76 -1.65074 -1.61305 0
M  V30 9872 C 925.73 -0.492362 -1.58635 0
M  V30 9873 O 926.915 -0.718241 -1.76765 0
M  V30 9874 C 924.055 -1.71457 -2.99493 0
M  V30 9875 C 923.168 -2.98536 -3.12251 0
M  V30 9876 C 922.303 -2.95957 -4.41116 0
M  V30 9877 C 921.342 -4.17655 -4.47471 0
M  V30 9878 N 920.479 -4.13041 -5.67751 0
M  V30 9879 H 925.319 -2.59222 -1.46996 0
M  V30 9880 H 922.856 -1.28535 -0.715346 0
M  V30 9881 H 924.814 -1.7314 -3.79577 0
M  V30 9882 H 923.444 -0.807834 -3.12528 0
M  V30 9883 H 922.496 -3.06509 -2.25292 0
M  V30 9884 H 923.808 -3.88527 -3.12807 0
M  V30 9885 H 922.962 -2.96149 -5.2951 0
M  V30 9886 H 921.701 -2.03728 -4.4311 0
M  V30 9887 H 920.706 -4.17717 -3.57481 0
M  V30 9888 H 921.931 -5.11066 -4.472 0
M  V30 9889 H 919.877 -3.23643 -5.70606 0
M  V30 9890 H 919.794 -4.96757 -5.69884 0
M  V30 9891 H 921.062 -4.17322 -6.58379 0
M  V30 9892 N 925.291 0.760815 -1.38019 0
M  V30 9893 C 926.521 1.54776 -1.3685 0
M  V30 9894 C 926.929 1.89146 0.0453971 0
M  V30 9895 O 926.272 1.52746 1.0205 0
M  V30 9896 C 926.334 2.87923 -2.15269 0
M  V30 9897 C 925.998 2.76131 -3.64144 0
M  V30 9898 C 926.995 2.46417 -4.57794 0
M  V30 9899 C 924.68 2.9381 -4.07408 0
M  V30 9900 C 926.674 2.34525 -5.92686 0
M  V30 9901 C 924.361 2.81539 -5.42383 0
M  V30 9902 C 925.359 2.51938 -6.34836 0
M  V30 9903 O 925.047 2.39713 -7.67329 0
M  V30 9904 H 924.779 0.485776 -0.470104 0
M  V30 9905 H 927.333 0.949939 -1.82113 0
M  V30 9906 H 925.563 3.49867 -1.64712 0
M  V30 9907 H 927.252 3.49389 -2.06596 0
M  V30 9908 H 928.018 2.32433 -4.25676 0
M  V30 9909 H 923.897 3.15849 -3.35799 0
M  V30 9910 H 927.441 2.11342 -6.64816 0
M  V30 9911 H 923.338 2.95093 -5.741 0
M  V30 9912 H 924.106 2.5498 -7.77771 0
M  V30 9913 N 926.769 1.22769 0.988202 0
M  V30 9914 C 927.997 1.08155 1.76381 0
M  V30 9915 C 928.412 -0.367573 1.85187 0
M  V30 9916 O 927.769 -1.25455 1.32541 0
M  V30 9917 C 927.82 1.69193 3.19462 0
M  V30 9918 O 927.541 3.08437 3.11125 0
M  V30 9919 C 929.042 1.59915 4.13451 0
M  V30 9920 H 926.262 0.378908 0.553778 0
M  V30 9921 H 928.806 1.6246 1.24206 0
M  V30 9922 H 926.961 1.18939 3.6869 0
M  V30 9923 H 927.375 3.37916 4.0114 0
M  V30 9924 H 928.849 2.07339 5.1158 0
M  V30 9925 H 929.326 0.556546 4.3566 0
M  V30 9926 H 929.932 2.09497 3.70123 0
M  V30 9927 N 928.247 -1.18576 1.03814 0
M  V30 9928 C 929.195 -2.24166 0.620678 0
M  V30 9929 C 930.189 -1.65718 -0.351282 0
M  V30 9930 O 931.395 -1.78665 -0.218848 0
M  V30 9931 H 927.77 -0.729522 0.182487 0
M  V30 9932 H 929.741 -2.56686 1.52166 0
M  V30 9933 C 928.49 -3.477 -0.00307331 0
M  V30 9934 H 927.813 -3.92969 0.735874 0
M  V30 9935 H 929.253 -4.23214 -0.257988 0
M  V30 9936 C 927.712 -3.12757 -1.2524 0
M  V30 9937 O 928.242 -3.26261 -2.34344 0
M  V30 9938 N 926.448 -2.67104 -1.14471 0
M  V30 9939 H 925.995 -2.56316 -0.256873 0
M  V30 9940 H 925.953 -2.44096 -1.98153 0
M  V30 9941 N 929.725 -0.817259 -1.34754 0
M  V30 9942 C 931.136 -0.462215 -1.80888 0
M  V30 9943 C 931.487 1.01685 -1.67794 0
M  V30 9944 O 930.612 1.79094 -1.21468 0
M  V30 9945 C 931.207 -0.832204 -3.2842 0
M  V30 9946 C 929.766 -0.52961 -3.72655 0
M  V30 9947 C 928.913 -1.05214 -2.56564 0
M  V30 9948 H 931.864 -1.00795 -1.22581 0
M  V30 9949 H 931.885 -0.133804 -3.80265 0
M  V30 9950 H 931.397 -1.90873 -3.37919 0
M  V30 9951 H 929.498 0.537743 -3.68699 0
M  V30 9952 H 929.611 -1.06971 -4.67005 0
M  V30 9953 H 927.975 -0.473949 -2.50251 0
M  V30 9954 H 928.758 -2.135 -2.68836 0
M  V30 9955 N 931.203 1.46865 -0.571711 0
M  V30 9956 C 932.619 1.57897 -0.23255 0
M  V30 9957 C 932.819 1.56836 1.26509 0
M  V30 9958 O 931.875 1.47947 2.04617 0
M  V30 9959 C 933.188 2.87778 -0.872036 0
M  V30 9960 C 934.736 3.01389 -0.844605 0
M  V30 9961 C 935.211 4.33991 -1.46343 0
M  V30 9962 N 936.702 4.40662 -1.42727 0
M  V30 9963 C 937.437 5.41858 -1.87557 0
M  V30 9964 N 936.933 6.49787 -2.4031 0
M  V30 9965 N 938.726 5.32992 -1.7854 0
M  V30 9966 H 930.877 1.45798 -1.54457 0
M  V30 9967 H 933.14 0.694785 -0.644964 0
M  V30 9968 H 932.846 2.94332 -1.92513 0
M  V30 9969 H 932.72 3.75345 -0.373677 0
M  V30 9970 H 935.107 2.94423 0.19984 0
M  V30 9971 H 935.188 2.15327 -1.38087 0
M  V30 9972 H 934.832 4.41714 -2.50701 0
M  V30 9973 H 934.762 5.18809 -0.902479 0
M  V30 9974 H 937.253 3.63263 -1.04155 0
M  V30 9975 H 937.566 7.23199 -2.72403 0
M  V30 9976 H 935.911 6.50637 -2.44329 0
M  V30 9977 H 939.102 4.47575 -1.37093 0
M  V30 9978 H 939.275 6.11716 -2.13794 0
M  V30 9979 N 932.681 0.308908 1.54543 0
M  V30 9980 C 933.929 -0.297447 1.99899 0
M  V30 9981 C 934.25 -1.53799 1.19878 0
M  V30 9982 O 933.52 -1.93639 0.29678 0
M  V30 9983 H 932.1 -0.112897 0.738419 0
M  V30 9984 H 934.762 0.422067 1.90275 0
M  V30 9985 H 933.858 -0.564016 3.06961 0
M  V30 9986 N 934.159 -1.57557 0.0367827 0
M  V30 9987 C 935.407 -1.91735 -0.63892 0
M  V30 9988 C 935.728 -0.914515 -1.72226 0
M  V30 9989 O 934.998 0.0428248 -1.95853 0
M  V30 9990 H 933.578 -0.707738 -0.23899 0
M  V30 9991 H 936.24 -1.94708 0.0863931 0
M  V30 9992 H 935.336 -2.92568 -1.08676 0
M  V30 9993 N 935.637 0.236453 -1.55816 0
M  V30 9994 C 936.585 1.31259 -1.92025 0
M  V30 9995 C 937.579 1.49292 -0.800518 0
M  V30 9996 O 938.785 1.50643 -0.985229 0
M  V30 9997 H 935.16 0.439751 -0.610019 0
M  V30 9998 H 937.131 0.979926 -2.81851 0
M  V30 9999 C 935.88 2.65892 -2.24046 0
M  V30 10000 H 935.203 2.5282 -3.09713 0
M  V30 10001 H 936.643 3.40039 -2.53277 0
M  V30 10002 C 935.102 3.19777 -1.0604 0
M  V30 10003 O 935.632 4.00473 -0.313786 0
M  V30 10004 N 933.838 2.77946 -0.848209 0
M  V30 10005 H 933.385 2.12433 -1.45706 0
M  V30 10006 H 933.343 3.14342 -0.0603424 0
M  V30 10007 N 937.115 1.49373 0.502552 0
M  V30 10008 C 938.362 1.58781 1.25678 0
M  V30 10009 C 938.69 0.273819 1.92563 0
M  V30 10010 O 937.945 -0.738141 1.81246 0
M  V30 10011 C 938.244 2.69508 2.34735 0
M  V30 10012 C 937.91 4.11057 1.85318 0
M  V30 10013 C 936.572 4.49578 1.7156 0
M  V30 10014 C 938.924 4.99653 1.48312 0
M  V30 10015 C 936.252 5.74469 1.19172 0
M  V30 10016 C 938.604 6.2506 0.97377 0
M  V30 10017 C 937.268 6.62412 0.822573 0
M  V30 10018 H 936.538 0.581021 0.459887 0
M  V30 10019 H 939.185 1.83197 0.557767 0
M  V30 10020 H 937.49 2.39057 3.10418 0
M  V30 10021 H 939.187 2.73997 2.92791 0
M  V30 10022 H 935.777 3.80651 1.96985 0
M  V30 10023 H 939.961 4.70549 1.57789 0
M  V30 10024 H 935.217 6.0211 1.06176 0
M  V30 10025 H 939.391 6.93089 0.678233 0
M  V30 10026 H 937.018 7.59069 0.414453 0
M  V30 10027 N 938.594 -0.753485 1.38421 0
M  V30 10028 C 939.526 -1.87692 1.31547 0
M  V30 10029 C 940.539 -1.612 0.227671 0
M  V30 10030 O 941.728 -1.71778 0.485238 0
M  V30 10031 C 938.828 -3.23329 1.01545 0
M  V30 10032 C 938.001 -3.77324 2.21236 0
M  V30 10033 C 937.06 -4.91478 1.87977 0
M  V30 10034 O 936.086 -5.06106 2.60472 0
M  V30 10035 N 937.288 -5.74466 0.834796 0
M  V30 10036 H 940.053 -1.94099 2.28354 0
M  V30 10037 H 937.614 -0.933421 1.32283 0
M  V30 10038 H 939.606 -3.9724 0.773477 0
M  V30 10039 H 938.176 -3.12307 0.135334 0
M  V30 10040 H 937.396 -2.94978 2.61498 0
M  V30 10041 H 938.684 -4.10131 3.01115 0
M  V30 10042 H 938.082 -5.65217 0.233606 0
M  V30 10043 H 936.639 -6.48524 0.652703 0
M  V30 10044 N 940.072 -1.23292 -0.981677 0
M  V30 10045 C 941.483 -1.05936 -1.53735 0
M  V30 10046 C 941.834 0.373695 -1.92608 0
M  V30 10047 O 940.959 1.26024 -1.75917 0
M  V30 10048 C 941.554 -1.91682 -2.79363 0
M  V30 10049 C 940.113 -1.78591 -3.31334 0
M  V30 10050 C 939.26 -1.87463 -2.04335 0
M  V30 10051 H 942.211 -1.36973 -0.801505 0
M  V30 10052 H 942.232 -1.44085 -3.52164 0
M  V30 10053 H 941.744 -2.95975 -2.51039 0
M  V30 10054 H 939.845 -0.770755 -3.64541 0
M  V30 10055 H 939.958 -2.61902 -4.01179 0
M  V30 10056 H 938.322 -1.3103 -2.18411 0
M  V30 10057 H 939.105 -2.9331 -1.78394 0
M  V30 10058 N 941.55 1.18024 -1.04442 0
M  V30 10059 C 942.798 1.87727 -0.74854 0
M  V30 10060 C 943.119 1.80975 0.726156 0
M  V30 10061 O 942.389 1.23061 1.52423 0
M  V30 10062 H 940.969 0.694974 -0.273897 0
M  V30 10063 H 943.631 1.43213 -1.32197 0
M  V30 10064 H 942.727 2.93665 -1.05674 0
M  V30 10065 N 943.028 0.824394 1.34319 0
M  V30 10066 C 943.958 0.262077 2.32025 0
M  V30 10067 C 944.939 -0.622277 1.58309 0
M  V30 10068 O 946.124 -0.548848 1.86283 0
M  V30 10069 C 943.254 -0.57567 3.42496 0
M  V30 10070 C 942.208 0.21167 4.27476 0
M  V30 10071 C 941.534 -0.748913 5.29429 0
M  V30 10072 C 942.834 1.42068 5.02607 0
M  V30 10073 H 944.528 1.07842 2.79304 0
M  V30 10074 H 942.074 0.520022 1.34282 0
M  V30 10075 H 944.027 -0.979251 4.09864 0
M  V30 10076 H 942.751 -1.42508 2.93869 0
M  V30 10077 H 941.41 0.596636 3.61712 0
M  V30 10078 H 941.058 -1.59432 4.77064 0
M  V30 10079 H 940.758 -0.226313 5.87164 0
M  V30 10080 H 942.282 -1.15032 5.99667 0
M  V30 10081 H 943.696 1.09103 5.62823 0
M  V30 10082 H 942.093 1.87903 5.69923 0
M  V30 10083 H 943.163 2.1981 4.32217 0
M  V30 10084 N 944.506 -1.46559 0.579492 0
M  V30 10085 C 945.736 -2.06484 0.0692642 0
M  V30 10086 C 946.144 -1.4293 -1.23967 0
M  V30 10087 O 945.487 -0.527632 -1.75959 0
M  V30 10088 C 945.549 -3.59078 -0.174174 0
M  V30 10089 C 945.213 -4.44805 1.04867 0
M  V30 10090 C 946.21 -4.81543 1.95991 0
M  V30 10091 C 943.895 -4.8599 1.26961 0
M  V30 10092 C 945.889 -5.58288 3.0756 0
M  V30 10093 C 943.576 -5.62495 2.38836 0
M  V30 10094 C 944.574 -5.98558 3.28964 0
M  V30 10095 O 944.262 -6.73518 4.38896 0
M  V30 10096 H 943.994 -0.673917 0.0530331 0
M  V30 10097 H 946.548 -1.89223 0.79898 0
M  V30 10098 H 944.778 -3.74634 -0.958464 0
M  V30 10099 H 946.467 -4.00941 -0.632515 0
M  V30 10100 H 947.233 -4.50307 1.80136 0
M  V30 10101 H 943.112 -4.57372 0.577184 0
M  V30 10102 H 946.656 -5.86355 3.77933 0
M  V30 10103 H 942.553 -5.93145 2.54655 0
M  V30 10104 H 943.321 -6.91938 4.37223 0
M  V30 10105 N 945.984 -0.3171 -1.54377 0
M  V30 10106 C 947.395 0.172287 -1.85903 0
M  V30 10107 C 947.746 1.52141 -1.23885 0
M  V30 10108 O 946.871 2.0949 -0.542476 0
M  V30 10109 C 947.466 0.319392 -3.37291 0
M  V30 10110 C 946.025 0.752998 -3.68791 0
M  V30 10111 C 945.172 -0.129143 -2.76999 0
M  V30 10112 H 948.123 -0.537597 -1.49317 0
M  V30 10113 H 948.144 1.15137 -3.62662 0
M  V30 10114 H 947.656 -0.662671 -3.82401 0
M  V30 10115 H 945.757 1.74504 -3.2921 0
M  V30 10116 H 945.87 0.561228 -4.75801 0
M  V30 10117 H 944.234 0.394242 -2.5163 0
M  V30 10118 H 945.017 -1.10785 -3.24933 0
M  V30 10119 N 947.462 1.57535 -0.0451378 0
M  V30 10120 C 948.687 1.97172 0.64326 0
M  V30 10121 C 949.112 0.922266 1.63939 0
M  V30 10122 O 948.47 -0.115155 1.80934 0
M  V30 10123 C 948.518 3.35889 1.3119 0
M  V30 10124 O 947.622 3.33387 2.42748 0
M  V30 10125 H 946.963 0.642469 0.167719 0
M  V30 10126 H 949.493 2.04295 -0.111747 0
M  V30 10127 H 949.503 3.72481 1.66499 0
M  V30 10128 H 948.178 4.1181 0.581823 0
M  V30 10129 H 946.755 3.08533 2.09432 0
M  V30 10130 N 948.94 -0.228186 1.55939 0
M  V30 10131 C 950.165 -0.974795 1.83064 0
M  V30 10132 C 950.59 -1.77426 0.624624 0
M  V30 10133 O 949.948 -1.76211 -0.426556 0
M  V30 10134 C 949.996 -1.87342 3.08116 0
M  V30 10135 O 949.1 -2.96784 2.86344 0
M  V30 10136 H 948.441 -0.276379 0.603747 0
M  V30 10137 H 950.971 -0.243507 2.03146 0
M  V30 10138 H 950.981 -2.28451 3.38045 0
M  V30 10139 H 949.656 -1.28575 3.95526 0
M  V30 10140 H 948.233 -2.59669 2.67631 0
M  V30 10141 N 950.418 -1.49637 -0.494624 0
M  V30 10142 C 951.667 -1.58691 -1.24499 0
M  V30 10143 C 951.98 -0.281763 -1.9356 0
M  V30 10144 O 953.186 -0.250925 -2.70338 0
M  V30 10145 C 951.642 -2.8002 -2.26091 0
M  V30 10146 C 951.25 -4.17318 -1.6294 0
M  V30 10147 C 952.994 -2.98407 -3.01916 0
M  V30 10148 C 950.901 -5.29862 -2.62679 0
M  V30 10149 H 949.831 -0.590888 -0.468367 0
M  V30 10150 H 952.482 -1.76034 -0.518112 0
M  V30 10151 H 950.864 -2.56185 -3.01969 0
M  V30 10152 H 952.038 -4.51315 -0.930108 0
M  V30 10153 H 950.353 -4.04342 -0.994819 0
M  V30 10154 H 952.95 -3.79658 -3.76516 0
M  V30 10155 H 953.293 -2.09214 -3.5991 0
M  V30 10156 H 953.826 -3.22312 -2.33152 0
M  V30 10157 H 950.565 -6.21134 -2.09458 0
M  V30 10158 H 950.085 -5.00311 -3.3083 0
M  V30 10159 H 951.764 -5.59461 -3.2498 0
M  V30 10160 N 951.896 0.746133 -1.38819 0
M  V30 10161 C 952.844 1.88137 -1.36774 0
M  V30 10162 C 953.838 1.67508 -0.252495 0
M  V30 10163 O 955.044 1.74985 -0.421935 0
M  V30 10164 H 951.419 0.619116 -0.426849 0
M  V30 10165 H 953.39 1.86978 -2.32555 0
M  V30 10166 C 952.139 3.25703 -1.21708 0
M  V30 10167 H 951.462 3.42168 -2.06788 0
M  V30 10168 H 952.902 4.05361 -1.24332 0
M  V30 10169 C 951.361 3.36816 0.0754257 0
M  V30 10170 O 951.891 3.87742 1.04972 0
M  V30 10171 N 950.097 2.90287 0.134761 0
M  V30 10172 H 949.644 2.49034 -0.658779 0
M  V30 10173 H 949.602 2.98103 0.999109 0
M  V30 10174 N 953.375 1.23811 0.975125 0
M  V30 10175 C 954.621 1.07495 1.71967 0
M  V30 10176 C 954.954 -0.386451 1.90316 0
M  V30 10177 O 954.229 -1.28591 1.45927 0
M  V30 10178 C 954.512 1.80694 3.11483 0
M  V30 10179 C 954.365 3.3454 3.00671 0
M  V30 10180 C 955.684 1.57367 4.11003 0
M  V30 10181 H 952.803 0.3919 0.624166 0
M  V30 10182 H 955.445 1.52383 1.13487 0
M  V30 10183 H 953.595 1.42538 3.61407 0
M  V30 10184 H 955.267 3.8225 2.5823 0
M  V30 10185 H 953.51 3.63301 2.37054 0
M  V30 10186 H 954.181 3.80951 3.99475 0
M  V30 10187 H 956.657 1.90545 3.69908 0
M  V30 10188 H 955.533 2.11052 5.06703 0
M  V30 10189 H 955.794 0.510221 4.39146 0
M  V30 10190 N 954.853 -1.17469 1.05066 0
M  V30 10191 C 956.083 -1.91343 0.779202 0
M  V30 10192 C 956.491 -1.76986 -0.668764 0
M  V30 10193 O 955.834 -1.1037 -1.46848 0
M  V30 10194 C 955.896 -3.42938 1.0786 0
M  V30 10195 C 955.56 -3.81076 2.52249 0
M  V30 10196 C 956.557 -3.84027 3.50456 0
M  V30 10197 C 954.242 -4.12076 2.87225 0
M  V30 10198 C 956.236 -4.17445 4.81683 0
M  V30 10199 C 953.923 -4.45163 4.18656 0
M  V30 10200 C 954.921 -4.47825 5.15696 0
M  V30 10201 O 954.609 -4.80133 6.44769 0
M  V30 10202 H 954.341 -0.613974 0.282863 0
M  V30 10203 H 956.895 -1.49907 1.40417 0
M  V30 10204 H 955.125 -3.84662 0.39653 0
M  V30 10205 H 956.814 -3.98071 0.793357 0
M  V30 10206 H 957.58 -3.60203 3.24775 0
M  V30 10207 H 953.459 -4.09176 2.12358 0
M  V30 10208 H 957.003 -4.19437 5.57421 0
M  V30 10209 H 952.9 -4.68449 4.44101 0
M  V30 10210 H 953.668 -4.97995 6.49571 0
M  V30 10211 N 956.331 -0.831506 -1.3388 0
M  V30 10212 C 957.578 -0.423674 -1.98018 0
M  V30 10213 C 957.906 1.01533 -1.65895 0
M  V30 10214 O 957.161 1.72342 -0.927183 0
M  V30 10215 C 957.46 -0.582733 -3.52617 0
M  V30 10216 C 957.126 -1.98874 -4.04673 0
M  V30 10217 C 955.788 -2.37334 -4.186 0
M  V30 10218 C 958.14 -2.90745 -4.3257 0
M  V30 10219 C 955.468 -3.66984 -4.57755 0
M  V30 10220 C 957.82 -4.19868 -4.73174 0
M  V30 10221 C 956.484 -4.58294 -4.85307 0
M  V30 10222 H 955.754 -0.155033 -0.7246 0
M  V30 10223 H 958.401 -1.05711 -1.59679 0
M  V30 10224 H 956.706 0.134052 -3.91571 0
M  V30 10225 H 958.403 -0.247576 -4.00235 0
M  V30 10226 H 954.993 -1.68001 -3.94301 0
M  V30 10227 H 959.177 -2.62272 -4.2134 0
M  V30 10228 H 954.433 -3.9657 -4.65341 0
M  V30 10229 H 958.607 -4.91138 -4.93717 0
M  V30 10230 H 956.234 -5.58805 -5.15404 0
M  V30 10231 N 957.809 1.4625 -0.587256 0
M  V30 10232 C 959.057 2.01963 -0.0744273 0
M  V30 10233 C 959.378 1.46065 1.29189 0
M  V30 10234 O 958.648 0.647077 1.84905 0
M  V30 10235 H 957.228 0.746597 -0.0245236 0
M  V30 10236 H 959.89 1.79299 -0.764063 0
M  V30 10237 H 958.986 3.12099 -0.00884894 0
M  V30 10238 N 959.287 0.325282 1.54207 0
M  V30 10239 C 960.512 -0.281418 2.05482 0
M  V30 10240 C 960.937 -1.44869 1.19977 0
M  V30 10241 O 960.295 -1.80088 0.209275 0
M  V30 10242 C 960.343 -0.692029 3.53897 0
M  V30 10243 O 959.447 -1.7942 3.71325 0
M  V30 10244 H 958.788 -0.0504872 0.662078 0
M  V30 10245 H 961.318 0.474191 1.99029 0
M  V30 10246 H 961.328 -0.974219 3.96198 0
M  V30 10247 H 960.003 0.161709 4.15586 0
M  V30 10248 H 958.58 -1.51069 3.40929 0
M  V30 10249 N 960.765 -1.57509 0.0534917 0
M  V30 10250 C 961.695 -2.14698 -0.917999 0
M  V30 10251 C 962.676 -1.06924 -1.32292 0
M  V30 10252 O 963.861 -1.34875 -1.39723 0
M  V30 10253 C 960.991 -2.69383 -2.19203 0
M  V30 10254 C 959.945 -3.82161 -1.9271 0
M  V30 10255 C 959.271 -4.23373 -3.26587 0
M  V30 10256 C 960.571 -5.07199 -1.24686 0
M  V30 10257 H 962.265 -2.96125 -0.44165 0
M  V30 10258 H 959.811 -1.42446 -0.210993 0
M  V30 10259 H 961.764 -3.08031 -2.87567 0
M  V30 10260 H 960.488 -1.85151 -2.69048 0
M  V30 10261 H 959.147 -3.43989 -1.26757 0
M  V30 10262 H 958.795 -3.36089 -3.74237 0
M  V30 10263 H 958.495 -4.99385 -3.09658 0
M  V30 10264 H 960.019 -4.64623 -3.96178 0
M  V30 10265 H 961.433 -5.43279 -1.83088 0
M  V30 10266 H 959.83 -5.88369 -1.18076 0
M  V30 10267 H 960.9 -4.84386 -0.223227 0
M  V30 10268 N 962.243 0.219913 -1.56058 0
M  V30 10269 C 963.471 0.960915 -1.83232 0
M  V30 10270 C 963.886 1.77878 -0.632828 0
M  V30 10271 O 963.243 1.78093 0.398624 0
M  V30 10272 C 963.294 1.87716 -3.08942 0
M  V30 10273 O 963.015 1.09235 -4.24263 0
M  V30 10274 C 964.516 2.73192 -3.49115 0
M  V30 10275 H 961.736 0.281546 -0.609075 0
M  V30 10276 H 964.28 0.234648 -2.03149 0
M  V30 10277 H 962.435 2.55736 -2.90995 0
M  V30 10278 H 962.849 1.71446 -4.95688 0
M  V30 10279 H 964.323 3.33181 -4.40107 0
M  V30 10280 H 964.8 3.45668 -2.70943 0
M  V30 10281 H 965.406 2.10583 -3.69506 0
M  V30 10282 N 963.721 1.49897 0.486681 0
M  V30 10283 C 964.969 1.59789 1.23742 0
M  V30 10284 C 965.29 0.293056 1.92785 0
M  V30 10285 O 964.56 -0.688534 1.83401 0
M  V30 10286 H 963.14 0.588775 0.459731 0
M  V30 10287 H 965.802 1.86597 0.562808 0
M  V30 10288 H 964.898 2.40121 1.9937 0
M  V30 10289 N 965.199 -0.738761 1.39212 0
M  V30 10290 C 966.162 -1.83441 1.37412 0
M  V30 10291 C 967.162 -1.58484 0.271908 0
M  V30 10292 O 968.352 -1.65954 0.529609 0
M  V30 10293 C 965.484 -3.21167 1.143 0
M  V30 10294 H 966.677 -1.86441 2.34904 0
M  V30 10295 H 964.23 -0.942023 1.24722 0
M  V30 10296 H 964.965 -3.23829 0.174756 0
M  V30 10297 H 964.75 -3.40678 1.94116 0
M  V30 10298 H 966.24 -4.01231 1.15773 0
M  V30 10299 N 966.677 -1.24326 -0.968545 0
M  V30 10300 C 967.905 -1.10947 -1.74638 0
M  V30 10301 C 968.32 0.338064 -1.85749 0
M  V30 10302 O 967.677 1.23331 -1.3452 0
M  V30 10303 C 967.728 -1.74254 -3.1673 0
M  V30 10304 O 967.449 -3.13347 -3.06178 0
M  V30 10305 C 968.95 -1.66473 -4.10855 0
M  V30 10306 H 966.17 -0.38767 -0.547679 0
M  V30 10307 H 968.714 -1.64415 -1.21605 0
M  V30 10308 H 966.869 -1.2479 -3.66751 0
M  V30 10309 H 967.283 -3.44255 -3.95713 0
M  V30 10310 H 968.757 -2.15452 -5.08217 0
M  V30 10311 H 969.234 -0.625785 -4.34719 0
M  V30 10312 H 969.84 -2.15359 -3.66743 0
M  V30 10313 N 968.156 1.1691 -1.05688 0
M  V30 10314 C 969.567 1.68915 -0.795273 0
M  V30 10315 C 969.918 1.83968 0.681925 0
M  V30 10316 O 969.043 1.53083 1.52953 0
M  V30 10317 C 969.638 3.06814 -1.43703 0
M  V30 10318 C 968.197 3.55965 -1.22335 0
M  V30 10319 C 967.344 2.32099 -1.51741 0
M  V30 10320 H 970.295 1.01357 -1.22116 0
M  V30 10321 H 970.316 3.70907 -0.849016 0
M  V30 10322 H 969.828 2.95826 -2.51214 0
M  V30 10323 H 967.929 3.72222 -0.16771 0
M  V30 10324 H 968.042 4.38427 -1.9318 0
M  V30 10325 H 966.406 2.36811 -0.937696 0
M  V30 10326 H 967.189 2.23715 -2.60397 0
M  V30 10327 N 969.634 0.838594 1.33437 0
M  V30 10328 C 970.911 0.356112 1.92331 0
M  V30 10329 C 971.291 -1.1585 1.76471 0
M  V30 10330 O 970.639 -1.97281 1.15293 0
M  V30 10331 C 970.849 0.802715 3.39643 0
M  V30 10332 C 972.197 0.810575 4.16791 0
M  V30 10333 O 973.221 0.746304 3.48294 0
M  V30 10334 O 972.08 0.898082 5.3907 0
M  V30 10335 H 969.174 0.100711 0.820845 0
M  V30 10336 H 971.72 0.924428 1.42311 0
M  V30 10337 H 970.492 1.84529 3.45057 0
M  V30 10338 H 970.115 0.210956 3.9704 0
M  V30 10339 N 971.112 -1.45937 0.595003 0
M  V30 10340 C 972.36 -2.01921 0.0851368 0
M  V30 10341 C 972.681 -1.46748 -1.28413 0
M  V30 10342 O 971.951 -0.656873 -1.84559 0
M  V30 10343 H 970.531 -0.746457 0.0284826 0
M  V30 10344 H 973.193 -1.78891 0.773561 0
M  V30 10345 H 972.289 -3.1209 0.0254002 0
M  V30 10346 N 972.59 -0.333456 -1.54032 0
M  V30 10347 C 974.006 0.0188405 -1.59589 0
M  V30 10348 C 974.206 1.49615 -1.34972 0
M  V30 10349 O 973.262 2.2535 -1.13901 0
M  V30 10350 C 974.575 -0.408273 -2.97915 0
M  V30 10351 C 976.123 -0.359763 -3.10926 0
M  V30 10352 C 976.598 -0.76219 -4.51613 0
M  V30 10353 N 978.089 -0.715981 -4.57633 0
M  V30 10354 C 978.824 -0.999436 -5.64623 0
M  V30 10355 N 978.32 -1.35053 -6.79509 0
M  V30 10356 N 980.113 -0.924343 -5.54448 0
M  V30 10357 H 972.264 -1.29587 -1.68289 0
M  V30 10358 H 974.527 -0.527584 -0.787629 0
M  V30 10359 H 974.233 -1.43793 -3.20962 0
M  V30 10360 H 974.107 0.221685 -3.76548 0
M  V30 10361 H 976.494 0.660703 -2.87609 0
M  V30 10362 H 976.575 -1.02479 -2.34375 0
M  V30 10363 H 976.219 -1.78062 -4.75664 0
M  V30 10364 H 976.149 -0.0747478 -5.26547 0
M  V30 10365 H 978.64 -0.456875 -3.75128 0
M  V30 10366 H 978.953 -1.55194 -7.57057 0
M  V30 10367 H 977.298 -1.38889 -6.80981 0
M  V30 10368 H 980.489 -0.649469 -4.63573 0
M  V30 10369 H 980.662 -1.1486 -6.37739 0
M  V30 10370 N 974.068 1.57479 -0.061844 0
M  V30 10371 C 975.015 2.12152 0.908862 0
M  V30 10372 C 975.985 1.03152 1.30188 0
M  V30 10373 O 977.17 1.3076 1.38948 0
M  V30 10374 C 974.31 2.6796 2.17465 0
M  V30 10375 C 973.423 3.91083 1.83517 0
M  V30 10376 C 972.558 4.35169 3.04633 0
M  V30 10377 C 971.597 5.50964 2.66655 0
M  V30 10378 N 970.734 5.90055 3.80499 0
M  V30 10379 H 975.574 2.94797 0.435743 0
M  V30 10380 H 973.111 1.45686 0.203445 0
M  V30 10381 H 975.069 2.98421 2.91548 0
M  V30 10382 H 973.699 1.88096 2.62335 0
M  V30 10383 H 972.751 3.67146 0.995381 0
M  V30 10384 H 974.063 4.75214 1.51569 0
M  V30 10385 H 973.217 4.67239 3.87005 0
M  V30 10386 H 971.956 3.49871 3.39767 0
M  V30 10387 H 970.961 5.18556 1.82703 0
M  V30 10388 H 972.186 6.37986 2.32702 0
M  V30 10389 H 970.132 5.07708 4.15414 0
M  V30 10390 H 970.049 6.68903 3.52285 0
M  V30 10391 H 971.317 6.26744 4.63479 0
M  V30 10392 N 975.546 -0.211634 1.56173 0
M  V30 10393 C 976.771 -0.955324 1.84088 0
M  V30 10394 C 977.196 -1.76754 0.643407 0
M  V30 10395 O 976.554 -1.76653 -0.407842 0
M  V30 10396 C 976.602 -1.84063 3.10085 0
M  V30 10397 O 975.706 -2.9373 2.89476 0
M  V30 10398 H 975.047 -0.26996 0.606645 0
M  V30 10399 H 977.577 -0.221947 2.03393 0
M  V30 10400 H 977.587 -2.24852 3.40449 0
M  V30 10401 H 976.262 -1.24373 3.96868 0
M  V30 10402 H 974.839 -2.56816 2.7037 0
M  V30 10403 N 977.024 -1.50153 -0.478725 0
M  V30 10404 C 978.272 -1.60443 -1.22892 0
M  V30 10405 C 978.593 -0.303276 -1.92627 0
M  V30 10406 O 977.863 0.678798 -1.83764 0
M  V30 10407 H 976.443 -0.591205 -0.456602 0
M  V30 10408 H 979.105 -1.86893 -0.552905 0
M  V30 10409 H 978.201 -2.41175 -1.98094 0
M  V30 10410 N 978.502 0.731368 -1.39602 0
M  V30 10411 C 979.434 1.85575 -1.34516 0
M  V30 10412 C 980.447 1.60818 -0.253287 0
M  V30 10413 O 981.636 1.70984 -0.512505 0
M  V30 10414 C 978.736 3.21673 -1.06676 0
M  V30 10415 C 977.909 3.73757 -2.27211 0
M  V30 10416 C 976.968 4.88426 -1.95773 0
M  V30 10417 O 975.994 5.01898 -2.68491 0
M  V30 10418 N 977.196 5.73065 -0.926083 0
M  V30 10419 H 979.961 1.90442 -2.31413 0
M  V30 10420 H 977.522 0.912258 -1.33752 0
M  V30 10421 H 979.514 3.95959 -0.836577 0
M  V30 10422 H 978.084 3.12052 -0.185003 0
M  V30 10423 H 977.304 2.90781 -2.66158 0
M  V30 10424 H 978.592 4.05289 -3.07601 0
M  V30 10425 H 977.99 5.64774 -0.323497 0
M  V30 10426 H 976.547 6.47403 -0.755795 0
M  V30 10427 N 979.98 1.24838 0.961938 0
M  V30 10428 C 981.391 1.08369 1.5203 0
M  V30 10429 C 981.742 -0.343005 1.93178 0
M  V30 10430 O 980.867 -1.2321 1.779 0
M  V30 10431 C 981.462 1.96102 2.76278 0
M  V30 10432 C 980.021 1.8384 3.28451 0
M  V30 10433 C 979.168 1.9069 2.01327 0
M  V30 10434 H 982.119 1.38231 0.779613 0
M  V30 10435 H 982.14 1.4967 3.49827 0
M  V30 10436 H 981.652 2.99931 2.46298 0
M  V30 10437 H 979.753 0.828653 3.63269 0
M  V30 10438 H 979.866 2.68251 3.96961 0
M  V30 10439 H 978.23 1.34488 2.16299 0
M  V30 10440 H 979.013 2.96111 1.73705 0
M  V30 10441 N 981.458 -1.16348 1.06306 0
M  V30 10442 C 982.388 -2.2291 0.695234 0
M  V30 10443 C 983.369 -1.67208 -0.312343 0
M  V30 10444 O 984.554 -1.93293 -0.187442 0
M  V30 10445 C 981.684 -3.47205 0.0810149 0
M  V30 10446 C 980.638 -4.15801 1.01458 0
M  V30 10447 C 979.964 -5.3405 0.263656 0
M  V30 10448 C 981.264 -4.66766 2.34365 0
M  V30 10449 H 982.958 -2.53934 1.58613 0
M  V30 10450 H 980.504 -1.22056 0.76409 0
M  V30 10451 H 982.457 -4.2098 -0.18818 0
M  V30 10452 H 981.181 -3.15482 -0.844897 0
M  V30 10453 H 979.84 -3.43954 1.26852 0
M  V30 10454 H 979.488 -4.9858 -0.665378 0
M  V30 10455 H 979.188 -5.80885 0.88582 0
M  V30 10456 H 980.712 -6.106 0.00200994 0
M  V30 10457 H 982.126 -5.3212 2.13356 0
M  V30 10458 H 980.523 -5.24223 2.9208 0
M  V30 10459 H 981.593 -3.82969 2.97426 0
M  V30 10460 N 982.937 -0.845659 -1.3299 0
M  V30 10461 C 983.9 -0.288905 -2.27372 0
M  V30 10462 C 984.9 0.546263 -1.51237 0
M  V30 10463 O 986.09 0.359072 -1.70459 0
M  V30 10464 C 983.222 0.59224 -3.35716 0
M  V30 10465 H 984.415 -1.12181 -2.78128 0
M  V30 10466 H 981.968 -0.619276 -1.43508 0
M  V30 10467 H 982.703 1.44732 -2.90212 0
M  V30 10468 H 982.488 -0.00543255 -3.921 0
M  V30 10469 H 983.978 0.974848 -4.06062 0
M  V30 10470 N 984.415 1.45619 -0.602734 0
M  V30 10471 C 985.692 1.9558 -0.0282472 0
M  V30 10472 C 986.072 1.54523 1.43826 0
M  V30 10473 O 985.42 0.805456 2.13833 0
M  V30 10474 C 985.63 3.48298 -0.221263 0
M  V30 10475 C 986.978 4.24483 -0.0995249 0
M  V30 10476 O 988.002 3.55879 -0.151132 0
M  V30 10477 O 986.861 5.46497 0.0194454 0
M  V30 10478 H 983.955 0.826104 0.0384897 0
M  V30 10479 H 986.501 1.55808 -0.672456 0
M  V30 10480 H 985.273 3.71134 -1.23997 0
M  V30 10481 H 984.896 3.94948 0.458437 0
M  V30 10482 N 985.893 0.34162 1.53853 0
M  V30 10483 C 987.141 -0.254979 2.00485 0
M  V30 10484 C 987.462 -1.51222 1.23114 0
M  V30 10485 O 986.732 -1.92966 0.337787 0
M  V30 10486 H 985.312 -0.0972084 0.740648 0
M  V30 10487 H 987.974 0.462332 1.89337 0
M  V30 10488 H 987.07 -0.498778 3.08089 0
M  V30 10489 N 987.371 -1.57444 0.0701946 0
M  V30 10490 C 988.617 -1.93716 -0.600178 0
M  V30 10491 C 988.95 -0.950329 -1.69359 0
M  V30 10492 O 988.225 0.0207123 -1.94489 0
M  V30 10493 C 988.508 -3.40266 -1.17861 0
M  V30 10494 C 988.361 -4.49706 -0.0919575 0
M  V30 10495 C 989.68 -3.87599 -2.08459 0
M  V30 10496 H 986.799 -0.704421 -0.216704 0
M  V30 10497 H 989.441 -1.89514 0.135838 0
M  V30 10498 H 987.591 -3.43977 -1.80587 0
M  V30 10499 H 989.263 -4.58116 0.541031 0
M  V30 10500 H 987.506 -4.29937 0.577639 0
M  V30 10501 H 988.177 -5.49381 -0.537048 0
M  V30 10502 H 990.653 -3.85883 -1.5567 0
M  V30 10503 H 989.529 -4.90755 -2.45867 0
M  V30 10504 H 989.79 -3.25448 -2.99226 0
M  V30 10505 N 988.849 0.203349 -1.56283 0
M  V30 10506 C 990.074 0.945548 -1.84592 0
M  V30 10507 C 990.499 1.7641 -0.652772 0
M  V30 10508 O 989.857 1.76867 0.398468 0
M  V30 10509 C 989.905 1.82416 -3.11057 0
M  V30 10510 O 989.009 2.92191 -2.9103 0
M  V30 10511 H 988.35 0.266739 -0.608068 0
M  V30 10512 H 990.88 0.211158 -2.03507 0
M  V30 10513 H 990.89 2.23044 -3.41636 0
M  V30 10514 H 989.565 1.22267 -3.97522 0
M  V30 10515 H 988.142 2.55378 -2.71728 0
M  V30 10516 N 990.327 1.50405 0.470755 0
M  V30 10517 C 991.738 1.54266 1.05162 0
M  V30 10518 C 992.089 0.346359 1.93119 0
M  V30 10519 O 991.214 -0.540699 2.09536 0
M  V30 10520 C 991.809 2.7956 1.91394 0
M  V30 10521 C 990.368 2.86101 2.44588 0
M  V30 10522 C 989.515 2.48557 1.22941 0
M  V30 10523 H 992.466 1.56665 0.253359 0
M  V30 10524 H 992.487 2.61434 2.76464 0
M  V30 10525 H 991.999 3.66611 1.27351 0
M  V30 10526 H 990.1 2.03403 3.12183 0
M  V30 10527 H 990.213 3.88999 2.79672 0
M  V30 10528 H 988.577 2.01003 1.56429 0
M  V30 10529 H 989.36 3.37916 0.605598 0
M  V30 10530 N 991.805 -0.723954 1.39988 0
M  V30 10531 C 993.03 -1.5182 1.41299 0
M  V30 10532 C 993.455 -1.88096 0.0122636 0
M  V30 10533 O 992.813 -1.52687 -0.977559 0
M  V30 10534 C 992.861 -2.77532 2.30235 0
M  V30 10535 O 991.965 -3.73903 1.73984 0
M  V30 10536 H 991.306 -0.458058 0.480707 0
M  V30 10537 H 993.836 -0.892291 1.84118 0
M  V30 10538 H 993.846 -3.2615 2.45132 0
M  V30 10539 H 992.521 -2.50462 3.32026 0
M  V30 10540 H 991.098 -3.32715 1.68389 0
M  V30 10541 N 993.283 -1.25346 -0.955304 0
M  V30 10542 C 994.699 -1.02154 -1.22625 0
M  V30 10543 C 994.899 0.26206 -1.99789 0
M  V30 10544 O 993.955 0.974958 -2.32918 0
M  V30 10545 C 995.268 -2.2443 -2.00129 0
M  V30 10546 C 996.816 -2.29185 -2.13174 0
M  V30 10547 C 997.291 -3.51117 -2.94077 0
M  V30 10548 N 998.782 -3.51509 -3.01655 0
M  V30 10549 C 999.517 -4.42517 -3.64645 0
M  V30 10550 N 999.013 -5.43796 -4.29252 0
M  V30 10551 N 1000.81 -4.302 -3.61779 0
M  V30 10552 H 992.957 -2.07812 -0.439071 0
M  V30 10553 H 995.22 -0.91258 -0.256715 0
M  V30 10554 H 994.926 -3.17717 -1.50827 0
M  V30 10555 H 994.8 -2.27548 -3.00835 0
M  V30 10556 H 997.187 -1.36422 -2.61674 0
M  V30 10557 H 997.268 -2.30087 -1.11775 0
M  V30 10558 H 996.912 -4.44201 -2.46268 0
M  V30 10559 H 996.842 -3.4746 -3.95701 0
M  V30 10560 H 999.333 -2.78245 -2.55711 0
M  V30 10561 H 999.646 -6.09453 -4.75171 0
M  V30 10562 H 997.991 -5.4767 -4.27882 0
M  V30 10563 H 1001.18 -3.50304 -3.10491 0
M  V30 10564 H 1001.36 -5.01323 -4.10584 0
M  V30 10565 N 994.761 1.15782 -1.06922 0
M  V30 10566 C 996.009 1.86097 -0.788192 0
M  V30 10567 C 996.33 1.82475 0.687606 0
M  V30 10568 O 995.6 1.26266 1.49778 0
M  V30 10569 H 994.18 0.689008 -0.288577 0
M  V30 10570 H 996.842 1.40377 -1.35205 0
M  V30 10571 H 995.938 2.91358 -1.1188 0
M  V30 10572 N 996.239 0.8527 1.3254 0
M  V30 10573 C 997.479 0.461385 1.99125 0
M  V30 10574 C 997.843 -0.964507 1.66016 0
M  V30 10575 O 999.044 -1.46027 2.25676 0
M  V30 10576 C 997.315 0.69143 3.50648 0
M  V30 10577 S 998.874 0.397397 4.36997 0
M  V30 10578 H 995.692 0.172933 0.689649 0
M  V30 10579 H 998.294 1.10499 1.61277 0
M  V30 10580 H 996.998 1.72831 3.72233 0
M  V30 10581 H 996.529 0.0341812 3.93385 0
M  V30 10582 H 998.544 -0.777363 4.90073 0
M  V30 10583 N 997.718 -1.45297 0.610449 0
M  V30 10584 C 998.995 -1.95562 0.0386189 0
M  V30 10585 C 999.375 -1.55284 -1.43004 0
M  V30 10586 O 998.723 -0.816785 -2.13403 0
M  V30 10587 C 998.933 -3.48176 0.239731 0
M  V30 10588 C 1000.28 -4.24425 0.122035 0
M  V30 10589 O 1001.3 -3.55794 0.170003 0
M  V30 10590 O 1000.16 -5.46499 0.00953695 0
M  V30 10591 H 997.258 -0.826296 -0.0341081 0
M  V30 10592 H 999.804 -1.55449 0.68071 0
M  V30 10593 H 998.576 -3.70471 1.25963 0
M  V30 10594 H 998.199 -3.95186 -0.437486 0
M  V30 10595 N 999.196 -0.349774 -1.5367 0
M  V30 10596 C 1000.44 0.245189 -2.01312 0
M  V30 10597 C 1000.77 1.49702 -1.23705 0
M  V30 10598 O 1000.05 1.91742 -0.326371 0
M  V30 10599 C 1000.33 0.553071 -3.55827 0
M  V30 10600 C 1000.19 -0.71129 -4.4414 0
M  V30 10601 C 1001.5 1.36015 -4.18555 0
M  V30 10602 H 998.624 0.0876415 -0.73177 0
M  V30 10603 H 1001.27 -0.471543 -1.84056 0
M  V30 10604 H 999.416 1.16367 -3.70663 0
M  V30 10605 H 1001.09 -1.34913 -4.41131 0
M  V30 10606 H 999.331 -1.33491 -4.1275 0
M  V30 10607 H 1000 -0.45104 -5.50154 0
M  V30 10608 H 1002.48 0.843778 -4.07455 0
M  V30 10609 H 1001.35 1.54432 -5.26728 0
M  V30 10610 H 1001.61 2.36408 -3.73582 0
M  V30 10611 N 1000.67 1.57404 -0.0785433 0
M  V30 10612 C 1001.9 1.98492 0.601292 0
M  V30 10613 C 1002.32 0.956832 1.61945 0
M  V30 10614 O 1001.68 -0.0767502 1.81137 0
M  V30 10615 C 1001.73 3.38596 1.24036 0
M  V30 10616 O 1000.83 3.38461 2.35622 0
M  V30 10617 H 1000.17 0.645882 0.154054 0
M  V30 10618 H 1002.7 2.04012 -0.155056 0
M  V30 10619 H 1002.71 3.75929 1.5856 0
M  V30 10620 H 1001.39 4.12952 0.494341 0
M  V30 10621 H 999.967 3.12906 2.02841 0
M  V30 10622 N 1002.15 -0.195058 1.56388 0
M  V30 10623 C 1003.4 -0.913636 1.8027 0
M  V30 10624 C 1003.72 -1.83791 0.651606 0
M  V30 10625 O 1002.99 -1.931 -0.330057 0
M  V30 10626 H 1001.57 -0.34036 0.664954 0
M  V30 10627 H 1004.23 -0.200559 1.93865 0
M  V30 10628 H 1003.33 -1.50473 2.7343 0
M  V30 10629 N 1003.63 -1.50653 -0.462772 0
M  V30 10630 C 1005.04 -1.54821 -1.04342 0
M  V30 10631 C 1005.39 -0.356595 -1.92932 0
M  V30 10632 O 1004.52 0.529579 -2.0982 0
M  V30 10633 C 1005.11 -2.80571 -1.89909 0
M  V30 10634 C 1003.67 -2.87394 -2.43067 0
M  V30 10635 C 1002.82 -2.49206 -1.21621 0
M  V30 10636 H 1005.77 -1.56797 -0.245048 0
M  V30 10637 H 1005.79 -2.62897 -2.75074 0
M  V30 10638 H 1005.3 -3.67281 -1.25405 0
M  V30 10639 H 1003.4 -2.05055 -3.111 0
M  V30 10640 H 1003.52 -3.90477 -2.77605 0
M  V30 10641 H 1001.88 -2.01829 -1.55361 0
M  V30 10642 H 1002.66 -3.38233 -0.587669 0
M  V30 10643 N 1005.11 0.71652 -1.4037 0
M  V30 10644 C 1006.34 1.50563 -1.4191 0
M  V30 10645 C 1006.75 1.88791 -0.0185456 0
M  V30 10646 O 1006.11 1.55378 0.957289 0
M  V30 10647 C 1006.16 2.78155 -2.30894 0
M  V30 10648 O 1005.88 2.41543 -3.65497 0
M  V30 10649 C 1007.38 3.72057 -2.41016 0
M  V30 10650 H 1004.6 0.464679 -0.48406 0
M  V30 10651 H 1007.15 0.883927 -1.8441 0
M  V30 10652 H 1005.3 3.36611 -1.91759 0
M  V30 10653 H 1005.71 3.23636 -4.12747 0
M  V30 10654 H 1007.19 4.58426 -3.07489 0
M  V30 10655 H 1007.67 4.15098 -1.43492 0
M  V30 10656 H 1008.27 3.19512 -2.80699 0
M  V30 10657 N 1006.59 1.25851 0.948643 0
M  V30 10658 C 1007.55 1.0683 2.0278 0
M  V30 10659 C 1008.55 0.0191016 1.60789 0
M  V30 10660 O 1009.74 0.261836 1.72221 0
M  V30 10661 C 1006.87 0.623318 3.35153 0
M  V30 10662 H 1008.06 2.02635 2.21086 0
M  V30 10663 H 1005.62 1.08343 1.12657 0
M  V30 10664 H 1006.35 -0.337053 3.22544 0
M  V30 10665 H 1006.14 1.38082 3.66982 0
M  V30 10666 H 1007.63 0.511854 4.14451 0
M  V30 10667 N 1008.06 -1.15214 1.07534 0
M  V30 10668 C 1009.03 -2.18209 0.701237 0
M  V30 10669 C 1010.03 -1.58693 -0.25946 0
M  V30 10670 O 1011.22 -1.74154 -0.0401744 0
M  V30 10671 C 1008.35 -3.40883 0.0338703 0
M  V30 10672 H 1009.54 -2.5282 1.61314 0
M  V30 10673 H 1007.1 -1.29707 0.872105 0
M  V30 10674 H 1007.83 -3.11843 -0.890187 0
M  V30 10675 H 1007.62 -3.85342 0.72486 0
M  V30 10676 H 1009.11 -4.17056 -0.213152 0
M  V30 10677 N 1009.54 -0.859717 -1.32086 0
M  V30 10678 C 1010.78 -0.471939 -1.98877 0
M  V30 10679 C 1011.15 0.955689 -1.66525 0
M  V30 10680 O 1012.35 1.44829 -2.26447 0
M  V30 10681 C 1010.62 -0.710016 -3.50276 0
M  V30 10682 S 1012.18 -0.420566 -4.3678 0
M  V30 10683 H 1009 -0.176588 -0.688722 0
M  V30 10684 H 1011.6 -1.11352 -1.60689 0
M  V30 10685 H 1010.3 -1.74803 -3.71311 0
M  V30 10686 H 1009.83 -0.0550429 -3.93361 0
M  V30 10687 H 1011.85 0.751362 -4.90478 0
M  V30 10688 N 1011.02 1.44971 -0.618145 0
M  V30 10689 C 1011.97 2.32354 0.106846 0
M  V30 10690 C 1012.96 1.4659 0.848984 0
M  V30 10691 O 1014.17 1.63012 0.763354 0
M  V30 10692 H 1010.54 0.750108 0.0533109 0
M  V30 10693 H 1012.51 2.9127 -0.648426 0
M  V30 10694 C 1011.26 3.30381 1.08368 0
M  V30 10695 H 1010.59 3.96377 0.52205 0
M  V30 10696 H 1012.03 3.94231 1.56069 0
M  V30 10697 C 1010.49 2.58336 2.1625 0
M  V30 10698 O 1011.02 2.37258 3.24148 0
M  V30 10699 N 1009.22 2.18292 1.91825 0
M  V30 10700 H 1008.77 2.35635 1.04086 0
M  V30 10701 H 1008.73 1.70413 2.6421 0
M  V30 10702 N 1012.5 0.357919 1.53482 0
M  V30 10703 C 1013.72 -0.237769 2.06033 0
M  V30 10704 C 1014.15 -1.42292 1.23023 0
M  V30 10705 O 1013.51 -1.79604 0.247427 0
M  V30 10706 C 1013.55 -0.616806 3.55286 0
M  V30 10707 O 1012.66 -1.71503 3.75047 0
M  V30 10708 H 1012 -0.0364322 0.663 0
M  V30 10709 H 1014.53 0.516301 1.97979 0
M  V30 10710 H 1014.54 -0.88996 3.98175 0
M  V30 10711 H 1013.21 0.249825 4.15149 0
M  V30 10712 H 1011.79 -1.43803 3.44057 0
M  V30 10713 N 1013.98 -1.5736 0.0868897 0
M  V30 10714 C 1015.22 -1.94341 -0.579598 0
M  V30 10715 C 1015.56 -0.968238 -1.68341 0
M  V30 10716 O 1014.83 8.29649e-05 -1.945 0
M  V30 10717 C 1015.11 -3.41497 -1.14245 0
M  V30 10718 C 1014.97 -4.49778 -0.044255 0
M  V30 10719 C 1016.29 -3.89788 -2.04336 0
M  V30 10720 H 1013.4 -0.70668 -0.20922 0
M  V30 10721 H 1016.05 -1.89359 0.15593 0
M  V30 10722 H 1014.2 -3.45873 -1.76929 0
M  V30 10723 H 1015.87 -4.57517 0.58959 0
M  V30 10724 H 1014.11 -4.293 0.623207 0
M  V30 10725 H 1014.78 -5.4992 -0.478749 0
M  V30 10726 H 1017.26 -3.87513 -1.51569 0
M  V30 10727 H 1016.13 -4.93335 -2.40648 0
M  V30 10728 H 1016.4 -3.28603 -2.95757 0
M  V30 10729 N 1015.45 0.186762 -1.56489 0
M  V30 10730 C 1016.68 0.925916 -1.85584 0
M  V30 10731 C 1017.1 1.75708 -0.671446 0
M  V30 10732 O 1016.46 1.7728 0.379687 0
M  V30 10733 C 1016.51 1.79107 -3.12975 0
M  V30 10734 O 1015.61 2.89088 -2.94112 0
M  V30 10735 H 1014.96 0.260275 -0.610863 0
M  V30 10736 H 1017.49 0.189561 -2.0372 0
M  V30 10737 H 1017.5 2.19408 -3.43983 0
M  V30 10738 H 1016.17 1.18044 -3.98796 0
M  V30 10739 H 1014.75 2.52482 -2.74422 0
M  V30 10740 N 1016.93 1.50896 0.454776 0
M  V30 10741 C 1017.88 1.70947 1.55067 0
M  V30 10742 C 1018.85 0.550899 1.56698 0
M  V30 10743 O 1020.03 0.783352 1.73978 0
M  V30 10744 C 1017.17 1.82455 2.92924 0
M  V30 10745 C 1016.29 3.09919 3.00956 0
M  V30 10746 C 1015.42 3.12125 4.29827 0
M  V30 10747 C 1014.46 4.33975 4.31662 0
M  V30 10748 N 1013.6 4.33828 5.5203 0
M  V30 10749 H 1018.44 2.645 1.37273 0
M  V30 10750 H 1015.98 1.31101 0.667148 0
M  V30 10751 H 1017.93 1.87108 3.72889 0
M  V30 10752 H 1016.56 0.92327 3.09315 0
M  V30 10753 H 1015.62 3.14659 2.13761 0
M  V30 10754 H 1016.93 3.99869 2.98172 0
M  V30 10755 H 1016.08 3.15598 5.18154 0
M  V30 10756 H 1014.82 2.20033 4.35243 0
M  V30 10757 H 1013.83 4.30697 3.41731 0
M  V30 10758 H 1015.05 5.27312 4.27924 0
M  V30 10759 H 1013 3.44598 5.58201 0
M  V30 10760 H 1012.91 5.17566 5.51055 0
M  V30 10761 H 1014.18 4.4147 6.42437 0
M  V30 10762 N 1018.41 -0.709066 1.40748 0
M  V30 10763 C 1019.34 -1.83583 1.4429 0
M  V30 10764 C 1020.32 -1.67378 0.303067 0
M  V30 10765 O 1021.51 -1.87312 0.512612 0
M  V30 10766 C 1018.64 -3.21599 1.31116 0
M  V30 10767 C 1017.59 -3.52486 2.4277 0
M  V30 10768 C 1016.92 -4.89716 2.14668 0
M  V30 10769 C 1018.22 -3.52824 3.85113 0
M  V30 10770 H 1019.91 -1.80876 2.38588 0
M  V30 10771 H 1017.46 -0.868795 1.14839 0
M  V30 10772 H 1019.41 -4.00123 1.32209 0
M  V30 10773 H 1018.13 -3.24898 0.332965 0
M  V30 10774 H 1016.79 -2.76305 2.40937 0
M  V30 10775 H 1016.44 -4.89625 1.15224 0
M  V30 10776 H 1016.14 -5.11347 2.89478 0
M  V30 10777 H 1017.66 -5.70566 2.17455 0
M  V30 10778 H 1019.08 -4.21377 3.88734 0
M  V30 10779 H 1017.48 -3.85984 4.59496 0
M  V30 10780 H 1018.55 -2.52073 4.14231 0
M  V30 10781 N 1019.89 -1.26353 -0.941956 0
M  V30 10782 C 1021.17 -1.02601 -1.6653 0
M  V30 10783 C 1021.55 0.44381 -2.06382 0
M  V30 10784 O 1020.89 1.42399 -1.78703 0
M  V30 10785 C 1021.1 -1.97401 -2.87809 0
M  V30 10786 C 1022.45 -2.25967 -3.59478 0
M  V30 10787 O 1023.48 -1.95261 -2.97912 0
M  V30 10788 O 1022.34 -2.78244 -4.70364 0
M  V30 10789 H 1019.43 -0.39007 -0.729228 0
M  V30 10790 H 1021.98 -1.37559 -0.993754 0
M  V30 10791 H 1020.75 -2.9659 -2.55245 0
M  V30 10792 H 1020.37 -1.62918 -3.62689 0
M  V30 10793 N 1021.37 1.14642 -1.08144 0
M  V30 10794 C 1022.32 2.17665 -0.678661 0
M  V30 10795 C 1023.3 1.58072 0.300336 0
M  V30 10796 O 1024.49 1.7664 0.112781 0
M  V30 10797 C 1021.62 3.43191 -0.0866362 0
M  V30 10798 C 1020.71 4.0982 -1.09126 0
M  V30 10799 N 1021.1 4.51814 -2.27372 0
M  V30 10800 C 1019.4 4.36272 -0.926411 0
M  V30 10801 C 1020.1 5.03581 -2.91172 0
M  V30 10802 N 1019.07 4.97624 -2.18795 0
M  V30 10803 H 1022.88 2.47872 -1.57914 0
M  V30 10804 H 1020.39 1.31296 -0.955772 0
M  V30 10805 H 1022.39 4.1632 0.219859 0
M  V30 10806 H 1021.05 3.14464 0.80886 0
M  V30 10807 H 1022.06 4.44941 -2.65044 0
M  V30 10808 H 1018.74 4.17414 -0.084492 0
M  V30 10809 H 1020.13 5.45969 -3.91621 0
M  V30 10810 N 1022.85 0.866709 1.31628 0
M  V30 10811 C 1024.09 0.476026 1.96825 0
M  V30 10812 C 1024.42 -0.970994 1.68529 0
M  V30 10813 O 1023.68 -1.69823 0.97255 0
M  V30 10814 C 1023.97 0.676018 3.50948 0
M  V30 10815 C 1023.64 2.09533 3.99258 0
M  V30 10816 C 1022.3 2.48349 4.1216 0
M  V30 10817 C 1024.65 3.02112 4.24709 0
M  V30 10818 C 1021.98 3.78991 4.47864 0
M  V30 10819 C 1024.33 4.32266 4.61875 0
M  V30 10820 C 1023 4.71 4.72985 0
M  V30 10821 H 1022.27 0.17419 0.720235 0
M  V30 10822 H 1024.92 1.09907 1.5682 0
M  V30 10823 H 1023.22 -0.0301867 3.91788 0
M  V30 10824 H 1024.92 0.353604 3.99438 0
M  V30 10825 H 1021.51 1.78396 3.89709 0
M  V30 10826 H 1025.69 2.73351 4.14238 0
M  V30 10827 H 1020.95 4.08769 4.54663 0
M  V30 10828 H 1025.12 5.04055 4.80522 0
M  V30 10829 H 1022.75 5.72273 5.00407 0
M  V30 10830 N 1024.32 -1.44642 0.625825 0
M  V30 10831 C 1025.57 -2.01308 0.125682 0
M  V30 10832 C 1025.89 -1.49773 -1.25807 0
M  V30 10833 O 1027.09 -1.98533 -1.85194 0
M  V30 10834 C 1025.55 -3.59479 0.17395 0
M  V30 10835 C 1025.16 -4.20011 1.55868 0
M  V30 10836 C 1026.9 -4.2364 -0.270005 0
M  V30 10837 C 1024.81 -5.7039 1.56235 0
M  V30 10838 H 1023.74 -0.75276 0.0432194 0
M  V30 10839 H 1026.39 -1.65916 0.783842 0
M  V30 10840 H 1024.77 -3.92145 -0.551212 0
M  V30 10841 H 1025.94 -3.98891 2.307 0
M  V30 10842 H 1024.26 -3.68116 1.94627 0
M  V30 10843 H 1026.86 -5.33931 -0.28672 0
M  V30 10844 H 1027.2 -3.95603 -1.29629 0
M  V30 10845 H 1027.73 -3.95759 0.402487 0
M  V30 10846 H 1024.47 -6.03154 2.56683 0
M  V30 10847 H 1023.99 -5.93648 0.856881 0
M  V30 10848 H 1025.67 -6.33929 1.29396 0
M  V30 10849 N 1025.8 -0.366053 -1.5329 0
M  V30 10850 C 1026.76 0.467904 -2.24373 0
M  V30 10851 C 1027.76 1.00934 -1.25176 0
M  V30 10852 O 1028.95 0.895015 -1.49449 0
M  V30 10853 C 1026.09 1.65405 -2.98084 0
M  V30 10854 H 1027.28 -0.154105 -2.99504 0
M  V30 10855 H 1024.83 -0.117751 -1.55856 0
M  V30 10856 H 1025.57 2.31413 -2.27197 0
M  V30 10857 H 1025.35 1.27277 -3.70868 0
M  V30 10858 H 1026.84 2.24503 -3.52119 0
M  V30 10859 N 1027.28 1.57312 -0.0952337 0
M  V30 10860 C 1028.5 1.99119 0.580206 0
M  V30 10861 C 1028.93 0.973955 1.60922 0
M  V30 10862 O 1028.29 -0.0575338 1.81209 0
M  V30 10863 C 1028.34 3.39893 1.20438 0
M  V30 10864 O 1027.44 3.40941 2.32019 0
M  V30 10865 H 1026.78 0.64748 0.147195 0
M  V30 10866 H 1029.31 2.03836 -0.176686 0
M  V30 10867 H 1029.32 3.7759 1.54564 0
M  V30 10868 H 1028 4.13453 0.450514 0
M  V30 10869 H 1026.57 3.1504 1.9951 0
M  V30 10870 N 1028.76 -0.17846 1.56586 0
M  V30 10871 C 1029.71 -1.24042 1.96765 0
M  V30 10872 C 1030.7 -1.46218 0.855375 0
M  V30 10873 O 1031.91 -1.46882 1.04046 0
M  V30 10874 H 1028.28 -0.416807 0.62592 0
M  V30 10875 H 1030.25 -0.874644 2.85294 0
M  V30 10876 C 1029 -2.57394 2.3376 0
M  V30 10877 H 1028.32 -2.41151 3.18883 0
M  V30 10878 H 1029.76 -3.30405 2.65723 0
M  V30 10879 C 1028.22 -3.15621 1.17835 0
M  V30 10880 O 1028.75 -3.99032 0.462202 0
M  V30 10881 N 1026.96 -2.74606 0.950783 0
M  V30 10882 H 1026.51 -2.06878 1.5349 0
M  V30 10883 H 1026.46 -3.13902 0.176967 0
M  V30 10884 N 1030.24 -1.51135 -0.446768 0
M  V30 10885 C 1031.48 -1.63013 -1.19461 0
M  V30 10886 C 1031.8 -0.344067 -1.91941 0
M  V30 10887 O 1031.07 0.639666 -1.85162 0
M  V30 10888 H 1029.65 -0.600757 -0.443959 0
M  V30 10889 H 1032.32 -1.88024 -0.513137 0
M  V30 10890 H 1031.41 -2.45322 -1.92933 0
M  V30 10891 N 1031.71 0.701592 -1.41122 0
M  V30 10892 C 1032.94 1.49049 -1.43499 0
M  V30 10893 C 1033.36 1.88761 -0.0385684 0
M  V30 10894 O 1032.71 1.56384 0.940755 0
M  V30 10895 C 1032.76 2.7569 -2.33832 0
M  V30 10896 O 1032.49 2.37653 -3.68039 0
M  V30 10897 C 1033.99 3.69479 -2.44949 0
M  V30 10898 H 1031.21 0.459519 -0.488961 0
M  V30 10899 H 1033.75 0.864318 -1.85337 0
M  V30 10900 H 1031.91 3.34559 -1.95318 0
M  V30 10901 H 1032.32 3.19241 -4.16156 0
M  V30 10902 H 1033.79 4.55139 -3.12334 0
M  V30 10903 H 1034.27 4.13553 -1.47887 0
M  V30 10904 H 1034.88 3.16517 -2.84072 0
M  V30 10905 N 1033.19 1.2685 0.935242 0
M  V30 10906 C 1034.12 1.1143 2.05196 0
M  V30 10907 C 1035.1 0.0178362 1.70091 0
M  V30 10908 O 1036.29 0.190951 1.93259 0
M  V30 10909 C 1033.42 0.752779 3.39044 0
M  V30 10910 C 1032.37 1.80164 3.88233 0
M  V30 10911 C 1031.7 1.29428 5.18799 0
M  V30 10912 C 1033 3.20431 4.12457 0
M  V30 10913 H 1034.69 2.04845 2.18355 0
M  V30 10914 H 1032.24 0.986276 1.04922 0
M  V30 10915 H 1034.19 0.631757 4.16637 0
M  V30 10916 H 1032.91 -0.217075 3.25878 0
M  V30 10917 H 1031.57 1.91144 3.12825 0
M  V30 10918 H 1031.22 0.3141 5.02018 0
M  V30 10919 H 1030.92 1.99546 5.5268 0
M  V30 10920 H 1032.45 1.18605 5.9897 0
M  V30 10921 H 1033.86 3.12495 4.80645 0
M  V30 10922 H 1032.26 3.88193 4.57631 0
M  V30 10923 H 1033.33 3.66046 3.18023 0
M  V30 10924 N 1034.67 -1.14067 1.0875 0
M  V30 10925 C 1035.92 -1.85185 0.819317 0
M  V30 10926 C 1036.25 -1.8314 -0.654969 0
M  V30 10927 O 1035.5 -1.25974 -1.49763 0
M  V30 10928 C 1035.8 -3.33273 1.29089 0
M  V30 10929 C 1035.47 -3.55504 2.77359 0
M  V30 10930 C 1034.13 -3.61279 3.17853 0
M  V30 10931 C 1036.48 -3.64041 3.72992 0
M  V30 10932 C 1033.81 -3.73119 4.52768 0
M  V30 10933 C 1036.16 -3.77407 5.07687 0
M  V30 10934 C 1034.82 -3.81433 5.47782 0
M  V30 10935 H 1034.09 -0.67764 0.299809 0
M  V30 10936 H 1036.74 -1.34713 1.36106 0
M  V30 10937 H 1035.05 -3.86049 0.668811 0
M  V30 10938 H 1036.74 -3.86734 1.06009 0
M  V30 10939 H 1033.33 -3.51659 2.45019 0
M  V30 10940 H 1037.52 -3.58866 3.42825 0
M  V30 10941 H 1032.77 -3.74499 4.83281 0
M  V30 10942 H 1036.95 -3.82956 5.81651 0
M  V30 10943 H 1034.57 -3.9036 6.52321 0
M  V30 10944 N 1036.15 -0.873678 -1.31166 0
M  V30 10945 C 1037.1 -0.321349 -2.3037 0
M  V30 10946 C 1038.09 0.565568 -1.5968 0
M  V30 10947 O 1039.3 0.451257 -1.74252 0
M  V30 10948 H 1035.67 -0.0852425 -0.747153 0
M  V30 10949 H 1037.64 -1.17191 -2.74425 0
M  V30 10950 C 1036.39 0.459016 -3.44657 0
M  V30 10951 H 1035.71 -0.214185 -3.99226 0
M  V30 10952 H 1037.15 0.810758 -4.16176 0
M  V30 10953 C 1035.61 1.65173 -2.93632 0
M  V30 10954 O 1036.14 2.75105 -2.92711 0
M  V30 10955 N 1034.35 1.4851 -2.49786 0
M  V30 10956 H 1033.9 0.590785 -2.50734 0
M  V30 10957 H 1033.85 2.28452 -2.16002 0
M  V30 10958 N 1037.63 1.44308 -0.633487 0
M  V30 10959 C 1038.56 2.28943 0.108474 0
M  V30 10960 C 1039.57 1.41415 0.806582 0
M  V30 10961 O 1040.76 1.65544 0.667634 0
M  V30 10962 C 1037.86 3.17845 1.1759 0
M  V30 10963 C 1037.03 4.33802 0.559842 0
M  V30 10964 C 1036.09 5.03722 1.52154 0
M  V30 10965 O 1035.12 5.5966 1.03776 0
M  V30 10966 N 1036.32 5.05392 2.85586 0
M  V30 10967 H 1039.09 2.93262 -0.617879 0
M  V30 10968 H 1036.65 1.54781 -0.474819 0
M  V30 10969 H 1038.64 3.61485 1.81963 0
M  V30 10970 H 1037.21 2.55261 1.80445 0
M  V30 10971 H 1036.43 3.93325 -0.262559 0
M  V30 10972 H 1037.72 5.08637 0.128942 0
M  V30 10973 H 1037.11 4.61282 3.27468 0
M  V30 10974 H 1035.67 5.52813 3.45313 0
M  V30 10975 N 1039.1 0.374177 1.53094 0
M  V30 10976 C 1040.05 -0.468226 2.26001 0
M  V30 10977 C 1041.02 -1.07041 1.27009 0
M  V30 10978 O 1042.21 -1.10129 1.55809 0
M  V30 10979 C 1039.35 -1.59754 3.05896 0
M  V30 10980 C 1038.46 -1.01969 4.19793 0
M  V30 10981 C 1037.59 -2.11882 4.87113 0
M  V30 10982 C 1036.63 -1.51607 5.93028 0
M  V30 10983 N 1035.77 -2.55388 6.54004 0
M  V30 10984 H 1040.61 0.159983 2.9757 0
M  V30 10985 H 1038.15 0.0907196 1.4682 0
M  V30 10986 H 1040.11 -2.26288 3.50499 0
M  V30 10987 H 1038.74 -2.19628 2.36565 0
M  V30 10988 H 1037.79 -0.244386 3.79614 0
M  V30 10989 H 1039.1 -0.539089 4.95878 0
M  V30 10990 H 1038.25 -2.86218 5.34943 0
M  V30 10991 H 1036.99 -2.63297 4.10519 0
M  V30 10992 H 1036 -0.757891 5.44551 0
M  V30 10993 H 1037.22 -1.01006 6.71546 0
M  V30 10994 H 1035.17 -3.06 5.80258 0
M  V30 10995 H 1035.09 -2.12039 7.25655 0
M  V30 10996 H 1036.35 -3.294 7.06481 0
M  V30 10997 N 1040.58 -1.57259 0.103575 0
M  V30 10998 C 1041.83 -1.94657 -0.558126 0
M  V30 10999 C 1042.16 -0.985886 -1.67662 0
M  V30 11000 O 1041.41 -0.0069745 -1.95699 0
M  V30 11001 C 1041.71 -3.38549 -1.14538 0
M  V30 11002 C 1041.38 -4.50651 -0.149818 0
M  V30 11003 C 1040.04 -4.8104 0.12398 0
M  V30 11004 C 1042.39 -5.18503 0.529497 0
M  V30 11005 C 1039.72 -5.76606 1.08364 0
M  V30 11006 C 1042.07 -6.15099 1.47769 0
M  V30 11007 C 1040.74 -6.43889 1.75963 0
M  V30 11008 H 1040.01 -0.712299 -0.204233 0
M  V30 11009 H 1042.65 -1.90641 0.181208 0
M  V30 11010 H 1040.96 -3.39185 -1.96115 0
M  V30 11011 H 1042.65 -3.6479 -1.66521 0
M  V30 11012 H 1039.24 -4.2697 -0.373404 0
M  V30 11013 H 1043.43 -4.95194 0.331121 0
M  V30 11014 H 1038.68 -5.97223 1.30899 0
M  V30 11015 H 1042.86 -6.66767 2.00983 0
M  V30 11016 H 1040.49 -7.17749 2.50481 0
M  V30 11017 N 1042.06 0.170153 -1.56679 0
M  V30 11018 C 1043.01 1.21531 -1.9291 0
M  V30 11019 C 1043.99 1.39742 -0.797553 0
M  V30 11020 O 1045.19 1.41693 -1.06075 0
M  V30 11021 C 1042.32 2.55447 -2.29351 0
M  V30 11022 C 1041.4 2.40925 -3.49022 0
M  V30 11023 N 1041.79 1.96118 -4.66231 0
M  V30 11024 C 1040.09 2.71747 -3.53652 0
M  V30 11025 C 1040.79 1.94086 -5.48366 0
M  V30 11026 N 1039.77 2.36533 -4.89441 0
M  V30 11027 H 1043.57 0.860602 -2.81018 0
M  V30 11028 H 1041.08 0.378415 -1.5793 0
M  V30 11029 H 1043.08 3.30972 -2.53502 0
M  V30 11030 H 1041.74 2.9172 -1.42583 0
M  V30 11031 H 1042.75 1.66438 -4.90427 0
M  V30 11032 H 1039.43 3.1205 -2.77365 0
M  V30 11033 H 1040.82 1.61132 -6.52293 0
M  V30 11034 N 1043.54 1.5137 0.438746 0
M  V30 11035 C 1044.95 1.56462 1.01866 0
M  V30 11036 C 1045.3 0.387244 1.9234 0
M  V30 11037 O 1044.43 -0.496131 2.10636 0
M  V30 11038 C 1045.02 2.83557 1.85421 0
M  V30 11039 C 1043.58 2.91224 2.38464 0
M  V30 11040 C 1042.73 2.51109 1.17641 0
M  V30 11041 H 1045.68 1.57167 0.220072 0
M  V30 11042 H 1045.7 2.6724 2.70857 0
M  V30 11043 H 1045.21 3.69229 1.19546 0
M  V30 11044 H 1043.31 2.09979 3.07798 0
M  V30 11045 H 1043.42 3.94844 2.71358 0
M  V30 11046 H 1041.79 2.04276 1.5213 0
M  V30 11047 H 1042.57 3.39125 0.533785 0
M  V30 11048 N 1045.02 -0.694098 1.41492 0
M  V30 11049 C 1046.24 -1.48789 1.44488 0
M  V30 11050 C 1046.67 -1.88028 0.0521588 0
M  V30 11051 O 1046.02 -1.54727 -0.944952 0
M  V30 11052 C 1046.07 -2.72586 2.3607 0
M  V30 11053 O 1045.18 -3.70128 1.81876 0
M  V30 11054 H 1044.52 -0.447758 0.490315 0
M  V30 11055 H 1047.05 -0.853036 1.85969 0
M  V30 11056 H 1047.06 -3.20877 2.51995 0
M  V30 11057 H 1045.73 -2.43363 3.37264 0
M  V30 11058 H 1044.31 -3.29069 1.75408 0
M  V30 11059 N 1046.49 -1.27344 -0.928501 0
M  V30 11060 C 1047.46 -1.10043 -2.01055 0
M  V30 11061 C 1048.46 -0.0446793 -1.60738 0
M  V30 11062 O 1049.65 -0.289202 -1.71783 0
M  V30 11063 C 1046.78 -0.676559 -3.34119 0
M  V30 11064 H 1047.97 -2.06126 -2.17835 0
M  V30 11065 H 1045.53 -1.10121 -1.10919 0
M  V30 11066 H 1046.26 0.285697 -3.23039 0
M  V30 11067 H 1046.05 -1.43903 -3.64739 0
M  V30 11068 H 1047.54 -0.577725 -4.13584 0
M  V30 11069 N 1047.97 1.13488 -1.09353 0
M  V30 11070 C 1048.9 2.20988 -0.75409 0
M  V30 11071 C 1049.88 1.67977 0.267901 0
M  V30 11072 O 1051.07 1.93722 0.136128 0
M  V30 11073 C 1048.2 3.46869 -0.173042 0
M  V30 11074 C 1047.15 4.12965 -1.12446 0
M  V30 11075 C 1046.48 5.33163 -0.405157 0
M  V30 11076 C 1047.78 4.60388 -2.46658 0
M  V30 11077 H 1049.47 2.49639 -1.6529 0
M  V30 11078 H 1047.02 1.19987 -0.796182 0
M  V30 11079 H 1048.97 4.21331 0.0764988 0
M  V30 11080 H 1047.7 3.17611 0.760956 0
M  V30 11081 H 1046.35 3.40469 -1.35927 0
M  V30 11082 H 1046 5.00169 0.532955 0
M  V30 11083 H 1045.7 5.78332 -1.03952 0
M  V30 11084 H 1047.23 6.1038 -0.163899 0
M  V30 11085 H 1048.64 5.26276 -2.27389 0
M  V30 11086 H 1047.04 5.16294 -3.05876 0
M  V30 11087 H 1048.11 3.74949 -3.07476 0
M  V30 11088 N 1049.45 0.880621 1.30701 0
M  V30 11089 C 1050.4 0.342397 2.28246 0
M  V30 11090 C 1051.37 -0.565023 1.56194 0
M  V30 11091 O 1052.55 -0.494377 1.84284 0
M  V30 11092 C 1049.69 -0.440859 3.42272 0
M  V30 11093 C 1048.81 0.495284 4.29151 0
M  V30 11094 C 1047.94 -0.303141 5.30334 0
M  V30 11095 C 1046.98 0.628751 6.08862 0
M  V30 11096 N 1046.12 -0.13408 7.01972 0
M  V30 11097 H 1050.96 1.17938 2.73669 0
M  V30 11098 H 1048.49 0.59296 1.34619 0
M  V30 11099 H 1050.45 -0.910854 4.07135 0
M  V30 11100 H 1049.08 -1.24245 2.97931 0
M  V30 11101 H 1048.13 1.08376 3.64635 0
M  V30 11102 H 1049.45 1.2094 4.83916 0
M  V30 11103 H 1048.6 -0.835181 6.00924 0
M  V30 11104 H 1047.34 -1.05049 4.76252 0
M  V30 11105 H 1046.34 1.17246 5.37153 0
M  V30 11106 H 1047.57 1.37512 6.65032 0
M  V30 11107 H 1045.52 -0.864046 6.50285 0
M  V30 11108 H 1045.43 0.520486 7.54206 0
M  V30 11109 H 1046.7 -0.647005 7.7681 0
M  V30 11110 N 1050.93 -1.4397 0.641131 0
M  V30 11111 C 1052.18 -2.01548 0.149333 0
M  V30 11112 C 1052.5 -1.50759 -1.23679 0
M  V30 11113 O 1051.77 -0.715257 -1.82376 0
M  V30 11114 H 1050.35 -0.745173 0.0522161 0
M  V30 11115 H 1053.01 -1.7634 0.830082 0
M  V30 11116 H 1052.11 -3.11851 0.124676 0
M  V30 11117 N 1052.41 -0.382291 -1.52893 0
M  V30 11118 C 1053.68 0.259354 -1.93873 0
M  V30 11119 C 1054.06 1.64964 -1.3172 0
M  V30 11120 O 1053.41 2.23345 -0.482611 0
M  V30 11121 C 1053.62 0.292765 -3.4777 0
M  V30 11122 C 1054.97 0.525095 -4.21341 0
M  V30 11123 O 1055.99 0.373272 -3.54239 0
M  V30 11124 O 1054.85 0.822004 -5.40283 0
M  V30 11125 H 1051.95 0.159422 -0.811489 0
M  V30 11126 H 1054.49 -0.436289 -1.63996 0
M  V30 11127 H 1053.27 -0.681341 -3.85323 0
M  V30 11128 H 1052.89 1.03362 -3.8393 0
M  V30 11129 N 1053.89 1.57202 -0.111913 0
M  V30 11130 C 1054.83 2.16186 0.858286 0
M  V30 11131 C 1055.83 1.10917 1.28039 0
M  V30 11132 O 1057.03 1.29233 1.25295 0
M  V30 11133 H 1053.41 0.691777 0.29487 0
M  V30 11134 H 1055.38 2.96499 0.336265 0
M  V30 11135 C 1054.13 2.77024 2.10127 0
M  V30 11136 H 1053.45 3.5772 1.78539 0
M  V30 11137 H 1054.89 3.21841 2.76033 0
M  V30 11138 C 1053.35 1.73752 2.88638 0
M  V30 11139 O 1053.88 1.18659 3.83774 0
M  V30 11140 N 1052.09 1.43855 2.52496 0
M  V30 11141 H 1051.63 1.88846 1.75199 0
M  V30 11142 H 1051.59 0.749985 3.05324 0
M  V30 11143 N 1055.36 -0.161842 1.56767 0
M  V30 11144 C 1056.61 -0.875192 1.82167 0
M  V30 11145 C 1056.93 -1.82367 0.690444 0
M  V30 11146 O 1056.2 -1.93756 -0.289023 0
M  V30 11147 H 1054.78 -0.326178 0.672024 0
M  V30 11148 H 1057.44 -0.159392 1.94247 0
M  V30 11149 H 1056.54 -1.44639 2.76561 0
M  V30 11150 N 1056.84 -1.516 -0.430713 0
M  V30 11151 C 1057.77 -1.76342 -1.53054 0
M  V30 11152 C 1058.75 -0.61349 -1.58652 0
M  V30 11153 O 1059.94 -0.856888 -1.74273 0
M  V30 11154 C 1057.07 -1.8945 -2.91077 0
M  V30 11155 C 1056.02 -3.04928 -3.00339 0
M  V30 11156 C 1055.35 -3.03228 -4.40405 0
M  V30 11157 C 1056.65 -4.44777 -2.73808 0
M  V30 11158 H 1058.34 -2.68435 -1.326 0
M  V30 11159 H 1055.89 -1.29171 -0.636466 0
M  V30 11160 H 1057.84 -2.05343 -3.67984 0
M  V30 11161 H 1056.56 -0.940114 -3.12777 0
M  V30 11162 H 1055.22 -2.88751 -2.25872 0
M  V30 11163 H 1054.87 -2.05553 -4.59083 0
M  V30 11164 H 1054.57 -3.80776 -4.47531 0
M  V30 11165 H 1056.1 -3.21222 -5.19277 0
M  V30 11166 H 1057.51 -4.6127 -3.40445 0
M  V30 11167 H 1055.91 -5.2408 -2.92335 0
M  V30 11168 H 1056.98 -4.54358 -1.69372 0
M  V30 11169 N 1058.32 0.686584 -1.41858 0
M  V30 11170 C 1059.25 1.81107 -1.38836 0
M  V30 11171 C 1060.23 1.60599 -0.254293 0
M  V30 11172 O 1061.41 1.83229 -0.442641 0
M  V30 11173 C 1058.54 3.17928 -1.16787 0
M  V30 11174 C 1057.59 3.5721 -2.33031 0
M  V30 11175 S 1058.42 3.60986 -3.95536 0
M  V30 11176 C 1059.58 5.00519 -3.75808 0
M  V30 11177 H 1059.81 1.83396 -2.33994 0
M  V30 11178 H 1057.34 0.856146 -1.28489 0
M  V30 11179 H 1059.3 3.9691 -1.04752 0
M  V30 11180 H 1057.96 3.1324 -0.232335 0
M  V30 11181 H 1057.15 4.56629 -2.13321 0
M  V30 11182 H 1056.76 2.8556 -2.41519 0
M  V30 11183 H 1059.05 5.88272 -3.36069 0
M  V30 11184 H 1059.99 5.25273 -4.74862 0
M  V30 11185 H 1060.4 4.72481 -3.08904 0
M  V30 11186 N 1059.8 1.27835 0.921735 0
M  V30 11187 C 1060.75 1.1092 2.04449 0
M  V30 11188 C 1061.74 0.0306469 1.69372 0
M  V30 11189 O 1062.95 0.188818 1.79007 0
M  V30 11190 H 1059.32 0.341973 0.669745 0
M  V30 11191 H 1061.29 2.06026 2.1586 0
M  V30 11192 C 1060.04 0.779443 3.38851 0
M  V30 11193 H 1059.36 1.60131 3.66331 0
M  V30 11194 H 1060.8 0.700999 4.18165 0
M  V30 11195 C 1059.26 -0.51647 3.32918 0
M  V30 11196 O 1059.79 -1.54914 3.70627 0
M  V30 11197 N 1058 -0.514276 2.86013 0
M  V30 11198 H 1057.55 0.32651 2.55522 0
M  V30 11199 H 1057.5 -1.38141 2.82426 0
M  V30 11200 N 1061.28 -1.12907 1.09954 0
M  V30 11201 C 1062.21 -2.20585 0.765799 0
M  V30 11202 C 1063.19 -1.68117 -0.258989 0
M  V30 11203 O 1064.37 -1.93792 -0.125853 0
M  V30 11204 C 1061.5 -3.46772 0.191435 0
M  V30 11205 C 1060.46 -4.12363 1.14635 0
M  V30 11206 C 1059.78 -5.3294 0.433426 0
M  V30 11207 C 1061.08 -4.59073 2.49096 0
M  V30 11208 H 1062.78 -2.48759 1.66612 0
M  V30 11209 H 1060.32 -1.19563 0.802534 0
M  V30 11210 H 1062.27 -4.21365 -0.0541535 0
M  V30 11211 H 1061 -3.18011 -0.744101 0
M  V30 11212 H 1059.66 -3.39744 1.37731 0
M  V30 11213 H 1059.31 -5.00444 -0.506422 0
M  V30 11214 H 1059.01 -5.77772 1.07018 0
M  V30 11215 H 1060.53 -6.10284 0.196267 0
M  V30 11216 H 1061.94 -5.25063 2.30177 0
M  V30 11217 H 1060.34 -5.14665 3.0861 0
M  V30 11218 H 1061.41 -3.73313 3.0946 0
M  V30 11219 N 1062.75 -0.88754 -1.30232 0
M  V30 11220 C 1063.98 -0.521562 -2.00735 0
M  V30 11221 C 1064.4 0.883247 -1.66073 0
M  V30 11222 O 1063.76 1.58581 -0.878731 0
M  V30 11223 C 1063.81 -0.706521 -3.53611 0
M  V30 11224 O 1062.91 0.246447 -4.11663 0
M  V30 11225 H 1062.25 -0.205216 -0.631492 0
M  V30 11226 H 1064.78 -1.19579 -1.66018 0
M  V30 11227 H 1064.79 -0.606501 -4.03467 0
M  V30 11228 H 1063.47 -1.73076 -3.78177 0
M  V30 11229 H 1062.05 0.0999062 -3.72766 0
M  V30 11230 N 1064.23 1.43628 -0.648757 0
M  V30 11231 C 1065.46 2.06732 -0.166284 0
M  V30 11232 C 1065.88 1.48281 1.15734 0
M  V30 11233 O 1065.24 0.591018 1.71396 0
M  V30 11234 C 1065.29 3.60502 -0.0838732 0
M  V30 11235 O 1064.39 4.01186 0.955185 0
M  V30 11236 H 1063.73 0.657479 -0.0928285 0
M  V30 11237 H 1066.26 1.84208 -0.890421 0
M  V30 11238 H 1066.27 4.07875 0.100923 0
M  V30 11239 H 1064.95 4.02424 -1.05014 0
M  V30 11240 H 1063.53 3.65412 0.743537 0
M  V30 11241 N 1065.71 0.390394 1.52688 0
M  V30 11242 C 1066.64 -0.43567 2.294 0
M  V30 11243 C 1067.62 -1.06253 1.32832 0
M  V30 11244 O 1068.81 -1.07509 1.61726 0
M  V30 11245 C 1065.94 -1.56259 3.10162 0
M  V30 11246 C 1064.89 -1.06172 4.14622 0
M  V30 11247 C 1064.22 -2.2808 4.83615 0
M  V30 11248 C 1065.52 -0.128902 5.22141 0
M  V30 11249 H 1067.21 0.204384 2.98702 0
M  V30 11250 H 1064.76 0.0997377 1.43654 0
M  V30 11251 H 1066.71 -2.14732 3.62585 0
M  V30 11252 H 1065.43 -2.23025 2.38595 0
M  V30 11253 H 1064.09 -0.499518 3.63181 0
M  V30 11254 H 1063.74 -2.93358 4.08595 0
M  V30 11255 H 1063.44 -1.95227 5.5422 0
M  V30 11256 H 1064.96 -2.87193 5.38844 0
M  V30 11257 H 1066.38 -0.621849 5.69917 0
M  V30 11258 H 1064.78 0.109919 5.99999 0
M  V30 11259 H 1065.85 0.821884 4.77884 0
M  V30 11260 N 1067.19 -1.57141 0.120249 0
M  V30 11261 C 1068.44 -1.94413 -0.53727 0
M  V30 11262 C 1068.75 -1.00594 -1.67751 0
M  V30 11263 O 1069.96 -1.27336 -2.39787 0
M  V30 11264 C 1068.41 -3.45521 -1.00714 0
M  V30 11265 C 1068.02 -4.47878 0.104706 0
M  V30 11266 C 1069.76 -3.9171 -1.63596 0
M  V30 11267 C 1067.67 -5.90165 -0.381932 0
M  V30 11268 H 1066.6 -0.725745 -0.204475 0
M  V30 11269 H 1069.25 -1.82404 0.200302 0
M  V30 11270 H 1067.63 -3.52769 -1.79917 0
M  V30 11271 H 1068.81 -4.523 0.881002 0
M  V30 11272 H 1067.12 -4.11448 0.640264 0
M  V30 11273 H 1069.72 -4.95433 -2.01122 0
M  V30 11274 H 1070.06 -3.31756 -2.51483 0
M  V30 11275 H 1070.6 -3.87268 -0.909319 0
M  V30 11276 H 1067.34 -6.53877 0.460921 0
M  V30 11277 H 1066.86 -5.89161 -1.12468 0
M  V30 11278 H 1068.53 -6.41488 -0.842748 0
M  V30 11279 N 1068.67 0.153526 -1.5685 0
M  V30 11280 C 1070.08 0.505939 -1.51368 0
M  V30 11281 C 1070.28 1.83721 -0.82757 0
M  V30 11282 O 1069.34 2.49385 -0.395364 0
M  V30 11283 C 1070.65 0.522269 -2.9613 0
M  V30 11284 C 1072.2 0.608238 -3.07033 0
M  V30 11285 C 1072.67 0.655292 -4.53288 0
M  V30 11286 N 1074.17 0.717695 -4.57606 0
M  V30 11287 C 1074.9 0.774977 -5.68139 0
M  V30 11288 N 1074.4 0.792003 -6.88258 0
M  V30 11289 N 1076.19 0.81536 -5.56155 0
M  V30 11290 H 1068.34 -0.71919 -1.99853 0
M  V30 11291 H 1070.6 -0.261466 -0.91123 0
M  V30 11292 H 1070.31 -0.387595 -3.49558 0
M  V30 11293 H 1070.18 1.3625 -3.51733 0
M  V30 11294 H 1072.57 1.50852 -2.53629 0
M  V30 11295 H 1072.65 -0.259014 -2.54485 0
M  V30 11296 H 1072.3 -0.240809 -5.07329 0
M  V30 11297 H 1072.23 1.53894 -5.03611 0
M  V30 11298 H 1074.72 0.7121 -3.7113 0
M  V30 11299 H 1075.03 0.837378 -7.6825 0
M  V30 11300 H 1073.37 0.759986 -6.90832 0
M  V30 11301 H 1076.57 0.799183 -4.61227 0
M  V30 11302 H 1076.74 0.856537 -6.42314 0
M  V30 11303 N 1070.14 1.51827 0.422667 0
M  V30 11304 C 1071.37 1.69337 1.19748 0
M  V30 11305 C 1071.79 0.396312 1.83878 0
M  V30 11306 O 1071.15 -0.644976 1.6944 0
M  V30 11307 C 1071.2 2.82082 2.24637 0
M  V30 11308 O 1070.3 2.46708 3.30468 0
M  V30 11309 H 1069.65 0.564154 0.35018 0
M  V30 11310 H 1072.18 1.98465 0.497289 0
M  V30 11311 H 1072.19 3.06599 2.69186 0
M  V30 11312 H 1070.86 3.76195 1.77341 0
M  V30 11313 H 1069.44 2.32815 2.91293 0
M  V30 11314 N 1071.62 -0.679052 1.4222 0
M  V30 11315 C 1072.85 -1.46534 1.45641 0
M  V30 11316 C 1073.26 -1.89088 0.0649574 0
M  V30 11317 O 1072.6 -1.58436 -0.929712 0
M  V30 11318 C 1072.67 -2.74882 2.3169 0
M  V30 11319 C 1072.33 -2.5443 3.79624 0
M  V30 11320 C 1073.33 -2.19307 4.71382 0
M  V30 11321 C 1071.01 -2.69557 4.23845 0
M  V30 11322 C 1073.01 -1.99571 6.05351 0
M  V30 11323 C 1070.69 -2.49437 5.57875 0
M  V30 11324 C 1071.69 -2.14497 6.48444 0
M  V30 11325 O 1071.38 -1.94567 7.79999 0
M  V30 11326 H 1071.11 -0.457542 0.497626 0
M  V30 11327 H 1073.66 -0.842145 1.87342 0
M  V30 11328 H 1071.89 -3.39669 1.8483 0
M  V30 11329 H 1073.58 -3.3675 2.26615 0
M  V30 11330 H 1074.35 -2.0722 4.38503 0
M  V30 11331 H 1070.23 -2.95733 3.53642 0
M  V30 11332 H 1073.77 -1.72222 6.76007 0
M  V30 11333 H 1069.67 -2.61119 5.90328 0
M  V30 11334 H 1070.44 -2.092 7.91314 0
M  V30 11335 N 1073.1 -1.28322 -0.914942 0
M  V30 11336 C 1074.35 -1.15407 -1.66396 0
M  V30 11337 C 1074.68 0.297587 -1.9221 0
M  V30 11338 O 1073.93 1.23299 -1.51973 0
M  V30 11339 C 1074.23 -1.89663 -3.02924 0
M  V30 11340 C 1073.9 -3.39464 -2.96774 0
M  V30 11341 C 1072.56 -3.80321 -2.94804 0
M  V30 11342 C 1074.91 -4.3499 -2.87111 0
M  V30 11343 C 1072.24 -5.15046 -2.8097 0
M  V30 11344 C 1074.59 -5.69788 -2.74818 0
M  V30 11345 C 1073.25 -6.09921 -2.71205 0
M  V30 11346 H 1072.52 -0.422303 -0.608885 0
M  V30 11347 H 1075.17 -1.59082 -1.06607 0
M  V30 11348 H 1073.48 -1.38533 -3.66491 0
M  V30 11349 H 1075.17 -1.77087 -3.59779 0
M  V30 11350 H 1071.76 -3.06979 -2.99101 0
M  V30 11351 H 1075.95 -4.04389 -2.87721 0
M  V30 11352 H 1071.2 -5.45271 -2.76568 0
M  V30 11353 H 1075.38 -6.43469 -2.66309 0
M  V30 11354 H 1073 -7.14267 -2.60243 0
M  V30 11355 N 1074.58 1.12322 -1.10551 0
M  V30 11356 C 1075.86 1.80201 -0.760715 0
M  V30 11357 C 1076.24 1.97228 0.752628 0
M  V30 11358 O 1075.58 1.54958 1.67929 0
M  V30 11359 C 1075.79 3.14491 -1.51316 0
M  V30 11360 C 1077.14 3.89671 -1.68647 0
M  V30 11361 O 1078.17 3.24151 -1.47664 0
M  V30 11362 O 1077.02 5.0722 -2.03445 0
M  V30 11363 H 1074.12 0.780084 -0.274587 0
M  V30 11364 H 1076.66 1.19147 -1.20839 0
M  V30 11365 H 1075.44 2.97396 -2.54306 0
M  V30 11366 H 1075.06 3.83253 -1.05842 0
M  V30 11367 N 1076.06 0.894434 1.2976 0
M  V30 11368 C 1076.99 0.325525 2.26877 0
M  V30 11369 C 1078 -0.525218 1.54095 0
M  V30 11370 O 1079.19 -0.343231 1.75169 0
M  V30 11371 C 1076.29 -0.554952 3.34325 0
M  V30 11372 C 1075.46 0.268868 4.36573 0
M  V30 11373 C 1074.52 -0.543601 5.23385 0
M  V30 11374 O 1073.55 0.0370454 5.69188 0
M  V30 11375 N 1074.75 -1.85079 5.50205 0
M  V30 11376 H 1077.52 1.16021 2.76332 0
M  V30 11377 H 1075.08 0.758382 1.43039 0
M  V30 11378 H 1077.07 -1.10476 3.89329 0
M  V30 11379 H 1075.64 -1.29031 2.84727 0
M  V30 11380 H 1074.86 1.0001 3.81302 0
M  V30 11381 H 1076.15 0.833248 5.01931 0
M  V30 11382 H 1075.54 -2.34533 5.14792 0
M  V30 11383 H 1074.1 -2.34784 6.08046 0
M  V30 11384 N 1077.53 -1.43282 0.656365 0
M  V30 11385 C 1078.48 -2.30776 -0.0333155 0
M  V30 11386 C 1079.45 -1.44928 -0.811493 0
M  V30 11387 O 1080.64 -1.73792 -0.787465 0
M  V30 11388 C 1077.78 -3.30548 -0.991566 0
M  V30 11389 C 1076.89 -4.31493 -0.209159 0
M  V30 11390 C 1076.02 -5.18346 -1.16149 0
M  V30 11391 C 1075.06 -6.10983 -0.369699 0
M  V30 11392 N 1074.2 -6.90449 -1.27378 0
M  V30 11393 H 1079.04 -2.89204 0.718668 0
M  V30 11394 H 1076.58 -1.4247 0.366161 0
M  V30 11395 H 1078.54 -3.86905 -1.56078 0
M  V30 11396 H 1077.17 -2.73762 -1.71039 0
M  V30 11397 H 1076.22 -3.77405 0.476394 0
M  V30 11398 H 1077.53 -4.97142 0.406394 0
M  V30 11399 H 1076.68 -5.79345 -1.80124 0
M  V30 11400 H 1075.42 -4.52831 -1.81095 0
M  V30 11401 H 1074.43 -5.49069 0.283377 0
M  V30 11402 H 1075.65 -6.78541 0.275399 0
M  V30 11403 H 1073.6 -6.27579 -1.90999 0
M  V30 11404 H 1073.52 -7.52631 -0.71287 0
M  V30 11405 H 1074.78 -7.5595 -1.90158 0
M  V30 11406 N 1079.01 -0.398486 -1.52479 0
M  V30 11407 C 1080.26 0.180394 -2.01293 0
M  V30 11408 C 1080.58 1.46548 -1.28641 0
M  V30 11409 O 1079.85 1.91579 -0.409173 0
M  V30 11410 H 1078.43 0.0696528 -0.743746 0
M  V30 11411 H 1081.09 -0.532285 -1.87491 0
M  V30 11412 H 1080.19 0.38409 -3.09728 0
M  V30 11413 N 1080.49 1.57075 -0.12858 0
M  V30 11414 C 1081.74 1.9552 0.527087 0
M  V30 11415 C 1082.07 1.01243 1.66072 0
M  V30 11416 O 1081.32 0.0381076 1.95663 0
M  V30 11417 C 1081.62 3.40329 1.09138 0
M  V30 11418 C 1081.29 4.50832 0.0781039 0
M  V30 11419 C 1079.95 4.80782 -0.200493 0
M  V30 11420 C 1082.3 5.17595 -0.61192 0
M  V30 11421 C 1079.63 5.74809 -1.17524 0
M  V30 11422 C 1081.98 6.12671 -1.57536 0
M  V30 11423 C 1080.64 6.41008 -1.86184 0
M  V30 11424 H 1079.91 0.715458 0.192875 0
M  V30 11425 H 1082.56 1.90328 -0.211515 0
M  V30 11426 H 1080.87 3.42262 1.90694 0
M  V30 11427 H 1082.56 3.67393 1.60696 0
M  V30 11428 H 1079.15 4.2751 0.30543 0
M  V30 11429 H 1083.34 4.94605 -0.40986 0
M  V30 11430 H 1078.59 5.95065 -1.40384 0
M  V30 11431 H 1082.77 6.63486 -2.11565 0
M  V30 11432 H 1080.39 7.13673 -2.61868 0
M  V30 11433 N 1081.97 -0.145205 1.5693 0
M  V30 11434 C 1082.92 -1.18446 1.94819 0
M  V30 11435 C 1083.9 -1.38456 0.819684 0
M  V30 11436 O 1085.1 -1.39988 1.08316 0
M  V30 11437 C 1082.22 -2.51766 2.33385 0
M  V30 11438 C 1081.31 -2.35341 3.5281 0
M  V30 11439 N 1081.7 -1.88676 4.69292 0
M  V30 11440 C 1080 -2.66087 3.5793 0
M  V30 11441 C 1080.7 -1.85337 5.51385 0
M  V30 11442 N 1079.68 -2.28717 4.93142 0
M  V30 11443 H 1083.48 -0.815785 2.82351 0
M  V30 11444 H 1080.99 -0.353242 1.58512 0
M  V30 11445 H 1082.99 -3.26897 2.58735 0
M  V30 11446 H 1081.65 -2.89414 1.47206 0
M  V30 11447 H 1082.66 -1.58614 4.93013 0
M  V30 11448 H 1079.34 -3.07597 2.82294 0
M  V30 11449 H 1080.73 -1.50734 6.54774 0
M  V30 11450 N 1083.45 -1.52049 -0.414609 0
M  V30 11451 C 1084.69 -1.66084 -1.16379 0
M  V30 11452 C 1085.03 -0.386932 -1.90306 0
M  V30 11453 O 1084.3 0.614441 -1.8454 0
M  V30 11454 C 1084.58 -2.87927 -2.16264 0
M  V30 11455 C 1084.44 -4.25353 -1.46269 0
M  V30 11456 C 1085.76 -3.05289 -3.16996 0
M  V30 11457 H 1082.88 -0.604414 -0.421726 0
M  V30 11458 H 1085.52 -1.8459 -0.450177 0
M  V30 11459 H 1083.67 -2.7228 -2.77121 0
M  V30 11460 H 1085.34 -4.52717 -0.885743 0
M  V30 11461 H 1083.58 -4.27006 -0.76472 0
M  V30 11462 H 1084.25 -5.06644 -2.19126 0
M  V30 11463 H 1086.73 -3.19798 -2.66212 0
M  V30 11464 H 1085.61 -3.92065 -3.84156 0
M  V30 11465 H 1085.87 -2.1836 -3.84411 0
M  V30 11466 N 1084.93 0.6715 -1.42579 0
M  V30 11467 C 1085.86 1.79703 -1.42266 0
M  V30 11468 C 1086.87 1.59599 -0.321268 0
M  V30 11469 O 1088.06 1.68657 -0.584564 0
M  V30 11470 C 1085.16 3.16859 -1.20224 0
M  V30 11471 C 1084.33 3.63783 -2.42859 0
M  V30 11472 C 1083.39 4.79683 -2.16312 0
M  V30 11473 O 1082.42 4.90058 -2.89537 0
M  V30 11474 N 1083.62 5.68622 -1.16831 0
M  V30 11475 H 1086.38 1.80455 -2.39282 0
M  V30 11476 H 1083.95 0.854708 -1.375 0
M  V30 11477 H 1085.94 3.92054 -1.00376 0
M  V30 11478 H 1084.51 3.10987 -0.317188 0
M  V30 11479 H 1083.73 2.7923 -2.78252 0
M  V30 11480 H 1085.02 3.91877 -3.24514 0
M  V30 11481 H 1084.41 5.62894 -0.562746 0
M  V30 11482 H 1082.97 6.43615 -1.0297 0
M  V30 11483 N 1086.4 1.28806 0.908124 0
M  V30 11484 C 1087.65 1.16287 1.65781 0
M  V30 11485 C 1087.98 -0.287389 1.92365 0
M  V30 11486 O 1087.23 -1.22491 1.52625 0
M  V30 11487 C 1087.53 1.91267 3.01914 0
M  V30 11488 C 1087.2 3.41033 2.9497 0
M  V30 11489 C 1085.86 3.81879 2.92783 0
M  V30 11490 C 1088.21 4.36507 2.848 0
M  V30 11491 C 1085.54 5.16529 2.78235 0
M  V30 11492 C 1087.89 5.71237 2.71792 0
M  V30 11493 C 1086.56 6.11351 2.67967 0
M  V30 11494 H 1085.83 0.425526 0.606637 0
M  V30 11495 H 1088.47 1.59646 1.05762 0
M  V30 11496 H 1086.78 1.40474 3.65752 0
M  V30 11497 H 1088.48 1.78992 3.58835 0
M  V30 11498 H 1085.07 3.08561 2.97469 0
M  V30 11499 H 1089.25 4.05909 2.85573 0
M  V30 11500 H 1084.51 5.4673 2.73672 0
M  V30 11501 H 1088.68 6.44872 2.62892 0
M  V30 11502 H 1086.31 7.15637 2.56451 0
M  V30 11503 N 1087.88 -1.11734 1.11145 0
M  V30 11504 C 1088.83 -2.19765 0.761982 0
M  V30 11505 C 1089.82 -1.67616 -0.24518 0
M  V30 11506 O 1091.03 -1.79695 -0.104781 0
M  V30 11507 H 1087.4 -0.71644 0.228513 0
M  V30 11508 H 1089.38 -2.4649 1.68183 0
M  V30 11509 C 1088.12 -3.47016 0.218057 0
M  V30 11510 H 1087.45 -3.87494 0.984299 0
M  V30 11511 H 1088.89 -4.23998 0.0116825 0
M  V30 11512 C 1087.35 -3.20088 -1.05096 0
M  V30 11513 O 1087.88 -3.40503 -2.1312 0
M  V30 11514 N 1086.08 -2.73844 -0.972523 0
M  V30 11515 H 1085.63 -2.57431 -0.0933459 0
M  V30 11516 H 1085.59 -2.56204 -1.82228 0
M  V30 11517 N 1089.36 -0.901303 -1.29284 0
M  V30 11518 C 1090.61 -0.528826 -1.95784 0
M  V30 11519 C 1090.94 0.922833 -1.70873 0
M  V30 11520 O 1090.21 1.65448 -1.0226 0
M  V30 11521 C 1090.5 -0.823793 -3.50551 0
M  V30 11522 C 1090.35 -2.32727 -3.84913 0
M  V30 11523 C 1091.67 -0.311382 -4.38997 0
M  V30 11524 H 1088.79 -0.193604 -0.711116 0
M  V30 11525 H 1091.43 -1.12828 -1.52872 0
M  V30 11526 H 1089.58 -0.313612 -3.87232 0
M  V30 11527 H 1091.25 -2.90712 -3.58168 0
M  V30 11528 H 1089.49 -2.78735 -3.32399 0
M  V30 11529 H 1090.17 -2.48423 -4.9294 0
M  V30 11530 H 1092.64 -0.748265 -4.09317 0
M  V30 11531 H 1091.52 -0.546957 -5.46168 0
M  V30 11532 H 1091.78 0.787959 -4.35021 0
M  V30 11533 N 1090.84 1.42931 -0.663954 0
M  V30 11534 C 1092.09 2.00904 -0.179011 0
M  V30 11535 C 1092.4 1.53056 1.21791 0
M  V30 11536 O 1093.61 2.03374 1.79865 0
M  V30 11537 C 1092.06 3.58892 -0.269198 0
M  V30 11538 C 1091.67 4.15731 -1.66949 0
M  V30 11539 C 1093.41 4.24207 0.157589 0
M  V30 11540 C 1091.32 5.66047 -1.71303 0
M  V30 11541 H 1090.25 0.75135 -0.0631623 0
M  V30 11542 H 1092.9 1.6378 -0.827556 0
M  V30 11543 H 1091.28 3.93469 0.447048 0
M  V30 11544 H 1092.46 3.92634 -2.41195 0
M  V30 11545 H 1090.77 3.62826 -2.04318 0
M  V30 11546 H 1093.37 5.34503 0.145057 0
M  V30 11547 H 1093.71 3.98901 1.19095 0
M  V30 11548 H 1094.25 3.94552 -0.507274 0
M  V30 11549 H 1090.98 5.96136 -2.72584 0
M  V30 11550 H 1090.5 5.91167 -1.01398 0
M  V30 11551 H 1092.18 6.30275 -1.46158 0
M  V30 11552 N 1092.32 0.406567 1.52266 0
M  V30 11553 C 1093.59 -0.228477 1.94261 0
M  V30 11554 C 1093.97 -1.62848 1.34328 0
M  V30 11555 O 1093.32 -2.22549 0.518082 0
M  V30 11556 C 1093.53 -0.237401 3.48192 0
M  V30 11557 C 1094.88 -0.457997 4.22123 0
M  V30 11558 O 1095.9 -0.316868 3.54788 0
M  V30 11559 O 1094.76 -0.735946 5.41522 0
M  V30 11560 H 1091.86 -0.146492 0.813922 0
M  V30 11561 H 1094.4 0.462325 1.63281 0
M  V30 11562 H 1093.17 0.742556 3.8419 0
M  V30 11563 H 1092.8 -0.972408 3.85526 0
M  V30 11564 N 1093.79 -1.57004 0.136909 0
M  V30 11565 C 1094.74 -2.16246 -0.806607 0
M  V30 11566 C 1095.71 -1.09246 -1.25118 0
M  V30 11567 O 1096.9 -1.3724 -1.32551 0
M  V30 11568 C 1094.04 -2.78031 -2.04433 0
M  V30 11569 C 1093.15 -3.99393 -1.64649 0
M  V30 11570 C 1092.28 -4.49208 -2.83524 0
M  V30 11571 C 1091.32 -5.63059 -2.40064 0
M  V30 11572 N 1090.46 -6.07537 -3.51913 0
M  V30 11573 H 1095.3 -2.9654 -0.294596 0
M  V30 11574 H 1092.84 -1.46491 -0.133705 0
M  V30 11575 H 1094.8 -3.11992 -2.76978 0
M  V30 11576 H 1093.43 -2.00398 -2.53062 0
M  V30 11577 H 1092.48 -3.71477 -0.819077 0
M  V30 11578 H 1093.79 -4.81904 -1.28723 0
M  V30 11579 H 1092.94 -4.85171 -3.64271 0
M  V30 11580 H 1091.68 -3.65683 -3.22688 0
M  V30 11581 H 1090.69 -5.26682 -1.57754 0
M  V30 11582 H 1091.91 -6.48362 -2.01997 0
M  V30 11583 H 1089.86 -5.2695 -3.90717 0
M  V30 11584 H 1089.78 -6.84949 -3.1997 0
M  V30 11585 H 1091.04 -6.48143 -4.33048 0
M  V30 11586 N 1095.27 0.136881 -1.57004 0
M  V30 11587 C 1096.22 1.16869 -1.99023 0
M  V30 11588 C 1097.19 1.42137 -0.859435 0
M  V30 11589 O 1098.37 1.54303 -1.12229 0
M  V30 11590 C 1095.51 2.49466 -2.38455 0
M  V30 11591 C 1094.63 2.31286 -3.64871 0
M  V30 11592 C 1093.76 3.56989 -3.9336 0
M  V30 11593 C 1092.8 3.33889 -5.13015 0
M  V30 11594 N 1091.94 4.51748 -5.37464 0
M  V30 11595 H 1096.78 0.803366 -2.86967 0
M  V30 11596 H 1094.32 0.385216 -1.41967 0
M  V30 11597 H 1096.27 3.26794 -2.59348 0
M  V30 11598 H 1094.9 2.83926 -1.53577 0
M  V30 11599 H 1093.96 1.44962 -3.51696 0
M  V30 11600 H 1095.27 2.10183 -4.52355 0
M  V30 11601 H 1094.42 4.42742 -4.14806 0
M  V30 11602 H 1093.16 3.81106 -3.04318 0
M  V30 11603 H 1092.17 2.46525 -4.91432 0
M  V30 11604 H 1093.39 3.1116 -6.03619 0
M  V30 11605 H 1091.34 4.76019 -4.51377 0
M  V30 11606 H 1091.25 4.33684 -6.19237 0
M  V30 11607 H 1092.52 5.38686 -5.63416 0
M  V30 11608 N 1096.75 1.52266 0.40654 0
M  V30 11609 C 1098 1.6568 1.15035 0
M  V30 11610 C 1098.31 0.394135 1.91588 0
M  V30 11611 O 1099.52 0.408113 2.68415 0
M  V30 11612 C 1097.97 2.92725 2.0938 0
M  V30 11613 C 1097.58 4.26108 1.38332 0
M  V30 11614 C 1099.33 3.15502 2.84004 0
M  V30 11615 C 1097.23 5.44275 2.3134 0
M  V30 11616 H 1096.16 0.61719 0.43312 0
M  V30 11617 H 1098.81 1.78755 0.414598 0
M  V30 11618 H 1097.2 2.73355 2.86519 0
M  V30 11619 H 1098.37 4.55971 0.665396 0
M  V30 11620 H 1096.69 4.09454 0.757384 0
M  V30 11621 H 1099.28 4.00964 3.5374 0
M  V30 11622 H 1099.63 2.29842 3.471 0
M  V30 11623 H 1100.16 3.35357 2.13964 0
M  V30 11624 H 1096.9 6.3229 1.72887 0
M  V30 11625 H 1096.42 5.18749 3.01098 0
M  V30 11626 H 1098.1 5.77457 2.91809 0
M  V30 11627 N 1098.23 -0.663929 1.42933 0
M  V30 11628 C 1099.16 -1.78899 1.50058 0
M  V30 11629 C 1100.14 -1.66329 0.356164 0
M  V30 11630 O 1101.32 -1.85587 0.571944 0
M  V30 11631 C 1098.45 -3.17265 1.41281 0
M  V30 11632 C 1097.41 -3.44584 2.53861 0
M  V30 11633 C 1096.73 -4.82638 2.3014 0
M  V30 11634 C 1098.03 -3.40394 3.96143 0
M  V30 11635 H 1099.73 -1.73194 2.44222 0
M  V30 11636 H 1097.27 -0.83182 1.17545 0
M  V30 11637 H 1099.23 -3.95715 1.44872 0
M  V30 11638 H 1097.95 -3.23675 0.43616 0
M  V30 11639 H 1096.61 -2.685 2.49606 0
M  V30 11640 H 1096.26 -4.85711 1.30743 0
M  V30 11641 H 1095.96 -5.01879 3.056 0
M  V30 11642 H 1097.48 -5.63359 2.35497 0
M  V30 11643 H 1098.9 -4.08796 4.01943 0
M  V30 11644 H 1097.29 -3.7117 4.71543 0
M  V30 11645 H 1098.36 -2.38767 4.22041 0
M  V30 11646 N 1099.71 -1.29285 -0.901281 0
M  V30 11647 C 1100.64 -1.16832 -2.0217 0
M  V30 11648 C 1101.62 -0.0629265 -1.69984 0
M  V30 11649 O 1102.8 -0.242123 -1.92685 0
M  V30 11650 C 1099.93 -0.842406 -3.36929 0
M  V30 11651 C 1098.89 -1.90394 -3.8332 0
M  V30 11652 C 1098.21 -1.43138 -5.15185 0
M  V30 11653 C 1099.51 -3.31254 -4.03817 0
M  V30 11654 H 1101.21 -2.10562 -2.12847 0
M  V30 11655 H 1098.75 -1.01375 -1.0227 0
M  V30 11656 H 1100.71 -0.741999 -4.14816 0
M  V30 11657 H 1099.43 0.130598 -3.26339 0
M  V30 11658 H 1098.09 -1.99371 -3.07647 0
M  V30 11659 H 1097.74 -0.447091 -5.01009 0
M  V30 11660 H 1097.44 -2.14129 -5.47195 0
M  V30 11661 H 1098.96 -1.34444 -5.95615 0
M  V30 11662 H 1100.37 -3.25129 -4.72191 0
M  V30 11663 H 1098.77 -4.00189 -4.47178 0
M  V30 11664 H 1099.84 -3.74349 -3.08206 0
M  V30 11665 N 1101.18 1.11143 -1.11736 0
M  V30 11666 C 1102.15 2.15456 -0.78174 0
M  V30 11667 C 1103.15 1.59547 0.200383 0
M  V30 11668 O 1104.34 1.74183 -0.0244893 0
M  V30 11669 C 1101.47 3.40523 -0.160364 0
M  V30 11670 H 1102.66 2.46658 -1.70586 0
M  V30 11671 H 1100.22 1.26381 -0.919644 0
M  V30 11672 H 1100.95 3.14932 0.773835 0
M  V30 11673 H 1100.74 3.82386 -0.867378 0
M  V30 11674 H 1102.23 4.17559 0.0582175 0
M  V30 11675 N 1102.66 0.908147 1.28804 0
M  V30 11676 C 1103.63 0.397058 2.25735 0
M  V30 11677 C 1104.63 -0.473483 1.53671 0
M  V30 11678 O 1105.82 -0.277335 1.71978 0
M  V30 11679 C 1102.95 -0.431392 3.38159 0
M  V30 11680 H 1104.14 1.25323 2.72459 0
M  V30 11681 H 1101.69 0.687041 1.4039 0
M  V30 11682 H 1102.43 -1.3072 2.96787 0
M  V30 11683 H 1102.21 0.192502 3.91627 0
M  V30 11684 H 1103.7 -0.78 4.10251 0
M  V30 11685 N 1104.14 -1.42577 0.671525 0
M  V30 11686 C 1105.07 -2.2915 -0.0477361 0
M  V30 11687 C 1106.09 -1.43503 -0.768805 0
M  V30 11688 O 1107.27 -1.67256 -0.623509 0
M  V30 11689 C 1104.37 -3.20851 -1.09122 0
M  V30 11690 C 1103.55 -4.35134 -0.44463 0
M  V30 11691 C 1102.61 -5.07579 -1.38745 0
M  V30 11692 O 1101.63 -5.62215 -0.889015 0
M  V30 11693 N 1102.83 -5.12786 -2.72086 0
M  V30 11694 H 1105.6 -2.9152 0.695415 0
M  V30 11695 H 1103.16 -1.53467 0.515689 0
M  V30 11696 H 1105.15 -3.66183 -1.72315 0
M  V30 11697 H 1103.72 -2.59956 -1.73614 0
M  V30 11698 H 1102.94 -3.9249 0.36675 0
M  V30 11699 H 1104.23 -5.088 0.00595927 0
M  V30 11700 H 1103.63 -4.69802 -3.15123 0
M  V30 11701 H 1102.19 -5.61774 -3.30535 0
M  V30 11702 N 1105.62 -0.414636 -1.52048 0
M  V30 11703 C 1106.57 0.408141 -2.27163 0
M  V30 11704 C 1107.54 1.03636 -1.29803 0
M  V30 11705 O 1108.72 1.05959 -1.58674 0
M  V30 11706 C 1105.86 1.51588 -3.10024 0
M  V30 11707 C 1104.97 0.908034 -4.22349 0
M  V30 11708 C 1104.11 1.98893 -4.9256 0
M  V30 11709 C 1103.15 1.35831 -5.96839 0
M  V30 11710 N 1102.28 2.37958 -6.60545 0
M  V30 11711 H 1107.12 -0.238822 -2.97041 0
M  V30 11712 H 1104.66 -0.129614 -1.46528 0
M  V30 11713 H 1106.62 2.16916 -3.56375 0
M  V30 11714 H 1105.25 2.13279 -2.42305 0
M  V30 11715 H 1104.3 0.143652 -3.80129 0
M  V30 11716 H 1105.61 0.407426 -4.97133 0
M  V30 11717 H 1104.77 2.71935 -5.42343 0
M  V30 11718 H 1103.51 2.5232 -4.17356 0
M  V30 11719 H 1102.51 0.613246 -5.46369 0
M  V30 11720 H 1103.74 0.831655 -6.73988 0
M  V30 11721 H 1101.68 2.90508 -5.88167 0
M  V30 11722 H 1101.6 1.92725 -7.31022 0
M  V30 11723 H 1102.87 3.10553 -7.14966 0
M  V30 11724 N 1107.1 1.56929 -0.145233 0
M  V30 11725 C 1108.04 2.17958 0.812237 0
M  V30 11726 C 1109.04 1.13608 1.25657 0
M  V30 11727 O 1110.24 1.31861 1.22526 0
M  V30 11728 H 1106.62 0.697876 0.28013 0
M  V30 11729 H 1108.59 2.97146 0.273297 0
M  V30 11730 C 1107.34 2.81418 2.04203 0
M  V30 11731 H 1106.66 3.61427 1.70911 0
M  V30 11732 H 1108.1 3.27624 2.69144 0
M  V30 11733 C 1106.56 1.79835 2.84888 0
M  V30 11734 O 1107.09 1.26773 3.81171 0
M  V30 11735 N 1105.3 1.49179 2.49387 0
M  V30 11736 H 1104.84 1.9252 1.71154 0
M  V30 11737 H 1104.8 0.81458 3.03664 0
M  V30 11738 N 1108.58 -0.128553 1.57075 0
M  V30 11739 C 1109.99 -0.686713 1.73612 0
M  V30 11740 C 1110.34 -1.80778 0.762478 0
M  V30 11741 O 1109.46 -2.16297 -0.0667779 0
M  V30 11742 C 1110.06 -1.25246 3.148 0
M  V30 11743 C 1108.62 -1.757 3.32876 0
M  V30 11744 C 1107.76 -0.652844 2.69506 0
M  V30 11745 H 1110.71 0.0972859 1.58402 0
M  V30 11746 H 1110.74 -2.1222 3.15821 0
M  V30 11747 H 1110.25 -0.436308 3.8564 0
M  V30 11748 H 1108.35 -2.59824 2.67063 0
M  V30 11749 H 1108.46 -1.87302 4.4097 0
M  V30 11750 H 1106.83 -1.08408 2.30477 0
M  V30 11751 H 1107.61 0.15217 3.42963 0
M  V30 11752 N 1110.05 -1.5248 -0.398459 0
M  V30 11753 C 1110.96 -1.79492 -1.51062 0
M  V30 11754 C 1111.98 -0.681101 -1.60116 0
M  V30 11755 O 1113.16 -0.967671 -1.7663 0
M  V30 11756 C 1110.22 -1.94958 -2.86692 0
M  V30 11757 C 1109.28 -3.1887 -2.87438 0
M  V30 11758 C 1108.51 -3.33588 -4.16599 0
M  V30 11759 O 1108.74 -2.53327 -5.11059 0
M  V30 11760 O 1107.67 -4.26795 -4.24416 0
M  V30 11761 H 1111.5 -2.73913 -1.31169 0
M  V30 11762 H 1109.08 -1.37455 -0.585372 0
M  V30 11763 H 1110.96 -2.06891 -3.67116 0
M  V30 11764 H 1109.64 -1.03726 -3.06631 0
M  V30 11765 H 1108.55 -3.12386 -2.0583 0
M  V30 11766 H 1109.88 -4.09917 -2.7245 0
M  V30 11767 N 1111.53 0.65634 -1.43283 0
M  V30 11768 C 1112.48 1.76934 -1.48199 0
M  V30 11769 C 1113.45 1.62748 -0.332023 0
M  V30 11770 O 1114.63 1.83036 -0.538735 0
M  V30 11771 C 1111.77 3.15072 -1.40797 0
M  V30 11772 C 1110.89 3.40414 -2.65974 0
M  V30 11773 C 1110.02 4.68383 -2.50582 0
M  V30 11774 C 1109.06 4.8682 -3.71043 0
M  V30 11775 N 1108.2 6.06043 -3.5448 0
M  V30 11776 H 1113.04 1.72067 -2.43304 0
M  V30 11777 H 1110.57 0.839728 -1.20777 0
M  V30 11778 H 1112.53 3.94925 -1.345 0
M  V30 11779 H 1111.16 3.19017 -0.492754 0
M  V30 11780 H 1110.21 2.54681 -2.82563 0
M  V30 11781 H 1111.53 3.49925 -3.55463 0
M  V30 11782 H 1110.68 5.56357 -2.41975 0
M  V30 11783 H 1109.42 4.61187 -1.58612 0
M  V30 11784 H 1108.42 3.97282 -3.80062 0
M  V30 11785 H 1109.65 4.95847 -4.64017 0
M  V30 11786 H 1107.6 5.99985 -2.65242 0
M  V30 11787 H 1107.51 6.16498 -4.37568 0
M  V30 11788 H 1108.78 6.96647 -3.49719 0
M  V30 11789 N 1113.01 1.29761 0.894412 0
M  V30 11790 C 1114.24 1.20765 1.67629 0
M  V30 11791 C 1114.65 -0.233434 1.87754 0
M  V30 11792 O 1113.99 -1.16747 1.4183 0
M  V30 11793 C 1114.05 1.85542 3.07919 0
M  V30 11794 C 1113.72 3.34852 3.11004 0
M  V30 11795 C 1114.71 4.30994 2.90758 0
M  V30 11796 C 1112.4 3.76141 3.32901 0
M  V30 11797 C 1114.39 5.664 2.92352 0
M  V30 11798 C 1112.08 5.11667 3.34126 0
M  V30 11799 C 1113.08 6.06607 3.13874 0
M  V30 11800 O 1112.77 7.39659 3.14897 0
M  V30 11801 H 1112.5 0.419418 0.530155 0
M  V30 11802 H 1115.05 1.71754 1.12648 0
M  V30 11803 H 1113.28 1.29071 3.64524 0
M  V30 11804 H 1114.97 1.70795 3.68217 0
M  V30 11805 H 1115.74 4.00427 2.73648 0
M  V30 11806 H 1111.62 3.02694 3.47703 0
M  V30 11807 H 1115.16 6.40479 2.76464 0
M  V30 11808 H 1111.06 5.41877 3.50769 0
M  V30 11809 H 1111.82 7.4853 3.31127 0
M  V30 11810 N 1114.49 -1.10549 1.12324 0
M  V30 11811 C 1115.42 -2.16657 0.747826 0
M  V30 11812 C 1116.43 -1.61238 -0.224981 0
M  V30 11813 O 1117.62 -1.78499 -0.00649408 0
M  V30 11814 C 1114.72 -3.38791 0.0859421 0
M  V30 11815 C 1113.89 -4.23655 1.08792 0
M  V30 11816 C 1112.95 -5.24239 0.453871 0
M  V30 11817 O 1111.98 -5.58262 1.11052 0
M  V30 11818 N 1113.18 -5.75246 -0.779215 0
M  V30 11819 H 1115.95 -2.49472 1.66084 0
M  V30 11820 H 1113.51 -1.26157 1.01469 0
M  V30 11821 H 1115.5 -4.03182 -0.350186 0
M  V30 11822 H 1114.07 -3.03961 -0.729807 0
M  V30 11823 H 1113.29 -3.55578 1.70171 0
M  V30 11824 H 1114.58 -4.77187 1.76549 0
M  V30 11825 H 1113.98 -5.49802 -1.3317 0
M  V30 11826 H 1112.53 -6.41428 -1.15818 0
M  V30 11827 N 1115.97 -0.914965 -1.28321 0
M  V30 11828 C 1117.24 -0.46764 -1.89928 0
M  V30 11829 C 1117.62 1.05364 -1.82925 0
M  V30 11830 O 1116.97 1.90223 -1.26599 0
M  V30 11831 C 1117.18 -0.999372 -3.34385 0
M  V30 11832 C 1118.53 -1.0522 -4.11356 0
M  V30 11833 O 1119.55 -0.9481 -3.4335 0
M  V30 11834 O 1118.41 -1.21085 -5.32917 0
M  V30 11835 H 1115.51 -0.148398 -0.813577 0
M  V30 11836 H 1118.05 -1.00583 -1.36679 0
M  V30 11837 H 1116.82 -2.04333 -3.33712 0
M  V30 11838 H 1116.45 -0.442083 -3.95135 0
M  V30 11839 N 1117.44 1.42219 -0.679077 0
M  V30 11840 C 1118.37 2.33493 -0.0174528 0
M  V30 11841 C 1119.35 1.50915 0.78477 0
M  V30 11842 O 1120.54 1.79504 0.741065 0
M  V30 11843 C 1117.67 3.34576 0.931463 0
M  V30 11844 C 1116.62 4.2734 0.237527 0
M  V30 11845 C 1115.95 5.18664 1.29967 0
M  V30 11846 C 1117.25 5.14729 -0.886082 0
M  V30 11847 H 1118.94 2.89068 -0.779748 0
M  V30 11848 H 1116.49 1.38993 -0.376419 0
M  V30 11849 H 1118.44 3.97343 1.40343 0
M  V30 11850 H 1117.17 2.77315 1.72523 0
M  V30 11851 H 1115.83 3.65973 -0.214245 0
M  V30 11852 H 1115.47 4.57727 2.08554 0
M  V30 11853 H 1115.17 5.81558 0.840463 0
M  V30 11854 H 1116.7 5.84308 1.77249 0
M  V30 11855 H 1118.11 5.71158 -0.495141 0
M  V30 11856 H 1116.51 5.86478 -1.27135 0
M  V30 11857 H 1117.58 4.52874 -1.733 0
M  V30 11858 N 1118.92 0.422693 1.51826 0
M  V30 11859 C 1120.17 -0.150066 2.01141 0
M  V30 11860 C 1120.48 -1.45059 1.31214 0
M  V30 11861 O 1121.69 -2.10542 1.71419 0
M  V30 11862 C 1120.15 -0.317985 3.58492 0
M  V30 11863 C 1119.75 0.971244 4.37345 0
M  V30 11864 C 1121.5 -0.845303 4.15999 0
M  V30 11865 C 1119.4 0.769769 5.86369 0
M  V30 11866 H 1118.33 -0.0598567 0.75162 0
M  V30 11867 H 1120.99 0.550217 1.75057 0
M  V30 11868 H 1119.37 -1.08092 3.80962 0
M  V30 11869 H 1120.54 1.74138 4.26629 0
M  V30 11870 H 1118.86 1.42599 3.91222 0
M  V30 11871 H 1121.45 -1.01229 5.2503 0
M  V30 11872 H 1121.8 -1.82375 3.74226 0
M  V30 11873 H 1122.33 -0.141067 3.9755 0
M  V30 11874 H 1119.07 1.72017 6.32527 0
M  V30 11875 H 1118.59 0.0391717 5.99787 0
M  V30 11876 H 1120.27 0.417225 6.45653 0
M  V30 11877 N 1120.4 -1.5685 0.153553 0
M  V30 11878 C 1121.65 -1.96625 -0.49665 0
M  V30 11879 C 1121.98 -1.03877 -1.64083 0
M  V30 11880 O 1121.25 -0.0824112 -1.94325 0
M  V30 11881 C 1121.54 -3.46035 -0.996585 0
M  V30 11882 C 1121.39 -4.49561 0.146551 0
M  V30 11883 C 1122.71 -3.98104 -1.8762 0
M  V30 11884 H 1119.83 -0.714917 -0.179059 0
M  V30 11885 H 1122.47 -1.88527 0.236104 0
M  V30 11886 H 1120.62 -3.53066 -1.621 0
M  V30 11887 H 1122.29 -4.54604 0.783108 0
M  V30 11888 H 1120.53 -4.26271 0.804727 0
M  V30 11889 H 1121.21 -5.51456 -0.245078 0
M  V30 11890 H 1123.68 -3.93593 -1.34997 0
M  V30 11891 H 1122.56 -5.03098 -2.19508 0
M  V30 11892 H 1122.82 -3.40852 -2.81554 0
M  V30 11893 N 1121.88 0.120221 -1.57141 0
M  V30 11894 C 1123.29 0.473718 -1.52408 0
M  V30 11895 C 1123.49 1.81925 -0.866354 0
M  V30 11896 O 1122.55 2.48491 -0.448173 0
M  V30 11897 C 1123.86 0.459338 -2.97171 0
M  V30 11898 C 1125.41 0.542975 -3.08254 0
M  V30 11899 C 1125.89 0.558996 -4.54576 0
M  V30 11900 N 1127.38 0.620469 -4.59026 0
M  V30 11901 C 1128.11 0.654292 -5.69655 0
M  V30 11902 N 1127.61 0.645835 -6.89783 0
M  V30 11903 N 1129.4 0.697208 -5.57759 0
M  V30 11904 H 1121.55 -0.76142 -1.98283 0
M  V30 11905 H 1123.81 -0.280736 -0.905479 0
M  V30 11906 H 1123.52 -0.461654 -3.48657 0
M  V30 11907 H 1123.39 1.28759 -3.54543 0
M  V30 11908 H 1125.78 1.45439 -2.56772 0
M  V30 11909 H 1125.86 -0.312936 -2.53879 0
M  V30 11910 H 1125.51 -0.348367 -5.06704 0
M  V30 11911 H 1125.44 1.43177 -5.06762 0
M  V30 11912 H 1127.93 0.633218 -3.72557 0
M  V30 11913 H 1128.24 0.674233 -7.69853 0
M  V30 11914 H 1126.59 0.613279 -6.92289 0
M  V30 11915 H 1129.78 0.70117 -4.62819 0
M  V30 11916 H 1129.95 0.7201 -6.43986 0
M  V30 11917 N 1123.36 1.52689 0.390367 0
M  V30 11918 C 1124.6 1.67914 1.13722 0
M  V30 11919 C 1124.94 0.417159 1.89667 0
M  V30 11920 O 1124.21 -0.585005 1.85494 0
M  V30 11921 C 1124.49 2.91331 2.11656 0
M  V30 11922 C 1124.35 4.27626 1.39484 0
M  V30 11923 C 1125.67 3.10293 3.12099 0
M  V30 11924 H 1122.78 0.611047 0.412057 0
M  V30 11925 H 1125.43 1.85283 0.420753 0
M  V30 11926 H 1123.58 2.76654 2.72754 0
M  V30 11927 H 1125.25 4.54068 0.813607 0
M  V30 11928 H 1123.49 4.28169 0.69669 0
M  V30 11929 H 1124.16 5.10066 2.11038 0
M  V30 11930 H 1126.64 3.23992 2.6109 0
M  V30 11931 H 1125.51 3.98127 3.7787 0
M  V30 11932 H 1125.78 2.24448 3.80888 0
M  V30 11933 N 1124.83 -0.648732 1.43629 0
M  V30 11934 C 1125.8 -1.74331 1.488 0
M  V30 11935 C 1126.8 -1.56434 0.372147 0
M  V30 11936 O 1127.99 -1.6225 0.634078 0
M  V30 11937 C 1125.12 -3.13248 1.34494 0
M  V30 11938 H 1126.31 -1.71125 2.46285 0
M  V30 11939 H 1123.87 -0.860798 1.30461 0
M  V30 11940 H 1124.6 -3.22062 0.380345 0
M  V30 11941 H 1124.39 -3.27643 2.15389 0
M  V30 11942 H 1125.88 -3.93056 1.41055 0
M  V30 11943 N 1126.31 -1.30234 -0.887518 0
M  V30 11944 C 1127.56 -1.18675 -1.63587 0
M  V30 11945 C 1127.88 0.259342 -1.93268 0
M  V30 11946 O 1127.15 1.17523 -1.56733 0
M  V30 11947 H 1125.73 -0.436224 -0.606397 0
M  V30 11948 H 1128.39 -1.63326 -1.06351 0
M  V30 11949 H 1127.49 -1.74575 -2.58708 0
M  V30 11950 N 1127.79 1.09952 -1.12909 0
M  V30 11951 C 1129.02 1.8552 -0.909163 0
M  V30 11952 C 1129.43 1.81173 0.545253 0
M  V30 11953 O 1128.77 1.20223 1.38896 0
M  V30 11954 C 1128.83 3.34693 -1.31228 0
M  V30 11955 C 1128.5 3.62794 -2.77902 0
M  V30 11956 C 1129.49 3.58973 -3.76078 0
M  V30 11957 C 1127.18 3.91311 -3.1493 0
M  V30 11958 C 1129.17 3.83271 -5.09296 0
M  V30 11959 C 1126.86 4.15265 -4.48328 0
M  V30 11960 C 1127.86 4.11236 -5.4532 0
M  V30 11961 O 1127.55 4.34576 -6.76313 0
M  V30 11962 H 1127.28 0.59303 -0.324486 0
M  V30 11963 H 1129.83 1.39878 -1.5041 0
M  V30 11964 H 1128.06 3.81016 -0.660573 0
M  V30 11965 H 1129.75 3.9166 -1.06569 0
M  V30 11966 H 1130.52 3.36974 -3.48817 0
M  V30 11967 H 1126.4 3.93575 -2.40041 0
M  V30 11968 H 1129.94 3.80041 -5.84991 0
M  V30 11969 H 1125.84 4.36743 -4.75316 0
M  V30 11970 H 1126.61 4.52065 -6.82334 0
M  V30 11971 N 1129.27 0.921757 1.27833 0
M  V30 11972 C 1130.49 0.574599 1.99281 0
M  V30 11973 C 1130.92 -0.838905 1.68357 0
M  V30 11974 O 1130.28 -1.56196 0.920468 0
M  V30 11975 C 1130.32 0.800027 3.51613 0
M  V30 11976 O 1129.43 -0.137215 4.12172 0
M  V30 11977 H 1128.77 0.221887 0.625829 0
M  V30 11978 H 1131.3 1.23939 1.62789 0
M  V30 11979 H 1131.31 0.71326 4.01717 0
M  V30 11980 H 1129.98 1.83042 3.73455 0
M  V30 11981 H 1128.56 -0.00103872 3.729 0
M  V30 11982 N 1130.75 -1.41857 0.686609 0
M  V30 11983 C 1131.71 -2.29187 0.0247022 0
M  V30 11984 C 1132.71 -1.43926 -0.717069 0
M  V30 11985 O 1133.9 -1.65179 -0.5533 0
M  V30 11986 C 1131.03 -3.26644 -0.975537 0
M  V30 11987 H 1132.22 -2.89212 0.793503 0
M  V30 11988 H 1129.78 -1.49694 0.449605 0
M  V30 11989 H 1130.51 -2.7158 -1.77242 0
M  V30 11990 H 1130.3 -3.89545 -0.446892 0
M  V30 11991 H 1131.79 -3.92107 -1.43673 0
M  V30 11992 N 1132.22 -0.430739 -1.51599 0
M  V30 11993 C 1133.16 0.419726 -2.25324 0
M  V30 11994 C 1134.17 0.991925 -1.29092 0
M  V30 11995 O 1135.36 0.887188 -1.54891 0
M  V30 11996 C 1132.46 1.59844 -2.98836 0
M  V30 11997 C 1131.63 1.14629 -4.22112 0
M  V30 11998 C 1130.69 2.19437 -4.78261 0
M  V30 11999 O 1129.72 1.79141 -5.40275 0
M  V30 12000 N 1130.92 3.51849 -4.61717 0
M  V30 12001 H 1133.68 -0.212112 -2.98948 0
M  V30 12002 H 1131.24 -0.259269 -1.59811 0
M  V30 12003 H 1133.24 2.29567 -3.33288 0
M  V30 12004 H 1131.81 2.13575 -2.28264 0
M  V30 12005 H 1131.03 0.276367 -3.9323 0
M  V30 12006 H 1132.31 0.821488 -5.02124 0
M  V30 12007 H 1131.71 3.87324 -4.12306 0
M  V30 12008 H 1130.27 4.17486 -5.00548 0
M  V30 12009 N 1133.7 1.56767 -0.161869 0
M  V30 12010 C 1134.95 1.96594 0.485496 0
M  V30 12011 C 1135.28 1.04743 1.63887 0
M  V30 12012 O 1134.53 0.079602 1.95538 0
M  V30 12013 C 1134.83 3.42567 1.01894 0
M  V30 12014 C 1134.5 4.50897 -0.0175419 0
M  V30 12015 C 1133.16 4.80249 -0.302429 0
M  V30 12016 C 1135.51 5.16181 -0.721572 0
M  V30 12017 C 1132.84 5.72187 -1.2969 0
M  V30 12018 C 1135.19 6.09191 -1.70496 0
M  V30 12019 C 1133.86 6.36915 -1.99739 0
M  V30 12020 H 1133.13 0.719388 0.177656 0
M  V30 12021 H 1135.77 1.89837 -0.251839 0
M  V30 12022 H 1134.08 3.4623 1.83391 0
M  V30 12023 H 1135.77 3.70719 1.52867 0
M  V30 12024 H 1132.36 4.28062 0.21468 0
M  V30 12025 H 1136.55 4.93624 -0.514681 0
M  V30 12026 H 1131.8 5.91953 -1.52974 0
M  V30 12027 H 1135.98 6.58849 -2.25591 0
M  V30 12028 H 1133.61 7.07958 -2.76948 0
M  V30 12029 N 1135.18 -0.111886 1.57202 0
M  V30 12030 C 1136.43 -0.817022 1.84412 0
M  V30 12031 C 1136.74 -1.80708 0.748608 0
M  V30 12032 O 1137.95 -2.55891 0.907319 0
M  V30 12033 C 1136.4 -1.50376 3.26979 0
M  V30 12034 C 1136.01 -0.554334 4.44557 0
M  V30 12035 C 1137.76 -2.19361 3.63429 0
M  V30 12036 C 1135.66 -1.24471 5.78153 0
M  V30 12037 H 1134.59 -0.308864 0.687836 0
M  V30 12038 H 1137.24 -0.0698109 1.83367 0
M  V30 12039 H 1135.63 -2.29785 3.22514 0
M  V30 12040 H 1136.8 0.207045 4.60335 0
M  V30 12041 H 1135.12 0.0289261 4.1639 0
M  V30 12042 H 1137.71 -2.71716 4.60515 0
M  V30 12043 H 1138.06 -2.97488 2.91215 0
M  V30 12044 H 1138.59 -1.46833 3.69709 0
M  V30 12045 H 1135.33 -0.504584 6.53555 0
M  V30 12046 H 1134.85 -1.97792 5.66249 0
M  V30 12047 H 1136.53 -1.77591 6.2215 0
M  V30 12048 N 1136.66 -1.52894 -0.382264 0
M  V30 12049 C 1137.88 -1.72453 -1.15216 0
M  V30 12050 C 1138.31 -0.444925 -1.82762 0
M  V30 12051 O 1137.67 0.599825 -1.7109 0
M  V30 12052 C 1137.71 -2.87939 -2.17079 0
M  V30 12053 O 1136.82 -2.55383 -3.23811 0
M  V30 12054 H 1136.16 -0.57324 -0.335099 0
M  V30 12055 H 1138.69 -1.99713 -0.444495 0
M  V30 12056 H 1138.7 -3.13628 -2.60963 0
M  V30 12057 H 1137.37 -3.80765 -1.67305 0
M  V30 12058 H 1135.95 -2.40457 -2.85018 0
M  V30 12059 N 1138.14 0.641106 -1.43971 0
M  V30 12060 C 1139.07 1.76489 -1.52885 0
M  V30 12061 C 1140.05 1.65742 -0.38258 0
M  V30 12062 O 1141.23 1.84653 -0.601397 0
M  V30 12063 C 1138.36 3.14977 -1.4631 0
M  V30 12064 C 1137.32 3.40502 -2.59311 0
M  V30 12065 C 1136.64 4.78916 -2.37789 0
M  V30 12066 C 1137.94 3.34048 -4.01509 0
M  V30 12067 H 1139.64 1.69286 -2.46946 0
M  V30 12068 H 1137.18 0.813015 -1.18853 0
M  V30 12069 H 1139.14 3.9336 -1.51149 0
M  V30 12070 H 1137.86 3.2294 -0.487599 0
M  V30 12071 H 1136.52 2.64495 -2.53846 0
M  V30 12072 H 1136.17 4.8357 -1.38454 0
M  V30 12073 H 1135.87 4.96954 -3.13545 0
M  V30 12074 H 1137.39 5.59541 -2.4443 0
M  V30 12075 H 1138.81 4.0235 -4.08396 0
M  V30 12076 H 1137.2 3.63622 -4.77388 0
M  V30 12077 H 1138.27 2.32022 -4.25786 0
M  V30 12078 N 1139.62 1.30703 0.880598 0
M  V30 12079 C 1140.89 1.1043 1.61445 0
M  V30 12080 C 1141.27 -0.344837 2.08264 0
M  V30 12081 O 1140.62 -1.33711 1.85293 0
M  V30 12082 C 1140.83 2.10908 2.78063 0
M  V30 12083 C 1142.18 2.42861 3.48287 0
M  V30 12084 O 1143.2 2.09252 2.88257 0
M  V30 12085 O 1142.06 3.00369 4.56553 0
M  V30 12086 H 1139.16 0.424419 0.709787 0
M  V30 12087 H 1141.7 1.42144 0.926991 0
M  V30 12088 H 1140.47 3.08431 2.40803 0
M  V30 12089 H 1140.1 1.80036 3.54503 0
M  V30 12090 N 1141.09 -1.09351 1.1349 0
M  V30 12091 C 1142.04 -2.16008 0.812981 0
M  V30 12092 C 1143.01 -1.64566 -0.225252 0
M  V30 12093 O 1144.2 -1.90552 -0.0973261 0
M  V30 12094 C 1141.34 -3.43913 0.285996 0
M  V30 12095 C 1140.45 -4.09251 1.38338 0
M  V30 12096 C 1139.58 -5.24916 0.814652 0
M  V30 12097 C 1138.62 -5.82178 1.89038 0
M  V30 12098 N 1137.76 -6.89203 1.33955 0
M  V30 12099 H 1142.6 -2.42887 1.72655 0
M  V30 12100 H 1140.14 -1.19209 0.861833 0
M  V30 12101 H 1142.09 -4.17183 -0.0376794 0
M  V30 12102 H 1140.72 -3.17349 -0.590707 0
M  V30 12103 H 1139.78 -3.33838 1.82363 0
M  V30 12104 H 1141.09 -4.4784 2.19638 0
M  V30 12105 H 1140.24 -6.05086 0.442306 0
M  V30 12106 H 1138.98 -4.87691 -0.029416 0
M  V30 12107 H 1137.99 -5.00669 2.27179 0
M  V30 12108 H 1139.21 -6.21464 2.73787 0
M  V30 12109 H 1137.16 -6.53956 0.517494 0
M  V30 12110 H 1137.07 -7.26565 2.08902 0
M  V30 12111 H 1138.34 -7.73126 0.994793 0
M  V30 12112 N 1142.57 -0.928524 -1.27343 0
M  V30 12113 C 1143.8 -0.58516 -1.98974 0
M  V30 12114 C 1144.22 0.829964 -1.68799 0
M  V30 12115 O 1143.58 1.55705 -0.928738 0
M  V30 12116 C 1143.63 -0.818662 -3.51184 0
M  V30 12117 O 1142.73 0.115355 -4.12239 0
M  V30 12118 H 1142.07 -0.225203 -0.624644 0
M  V30 12119 H 1144.6 -1.248 -1.6213 0
M  V30 12120 H 1144.61 -0.734554 -4.01333 0
M  V30 12121 H 1143.29 -1.8502 -3.72479 0
M  V30 12122 H 1141.86 -0.0187371 -3.72895 0
M  V30 12123 N 1144.05 1.41491 -0.694123 0
M  V30 12124 C 1145.3 2.00479 -0.221585 0
M  V30 12125 C 1145.61 1.55605 1.18518 0
M  V30 12126 O 1146.82 2.07143 1.7551 0
M  V30 12127 C 1145.27 3.5824 -0.345264 0
M  V30 12128 C 1144.88 4.12096 -1.7573 0
M  V30 12129 C 1146.63 4.24446 0.0675731 0
M  V30 12130 C 1144.53 5.62286 -1.83271 0
M  V30 12131 H 1143.46 0.749841 -0.0790854 0
M  V30 12132 H 1146.11 1.61987 -0.86211 0
M  V30 12133 H 1144.5 3.94328 0.363487 0
M  V30 12134 H 1145.67 3.8743 -2.49469 0
M  V30 12135 H 1143.98 3.58411 -2.11969 0
M  V30 12136 H 1146.58 5.34691 0.0316485 0
M  V30 12137 H 1146.92 4.01338 1.10606 0
M  V30 12138 H 1147.46 3.93388 -0.59085 0
M  V30 12139 H 1144.2 5.9022 -2.85168 0
M  V30 12140 H 1143.72 5.88883 -1.13914 0
M  V30 12141 H 1145.4 6.27033 -1.59494 0
M  V30 12142 N 1145.53 0.438773 1.51369 0
M  V30 12143 C 1146.46 -0.407771 2.25543 0
M  V30 12144 C 1147.47 -0.985065 1.29616 0
M  V30 12145 O 1148.66 -0.878961 1.55359 0
M  V30 12146 C 1145.76 -1.58257 2.9968 0
M  V30 12147 C 1144.93 -1.12389 4.22714 0
M  V30 12148 C 1143.99 -2.16897 4.79418 0
M  V30 12149 O 1143.02 -1.76273 5.41218 0
M  V30 12150 N 1144.22 -3.49396 4.63576 0
M  V30 12151 H 1146.99 0.227963 2.98832 0
M  V30 12152 H 1144.55 0.267741 1.59671 0
M  V30 12153 H 1146.54 -2.27796 3.34501 0
M  V30 12154 H 1145.11 -2.12362 2.29393 0
M  V30 12155 H 1144.33 -0.255509 3.93371 0
M  V30 12156 H 1145.62 -0.794848 5.02553 0
M  V30 12157 H 1145.02 -3.85132 4.14355 0
M  V30 12158 H 1143.57 -4.14826 5.02755 0
M  V30 12159 N 1147.01 -1.56678 0.170181 0
M  V30 12160 C 1147.95 -2.19222 -0.777459 0
M  V30 12161 C 1148.95 -1.15592 -1.23834 0
M  V30 12162 O 1150.15 -1.33794 -1.20412 0
M  V30 12163 H 1146.53 -0.702244 -0.268992 0
M  V30 12164 H 1148.5 -2.97543 -0.225989 0
M  V30 12165 C 1147.25 -2.84631 -1.997 0
M  V30 12166 H 1146.57 -3.641 -1.65139 0
M  V30 12167 H 1148.01 -3.31864 -2.63898 0
M  V30 12168 C 1146.47 -1.84345 -2.81991 0
M  V30 12169 O 1147 -1.32821 -3.79106 0
M  V30 12170 N 1145.21 -1.53127 -2.46983 0
M  V30 12171 H 1144.75 -1.95219 -1.6807 0
M  V30 12172 H 1144.71 -0.862787 -3.0233 0
M  V30 12173 N 1148.48 0.103547 -1.57259 0
M  V30 12174 C 1149.76 0.839768 -1.76656 0
M  V30 12175 C 1150.14 1.9734 -0.749666 0
M  V30 12176 O 1149.49 2.27405 0.223466 0
M  V30 12177 C 1149.7 1.34218 -3.22159 0
M  V30 12178 C 1151.05 1.78835 -3.85102 0
M  V30 12179 O 1152.07 1.43861 -3.25857 0
M  V30 12180 O 1150.93 2.43474 -4.89267 0
M  V30 12181 H 1148.02 0.399928 -0.723869 0
M  V30 12182 H 1150.57 0.0860857 -1.69482 0
M  V30 12183 H 1149.34 0.52956 -3.877 0
M  V30 12184 H 1148.96 2.15811 -3.33933 0
M  V30 12185 N 1149.96 1.53094 0.37415 0
M  V30 12186 C 1151.21 1.68082 1.11495 0
M  V30 12187 C 1151.52 0.434685 1.90709 0
M  V30 12188 O 1152.73 0.464956 2.67489 0
M  V30 12189 C 1151.19 2.97101 2.03124 0
M  V30 12190 C 1150.79 4.28947 1.29262 0
M  V30 12191 C 1152.54 3.21456 2.77248 0
M  V30 12192 C 1150.44 5.4906 2.19743 0
M  V30 12193 H 1149.37 0.626238 0.419931 0
M  V30 12194 H 1152.03 1.79594 0.376588 0
M  V30 12195 H 1150.41 2.79371 2.80656 0
M  V30 12196 H 1151.58 4.57279 0.568528 0
M  V30 12197 H 1149.9 4.10968 0.670362 0
M  V30 12198 H 1152.49 4.08377 3.45155 0
M  V30 12199 H 1152.84 2.37153 3.42146 0
M  V30 12200 H 1153.37 3.3982 2.06803 0
M  V30 12201 H 1150.11 6.35815 1.59437 0
M  V30 12202 H 1149.63 5.25019 2.90027 0
M  V30 12203 H 1151.31 5.83517 2.79495 0
M  V30 12204 N 1151.44 -0.633461 1.44309 0
M  V30 12205 C 1152.69 -1.38902 1.4625 0
M  V30 12206 C 1153 -1.95354 0.0980699 0
M  V30 12207 O 1154.21 -2.715 -0.0049983 0
M  V30 12208 C 1152.66 -2.51477 2.57463 0
M  V30 12209 C 1152.27 -2.01549 4.00103 0
M  V30 12210 C 1154.02 -3.28698 2.68622 0
M  V30 12211 C 1151.92 -3.11452 5.02744 0
M  V30 12212 H 1150.85 -0.521976 0.544112 0
M  V30 12213 H 1153.5 -0.681725 1.70367 0
M  V30 12214 H 1151.89 -3.24771 2.26582 0
M  V30 12215 H 1153.06 -1.35135 4.4054 0
M  V30 12216 H 1151.37 -1.3715 3.93165 0
M  V30 12217 H 1153.97 -4.10624 3.42479 0
M  V30 12218 H 1154.31 -3.78027 1.7436 0
M  V30 12219 H 1154.85 -2.62494 2.98901 0
M  V30 12220 H 1151.59 -2.6707 5.98627 0
M  V30 12221 H 1151.11 -3.76514 4.66902 0
M  V30 12222 H 1152.79 -3.76265 5.2634 0
M  V30 12223 N 1152.92 -1.31168 -0.873655 0
M  V30 12224 C 1153.88 -1.18471 -1.96207 0
M  V30 12225 C 1154.88 -0.112814 -1.60404 0
M  V30 12226 O 1156.07 -0.3618 -1.70401 0
M  V30 12227 C 1153.2 -0.817662 -3.30949 0
M  V30 12228 H 1154.4 -2.1518 -2.08896 0
M  V30 12229 H 1151.95 -1.14727 -1.06149 0
M  V30 12230 H 1152.68 0.148428 -3.2396 0
M  V30 12231 H 1152.47 -1.59244 -3.58307 0
M  V30 12232 H 1153.96 -0.75262 -4.10762 0
M  V30 12233 N 1154.4 1.08748 -1.14068 0
M  V30 12234 C 1155.81 1.33125 -0.880341 0
M  V30 12235 C 1156.01 1.9569 0.480396 0
M  V30 12236 O 1155.07 2.2077 1.22543 0
M  V30 12237 C 1156.38 2.23618 -2.01036 0
M  V30 12238 C 1157.93 2.37108 -2.04326 0
M  V30 12239 C 1158.4 3.30941 -3.1661 0
M  V30 12240 N 1159.9 3.38517 -3.16166 0
M  V30 12241 C 1160.63 4.11142 -3.99687 0
M  V30 12242 N 1160.13 4.86505 -4.93239 0
M  V30 12243 N 1161.92 4.06938 -3.87761 0
M  V30 12244 H 1154.07 0.665164 -2.01716 0
M  V30 12245 H 1156.33 0.355612 -0.878774 0
M  V30 12246 H 1156.04 1.84885 -2.99183 0
M  V30 12247 H 1155.91 3.24056 -1.93049 0
M  V30 12248 H 1158.3 2.75101 -1.06787 0
M  V30 12249 H 1158.38 1.36424 -2.16384 0
M  V30 12250 H 1158.03 2.93669 -4.14392 0
M  V30 12251 H 1157.96 4.31545 -3.01789 0
M  V30 12252 H 1160.45 2.84786 -2.48405 0
M  V30 12253 H 1160.76 5.39372 -5.53441 0
M  V30 12254 H 1159.1 4.8557 -4.9724 0
M  V30 12255 H 1162.3 3.47166 -3.13996 0
M  V30 12256 H 1162.47 4.63275 -4.53079 0
M  V30 12257 N 1155.87 0.935264 1.26849 0
M  V30 12258 C 1157.1 0.596249 1.98122 0
M  V30 12259 C 1157.52 -0.827452 1.69702 0
M  V30 12260 O 1156.87 -1.55095 0.961864 0
M  V30 12261 C 1156.93 0.821773 3.52036 0
M  V30 12262 O 1156.65 2.18947 3.79465 0
M  V30 12263 C 1158.15 0.492498 4.40556 0
M  V30 12264 H 1155.37 0.225242 0.632066 0
M  V30 12265 H 1157.91 1.25435 1.61512 0
M  V30 12266 H 1156.07 0.210363 3.86828 0
M  V30 12267 H 1156.48 2.24509 4.74021 0
M  V30 12268 H 1157.95 0.700953 5.47531 0
M  V30 12269 H 1158.43 -0.57228 4.35456 0
M  V30 12270 H 1159.04 1.08238 4.11296 0
M  V30 12271 N 1157.35 -1.41121 0.701616 0
M  V30 12272 C 1158.26 -2.34565 0.0407815 0
M  V30 12273 C 1159.28 -1.56555 -0.75937 0
M  V30 12274 O 1160.45 -1.89008 -0.695542 0
M  V30 12275 C 1157.52 -3.35347 -0.879954 0
M  V30 12276 C 1156.58 -4.29241 -0.0713279 0
M  V30 12277 C 1155.81 -5.25209 -0.948211 0
M  V30 12278 O 1156.04 -5.26781 -2.18766 0
M  V30 12279 O 1154.97 -6.00605 -0.394657 0
M  V30 12280 H 1158.8 -2.92666 0.811188 0
M  V30 12281 H 1156.38 -1.42077 0.461991 0
M  V30 12282 H 1158.26 -3.9719 -1.40776 0
M  V30 12283 H 1156.94 -2.7968 -1.62975 0
M  V30 12284 H 1155.85 -3.70727 0.50122 0
M  V30 12285 H 1157.18 -4.88022 0.639935 0
M  V30 12286 N 1158.83 -0.446794 -1.51134 0
M  V30 12287 C 1159.78 0.378002 -2.24845 0
M  V30 12288 C 1160.76 0.982126 -1.27448 0
M  V30 12289 O 1161.96 0.8987 -1.52487 0
M  V30 12290 C 1159.09 1.4733 -3.10079 0
M  V30 12291 C 1158.17 0.878102 -4.1491 0
M  V30 12292 N 1158.56 0.0129452 -5.05798 0
M  V30 12293 C 1156.86 1.14468 -4.3106 0
M  V30 12294 C 1157.56 -0.322333 -5.80806 0
M  V30 12295 N 1156.54 0.296438 -5.42791 0
M  V30 12296 H 1160.34 -0.28885 -2.92477 0
M  V30 12297 H 1157.85 -0.259439 -1.60314 0
M  V30 12298 H 1159.85 2.07713 -3.6147 0
M  V30 12299 H 1158.51 2.14239 -2.43992 0
M  V30 12300 H 1159.52 -0.354177 -5.16688 0
M  V30 12301 H 1156.2 1.81056 -3.76198 0
M  V30 12302 H 1157.59 -1.02693 -6.64006 0
M  V30 12303 N 1160.31 1.56586 -0.178487 0
M  V30 12304 C 1161.55 1.9739 0.465306 0
M  V30 12305 C 1161.89 1.06474 1.6241 0
M  V30 12306 O 1161.16 0.113316 1.9417 0
M  V30 12307 C 1161.45 3.47577 0.941408 0
M  V30 12308 C 1161.3 4.49271 -0.218054 0
M  V30 12309 C 1162.62 4.01038 1.81263 0
M  V30 12310 H 1159.74 0.717676 0.167663 0
M  V30 12311 H 1162.38 1.88128 -0.266067 0
M  V30 12312 H 1160.53 3.556 1.56463 0
M  V30 12313 H 1162.2 4.53301 -0.855332 0
M  V30 12314 H 1160.44 4.24936 -0.872441 0
M  V30 12315 H 1161.11 5.51776 0.157315 0
M  V30 12316 H 1163.59 3.9569 1.28718 0
M  V30 12317 H 1162.47 5.06526 2.11476 0
M  V30 12318 H 1162.73 3.45288 2.76096 0
M  V30 12319 N 1161.79 -0.095206 1.57312 0
M  V30 12320 C 1162.72 -1.14662 1.97301 0
M  V30 12321 C 1163.7 -1.38845 0.846212 0
M  V30 12322 O 1164.88 -1.52607 1.1065 0
M  V30 12323 C 1162.01 -2.49582 2.28968 0
M  V30 12324 C 1161.05 -2.41681 3.51415 0
M  V30 12325 S 1161.89 -1.83343 5.03136 0
M  V30 12326 C 1163.04 -3.19888 5.3798 0
M  V30 12327 H 1163.28 -0.805726 2.86174 0
M  V30 12328 H 1160.81 -0.302881 1.514 0
M  V30 12329 H 1162.77 -3.27202 2.47889 0
M  V30 12330 H 1161.43 -2.80841 1.40667 0
M  V30 12331 H 1160.62 -3.41122 3.71015 0
M  V30 12332 H 1160.22 -1.7219 3.32004 0
M  V30 12333 H 1162.52 -4.16161 5.34618 0
M  V30 12334 H 1163.46 -3.05093 6.39002 0
M  V30 12335 H 1163.87 -3.19414 4.6544 0
M  V30 12336 O 1163.3 -1.59719 -0.239187 0
M  V30 12337 H 1163.99 -1.72464 -0.881815 0
M  V30 END ATOM
M  V30 BEGIN BOND
M  V30 END BOND
M  V30 END CTAB
M  END
$$$$
