drugbank_target|Q8GGK7 Cytochrome C (DB03619)
 OpenBabel12092120263D

  0  0  0     0  0            999 V3000
M  V30 BEGIN CTAB
M  V30 COUNTS 1382 1395 0 0 0
M  V30 BEGIN ATOM
M  V30 1 H -0.908 1.98254 -0.117106 0
M  V30 2 N 0 1.576 0 0
M  V30 3 C 0.933 2.03868 1.02534 0
M  V30 4 C 1.911 0.928543 1.3348 0
M  V30 5 O 3.095 1.19667 1.45644 0
M  V30 6 C 0.222 2.43627 2.35294 0
M  V30 7 C -0.732 3.65373 2.2001 0
M  V30 8 S 0.101 5.13292 1.52614 0
M  V30 9 C 1.257 5.56322 2.86805 0
M  V30 10 H 1.49 2.90518 0.631377 0
M  V30 11 H -0.977 1.52953 0.210867 0
M  V30 12 H 0.981 2.67203 3.11629 0
M  V30 13 H -0.358 1.57376 2.7183 0
M  V30 14 H -1.165 3.90944 3.18086 0
M  V30 15 H -1.563 3.418 1.51819 0
M  V30 16 H 0.729 5.58782 3.83104 0
M  V30 17 H 1.672 6.56266 2.65933 0
M  V30 18 H 2.08 4.83886 2.90714 0
M  V30 19 N 1.4781 -0.272755 1.55222 0
M  V30 20 C 2.4251 -1.33716 1.88119 0
M  V30 21 C 3.3951 -1.49066 0.73271 0
M  V30 22 O 4.5801 -1.63469 0.984002 0
M  V30 23 C 1.7201 -2.69238 2.15882 0
M  V30 24 C 0.8331 -2.62108 3.43399 0
M  V30 25 C -0.0319 -3.89811 3.60861 0
M  V30 26 C -0.9929 -3.77193 4.8207 0
M  V30 27 N -1.8559 -4.9673 4.96189 0
M  V30 28 H 2.9841 -1.04962 2.78903 0
M  V30 29 H 0.5211 -0.507088 1.38083 0
M  V30 30 H 2.4791 -3.48089 2.29978 0
M  V30 31 H 1.1091 -2.96194 1.28331 0
M  V30 32 H 0.1611 -1.74967 3.37773 0
M  V30 33 H 1.4731 -2.48685 4.32386 0
M  V30 34 H 0.6271 -4.77103 3.74777 0
M  V30 35 H -0.6339 -4.06102 2.7006 0
M  V30 36 H -1.6289 -2.88284 4.68159 0
M  V30 37 H -0.4039 -3.62421 5.74307 0
M  V30 38 H -2.4579 -5.13431 4.08319 0
M  V30 39 H -2.5409 -4.85839 5.79221 0
M  V30 40 H -1.2729 -5.85594 5.1449 0
M  V30 41 N 2.9562 -1.48159 -0.537278 0
M  V30 42 C 3.9032 -1.62138 -1.64256 0
M  V30 43 C 4.8732 -0.463668 -1.59497 0
M  V30 44 O 6.0582 -0.686241 -1.78032 0
M  V30 45 C 3.1982 -1.66028 -3.02537 0
M  V30 46 C 2.3112 -2.92855 -3.17585 0
M  V30 47 C 1.4462 -2.87952 -4.46382 0
M  V30 48 C 0.4852 -4.09516 -4.54932 0
M  V30 49 N -0.3778 -4.02733 -5.75109 0
M  V30 50 H 4.4622 -2.56529 -1.51647 0
M  V30 51 H 1.9992 -1.27224 -0.738414 0
M  V30 52 H 3.9572 -1.66265 -3.82638 0
M  V30 53 H 2.5872 -0.751331 -3.13934 0
M  V30 54 H 1.6392 -3.02395 -2.30784 0
M  V30 55 H 2.9512 -3.82822 -3.19764 0
M  V30 56 H 2.1052 -2.8655 -5.34765 0
M  V30 57 H 0.8442 -1.95702 -4.46712 0
M  V30 58 H -0.1508 -4.11201 -3.64957 0
M  V30 59 H 1.0742 -5.02917 -4.56346 0
M  V30 60 H -0.9798 -3.13299 -5.76351 0
M  V30 61 H -1.0628 -4.86397 -5.78752 0
M  V30 62 H 0.2052 -4.05379 -6.65799 0
M  V30 63 N 4.4343 0.785586 -1.36625 0
M  V30 64 C 5.6803 1.54591 -1.31261 0
M  V30 65 C 6.0133 1.93906 0.106823 0
M  V30 66 O 5.2883 1.63007 1.06108 0
M  V30 67 C 5.5713 2.82038 -2.23889 0
M  V30 68 C 5.4243 2.49066 -3.74548 0
M  V30 69 C 6.7433 3.83887 -2.15217 0
M  V30 70 H 3.8623 0.560846 -0.478143 0
M  V30 71 H 6.5043 0.902278 -1.67209 0
M  V30 72 H 4.6543 3.36961 -1.93363 0
M  V30 73 H 6.3263 2.00164 -4.15611 0
M  V30 74 H 4.5693 1.81954 -3.93796 0
M  V30 75 H 5.2403 3.40109 -4.34776 0
M  V30 76 H 7.7163 3.38421 -2.42096 0
M  V30 77 H 6.5923 4.70806 -2.82193 0
M  V30 78 H 6.8533 4.27131 -1.14068 0
M  V30 79 N 5.9124 1.20967 1.01018 0
M  V30 80 C 7.1614 1.01796 1.74128 0
M  V30 81 C 7.4744 -0.449691 1.90361 0
M  V30 82 O 8.6804 -0.76068 2.60626 0
M  V30 83 C 7.1364 1.7727 3.13215 0
M  V30 84 C 6.7444 3.28171 3.04972 0
M  V30 85 C 8.4884 1.66489 3.90489 0
M  V30 86 C 6.3954 3.96156 4.39107 0
M  V30 87 H 5.3254 0.377276 0.652824 0
M  V30 88 H 7.9764 1.44651 1.12909 0
M  V30 89 H 6.3584 1.27205 3.75013 0
M  V30 90 H 7.5324 3.85499 2.52443 0
M  V30 91 H 5.8474 3.39437 2.41188 0
M  V30 92 H 8.4444 2.14617 4.89738 0
M  V30 93 H 8.7874 0.6222 4.11624 0
M  V30 94 H 9.3204 2.14003 3.35332 0
M  V30 95 H 6.0594 5.00604 4.23174 0
M  V30 96 H 5.5794 3.43617 4.91617 0
M  V30 97 H 7.2584 4.00774 5.07926 0
M  V30 98 N 7.3905 -1.2043 1.01659 0
M  V30 99 C 8.3535 -2.21433 0.591616 0
M  V30 100 C 9.3535 -1.57203 -0.338226 0
M  V30 101 O 10.5435 -1.73737 -0.126918 0
M  V30 102 C 7.6755 -3.40628 -0.136058 0
M  V30 103 H 8.8685 -2.60545 1.48514 0
M  V30 104 H 6.4215 -1.33893 0.806379 0
M  V30 105 H 7.1565 -3.07019 -1.04449 0
M  V30 106 H 6.9415 -3.88475 0.531917 0
M  V30 107 H 8.4315 -4.15475 -0.420735 0
M  V30 108 N 8.8686 -0.792821 -1.36206 0
M  V30 109 C 10.0936 -0.377701 -2.03932 0
M  V30 110 C 10.5186 0.998947 -1.59382 0
M  V30 111 O 9.8766 1.64421 -0.763903 0
M  V30 112 C 9.9246 -0.453635 -3.57735 0
M  V30 113 O 9.0286 0.538151 -4.08874 0
M  V30 114 H 8.3696 -0.159855 -0.644471 0
M  V30 115 H 10.8996 -1.07488 -1.7409 0
M  V30 116 H 10.9096 -0.318464 -4.06755 0
M  V30 117 H 9.5846 -1.45784 -3.89512 0
M  V30 118 H 8.1616 0.364359 -3.71116 0
M  V30 119 N 10.3467 1.47872 -0.545128 0
M  V30 120 C 11.2767 2.32661 0.197793 0
M  V30 121 C 12.2577 1.43041 0.920504 0
M  V30 122 O 13.4427 1.71912 0.90333 0
M  V30 123 C 10.5727 3.24569 1.23582 0
M  V30 124 C 9.5267 4.23333 0.630323 0
M  V30 125 C 8.8527 5.0448 1.77211 0
M  V30 126 C 10.1527 5.20704 -0.407974 0
M  V30 127 H 11.8467 2.95024 -0.510045 0
M  V30 128 H 9.3927 1.4187 -0.246731 0
M  V30 129 H 11.3457 3.8272 1.76362 0
M  V30 130 H 10.0697 2.60236 1.97344 0
M  V30 131 H 8.7287 3.6639 0.123922 0
M  V30 132 H 8.3767 4.36561 2.49847 0
M  V30 133 H 8.0767 5.71339 1.37281 0
M  V30 134 H 9.6007 5.65487 2.3034 0
M  V30 135 H 11.0147 5.7329 0.033305 0
M  V30 136 H 9.4117 5.95699 -0.725486 0
M  V30 137 H 10.4817 4.66917 -1.30828 0
M  V30 138 N 11.8248 0.280983 1.55075 0
M  V30 139 C 12.7878 -0.590896 2.21452 0
M  V30 140 C 13.7878 -1.07682 1.19421 0
M  V30 141 O 14.9778 -0.97605 1.44288 0
M  V30 142 C 12.1098 -1.81587 2.88511 0
M  V30 143 H 13.3028 -0.0112554 2.99898 0
M  V30 144 H 10.8558 0.0316438 1.56268 0
M  V30 145 H 11.5908 -2.43587 2.14093 0
M  V30 146 H 11.3758 -1.4753 3.63287 0
M  V30 147 H 12.8658 -2.43575 3.39206 0
M  V30 148 N 13.3029 -1.57598 0.00835791 0
M  V30 149 C 14.2329 -2.1198 -0.979113 0
M  V30 150 C 15.2139 -1.03091 -1.35301 0
M  V30 151 O 16.3989 -1.30818 -1.43528 0
M  V30 152 C 13.5289 -2.62995 -2.26828 0
M  V30 153 C 12.4829 -3.76485 -2.03576 0
M  V30 154 C 11.8089 -4.13846 -3.38579 0
M  V30 155 C 13.1089 -5.0342 -1.39161 0
M  V30 156 H 14.8029 -2.94738 -0.526281 0
M  V30 157 H 12.3489 -1.41783 -0.251704 0
M  V30 158 H 14.3019 -2.99669 -2.96271 0
M  V30 159 H 13.0259 -1.7737 -2.7424 0
M  V30 160 H 11.6849 -3.40217 -1.36557 0
M  V30 161 H 11.3329 -3.25232 -3.83709 0
M  V30 162 H 11.0329 -4.90312 -3.23834 0
M  V30 163 H 12.5569 -4.53086 -4.09323 0
M  V30 164 H 13.9709 -5.37812 -1.98573 0
M  V30 165 H 12.3679 -5.84746 -1.34878 0
M  V30 166 H 13.4379 -4.83548 -0.361868 0
M  V30 167 N 14.781 0.264519 -1.55364 0
M  V30 168 C 16.006 1.01726 -1.80739 0
M  V30 169 C 16.431 1.78836 -0.583044 0
M  V30 170 O 15.789 1.75167 0.467566 0
M  V30 171 C 15.837 1.94482 -3.03659 0
M  V30 172 O 14.941 3.03386 -2.7934 0
M  V30 173 H 14.282 0.290395 -0.597132 0
M  V30 174 H 16.812 0.290854 -2.02522 0
M  V30 175 H 16.822 2.36278 -3.32621 0
M  V30 176 H 15.497 1.37772 -3.92418 0
M  V30 177 H 14.074 2.65844 -2.61498 0
M  V30 178 N 16.2591 1.48442 0.529413 0
M  V30 179 C 17.5051 1.5672 1.28711 0
M  V30 180 C 17.8381 0.2406 1.92704 0
M  V30 181 O 17.1131 -0.753454 1.79313 0
M  V30 182 C 17.3961 2.70587 2.37603 0
M  V30 183 C 17.2491 4.12953 1.78297 0
M  V30 184 C 18.5681 2.80212 3.39366 0
M  V30 185 H 15.6871 0.570474 0.466613 0
M  V30 186 H 18.3291 1.80617 0.589706 0
M  V30 187 H 16.4791 2.50342 2.97088 0
M  V30 188 H 18.1511 4.44639 1.22858 0
M  V30 189 H 16.3941 4.19927 1.0883 0
M  V30 190 H 17.0651 4.88448 2.57144 0
M  V30 191 H 19.5411 2.98553 2.89836 0
M  V30 192 H 18.4171 3.61611 4.12951 0
M  V30 193 H 18.6781 1.88393 3.99951 0
M  V30 194 N 17.7372 -0.778329 1.37039 0
M  V30 195 C 18.9842 -1.53665 1.31884 0
M  V30 196 C 19.3122 -1.9425 -0.0986303 0
M  V30 197 O 18.5672 -1.63832 -1.07041 0
M  V30 198 C 18.8662 -2.81845 2.19768 0
M  V30 199 C 18.5322 -2.60345 3.68146 0
M  V30 200 C 17.1942 -2.5419 4.08584 0
M  V30 201 C 19.5462 -2.40923 4.62175 0
M  V30 202 C 16.8742 -2.26594 5.41177 0
M  V30 203 C 19.2262 -2.14852 5.94997 0
M  V30 204 C 17.8902 -2.07137 6.34547 0
M  V30 205 H 17.1602 -0.562299 0.482598 0
M  V30 206 H 19.8072 -0.897069 1.69189 0
M  V30 207 H 18.1122 -3.50328 1.75436 0
M  V30 208 H 19.8092 -3.39692 2.13097 0
M  V30 209 H 16.3992 -2.65996 3.36072 0
M  V30 210 H 20.5832 -2.44673 4.31797 0
M  V30 211 H 15.8392 -2.19111 5.70789 0
M  V30 212 H 20.0132 -1.98822 6.67415 0
M  V30 213 H 17.6402 -1.85518 7.37216 0
M  V30 214 N 19.2153 -1.21501 -1.00376 0
M  V30 215 C 20.4553 -1.04444 -1.75701 0
M  V30 216 C 20.8193 0.414644 -1.87469 0
M  V30 217 O 22.0203 0.705763 -2.59369 0
M  V30 218 C 20.2913 -1.72389 -3.13077 0
M  V30 219 S 21.8503 -1.70604 -4.04277 0
M  V30 220 H 18.6683 -0.374249 -0.604532 0
M  V30 221 H 21.2703 -1.54267 -1.20091 0
M  V30 222 H 19.9743 -2.77734 -3.02146 0
M  V30 223 H 19.5053 -1.22751 -3.73759 0
M  V30 224 H 21.5203 -0.748012 -4.9053 0
M  V30 225 N 20.6934 1.19889 -1.02296 0
M  V30 226 C 21.6564 2.21116 -0.603351 0
M  V30 227 C 22.6564 1.5738 0.329884 0
M  V30 228 O 23.8464 1.73802 0.117702 0
M  V30 229 C 20.9784 3.40696 0.117992 0
M  V30 230 H 22.1714 2.59754 -1.49893 0
M  V30 231 H 19.7244 1.33463 -0.813468 0
M  V30 232 H 20.4594 3.07569 1.0282 0
M  V30 233 H 20.2444 3.88188 -0.552511 0
M  V30 234 H 21.7344 4.15692 0.398696 0
M  V30 235 N 22.1715 0.800033 1.35784 0
M  V30 236 C 23.4195 0.376597 1.9856 0
M  V30 237 C 23.7405 -1.05812 1.63795 0
M  V30 238 O 23.0105 -1.73103 0.917171 0
M  V30 239 H 21.5905 0.136261 0.734467 0
M  V30 240 H 24.2525 1.02442 1.65806 0
M  V30 241 H 23.3485 0.477002 3.08433 0
M  V30 242 N 23.6496 -1.47581 0.552962 0
M  V30 243 C 24.5796 -2.32762 -0.185451 0
M  V30 244 C 25.5606 -1.43527 -0.912905 0
M  V30 245 O 26.7456 -1.72388 -0.894201 0
M  V30 246 C 23.8756 -3.25219 -1.21859 0
M  V30 247 C 22.8296 -4.23661 -0.607864 0
M  V30 248 C 22.1556 -5.05413 -1.74533 0
M  V30 249 C 23.4556 -5.20481 0.435582 0
M  V30 250 H 25.1496 -2.94749 0.525684 0
M  V30 251 H 22.6956 -1.41738 0.254251 0
M  V30 252 H 24.6486 -3.8365 -1.7433 0
M  V30 253 H 23.3726 -2.61279 -1.95961 0
M  V30 254 H 22.0316 -3.66451 -0.104489 0
M  V30 255 H 21.6796 -4.3788 -2.47529 0
M  V30 256 H 21.3796 -5.72059 -1.34249 0
M  V30 257 H 22.9036 -5.66701 -2.27338 0
M  V30 258 H 24.3176 -5.733 -0.00290157 0
M  V30 259 H 22.7146 -5.95305 0.757067 0
M  V30 260 H 23.7846 -4.66217 1.33303 0
M  V30 261 N 25.1277 -0.289203 -1.54924 0
M  V30 262 C 26.0907 0.579144 -2.21762 0
M  V30 263 C 27.0907 1.07047 -1.1999 0
M  V30 264 O 28.2807 0.968384 -1.44803 0
M  V30 265 C 25.4127 1.80055 -2.8947 0
M  V30 266 H 26.6057 -0.00464908 -2.999 0
M  V30 267 H 24.1587 -0.0399306 -1.56249 0
M  V30 268 H 24.8937 2.42449 -2.15381 0
M  V30 269 H 24.6787 1.45602 -3.64064 0
M  V30 270 H 26.1687 2.41773 -3.40493 0
M  V30 271 N 26.6058 1.57591 -0.0167156 0
M  V30 272 C 27.8528 1.91283 0.664597 0
M  V30 273 C 28.1808 0.891949 1.72842 0
M  V30 274 O 27.4358 -0.100931 1.9544 0
M  V30 275 C 27.7348 3.3172 1.33029 0
M  V30 276 C 27.4008 4.4914 0.398047 0
M  V30 277 C 26.0628 4.80992 0.141421 0
M  V30 278 C 28.4148 5.20634 -0.242825 0
M  V30 279 C 25.7428 5.81703 -0.764092 0
M  V30 280 C 28.0948 6.22311 -1.13632 0
M  V30 281 C 26.7588 6.52611 -1.40196 0
M  V30 282 H 26.0288 0.699956 0.243193 0
M  V30 283 H 28.6758 1.9135 -0.0758267 0
M  V30 284 H 26.9808 3.27856 2.14517 0
M  V30 285 H 28.6778 3.55055 1.86379 0
M  V30 286 H 25.2678 4.24262 0.608238 0
M  V30 287 H 29.4518 4.96267 -0.0576019 0
M  V30 288 H 24.7078 6.03532 -0.977732 0
M  V30 289 H 28.8818 6.76834 -1.63917 0
M  V30 290 H 26.5088 7.30467 -2.10529 0
M  V30 291 N 28.0839 -0.256276 1.55502 0
M  V30 292 C 29.0469 -1.30047 1.88734 0
M  V30 293 C 30.0469 -1.4154 0.763086 0
M  V30 294 O 31.2369 -1.40403 1.03115 0
M  V30 295 C 28.3689 -2.67953 2.10747 0
M  V30 296 H 29.5619 -1.01802 2.82093 0
M  V30 297 H 27.1149 -0.495134 1.4825 0
M  V30 298 H 27.8499 -3.01351 1.19825 0
M  V30 299 H 27.6349 -2.60993 2.92617 0
M  V30 300 H 29.1249 -3.43368 2.37673 0
M  V30 301 N 29.562 -1.4872 -0.521534 0
M  V30 302 C 30.525 -1.63379 -1.60748 0
M  V30 303 C 31.525 -0.50661 -1.52611 0
M  V30 304 O 32.715 -0.772601 -1.5613 0
M  V30 305 C 29.847 -1.61192 -3.00383 0
M  V30 306 H 31.04 -2.60217 -1.49087 0
M  V30 307 H 28.593 -1.37444 -0.744235 0
M  V30 308 H 29.328 -0.65863 -3.17541 0
M  V30 309 H 29.113 -2.43032 -3.07698 0
M  V30 310 H 30.603 -1.7466 -3.7932 0
M  V30 311 N 31.0401 0.771051 -1.3745 0
M  V30 312 C 32.3171 1.519 -1.23231 0
M  V30 313 C 32.6971 2.10383 0.173809 0
M  V30 314 O 32.0451 1.95583 1.18151 0
M  V30 315 C 32.2551 2.59933 -2.32886 0
M  V30 316 C 33.6031 3.27316 -2.70461 0
M  V30 317 O 34.6271 2.70228 -2.32068 0
M  V30 318 O 33.4861 4.30531 -3.36608 0
M  V30 319 H 30.5801 0.672803 -0.480901 0
M  V30 320 H 33.1261 0.807957 -1.49232 0
M  V30 321 H 31.8981 2.14842 -3.27045 0
M  V30 322 H 31.5211 3.38637 -2.08353 0
M  V30 323 N 32.5182 1.22032 0.997298 0
M  V30 324 C 33.7952 0.950823 1.70935 0
M  V30 325 C 34.1752 -0.535292 2.042 0
M  V30 326 O 33.5232 -1.50217 1.72183 0
M  V30 327 C 33.7332 1.84386 2.96315 0
M  V30 328 C 35.0812 2.09732 3.69185 0
M  V30 329 O 36.1052 1.81798 3.06314 0
M  V30 330 O 34.9642 2.57018 4.82291 0
M  V30 331 H 32.0582 0.357204 0.745878 0
M  V30 332 H 34.6042 1.32997 1.05404 0
M  V30 333 H 33.3762 2.84928 2.68201 0
M  V30 334 H 32.9992 1.46602 3.69586 0
M  V30 335 N 33.9963 -1.19345 1.0293 0
M  V30 336 C 35.2453 -1.88363 0.721256 0
M  V30 337 C 35.5583 -1.80514 -0.753254 0
M  V30 338 O 36.7643 -2.44788 -1.17436 0
M  V30 339 C 35.2203 -3.37872 1.23978 0
M  V30 340 C 34.8283 -3.54278 2.74211 0
M  V30 341 C 36.5723 -4.12365 1.00775 0
M  V30 342 C 34.4793 -4.97682 3.19479 0
M  V30 343 H 33.4093 -0.705484 0.266098 0
M  V30 344 H 36.0603 -1.34928 1.24365 0
M  V30 345 H 34.4423 -3.90707 0.6453 0
M  V30 346 H 35.6163 -3.11769 3.39318 0
M  V30 347 H 33.9313 -2.93174 2.95699 0
M  V30 348 H 36.5283 -5.18119 1.32123 0
M  V30 349 H 36.8713 -4.16263 -0.0554308 0
M  V30 350 H 37.4043 -3.65668 1.56625 0
M  V30 351 H 34.1433 -4.98945 4.25128 0
M  V30 352 H 33.6633 -5.4095 2.591 0
M  V30 353 H 35.3423 -5.66337 3.12845 0
M  V30 354 N 35.4744 -0.807222 -1.35358 0
M  V30 355 C 36.7204 -0.388463 -1.99045 0
M  V30 356 C 37.0534 1.04184 -1.63888 0
M  V30 357 O 36.3284 1.72292 -0.902535 0
M  V30 358 C 36.6114 -0.572783 -3.55515 0
M  V30 359 C 36.4644 -2.04807 -4.00468 0
M  V30 360 C 37.7834 0.00114064 -4.401 0
M  V30 361 H 34.9024 -0.142619 -0.723069 0
M  V30 362 H 37.5444 -1.01687 -1.60498 0
M  V30 363 H 35.6944 -0.0378425 -3.88482 0
M  V30 364 H 37.3664 -2.64544 -3.77908 0
M  V30 365 H 35.6094 -2.54427 -3.51353 0
M  V30 366 H 36.2804 -2.12792 -5.09337 0
M  V30 367 H 38.7564 -0.455716 -4.13597 0
M  V30 368 H 37.6324 -0.157737 -5.48673 0
M  V30 369 H 37.8934 1.09488 -4.28328 0
M  V30 370 N 36.9525 1.47285 -0.560781 0
M  V30 371 C 37.8825 2.32857 0.173105 0
M  V30 372 C 38.8635 1.44009 0.905281 0
M  V30 373 O 40.0485 1.7286 0.885046 0
M  V30 374 C 37.1785 3.25861 1.20133 0
M  V30 375 C 36.1325 4.23978 0.585388 0
M  V30 376 C 35.4585 5.06332 1.7185 0
M  V30 377 C 36.7585 5.20242 -0.463178 0
M  V30 378 H 38.4525 2.94466 -0.541307 0
M  V30 379 H 35.9985 1.41601 -0.261764 0
M  V30 380 H 37.9515 3.84569 1.72293 0
M  V30 381 H 36.6755 2.62315 1.94573 0
M  V30 382 H 35.3345 3.66501 0.085054 0
M  V30 383 H 34.9825 4.39186 2.45203 0
M  V30 384 H 34.6825 5.72762 1.31213 0
M  V30 385 H 36.2065 5.67899 2.24329 0
M  V30 386 H 37.6205 5.73293 -0.027502 0
M  V30 387 H 36.0175 5.94896 -0.788627 0
M  V30 388 H 37.0875 4.65504 -1.35773 0
M  V30 389 N 38.4306 0.297415 1.54768 0
M  V30 390 C 39.3776 -0.580276 2.23386 0
M  V30 391 C 40.3476 -1.13238 1.21517 0
M  V30 392 O 41.5326 -1.17757 1.50126 0
M  V30 393 C 38.6726 -1.74801 2.97555 0
M  V30 394 C 37.7856 -1.22764 4.1419 0
M  V30 395 C 36.9206 -2.35895 4.75949 0
M  V30 396 C 35.9596 -1.80974 5.84735 0
M  V30 397 N 35.0966 -2.87664 6.40464 0
M  V30 398 H 39.9366 0.0114833 2.97998 0
M  V30 399 H 37.4736 0.0174361 1.4709 0
M  V30 400 H 39.4316 -2.43475 3.38786 0
M  V30 401 H 38.0616 -2.31145 2.25326 0
M  V30 402 H 37.1136 -0.433271 3.77924 0
M  V30 403 H 38.4256 -0.785551 4.92575 0
M  V30 404 H 37.5796 -3.12523 5.20014 0
M  V30 405 H 36.3186 -2.83429 3.96887 0
M  V30 406 H 35.3236 -1.02834 5.40097 0
M  V30 407 H 36.5486 -1.34348 6.65678 0
M  V30 408 H 34.4946 -3.34538 5.64287 0
M  V30 409 H 34.4116 -2.4794 7.14186 0
M  V30 410 H 35.6796 -3.642 6.89187 0
M  V30 411 N 39.9087 -1.5758 0.0250728 0
M  V30 412 C 40.8717 -2.08896 -0.943139 0
M  V30 413 C 41.8717 -1.00321 -1.25668 0
M  V30 414 O 43.0617 -1.26495 -1.19769 0
M  V30 415 C 40.1937 -2.55143 -2.26086 0
M  V30 416 H 41.3867 -2.95723 -0.498775 0
M  V30 417 H 38.9397 -1.54703 -0.222888 0
M  V30 418 H 39.6747 -1.71633 -2.75159 0
M  V30 419 H 39.4597 -3.34461 -2.04641 0
M  V30 420 H 40.9497 -2.95083 -2.95492 0
M  V30 421 N 41.3868 0.248026 -1.55636 0
M  V30 422 C 42.3338 1.30707 -1.90222 0
M  V30 423 C 43.3038 1.47881 -0.756332 0
M  V30 424 O 44.4888 1.61883 -1.00988 0
M  V30 425 C 41.6288 2.65769 -2.20138 0
M  V30 426 C 40.7418 2.56612 -3.47526 0
M  V30 427 C 39.8768 3.8402 -3.67017 0
M  V30 428 C 38.9158 3.69476 -4.8801 0
M  V30 429 N 38.0528 4.88774 -5.04029 0
M  V30 430 H 42.8928 1.00512 -2.80538 0
M  V30 431 H 40.4298 0.485055 -1.38873 0
M  V30 432 H 42.3878 3.44386 -2.35487 0
M  V30 433 H 41.0178 2.94115 -1.33027 0
M  V30 434 H 40.0698 1.69571 -3.40514 0
M  V30 435 H 41.3818 2.41774 -4.36287 0
M  V30 436 H 40.5358 4.7108 -3.8232 0
M  V30 437 H 39.2748 4.01754 -2.76487 0
M  V30 438 H 38.2798 2.80799 -4.72686 0
M  V30 439 H 39.5048 3.53238 -5.8 0
M  V30 440 H 37.4508 5.0687 -4.16435 0
M  V30 441 H 37.3678 4.76562 -5.86877 0
M  V30 442 H 38.6358 5.77335 -5.23741 0
M  V30 443 N 42.8649 1.48995 0.513639 0
M  V30 444 C 43.8129 1.65199 1.63744 0
M  V30 445 C 44.8069 0.51809 1.61283 0
M  V30 446 O 46.0129 0.697335 1.65943 0
M  V30 447 H 42.3879 0.52069 0.542574 0
M  V30 448 H 44.3589 2.59552 1.47226 0
M  V30 449 C 43.1079 1.72409 3.01945 0
M  V30 450 H 42.4309 2.59029 3.04539 0
M  V30 451 H 43.8709 1.87785 3.80148 0
M  V30 452 C 42.3299 0.46618 3.33659 0
M  V30 453 O 42.8599 -0.413744 3.99564 0
M  V30 454 N 41.0659 0.332931 2.88687 0
M  V30 455 H 40.6129 1.04996 2.35231 0
M  V30 456 H 40.5709 -0.507665 3.10274 0
M  V30 457 N 44.343 -0.763751 1.37857 0
M  V30 458 C 45.591 -1.51957 1.33243 0
M  V30 459 C 45.912 -1.94835 -0.0801709 0
M  V30 460 O 45.182 -1.66894 -1.02582 0
M  V30 461 H 43.762 -0.563626 0.49024 0
M  V30 462 H 46.424 -0.908504 1.7243 0
M  V30 463 H 45.52 -2.41523 1.97669 0
M  V30 464 N 45.8211 -1.22559 -0.990812 0
M  V30 465 C 47.0981 -0.959875 -1.70428 0
M  V30 466 C 47.4781 0.524455 -2.04481 0
M  V30 467 O 46.8261 1.49302 -1.72977 0
M  V30 468 C 47.0361 -1.85955 -2.95333 0
M  V30 469 C 48.3841 -2.11687 -3.68068 0
M  V30 470 O 49.4081 -1.8342 -3.05345 0
M  V30 471 O 48.2671 -2.59572 -4.80921 0
M  V30 472 H 45.3611 -0.361154 -0.743974 0
M  V30 473 H 47.9071 -1.33554 -1.04697 0
M  V30 474 H 46.6791 -2.86346 -2.66687 0
M  V30 475 H 46.3021 -1.4856 -3.68803 0
M  V30 476 N 47.2992 1.18797 -1.03562 0
M  V30 477 C 48.5452 1.8893 -0.737113 0
M  V30 478 C 48.8782 1.79837 0.732956 0
M  V30 479 O 48.1532 1.19525 1.5344 0
M  V30 480 C 48.4362 3.39607 -1.19745 0
M  V30 481 C 48.2892 3.57537 -2.72924 0
M  V30 482 C 49.6082 4.33069 -0.783526 0
M  V30 483 H 46.7272 0.686057 -0.269249 0
M  V30 484 H 49.3692 1.39797 -1.28673 0
M  V30 485 H 47.5192 3.81583 -0.729855 0
M  V30 486 H 49.1912 3.24688 -3.27682 0
M  V30 487 H 47.4342 3.00363 -3.12993 0
M  V30 488 H 48.1052 4.63238 -3.00191 0
M  V30 489 H 50.5812 3.98846 -1.18581 0
M  V30 490 H 49.4572 5.3707 -1.13343 0
M  V30 491 H 49.7182 4.40986 0.313681 0
M  V30 492 N 48.7773 0.814389 1.34928 0
M  V30 493 C 49.7243 0.22822 2.29669 0
M  V30 494 C 50.6943 -0.642164 1.53184 0
M  V30 495 O 51.8793 -0.585605 1.81591 0
M  V30 496 C 49.0193 -0.61089 3.3965 0
M  V30 497 C 48.1323 0.280792 4.31086 0
M  V30 498 C 47.2673 -0.567067 5.28165 0
M  V30 499 C 46.3063 0.324531 6.11239 0
M  V30 500 N 45.4433 -0.483756 7.00431 0
M  V30 501 H 50.2833 1.04153 2.79206 0
M  V30 502 H 47.8203 0.525133 1.37407 0
M  V30 503 H 49.7783 -1.11263 4.0209 0
M  V30 504 H 48.4083 -1.38939 2.91369 0
M  V30 505 H 47.4603 0.900688 3.69583 0
M  V30 506 H 48.7723 0.966723 4.89342 0
M  V30 507 H 47.9263 -1.13363 5.96015 0
M  V30 508 H 46.6653 -1.28654 4.70425 0
M  V30 509 H 45.6703 0.903298 5.42329 0
M  V30 510 H 46.8953 1.04198 6.71059 0
M  V30 511 H 44.8413 -1.18706 6.45171 0
M  V30 512 H 44.7583 0.143965 7.55863 0
M  V30 513 H 46.0263 -1.03334 7.7262 0
M  V30 514 N 50.2554 -1.46986 0.568584 0
M  V30 515 C 51.5024 -2.02441 0.0487986 0
M  V30 516 C 51.8304 -1.44169 -1.30559 0
M  V30 517 O 51.0854 -0.591213 -1.86556 0
M  V30 518 C 51.3844 -3.57306 -0.081836 0
M  V30 519 C 51.0504 -4.34552 1.20313 0
M  V30 520 C 49.7124 -4.55376 1.5552 0
M  V30 521 C 52.0644 -4.79016 2.05411 0
M  V30 522 C 49.3924 -5.17913 2.7565 0
M  V30 523 C 51.7444 -5.42879 3.24754 0
M  V30 524 C 50.4084 -5.61933 3.60261 0
M  V30 525 H 49.6784 -0.740785 0.0178567 0
M  V30 526 H 52.3254 -1.76525 0.742384 0
M  V30 527 H 50.6304 -3.8228 -0.858463 0
M  V30 528 H 52.3274 -3.97876 -0.499546 0
M  V30 529 H 48.9174 -4.18631 0.919014 0
M  V30 530 H 53.1014 -4.62696 1.79516 0
M  V30 531 H 48.3574 -5.30858 3.03315 0
M  V30 532 H 52.5314 -5.76293 3.90973 0
M  V30 533 H 50.1584 -6.10161 4.53439 0
M  V30 534 N 51.7335 -0.305618 -1.54608 0
M  V30 535 C 53.1445 0.186098 -1.8577 0
M  V30 536 C 53.4955 1.53058 -1.22751 0
M  V30 537 O 52.6205 2.09888 -0.526893 0
M  V30 538 C 53.2155 0.344449 -3.37044 0
M  V30 539 C 51.7745 0.780384 -3.68221 0
M  V30 540 C 50.9215 -0.108554 -2.77087 0
M  V30 541 H 53.8725 -0.526485 -1.49712 0
M  V30 542 H 53.8935 1.17828 -3.61796 0
M  V30 543 H 53.4055 -0.634235 -3.82883 0
M  V30 544 H 51.5065 1.76945 -3.27904 0
M  V30 545 H 51.6195 0.596572 -4.75371 0
M  V30 546 H 49.9835 0.412931 -2.5133 0
M  V30 547 H 50.7665 -1.08368 -3.25747 0
M  V30 548 N 53.2116 1.57565 -0.0334293 0
M  V30 549 C 54.1616 2.06978 0.956237 0
M  V30 550 C 55.1456 0.971193 1.28283 0
M  V30 551 O 56.3376 1.23471 1.26822 0
M  V30 552 C 53.4666 2.60393 2.23719 0
M  V30 553 C 52.5526 3.7719 1.93877 0
M  V30 554 N 52.9436 4.87639 1.34321 0
M  V30 555 C 51.2416 3.85758 2.23845 0
M  V30 556 C 51.9426 5.68825 1.21709 0
M  V30 557 N 50.9186 5.1587 1.71404 0
M  V30 558 H 54.7206 2.89773 0.490815 0
M  V30 559 H 52.2346 1.61492 0.171478 0
M  V30 560 H 54.2316 2.94088 2.95496 0
M  V30 561 H 52.8916 1.79031 2.70884 0
M  V30 562 H 53.9026 5.07803 1.01767 0
M  V30 563 H 50.5796 3.1531 2.73653 0
M  V30 564 H 51.9696 6.67631 0.75621 0
M  V30 565 N 54.6897 -0.239769 1.55765 0
M  V30 566 C 55.6367 -1.29696 1.90913 0
M  V30 567 C 56.6067 -1.47478 0.764164 0
M  V30 568 O 57.7917 -1.61345 1.01845 0
M  V30 569 C 54.9317 -2.64598 2.21544 0
M  V30 570 C 54.0447 -2.54765 3.48882 0
M  V30 571 C 53.1797 -3.82069 3.69049 0
M  V30 572 C 52.2187 -3.66883 4.89963 0
M  V30 573 N 51.3557 -4.86094 5.06614 0
M  V30 574 H 56.1957 -0.990224 2.81067 0
M  V30 575 H 53.7327 -0.477684 1.39128 0
M  V30 576 H 55.6907 -3.43132 2.3731 0
M  V30 577 H 54.3207 -2.93405 1.34585 0
M  V30 578 H 53.3727 -1.67763 3.41409 0
M  V30 579 H 54.6847 -2.39457 4.37563 0
M  V30 580 H 53.8387 -4.69046 3.84812 0
M  V30 581 H 52.5777 -4.00282 2.78614 0
M  V30 582 H 51.5827 -2.78289 4.74168 0
M  V30 583 H 52.8077 -3.50157 5.81865 0
M  V30 584 H 50.7537 -5.04655 4.19117 0
M  V30 585 H 50.6707 -4.73443 5.89396 0
M  V30 586 H 51.9387 -5.74549 5.26795 0
M  V30 587 N 56.1678 -1.49265 -0.50573 0
M  V30 588 C 57.1308 -1.65075 -1.59006 0
M  V30 589 C 58.1308 -0.522768 -1.52065 0
M  V30 590 O 59.3208 -0.789117 -1.55302 0
M  V30 591 C 56.4528 -1.64369 -2.98656 0
M  V30 592 H 57.6458 -2.61784 -1.46319 0
M  V30 593 H 55.1988 -1.38226 -0.729616 0
M  V30 594 H 55.9338 -0.692272 -3.16825 0
M  V30 595 H 55.7188 -2.46282 -3.05103 0
M  V30 596 H 57.2088 -1.78674 -3.77446 0
M  V30 597 N 57.6459 0.756429 -1.3826 0
M  V30 598 C 58.5959 1.86069 -1.31766 0
M  V30 599 C 59.5799 1.59621 -0.202483 0
M  V30 600 O 60.7719 1.7149 -0.438211 0
M  V30 601 C 57.9009 3.23742 -1.1422 0
M  V30 602 C 56.9869 3.56091 -2.30348 0
M  V30 603 N 57.3779 3.59517 -3.55783 0
M  V30 604 C 55.6759 3.86341 -2.22838 0
M  V30 605 C 56.3769 3.89052 -4.32451 0
M  V30 606 N 55.3529 4.05736 -3.61772 0
M  V30 607 H 59.1549 1.86992 -2.26741 0
M  V30 608 H 56.6689 0.953643 -1.31451 0
M  V30 609 H 58.6659 4.02761 -1.07652 0
M  V30 610 H 57.3259 3.24073 -0.201763 0
M  V30 611 H 58.3369 3.41347 -3.89491 0
M  V30 612 H 55.0139 3.94404 -1.36937 0
M  V30 613 H 56.4039 3.98349 -5.4108 0
M  V30 614 N 59.124 1.23083 0.984299 0
M  V30 615 C 60.056 0.96636 2.07832 0
M  V30 616 C 61.069 -0.0582135 1.62696 0
M  V30 617 O 62.258 0.176843 1.77622 0
M  V30 618 C 59.358 0.433397 3.36117 0
M  V30 619 C 58.531 1.51722 4.10243 0
M  V30 620 C 57.59 0.989821 5.16807 0
M  V30 621 O 56.616 1.67794 5.43906 0
M  V30 622 N 57.818 -0.184367 5.80207 0
M  V30 623 H 60.583 1.90824 2.31098 0
M  V30 624 H 58.144 1.13888 1.1507 0
M  V30 625 H 60.136 0.065699 4.04647 0
M  V30 626 H 58.706 -0.413806 3.09849 0
M  V30 627 H 57.926 2.05786 3.36223 0
M  V30 628 H 59.214 2.24619 4.56534 0
M  V30 629 H 58.612 -0.760062 5.60571 0
M  V30 630 H 57.169 -0.493366 6.4993 0
M  V30 631 N 60.6021 -1.18246 1.0419 0
M  V30 632 C 61.5491 -2.2192 0.634037 0
M  V30 633 C 62.5191 -1.62179 -0.358765 0
M  V30 634 O 63.7041 -1.89122 -0.252466 0
M  V30 635 C 60.8441 -3.451 0.00445535 0
M  V30 636 C 59.9571 -4.19174 1.04487 0
M  V30 637 C 59.0921 -5.29813 0.383676 0
M  V30 638 C 58.1311 -5.9566 1.4091 0
M  V30 639 N 57.2681 -6.97834 0.772784 0
M  V30 640 H 62.1081 -2.56164 1.52263 0
M  V30 641 H 59.6451 -1.25843 0.761701 0
M  V30 642 H 61.6031 -4.15485 -0.377919 0
M  V30 643 H 60.2331 -3.11472 -0.847652 0
M  V30 644 H 59.2851 -3.47604 1.54518 0
M  V30 645 H 60.5971 -4.64267 1.82368 0
M  V30 646 H 59.7511 -6.06677 -0.0528366 0
M  V30 647 H 58.4901 -4.85825 -0.427208 0
M  V30 648 H 57.4951 -5.17535 1.85574 0
M  V30 649 H 58.7201 -6.4173 2.22171 0
M  V30 650 H 56.6661 -6.55998 -0.0177708 0
M  V30 651 H 56.5831 -7.41186 1.48928 0
M  V30 652 H 57.8511 -7.78665 0.36071 0
M  V30 653 N 62.0802 -0.821533 -1.34494 0
M  V30 654 C 63.0432 -0.247847 -2.27856 0
M  V30 655 C 64.0432 0.573453 -1.50227 0
M  V30 656 O 65.2332 0.389759 -1.69784 0
M  V30 657 C 62.3652 0.652698 -3.34593 0
M  V30 658 H 63.5582 -1.07146 -2.80107 0
M  V30 659 H 61.1112 -0.593291 -1.44602 0
M  V30 660 H 61.8462 1.49943 -2.87555 0
M  V30 661 H 61.6312 0.065292 -3.92046 0
M  V30 662 H 63.1212 1.04793 -4.04238 0
M  V30 663 N 63.5583 1.46682 -0.576371 0
M  V30 664 C 64.8043 2.02712 -0.0596221 0
M  V30 665 C 65.1373 1.44765 1.29448 0
M  V30 666 O 64.4123 0.610355 1.84675 0
M  V30 667 C 64.6953 3.60098 0.0129503 0
M  V30 668 C 64.5483 4.28441 -1.3696 0
M  V30 669 C 65.8673 4.34224 0.71678 0
M  V30 670 H 62.9863 0.736637 -0.0231407 0
M  V30 671 H 65.6283 1.74898 -0.742351 0
M  V30 672 H 63.7783 3.83926 0.594378 0
M  V30 673 H 65.4503 4.15896 -1.9957 0
M  V30 674 H 63.6933 3.8805 -1.93907 0
M  V30 675 H 64.3643 5.3716 -1.27135 0
M  V30 676 H 66.8403 4.15503 0.222908 0
M  V30 677 H 65.7163 5.43936 0.73657 0
M  V30 678 H 65.9773 4.04823 1.77682 0
M  V30 679 N 65.0364 0.313813 1.54444 0
M  V30 680 C 66.4474 -0.176243 1.85866 0
M  V30 681 C 66.7984 -1.52405 1.23561 0
M  V30 682 O 65.9234 -2.09605 0.538016 0
M  V30 683 C 66.5184 -0.32657 3.37222 0
M  V30 684 C 65.0774 -0.760846 3.6863 0
M  V30 685 C 64.2244 0.123247 2.77026 0
M  V30 686 H 67.1754 0.534418 1.49431 0
M  V30 687 H 67.1964 -1.15908 3.62416 0
M  V30 688 H 66.7084 0.654531 3.82541 0
M  V30 689 H 64.8094 -1.75204 3.28838 0
M  V30 690 H 64.9224 -0.571353 4.75681 0
M  V30 691 H 63.2864 -0.399597 2.51546 0
M  V30 692 H 64.0694 1.10094 3.25168 0
M  V30 693 N 66.5145 -1.57545 0.0417849 0
M  V30 694 C 67.7915 -1.83642 -0.673433 0
M  V30 695 C 68.1715 -0.928298 -1.89594 0
M  V30 696 O 67.5195 0.0129955 -2.28496 0
M  V30 697 C 67.7295 -3.33155 -1.03964 0
M  V30 698 C 69.0775 -3.99941 -1.42592 0
M  V30 699 O 70.1015 -3.37725 -1.13226 0
M  V30 700 O 68.9605 -5.09619 -1.9736 0
M  V30 701 H 66.0545 -0.757638 -0.331533 0
M  V30 702 H 68.6005 -1.69554 0.070433 0
M  V30 703 H 67.3725 -3.9093 -0.170098 0
M  V30 704 H 66.9955 -3.52396 -1.84126 0
M  V30 705 N 67.9926 0.231505 -1.5589 0
M  V30 706 C 69.2326 0.964533 -1.80211 0
M  V30 707 C 69.5966 1.81926 -0.613744 0
M  V30 708 O 70.7976 2.58526 -0.736045 0
M  V30 709 C 69.0686 1.78956 -3.09369 0
M  V30 710 S 70.6276 2.57959 -3.54969 0
M  V30 711 H 67.4456 0.324173 -0.632798 0
M  V30 712 H 70.0476 0.230985 -1.94131 0
M  V30 713 H 68.7516 1.15161 -3.93911 0
M  V30 714 H 68.2826 2.56559 -2.9823 0
M  V30 715 H 70.2976 3.81309 -3.17519 0
M  V30 716 N 69.4707 1.49531 0.497807 0
M  V30 717 C 70.4177 1.66436 1.59899 0
M  V30 718 C 71.3877 0.505793 1.58212 0
M  V30 719 O 72.5727 0.733202 1.7615 0
M  V30 720 C 69.7127 1.7399 2.98029 0
M  V30 721 C 68.8257 3.01172 3.09708 0
M  V30 722 C 67.9607 2.99686 4.38591 0
M  V30 723 C 66.9997 4.21434 4.43914 0
M  V30 724 N 66.1367 4.1784 5.64229 0
M  V30 725 H 70.9767 2.60459 1.44793 0
M  V30 726 H 68.5137 1.29137 0.704423 0
M  V30 727 H 70.4717 1.76352 3.78095 0
M  V30 728 H 69.1017 0.834301 3.11832 0
M  V30 729 H 68.1537 3.08408 2.22685 0
M  V30 730 H 69.4657 3.91165 3.09502 0
M  V30 731 H 68.6197 3.00628 5.2698 0
M  V30 732 H 67.3587 2.07477 4.41367 0
M  V30 733 H 66.3637 4.20733 3.53926 0
M  V30 734 H 67.5887 5.14839 4.42851 0
M  V30 735 H 65.5347 3.28469 5.67841 0
M  V30 736 H 65.4517 5.01571 5.65652 0
M  V30 737 H 66.7197 4.22889 6.54817 0
M  V30 738 N 70.9488 -0.749086 1.3866 0
M  V30 739 C 71.8958 -1.86291 1.36251 0
M  V30 740 C 72.8658 -1.64578 0.224347 0
M  V30 741 O 74.0508 -1.86181 0.417279 0
M  V30 742 C 71.1908 -3.23644 1.19786 0
M  V30 743 C 70.3038 -3.57158 2.43027 0
M  V30 744 C 69.4388 -4.83838 2.19258 0
M  V30 745 C 68.4778 -5.10152 3.38247 0
M  V30 746 N 67.6148 -6.28029 3.13884 0
M  V30 747 H 72.4548 -1.87685 2.3147 0
M  V30 748 H 69.9918 -0.917287 1.14997 0
M  V30 749 H 71.9498 -4.0291 1.08254 0
M  V30 750 H 70.5798 -3.21566 0.282031 0
M  V30 751 H 69.6318 -2.72701 2.65214 0
M  V30 752 H 70.9438 -3.7253 3.31697 0
M  V30 753 H 70.0978 -5.71057 2.04888 0
M  V30 754 H 68.8368 -4.70614 1.2796 0
M  V30 755 H 67.8418 -4.21401 3.53131 0
M  V30 756 H 69.0668 -5.25271 4.30427 0
M  V30 757 H 67.0128 -6.1612 2.25238 0
M  V30 758 H 66.9298 -6.43922 3.96106 0
M  V30 759 H 68.1978 -7.18124 3.03179 0
M  V30 760 N 72.4269 -1.23603 -0.977757 0
M  V30 761 C 73.6669 -1.08148 -1.73446 0
M  V30 762 C 74.0309 0.374785 -1.88307 0
M  V30 763 O 75.2319 0.650588 -2.60808 0
M  V30 764 C 73.5029 -1.78991 -3.0935 0
M  V30 765 S 75.0619 -1.79141 -4.00567 0
M  V30 766 H 71.8799 -0.386987 -0.596458 0
M  V30 767 H 74.4819 -1.5678 -1.16792 0
M  V30 768 H 73.1859 -2.8408 -2.96187 0
M  V30 769 H 72.7169 -1.30651 -3.71071 0
M  V30 770 H 74.7319 -0.851892 -4.88833 0
M  V30 771 N 73.905 1.17692 -1.04816 0
M  V30 772 C 74.855 2.1952 -0.616042 0
M  V30 773 C 75.839 1.57147 0.345485 0
M  V30 774 O 77.031 1.76245 0.163325 0
M  V30 775 C 74.16 3.43298 0.0116917 0
M  V30 776 C 73.246 4.12777 -0.973435 0
M  V30 777 N 73.637 4.5814 -2.14339 0
M  V30 778 C 71.935 4.38747 -0.80108 0
M  V30 779 C 72.636 5.11713 -2.7663 0
M  V30 780 N 71.612 5.03686 -2.04453 0
M  V30 781 H 75.414 2.52293 -1.5075 0
M  V30 782 H 72.928 1.3398 -0.917776 0
M  V30 783 H 74.925 4.15519 0.339006 0
M  V30 784 H 73.585 3.12018 0.898593 0
M  V30 785 H 74.596 4.52349 -2.52191 0
M  V30 786 H 71.273 4.17485 0.0350934 0
M  V30 787 H 72.663 5.56962 -3.75823 0
M  V30 788 N 75.3831 0.828654 1.34056 0
M  V30 789 C 76.2931 0.256725 2.33191 0
M  V30 790 C 77.3091 -0.611898 1.62886 0
M  V30 791 O 78.4851 -0.51844 1.94613 0
M  V30 792 C 75.5501 -0.567238 3.42028 0
M  V30 793 C 74.6111 0.324458 4.28072 0
M  V30 794 C 73.8441 -0.460274 5.31712 0
M  V30 795 O 74.0671 -1.693 5.44696 0
M  V30 796 O 73.0011 0.160391 6.01686 0
M  V30 797 H 76.8271 1.07739 2.83947 0
M  V30 798 H 74.4121 0.59093 1.37217 0
M  V30 799 H 76.2941 -1.03582 4.08471 0
M  V30 800 H 74.9691 -1.36513 2.93506 0
M  V30 801 H 73.8761 0.840659 3.64532 0
M  V30 802 H 75.2091 1.08685 4.8005 0
M  V30 803 N 76.8612 -1.46375 0.584142 0
M  V30 804 C 77.8082 -2.30323 -0.148286 0
M  V30 805 C 78.7782 -1.40703 -0.882713 0
M  V30 806 O 79.9632 -1.69651 -0.873099 0
M  V30 807 C 77.1032 -3.25196 -1.15507 0
M  V30 808 C 76.2162 -4.29915 -0.423943 0
M  V30 809 C 75.3512 -5.11914 -1.41838 0
M  V30 810 C 74.3902 -6.08381 -0.673736 0
M  V30 811 N 73.5272 -6.83242 -1.6163 0
M  V30 812 H 78.3672 -2.92427 0.573644 0
M  V30 813 H 75.9042 -1.44118 0.294703 0
M  V30 814 H 77.8622 -3.78646 -1.75166 0
M  V30 815 H 76.4922 -2.64898 -1.8447 0
M  V30 816 H 75.5442 -3.7931 0.287714 0
M  V30 817 H 76.8562 -4.98549 0.158128 0
M  V30 818 H 76.0102 -5.69648 -2.08773 0
M  V30 819 H 74.7492 -4.43243 -2.03438 0
M  V30 820 H 73.7542 -5.49799 0.00938483 0
M  V30 821 H 74.9792 -6.79071 -0.0631082 0
M  V30 822 H 72.9252 -6.1728 -2.22038 0
M  V30 823 H 72.8422 -7.48144 -1.08707 0
M  V30 824 H 74.1102 -7.45534 -2.27596 0
M  V30 825 N 78.3393 -0.321999 -1.54275 0
M  V30 826 C 79.5873 0.280489 -2.00144 0
M  V30 827 C 79.9083 1.52777 -1.21178 0
M  V30 828 O 79.1783 1.9338 -0.313187 0
M  V30 829 H 77.7583 0.106632 -0.73935 0
M  V30 830 H 80.4203 -0.438184 -1.8991 0
M  V30 831 H 79.5163 0.537972 -3.07428 0
M  V30 832 N 79.8174 1.5752 -0.0501392 0
M  V30 833 C 81.2284 1.80271 0.485705 0
M  V30 834 C 81.5794 0.96228 1.70981 0
M  V30 835 O 80.7044 0.178578 2.15662 0
M  V30 836 C 81.2994 3.26957 0.887938 0
M  V30 837 C 79.8584 3.5063 1.36877 0
M  V30 838 C 79.0054 2.75165 0.343468 0
M  V30 839 H 81.9564 1.56281 -0.276028 0
M  V30 840 H 81.9774 3.37821 1.75093 0
M  V30 841 H 81.4894 3.881 -0.0031809 0
M  V30 842 H 79.5904 2.94766 2.27911 0
M  V30 843 H 79.7034 4.59343 1.36164 0
M  V30 844 H 78.0674 2.4127 0.816128 0
M  V30 845 H 78.8504 3.39034 -0.539548 0
M  V30 846 N 81.2955 -0.223234 1.56011 0
M  V30 847 C 82.5435 -0.946003 1.78592 0
M  V30 848 C 82.8645 -1.84936 0.618349 0
M  V30 849 O 82.1345 -1.92473 -0.364833 0
M  V30 850 H 80.7145 -0.352298 0.658707 0
M  V30 851 H 83.3765 -0.235494 1.93472 0
M  V30 852 H 82.4725 -1.55381 2.70672 0
M  V30 853 N 82.7736 -1.49793 -0.48987 0
M  V30 854 C 83.7206 -1.67281 -1.59014 0
M  V30 855 C 84.6906 -0.514177 -1.57941 0
M  V30 856 O 85.8756 -0.742533 -1.75759 0
M  V30 857 C 83.0156 -1.75569 -2.97102 0
M  V30 858 C 82.1286 -3.0281 -3.08107 0
M  V30 859 C 81.2636 -3.02008 -4.36995 0
M  V30 860 C 80.3026 -4.23782 -4.41673 0
M  V30 861 N 79.4396 -4.20826 -5.62005 0
M  V30 862 H 84.2796 -2.61224 -1.43409 0
M  V30 863 H 81.8166 -1.29508 -0.697565 0
M  V30 864 H 83.7746 -1.78354 -3.77155 0
M  V30 865 H 82.4046 -0.850827 -3.11385 0
M  V30 866 H 81.4566 -3.09584 -2.21047 0
M  V30 867 H 82.7686 -3.92801 -3.07423 0
M  V30 868 H 81.9226 -3.03418 -5.25378 0
M  V30 869 H 80.6616 -2.09815 -4.4026 0
M  V30 870 H 79.6666 -4.22604 -3.5169 0
M  V30 871 H 80.8916 -5.17181 -4.40115 0
M  V30 872 H 78.8376 -3.31476 -5.66091 0
M  V30 873 H 78.7546 -5.04564 -5.62984 0
M  V30 874 H 80.0226 -4.26355 -6.52565 0
M  V30 875 N 84.2517 0.741722 -1.39055 0
M  V30 876 C 85.5007 1.49656 -1.35225 0
M  V30 877 C 85.8137 1.95533 0.0512708 0
M  V30 878 O 87.0197 2.7067 0.212138 0
M  V30 879 C 85.4757 2.70389 -2.37525 0
M  V30 880 C 85.0837 2.31489 -3.83558 0
M  V30 881 C 86.8277 3.48236 -2.42759 0
M  V30 882 C 84.7347 3.48903 -4.77515 0
M  V30 883 H 83.6647 0.56197 -0.502699 0
M  V30 884 H 86.3157 0.809727 -1.64668 0
M  V30 885 H 84.6977 3.41113 -2.01142 0
M  V30 886 H 85.8717 1.68354 -4.28945 0
M  V30 887 H 84.1867 1.66749 -3.81554 0
M  V30 888 H 86.7837 4.35558 -3.1015 0
M  V30 889 H 87.1267 3.90229 -1.45008 0
M  V30 890 H 87.6597 2.84535 -2.78002 0
M  V30 891 H 84.3987 3.11966 -5.76504 0
M  V30 892 H 83.9187 4.11041 -4.36813 0
M  V30 893 H 85.5977 4.15328 -4.96096 0
M  V30 894 N 85.7298 1.2412 0.971189 0
M  V30 895 C 86.6398 1.04747 2.09917 0
M  V30 896 C 87.6558 -0.0107162 1.73997 0
M  V30 897 O 88.8318 0.186714 2.00533 0
M  V30 898 C 85.8968 0.650828 3.40537 0
M  V30 899 C 84.9578 1.7851 3.90426 0
M  V30 900 C 84.1908 1.40729 5.14812 0
M  V30 901 O 84.4138 0.29557 5.69634 0
M  V30 902 O 83.3478 2.23168 5.58999 0
M  V30 903 H 87.1738 1.99304 2.29154 0
M  V30 904 H 84.7588 1.02908 1.08307 0
M  V30 905 H 86.6408 0.440992 4.19086 0
M  V30 906 H 85.3158 -0.265649 3.22608 0
M  V30 907 H 84.2228 2.04966 3.12953 0
M  V30 908 H 85.5558 2.68023 4.12825 0
M  V30 909 N 87.2079 -1.17134 1.05439 0
M  V30 910 C 88.4559 -1.87085 0.764429 0
M  V30 911 C 88.7769 -1.81584 -0.710787 0
M  V30 912 O 88.0469 -1.24349 -1.51374 0
M  V30 913 H 86.6269 -0.692627 0.279779 0
M  V30 914 H 89.2889 -1.42087 1.33406 0
M  V30 915 H 88.3849 -2.92759 1.0816 0
M  V30 916 N 88.686 -0.835752 -1.33615 0
M  V30 917 C 89.933 -0.429959 -1.97883 0
M  V30 918 C 90.261 1.01006 -1.66217 0
M  V30 919 O 89.516 1.72047 -0.93265 0
M  V30 920 C 89.815 -0.593925 -3.52431 0
M  V30 921 C 89.481 -2.00158 -4.04039 0
M  V30 922 C 88.143 -2.38662 -4.17844 0
M  V30 923 C 90.495 -2.92117 -4.31644 0
M  V30 924 C 87.823 -3.68435 -4.56588 0
M  V30 925 C 90.175 -4.21368 -4.71838 0
M  V30 926 C 88.839 -4.59833 -4.83849 0
M  V30 927 H 88.109 -0.157333 -0.724104 0
M  V30 928 H 90.756 -1.06217 -1.59343 0
M  V30 929 H 89.061 0.121619 -3.91611 0
M  V30 930 H 90.758 -0.260282 -4.00154 0
M  V30 931 H 87.348 -1.69252 -3.93766 0
M  V30 932 H 91.532 -2.63608 -4.20505 0
M  V30 933 H 86.788 -3.98046 -4.64079 0
M  V30 934 H 90.962 -4.92703 -4.92155 0
M  V30 935 H 88.589 -5.60438 -5.13627 0
M  V30 936 N 90.1641 1.46063 -0.591896 0
M  V30 937 C 91.4121 2.01938 -0.0808391 0
M  V30 938 C 91.7331 1.46475 1.28725 0
M  V30 939 O 91.0031 0.652944 1.84698 0
M  V30 940 H 89.5831 0.746516 -0.0268938 0
M  V30 941 H 92.2451 1.79055 -0.769752 0
M  V30 942 H 91.3411 3.12094 -0.0187578 0
M  V30 943 N 91.6422 0.330177 1.54103 0
M  V30 944 C 92.5892 -0.532762 2.24567 0
M  V30 945 C 93.5592 -1.10635 1.23892 0
M  V30 946 O 94.7442 -1.14546 1.5259 0
M  V30 947 C 91.8842 -1.6845 3.01195 0
M  V30 948 C 90.9972 -1.13951 4.167 0
M  V30 949 C 90.1322 -2.25746 4.80845 0
M  V30 950 C 89.1712 -1.6853 5.88442 0
M  V30 951 N 88.3082 -2.74014 6.46421 0
M  V30 952 H 93.1482 0.0746905 2.97906 0
M  V30 953 H 90.6852 0.048632 1.4702 0
M  V30 954 H 92.6432 -2.36234 3.43874 0
M  V30 955 H 91.2732 -2.26314 2.30178 0
M  V30 956 H 90.3252 -0.35301 3.78758 0
M  V30 957 H 91.6372 -0.680892 4.94131 0
M  V30 958 H 90.7912 -3.01422 5.26526 0
M  V30 959 H 89.5302 -2.74947 4.0281 0
M  V30 960 H 88.5352 -0.913543 5.42157 0
M  V30 961 H 89.7602 -1.20198 6.68378 0
M  V30 962 H 87.7062 -3.22494 5.71256 0
M  V30 963 H 87.6232 -2.32735 7.19285 0
M  V30 964 H 88.8912 -3.49499 6.96757 0
M  V30 965 N 93.1203 -1.57491 0.0584922 0
M  V30 966 C 94.0303 -2.15448 -0.928414 0
M  V30 967 C 95.0463 -1.11416 -1.3365 0
M  V30 968 O 96.2223 -1.4362 -1.41193 0
M  V30 969 C 93.2873 -2.69393 -2.18239 0
M  V30 970 C 92.3483 -3.88249 -1.83196 0
M  V30 971 C 91.5813 -4.39613 -3.02616 0
M  V30 972 O 91.8043 -3.90023 -4.16219 0
M  V30 973 O 90.7383 -5.31111 -2.83204 0
M  V30 974 H 94.5643 -3.00112 -0.465483 0
M  V30 975 H 92.1493 -1.48499 -0.163826 0
M  V30 976 H 94.0313 -3.04026 -2.91798 0
M  V30 977 H 92.7063 -1.87796 -2.63656 0
M  V30 978 H 91.6133 -3.58492 -1.06931 0
M  V30 979 H 92.9463 -4.71098 -1.42573 0
M  V30 980 N 94.5984 0.214957 -1.56127 0
M  V30 981 C 95.5314 1.29382 -1.87977 0
M  V30 982 C 96.5094 1.44897 -0.737807 0
M  V30 983 O 97.6934 1.60605 -0.986833 0
M  V30 984 C 94.8204 2.66325 -2.09258 0
M  V30 985 C 93.8664 2.67789 -3.31951 0
M  V30 986 S 94.6994 2.21198 -4.8768 0
M  V30 987 C 95.8554 3.60003 -5.12004 0
M  V30 988 H 96.0884 1.02173 -2.79192 0
M  V30 989 H 93.6214 0.417516 -1.48648 0
M  V30 990 H 95.5794 3.45162 -2.22201 0
M  V30 991 H 94.2404 2.90755 -1.18829 0
M  V30 992 H 93.4334 3.68436 -3.43906 0
M  V30 993 H 93.0354 1.9702 -3.17898 0
M  V30 994 H 95.3274 4.55739 -5.01307 0
M  V30 995 H 96.2704 3.52959 -6.13861 0
M  V30 996 H 96.6784 3.53996 -4.39712 0
M  V30 997 N 96.0765 1.50051 0.48192 0
M  V30 998 C 97.0395 1.67584 1.5636 0
M  V30 999 C 98.0395 0.546894 1.51214 0
M  V30 1000 O 99.2295 0.813725 1.54026 0
M  V30 1001 C 96.3615 1.691 2.96003 0
M  V30 1002 H 97.5545 2.64078 1.42136 0
M  V30 1003 H 95.1075 1.39369 0.707533 0
M  V30 1004 H 95.8425 0.742589 3.15684 0
M  V30 1005 H 95.6275 2.51105 3.01146 0
M  V30 1006 H 97.1175 1.84656 3.74556 0
M  V30 1007 N 97.5546 -0.734337 1.39446 0
M  V30 1008 C 98.5046 -1.83949 1.34709 0
M  V30 1009 C 99.4886 -1.59279 0.227851 0
M  V30 1010 O 100.681 -1.70771 0.465438 0
M  V30 1011 C 97.8096 -3.21884 1.19356 0
M  V30 1012 C 96.8956 -3.52381 2.35984 0
M  V30 1013 N 97.2866 -3.53811 3.61457 0
M  V30 1014 C 95.5846 -3.82747 2.28956 0
M  V30 1015 C 96.2856 -3.82122 4.38586 0
M  V30 1016 N 95.2616 -3.9993 3.68181 0
M  V30 1017 H 99.0636 -1.83361 2.29687 0
M  V30 1018 H 96.5776 -0.932609 1.32952 0
M  V30 1019 H 98.5746 -4.00998 1.14046 0
M  V30 1020 H 97.2346 -3.23711 0.253295 0
M  V30 1021 H 98.2456 -3.35107 3.94872 0
M  V30 1022 H 94.9226 -3.92175 1.43194 0
M  V30 1023 H 96.3126 -3.89691 5.47349 0
M  V30 1024 N 99.0327 -1.24633 -0.964593 0
M  V30 1025 C 100.281 -1.08573 -1.70459 0
M  V30 1026 C 100.602 0.375655 -1.91347 0
M  V30 1027 O 99.8717 1.26779 -1.49345 0
M  V30 1028 H 98.4517 -0.398784 -0.631649 0
M  V30 1029 H 101.114 -1.56601 -1.16026 0
M  V30 1030 H 100.21 -1.58623 -2.68785 0
M  V30 1031 N 100.511 1.16574 -1.06058 0
M  V30 1032 C 101.458 2.20883 -0.669263 0
M  V30 1033 C 102.428 1.62729 0.332918 0
M  V30 1034 O 103.613 1.895 0.222346 0
M  V30 1035 C 100.753 3.45049 -0.0593572 0
M  V30 1036 C 99.8658 4.17458 -1.11143 0
M  V30 1037 C 99.0008 5.29135 -0.467916 0
M  V30 1038 C 98.0398 5.93343 -1.50369 0
M  V30 1039 N 97.1768 6.96516 -0.883706 0
M  V30 1040 H 102.017 2.53709 -1.5632 0
M  V30 1041 H 99.5538 1.24616 -0.781625 0
M  V30 1042 H 101.512 4.16033 0.311771 0
M  V30 1043 H 100.142 3.12781 0.797992 0
M  V30 1044 H 99.1938 3.45101 -1.60029 0
M  V30 1045 H 100.506 4.61307 -1.89731 0
M  V30 1046 H 99.6598 6.06684 -0.0436871 0
M  V30 1047 H 98.3988 4.86443 0.349864 0
M  V30 1048 H 97.4038 5.14517 -1.93784 0
M  V30 1049 H 98.6288 6.38114 -2.32352 0
M  V30 1050 H 96.5748 6.55943 -0.086595 0
M  V30 1051 H 96.4918 7.38723 -1.607 0
M  V30 1052 H 97.7598 7.77993 -0.484543 0
M  V30 1053 N 101.989 0.842826 1.3317 0
M  V30 1054 C 103.237 0.439577 1.97262 0
M  V30 1055 C 103.558 -1.00548 1.67078 0
M  V30 1056 O 102.828 -1.70098 0.971779 0
M  V30 1057 H 101.408 0.159558 0.72976 0
M  V30 1058 H 104.07 1.07665 1.62463 0
M  V30 1059 H 103.166 0.574886 3.0676 0
M  V30 1060 N 103.467 -1.45747 0.599634 0
M  V30 1061 C 104.707 -2.04181 0.0946309 0
M  V30 1062 C 105.071 -1.45895 -1.24815 0
M  V30 1063 O 106.272 -1.95633 -1.8434 0
M  V30 1064 C 104.543 -3.57368 0.047581 0
M  V30 1065 S 106.102 -4.36997 -0.397387 0
M  V30 1066 H 102.92 -0.70953 0.0456954 0
M  V30 1067 H 105.522 -1.78564 0.795946 0
M  V30 1068 H 104.226 -3.97303 1.02852 0
M  V30 1069 H 103.757 -3.87549 -0.675977 0
M  V30 1070 H 105.772 -4.68012 -1.64862 0
M  V30 1071 N 104.945 -0.338344 -1.53925 0
M  V30 1072 C 105.892 0.520845 -2.24846 0
M  V30 1073 C 106.862 1.09976 -1.24477 0
M  V30 1074 O 108.047 1.13735 -1.53196 0
M  V30 1075 C 105.187 1.6685 -3.02084 0
M  V30 1076 C 104.3 1.11739 -4.17299 0
M  V30 1077 C 103.435 2.23193 -4.82036 0
M  V30 1078 C 102.474 1.65407 -5.89328 0
M  V30 1079 N 101.611 2.70582 -6.47866 0
M  V30 1080 H 106.451 -0.0904881 -2.97863 0
M  V30 1081 H 103.988 -0.0564282 -1.46992 0
M  V30 1082 H 105.946 2.34407 -3.45122 0
M  V30 1083 H 104.576 2.2509 -2.31375 0
M  V30 1084 H 103.628 0.332919 -3.7894 0
M  V30 1085 H 104.94 0.654677 -4.94485 0
M  V30 1086 H 104.094 2.98626 -5.28117 0
M  V30 1087 H 102.833 2.72807 -4.04262 0
M  V30 1088 H 101.838 0.884779 -5.42634 0
M  V30 1089 H 103.063 1.16652 -6.69006 0
M  V30 1090 H 101.009 3.1946 -5.72959 0
M  V30 1091 H 100.926 2.28917 -7.20509 0
M  V30 1092 H 102.194 3.45799 -6.98601 0
M  V30 1093 N 106.423 1.57458 -0.0668435 0
M  V30 1094 C 107.671 1.92919 0.602214 0
M  V30 1095 C 107.992 0.947215 1.70449 0
M  V30 1096 O 107.262 -0.00544117 1.95899 0
M  V30 1097 H 105.842 0.71217 0.22544 0
M  V30 1098 H 108.504 1.94508 -0.123535 0
M  V30 1099 H 107.6 2.94589 1.03073 0
M  V30 1100 N 107.901 -0.206675 1.56239 0
M  V30 1101 C 109.141 -0.93574 1.81723 0
M  V30 1102 C 109.505 -1.80927 0.642609 0
M  V30 1103 O 110.706 -2.57323 0.777081 0
M  V30 1104 C 108.977 -1.74012 3.12177 0
M  V30 1105 S 110.536 -2.52279 3.59028 0
M  V30 1106 H 107.354 -0.314065 0.637875 0
M  V30 1107 H 109.956 -0.200071 1.94474 0
M  V30 1108 H 108.66 -1.0888 3.95693 0
M  V30 1109 H 108.191 -2.51782 3.02274 0
M  V30 1110 H 110.206 -3.76209 3.23545 0
M  V30 1111 N 109.379 -1.50304 -0.473955 0
M  V30 1112 C 110.329 -1.65347 -1.56985 0
M  V30 1113 C 111.313 -0.508176 -1.52664 0
M  V30 1114 O 112.505 -0.762446 -1.59737 0
M  V30 1115 C 109.634 -1.74832 -2.95447 0
M  V30 1116 C 108.72 -2.95028 -3.04662 0
M  V30 1117 N 109.111 -4.18747 -2.83698 0
M  V30 1118 C 107.409 -2.93527 -3.35795 0
M  V30 1119 C 108.11 -4.99687 -2.97805 0
M  V30 1120 N 107.086 -4.33585 -3.2788 0
M  V30 1121 H 110.888 -2.58698 -1.39472 0
M  V30 1122 H 108.402 -1.47449 -0.680629 0
M  V30 1123 H 110.399 -1.83712 -3.7424 0
M  V30 1124 H 109.059 -0.826376 -3.14008 0
M  V30 1125 H 110.07 -4.48291 -2.59337 0
M  V30 1126 H 106.747 -2.10821 -3.60362 0
M  V30 1127 H 108.137 -6.08057 -2.85861 0
M  V30 1128 N 110.857 0.726932 -1.39834 0
M  V30 1129 C 111.767 1.87131 -1.41489 0
M  V30 1130 C 112.783 1.71239 -0.308757 0
M  V30 1131 O 113.959 1.93701 -0.551529 0
M  V30 1132 C 111.024 3.22811 -1.26468 0
M  V30 1133 C 110.085 3.51039 -2.47124 0
M  V30 1134 C 109.318 4.80245 -2.3281 0
M  V30 1135 O 109.541 5.54537 -1.33585 0
M  V30 1136 O 108.475 5.08554 -3.21957 0
M  V30 1137 H 112.301 1.8869 -2.3797 0
M  V30 1138 H 109.886 0.875837 -1.21035 0
M  V30 1139 H 111.768 4.03877 -1.20255 0
M  V30 1140 H 110.443 3.22005 -0.330862 0
M  V30 1141 H 109.35 2.70027 -2.58914 0
M  V30 1142 H 110.683 3.56632 -3.39227 0
M  V30 1143 N 112.336 1.25143 0.95797 0
M  V30 1144 C 113.246 1.06968 2.08794 0
M  V30 1145 C 114.262 0.00773911 1.73998 0
M  V30 1146 O 115.438 0.207972 2.00323 0
M  V30 1147 C 112.503 0.68691 3.39827 0
M  V30 1148 C 111.564 1.82641 3.88511 0
M  V30 1149 C 110.797 1.46181 5.1329 0
M  V30 1150 O 111.02 0.355971 5.69288 0
M  V30 1151 O 109.954 2.29085 5.566 0
M  V30 1152 H 113.78 2.01723 2.27027 0
M  V30 1153 H 111.365 1.04051 1.07209 0
M  V30 1154 H 113.247 0.485417 4.18595 0
M  V30 1155 H 111.922 -0.231417 3.22872 0
M  V30 1156 H 110.829 2.08274 3.10762 0
M  V30 1157 H 112.162 2.72386 4.09959 0
M  V30 1158 N 113.814 -1.1601 1.06675 0
M  V30 1159 C 114.747 -2.1947 0.625168 0
M  V30 1160 C 115.725 -1.58699 -0.354041 0
M  V30 1161 O 116.909 -1.86669 -0.262098 0
M  V30 1162 C 114.036 -3.38598 -0.0829593 0
M  V30 1163 C 113.082 -4.1787 0.853611 0
M  V30 1164 S 113.915 -4.81135 2.35094 0
M  V30 1165 C 115.071 -6.03639 1.65441 0
M  V30 1166 H 115.304 -2.56587 1.50168 0
M  V30 1167 H 112.837 -1.26862 0.880078 0
M  V30 1168 H 114.795 -4.07621 -0.485288 0
M  V30 1169 H 113.456 -2.99839 -0.935716 0
M  V30 1170 H 112.649 -5.03078 0.304755 0
M  V30 1171 H 112.251 -3.54361 1.196 0
M  V30 1172 H 114.543 -6.70632 0.962201 0
M  V30 1173 H 115.486 -6.63081 2.48454 0
M  V30 1174 H 115.894 -5.52965 1.13534 0
M  V30 1175 N 115.292 -0.849877 -1.32721 0
M  V30 1176 C 116.239 -0.289033 -2.28983 0
M  V30 1177 C 117.209 0.601324 -1.54833 0
M  V30 1178 O 118.394 0.537253 -1.8308 0
M  V30 1179 C 115.534 0.520623 -3.4115 0
M  V30 1180 C 114.647 -0.394989 -4.3019 0
M  V30 1181 C 113.782 0.426834 -5.29482 0
M  V30 1182 C 112.821 -0.486476 -6.10164 0
M  V30 1183 N 111.958 0.297879 -7.01468 0
M  V30 1184 H 116.798 -1.11519 -2.76347 0
M  V30 1185 H 114.335 -0.56138 -1.35967 0
M  V30 1186 H 116.293 1.00563 -4.04899 0
M  V30 1187 H 114.923 1.31165 -2.9495 0
M  V30 1188 H 113.975 -0.99836 -3.67065 0
M  V30 1189 H 115.287 -1.09612 -4.86607 0
M  V30 1190 H 114.441 0.975205 -5.98811 0
M  V30 1191 H 113.18 1.16136 -4.73671 0
M  V30 1192 H 112.185 -1.04677 -5.39743 0
M  V30 1193 H 113.41 -1.21953 -6.6806 0
M  V30 1194 H 111.356 1.01558 -6.48091 0
M  V30 1195 H 111.273 -0.344318 -7.55216 0
M  V30 1196 H 112.541 0.828131 -7.75089 0
M  V30 1197 N 116.77 1.45427 -0.607355 0
M  V30 1198 C 117.717 2.3053 0.111625 0
M  V30 1199 C 118.687 1.4209 0.860216 0
M  V30 1200 O 119.872 1.71019 0.845998 0
M  V30 1201 C 117.012 3.26992 1.10319 0
M  V30 1202 C 116.125 4.30535 0.355493 0
M  V30 1203 C 115.26 5.14105 1.33676 0
M  V30 1204 C 114.299 6.09376 0.576862 0
M  V30 1205 N 113.436 6.85727 1.5074 0
M  V30 1206 H 118.276 2.91477 -0.620093 0
M  V30 1207 H 115.813 1.43631 -0.317594 0
M  V30 1208 H 117.771 3.81385 1.6912 0
M  V30 1209 H 116.401 2.67799 1.80232 0
M  V30 1210 H 115.453 3.78805 -0.348023 0
M  V30 1211 H 116.765 4.98235 -0.237423 0
M  V30 1212 H 115.919 5.72897 1.99684 0
M  V30 1213 H 114.658 4.46423 1.9636 0
M  V30 1214 H 113.663 5.49715 -0.0968519 0
M  V30 1215 H 114.888 6.79085 -0.0449341 0
M  V30 1216 H 112.834 6.20735 2.12189 0
M  V30 1217 H 112.751 7.49778 0.967913 0
M  V30 1218 H 114.019 7.4906 2.15706 0
M  V30 1219 N 118.248 0.346503 1.53744 0
M  V30 1220 C 119.496 -0.248612 2.00565 0
M  V30 1221 C 119.817 -1.5083 1.23593 0
M  V30 1222 O 119.087 -1.92858 0.343912 0
M  V30 1223 H 117.667 -0.0948564 0.740953 0
M  V30 1224 H 120.329 0.468341 1.89189 0
M  V30 1225 H 119.425 -0.488994 3.08245 0
M  V30 1226 N 119.726 -1.57421 0.075193 0
M  V30 1227 C 121.137 -1.81021 -0.456964 0
M  V30 1228 C 121.488 -0.98936 -1.69429 0
M  V30 1229 O 120.613 -0.212865 -2.15351 0
M  V30 1230 C 121.208 -3.28329 -0.83581 0
M  V30 1231 C 119.767 -3.52764 -1.31281 0
M  V30 1232 C 118.914 -2.75676 -0.299648 0
M  V30 1233 H 121.865 -1.55822 0.300856 0
M  V30 1234 H 121.886 -3.40564 -1.69696 0
M  V30 1235 H 121.398 -3.88046 0.0649238 0
M  V30 1236 H 119.499 -2.98355 -2.23193 0
M  V30 1237 H 119.612 -4.61451 -1.28839 0
M  V30 1238 H 117.976 -2.42538 -0.777641 0
M  V30 1239 H 118.759 -3.38132 0.593417 0
M  V30 1240 N 121.204 0.198386 -1.56346 0
M  V30 1241 C 122.432 0.935572 -1.84539 0
M  V30 1242 C 122.847 1.76989 -0.657281 0
M  V30 1243 O 122.204 1.78626 0.374043 0
M  V30 1244 C 122.255 1.8344 -3.11499 0
M  V30 1245 O 121.976 1.03377 -4.25728 0
M  V30 1246 C 123.477 2.68355 -3.52846 0
M  V30 1247 H 120.697 0.273126 -0.612897 0
M  V30 1248 H 123.241 0.20663 -2.03453 0
M  V30 1249 H 121.396 2.51701 -2.94492 0
M  V30 1250 H 121.81 1.64599 -4.98003 0
M  V30 1251 H 123.284 3.27085 -4.44657 0
M  V30 1252 H 123.761 3.41901 -2.75681 0
M  V30 1253 H 124.367 2.05471 -3.72373 0
M  V30 1254 N 122.682 1.50554 0.465978 0
M  V30 1255 C 123.629 1.6979 1.56333 0
M  V30 1256 C 124.599 0.539239 1.57103 0
M  V30 1257 O 125.784 0.770401 1.74555 0
M  V30 1258 C 122.924 1.80273 2.94271 0
M  V30 1259 C 122.037 3.07674 3.0325 0
M  V30 1260 C 121.172 3.08922 4.32135 0
M  V30 1261 C 120.211 4.30755 4.34875 0
M  V30 1262 N 119.348 4.29714 5.55239 0
M  V30 1263 H 124.188 2.63472 1.39235 0
M  V30 1264 H 121.725 1.30602 0.676873 0
M  V30 1265 H 123.683 1.84332 3.74269 0
M  V30 1266 H 122.313 0.900258 3.09992 0
M  V30 1267 H 121.365 3.13062 2.16094 0
M  V30 1268 H 122.677 3.97642 3.01135 0
M  V30 1269 H 121.831 3.11738 5.20485 0
M  V30 1270 H 120.57 2.16792 4.36866 0
M  V30 1271 H 119.575 4.28146 3.44922 0
M  V30 1272 H 120.8 5.24117 4.31831 0
M  V30 1273 H 118.746 3.4044 5.60746 0
M  V30 1274 H 118.663 5.13456 5.54886 0
M  V30 1275 H 119.931 4.36683 6.457 0
M  V30 1276 N 124.16 -0.719506 1.40217 0
M  V30 1277 C 125.4 -1.49181 1.39729 0
M  V30 1278 C 125.764 -1.92 -0.00250614 0
M  V30 1279 O 126.965 -2.68473 -0.132479 0
M  V30 1280 C 125.236 -2.68767 2.35582 0
M  V30 1281 S 126.795 -3.58224 2.53418 0
M  V30 1282 H 123.613 -0.510091 0.495307 0
M  V30 1283 H 126.215 -0.841724 1.76452 0
M  V30 1284 H 124.919 -2.35475 3.36124 0
M  V30 1285 H 124.45 -3.38691 2.0013 0
M  V30 1286 H 126.465 -4.63033 1.78367 0
M  V30 1287 N 125.638 -1.25649 -0.95132 0
M  V30 1288 C 126.886 -1.10375 -1.69298 0
M  V30 1289 C 127.207 0.355339 -1.91735 0
M  V30 1290 O 126.477 1.25188 -1.50681 0
M  V30 1291 H 125.057 -0.405461 -0.627384 0
M  V30 1292 H 127.719 -1.57823 -1.14358 0
M  V30 1293 H 126.815 -1.61465 -2.67087 0
M  V30 1294 N 127.117 1.15442 -1.07289 0
M  V30 1295 C 128.027 2.23786 -0.704057 0
M  V30 1296 C 129.043 1.7166 0.284413 0
M  V30 1297 O 130.219 2.00972 0.131205 0
M  V30 1298 C 127.284 3.46535 -0.106792 0
M  V30 1299 C 126.345 4.13654 -1.14842 0
M  V30 1300 C 125.578 5.30544 -0.57956 0
M  V30 1301 O 125.801 5.67187 0.604585 0
M  V30 1302 O 124.735 5.87154 -1.32414 0
M  V30 1303 H 128.561 2.57664 -1.60757 0
M  V30 1304 H 126.146 1.23152 -0.845803 0
M  V30 1305 H 128.028 4.20804 0.224048 0
M  V30 1306 H 126.703 3.14407 0.770049 0
M  V30 1307 H 125.61 3.4131 -1.5316 0
M  V30 1308 H 126.943 4.49861 -1.99714 0
M  V30 1309 N 128.595 0.856903 1.32268 0
M  V30 1310 C 129.835 0.467705 1.98977 0
M  V30 1311 C 130.199 -0.959231 1.66321 0
M  V30 1312 O 131.4 -1.4531 2.26138 0
M  V30 1313 C 129.671 0.70256 3.50427 0
M  V30 1314 S 131.23 0.411269 4.36868 0
M  V30 1315 H 128.048 0.175121 0.689096 0
M  V30 1316 H 130.65 1.1101 1.60925 0
M  V30 1317 H 129.354 1.74012 3.71683 0
M  V30 1318 H 128.885 0.0466707 3.93372 0
M  V30 1319 H 130.9 -0.761799 4.90317 0
M  V30 1320 N 130.073 -1.45103 0.615059 0
M  V30 1321 C 131.023 -2.27679 -0.120966 0
M  V30 1322 C 132.007 -1.3775 -0.831491 0
M  V30 1323 O 133.199 -1.61683 -0.720249 0
M  V30 1324 C 130.328 -3.24767 -1.1127 0
M  V30 1325 C 129.414 -4.22184 -0.402627 0
M  V30 1326 N 129.805 -5.02692 0.559884 0
M  V30 1327 C 128.103 -4.4125 -0.649202 0
M  V30 1328 C 128.804 -5.73421 0.977942 0
M  V30 1329 N 127.78 -5.42657 0.320104 0
M  V30 1330 H 131.582 -2.87325 0.618181 0
M  V30 1331 H 129.096 -1.56345 0.439304 0
M  V30 1332 H 131.093 -3.82666 -1.65446 0
M  V30 1333 H 129.753 -2.66682 -1.85232 0
M  V30 1334 H 130.764 -5.09354 0.936976 0
M  V30 1335 H 127.441 -3.9428 -1.37293 0
M  V30 1336 H 128.831 -6.48107 1.77222 0
M  V30 1337 N 131.551 -0.354651 -1.53558 0
M  V30 1338 C 132.498 0.496968 -2.25386 0
M  V30 1339 C 133.468 1.0865 -1.25636 0
M  V30 1340 O 134.653 1.12104 -1.54394 0
M  V30 1341 C 131.793 1.63637 -3.03837 0
M  V30 1342 C 130.906 1.07307 -4.18461 0
M  V30 1343 C 130.041 2.18068 -4.84376 0
M  V30 1344 C 129.08 1.59147 -5.91049 0
M  V30 1345 N 128.217 2.63695 -6.50699 0
M  V30 1346 H 133.057 -0.122075 -2.9775 0
M  V30 1347 H 130.594 -0.0720154 -1.46924 0
M  V30 1348 H 132.552 2.30734 -3.47589 0
M  V30 1349 H 131.182 2.22623 -2.33749 0
M  V30 1350 H 130.234 0.292708 -3.79272 0
M  V30 1351 H 131.546 0.602193 -4.95152 0
M  V30 1352 H 130.7 2.93007 -5.31255 0
M  V30 1353 H 129.439 2.68504 -4.07133 0
M  V30 1354 H 128.444 0.827175 -5.43542 0
M  V30 1355 H 129.669 1.09549 -6.70206 0
M  V30 1356 H 127.615 3.13365 -5.76315 0
M  V30 1357 H 127.532 2.21263 -7.22896 0
M  V30 1358 H 128.8 3.3837 -7.02229 0
M  V30 1359 N 133.029 1.57378 -0.0835403 0
M  V30 1360 C 133.976 2.13384 0.879539 0
M  V30 1361 C 134.946 1.04936 1.28754 0
M  V30 1362 O 136.131 1.32662 1.37133 0
M  V30 1363 C 133.271 2.70932 2.13752 0
M  V30 1364 C 132.384 3.93575 1.7811 0
M  V30 1365 C 131.519 4.39326 2.98607 0
M  V30 1366 C 130.558 5.54587 2.59037 0
M  V30 1367 N 129.695 5.95243 3.72331 0
M  V30 1368 H 134.535 2.9537 0.395076 0
M  V30 1369 H 132.072 1.45953 0.183349 0
M  V30 1370 H 134.03 3.02411 2.87408 0
M  V30 1371 H 132.66 1.91693 2.59718 0
M  V30 1372 H 131.712 3.68483 0.94469 0
M  V30 1373 H 133.024 4.77258 1.45005 0
M  V30 1374 H 132.178 4.72528 3.80529 0
M  V30 1375 H 130.917 3.5452 3.34913 0
M  V30 1376 H 129.922 5.21024 1.75539 0
M  V30 1377 H 131.147 6.41133 2.23887 0
M  V30 1378 H 129.093 5.13385 4.08378 0
M  V30 1379 H 129.01 6.73694 3.43034 0
M  V30 1380 H 130.278 6.33072 4.54797 0
M  V30 1381 O 134.546 -0.0567894 1.614 0
M  V30 1382 H 135.237 -0.680852 1.8134 0
M  V30 END ATOM
M  V30 BEGIN BOND
M  V30 END BOND
M  V30 END CTAB
M  END
$$$$
