drugbank_target|Q8GIQ0 dTDP-4-dehydrorhamnose 3,5-epimerase (DB03161; DB03751)
 OpenBabel12092120263D

  0  0  0     0  0            999 V3000
M  V30 BEGIN CTAB
M  V30 COUNTS 3130 3175 0 0 0
M  V30 BEGIN ATOM
M  V30 1 H -0.908 1.98254 -0.117106 0
M  V30 2 N 0 1.576 0 0
M  V30 3 C 0.933 2.03868 1.02534 0
M  V30 4 C 1.911 0.928543 1.3348 0
M  V30 5 O 3.095 1.19667 1.45644 0
M  V30 6 C 0.222 2.43627 2.35294 0
M  V30 7 C -0.732 3.65373 2.2001 0
M  V30 8 S 0.101 5.13292 1.52614 0
M  V30 9 C 1.257 5.56322 2.86805 0
M  V30 10 H 1.49 2.90518 0.631377 0
M  V30 11 H -0.977 1.52953 0.210867 0
M  V30 12 H 0.981 2.67203 3.11629 0
M  V30 13 H -0.358 1.57376 2.7183 0
M  V30 14 H -1.165 3.90944 3.18086 0
M  V30 15 H -1.563 3.418 1.51819 0
M  V30 16 H 0.729 5.58782 3.83104 0
M  V30 17 H 1.672 6.56266 2.65933 0
M  V30 18 H 2.08 4.83886 2.90714 0
M  V30 19 N 1.4781 -0.272755 1.55222 0
M  V30 20 C 2.7061 -1.02255 1.79865 0
M  V30 21 C 3.1211 -1.79924 0.572088 0
M  V30 22 O 2.4781 -1.76638 -0.458842 0
M  V30 23 C 2.5291 -1.98094 3.02392 0
M  V30 24 O 2.2501 -1.23572 4.20311 0
M  V30 25 C 3.7511 -2.84884 3.39641 0
M  V30 26 H 0.9711 -0.302057 0.599168 0
M  V30 27 H 3.5151 -0.303465 2.02236 0
M  V30 28 H 1.6701 -2.65465 2.82147 0
M  V30 29 H 2.0841 -1.88172 4.89583 0
M  V30 30 H 3.5581 -3.47927 4.28545 0
M  V30 31 H 4.0351 -3.54665 2.59055 0
M  V30 32 H 4.6411 -2.23003 3.62146 0
M  V30 33 N 2.9562 -1.48159 -0.537278 0
M  V30 34 C 3.8662 -1.64807 -1.6696 0
M  V30 35 C 4.8822 -0.530651 -1.65711 0
M  V30 36 O 6.0582 -0.800784 -1.84796 0
M  V30 37 C 3.1232 -1.67708 -3.03438 0
M  V30 38 C 2.1842 -2.91025 -3.156 0
M  V30 39 C 1.4172 -2.93778 -4.45567 0
M  V30 40 O 1.6402 -2.05153 -5.3223 0
M  V30 41 O 0.5742 -3.85868 -4.61941 0
M  V30 42 H 4.4002 -2.6066 -1.55853 0
M  V30 43 H 1.9852 -1.31475 -0.709549 0
M  V30 44 H 3.8672 -1.7218 -3.84619 0
M  V30 45 H 2.5422 -0.750278 -3.14885 0
M  V30 46 H 1.4492 -2.92089 -2.33741 0
M  V30 47 H 2.7822 -3.83065 -3.09066 0
M  V30 48 N 4.4343 0.785586 -1.36625 0
M  V30 49 C 5.3823 1.91978 -1.31329 0
M  V30 50 C 6.3763 1.68162 -0.204416 0
M  V30 51 O 7.5823 1.76122 -0.371645 0
M  V30 52 H 3.9573 0.631087 -0.408942 0
M  V30 53 H 5.9283 1.93562 -2.27104 0
M  V30 54 C 4.6773 3.29055 -1.12329 0
M  V30 55 H 4.0003 3.4795 -1.96903 0
M  V30 56 H 5.4403 4.08756 -1.12671 0
M  V30 57 C 3.8993 3.36461 0.171861 0
M  V30 58 O 4.4293 3.84576 1.16035 0
M  V30 59 N 2.6353 2.89782 0.217846 0
M  V30 60 H 2.1823 2.50819 -0.587183 0
M  V30 61 H 2.1403 2.95119 1.08408 0
M  V30 62 N 5.9124 1.20967 1.01018 0
M  V30 63 C 7.1594 1.02374 1.74716 0
M  V30 64 C 7.4874 -0.443375 1.89379 0
M  V30 65 O 6.7424 -1.34535 1.42123 0
M  V30 66 C 7.0414 1.65997 3.16512 0
M  V30 67 C 6.7074 3.15831 3.2181 0
M  V30 68 C 5.3694 3.56719 3.22963 0
M  V30 69 C 7.7214 4.11816 3.19464 0
M  V30 70 C 5.0494 4.92107 3.19449 0
M  V30 71 C 7.4014 5.47158 3.17491 0
M  V30 72 C 6.0654 5.87451 3.16951 0
M  V30 73 H 5.3354 0.374614 0.639332 0
M  V30 74 H 7.9824 1.50485 1.18434 0
M  V30 75 H 6.2874 1.10166 3.75993 0
M  V30 76 H 7.9844 1.49119 3.72242 0
M  V30 77 H 4.5744 2.83263 3.21652 0
M  V30 78 H 8.7584 3.81257 3.17737 0
M  V30 79 H 4.0144 5.22579 3.17366 0
M  V30 80 H 8.1884 6.21274 3.14629 0
M  V30 81 H 5.8154 6.92329 3.13983 0
M  V30 82 N 7.3905 -1.2043 1.01659 0
M  V30 83 C 8.6375 -1.89797 0.705917 0
M  V30 84 C 8.9655 -1.78848 -0.764439 0
M  V30 85 O 8.2205 -1.16694 -1.57102 0
M  V30 86 C 8.5195 -3.40464 1.08714 0
M  V30 87 C 8.1855 -3.71614 2.5537 0
M  V30 88 C 6.8475 -3.79826 2.95441 0
M  V30 89 C 9.1995 -3.85915 3.50313 0
M  V30 90 C 6.5275 -3.99797 4.29394 0
M  V30 91 C 8.8795 -4.07396 4.83954 0
M  V30 92 C 7.5435 -4.13837 5.23732 0
M  V30 93 H 6.8135 -0.694518 0.258313 0
M  V30 94 H 9.4605 -1.42691 1.27717 0
M  V30 95 H 7.7655 -3.89385 0.434309 0
M  V30 96 H 9.4625 -3.92433 0.824461 0
M  V30 97 H 6.0525 -3.65822 2.23321 0
M  V30 98 H 10.2365 -3.78926 3.20513 0
M  V30 99 H 5.4925 -4.03018 4.59768 0
M  V30 100 H 9.6665 -4.17404 5.57447 0
M  V30 101 H 7.2935 -4.29064 6.27541 0
M  V30 102 N 8.8686 -0.792821 -1.36206 0
M  V30 103 C 10.1166 -0.366062 -1.98757 0
M  V30 104 C 10.4376 1.0668 -1.63231 0
M  V30 105 O 9.7076 1.73587 -0.907978 0
M  V30 106 H 8.2876 -0.132364 -0.735179 0
M  V30 107 H 10.9496 -1.01562 -1.66347 0
M  V30 108 H 10.0456 -0.460638 -3.08682 0
M  V30 109 N 10.3467 1.47872 -0.545128 0
M  V30 110 C 11.2937 2.29849 0.2093 0
M  V30 111 C 12.2637 1.38313 0.919707 0
M  V30 112 O 13.4487 1.67277 0.917772 0
M  V30 113 C 10.5887 3.22019 1.24088 0
M  V30 114 C 9.7017 4.2864 0.537778 0
M  V30 115 C 8.8367 5.07973 1.5536 0
M  V30 116 C 7.8757 6.06381 0.8348 0
M  V30 117 N 7.0127 6.78717 1.79688 0
M  V30 118 H 11.8527 2.93845 -0.49591 0
M  V30 119 H 9.3897 1.44848 -0.256389 0
M  V30 120 H 11.3477 3.73868 1.85144 0
M  V30 121 H 9.9777 2.59914 1.91428 0
M  V30 122 H 9.0297 3.7994 -0.187046 0
M  V30 123 H 10.3417 4.98793 -0.0258907 0
M  V30 124 H 9.4957 5.63912 2.23803 0
M  V30 125 H 8.2347 4.37693 2.15118 0
M  V30 126 H 7.2397 5.49631 0.136388 0
M  V30 127 H 8.4647 6.78665 0.24313 0
M  V30 128 H 6.4107 6.11177 2.38326 0
M  V30 129 H 6.3277 7.44998 1.28505 0
M  V30 130 H 7.5957 7.39237 2.47282 0
M  V30 131 N 11.8248 0.280983 1.55075 0
M  V30 132 C 13.0528 -0.337293 2.04132 0
M  V30 133 C 13.4678 -1.4903 1.15912 0
M  V30 134 O 12.8248 -1.81606 0.180459 0
M  V30 135 C 12.8758 -0.812706 3.52246 0
M  V30 136 O 12.5968 0.294387 4.3711 0
M  V30 137 C 14.0978 -1.4982 4.17216 0
M  V30 138 H 11.3178 -0.0761638 0.666663 0
M  V30 139 H 13.8618 0.414787 2.00249 0
M  V30 140 H 12.0168 -1.51486 3.56554 0
M  V30 141 H 12.4308 -0.0721325 5.2445 0
M  V30 142 H 13.9048 -1.7822 5.22438 0
M  V30 143 H 14.3818 -2.43168 3.65741 0
M  V30 144 H 14.9878 -0.839742 4.16927 0
M  V30 145 N 13.3029 -1.57598 0.00835791 0
M  V30 146 C 14.2329 -2.1198 -0.979113 0
M  V30 147 C 15.2139 -1.03091 -1.35301 0
M  V30 148 O 16.3989 -1.30818 -1.43528 0
M  V30 149 C 13.5289 -2.62995 -2.26828 0
M  V30 150 C 12.4829 -3.76485 -2.03576 0
M  V30 151 C 11.8089 -4.13846 -3.38579 0
M  V30 152 C 13.1089 -5.0342 -1.39161 0
M  V30 153 H 14.8029 -2.94738 -0.526281 0
M  V30 154 H 12.3489 -1.41783 -0.251704 0
M  V30 155 H 14.3019 -2.99669 -2.96271 0
M  V30 156 H 13.0259 -1.7737 -2.7424 0
M  V30 157 H 11.6849 -3.40217 -1.36557 0
M  V30 158 H 11.3329 -3.25232 -3.83709 0
M  V30 159 H 11.0329 -4.90312 -3.23834 0
M  V30 160 H 12.5569 -4.53086 -4.09323 0
M  V30 161 H 13.9709 -5.37812 -1.98573 0
M  V30 162 H 12.3679 -5.84746 -1.34878 0
M  V30 163 H 13.4379 -4.83548 -0.361868 0
M  V30 164 N 14.781 0.264519 -1.55364 0
M  V30 165 C 15.744 1.31046 -1.88042 0
M  V30 166 C 16.744 1.41943 -0.755569 0
M  V30 167 O 17.934 1.40947 -1.02369 0
M  V30 168 C 15.066 2.69067 -2.09323 0
M  V30 169 H 16.259 1.03297 -2.81549 0
M  V30 170 H 13.812 0.502989 -1.47986 0
M  V30 171 H 14.547 3.01982 -1.18226 0
M  V30 172 H 14.332 2.62542 -2.91229 0
M  V30 173 H 15.822 3.44623 -2.35848 0
M  V30 174 N 16.2591 1.48442 0.529413 0
M  V30 175 C 17.2221 1.62524 1.61612 0
M  V30 176 C 18.2221 0.498509 1.52877 0
M  V30 177 O 19.4121 0.76431 1.56537 0
M  V30 178 C 16.5441 1.59597 3.01233 0
M  V30 179 H 17.7371 2.59423 1.50465 0
M  V30 180 H 15.2901 1.37047 0.751514 0
M  V30 181 H 16.0251 0.641781 3.17886 0
M  V30 182 H 15.8101 2.41397 3.08982 0
M  V30 183 H 17.3001 1.72646 3.80241 0
M  V30 184 N 17.7372 -0.778329 1.37039 0
M  V30 185 C 19.1532 -1.07796 1.17695 0
M  V30 186 C 19.3532 -2.01498 0.00860115 0
M  V30 187 O 18.4092 -2.43901 -0.653352 0
M  V30 188 C 19.7222 -1.68178 2.49272 0
M  V30 189 C 21.2702 -1.80467 2.55735 0
M  V30 190 C 21.7452 -2.44263 3.87427 0
M  V30 191 N 23.2362 -2.51721 3.88833 0
M  V30 192 C 23.9712 -3.01919 4.87476 0
M  V30 193 N 23.4672 -3.5234 5.96513 0
M  V30 194 N 25.2602 -3.00733 4.74885 0
M  V30 195 H 17.4112 -0.156032 2.11826 0
M  V30 196 H 19.6742 -0.131844 0.938787 0
M  V30 197 H 19.3802 -1.06796 3.35093 0
M  V30 198 H 19.2542 -2.67554 2.65885 0
M  V30 199 H 21.6412 -2.40984 1.70325 0
M  V30 200 H 21.7222 -0.798656 2.43013 0
M  V30 201 H 21.3662 -1.84388 4.73248 0
M  V30 202 H 21.2962 -3.45458 3.9745 0
M  V30 203 H 23.7872 -2.1603 3.10063 0
M  V30 204 H 24.1002 -3.89027 6.67741 0
M  V30 205 H 22.4452 -3.50462 6.00168 0
M  V30 206 H 25.6362 -2.60638 3.88826 0
M  V30 207 H 25.8092 -3.39545 5.51918 0
M  V30 208 N 19.2153 -1.21501 -1.00376 0
M  V30 209 C 20.6263 -1.03146 -1.55621 0
M  V30 210 C 20.9773 0.408375 -1.91903 0
M  V30 211 O 20.1023 1.29177 -1.73616 0
M  V30 212 C 20.6973 -1.86612 -2.82775 0
M  V30 213 C 19.2563 -1.72586 -3.34501 0
M  V30 214 C 18.4033 -1.83747 -2.07683 0
M  V30 215 H 21.3543 -1.35505 -0.826081 0
M  V30 216 H 21.3753 -1.3771 -3.54706 0
M  V30 217 H 20.8873 -2.91399 -2.56336 0
M  V30 218 H 18.9883 -0.704877 -3.65872 0
M  V30 219 H 19.1013 -2.54623 -4.05837 0
M  V30 220 H 17.4653 -1.27069 -2.20739 0
M  V30 221 H 18.2483 -2.90044 -1.83655 0
M  V30 222 N 20.6934 1.19889 -1.02296 0
M  V30 223 C 21.9394 1.89701 -0.717033 0
M  V30 224 C 22.2724 1.7905 0.751989 0
M  V30 225 O 21.5474 1.17891 1.547 0
M  V30 226 C 21.8304 3.40858 -1.16136 0
M  V30 227 C 21.6834 3.60411 -2.69117 0
M  V30 228 C 23.0024 4.33876 -0.737549 0
M  V30 229 H 20.1214 0.688874 -0.261957 0
M  V30 230 H 22.7634 1.41154 -1.27183 0
M  V30 231 H 20.9134 3.82335 -0.689342 0
M  V30 232 H 22.5854 3.28145 -3.2422 0
M  V30 233 H 20.8284 3.03665 -3.0979 0
M  V30 234 H 21.4994 4.66396 -2.95261 0
M  V30 235 H 23.9754 4.00081 -1.14344 0
M  V30 236 H 22.8514 5.38242 -1.0764 0
M  V30 237 H 23.1124 4.40628 0.360436 0
M  V30 238 N 22.1715 0.800033 1.35784 0
M  V30 239 C 23.0815 0.207204 2.33683 0
M  V30 240 C 24.0975 -0.64631 1.61551 0
M  V30 241 O 25.2735 -0.559604 1.93469 0
M  V30 242 C 22.3385 -0.639659 3.40748 0
M  V30 243 C 21.3995 0.233585 4.28664 0
M  V30 244 C 20.6325 -0.572954 5.30616 0
M  V30 245 O 20.8555 -1.80816 5.40982 0
M  V30 246 O 19.7895 0.0327285 6.01891 0
M  V30 247 H 23.6155 1.01692 2.86169 0
M  V30 248 H 21.2005 0.561691 1.38439 0
M  V30 249 H 23.0825 -1.12223 4.06182 0
M  V30 250 H 21.7575 -1.42708 2.90544 0
M  V30 251 H 20.6645 0.763147 3.66233 0
M  V30 252 H 21.9975 0.984784 4.82248 0
M  V30 253 N 23.6496 -1.47581 0.552962 0
M  V30 254 C 24.6126 -2.28439 -0.186605 0
M  V30 255 C 25.6126 -1.36706 -0.84665 0
M  V30 256 O 26.8026 -1.59378 -0.703164 0
M  V30 257 C 23.9346 -3.16264 -1.2724 0
M  V30 258 H 25.1276 -2.95294 0.523609 0
M  V30 259 H 22.6806 -1.532 0.309745 0
M  V30 260 H 23.4156 -2.54091 -2.01514 0
M  V30 261 H 23.2006 -3.83769 -0.803968 0
M  V30 262 H 24.6906 -3.77198 -1.79196 0
M  V30 263 N 25.1277 -0.289203 -1.54924 0
M  V30 264 C 26.3767 0.324231 -1.99077 0
M  V30 265 C 26.6897 1.5591 -1.18117 0
M  V30 266 O 27.8957 2.24637 -1.52481 0
M  V30 267 C 26.3517 0.628209 -3.54375 0
M  V30 268 C 25.9597 -0.587647 -4.44129 0
M  V30 269 C 27.7037 1.20349 -4.07083 0
M  V30 270 C 25.6107 -0.257475 -5.90839 0
M  V30 271 H 24.5407 0.124924 -0.743579 0
M  V30 272 H 27.1917 -0.396063 -1.79175 0
M  V30 273 H 25.5737 1.40778 -3.70132 0
M  V30 274 H 26.7477 -1.36418 -4.40144 0
M  V30 275 H 25.0627 -1.08074 -4.0213 0
M  V30 276 H 27.6597 1.46456 -5.14252 0
M  V30 277 H 28.0027 2.14195 -3.56968 0
M  V30 278 H 28.5357 0.485889 -3.94821 0
M  V30 279 H 25.2747 -1.16419 -6.45079 0
M  V30 280 H 24.7947 0.482018 -5.9786 0
M  V30 281 H 26.4737 0.145238 -6.46837 0
M  V30 282 N 26.6058 1.57591 -0.0167156 0
M  V30 283 C 28.0168 1.79201 0.523834 0
M  V30 284 C 28.3678 0.925796 1.72984 0
M  V30 285 O 27.4928 0.132792 2.15992 0
M  V30 286 C 28.0878 3.25 0.957091 0
M  V30 287 C 26.6468 3.47648 1.44283 0
M  V30 288 C 25.7938 2.74374 0.401757 0
M  V30 289 H 28.7448 1.56831 -0.242816 0
M  V30 290 H 28.7658 3.34031 1.82219 0
M  V30 291 H 28.2778 3.88019 0.0791415 0
M  V30 292 H 26.3788 2.89866 2.34113 0
M  V30 293 H 26.4918 4.56352 1.45877 0
M  V30 294 H 24.8558 2.39485 0.867121 0
M  V30 295 H 25.6388 3.40102 -0.467513 0
M  V30 296 N 28.0839 -0.256276 1.55502 0
M  V30 297 C 29.3319 -0.983672 1.76545 0
M  V30 298 C 29.6529 -1.86206 0.578982 0
M  V30 299 O 28.9229 -1.91656 -0.405577 0
M  V30 300 H 27.5029 -0.366191 0.651086 0
M  V30 301 H 30.1649 -0.276479 1.92929 0
M  V30 302 H 29.2609 -1.61087 2.67315 0
M  V30 303 N 29.562 -1.4872 -0.521534 0
M  V30 304 C 30.495 -1.58451 -1.64221 0
M  V30 305 C 31.473 -0.434513 -1.56687 0
M  V30 306 O 32.657 -0.647275 -1.77038 0
M  V30 307 C 29.784 -1.52037 -3.02659 0
M  V30 308 C 28.83 -2.71981 -3.28525 0
M  V30 309 S 29.663 -4.33869 -3.13876 0
M  V30 310 C 30.819 -4.30067 -4.54745 0
M  V30 311 H 31.052 -2.53256 -1.55719 0
M  V30 312 H 28.585 -1.37358 -0.705143 0
M  V30 313 H 30.543 -1.49023 -3.82495 0
M  V30 314 H 29.204 -0.585541 -3.08594 0
M  V30 315 H 28.397 -2.63656 -4.29536 0
M  V30 316 H 27.999 -2.72302 -2.56374 0
M  V30 317 H 30.291 -4.00521 -5.46433 0
M  V30 318 H 31.234 -5.31287 -4.68123 0
M  V30 319 H 31.642 -3.60419 -4.34463 0
M  V30 320 N 31.0401 0.771051 -1.3745 0
M  V30 321 C 31.9701 1.89827 -1.3597 0
M  V30 322 C 32.9511 1.68562 -0.228216 0
M  V30 323 O 34.1361 1.8941 -0.428675 0
M  V30 324 C 31.2661 3.2712 -1.16662 0
M  V30 325 C 30.2201 3.6295 -2.2683 0
M  V30 326 C 29.5461 4.98791 -1.92644 0
M  V30 327 C 30.8461 3.69627 -3.69017 0
M  V30 328 H 32.5401 1.91323 -2.30295 0
M  V30 329 H 30.0861 0.919082 -1.10855 0
M  V30 330 H 32.0391 4.05615 -1.14256 0
M  V30 331 H 30.7631 3.26059 -0.187926 0
M  V30 332 H 29.4221 2.86763 -2.28392 0
M  V30 333 H 29.0701 4.94271 -0.933021 0
M  V30 334 H 28.7701 5.23733 -2.66416 0
M  V30 335 H 30.2941 5.79685 -1.91826 0
M  V30 336 H 31.7081 4.38273 -3.69581 0
M  V30 337 H 30.1051 4.06067 -4.41848 0
M  V30 338 H 31.1751 2.70273 -4.02592 0
M  V30 339 N 32.5182 1.22032 0.997298 0
M  V30 340 C 33.4282 1.00271 2.12092 0
M  V30 341 C 34.4442 -0.047621 1.73935 0
M  V30 342 O 35.6202 0.144136 2.00884 0
M  V30 343 C 32.6852 0.578449 3.4184 0
M  V30 344 C 31.7462 1.70189 3.94125 0
M  V30 345 C 30.9792 1.29778 5.17681 0
M  V30 346 O 31.2022 0.174676 5.70132 0
M  V30 347 O 30.1362 2.11261 5.63607 0
M  V30 348 H 33.9622 1.94398 2.3333 0
M  V30 349 H 31.5472 1.00587 1.10465 0
M  V30 350 H 33.4292 0.351998 4.19927 0
M  V30 351 H 32.1042 -0.334019 3.21972 0
M  V30 352 H 31.0112 1.98282 3.1723 0
M  V30 353 H 32.3442 2.59206 4.18417 0
M  V30 354 N 33.9963 -1.19345 1.0293 0
M  V30 355 C 35.2433 -1.89038 0.726008 0
M  V30 356 C 35.5713 -1.79649 -0.745427 0
M  V30 357 O 34.8263 -1.18354 -1.55855 0
M  V30 358 C 35.1253 -3.39292 1.12319 0
M  V30 359 C 34.7913 -3.68885 2.59297 0
M  V30 360 C 33.4533 -3.76671 2.99453 0
M  V30 361 C 35.8053 -3.82178 3.54386 0
M  V30 362 C 33.1333 -3.9522 4.33611 0
M  V30 363 C 35.4853 -4.0224 4.88248 0
M  V30 364 C 34.1493 -4.08259 5.28092 0
M  V30 365 H 33.4193 -0.691739 0.265665 0
M  V30 366 H 36.0663 -1.41328 1.29223 0
M  V30 367 H 34.3713 -3.88903 0.475584 0
M  V30 368 H 36.0683 -3.91536 0.866037 0
M  V30 369 H 32.6583 -3.63433 2.27189 0
M  V30 370 H 36.8423 -3.75505 3.24514 0
M  V30 371 H 32.0983 -3.98119 4.64016 0
M  V30 372 H 36.2723 -4.11468 5.61843 0
M  V30 373 H 33.8993 -4.22384 6.32057 0
M  V30 374 N 35.4744 -0.807222 -1.35358 0
M  V30 375 C 36.7514 -0.311126 -1.9311 0
M  V30 376 C 37.1314 1.19937 -1.73719 0
M  V30 377 O 36.4794 1.99918 -1.10657 0
M  V30 378 C 36.6894 -0.723226 -3.41424 0
M  V30 379 C 38.0374 -0.713078 -4.18569 0
M  V30 380 O 39.0614 -0.664811 -3.49941 0
M  V30 381 O 37.9204 -0.772022 -5.41019 0
M  V30 382 H 35.0144 -0.081526 -0.822972 0
M  V30 383 H 37.5604 -0.890962 -1.4443 0
M  V30 384 H 36.3324 -1.76426 -3.4927 0
M  V30 385 H 35.9554 -0.118232 -3.97424 0
M  V30 386 N 36.9525 1.47285 -0.560781 0
M  V30 387 C 38.2015 2.01668 -0.035895 0
M  V30 388 C 38.5145 1.44021 1.32353 0
M  V30 389 O 39.7205 1.90088 1.93853 0
M  V30 390 C 38.1765 3.59897 -0.0136659 0
M  V30 391 C 37.7845 4.26536 -1.37006 0
M  V30 392 C 39.5285 4.22017 0.458425 0
M  V30 393 C 37.4355 5.76782 -1.30675 0
M  V30 394 H 36.3655 0.753938 -0.00964879 0
M  V30 395 H 39.0165 1.69243 -0.709166 0
M  V30 396 H 37.3985 3.89301 0.725325 0
M  V30 397 H 38.5725 4.0877 -2.12705 0
M  V30 398 H 36.8875 3.76419 -1.78038 0
M  V30 399 H 39.4845 5.32124 0.524247 0
M  V30 400 H 39.8275 3.89437 1.4712 0
M  V30 401 H 40.3605 3.97159 -0.225818 0
M  V30 402 H 37.0995 6.13988 -2.29564 0
M  V30 403 H 36.6195 5.96875 -0.591622 0
M  V30 404 H 38.2985 6.39063 -1.01033 0
M  V30 405 N 38.4306 0.297415 1.54768 0
M  V30 406 C 39.8416 -0.195947 1.85669 0
M  V30 407 C 40.1926 -1.53707 1.21937 0
M  V30 408 O 39.3176 -2.10164 0.515754 0
M  V30 409 C 39.9126 -0.362318 3.36857 0
M  V30 410 C 38.4716 -0.799901 3.67802 0
M  V30 411 C 37.6186 0.0938578 2.77141 0
M  V30 412 H 40.5696 0.518538 1.4999 0
M  V30 413 H 40.5906 -1.19745 3.61167 0
M  V30 414 H 40.1026 0.613921 3.83214 0
M  V30 415 H 38.2036 -1.78682 3.26961 0
M  V30 416 H 38.3166 -0.621773 4.75048 0
M  V30 417 H 36.6806 -0.426254 2.51108 0
M  V30 418 H 37.4636 1.06639 3.26318 0
M  V30 419 N 39.9087 -1.5758 0.0250728 0
M  V30 420 C 41.1547 -1.91917 -0.655413 0
M  V30 421 C 41.4877 -0.901433 -1.72011 0
M  V30 422 O 40.7627 0.0764069 -1.9435 0
M  V30 423 C 41.0457 -3.36751 -1.27558 0
M  V30 424 C 40.8987 -4.49258 -0.220719 0
M  V30 425 C 42.2177 -3.81469 -2.19475 0
M  V30 426 H 39.3367 -0.697925 -0.23679 0
M  V30 427 H 41.9787 -1.89825 0.0815036 0
M  V30 428 H 40.1287 -3.38664 -1.90365 0
M  V30 429 H 41.8007 -4.59478 0.409601 0
M  V30 430 H 40.0437 -4.31415 0.454264 0
M  V30 431 H 40.7147 -5.47618 -0.694175 0
M  V30 432 H 43.1907 -3.81266 -1.66659 0
M  V30 433 H 42.0667 -4.83512 -2.59822 0
M  V30 434 H 42.3277 -3.16744 -3.08424 0
M  V30 435 N 41.3868 0.248026 -1.55636 0
M  V30 436 C 42.3368 1.30994 -1.86614 0
M  V30 437 C 43.3208 1.43543 -0.726918 0
M  V30 438 O 44.5128 1.46804 -0.988818 0
M  V30 439 C 41.6418 2.6656 -2.16335 0
M  V30 440 C 40.7278 2.58019 -3.36581 0
M  V30 441 N 41.1188 2.1911 -4.55878 0
M  V30 442 C 39.4168 2.89035 -3.39669 0
M  V30 443 C 40.1178 2.21174 -5.38012 0
M  V30 444 N 39.0938 2.60632 -4.77045 0
M  V30 445 H 42.8958 0.999583 -2.76379 0
M  V30 446 H 40.4098 0.456652 -1.55848 0
M  V30 447 H 42.4068 3.43194 -2.36692 0
M  V30 448 H 41.0668 2.98463 -1.27867 0
M  V30 449 H 42.0778 1.90672 -4.81523 0
M  V30 450 H 38.7548 3.25485 -2.61469 0
M  V30 451 H 40.1448 1.9344 -6.43452 0
M  V30 452 N 42.8649 1.48995 0.513639 0
M  V30 453 C 44.1129 1.57531 1.26604 0
M  V30 454 C 44.4339 0.258236 1.93283 0
M  V30 455 O 43.7039 -0.721502 1.8213 0
M  V30 456 H 42.2839 0.580387 0.470276 0
M  V30 457 H 44.9459 1.85552 0.596373 0
M  V30 458 H 44.0419 2.36486 2.03669 0
M  V30 459 N 44.343 -0.763751 1.37857 0
M  V30 460 C 45.62 -1.51244 1.24035 0
M  V30 461 C 46 -2.10472 -0.162649 0
M  V30 462 O 45.348 -1.96206 -1.17112 0
M  V30 463 C 45.558 -2.58694 2.34261 0
M  V30 464 C 46.906 -3.25878 2.72193 0
M  V30 465 O 47.93 -2.68993 2.33497 0
M  V30 466 O 46.789 -4.2874 3.38887 0
M  V30 467 H 43.883 -0.670243 0.484462 0
M  V30 468 H 46.429 -0.800031 1.49658 0
M  V30 469 H 45.201 -2.13105 3.2818 0
M  V30 470 H 44.824 -3.37527 2.10146 0
M  V30 471 N 45.8211 -1.22559 -0.990812 0
M  V30 472 C 46.7691 -0.994798 -2.10253 0
M  V30 473 C 47.7631 0.0627798 -1.69284 0
M  V30 474 O 48.9691 -0.0898392 -1.79776 0
M  V30 475 H 45.3441 -0.304527 -0.687581 0
M  V30 476 H 47.3151 -1.93812 -2.26891 0
M  V30 477 C 46.0641 -0.591439 -3.42633 0
M  V30 478 H 45.3871 -1.3969 -3.74602 0
M  V30 479 H 46.8271 -0.469385 -4.21394 0
M  V30 480 C 45.2861 0.699232 -3.29564 0
M  V30 481 O 45.8161 1.75112 -3.61523 0
M  V30 482 N 44.0221 0.671182 -2.82743 0
M  V30 483 H 43.5691 -0.185136 -2.56934 0
M  V30 484 H 43.5271 1.53502 -2.7438 0
M  V30 485 N 47.2992 1.18797 -1.03562 0
M  V30 486 C 48.7152 1.40671 -0.753917 0
M  V30 487 C 48.9152 1.9043 0.658686 0
M  V30 488 O 47.9712 2.08538 1.42366 0
M  V30 489 C 49.2842 2.41192 -1.79574 0
M  V30 490 C 50.8322 2.54928 -1.81606 0
M  V30 491 C 51.3072 3.58709 -2.84766 0
M  V30 492 N 52.7982 3.66212 -2.83625 0
M  V30 493 C 53.5332 4.46225 -3.60098 0
M  V30 494 N 53.0292 5.29888 -4.46308 0
M  V30 495 N 54.8222 4.40939 -3.4861 0
M  V30 496 H 46.9732 0.848221 -1.94728 0
M  V30 497 H 49.2362 0.435081 -0.842264 0
M  V30 498 H 48.9422 2.11669 -2.80872 0
M  V30 499 H 48.8162 3.40467 -1.62365 0
M  V30 500 H 51.2032 2.83771 -0.809817 0
M  V30 501 H 51.2842 1.55784 -2.02891 0
M  V30 502 H 50.9282 3.30607 -3.85566 0
M  V30 503 H 50.8582 4.57519 -2.60737 0
M  V30 504 H 53.3492 3.06466 -2.21105 0
M  V30 505 H 53.6622 5.88078 -5.01382 0
M  V30 506 H 52.0072 5.29326 -4.50377 0
M  V30 507 H 55.1982 3.74624 -2.80668 0
M  V30 508 H 55.3712 5.03056 -4.08459 0
M  V30 509 N 48.7773 0.814389 1.34928 0
M  V30 510 C 50.0253 0.397636 1.9815 0
M  V30 511 C 50.3463 -1.04069 1.64908 0
M  V30 512 O 49.6163 -1.72121 0.93548 0
M  V30 513 H 48.1963 0.144043 0.732981 0
M  V30 514 H 50.8583 1.04195 1.6471 0
M  V30 515 H 49.9543 0.509688 3.0791 0
M  V30 516 N 50.2554 -1.46986 0.568584 0
M  V30 517 C 51.5014 -2.0332 0.0571487 0
M  V30 518 C 51.8564 -1.43384 -1.28291 0
M  V30 519 O 51.1494 -0.584304 -1.82473 0
M  V30 520 C 51.3434 -3.57306 -0.081836 0
M  V30 521 C 51.1724 -4.32174 1.24321 0
M  V30 522 C 49.9424 -4.71633 1.81358 0
M  V30 523 C 52.1404 -4.66598 2.16312 0
M  V30 524 N 50.1224 -5.31191 3.07748 0
M  V30 525 C 51.4934 -5.26578 3.27285 0
M  V30 526 C 53.5484 -4.48527 2.16166 0
M  V30 527 C 52.2514 -5.70395 4.38226 0
M  V30 528 C 54.2774 -4.93351 3.26127 0
M  V30 529 C 53.6394 -5.5339 4.3582 0
M  V30 530 H 49.7384 -0.77943 0.063351 0
M  V30 531 H 52.3224 -1.79323 0.758378 0
M  V30 532 H 50.4934 -3.81046 -0.752207 0
M  V30 533 H 52.2254 -4.00282 -0.59637 0
M  V30 534 H 48.9804 -4.53946 1.35019 0
M  V30 535 H 49.4044 -5.65505 3.72201 0
M  V30 536 H 54.0464 -4.01456 1.32638 0
M  V30 537 H 51.7644 -6.16452 5.22506 0
M  V30 538 H 55.3504 -4.81131 3.27115 0
M  V30 539 H 54.2304 -5.87441 5.19503 0
M  V30 540 N 51.7335 -0.305618 -1.54608 0
M  V30 541 C 52.9805 0.302298 -2.00231 0
M  V30 542 C 53.3085 1.5354 -1.19398 0
M  V30 543 O 52.5635 1.93973 -0.259423 0
M  V30 544 C 52.8625 0.698983 -3.50498 0
M  V30 545 C 52.5285 -0.432903 -4.48817 0
M  V30 546 C 51.1905 -0.743622 -4.75419 0
M  V30 547 C 53.5425 -1.19409 -5.07337 0
M  V30 548 C 50.8705 -1.81857 -5.57804 0
M  V30 549 C 53.2225 -2.25899 -5.90891 0
M  V30 550 C 51.8865 -2.57572 -6.15803 0
M  V30 551 H 51.1565 0.110619 -0.732697 0
M  V30 552 H 53.8035 -0.425674 -1.86709 0
M  V30 553 H 52.1085 1.50711 -3.61654 0
M  V30 554 H 53.8055 1.1806 -3.83227 0
M  V30 555 H 50.3955 -0.18063 -4.28219 0
M  V30 556 H 54.5795 -0.967295 -4.86782 0
M  V30 557 H 49.8355 -2.06864 -5.75341 0
M  V30 558 H 54.0095 -2.85335 -6.35261 0
M  V30 559 H 51.6365 -3.40998 -6.7943 0
M  V30 560 N 53.2116 1.57565 -0.0334293 0
M  V30 561 C 54.1586 2.10478 0.946981 0
M  V30 562 C 55.1286 1.00787 1.32027 0
M  V30 563 O 56.3136 1.28232 1.41284 0
M  V30 564 C 53.4536 2.63994 2.22263 0
M  V30 565 C 52.5666 3.87709 1.90541 0
M  V30 566 C 51.7016 4.29604 3.12433 0
M  V30 567 C 50.7406 5.46065 2.76549 0
M  V30 568 N 49.8776 5.83096 3.9108 0
M  V30 569 H 54.7176 2.93963 0.488846 0
M  V30 570 H 52.2546 1.45296 0.22969 0
M  V30 571 H 54.2126 2.93114 2.96884 0
M  V30 572 H 52.8426 1.83333 2.65685 0
M  V30 573 H 51.8946 3.65291 1.06144 0
M  V30 574 H 53.2066 4.72403 1.60116 0
M  V30 575 H 52.3606 4.60182 3.9537 0
M  V30 576 H 51.0996 3.43685 3.46023 0
M  V30 577 H 50.1046 5.15176 1.92026 0
M  V30 578 H 51.3296 6.33685 2.44171 0
M  V30 579 H 49.2756 5.00132 4.24504 0
M  V30 580 H 49.1926 6.6244 3.64293 0
M  V30 581 H 50.4606 6.18282 4.74708 0
M  V30 582 N 54.6897 -0.239769 1.55765 0
M  V30 583 C 55.5997 -1.31831 1.94056 0
M  V30 584 C 56.6157 -1.52275 0.841925 0
M  V30 585 O 57.7917 -1.65759 1.14394 0
M  V30 586 C 54.8567 -2.65156 2.23368 0
M  V30 587 C 53.9177 -2.53173 3.46701 0
M  V30 588 C 53.1507 -3.8014 3.74606 0
M  V30 589 O 53.3737 -4.82343 3.04469 0
M  V30 590 O 52.3077 -3.78344 4.68123 0
M  V30 591 H 56.1337 -1.02347 2.85935 0
M  V30 592 H 53.7187 -0.441123 1.42739 0
M  V30 593 H 55.6007 -3.43929 2.43497 0
M  V30 594 H 54.2757 -2.94358 1.34666 0
M  V30 595 H 53.1827 -1.72662 3.31871 0
M  V30 596 H 54.5157 -2.28915 4.35728 0
M  V30 597 N 56.1678 -1.49265 -0.50573 0
M  V30 598 C 57.1158 -1.66065 -1.62866 0
M  V30 599 C 58.1098 -0.526636 -1.61006 0
M  V30 600 O 59.3158 -0.706126 -1.65571 0
M  V30 601 H 55.6908 -0.52356 -0.539805 0
M  V30 602 H 57.6618 -2.60329 -1.45848 0
M  V30 603 C 56.4108 -1.74008 -3.01026 0
M  V30 604 H 55.7338 -2.6064 -3.03161 0
M  V30 605 H 57.1738 -1.89798 -3.79147 0
M  V30 606 C 55.6328 -0.483868 -3.33407 0
M  V30 607 O 56.1628 0.392548 -3.99777 0
M  V30 608 N 54.3688 -0.348236 -2.88506 0
M  V30 609 H 53.9158 -1.06242 -2.34671 0
M  V30 610 H 53.8738 0.491204 -3.10539 0
M  V30 611 N 57.6459 0.756429 -1.3826 0
M  V30 612 C 58.8929 1.51547 -1.34312 0
M  V30 613 C 59.2209 1.94382 0.0677144 0
M  V30 614 O 58.4759 1.65514 1.04421 0
M  V30 615 C 58.7749 2.78313 -2.24224 0
M  V30 616 C 58.4409 2.54455 -3.72241 0
M  V30 617 C 57.1029 2.47657 -4.12576 0
M  V30 618 C 59.4549 2.3354 -4.65949 0
M  V30 619 C 56.7829 2.17956 -5.44713 0
M  V30 620 C 59.1349 2.05359 -5.9834 0
M  V30 621 C 57.7989 1.97016 -6.37762 0
M  V30 622 H 57.0689 0.55455 -0.491482 0
M  V30 623 H 59.7159 0.870039 -1.70595 0
M  V30 624 H 58.0209 3.47492 -1.80987 0
M  V30 625 H 59.7179 3.36259 -2.18474 0
M  V30 626 H 56.3079 2.60616 -3.40261 0
M  V30 627 H 60.4919 2.37772 -4.35635 0
M  V30 628 H 55.7479 2.10003 -5.74203 0
M  V30 629 H 59.9219 1.88179 -6.70494 0
M  V30 630 H 57.5489 1.73766 -7.40074 0
M  V30 631 N 59.124 1.23083 0.984299 0
M  V30 632 C 60.056 0.96636 2.07832 0
M  V30 633 C 61.069 -0.0582135 1.62696 0
M  V30 634 O 62.258 0.176843 1.77622 0
M  V30 635 C 59.358 0.433397 3.36117 0
M  V30 636 C 58.531 1.51722 4.10243 0
M  V30 637 C 57.59 0.989821 5.16807 0
M  V30 638 O 56.616 1.67794 5.43906 0
M  V30 639 N 57.818 -0.184367 5.80207 0
M  V30 640 H 60.583 1.90824 2.31098 0
M  V30 641 H 58.144 1.13888 1.1507 0
M  V30 642 H 60.136 0.065699 4.04647 0
M  V30 643 H 58.706 -0.413806 3.09849 0
M  V30 644 H 57.926 2.05786 3.36223 0
M  V30 645 H 59.214 2.24619 4.56534 0
M  V30 646 H 58.612 -0.760062 5.60571 0
M  V30 647 H 57.169 -0.493366 6.4993 0
M  V30 648 N 60.6021 -1.18246 1.0419 0
M  V30 649 C 61.5491 -2.2192 0.634037 0
M  V30 650 C 62.5191 -1.62179 -0.358765 0
M  V30 651 O 63.7041 -1.89122 -0.252466 0
M  V30 652 C 60.8441 -3.451 0.00445535 0
M  V30 653 C 59.9571 -4.19174 1.04487 0
M  V30 654 C 59.0921 -5.29813 0.383676 0
M  V30 655 C 58.1311 -5.9566 1.4091 0
M  V30 656 N 57.2681 -6.97834 0.772784 0
M  V30 657 H 62.1081 -2.56164 1.52263 0
M  V30 658 H 59.6451 -1.25843 0.761701 0
M  V30 659 H 61.6031 -4.15485 -0.377919 0
M  V30 660 H 60.2331 -3.11472 -0.847652 0
M  V30 661 H 59.2851 -3.47604 1.54518 0
M  V30 662 H 60.5971 -4.64267 1.82368 0
M  V30 663 H 59.7511 -6.06677 -0.0528366 0
M  V30 664 H 58.4901 -4.85825 -0.427208 0
M  V30 665 H 57.4951 -5.17535 1.85574 0
M  V30 666 H 58.7201 -6.4173 2.22171 0
M  V30 667 H 56.6661 -6.55998 -0.0177708 0
M  V30 668 H 56.5831 -7.41186 1.48928 0
M  V30 669 H 57.8511 -7.78665 0.36071 0
M  V30 670 N 62.0802 -0.821533 -1.34494 0
M  V30 671 C 62.9902 -0.244355 -2.33324 0
M  V30 672 C 64.0062 0.620527 -1.62559 0
M  V30 673 O 65.1822 0.528754 -1.94335 0
M  V30 674 C 62.2472 0.585368 -3.41723 0
M  V30 675 C 61.3082 -0.301752 -4.28238 0
M  V30 676 C 60.5412 0.488466 -5.3146 0
M  V30 677 O 60.7642 1.72186 -5.4379 0
M  V30 678 O 59.6982 -0.12848 -6.01763 0
M  V30 679 H 63.5242 -1.06231 -2.84515 0
M  V30 680 H 61.1092 -0.583645 -1.37528 0
M  V30 681 H 62.9912 1.05747 -4.07916 0
M  V30 682 H 61.6662 1.38068 -2.92778 0
M  V30 683 H 60.5732 -0.821315 -3.64973 0
M  V30 684 H 61.9062 -1.06138 -4.8062 0
M  V30 685 N 63.5583 1.46682 -0.576371 0
M  V30 686 C 64.5053 2.30241 0.160499 0
M  V30 687 C 65.4753 1.40233 0.890162 0
M  V30 688 O 66.6603 1.69186 0.882084 0
M  V30 689 C 63.8003 3.24578 1.1723 0
M  V30 690 C 62.9133 4.29684 0.446736 0
M  V30 691 C 62.0483 5.11154 1.44551 0
M  V30 692 C 61.0873 6.08015 0.70599 0
M  V30 693 N 60.2243 6.82376 1.65251 0
M  V30 694 H 65.0643 2.92727 -0.558127 0
M  V30 695 H 62.6013 1.44272 -0.287056 0
M  V30 696 H 64.5593 3.77711 1.77172 0
M  V30 697 H 63.1893 2.63916 1.85872 0
M  V30 698 H 62.2413 3.79458 -0.267594 0
M  V30 699 H 63.5533 4.98626 -0.131686 0
M  V30 700 H 62.7073 5.68533 2.11791 0
M  V30 701 H 61.4463 4.42158 2.05786 0
M  V30 702 H 60.4513 5.49796 0.0197725 0
M  V30 703 H 61.6763 6.79028 0.09912 0
M  V30 704 H 59.6223 6.16094 2.25308 0
M  V30 705 H 59.5393 7.47556 1.12673 0
M  V30 706 H 60.8073 7.44316 2.31546 0
M  V30 707 N 65.0364 0.313813 1.54444 0
M  V30 708 C 65.9694 -0.598866 2.20202 0
M  V30 709 C 66.9474 -1.12318 1.17573 0
M  V30 710 O 68.1314 -1.18899 1.46271 0
M  V30 711 C 65.2584 -1.82071 2.85601 0
M  V30 712 C 64.3044 -1.42851 4.01865 0
M  V30 713 S 65.1374 -0.473512 5.33402 0
M  V30 714 C 66.2934 -1.70286 6.0229 0
M  V30 715 H 66.5264 -0.0402532 2.97273 0
M  V30 716 H 64.0594 0.0979165 1.54089 0
M  V30 717 H 66.0174 -2.52184 3.23904 0
M  V30 718 H 64.6784 -2.3505 2.08351 0
M  V30 719 H 63.8714 -2.33871 4.46453 0
M  V30 720 H 63.4734 -0.807198 3.65185 0
M  V30 721 H 65.7654 -2.64168 6.23876 0
M  V30 722 H 66.7084 -1.29932 6.96077 0
M  V30 723 H 67.1164 -1.88541 5.32083 0
M  V30 724 N 66.5145 -1.57545 0.0417849 0
M  V30 725 C 67.4445 -2.14009 -0.933929 0
M  V30 726 C 68.4255 -1.05938 -1.33083 0
M  V30 727 O 69.6105 -1.33833 -1.40721 0
M  V30 728 C 66.7405 -2.67747 -2.21199 0
M  V30 729 C 65.6945 -3.80718 -1.95544 0
M  V30 730 C 65.0205 -4.20935 -3.29724 0
M  V30 731 C 66.3205 -5.06258 -1.28452 0
M  V30 732 H 68.0145 -2.95788 -0.463645 0
M  V30 733 H 65.5605 -1.42285 -0.221573 0
M  V30 734 H 67.5135 -3.05886 -2.89848 0
M  V30 735 H 66.2375 -1.83147 -2.70416 0
M  V30 736 H 64.8965 -3.43037 -1.2931 0
M  V30 737 H 64.5445 -3.33298 -3.76724 0
M  V30 738 H 64.2445 -4.9707 -3.13361 0
M  V30 739 H 65.7685 -4.61666 -3.9962 0
M  V30 740 H 67.1825 -5.41903 -1.8712 0
M  V30 741 H 65.5795 -5.87475 -1.22445 0
M  V30 742 H 66.6495 -4.84207 -0.259219 0
M  V30 743 N 67.9926 0.231505 -1.5589 0
M  V30 744 C 69.4036 0.799327 -1.68724 0
M  V30 745 C 69.7546 1.85398 -0.642022 0
M  V30 746 O 68.8796 2.1539 0.208784 0
M  V30 747 C 69.4746 1.45664 -3.05888 0
M  V30 748 C 68.0336 1.97197 -3.20609 0
M  V30 749 C 67.1806 0.828552 -2.64632 0
M  V30 750 H 70.1316 0.00702616 -1.58698 0
M  V30 751 H 70.1526 2.32517 -3.01191 0
M  V30 752 H 69.6646 0.688808 -3.81939 0
M  V30 753 H 67.7656 2.76813 -2.4941 0
M  V30 754 H 67.8786 2.15878 -4.27707 0
M  V30 755 H 66.2426 1.23321 -2.22854 0
M  V30 756 H 67.0256 0.0735544 -3.43221 0
M  V30 757 N 69.4707 1.49531 0.497807 0
M  V30 758 C 70.4007 1.6935 1.60757 0
M  V30 759 C 71.3817 0.542218 1.61227 0
M  V30 760 O 72.5667 0.778417 1.77917 0
M  V30 761 C 69.6967 1.76298 2.99226 0
M  V30 762 C 68.6507 2.91248 3.13622 0
M  V30 763 C 67.9767 2.83312 4.53474 0
M  V30 764 C 69.2767 4.3214 2.93346 0
M  V30 765 H 70.9707 2.62263 1.44425 0
M  V30 766 H 68.5167 1.26208 0.693367 0
M  V30 767 H 70.4697 1.88749 3.76765 0
M  V30 768 H 69.1937 0.799871 3.16654 0
M  V30 769 H 67.8527 2.78404 2.38509 0
M  V30 770 H 67.5007 1.84902 4.67782 0
M  V30 771 H 67.2007 3.60465 4.64046 0
M  V30 772 H 68.7247 2.97775 5.33069 0
M  V30 773 H 70.1387 4.45649 3.60652 0
M  V30 774 H 68.5357 5.1054 3.15387 0
M  V30 775 H 69.6057 4.46363 1.89441 0
M  V30 776 N 70.9488 -0.749086 1.3866 0
M  V30 777 C 72.1968 -1.50535 1.34847 0
M  V30 778 C 72.5178 -1.94909 -0.0595016 0
M  V30 779 O 71.7878 -1.67973 -1.00806 0
M  V30 780 H 70.3678 -0.558395 0.49619 0
M  V30 781 H 73.0298 -0.890165 1.73384 0
M  V30 782 H 72.1258 -2.39413 2.00219 0
M  V30 783 N 72.4269 -1.23603 -0.977757 0
M  V30 784 C 73.6739 -1.06971 -1.71941 0
M  V30 785 C 74.0019 0.393009 -1.90488 0
M  V30 786 O 73.2569 1.30719 -1.4564 0
M  V30 787 C 73.5559 -1.7433 -3.11999 0
M  V30 788 C 73.2219 -3.24252 -3.13323 0
M  V30 789 C 71.8839 -3.65156 -3.13392 0
M  V30 790 C 74.2359 -4.20141 -3.08433 0
M  V30 791 C 71.5639 -5.00403 -3.0629 0
M  V30 792 C 73.9159 -5.55384 -3.02873 0
M  V30 793 C 72.5799 -5.95647 -3.01265 0
M  V30 794 H 71.8499 -0.391433 -0.629175 0
M  V30 795 H 74.4969 -1.53572 -1.14403 0
M  V30 796 H 72.8019 -1.20096 -3.7294 0
M  V30 797 H 74.4989 -1.58936 -3.68158 0
M  V30 798 H 71.0889 -2.91692 -3.14029 0
M  V30 799 H 75.2729 -3.89547 -3.07517 0
M  V30 800 H 70.5289 -5.3081 -3.03399 0
M  V30 801 H 74.7029 -6.29398 -2.98046 0
M  V30 802 H 72.3299 -7.0041 -2.95516 0
M  V30 803 N 73.905 1.17692 -1.04816 0
M  V30 804 C 75.316 1.69501 -0.782698 0
M  V30 805 C 75.667 1.83456 0.695577 0
M  V30 806 O 74.792 1.51942 1.54086 0
M  V30 807 C 75.387 3.07874 -1.41419 0
M  V30 808 C 73.946 3.56864 -1.19686 0
M  V30 809 C 73.093 2.3322 -1.50012 0
M  V30 810 H 76.044 1.02262 -1.2136 0
M  V30 811 H 76.065 3.71528 -0.821428 0
M  V30 812 H 75.577 2.97685 -2.49009 0
M  V30 813 H 73.678 3.72337 -0.140043 0
M  V30 814 H 73.791 4.39851 -1.89916 0
M  V30 815 H 72.155 2.37501 -0.920071 0
M  V30 816 H 72.938 2.25644 -2.58727 0
M  V30 817 N 75.3831 0.828654 1.34056 0
M  V30 818 C 76.2931 0.256725 2.33191 0
M  V30 819 C 77.3091 -0.611898 1.62886 0
M  V30 820 O 78.4851 -0.51844 1.94613 0
M  V30 821 C 75.5501 -0.567238 3.42028 0
M  V30 822 C 74.6111 0.324458 4.28072 0
M  V30 823 C 73.8441 -0.460274 5.31712 0
M  V30 824 O 74.0671 -1.693 5.44696 0
M  V30 825 O 73.0011 0.160391 6.01686 0
M  V30 826 H 76.8271 1.07739 2.83947 0
M  V30 827 H 74.4121 0.59093 1.37217 0
M  V30 828 H 76.2941 -1.03582 4.08471 0
M  V30 829 H 74.9691 -1.36513 2.93506 0
M  V30 830 H 73.8761 0.840659 3.64532 0
M  V30 831 H 75.2091 1.08685 4.8005 0
M  V30 832 N 76.8612 -1.46375 0.584142 0
M  V30 833 C 78.0862 -2.07268 0.0740405 0
M  V30 834 C 78.5112 -1.42979 -1.22223 0
M  V30 835 O 77.8692 -0.514092 -1.73859 0
M  V30 836 C 77.9172 -3.60518 -0.0767769 0
M  V30 837 O 77.0212 -3.96533 -1.13292 0
M  V30 838 H 76.3622 -0.660961 0.0634524 0
M  V30 839 H 78.8922 -1.87991 0.807492 0
M  V30 840 H 78.9022 -4.07021 -0.282489 0
M  V30 841 H 77.5772 -4.06702 0.86986 0
M  V30 842 H 76.1542 -3.61738 -0.905553 0
M  V30 843 N 78.3393 -0.321999 -1.54275 0
M  V30 844 C 79.5863 0.281044 -2.0054 0
M  V30 845 C 79.9143 1.52265 -1.21019 0
M  V30 846 O 79.1693 1.93687 -0.279982 0
M  V30 847 C 79.4683 0.661769 -3.5122 0
M  V30 848 C 79.1343 -0.480482 -4.48333 0
M  V30 849 C 77.7963 -0.794005 -4.74604 0
M  V30 850 C 80.1483 -1.24783 -5.06042 0
M  V30 851 C 77.4763 -1.87763 -5.55844 0
M  V30 852 C 79.8283 -2.32153 -5.88462 0
M  V30 853 C 78.4923 -2.64089 -6.13036 0
M  V30 854 H 77.7623 0.102841 -0.733829 0
M  V30 855 H 80.4093 -0.445453 -1.86247 0
M  V30 856 H 78.7143 1.46867 -3.63232 0
M  V30 857 H 80.4113 1.13989 -3.84457 0
M  V30 858 H 77.0013 -0.226039 -4.28004 0
M  V30 859 H 81.1853 -1.01887 -4.85729 0
M  V30 860 H 76.4413 -2.12954 -5.73115 0
M  V30 861 H 80.6153 -2.92057 -6.32199 0
M  V30 862 H 78.2423 -3.48185 -6.75775 0
M  V30 863 N 79.8174 1.5752 -0.0501392 0
M  V30 864 C 81.0644 1.9265 0.623874 0
M  V30 865 C 81.3924 0.928411 1.70912 0
M  V30 866 O 80.6474 -0.0594525 1.9561 0
M  V30 867 C 80.9464 3.34467 1.25963 0
M  V30 868 C 80.6124 4.49883 0.302689 0
M  V30 869 C 79.2744 4.81184 0.0393636 0
M  V30 870 C 81.6264 5.20002 -0.353205 0
M  V30 871 C 78.9544 5.79951 -0.887308 0
M  V30 872 C 81.3064 6.1976 -1.26806 0
M  V30 873 C 79.9704 6.49491 -1.54007 0
M  V30 874 H 79.2404 0.704957 0.228292 0
M  V30 875 H 81.8874 1.91146 -0.116398 0
M  V30 876 H 80.1924 3.32333 2.07514 0
M  V30 877 H 81.8894 3.58928 1.78806 0
M  V30 878 H 78.4794 4.25457 0.518109 0
M  V30 879 H 82.6634 4.96033 -0.162854 0
M  V30 880 H 77.9194 6.01322 -1.10553 0
M  V30 881 H 82.0934 6.73205 -1.78236 0
M  V30 882 H 79.7204 7.25837 -2.25976 0
M  V30 883 N 81.2955 -0.223234 1.56011 0
M  V30 884 C 82.2585 -1.26014 1.9145 0
M  V30 885 C 83.2585 -1.3989 0.792937 0
M  V30 886 O 84.4485 -1.38184 1.0607 0
M  V30 887 C 81.5805 -2.63422 2.16383 0
M  V30 888 H 82.7735 -0.95796 2.84189 0
M  V30 889 H 80.3265 -0.463576 1.49267 0
M  V30 890 H 81.0615 -2.98741 1.2619 0
M  V30 891 H 80.8465 -2.54728 2.98088 0
M  V30 892 H 82.3365 -3.38249 2.44903 0
M  V30 893 N 82.7736 -1.49793 -0.48987 0
M  V30 894 C 83.6836 -1.70036 -1.61632 0
M  V30 895 C 84.6996 -0.583102 -1.63939 0
M  V30 896 O 85.8756 -0.859169 -1.82154 0
M  V30 897 C 82.9406 -1.77277 -2.97949 0
M  V30 898 C 82.0016 -3.00918 -3.06181 0
M  V30 899 C 81.2346 -3.07804 -4.35996 0
M  V30 900 O 81.4576 -2.21982 -5.25433 0
M  V30 901 O 80.3916 -4.00369 -4.49431 0
M  V30 902 H 84.2176 -2.65486 -1.47482 0
M  V30 903 H 81.8026 -1.33666 -0.667362 0
M  V30 904 H 83.6846 -1.84329 -3.78947 0
M  V30 905 H 82.3596 -0.850076 -3.12339 0
M  V30 906 H 81.2666 -2.99377 -2.2433 0
M  V30 907 H 82.5996 -3.92704 -2.96723 0
M  V30 908 N 84.2517 0.741722 -1.39055 0
M  V30 909 C 85.4997 1.49818 -1.35643 0
M  V30 910 C 85.8207 1.94938 0.0491642 0
M  V30 911 O 85.0907 1.68505 0.999141 0
M  V30 912 H 83.6707 0.555755 -0.499144 0
M  V30 913 H 86.3327 0.880957 -1.73854 0
M  V30 914 H 85.4287 2.38348 -2.01486 0
M  V30 915 N 85.7298 1.2412 0.971189 0
M  V30 916 C 86.6768 1.0305 2.06517 0
M  V30 917 C 87.6468 -0.0550666 1.66009 0
M  V30 918 O 88.8318 0.0988688 1.90544 0
M  V30 919 C 85.9718 0.637653 3.39158 0
M  V30 920 C 85.0848 1.79633 3.92882 0
M  V30 921 C 84.2198 1.34939 5.13775 0
M  V30 922 C 83.2588 2.47823 5.59687 0
M  V30 923 N 82.3958 2.04022 6.71803 0
M  V30 924 H 87.2358 1.96685 2.23873 0
M  V30 925 H 84.7728 0.979694 1.09729 0
M  V30 926 H 86.7308 0.390931 4.15364 0
M  V30 927 H 85.3608 -0.261693 3.21737 0
M  V30 928 H 84.4128 2.15681 3.13346 0
M  V30 929 H 85.7248 2.64466 4.22918 0
M  V30 930 H 84.8788 1.06134 5.97345 0
M  V30 931 H 83.6178 0.471557 4.85415 0
M  V30 932 H 82.6228 2.77392 4.74693 0
M  V30 933 H 83.8478 3.36158 5.90063 0
M  V30 934 H 81.7938 1.18632 6.45184 0
M  V30 935 H 81.7108 2.82409 7.01271 0
M  V30 936 H 82.9788 1.78347 7.58823 0
M  V30 937 N 87.2079 -1.17134 1.05439 0
M  V30 938 C 88.1379 -2.2342 0.678649 0
M  V30 939 C 89.1189 -1.66971 -0.32476 0
M  V30 940 O 90.3039 -1.93149 -0.201802 0
M  V30 941 C 87.4339 -3.47256 0.0552099 0
M  V30 942 C 86.3879 -4.16543 0.98365 0
M  V30 943 C 85.7139 -5.34231 0.223961 0
M  V30 944 C 87.0139 -4.68495 2.3089 0
M  V30 945 H 88.7079 -2.55105 1.56722 0
M  V30 946 H 86.2539 -1.2262 0.754998 0
M  V30 947 H 88.2069 -4.20828 -0.21946 0
M  V30 948 H 86.9309 -3.14846 -0.868319 0
M  V30 949 H 85.5899 -3.44887 1.24293 0
M  V30 950 H 85.2379 -4.98071 -0.702412 0
M  V30 951 H 84.9379 -5.81527 0.842627 0
M  V30 952 H 86.4619 -6.10585 -0.0433671 0
M  V30 953 H 87.8759 -5.33691 2.09396 0
M  V30 954 H 86.2729 -5.26379 2.88176 0
M  V30 955 H 87.3429 -3.85169 2.94572 0
M  V30 956 N 88.686 -0.835752 -1.33615 0
M  V30 957 C 89.618 -0.224151 -2.28101 0
M  V30 958 C 90.631 0.593331 -1.51603 0
M  V30 959 O 91.82 0.420911 -1.73466 0
M  V30 960 C 88.92 0.703309 -3.31522 0
M  V30 961 C 88.093 -0.0741528 -4.37337 0
M  V30 962 C 87.152 0.776176 -5.20444 0
M  V30 963 O 86.178 0.216506 -5.68788 0
M  V30 964 N 87.38 2.09401 -5.41416 0
M  V30 965 H 90.145 -1.03598 -2.81225 0
M  V30 966 H 87.706 -0.69392 -1.46275 0
M  V30 967 H 89.698 1.27707 -3.84022 0
M  V30 968 H 88.268 1.41585 -2.78698 0
M  V30 969 H 87.488 -0.82928 -3.85378 0
M  V30 970 H 88.776 -0.608863 -5.05144 0
M  V30 971 H 88.174 2.57229 -5.03835 0
M  V30 972 H 86.731 2.61633 -5.96985 0
M  V30 973 N 90.1641 1.46063 -0.591896 0
M  V30 974 C 91.1121 2.32124 0.148739 0
M  V30 975 C 92.1061 1.45035 0.875286 0
M  V30 976 O 93.3121 1.61609 0.792632 0
M  V30 977 H 89.6871 0.749024 0.066832 0
M  V30 978 H 91.6581 2.92392 -0.595783 0
M  V30 979 C 90.4071 3.28373 1.1431 0
M  V30 980 H 89.7301 3.95371 0.59346 0
M  V30 981 H 91.1701 3.91352 1.63155 0
M  V30 982 C 89.6291 2.54393 2.20875 0
M  V30 983 O 90.1591 2.31373 3.28374 0
M  V30 984 N 88.3651 2.14797 1.95731 0
M  V30 985 H 87.9121 2.33719 1.08319 0
M  V30 986 H 87.8701 1.65619 2.67241 0
M  V30 987 N 91.6422 0.330177 1.54103 0
M  V30 988 C 92.5902 -0.548226 2.26047 0
M  V30 989 C 93.5842 -1.11309 1.27698 0
M  V30 990 O 94.7902 -1.06036 1.45452 0
M  V30 991 H 91.1652 -0.195456 0.726155 0
M  V30 992 H 93.1362 0.0807567 2.98291 0
M  V30 993 C 91.8852 -1.69415 3.03634 0
M  V30 994 H 91.2082 -1.26876 3.79134 0
M  V30 995 H 92.6482 -2.28423 3.5721 0
M  V30 996 C 91.1072 -2.61569 2.12328 0
M  V30 997 O 91.6372 -3.63462 1.7105 0
M  V30 998 N 89.8432 -2.29952 1.77681 0
M  V30 999 H 89.3902 -1.47134 2.11446 0
M  V30 1000 H 89.3482 -2.91871 1.16869 0
M  V30 1001 N 93.1203 -1.57491 0.0584922 0
M  V30 1002 C 94.3663 -1.93264 -0.614558 0
M  V30 1003 C 94.6993 -0.937717 -1.7006 0
M  V30 1004 O 93.9743 0.0351652 -1.94468 0
M  V30 1005 C 94.2573 -3.3938 -1.20386 0
M  V30 1006 C 94.1103 -4.49625 -0.125375 0
M  V30 1007 C 95.4293 -3.86039 -2.11334 0
M  V30 1008 H 92.5483 -0.702791 -0.221933 0
M  V30 1009 H 95.1903 -1.8961 0.12175 0
M  V30 1010 H 93.3403 -3.42626 -1.83139 0
M  V30 1011 H 95.0123 -4.58506 0.506971 0
M  V30 1012 H 93.2553 -4.30354 0.545672 0
M  V30 1013 H 93.9263 -5.48967 -0.577861 0
M  V30 1014 H 96.4023 -3.84716 -1.58534 0
M  V30 1015 H 95.2783 -4.88914 -2.49507 0
M  V30 1016 H 95.5393 -3.23215 -3.01636 0
M  V30 1017 N 94.5984 0.214957 -1.56127 0
M  V30 1018 C 95.8234 0.95924 -1.83884 0
M  V30 1019 C 96.2484 1.7689 -0.639644 0
M  V30 1020 O 95.6064 1.76566 0.411601 0
M  V30 1021 C 95.6544 1.84723 -3.09693 0
M  V30 1022 O 94.7584 2.94346 -2.8885 0
M  V30 1023 H 94.0994 0.27125 -0.606069 0
M  V30 1024 H 96.6294 0.226276 -2.03345 0
M  V30 1025 H 96.6394 2.25576 -3.39969 0
M  V30 1026 H 95.3144 1.25218 -3.96602 0
M  V30 1027 H 93.8914 2.57391 -2.69823 0
M  V30 1028 N 96.0765 1.50051 0.48192 0
M  V30 1029 C 97.3235 1.60498 1.23477 0
M  V30 1030 C 97.6515 0.300331 1.92167 0
M  V30 1031 O 96.9065 -0.713094 1.82246 0
M  V30 1032 C 97.2055 2.72717 2.30998 0
M  V30 1033 C 96.8715 4.13572 1.79636 0
M  V30 1034 C 95.5335 4.519 1.65348 0
M  V30 1035 C 97.8855 5.01649 1.41412 0
M  V30 1036 C 95.2135 5.76057 1.11244 0
M  V30 1037 C 97.5655 6.26343 0.887538 0
M  V30 1038 C 96.2295 6.63483 0.731207 0
M  V30 1039 H 95.4995 0.587303 0.451836 0
M  V30 1040 H 98.1465 1.83948 0.532468 0
M  V30 1041 H 96.4515 2.43312 3.07094 0
M  V30 1042 H 98.1485 2.78006 2.88988 0
M  V30 1043 H 94.7385 3.83329 1.91721 0
M  V30 1044 H 98.9225 4.72679 1.51289 0
M  V30 1045 H 94.1785 6.03516 0.978686 0
M  V30 1046 H 98.3525 6.93958 0.582654 0
M  V30 1047 H 95.9795 7.59568 0.309806 0
M  V30 1048 N 97.5546 -0.734337 1.39446 0
M  V30 1049 C 98.7796 -1.52866 1.40167 0
M  V30 1050 C 99.2046 -1.881 -0.00171513 0
M  V30 1051 O 98.5626 -1.51957 -0.988879 0
M  V30 1052 C 98.6106 -2.79235 2.28167 0
M  V30 1053 O 97.7146 -3.75185 1.71201 0
M  V30 1054 H 97.0556 -0.461618 0.477289 0
M  V30 1055 H 99.5856 -0.905949 1.8345 0
M  V30 1056 H 99.5956 -3.27963 2.42702 0
M  V30 1057 H 98.2706 -2.52923 3.30156 0
M  V30 1058 H 96.8476 -3.33958 1.65912 0
M  V30 1059 N 99.0327 -1.24633 -0.964593 0
M  V30 1060 C 100.449 -1.01239 -1.2338 0
M  V30 1061 C 100.649 0.2769 -1.99588 0
M  V30 1062 O 99.7047 0.992241 -2.32187 0
M  V30 1063 C 101.018 -2.22937 -2.01791 0
M  V30 1064 C 102.566 -2.27594 -2.14872 0
M  V30 1065 C 103.041 -3.48921 -2.96678 0
M  V30 1066 N 104.532 -3.49257 -3.04259 0
M  V30 1067 C 105.267 -4.39795 -3.67924 0
M  V30 1068 N 104.763 -5.40591 -4.33281 0
M  V30 1069 N 106.556 -4.275 -3.64966 0
M  V30 1070 H 98.7067 -2.0748 -0.454502 0
M  V30 1071 H 100.97 -0.910647 -0.26349 0
M  V30 1072 H 100.676 -3.16587 -1.53184 0
M  V30 1073 H 100.55 -2.25306 -3.02518 0
M  V30 1074 H 102.937 -1.34473 -2.6268 0
M  V30 1075 H 103.018 -2.2925 -1.13482 0
M  V30 1076 H 102.662 -4.42359 -2.49562 0
M  V30 1077 H 102.592 -3.4451 -3.98272 0
M  V30 1078 H 105.083 -2.76337 -2.57771 0
M  V30 1079 H 105.396 -6.05904 -4.79687 0
M  V30 1080 H 103.741 -5.44475 -4.3194 0
M  V30 1081 H 106.932 -3.47987 -3.13086 0
M  V30 1082 H 107.105 -4.98258 -4.14298 0
M  V30 1083 N 100.511 1.16574 -1.06058 0
M  V30 1084 C 101.458 2.20883 -0.669263 0
M  V30 1085 C 102.428 1.62729 0.332918 0
M  V30 1086 O 103.613 1.895 0.222346 0
M  V30 1087 C 100.753 3.45049 -0.0593572 0
M  V30 1088 C 99.8658 4.17458 -1.11143 0
M  V30 1089 C 99.0008 5.29135 -0.467916 0
M  V30 1090 C 98.0398 5.93343 -1.50369 0
M  V30 1091 N 97.1768 6.96516 -0.883706 0
M  V30 1092 H 102.017 2.53709 -1.5632 0
M  V30 1093 H 99.5538 1.24616 -0.781625 0
M  V30 1094 H 101.512 4.16033 0.311771 0
M  V30 1095 H 100.142 3.12781 0.797992 0
M  V30 1096 H 99.1938 3.45101 -1.60029 0
M  V30 1097 H 100.506 4.61307 -1.89731 0
M  V30 1098 H 99.6598 6.06684 -0.0436871 0
M  V30 1099 H 98.3988 4.86443 0.349864 0
M  V30 1100 H 97.4038 5.14517 -1.93784 0
M  V30 1101 H 98.6288 6.38114 -2.32352 0
M  V30 1102 H 96.5748 6.55943 -0.086595 0
M  V30 1103 H 96.4918 7.38723 -1.607 0
M  V30 1104 H 97.7598 7.77993 -0.484543 0
M  V30 1105 N 101.989 0.842826 1.3317 0
M  V30 1106 C 102.937 0.267495 2.31057 0
M  V30 1107 C 103.931 -0.602682 1.58316 0
M  V30 1108 O 105.137 -0.491803 1.73151 0
M  V30 1109 H 101.512 0.0677813 0.748939 0
M  V30 1110 H 103.483 1.10754 2.77085 0
M  V30 1111 C 102.232 -0.539331 3.43492 0
M  V30 1112 H 101.555 0.12095 3.99617 0
M  V30 1113 H 102.995 -0.90767 4.14171 0
M  V30 1114 C 101.454 -1.71981 2.89697 0
M  V30 1115 O 101.984 -2.81862 2.86211 0
M  V30 1116 N 100.19 -1.54299 2.46252 0
M  V30 1117 H 99.7369 -0.649143 2.49287 0
M  V30 1118 H 99.6949 -2.33431 2.10612 0
M  V30 1119 N 103.467 -1.45747 0.599634 0
M  V30 1120 C 104.713 -2.02592 0.0918643 0
M  V30 1121 C 105.046 -1.46806 -1.27128 0
M  V30 1122 O 104.321 -0.639658 -1.83681 0
M  V30 1123 C 104.604 -3.60073 0.0443398 0
M  V30 1124 C 104.457 -4.26208 1.43759 0
M  V30 1125 C 105.776 -4.35309 -0.647608 0
M  V30 1126 H 102.895 -0.736175 0.034857 0
M  V30 1127 H 105.537 -1.73694 0.770081 0
M  V30 1128 H 103.687 -3.84823 -0.533224 0
M  V30 1129 H 105.359 -4.12668 2.06162 0
M  V30 1130 H 103.602 -3.84916 2.00056 0
M  V30 1131 H 104.273 -5.35069 1.35665 0
M  V30 1132 H 106.749 -4.15805 -0.156776 0
M  V30 1133 H 105.625 -5.45038 -0.649942 0
M  V30 1134 H 105.886 -4.07598 -1.71219 0
M  V30 1135 N 104.945 -0.338344 -1.53925 0
M  V30 1136 C 105.875 0.51328 -2.27789 0
M  V30 1137 C 106.856 1.107 -1.29149 0
M  V30 1138 O 108.041 1.12937 -1.57984 0
M  V30 1139 C 105.171 1.66697 -3.04679 0
M  V30 1140 C 104.125 1.20183 -4.1078 0
M  V30 1141 C 103.451 2.44363 -4.75595 0
M  V30 1142 C 104.751 0.30605 -5.21403 0
M  V30 1143 H 106.445 -0.102883 -2.99223 0
M  V30 1144 H 103.991 -0.0509219 -1.4391 0
M  V30 1145 H 105.944 2.26915 -3.55088 0
M  V30 1146 H 104.668 2.30995 -2.30887 0
M  V30 1147 H 103.327 0.622499 -3.61276 0
M  V30 1148 H 102.975 3.07057 -3.98403 0
M  V30 1149 H 102.675 2.13925 -5.47275 0
M  V30 1150 H 104.199 3.05317 -5.28786 0
M  V30 1151 H 105.613 0.814929 -5.67478 0
M  V30 1152 H 104.01 0.0937929 -6.00027 0
M  V30 1153 H 105.08 -0.65921 -4.80398 0
M  V30 1154 N 106.423 1.57458 -0.0668435 0
M  V30 1155 C 107.839 1.56947 0.289772 0
M  V30 1156 C 108.039 1.07584 1.70376 0
M  V30 1157 O 107.095 0.739486 2.41429 0
M  V30 1158 C 108.408 3.0052 0.103943 0
M  V30 1159 C 109.956 3.12517 0.173857 0
M  V30 1160 C 110.431 4.57997 0.0163682 0
M  V30 1161 N 111.922 4.63144 0.0721352 0
M  V30 1162 C 112.657 5.73394 -0.0253794 0
M  V30 1163 N 112.153 6.92576 -0.176133 0
M  V30 1164 N 113.946 5.62091 0.0313305 0
M  V30 1165 H 106.097 1.87863 -0.991027 0
M  V30 1166 H 108.36 0.86583 -0.38606 0
M  V30 1167 H 108.066 3.40729 -0.871572 0
M  V30 1168 H 107.94 3.67304 0.858366 0
M  V30 1169 H 110.327 2.72197 1.13985 0
M  V30 1170 H 110.408 2.48381 -0.611586 0
M  V30 1171 H 110.052 4.99005 -0.946374 0
M  V30 1172 H 109.982 5.20158 0.821153 0
M  V30 1173 H 112.473 3.77436 0.187263 0
M  V30 1174 H 112.786 7.72418 -0.242821 0
M  V30 1175 H 111.131 6.94678 -0.211429 0
M  V30 1176 H 114.322 4.67867 0.147773 0
M  V30 1177 H 114.495 6.47982 -0.048121 0
M  V30 1178 N 107.901 -0.206675 1.56239 0
M  V30 1179 C 109.149 -0.927007 1.79586 0
M  V30 1180 C 109.47 -1.8427 0.637929 0
M  V30 1181 O 108.74 -1.92849 -0.344398 0
M  V30 1182 H 107.32 -0.345292 0.662407 0
M  V30 1183 H 109.982 -0.21496 1.93711 0
M  V30 1184 H 109.078 -1.52501 2.72305 0
M  V30 1185 N 109.379 -1.50304 -0.473955 0
M  V30 1186 C 110.309 -1.71886 -1.58042 0
M  V30 1187 C 111.29 -0.567799 -1.60344 0
M  V30 1188 O 112.475 -0.806623 -1.76656 0
M  V30 1189 C 109.605 -1.81036 -2.96384 0
M  V30 1190 C 108.559 -2.962 -3.08949 0
M  V30 1191 C 107.885 -2.9049 -4.48909 0
M  V30 1192 C 109.185 -4.36752 -2.86434 0
M  V30 1193 H 110.879 -2.64527 -1.40234 0
M  V30 1194 H 108.425 -1.27295 -0.673201 0
M  V30 1195 H 110.378 -1.94719 -3.73714 0
M  V30 1196 H 109.102 -0.850147 -3.15341 0
M  V30 1197 H 107.761 -2.82164 -2.3405 0
M  V30 1198 H 107.409 -1.92321 -4.64781 0
M  V30 1199 H 107.109 -3.67802 -4.58253 0
M  V30 1200 H 108.633 -3.06218 -5.28264 0
M  V30 1201 H 110.047 -4.5133 -3.53517 0
M  V30 1202 H 108.444 -5.15493 -3.07225 0
M  V30 1203 H 109.514 -4.49321 -1.82316 0
M  V30 1204 N 110.857 0.726932 -1.39834 0
M  V30 1205 C 111.807 1.83232 -1.35683 0
M  V30 1206 C 112.791 1.59155 -0.236295 0
M  V30 1207 O 113.983 1.70522 -0.474488 0
M  V30 1208 C 111.112 3.21246 -1.21062 0
M  V30 1209 C 110.198 3.51125 -2.37849 0
M  V30 1210 N 110.589 3.51889 -3.63329 0
M  V30 1211 C 108.887 3.81527 -2.30982 0
M  V30 1212 C 109.588 3.79791 -4.40606 0
M  V30 1213 N 108.564 3.97971 -3.70297 0
M  V30 1214 H 112.366 1.8214 -2.30656 0
M  V30 1215 H 109.88 0.925545 -1.33444 0
M  V30 1216 H 111.877 4.00387 -1.16171 0
M  V30 1217 H 110.537 3.23572 -0.270458 0
M  V30 1218 H 111.548 3.33008 -3.96643 0
M  V30 1219 H 108.225 3.91411 -1.45272 0
M  V30 1220 H 109.615 3.86783 -5.49408 0
M  V30 1221 N 112.336 1.25143 0.95797 0
M  V30 1222 C 113.299 1.05321 2.03569 0
M  V30 1223 C 114.299 0.007152 1.60798 0
M  V30 1224 O 115.489 0.24903 1.72411 0
M  V30 1225 C 112.621 0.598394 3.35607 0
M  V30 1226 H 113.814 2.00986 2.22586 0
M  V30 1227 H 111.367 1.07502 1.13459 0
M  V30 1228 H 112.102 -0.361014 3.22284 0
M  V30 1229 H 111.887 1.35351 3.67998 0
M  V30 1230 H 113.377 0.48104 4.1482 0
M  V30 1231 N 113.814 -1.1601 1.06675 0
M  V30 1232 C 114.724 -2.24156 0.692179 0
M  V30 1233 C 115.74 -1.71507 -0.293513 0
M  V30 1234 O 116.916 -2.009 -0.141861 0
M  V30 1235 C 113.981 -3.46587 0.0884131 0
M  V30 1236 C 113.042 -4.14257 1.12646 0
M  V30 1237 C 112.275 -5.30844 0.551416 0
M  V30 1238 O 112.498 -5.66858 -0.634656 0
M  V30 1239 O 111.432 -5.87848 1.29298 0
M  V30 1240 H 115.258 -2.58513 1.59388 0
M  V30 1241 H 112.843 -1.23599 0.83926 0
M  V30 1242 H 114.725 -4.20679 -0.246361 0
M  V30 1243 H 113.4 -3.13994 -0.786712 0
M  V30 1244 H 112.307 -3.42118 1.51348 0
M  V30 1245 H 113.64 -4.50914 1.97325 0
M  V30 1246 N 115.292 -0.849877 -1.32721 0
M  V30 1247 C 116.703 -0.506188 -1.79707 0
M  V30 1248 C 117.054 0.975627 -1.70223 0
M  V30 1249 O 116.179 1.76078 -1.25799 0
M  V30 1250 C 116.774 -0.912044 -3.26293 0
M  V30 1251 C 115.333 -0.620326 -3.71253 0
M  V30 1252 C 114.48 -1.11439 -2.53922 0
M  V30 1253 H 117.431 -1.03754 -1.20087 0
M  V30 1254 H 117.452 -0.226493 -3.79825 0
M  V30 1255 H 116.964 -1.99057 -3.33164 0
M  V30 1256 H 115.065 0.447674 -3.69901 0
M  V30 1257 H 115.178 -1.18327 -4.64258 0
M  V30 1258 H 113.542 -0.534834 -2.49021 0
M  V30 1259 H 114.325 -2.19992 -2.6355 0
M  V30 1260 N 116.77 1.45427 -0.607355 0
M  V30 1261 C 118.016 2.03097 -0.111035 0
M  V30 1262 C 118.371 1.46735 1.24445 0
M  V30 1263 O 117.664 0.632478 1.8086 0
M  V30 1264 C 117.858 3.57398 -0.0129263 0
M  V30 1265 C 117.687 4.28726 -1.35735 0
M  V30 1266 C 116.457 4.66659 -1.93798 0
M  V30 1267 C 118.655 4.60699 -2.28607 0
M  V30 1268 N 116.637 5.22845 -3.21723 0
M  V30 1269 C 118.008 5.17716 -3.41131 0
M  V30 1270 C 120.063 4.42638 -2.27982 0
M  V30 1271 C 118.766 5.58576 -4.53194 0
M  V30 1272 C 120.792 4.84531 -3.39093 0
M  V30 1273 C 120.154 5.4164 -4.50339 0
M  V30 1274 H 116.253 0.777476 -0.083994 0
M  V30 1275 H 118.837 1.77249 -0.805655 0
M  V30 1276 H 117.008 3.82907 0.650914 0
M  V30 1277 H 118.74 4.01722 0.490033 0
M  V30 1278 H 115.495 4.50207 -1.47007 0
M  V30 1279 H 115.919 5.55438 -3.87063 0
M  V30 1280 H 120.561 3.97798 -1.43235 0
M  V30 1281 H 118.279 6.02382 -5.38667 0
M  V30 1282 H 121.865 4.72289 -3.39757 0
M  V30 1283 H 120.745 5.73461 -5.34895 0
M  V30 1284 N 118.248 0.346503 1.53744 0
M  V30 1285 C 119.525 -0.304532 1.93215 0
M  V30 1286 C 119.905 -1.67993 1.27834 0
M  V30 1287 O 119.253 -2.24411 0.430352 0
M  V30 1288 C 119.463 -0.373852 3.46992 0
M  V30 1289 C 120.811 -0.62329 4.2 0
M  V30 1290 O 121.835 -0.455847 3.53271 0
M  V30 1291 O 120.694 -0.947879 5.38217 0
M  V30 1292 H 117.788 -0.178318 0.807547 0
M  V30 1293 H 120.334 0.397895 1.64969 0
M  V30 1294 H 119.106 0.591224 3.86808 0
M  V30 1295 H 118.729 -1.12294 3.81413 0
M  V30 1296 N 119.726 -1.57421 0.075193 0
M  V30 1297 C 120.673 -2.12915 -0.890843 0
M  V30 1298 C 121.643 -1.04252 -1.29309 0
M  V30 1299 O 122.828 -1.31933 -1.37834 0
M  V30 1300 C 119.968 -2.69795 -2.15186 0
M  V30 1301 C 119.081 -3.92624 -1.80194 0
M  V30 1302 C 118.216 -4.37736 -3.00933 0
M  V30 1303 C 117.255 -5.53205 -2.61974 0
M  V30 1304 N 116.392 -5.9326 -3.75483 0
M  V30 1305 H 121.232 -2.95156 -0.410735 0
M  V30 1306 H 118.769 -1.45854 -0.191086 0
M  V30 1307 H 120.727 -3.00883 -2.89008 0
M  V30 1308 H 119.357 -1.90313 -2.60731 0
M  V30 1309 H 118.409 -3.67977 -0.964218 0
M  V30 1310 H 119.721 -4.76482 -1.47534 0
M  V30 1311 H 118.875 -4.70503 -3.8303 0
M  V30 1312 H 117.614 -3.52739 -3.36789 0
M  V30 1313 H 116.619 -5.20086 -1.783 0
M  V30 1314 H 117.844 -6.39936 -2.27284 0
M  V30 1315 H 115.79 -5.11212 -4.11094 0
M  V30 1316 H 115.707 -6.71865 -3.46602 0
M  V30 1317 H 116.975 -6.30651 -4.58148 0
M  V30 1318 N 121.204 0.198386 -1.56346 0
M  V30 1319 C 122.434 0.934215 -1.84271 0
M  V30 1320 C 122.842 1.77496 -0.655125 0
M  V30 1321 O 122.185 1.7961 0.385488 0
M  V30 1322 C 122.247 1.88278 -3.06254 0
M  V30 1323 C 121.911 1.22431 -4.40295 0
M  V30 1324 C 122.908 0.602839 -5.16393 0
M  V30 1325 C 120.593 1.22915 -4.87029 0
M  V30 1326 C 122.587 -0.0050083 -6.374 0
M  V30 1327 C 120.274 0.617465 -6.07973 0
M  V30 1328 C 121.272 0.00146341 -6.83 0
M  V30 1329 O 120.96 -0.600642 -8.01653 0
M  V30 1330 H 120.692 0.278245 -0.616081 0
M  V30 1331 H 123.246 0.211626 -2.04307 0
M  V30 1332 H 121.476 2.64498 -2.82095 0
M  V30 1333 H 123.165 2.48612 -3.20853 0
M  V30 1334 H 123.931 0.591265 -4.81382 0
M  V30 1335 H 119.81 1.69801 -4.28589 0
M  V30 1336 H 123.354 -0.48643 -6.95902 0
M  V30 1337 H 119.251 0.62653 -6.42452 0
M  V30 1338 H 120.019 -0.497225 -8.16988 0
M  V30 1339 N 122.682 1.50554 0.465978 0
M  V30 1340 C 123.931 1.61038 1.21448 0
M  V30 1341 C 124.244 0.31865 1.92987 0
M  V30 1342 O 125.45 0.302469 2.6981 0
M  V30 1343 C 123.906 2.84283 2.20706 0
M  V30 1344 C 123.514 4.20352 1.54946 0
M  V30 1345 C 125.258 3.04115 2.96166 0
M  V30 1346 C 123.165 5.34778 2.5252 0
M  V30 1347 H 122.095 0.599718 0.457005 0
M  V30 1348 H 124.746 1.7699 0.484424 0
M  V30 1349 H 123.128 2.61901 2.97025 0
M  V30 1350 H 124.302 4.53008 0.843811 0
M  V30 1351 H 122.617 4.06167 0.917475 0
M  V30 1352 H 125.214 3.86774 3.69202 0
M  V30 1353 H 125.557 2.16045 3.55852 0
M  V30 1354 H 126.09 3.26702 2.26959 0
M  V30 1355 H 122.829 6.25018 1.97566 0
M  V30 1356 H 122.349 5.06534 3.21222 0
M  V30 1357 H 124.028 5.65561 3.14245 0
M  V30 1358 N 124.16 -0.719506 1.40217 0
M  V30 1359 C 125.385 -1.51371 1.4178 0
M  V30 1360 C 125.81 -1.88091 0.0182355 0
M  V30 1361 O 125.168 -1.52997 -0.972707 0
M  V30 1362 C 125.216 -2.768 2.31115 0
M  V30 1363 O 124.32 -3.73349 1.7517 0
M  V30 1364 H 123.661 -0.456529 0.482159 0
M  V30 1365 H 126.191 -0.88644 1.844 0
M  V30 1366 H 126.201 -3.25371 2.46167 0
M  V30 1367 H 124.876 -2.49407 3.3282 0
M  V30 1368 H 123.453 -3.32179 1.69444 0
M  V30 1369 N 125.638 -1.25649 -0.95132 0
M  V30 1370 C 126.884 -1.10757 -1.69884 0
M  V30 1371 C 127.217 0.350061 -1.91019 0
M  V30 1372 O 126.492 1.25783 -1.48354 0
M  V30 1373 C 126.775 -1.86606 -3.07978 0
M  V30 1374 C 126.628 -3.40217 -2.94232 0
M  V30 1375 C 127.947 -1.65182 -4.07925 0
M  V30 1376 H 125.066 -0.40374 -0.616574 0
M  V30 1377 H 127.708 -1.54521 -1.10558 0
M  V30 1378 H 125.858 -1.49409 -3.58621 0
M  V30 1379 H 127.53 -3.87108 -2.50889 0
M  V30 1380 H 125.773 -3.67759 -2.30078 0
M  V30 1381 H 126.444 -3.88505 -3.92133 0
M  V30 1382 H 128.92 -1.9757 -3.66204 0
M  V30 1383 H 127.796 -2.20683 -5.02583 0
M  V30 1384 H 128.057 -0.593933 -4.38092 0
M  V30 1385 N 127.117 1.15442 -1.07289 0
M  V30 1386 C 128.08 2.18358 -0.696591 0
M  V30 1387 C 129.08 1.58637 0.262837 0
M  V30 1388 O 130.27 1.74145 0.0438809 0
M  V30 1389 C 127.402 3.4089 -0.0266151 0
M  V30 1390 H 128.595 2.53162 -1.60776 0
M  V30 1391 H 126.148 1.29893 -0.869342 0
M  V30 1392 H 126.883 3.11653 0.896822 0
M  V30 1393 H 126.668 3.85495 -0.716657 0
M  V30 1394 H 128.158 4.17009 0.222028 0
M  V30 1395 N 128.595 0.856903 1.32268 0
M  V30 1396 C 129.872 0.382583 1.91822 0
M  V30 1397 C 130.252 -1.13407 1.78051 0
M  V30 1398 O 129.6 -1.95673 1.18001 0
M  V30 1399 C 129.81 0.849446 3.38505 0
M  V30 1400 C 131.158 0.867936 4.15634 0
M  V30 1401 O 132.182 0.794232 3.47232 0
M  V30 1402 O 131.041 0.972286 5.37781 0
M  V30 1403 H 128.135 0.112014 0.819379 0
M  V30 1404 H 130.681 0.943952 1.41024 0
M  V30 1405 H 129.453 1.89267 3.42482 0
M  V30 1406 H 129.076 0.265652 3.96712 0
M  V30 1407 N 130.073 -1.45103 0.615059 0
M  V30 1408 C 131.321 -2.01784 0.112955 0
M  V30 1409 C 131.642 -1.48504 -1.26378 0
M  V30 1410 O 130.912 -0.682245 -1.83636 0
M  V30 1411 H 129.492 -0.745993 0.0387668 0
M  V30 1412 H 132.154 -1.77808 0.798141 0
M  V30 1413 H 131.25 -3.12025 0.0684069 0
M  V30 1414 N 131.551 -0.354651 -1.53558 0
M  V30 1415 C 132.799 0.237972 -2.00694 0
M  V30 1416 C 133.12 1.50173 -1.24391 0
M  V30 1417 O 132.39 1.92673 -0.354135 0
M  V30 1418 H 130.97 0.0909256 -0.741446 0
M  V30 1419 H 133.632 -0.478368 -1.88938 0
M  V30 1420 H 132.728 0.47264 -3.085 0
M  V30 1421 N 133.029 1.57378 -0.0835403 0
M  V30 1422 C 133.976 2.13384 0.879539 0
M  V30 1423 C 134.946 1.04936 1.28754 0
M  V30 1424 O 136.131 1.32662 1.37133 0
M  V30 1425 C 133.271 2.70932 2.13752 0
M  V30 1426 C 132.384 3.93575 1.7811 0
M  V30 1427 C 131.519 4.39326 2.98607 0
M  V30 1428 C 130.558 5.54587 2.59037 0
M  V30 1429 N 129.695 5.95243 3.72331 0
M  V30 1430 H 134.535 2.9537 0.395076 0
M  V30 1431 H 132.072 1.45953 0.183349 0
M  V30 1432 H 134.03 3.02411 2.87408 0
M  V30 1433 H 132.66 1.91693 2.59718 0
M  V30 1434 H 131.712 3.68483 0.94469 0
M  V30 1435 H 133.024 4.77258 1.45005 0
M  V30 1436 H 132.178 4.72528 3.80529 0
M  V30 1437 H 130.917 3.5452 3.34913 0
M  V30 1438 H 129.922 5.21024 1.75539 0
M  V30 1439 H 131.147 6.41133 2.23887 0
M  V30 1440 H 129.093 5.13385 4.08378 0
M  V30 1441 H 129.01 6.73694 3.43034 0
M  V30 1442 H 130.278 6.33072 4.54797 0
M  V30 1443 N 134.507 -0.190092 1.56449 0
M  V30 1444 C 135.753 -0.911052 1.81184 0
M  V30 1445 C 136.086 -1.82699 0.658396 0
M  V30 1446 O 135.361 -1.91491 -0.340775 0
M  V30 1447 C 135.644 -1.72297 3.16205 0
M  V30 1448 C 135.497 -0.831419 4.42049 0
M  V30 1449 C 136.816 -2.69454 3.47969 0
M  V30 1450 H 133.935 -0.32977 0.659106 0
M  V30 1451 H 136.577 -0.178169 1.89163 0
M  V30 1452 H 134.727 -2.34778 3.09534 0
M  V30 1453 H 136.399 -0.220929 4.60771 0
M  V30 1454 H 134.642 -0.138406 4.33579 0
M  V30 1455 H 135.313 -1.43461 5.33032 0
M  V30 1456 H 137.789 -2.17104 3.54972 0
M  V30 1457 H 136.665 -3.23342 4.43555 0
M  V30 1458 H 136.926 -3.48744 2.71717 0
M  V30 1459 N 135.985 -1.50799 -0.457987 0
M  V30 1460 C 136.915 -1.73553 -1.5621 0
M  V30 1461 C 137.896 -0.584774 -1.59732 0
M  V30 1462 O 139.081 -0.825314 -1.7579 0
M  V30 1463 C 136.211 -1.84169 -2.94447 0
M  V30 1464 C 135.165 -2.99461 -3.0579 0
M  V30 1465 C 134.491 -2.95235 -4.45803 0
M  V30 1466 C 135.791 -4.39766 -2.81786 0
M  V30 1467 H 137.485 -2.66 -1.37421 0
M  V30 1468 H 135.031 -1.28002 -0.659662 0
M  V30 1469 H 136.984 -1.98672 -3.71628 0
M  V30 1470 H 135.708 -0.883545 -3.14422 0
M  V30 1471 H 134.367 -2.8463 -2.31044 0
M  V30 1472 H 134.015 -1.97239 -4.62715 0
M  V30 1473 H 133.715 -3.72642 -4.54326 0
M  V30 1474 H 135.239 -3.11803 -5.24987 0
M  V30 1475 H 136.653 -4.55054 -3.4871 0
M  V30 1476 H 135.05 -5.18722 -3.0174 0
M  V30 1477 H 136.12 -4.51229 -1.7754 0
M  V30 1478 N 137.463 0.71206 -1.40597 0
M  V30 1479 C 138.711 1.46907 -1.38791 0
M  V30 1480 C 139.032 1.94998 0.00780391 0
M  V30 1481 O 138.302 1.70587 0.963174 0
M  V30 1482 H 136.882 0.545043 -0.51082 0
M  V30 1483 H 139.544 0.843882 -1.75683 0
M  V30 1484 H 138.64 2.34021 -2.06496 0
M  V30 1485 N 138.941 1.26152 0.944643 0
M  V30 1486 C 140.169 1.14259 1.72489 0
M  V30 1487 C 140.584 -0.302555 1.8636 0
M  V30 1488 O 139.941 -1.20741 1.36849 0
M  V30 1489 C 139.992 1.80266 3.13347 0
M  V30 1490 O 139.713 3.19133 3.00143 0
M  V30 1491 C 141.214 1.74283 4.07603 0
M  V30 1492 H 138.434 0.398051 0.540181 0
M  V30 1493 H 140.978 1.66706 1.18446 0
M  V30 1494 H 139.133 1.31766 3.64303 0
M  V30 1495 H 139.547 3.51744 3.89071 0
M  V30 1496 H 141.021 2.25111 5.04013 0
M  V30 1497 H 141.498 0.708631 4.33446 0
M  V30 1498 H 142.104 2.22319 3.62567 0
M  V30 1499 N 140.419 -1.14872 1.07899 0
M  V30 1500 C 141.665 -1.86289 0.81657 0
M  V30 1501 C 142.02 -1.8107 -0.65049 0
M  V30 1502 O 141.313 -1.22684 -1.47171 0
M  V30 1503 C 141.507 -3.34223 1.26609 0
M  V30 1504 C 141.336 -3.53846 2.77531 0
M  V30 1505 C 140.106 -3.68995 3.45212 0
M  V30 1506 C 142.304 -3.51201 3.75716 0
M  V30 1507 N 140.286 -3.76725 4.84718 0
M  V30 1508 C 141.657 -3.65112 5.01092 0
M  V30 1509 C 143.712 -3.34507 3.68794 0
M  V30 1510 C 142.415 -3.64056 6.20368 0
M  V30 1511 C 144.441 -3.34752 4.8754 0
M  V30 1512 C 143.803 -3.49199 6.11751 0
M  V30 1513 H 139.902 -0.698579 0.351443 0
M  V30 1514 H 142.486 -1.37713 1.37634 0
M  V30 1515 H 140.657 -3.81402 0.73395 0
M  V30 1516 H 142.389 -3.93377 0.95062 0
M  V30 1517 H 139.144 -3.70006 2.95622 0
M  V30 1518 H 139.568 -3.8432 5.5734 0
M  V30 1519 H 144.21 -3.22253 2.73702 0
M  V30 1520 H 141.928 -3.75087 7.15776 0
M  V30 1521 H 145.514 -3.23055 4.83866 0
M  V30 1522 H 144.394 -3.49328 7.02097 0
M  V30 1523 N 141.898 -0.863906 -1.31812 0
M  V30 1524 C 143.144 -0.472535 -1.97218 0
M  V30 1525 C 143.477 0.971394 -1.68159 0
M  V30 1526 O 142.752 1.68309 -0.974798 0
M  V30 1527 C 143.035 -0.723054 -3.52766 0
M  V30 1528 C 142.888 -2.21608 -3.91421 0
M  V30 1529 C 144.207 -0.185522 -4.39709 0
M  V30 1530 H 141.326 -0.173158 -0.71637 0
M  V30 1531 H 143.968 -1.08403 -1.56041 0
M  V30 1532 H 142.118 -0.202577 -3.87971 0
M  V30 1533 H 143.79 -2.80334 -3.66347 0
M  V30 1534 H 142.033 -2.691 -3.40246 0
M  V30 1535 H 142.704 -2.34203 -4.99853 0
M  V30 1536 H 145.18 -0.630726 -4.11292 0
M  V30 1537 H 144.056 -0.390306 -5.47511 0
M  V30 1538 H 144.317 0.912229 -4.32586 0
M  V30 1539 N 143.376 1.44774 -0.622745 0
M  V30 1540 C 144.653 1.95522 -0.0551974 0
M  V30 1541 C 145.033 1.5649 1.41683 0
M  V30 1542 O 144.381 0.834848 2.12703 0
M  V30 1543 C 144.591 3.4796 -0.269242 0
M  V30 1544 C 145.939 4.24306 -0.158014 0
M  V30 1545 O 146.963 3.55637 -0.200162 0
M  V30 1546 O 145.822 5.46471 -0.0558693 0
M  V30 1547 H 142.916 0.826556 0.0271015 0
M  V30 1548 H 145.462 1.54866 -0.693864 0
M  V30 1549 H 144.234 3.6939 -1.29099 0
M  V30 1550 H 143.857 3.95543 0.403966 0
M  V30 1551 N 144.854 0.36279 1.53368 0
M  V30 1552 C 145.784 -0.476976 2.28576 0
M  V30 1553 C 146.765 -1.08631 1.30894 0
M  V30 1554 O 147.95 -1.10409 1.59761 0
M  V30 1555 C 145.08 -1.61828 3.07293 0
M  V30 1556 C 144.034 -1.13633 4.1264 0
M  V30 1557 C 143.36 -2.36766 4.79423 0
M  V30 1558 C 144.66 -0.223061 5.21823 0
M  V30 1559 H 146.354 0.150474 2.99022 0
M  V30 1560 H 143.9 0.0738103 1.43811 0
M  V30 1561 H 145.853 -2.21237 3.58653 0
M  V30 1562 H 144.577 -2.27292 2.34533 0
M  V30 1563 H 143.236 -0.564945 3.62221 0
M  V30 1564 H 142.884 -3.0068 4.03238 0
M  V30 1565 H 142.584 -2.05192 5.50609 0
M  V30 1566 H 144.108 -2.96865 5.33576 0
M  V30 1567 H 145.522 -0.724545 5.68703 0
M  V30 1568 H 143.919 0.001678 6.001 0
M  V30 1569 H 144.989 0.735553 4.79289 0
M  V30 1570 N 146.332 -1.57332 0.0918853 0
M  V30 1571 C 147.748 -1.57389 -0.264766 0
M  V30 1572 C 147.948 -1.10281 -1.68643 0
M  V30 1573 O 147.004 -0.777801 -2.40222 0
M  V30 1574 C 148.317 -3.00648 -0.0561195 0
M  V30 1575 C 149.865 -3.12754 -0.124116 0
M  V30 1576 C 150.34 -4.57965 0.0564972 0
M  V30 1577 N 151.831 -4.632 0.00155611 0
M  V30 1578 C 152.566 -5.73281 0.116598 0
M  V30 1579 N 152.062 -6.92208 0.286294 0
M  V30 1580 N 153.855 -5.6207 0.0580973 0
M  V30 1581 H 146.006 -1.86262 1.02079 0
M  V30 1582 H 148.269 -0.859579 0.399786 0
M  V30 1583 H 147.975 -3.393 0.925669 0
M  V30 1584 H 147.849 -3.68623 -0.799823 0
M  V30 1585 H 150.236 -2.73976 -1.09641 0
M  V30 1586 H 150.317 -2.47377 0.651024 0
M  V30 1587 H 149.961 -4.97436 1.02564 0
M  V30 1588 H 149.891 -5.21399 -0.738297 0
M  V30 1589 H 152.382 -3.77686 -0.127192 0
M  V30 1590 H 152.695 -7.71934 0.365676 0
M  V30 1591 H 151.04 -6.94254 0.32192 0
M  V30 1592 H 154.231 -4.68043 -0.0733204 0
M  V30 1593 H 154.404 -6.47824 0.151203 0
M  V30 1594 N 147.81 0.181792 -1.56548 0
M  V30 1595 C 148.72 1.24538 -1.98815 0
M  V30 1596 C 149.736 1.49045 -0.897861 0
M  V30 1597 O 150.912 1.61399 -1.20467 0
M  V30 1598 C 147.977 2.56683 -2.33055 0
M  V30 1599 C 147.038 2.40131 -3.55859 0
M  V30 1600 C 146.271 3.65975 -3.88456 0
M  V30 1601 O 146.494 4.70711 -3.22161 0
M  V30 1602 O 145.428 3.6071 -4.81842 0
M  V30 1603 H 149.254 0.916647 -2.89536 0
M  V30 1604 H 146.839 0.387842 -1.44278 0
M  V30 1605 H 148.721 3.34655 -2.56094 0
M  V30 1606 H 147.396 2.89157 -1.45498 0
M  V30 1607 H 146.303 1.60226 -3.38051 0
M  V30 1608 H 147.636 2.12585 -4.43924 0
M  V30 1609 N 149.288 1.51039 0.449983 0
M  V30 1610 C 150.536 1.62759 1.19808 0
M  V30 1611 C 150.857 0.339981 1.92013 0
M  V30 1612 O 150.127 -0.643606 1.85026 0
M  V30 1613 H 148.707 0.599811 0.445237 0
M  V30 1614 H 151.369 1.87914 0.517138 0
M  V30 1615 H 150.465 2.44911 1.93455 0
M  V30 1616 N 150.766 -0.704594 1.40972 0
M  V30 1617 C 151.676 -1.84856 1.44448 0
M  V30 1618 C 152.692 -1.70726 0.335961 0
M  V30 1619 O 153.868 -1.92799 0.582276 0
M  V30 1620 C 150.933 -3.20758 1.31587 0
M  V30 1621 C 149.994 -3.47063 2.52677 0
M  V30 1622 C 149.227 -4.76481 2.4042 0
M  V30 1623 O 149.45 -5.52341 1.42391 0
M  V30 1624 O 148.384 -5.03367 3.30007 0
M  V30 1625 H 152.21 -1.8488 2.40942 0
M  V30 1626 H 149.795 -0.85647 1.22413 0
M  V30 1627 H 151.677 -4.01913 1.26665 0
M  V30 1628 H 150.352 -3.21438 0.382049 0
M  V30 1629 H 149.259 -2.65873 2.63177 0
M  V30 1630 H 150.592 -3.5119 3.44858 0
M  V30 1631 N 152.244 -1.26651 -0.937939 0
M  V30 1632 C 153.472 -1.15173 -1.7188 0
M  V30 1633 C 153.887 0.292668 -1.86518 0
M  V30 1634 O 153.244 1.20014 -1.37488 0
M  V30 1635 C 153.295 -1.81925 -3.12387 0
M  V30 1636 O 153.016 -3.2072 -2.98446 0
M  V30 1637 C 154.517 -1.76442 -4.06673 0
M  V30 1638 H 151.737 -0.400911 -0.538063 0
M  V30 1639 H 154.281 -1.67332 -1.1756 0
M  V30 1640 H 152.436 -1.33696 -3.63599 0
M  V30 1641 H 152.85 -3.53802 -3.872 0
M  V30 1642 H 154.324 -2.27781 -5.02812 0
M  V30 1643 H 154.801 -0.731608 -4.33064 0
M  V30 1644 H 155.407 -2.24238 -3.61382 0
M  V30 1645 N 153.722 1.14298 -1.08507 0
M  V30 1646 C 154.969 1.85359 -0.815373 0
M  V30 1647 C 155.297 1.83001 0.658865 0
M  V30 1648 O 154.552 1.25655 1.50031 0
M  V30 1649 C 154.851 3.33547 -1.28379 0
M  V30 1650 C 154.517 3.56093 -2.76602 0
M  V30 1651 C 153.179 3.61955 -3.17084 0
M  V30 1652 C 155.531 3.64834 -3.72217 0
M  V30 1653 C 152.859 3.74082 -4.51973 0
M  V30 1654 C 155.211 3.78487 -5.06883 0
M  V30 1655 C 153.875 3.82598 -5.46969 0
M  V30 1656 H 153.145 0.678276 -0.298366 0
M  V30 1657 H 155.792 1.35002 -1.35819 0
M  V30 1658 H 154.097 3.86191 -0.660593 0
M  V30 1659 H 155.794 3.86959 -1.05186 0
M  V30 1660 H 152.384 3.52179 -2.4427 0
M  V30 1661 H 156.568 3.59595 -3.42061 0
M  V30 1662 H 151.824 3.75527 -4.82483 0
M  V30 1663 H 155.998 3.84193 -5.80834 0
M  V30 1664 H 153.625 3.91747 -6.51489 0
M  V30 1665 N 155.201 0.870884 1.31352 0
M  V30 1666 C 156.449 0.48132 1.96285 0
M  V30 1667 C 156.77 -0.969813 1.69173 0
M  V30 1668 O 156.04 -1.67998 1.00764 0
M  V30 1669 H 154.62 0.175002 0.726212 0
M  V30 1670 H 157.282 1.11087 1.60143 0
M  V30 1671 H 156.378 0.639825 3.05471 0
M  V30 1672 N 156.679 -1.44442 0.630414 0
M  V30 1673 C 157.627 -2.32437 -0.0871428 0
M  V30 1674 C 158.621 -1.47304 -0.836525 0
M  V30 1675 O 159.827 -1.63653 -0.749506 0
M  V30 1676 H 156.202 -0.750533 -0.0469495 0
M  V30 1677 H 158.173 -2.90709 0.673096 0
M  V30 1678 C 156.922 -3.31288 -1.05563 0
M  V30 1679 H 156.245 -3.96805 -0.488426 0
M  V30 1680 H 157.685 -3.9554 -1.52721 0
M  V30 1681 C 156.144 -2.6016 -2.14052 0
M  V30 1682 O 156.674 -2.39997 -3.22124 0
M  V30 1683 N 154.88 -2.19911 -1.89967 0
M  V30 1684 H 154.427 -2.36509 -1.02085 0
M  V30 1685 H 154.385 -1.72646 -2.62756 0
M  V30 1686 N 158.157 -0.370918 -1.53173 0
M  V30 1687 C 159.385 0.217704 -2.05751 0
M  V30 1688 C 159.8 1.42018 -1.24404 0
M  V30 1689 O 159.157 1.80245 -0.286033 0
M  V30 1690 C 159.208 0.605954 -3.56385 0
M  V30 1691 O 158.929 -0.548734 -4.3465 0
M  V30 1692 C 160.43 1.2524 -4.25241 0
M  V30 1693 H 157.65 0.0371659 -0.66997 0
M  V30 1694 H 160.194 -0.530832 -1.9749 0
M  V30 1695 H 158.349 1.3044 -3.6478 0
M  V30 1696 H 158.763 -0.23376 -5.23979 0
M  V30 1697 H 160.237 1.47458 -5.3194 0
M  V30 1698 H 160.714 2.2143 -3.79296 0
M  V30 1699 H 161.32 0.595233 -4.21114 0
M  V30 1700 N 159.635 1.57281 -0.100228 0
M  V30 1701 C 160.865 1.98591 0.569681 0
M  V30 1702 C 161.273 0.978315 1.61943 0
M  V30 1703 O 160.616 -0.0396108 1.83657 0
M  V30 1704 C 160.678 3.36282 1.271 0
M  V30 1705 C 160.342 4.55488 0.371409 0
M  V30 1706 C 161.339 5.18491 -0.382504 0
M  V30 1707 C 159.024 5.01474 0.287965 0
M  V30 1708 C 161.018 6.25852 -1.20779 0
M  V30 1709 C 158.705 6.08701 -0.540965 0
M  V30 1710 C 159.703 6.70755 -1.28749 0
M  V30 1711 O 159.391 7.75914 -2.10269 0
M  V30 1712 H 159.123 0.65752 0.156982 0
M  V30 1713 H 161.677 2.0463 -0.177734 0
M  V30 1714 H 159.907 3.26941 2.0651 0
M  V30 1715 H 161.596 3.62005 1.83595 0
M  V30 1716 H 162.362 4.83891 -0.3278 0
M  V30 1717 H 158.241 4.52932 0.858689 0
M  V30 1718 H 161.785 6.74218 -1.79096 0
M  V30 1719 H 157.682 6.42732 -0.597131 0
M  V30 1720 H 158.45 7.92925 -2.03007 0
M  V30 1721 N 161.113 -0.173488 1.56642 0
M  V30 1722 C 162.045 -1.23935 1.92802 0
M  V30 1723 C 163.058 -1.40589 0.820889 0
M  V30 1724 O 164.247 -1.40631 1.09933 0
M  V30 1725 C 161.347 -2.60837 2.16373 0
M  V30 1726 C 160.52 -2.6551 3.47596 0
M  V30 1727 C 159.579 -3.8376 3.60021 0
M  V30 1728 O 158.605 -3.69859 4.32658 0
M  V30 1729 N 159.807 -5.00127 2.94709 0
M  V30 1730 H 162.572 -0.932236 2.84832 0
M  V30 1731 H 160.133 -0.363268 1.57772 0
M  V30 1732 H 162.125 -3.38407 2.21952 0
M  V30 1733 H 160.695 -2.83948 1.30738 0
M  V30 1734 H 159.915 -1.74052 3.53694 0
M  V30 1735 H 161.203 -2.65641 4.33949 0
M  V30 1736 H 160.601 -5.14322 2.35563 0
M  V30 1737 H 159.158 -5.75567 3.05886 0
M  V30 1738 N 162.591 -1.51276 -0.441967 0
M  V30 1739 C 163.819 -1.67516 -1.21434 0
M  V30 1740 C 164.234 -0.37055 -1.85128 0
M  V30 1741 O 163.591 0.650498 -1.70513 0
M  V30 1742 C 163.642 -2.78748 -2.30177 0
M  V30 1743 O 163.363 -4.04154 -1.69089 0
M  V30 1744 C 164.864 -3.06217 -3.20541 0
M  V30 1745 H 162.084 -0.562276 -0.366178 0
M  V30 1746 H 164.628 -1.97666 -0.524244 0
M  V30 1747 H 162.783 -2.5121 -2.94911 0
M  V30 1748 H 163.197 -4.65894 -2.40922 0
M  V30 1749 H 164.671 -3.8764 -3.92987 0
M  V30 1750 H 165.148 -2.18439 -3.81026 0
M  V30 1751 H 165.754 -3.35397 -2.61513 0
M  V30 1752 N 164.069 0.697108 -1.41344 0
M  V30 1753 C 165.315 1.4593 -1.40827 0
M  V30 1754 C 165.648 1.94193 -0.0167098 0
M  V30 1755 O 164.923 1.69425 0.955263 0
M  V30 1756 C 165.206 2.67229 -2.41373 0
M  V30 1757 C 165.059 2.24741 -3.8963 0
M  V30 1758 C 166.378 3.69423 -2.39196 0
M  V30 1759 H 163.497 0.529303 -0.512842 0
M  V30 1760 H 166.139 0.794112 -1.72609 0
M  V30 1761 H 164.289 3.23982 -2.14401 0
M  V30 1762 H 165.961 1.73327 -4.27499 0
M  V30 1763 H 164.204 1.56542 -4.0457 0
M  V30 1764 H 164.875 3.1177 -4.55525 0
M  V30 1765 H 167.351 3.2234 -2.63128 0
M  V30 1766 H 166.227 4.51907 -3.11563 0
M  V30 1767 H 166.488 4.19012 -1.41001 0
M  V30 1768 N 165.547 1.27147 0.931209 0
M  V30 1769 C 166.796 1.12664 1.67302 0
M  V30 1770 C 167.109 -0.327718 1.92835 0
M  V30 1771 O 168.315 -0.593392 2.64936 0
M  V30 1772 C 166.771 1.9683 3.01307 0
M  V30 1773 C 166.379 3.46901 2.83485 0
M  V30 1774 C 168.123 1.90985 3.79111 0
M  V30 1775 C 166.03 4.23279 4.13024 0
M  V30 1776 H 164.96 0.41803 0.627509 0
M  V30 1777 H 167.611 1.51539 1.03481 0
M  V30 1778 H 165.993 1.50797 3.66164 0
M  V30 1779 H 167.167 4.00773 2.27415 0
M  V30 1780 H 165.482 3.54088 2.19113 0
M  V30 1781 H 168.079 2.45328 4.75098 0
M  V30 1782 H 168.422 0.882718 4.06834 0
M  V30 1783 H 168.955 2.34895 3.21044 0
M  V30 1784 H 165.694 5.26503 3.90481 0
M  V30 1785 H 165.214 3.74186 4.6877 0
M  V30 1786 H 166.893 4.32265 4.81411 0
M  V30 1787 N 167.025 -1.13721 1.09112 0
M  V30 1788 C 168.302 -1.81155 0.737706 0
M  V30 1789 C 168.682 -1.96253 -0.777683 0
M  V30 1790 O 168.03 -1.52807 -1.69889 0
M  V30 1791 C 168.24 -3.16392 1.47299 0
M  V30 1792 C 169.588 -3.91787 1.63671 0
M  V30 1793 O 170.612 -3.26005 1.43524 0
M  V30 1794 O 169.471 -5.0977 1.96969 0
M  V30 1795 H 166.565 -0.783518 0.26463 0
M  V30 1796 H 169.111 -1.20676 1.19312 0
M  V30 1797 H 167.883 -3.0061 2.50498 0
M  V30 1798 H 167.506 -3.8457 1.00953 0
M  V30 1799 N 168.503 -0.877838 -1.30888 0
M  V30 1800 C 169.466 -0.344265 -2.266 0
M  V30 1801 C 170.466 0.50922 -1.52524 0
M  V30 1802 O 171.656 0.317398 -1.71284 0
M  V30 1803 C 168.788 0.510198 -3.37061 0
M  V30 1804 H 169.981 -1.1893 -2.7531 0
M  V30 1805 H 167.534 -0.654088 -1.41956 0
M  V30 1806 H 168.269 1.37612 -2.93655 0
M  V30 1807 H 168.054 -0.101047 -3.9197 0
M  V30 1808 H 169.544 0.875537 -4.08319 0
M  V30 1809 N 169.982 1.44106 -0.638065 0
M  V30 1810 C 171.207 2.0685 -0.150916 0
M  V30 1811 C 171.632 1.47417 1.16833 0
M  V30 1812 O 170.99 0.578264 1.71831 0
M  V30 1813 C 171.038 3.60555 -0.05708 0
M  V30 1814 O 170.142 4.00465 0.984972 0
M  V30 1815 H 169.483 0.658151 -0.0879399 0
M  V30 1816 H 172.013 1.84865 -0.876707 0
M  V30 1817 H 172.023 4.07789 0.131232 0
M  V30 1818 H 170.698 4.03193 -1.02021 0
M  V30 1819 H 169.275 3.64849 0.770672 0
M  V30 1820 N 171.46 0.379036 1.52974 0
M  V30 1821 C 172.407 -0.461048 2.26148 0
M  V30 1822 C 173.377 -1.06637 1.27349 0
M  V30 1823 O 174.562 -1.09633 1.56157 0
M  V30 1824 C 171.702 -1.58782 3.06402 0
M  V30 1825 C 170.815 -1.00636 4.20115 0
M  V30 1826 C 169.95 -2.10334 4.87784 0
M  V30 1827 C 168.989 -1.49724 5.93506 0
M  V30 1828 N 168.126 -2.5331 6.54812 0
M  V30 1829 H 172.966 0.169429 2.97518 0
M  V30 1830 H 170.503 0.0953806 1.4679 0
M  V30 1831 H 172.461 -2.25174 3.51215 0
M  V30 1832 H 171.091 -2.18876 2.37261 0
M  V30 1833 H 170.143 -0.232332 3.7969 0
M  V30 1834 H 171.455 -0.523343 4.96047 0
M  V30 1835 H 170.609 -2.84519 5.35849 0
M  V30 1836 H 169.348 -2.61992 4.11353 0
M  V30 1837 H 168.353 -0.740598 5.44789 0
M  V30 1838 H 169.578 -0.988732 6.71864 0
M  V30 1839 H 167.524 -3.04156 5.81227 0
M  V30 1840 H 167.441 -2.09734 7.26325 0
M  V30 1841 H 168.709 -3.27155 7.07524 0
M  V30 1842 N 172.938 -1.57226 0.108567 0
M  V30 1843 C 174.163 -1.99604 -0.563303 0
M  V30 1844 C 174.588 -0.987563 -1.6009 0
M  V30 1845 O 173.946 0.0421687 -1.81251 0
M  V30 1846 C 173.994 -3.40902 -1.17552 0
M  V30 1847 O 173.098 -3.42896 -2.2912 0
M  V30 1848 H 172.439 -0.648704 -0.1417 0
M  V30 1849 H 174.969 -2.03679 0.193961 0
M  V30 1850 H 174.979 -3.78886 -1.51357 0
M  V30 1851 H 173.654 -4.1382 -0.415445 0
M  V30 1852 H 172.231 -3.1672 -1.96832 0
M  V30 1853 N 174.416 0.165178 -1.56732 0
M  V30 1854 C 175.665 0.879143 -1.81532 0
M  V30 1855 C 175.978 1.83144 -0.686842 0
M  V30 1856 O 177.184 2.58823 -0.819944 0
M  V30 1857 C 175.64 1.61388 -3.21686 0
M  V30 1858 C 175.248 0.704904 -4.4242 0
M  V30 1859 C 176.992 2.3157 -3.55774 0
M  V30 1860 C 174.899 1.44022 -5.73595 0
M  V30 1861 H 173.829 0.332033 -0.676957 0
M  V30 1862 H 176.48 0.132008 -1.83025 0
M  V30 1863 H 174.862 2.40599 -3.14529 0
M  V30 1864 H 176.036 -0.0506815 -4.60772 0
M  V30 1865 H 174.351 0.112419 -4.16248 0
M  V30 1866 H 176.948 2.8719 -4.51028 0
M  V30 1867 H 177.291 3.07201 -2.8095 0
M  V30 1868 H 177.824 1.59297 -3.64513 0
M  V30 1869 H 174.563 0.72612 -6.51466 0
M  V30 1870 H 174.083 2.16898 -5.5921 0
M  V30 1871 H 175.762 1.98606 -6.15764 0
M  V30 1872 N 175.894 1.51508 0.433938 0
M  V30 1873 C 177.141 1.64345 1.18309 0
M  V30 1874 C 177.469 0.361315 1.91115 0
M  V30 1875 O 176.724 -0.654753 1.84422 0
M  V30 1876 C 177.023 2.79928 2.22205 0
M  V30 1877 C 176.689 4.19078 1.66387 0
M  V30 1878 C 175.351 4.56932 1.50887 0
M  V30 1879 C 177.703 5.05894 1.25381 0
M  V30 1880 C 175.031 5.79305 0.928608 0
M  V30 1881 C 177.383 6.2885 0.687823 0
M  V30 1882 C 176.047 6.65473 0.519755 0
M  V30 1883 H 175.317 0.601381 0.432923 0
M  V30 1884 H 177.964 1.85549 0.473676 0
M  V30 1885 H 176.269 2.52959 2.99197 0
M  V30 1886 H 177.966 2.87059 2.79997 0
M  V30 1887 H 174.556 3.89234 1.79428 0
M  V30 1888 H 178.74 4.77253 1.36175 0
M  V30 1889 H 173.996 6.06324 0.786186 0
M  V30 1890 H 178.17 6.95461 0.361581 0
M  V30 1891 H 175.797 7.6017 0.0679979 0
M  V30 1892 N 177.372 -0.689602 1.41712 0
M  V30 1893 C 178.618 -1.45181 1.41599 0
M  V30 1894 C 178.951 -1.94181 0.0270081 0
M  V30 1895 O 178.226 -1.6993 -0.946265 0
M  V30 1896 C 178.509 -2.65945 2.42787 0
M  V30 1897 C 178.362 -2.22672 3.90816 0
M  V30 1898 C 179.681 -3.68149 2.41151 0
M  V30 1899 H 176.8 -0.526576 0.515642 0
M  V30 1900 H 179.442 -0.784947 1.73028 0
M  V30 1901 H 177.592 -3.2284 2.16116 0
M  V30 1902 H 179.264 -1.71058 4.28412 0
M  V30 1903 H 177.507 -1.54394 4.05395 0
M  V30 1904 H 178.178 -3.0935 4.57172 0
M  V30 1905 H 180.654 -3.2094 2.64834 0
M  V30 1906 H 179.53 -4.50248 3.13955 0
M  V30 1907 H 179.791 -4.18259 1.43221 0
M  V30 1908 N 178.85 -1.27639 -0.924453 0
M  V30 1909 C 180.261 -1.12834 -1.48746 0
M  V30 1910 C 180.612 0.285505 -1.94112 0
M  V30 1911 O 179.737 1.17874 -1.81479 0
M  V30 1912 C 180.332 -2.04217 -2.70334 0
M  V30 1913 C 178.891 -1.93509 -3.22848 0
M  V30 1914 C 178.038 -1.96583 -1.95577 0
M  V30 1915 H 180.989 -1.40484 -0.738233 0
M  V30 1916 H 181.01 -1.59989 -3.4523 0
M  V30 1917 H 180.522 -3.07111 -2.37285 0
M  V30 1918 H 178.623 -0.936131 -3.60649 0
M  V30 1919 H 178.736 -2.79917 -3.88823 0
M  V30 1920 H 177.1 -1.4085 -2.12211 0
M  V30 1921 H 177.883 -3.01137 -1.64837 0
M  V30 1922 N 180.328 1.1314 -1.09713 0
M  V30 1923 C 181.744 1.36477 -0.827423 0
M  V30 1924 C 181.944 1.93654 0.556817 0
M  V30 1925 O 181 2.15791 1.31112 0
M  V30 1926 C 182.313 2.31334 -1.92106 0
M  V30 1927 C 183.861 2.44943 -1.94864 0
M  V30 1928 C 184.336 3.4311 -3.0338 0
M  V30 1929 N 185.827 3.50662 -3.02639 0
M  V30 1930 C 186.562 4.2651 -3.83246 0
M  V30 1931 N 186.058 5.05485 -4.73768 0
M  V30 1932 N 187.851 4.2184 -3.71493 0
M  V30 1933 H 180.002 0.743807 -1.9895 0
M  V30 1934 H 182.265 0.389823 -0.864143 0
M  V30 1935 H 181.971 1.96483 -2.91698 0
M  V30 1936 H 181.845 3.31381 -1.80184 0
M  V30 1937 H 184.232 2.79079 -0.959099 0
M  V30 1938 H 184.313 1.4481 -2.10864 0
M  V30 1939 H 183.957 3.09704 -4.02549 0
M  V30 1940 H 183.887 4.43055 -2.84622 0
M  V30 1941 H 186.378 2.94315 -2.37039 0
M  V30 1942 H 186.691 5.60675 -5.3185 0
M  V30 1943 H 185.036 5.04708 -4.77802 0
M  V30 1944 H 188.227 3.5922 -3.00131 0
M  V30 1945 H 188.4 4.80697 -4.3455 0
M  V30 1946 N 181.806 0.884767 1.30421 0
M  V30 1947 C 183.054 0.502112 1.95763 0
M  V30 1948 C 183.375 -0.951815 1.70192 0
M  V30 1949 O 182.645 -1.6692 1.0254 0
M  V30 1950 H 181.225 0.182694 0.724315 0
M  V30 1951 H 183.887 1.1278 1.58955 0
M  V30 1952 H 182.983 0.672188 3.04775 0
M  V30 1953 N 183.284 -1.43765 0.645699 0
M  V30 1954 C 184.53 -2.02197 0.156271 0
M  V30 1955 C 184.863 -1.50776 -1.22393 0
M  V30 1956 O 184.138 -0.697771 -1.81553 0
M  V30 1957 C 184.421 -3.59749 0.158872 0
M  V30 1958 C 184.274 -4.21419 1.57245 0
M  V30 1959 C 185.593 -4.37149 -0.50879 0
M  V30 1960 H 182.712 -0.734694 0.0582602 0
M  V30 1961 H 185.354 -1.71157 0.824951 0
M  V30 1962 H 183.504 -3.86325 -0.410525 0
M  V30 1963 H 185.176 -4.059 2.19186 0
M  V30 1964 H 183.419 -3.78356 2.122 0
M  V30 1965 H 184.09 -5.30482 1.52619 0
M  V30 1966 H 186.566 -4.16093 -0.024412 0
M  V30 1967 H 185.442 -5.4683 -0.476213 0
M  V30 1968 H 185.703 -4.12839 -1.58165 0
M  V30 1969 N 184.763 -0.387143 -1.52771 0
M  V30 1970 C 185.726 0.436939 -2.24997 0
M  V30 1971 C 186.726 0.991991 -1.26555 0
M  V30 1972 O 187.916 0.874335 -1.50669 0
M  V30 1973 C 185.048 1.61281 -3.00335 0
M  V30 1974 H 186.241 -0.195365 -2.99263 0
M  V30 1975 H 183.794 -0.139218 -1.55679 0
M  V30 1976 H 184.529 2.2826 -2.30364 0
M  V30 1977 H 184.314 1.22154 -3.72587 0
M  V30 1978 H 185.804 2.19629 -3.5518 0
M  V30 1979 N 186.241 1.57166 -0.116904 0
M  V30 1980 C 187.189 2.16457 0.851418 0
M  V30 1981 C 188.183 1.11323 1.27686 0
M  V30 1982 O 189.389 1.2963 1.24884 0
M  V30 1983 H 185.764 0.69271 0.292672 0
M  V30 1984 H 187.735 2.96605 0.32685 0
M  V30 1985 C 186.484 2.77689 2.09246 0
M  V30 1986 H 185.807 3.58285 1.77402 0
M  V30 1987 H 187.247 3.22716 2.7501 0
M  V30 1988 C 185.706 1.74667 2.88085 0
M  V30 1989 O 186.236 1.19877 3.83396 0
M  V30 1990 N 184.442 1.44656 2.52038 0
M  V30 1991 H 183.989 1.89402 1.74599 0
M  V30 1992 H 183.947 0.759675 3.05084 0
M  V30 1993 N 187.719 -0.156864 1.56817 0
M  V30 1994 C 188.967 -0.869404 1.82444 0
M  V30 1995 C 189.288 -1.82147 0.69623 0
M  V30 1996 O 188.558 -1.93847 -0.28287 0
M  V30 1997 H 187.138 -0.324043 0.673056 0
M  V30 1998 H 189.8 -0.153224 1.94297 0
M  V30 1999 H 188.896 -1.43761 2.77019 0
M  V30 2000 N 189.197 -1.51736 -0.425897 0
M  V30 2001 C 190.444 -1.6497 -1.17436 0
M  V30 2002 C 190.772 -0.371445 -1.9092 0
M  V30 2003 O 190.027 0.644963 -1.84767 0
M  V30 2004 C 190.326 -2.81103 -2.20717 0
M  V30 2005 C 189.992 -4.19954 -1.64162 0
M  V30 2006 C 188.654 -4.57725 -1.48462 0
M  V30 2007 C 191.006 -5.06552 -1.22696 0
M  V30 2008 C 188.334 -5.79789 -0.897873 0
M  V30 2009 C 190.686 -6.29205 -0.654464 0
M  V30 2010 C 189.35 -6.6574 -0.484456 0
M  V30 2011 H 188.62 -0.603668 -0.429727 0
M  V30 2012 H 191.267 -1.85798 -0.463829 0
M  V30 2013 H 189.572 -2.54542 -2.97852 0
M  V30 2014 H 191.269 -2.8854 -2.78471 0
M  V30 2015 H 187.859 -3.90181 -1.77361 0
M  V30 2016 H 192.043 -4.77968 -1.33642 0
M  V30 2017 H 187.299 -6.06733 -0.75402 0
M  V30 2018 H 191.473 -6.95643 -0.324694 0
M  V30 2019 H 189.1 -7.60195 -0.0276833 0
M  V30 2020 N 190.675 0.682077 -1.42076 0
M  V30 2021 C 191.607 1.80755 -1.40926 0
M  V30 2022 C 192.62 1.59833 -0.309398 0
M  V30 2023 O 193.809 1.69087 -0.572014 0
M  V30 2024 C 190.909 3.17744 -1.17865 0
M  V30 2025 C 190.082 3.65578 -2.40149 0
M  V30 2026 C 189.141 4.81277 -2.12742 0
M  V30 2027 O 188.167 4.92197 -2.85887 0
M  V30 2028 N 189.369 5.69474 -1.12602 0
M  V30 2029 H 192.134 1.82229 -2.37935 0
M  V30 2030 H 189.695 0.864903 -1.36861 0
M  V30 2031 H 191.687 3.9279 -0.9746 0
M  V30 2032 H 190.257 3.11214 -0.294068 0
M  V30 2033 H 189.477 2.81291 -2.76169 0
M  V30 2034 H 190.765 3.94278 -3.21593 0
M  V30 2035 H 190.163 5.63297 -0.520899 0
M  V30 2036 H 188.72 6.44363 -0.981842 0
M  V30 2037 N 192.153 1.28127 0.917671 0
M  V30 2038 C 193.399 1.15223 1.66888 0
M  V30 2039 C 193.732 -0.299293 1.9188 0
M  V30 2040 O 193.007 -1.21805 1.51637 0
M  V30 2041 C 193.29 1.94706 3.02922 0
M  V30 2042 C 193.143 3.47898 2.85109 0
M  V30 2043 C 194.462 1.75939 4.03402 0
M  V30 2044 H 191.581 0.419946 0.605652 0
M  V30 2045 H 194.223 1.57398 1.06423 0
M  V30 2046 H 192.373 1.58864 3.54534 0
M  V30 2047 H 194.045 3.93624 2.40537 0
M  V30 2048 H 192.288 3.7373 2.20246 0
M  V30 2049 H 192.959 3.98765 3.81694 0
M  V30 2050 H 195.435 2.07209 3.60837 0
M  V30 2051 H 194.311 2.33931 4.96556 0
M  V30 2052 H 194.572 0.709877 4.36364 0
M  V30 2053 N 193.631 -1.12557 1.10312 0
M  V30 2054 C 194.561 -2.20341 0.772798 0
M  V30 2055 C 195.542 -1.68198 -0.25365 0
M  V30 2056 O 196.727 -1.93831 -0.119699 0
M  V30 2057 C 193.857 -3.46709 0.202443 0
M  V30 2058 C 192.811 -4.11996 1.15943 0
M  V30 2059 C 192.137 -5.328 0.450345 0
M  V30 2060 C 193.437 -4.5828 2.50552 0
M  V30 2061 H 195.131 -2.48229 1.674 0
M  V30 2062 H 192.677 -1.19308 0.806326 0
M  V30 2063 H 194.63 -4.2138 -0.0407752 0
M  V30 2064 H 193.354 -3.18245 -0.734001 0
M  V30 2065 H 192.013 -3.39305 1.38808 0
M  V30 2066 H 191.661 -5.00602 -0.490531 0
M  V30 2067 H 191.361 -5.7743 1.08851 0
M  V30 2068 H 192.885 -6.10219 0.215642 0
M  V30 2069 H 194.299 -5.2433 2.31843 0
M  V30 2070 H 192.696 -5.13683 3.10242 0
M  V30 2071 H 193.766 -3.72329 3.10643 0
M  V30 2072 N 195.109 -0.891671 -1.2995 0
M  V30 2073 C 196.334 -0.527932 -2.00568 0
M  V30 2074 C 196.759 0.877969 -1.66353 0
M  V30 2075 O 196.117 1.58301 -0.883762 0
M  V30 2076 C 196.165 -0.717745 -3.53385 0
M  V30 2077 O 195.269 0.233376 -4.11739 0
M  V30 2078 H 194.61 -0.20722 -0.630837 0
M  V30 2079 H 197.14 -1.20105 -1.65638 0
M  V30 2080 H 197.15 -0.619307 -4.03272 0
M  V30 2081 H 195.825 -1.74276 -3.77625 0
M  V30 2082 H 194.402 0.0880706 -3.72796 0
M  V30 2083 N 196.587 1.43421 -0.653314 0
M  V30 2084 C 197.864 1.95361 -0.0966581 0
M  V30 2085 C 198.244 1.59461 1.38331 0
M  V30 2086 O 197.592 0.879777 2.10884 0
M  V30 2087 C 197.802 3.47311 -0.342988 0
M  V30 2088 C 199.15 4.23875 -0.24798 0
M  V30 2089 O 200.174 3.55133 -0.275553 0
M  V30 2090 O 199.033 5.4623 -0.171771 0
M  V30 2091 H 196.127 0.826945 0.00956291 0
M  V30 2092 H 198.673 1.5336 -0.726558 0
M  V30 2093 H 197.445 3.66569 -1.36906 0
M  V30 2094 H 197.068 3.9631 0.319975 0
M  V30 2095 N 198.065 0.39524 1.52563 0
M  V30 2096 C 199.312 -0.185044 2.01653 0
M  V30 2097 C 199.64 -1.46317 1.28146 0
M  V30 2098 O 198.895 -1.9213 0.372074 0
M  V30 2099 C 199.194 -0.493444 3.53977 0
M  V30 2100 C 198.86 0.69384 4.4553 0
M  V30 2101 C 197.522 1.01954 4.70275 0
M  V30 2102 C 199.874 1.48785 4.99512 0
M  V30 2103 C 197.202 2.14069 5.46252 0
M  V30 2104 C 199.554 2.59965 5.76716 0
M  V30 2105 C 198.218 2.93037 5.99738 0
M  V30 2106 H 197.488 -0.0677123 0.7379 0
M  V30 2107 H 200.135 0.533807 1.8391 0
M  V30 2108 H 198.44 -1.29369 3.69825 0
M  V30 2109 H 200.137 -0.955163 3.89458 0
M  V30 2110 H 196.727 0.429987 4.26438 0
M  V30 2111 H 200.911 1.24946 4.80315 0
M  V30 2112 H 196.167 2.40056 5.62302 0
M  V30 2113 H 200.341 3.21887 6.17545 0
M  V30 2114 H 197.968 3.8003 6.58393 0
M  V30 2115 N 199.544 -1.57102 0.125237 0
M  V30 2116 C 200.79 -1.95697 -0.532035 0
M  V30 2117 C 201.123 -1.009 -1.6593 0
M  V30 2118 O 200.398 -0.047347 -1.94442 0
M  V30 2119 C 200.681 -3.44181 -1.05884 0
M  V30 2120 C 200.534 -4.49752 0.0654392 0
M  V30 2121 C 201.853 -3.94655 -1.9477 0
M  V30 2122 H 198.972 -0.711571 -0.191925 0
M  V30 2123 H 201.614 -1.88923 0.20206 0
M  V30 2124 H 199.764 -3.50085 -1.68442 0
M  V30 2125 H 201.436 -4.55943 0.700982 0
M  V30 2126 H 199.679 -4.27653 0.727709 0
M  V30 2127 H 200.35 -5.50924 -0.344505 0
M  V30 2128 H 202.826 -3.91094 -1.42074 0
M  V30 2129 H 201.702 -4.99057 -2.28546 0
M  V30 2130 H 201.963 -3.35718 -2.87656 0
M  V30 2131 N 201.022 0.148545 -1.56898 0
M  V30 2132 C 201.985 1.16736 -1.97244 0
M  V30 2133 C 202.985 1.35947 -0.858777 0
M  V30 2134 O 204.175 1.32966 -1.12542 0
M  V30 2135 C 201.307 2.52798 -2.28705 0
M  V30 2136 H 202.5 0.821279 -2.88435 0
M  V30 2137 H 200.053 0.391831 -1.51309 0
M  V30 2138 H 200.788 2.92381 -1.403 0
M  V30 2139 H 200.573 2.40216 -3.09901 0
M  V30 2140 H 202.063 3.26179 -2.60762 0
M  V30 2141 N 202.5 1.5196 0.417844 0
M  V30 2142 C 203.73 1.69181 1.18581 0
M  V30 2143 C 204.138 0.397104 1.84986 0
M  V30 2144 O 203.481 -0.636011 1.72339 0
M  V30 2145 C 203.543 2.76497 2.29759 0
M  V30 2146 C 203.207 4.18514 1.83563 0
M  V30 2147 C 204.204 5.02648 1.32821 0
M  V30 2148 C 201.889 4.64708 1.90661 0
M  V30 2149 C 203.883 6.31044 0.897894 0
M  V30 2150 C 201.57 5.93096 1.47241 0
M  V30 2151 C 202.568 6.76093 0.968891 0
M  V30 2152 O 202.256 8.02078 0.540924 0
M  V30 2153 H 201.988 0.570457 0.362705 0
M  V30 2154 H 204.542 1.99249 0.498885 0
M  V30 2155 H 202.772 2.41786 3.01789 0
M  V30 2156 H 204.461 2.82403 2.91553 0
M  V30 2157 H 205.227 4.68154 1.26716 0
M  V30 2158 H 201.106 4.00216 2.28797 0
M  V30 2159 H 204.65 6.95776 0.504192 0
M  V30 2160 H 200.547 6.271 1.53022 0
M  V30 2161 H 201.315 8.15794 0.66502 0
M  V30 2162 N 203.978 -0.674533 1.42435 0
M  V30 2163 C 205.203 -1.46784 1.46524 0
M  V30 2164 C 205.628 -1.87938 0.078066 0
M  V30 2165 O 204.986 -1.56014 -0.92354 0
M  V30 2166 C 205.034 -2.69307 2.39805 0
M  V30 2167 O 204.138 -3.67587 1.86959 0
M  V30 2168 H 203.479 -0.440959 0.496439 0
M  V30 2169 H 206.009 -0.827326 1.87127 0
M  V30 2170 H 206.019 -3.17374 2.56393 0
M  V30 2171 H 204.694 -2.38692 3.40586 0
M  V30 2172 H 203.271 -3.2662 1.79927 0
M  V30 2173 N 205.456 -1.28612 -0.910864 0
M  V30 2174 C 206.686 -1.1862 -1.69153 0
M  V30 2175 C 207.094 0.257324 -1.87442 0
M  V30 2176 O 206.437 1.18543 -1.40332 0
M  V30 2177 C 206.499 -1.81606 -3.10257 0
M  V30 2178 C 206.163 -3.30864 -3.15243 0
M  V30 2179 C 207.16 -4.27256 -2.96223 0
M  V30 2180 C 204.845 -3.71871 -3.37664 0
M  V30 2181 C 206.839 -5.62631 -2.99541 0
M  V30 2182 C 204.526 -5.07371 -3.40614 0
M  V30 2183 C 205.524 -6.02561 -3.21573 0
M  V30 2184 O 205.212 -7.35589 -3.2429 0
M  V30 2185 H 204.944 -0.412633 -0.535453 0
M  V30 2186 H 207.498 -1.70306 -1.14827 0
M  V30 2187 H 205.728 -1.24418 -3.66138 0
M  V30 2188 H 207.417 -1.66092 -3.70362 0
M  V30 2189 H 208.183 -3.9691 -2.78725 0
M  V30 2190 H 204.062 -2.98241 -3.5153 0
M  V30 2191 H 207.606 -6.36907 -2.84597 0
M  V30 2192 H 203.503 -5.37366 -3.57642 0
M  V30 2193 H 204.271 -7.44252 -3.40633 0
M  V30 2194 N 206.934 1.1197 -1.10907 0
M  V30 2195 C 207.864 2.19928 -0.784473 0
M  V30 2196 C 208.845 1.6833 0.244726 0
M  V30 2197 O 210.03 1.93892 0.109418 0
M  V30 2198 C 207.16 3.46597 -0.220827 0
M  V30 2199 C 206.114 4.11376 -1.18127 0
M  V30 2200 C 205.44 5.32554 -0.478594 0
M  V30 2201 C 206.74 4.56945 -2.52979 0
M  V30 2202 H 208.434 2.47337 -1.68715 0
M  V30 2203 H 205.98 1.18879 -0.812642 0
M  V30 2204 H 207.933 4.21396 0.0184278 0
M  V30 2205 H 206.657 3.1863 0.717113 0
M  V30 2206 H 205.316 3.38564 -1.40606 0
M  V30 2207 H 204.964 5.00856 0.463976 0
M  V30 2208 H 204.664 5.76844 -1.11912 0
M  V30 2209 H 206.188 6.10096 -0.248 0
M  V30 2210 H 207.602 5.23093 -2.3462 0
M  V30 2211 H 205.999 5.1203 -3.12962 0
M  V30 2212 H 207.069 3.70676 -3.12614 0
M  V30 2213 N 208.412 0.89855 1.29475 0
M  V30 2214 C 209.658 0.524658 1.95896 0
M  V30 2215 C 209.991 -0.926468 1.70676 0
M  V30 2216 O 209.266 -1.65665 1.01908 0
M  V30 2217 C 209.549 0.81633 3.50725 0
M  V30 2218 C 209.402 2.31907 3.85408 0
M  V30 2219 C 210.721 0.302038 4.39062 0
M  V30 2220 H 207.84 0.19209 0.711527 0
M  V30 2221 H 210.482 1.12502 1.53112 0
M  V30 2222 H 208.632 0.305369 3.87298 0
M  V30 2223 H 210.304 2.89949 3.58786 0
M  V30 2224 H 208.547 2.78027 3.32992 0
M  V30 2225 H 209.218 2.47373 4.93468 0
M  V30 2226 H 211.694 0.739551 4.09475 0
M  V30 2227 H 210.57 0.535331 5.46283 0
M  V30 2228 H 210.831 -0.797216 4.34853 0
M  V30 2229 N 209.89 -1.43072 0.660911 0
M  V30 2230 C 210.838 -2.32569 -0.0378199 0
M  V30 2231 C 211.832 -1.49046 -0.805092 0
M  V30 2232 O 213.038 -1.65206 -0.714624 0
M  V30 2233 H 209.413 -0.75136 -0.031019 0
M  V30 2234 H 211.384 -2.89216 0.734609 0
M  V30 2235 C 210.133 -3.33453 -0.985124 0
M  V30 2236 H 209.456 -3.97752 -0.404147 0
M  V30 2237 H 210.896 -3.98691 -1.44297 0
M  V30 2238 C 209.355 -2.64642 -2.08486 0
M  V30 2239 O 209.885 -2.46776 -3.16961 0
M  V30 2240 N 208.091 -2.23891 -1.8526 0
M  V30 2241 H 207.638 -2.38621 -0.970449 0
M  V30 2242 H 207.596 -1.78181 -2.59034 0
M  V30 2243 N 211.368 -0.403325 -1.52352 0
M  V30 2244 C 212.645 0.232611 -1.94212 0
M  V30 2245 C 213.025 1.63133 -1.33981 0
M  V30 2246 O 212.373 2.22659 -0.513344 0
M  V30 2247 C 212.583 0.244811 -3.4814 0
M  V30 2248 C 213.931 0.46698 -4.22024 0
M  V30 2249 O 214.955 0.324419 -3.5472 0
M  V30 2250 O 213.814 0.74747 -5.41364 0
M  V30 2251 H 210.908 0.148223 -0.813609 0
M  V30 2252 H 213.454 -0.458848 -1.63379 0
M  V30 2253 H 212.226 -0.734378 -3.84347 0
M  V30 2254 H 211.849 0.980611 -3.85318 0
M  V30 2255 N 212.846 1.57033 -0.133567 0
M  V30 2256 C 214.076 1.99754 0.527429 0
M  V30 2257 C 214.484 1.01245 1.59832 0
M  V30 2258 O 213.827 -0.000645496 1.837 0
M  V30 2259 C 213.889 3.38903 1.19939 0
M  V30 2260 C 213.553 4.56174 0.274709 0
M  V30 2261 C 214.55 5.17563 -0.492398 0
M  V30 2262 C 212.235 5.01972 0.18153 0
M  V30 2263 C 214.229 6.2315 -1.34027 0
M  V30 2264 C 211.916 6.07416 -0.669958 0
M  V30 2265 C 212.914 6.67874 -1.42947 0
M  V30 2266 O 212.602 7.71279 -2.2668 0
M  V30 2267 H 212.334 0.660702 0.142999 0
M  V30 2268 H 214.888 2.04207 -0.221099 0
M  V30 2269 H 213.118 3.31248 1.99528 0
M  V30 2270 H 214.807 3.65818 1.75875 0
M  V30 2271 H 215.573 4.83087 -0.430367 0
M  V30 2272 H 211.452 4.54652 0.762422 0
M  V30 2273 H 214.996 6.70268 -1.93357 0
M  V30 2274 H 210.893 6.41321 -0.73333 0
M  V30 2275 H 211.661 7.88441 -2.1978 0
M  V30 2276 N 214.325 -0.140222 1.56975 0
M  V30 2277 C 215.571 -0.848084 1.84876 0
M  V30 2278 C 215.926 -1.78481 0.718481 0
M  V30 2279 O 215.219 -1.89497 -0.283093 0
M  V30 2280 C 215.413 -1.65386 3.16832 0
M  V30 2281 C 215.242 -0.79665 4.42587 0
M  V30 2282 C 214.012 -0.459648 5.03205 0
M  V30 2283 C 216.21 -0.12389 5.14151 0
M  V30 2284 N 214.192 0.410446 6.12526 0
M  V30 2285 C 215.563 0.606064 6.17031 0
M  V30 2286 C 217.618 -0.0452654 4.97879 0
M  V30 2287 C 216.321 1.40723 7.054 0
M  V30 2288 C 218.347 0.742658 5.86718 0
M  V30 2289 C 217.709 1.46087 6.89085 0
M  V30 2290 H 213.808 -0.287946 0.727056 0
M  V30 2291 H 216.392 -0.11304 1.94372 0
M  V30 2292 H 214.563 -2.36009 3.08471 0
M  V30 2293 H 216.295 -2.30541 3.32615 0
M  V30 2294 H 213.05 -0.797006 4.66846 0
M  V30 2295 H 213.474 0.836716 6.7181 0
M  V30 2296 H 218.116 -0.586184 4.18717 0
M  V30 2297 H 215.834 1.95938 7.83986 0
M  V30 2298 H 219.42 0.805574 5.76196 0
M  V30 2299 H 218.3 2.06077 7.56639 0
M  V30 2300 N 215.803 -1.52179 -0.40978 0
M  V30 2301 C 216.766 -1.74853 -1.48186 0
M  V30 2302 C 217.766 -0.618417 -1.48433 0
M  V30 2303 O 218.956 -0.886286 -1.49969 0
M  V30 2304 C 216.088 -1.8303 -2.87598 0
M  V30 2305 H 217.281 -2.70559 -1.29374 0
M  V30 2306 H 214.834 -1.42586 -0.640233 0
M  V30 2307 H 215.569 -0.89236 -3.11781 0
M  V30 2308 H 215.354 -2.65187 -2.88822 0
M  V30 2309 H 216.844 -2.02316 -3.65319 0
M  V30 2310 N 217.281 0.66697 -1.42791 0
M  V30 2311 C 218.211 1.79218 -1.49677 0
M  V30 2312 C 219.192 1.66405 -0.352623 0
M  V30 2313 O 220.377 1.85708 -0.567993 0
M  V30 2314 C 217.507 3.17565 -1.40605 0
M  V30 2315 C 216.461 3.45124 -2.53127 0
M  V30 2316 C 215.787 4.83127 -2.29112 0
M  V30 2317 C 217.087 3.41236 -3.95418 0
M  V30 2318 H 218.781 1.73713 -2.43853 0
M  V30 2319 H 216.327 0.83432 -1.17367 0
M  V30 2320 H 218.28 3.96022 -1.44029 0
M  V30 2321 H 217.004 3.23767 -0.429271 0
M  V30 2322 H 215.663 2.69031 -2.49034 0
M  V30 2323 H 215.311 4.85988 -1.29709 0
M  V30 2324 H 215.011 5.02528 -3.04531 0
M  V30 2325 H 216.535 5.63859 -2.34297 0
M  V30 2326 H 217.949 4.09651 -4.01073 0
M  V30 2327 H 216.346 3.72173 -4.70752 0
M  V30 2328 H 217.416 2.39665 -4.21532 0
M  V30 2329 N 218.759 1.29093 0.90403 0
M  V30 2330 C 219.669 1.15727 2.0407 0
M  V30 2331 C 220.685 0.0815308 1.73809 0
M  V30 2332 O 221.861 0.292749 1.99261 0
M  V30 2333 C 218.926 0.830424 3.36608 0
M  V30 2334 C 217.987 1.98955 3.80415 0
M  V30 2335 C 217.22 1.6782 5.06628 0
M  V30 2336 O 217.443 0.597105 5.67266 0
M  V30 2337 O 216.377 2.52486 5.46383 0
M  V30 2338 H 220.203 2.11171 2.18267 0
M  V30 2339 H 217.788 1.08504 1.027 0
M  V30 2340 H 219.67 0.662521 4.16159 0
M  V30 2341 H 218.345 -0.0942678 3.23563 0
M  V30 2342 H 217.252 2.21267 3.01648 0
M  V30 2343 H 218.585 2.89529 3.98037 0
M  V30 2344 N 220.237 -1.11381 1.11499 0
M  V30 2345 C 221.167 -2.19509 0.796125 0
M  V30 2346 C 222.148 -1.68458 -0.235796 0
M  V30 2347 O 223.333 -1.93947 -0.0991344 0
M  V30 2348 C 220.463 -3.46475 0.239205 0
M  V30 2349 C 219.417 -4.10744 1.20307 0
M  V30 2350 C 218.743 -5.32293 0.50683 0
M  V30 2351 C 220.043 -4.55597 2.55399 0
M  V30 2352 H 221.737 -2.46439 1.70024 0
M  V30 2353 H 219.283 -1.18446 0.818935 0
M  V30 2354 H 221.236 -4.214 0.00392006 0
M  V30 2355 H 219.96 -3.19006 -0.700206 0
M  V30 2356 H 218.619 -3.37813 1.42399 0
M  V30 2357 H 218.267 -5.01095 -0.437408 0
M  V30 2358 H 217.967 -5.76243 1.1497 0
M  V30 2359 H 219.491 -6.09956 0.280351 0
M  V30 2360 H 220.905 -5.21841 2.37391 0
M  V30 2361 H 219.302 -5.10363 3.15673 0
M  V30 2362 H 220.372 -3.69013 3.14575 0
M  V30 2363 N 221.715 -0.905404 -1.28997 0
M  V30 2364 C 222.662 -0.385892 -2.27551 0
M  V30 2365 C 223.632 0.535113 -1.57244 0
M  V30 2366 O 224.817 0.459119 -1.85194 0
M  V30 2367 C 221.957 0.375461 -3.43051 0
M  V30 2368 C 221.07 -0.577092 -4.28128 0
M  V30 2369 C 220.205 0.201879 -5.30816 0
M  V30 2370 C 219.244 -0.744829 -6.07551 0
M  V30 2371 N 218.381 9.42587e-05 -7.021 0
M  V30 2372 H 223.221 -1.23139 -2.71368 0
M  V30 2373 H 220.758 -0.618542 -1.33463 0
M  V30 2374 H 222.716 0.832992 -4.088 0
M  V30 2375 H 221.346 1.18537 -3.00248 0
M  V30 2376 H 220.398 -1.15315 -3.62501 0
M  V30 2377 H 221.71 -1.30152 -4.8152 0
M  V30 2378 H 220.864 0.720351 -6.02408 0
M  V30 2379 H 219.603 0.959413 -4.7817 0
M  V30 2380 H 218.608 -1.27475 -5.34818 0
M  V30 2381 H 219.833 -1.50178 -6.62286 0
M  V30 2382 H 217.779 0.739791 -6.51815 0
M  V30 2383 H 217.696 -0.664321 -7.53076 0
M  V30 2384 H 218.964 0.498644 -7.77903 0
M  V30 2385 N 223.193 1.4272 -0.668489 0
M  V30 2386 C 224.604 1.84793 -0.266151 0
M  V30 2387 C 224.955 1.55959 1.19043 0
M  V30 2388 O 224.08 1.01622 1.91055 0
M  V30 2389 C 224.675 3.35436 -0.476271 0
M  V30 2390 C 223.234 3.76182 -0.128113 0
M  V30 2391 C 222.381 2.66344 -0.771777 0
M  V30 2392 H 225.332 1.32656 -0.871098 0
M  V30 2393 H 225.353 3.79515 0.273561 0
M  V30 2394 H 224.865 3.5639 -1.53647 0
M  V30 2395 H 222.966 3.60836 0.928891 0
M  V30 2396 H 223.079 4.75766 -0.564231 0
M  V30 2397 H 221.443 2.53885 -0.203652 0
M  V30 2398 H 222.226 2.90123 -1.83531 0
M  V30 2399 N 224.671 0.411399 1.52136 0
M  V30 2400 C 225.618 -0.412975 2.27075 0
M  V30 2401 C 226.588 -1.03912 1.29582 0
M  V30 2402 O 227.773 -1.06296 1.58448 0
M  V30 2403 C 224.913 -1.52247 3.09701 0
M  V30 2404 C 224.026 -0.917021 4.22155 0
M  V30 2405 C 223.161 -1.9994 4.92135 0
M  V30 2406 C 222.2 -1.37101 5.96548 0
M  V30 2407 N 221.337 -2.39364 6.60038 0
M  V30 2408 H 226.177 0.232499 2.97092 0
M  V30 2409 H 223.714 0.126496 1.46555 0
M  V30 2410 H 225.672 -2.17674 3.55913 0
M  V30 2411 H 224.302 -2.13794 2.41851 0
M  V30 2412 H 223.354 -0.151742 3.80097 0
M  V30 2413 H 224.666 -0.418006 4.97045 0
M  V30 2414 H 223.82 -2.73088 5.41763 0
M  V30 2415 H 222.559 -2.53208 4.16818 0
M  V30 2416 H 221.564 -0.624873 5.46237 0
M  V30 2417 H 222.789 -0.845998 6.7381 0
M  V30 2418 H 220.735 -2.91759 5.87548 0
M  V30 2419 H 220.652 -1.9428 7.3061 0
M  V30 2420 H 221.92 -3.12074 7.14304 0
M  V30 2421 N 226.149 -1.5696 0.141893 0
M  V30 2422 C 227.379 -2.00031 -0.516828 0
M  V30 2423 C 227.787 -1.02091 -1.59293 0
M  V30 2424 O 227.13 -0.00909657 -1.83698 0
M  V30 2425 C 227.192 -3.39534 -1.1814 0
M  V30 2426 C 226.856 -4.56313 -0.250513 0
M  V30 2427 C 227.853 -5.17295 0.519839 0
M  V30 2428 C 225.538 -5.02061 -0.154907 0
M  V30 2429 C 227.532 -6.2243 1.3733 0
M  V30 2430 C 225.219 -6.07053 0.702161 0
M  V30 2431 C 226.217 -6.67106 1.46487 0
M  V30 2432 O 225.905 -7.70066 2.30767 0
M  V30 2433 H 225.637 -0.661451 -0.139493 0
M  V30 2434 H 228.191 -2.04086 0.231926 0
M  V30 2435 H 226.421 -3.32302 -1.97769 0
M  V30 2436 H 228.11 -3.66745 -1.73933 0
M  V30 2437 H 228.876 -4.82852 0.45598 0
M  V30 2438 H 224.755 -4.5505 -0.7383 0
M  V30 2439 H 228.299 -6.69233 1.96909 0
M  V30 2440 H 224.196 -6.40923 0.76733 0
M  V30 2441 H 224.964 -7.87264 2.23959 0
M  V30 2442 N 227.627 0.131896 -1.57047 0
M  V30 2443 C 228.59 1.14638 -1.98471 0
M  V30 2444 C 229.59 1.35029 -0.873148 0
M  V30 2445 O 230.78 1.31764 -1.13946 0
M  V30 2446 C 227.912 2.50358 -2.31373 0
M  V30 2447 H 229.105 0.79064 -2.8929 0
M  V30 2448 H 226.658 0.375761 -1.51716 0
M  V30 2449 H 227.393 2.90876 -1.43393 0
M  V30 2450 H 227.178 2.36915 -3.12432 0
M  V30 2451 H 228.668 3.23395 -2.64207 0
M  V30 2452 N 229.106 1.52395 0.401703 0
M  V30 2453 C 230.353 1.66817 1.14796 0
M  V30 2454 C 230.681 0.401772 1.90305 0
M  V30 2455 O 229.936 -0.615487 1.85769 0
M  V30 2456 C 230.235 2.84578 2.16217 0
M  V30 2457 C 229.901 4.22513 1.5746 0
M  V30 2458 C 228.563 4.60029 1.41161 0
M  V30 2459 C 230.915 5.0844 1.14622 0
M  V30 2460 C 228.243 5.81144 0.80552 0
M  V30 2461 C 230.595 6.30167 0.55428 0
M  V30 2462 C 229.259 6.66426 0.378482 0
M  V30 2463 H 228.529 0.610428 0.420069 0
M  V30 2464 H 231.176 1.86512 0.434212 0
M  V30 2465 H 229.481 2.59248 2.93764 0
M  V30 2466 H 231.178 2.92933 2.73845 0
M  V30 2467 H 227.768 3.92953 1.71132 0
M  V30 2468 H 231.952 4.80034 1.26021 0
M  V30 2469 H 227.208 6.07855 0.657399 0
M  V30 2470 H 231.382 6.96071 0.213983 0
M  V30 2471 H 229.009 7.60143 -0.0932606 0
M  V30 2472 N 230.584 -0.659388 1.43143 0
M  V30 2473 C 231.83 -1.42145 1.44647 0
M  V30 2474 C 232.163 -1.9408 0.0681907 0
M  V30 2475 O 231.438 -1.71899 -0.910007 0
M  V30 2476 C 231.721 -2.60735 2.48373 0
M  V30 2477 C 231.574 -2.14332 3.95451 0
M  V30 2478 C 232.893 -3.62951 2.48906 0
M  V30 2479 H 230.012 -0.51552 0.526696 0
M  V30 2480 H 232.654 -0.748069 1.74654 0
M  V30 2481 H 230.804 -3.18184 2.22916 0
M  V30 2482 H 232.476 -1.61932 4.31944 0
M  V30 2483 H 230.719 -1.4576 4.08578 0
M  V30 2484 H 231.39 -2.99583 4.63631 0
M  V30 2485 H 233.866 -3.1525 2.71582 0
M  V30 2486 H 232.742 -4.43487 3.23435 0
M  V30 2487 H 233.003 -4.15126 1.52061 0
M  V30 2488 N 232.062 -1.29571 -0.897171 0
M  V30 2489 C 233.01 -1.14802 -2.02295 0
M  V30 2490 C 234.004 -0.0629637 -1.69283 0
M  V30 2491 O 235.21 -0.222945 -1.78614 0
M  V30 2492 H 231.585 -0.354692 -0.663097 0
M  V30 2493 H 233.556 -2.10108 -2.11889 0
M  V30 2494 C 232.305 -0.843966 -3.37302 0
M  V30 2495 H 231.628 -1.67093 -3.63208 0
M  V30 2496 H 233.068 -0.780672 -4.16751 0
M  V30 2497 C 231.527 0.452843 -3.33843 0
M  V30 2498 O 232.057 1.47813 -3.73516 0
M  V30 2499 N 230.263 0.459601 -2.86943 0
M  V30 2500 H 229.81 -0.375213 -2.54853 0
M  V30 2501 H 229.768 1.32726 -2.85011 0
M  V30 2502 N 233.54 1.10788 -1.12088 0
M  V30 2503 C 234.77 1.86191 -0.895351 0
M  V30 2504 C 235.178 1.80763 0.558702 0
M  V30 2505 O 234.521 1.19188 1.39785 0
M  V30 2506 C 234.583 3.35659 -1.28737 0
M  V30 2507 C 234.247 3.64849 -2.75198 0
M  V30 2508 C 235.244 3.61757 -3.734 0
M  V30 2509 C 232.929 3.93641 -3.12013 0
M  V30 2510 C 234.923 3.87045 -5.06434 0
M  V30 2511 C 232.61 4.18585 -4.4523 0
M  V30 2512 C 233.608 4.15277 -5.42249 0
M  V30 2513 O 233.296 4.3959 -6.73065 0
M  V30 2514 H 233.028 0.595425 -0.32007 0
M  V30 2515 H 235.582 1.40992 -1.49367 0
M  V30 2516 H 233.812 3.81497 -0.63224 0
M  V30 2517 H 235.501 3.92441 -1.03656 0
M  V30 2518 H 236.267 3.39557 -3.46303 0
M  V30 2519 H 232.146 3.95348 -2.37109 0
M  V30 2520 H 235.69 3.84378 -5.82151 0
M  V30 2521 H 231.587 4.40264 -4.72057 0
M  V30 2522 H 232.355 4.57123 -6.78956 0
M  V30 2523 N 235.018 0.912232 1.28515 0
M  V30 2524 C 235.981 0.404223 2.25607 0
M  V30 2525 C 236.981 -0.468602 1.53821 0
M  V30 2526 O 238.171 -0.271873 1.72065 0
M  V30 2527 C 235.303 -0.420653 3.38295 0
M  V30 2528 H 236.496 1.26188 2.7206 0
M  V30 2529 H 234.049 0.691495 1.40171 0
M  V30 2530 H 234.784 -1.29777 2.97201 0
M  V30 2531 H 234.569 0.204935 3.91564 0
M  V30 2532 H 236.059 -0.766971 4.10496 0
M  V30 2533 N 236.496 -1.42363 0.676048 0
M  V30 2534 C 237.773 -1.95183 0.127726 0
M  V30 2535 C 238.153 -1.61641 -1.35777 0
M  V30 2536 O 237.501 -0.913216 -2.09458 0
M  V30 2537 C 237.711 -3.46721 0.398199 0
M  V30 2538 C 239.059 -4.23427 0.315383 0
M  V30 2539 O 240.083 -3.54649 0.332016 0
M  V30 2540 O 238.942 -5.45888 0.25865 0
M  V30 2541 H 236.036 -0.826992 0.00359427 0
M  V30 2542 H 238.582 -1.52184 0.750864 0
M  V30 2543 H 237.354 -3.64344 1.4272 0
M  V30 2544 H 236.977 -3.96769 -0.256885 0
M  V30 2545 N 237.974 -0.419461 -1.51915 0
M  V30 2546 C 239.385 0.0477853 -1.86639 0
M  V30 2547 C 239.736 1.43531 -1.33766 0
M  V30 2548 O 238.861 2.05401 -0.68113 0
M  V30 2549 C 239.456 0.0934885 -3.38671 0
M  V30 2550 C 238.015 0.505097 -3.72996 0
M  V30 2551 C 237.162 -0.313792 -2.75519 0
M  V30 2552 H 240.113 -0.636088 -1.45395 0
M  V30 2553 H 240.134 0.906667 -3.6954 0
M  V30 2554 H 239.646 -0.916501 -3.77123 0
M  V30 2555 H 237.747 1.52135 -3.40126 0
M  V30 2556 H 237.86 0.242309 -4.78487 0
M  V30 2557 H 236.224 0.225363 -2.53701 0
M  V30 2558 H 237.007 -1.32232 -3.16812 0
M  V30 2559 N 239.452 1.56882 -0.150215 0
M  V30 2560 C 240.677 2.01027 0.510184 0
M  V30 2561 C 241.102 1.02966 1.57415 0
M  V30 2562 O 240.46 0.00590158 1.81299 0
M  V30 2563 C 240.508 3.43899 1.08472 0
M  V30 2564 O 239.612 3.4885 2.19948 0
M  V30 2565 H 238.953 0.652233 0.124451 0
M  V30 2566 H 241.483 2.03093 -0.247894 0
M  V30 2567 H 241.493 3.82766 1.41259 0
M  V30 2568 H 240.168 4.14776 0.305582 0
M  V30 2569 H 238.745 3.21827 1.88366 0
M  V30 2570 N 240.93 -0.123565 1.57115 0
M  V30 2571 C 241.86 -1.15309 2.03042 0
M  V30 2572 C 242.841 -1.43454 0.914061 0
M  V30 2573 O 244.026 -1.53973 1.18347 0
M  V30 2574 C 241.156 -2.48043 2.43089 0
M  V30 2575 C 240.11 -2.3437 3.58127 0
M  V30 2576 C 239.436 -3.72026 3.84059 0
M  V30 2577 C 240.736 -1.80804 4.90007 0
M  V30 2578 H 242.43 -0.771102 2.893 0
M  V30 2579 H 239.976 -0.369479 1.39179 0
M  V30 2580 H 241.929 -3.20311 2.73823 0
M  V30 2581 H 240.653 -2.88122 1.53796 0
M  V30 2582 H 239.312 -1.64551 3.27595 0
M  V30 2583 H 238.96 -4.09582 2.91979 0
M  V30 2584 H 238.66 -3.63732 4.6149 0
M  V30 2585 H 240.184 -4.45806 4.1724 0
M  V30 2586 H 241.598 -2.42886 5.19307 0
M  V30 2587 H 239.995 -1.83343 5.71407 0
M  V30 2588 H 241.065 -0.76528 4.78823 0
M  V30 2589 N 242.408 -1.52605 -0.393616 0
M  V30 2590 C 243.685 -1.58001 -1.15304 0
M  V30 2591 C 244.065 -0.370385 -2.07825 0
M  V30 2592 O 243.413 0.641638 -2.19306 0
M  V30 2593 C 243.623 -2.91652 -1.91677 0
M  V30 2594 C 244.971 -3.4522 -2.47201 0
M  V30 2595 O 245.995 -2.93495 -2.01839 0
M  V30 2596 O 244.854 -4.35579 -3.3005 0
M  V30 2597 H 241.948 -0.637068 -0.527327 0
M  V30 2598 H 244.494 -1.64939 -0.399141 0
M  V30 2599 H 243.266 -3.71136 -1.23992 0
M  V30 2600 H 242.889 -2.88077 -2.74039 0
M  V30 2601 N 243.887 0.651787 -1.4349 0
M  V30 2602 C 245.136 1.40754 -1.44469 0
M  V30 2603 C 245.449 1.95463 -0.0731845 0
M  V30 2604 O 246.655 2.71471 0.0395721 0
M  V30 2605 C 245.111 2.54735 -2.5424 0
M  V30 2606 C 244.719 2.06628 -3.97504 0
M  V30 2607 C 246.463 3.32092 -2.64414 0
M  V30 2608 C 244.37 3.17829 -4.98737 0
M  V30 2609 H 243.3 0.528862 -0.53742 0
M  V30 2610 H 245.951 0.703365 -1.69485 0
M  V30 2611 H 244.333 3.2763 -2.22428 0
M  V30 2612 H 245.507 1.40734 -4.38783 0
M  V30 2613 H 243.822 1.42146 -3.91387 0
M  V30 2614 H 246.419 4.14952 -3.37223 0
M  V30 2615 H 246.762 3.80217 -1.69532 0
M  V30 2616 H 247.295 2.66279 -2.95534 0
M  V30 2617 H 244.034 2.74671 -5.95177 0
M  V30 2618 H 243.554 3.82429 -4.62069 0
M  V30 2619 H 245.233 3.82937 -5.21505 0
M  V30 2620 N 245.365 1.30045 0.890287 0
M  V30 2621 C 246.312 1.15976 1.99545 0
M  V30 2622 C 247.282 0.0506202 1.66023 0
M  V30 2623 O 248.467 0.219847 1.89529 0
M  V30 2624 C 245.607 0.852054 3.34416 0
M  V30 2625 C 244.72 2.04255 3.80662 0
M  V30 2626 C 243.855 1.6734 5.04154 0
M  V30 2627 C 242.894 2.82916 5.42794 0
M  V30 2628 N 242.031 2.46333 6.57468 0
M  V30 2629 H 246.871 2.10524 2.10911 0
M  V30 2630 H 244.408 1.04749 1.03276 0
M  V30 2631 H 246.366 0.654296 4.12037 0
M  V30 2632 H 244.996 -0.0565502 3.2275 0
M  V30 2633 H 244.048 2.35172 2.98995 0
M  V30 2634 H 245.36 2.90826 4.05242 0
M  V30 2635 H 244.514 1.43908 5.89386 0
M  V30 2636 H 243.253 0.779308 4.81433 0
M  V30 2637 H 242.258 3.0702 4.56091 0
M  V30 2638 H 243.483 3.73004 5.6749 0
M  V30 2639 H 241.429 1.59423 6.36334 0
M  V30 2640 H 241.346 3.26436 6.81891 0
M  V30 2641 H 242.614 2.26244 7.45945 0
M  V30 2642 N 246.843 -1.10192 1.12674 0
M  V30 2643 C 248.089 -1.82658 0.894847 0
M  V30 2644 C 248.444 -1.83666 -0.573107 0
M  V30 2645 O 247.737 -1.28816 -1.41835 0
M  V30 2646 C 247.931 -3.28552 1.4067 0
M  V30 2647 C 247.76 -3.41756 2.92289 0
M  V30 2648 C 246.53 -3.54021 3.60551 0
M  V30 2649 C 248.728 -3.34949 3.90274 0
M  V30 2650 N 246.71 -3.55827 5.0026 0
M  V30 2651 C 248.081 -3.43531 5.16127 0
M  V30 2652 C 250.136 -3.18565 3.8265 0
M  V30 2653 C 248.839 -3.37416 6.3525 0
M  V30 2654 C 250.865 -3.13772 5.01299 0
M  V30 2655 C 250.227 -3.22938 6.26012 0
M  V30 2656 H 246.326 -0.683044 0.380756 0
M  V30 2657 H 248.91 -1.31752 1.43351 0
M  V30 2658 H 247.081 -3.77946 0.895055 0
M  V30 2659 H 248.813 -3.88991 1.11661 0
M  V30 2660 H 245.568 -3.57135 3.1105 0
M  V30 2661 H 245.992 -3.60335 5.73138 0
M  V30 2662 H 250.634 -3.10354 2.87124 0
M  V30 2663 H 248.352 -3.44391 7.3104 0
M  V30 2664 H 251.938 -3.02242 4.97133 0
M  V30 2665 H 250.818 -3.19235 7.16281 0
M  V30 2666 N 248.321 -0.919034 -1.28029 0
M  V30 2667 C 249.231 -0.416756 -2.30869 0
M  V30 2668 C 250.247 0.498235 -1.66714 0
M  V30 2669 O 251.423 0.383144 -1.97722 0
M  V30 2670 C 248.488 0.330274 -3.45123 0
M  V30 2671 C 247.549 -0.618578 -4.2482 0
M  V30 2672 C 246.782 0.0928959 -5.33619 0
M  V30 2673 O 247.005 1.31375 -5.55065 0
M  V30 2674 O 245.939 -0.574499 -5.99152 0
M  V30 2675 H 249.765 -1.27043 -2.75851 0
M  V30 2676 H 247.35 -0.684052 -1.3282 0
M  V30 2677 H 249.232 0.751972 -4.14636 0
M  V30 2678 H 247.907 1.1597 -3.02213 0
M  V30 2679 H 246.814 -1.08978 -3.57875 0
M  V30 2680 H 248.147 -1.41497 -4.71423 0
M  V30 2681 N 249.799 1.42003 -0.683588 0
M  V30 2682 C 250.747 2.326 0.000815408 0
M  V30 2683 C 251.741 1.50308 0.781278 0
M  V30 2684 O 252.947 1.66322 0.688251 0
M  V30 2685 H 249.322 0.751758 0.0190616 0
M  V30 2686 H 251.293 2.88011 -0.780528 0
M  V30 2687 C 250.042 3.34978 0.93195 0
M  V30 2688 H 249.365 3.98345 0.340817 0
M  V30 2689 H 250.805 4.00936 1.37936 0
M  V30 2690 C 249.264 2.67925 2.04249 0
M  V30 2691 O 249.794 2.51788 3.12995 0
M  V30 2692 N 248 2.2681 1.81675 0
M  V30 2693 H 247.547 2.40135 0.932363 0
M  V30 2694 H 247.505 1.8228 2.56167 0
M  V30 2695 N 251.277 0.427512 1.51691 0
M  V30 2696 C 252.207 -0.3796 2.30394 0
M  V30 2697 C 253.188 -1.02982 1.35384 0
M  V30 2698 O 254.373 -1.03534 1.643 0
M  V30 2699 C 251.503 -1.48649 3.1388 0
M  V30 2700 C 250.457 -0.960294 4.17088 0
M  V30 2701 C 249.783 -2.16219 4.89033 0
M  V30 2702 C 251.083 -0.00153679 5.223 0
M  V30 2703 H 252.777 0.277164 2.98114 0
M  V30 2704 H 250.323 0.134739 1.43368 0
M  V30 2705 H 252.276 -2.05826 3.67714 0
M  V30 2706 H 251 -2.1714 2.43962 0
M  V30 2707 H 249.659 -0.410806 3.64291 0
M  V30 2708 H 249.307 -2.83307 4.15628 0
M  V30 2709 H 249.007 -1.81654 5.58816 0
M  V30 2710 H 250.531 -2.73968 5.45687 0
M  V30 2711 H 251.945 -0.482687 5.71264 0
M  V30 2712 H 250.342 0.256199 5.99553 0
M  V30 2713 H 251.412 0.938174 4.75738 0
M  V30 2714 N 252.755 -1.56801 0.158532 0
M  V30 2715 C 253.665 -2.20916 -0.789518 0
M  V30 2716 C 254.681 -1.1969 -1.26294 0
M  V30 2717 O 255.857 -1.52308 -1.31773 0
M  V30 2718 C 252.922 -2.82727 -2.00665 0
M  V30 2719 C 251.983 -3.99114 -1.58134 0
M  V30 2720 C 251.216 -4.57968 -2.74045 0
M  V30 2721 O 251.439 -4.15704 -3.90572 0
M  V30 2722 O 250.373 -5.48047 -2.48855 0
M  V30 2723 H 254.199 -3.02464 -0.273681 0
M  V30 2724 H 251.784 -1.4924 -0.0690548 0
M  V30 2725 H 253.666 -3.21968 -2.71872 0
M  V30 2726 H 252.341 -2.04184 -2.51179 0
M  V30 2727 H 251.248 -3.64567 -0.839155 0
M  V30 2728 H 252.581 -4.79212 -1.12325 0
M  V30 2729 N 254.233 0.115231 -1.57178 0
M  V30 2730 C 255.143 1.15994 -2.03918 0
M  V30 2731 C 256.159 1.45103 -0.960268 0
M  V30 2732 O 257.335 1.56144 -1.27204 0
M  V30 2733 C 254.4 2.46568 -2.43732 0
M  V30 2734 C 253.461 2.24822 -3.65723 0
M  V30 2735 C 252.694 3.4917 -4.03629 0
M  V30 2736 O 252.917 4.56623 -3.41835 0
M  V30 2737 O 251.851 3.39949 -4.96708 0
M  V30 2738 H 255.677 0.793019 -2.93164 0
M  V30 2739 H 253.262 0.3263 -1.45793 0
M  V30 2740 H 255.144 3.23492 -2.70057 0
M  V30 2741 H 253.819 2.82726 -1.57631 0
M  V30 2742 H 252.726 1.45744 -3.44542 0
M  V30 2743 H 254.059 1.93566 -4.52541 0
M  V30 2744 N 255.711 1.52812 0.385517 0
M  V30 2745 C 256.674 1.77188 1.45386 0
M  V30 2746 C 257.674 0.641953 1.4743 0
M  V30 2747 O 258.864 0.910033 1.4854 0
M  V30 2748 C 255.996 1.87582 2.8465 0
M  V30 2749 H 257.189 2.72583 1.25054 0
M  V30 2750 H 254.742 1.43586 0.617467 0
M  V30 2751 H 255.477 0.941849 3.10322 0
M  V30 2752 H 255.262 2.69748 2.84567 0
M  V30 2753 H 256.752 2.08102 3.62054 0
M  V30 2754 N 257.189 -0.644168 1.43834 0
M  V30 2755 C 258.099 -1.78563 1.52159 0
M  V30 2756 C 259.115 -1.69147 0.408069 0
M  V30 2757 O 260.291 -1.90156 0.663524 0
M  V30 2758 C 257.356 -3.14888 1.45073 0
M  V30 2759 C 256.417 -3.36034 2.6717 0
M  V30 2760 C 255.65 -4.65855 2.60413 0
M  V30 2761 O 255.873 -5.45805 1.65689 0
M  V30 2762 O 254.807 -4.88918 3.5106 0
M  V30 2763 H 258.633 -1.74494 2.48567 0
M  V30 2764 H 256.218 -0.80378 1.25935 0
M  V30 2765 H 258.1 -3.96179 1.43597 0
M  V30 2766 H 256.775 -3.19528 0.518037 0
M  V30 2767 H 255.682 -2.54472 2.74217 0
M  V30 2768 H 257.015 -3.36247 3.59442 0
M  V30 2769 N 258.668 -1.30515 -0.883378 0
M  V30 2770 C 259.914 -1.19607 -1.63774 0
M  V30 2771 C 260.247 0.248314 -1.92606 0
M  V30 2772 O 259.522 1.17742 -1.54813 0
M  V30 2773 C 259.805 -2.02669 -2.97653 0
M  V30 2774 C 259.658 -3.55335 -2.75784 0
M  V30 2775 C 260.977 -1.86573 -3.98596 0
M  V30 2776 H 258.096 -0.435856 -0.594305 0
M  V30 2777 H 260.738 -1.60165 -1.02212 0
M  V30 2778 H 258.888 -1.68208 -3.50197 0
M  V30 2779 H 260.56 -3.99863 -2.30016 0
M  V30 2780 H 258.803 -3.79438 -2.1026 0
M  V30 2781 H 259.474 -4.08745 -3.70988 0
M  V30 2782 H 261.95 -2.16703 -3.55217 0
M  V30 2783 H 260.826 -2.47014 -4.90179 0
M  V30 2784 H 261.087 -0.825321 -4.34328 0
M  V30 2785 N 260.146 1.09593 -1.13257 0
M  V30 2786 C 261.371 1.8604 -0.916732 0
M  V30 2787 C 261.796 1.80504 0.529146 0
M  V30 2788 O 261.154 1.18127 1.37534 0
M  V30 2789 C 261.202 3.32017 -1.40703 0
M  V30 2790 O 260.306 4.08141 -0.591153 0
M  V30 2791 H 259.647 0.576943 -0.328683 0
M  V30 2792 H 262.177 1.38405 -1.50682 0
M  V30 2793 H 262.187 3.82865 -1.4099 0
M  V30 2794 H 260.862 3.35361 -2.45979 0
M  V30 2795 H 259.439 3.67084 -0.656005 0
M  V30 2796 N 261.624 0.925811 1.2754 0
M  V30 2797 C 262.534 0.428993 2.30644 0
M  V30 2798 C 263.55 -0.489387 1.66976 0
M  V30 2799 O 264.726 -0.372653 1.97922 0
M  V30 2800 C 261.791 -0.311967 3.45294 0
M  V30 2801 C 260.852 0.641098 4.24486 0
M  V30 2802 C 260.085 -0.0645955 5.33661 0
M  V30 2803 O 260.308 -1.28429 5.55754 0
M  V30 2804 O 259.242 0.606265 5.98839 0
M  V30 2805 H 263.068 1.28504 2.75173 0
M  V30 2806 H 260.653 0.691086 1.32455 0
M  V30 2807 H 262.535 -0.729972 4.15029 0
M  V30 2808 H 261.21 -1.14365 3.02824 0
M  V30 2809 H 260.117 1.10874 3.57292 0
M  V30 2810 H 261.45 1.43995 4.70666 0
M  V30 2811 N 263.102 -1.41638 0.69111 0
M  V30 2812 C 264.065 -2.29178 0.0319786 0
M  V30 2813 C 265.065 -1.44153 -0.712496 0
M  V30 2814 O 266.255 -1.65354 -0.548053 0
M  V30 2815 C 263.387 -3.26952 -0.965161 0
M  V30 2816 H 264.58 -2.88959 0.802681 0
M  V30 2817 H 262.133 -1.4955 0.454356 0
M  V30 2818 H 262.868 -2.72142 -1.76378 0
M  V30 2819 H 262.653 -3.89685 -0.434522 0
M  V30 2820 H 264.143 -3.92561 -1.42428 0
M  V30 2821 N 264.58 -0.43555 -1.51462 0
M  V30 2822 C 265.857 0.191364 -1.94662 0
M  V30 2823 C 266.237 1.60254 -1.37411 0
M  V30 2824 O 265.585 2.2152 -0.560458 0
M  V30 2825 C 265.795 0.17091 -3.48581 0
M  V30 2826 C 267.143 0.377357 -4.2292 0
M  V30 2827 O 268.167 0.249104 -3.55328 0
M  V30 2828 O 267.026 0.63247 -5.42828 0
M  V30 2829 H 264.12 0.130932 -0.816569 0
M  V30 2830 H 266.666 -0.4934 -1.62369 0
M  V30 2831 H 265.438 -0.815738 -3.82703 0
M  V30 2832 H 265.061 0.898659 -3.87311 0
M  V30 2833 N 266.058 1.56714 -0.166846 0
M  V30 2834 C 266.968 2.21331 0.777791 0
M  V30 2835 C 267.984 1.20358 1.25658 0
M  V30 2836 O 269.16 1.53005 1.30964 0
M  V30 2837 C 266.225 2.83787 1.99163 0
M  V30 2838 C 265.286 3.99947 1.56016 0
M  V30 2839 C 264.519 4.59415 2.71613 0
M  V30 2840 O 264.742 4.17769 3.88362 0
M  V30 2841 O 263.676 5.49359 2.45945 0
M  V30 2842 H 267.502 3.02605 0.257636 0
M  V30 2843 H 265.087 1.49275 0.0611393 0
M  V30 2844 H 266.969 3.23405 2.70161 0
M  V30 2845 H 265.644 2.05513 2.50092 0
M  V30 2846 H 264.551 3.65007 0.819809 0
M  V30 2847 H 265.884 4.79801 1.09782 0
M  V30 2848 N 267.536 -0.106894 1.57237 0
M  V30 2849 C 268.484 -1.14944 2.02215 0
M  V30 2850 C 269.478 -1.42167 0.92114 0
M  V30 2851 O 270.684 -1.41987 1.10634 0
M  V30 2852 H 267.059 -0.387841 0.64427 0
M  V30 2853 H 269.03 -0.743683 2.88984 0
M  V30 2854 C 267.779 -2.4647 2.4525 0
M  V30 2855 H 267.102 -2.26363 3.29545 0
M  V30 2856 H 268.542 -3.17948 2.80508 0
M  V30 2857 C 267.001 -3.09921 1.321 0
M  V30 2858 O 267.531 -3.9651 0.643622 0
M  V30 2859 N 265.737 -2.69986 1.07497 0
M  V30 2860 H 265.284 -1.99667 1.62761 0
M  V30 2861 H 265.242 -3.12769 0.319876 0
M  V30 2862 N 269.014 -1.53014 -0.377408 0
M  V30 2863 C 269.964 -1.74996 -1.46152 0
M  V30 2864 C 270.948 -0.604236 -1.49123 0
M  V30 2865 O 272.14 -0.862489 -1.54564 0
M  V30 2866 C 269.269 -1.93267 -2.8373 0
M  V30 2867 C 268.355 -3.13807 -2.85283 0
M  V30 2868 N 268.746 -4.35941 -2.56493 0
M  V30 2869 C 267.044 -3.14288 -3.16448 0
M  V30 2870 C 267.745 -5.17615 -2.65424 0
M  V30 2871 N 266.721 -4.53559 -2.99641 0
M  V30 2872 H 270.523 -2.67044 -1.22738 0
M  V30 2873 H 268.037 -1.51479 -0.585479 0
M  V30 2874 H 270.034 -2.0714 -3.61799 0
M  V30 2875 H 268.694 -1.0244 -3.08117 0
M  V30 2876 H 269.705 -4.63876 -2.30302 0
M  V30 2877 H 266.382 -2.33312 -3.46225 0
M  V30 2878 H 267.772 -6.25006 -2.46612 0
M  V30 2879 N 270.492 0.636531 -1.44174 0
M  V30 2880 C 271.903 1.21806 -1.41493 0
M  V30 2881 C 272.254 1.95785 -0.1275 0
M  V30 2882 O 271.379 2.02147 0.772376 0
M  V30 2883 C 271.974 2.21551 -2.56321 0
M  V30 2884 C 270.533 2.75143 -2.56853 0
M  V30 2885 C 269.68 1.50052 -2.33195 0
M  V30 2886 H 272.631 0.427531 -1.52833 0
M  V30 2887 H 272.652 3.0405 -2.28765 0
M  V30 2888 H 272.164 1.67679 -3.50008 0
M  V30 2889 H 270.265 3.33033 -1.67093 0
M  V30 2890 H 270.378 3.2155 -3.55165 0
M  V30 2891 H 268.742 1.77993 -1.82183 0
M  V30 2892 H 269.525 0.980903 -3.28988 0
M  V30 2893 N 271.97 1.30982 0.876444 0
M  V30 2894 C 273.217 1.20296 1.62896 0
M  V30 2895 C 273.545 -0.240395 1.93009 0
M  V30 2896 O 272.8 -1.18733 1.55567 0
M  V30 2897 C 273.099 1.98572 2.9716 0
M  V30 2898 C 272.765 3.48125 2.86566 0
M  V30 2899 C 271.427 3.88905 2.83383 0
M  V30 2900 C 273.779 4.43322 2.74071 0
M  V30 2901 C 271.107 5.2316 2.65556 0
M  V30 2902 C 273.459 5.77695 2.57781 0
M  V30 2903 C 272.123 6.17704 2.52979 0
M  V30 2904 H 271.393 0.440193 0.59608 0
M  V30 2905 H 274.04 1.62177 1.01837 0
M  V30 2906 H 272.345 1.49352 3.62217 0
M  V30 2907 H 274.042 1.8769 3.54364 0
M  V30 2908 H 270.632 3.15723 2.89856 0
M  V30 2909 H 274.816 4.12752 2.75589 0
M  V30 2910 H 270.072 5.53241 2.60259 0
M  V30 2911 H 274.246 6.51091 2.47089 0
M  V30 2912 H 271.873 7.21678 2.38924 0
M  V30 2913 N 273.449 -1.08991 1.13837 0
M  V30 2914 C 274.379 -2.17771 0.842507 0
M  V30 2915 C 275.36 -1.6892 -0.20001 0
M  V30 2916 O 276.545 -1.94113 -0.0579731 0
M  V30 2917 C 273.675 -3.4589 0.312644 0
M  V30 2918 C 272.629 -4.08099 1.28992 0
M  V30 2919 C 271.955 -5.31098 0.619623 0
M  V30 2920 C 273.255 -4.50077 2.65005 0
M  V30 2921 H 274.949 -2.42777 1.75213 0
M  V30 2922 H 272.495 -1.16682 0.843875 0
M  V30 2923 H 274.448 -4.21297 0.0933043 0
M  V30 2924 H 273.172 -3.20419 -0.632382 0
M  V30 2925 H 271.831 -3.34717 1.49533 0
M  V30 2926 H 271.479 -5.0191 -0.33102 0
M  V30 2927 H 271.179 -5.73674 1.27167 0
M  V30 2928 H 272.703 -6.09224 0.409669 0
M  V30 2929 H 274.117 -5.16688 2.48407 0
M  V30 2930 H 272.514 -5.03553 3.26427 0
M  V30 2931 H 273.584 -3.62257 3.22332 0
M  V30 2932 N 274.927 -0.932562 -1.27047 0
M  V30 2933 C 275.874 -0.434072 -2.26681 0
M  V30 2934 C 276.844 0.501639 -1.58344 0
M  V30 2935 O 278.029 0.419734 -1.86126 0
M  V30 2936 C 275.169 0.30261 -3.43771 0
M  V30 2937 C 274.282 -0.667774 -4.26808 0
M  V30 2938 C 273.417 0.0892393 -5.31125 0
M  V30 2939 C 272.456 -0.873532 -6.05835 0
M  V30 2940 N 271.593 -0.148832 -7.01942 0
M  V30 2941 H 276.433 -1.28868 -2.68695 0
M  V30 2942 H 273.97 -0.646713 -1.32121 0
M  V30 2943 H 275.928 0.746092 -4.10474 0
M  V30 2944 H 274.558 1.12142 -3.02695 0
M  V30 2945 H 273.61 -1.22978 -3.59973 0
M  V30 2946 H 274.922 -1.40337 -4.78651 0
M  V30 2947 H 274.076 0.592409 -6.03801 0
M  V30 2948 H 272.815 0.85777 -4.80097 0
M  V30 2949 H 271.82 -1.38791 -5.31994 0
M  V30 2950 H 273.045 -1.64193 -6.58952 0
M  V30 2951 H 270.991 0.601365 -6.53238 0
M  V30 2952 H 270.908 -0.82391 -7.51497 0
M  V30 2953 H 272.176 0.333527 -7.78786 0
M  V30 2954 N 276.405 1.4127 -0.698611 0
M  V30 2955 C 277.682 1.94955 -0.158762 0
M  V30 2956 C 278.062 1.63781 1.33188 0
M  V30 2957 O 277.41 0.946423 2.07979 0
M  V30 2958 C 277.62 3.46044 -0.453309 0
M  V30 2959 C 278.968 4.22872 -0.382707 0
M  V30 2960 O 279.992 3.54076 -0.388396 0
M  V30 2961 O 278.851 5.45407 -0.345463 0
M  V30 2962 H 275.945 0.82683 -0.0167505 0
M  V30 2963 H 278.491 1.50971 -0.77498 0
M  V30 2964 H 277.263 3.62028 -1.48498 0
M  V30 2965 H 276.886 3.97128 0.19373 0
M  V30 2966 N 277.883 0.443576 1.51229 0
M  V30 2967 C 279.129 -0.120975 2.02439 0
M  V30 2968 C 279.462 -1.41815 1.32674 0
M  V30 2969 O 278.737 -1.89373 0.443622 0
M  V30 2970 C 279.02 -0.333291 3.58554 0
M  V30 2971 C 278.873 0.982968 4.38928 0
M  V30 2972 C 280.192 -1.10028 4.26124 0
M  V30 2973 H 277.311 -0.0424923 0.735774 0
M  V30 2974 H 279.953 0.583794 1.80809 0
M  V30 2975 H 278.103 -0.933614 3.77115 0
M  V30 2976 H 279.775 1.61775 4.32003 0
M  V30 2977 H 278.018 1.58611 4.03763 0
M  V30 2978 H 278.689 0.788379 5.46341 0
M  V30 2979 H 281.165 -0.591711 4.11871 0
M  V30 2980 H 280.041 -1.21761 5.35225 0
M  V30 2981 H 280.302 -2.12996 3.87408 0
M  V30 2982 N 279.361 -1.56624 0.175154 0
M  V30 2983 C 280.308 -2.18149 -0.753634 0
M  V30 2984 C 281.278 -1.12265 -1.22417 0
M  V30 2985 O 282.463 -1.40432 -1.29165 0
M  V30 2986 C 279.603 -2.82933 -1.97592 0
M  V30 2987 C 278.716 -4.03289 -1.5486 0
M  V30 2988 C 277.851 -4.55988 -2.72485 0
M  V30 2989 C 276.89 -5.68746 -2.26262 0
M  V30 2990 N 276.027 -6.15938 -3.36994 0
M  V30 2991 H 280.867 -2.9717 -0.222195 0
M  V30 2992 H 278.404 -1.46774 -0.0979422 0
M  V30 2993 H 280.362 -3.18653 -2.69288 0
M  V30 2994 H 278.992 -2.06509 -2.481 0
M  V30 2995 H 278.044 -3.73364 -0.728246 0
M  V30 2996 H 279.356 -4.849 -1.16933 0
M  V30 2997 H 278.51 -4.9391 -3.52332 0
M  V30 2998 H 277.249 -3.73443 -3.13674 0
M  V30 2999 H 276.254 -5.30372 -1.44863 0
M  V30 3000 H 277.479 -6.53095 -1.86127 0
M  V30 3001 H 275.425 -5.36321 -3.77751 0
M  V30 3002 H 275.342 -6.92548 -3.03172 0
M  V30 3003 H 276.61 -6.58511 -4.17114 0
M  V30 3004 N 280.839 0.0985539 -1.57292 0
M  V30 3005 C 282.25 0.653457 -1.74891 0
M  V30 3006 C 282.601 1.7929 -0.796838 0
M  V30 3007 O 281.726 2.16385 0.0254886 0
M  V30 3008 C 282.321 1.19216 -3.17133 0
M  V30 3009 C 280.88 1.69316 -3.36168 0
M  V30 3010 C 280.027 0.601294 -2.70702 0
M  V30 3011 H 282.978 -0.127497 -1.58187 0
M  V30 3012 H 282.999 2.06154 -3.19814 0
M  V30 3013 H 282.511 0.362635 -3.86402 0
M  V30 3014 H 280.612 2.5468 -2.71972 0
M  V30 3015 H 280.725 1.78853 -4.44464 0
M  V30 3016 H 279.089 1.0399 -2.32504 0
M  V30 3017 H 279.872 -0.217592 -3.4261 0
M  V30 3018 N 282.317 1.53212 0.369288 0
M  V30 3019 C 283.247 1.82365 1.45826 0
M  V30 3020 C 284.228 0.676907 1.56051 0
M  V30 3021 O 285.413 0.926401 1.70679 0
M  V30 3022 C 282.543 2.01023 2.83208 0
M  V30 3023 C 281.497 3.1678 2.8781 0
M  V30 3024 C 280.823 3.20724 4.27832 0
M  V30 3025 C 282.123 4.55447 2.55667 0
M  V30 3026 H 283.817 2.73559 1.21678 0
M  V30 3027 H 281.363 1.3163 0.583911 0
M  V30 3028 H 283.316 2.20001 3.59413 0
M  V30 3029 H 282.04 1.06536 3.08736 0
M  V30 3030 H 280.699 2.97616 2.14056 0
M  V30 3031 H 280.347 2.23882 4.50429 0
M  V30 3032 H 280.047 3.98496 4.31827 0
M  V30 3033 H 281.571 3.41881 5.05915 0
M  V30 3034 H 282.985 4.74611 3.21586 0
M  V30 3035 H 281.382 5.35432 2.70984 0
M  V30 3036 H 282.452 4.60812 1.5093 0
M  V30 3037 N 283.795 -0.628877 1.44509 0
M  V30 3038 C 285.211 -0.947305 1.28446 0
M  V30 3039 C 285.411 -2.00275 0.221872 0
M  V30 3040 O 284.467 -2.49447 -0.391471 0
M  V30 3041 C 285.78 -1.40843 2.65676 0
M  V30 3042 C 287.328 -1.52379 2.73404 0
M  V30 3043 C 287.803 -2.01875 4.11109 0
M  V30 3044 N 289.294 -2.09142 4.13296 0
M  V30 3045 C 290.029 -2.48615 5.16699 0
M  V30 3046 N 289.525 -2.87209 6.30462 0
M  V30 3047 N 291.318 -2.48768 5.04054 0
M  V30 3048 H 283.469 0.0690977 2.12288 0
M  V30 3049 H 285.732 -0.0317164 0.947469 0
M  V30 3050 H 285.438 -0.707206 3.44516 0
M  V30 3051 H 285.312 -2.37902 2.92716 0
M  V30 3052 H 287.699 -2.21598 1.9488 0
M  V30 3053 H 287.78 -0.536898 2.50102 0
M  V30 3054 H 287.424 -1.3325 4.90109 0
M  V30 3055 H 287.354 -3.0144 4.31789 0
M  V30 3056 H 289.845 -1.81991 3.31191 0
M  V30 3057 H 290.158 -3.16149 7.05174 0
M  V30 3058 H 288.503 -2.84955 6.33897 0
M  V30 3059 H 291.694 -2.18009 4.14234 0
M  V30 3060 H 291.867 -2.79207 5.84763 0
M  V30 3061 N 285.273 -1.31445 -0.869486 0
M  V30 3062 C 286.22 -1.19135 -1.97675 0
M  V30 3063 C 287.19 -0.0770266 -1.65921 0
M  V30 3064 O 288.375 -0.249972 -1.89155 0
M  V30 3065 C 285.515 -0.905149 -3.33018 0
M  V30 3066 C 284.628 -2.10285 -3.77365 0
M  V30 3067 C 283.763 -1.75339 -5.01427 0
M  V30 3068 C 282.802 -2.91515 -5.38224 0
M  V30 3069 N 281.939 -2.56762 -6.53466 0
M  V30 3070 H 286.779 -2.13853 -2.07535 0
M  V30 3071 H 284.316 -1.06379 -1.01597 0
M  V30 3072 H 286.274 -0.719765 -4.10944 0
M  V30 3073 H 284.904 0.00519624 -3.228 0
M  V30 3074 H 283.956 -2.39899 -2.95216 0
M  V30 3075 H 285.268 -2.97237 -4.00564 0
M  V30 3076 H 284.422 -1.53266 -5.87022 0
M  V30 3077 H 283.161 -0.855801 -4.80133 0
M  V30 3078 H 282.166 -3.14237 -4.51149 0
M  V30 3079 H 283.391 -3.81985 -5.61484 0
M  V30 3080 H 281.337 -1.69526 -6.33717 0
M  V30 3081 H 281.254 -3.37243 -6.76612 0
M  V30 3082 H 282.522 -2.38083 -7.42251 0
M  V30 3083 N 286.751 1.08385 -1.14413 0
M  V30 3084 C 287.661 2.18856 -0.844951 0
M  V30 3085 C 288.677 1.73121 0.174668 0
M  V30 3086 O 289.853 2.014 0.00312857 0
M  V30 3087 C 286.918 3.45155 -0.32696 0
M  V30 3088 C 285.979 4.05513 -1.40916 0
M  V30 3089 C 285.212 5.25784 -0.915793 0
M  V30 3090 O 285.435 5.69884 0.242651 0
M  V30 3091 O 284.369 5.77545 -1.69487 0
M  V30 3092 H 288.195 2.46919 -1.76818 0
M  V30 3093 H 285.78 1.17524 -0.922411 0
M  V30 3094 H 287.662 4.21377 -0.0440211 0
M  V30 3095 H 286.337 3.18668 0.568539 0
M  V30 3096 H 285.244 3.30879 -1.74556 0
M  V30 3097 H 286.577 4.3625 -2.27919 0
M  V30 3098 N 288.23 0.939286 1.26551 0
M  V30 3099 C 289.507 0.5038 1.89001 0
M  V30 3100 C 289.887 -1.01854 1.84903 0
M  V30 3101 O 289.235 -1.87773 1.30206 0
M  V30 3102 C 289.445 1.063 3.32417 0
M  V30 3103 C 290.793 1.13051 4.09273 0
M  V30 3104 O 291.817 1.01345 3.41479 0
M  V30 3105 O 290.676 1.31233 5.30509 0
M  V30 3106 H 287.77 0.163897 0.810597 0
M  V30 3107 H 290.316 1.03173 1.34735 0
M  V30 3108 H 289.088 2.10665 3.29752 0
M  V30 3109 H 288.711 0.517408 3.94219 0
M  V30 3110 N 289.708 -1.40897 0.706093 0
M  V30 3111 C 290.638 -2.33418 0.0620085 0
M  V30 3112 C 291.619 -1.52385 -0.755827 0
M  V30 3113 O 292.804 -1.80886 -0.706674 0
M  V30 3114 C 289.934 -3.36293 -0.867445 0
M  V30 3115 C 288.888 -4.27716 -0.155932 0
M  V30 3116 C 288.214 -5.2105 -1.20046 0
M  V30 3117 C 289.514 -5.12944 0.984149 0
M  V30 3118 H 291.208 -2.87527 0.83477 0
M  V30 3119 H 288.754 -1.38249 0.402875 0
M  V30 3120 H 290.707 -3.99949 -1.32735 0
M  V30 3121 H 289.431 -2.80556 -1.67199 0
M  V30 3122 H 288.09 -3.65498 0.284047 0
M  V30 3123 H 287.738 -4.61624 -1.99781 0
M  V30 3124 H 287.438 -5.83056 -0.729328 0
M  V30 3125 H 288.962 -5.87584 -1.66066 0
M  V30 3126 H 290.376 -5.70109 0.604048 0
M  V30 3127 H 288.773 -5.83945 1.38304 0
M  V30 3128 H 289.843 -4.49485 1.81911 0
M  V30 3129 O 291.225 -0.593567 -1.50197 0
M  V30 3130 H 291.916 -0.101366 -1.93435 0
M  V30 END ATOM
M  V30 BEGIN BOND
M  V30 END BOND
M  V30 END CTAB
M  END
$$$$
