drugbank_target|Q8GI16 Ferredoxin CarAc (DB07301)
 OpenBabel12092120413D

  0  0  0     0  0            999 V3000
M  V30 BEGIN CTAB
M  V30 COUNTS 1567 1583 0 0 0
M  V30 BEGIN ATOM
M  V30 1 H -0.908 1.98254 -0.117106 0
M  V30 2 N 0 1.576 0 0
M  V30 3 C 0.933 2.03868 1.02534 0
M  V30 4 C 1.911 0.928543 1.3348 0
M  V30 5 O 3.095 1.19667 1.45644 0
M  V30 6 C 0.222 2.43627 2.35294 0
M  V30 7 C -0.732 3.65373 2.2001 0
M  V30 8 S 0.101 5.13292 1.52614 0
M  V30 9 C 1.257 5.56322 2.86805 0
M  V30 10 H 1.49 2.90518 0.631377 0
M  V30 11 H -0.977 1.52953 0.210867 0
M  V30 12 H 0.981 2.67203 3.11629 0
M  V30 13 H -0.358 1.57376 2.7183 0
M  V30 14 H -1.165 3.90944 3.18086 0
M  V30 15 H -1.563 3.418 1.51819 0
M  V30 16 H 0.729 5.58782 3.83104 0
M  V30 17 H 1.672 6.56266 2.65933 0
M  V30 18 H 2.08 4.83886 2.90714 0
M  V30 19 N 1.4781 -0.272755 1.55222 0
M  V30 20 C 2.4261 -1.35705 1.88909 0
M  V30 21 C 3.4201 -1.5112 0.765456 0
M  V30 22 O 4.6261 -1.52901 0.949802 0
M  V30 23 H 1.0011 -0.453868 0.59959 0
M  V30 24 H 2.9721 -1.04544 2.79487 0
M  V30 25 C 1.7211 -2.71049 2.17779 0
M  V30 26 H 1.0441 -2.59979 3.03728 0
M  V30 27 H 2.4841 -3.45858 2.45272 0
M  V30 28 C 0.9431 -3.22165 0.985473 0
M  V30 29 O 1.4731 -4.01096 0.220233 0
M  V30 30 N -0.3209 -2.7985 0.783108 0
M  V30 31 H -0.7739 -2.15775 1.40708 0
M  V30 32 H -0.8159 -3.14397 -0.0130392 0
M  V30 33 N 2.9562 -1.48159 -0.537278 0
M  V30 34 C 3.8882 -1.58218 -1.65831 0
M  V30 35 C 4.9012 -0.466948 -1.5596 0
M  V30 36 O 6.0902 -0.73747 -1.62553 0
M  V30 37 C 3.1902 -1.48906 -3.04434 0
M  V30 38 C 2.3632 -2.75343 -3.3986 0
M  V30 39 C 1.4222 -2.59588 -4.57712 0
M  V30 40 O 0.4482 -3.33457 -4.61297 0
M  V30 41 N 1.6502 -1.68724 -5.55439 0
M  V30 42 H 4.4152 -2.54891 -1.57641 0
M  V30 43 H 1.9762 -1.4479 -0.724386 0
M  V30 44 H 3.9682 -1.36072 -3.81139 0
M  V30 45 H 2.5382 -0.602368 -3.06741 0
M  V30 46 H 1.7582 -3.02795 -2.52406 0
M  V30 47 H 3.0462 -3.5924 -3.60311 0
M  V30 48 H 2.4442 -1.07898 -5.55315 0
M  V30 49 H 1.0012 -1.61832 -6.3139 0
M  V30 50 N 4.4343 0.785586 -1.36625 0
M  V30 51 C 5.6833 1.53883 -1.30396 0
M  V30 52 C 5.9963 1.95271 0.113452 0
M  V30 53 O 7.2023 2.69858 0.298142 0
M  V30 54 C 5.6583 2.77808 -2.28802 0
M  V30 55 C 5.2663 2.43574 -3.75999 0
M  V30 56 C 7.0103 3.55783 -2.31558 0
M  V30 57 C 4.9173 3.63919 -4.66173 0
M  V30 58 H 3.8473 0.577678 -0.484566 0
M  V30 59 H 6.4983 0.861705 -1.62009 0
M  V30 60 H 4.8803 3.47339 -1.90188 0
M  V30 61 H 6.0543 1.81916 -4.23371 0
M  V30 62 H 4.3693 1.78803 -3.76056 0
M  V30 63 H 6.9663 4.45205 -2.96137 0
M  V30 64 H 7.3093 3.94644 -1.3252 0
M  V30 65 H 7.8423 2.93235 -2.68809 0
M  V30 66 H 4.5813 3.3015 -5.66287 0
M  V30 67 H 4.1013 4.2473 -4.23515 0
M  V30 68 H 5.7803 4.30901 -4.82632 0
M  V30 69 N 5.9124 1.20967 1.01018 0
M  V30 70 C 7.1584 1.0353 1.7508 0
M  V30 71 C 7.5134 -0.42734 1.87594 0
M  V30 72 O 6.8064 -1.31298 1.3954 0
M  V30 73 C 7.0004 1.65997 3.16512 0
M  V30 74 C 6.8294 3.18184 3.17788 0
M  V30 75 C 5.5994 3.87198 3.24662 0
M  V30 76 C 7.7974 4.15334 3.03319 0
M  V30 77 N 5.7794 5.26618 3.15509 0
M  V30 78 C 7.1504 5.41472 3.02007 0
M  V30 79 C 9.2054 4.06449 2.87583 0
M  V30 80 C 7.9084 6.5975 2.86571 0
M  V30 81 C 9.9344 5.24357 2.73503 0
M  V30 82 C 9.2964 6.49404 2.72862 0
M  V30 83 H 5.3954 0.433137 0.651089 0
M  V30 84 H 7.9794 1.5324 1.20107 0
M  V30 85 H 6.1504 1.18863 3.69765 0
M  V30 86 H 7.8824 1.41816 3.79039 0
M  V30 87 H 4.6374 3.38093 3.31648 0
M  V30 88 H 5.0614 5.99626 3.14289 0
M  V30 89 H 9.7034 3.10573 2.86887 0
M  V30 90 H 7.4214 7.55792 2.86015 0
M  V30 91 H 11.0074 5.19299 2.62334 0
M  V30 92 H 9.8874 7.39105 2.62093 0
M  V30 93 N 7.3905 -1.2043 1.01659 0
M  V30 94 C 8.3205 -2.25466 0.607226 0
M  V30 95 C 9.3015 -1.65853 -0.377716 0
M  V30 96 O 10.4865 -1.92409 -0.263149 0
M  V30 97 C 7.6165 -3.47256 -0.0552949 0
M  V30 98 C 6.5705 -4.19462 0.850632 0
M  V30 99 C 5.8965 -5.34673 0.0538859 0
M  V30 100 C 7.1965 -4.75603 2.15868 0
M  V30 101 H 8.8905 -2.59962 1.48526 0
M  V30 102 H 6.4365 -1.2496 0.715605 0
M  V30 103 H 8.3895 -4.19917 -0.353233 0
M  V30 104 H 7.1135 -3.11924 -0.968045 0
M  V30 105 H 5.7725 -3.48667 1.13257 0
M  V30 106 H 5.4205 -4.95585 -0.860514 0
M  V30 107 H 5.1205 -5.83913 0.657192 0
M  V30 108 H 6.6445 -6.10138 -0.237598 0
M  V30 109 H 8.0585 -5.40083 1.92311 0
M  V30 110 H 6.4555 -5.3528 2.71284 0
M  V30 111 H 7.5255 -3.94346 2.82169 0
M  V30 112 N 8.8686 -0.792821 -1.36206 0
M  V30 113 C 9.8156 -0.191653 -2.30003 0
M  V30 114 C 10.7856 0.666453 -1.52143 0
M  V30 115 O 11.9706 0.61442 -1.80636 0
M  V30 116 C 9.1106 0.664848 -3.38635 0
M  V30 117 C 8.2236 -0.212175 -4.31479 0
M  V30 118 C 7.3586 0.651022 -5.27196 0
M  V30 119 C 6.3976 -0.227247 -6.11678 0
M  V30 120 N 5.5346 0.595127 -6.99573 0
M  V30 121 H 10.3746 -0.996978 -2.80828 0
M  V30 122 H 7.9116 -0.503206 -1.38225 0
M  V30 123 H 9.8696 1.17645 -4.00269 0
M  V30 124 H 8.4996 1.43557 -2.89122 0
M  V30 125 H 7.5516 -0.841777 -3.70969 0
M  V30 126 H 8.8636 -0.888751 -4.90818 0
M  V30 127 H 8.0176 1.2283 -5.94136 0
M  V30 128 H 6.7566 1.36121 -4.68319 0
M  V30 129 H 5.7616 -0.816904 -5.43697 0
M  V30 130 H 6.9866 -0.93509 -6.72631 0
M  V30 131 H 4.9326 1.28955 -6.432 0
M  V30 132 H 4.8496 -0.0236952 -7.55996 0
M  V30 133 H 6.1176 1.15613 -7.70879 0
M  V30 134 N 10.3467 1.47872 -0.545128 0
M  V30 135 C 11.5927 2.02793 -0.0166104 0
M  V30 136 C 11.9257 1.41987 1.32489 0
M  V30 137 O 11.2007 0.571045 1.85928 0
M  V30 138 C 11.4837 3.59989 0.0893294 0
M  V30 139 C 11.3367 4.3125 -1.27841 0
M  V30 140 C 12.6557 4.32606 0.808724 0
M  V30 141 H 9.7747 0.736962 -0.00751035 0
M  V30 142 H 12.4167 1.76433 -0.705085 0
M  V30 143 H 10.5667 3.82579 0.675681 0
M  V30 144 H 12.2387 4.20035 -1.90704 0
M  V30 145 H 10.4817 3.92076 -1.85632 0
M  V30 146 H 11.1527 5.39736 -1.15713 0
M  V30 147 H 13.6287 4.14936 0.310992 0
M  V30 148 H 12.5047 5.42251 0.851782 0
M  V30 149 H 12.7657 4.00963 1.86229 0
M  V30 150 N 11.8248 0.280983 1.55075 0
M  V30 151 C 13.0648 -0.335234 2.01632 0
M  V30 152 C 13.4288 -1.5261 1.16508 0
M  V30 153 O 14.6298 -2.21235 1.52672 0
M  V30 154 C 12.9008 -0.702172 3.50434 0
M  V30 155 S 14.4598 -1.30409 4.18974 0
M  V30 156 H 11.2778 -0.103967 0.703358 0
M  V30 157 H 13.8798 0.404187 1.91276 0
M  V30 158 H 12.5838 0.17333 4.10034 0
M  V30 159 H 12.1148 -1.4729 3.64786 0
M  V30 160 H 14.1298 -2.59253 4.23087 0
M  V30 161 N 13.3029 -1.57598 0.00835791 0
M  V30 162 C 14.2659 -2.07884 -0.965242 0
M  V30 163 C 15.2659 -0.989825 -1.26725 0
M  V30 164 O 16.4559 -1.25218 -1.21104 0
M  V30 165 C 13.5879 -2.52731 -2.28779 0
M  V30 166 H 14.7809 -2.95178 -0.530112 0
M  V30 167 H 12.3339 -1.54458 -0.239283 0
M  V30 168 H 13.0689 -1.68705 -2.76964 0
M  V30 169 H 12.8539 -3.32272 -2.08177 0
M  V30 170 H 14.3439 -2.91933 -2.98605 0
M  V30 171 N 14.781 0.264519 -1.55364 0
M  V30 172 C 15.744 1.31046 -1.88042 0
M  V30 173 C 16.744 1.41943 -0.755569 0
M  V30 174 O 17.934 1.40947 -1.02369 0
M  V30 175 C 15.066 2.69067 -2.09323 0
M  V30 176 H 16.259 1.03297 -2.81549 0
M  V30 177 H 13.812 0.502989 -1.47986 0
M  V30 178 H 14.547 3.01982 -1.18226 0
M  V30 179 H 14.332 2.62542 -2.91229 0
M  V30 180 H 15.822 3.44623 -2.35848 0
M  V30 181 N 16.2591 1.48442 0.529413 0
M  V30 182 C 17.4841 1.60406 1.31471 0
M  V30 183 C 17.9091 0.264738 1.86228 0
M  V30 184 O 17.2671 -0.763668 1.64432 0
M  V30 185 C 17.3151 2.65419 2.44101 0
M  V30 186 O 16.4191 2.22618 3.47153 0
M  V30 187 H 15.7601 0.537863 0.389357 0
M  V30 188 H 18.2901 1.94432 0.636965 0
M  V30 189 H 18.3001 2.86709 2.90279 0
M  V30 190 H 16.9751 3.62652 2.03608 0
M  V30 191 H 15.5521 2.11543 3.0709 0
M  V30 192 N 17.7372 -0.778329 1.37039 0
M  V30 193 C 19.0142 -1.52551 1.22424 0
M  V30 194 C 19.3942 -2.10288 -0.184964 0
M  V30 195 O 18.7422 -1.94953 -1.19187 0
M  V30 196 C 18.9522 -2.61164 2.31504 0
M  V30 197 C 20.3002 -3.28746 2.68721 0
M  V30 198 O 21.3242 -2.71455 2.30631 0
M  V30 199 O 20.1832 -4.3231 3.3432 0
M  V30 200 H 17.2772 -0.675343 0.477326 0
M  V30 201 H 19.8232 -0.815859 1.48801 0
M  V30 202 H 18.5952 -2.16574 3.25901 0
M  V30 203 H 18.2182 -3.39737 2.06554 0
M  V30 204 N 19.2153 -1.21501 -1.00376 0
M  V30 205 C 20.1483 -0.918669 -2.08892 0
M  V30 206 C 21.1263 0.134277 -1.62045 0
M  V30 207 O 22.3103 0.00504255 -1.88499 0
M  V30 208 C 19.4373 -0.379645 -3.36566 0
M  V30 209 C 18.4833 -1.41559 -4.02323 0
M  V30 210 S 19.3163 -2.98521 -4.44574 0
M  V30 211 C 20.4723 -2.46228 -5.75433 0
M  V30 212 H 20.7053 -1.83761 -2.33707 0
M  V30 213 H 18.2383 -1.04489 -1.13673 0
M  V30 214 H 20.1963 -0.0752195 -4.10431 0
M  V30 215 H 18.8573 0.518008 -3.09799 0
M  V30 216 H 18.0503 -0.988076 -4.9422 0
M  V30 217 H 17.6523 -1.66815 -3.34737 0
M  V30 218 H 19.9443 -1.86791 -6.51241 0
M  V30 219 H 20.8873 -3.36572 -6.22997 0
M  V30 220 H 21.2953 -1.87894 -5.32312 0
M  V30 221 N 20.6934 1.19889 -1.02296 0
M  V30 222 C 21.6254 2.22334 -0.556787 0
M  V30 223 C 22.6384 1.58674 0.364199 0
M  V30 224 O 23.8274 1.77768 0.161533 0
M  V30 225 C 20.9274 3.38257 0.208694 0
M  V30 226 C 20.1004 4.31504 -0.71577 0
M  V30 227 C 19.1594 5.262 0.00325597 0
M  V30 228 O 18.1854 5.65798 -0.621357 0
M  V30 229 N 19.3874 5.66303 1.27599 0
M  V30 230 H 22.1524 2.62957 -1.43784 0
M  V30 231 H 19.7134 1.34495 -0.901261 0
M  V30 232 H 21.7054 3.98616 0.699111 0
M  V30 233 H 20.2754 2.96472 0.991102 0
M  V30 234 H 19.4954 3.69016 -1.38638 0
M  V30 235 H 20.7834 4.9072 -1.34428 0
M  V30 236 H 20.1814 5.36155 1.80429 0
M  V30 237 H 18.7384 6.28942 1.71102 0
M  V30 238 N 22.1715 0.800033 1.35784 0
M  V30 239 C 23.5825 0.439142 1.81462 0
M  V30 240 C 23.9335 -1.03813 1.66485 0
M  V30 241 O 23.0585 -1.80626 1.19177 0
M  V30 242 C 23.6535 0.790314 3.29453 0
M  V30 243 C 22.2125 0.482111 3.733 0
M  V30 244 C 21.3595 1.01938 2.57883 0
M  V30 245 H 24.3105 0.992254 1.23855 0
M  V30 246 H 24.3315 0.0853677 3.80404 0
M  V30 247 H 23.8435 1.86554 3.40322 0
M  V30 248 H 21.9445 -0.584652 3.67984 0
M  V30 249 H 22.0575 1.01015 4.6833 0
M  V30 250 H 20.4215 0.442043 2.50835 0
M  V30 251 H 21.2045 2.10059 2.71533 0
M  V30 252 N 23.6496 -1.47581 0.552962 0
M  V30 253 C 24.8976 -2.02082 0.0272703 0
M  V30 254 C 25.2186 -1.4301 -1.32563 0
M  V30 255 O 24.4886 -0.603745 -1.86365 0
M  V30 256 H 23.0686 -0.746966 0.00709182 0
M  V30 257 H 25.7306 -1.81033 0.722008 0
M  V30 258 H 24.8266 -3.12034 -0.0639951 0
M  V30 259 N 25.1277 -0.289203 -1.54924 0
M  V30 260 C 26.3557 0.326463 -2.04308 0
M  V30 261 C 26.7707 1.48413 -1.16701 0
M  V30 262 O 26.1277 1.81507 -0.190087 0
M  V30 263 C 26.1787 0.794014 -3.52672 0
M  V30 264 O 25.8997 -0.317564 -4.36948 0
M  V30 265 C 27.4007 1.47605 -4.18004 0
M  V30 266 H 24.6207 0.0726272 -0.667058 0
M  V30 267 H 27.1647 -0.425401 -2.00026 0
M  V30 268 H 25.3197 1.49593 -3.57352 0
M  V30 269 H 25.7337 0.0443186 -5.24481 0
M  V30 270 H 27.2077 1.75447 -5.23376 0
M  V30 271 H 27.6847 2.41224 -3.67025 0
M  V30 272 H 28.2907 0.81762 -4.17367 0
M  V30 273 N 26.6058 1.57591 -0.0167156 0
M  V30 274 C 27.8548 1.90461 0.663877 0
M  V30 275 C 28.1678 0.893515 1.73999 0
M  V30 276 O 29.3738 1.11302 2.47637 0
M  V30 277 C 27.8298 3.38155 1.23204 0
M  V30 278 C 27.4378 4.47597 0.189866 0
M  V30 279 C 29.1818 3.80111 1.88986 0
M  V30 280 C 27.0888 5.86379 0.768964 0
M  V30 281 H 26.0188 0.710738 0.251729 0
M  V30 282 H 28.6698 1.83326 -0.0799926 0
M  V30 283 H 27.0518 3.40182 2.02712 0
M  V30 284 H 28.2258 4.57112 -0.581846 0
M  V30 285 H 26.5408 4.14766 -0.368475 0
M  V30 286 H 29.1378 4.81145 2.33247 0
M  V30 287 H 29.4808 3.14511 2.72743 0
M  V30 288 H 30.0138 3.80454 1.16187 0
M  V30 289 H 26.7528 6.55493 -0.0301957 0
M  V30 290 H 26.2728 5.80496 1.50945 0
M  V30 291 H 27.9518 6.34563 1.26251 0
M  V30 292 N 28.0839 -0.256276 1.55502 0
M  V30 293 C 29.4999 -0.604325 1.47716 0
M  V30 294 C 29.6999 -1.88763 0.705039 0
M  V30 295 O 28.7559 -2.51445 0.230613 0
M  V30 296 C 30.0689 -0.715756 2.92057 0
M  V30 297 C 31.6169 -0.808706 3.02372 0
M  V30 298 C 32.0919 -0.951777 4.48001 0
M  V30 299 N 33.5829 -1.01688 4.519 0
M  V30 300 C 34.3179 -1.14668 5.61817 0
M  V30 301 N 33.8139 -1.24261 6.81565 0
M  V30 302 N 35.6069 -1.1791 5.49594 0
M  V30 303 H 27.7579 0.586291 2.04148 0
M  V30 304 H 30.0209 0.201015 0.926443 0
M  V30 305 H 29.7269 0.157027 3.51349 0
M  V30 306 H 29.6009 -1.59071 3.42018 0
M  V30 307 H 31.9879 -1.67195 2.43166 0
M  V30 308 H 32.0689 0.0912063 2.55637 0
M  V30 309 H 31.7129 -0.0931291 5.07815 0
M  V30 310 H 31.6429 -1.86659 4.92408 0
M  V30 311 H 34.1339 -0.954468 3.65648 0
M  V30 312 H 34.4469 -1.34046 7.61086 0
M  V30 313 H 32.7919 -1.21236 6.84344 0
M  V30 314 H 35.9829 -1.10057 4.54978 0
M  V30 315 H 36.1559 -1.27681 6.35296 0
M  V30 316 N 29.562 -1.4872 -0.521534 0
M  V30 317 C 30.978 -1.35028 -0.850855 0
M  V30 318 C 31.178 -0.367712 -1.98116 0
M  V30 319 O 30.234 0.208037 -2.51642 0
M  V30 320 C 31.547 -2.75263 -1.21041 0
M  V30 321 C 33.095 -2.83813 -1.31981 0
M  V30 322 C 33.57 -4.24769 -1.71276 0
M  V30 323 N 35.061 -4.27482 -1.78363 0
M  V30 324 C 35.796 -5.33494 -2.1017 0
M  V30 325 N 35.292 -6.49775 -2.40343 0
M  V30 326 N 37.085 -5.20894 -2.11248 0
M  V30 327 H 29.236 -2.11214 0.22413 0
M  V30 328 H 31.499 -0.947252 0.0376439 0
M  V30 329 H 31.205 -3.48765 -0.453415 0
M  V30 330 H 31.079 -3.09327 -2.15863 0
M  V30 331 H 33.466 -2.10561 -2.06756 0
M  V30 332 H 33.547 -2.53358 -0.352596 0
M  V30 333 H 33.191 -4.9854 -0.970588 0
M  V30 334 H 33.121 -4.52673 -2.69062 0
M  V30 335 H 35.612 -3.43611 -1.57288 0
M  V30 336 H 35.925 -7.26402 -2.63743 0
M  V30 337 H 34.27 -6.53035 -2.37844 0
M  V30 338 H 37.461 -4.29065 -1.87139 0
M  V30 339 H 37.634 -6.03612 -2.35704 0
M  V30 340 N 31.0401 0.771051 -1.3745 0
M  V30 341 C 32.2861 1.5319 -1.32894 0
M  V30 342 C 32.6191 1.94008 0.0862511 0
M  V30 343 O 31.8941 1.64124 1.04373 0
M  V30 344 C 32.1771 2.79648 -2.26868 0
M  V30 345 C 32.0301 2.45079 -3.77169 0
M  V30 346 C 33.3491 3.81583 -2.19277 0
M  V30 347 H 30.4681 0.555744 -0.484064 0
M  V30 348 H 33.1101 0.884492 -1.68157 0
M  V30 349 H 31.2601 3.34891 -1.96926 0
M  V30 350 H 32.9321 1.95745 -4.1771 0
M  V30 351 H 31.1751 1.77767 -3.95704 0
M  V30 352 H 31.8461 3.35478 -4.38359 0
M  V30 353 H 34.3221 3.35835 -2.45671 0
M  V30 354 H 33.1981 4.67787 -2.87171 0
M  V30 355 H 33.4591 4.25897 -1.18592 0
M  V30 356 N 32.5182 1.22032 0.997298 0
M  V30 357 C 33.4662 0.983634 2.10778 0
M  V30 358 C 34.4602 -0.0717564 1.69248 0
M  V30 359 O 35.6662 0.080304 1.79821 0
M  V30 360 H 32.0412 0.300877 0.689186 0
M  V30 361 H 34.0122 1.92606 2.27916 0
M  V30 362 C 32.7612 0.57326 3.42942 0
M  V30 363 H 32.0842 1.37702 3.75338 0
M  V30 364 H 33.5242 0.447031 4.21637 0
M  V30 365 C 31.9832 -0.7167 3.29188 0
M  V30 366 O 32.5132 -1.77027 3.60589 0
M  V30 367 N 30.7192 -0.686167 2.82383 0
M  V30 368 H 30.2662 0.171507 2.57028 0
M  V30 369 H 30.2242 -1.54955 2.73562 0
M  V30 370 N 33.9963 -1.19345 1.0293 0
M  V30 371 C 35.4123 -1.41069 0.746446 0
M  V30 372 C 35.6123 -1.90078 -0.668776 0
M  V30 373 O 34.6683 -2.0778 -1.4347 0
M  V30 374 C 35.9813 -2.42141 1.78292 0
M  V30 375 C 37.5293 -2.55887 1.80252 0
M  V30 376 C 38.0043 -3.60214 2.8286 0
M  V30 377 N 39.4953 -3.67711 2.81679 0
M  V30 378 C 40.2303 -4.48128 3.57727 0
M  V30 379 N 39.7263 -5.32248 4.43491 0
M  V30 380 N 41.5193 -4.42782 3.46267 0
M  V30 381 H 33.6703 -0.858536 1.94275 0
M  V30 382 H 35.9333 -0.439541 0.839945 0
M  V30 383 H 35.6393 -2.13155 2.79746 0
M  V30 384 H 35.5133 -3.41323 1.60557 0
M  V30 385 H 37.9003 -2.84196 0.794757 0
M  V30 386 H 37.9813 -1.56858 2.02062 0
M  V30 387 H 37.6253 -3.32647 3.83807 0
M  V30 388 H 37.5553 -4.58895 2.58307 0
M  V30 389 H 40.0463 -3.07634 2.19476 0
M  V30 390 H 40.3593 -5.90729 4.98256 0
M  V30 391 H 38.7043 -5.31707 4.47564 0
M  V30 392 H 41.8953 -3.76107 2.78677 0
M  V30 393 H 42.0683 -5.05215 4.05785 0
M  V30 394 N 35.4744 -0.807222 -1.35358 0
M  V30 395 C 36.7204 -0.388463 -1.99045 0
M  V30 396 C 37.0534 1.04184 -1.63888 0
M  V30 397 O 36.3284 1.72292 -0.902535 0
M  V30 398 C 36.6114 -0.572783 -3.55515 0
M  V30 399 C 36.4644 -2.04807 -4.00468 0
M  V30 400 C 37.7834 0.00114064 -4.401 0
M  V30 401 H 34.9024 -0.142619 -0.723069 0
M  V30 402 H 37.5444 -1.01687 -1.60498 0
M  V30 403 H 35.6944 -0.0378425 -3.88482 0
M  V30 404 H 37.3664 -2.64544 -3.77908 0
M  V30 405 H 35.6094 -2.54427 -3.51353 0
M  V30 406 H 36.2804 -2.12792 -5.09337 0
M  V30 407 H 38.7564 -0.455716 -4.13597 0
M  V30 408 H 37.6324 -0.157737 -5.48673 0
M  V30 409 H 37.8934 1.09488 -4.28328 0
M  V30 410 N 36.9525 1.47285 -0.560781 0
M  V30 411 C 38.2005 2.02064 -0.0379868 0
M  V30 412 C 38.5215 1.43711 1.31803 0
M  V30 413 O 37.7915 0.61362 1.86042 0
M  V30 414 H 36.3715 0.746918 -0.0110531 0
M  V30 415 H 39.0335 1.80648 -0.731598 0
M  V30 416 H 38.1295 3.12064 0.0474463 0
M  V30 417 N 38.4306 0.297415 1.54768 0
M  V30 418 C 39.3936 -0.567375 2.22066 0
M  V30 419 C 40.3936 -1.06409 1.20556 0
M  V30 420 O 41.5836 -0.960691 1.45315 0
M  V30 421 C 38.7156 -1.78517 2.90421 0
M  V30 422 H 39.9086 0.0205534 2.99893 0
M  V30 423 H 37.4616 0.0482163 1.56226 0
M  V30 424 H 38.1966 -2.41303 2.16664 0
M  V30 425 H 37.9816 -1.43669 3.64831 0
M  V30 426 H 39.4716 -2.39964 3.41771 0
M  V30 427 N 39.9087 -1.5758 0.0250728 0
M  V30 428 C 40.8717 -2.08896 -0.943139 0
M  V30 429 C 41.8717 -1.00321 -1.25668 0
M  V30 430 O 43.0617 -1.26495 -1.19769 0
M  V30 431 C 40.1937 -2.55143 -2.26086 0
M  V30 432 H 41.3867 -2.95723 -0.498775 0
M  V30 433 H 38.9397 -1.54703 -0.222888 0
M  V30 434 H 39.6747 -1.71633 -2.75159 0
M  V30 435 H 39.4597 -3.34461 -2.04641 0
M  V30 436 H 40.9497 -2.95083 -2.95492 0
M  V30 437 N 41.3868 0.248026 -1.55636 0
M  V30 438 C 42.7978 0.817177 -1.67866 0
M  V30 439 C 43.1488 1.86069 -0.622322 0
M  V30 440 O 42.2738 2.15157 0.231618 0
M  V30 441 C 42.8688 1.489 -3.04326 0
M  V30 442 C 41.4278 2.00587 -3.185 0
M  V30 443 C 40.5748 0.856573 -2.63739 0
M  V30 444 H 43.5258 0.0238579 -1.58682 0
M  V30 445 H 43.5468 2.35698 -2.98708 0
M  V30 446 H 43.0588 0.729279 -3.81186 0
M  V30 447 H 41.1598 2.79443 -2.4646 0
M  V30 448 H 41.2728 2.20402 -4.25393 0
M  V30 449 H 39.6368 1.25678 -2.21534 0
M  V30 450 H 40.4198 0.109953 -3.43124 0
M  V30 451 N 42.8649 1.48995 0.513639 0
M  V30 452 C 43.7949 1.67636 1.62544 0
M  V30 453 C 44.7759 0.525087 1.61793 0
M  V30 454 O 45.9609 0.759502 1.78732 0
M  V30 455 C 43.0909 1.73114 3.01079 0
M  V30 456 C 42.0449 2.87905 3.16693 0
M  V30 457 C 41.3709 2.78486 4.56453 0
M  V30 458 C 42.6709 4.29005 2.97913 0
M  V30 459 H 44.3649 2.60716 1.47198 0
M  V30 460 H 41.9109 1.25465 0.706714 0
M  V30 461 H 43.8639 1.84742 3.78746 0
M  V30 462 H 42.5879 0.766241 3.17484 0
M  V30 463 H 41.2469 2.75859 2.41448 0
M  V30 464 H 40.8949 1.7993 4.69717 0
M  V30 465 H 40.5949 3.55523 4.67843 0
M  V30 466 H 42.1189 2.92104 5.36197 0
M  V30 467 H 43.5329 4.41798 3.65359 0
M  V30 468 H 41.9299 5.07166 3.20785 0
M  V30 469 H 42.9999 4.44329 1.94165 0
M  V30 470 N 44.343 -0.763751 1.37857 0
M  V30 471 C 45.306 -1.85889 1.34081 0
M  V30 472 C 46.306 -1.58949 0.243277 0
M  V30 473 O 47.496 -1.66882 0.499589 0
M  V30 474 C 44.628 -3.23176 1.08489 0
M  V30 475 H 45.821 -1.90648 2.31502 0
M  V30 476 H 43.374 -0.964367 1.23003 0
M  V30 477 H 44.109 -3.24091 0.116318 0
M  V30 478 H 43.894 -3.44124 1.8794 0
M  V30 479 H 45.384 -4.03254 1.08517 0
M  V30 480 N 45.8211 -1.22559 -0.990812 0
M  V30 481 C 47.0671 -1.05297 -1.73322 0
M  V30 482 C 47.4001 0.410655 -1.89808 0
M  V30 483 O 46.6751 1.30439 -1.44277 0
M  V30 484 C 46.9581 -1.76713 -3.13759 0
M  V30 485 C 46.8111 -3.30684 -3.04907 0
M  V30 486 C 48.1301 -1.52121 -4.12974 0
M  V30 487 H 45.2491 -0.38392 -0.629106 0
M  V30 488 H 47.8911 -1.50926 -1.15418 0
M  V30 489 H 46.0411 -1.37924 -3.63193 0
M  V30 490 H 47.7131 -3.7893 -2.63077 0
M  V30 491 H 45.9561 -3.60253 -2.41661 0
M  V30 492 H 46.6271 -3.75833 -4.04294 0
M  V30 493 H 49.1031 -1.85819 -3.72304 0
M  V30 494 H 47.9791 -2.04582 -5.0935 0
M  V30 495 H 48.2401 -0.454257 -4.3976 0
M  V30 496 N 47.2992 1.18797 -1.03562 0
M  V30 497 C 48.5292 1.92319 -0.754773 0
M  V30 498 C 48.9372 1.7612 0.691248 0
M  V30 499 O 48.2802 1.08491 1.48241 0
M  V30 500 C 48.3422 3.44284 -1.03484 0
M  V30 501 C 48.0062 3.84258 -2.47376 0
M  V30 502 C 49.0032 3.88459 -3.45537 0
M  V30 503 C 46.6882 4.15701 -2.81954 0
M  V30 504 C 48.6822 4.23545 -4.76328 0
M  V30 505 C 46.3692 4.50458 -4.12954 0
M  V30 506 C 47.3672 4.54356 -5.09951 0
M  V30 507 O 47.0552 4.88305 -6.38603 0
M  V30 508 H 46.7872 0.617527 -0.275021 0
M  V30 509 H 49.3412 1.51683 -1.38497 0
M  V30 510 H 47.5712 3.85135 -0.347513 0
M  V30 511 H 49.2602 3.99049 -0.7426 0
M  V30 512 H 50.0262 3.6431 -3.20162 0
M  V30 513 H 45.9052 4.11847 -2.0713 0
M  V30 514 H 49.4492 4.26502 -5.52035 0
M  V30 515 H 45.3462 4.74067 -4.38099 0
M  V30 516 H 46.1142 5.06227 -6.43177 0
M  V30 517 N 48.7773 0.814389 1.34928 0
M  V30 518 C 50.1933 0.499084 1.51596 0
M  V30 519 C 50.3933 -0.978319 1.76157 0
M  V30 520 O 49.4493 -1.76309 1.80752 0
M  V30 521 C 50.7623 1.35121 2.68631 0
M  V30 522 C 52.3103 1.34746 2.82511 0
M  V30 523 C 52.7853 2.18388 4.0258 0
M  V30 524 N 54.2763 2.15966 4.09772 0
M  V30 525 C 55.0113 2.77437 5.01813 0
M  V30 526 N 54.5073 3.47866 5.99134 0
M  V30 527 N 56.3003 2.67037 4.94619 0
M  V30 528 H 48.4513 1.7711 1.17243 0
M  V30 529 H 50.7143 0.754256 0.574284 0
M  V30 530 H 50.4203 2.40001 2.57085 0
M  V30 531 H 50.2943 1.00991 3.63429 0
M  V30 532 H 52.6813 0.30648 2.93504 0
M  V30 533 H 52.7623 1.72869 1.88547 0
M  V30 534 H 52.4063 3.2253 3.92347 0
M  V30 535 H 52.3363 1.77621 4.9574 0
M  V30 536 H 54.8273 1.64729 3.40107 0
M  V30 537 H 55.1403 3.92038 6.65977 0
M  V30 538 H 53.4853 3.51972 5.99284 0
M  V30 539 H 56.6763 2.11597 4.17546 0
M  V30 540 H 56.8493 3.15232 5.66156 0
M  V30 541 N 50.2554 -1.46986 0.568584 0
M  V30 542 C 51.5014 -2.02741 0.0488709 0
M  V30 543 C 51.8344 -1.44077 -1.30214 0
M  V30 544 O 51.1094 -0.600552 -1.84996 0
M  V30 545 C 51.3924 -3.60086 -0.032047 0
M  V30 546 C 51.2454 -4.29162 1.34686 0
M  V30 547 C 52.5644 -4.33838 -0.739798 0
M  V30 548 H 49.6834 -0.736749 0.0192338 0
M  V30 549 H 52.3254 -1.75289 0.733065 0
M  V30 550 H 50.4754 -3.83606 -0.61473 0
M  V30 551 H 52.1474 -4.16948 1.97362 0
M  V30 552 H 50.3904 -3.89073 1.91846 0
M  V30 553 H 51.0614 -5.37826 1.24285 0
M  V30 554 H 53.5374 -4.15378 -0.244939 0
M  V30 555 H 52.4134 -5.43537 -0.765406 0
M  V30 556 H 52.6744 -4.03875 -1.79827 0
M  V30 557 N 51.7335 -0.305618 -1.54608 0
M  V30 558 C 52.9815 0.301701 -1.99835 0
M  V30 559 C 53.3025 1.54054 -1.19551 0
M  V30 560 O 52.5725 1.93702 -0.292658 0
M  V30 561 H 51.1525 0.114468 -0.738178 0
M  V30 562 H 53.8145 -0.418016 -1.90364 0
M  V30 563 H 52.9105 0.570548 -3.06841 0
M  V30 564 N 53.2116 1.57565 -0.0334293 0
M  V30 565 C 54.4886 1.83282 0.683163 0
M  V30 566 C 54.8686 0.91823 1.90084 0
M  V30 567 O 54.2166 -0.025113 2.28486 0
M  V30 568 C 54.4266 3.32599 1.0573 0
M  V30 569 C 55.7746 3.99179 1.44711 0
M  V30 570 O 56.7986 3.3712 1.15015 0
M  V30 571 O 55.6576 5.08565 2.0006 0
M  V30 572 H 52.7516 0.755869 0.335546 0
M  V30 573 H 55.2976 1.69589 -0.0614402 0
M  V30 574 H 54.0696 3.90834 0.190828 0
M  V30 575 H 53.6926 3.51415 1.85993 0
M  V30 576 N 54.6897 -0.239769 1.55765 0
M  V30 577 C 55.6217 -1.32001 1.87372 0
M  V30 578 C 56.6347 -1.43944 0.760522 0
M  V30 579 O 57.8237 -1.45167 1.0387 0
M  V30 580 C 54.9237 -2.69779 2.05115 0
M  V30 581 C 54.0967 -2.80014 3.36022 0
M  V30 582 C 53.1557 -3.98684 3.4342 0
M  V30 583 O 52.1817 -3.87877 4.16582 0
M  V30 584 N 53.3837 -5.12176 2.73232 0
M  V30 585 H 56.1487 -1.0522 2.80622 0
M  V30 586 H 53.7097 -0.429857 1.56089 0
M  V30 587 H 55.7017 -3.47517 2.07399 0
M  V30 588 H 54.2717 -2.89237 1.18577 0
M  V30 589 H 53.4917 -1.88896 3.45994 0
M  V30 590 H 54.7797 -2.83808 4.22292 0
M  V30 591 H 54.1777 -5.2385 2.13536 0
M  V30 592 H 52.7347 -5.88022 2.81199 0
M  V30 593 N 56.1678 -1.49265 -0.50573 0
M  V30 594 C 57.4148 -1.58513 -1.26015 0
M  V30 595 C 57.7428 -0.26972 -1.92621 0
M  V30 596 O 56.9978 0.741997 -1.81088 0
M  V30 597 C 57.2968 -2.69008 -2.35308 0
M  V30 598 C 56.9628 -4.10662 -1.86192 0
M  V30 599 C 55.6248 -4.49212 -1.72516 0
M  V30 600 C 57.9768 -4.99336 -1.49375 0
M  V30 601 C 55.3048 -5.74214 -1.20394 0
M  V30 602 C 57.6568 -6.24852 -0.987072 0
M  V30 603 C 56.3208 -6.62236 -0.836669 0
M  V30 604 H 55.5908 -0.580041 -0.461122 0
M  V30 605 H 58.2378 -1.83078 -0.561665 0
M  V30 606 H 56.5428 -2.38396 -3.10926 0
M  V30 607 H 58.2398 -2.73373 -2.93374 0
M  V30 608 H 54.8298 -3.8023 -1.97795 0
M  V30 609 H 59.0138 -4.70212 -1.5879 0
M  V30 610 H 54.2698 -6.01883 -1.07458 0
M  V30 611 H 58.4438 -6.92944 -0.692983 0
M  V30 612 H 56.0708 -7.58979 -0.430607 0
M  V30 613 N 57.6459 0.756429 -1.3826 0
M  V30 614 C 58.8759 1.54341 -1.3734 0
M  V30 615 C 59.2839 1.89159 0.0393917 0
M  V30 616 O 58.6269 1.5307 1.01565 0
M  V30 617 C 58.6889 2.87238 -2.16182 0
M  V30 618 C 58.3529 2.74973 -3.65019 0
M  V30 619 C 59.3499 2.44962 -4.58574 0
M  V30 620 C 57.0349 2.92515 -4.08338 0
M  V30 621 C 59.0289 2.32642 -5.93428 0
M  V30 622 C 56.7159 2.79815 -5.43274 0
M  V30 623 C 57.7139 2.49921 -6.35632 0
M  V30 624 O 57.4019 2.37275 -7.68086 0
M  V30 625 H 57.1339 0.484281 -0.471643 0
M  V30 626 H 59.6879 0.944152 -1.82414 0
M  V30 627 H 57.9179 3.49342 -1.65822 0
M  V30 628 H 59.6069 3.48731 -2.07705 0
M  V30 629 H 60.3729 2.31081 -4.26412 0
M  V30 630 H 56.2519 3.14781 -3.368 0
M  V30 631 H 59.7959 2.0923 -6.65484 0
M  V30 632 H 55.6929 2.93269 -5.75034 0
M  V30 633 H 56.4609 2.52509 -7.78577 0
M  V30 634 N 59.124 1.23083 0.984299 0
M  V30 635 C 60.087 1.00979 2.05757 0
M  V30 636 C 61.087 -0.0269573 1.60777 0
M  V30 637 O 62.277 0.212403 1.729 0
M  V30 638 C 59.409 0.527072 3.36801 0
M  V30 639 H 60.602 1.9622 2.26799 0
M  V30 640 H 58.155 1.05072 1.15714 0
M  V30 641 H 58.89 -0.429294 3.21446 0
M  V30 642 H 58.675 1.27515 3.70786 0
M  V30 643 H 60.165 0.392942 4.15747 0
M  V30 644 N 60.6021 -1.18246 1.0419 0
M  V30 645 C 61.8301 -1.92195 0.766072 0
M  V30 646 C 62.2451 -1.76247 -0.676933 0
M  V30 647 O 61.6021 -1.09293 -1.46155 0
M  V30 648 C 61.6531 -3.43568 1.12442 0
M  V30 649 O 61.3741 -3.59015 2.51078 0
M  V30 650 C 62.8751 -4.34613 0.873275 0
M  V30 651 H 60.0951 -0.610114 0.279288 0
M  V30 652 H 62.6391 -1.50007 1.38989 0
M  V30 653 H 60.7941 -3.8354 0.545542 0
M  V30 654 H 61.2081 -4.5273 2.64831 0
M  V30 655 H 62.6821 -5.39374 1.17385 0
M  V30 656 H 63.1591 -4.38781 -0.191909 0
M  V30 657 H 63.7651 -4.00341 1.43551 0
M  V30 658 N 62.0802 -0.821533 -1.34494 0
M  V30 659 C 62.9902 -0.244355 -2.33324 0
M  V30 660 C 64.0062 0.620527 -1.62559 0
M  V30 661 O 65.1822 0.528754 -1.94335 0
M  V30 662 C 62.2472 0.585368 -3.41723 0
M  V30 663 C 61.3082 -0.301752 -4.28238 0
M  V30 664 C 60.5412 0.488466 -5.3146 0
M  V30 665 O 60.7642 1.72186 -5.4379 0
M  V30 666 O 59.6982 -0.12848 -6.01763 0
M  V30 667 H 63.5242 -1.06231 -2.84515 0
M  V30 668 H 61.1092 -0.583645 -1.37528 0
M  V30 669 H 62.9912 1.05747 -4.07916 0
M  V30 670 H 61.6662 1.38068 -2.92778 0
M  V30 671 H 60.5732 -0.821315 -3.64973 0
M  V30 672 H 61.9062 -1.06138 -4.8062 0
M  V30 673 N 63.5583 1.46682 -0.576371 0
M  V30 674 C 64.8353 1.95599 0.00703437 0
M  V30 675 C 65.2153 1.51904 1.46589 0
M  V30 676 O 64.5633 0.766755 2.15251 0
M  V30 677 C 64.7733 3.4864 -0.158404 0
M  V30 678 C 66.1213 4.24594 -0.0229439 0
M  V30 679 O 67.1453 3.56094 -0.0869173 0
M  V30 680 O 66.0043 5.46373 0.118015 0
M  V30 681 H 63.0983 0.825275 0.053384 0
M  V30 682 H 65.6443 1.56996 -0.644244 0
M  V30 683 H 64.4163 3.7331 -1.17282 0
M  V30 684 H 64.0393 3.94057 0.5296 0
M  V30 685 N 65.0364 0.313813 1.54444 0
M  V30 686 C 66.2644 -0.293918 2.04802 0
M  V30 687 C 66.6794 -1.46537 1.19047 0
M  V30 688 O 66.0364 -1.81182 0.218939 0
M  V30 689 C 66.0874 -0.737806 3.53891 0
M  V30 690 O 65.8084 0.387038 4.36387 0
M  V30 691 C 67.3094 -1.40936 4.203 0
M  V30 692 H 64.5294 -0.0620057 0.668129 0
M  V30 693 H 67.0734 0.457169 1.99324 0
M  V30 694 H 65.2284 -1.43889 3.59687 0
M  V30 695 H 65.6424 0.0391274 5.24485 0
M  V30 696 H 67.1164 -1.67099 5.26101 0
M  V30 697 H 67.5934 -2.35355 3.70816 0
M  V30 698 H 68.1994 -0.751117 4.18615 0
M  V30 699 N 66.5145 -1.57545 0.0417849 0
M  V30 700 C 67.7545 -1.94185 -0.63809 0
M  V30 701 C 68.1185 -0.919339 -1.68559 0
M  V30 702 O 69.3195 -1.17236 -2.41886 0
M  V30 703 C 67.5905 -3.35672 -1.22714 0
M  V30 704 S 69.1495 -3.94256 -1.92633 0
M  V30 705 H 65.9675 -0.679353 -0.209764 0
M  V30 706 H 68.5695 -1.95199 0.108479 0
M  V30 707 H 67.2735 -4.07898 -0.452503 0
M  V30 708 H 66.8045 -3.38132 -2.01073 0
M  V30 709 H 68.8195 -3.7872 -3.20602 0
M  V30 710 N 67.9926 0.231505 -1.5589 0
M  V30 711 C 69.2206 0.974505 -1.82513 0
M  V30 712 C 69.6356 1.78344 -0.619591 0
M  V30 713 O 68.9926 1.77792 0.411848 0
M  V30 714 C 69.0436 1.90007 -3.07538 0
M  V30 715 O 68.7646 1.12385 -4.2344 0
M  V30 716 C 70.2656 2.75779 -3.47075 0
M  V30 717 H 67.4856 0.286065 -0.606966 0
M  V30 718 H 70.0296 0.249739 -2.02969 0
M  V30 719 H 68.1846 2.57891 -2.89086 0
M  V30 720 H 68.5986 1.75125 -4.944 0
M  V30 721 H 70.0726 3.36443 -4.37619 0
M  V30 722 H 70.5496 3.47672 -2.68367 0
M  V30 723 H 71.1556 2.13323 -3.67931 0
M  V30 724 N 69.4707 1.49531 0.497807 0
M  V30 725 C 70.4207 1.62829 1.59596 0
M  V30 726 C 71.4047 0.483824 1.53453 0
M  V30 727 O 72.5967 0.736937 1.60929 0
M  V30 728 C 69.7257 1.7011 2.98191 0
M  V30 729 C 68.8117 2.90144 3.09317 0
M  V30 730 N 69.2027 4.1418 2.90324 0
M  V30 731 C 67.5007 2.88148 3.40422 0
M  V30 732 C 68.2017 4.94886 3.05717 0
M  V30 733 N 67.1777 4.28314 3.34736 0
M  V30 734 H 70.9797 2.56446 1.4357 0
M  V30 735 H 68.4937 1.46347 0.704001 0
M  V30 736 H 70.4907 1.77735 3.77115 0
M  V30 737 H 69.1507 0.776315 3.15283 0
M  V30 738 H 70.1617 4.44109 2.66436 0
M  V30 739 H 66.8387 2.05061 3.63671 0
M  V30 740 H 68.2287 6.03432 2.95499 0
M  V30 741 N 70.9488 -0.749086 1.3866 0
M  V30 742 C 72.1968 -1.50535 1.34847 0
M  V30 743 C 72.5178 -1.94909 -0.0595016 0
M  V30 744 O 71.7878 -1.67973 -1.00806 0
M  V30 745 H 70.3678 -0.558395 0.49619 0
M  V30 746 H 73.0298 -0.890165 1.73384 0
M  V30 747 H 72.1258 -2.39413 2.00219 0
M  V30 748 N 72.4269 -1.23603 -0.977757 0
M  V30 749 C 73.6759 -1.06377 -1.71368 0
M  V30 750 C 73.9889 0.399062 -1.91486 0
M  V30 751 O 75.1949 0.691312 -2.62551 0
M  V30 752 C 73.6509 -1.85512 -3.08404 0
M  V30 753 C 73.2589 -3.36141 -2.96164 0
M  V30 754 C 75.0029 -1.76783 -3.85938 0
M  V30 755 C 72.9099 -4.07659 -4.28449 0
M  V30 756 H 71.8399 -0.394452 -0.642591 0
M  V30 757 H 74.4909 -1.47594 -1.09034 0
M  V30 758 H 72.8729 -1.37103 -3.71509 0
M  V30 759 H 74.0469 -3.92056 -2.42133 0
M  V30 760 H 72.3619 -3.45712 -2.32104 0
M  V30 761 H 74.9589 -2.27526 -4.83876 0
M  V30 762 H 75.3019 -0.731116 -4.0983 0
M  V30 763 H 75.8349 -2.22818 -3.2954 0
M  V30 764 H 72.5739 -5.11648 -4.09752 0
M  V30 765 H 72.0939 -3.5653 -4.82334 0
M  V30 766 H 73.7729 -4.141 -4.97122 0
M  V30 767 N 73.905 1.17692 -1.04816 0
M  V30 768 C 74.868 2.19787 -0.650117 0
M  V30 769 C 75.868 1.58044 0.296427 0
M  V30 770 O 77.058 1.74012 0.0808097 0
M  V30 771 C 74.19 3.40869 0.0456987 0
M  V30 772 H 75.383 2.56516 -1.5537 0
M  V30 773 H 72.936 1.31708 -0.841594 0
M  V30 774 H 73.671 3.09681 0.962726 0
M  V30 775 H 73.456 3.86928 -0.634727 0
M  V30 776 H 74.946 4.16445 0.310432 0
M  V30 777 N 75.3831 0.828654 1.34056 0
M  V30 778 C 76.6081 0.431637 2.02859 0
M  V30 779 C 77.0331 -0.956339 1.61975 0
M  V30 780 O 76.3911 -1.62338 0.807228 0
M  V30 781 C 76.4391 0.548323 3.56407 0
M  V30 782 O 75.5431 -0.429556 4.10157 0
M  V30 783 H 74.8841 0.176886 0.640006 0
M  V30 784 H 77.4141 1.12066 1.71179 0
M  V30 785 H 77.4241 0.426196 4.05768 0
M  V30 786 H 76.0991 1.5606 3.8551 0
M  V30 787 H 74.6761 -0.265836 3.71951 0
M  V30 788 N 76.8612 -1.46375 0.584142 0
M  V30 789 C 77.7912 -2.33103 -0.136037 0
M  V30 790 C 78.7722 -1.45431 -0.882255 0
M  V30 791 O 79.9572 -1.74246 -0.857434 0
M  V30 792 C 77.0872 -3.27731 -1.14933 0
M  V30 793 C 76.0412 -4.24855 -0.517862 0
M  V30 794 C 75.3672 -5.09001 -1.63773 0
M  V30 795 C 76.6672 -5.19439 0.545886 0
M  V30 796 H 78.3612 -2.93568 0.588086 0
M  V30 797 H 75.9072 -1.41166 0.284259 0
M  V30 798 H 77.8602 -3.87261 -1.66153 0
M  V30 799 H 76.5842 -2.65377 -1.90375 0
M  V30 800 H 75.2432 -3.6659 -0.0267361 0
M  V30 801 H 74.8912 -4.43031 -2.38185 0
M  V30 802 H 74.5912 -5.74777 -1.22085 0
M  V30 803 H 76.1152 -5.71396 -2.15266 0
M  V30 804 H 77.5292 -5.73177 0.118704 0
M  V30 805 H 75.9262 -5.93566 0.88317 0
M  V30 806 H 76.9962 -4.63285 1.43162 0
M  V30 807 N 78.3393 -0.321999 -1.54275 0
M  V30 808 C 79.5643 0.285791 -2.05422 0
M  V30 809 C 79.9893 1.45124 -1.19669 0
M  V30 810 O 79.3473 1.80132 -0.205441 0
M  V30 811 C 79.3953 0.69956 -3.53749 0
M  V30 812 O 78.4993 1.8021 -3.70942 0
M  V30 813 H 77.8403 0.0518962 -0.661969 0
M  V30 814 H 80.3703 -0.469954 -1.9913 0
M  V30 815 H 80.3803 0.982649 -3.9599 0
M  V30 816 H 79.0553 -0.152864 -4.15619 0
M  V30 817 H 77.6323 1.51794 -3.40607 0
M  V30 818 N 79.8174 1.5752 -0.0501392 0
M  V30 819 C 80.7274 2.14952 0.939827 0
M  V30 820 C 81.7434 1.10706 1.34239 0
M  V30 821 O 82.9194 1.42869 1.41952 0
M  V30 822 C 79.9844 2.68232 2.19665 0
M  V30 823 C 79.0454 3.87272 1.85253 0
M  V30 824 C 78.2784 4.38002 3.04943 0
M  V30 825 O 78.5014 3.87811 4.18281 0
M  V30 826 O 77.4354 5.29602 2.86017 0
M  V30 827 H 81.2614 2.9986 0.481392 0
M  V30 828 H 78.8464 1.4841 0.171699 0
M  V30 829 H 80.7284 3.02475 2.93406 0
M  V30 830 H 79.4034 1.86395 2.64648 0
M  V30 831 H 78.3104 3.5792 1.0883 0
M  V30 832 H 79.6434 4.70336 1.4507 0
M  V30 833 N 81.2955 -0.223234 1.56011 0
M  V30 834 C 82.5435 -0.946003 1.78592 0
M  V30 835 C 82.8645 -1.84936 0.618349 0
M  V30 836 O 82.1345 -1.92473 -0.364833 0
M  V30 837 H 80.7145 -0.352298 0.658707 0
M  V30 838 H 83.3765 -0.235494 1.93472 0
M  V30 839 H 82.4725 -1.55381 2.70672 0
M  V30 840 N 82.7736 -1.49793 -0.48987 0
M  V30 841 C 84.0016 -1.63568 -1.26701 0
M  V30 842 C 84.4166 -0.311465 -1.86213 0
M  V30 843 O 83.7736 0.704416 -1.68357 0
M  V30 844 C 83.8246 -2.71284 -2.38929 0
M  V30 845 O 83.5456 -3.9857 -1.81861 0
M  V30 846 C 85.0466 -2.95864 -3.3012 0
M  V30 847 H 82.2666 -0.550342 -0.383881 0
M  V30 848 H 84.8106 -1.95898 -0.586864 0
M  V30 849 H 82.9656 -2.417 -3.02753 0
M  V30 850 H 83.3796 -4.57993 -2.55622 0
M  V30 851 H 84.8536 -3.74941 -4.05121 0
M  V30 852 H 85.3306 -2.06206 -3.87783 0
M  V30 853 H 85.9366 -3.26907 -2.72051 0
M  V30 854 N 84.2517 0.741722 -1.39055 0
M  V30 855 C 85.1817 1.869 -1.39966 0
M  V30 856 C 86.1627 1.6804 -0.26392 0
M  V30 857 O 87.3477 1.88458 -0.468755 0
M  V30 858 C 84.4777 3.24572 -1.23574 0
M  V30 859 C 83.4317 3.58056 -2.34477 0
M  V30 860 C 82.7577 4.94593 -2.0318 0
M  V30 861 C 84.0577 3.61716 -3.76774 0
M  V30 862 H 85.7517 1.86395 -2.34302 0
M  V30 863 H 83.2977 0.895361 -1.1278 0
M  V30 864 H 85.2507 4.031 -1.22834 0
M  V30 865 H 83.9747 3.25587 -0.257045 0
M  V30 866 H 82.6337 2.81854 -2.34423 0
M  V30 867 H 82.2817 4.92181 -1.03765 0
M  V30 868 H 81.9817 5.17964 -2.77465 0
M  V30 869 H 83.5057 5.75486 -2.04079 0
M  V30 870 H 84.9197 4.30335 -3.78794 0
M  V30 871 H 83.3167 3.96603 -4.50362 0
M  V30 872 H 84.3867 2.61672 -4.08235 0
M  V30 873 N 85.7298 1.2412 0.971189 0
M  V30 874 C 87.0068 0.986867 1.6888 0
M  V30 875 C 87.3868 -0.491857 2.0529 0
M  V30 876 O 86.7348 -1.46531 1.75331 0
M  V30 877 C 86.9448 1.9063 2.92338 0
M  V30 878 C 88.2928 2.17515 3.64654 0
M  V30 879 O 89.3168 1.88254 3.02388 0
M  V30 880 O 88.1758 2.6719 4.7673 0
M  V30 881 H 85.2698 0.372944 0.738134 0
M  V30 882 H 87.8158 1.35203 1.02559 0
M  V30 883 H 86.5878 2.90552 2.62097 0
M  V30 884 H 86.2108 1.54408 3.66393 0
M  V30 885 N 87.2079 -1.17134 1.05439 0
M  V30 886 C 88.4559 -1.87085 0.764429 0
M  V30 887 C 88.7769 -1.81584 -0.710787 0
M  V30 888 O 88.0469 -1.24349 -1.51374 0
M  V30 889 H 86.6269 -0.692627 0.279779 0
M  V30 890 H 89.2889 -1.42087 1.33406 0
M  V30 891 H 88.3849 -2.92759 1.0816 0
M  V30 892 N 88.686 -0.835752 -1.33615 0
M  V30 893 C 89.963 -0.352017 -1.92406 0
M  V30 894 C 90.343 1.16225 -1.76224 0
M  V30 895 O 89.691 1.97526 -1.14873 0
M  V30 896 C 89.901 -0.795485 -3.39813 0
M  V30 897 C 91.249 -0.801703 -4.16963 0
M  V30 898 O 92.273 -0.738889 -3.48452 0
M  V30 899 O 91.132 -0.886607 -5.3926 0
M  V30 900 H 88.226 -0.0989641 -0.821057 0
M  V30 901 H 90.772 -0.921397 -1.42507 0
M  V30 902 H 89.544 -1.83795 -3.45449 0
M  V30 903 H 89.167 -0.202505 -3.97084 0
M  V30 904 N 90.1641 1.46063 -0.591896 0
M  V30 905 C 91.4101 2.02638 -0.0811191 0
M  V30 906 C 91.7431 1.4613 1.27905 0
M  V30 907 O 91.0181 0.629908 1.84017 0
M  V30 908 C 91.3011 3.60091 -0.0252436 0
M  V30 909 C 91.1541 4.26965 -1.41496 0
M  V30 910 C 92.4731 4.3496 0.670685 0
M  V30 911 H 89.5921 0.73635 -0.0309524 0
M  V30 912 H 92.2341 1.741 -0.760859 0
M  V30 913 H 90.3841 3.84535 0.553624 0
M  V30 914 H 92.0561 4.13756 -2.0397 0
M  V30 915 H 90.2991 3.85971 -1.98011 0
M  V30 916 H 90.9701 5.35781 -1.32825 0
M  V30 917 H 93.4461 4.15716 0.178825 0
M  V30 918 H 92.3221 5.44686 0.678837 0
M  V30 919 H 92.5831 4.06685 1.73379 0
M  V30 920 N 91.6422 0.330177 1.54103 0
M  V30 921 C 92.8912 -0.271336 1.99867 0
M  V30 922 C 93.2042 -1.52723 1.22209 0
M  V30 923 O 94.4102 -2.20515 1.58383 0
M  V30 924 C 92.8662 -0.534032 3.55916 0
M  V30 925 C 92.4742 0.705193 4.42415 0
M  V30 926 C 94.2182 -1.09514 4.1013 0
M  V30 927 C 92.1252 0.414035 5.89949 0
M  V30 928 H 91.0552 -0.105166 0.74663 0
M  V30 929 H 93.7062 0.443429 1.78062 0
M  V30 930 H 92.0882 -1.30915 3.73734 0
M  V30 931 H 93.2622 1.4804 4.36372 0
M  V30 932 H 91.5772 1.18698 3.99124 0
M  V30 933 H 94.1742 -1.3277 5.17954 0
M  V30 934 H 94.5172 -2.04656 3.62521 0
M  V30 935 H 95.0502 -0.381038 3.95971 0
M  V30 936 H 91.7892 1.33481 6.41766 0
M  V30 937 H 91.3092 -0.323336 5.98928 0
M  V30 938 H 92.9882 0.0263105 6.46995 0
M  V30 939 N 93.1203 -1.57491 0.0584922 0
M  V30 940 C 94.0303 -2.15448 -0.928414 0
M  V30 941 C 95.0463 -1.11416 -1.3365 0
M  V30 942 O 96.2223 -1.4362 -1.41193 0
M  V30 943 C 93.2873 -2.69393 -2.18239 0
M  V30 944 C 92.3483 -3.88249 -1.83196 0
M  V30 945 C 91.5813 -4.39613 -3.02616 0
M  V30 946 O 91.8043 -3.90023 -4.16219 0
M  V30 947 O 90.7383 -5.31111 -2.83204 0
M  V30 948 H 94.5643 -3.00112 -0.465483 0
M  V30 949 H 92.1493 -1.48499 -0.163826 0
M  V30 950 H 94.0313 -3.04026 -2.91798 0
M  V30 951 H 92.7063 -1.87796 -2.63656 0
M  V30 952 H 91.6133 -3.58492 -1.06931 0
M  V30 953 H 92.9463 -4.71098 -1.42573 0
M  V30 954 N 94.5984 0.214957 -1.56127 0
M  V30 955 C 95.8384 0.945364 -1.81224 0
M  V30 956 C 96.2024 1.81265 -0.633005 0
M  V30 957 O 97.4034 2.57731 -0.763423 0
M  V30 958 C 95.6744 1.75665 -3.1125 0
M  V30 959 S 97.2334 2.54179 -3.57685 0
M  V30 960 H 94.0514 0.317443 -0.6362 0
M  V30 961 H 96.6534 0.210381 -1.94365 0
M  V30 962 H 95.3574 1.10977 -3.9511 0
M  V30 963 H 94.8884 2.53381 -3.00934 0
M  V30 964 H 96.9034 3.7792 -3.21545 0
M  V30 965 N 96.0765 1.50051 0.48192 0
M  V30 966 C 97.4875 1.5348 1.06305 0
M  V30 967 C 97.8385 0.331997 1.93371 0
M  V30 968 O 96.9635 -0.556256 2.09129 0
M  V30 969 C 97.5585 2.7813 1.93466 0
M  V30 970 C 96.1175 2.84275 2.46707 0
M  V30 971 C 95.2645 2.47637 1.24785 0
M  V30 972 H 98.2155 1.56472 0.264995 0
M  V30 973 H 98.2365 2.59372 2.78399 0
M  V30 974 H 97.7485 3.65654 1.30072 0
M  V30 975 H 95.8495 2.01077 3.13686 0
M  V30 976 H 95.9625 3.8691 2.82555 0
M  V30 977 H 94.3265 1.99835 1.57918 0
M  V30 978 H 95.1095 3.37457 0.630694 0
M  V30 979 N 97.5546 -0.734337 1.39446 0
M  V30 980 C 98.8016 -1.49391 1.36706 0
M  V30 981 C 99.1296 -1.94465 -0.0367813 0
M  V30 982 O 98.3846 -1.67154 -1.01774 0
M  V30 983 C 98.6836 -2.74711 2.28623 0
M  V30 984 C 98.3496 -2.48501 3.76242 0
M  V30 985 C 97.0116 -2.41062 4.16464 0
M  V30 986 C 99.3636 -2.26098 4.69606 0
M  V30 987 C 96.6916 -2.09262 5.48112 0
M  V30 988 C 99.0436 -1.95814 6.01531 0
M  V30 989 C 97.7076 -1.86845 6.40816 0
M  V30 990 H 96.9776 -0.546661 0.500243 0
M  V30 991 H 99.6246 -0.842788 1.71957 0
M  V30 992 H 97.9296 -3.44569 1.86492 0
M  V30 993 H 99.6266 -3.32741 2.23796 0
M  V30 994 H 96.2166 -2.55169 3.44364 0
M  V30 995 H 100.401 -2.30812 4.39363 0
M  V30 996 H 95.6566 -2.00841 5.77471 0
M  V30 997 H 99.8306 -1.77488 6.73403 0
M  V30 998 H 97.4576 -1.6197 7.42745 0
M  V30 999 N 99.0327 -1.24633 -0.964593 0
M  V30 1000 C 99.9827 -1.00841 -2.04487 0
M  V30 1001 C 100.967 0.0512468 -1.60818 0
M  V30 1002 O 102.159 -0.162865 -1.76249 0
M  V30 1003 C 99.2877 -0.618474 -3.37683 0
M  V30 1004 C 98.3737 -1.71437 -3.87905 0
M  V30 1005 N 98.7647 -2.9477 -4.11029 0
M  V30 1006 C 97.0627 -1.5926 -4.16596 0
M  V30 1007 C 97.7637 -3.65834 -4.52261 0
M  V30 1008 N 96.7397 -2.9341 -4.57615 0
M  V30 1009 H 100.542 -1.94487 -2.20345 0
M  V30 1010 H 98.0557 -1.14805 -1.14863 0
M  V30 1011 H 100.053 -0.429247 -4.14684 0
M  V30 1012 H 98.7127 0.310766 -3.23209 0
M  V30 1013 H 99.7237 -3.30917 -3.9839 0
M  V30 1014 H 96.4007 -0.731606 -4.1104 0
M  V30 1015 H 97.7907 -4.71646 -4.78539 0
M  V30 1016 N 100.511 1.16574 -1.06058 0
M  V30 1017 C 101.759 1.86677 -0.77434 0
M  V30 1018 C 102.08 1.81959 0.701147 0
M  V30 1019 O 101.35 1.2515 1.50713 0
M  V30 1020 H 99.9298 0.691134 -0.283449 0
M  V30 1021 H 102.592 1.41378 -1.34158 0
M  V30 1022 H 101.688 2.92181 -1.09711 0
M  V30 1023 N 101.989 0.842826 1.3317 0
M  V30 1024 C 103.237 0.439577 1.97262 0
M  V30 1025 C 103.558 -1.00548 1.67078 0
M  V30 1026 O 102.828 -1.70098 0.971779 0
M  V30 1027 H 101.408 0.159558 0.72976 0
M  V30 1028 H 104.07 1.07665 1.62463 0
M  V30 1029 H 103.166 0.574886 3.0676 0
M  V30 1030 N 103.467 -1.45747 0.599634 0
M  V30 1031 C 104.43 -2.28917 -0.113835 0
M  V30 1032 C 105.43 -1.3933 -0.802729 0
M  V30 1033 O 106.62 -1.61534 -0.652103 0
M  V30 1034 C 103.752 -3.20152 -1.17114 0
M  V30 1035 H 104.945 -2.93478 0.617289 0
M  V30 1036 H 102.498 -1.52137 0.358327 0
M  V30 1037 H 103.233 -2.60374 -1.93329 0
M  V30 1038 H 103.018 -3.86133 -0.681468 0
M  V30 1039 H 104.508 -3.82708 -1.67105 0
M  V30 1040 N 104.945 -0.338344 -1.53925 0
M  V30 1041 C 106.192 0.259758 -2.00827 0
M  V30 1042 C 106.52 1.50973 -1.22628 0
M  V30 1043 O 105.775 1.93379 -0.300509 0
M  V30 1044 C 106.074 0.62448 -3.51902 0
M  V30 1045 C 105.74 -0.528006 -4.47798 0
M  V30 1046 C 104.402 -0.844298 -4.73735 0
M  V30 1047 C 106.754 -1.30143 -5.0469 0
M  V30 1048 C 104.082 -1.93648 -5.53821 0
M  V30 1049 C 106.434 -2.38382 -5.85967 0
M  V30 1050 C 105.098 -2.70576 -6.10201 0
M  V30 1051 H 104.368 0.0950523 -0.734878 0
M  V30 1052 H 107.015 -0.465182 -1.85764 0
M  V30 1053 H 105.32 1.43006 -3.64769 0
M  V30 1054 H 107.017 1.09905 -3.85645 0
M  V30 1055 H 103.607 -0.271421 -4.2774 0
M  V30 1056 H 107.791 -1.07033 -4.84621 0
M  V30 1057 H 103.047 -2.19021 -5.70824 0
M  V30 1058 H 107.221 -2.98746 -6.29066 0
M  V30 1059 H 104.848 -3.55333 -6.72044 0
M  V30 1060 N 106.423 1.57458 -0.0668435 0
M  V30 1061 C 107.371 2.13639 0.919851 0
M  V30 1062 C 108.365 1.07204 1.31163 0
M  V30 1063 O 109.571 1.25591 1.28945 0
M  V30 1064 H 105.946 0.683048 0.314562 0
M  V30 1065 H 107.917 2.95415 0.421047 0
M  V30 1066 C 106.666 2.70892 2.17975 0
M  V30 1067 H 105.989 3.5246 1.88711 0
M  V30 1068 H 107.429 3.13803 2.85138 0
M  V30 1069 C 105.888 1.65414 2.93496 0
M  V30 1070 O 106.418 1.07619 3.87015 0
M  V30 1071 N 104.624 1.36564 2.56512 0
M  V30 1072 H 104.171 1.83751 1.80536 0
M  V30 1073 H 104.129 0.66223 3.07347 0
M  V30 1074 N 107.901 -0.206675 1.56239 0
M  V30 1075 C 109.147 -0.930218 1.80208 0
M  V30 1076 C 109.48 -1.83387 0.638981 0
M  V30 1077 O 108.755 -1.91119 -0.361066 0
M  V30 1078 C 109.038 -1.75641 3.1436 0
M  V30 1079 C 108.891 -0.878257 4.41142 0
M  V30 1080 C 110.21 -2.73129 3.45092 0
M  V30 1081 H 107.329 -0.336742 0.655571 0
M  V30 1082 H 109.971 -0.198222 1.88963 0
M  V30 1083 H 108.121 -2.38048 3.07027 0
M  V30 1084 H 109.793 -0.269787 4.6051 0
M  V30 1085 H 108.036 -0.184385 4.33408 0
M  V30 1086 H 108.707 -1.49106 5.3148 0
M  V30 1087 H 111.183 -2.20856 3.52649 0
M  V30 1088 H 110.059 -3.28028 4.40101 0
M  V30 1089 H 110.32 -3.51606 2.68003 0
M  V30 1090 N 109.379 -1.50304 -0.473955 0
M  V30 1091 C 110.619 -1.62786 -1.23612 0
M  V30 1092 C 110.983 -0.319786 -1.89318 0
M  V30 1093 O 112.184 -0.320012 -2.66888 0
M  V30 1094 C 110.455 -2.77351 -2.25414 0
M  V30 1095 S 112.014 -3.09948 -3.10608 0
M  V30 1096 H 108.832 -0.573895 -0.419721 0
M  V30 1097 H 111.434 -1.88076 -0.533623 0
M  V30 1098 H 110.138 -3.70879 -1.75719 0
M  V30 1099 H 109.669 -2.54137 -3.00296 0
M  V30 1100 H 111.684 -2.53553 -4.26527 0
M  V30 1101 N 110.857 0.726932 -1.39834 0
M  V30 1102 C 112.085 1.51613 -1.40787 0
M  V30 1103 C 112.5 1.88799 -0.00451505 0
M  V30 1104 O 111.857 1.54662 0.968809 0
M  V30 1105 C 111.908 2.79863 -2.28821 0
M  V30 1106 O 111.629 2.44253 -3.63692 0
M  V30 1107 C 113.13 3.73837 -2.38245 0
M  V30 1108 H 110.35 0.468264 -0.480593 0
M  V30 1109 H 112.894 0.897607 -1.83748 0
M  V30 1110 H 111.049 3.38027 -1.89252 0
M  V30 1111 H 111.463 3.26695 -4.1033 0
M  V30 1112 H 112.937 4.60699 -3.04073 0
M  V30 1113 H 113.414 4.16153 -1.40403 0
M  V30 1114 H 114.02 3.21589 -2.78317 0
M  V30 1115 N 112.336 1.25143 0.95797 0
M  V30 1116 C 113.584 1.09476 1.69881 0
M  V30 1117 C 113.905 -0.365502 1.91544 0
M  V30 1118 O 113.175 -1.25985 1.50015 0
M  V30 1119 H 111.755 0.402128 0.629525 0
M  V30 1120 H 114.417 1.57214 1.15194 0
M  V30 1121 H 113.513 1.60046 2.6794 0
M  V30 1122 N 113.814 -1.1601 1.06675 0
M  V30 1123 C 114.747 -2.1947 0.625168 0
M  V30 1124 C 115.725 -1.58699 -0.354041 0
M  V30 1125 O 116.909 -1.86669 -0.262098 0
M  V30 1126 C 114.036 -3.38598 -0.0829593 0
M  V30 1127 C 113.082 -4.1787 0.853611 0
M  V30 1128 S 113.915 -4.81135 2.35094 0
M  V30 1129 C 115.071 -6.03639 1.65441 0
M  V30 1130 H 115.304 -2.56587 1.50168 0
M  V30 1131 H 112.837 -1.26862 0.880078 0
M  V30 1132 H 114.795 -4.07621 -0.485288 0
M  V30 1133 H 113.456 -2.99839 -0.935716 0
M  V30 1134 H 112.649 -5.03078 0.304755 0
M  V30 1135 H 112.251 -3.54361 1.196 0
M  V30 1136 H 114.543 -6.70632 0.962201 0
M  V30 1137 H 115.486 -6.63081 2.48454 0
M  V30 1138 H 115.894 -5.52965 1.13534 0
M  V30 1139 N 115.292 -0.849877 -1.32721 0
M  V30 1140 C 116.703 -0.506188 -1.79707 0
M  V30 1141 C 117.054 0.975627 -1.70223 0
M  V30 1142 O 116.179 1.76078 -1.25799 0
M  V30 1143 C 116.774 -0.912044 -3.26293 0
M  V30 1144 C 115.333 -0.620326 -3.71253 0
M  V30 1145 C 114.48 -1.11439 -2.53922 0
M  V30 1146 H 117.431 -1.03754 -1.20087 0
M  V30 1147 H 117.452 -0.226493 -3.79825 0
M  V30 1148 H 116.964 -1.99057 -3.33164 0
M  V30 1149 H 115.065 0.447674 -3.69901 0
M  V30 1150 H 115.178 -1.18327 -4.64258 0
M  V30 1151 H 113.542 -0.534834 -2.49021 0
M  V30 1152 H 114.325 -2.19992 -2.6355 0
M  V30 1153 N 116.77 1.45427 -0.607355 0
M  V30 1154 C 117.733 2.28974 0.101693 0
M  V30 1155 C 118.733 1.39754 0.795329 0
M  V30 1156 O 119.923 1.61878 0.643527 0
M  V30 1157 C 117.055 3.20768 1.15414 0
M  V30 1158 H 118.248 2.93147 -0.632844 0
M  V30 1159 H 115.801 1.51945 -0.366391 0
M  V30 1160 H 116.536 2.61395 1.91945 0
M  V30 1161 H 116.321 3.86489 0.66098 0
M  V30 1162 H 117.811 3.83589 1.65073 0
M  V30 1163 N 118.248 0.346503 1.53744 0
M  V30 1164 C 119.473 -0.253074 2.0585 0
M  V30 1165 C 119.898 -1.43202 1.21962 0
M  V30 1166 O 119.256 -1.79783 0.234073 0
M  V30 1167 C 119.304 -0.643193 3.54817 0
M  V30 1168 O 118.408 -1.74286 3.73762 0
M  V30 1169 H 117.749 -0.0413583 0.662711 0
M  V30 1170 H 120.279 0.501574 1.98357 0
M  V30 1171 H 120.289 -0.919526 3.97503 0
M  V30 1172 H 118.964 0.218966 4.15323 0
M  V30 1173 H 117.541 -1.46356 3.42979 0
M  V30 1174 N 119.726 -1.57421 0.075193 0
M  V30 1175 C 120.951 -1.98364 -0.605515 0
M  V30 1176 C 121.376 -0.953383 -1.62149 0
M  V30 1177 O 120.734 0.0806053 -1.81121 0
M  V30 1178 C 120.782 -3.38332 -1.24756 0
M  V30 1179 O 119.886 -3.37959 -2.36342 0
M  V30 1180 H 119.227 -0.645553 -0.155428 0
M  V30 1181 H 121.757 -2.04044 0.150714 0
M  V30 1182 H 121.767 -3.75591 -1.5936 0
M  V30 1183 H 120.442 -4.12846 -0.503129 0
M  V30 1184 H 119.019 -3.12474 -2.03506 0
M  V30 1185 N 121.204 0.198386 -1.56346 0
M  V30 1186 C 122.615 0.763358 -1.70381 0
M  V30 1187 C 122.966 1.83995 -0.681203 0
M  V30 1188 O 122.091 2.15785 0.16305 0
M  V30 1189 C 122.686 1.39143 -3.08909 0
M  V30 1190 C 121.245 1.90352 -3.2472 0
M  V30 1191 C 120.392 0.772233 -2.6633 0
M  V30 1192 H 123.343 -0.0266377 -1.58678 0
M  V30 1193 H 123.364 2.26076 -3.06055 0
M  V30 1194 H 122.876 0.607638 -3.83314 0
M  V30 1195 H 120.977 2.71461 -2.55225 0
M  V30 1196 H 121.09 2.06757 -4.3219 0
M  V30 1197 H 119.454 1.18566 -2.2542 0
M  V30 1198 H 120.237 0.00073556 -3.433 0
M  V30 1199 N 122.682 1.50554 0.465978 0
M  V30 1200 C 123.922 1.63439 1.22747 0
M  V30 1201 C 124.286 0.329822 1.89146 0
M  V30 1202 O 125.487 0.334161 2.66715 0
M  V30 1203 C 123.758 2.78542 2.2394 0
M  V30 1204 S 125.317 3.11591 3.0896 0
M  V30 1205 H 122.135 0.576113 0.416672 0
M  V30 1206 H 124.737 1.88357 0.523641 0
M  V30 1207 H 123.441 3.71805 1.7375 0
M  V30 1208 H 122.972 2.55726 2.98944 0
M  V30 1209 H 124.987 2.55811 4.25176 0
M  V30 1210 N 124.16 -0.719506 1.40217 0
M  V30 1211 C 125.388 -1.50864 1.41589 0
M  V30 1212 C 125.803 -1.88794 0.0145275 0
M  V30 1213 O 125.16 -1.55174 -0.960594 0
M  V30 1214 C 125.211 -2.78646 2.30302 0
M  V30 1215 O 124.932 -2.42321 3.64983 0
M  V30 1216 C 126.433 -3.72569 2.40224 0
M  V30 1217 H 123.653 -0.465709 0.48307 0
M  V30 1218 H 126.197 -0.88785 1.84221 0
M  V30 1219 H 124.352 -3.37019 1.91042 0
M  V30 1220 H 124.766 -3.24514 4.12057 0
M  V30 1221 H 126.24 -4.5908 3.06512 0
M  V30 1222 H 126.717 -4.15403 1.42608 0
M  V30 1223 H 127.323 -3.20109 2.80019 0
M  V30 1224 N 125.638 -1.25649 -0.95132 0
M  V30 1225 C 126.884 -1.10757 -1.69884 0
M  V30 1226 C 127.217 0.350061 -1.91019 0
M  V30 1227 O 126.492 1.25783 -1.48354 0
M  V30 1228 C 126.775 -1.86606 -3.07978 0
M  V30 1229 C 126.628 -3.40217 -2.94232 0
M  V30 1230 C 127.947 -1.65182 -4.07925 0
M  V30 1231 H 125.066 -0.40374 -0.616574 0
M  V30 1232 H 127.708 -1.54521 -1.10558 0
M  V30 1233 H 125.858 -1.49409 -3.58621 0
M  V30 1234 H 127.53 -3.87108 -2.50889 0
M  V30 1235 H 125.773 -3.67759 -2.30078 0
M  V30 1236 H 126.444 -3.88505 -3.92133 0
M  V30 1237 H 128.92 -1.9757 -3.66204 0
M  V30 1238 H 127.796 -2.20683 -5.02583 0
M  V30 1239 H 128.057 -0.593933 -4.38092 0
M  V30 1240 N 127.117 1.15442 -1.07289 0
M  V30 1241 C 128.528 1.67803 -0.818475 0
M  V30 1242 C 128.879 1.8489 0.656507 0
M  V30 1243 O 128.004 1.55176 1.50829 0
M  V30 1244 C 128.599 3.04805 -1.47917 0
M  V30 1245 C 127.158 3.54245 -1.27229 0
M  V30 1246 C 126.305 2.29986 -1.54925 0
M  V30 1247 H 129.256 0.996646 -1.23502 0
M  V30 1248 H 129.277 3.69702 -0.90005 0
M  V30 1249 H 128.789 2.92336 -2.55267 0
M  V30 1250 H 126.89 3.71956 -0.21899 0
M  V30 1251 H 127.003 4.35723 -1.99203 0
M  V30 1252 H 125.367 2.35496 -0.970242 0
M  V30 1253 H 126.15 2.20105 -2.63455 0
M  V30 1254 N 128.595 0.856903 1.32268 0
M  V30 1255 C 129.525 0.31858 2.31316 0
M  V30 1256 C 130.506 -0.583487 1.59779 0
M  V30 1257 O 131.691 -0.503259 1.87566 0
M  V30 1258 C 128.821 -0.491979 3.43798 0
M  V30 1259 C 127.775 0.315849 4.26833 0
M  V30 1260 C 127.101 -0.619586 5.31098 0
M  V30 1261 C 128.401 1.54282 4.98993 0
M  V30 1262 H 130.095 1.14621 2.76591 0
M  V30 1263 H 127.641 0.552613 1.32974 0
M  V30 1264 H 129.594 -0.879012 4.1213 0
M  V30 1265 H 128.318 -1.35299 2.97257 0
M  V30 1266 H 126.977 0.684664 3.6015 0
M  V30 1267 H 126.625 -1.47751 4.8081 0
M  V30 1268 H 126.325 -0.0830621 5.87541 0
M  V30 1269 H 127.849 -1.00375 6.02293 0
M  V30 1270 H 129.263 1.22796 5.59995 0
M  V30 1271 H 127.66 2.01745 5.65172 0
M  V30 1272 H 128.73 2.30285 4.26728 0
M  V30 1273 N 130.073 -1.45103 0.615059 0
M  V30 1274 C 131.321 -2.01784 0.112955 0
M  V30 1275 C 131.642 -1.48504 -1.26378 0
M  V30 1276 O 130.912 -0.682245 -1.83636 0
M  V30 1277 H 129.492 -0.745993 0.0387668 0
M  V30 1278 H 132.154 -1.77808 0.798141 0
M  V30 1279 H 131.25 -3.12025 0.0684069 0
M  V30 1280 N 131.551 -0.354651 -1.53558 0
M  V30 1281 C 132.797 0.238797 -2.01389 0
M  V30 1282 C 133.13 1.49309 -1.2418 0
M  V30 1283 O 132.405 1.91638 -0.332457 0
M  V30 1284 C 132.688 0.541771 -3.56001 0
M  V30 1285 C 132.541 -0.725388 -4.43912 0
M  V30 1286 C 133.86 1.34685 -4.18984 0
M  V30 1287 H 130.979 0.0853177 -0.732045 0
M  V30 1288 H 133.621 -0.477384 -1.83905 0
M  V30 1289 H 131.771 1.15189 -3.71031 0
M  V30 1290 H 133.443 -1.36313 -4.407 0
M  V30 1291 H 131.686 -1.34801 -4.12324 0
M  V30 1292 H 132.357 -0.468505 -5.50008 0
M  V30 1293 H 134.833 0.830837 -4.07721 0
M  V30 1294 H 133.709 1.52759 -5.27215 0
M  V30 1295 H 133.97 2.35221 -3.74331 0
M  V30 1296 N 133.029 1.57378 -0.0835403 0
M  V30 1297 C 134.276 1.9393 0.58287 0
M  V30 1298 C 134.604 0.964455 1.68904 0
M  V30 1299 O 133.859 -0.0179474 1.95692 0
M  V30 1300 C 134.158 3.37063 1.1884 0
M  V30 1301 C 133.824 4.50424 0.207194 0
M  V30 1302 C 132.486 4.81159 -0.0627115 0
M  V30 1303 C 134.838 5.19136 -0.463426 0
M  V30 1304 C 132.166 5.77939 -1.01012 0
M  V30 1305 C 134.518 6.16931 -1.39924 0
M  V30 1306 C 133.182 6.46078 -1.67749 0
M  V30 1307 H 132.452 0.70964 0.213287 0
M  V30 1308 H 135.099 1.90856 -0.156916 0
M  V30 1309 H 133.404 3.3666 2.00418 0
M  V30 1310 H 135.101 3.6264 1.71153 0
M  V30 1311 H 131.691 4.2646 0.427747 0
M  V30 1312 H 135.875 4.95576 -0.268034 0
M  V30 1313 H 131.131 5.98842 -1.23283 0
M  V30 1314 H 135.305 6.69273 -1.92476 0
M  V30 1315 H 132.932 7.2088 -2.41321 0
M  V30 1316 N 134.507 -0.190092 1.56449 0
M  V30 1317 C 135.417 -1.25591 1.98152 0
M  V30 1318 C 136.433 -1.49519 0.889944 0
M  V30 1319 O 137.609 -1.62036 1.19609 0
M  V30 1320 C 134.674 -2.57916 2.3169 0
M  V30 1321 C 133.735 -2.42015 3.5458 0
M  V30 1322 C 132.968 -3.6803 3.8651 0
M  V30 1323 O 133.191 -4.72413 3.1966 0
M  V30 1324 O 132.125 -3.6326 4.79923 0
M  V30 1325 H 135.951 -0.931988 2.89046 0
M  V30 1326 H 133.536 -0.395488 1.4407 0
M  V30 1327 H 135.418 -3.36008 2.54316 0
M  V30 1328 H 134.093 -2.89925 1.43963 0
M  V30 1329 H 133 -1.62017 3.37196 0
M  V30 1330 H 134.333 -2.14937 4.4279 0
M  V30 1331 N 135.985 -1.50799 -0.457987 0
M  V30 1332 C 137.231 -1.62683 -1.21088 0
M  V30 1333 C 137.564 -0.332268 -1.91336 0
M  V30 1334 O 136.839 0.667043 -1.82704 0
M  V30 1335 C 137.122 -2.81615 -2.24422 0
M  V30 1336 C 136.975 -4.20989 -1.58392 0
M  V30 1337 C 138.294 -2.96085 -3.2561 0
M  V30 1338 H 135.413 -0.592087 -0.438864 0
M  V30 1339 H 138.055 -1.83225 -0.50286 0
M  V30 1340 H 136.205 -2.64231 -2.84806 0
M  V30 1341 H 137.877 -4.49994 -1.01504 0
M  V30 1342 H 136.12 -4.24641 -0.886704 0
M  V30 1343 H 136.791 -5.0016 -2.33547 0
M  V30 1344 H 139.267 -3.12042 -2.75262 0
M  V30 1345 H 138.143 -3.80902 -3.95228 0
M  V30 1346 H 138.404 -2.0726 -3.90507 0
M  V30 1347 N 137.463 0.71206 -1.40597 0
M  V30 1348 C 138.373 1.8562 -1.43466 0
M  V30 1349 C 139.389 1.70902 -0.326902 0
M  V30 1350 O 140.565 1.93105 -0.572043 0
M  V30 1351 C 137.63 3.21451 -1.29884 0
M  V30 1352 C 136.691 3.48398 -2.50833 0
M  V30 1353 C 135.924 4.77749 -2.3789 0
M  V30 1354 O 136.147 5.53089 -1.39459 0
M  V30 1355 O 135.081 5.05111 -3.27333 0
M  V30 1356 H 138.907 1.86155 -2.39958 0
M  V30 1357 H 136.492 0.86295 -1.21957 0
M  V30 1358 H 138.374 4.02579 -1.24531 0
M  V30 1359 H 137.049 3.21636 -0.364997 0
M  V30 1360 H 135.956 2.67265 -2.61763 0
M  V30 1361 H 137.289 3.53014 -3.4299 0
M  V30 1362 N 138.941 1.26152 0.944643 0
M  V30 1363 C 140.187 1.11657 1.69294 0
M  V30 1364 C 140.52 -0.339926 1.91202 0
M  V30 1365 O 139.795 -1.24994 1.49019 0
M  V30 1366 C 140.078 1.88236 3.06984 0
M  V30 1367 C 139.931 3.41772 2.92424 0
M  V30 1368 C 141.25 1.67343 4.07043 0
M  V30 1369 H 138.369 0.407004 0.614424 0
M  V30 1370 H 141.011 1.55106 1.09737 0
M  V30 1371 H 139.161 1.51308 3.57824 0
M  V30 1372 H 140.833 3.88433 2.48832 0
M  V30 1373 H 139.076 3.68974 2.28124 0
M  V30 1374 H 139.747 3.90579 3.90067 0
M  V30 1375 H 142.223 1.99509 3.65151 0
M  V30 1376 H 141.099 2.23346 5.01406 0
M  V30 1377 H 141.36 0.617158 4.37771 0
M  V30 1378 N 140.419 -1.14872 1.07899 0
M  V30 1379 C 141.366 -2.19791 0.704319 0
M  V30 1380 C 142.336 -1.63238 -0.306987 0
M  V30 1381 O 143.521 -1.8983 -0.192171 0
M  V30 1382 C 140.661 -3.44911 0.114244 0
M  V30 1383 C 139.774 -4.15637 1.1777 0
M  V30 1384 C 138.909 -5.28324 0.552037 0
M  V30 1385 C 137.948 -5.90875 1.59789 0
M  V30 1386 N 137.085 -6.95022 0.994404 0
M  V30 1387 H 141.925 -2.5119 1.60336 0
M  V30 1388 H 139.462 -1.23356 0.801352 0
M  V30 1389 H 141.42 -4.16477 -0.245544 0
M  V30 1390 H 140.05 -3.14011 -0.74813 0
M  V30 1391 H 139.102 -3.42512 1.65499 0
M  V30 1392 H 140.414 -4.5823 1.97046 0
M  V30 1393 H 139.568 -6.06538 0.1402 0
M  V30 1394 H 138.307 -4.86939 -0.272431 0
M  V30 1395 H 137.312 -5.11369 2.01945 0
M  V30 1396 H 138.537 -6.34337 2.42474 0
M  V30 1397 H 136.483 -6.55722 0.190939 0
M  V30 1398 H 136.4 -7.36073 1.72432 0
M  V30 1399 H 137.668 -7.77123 0.608253 0
M  V30 1400 N 141.898 -0.863906 -1.31812 0
M  V30 1401 C 142.808 -0.318461 -2.32428 0
M  V30 1402 C 143.824 0.568496 -1.64451 0
M  V30 1403 O 145 0.46666 -1.95919 0
M  V30 1404 C 142.065 0.476355 -3.43412 0
M  V30 1405 C 141.126 -0.43784 -4.27061 0
M  V30 1406 C 140.359 0.319138 -5.32745 0
M  V30 1407 O 140.582 1.54799 -5.48993 0
M  V30 1408 O 139.516 -0.319861 -6.01049 0
M  V30 1409 H 143.342 -1.15229 -2.80991 0
M  V30 1410 H 140.927 -0.627103 -1.35602 0
M  V30 1411 H 142.809 0.927156 -4.11074 0
M  V30 1412 H 141.484 1.28683 -2.97022 0
M  V30 1413 H 140.391 -0.937013 -3.62175 0
M  V30 1414 H 141.724 -1.21375 -4.77 0
M  V30 1415 N 143.376 1.44774 -0.622745 0
M  V30 1416 C 144.624 2.01721 -0.123655 0
M  V30 1417 C 144.945 1.49172 1.25589 0
M  V30 1418 O 144.215 0.691974 1.83272 0
M  V30 1419 H 142.795 0.745777 -0.0427225 0
M  V30 1420 H 145.457 1.77382 -0.807559 0
M  V30 1421 H 144.553 3.11984 -0.0849534 0
M  V30 1422 N 144.854 0.36279 1.53368 0
M  V30 1423 C 145.764 -0.492994 2.29362 0
M  V30 1424 C 146.78 -1.09507 1.35219 0
M  V30 1425 O 147.956 -1.10662 1.68273 0
M  V30 1426 C 145.021 -1.61855 3.066 0
M  V30 1427 C 144.082 -1.04429 4.16405 0
M  V30 1428 C 143.315 -2.11621 4.89951 0
M  V30 1429 O 143.538 -3.32684 4.63333 0
M  V30 1430 O 142.472 -1.74835 5.75948 0
M  V30 1431 H 146.298 0.125331 3.03441 0
M  V30 1432 H 143.883 0.127253 1.48857 0
M  V30 1433 H 145.765 -2.27302 3.54841 0
M  V30 1434 H 144.44 -2.22233 2.3536 0
M  V30 1435 H 143.347 -0.353819 3.72423 0
M  V30 1436 H 144.68 -0.485113 4.89804 0
M  V30 1437 N 146.332 -1.57332 0.0918853 0
M  V30 1438 C 147.578 -1.94524 -0.573425 0
M  V30 1439 C 147.911 -0.973578 -1.68033 0
M  V30 1440 O 147.186 -0.00609226 -1.94499 0
M  V30 1441 C 147.469 -3.41858 -1.13161 0
M  V30 1442 C 147.322 -4.4979 -0.0299747 0
M  V30 1443 C 148.641 -3.90435 -2.03098 0
M  V30 1444 H 145.76 -0.70734 -0.206975 0
M  V30 1445 H 148.402 -1.89309 0.161942 0
M  V30 1446 H 146.552 -3.46433 -1.7583 0
M  V30 1447 H 148.224 -4.57327 0.604112 0
M  V30 1448 H 146.467 -4.291 0.636833 0
M  V30 1449 H 147.138 -5.50069 -0.461287 0
M  V30 1450 H 149.614 -3.87992 -1.50338 0
M  V30 1451 H 148.49 -4.94097 -2.39081 0
M  V30 1452 H 148.751 -3.29541 -2.94712 0
M  V30 1453 N 147.81 0.181792 -1.56548 0
M  V30 1454 C 149.04 0.914618 -1.85252 0
M  V30 1455 C 149.448 1.76791 -0.673914 0
M  V30 1456 O 148.791 1.80009 0.366416 0
M  V30 1457 C 148.853 1.85019 -3.08234 0
M  V30 1458 C 148.517 1.17754 -4.41569 0
M  V30 1459 C 149.514 0.548035 -5.17003 0
M  V30 1460 C 147.199 1.17742 -4.88305 0
M  V30 1461 C 149.193 -0.0726128 -6.37359 0
M  V30 1462 C 146.88 0.552946 -6.08593 0
M  V30 1463 C 147.878 -0.070978 -6.82963 0
M  V30 1464 O 147.566 -0.685635 -8.00971 0
M  V30 1465 H 147.298 0.271695 -0.618998 0
M  V30 1466 H 149.852 0.189944 -2.0452 0
M  V30 1467 H 148.082 2.61491 -2.84885 0
M  V30 1468 H 149.771 2.45195 -3.23472 0
M  V30 1469 H 150.537 0.540174 -4.81982 0
M  V30 1470 H 146.416 1.65246 -4.30366 0
M  V30 1471 H 149.96 -0.560213 -6.95347 0
M  V30 1472 H 145.857 0.558354 -6.43081 0
M  V30 1473 H 146.625 -0.58385 -8.16415 0
M  V30 1474 N 149.288 1.51039 0.449983 0
M  V30 1475 C 150.534 1.63322 1.20223 0
M  V30 1476 C 150.867 0.34241 1.91158 0
M  V30 1477 O 150.142 -0.657344 1.83055 0
M  V30 1478 C 150.425 2.82801 2.22925 0
M  V30 1479 C 150.278 4.21823 1.56157 0
M  V30 1480 C 151.597 2.97807 3.24035 0
M  V30 1481 H 148.716 0.594407 0.435718 0
M  V30 1482 H 151.358 1.83489 0.493136 0
M  V30 1483 H 149.508 2.65738 2.834 0
M  V30 1484 H 151.18 4.50526 0.991162 0
M  V30 1485 H 149.423 4.25105 0.864172 0
M  V30 1486 H 150.094 5.01391 2.30891 0
M  V30 1487 H 152.57 3.13497 2.73603 0
M  V30 1488 H 151.446 3.82992 3.93202 0
M  V30 1489 H 151.707 2.09328 3.89402 0
M  V30 1490 N 150.766 -0.704594 1.40972 0
M  V30 1491 C 151.729 -1.80035 1.41845 0
M  V30 1492 C 152.729 -1.57774 0.310474 0
M  V30 1493 O 153.919 -1.64613 0.56992 0
M  V30 1494 C 151.051 -3.18284 1.22098 0
M  V30 1495 H 152.244 -1.80658 2.3938 0
M  V30 1496 H 149.797 -0.911329 1.26982 0
M  V30 1497 H 150.532 -3.23306 0.253672 0
M  V30 1498 H 150.317 -3.35843 2.02366 0
M  V30 1499 H 151.807 -3.98289 1.25522 0
M  V30 1500 N 152.244 -1.26651 -0.937939 0
M  V30 1501 C 153.492 -1.12165 -1.68118 0
M  V30 1502 C 153.813 0.334983 -1.92101 0
M  V30 1503 O 153.083 1.23583 -1.52 0
M  V30 1504 H 151.663 -0.412093 -0.623048 0
M  V30 1505 H 154.325 -1.59027 -1.12678 0
M  V30 1506 H 153.421 -1.64289 -2.6536 0
M  V30 1507 N 153.722 1.14298 -1.08507 0
M  V30 1508 C 154.632 2.23027 -0.727753 0
M  V30 1509 C 155.648 1.71952 0.26619 0
M  V30 1510 O 156.824 2.011 0.109882 0
M  V30 1511 C 153.889 3.46403 -0.143541 0
M  V30 1512 C 152.95 4.12413 -1.19223 0
M  V30 1513 C 152.183 5.29899 -0.635798 0
M  V30 1514 O 152.406 5.67796 0.544393 0
M  V30 1515 O 151.34 5.85717 -1.38634 0
M  V30 1516 H 155.166 2.55945 -1.63481 0
M  V30 1517 H 152.751 1.22248 -0.858817 0
M  V30 1518 H 154.633 4.21018 0.179404 0
M  V30 1519 H 153.308 3.15206 0.736659 0
M  V30 1520 H 152.215 3.39667 -1.56772 0
M  V30 1521 H 153.548 4.47718 -2.04474 0
M  V30 1522 N 155.201 0.870884 1.31352 0
M  V30 1523 C 156.148 0.325425 2.28494 0
M  V30 1524 C 157.118 -0.576615 1.5577 0
M  V30 1525 O 158.303 -0.508059 1.83911 0
M  V30 1526 C 155.443 -0.466283 3.41935 0
M  V30 1527 C 154.556 0.463378 4.29508 0
M  V30 1528 C 153.691 -0.342544 5.30094 0
M  V30 1529 C 152.73 0.583486 6.09313 0
M  V30 1530 N 151.867 -0.186244 7.01853 0
M  V30 1531 H 156.707 1.15901 2.74538 0
M  V30 1532 H 154.244 0.58294 1.35056 0
M  V30 1533 H 156.202 -0.941085 4.06447 0
M  V30 1534 H 154.832 -1.26456 2.97 0
M  V30 1535 H 153.884 1.05663 3.65431 0
M  V30 1536 H 155.196 1.1734 4.84802 0
M  V30 1537 H 154.35 -0.879816 6.00287 0
M  V30 1538 H 153.089 -1.08585 4.75458 0
M  V30 1539 H 152.094 1.13251 5.3801 0
M  V30 1540 H 153.319 1.32566 6.66035 0
M  V30 1541 H 151.265 -0.912348 6.49625 0
M  V30 1542 H 151.182 0.464422 7.54572 0
M  V30 1543 H 152.45 -0.704716 7.76308 0
M  V30 1544 N 156.679 -1.44442 0.630414 0
M  V30 1545 C 157.626 -2.30678 -0.0749355 0
M  V30 1546 C 158.596 -1.4344 -0.837502 0
M  V30 1547 O 159.781 -1.72343 -0.818684 0
M  V30 1548 C 156.921 -3.28706 -1.05103 0
M  V30 1549 C 156.034 -4.31046 -0.286954 0
M  V30 1550 C 155.169 -5.16167 -1.2548 0
M  V30 1551 C 154.208 -6.10216 -0.479843 0
M  V30 1552 N 153.345 -6.88039 -1.39811 0
M  V30 1553 H 158.185 -2.90454 0.666386 0
M  V30 1554 H 155.722 -1.43107 0.340404 0
M  V30 1555 H 157.68 -3.84027 -1.63031 0
M  V30 1556 H 156.31 -2.70632 -1.75949 0
M  V30 1557 H 155.362 -3.78203 0.408243 0
M  V30 1558 H 156.674 -4.97794 0.316657 0
M  V30 1559 H 155.828 -5.76002 -1.90544 0
M  V30 1560 H 154.567 -4.49491 -1.89233 0
M  V30 1561 H 153.572 -5.49491 0.184295 0
M  V30 1562 H 154.797 -6.78928 0.152965 0
M  V30 1563 H 152.743 -6.24032 -2.02287 0
M  V30 1564 H 152.66 -7.51223 -0.848508 0
M  V30 1565 H 153.928 -7.52397 -2.03762 0
M  V30 1566 O 158.196 -0.513116 -1.53132 0
M  V30 1567 H 158.887 0.00131156 -1.937 0
M  V30 END ATOM
M  V30 BEGIN BOND
M  V30 END BOND
M  V30 END CTAB
M  END
$$$$
