drugbank_target|Q8GMG0 MIO-dependent tyrosine 2,3-aminomutase (DB06946)
 OpenBabel12092120383D

  0  0  0     0  0            999 V3000
M  V30 BEGIN CTAB
M  V30 COUNTS 8222 8282 0 0 0
M  V30 BEGIN ATOM
M  V30 1 H -0.908 1.98254 -0.117106 0
M  V30 2 N 0 1.576 0 0
M  V30 3 C 0.933 2.03868 1.02534 0
M  V30 4 C 1.911 0.928543 1.3348 0
M  V30 5 O 3.095 1.19667 1.45644 0
M  V30 6 C 0.222 2.43627 2.35294 0
M  V30 7 C -0.732 3.65373 2.2001 0
M  V30 8 S 0.101 5.13292 1.52614 0
M  V30 9 C 1.257 5.56322 2.86805 0
M  V30 10 H 1.49 2.90518 0.631377 0
M  V30 11 H -0.977 1.52953 0.210867 0
M  V30 12 H 0.981 2.67203 3.11629 0
M  V30 13 H -0.358 1.57376 2.7183 0
M  V30 14 H -1.165 3.90944 3.18086 0
M  V30 15 H -1.563 3.418 1.51819 0
M  V30 16 H 0.729 5.58782 3.83104 0
M  V30 17 H 1.672 6.56266 2.65933 0
M  V30 18 H 2.08 4.83886 2.90714 0
M  V30 19 N 1.4781 -0.272755 1.55222 0
M  V30 20 C 2.4411 -1.32041 1.87344 0
M  V30 21 C 3.4411 -1.42342 0.74803 0
M  V30 22 O 4.6311 -1.41488 1.0162 0
M  V30 23 C 1.7631 -2.70173 2.07893 0
M  V30 24 H 2.9561 -1.04789 2.80997 0
M  V30 25 H 0.5091 -0.51083 1.47717 0
M  V30 26 H 1.2441 -3.02605 1.16622 0
M  V30 27 H 1.0291 -2.64082 2.89833 0
M  V30 28 H 2.5191 -3.45869 2.34017 0
M  V30 29 N 2.9562 -1.48159 -0.537278 0
M  V30 30 C 3.8862 -1.65029 -1.6519 0
M  V30 31 C 4.8672 -0.499281 -1.62607 0
M  V30 32 O 6.0522 -0.730972 -1.79918 0
M  V30 33 C 3.1822 -1.68303 -3.03795 0
M  V30 34 C 2.1362 -2.8283 -3.21234 0
M  V30 35 C 1.4622 -2.71189 -4.60826 0
M  V30 36 C 2.7622 -4.24211 -3.04701 0
M  V30 37 H 4.4562 -2.58341 -1.51328 0
M  V30 38 H 2.0022 -1.24325 -0.726585 0
M  V30 39 H 3.9552 -1.78693 -3.81637 0
M  V30 40 H 2.6792 -0.715635 -3.18663 0
M  V30 41 H 1.3382 -2.71983 -2.45807 0
M  V30 42 H 0.9862 -1.72435 -4.7252 0
M  V30 43 H 0.6862 -3.48035 -4.7344 0
M  V30 44 H 2.2102 -2.83537 -5.40777 0
M  V30 45 H 3.6242 -4.3593 -3.72341 0
M  V30 46 H 2.0212 -5.01998 -3.28813 0
M  V30 47 H 3.0912 -4.41184 -2.01209 0
M  V30 48 N 4.4343 0.785586 -1.36625 0
M  V30 49 C 5.6623 1.57448 -1.3423 0
M  V30 50 C 6.0773 1.88649 0.0755653 0
M  V30 51 O 5.4343 1.50414 1.03354 0
M  V30 52 C 5.4853 2.89316 -2.16745 0
M  V30 53 O 5.2063 2.59459 -3.53005 0
M  V30 54 C 6.7073 3.83606 -2.22174 0
M  V30 55 H 3.9273 0.488226 -0.4603 0
M  V30 56 H 6.4713 0.974733 -1.79775 0
M  V30 57 H 4.6263 3.4575 -1.74745 0
M  V30 58 H 5.0403 3.43804 -3.96105 0
M  V30 59 H 6.5143 4.73181 -2.8426 0
M  V30 60 H 6.9913 4.21734 -1.22627 0
M  V30 61 H 7.5973 3.33104 -2.64427 0
M  V30 62 N 5.9124 1.20967 1.01018 0
M  V30 63 C 6.8444 0.922059 2.09835 0
M  V30 64 C 7.8574 -0.0927106 1.62536 0
M  V30 65 O 9.0464 0.139127 1.77957 0
M  V30 66 C 6.1464 0.362004 3.36961 0
M  V30 67 C 5.3194 1.42986 4.13369 0
M  V30 68 C 4.3784 0.879976 5.1879 0
M  V30 69 O 3.4044 1.56219 5.47343 0
M  V30 70 N 4.6064 -0.307396 5.79686 0
M  V30 71 H 7.3714 1.8588 2.35093 0
M  V30 72 H 4.9324 1.11422 1.1746 0
M  V30 73 H 6.9244 -0.0201474 4.04695 0
M  V30 74 H 5.4944 -0.479437 3.08902 0
M  V30 75 H 4.7144 1.98608 3.40512 0
M  V30 76 H 6.0024 2.14885 4.61196 0
M  V30 77 H 5.4004 -0.878796 5.58832 0
M  V30 78 H 3.9574 -0.631115 6.48737 0
M  V30 79 N 7.3905 -1.2043 1.01659 0
M  V30 80 C 8.6365 -1.90079 0.706963 0
M  V30 81 C 8.9695 -1.78648 -0.761474 0
M  V30 82 O 8.2445 -1.17069 -1.55323 0
M  V30 83 C 8.5275 -3.41469 1.14327 0
M  V30 84 C 8.3805 -3.61833 2.67201 0
M  V30 85 C 9.6995 -4.34261 0.714529 0
M  V30 86 H 6.8185 -0.690254 0.2583 0
M  V30 87 H 9.4605 -1.41826 1.26433 0
M  V30 88 H 7.6105 -3.82696 0.669056 0
M  V30 89 H 9.2825 -3.2986 3.22475 0
M  V30 90 H 7.5255 -3.05304 3.08175 0
M  V30 91 H 8.1965 -4.67955 2.92783 0
M  V30 92 H 10.6725 -4.00682 1.12221 0
M  V30 93 H 9.5485 -5.38806 1.04784 0
M  V30 94 H 9.8095 -4.40431 -0.383799 0
M  V30 95 N 8.8686 -0.792821 -1.36206 0
M  V30 96 C 9.7786 -0.194808 -2.3379 0
M  V30 97 C 10.7946 0.654869 -1.61206 0
M  V30 98 O 11.9706 0.569856 -1.9317 0
M  V30 99 C 9.0356 0.657721 -3.40404 0
M  V30 100 C 8.0966 -0.210849 -4.28782 0
M  V30 101 C 7.3296 0.601086 -5.30304 0
M  V30 102 O 7.5526 1.83682 -5.40016 0
M  V30 103 O 6.4866 -0.000808277 -6.019 0
M  V30 104 H 10.3126 -1.00172 -2.86704 0
M  V30 105 H 7.8976 -0.554341 -1.38735 0
M  V30 106 H 9.7796 1.14375 -4.05581 0
M  V30 107 H 8.4546 1.44247 -2.89784 0
M  V30 108 H 7.3616 -0.743714 -3.66633 0
M  V30 109 H 8.6946 -0.959195 -4.82763 0
M  V30 110 N 10.3467 1.47872 -0.545128 0
M  V30 111 C 11.5747 2.06889 -0.021084 0
M  V30 112 C 11.9897 1.39955 1.2672 0
M  V30 113 O 11.3467 0.492036 1.75742 0
M  V30 114 C 11.3977 3.60996 0.190817 0
M  V30 115 O 11.1187 4.25419 -1.04644 0
M  V30 116 C 12.6197 4.36849 0.753521 0
M  V30 117 H 9.8397 0.669785 -0.0403635 0
M  V30 118 H 12.3837 1.90049 -0.755095 0
M  V30 119 H 10.5387 3.77391 0.87492 0
M  V30 120 H 10.9527 5.17785 -0.836611 0
M  V30 121 H 12.4267 5.45399 0.851139 0
M  V30 122 H 12.9037 4.02306 1.762 0
M  V30 123 H 13.5097 4.25169 0.105503 0
M  V30 124 N 11.8248 0.280983 1.55075 0
M  V30 125 C 12.7348 -0.61388 2.26426 0
M  V30 126 C 13.7508 -1.16521 1.29224 0
M  V30 127 O 14.9268 -1.19426 1.62171 0
M  V30 128 C 11.9918 -1.7788 2.9759 0
M  V30 129 C 11.0528 -1.26355 4.10284 0
M  V30 130 C 10.2858 -2.37295 4.78045 0
M  V30 131 O 10.5088 -3.56777 4.45047 0
M  V30 132 O 9.4428 -2.05119 5.65871 0
M  V30 133 H 13.2688 -0.0356932 3.03679 0
M  V30 134 H 10.8538 0.0481686 1.49322 0
M  V30 135 H 12.7358 -2.45791 3.42293 0
M  V30 136 H 11.4108 -2.34397 2.23249 0
M  V30 137 H 10.3178 -0.550735 3.70024 0
M  V30 138 H 11.6508 -0.744065 4.86543 0
M  V30 139 N 13.3029 -1.57598 0.00835791 0
M  V30 140 C 14.5519 -1.90107 -0.673968 0
M  V30 141 C 14.8649 -0.884275 -1.7447 0
M  V30 142 O 16.0709 -1.09987 -2.48224 0
M  V30 143 C 14.5269 -3.37497 -1.24995 0
M  V30 144 C 14.1349 -4.47491 -0.2136 0
M  V30 145 C 15.8789 -3.79104 -1.90999 0
M  V30 146 C 13.7859 -5.85963 -0.80005 0
M  V30 147 H 12.7159 -0.709393 -0.255495 0
M  V30 148 H 15.3669 -1.83365 0.0702693 0
M  V30 149 H 13.7489 -3.39102 -2.04513 0
M  V30 150 H 14.9229 -4.57414 0.557596 0
M  V30 151 H 13.2379 -4.14956 0.346474 0
M  V30 152 H 15.8349 -4.79901 -2.35795 0
M  V30 153 H 16.1779 -3.1306 -2.74407 0
M  V30 154 H 16.7109 -3.79833 -1.18203 0
M  V30 155 H 13.4499 -6.555 -0.00456708 0
M  V30 156 H 12.9699 -5.79687 -1.54021 0
M  V30 157 H 14.6489 -6.33884 -1.29615 0
M  V30 158 N 14.781 0.264519 -1.55364 0
M  V30 159 C 16.027 0.99646 -1.76631 0
M  V30 160 C 16.36 1.85632 -0.570478 0
M  V30 161 O 15.635 1.89647 0.43175 0
M  V30 162 C 15.918 1.87187 -3.07625 0
M  V30 163 C 15.771 1.04138 -4.37579 0
M  V30 164 C 17.09 2.85749 -3.34717 0
M  V30 165 H 14.209 0.360841 -0.642622 0
M  V30 166 H 16.851 0.268218 -1.88097 0
M  V30 167 H 15.001 2.49279 -2.9798 0
M  V30 168 H 16.673 0.440517 -4.59192 0
M  V30 169 H 14.916 0.345115 -4.32425 0
M  V30 170 H 15.587 1.68729 -5.2558 0
M  V30 171 H 18.063 2.33793 -3.4421 0
M  V30 172 H 16.939 3.44136 -4.27623 0
M  V30 173 H 17.2 3.61311 -2.54768 0
M  V30 174 N 16.2591 1.48442 0.529413 0
M  V30 175 C 17.6701 1.5002 1.11134 0
M  V30 176 C 18.0211 0.27031 1.94329 0
M  V30 177 O 17.1461 -0.622507 2.07253 0
M  V30 178 C 17.7411 2.71834 2.02217 0
M  V30 179 C 16.3001 2.76283 2.55627 0
M  V30 180 C 15.4471 2.43542 1.326 0
M  V30 181 H 18.3981 1.5555 0.314641 0
M  V30 182 H 18.4191 2.50384 2.8651 0
M  V30 183 H 17.9311 3.61331 1.41639 0
M  V30 184 H 16.0321 1.90995 3.19924 0
M  V30 185 H 16.1451 3.77725 2.94721 0
M  V30 186 H 14.5091 1.94709 1.64196 0
M  V30 187 H 15.2921 3.3528 0.737734 0
M  V30 188 N 17.7372 -0.778329 1.37039 0
M  V30 189 C 18.9832 -1.53892 1.32079 0
M  V30 190 C 19.3162 -1.9396 -0.0965386 0
M  V30 191 O 18.5912 -1.63568 -1.05242 0
M  V30 192 C 18.8742 -2.80847 2.25382 0
M  V30 193 C 18.7272 -2.47076 3.75864 0
M  V30 194 C 20.0462 -3.82741 2.1725 0
M  V30 195 H 17.1652 -0.558303 0.48111 0
M  V30 196 H 19.8072 -0.893397 1.67685 0
M  V30 197 H 17.9572 -3.35931 1.95148 0
M  V30 198 H 19.6292 -1.97957 4.16666 0
M  V30 199 H 17.8722 -1.79863 3.94755 0
M  V30 200 H 18.5432 -3.37798 4.36574 0
M  V30 201 H 21.0192 -3.37133 2.43887 0
M  V30 202 H 19.8952 -4.69303 2.84686 0
M  V30 203 H 20.1562 -4.2652 1.16331 0
M  V30 204 N 19.2153 -1.21501 -1.00376 0
M  V30 205 C 20.4403 -1.05977 -1.78279 0
M  V30 206 C 20.8653 0.385994 -1.84097 0
M  V30 207 O 20.2233 1.27849 -1.28547 0
M  V30 208 C 20.2713 -1.66302 -3.19963 0
M  V30 209 O 19.3753 -0.909333 -4.0225 0
M  V30 210 H 18.7163 -0.372906 -0.549397 0
M  V30 211 H 21.2463 -1.6107 -1.26165 0
M  V30 212 H 21.2563 -1.70574 -3.70632 0
M  V30 213 H 19.9313 -2.71515 -3.15043 0
M  V30 214 H 18.5083 -0.941795 -3.60811 0
M  V30 215 N 20.6934 1.19889 -1.02296 0
M  V30 216 C 21.9394 1.89701 -0.717033 0
M  V30 217 C 22.2724 1.7905 0.751989 0
M  V30 218 O 21.5474 1.17891 1.547 0
M  V30 219 C 21.8304 3.40858 -1.16136 0
M  V30 220 C 21.6834 3.60411 -2.69117 0
M  V30 221 C 23.0024 4.33876 -0.737549 0
M  V30 222 H 20.1214 0.688874 -0.261957 0
M  V30 223 H 22.7634 1.41154 -1.27183 0
M  V30 224 H 20.9134 3.82335 -0.689342 0
M  V30 225 H 22.5854 3.28145 -3.2422 0
M  V30 226 H 20.8284 3.03665 -3.0979 0
M  V30 227 H 21.4994 4.66396 -2.95261 0
M  V30 228 H 23.9754 4.00081 -1.14344 0
M  V30 229 H 22.8514 5.38242 -1.0764 0
M  V30 230 H 23.1124 4.40628 0.360436 0
M  V30 231 N 22.1715 0.800033 1.35784 0
M  V30 232 C 23.4485 0.30088 1.93272 0
M  V30 233 C 23.8285 -1.20857 1.73081 0
M  V30 234 O 23.1765 -2.00502 1.09596 0
M  V30 235 C 23.3865 0.70511 3.41803 0
M  V30 236 C 24.7345 0.690871 4.18942 0
M  V30 237 O 25.7585 0.646244 3.50289 0
M  V30 238 O 24.6175 0.74332 5.41421 0
M  V30 239 H 21.7115 0.0771605 0.823393 0
M  V30 240 H 24.2575 0.88329 1.449 0
M  V30 241 H 23.0295 1.74571 3.50201 0
M  V30 242 H 22.6525 0.0971541 3.97481 0
M  V30 243 N 23.6496 -1.47581 0.552962 0
M  V30 244 C 24.8976 -2.02082 0.0272703 0
M  V30 245 C 25.2186 -1.4301 -1.32563 0
M  V30 246 O 24.4886 -0.603745 -1.86365 0
M  V30 247 H 23.0686 -0.746966 0.00709182 0
M  V30 248 H 25.7306 -1.81033 0.722008 0
M  V30 249 H 24.8266 -3.12034 -0.0639951 0
M  V30 250 N 25.1277 -0.289203 -1.54924 0
M  V30 251 C 26.0377 0.601863 -2.26748 0
M  V30 252 C 27.0537 1.15834 -1.2984 0
M  V30 253 O 28.2297 1.18564 -1.62802 0
M  V30 254 C 25.2947 1.76299 -2.98529 0
M  V30 255 C 24.3557 1.24178 -4.10948 0
M  V30 256 C 23.5887 2.34757 -4.79296 0
M  V30 257 O 23.8117 3.54411 -4.46933 0
M  V30 258 O 22.7457 2.02115 -5.66951 0
M  V30 259 H 26.5717 0.0195879 -3.03694 0
M  V30 260 H 24.1567 -0.0560868 -1.49295 0
M  V30 261 H 26.0387 2.43973 -3.43592 0
M  V30 262 H 24.7137 2.33209 -2.24488 0
M  V30 263 H 23.6207 0.531104 -3.70311 0
M  V30 264 H 24.9537 0.718252 -4.86931 0
M  V30 265 N 26.6058 1.57591 -0.0167156 0
M  V30 266 C 27.8338 1.95575 0.675128 0
M  V30 267 C 28.2488 0.892542 1.6637 0
M  V30 268 O 27.6058 -0.126912 1.82058 0
M  V30 269 C 27.6568 3.33608 1.39239 0
M  V30 270 O 27.3778 4.3585 0.443444 0
M  V30 271 C 28.8788 3.86151 2.17721 0
M  V30 272 H 26.0988 0.644423 0.186978 0
M  V30 273 H 28.6428 2.0437 -0.0728 0
M  V30 274 H 26.7978 3.2607 2.09182 0
M  V30 275 H 27.2118 5.158 0.951358 0
M  V30 276 H 28.6858 4.85114 2.63379 0
M  V30 277 H 29.1628 3.19738 3.01105 0
M  V30 278 H 29.7688 3.96918 1.52761 0
M  V30 279 N 28.0839 -0.256276 1.55502 0
M  V30 280 C 29.0139 -1.32102 1.92539 0
M  V30 281 C 29.9949 -1.50684 0.789194 0
M  V30 282 O 31.1799 -1.63449 1.04872 0
M  V30 283 C 28.3099 -2.67752 2.21192 0
M  V30 284 C 27.2639 -2.63878 3.36975 0
M  V30 285 C 26.5899 -4.03236 3.51147 0
M  V30 286 C 27.8899 -2.21682 4.72921 0
M  V30 287 H 29.5839 -1.01351 2.81724 0
M  V30 288 H 27.1299 -0.486105 1.35547 0
M  V30 289 H 29.0829 -3.42365 2.45691 0
M  V30 290 H 27.8069 -3.0012 1.28824 0
M  V30 291 H 26.4659 -1.91722 3.12471 0
M  V30 292 H 26.1139 -4.32854 2.56216 0
M  V30 293 H 25.8139 -4.01535 4.29003 0
M  V30 294 H 27.3379 -4.79563 3.77957 0
M  V30 295 H 28.7519 -2.86023 4.96854 0
M  V30 296 H 27.1489 -2.3111 5.53812 0
M  V30 297 H 28.2189 -1.16833 4.70615 0
M  V30 298 N 29.562 -1.4872 -0.521534 0
M  V30 299 C 30.79 -1.60843 -1.30142 0
M  V30 300 C 31.205 -0.271897 -1.86832 0
M  V30 301 O 30.562 0.739969 -1.66825 0
M  V30 302 C 30.613 -2.66155 -2.4463 0
M  V30 303 O 30.334 -3.94623 -1.90275 0
M  V30 304 C 31.835 -2.88795 -3.36322 0
M  V30 305 H 29.055 -0.542075 -0.395468 0
M  V30 306 H 31.599 -1.94609 -0.628285 0
M  V30 307 H 29.754 -2.35224 -3.07812 0
M  V30 308 H 30.168 -4.52468 -2.65279 0
M  V30 309 H 31.642 -3.66264 -4.12983 0
M  V30 310 H 32.119 -1.97934 -3.9207 0
M  V30 311 H 32.725 -3.21063 -2.78924 0
M  V30 312 N 31.0401 0.771051 -1.3745 0
M  V30 313 C 32.2861 1.5319 -1.32894 0
M  V30 314 C 32.6191 1.94008 0.0862511 0
M  V30 315 O 31.8941 1.64124 1.04373 0
M  V30 316 C 32.1771 2.79648 -2.26868 0
M  V30 317 C 32.0301 2.45079 -3.77169 0
M  V30 318 C 33.3491 3.81583 -2.19277 0
M  V30 319 H 30.4681 0.555744 -0.484064 0
M  V30 320 H 33.1101 0.884492 -1.68157 0
M  V30 321 H 31.2601 3.34891 -1.96926 0
M  V30 322 H 32.9321 1.95745 -4.1771 0
M  V30 323 H 31.1751 1.77767 -3.95704 0
M  V30 324 H 31.8461 3.35478 -4.38359 0
M  V30 325 H 34.3221 3.35835 -2.45671 0
M  V30 326 H 33.1981 4.67787 -2.87171 0
M  V30 327 H 33.4591 4.25897 -1.18592 0
M  V30 328 N 32.5182 1.22032 0.997298 0
M  V30 329 C 33.4282 1.00271 2.12092 0
M  V30 330 C 34.4442 -0.047621 1.73935 0
M  V30 331 O 35.6202 0.144136 2.00884 0
M  V30 332 C 32.6852 0.578449 3.4184 0
M  V30 333 C 31.7462 1.70189 3.94125 0
M  V30 334 C 30.9792 1.29778 5.17681 0
M  V30 335 O 31.2022 0.174676 5.70132 0
M  V30 336 O 30.1362 2.11261 5.63607 0
M  V30 337 H 33.9622 1.94398 2.3333 0
M  V30 338 H 31.5472 1.00587 1.10465 0
M  V30 339 H 33.4292 0.351998 4.19927 0
M  V30 340 H 32.1042 -0.334019 3.21972 0
M  V30 341 H 31.0112 1.98282 3.1723 0
M  V30 342 H 32.3442 2.59206 4.18417 0
M  V30 343 N 33.9963 -1.19345 1.0293 0
M  V30 344 C 34.9593 -2.20793 0.615069 0
M  V30 345 C 35.9593 -1.57553 -0.321533 0
M  V30 346 O 37.1493 -1.73862 -0.108483 0
M  V30 347 C 34.2813 -3.40754 -0.0999222 0
M  V30 348 H 35.4743 -2.58955 1.51269 0
M  V30 349 H 33.0273 -1.3303 0.820534 0
M  V30 350 H 33.7623 -3.0811 -1.01187 0
M  V30 351 H 33.5473 -3.87889 0.57309 0
M  V30 352 H 35.0373 -4.15898 -0.376645 0
M  V30 353 N 35.4744 -0.807222 -1.35358 0
M  V30 354 C 36.7204 -0.388463 -1.99045 0
M  V30 355 C 37.0534 1.04184 -1.63888 0
M  V30 356 O 36.3284 1.72292 -0.902535 0
M  V30 357 C 36.6114 -0.572783 -3.55515 0
M  V30 358 C 36.4644 -2.04807 -4.00468 0
M  V30 359 C 37.7834 0.00114064 -4.401 0
M  V30 360 H 34.9024 -0.142619 -0.723069 0
M  V30 361 H 37.5444 -1.01687 -1.60498 0
M  V30 362 H 35.6944 -0.0378425 -3.88482 0
M  V30 363 H 37.3664 -2.64544 -3.77908 0
M  V30 364 H 35.6094 -2.54427 -3.51353 0
M  V30 365 H 36.2804 -2.12792 -5.09337 0
M  V30 366 H 38.7564 -0.455716 -4.13597 0
M  V30 367 H 37.6324 -0.157737 -5.48673 0
M  V30 368 H 37.8934 1.09488 -4.28328 0
M  V30 369 N 36.9525 1.47285 -0.560781 0
M  V30 370 C 38.3685 1.58065 -0.22081 0
M  V30 371 C 38.5685 1.55892 1.27671 0
M  V30 372 O 37.6245 1.46422 2.0571 0
M  V30 373 C 38.9375 2.88418 -0.850625 0
M  V30 374 C 40.4855 3.02009 -0.822184 0
M  V30 375 C 40.9605 4.35066 -1.43113 0
M  V30 376 N 42.4515 4.41711 -1.39448 0
M  V30 377 C 43.1865 5.43237 -1.83525 0
M  V30 378 N 42.6825 6.51555 -2.35474 0
M  V30 379 N 44.4755 5.34304 -1.74574 0
M  V30 380 H 36.6265 1.46941 -1.53369 0
M  V30 381 H 38.8895 0.699558 -0.639783 0
M  V30 382 H 38.5955 2.95755 -1.9032 0
M  V30 383 H 38.4695 3.75612 -0.345773 0
M  V30 384 H 40.8565 2.94266 0.221714 0
M  V30 385 H 40.9375 2.16347 -1.36483 0
M  V30 386 H 40.5815 4.43565 -2.47412 0
M  V30 387 H 40.5115 5.19465 -0.863899 0
M  V30 388 H 43.0025 3.64027 -1.01452 0
M  V30 389 H 43.3155 7.25203 -2.67021 0
M  V30 390 H 41.6605 6.52435 -2.39487 0
M  V30 391 H 44.8515 4.48581 -1.33763 0
M  V30 392 H 45.0245 6.13288 -2.09242 0
M  V30 393 N 38.4306 0.297415 1.54768 0
M  V30 394 C 39.8466 -0.0560823 1.59501 0
M  V30 395 C 40.0466 -1.52725 1.31444 0
M  V30 396 O 39.1026 -2.27947 1.08611 0
M  V30 397 C 40.4156 0.338631 2.98787 0
M  V30 398 C 41.9636 0.287097 3.11681 0
M  V30 399 C 42.4386 0.656579 4.53269 0
M  V30 400 N 43.9296 0.608977 4.59179 0
M  V30 401 C 44.6646 0.867385 5.66802 0
M  V30 402 N 44.1606 1.19157 6.82476 0
M  V30 403 N 45.9536 0.794687 5.56454 0
M  V30 404 H 38.1046 1.25624 1.71267 0
M  V30 405 H 40.3676 0.509057 0.799728 0
M  V30 406 H 40.0736 1.36263 3.2423 0
M  V30 407 H 39.9476 -0.309508 3.75928 0
M  V30 408 H 42.3346 -0.727649 2.85988 0
M  V30 409 H 42.4156 0.969809 2.36703 0
M  V30 410 H 42.0596 1.66912 4.7969 0
M  V30 411 H 41.9896 -0.0481649 5.26578 0
M  V30 412 H 44.4806 0.369198 3.76092 0
M  V30 413 H 44.7936 1.37482 7.60473 0
M  V30 414 H 43.1386 1.22958 6.84037 0
M  V30 415 H 46.3296 0.541098 4.64962 0
M  V30 416 H 46.5026 0.999445 6.40246 0
M  V30 417 N 39.9087 -1.5758 0.0250728 0
M  V30 418 C 41.1547 -1.91917 -0.655413 0
M  V30 419 C 41.4877 -0.901433 -1.72011 0
M  V30 420 O 40.7627 0.0764069 -1.9435 0
M  V30 421 C 41.0457 -3.36751 -1.27558 0
M  V30 422 C 40.8987 -4.49258 -0.220719 0
M  V30 423 C 42.2177 -3.81469 -2.19475 0
M  V30 424 H 39.3367 -0.697925 -0.23679 0
M  V30 425 H 41.9787 -1.89825 0.0815036 0
M  V30 426 H 40.1287 -3.38664 -1.90365 0
M  V30 427 H 41.8007 -4.59478 0.409601 0
M  V30 428 H 40.0437 -4.31415 0.454264 0
M  V30 429 H 40.7147 -5.47618 -0.694175 0
M  V30 430 H 43.1907 -3.81266 -1.66659 0
M  V30 431 H 42.0667 -4.83512 -2.59822 0
M  V30 432 H 42.3277 -3.16744 -3.08424 0
M  V30 433 N 41.3868 0.248026 -1.55636 0
M  V30 434 C 42.3498 1.29044 -1.89421 0
M  V30 435 C 43.3498 1.41134 -0.770581 0
M  V30 436 O 44.5398 1.39854 -1.03858 0
M  V30 437 C 41.6718 2.66831 -2.12165 0
M  V30 438 H 42.8648 1.00305 -2.82629 0
M  V30 439 H 40.4178 0.487265 -1.48511 0
M  V30 440 H 41.1528 3.00711 -1.21422 0
M  V30 441 H 40.9378 2.59438 -2.93997 0
M  V30 442 H 42.4278 3.42103 -2.3949 0
M  V30 443 N 42.8649 1.48995 0.513639 0
M  V30 444 C 43.7749 1.67443 1.64317 0
M  V30 445 C 44.7909 0.556947 1.64846 0
M  V30 446 O 45.9669 0.830082 1.83498 0
M  V30 447 C 43.0319 1.72515 3.00732 0
M  V30 448 C 42.0929 2.96009 3.1093 0
M  V30 449 C 41.3259 3.00829 4.40837 0
M  V30 450 O 41.5489 2.13594 5.28898 0
M  V30 451 O 40.4829 3.93168 4.55744 0
M  V30 452 H 44.3089 2.63106 1.51687 0
M  V30 453 H 41.8939 1.32588 0.688543 0
M  V30 454 H 43.7759 1.78277 3.81831 0
M  V30 455 H 42.4509 0.800278 3.13651 0
M  V30 456 H 41.3579 2.9577 2.29065 0
M  V30 457 H 42.6909 3.87934 3.02933 0
M  V30 458 N 44.343 -0.763751 1.37857 0
M  V30 459 C 45.253 -1.90817 1.36478 0
M  V30 460 C 46.269 -1.71997 0.263248 0
M  V30 461 O 47.445 -1.95095 0.499979 0
M  V30 462 C 44.51 -3.2605 1.17864 0
M  V30 463 C 43.571 -3.57467 2.3773 0
M  V30 464 C 42.804 -4.86249 2.19995 0
M  V30 465 O 43.027 -5.57884 1.18836 0
M  V30 466 O 41.961 -5.16911 3.08361 0
M  V30 467 H 45.787 -1.94933 2.32884 0
M  V30 468 H 43.372 -0.907619 1.1867 0
M  V30 469 H 45.254 -4.06924 1.09504 0
M  V30 470 H 43.929 -3.22769 0.245372 0
M  V30 471 H 42.836 -2.76796 2.51664 0
M  V30 472 H 44.169 -3.655 3.29652 0
M  V30 473 N 45.8211 -1.22559 -0.990812 0
M  V30 474 C 47.2371 -0.985996 -1.255 0
M  V30 475 C 47.4371 0.319173 -1.98956 0
M  V30 476 O 46.4931 1.04127 -2.3003 0
M  V30 477 C 47.8061 -2.18607 -2.06474 0
M  V30 478 C 49.3541 -2.22985 -2.19651 0
M  V30 479 C 49.8291 -3.4255 -3.04012 0
M  V30 480 N 51.3201 -3.42725 -3.11599 0
M  V30 481 C 52.0551 -4.31892 -3.7717 0
M  V30 482 N 51.5511 -5.31279 -4.44651 0
M  V30 483 N 53.3441 -4.19662 -3.73952 0
M  V30 484 H 45.4951 -2.06469 -0.49841 0
M  V30 485 H 47.7581 -0.904853 -0.282747 0
M  V30 486 H 47.4641 -3.13267 -1.59865 0
M  V30 487 H 47.3381 -2.18838 -3.07229 0
M  V30 488 H 49.7251 -1.28871 -2.65474 0
M  V30 489 H 49.8061 -2.26791 -1.18319 0
M  V30 490 H 49.4501 -4.36965 -2.58889 0
M  V30 491 H 49.3801 -3.35984 -4.0549 0
M  V30 492 H 51.8711 -2.70807 -2.63575 0
M  V30 493 H 52.1841 -5.95593 -4.92431 0
M  V30 494 H 50.5291 -5.3519 -4.43392 0
M  V30 495 H 53.7201 -3.41268 -3.20396 0
M  V30 496 H 53.8931 -4.89358 -4.24774 0
M  V30 497 N 47.2992 1.18797 -1.03562 0
M  V30 498 C 48.2622 2.20464 -0.626769 0
M  V30 499 C 49.2622 1.57721 0.313173 0
M  V30 500 O 50.4522 1.73917 0.0992615 0
M  V30 501 C 47.5842 3.40802 0.0818498 0
M  V30 502 H 48.7772 2.58149 -1.5264 0
M  V30 503 H 46.3302 1.32593 -0.827578 0
M  V30 504 H 47.0652 3.08642 0.995518 0
M  V30 505 H 46.8502 3.8758 -0.593652 0
M  V30 506 H 48.3402 4.16092 0.354584 0
M  V30 507 N 48.7773 0.814389 1.34928 0
M  V30 508 C 50.0053 0.411136 2.02774 0
M  V30 509 C 50.4203 -0.980316 1.61354 0
M  V30 510 O 49.7773 -1.63299 0.814847 0
M  V30 511 C 49.8283 0.493865 3.58111 0
M  V30 512 O 49.5493 1.83047 3.98027 0
M  V30 513 C 51.0503 0.0844174 4.4322 0
M  V30 514 H 48.2703 0.166037 0.650133 0
M  V30 515 H 50.8143 1.10018 1.72384 0
M  V30 516 H 48.9693 -0.147006 3.87121 0
M  V30 517 H 49.3833 1.79872 4.92693 0
M  V30 518 H 50.8573 0.193404 5.51661 0
M  V30 519 H 51.3343 -0.97113 4.28329 0
M  V30 520 H 51.9403 0.69875 4.19521 0
M  V30 521 N 50.2554 -1.46986 0.568584 0
M  V30 522 C 51.5014 -2.02741 0.0488709 0
M  V30 523 C 51.8344 -1.44077 -1.30214 0
M  V30 524 O 51.1094 -0.600552 -1.84996 0
M  V30 525 C 51.3924 -3.60086 -0.032047 0
M  V30 526 C 51.2454 -4.29162 1.34686 0
M  V30 527 C 52.5644 -4.33838 -0.739798 0
M  V30 528 H 49.6834 -0.736749 0.0192338 0
M  V30 529 H 52.3254 -1.75289 0.733065 0
M  V30 530 H 50.4754 -3.83606 -0.61473 0
M  V30 531 H 52.1474 -4.16948 1.97362 0
M  V30 532 H 50.3904 -3.89073 1.91846 0
M  V30 533 H 51.0614 -5.37826 1.24285 0
M  V30 534 H 53.5374 -4.15378 -0.244939 0
M  V30 535 H 52.4134 -5.43537 -0.765406 0
M  V30 536 H 52.6744 -4.03875 -1.79827 0
M  V30 537 N 51.7335 -0.305618 -1.54608 0
M  V30 538 C 53.0105 0.355652 -1.92339 0
M  V30 539 C 53.3905 1.71324 -1.23335 0
M  V30 540 O 52.7385 2.25473 -0.370702 0
M  V30 541 C 52.9485 0.46572 -3.45879 0
M  V30 542 C 54.2965 0.734426 -4.182 0
M  V30 543 O 55.3205 0.54935 -3.51938 0
M  V30 544 O 54.1795 1.09024 -5.35515 0
M  V30 545 H 51.2735 0.199666 -0.802535 0
M  V30 546 H 53.8195 -0.354017 -1.65966 0
M  V30 547 H 52.5915 -0.488461 -3.88239 0
M  V30 548 H 52.2145 1.22367 -3.78301 0
M  V30 549 N 53.2116 1.57565 -0.0334293 0
M  V30 550 C 54.4576 1.92262 0.645226 0
M  V30 551 C 54.7906 0.910543 1.71531 0
M  V30 552 O 54.0656 -0.066099 1.94388 0
M  V30 553 C 54.3486 3.37422 1.2577 0
M  V30 554 C 54.2016 4.49369 0.196891 0
M  V30 555 C 55.5206 3.82628 2.17449 0
M  V30 556 H 52.6396 0.699171 0.233085 0
M  V30 557 H 55.2816 1.89779 -0.0915694 0
M  V30 558 H 53.4316 3.39669 1.88566 0
M  V30 559 H 55.1036 4.59254 -0.433962 0
M  V30 560 H 53.3466 4.31168 -0.477137 0
M  V30 561 H 54.0176 5.47978 0.665124 0
M  V30 562 H 56.4936 3.82145 1.64634 0
M  V30 563 H 55.3696 4.84883 2.57254 0
M  V30 564 H 55.6306 3.18376 3.0674 0
M  V30 565 N 54.6897 -0.239769 1.55765 0
M  V30 566 C 56.1007 -0.808263 1.68297 0
M  V30 567 C 56.4517 -1.85736 0.632181 0
M  V30 568 O 55.5767 -2.15277 -0.220204 0
M  V30 569 C 56.1717 -1.47284 3.05111 0
M  V30 570 C 54.7307 -1.98895 3.19559 0
M  V30 571 C 53.8777 -0.842575 2.64189 0
M  V30 572 H 56.8287 -0.0154422 1.58692 0
M  V30 573 H 56.8497 -2.34111 2.99954 0
M  V30 574 H 56.3617 -0.709053 3.81568 0
M  V30 575 H 54.4627 -2.78132 2.47938 0
M  V30 576 H 54.5757 -2.18143 4.26556 0
M  V30 577 H 52.9397 -1.24501 2.22197 0
M  V30 578 H 53.7227 -0.0917552 3.43177 0
M  V30 579 N 56.1678 -1.49265 -0.50573 0
M  V30 580 C 57.1308 -1.65075 -1.59006 0
M  V30 581 C 58.1308 -0.522768 -1.52065 0
M  V30 582 O 59.3208 -0.789117 -1.55302 0
M  V30 583 C 56.4528 -1.64369 -2.98656 0
M  V30 584 H 57.6458 -2.61784 -1.46319 0
M  V30 585 H 55.1988 -1.38226 -0.729616 0
M  V30 586 H 55.9338 -0.692272 -3.16825 0
M  V30 587 H 55.7188 -2.46282 -3.05103 0
M  V30 588 H 57.2088 -1.78674 -3.77446 0
M  V30 589 N 57.6459 0.756429 -1.3826 0
M  V30 590 C 58.5559 1.9009 -1.37488 0
M  V30 591 C 59.5719 1.71855 -0.272366 0
M  V30 592 O 60.7479 1.94827 -0.510318 0
M  V30 593 C 57.8129 3.25421 -1.19592 0
M  V30 594 C 56.8739 3.56202 -2.39622 0
M  V30 595 C 56.1069 4.85075 -2.2257 0
M  V30 596 O 56.3299 5.57246 -1.21793 0
M  V30 597 O 55.2639 5.15269 -3.11098 0
M  V30 598 H 59.0899 1.93695 -2.33914 0
M  V30 599 H 56.6749 0.901313 -1.1915 0
M  V30 600 H 58.5569 4.06337 -1.11661 0
M  V30 601 H 57.2319 3.22634 -0.262486 0
M  V30 602 H 56.1389 2.75458 -2.53128 0
M  V30 603 H 57.4719 3.63747 -3.31586 0
M  V30 604 N 59.124 1.23083 0.984299 0
M  V30 605 C 60.349 1.088 1.76571 0
M  V30 606 C 60.774 -0.356657 1.84688 0
M  V30 607 O 60.132 -1.25788 1.30565 0
M  V30 608 C 60.18 1.71371 3.17277 0
M  V30 609 O 59.284 0.973213 4.00752 0
M  V30 610 H 58.625 0.381599 0.543395 0
M  V30 611 H 61.155 1.63057 1.23587 0
M  V30 612 H 61.165 1.76449 3.67872 0
M  V30 613 H 59.84 2.76493 3.10684 0
M  V30 614 H 58.417 0.999078 3.59267 0
M  V30 615 N 60.6021 -1.18246 1.0419 0
M  V30 616 C 61.8511 -1.87588 0.741194 0
M  V30 617 C 62.1641 -1.81303 -0.734066 0
M  V30 618 O 63.3701 -2.46019 -1.14834 0
M  V30 619 C 61.8261 -3.36538 1.27555 0
M  V30 620 C 61.4341 -3.51349 2.77953 0
M  V30 621 C 63.1781 -4.11273 1.05143 0
M  V30 622 C 61.0851 -4.94265 3.2474 0
M  V30 623 H 60.0151 -0.702622 0.273565 0
M  V30 624 H 62.6661 -1.33601 1.25789 0
M  V30 625 H 61.0481 -3.9 0.686703 0
M  V30 626 H 62.2221 -3.08153 3.42605 0
M  V30 627 H 60.5371 -2.90022 2.98791 0
M  V30 628 H 63.1341 -5.16689 1.37611 0
M  V30 629 H 63.4771 -4.16298 -0.0112774 0
M  V30 630 H 64.0101 -3.63987 1.60495 0
M  V30 631 H 60.7491 -4.94408 4.30396 0
M  V30 632 H 60.2691 -5.38172 2.64823 0
M  V30 633 H 61.9481 -5.62987 3.18834 0
M  V30 634 N 62.0802 -0.821533 -1.34494 0
M  V30 635 C 63.0432 -0.247847 -2.27856 0
M  V30 636 C 64.0432 0.573453 -1.50227 0
M  V30 637 O 65.2332 0.389759 -1.69784 0
M  V30 638 C 62.3652 0.652698 -3.34593 0
M  V30 639 H 63.5582 -1.07146 -2.80107 0
M  V30 640 H 61.1112 -0.593291 -1.44602 0
M  V30 641 H 61.8462 1.49943 -2.87555 0
M  V30 642 H 61.6312 0.065292 -3.92046 0
M  V30 643 H 63.1212 1.04793 -4.04238 0
M  V30 644 N 63.5583 1.46682 -0.576371 0
M  V30 645 C 64.5053 2.30241 0.160499 0
M  V30 646 C 65.4753 1.40233 0.890162 0
M  V30 647 O 66.6603 1.69186 0.882084 0
M  V30 648 C 63.8003 3.24578 1.1723 0
M  V30 649 C 62.9133 4.29684 0.446736 0
M  V30 650 C 62.0483 5.11154 1.44551 0
M  V30 651 C 61.0873 6.08015 0.70599 0
M  V30 652 N 60.2243 6.82376 1.65251 0
M  V30 653 H 65.0643 2.92727 -0.558127 0
M  V30 654 H 62.6013 1.44272 -0.287056 0
M  V30 655 H 64.5593 3.77711 1.77172 0
M  V30 656 H 63.1893 2.63916 1.85872 0
M  V30 657 H 62.2413 3.79458 -0.267594 0
M  V30 658 H 63.5533 4.98626 -0.131686 0
M  V30 659 H 62.7073 5.68533 2.11791 0
M  V30 660 H 61.4463 4.42158 2.05786 0
M  V30 661 H 60.4513 5.49796 0.0197725 0
M  V30 662 H 61.6763 6.79028 0.09912 0
M  V30 663 H 59.6223 6.16094 2.25308 0
M  V30 664 H 59.5393 7.47556 1.12673 0
M  V30 665 H 60.8073 7.44316 2.31546 0
M  V30 666 N 65.0364 0.313813 1.54444 0
M  V30 667 C 65.9994 -0.54379 2.22656 0
M  V30 668 C 66.9994 -1.05124 1.21678 0
M  V30 669 O 68.1894 -0.945225 1.46325 0
M  V30 670 C 65.3214 -1.75427 2.92298 0
M  V30 671 H 66.5144 0.0523599 2.99854 0
M  V30 672 H 64.0674 0.0647834 1.56166 0
M  V30 673 H 64.8024 -2.38991 2.19211 0
M  V30 674 H 64.5874 -1.39791 3.66334 0
M  V30 675 H 66.0774 -2.36325 3.44297 0
M  V30 676 N 66.5145 -1.57545 0.0417849 0
M  V30 677 C 67.4465 -2.07904 -0.964799 0
M  V30 678 C 68.4595 -1.00497 -1.28079 0
M  V30 679 O 69.6485 -1.28087 -1.24322 0
M  V30 680 C 66.7485 -2.49928 -2.28887 0
M  V30 681 C 65.9215 -3.80562 -2.15619 0
M  V30 682 C 64.9805 -4.08999 -3.31069 0
M  V30 683 O 64.0065 -4.79061 -3.0739 0
M  V30 684 N 65.2085 -3.6017 -4.55256 0
M  V30 685 H 67.9735 -2.94886 -0.535029 0
M  V30 686 H 65.5345 -1.61252 -0.144681 0
M  V30 687 H 67.5265 -2.66034 -3.04972 0
M  V30 688 H 66.0965 -1.68245 -2.63463 0
M  V30 689 H 65.3165 -3.74129 -1.24183 0
M  V30 690 H 66.6045 -4.66126 -2.03971 0
M  V30 691 H 66.0025 -3.03512 -4.77386 0
M  V30 692 H 64.5595 -3.81532 -5.28466 0
M  V30 693 N 67.9926 0.231505 -1.5589 0
M  V30 694 C 68.9396 1.28682 -1.91598 0
M  V30 695 C 69.9096 1.47071 -0.771974 0
M  V30 696 O 71.0946 1.60802 -1.027 0
M  V30 697 C 68.2346 2.6342 -2.22944 0
M  V30 698 C 67.3476 2.52912 -3.50228 0
M  V30 699 C 66.4826 3.80106 -3.7107 0
M  V30 700 C 65.5216 3.64279 -4.91902 0
M  V30 701 N 64.6586 4.834 -5.09184 0
M  V30 702 H 69.4986 0.975305 -2.81588 0
M  V30 703 H 67.0356 0.470299 -1.39379 0
M  V30 704 H 68.9936 3.41869 -2.39126 0
M  V30 705 H 67.6236 2.92687 -1.36139 0
M  V30 706 H 66.6756 1.6595 -3.42294 0
M  V30 707 H 67.9876 2.37133 -4.38827 0
M  V30 708 H 67.1416 4.66999 -3.87295 0
M  V30 709 H 65.8806 3.98799 -2.80733 0
M  V30 710 H 64.8856 2.7577 -4.75637 0
M  V30 711 H 66.1106 3.47067 -5.83714 0
M  V30 712 H 64.0566 5.02425 -4.21788 0
M  V30 713 H 63.9736 4.70311 -5.91898 0
M  V30 714 H 65.2416 5.71747 -5.29835 0
M  V30 715 N 69.4707 1.49531 0.497807 0
M  V30 716 C 70.6957 1.63159 1.28039 0
M  V30 717 C 71.1207 0.30418 1.85624 0
M  V30 718 O 70.4787 -0.728618 1.66015 0
M  V30 719 C 70.5267 2.70537 2.38416 0
M  V30 720 O 69.6307 2.29931 3.42353 0
M  V30 721 H 68.9717 0.546001 0.377861 0
M  V30 722 H 71.5017 1.9574 0.59558 0
M  V30 723 H 71.5117 2.92802 2.84132 0
M  V30 724 H 70.1867 3.6689 1.95869 0
M  V30 725 H 68.7637 2.18009 3.02533 0
M  V30 726 N 70.9488 -0.749086 1.3866 0
M  V30 727 C 72.3648 -1.05276 1.19955 0
M  V30 728 C 72.5648 -2.01435 0.05134 0
M  V30 729 O 71.6208 -2.45232 -0.60147 0
M  V30 730 C 72.9338 -1.62853 2.52783 0
M  V30 731 C 74.4818 -1.75002 2.59506 0
M  V30 732 C 74.9568 -2.35991 3.92521 0
M  V30 733 N 76.4478 -2.43416 3.94085 0
M  V30 734 C 77.1828 -2.91511 4.9377 0
M  V30 735 N 76.6788 -3.39608 6.03853 0
M  V30 736 N 78.4718 -2.90592 4.81157 0
M  V30 737 H 70.6228 -0.111066 2.12109 0
M  V30 738 H 72.8858 -0.111901 0.941373 0
M  V30 739 H 72.5918 -0.99664 3.37283 0
M  V30 740 H 72.4658 -2.61854 2.715 0
M  V30 741 H 74.8528 -2.37317 1.75398 0
M  V30 742 H 74.9338 -0.74693 2.44652 0
M  V30 743 H 74.5778 -1.74308 4.77053 0
M  V30 744 H 74.5078 -3.3695 4.04688 0
M  V30 745 H 76.9988 -2.09405 3.14576 0
M  V30 746 H 77.3118 -3.74775 6.75843 0
M  V30 747 H 75.6568 -3.37653 6.07466 0
M  V30 748 H 78.8478 -2.52332 3.94267 0
M  V30 749 H 79.0208 -3.27762 5.58996 0
M  V30 750 N 72.4269 -1.23603 -0.977757 0
M  V30 751 C 73.3369 -1.03632 -2.1047 0
M  V30 752 C 74.3529 0.0199435 -1.73989 0
M  V30 753 O 75.5289 -0.176076 -2.00629 0
M  V30 754 C 72.5939 -0.63276 -3.40877 0
M  V30 755 C 71.6549 -1.76437 -3.91367 0
M  V30 756 C 70.8879 -1.37997 -5.15551 0
M  V30 757 O 71.1109 -0.265357 -5.69782 0
M  V30 758 O 70.0449 -2.20201 -5.60174 0
M  V30 759 H 73.8709 -1.98086 -2.30208 0
M  V30 760 H 71.4559 -1.02332 -1.08851 0
M  V30 761 H 73.3379 -0.418761 -4.19314 0
M  V30 762 H 72.0129 0.282754 -3.22463 0
M  V30 763 H 70.9199 -2.03304 -3.14036 0
M  V30 764 H 72.2529 -2.6583 -4.14241 0
M  V30 765 N 73.905 1.17692 -1.04816 0
M  V30 766 C 75.154 1.87192 -0.751132 0
M  V30 767 C 75.467 1.8169 0.724441 0
M  V30 768 O 76.673 2.46625 1.13527 0
M  V30 769 C 75.129 3.35857 -1.29338 0
M  V30 770 C 74.737 3.4987 -2.79812 0
M  V30 771 C 76.481 4.10709 -1.07322 0
M  V30 772 C 74.388 4.92536 -3.27356 0
M  V30 773 H 73.318 0.701162 -0.277288 0
M  V30 774 H 75.969 1.32932 -1.26496 0
M  V30 775 H 74.351 3.89631 -0.707376 0
M  V30 776 H 75.525 3.06332 -3.44235 0
M  V30 777 H 73.84 2.88433 -3.00325 0
M  V30 778 H 76.437 5.15952 -1.4035 0
M  V30 779 H 76.78 4.16299 -0.0108001 0
M  V30 780 H 77.313 3.6313 -1.62423 0
M  V30 781 H 74.052 4.92119 -4.33012 0
M  V30 782 H 73.572 5.3676 -2.67673 0
M  V30 783 H 75.251 5.61288 -3.21815 0
M  V30 784 N 75.3831 0.828654 1.34056 0
M  V30 785 C 76.6301 0.419458 1.98108 0
M  V30 786 C 76.9581 -1.01886 1.65679 0
M  V30 787 O 76.2131 -1.72539 0.923512 0
M  V30 788 C 76.5121 0.575226 3.52741 0
M  V30 789 C 76.1781 1.98012 4.05095 0
M  V30 790 C 74.8401 2.36442 4.19104 0
M  V30 791 C 77.1921 2.89824 4.33188 0
M  V30 792 C 74.5201 3.66009 4.58535 0
M  V30 793 C 76.8721 4.1886 4.74066 0
M  V30 794 C 75.5361 4.5726 4.86281 0
M  V30 795 H 74.8061 0.153491 0.724929 0
M  V30 796 H 77.4531 1.05371 1.59904 0
M  V30 797 H 75.7581 -0.142385 3.91541 0
M  V30 798 H 77.4551 0.239057 4.00287 0
M  V30 799 H 74.0451 1.67162 3.94658 0
M  V30 800 H 78.2291 2.61375 4.21897 0
M  V30 801 H 73.4851 3.95579 4.66184 0
M  V30 802 H 77.6591 4.90086 4.94761 0
M  V30 803 H 75.2861 5.57707 5.16592 0
M  V30 804 N 76.8612 -1.46375 0.584142 0
M  V30 805 C 77.7712 -2.34115 -0.150728 0
M  V30 806 C 78.7872 -1.49838 -0.884567 0
M  V30 807 O 79.9632 -1.82704 -0.847429 0
M  V30 808 C 77.0282 -3.2705 -1.15062 0
M  V30 809 C 76.0892 -4.27228 -0.421293 0
M  V30 810 C 75.3222 -5.15722 -1.37355 0
M  V30 811 O 75.5452 -5.07176 -2.61014 0
M  V30 812 O 74.4792 -5.95383 -0.883355 0
M  V30 813 H 78.3052 -2.98309 0.569708 0
M  V30 814 H 75.8902 -1.45373 0.344535 0
M  V30 815 H 77.7722 -3.84381 -1.72712 0
M  V30 816 H 76.4472 -2.65451 -1.8525 0
M  V30 817 H 75.3542 -3.7358 0.197085 0
M  V30 818 H 76.6872 -4.91616 0.239641 0
M  V30 819 N 78.3393 -0.321999 -1.54275 0
M  V30 820 C 79.5873 0.280489 -2.00144 0
M  V30 821 C 79.9083 1.52777 -1.21178 0
M  V30 822 O 79.1783 1.9338 -0.313187 0
M  V30 823 H 77.7583 0.106632 -0.73935 0
M  V30 824 H 80.4203 -0.438184 -1.8991 0
M  V30 825 H 79.5163 0.537972 -3.07428 0
M  V30 826 N 79.8174 1.5752 -0.0501392 0
M  V30 827 C 81.0664 1.91827 0.623328 0
M  V30 828 C 81.3794 0.930222 1.72065 0
M  V30 829 O 82.5854 1.1653 2.4522 0
M  V30 830 C 81.0414 3.40692 1.16003 0
M  V30 831 C 80.6494 4.479 0.0948811 0
M  V30 832 C 82.3934 3.84034 1.80881 0
M  V30 833 C 80.3004 5.87879 0.644411 0
M  V30 834 H 79.2304 0.715918 0.236596 0
M  V30 835 H 81.8814 1.83115 -0.118861 0
M  V30 836 H 80.2634 3.44405 1.9545 0
M  V30 837 H 81.4374 4.55775 -0.678675 0
M  V30 838 H 79.7524 4.13892 -0.45637 0
M  V30 839 H 82.3494 4.85984 2.22988 0
M  V30 840 H 82.6924 3.20225 2.6601 0
M  V30 841 H 83.2254 3.82833 1.0809 0
M  V30 842 H 79.9644 6.55282 -0.169229 0
M  V30 843 H 79.4844 5.83567 1.38598 0
M  V30 844 H 81.1634 6.37098 1.12763 0
M  V30 845 N 81.2955 -0.223234 1.56011 0
M  V30 846 C 82.2585 -1.26014 1.9145 0
M  V30 847 C 83.2585 -1.3989 0.792937 0
M  V30 848 O 84.4485 -1.38184 1.0607 0
M  V30 849 C 81.5805 -2.63422 2.16383 0
M  V30 850 H 82.7735 -0.95796 2.84189 0
M  V30 851 H 80.3265 -0.463576 1.49267 0
M  V30 852 H 81.0615 -2.98741 1.2619 0
M  V30 853 H 80.8465 -2.54728 2.98088 0
M  V30 854 H 82.3365 -3.38249 2.44903 0
M  V30 855 N 82.7736 -1.49793 -0.48987 0
M  V30 856 C 83.6836 -1.70036 -1.61632 0
M  V30 857 C 84.6996 -0.583102 -1.63939 0
M  V30 858 O 85.8756 -0.859169 -1.82154 0
M  V30 859 C 82.9406 -1.77277 -2.97949 0
M  V30 860 C 82.0016 -3.00918 -3.06181 0
M  V30 861 C 81.2346 -3.07804 -4.35996 0
M  V30 862 O 81.4576 -2.21982 -5.25433 0
M  V30 863 O 80.3916 -4.00369 -4.49431 0
M  V30 864 H 84.2176 -2.65486 -1.47482 0
M  V30 865 H 81.8026 -1.33666 -0.667362 0
M  V30 866 H 83.6846 -1.84329 -3.78947 0
M  V30 867 H 82.3596 -0.850076 -3.12339 0
M  V30 868 H 81.2666 -2.99377 -2.2433 0
M  V30 869 H 82.5996 -3.92704 -2.96723 0
M  V30 870 N 84.2517 0.741722 -1.39055 0
M  V30 871 C 85.1837 1.8657 -1.33133 0
M  V30 872 C 86.1967 1.61001 -0.241329 0
M  V30 873 O 87.3857 1.7136 -0.499784 0
M  V30 874 C 84.4857 3.22457 -1.04283 0
M  V30 875 C 83.6587 3.75435 -2.24427 0
M  V30 876 C 82.7177 4.89867 -1.92138 0
M  V30 877 O 81.7437 5.03879 -2.64754 0
M  V30 878 N 82.9457 5.73738 -0.88347 0
M  V30 879 H 85.7107 1.92156 -2.29991 0
M  V30 880 H 83.2717 0.922172 -1.3307 0
M  V30 881 H 85.2637 3.9657 -0.807128 0
M  V30 882 H 83.8337 3.12181 -0.161807 0
M  V30 883 H 83.0537 2.92751 -2.6399 0
M  V30 884 H 84.3417 4.07563 -3.04581 0
M  V30 885 H 83.7397 5.64999 -0.281517 0
M  V30 886 H 82.2967 6.47947 -0.707662 0
M  V30 887 N 85.7298 1.2412 0.971189 0
M  V30 888 C 86.6778 1.02812 2.08644 0
M  V30 889 C 87.6718 -0.0358403 1.69362 0
M  V30 890 O 88.8778 0.118429 1.7961 0
M  V30 891 H 85.2528 0.315428 0.682649 0
M  V30 892 H 87.2238 1.97397 2.23779 0
M  V30 893 C 85.9728 0.645874 3.41649 0
M  V30 894 H 85.2958 1.45632 3.72332 0
M  V30 895 H 86.7358 0.536366 4.20594 0
M  V30 896 C 85.1948 -0.646713 3.30635 0
M  V30 897 O 85.7248 -1.69338 3.64263 0
M  V30 898 N 83.9308 -0.626115 2.83775 0
M  V30 899 H 83.4778 0.225988 2.56607 0
M  V30 900 H 83.4358 -1.49117 2.76788 0
M  V30 901 N 87.2079 -1.17134 1.05439 0
M  V30 902 C 88.4569 -1.86791 0.761049 0
M  V30 903 C 88.7699 -1.82072 -0.714795 0
M  V30 904 O 89.9759 -2.47223 -1.12218 0
M  V30 905 C 88.4319 -3.35166 1.31117 0
M  V30 906 C 88.0399 -3.48381 2.81664 0
M  V30 907 C 89.7839 -4.10134 1.09499 0
M  V30 908 C 87.6909 -4.90793 3.29964 0
M  V30 909 H 86.6209 -0.699681 0.281002 0
M  V30 910 H 89.2719 -1.3226 1.27199 0
M  V30 911 H 87.6539 -3.8925 0.72803 0
M  V30 912 H 88.8279 -3.04502 3.45855 0
M  V30 913 H 87.1429 -2.86836 3.01851 0
M  V30 914 H 89.7399 -5.152 1.43084 0
M  V30 915 H 90.0829 -4.16287 0.0328772 0
M  V30 916 H 90.6159 -3.62264 1.64346 0
M  V30 917 H 87.3549 -4.89816 4.35616 0
M  V30 918 H 86.8749 -5.35333 2.70516 0
M  V30 919 H 88.5539 -5.59573 3.24787 0
M  V30 920 N 88.686 -0.835752 -1.33615 0
M  V30 921 C 90.097 -0.487099 -1.80234 0
M  V30 922 C 90.448 0.993627 -1.69179 0
M  V30 923 O 89.573 1.77403 -1.23924 0
M  V30 924 C 90.168 -0.877385 -3.27242 0
M  V30 925 C 88.727 -0.580915 -3.7189 0
M  V30 926 C 87.874 -1.0874 -2.5509 0
M  V30 927 H 90.825 -1.02474 -1.2118 0
M  V30 928 H 90.846 -0.186195 -3.80044 0
M  V30 929 H 90.358 -1.95512 -3.35256 0
M  V30 930 H 88.459 0.486881 -3.69405 0
M  V30 931 H 88.572 -1.13396 -4.65487 0
M  V30 932 H 86.936 -0.508392 -2.49575 0
M  V30 933 H 87.719 -2.17184 -2.65868 0
M  V30 934 N 90.1641 1.46063 -0.591896 0
M  V30 935 C 91.4131 2.01547 -0.0786637 0
M  V30 936 C 91.7261 1.46796 1.29268 0
M  V30 937 O 92.9321 1.94157 1.89777 0
M  V30 938 C 91.3881 3.59787 -0.0900024 0
M  V30 939 C 90.9961 4.23534 -1.46023 0
M  V30 940 C 92.7401 4.22895 0.368806 0
M  V30 941 C 90.6471 5.73881 -1.4288 0
M  V30 942 H 89.5771 0.753564 -0.0256388 0
M  V30 943 H 92.2281 1.677 -0.744905 0
M  V30 944 H 90.6101 3.90752 0.642586 0
M  V30 945 H 91.7841 4.04167 -2.21328 0
M  V30 946 H 90.0991 3.72558 -1.85982 0
M  V30 947 H 92.6961 5.33116 0.411258 0
M  V30 948 H 93.0391 3.9247 1.38827 0
M  V30 949 H 93.5721 3.9659 -0.31001 0
M  V30 950 H 90.3111 6.0898 -2.42536 0
M  V30 951 H 89.8311 5.95486 -0.718095 0
M  V30 952 H 91.5101 6.36776 -1.14565 0
M  V30 953 N 91.6422 0.330177 1.54103 0
M  V30 954 C 92.8722 -0.271784 2.04805 0
M  V30 955 C 93.2802 -1.45816 1.20559 0
M  V30 956 O 92.6232 -1.82247 0.2306 0
M  V30 957 C 92.6852 -0.763238 3.51305 0
M  V30 958 C 92.3492 0.301705 4.56003 0
M  V30 959 C 93.3462 1.13999 5.07248 0
M  V30 960 C 91.0312 0.451793 5.00264 0
M  V30 961 C 93.0252 2.11402 6.01322 0
M  V30 962 C 90.7122 1.42924 5.94151 0
M  V30 963 C 91.7102 2.25882 6.44567 0
M  V30 964 O 91.3982 3.21965 7.3661 0
M  V30 965 H 91.1302 -0.058693 0.673447 0
M  V30 966 H 93.6842 0.476395 1.99799 0
M  V30 967 H 91.9142 -1.56244 3.5373 0
M  V30 968 H 93.6032 -1.28427 3.85047 0
M  V30 969 H 94.3692 1.03505 4.73827 0
M  V30 970 H 90.2482 -0.184044 4.60632 0
M  V30 971 H 93.7922 2.76192 6.40596 0
M  V30 972 H 89.6892 1.53479 6.26988 0
M  V30 973 H 90.4572 3.17281 7.54503 0
M  V30 974 N 93.1203 -1.57491 0.0584922 0
M  V30 975 C 94.3683 -1.92597 -0.612436 0
M  V30 976 C 94.6893 -0.938162 -1.70949 0
M  V30 977 O 93.9593 0.0158301 -1.95894 0
M  V30 978 H 92.5393 -0.710964 -0.229214 0
M  V30 979 H 95.2013 -1.94571 0.113218 0
M  V30 980 H 94.2973 -2.94038 -1.04633 0
M  V30 981 N 94.5984 0.214957 -1.56127 0
M  V30 982 C 95.8444 0.939762 -1.79712 0
M  V30 983 C 96.1774 1.83723 -0.629247 0
M  V30 984 O 95.4524 1.90925 0.371197 0
M  V30 985 C 95.7354 1.77306 -3.13424 0
M  V30 986 C 95.5884 0.90164 -4.40671 0
M  V30 987 C 96.9074 2.74956 -3.43638 0
M  V30 988 H 94.0264 0.340214 -0.653776 0
M  V30 989 H 96.6684 0.20824 -1.88855 0
M  V30 990 H 94.8184 2.39673 -3.0576 0
M  V30 991 H 96.4904 0.294206 -4.60361 0
M  V30 992 H 94.7334 0.207368 -4.33304 0
M  V30 993 H 95.4044 1.51923 -5.30682 0
M  V30 994 H 97.8804 2.22724 -3.51473 0
M  V30 995 H 96.7564 3.30358 -4.38355 0
M  V30 996 H 97.0174 3.53023 -2.66134 0
M  V30 997 N 96.0765 1.50051 0.48192 0
M  V30 998 C 97.3045 1.64237 1.25832 0
M  V30 999 C 97.7195 0.321336 1.86045 0
M  V30 1000 O 97.0765 -0.695478 1.68729 0
M  V30 1001 C 97.1275 2.72548 2.37487 0
M  V30 1002 O 96.8485 3.99529 1.79745 0
M  V30 1003 C 98.3495 2.9761 3.28547 0
M  V30 1004 H 95.5695 0.55237 0.380957 0
M  V30 1005 H 98.1135 1.96207 0.576467 0
M  V30 1006 H 96.2685 2.43303 3.01467 0
M  V30 1007 H 96.6825 4.59342 2.5319 0
M  V30 1008 H 98.1565 3.77084 4.03127 0
M  V30 1009 H 98.6335 2.0826 3.86684 0
M  V30 1010 H 99.2395 3.28345 2.70314 0
M  V30 1011 N 97.5546 -0.734337 1.39446 0
M  V30 1012 C 98.7826 -1.52358 1.39981 0
M  V30 1013 C 99.1976 -1.88799 -0.0054975 0
M  V30 1014 O 98.5546 -1.54146 -0.976998 0
M  V30 1015 C 98.6056 -2.81072 2.27333 0
M  V30 1016 O 98.3266 -2.46178 3.62392 0
M  V30 1017 C 99.8276 -3.75096 2.36259 0
M  V30 1018 H 97.0476 -0.470806 0.478103 0
M  V30 1019 H 99.5916 -0.907339 1.83269 0
M  V30 1020 H 97.7466 -3.39026 1.87457 0
M  V30 1021 H 98.1606 -3.28866 4.08592 0
M  V30 1022 H 99.6346 -4.62305 3.01626 0
M  V30 1023 H 100.112 -4.16892 1.38194 0
M  V30 1024 H 100.718 -3.23061 2.76608 0
M  V30 1025 N 99.0327 -1.24633 -0.964593 0
M  V30 1026 C 100.281 -1.08573 -1.70459 0
M  V30 1027 C 100.602 0.375655 -1.91347 0
M  V30 1028 O 99.8717 1.26779 -1.49345 0
M  V30 1029 H 98.4517 -0.398784 -0.631649 0
M  V30 1030 H 101.114 -1.56601 -1.16026 0
M  V30 1031 H 100.21 -1.58623 -2.68785 0
M  V30 1032 N 100.511 1.16574 -1.06058 0
M  V30 1033 C 101.741 1.90675 -0.795397 0
M  V30 1034 C 102.149 1.77547 0.653735 0
M  V30 1035 O 101.492 1.11611 1.45907 0
M  V30 1036 C 101.554 3.42011 -1.10764 0
M  V30 1037 C 101.218 3.78924 -2.55471 0
M  V30 1038 C 102.215 3.81042 -3.53699 0
M  V30 1039 C 99.8998 4.09626 -2.90708 0
M  V30 1040 C 101.894 4.13346 -4.85205 0
M  V30 1041 C 99.5808 4.41597 -4.22416 0
M  V30 1042 C 100.579 4.43436 -5.19474 0
M  V30 1043 O 100.267 4.74649 -6.48817 0
M  V30 1044 H 99.9988 0.611554 -0.288058 0
M  V30 1045 H 102.553 1.48711 -1.41683 0
M  V30 1046 H 100.783 3.84312 -0.429128 0
M  V30 1047 H 102.472 3.97384 -0.827077 0
M  V30 1048 H 103.238 3.57437 -3.27817 0
M  V30 1049 H 99.1168 4.07361 -2.15819 0
M  V30 1050 H 102.661 4.14696 -5.60957 0
M  V30 1051 H 98.5578 4.64667 -4.48056 0
M  V30 1052 H 99.3258 4.9247 -6.5377 0
M  V30 1053 N 101.989 0.842826 1.3317 0
M  V30 1054 C 103.237 0.439577 1.97262 0
M  V30 1055 C 103.558 -1.00548 1.67078 0
M  V30 1056 O 102.828 -1.70098 0.971779 0
M  V30 1057 H 101.408 0.159558 0.72976 0
M  V30 1058 H 104.07 1.07665 1.62463 0
M  V30 1059 H 103.166 0.574886 3.0676 0
M  V30 1060 N 103.467 -1.45747 0.599634 0
M  V30 1061 C 104.377 -2.34262 -0.125888 0
M  V30 1062 C 105.393 -1.50768 -0.868625 0
M  V30 1063 O 106.569 -1.83592 -0.828003 0
M  V30 1064 C 103.634 -3.28252 -1.11587 0
M  V30 1065 C 102.695 -4.27651 -0.375956 0
M  V30 1066 C 101.928 -5.1715 -1.31877 0
M  V30 1067 O 102.151 -5.09916 -2.55621 0
M  V30 1068 O 101.085 -5.96286 -0.820157 0
M  V30 1069 H 104.911 -2.97688 0.601315 0
M  V30 1070 H 102.496 -1.44999 0.359934 0
M  V30 1071 H 104.378 -3.86191 -1.68626 0
M  V30 1072 H 103.053 -2.67401 -1.82424 0
M  V30 1073 H 101.96 -3.7335 0.236698 0
M  V30 1074 H 103.293 -4.91334 0.29177 0
M  V30 1075 N 104.945 -0.338344 -1.53925 0
M  V30 1076 C 105.878 0.563758 -2.21127 0
M  V30 1077 C 106.856 1.10433 -1.19345 0
M  V30 1078 O 108.04 1.16557 -1.48144 0
M  V30 1079 C 105.167 1.77505 -2.88461 0
M  V30 1080 C 104.213 1.3644 -4.04087 0
M  V30 1081 S 105.046 0.388593 -5.34088 0
M  V30 1082 C 106.202 1.60683 -6.04923 0
M  V30 1083 H 106.435 -0.00704546 -2.97299 0
M  V30 1084 H 103.968 -0.122418 -1.53914 0
M  V30 1085 H 105.926 2.46999 -3.27875 0
M  V30 1086 H 104.587 2.31706 -2.12064 0
M  V30 1087 H 103.78 2.26739 -4.50117 0
M  V30 1088 H 103.382 0.748998 -3.66423 0
M  V30 1089 H 105.674 2.54209 -6.28 0
M  V30 1090 H 106.617 1.18842 -6.98056 0
M  V30 1091 H 107.025 1.80052 -5.35015 0
M  V30 1092 N 106.423 1.57458 -0.0668435 0
M  V30 1093 C 107.672 1.92477 0.602947 0
M  V30 1094 C 107.985 0.948419 1.71068 0
M  V30 1095 O 109.191 1.19124 2.43971 0
M  V30 1096 C 107.647 3.41903 1.12383 0
M  V30 1097 C 107.255 4.47975 0.04737 0
M  V30 1098 C 108.999 3.85931 1.76797 0
M  V30 1099 C 106.906 5.88529 0.582022 0
M  V30 1100 H 105.836 0.718387 0.22899 0
M  V30 1101 H 108.487 1.82978 -0.138276 0
M  V30 1102 H 106.869 3.46459 1.91787 0
M  V30 1103 H 108.043 4.55029 -0.726978 0
M  V30 1104 H 106.358 4.13384 -0.500243 0
M  V30 1105 H 108.955 4.88322 2.17821 0
M  V30 1106 H 109.298 3.23029 2.62599 0
M  V30 1107 H 109.831 3.83958 1.04024 0
M  V30 1108 H 106.57 6.55065 -0.238721 0
M  V30 1109 H 106.09 5.85004 1.324 0
M  V30 1110 H 107.769 6.38258 1.05999 0
M  V30 1111 N 107.901 -0.206675 1.56239 0
M  V30 1112 C 109.131 -0.943975 1.83773 0
M  V30 1113 C 109.539 -1.77841 0.645703 0
M  V30 1114 O 108.882 -1.79403 -0.395008 0
M  V30 1115 C 108.944 -1.899 3.05251 0
M  V30 1116 C 108.608 -1.24764 4.39639 0
M  V30 1117 C 109.605 -0.630216 5.16066 0
M  V30 1118 C 107.29 -1.25496 4.8637 0
M  V30 1119 C 109.284 -0.0287946 6.37393 0
M  V30 1120 C 106.971 -0.649698 6.07637 0
M  V30 1121 C 107.969 -0.0376845 6.8299 0
M  V30 1122 O 107.657 0.55812 8.0196 0
M  V30 1123 H 107.389 -0.281508 0.614597 0
M  V30 1124 H 109.943 -0.222458 2.04192 0
M  V30 1125 H 108.173 -2.6599 2.80689 0
M  V30 1126 H 109.862 -2.5031 3.1953 0
M  V30 1127 H 110.628 -0.616785 4.81062 0
M  V30 1128 H 106.507 -1.72072 4.27683 0
M  V30 1129 H 110.051 0.449518 6.9615 0
M  V30 1130 H 105.948 -0.660592 6.42111 0
M  V30 1131 H 106.716 0.453891 8.17241 0
M  V30 1132 N 109.379 -1.50304 -0.473955 0
M  V30 1133 C 110.312 -1.63595 -1.59097 0
M  V30 1134 C 111.29 -0.484142 -1.55225 0
M  V30 1135 O 112.474 -0.703271 -1.7489 0
M  V30 1136 C 109.601 -1.61589 -2.97669 0
M  V30 1137 C 108.647 -2.82295 -3.19705 0
M  V30 1138 S 109.48 -4.43635 -2.99913 0
M  V30 1139 C 110.636 -4.44317 -4.40832 0
M  V30 1140 H 110.869 -2.58082 -1.47583 0
M  V30 1141 H 108.402 -1.39531 -0.661087 0
M  V30 1142 H 110.36 -1.61116 -3.7756 0
M  V30 1143 H 109.021 -0.683421 -3.06575 0
M  V30 1144 H 108.214 -2.77188 -4.20931 0
M  V30 1145 H 107.816 -2.8032 -2.47582 0
M  V30 1146 H 110.108 -4.17703 -5.33414 0
M  V30 1147 H 111.051 -5.45911 -4.50984 0
M  V30 1148 H 111.459 -3.74059 -4.22777 0
M  V30 1149 N 110.857 0.726932 -1.39834 0
M  V30 1150 C 111.789 1.85147 -1.35104 0
M  V30 1151 C 112.802 1.60736 -0.258392 0
M  V30 1152 O 113.991 1.70821 -0.517931 0
M  V30 1153 C 111.091 3.21332 -1.07697 0
M  V30 1154 C 110.264 3.73033 -2.28396 0
M  V30 1155 C 109.323 4.87802 -1.97322 0
M  V30 1156 O 108.349 5.01043 -2.70083 0
M  V30 1157 N 109.551 5.72768 -0.944273 0
M  V30 1158 H 112.316 1.89706 -2.32017 0
M  V30 1159 H 109.877 0.908006 -1.3404 0
M  V30 1160 H 111.869 3.95691 -0.849144 0
M  V30 1161 H 110.439 3.11992 -0.194909 0
M  V30 1162 H 109.659 2.89934 -2.6708 0
M  V30 1163 H 110.947 4.0431 -3.08887 0
M  V30 1164 H 110.345 5.64669 -0.341427 0
M  V30 1165 H 108.902 6.4716 -0.776346 0
M  V30 1166 N 112.336 1.25143 0.95797 0
M  V30 1167 C 113.582 1.09855 1.70469 0
M  V30 1168 C 113.915 -0.360187 1.90831 0
M  V30 1169 O 113.19 -1.26568 1.47685 0
M  V30 1170 C 113.473 1.8497 3.08963 0
M  V30 1171 C 113.326 3.38652 2.96032 0
M  V30 1172 C 114.645 1.63016 4.08795 0
M  V30 1173 H 111.764 0.400465 0.618706 0
M  V30 1174 H 114.406 1.53933 1.11376 0
M  V30 1175 H 112.556 1.47505 3.59409 0
M  V30 1176 H 114.228 3.85772 2.52938 0
M  V30 1177 H 112.471 3.66534 2.32025 0
M  V30 1178 H 113.142 3.8642 3.94187 0
M  V30 1179 H 115.618 1.95625 3.67247 0
M  V30 1180 H 114.494 2.18015 5.03747 0
M  V30 1181 H 114.755 0.570692 4.38401 0
M  V30 1182 N 113.814 -1.1601 1.06675 0
M  V30 1183 C 115.091 -1.82679 0.699114 0
M  V30 1184 C 115.471 -1.94559 -0.819137 0
M  V30 1185 O 114.819 -1.49169 -1.73092 0
M  V30 1186 C 115.029 -3.19445 1.40555 0
M  V30 1187 C 116.377 -3.95171 1.55323 0
M  V30 1188 O 117.401 -3.28976 1.36577 0
M  V30 1189 O 116.26 -5.13833 1.86112 0
M  V30 1190 H 113.354 -0.788954 0.247951 0
M  V30 1191 H 115.9 -1.23179 1.16726 0
M  V30 1192 H 114.672 -3.05856 2.44065 0
M  V30 1193 H 114.295 -3.86625 0.927733 0
M  V30 1194 N 115.292 -0.849877 -1.32721 0
M  V30 1195 C 116.239 -0.289033 -2.28983 0
M  V30 1196 C 117.209 0.601324 -1.54833 0
M  V30 1197 O 118.394 0.537253 -1.8308 0
M  V30 1198 C 115.534 0.520623 -3.4115 0
M  V30 1199 C 114.647 -0.394989 -4.3019 0
M  V30 1200 C 113.782 0.426834 -5.29482 0
M  V30 1201 C 112.821 -0.486476 -6.10164 0
M  V30 1202 N 111.958 0.297879 -7.01468 0
M  V30 1203 H 116.798 -1.11519 -2.76347 0
M  V30 1204 H 114.335 -0.56138 -1.35967 0
M  V30 1205 H 116.293 1.00563 -4.04899 0
M  V30 1206 H 114.923 1.31165 -2.9495 0
M  V30 1207 H 113.975 -0.99836 -3.67065 0
M  V30 1208 H 115.287 -1.09612 -4.86607 0
M  V30 1209 H 114.441 0.975205 -5.98811 0
M  V30 1210 H 113.18 1.16136 -4.73671 0
M  V30 1211 H 112.185 -1.04677 -5.39743 0
M  V30 1212 H 113.41 -1.21953 -6.6806 0
M  V30 1213 H 111.356 1.01558 -6.48091 0
M  V30 1214 H 111.273 -0.344318 -7.55216 0
M  V30 1215 H 112.541 0.828131 -7.75089 0
M  V30 1216 N 116.77 1.45427 -0.607355 0
M  V30 1217 C 117.995 2.07124 -0.107006 0
M  V30 1218 C 118.42 1.44906 1.19933 0
M  V30 1219 O 117.778 0.541687 1.73019 0
M  V30 1220 C 117.826 3.60595 0.0194119 0
M  V30 1221 O 116.93 3.98285 1.0697 0
M  V30 1222 H 116.271 0.659868 -0.0739597 0
M  V30 1223 H 118.801 1.86683 -0.837297 0
M  V30 1224 H 118.811 4.07419 0.2177 0
M  V30 1225 H 117.486 4.05266 -0.934453 0
M  V30 1226 H 116.063 3.63133 0.847889 0
M  V30 1227 N 118.248 0.346503 1.53744 0
M  V30 1228 C 119.195 -0.508914 2.25119 0
M  V30 1229 C 120.165 -1.09315 1.25058 0
M  V30 1230 O 121.35 -1.12921 1.53797 0
M  V30 1231 C 118.49 -1.65246 3.02965 0
M  V30 1232 C 117.603 -1.09525 4.17886 0
M  V30 1233 C 116.738 -2.20634 4.83212 0
M  V30 1234 C 115.777 -1.62279 5.90196 0
M  V30 1235 N 114.914 -2.67143 6.49291 0
M  V30 1236 H 119.754 0.106283 2.9781 0
M  V30 1237 H 117.291 0.0642227 1.4696 0
M  V30 1238 H 119.249 -2.32574 3.4636 0
M  V30 1239 H 117.879 -2.2386 2.32565 0
M  V30 1240 H 116.931 -0.312818 3.79112 0
M  V30 1241 H 118.243 -0.628444 4.94825 0
M  V30 1242 H 117.397 -2.95821 5.29693 0
M  V30 1243 H 116.136 -2.70659 4.05703 0
M  V30 1244 H 115.141 -0.855989 5.43096 0
M  V30 1245 H 116.366 -1.13102 6.69615 0
M  V30 1246 H 114.312 -3.16417 5.74645 0
M  V30 1247 H 114.229 -2.25093 7.21713 0
M  V30 1248 H 115.497 -3.4209 7.00425 0
M  V30 1249 N 119.726 -1.57421 0.075193 0
M  V30 1250 C 120.636 -2.1642 -0.905511 0
M  V30 1251 C 121.652 -1.12828 -1.32461 0
M  V30 1252 O 122.828 -1.45109 -1.39661 0
M  V30 1253 C 119.893 -2.71693 -2.15369 0
M  V30 1254 C 118.954 -3.90171 -1.79068 0
M  V30 1255 C 118.187 -4.42798 -2.97936 0
M  V30 1256 O 118.41 -3.94416 -4.12058 0
M  V30 1257 O 117.344 -5.34085 -2.77555 0
M  V30 1258 H 121.17 -3.00588 -0.433626 0
M  V30 1259 H 118.755 -1.48664 -0.148067 0
M  V30 1260 H 120.637 -3.07104 -2.88557 0
M  V30 1261 H 119.312 -1.90582 -2.61649 0
M  V30 1262 H 118.219 -3.59606 -1.03122 0
M  V30 1263 H 119.552 -4.72584 -1.37569 0
M  V30 1264 N 121.204 0.198386 -1.56346 0
M  V30 1265 C 122.45 0.920648 -1.80698 0
M  V30 1266 C 122.783 1.83045 -0.648697 0
M  V30 1267 O 122.058 1.91308 0.350925 0
M  V30 1268 C 122.341 1.73971 -3.15287 0
M  V30 1269 C 122.194 0.85485 -4.41602 0
M  V30 1270 C 123.513 2.71296 -3.46535 0
M  V30 1271 H 120.632 0.333261 -0.657348 0
M  V30 1272 H 123.274 0.188198 -1.89066 0
M  V30 1273 H 121.424 2.36416 -3.08285 0
M  V30 1274 H 123.096 0.245362 -4.60647 0
M  V30 1275 H 121.339 0.161398 -4.335 0
M  V30 1276 H 122.01 1.46286 -5.32264 0
M  V30 1277 H 124.486 2.18983 -3.53816 0
M  V30 1278 H 123.362 3.2569 -4.41834 0
M  V30 1279 H 123.623 3.5018 -2.69864 0
M  V30 1280 N 122.682 1.50554 0.465978 0
M  V30 1281 C 123.592 1.72585 1.58907 0
M  V30 1282 C 124.608 0.60911 1.6299 0
M  V30 1283 O 125.784 0.88804 1.80765 0
M  V30 1284 C 122.849 1.81995 2.95091 0
M  V30 1285 C 121.91 3.05751 3.01355 0
M  V30 1286 C 121.143 3.14702 4.31043 0
M  V30 1287 O 121.366 2.30313 5.21835 0
M  V30 1288 O 120.3 4.07468 4.43005 0
M  V30 1289 H 124.126 2.67799 1.43239 0
M  V30 1290 H 121.711 1.34711 0.646013 0
M  V30 1291 H 123.593 1.90335 3.75966 0
M  V30 1292 H 122.268 0.899659 3.10947 0
M  V30 1293 H 121.175 3.02908 2.19539 0
M  V30 1294 H 122.508 3.97375 2.90437 0
M  V30 1295 N 124.16 -0.719506 1.40217 0
M  V30 1296 C 125.09 -1.8465 1.42922 0
M  V30 1297 C 126.071 -1.67599 0.29062 0
M  V30 1298 O 127.256 -1.87688 0.498677 0
M  V30 1299 C 124.386 -3.22565 1.28722 0
M  V30 1300 C 123.34 -3.54281 2.40144 0
M  V30 1301 C 122.666 -4.91298 2.11023 0
M  V30 1302 C 123.966 -3.55676 3.82481 0
M  V30 1303 H 125.66 -1.82644 2.37237 0
M  V30 1304 H 123.206 -0.877305 1.1419 0
M  V30 1305 H 125.159 -4.01095 1.29232 0
M  V30 1306 H 123.883 -3.25137 0.308811 0
M  V30 1307 H 122.542 -2.78088 2.38877 0
M  V30 1308 H 122.19 -4.90468 1.11582 0
M  V30 1309 H 121.89 -5.13485 2.8567 0
M  V30 1310 H 123.414 -5.72166 2.13209 0
M  V30 1311 H 124.828 -4.24254 3.85592 0
M  V30 1312 H 123.225 -3.89388 4.56614 0
M  V30 1313 H 124.295 -2.55144 4.12346 0
M  V30 1314 N 125.638 -1.25649 -0.95132 0
M  V30 1315 C 126.57 -1.02112 -2.05197 0
M  V30 1316 C 127.583 0.0150571 -1.62793 0
M  V30 1317 O 128.772 -0.223874 -1.77091 0
M  V30 1318 C 125.872 -0.522361 -3.3485 0
M  V30 1319 C 125.045 -1.62546 -4.06076 0
M  V30 1320 C 124.104 -1.12649 -5.14001 0
M  V30 1321 O 123.13 -1.82156 -5.39266 0
M  V30 1322 N 124.332 0.03047 -5.80492 0
M  V30 1323 H 127.097 -1.96885 -2.25957 0
M  V30 1324 H 124.658 -1.16899 -1.1201 0
M  V30 1325 H 126.65 -0.172961 -4.0433 0
M  V30 1326 H 125.22 0.33151 -3.10837 0
M  V30 1327 H 124.44 -2.14628 -3.30649 0
M  V30 1328 H 125.728 -2.36644 -4.50419 0
M  V30 1329 H 125.126 0.611169 -5.62389 0
M  V30 1330 H 123.683 0.320875 -6.5101 0
M  V30 1331 N 127.117 1.15442 -1.07289 0
M  V30 1332 C 128.345 1.90096 -0.81676 0
M  V30 1333 C 128.76 1.7798 0.629966 0
M  V30 1334 O 128.117 1.1313 1.43206 0
M  V30 1335 C 128.168 3.40466 -1.21512 0
M  V30 1336 O 127.889 3.52232 -2.60508 0
M  V30 1337 C 129.39 4.32145 -0.988198 0
M  V30 1338 H 126.61 0.602495 -0.295366 0
M  V30 1339 H 129.154 1.4627 -1.42918 0
M  V30 1340 H 127.309 3.81958 -0.647039 0
M  V30 1341 H 127.723 4.45549 -2.76742 0
M  V30 1342 H 129.197 5.36072 -1.31645 0
M  V30 1343 H 129.674 4.39135 0.0755063 0
M  V30 1344 H 130.28 3.96395 -1.54115 0
M  V30 1345 N 128.595 0.856903 1.32268 0
M  V30 1346 C 129.543 0.291987 2.3076 0
M  V30 1347 C 130.537 -0.585857 1.58947 0
M  V30 1348 O 131.743 -0.47341 1.73663 0
M  V30 1349 H 128.118 0.075721 0.748178 0
M  V30 1350 H 130.089 1.13687 2.75895 0
M  V30 1351 C 128.838 -0.502869 3.44044 0
M  V30 1352 H 128.161 0.163328 3.99466 0
M  V30 1353 H 129.601 -0.863691 4.1511 0
M  V30 1354 C 128.06 -1.68898 2.91505 0
M  V30 1355 O 128.59 -2.78811 2.89184 0
M  V30 1356 N 126.796 -1.51679 2.47875 0
M  V30 1357 H 126.343 -0.622666 2.49961 0
M  V30 1358 H 126.301 -2.31184 2.13076 0
M  V30 1359 N 130.073 -1.45103 0.615059 0
M  V30 1360 C 131.003 -2.33339 -0.0865619 0
M  V30 1361 C 131.984 -1.4727 -0.851209 0
M  V30 1362 O 133.169 -1.76026 -0.820281 0
M  V30 1363 C 130.299 -3.30095 -1.07956 0
M  V30 1364 C 129.253 -4.25858 -0.427628 0
M  V30 1365 C 128.579 -5.12361 -1.5294 0
M  V30 1366 C 129.879 -5.18165 0.655944 0
M  V30 1367 H 131.573 -2.92254 0.650224 0
M  V30 1368 H 129.119 -1.40532 0.314138 0
M  V30 1369 H 131.072 -3.90698 -1.57901 0
M  V30 1370 H 129.796 -2.69355 -1.84703 0
M  V30 1371 H 128.455 -3.66564 0.0510292 0
M  V30 1372 H 128.103 -4.47984 -2.28734 0
M  V30 1373 H 127.803 -5.77238 -1.09865 0
M  V30 1374 H 129.327 -5.75833 -2.03098 0
M  V30 1375 H 130.741 -5.72796 0.240257 0
M  V30 1376 H 129.138 -5.91559 1.00888 0
M  V30 1377 H 130.208 -4.60144 1.52957 0
M  V30 1378 N 131.551 -0.354651 -1.53558 0
M  V30 1379 C 132.797 0.238797 -2.01389 0
M  V30 1380 C 133.13 1.49309 -1.2418 0
M  V30 1381 O 132.405 1.91638 -0.332457 0
M  V30 1382 C 132.688 0.541771 -3.56001 0
M  V30 1383 C 132.541 -0.725388 -4.43912 0
M  V30 1384 C 133.86 1.34685 -4.18984 0
M  V30 1385 H 130.979 0.0853177 -0.732045 0
M  V30 1386 H 133.621 -0.477384 -1.83905 0
M  V30 1387 H 131.771 1.15189 -3.71031 0
M  V30 1388 H 133.443 -1.36313 -4.407 0
M  V30 1389 H 131.686 -1.34801 -4.12324 0
M  V30 1390 H 132.357 -0.468505 -5.50008 0
M  V30 1391 H 134.833 0.830837 -4.07721 0
M  V30 1392 H 133.709 1.52759 -5.27215 0
M  V30 1393 H 133.97 2.35221 -3.74331 0
M  V30 1394 N 133.029 1.57378 -0.0835403 0
M  V30 1395 C 134.445 1.57246 0.273109 0
M  V30 1396 C 134.645 1.09385 1.69225 0
M  V30 1397 O 133.701 0.765051 2.40631 0
M  V30 1398 C 135.014 3.00614 0.0720628 0
M  V30 1399 C 136.562 3.12684 0.1407 0
M  V30 1400 C 137.037 4.57989 -0.0322094 0
M  V30 1401 N 138.528 4.63194 0.0230085 0
M  V30 1402 C 139.263 5.73335 -0.0861941 0
M  V30 1403 N 138.759 6.9235 -0.24958 0
M  V30 1404 N 140.552 5.62093 -0.0282886 0
M  V30 1405 H 132.703 1.86801 -1.0109 0
M  V30 1406 H 134.966 0.861687 -0.395222 0
M  V30 1407 H 134.672 3.39786 -0.907662 0
M  V30 1408 H 134.546 3.68193 0.81936 0
M  V30 1409 H 136.933 2.73391 1.11092 0
M  V30 1410 H 137.014 2.47719 -0.637896 0
M  V30 1411 H 136.658 4.97973 -0.999247 0
M  V30 1412 H 136.588 5.21 0.765937 0
M  V30 1413 H 139.079 3.77613 0.14722 0
M  V30 1414 H 139.392 7.72117 -0.324733 0
M  V30 1415 H 137.737 6.94415 -0.285097 0
M  V30 1416 H 140.928 4.67997 0.0981408 0
M  V30 1417 H 141.101 6.47895 -0.116845 0
M  V30 1418 N 134.507 -0.190092 1.56449 0
M  V30 1419 C 135.732 -0.929864 1.85387 0
M  V30 1420 C 136.157 -1.7585 0.667704 0
M  V30 1421 O 135.515 -1.77198 -0.383459 0
M  V30 1422 C 135.563 -1.79773 3.12593 0
M  V30 1423 O 134.667 -2.89713 2.93496 0
M  V30 1424 H 134.008 -0.261574 0.610307 0
M  V30 1425 H 136.538 -0.193896 2.03679 0
M  V30 1426 H 136.548 -2.20139 3.43515 0
M  V30 1427 H 135.223 -1.18892 3.98544 0
M  V30 1428 H 133.8 -2.53065 2.73884 0
M  V30 1429 N 135.985 -1.50799 -0.457987 0
M  V30 1430 C 136.935 -1.67003 -1.55222 0
M  V30 1431 C 137.919 -0.52434 -1.52117 0
M  V30 1432 O 139.111 -0.779345 -1.58919 0
M  V30 1433 C 136.24 -1.77956 -2.93576 0
M  V30 1434 C 135.326 -2.98243 -3.01516 0
M  V30 1435 N 135.717 -4.21732 -2.79241 0
M  V30 1436 C 134.015 -2.97072 -3.32662 0
M  V30 1437 C 134.716 -5.02817 -2.92489 0
M  V30 1438 N 133.692 -4.37038 -3.23262 0
M  V30 1439 H 137.494 -2.60163 -1.36721 0
M  V30 1440 H 135.008 -1.48163 -0.664952 0
M  V30 1441 H 137.005 -1.87671 -3.72271 0
M  V30 1442 H 135.665 -0.859634 -3.13114 0
M  V30 1443 H 136.676 -4.51016 -2.54567 0
M  V30 1444 H 133.353 -2.14631 -3.58106 0
M  V30 1445 H 134.743 -6.11054 -2.79396 0
M  V30 1446 N 137.463 0.71206 -1.40597 0
M  V30 1447 C 138.688 1.50617 -1.42581 0
M  V30 1448 C 139.113 1.88079 -0.0282102 0
M  V30 1449 O 138.471 1.53511 0.964579 0
M  V30 1450 C 138.519 2.7557 -2.3258 0
M  V30 1451 O 137.623 3.72414 -1.77148 0
M  V30 1452 H 136.964 0.453966 -0.484573 0
M  V30 1453 H 139.494 0.876649 -1.84868 0
M  V30 1454 H 139.504 3.2406 -2.47889 0
M  V30 1455 H 138.179 2.47639 -3.34138 0
M  V30 1456 H 136.756 3.31276 -1.71204 0
M  V30 1457 N 138.941 1.26152 0.944643 0
M  V30 1458 C 139.904 1.07474 2.0244 0
M  V30 1459 C 140.904 0.0242064 1.60782 0
M  V30 1460 O 142.094 0.267302 1.72137 0
M  V30 1461 C 139.226 0.633956 3.34953 0
M  V30 1462 H 140.419 2.03336 2.20442 0
M  V30 1463 H 137.972 1.087 1.12312 0
M  V30 1464 H 138.707 -0.326811 3.22649 0
M  V30 1465 H 138.492 1.39247 3.66542 0
M  V30 1466 H 139.982 0.52501 4.14287 0
M  V30 1467 N 140.419 -1.14872 1.07899 0
M  V30 1468 C 141.667 -1.85422 0.803941 0
M  V30 1469 C 141.988 -1.83051 -0.67211 0
M  V30 1470 O 141.258 -1.27532 -1.48703 0
M  V30 1471 H 139.838 -0.686537 0.294408 0
M  V30 1472 H 142.5 -1.39226 1.3639 0
M  V30 1473 H 141.596 -2.90399 1.14346 0
M  V30 1474 N 141.898 -0.863906 -1.31812 0
M  V30 1475 C 143.144 -0.472535 -1.97218 0
M  V30 1476 C 143.477 0.971394 -1.68159 0
M  V30 1477 O 142.752 1.68309 -0.974798 0
M  V30 1478 C 143.035 -0.723054 -3.52766 0
M  V30 1479 C 142.888 -2.21608 -3.91421 0
M  V30 1480 C 144.207 -0.185522 -4.39709 0
M  V30 1481 H 141.326 -0.173158 -0.71637 0
M  V30 1482 H 143.968 -1.08403 -1.56041 0
M  V30 1483 H 142.118 -0.202577 -3.87971 0
M  V30 1484 H 143.79 -2.80334 -3.66347 0
M  V30 1485 H 142.033 -2.691 -3.40246 0
M  V30 1486 H 142.704 -2.34203 -4.99853 0
M  V30 1487 H 145.18 -0.630726 -4.11292 0
M  V30 1488 H 144.056 -0.390306 -5.47511 0
M  V30 1489 H 144.317 0.912229 -4.32586 0
M  V30 1490 N 143.376 1.44774 -0.622745 0
M  V30 1491 C 144.624 2.01721 -0.123655 0
M  V30 1492 C 144.945 1.49172 1.25589 0
M  V30 1493 O 144.215 0.691974 1.83272 0
M  V30 1494 H 142.795 0.745777 -0.0427225 0
M  V30 1495 H 145.457 1.77382 -0.807559 0
M  V30 1496 H 144.553 3.11984 -0.0849534 0
M  V30 1497 N 144.854 0.36279 1.53368 0
M  V30 1498 C 146.265 -0.117022 1.86333 0
M  V30 1499 C 146.616 -1.48397 1.28347 0
M  V30 1500 O 145.741 -2.07787 0.604428 0
M  V30 1501 C 146.336 -0.21912 3.38091 0
M  V30 1502 C 144.895 -0.643184 3.70864 0
M  V30 1503 C 144.042 0.211318 2.76494 0
M  V30 1504 H 146.993 0.581687 1.47655 0
M  V30 1505 H 147.014 -1.04319 3.6592 0
M  V30 1506 H 146.526 0.775902 3.80265 0
M  V30 1507 H 144.627 -1.64654 3.34245 0
M  V30 1508 H 144.74 -0.41973 4.77258 0
M  V30 1509 H 143.104 -0.319367 2.5269 0
M  V30 1510 H 143.887 1.20383 3.21501 0
M  V30 1511 N 146.332 -1.57332 0.0918853 0
M  V30 1512 C 147.262 -2.16872 -0.865371 0
M  V30 1513 C 148.243 -1.10118 -1.29646 0
M  V30 1514 O 149.428 -1.38242 -1.36392 0
M  V30 1515 C 146.558 -2.74649 -2.12569 0
M  V30 1516 C 145.512 -3.86747 -1.83333 0
M  V30 1517 C 144.838 -4.31212 -3.16166 0
M  V30 1518 C 146.138 -5.10089 -1.1228 0
M  V30 1519 H 147.832 -2.97114 -0.369307 0
M  V30 1520 H 145.378 -1.42918 -0.176194 0
M  V30 1521 H 147.331 -3.14952 -2.7997 0
M  V30 1522 H 146.055 -1.91657 -2.64452 0
M  V30 1523 H 144.714 -3.46978 -1.18331 0
M  V30 1524 H 144.362 -3.45115 -3.6593 0
M  V30 1525 H 144.062 -5.06788 -2.97388 0
M  V30 1526 H 145.586 -4.74146 -3.84731 0
M  V30 1527 H 147 -5.47582 -1.69785 0
M  V30 1528 H 145.397 -5.91073 -1.03693 0
M  V30 1529 H 146.467 -4.84786 -0.105041 0
M  V30 1530 N 147.81 0.181792 -1.56548 0
M  V30 1531 C 149.057 0.900097 -1.81396 0
M  V30 1532 C 149.385 1.82695 -0.667281 0
M  V30 1533 O 148.64 1.92614 0.346146 0
M  V30 1534 C 148.939 1.73728 -3.12335 0
M  V30 1535 C 148.605 0.960255 -4.40556 0
M  V30 1536 C 147.267 0.745766 -4.75386 0
M  V30 1537 C 149.619 0.414477 -5.19549 0
M  V30 1538 C 146.947 -0.0257694 -5.86694 0
M  V30 1539 C 149.299 -0.343916 -6.31664 0
M  V30 1540 C 147.963 -0.569301 -6.65068 0
M  V30 1541 H 147.233 0.329369 -0.663775 0
M  V30 1542 H 149.88 0.165647 -1.90782 0
M  V30 1543 H 148.185 2.54081 -2.98245 0
M  V30 1544 H 149.882 2.29591 -3.28769 0
M  V30 1545 H 146.472 1.13746 -4.13231 0
M  V30 1546 H 150.656 0.567554 -4.93044 0
M  V30 1547 H 145.912 -0.210233 -6.11038 0
M  V30 1548 H 150.086 -0.774133 -6.92084 0
M  V30 1549 H 147.713 -1.16903 -7.51158 0
M  V30 1550 N 149.288 1.51039 0.449983 0
M  V30 1551 C 150.251 1.70863 1.5277 0
M  V30 1552 C 151.251 0.578846 1.5002 0
M  V30 1553 O 152.441 0.846213 1.52266 0
M  V30 1554 C 149.573 1.75341 2.9235 0
M  V30 1555 H 150.766 2.67034 1.36502 0
M  V30 1556 H 148.319 1.40838 0.677812 0
M  V30 1557 H 149.054 0.809383 3.14037 0
M  V30 1558 H 148.839 2.57436 2.95752 0
M  V30 1559 H 150.329 1.92559 3.70555 0
M  V30 1560 N 150.766 -0.704594 1.40972 0
M  V30 1561 C 151.676 -1.84856 1.44448 0
M  V30 1562 C 152.692 -1.70726 0.335961 0
M  V30 1563 O 153.868 -1.92799 0.582276 0
M  V30 1564 C 150.933 -3.20758 1.31587 0
M  V30 1565 C 149.994 -3.47063 2.52677 0
M  V30 1566 C 149.227 -4.76481 2.4042 0
M  V30 1567 O 149.45 -5.52341 1.42391 0
M  V30 1568 O 148.384 -5.03367 3.30007 0
M  V30 1569 H 152.21 -1.8488 2.40942 0
M  V30 1570 H 149.795 -0.85647 1.22413 0
M  V30 1571 H 151.677 -4.01913 1.26665 0
M  V30 1572 H 150.352 -3.21438 0.382049 0
M  V30 1573 H 149.259 -2.65873 2.63177 0
M  V30 1574 H 150.592 -3.5119 3.44858 0
M  V30 1575 N 152.244 -1.26651 -0.937939 0
M  V30 1576 C 153.521 -1.0313 -1.66204 0
M  V30 1577 C 153.901 0.437256 -2.06522 0
M  V30 1578 O 153.249 1.41831 -1.79154 0
M  V30 1579 C 153.459 -1.98314 -2.87181 0
M  V30 1580 C 154.807 -2.27107 -3.58758 0
M  V30 1581 O 155.831 -1.96205 -2.97291 0
M  V30 1582 O 154.69 -2.79736 -4.69479 0
M  V30 1583 H 151.784 -0.392384 -0.727986 0
M  V30 1584 H 154.33 -1.37874 -0.989382 0
M  V30 1585 H 153.102 -2.97399 -2.54302 0
M  V30 1586 H 152.725 -1.64068 -3.6217 0
M  V30 1587 N 153.722 1.14298 -1.08507 0
M  V30 1588 C 154.632 2.23027 -0.727753 0
M  V30 1589 C 155.648 1.71952 0.26619 0
M  V30 1590 O 156.824 2.011 0.109882 0
M  V30 1591 C 153.889 3.46403 -0.143541 0
M  V30 1592 C 152.95 4.12413 -1.19223 0
M  V30 1593 C 152.183 5.29899 -0.635798 0
M  V30 1594 O 152.406 5.67796 0.544393 0
M  V30 1595 O 151.34 5.85717 -1.38634 0
M  V30 1596 H 155.166 2.55945 -1.63481 0
M  V30 1597 H 152.751 1.22248 -0.858817 0
M  V30 1598 H 154.633 4.21018 0.179404 0
M  V30 1599 H 153.308 3.15206 0.736659 0
M  V30 1600 H 152.215 3.39667 -1.56772 0
M  V30 1601 H 153.548 4.47718 -2.04474 0
M  V30 1602 N 155.201 0.870884 1.31352 0
M  V30 1603 C 156.164 0.332243 2.26779 0
M  V30 1604 C 157.164 -0.517302 1.52252 0
M  V30 1605 O 158.354 -0.326477 1.71113 0
M  V30 1606 C 155.486 -0.528066 3.36785 0
M  V30 1607 H 156.679 1.17469 2.75937 0
M  V30 1608 H 154.232 0.64655 1.423 0
M  V30 1609 H 154.967 -1.39167 2.92922 0
M  V30 1610 H 154.752 0.0802582 3.92018 0
M  V30 1611 H 156.242 -0.897179 4.07849 0
M  V30 1612 N 156.679 -1.44442 0.630414 0
M  V30 1613 C 158.095 -1.56832 0.295973 0
M  V30 1614 C 158.295 -1.61806 -1.20088 0
M  V30 1615 O 157.351 -1.5607 -1.9849 0
M  V30 1616 C 158.664 -2.84031 0.987264 0
M  V30 1617 C 160.212 -2.97742 0.96534 0
M  V30 1618 C 160.687 -4.27743 1.63708 0
M  V30 1619 N 162.178 -4.34555 1.60364 0
M  V30 1620 C 162.913 -5.33862 2.09234 0
M  V30 1621 N 162.409 -6.39578 2.66292 0
M  V30 1622 N 164.202 -5.25366 1.99867 0
M  V30 1623 H 156.353 -1.39457 1.60205 0
M  V30 1624 H 158.616 -0.668237 0.672431 0
M  V30 1625 H 158.322 -2.86338 2.04215 0
M  V30 1626 H 158.196 -3.73534 0.524588 0
M  V30 1627 H 160.583 -2.94989 -0.0810639 0
M  V30 1628 H 160.664 -2.09589 1.4665 0
M  V30 1629 H 160.308 -4.31255 2.68293 0
M  V30 1630 H 160.238 -5.14752 1.11076 0
M  V30 1631 H 162.729 -3.58772 1.18705 0
M  V30 1632 H 163.042 -7.11637 3.01317 0
M  V30 1633 H 161.387 -6.40265 2.70343 0
M  V30 1634 H 164.578 -4.41688 1.55013 0
M  V30 1635 H 164.751 -6.02606 2.38265 0
M  V30 1636 N 158.157 -0.370918 -1.53173 0
M  V30 1637 C 159.12 0.460778 -2.24521 0
M  V30 1638 C 160.12 1.00536 -1.25496 0
M  V30 1639 O 161.31 0.890266 -1.49733 0
M  V30 1640 C 158.442 1.64457 -2.98608 0
M  V30 1641 H 159.635 -0.163613 -2.99453 0
M  V30 1642 H 157.188 -0.122699 -1.55818 0
M  V30 1643 H 157.923 2.30691 -2.2793 0
M  V30 1644 H 157.708 1.26099 -3.7127 0
M  V30 1645 H 159.198 2.23384 -3.5283 0
M  V30 1646 N 159.635 1.57281 -0.100228 0
M  V30 1647 C 160.884 1.93713 0.561984 0
M  V30 1648 C 161.197 0.984492 1.69018 0
M  V30 1649 O 162.403 1.24273 2.41389 0
M  V30 1650 C 160.859 3.4421 1.05106 0
M  V30 1651 C 160.467 4.47975 -0.0476628 0
M  V30 1652 C 162.211 3.89595 1.68571 0
M  V30 1653 C 160.118 5.89631 0.457055 0
M  V30 1654 H 159.048 0.723082 0.2137 0
M  V30 1655 H 161.699 1.82644 -0.177057 0
M  V30 1656 H 160.081 3.50449 1.84395 0
M  V30 1657 H 161.255 4.53385 -0.823333 0
M  V30 1658 H 159.57 4.1223 -0.587816 0
M  V30 1659 H 162.167 4.92832 2.07414 0
M  V30 1660 H 162.51 3.28526 2.55688 0
M  V30 1661 H 163.043 3.86078 0.958562 0
M  V30 1662 H 159.782 6.54411 -0.377616 0
M  V30 1663 H 159.302 5.87681 1.19962 0
M  V30 1664 H 160.981 6.40363 0.92437 0
M  V30 1665 N 161.113 -0.173488 1.56642 0
M  V30 1666 C 162.359 -0.891784 1.8214 0
M  V30 1667 C 162.692 -1.8199 0.677736 0
M  V30 1668 O 161.967 -1.91842 -0.320446 0
M  V30 1669 C 162.25 -1.68933 3.18015 0
M  V30 1670 C 162.103 -0.784487 4.42906 0
M  V30 1671 C 163.422 -2.65748 3.50808 0
M  V30 1672 H 160.541 -0.322761 0.662567 0
M  V30 1673 H 163.183 -0.158095 1.89341 0
M  V30 1674 H 161.333 -2.31482 3.12007 0
M  V30 1675 H 163.005 -0.172046 4.60979 0
M  V30 1676 H 161.248 -0.0924117 4.33702 0
M  V30 1677 H 161.919 -1.37799 5.34524 0
M  V30 1678 H 164.395 -2.13327 3.57255 0
M  V30 1679 H 163.271 -3.18619 4.4696 0
M  V30 1680 H 163.532 -3.45842 2.75401 0
M  V30 1681 N 162.591 -1.51276 -0.441967 0
M  V30 1682 C 163.554 -1.7167 -1.51862 0
M  V30 1683 C 164.554 -0.586793 -1.49711 0
M  V30 1684 O 165.744 -0.854276 -1.51815 0
M  V30 1685 C 162.876 -1.76889 -2.91416 0
M  V30 1686 H 164.069 -2.67754 -1.35084 0
M  V30 1687 H 161.622 -1.41196 -0.670333 0
M  V30 1688 H 162.357 -0.826026 -3.13604 0
M  V30 1689 H 162.142 -2.59001 -2.94382 0
M  V30 1690 H 163.632 -1.94522 -3.69528 0
M  V30 1691 N 164.069 0.697108 -1.41344 0
M  V30 1692 C 165.032 1.79281 -1.42797 0
M  V30 1693 C 166.032 1.57607 -0.318837 0
M  V30 1694 O 167.222 1.64309 -0.578642 0
M  V30 1695 C 164.354 3.17632 -1.23785 0
M  V30 1696 H 165.547 1.79385 -2.40335 0
M  V30 1697 H 163.1 0.904582 -1.27464 0
M  V30 1698 H 163.835 3.23167 -0.270814 0
M  V30 1699 H 163.62 3.34765 -2.04144 0
M  V30 1700 H 165.11 3.97617 -1.27633 0
M  V30 1701 N 165.547 1.27147 0.931209 0
M  V30 1702 C 166.963 1.04475 1.20653 0
M  V30 1703 C 167.163 -0.223885 2.00252 0
M  V30 1704 O 166.219 -0.930332 2.34736 0
M  V30 1705 C 167.532 2.28209 1.95809 0
M  V30 1706 C 169.08 2.33211 2.08762 0
M  V30 1707 C 169.555 3.56665 2.87323 0
M  V30 1708 N 171.046 3.57201 2.94892 0
M  V30 1709 C 171.781 4.49395 3.56134 0
M  V30 1710 N 171.277 5.51889 4.18796 0
M  V30 1711 N 173.07 4.37026 3.53504 0
M  V30 1712 H 165.221 2.08612 0.399333 0
M  V30 1713 H 167.484 0.917312 0.239253 0
M  V30 1714 H 167.19 3.20538 1.44736 0
M  V30 1715 H 167.064 2.33247 2.96438 0
M  V30 1716 H 169.451 1.41391 2.59023 0
M  V30 1717 H 169.532 2.32178 1.07364 0
M  V30 1718 H 169.176 4.4882 2.37746 0
M  V30 1719 H 169.106 3.54948 3.88998 0
M  V30 1720 H 171.597 2.83074 2.50354 0
M  V30 1721 H 171.91 6.18409 4.63454 0
M  V30 1722 H 170.255 5.55735 4.17353 0
M  V30 1723 H 173.446 3.56166 3.03749 0
M  V30 1724 H 173.619 5.09067 4.00942 0
M  V30 1725 N 167.025 -1.13721 1.09112 0
M  V30 1726 C 167.955 -2.21148 0.749385 0
M  V30 1727 C 168.936 -1.6792 -0.271475 0
M  V30 1728 O 170.121 -1.93693 -0.140251 0
M  V30 1729 C 167.251 -3.46905 0.165659 0
M  V30 1730 C 166.205 -4.13203 1.11567 0
M  V30 1731 C 165.531 -5.33248 0.393809 0
M  V30 1732 C 166.831 -4.60912 2.45678 0
M  V30 1733 H 168.525 -2.4999 1.64758 0
M  V30 1734 H 166.071 -1.20156 0.793626 0
M  V30 1735 H 168.024 -4.21313 -0.085466 0
M  V30 1736 H 166.748 -3.17449 -0.767714 0
M  V30 1737 H 165.407 -3.40758 1.35202 0
M  V30 1738 H 165.055 -5.00054 -0.543599 0
M  V30 1739 H 164.755 -5.78552 1.02721 0
M  V30 1740 H 166.279 -6.10413 0.150908 0
M  V30 1741 H 167.693 -5.26759 2.26269 0
M  V30 1742 H 166.09 -5.16944 3.04776 0
M  V30 1743 H 167.16 -3.75603 3.06677 0
M  V30 1744 N 168.503 -0.877838 -1.30888 0
M  V30 1745 C 169.451 -0.328662 -2.30266 0
M  V30 1746 C 170.445 0.560496 -1.59859 0
M  V30 1747 O 171.651 0.445722 -1.74394 0
M  V30 1748 H 168.026 -0.0876142 -0.746879 0
M  V30 1749 H 169.997 -1.18061 -2.74051 0
M  V30 1750 C 168.746 0.448071 -3.44801 0
M  V30 1751 H 168.069 -0.226859 -3.99156 0
M  V30 1752 H 169.509 0.797541 -4.16432 0
M  V30 1753 C 167.968 1.64239 -2.94155 0
M  V30 1754 O 168.498 2.74175 -2.93583 0
M  V30 1755 N 166.704 1.47716 -2.50256 0
M  V30 1756 H 166.251 0.582821 -2.5092 0
M  V30 1757 H 166.209 2.27765 -2.16727 0
M  V30 1758 N 169.982 1.44106 -0.638065 0
M  V30 1759 C 171.21 2.06336 -0.152615 0
M  V30 1760 C 171.625 1.47731 1.17563 0
M  V30 1761 O 170.982 0.602806 1.72257 0
M  V30 1762 C 171.033 3.61479 -0.0391491 0
M  V30 1763 O 170.754 4.17903 -1.31487 0
M  V30 1764 C 172.255 4.40757 0.474176 0
M  V30 1765 H 169.475 0.665862 -0.0828776 0
M  V30 1766 H 172.019 1.84862 -0.87443 0
M  V30 1767 H 170.174 3.82191 0.633142 0
M  V30 1768 H 170.588 5.11416 -1.16421 0
M  V30 1769 H 172.062 5.49707 0.502562 0
M  V30 1770 H 172.539 4.12697 1.50258 0
M  V30 1771 H 173.145 4.24979 -0.165102 0
M  V30 1772 N 171.46 0.379036 1.52974 0
M  V30 1773 C 172.39 -0.452706 2.29069 0
M  V30 1774 C 173.371 -1.07237 1.32039 0
M  V30 1775 O 174.556 -1.08708 1.60923 0
M  V30 1776 C 171.686 -1.5856 3.08992 0
M  V30 1777 C 170.64 -1.0925 4.13822 0
M  V30 1778 C 169.966 -2.31668 4.81907 0
M  V30 1779 C 171.266 -0.167702 5.22031 0
M  V30 1780 H 172.96 0.182181 2.98845 0
M  V30 1781 H 170.506 0.0890592 1.43724 0
M  V30 1782 H 172.459 -2.1742 3.6098 0
M  V30 1783 H 171.183 -2.24792 2.36931 0
M  V30 1784 H 169.842 -0.526494 3.628 0
M  V30 1785 H 169.49 -2.96386 4.06404 0
M  V30 1786 H 169.19 -1.9934 5.52754 0
M  V30 1787 H 170.714 -2.91189 5.36695 0
M  V30 1788 H 172.128 -0.664186 5.6944 0
M  V30 1789 H 170.525 0.0653265 6.00064 0
M  V30 1790 H 171.595 0.786347 4.78482 0
M  V30 1791 N 172.938 -1.57226 0.108567 0
M  V30 1792 C 173.901 -2.13602 -0.831082 0
M  V30 1793 C 174.901 -1.06841 -1.20173 0
M  V30 1794 O 176.091 -1.32666 -1.12895 0
M  V30 1795 C 173.223 -2.66769 -2.12243 0
M  V30 1796 H 174.416 -2.97951 -0.341317 0
M  V30 1797 H 171.969 -1.55667 -0.14057 0
M  V30 1798 H 172.704 -1.85977 -2.65675 0
M  V30 1799 H 172.489 -3.44839 -1.86625 0
M  V30 1800 H 173.979 -3.10332 -2.79435 0
M  V30 1801 N 174.416 0.165178 -1.56732 0
M  V30 1802 C 175.363 1.2044 -1.96883 0
M  V30 1803 C 176.333 1.43664 -0.833657 0
M  V30 1804 O 177.518 1.56302 -1.09427 0
M  V30 1805 C 174.658 2.53727 -2.33916 0
M  V30 1806 C 173.771 2.3783 -3.6064 0
M  V30 1807 C 172.906 3.64026 -3.86857 0
M  V30 1808 C 171.945 3.43088 -5.06909 0
M  V30 1809 N 171.082 4.61369 -5.29229 0
M  V30 1810 H 175.922 0.854996 -2.85471 0
M  V30 1811 H 173.459 0.41076 -1.41249 0
M  V30 1812 H 175.417 3.31419 -2.53411 0
M  V30 1813 H 174.047 2.8665 -1.48431 0
M  V30 1814 H 173.099 1.51282 -3.49024 0
M  V30 1815 H 174.411 2.18308 -4.4849 0
M  V30 1816 H 173.565 4.50152 -4.06753 0
M  V30 1817 H 172.304 3.86533 -2.97394 0
M  V30 1818 H 171.309 2.55349 -4.86906 0
M  V30 1819 H 172.534 3.21997 -5.97909 0
M  V30 1820 H 170.48 4.84084 -4.42718 0
M  V30 1821 H 170.397 4.44783 -6.11313 0
M  V30 1822 H 171.665 5.48761 -5.53608 0
M  V30 1823 N 175.894 1.51508 0.433938 0
M  V30 1824 C 177.142 1.6402 1.18075 0
M  V30 1825 C 177.463 0.360328 1.91642 0
M  V30 1826 O 176.733 -0.623945 1.85698 0
M  V30 1827 H 175.313 0.6045 0.43885 0
M  V30 1828 H 177.975 1.88452 0.497178 0
M  V30 1829 H 177.071 2.46949 1.90847 0
M  V30 1830 N 177.372 -0.689602 1.41712 0
M  V30 1831 C 178.322 -1.79571 1.40493 0
M  V30 1832 C 179.306 -1.58473 0.278409 0
M  V30 1833 O 180.498 -1.69204 0.519532 0
M  V30 1834 C 177.627 -3.17923 1.29536 0
M  V30 1835 C 176.713 -3.44695 2.47075 0
M  V30 1836 N 177.104 -3.42132 3.72531 0
M  V30 1837 C 175.402 -3.75269 2.41017 0
M  V30 1838 C 176.103 -3.67976 4.50521 0
M  V30 1839 N 175.079 -3.88014 3.80718 0
M  V30 1840 H 178.881 -1.75961 2.35404 0
M  V30 1841 H 176.395 -0.889839 1.35851 0
M  V30 1842 H 178.392 -3.97167 1.26745 0
M  V30 1843 H 177.052 -3.22741 0.356153 0
M  V30 1844 H 178.063 -3.22375 4.05333 0
M  V30 1845 H 174.74 -3.87421 1.55599 0
M  V30 1846 H 176.13 -3.7208 5.59469 0
M  V30 1847 N 178.85 -1.27639 -0.924453 0
M  V30 1848 C 180.075 -1.17101 -1.71179 0
M  V30 1849 C 180.5 0.268134 -1.86179 0
M  V30 1850 O 179.858 1.19415 -1.36418 0
M  V30 1851 C 179.906 -1.86313 -3.08739 0
M  V30 1852 O 179.01 -1.16331 -3.95652 0
M  V30 1853 H 178.351 -0.407091 -0.524569 0
M  V30 1854 H 180.881 -1.68767 -1.15666 0
M  V30 1855 H 180.891 -1.938 -3.59034 0
M  V30 1856 H 179.566 -2.91001 -2.97138 0
M  V30 1857 H 178.143 -1.16935 -3.54091 0
M  V30 1858 N 180.328 1.1314 -1.09713 0
M  V30 1859 C 181.291 2.16831 -0.742751 0
M  V30 1860 C 182.291 1.59159 0.229129 0
M  V30 1861 O 183.481 1.74199 0.00693237 0
M  V30 1862 C 180.613 3.40756 -0.0989168 0
M  V30 1863 H 181.806 2.49695 -1.66109 0
M  V30 1864 H 179.359 1.2802 -0.896699 0
M  V30 1865 H 180.094 3.13485 0.830514 0
M  V30 1866 H 179.879 3.83888 -0.798265 0
M  V30 1867 H 181.369 4.17386 0.133524 0
M  V30 1868 N 181.806 0.884767 1.30421 0
M  V30 1869 C 183.052 0.503851 1.96441 0
M  V30 1870 C 183.385 -0.944518 1.69684 0
M  V30 1871 O 182.66 -1.66737 1.00145 0
M  V30 1872 C 182.943 0.779085 3.51571 0
M  V30 1873 C 182.796 2.27807 3.87846 0
M  V30 1874 C 184.115 0.255452 4.39358 0
M  V30 1875 H 181.234 0.184533 0.713524 0
M  V30 1876 H 183.876 1.10872 1.54297 0
M  V30 1877 H 182.026 0.264274 3.876 0
M  V30 1878 H 183.698 2.86127 3.61841 0
M  V30 1879 H 181.941 2.74479 3.35922 0
M  V30 1880 H 182.612 2.42125 4.96064 0
M  V30 1881 H 185.088 0.696079 4.10236 0
M  V30 1882 H 183.964 0.477361 5.4682 0
M  V30 1883 H 184.225 -0.843293 4.33983 0
M  V30 1884 N 183.284 -1.43765 0.645699 0
M  V30 1885 C 184.7 -1.56509 0.312591 0
M  V30 1886 C 184.9 -1.6307 -1.18365 0
M  V30 1887 O 183.956 -1.58167 -1.96824 0
M  V30 1888 C 185.269 -2.82968 1.01733 0
M  V30 1889 C 186.817 -2.96701 0.996865 0
M  V30 1890 C 187.292 -4.25982 1.68236 0
M  V30 1891 N 188.783 -4.32829 1.64964 0
M  V30 1892 C 189.518 -5.31613 2.14885 0
M  V30 1893 N 189.014 -6.36718 2.73061 0
M  V30 1894 N 190.807 -5.23217 2.05428 0
M  V30 1895 H 182.958 -1.3775 1.61675 0
M  V30 1896 H 185.221 -0.661067 0.679481 0
M  V30 1897 H 184.927 -2.84156 2.0724 0
M  V30 1898 H 184.801 -3.72957 0.564177 0
M  V30 1899 H 187.188 -2.95058 -0.0497719 0
M  V30 1900 H 187.269 -2.08022 1.48865 0
M  V30 1901 H 186.913 -4.28386 2.72852 0
M  V30 1902 H 186.843 -5.13545 1.16529 0
M  V30 1903 H 189.334 -3.57493 1.22503 0
M  V30 1904 H 189.647 -7.08401 3.08848 0
M  V30 1905 H 187.992 -6.37362 2.77118 0
M  V30 1906 H 191.183 -4.40019 1.59689 0
M  V30 1907 H 191.356 -6.00045 2.44643 0
M  V30 1908 N 184.763 -0.387143 -1.52771 0
M  V30 1909 C 186.174 0.0873634 -1.86495 0
M  V30 1910 C 186.525 1.46336 -1.30691 0
M  V30 1911 O 185.65 2.068 -0.637409 0
M  V30 1912 C 186.245 0.165305 -3.38396 0
M  V30 1913 C 184.804 0.584101 -3.7184 0
M  V30 1914 C 183.951 -0.255279 -2.76122 0
M  V30 1915 H 186.902 -0.605104 -1.46711 0
M  V30 1916 H 186.923 0.984848 -3.67534 0
M  V30 1917 H 186.435 -0.836301 -3.78982 0
M  V30 1918 H 184.536 1.59315 -3.36823 0
M  V30 1919 H 184.649 0.343749 -4.77865 0
M  V30 1920 H 183.013 0.279126 -2.53166 0
M  V30 1921 H 183.796 -1.25482 -3.19545 0
M  V30 1922 N 186.241 1.57166 -0.116904 0
M  V30 1923 C 187.49 1.94298 0.541407 0
M  V30 1924 C 187.803 1.00236 1.67964 0
M  V30 1925 O 189.009 1.26826 2.40057 0
M  V30 1926 C 187.465 3.45306 1.01449 0
M  V30 1927 C 187.073 4.47899 -0.0951738 0
M  V30 1928 C 188.817 3.91361 1.6443 0
M  V30 1929 C 186.724 5.90083 0.394491 0
M  V30 1930 H 185.654 0.725308 0.206019 0
M  V30 1931 H 188.305 1.82446 -0.196419 0
M  V30 1932 H 186.687 3.52385 1.80667 0
M  V30 1933 H 187.861 4.52486 -0.871374 0
M  V30 1934 H 186.176 4.11583 -0.631505 0
M  V30 1935 H 188.773 4.95004 2.02176 0
M  V30 1936 H 189.116 3.3122 2.52189 0
M  V30 1937 H 189.649 3.87073 0.917559 0
M  V30 1938 H 186.388 6.53974 -0.447004 0
M  V30 1939 H 185.908 5.88921 1.13722 0
M  V30 1940 H 187.587 6.41307 0.856399 0
M  V30 1941 N 187.719 -0.156864 1.56817 0
M  V30 1942 C 188.968 -0.869504 1.81996 0
M  V30 1943 C 189.281 -1.82777 0.696545 0
M  V30 1944 O 190.487 -2.58384 0.833658 0
M  V30 1945 C 188.943 -1.59679 3.22538 0
M  V30 1946 C 188.551 -0.681431 4.42787 0
M  V30 1947 C 190.295 -2.2968 3.56997 0
M  V30 1948 C 188.202 -1.40978 5.74351 0
M  V30 1949 H 187.132 -0.328438 0.678708 0
M  V30 1950 H 189.783 -0.1223 1.83092 0
M  V30 1951 H 188.165 -2.38927 3.158 0
M  V30 1952 H 189.339 0.0751166 4.60739 0
M  V30 1953 H 187.654 -0.0903431 4.16302 0
M  V30 1954 H 190.251 -2.84794 4.52544 0
M  V30 1955 H 190.594 -3.05707 2.82576 0
M  V30 1956 H 191.127 -1.57361 3.65352 0
M  V30 1957 H 187.866 -0.691561 6.51842 0
M  V30 1958 H 187.386 -2.13929 5.60352 0
M  V30 1959 H 189.065 -1.95337 6.16808 0
M  V30 1960 N 189.197 -1.51736 -0.425897 0
M  V30 1961 C 190.127 -1.76827 -1.52494 0
M  V30 1962 C 191.108 -0.618524 -1.58456 0
M  V30 1963 O 192.293 -0.862416 -1.74 0
M  V30 1964 C 189.423 -1.90374 -2.90474 0
M  V30 1965 C 188.377 -3.0588 -2.99369 0
M  V30 1966 C 187.703 -3.04625 -4.3944 0
M  V30 1967 C 189.003 -4.45644 -2.72394 0
M  V30 1968 H 190.697 -2.68855 -1.31748 0
M  V30 1969 H 188.243 -1.29372 -0.632362 0
M  V30 1970 H 190.196 -2.0651 -3.6733 0
M  V30 1971 H 188.92 -0.95004 -3.12477 0
M  V30 1972 H 187.579 -2.89467 -2.24954 0
M  V30 1973 H 187.227 -2.0701 -4.58428 0
M  V30 1974 H 186.927 -3.82195 -4.46319 0
M  V30 1975 H 188.451 -3.22869 -5.18255 0
M  V30 1976 H 189.865 -4.62348 -3.38979 0
M  V30 1977 H 188.262 -5.25006 -2.9067 0
M  V30 1978 H 189.332 -4.54893 -1.67929 0
M  V30 1979 N 190.675 0.682077 -1.42076 0
M  V30 1980 C 191.585 1.82535 -1.47371 0
M  V30 1981 C 192.601 1.7017 -0.363079 0
M  V30 1982 O 193.777 1.91848 -0.612875 0
M  V30 1983 C 190.842 3.18624 -1.36674 0
M  V30 1984 C 189.903 3.42999 -2.58167 0
M  V30 1985 C 189.136 4.72595 -2.4797 0
M  V30 1986 O 189.359 5.50006 -1.5116 0
M  V30 1987 O 188.293 4.98054 -3.37974 0
M  V30 1988 H 192.119 1.81023 -2.43853 0
M  V30 1989 H 189.704 0.836887 -1.2376 0
M  V30 1990 H 191.586 3.99847 -1.33043 0
M  V30 1991 H 190.261 3.20789 -0.433138 0
M  V30 1992 H 189.168 2.61653 -2.67373 0
M  V30 1993 H 190.501 3.45659 -3.50401 0
M  V30 1994 N 192.153 1.28127 0.917671 0
M  V30 1995 C 193.569 1.05749 1.19538 0
M  V30 1996 C 193.769 -0.202633 2.00479 0
M  V30 1997 O 192.825 -0.905382 2.3571 0
M  V30 1998 C 194.138 2.30273 1.93378 0
M  V30 1999 C 195.686 2.35412 2.06277 0
M  V30 2000 C 196.161 3.59692 2.83524 0
M  V30 2001 N 197.652 3.60309 2.91087 0
M  V30 2002 C 198.387 4.53147 3.51348 0
M  V30 2003 N 197.883 5.563 4.12919 0
M  V30 2004 N 199.676 4.40751 3.48849 0
M  V30 2005 H 191.827 2.09024 0.377184 0
M  V30 2006 H 194.09 0.919798 0.22951 0
M  V30 2007 H 193.796 3.22055 1.41328 0
M  V30 2008 H 193.67 2.36378 2.93947 0
M  V30 2009 H 196.057 1.4413 2.57508 0
M  V30 2010 H 196.138 2.33304 1.04895 0
M  V30 2011 H 195.782 4.51316 2.32973 0
M  V30 2012 H 195.712 3.59054 3.85211 0
M  V30 2013 H 198.203 2.85714 2.47338 0
M  V30 2014 H 198.516 6.2329 4.56869 0
M  V30 2015 H 196.861 5.60131 4.11435 0
M  V30 2016 H 200.052 3.59367 2.99955 0
M  V30 2017 H 200.225 5.13291 3.9552 0
M  V30 2018 N 193.631 -1.12557 1.10312 0
M  V30 2019 C 194.561 -2.20341 0.772798 0
M  V30 2020 C 195.542 -1.68198 -0.25365 0
M  V30 2021 O 196.727 -1.93831 -0.119699 0
M  V30 2022 C 193.857 -3.46709 0.202443 0
M  V30 2023 C 192.811 -4.11996 1.15943 0
M  V30 2024 C 192.137 -5.328 0.450345 0
M  V30 2025 C 193.437 -4.5828 2.50552 0
M  V30 2026 H 195.131 -2.48229 1.674 0
M  V30 2027 H 192.677 -1.19308 0.806326 0
M  V30 2028 H 194.63 -4.2138 -0.0407752 0
M  V30 2029 H 193.354 -3.18245 -0.734001 0
M  V30 2030 H 192.013 -3.39305 1.38808 0
M  V30 2031 H 191.661 -5.00602 -0.490531 0
M  V30 2032 H 191.361 -5.7743 1.08851 0
M  V30 2033 H 192.885 -6.10219 0.215642 0
M  V30 2034 H 194.299 -5.2433 2.31843 0
M  V30 2035 H 192.696 -5.13683 3.10242 0
M  V30 2036 H 193.766 -3.72329 3.10643 0
M  V30 2037 N 195.109 -0.891671 -1.2995 0
M  V30 2038 C 196.072 -0.36828 -2.26222 0
M  V30 2039 C 197.072 0.493014 -1.53056 0
M  V30 2040 O 198.262 0.299213 -1.71611 0
M  V30 2041 C 195.394 0.47442 -3.37583 0
M  V30 2042 H 196.587 -1.21844 -2.74033 0
M  V30 2043 H 194.14 -0.669107 -1.41254 0
M  V30 2044 H 194.875 1.34489 -2.95099 0
M  V30 2045 H 194.66 -0.142615 -3.91841 0
M  V30 2046 H 196.15 0.83218 -4.09224 0
M  V30 2047 N 196.587 1.43421 -0.653314 0
M  V30 2048 C 197.519 2.29071 0.0769134 0
M  V30 2049 C 198.532 1.42513 0.787017 0
M  V30 2050 O 199.721 1.66449 0.644757 0
M  V30 2051 C 196.821 3.19436 1.13199 0
M  V30 2052 C 195.994 4.34533 0.500006 0
M  V30 2053 C 195.053 5.05771 1.45198 0
M  V30 2054 O 194.079 5.61037 0.960538 0
M  V30 2055 N 195.281 5.0928 2.78594 0
M  V30 2056 H 198.046 2.92382 -0.658235 0
M  V30 2057 H 195.607 1.54112 -0.496104 0
M  V30 2058 H 197.599 3.63958 1.76964 0
M  V30 2059 H 196.169 2.57724 1.7691 0
M  V30 2060 H 195.389 3.92925 -0.316738 0
M  V30 2061 H 196.677 5.08766 0.0588345 0
M  V30 2062 H 196.075 4.65751 3.2108 0
M  V30 2063 H 194.632 5.57519 3.37662 0
M  V30 2064 N 198.065 0.39524 1.52563 0
M  V30 2065 C 199.295 -0.184675 2.05773 0
M  V30 2066 C 199.703 -1.40571 1.26635 0
M  V30 2067 O 199.046 -1.81105 0.30769 0
M  V30 2068 C 199.108 -0.613551 3.54226 0
M  V30 2069 C 198.772 0.49484 4.54313 0
M  V30 2070 C 199.769 1.3541 5.01956 0
M  V30 2071 C 197.454 0.663565 4.97898 0
M  V30 2072 C 199.448 2.36716 5.91814 0
M  V30 2073 C 197.135 1.67996 5.87555 0
M  V30 2074 C 198.133 2.53017 6.34406 0
M  V30 2075 O 197.821 3.52917 7.22291 0
M  V30 2076 H 197.553 -0.030077 0.675331 0
M  V30 2077 H 200.107 0.560708 1.97599 0
M  V30 2078 H 198.337 -1.411 3.60038 0
M  V30 2079 H 200.026 -1.11981 3.90148 0
M  V30 2080 H 200.792 1.23509 4.6901 0
M  V30 2081 H 196.671 0.0114913 4.60999 0
M  V30 2082 H 200.215 3.03113 6.28306 0
M  V30 2083 H 196.112 1.79933 6.19915 0
M  V30 2084 H 196.88 3.48996 7.40367 0
M  V30 2085 N 199.544 -1.57102 0.125237 0
M  V30 2086 C 200.474 -2.18659 -0.819174 0
M  V30 2087 C 201.455 -1.12843 -1.27281 0
M  V30 2088 O 202.64 -1.41104 -1.33429 0
M  V30 2089 C 199.77 -2.79096 -2.06695 0
M  V30 2090 C 198.724 -3.90548 -1.75088 0
M  V30 2091 C 198.05 -4.37821 -3.06948 0
M  V30 2092 C 199.35 -5.12356 -1.01435 0
M  V30 2093 H 201.044 -2.9783 -0.306202 0
M  V30 2094 H 198.59 -1.4326 -0.145839 0
M  V30 2095 H 200.543 -3.2082 -2.73226 0
M  V30 2096 H 199.267 -1.97223 -2.60328 0
M  V30 2097 H 197.926 -3.49409 -1.10944 0
M  V30 2098 H 197.574 -3.52799 -3.58527 0
M  V30 2099 H 197.274 -5.12982 -2.86571 0
M  V30 2100 H 198.798 -4.822 -3.74587 0
M  V30 2101 H 200.212 -5.5106 -1.58132 0
M  V30 2102 H 198.609 -5.9314 -0.911319 0
M  V30 2103 H 199.679 -4.849 -0.00218681 0
M  V30 2104 N 201.022 0.148545 -1.56898 0
M  V30 2105 C 201.97 1.20265 -1.99096 0
M  V30 2106 C 202.964 1.44559 -0.883123 0
M  V30 2107 O 204.17 1.4487 -1.0683 0
M  V30 2108 H 200.545 0.404786 -0.63376 0
M  V30 2109 H 202.516 0.82004 -2.86911 0
M  V30 2110 C 201.265 2.52886 -2.3863 0
M  V30 2111 H 200.588 2.35021 -3.23427 0
M  V30 2112 H 202.028 3.25274 -2.7198 0
M  V30 2113 C 200.487 3.13315 -1.23837 0
M  V30 2114 O 201.017 3.98077 -0.538268 0
M  V30 2115 N 199.223 2.72742 -1.00301 0
M  V30 2116 H 198.77 2.03912 -1.5741 0
M  V30 2117 H 198.728 3.13507 -0.236838 0
M  V30 2118 N 202.5 1.5196 0.417844 0
M  V30 2119 C 203.41 1.77554 1.53336 0
M  V30 2120 C 204.426 0.660655 1.6097 0
M  V30 2121 O 205.602 0.945099 1.77848 0
M  V30 2122 C 202.667 1.91291 2.89152 0
M  V30 2123 C 201.728 3.15183 2.91475 0
M  V30 2124 C 200.961 3.28256 4.20813 0
M  V30 2125 O 201.184 2.46798 5.14244 0
M  V30 2126 O 200.118 4.21356 4.29817 0
M  V30 2127 H 203.944 2.7222 1.34647 0
M  V30 2128 H 201.529 1.36698 0.602828 0
M  V30 2129 H 203.411 2.02199 3.69721 0
M  V30 2130 H 202.086 0.998129 3.07927 0
M  V30 2131 H 200.993 3.09739 2.09791 0
M  V30 2132 H 202.326 4.06414 2.77648 0
M  V30 2133 N 203.978 -0.674533 1.42435 0
M  V30 2134 C 205.226 -1.43175 1.42637 0
M  V30 2135 C 205.547 -1.94951 0.0438992 0
M  V30 2136 O 204.817 -1.7308 -0.917607 0
M  V30 2137 H 203.397 -0.531307 0.525092 0
M  V30 2138 H 206.059 -0.797006 1.77859 0
M  V30 2139 H 205.155 -2.28463 2.12629 0
M  V30 2140 N 205.456 -1.28612 -0.910864 0
M  V30 2141 C 206.705 -1.15311 -1.65488 0
M  V30 2142 C 207.018 0.296999 -1.93332 0
M  V30 2143 O 208.224 0.551168 -2.65847 0
M  V30 2144 C 206.68 -2.01599 -2.98137 0
M  V30 2145 C 206.288 -3.51367 -2.7793 0
M  V30 2146 C 208.032 -1.96993 -3.76024 0
M  V30 2147 C 205.939 -4.29797 -4.06237 0
M  V30 2148 H 204.869 -0.42796 -0.620779 0
M  V30 2149 H 207.52 -1.53166 -1.01057 0
M  V30 2150 H 205.902 -1.56603 -3.63719 0
M  V30 2151 H 207.076 -4.0434 -2.21011 0
M  V30 2152 H 205.391 -3.57529 -2.13452 0
M  V30 2153 H 207.988 -2.52856 -4.71135 0
M  V30 2154 H 208.331 -0.94733 -4.05378 0
M  V30 2155 H 208.864 -2.39973 -3.17266 0
M  V30 2156 H 205.603 -5.32648 -3.82055 0
M  V30 2157 H 205.123 -3.81596 -4.62757 0
M  V30 2158 H 206.802 -4.39869 -4.74473 0
M  V30 2159 N 206.934 1.1197 -1.10907 0
M  V30 2160 C 208.162 1.87402 -0.876824 0
M  V30 2161 C 208.577 1.79894 0.573025 0
M  V30 2162 O 207.934 1.17629 1.39534 0
M  V30 2163 C 207.985 3.36428 -1.32282 0
M  V30 2164 O 207.706 3.43765 -2.71582 0
M  V30 2165 C 209.207 4.28783 -1.12518 0
M  V30 2166 H 206.427 0.592793 -0.314384 0
M  V30 2167 H 208.971 1.41649 -1.47499 0
M  V30 2168 H 207.126 3.79706 -0.768229 0
M  V30 2169 H 207.54 4.3652 -2.90776 0
M  V30 2170 H 209.014 5.31613 -1.48633 0
M  V30 2171 H 209.491 4.39153 -0.0642394 0
M  V30 2172 H 210.097 3.91291 -1.66648 0
M  V30 2173 N 208.412 0.89855 1.29475 0
M  V30 2174 C 209.823 0.572537 1.77705 0
M  V30 2175 C 210.174 -0.911778 1.73727 0
M  V30 2176 O 209.299 -1.71288 1.32247 0
M  V30 2177 C 209.894 1.03252 3.22683 0
M  V30 2178 C 208.453 0.757687 3.68695 0
M  V30 2179 C 207.6 1.20787 2.49612 0
M  V30 2180 H 210.551 1.08139 1.16153 0
M  V30 2181 H 210.572 0.367307 3.78723 0
M  V30 2182 H 210.084 2.11285 3.25546 0
M  V30 2183 H 208.185 -0.310079 3.71308 0
M  V30 2184 H 208.298 1.35476 4.59547 0
M  V30 2185 H 206.662 0.626888 2.46865 0
M  V30 2186 H 207.445 2.29622 2.55203 0
M  V30 2187 N 209.89 -1.43072 0.660911 0
M  V30 2188 C 210.853 -2.29194 -0.0166406 0
M  V30 2189 C 211.853 -1.42609 -0.742912 0
M  V30 2190 O 213.043 -1.64155 -0.583004 0
M  V30 2191 C 210.175 -3.24831 -1.0343 0
M  V30 2192 H 211.368 -2.90596 0.741208 0
M  V30 2193 H 208.921 -1.5048 0.422532 0
M  V30 2194 H 209.656 -2.68339 -1.82111 0
M  V30 2195 H 209.441 -3.88676 -0.517082 0
M  V30 2196 H 210.931 -3.89451 -1.50723 0
M  V30 2197 N 211.368 -0.403325 -1.52352 0
M  V30 2198 C 212.617 0.175668 -2.00934 0
M  V30 2199 C 212.93 1.46718 -1.29356 0
M  V30 2200 O 214.136 2.12708 -1.68724 0
M  V30 2201 C 212.592 0.363612 -3.58058 0
M  V30 2202 C 212.2 -0.915472 -4.38547 0
M  V30 2203 C 213.944 0.89821 -4.14888 0
M  V30 2204 C 211.851 -0.695035 -5.87302 0
M  V30 2205 H 210.781 0.0694234 -0.750797 0
M  V30 2206 H 213.432 -0.527879 -1.75743 0
M  V30 2207 H 211.814 1.12935 -3.79555 0
M  V30 2208 H 212.988 -1.68691 -4.28812 0
M  V30 2209 H 211.303 -1.37606 -3.93006 0
M  V30 2210 H 213.9 1.07907 -5.23699 0
M  V30 2211 H 214.243 1.87126 -3.71873 0
M  V30 2212 H 214.776 0.191681 -3.97338 0
M  V30 2213 H 211.515 -1.63948 -6.34666 0
M  V30 2214 H 211.035 0.0372116 -5.99788 0
M  V30 2215 H 212.714 -0.33497 -6.46132 0
M  V30 2216 N 212.846 1.57033 -0.133567 0
M  V30 2217 C 214.257 1.82593 0.389464 0
M  V30 2218 C 214.608 1.05156 1.6564 0
M  V30 2219 O 213.733 0.292644 2.14412 0
M  V30 2220 C 214.328 3.31204 0.713377 0
M  V30 2221 C 212.887 3.57393 1.18098 0
M  V30 2222 C 212.034 2.76598 0.197126 0
M  V30 2223 H 214.985 1.54598 -0.358481 0
M  V30 2224 H 215.006 3.46627 1.56939 0
M  V30 2225 H 214.518 3.87537 -0.2089 0
M  V30 2226 H 212.619 3.06433 2.11966 0
M  V30 2227 H 212.732 4.65915 1.11624 0
M  V30 2228 H 211.096 2.45257 0.687088 0
M  V30 2229 H 211.879 3.35697 -0.718504 0
M  V30 2230 N 214.325 -0.140222 1.56975 0
M  V30 2231 C 215.235 -1.19223 2.02047 0
M  V30 2232 C 216.251 -1.46612 0.937062 0
M  V30 2233 O 217.427 -1.58148 1.24704 0
M  V30 2234 C 214.492 -2.50414 2.39778 0
M  V30 2235 C 213.553 -2.30612 3.621 0
M  V30 2236 C 212.786 -3.55547 3.98023 0
M  V30 2237 O 213.009 -4.62004 3.34528 0
M  V30 2238 O 211.943 -3.47808 4.91237 0
M  V30 2239 H 215.769 -0.839559 2.91865 0
M  V30 2240 H 213.354 -0.349453 1.45256 0
M  V30 2241 H 215.236 -3.27747 2.64877 0
M  V30 2242 H 213.911 -2.85198 1.53114 0
M  V30 2243 H 212.818 -1.51207 3.4218 0
M  V30 2244 H 214.151 -2.00741 4.49404 0
M  V30 2245 N 215.803 -1.52179 -0.40978 0
M  V30 2246 C 217.052 -1.65434 -1.15388 0
M  V30 2247 C 217.365 -0.390056 -1.91671 0
M  V30 2248 O 218.571 -0.402399 -2.68501 0
M  V30 2249 C 217.027 -2.92279 -2.10003 0
M  V30 2250 C 216.635 -4.25813 -1.39239 0
M  V30 2251 C 218.379 -3.14897 -2.84675 0
M  V30 2252 C 216.286 -5.43782 -2.32498 0
M  V30 2253 H 215.216 -0.616267 -0.434432 0
M  V30 2254 H 217.867 -1.78666 -0.418401 0
M  V30 2255 H 216.249 -2.72744 -2.871 0
M  V30 2256 H 217.423 -4.55828 -0.675099 0
M  V30 2257 H 215.738 -4.09292 -0.766097 0
M  V30 2258 H 218.335 -4.0021 -3.54593 0
M  V30 2259 H 218.678 -2.29103 -3.47588 0
M  V30 2260 H 219.211 -3.34901 -2.14677 0
M  V30 2261 H 215.95 -6.3192 -1.74233 0
M  V30 2262 H 215.47 -5.18106 -3.02201 0
M  V30 2263 H 217.149 -5.76834 -2.93038 0
M  V30 2264 N 217.281 0.66697 -1.42791 0
M  V30 2265 C 218.529 1.42417 -1.43394 0
M  V30 2266 C 218.85 1.94925 -0.0542373 0
M  V30 2267 O 218.12 1.73564 0.908415 0
M  V30 2268 H 216.7 0.528515 -0.527902 0
M  V30 2269 H 219.362 0.787562 -1.78279 0
M  V30 2270 H 218.458 2.27333 -2.13837 0
M  V30 2271 N 218.759 1.29093 0.90403 0
M  V30 2272 C 219.984 1.19809 1.69294 0
M  V30 2273 C 220.409 -0.238481 1.86582 0
M  V30 2274 O 219.767 -1.1723 1.383 0
M  V30 2275 C 219.815 1.91202 3.05736 0
M  V30 2276 O 218.919 1.22611 3.93752 0
M  V30 2277 H 218.26 0.415385 0.518027 0
M  V30 2278 H 220.79 1.70586 1.12967 0
M  V30 2279 H 220.8 1.99487 3.55906 0
M  V30 2280 H 219.475 2.95692 2.92471 0
M  V30 2281 H 218.052 1.22554 3.52186 0
M  V30 2282 N 220.237 -1.11381 1.11499 0
M  V30 2283 C 221.167 -2.19509 0.796125 0
M  V30 2284 C 222.148 -1.68458 -0.235796 0
M  V30 2285 O 223.333 -1.93947 -0.0991344 0
M  V30 2286 C 220.463 -3.46475 0.239205 0
M  V30 2287 C 219.417 -4.10744 1.20307 0
M  V30 2288 C 218.743 -5.32293 0.50683 0
M  V30 2289 C 220.043 -4.55597 2.55399 0
M  V30 2290 H 221.737 -2.46439 1.70024 0
M  V30 2291 H 219.283 -1.18446 0.818935 0
M  V30 2292 H 221.236 -4.214 0.00392006 0
M  V30 2293 H 219.96 -3.19006 -0.700206 0
M  V30 2294 H 218.619 -3.37813 1.42399 0
M  V30 2295 H 218.267 -5.01095 -0.437408 0
M  V30 2296 H 217.967 -5.76243 1.1497 0
M  V30 2297 H 219.491 -6.09956 0.280351 0
M  V30 2298 H 220.905 -5.21841 2.37391 0
M  V30 2299 H 219.302 -5.10363 3.15673 0
M  V30 2300 H 220.372 -3.69013 3.14575 0
M  V30 2301 N 221.715 -0.905404 -1.28997 0
M  V30 2302 C 222.963 -0.533192 -1.9494 0
M  V30 2303 C 223.284 0.924618 -1.71685 0
M  V30 2304 O 222.554 1.65268 -1.05183 0
M  V30 2305 H 221.134 -0.194194 -0.721317 0
M  V30 2306 H 223.796 -1.15294 -1.57141 0
M  V30 2307 H 222.892 -0.72059 -3.03667 0
M  V30 2308 N 223.193 1.4272 -0.668489 0
M  V30 2309 C 224.156 2.292 0.00448567 0
M  V30 2310 C 225.156 1.43001 0.735339 0
M  V30 2311 O 226.346 1.64461 0.57429 0
M  V30 2312 C 223.478 3.25375 1.01705 0
M  V30 2313 H 224.671 2.90199 -0.756608 0
M  V30 2314 H 222.224 1.50254 -0.430506 0
M  V30 2315 H 222.959 2.69301 1.80686 0
M  V30 2316 H 222.744 3.88944 0.496463 0
M  V30 2317 H 224.234 3.90245 1.48655 0
M  V30 2318 N 224.671 0.411399 1.52136 0
M  V30 2319 C 225.896 -0.165538 2.06738 0
M  V30 2320 C 226.321 -1.379 1.27926 0
M  V30 2321 O 225.679 -1.78628 0.310114 0
M  V30 2322 C 225.727 -0.492124 3.57226 0
M  V30 2323 O 224.831 -1.58276 3.80818 0
M  V30 2324 H 224.172 -0.0132132 0.663869 0
M  V30 2325 H 226.702 0.585253 1.96051 0
M  V30 2326 H 226.712 -0.750104 4.01045 0
M  V30 2327 H 225.387 0.394922 4.14021 0
M  V30 2328 H 223.964 -1.31677 3.48877 0
M  V30 2329 N 226.149 -1.5696 0.141893 0
M  V30 2330 C 227.397 -1.95573 -0.509484 0
M  V30 2331 C 227.718 -1.02746 -1.65736 0
M  V30 2332 O 226.988 -0.0880311 -1.95702 0
M  V30 2333 H 225.568 -0.722115 -0.191205 0
M  V30 2334 H 228.23 -1.93697 0.216196 0
M  V30 2335 H 227.326 -2.99171 -0.889 0
M  V30 2336 N 227.627 0.131896 -1.57047 0
M  V30 2337 C 228.904 0.871495 -1.75112 0
M  V30 2338 C 229.284 1.9866 -0.713949 0
M  V30 2339 O 228.632 2.26965 0.264447 0
M  V30 2340 C 228.842 1.40007 -3.19686 0
M  V30 2341 C 230.19 1.85752 -3.81813 0
M  V30 2342 O 231.214 1.49715 -3.23209 0
M  V30 2343 O 230.073 2.5226 -4.84796 0
M  V30 2344 H 227.167 0.412919 -0.716538 0
M  V30 2345 H 229.713 0.116641 -1.69299 0
M  V30 2346 H 228.485 0.599404 -3.86682 0
M  V30 2347 H 228.108 2.218 -3.29986 0
M  V30 2348 N 229.106 1.52395 0.401703 0
M  V30 2349 C 230.036 1.79231 1.49661 0
M  V30 2350 C 231.017 0.643654 1.57452 0
M  V30 2351 O 232.202 0.889989 1.72606 0
M  V30 2352 C 229.332 1.94971 2.87409 0
M  V30 2353 C 228.286 3.10604 2.94465 0
M  V30 2354 C 227.612 3.11577 4.34538 0
M  V30 2355 C 228.912 4.49921 2.6527 0
M  V30 2356 H 230.606 2.70917 1.27454 0
M  V30 2357 H 228.152 1.30362 0.6117 0
M  V30 2358 H 230.105 2.12328 3.63999 0
M  V30 2359 H 228.829 0.999632 3.10926 0
M  V30 2360 H 227.488 2.93009 2.20321 0
M  V30 2361 H 227.136 2.14277 4.55076 0
M  V30 2362 H 226.836 3.89247 4.40183 0
M  V30 2363 H 228.36 3.31073 5.13053 0
M  V30 2364 H 229.774 4.67683 3.31581 0
M  V30 2365 H 228.171 5.29564 2.82281 0
M  V30 2366 H 229.241 4.57507 1.60671 0
M  V30 2367 N 230.584 -0.659388 1.43143 0
M  V30 2368 C 231.547 -1.75432 1.47501 0
M  V30 2369 C 232.547 -1.56707 0.360512 0
M  V30 2370 O 233.737 -1.62717 0.622002 0
M  V30 2371 C 230.869 -3.14239 1.32162 0
M  V30 2372 H 232.062 -1.7295 2.45006 0
M  V30 2373 H 229.615 -0.870469 1.29817 0
M  V30 2374 H 230.35 -3.22336 0.356401 0
M  V30 2375 H 230.135 -3.29235 2.12948 0
M  V30 2376 H 231.625 -3.94094 1.3813 0
M  V30 2377 N 232.062 -1.29571 -0.897171 0
M  V30 2378 C 233.473 -1.15964 -1.46319 0
M  V30 2379 C 233.824 0.244267 -1.94674 0
M  V30 2380 O 232.949 1.13998 -1.83939 0
M  V30 2381 C 233.544 -2.09906 -2.65942 0
M  V30 2382 C 232.103 -2.00314 -3.18671 0
M  V30 2383 C 231.25 -2.00687 -1.91363 0
M  V30 2384 H 234.201 -1.42019 -0.708268 0
M  V30 2385 H 234.222 -1.67276 -3.41759 0
M  V30 2386 H 233.734 -3.12075 -2.30718 0
M  V30 2387 H 231.835 -1.01242 -3.58582 0
M  V30 2388 H 231.948 -2.88102 -3.82798 0
M  V30 2389 H 230.312 -1.45319 -2.09175 0
M  V30 2390 H 231.095 -3.04566 -1.58413 0
M  V30 2391 N 233.54 1.10788 -1.12088 0
M  V30 2392 C 234.47 2.19083 -0.807755 0
M  V30 2393 C 235.451 1.6858 0.226859 0
M  V30 2394 O 236.636 1.93997 0.0888475 0
M  V30 2395 C 233.766 3.46344 -0.257576 0
M  V30 2396 C 232.72 4.101 -1.22483 0
M  V30 2397 C 232.046 5.32016 -0.535052 0
M  V30 2398 C 233.346 4.54236 -2.57811 0
M  V30 2399 H 235.04 2.45534 -1.71328 0
M  V30 2400 H 232.586 1.1801 -0.825205 0
M  V30 2401 H 234.539 4.21392 -0.0262679 0
M  V30 2402 H 233.263 3.19373 0.683278 0
M  V30 2403 H 231.922 3.37054 -1.44189 0
M  V30 2404 H 231.57 5.01319 0.410827 0
M  V30 2405 H 231.27 5.75625 -1.18024 0
M  V30 2406 H 232.794 6.09799 -0.312695 0
M  V30 2407 H 234.208 5.20575 -2.40155 0
M  V30 2408 H 232.605 5.08682 -3.18375 0
M  V30 2409 H 233.675 3.6734 -3.16528 0
M  V30 2410 N 235.018 0.912232 1.28515 0
M  V30 2411 C 236.243 0.559774 1.99703 0
M  V30 2412 C 236.668 -0.851393 1.67729 0
M  V30 2413 O 236.026 -1.56875 0.908834 0
M  V30 2414 C 236.074 0.773874 3.52198 0
M  V30 2415 O 235.178 -0.167842 4.12058 0
M  V30 2416 H 234.519 0.21723 0.627461 0
M  V30 2417 H 237.049 1.22725 1.63706 0
M  V30 2418 H 237.059 0.683386 4.02236 0
M  V30 2419 H 235.734 1.80261 3.74805 0
M  V30 2420 H 234.311 -0.0287509 3.72889 0
M  V30 2421 N 236.496 -1.42363 0.676048 0
M  V30 2422 C 237.446 -2.27987 -0.0242903 0
M  V30 2423 C 238.43 -1.41153 -0.772319 0
M  V30 2424 O 239.622 -1.64592 -0.651025 0
M  V30 2425 C 236.751 -3.29195 -0.973953 0
M  V30 2426 C 235.837 -4.23512 -0.223202 0
M  V30 2427 N 236.228 -4.99865 0.772589 0
M  V30 2428 C 234.526 -4.43606 -0.461469 0
M  V30 2429 C 235.227 -5.68757 1.22027 0
M  V30 2430 N 234.203 -5.40811 0.549975 0
M  V30 2431 H 238.005 -2.84445 0.73949 0
M  V30 2432 H 235.519 -1.54341 0.50522 0
M  V30 2433 H 237.516 -3.89339 -1.49067 0
M  V30 2434 H 236.176 -2.74298 -1.73755 0
M  V30 2435 H 237.187 -5.04921 1.15217 0
M  V30 2436 H 233.864 -3.99749 -1.20446 0
M  V30 2437 H 235.254 -6.40007 2.0455 0
M  V30 2438 N 237.974 -0.419461 -1.51915 0
M  V30 2439 C 239.22 0.153166 -2.02221 0
M  V30 2440 C 239.553 1.43907 -1.30401 0
M  V30 2441 O 238.828 1.90055 -0.413438 0
M  V30 2442 C 239.111 0.390291 -3.57979 0
M  V30 2443 C 238.964 -0.913014 -4.40436 0
M  V30 2444 C 240.283 1.16794 -4.2432 0
M  V30 2445 H 237.402 0.0541924 -0.735005 0
M  V30 2446 H 240.044 -0.554955 -1.81715 0
M  V30 2447 H 238.194 0.993491 -3.75582 0
M  V30 2448 H 239.866 -1.54882 -4.34522 0
M  V30 2449 H 238.109 -1.52168 -4.06236 0
M  V30 2450 H 238.78 -0.701361 -5.47526 0
M  V30 2451 H 241.256 0.657161 -4.10878 0
M  V30 2452 H 240.132 1.3026 -5.3322 0
M  V30 2453 H 240.393 2.19132 -3.83971 0
M  V30 2454 N 239.452 1.56882 -0.150215 0
M  V30 2455 C 240.415 2.1573 0.774157 0
M  V30 2456 C 241.415 1.0999 1.17298 0
M  V30 2457 O 242.605 1.35613 1.09338 0
M  V30 2458 C 239.737 2.72302 2.05096 0
M  V30 2459 H 240.93 2.98752 0.262201 0
M  V30 2460 H 238.483 1.55985 0.099248 0
M  V30 2461 H 239.218 1.92956 2.6065 0
M  V30 2462 H 239.003 3.49665 1.77416 0
M  V30 2463 H 240.493 3.17632 2.71109 0
M  V30 2464 N 240.93 -0.123565 1.57115 0
M  V30 2465 C 242.155 -0.850398 1.89164 0
M  V30 2466 C 242.58 -1.7286 0.741688 0
M  V30 2467 O 241.938 -1.78665 -0.307958 0
M  V30 2468 C 241.986 -1.66353 3.19936 0
M  V30 2469 O 241.09 -2.77004 3.0552 0
M  V30 2470 H 240.431 -0.235454 0.620852 0
M  V30 2471 H 242.961 -0.107335 2.04318 0
M  V30 2472 H 242.971 -2.05372 3.52543 0
M  V30 2473 H 241.646 -1.01881 4.03228 0
M  V30 2474 H 240.223 -2.41221 2.84371 0
M  V30 2475 N 242.408 -1.52605 -0.393616 0
M  V30 2476 C 243.636 -1.71294 -1.16043 0
M  V30 2477 C 244.051 -0.429259 -1.83855 0
M  V30 2478 O 243.408 0.595921 -1.72496 0
M  V30 2479 C 243.459 -2.8593 -2.21193 0
M  V30 2480 O 243.18 -4.09329 -1.56146 0
M  V30 2481 C 244.681 -3.16259 -3.10636 0
M  V30 2482 H 241.901 -0.573641 -0.348104 0
M  V30 2483 H 244.445 -1.99234 -0.461092 0
M  V30 2484 H 242.6 -2.60465 -2.86769 0
M  V30 2485 H 243.014 -4.73323 -2.25978 0
M  V30 2486 H 244.488 -3.99946 -3.80456 0
M  V30 2487 H 244.965 -2.3045 -3.73884 0
M  V30 2488 H 245.571 -3.43547 -2.50711 0
M  V30 2489 N 243.887 0.651787 -1.4349 0
M  V30 2490 C 244.817 1.77621 -1.51569 0
M  V30 2491 C 245.798 1.66022 -0.370253 0
M  V30 2492 O 246.983 1.85095 -0.587658 0
M  V30 2493 C 244.113 3.16056 -1.43966 0
M  V30 2494 C 243.067 3.4242 -2.56774 0
M  V30 2495 C 242.393 4.8067 -2.34223 0
M  V30 2496 C 243.693 3.37023 -3.99015 0
M  V30 2497 H 245.387 1.71117 -2.45681 0
M  V30 2498 H 242.933 0.821825 -1.18246 0
M  V30 2499 H 244.886 3.94472 -1.48221 0
M  V30 2500 H 243.61 3.23293 -0.463586 0
M  V30 2501 H 242.269 2.66375 -2.51873 0
M  V30 2502 H 241.917 4.84585 -1.34856 0
M  V30 2503 H 241.617 4.9927 -3.09844 0
M  V30 2504 H 243.141 5.61342 -2.40265 0
M  V30 2505 H 244.555 4.05374 -4.05395 0
M  V30 2506 H 242.952 3.67159 -4.74673 0
M  V30 2507 H 244.022 2.3518 -4.2405 0
M  V30 2508 N 245.365 1.30045 0.890287 0
M  V30 2509 C 246.614 1.17929 1.63633 0
M  V30 2510 C 246.927 -0.266204 1.9378 0
M  V30 2511 O 248.133 -0.508804 2.6669 0
M  V30 2512 C 246.589 2.06317 2.94892 0
M  V30 2513 C 246.197 3.55745 2.72305 0
M  V30 2514 C 247.941 2.0295 3.72843 0
M  V30 2515 C 245.848 4.36205 3.99348 0
M  V30 2516 H 244.778 0.437782 0.613892 0
M  V30 2517 H 247.429 1.54754 0.986075 0
M  V30 2518 H 245.811 1.6237 3.61182 0
M  V30 2519 H 246.985 4.07805 2.1455 0
M  V30 2520 H 245.3 3.6088 2.07737 0
M  V30 2521 H 247.897 2.60319 4.67053 0
M  V30 2522 H 248.24 1.0117 4.0382 0
M  V30 2523 H 248.773 2.4499 3.13408 0
M  V30 2524 H 245.512 5.38659 3.73533 0
M  V30 2525 H 245.032 3.8891 4.56628 0
M  V30 2526 H 246.711 4.47362 4.67415 0
M  V30 2527 N 246.843 -1.10192 1.12674 0
M  V30 2528 C 248.091 -1.81845 0.881861 0
M  V30 2529 C 248.412 -1.85737 -0.593867 0
M  V30 2530 O 247.682 -1.33724 -1.4316 0
M  V30 2531 H 246.262 -0.673432 0.323261 0
M  V30 2532 H 248.924 -1.33316 1.42172 0
M  V30 2533 H 248.02 -2.85288 1.2656 0
M  V30 2534 N 248.321 -0.919034 -1.28029 0
M  V30 2535 C 249.231 -0.416756 -2.30869 0
M  V30 2536 C 250.247 0.498235 -1.66714 0
M  V30 2537 O 251.423 0.383144 -1.97722 0
M  V30 2538 C 248.488 0.330274 -3.45123 0
M  V30 2539 C 247.549 -0.618578 -4.2482 0
M  V30 2540 C 246.782 0.0928959 -5.33619 0
M  V30 2541 O 247.005 1.31375 -5.55065 0
M  V30 2542 O 245.939 -0.574499 -5.99152 0
M  V30 2543 H 249.765 -1.27043 -2.75851 0
M  V30 2544 H 247.35 -0.684052 -1.3282 0
M  V30 2545 H 249.232 0.751972 -4.14636 0
M  V30 2546 H 247.907 1.1597 -3.02213 0
M  V30 2547 H 246.814 -1.08978 -3.57875 0
M  V30 2548 H 248.147 -1.41497 -4.71423 0
M  V30 2549 N 249.799 1.42003 -0.683588 0
M  V30 2550 C 251.047 2.01015 -0.209101 0
M  V30 2551 C 251.368 1.54365 1.19149 0
M  V30 2552 O 250.638 0.769083 1.80172 0
M  V30 2553 H 249.218 0.743294 -0.074315 0
M  V30 2554 H 251.88 1.73798 -0.882066 0
M  V30 2555 H 250.976 3.11343 -0.2172 0
M  V30 2556 N 251.277 0.427512 1.51691 0
M  V30 2557 C 252.507 -0.140986 2.06118 0
M  V30 2558 C 252.915 -1.37854 1.29588 0
M  V30 2559 O 252.258 -1.80411 0.346036 0
M  V30 2560 C 252.32 -0.538276 3.55447 0
M  V30 2561 C 251.984 0.591095 4.53161 0
M  V30 2562 C 252.981 1.46027 4.98971 0
M  V30 2563 C 250.666 0.769028 4.96378 0
M  V30 2564 C 252.66 2.49216 5.8666 0
M  V30 2565 C 250.347 1.80421 5.83859 0
M  V30 2566 C 251.345 2.66417 6.28897 0
M  V30 2567 O 251.033 3.68159 7.14643 0
M  V30 2568 H 250.765 -0.0157455 0.675817 0
M  V30 2569 H 253.319 0.602495 1.96365 0
M  V30 2570 H 251.549 -1.33432 3.6295 0
M  V30 2571 H 253.238 -1.0368 3.92435 0
M  V30 2572 H 254.004 1.33429 4.66285 0
M  V30 2573 H 249.883 0.109273 4.6087 0
M  V30 2574 H 253.427 3.16372 6.21735 0
M  V30 2575 H 249.324 1.93042 6.15959 0
M  V30 2576 H 250.092 3.64622 7.32798 0
M  V30 2577 N 252.755 -1.56801 0.158532 0
M  V30 2578 C 254.001 -1.96781 -0.490405 0
M  V30 2579 C 254.334 -1.04397 -1.63753 0
M  V30 2580 O 253.609 -0.0885805 -1.94298 0
M  V30 2581 C 253.892 -3.4635 -0.985594 0
M  V30 2582 C 253.745 -4.49512 0.160824 0
M  V30 2583 C 255.064 -3.98697 -1.86355 0
M  V30 2584 H 252.183 -0.715482 -0.176788 0
M  V30 2585 H 254.825 -1.88451 0.242088 0
M  V30 2586 H 252.975 -3.53579 -1.60978 0
M  V30 2587 H 254.647 -4.54353 0.797537 0
M  V30 2588 H 252.89 -4.26013 0.818256 0
M  V30 2589 H 253.561 -5.51531 -0.227569 0
M  V30 2590 H 256.037 -3.94019 -1.33746 0
M  V30 2591 H 254.913 -5.03792 -2.17909 0
M  V30 2592 H 255.174 -3.41744 -2.8047 0
M  V30 2593 N 254.233 0.115231 -1.57178 0
M  V30 2594 C 255.163 1.1423 -2.03651 0
M  V30 2595 C 256.144 1.42967 -0.921655 0
M  V30 2596 O 257.329 1.53343 -1.19162 0
M  V30 2597 C 254.459 2.4675 -2.44401 0
M  V30 2598 C 253.413 2.32467 -3.59365 0
M  V30 2599 C 252.739 3.69984 -3.86026 0
M  V30 2600 C 254.039 1.78203 -4.90959 0
M  V30 2601 H 255.733 0.755749 -2.89705 0
M  V30 2602 H 253.279 0.362093 -1.39373 0
M  V30 2603 H 255.232 3.18854 -2.75517 0
M  V30 2604 H 253.956 2.87302 -1.55322 0
M  V30 2605 H 252.615 1.62811 -3.28463 0
M  V30 2606 H 252.263 4.08028 -2.94147 0
M  V30 2607 H 251.963 3.61279 -4.63412 0
M  V30 2608 H 253.487 4.43587 -4.19599 0
M  V30 2609 H 254.901 2.40128 -5.20587 0
M  V30 2610 H 253.298 1.8031 -5.72371 0
M  V30 2611 H 254.368 0.739876 -4.79222 0
M  V30 2612 N 255.711 1.52812 0.385517 0
M  V30 2613 C 257.127 1.4214 0.725829 0
M  V30 2614 C 257.327 0.544589 1.94001 0
M  V30 2615 O 256.383 0.0193693 2.52493 0
M  V30 2616 C 257.696 2.85042 0.957668 0
M  V30 2617 C 259.244 2.94543 1.05892 0
M  V30 2618 C 259.719 4.38464 1.32337 0
M  V30 2619 N 261.21 4.41804 1.39151 0
M  V30 2620 C 261.945 5.5025 1.61285 0
M  V30 2621 N 261.441 6.68775 1.80866 0
M  V30 2622 N 263.234 5.37798 1.63492 0
M  V30 2623 H 255.385 2.08338 -0.413383 0
M  V30 2624 H 257.648 0.940016 -0.122775 0
M  V30 2625 H 257.354 3.51431 0.137568 0
M  V30 2626 H 257.228 3.27505 1.87137 0
M  V30 2627 H 259.615 2.28321 1.86959 0
M  V30 2628 H 259.696 2.55504 0.123057 0
M  V30 2629 H 259.34 5.05254 0.517793 0
M  V30 2630 H 259.27 4.75059 2.27214 0
M  V30 2631 H 261.761 3.56377 1.25713 0
M  V30 2632 H 262.074 7.47197 1.97271 0
M  V30 2633 H 260.419 6.71797 1.78083 0
M  V30 2634 H 263.61 4.44171 1.47749 0
M  V30 2635 H 263.783 6.22382 1.80402 0
M  V30 2636 N 257.189 -0.644168 1.43834 0
M  V30 2637 C 258.466 -1.40188 1.36406 0
M  V30 2638 C 258.846 -2.11094 0.0163124 0
M  V30 2639 O 258.194 -2.05426 -1.00062 0
M  V30 2640 C 258.404 -2.3791 2.55343 0
M  V30 2641 C 259.752 -3.01637 2.98832 0
M  V30 2642 O 260.776 -2.48237 2.55455 0
M  V30 2643 O 259.635 -3.98477 3.74003 0
M  V30 2644 H 256.729 -0.626773 0.539523 0
M  V30 2645 H 259.275 -0.670317 1.559 0
M  V30 2646 H 258.047 -1.84525 3.4506 0
M  V30 2647 H 257.67 -3.18503 2.37995 0
M  V30 2648 N 258.668 -1.30515 -0.883378 0
M  V30 2649 C 259.916 -1.19194 -1.63209 0
M  V30 2650 C 260.237 0.253205 -1.93349 0
M  V30 2651 O 259.507 1.17025 -1.57105 0
M  V30 2652 H 258.087 -0.438148 -0.605009 0
M  V30 2653 H 260.749 -1.63663 -1.05832 0
M  V30 2654 H 259.845 -1.75396 -2.58153 0
M  V30 2655 N 260.146 1.09593 -1.13257 0
M  V30 2656 C 261.562 1.33775 -0.870423 0
M  V30 2657 C 261.762 1.95327 0.494926 0
M  V30 2658 O 260.818 2.19853 1.2418 0
M  V30 2659 C 262.131 2.25106 -1.99369 0
M  V30 2660 C 263.679 2.3862 -2.02558 0
M  V30 2661 C 264.154 3.33285 -3.14142 0
M  V30 2662 N 265.645 3.40857 -3.13641 0
M  V30 2663 C 266.38 4.14101 -3.96621 0
M  V30 2664 N 265.876 4.90157 -4.8961 0
M  V30 2665 N 267.669 4.09808 -3.84726 0
M  V30 2666 H 259.82 0.680136 -2.01216 0
M  V30 2667 H 262.083 0.362133 -0.876107 0
M  V30 2668 H 261.789 1.87103 -2.97801 0
M  V30 2669 H 261.663 3.25481 -1.90635 0
M  V30 2670 H 264.05 2.75887 -1.0474 0
M  V30 2671 H 264.131 1.38028 -2.15364 0
M  V30 2672 H 263.775 2.96741 -4.12198 0
M  V30 2673 H 263.705 4.33776 -2.98574 0
M  V30 2674 H 266.196 2.86624 -2.46282 0
M  V30 2675 H 266.509 5.4347 -5.49418 0
M  V30 2676 H 264.854 4.89251 -4.93617 0
M  V30 2677 H 268.045 3.4949 -3.11408 0
M  V30 2678 H 268.218 4.66629 -4.49623 0
M  V30 2679 N 261.624 0.925811 1.2754 0
M  V30 2680 C 263.035 0.610102 1.7645 0
M  V30 2681 C 263.386 -0.874723 1.75622 0
M  V30 2682 O 262.511 -1.68444 1.35851 0
M  V30 2683 C 263.106 1.10073 3.20421 0
M  V30 2684 C 261.665 0.835723 3.67005 0
M  V30 2685 C 260.812 1.26054 2.46993 0
M  V30 2686 H 263.763 1.10579 1.13833 0
M  V30 2687 H 263.784 0.447557 3.77859 0
M  V30 2688 H 263.296 2.18143 3.20991 0
M  V30 2689 H 261.397 -0.231249 3.71882 0
M  V30 2690 H 261.51 1.45193 4.56569 0
M  V30 2691 H 259.874 0.679111 2.45479 0
M  V30 2692 H 260.657 2.34984 2.50275 0
M  V30 2693 N 263.102 -1.41638 0.69111 0
M  V30 2694 C 264.348 -2.01598 0.220519 0
M  V30 2695 C 264.681 -1.54594 -1.17535 0
M  V30 2696 O 263.956 -0.755177 -1.79241 0
M  V30 2697 C 264.239 -3.59062 0.273243 0
M  V30 2698 C 264.092 -4.16203 1.70573 0
M  V30 2699 C 265.411 -4.38546 -0.369457 0
M  V30 2700 H 262.53 -0.732468 0.0816045 0
M  V30 2701 H 265.172 -1.68445 0.878986 0
M  V30 2702 H 263.322 -3.87435 -0.287411 0
M  V30 2703 H 264.994 -3.98722 2.31989 0
M  V30 2704 H 263.237 -3.71414 2.2413 0
M  V30 2705 H 263.908 -5.25358 1.69419 0
M  V30 2706 H 266.384 -4.1596 0.107977 0
M  V30 2707 H 265.26 -5.48069 -0.302002 0
M  V30 2708 H 265.521 -4.17662 -1.44951 0
M  V30 2709 N 264.58 -0.43555 -1.51462 0
M  V30 2710 C 265.49 0.383001 -2.31453 0
M  V30 2711 C 266.506 1.02931 -1.4029 0
M  V30 2712 O 267.682 1.02507 -1.73362 0
M  V30 2713 C 264.747 1.47043 -3.13973 0
M  V30 2714 C 263.808 0.844433 -4.20913 0
M  V30 2715 C 263.041 1.88004 -4.9949 0
M  V30 2716 O 263.264 3.10199 -4.78678 0
M  V30 2717 O 262.198 1.47157 -5.83634 0
M  V30 2718 H 266.024 -0.269964 -3.02498 0
M  V30 2719 H 263.609 -0.19813 -1.4808 0
M  V30 2720 H 265.491 2.10113 -3.65281 0
M  V30 2721 H 264.166 2.10751 -2.45695 0
M  V30 2722 H 263.073 0.175729 -3.73687 0
M  V30 2723 H 264.406 0.250869 -4.9156 0
M  V30 2724 N 266.058 1.56714 -0.166846 0
M  V30 2725 C 267.286 2.0112 0.485644 0
M  V30 2726 C 267.701 1.04705 1.57106 0
M  V30 2727 O 267.058 0.0471923 1.82439 0
M  V30 2728 C 267.109 3.45361 1.06808 0
M  V30 2729 O 266.83 4.38092 0.0259995 0
M  V30 2730 C 268.331 4.05145 1.79924 0
M  V30 2731 H 265.551 0.65931 0.124704 0
M  V30 2732 H 268.095 2.02746 -0.267262 0
M  V30 2733 H 266.25 3.44524 1.7715 0
M  V30 2734 H 266.664 5.22519 0.455398 0
M  V30 2735 H 268.138 5.08009 2.15942 0
M  V30 2736 H 268.615 3.46982 2.69258 0
M  V30 2737 H 269.221 4.09672 1.14234 0
M  V30 2738 N 267.536 -0.106894 1.57237 0
M  V30 2739 C 268.499 -1.11466 2.0027 0
M  V30 2740 C 269.499 -1.33623 0.894519 0
M  V30 2741 O 270.689 -1.29935 1.16028 0
M  V30 2742 C 267.821 -2.46646 2.35327 0
M  V30 2743 H 269.014 -0.744516 2.90512 0
M  V30 2744 H 266.567 -0.351576 1.52295 0
M  V30 2745 H 267.302 -2.88558 1.48003 0
M  V30 2746 H 267.087 -2.31915 3.16161 0
M  V30 2747 H 268.577 -3.19151 2.69318 0
M  V30 2748 N 269.014 -1.53014 -0.377408 0
M  V30 2749 C 269.946 -1.74884 -1.48149 0
M  V30 2750 C 270.959 -0.629433 -1.5014 0
M  V30 2751 O 272.148 -0.905416 -1.53833 0
M  V30 2752 C 269.248 -1.80299 -2.86959 0
M  V30 2753 C 268.421 -3.09776 -3.08801 0
M  V30 2754 C 267.48 -3.06586 -4.27658 0
M  V30 2755 O 266.506 -3.80419 -4.23403 0
M  V30 2756 N 267.708 -2.26578 -5.34455 0
M  V30 2757 H 270.473 -2.70147 -1.29771 0
M  V30 2758 H 268.034 -1.51646 -0.56703 0
M  V30 2759 H 270.026 -1.75657 -3.64591 0
M  V30 2760 H 268.596 -0.92372 -2.98641 0
M  V30 2761 H 267.816 -3.27815 -2.18931 0
M  V30 2762 H 269.104 -3.95366 -3.20255 0
M  V30 2763 H 268.502 -1.66081 -5.40771 0
M  V30 2764 H 267.059 -2.27766 -6.10709 0
M  V30 2765 N 270.492 0.636531 -1.44174 0
M  V30 2766 C 271.738 1.39826 -1.4689 0
M  V30 2767 C 272.071 1.93947 -0.0990585 0
M  V30 2768 O 271.346 1.73325 0.882544 0
M  V30 2769 C 271.629 2.56751 -2.5249 0
M  V30 2770 C 271.482 2.08014 -3.98811 0
M  V30 2771 C 272.801 3.58946 -2.54649 0
M  V30 2772 H 269.92 0.507075 -0.53483 0
M  V30 2773 H 272.562 0.720188 -1.75822 0
M  V30 2774 H 270.712 3.14597 -2.2795 0
M  V30 2775 H 272.384 1.5504 -4.34466 0
M  V30 2776 H 270.627 1.39242 -4.10846 0
M  V30 2777 H 271.298 2.92169 -4.68339 0
M  V30 2778 H 273.774 3.1089 -2.76563 0
M  V30 2779 H 272.65 4.38286 -3.3045 0
M  V30 2780 H 272.911 4.12655 -1.58646 0
M  V30 2781 N 271.97 1.30982 0.876444 0
M  V30 2782 C 272.9 1.20668 1.99903 0
M  V30 2783 C 273.881 0.095354 1.69833 0
M  V30 2784 O 275.066 0.27885 1.92188 0
M  V30 2785 C 272.196 0.90655 3.3526 0
M  V30 2786 C 271.15 1.97675 3.79617 0
M  V30 2787 C 270.476 1.52943 5.1236 0
M  V30 2788 C 271.776 3.389 3.97422 0
M  V30 2789 H 273.47 2.14586 2.0879 0
M  V30 2790 H 271.016 1.03308 1.00317 0
M  V30 2791 H 272.969 0.821025 4.13324 0
M  V30 2792 H 271.693 -0.0682969 3.26529 0
M  V30 2793 H 270.352 2.05205 3.03787 0
M  V30 2794 H 270 0.54262 5.00065 0
M  V30 2795 H 269.7 2.24532 5.43009 0
M  V30 2796 H 271.224 1.45786 5.92941 0
M  V30 2797 H 272.638 3.34081 4.659 0
M  V30 2798 H 271.035 4.0865 4.3946 0
M  V30 2799 H 272.105 3.80163 3.01006 0
M  V30 2800 N 273.449 -1.08991 1.13837 0
M  V30 2801 C 274.412 -2.13925 0.822715 0
M  V30 2802 C 275.412 -1.599 -0.1699 0
M  V30 2803 O 276.602 -1.74104 0.0577251 0
M  V30 2804 C 273.734 -3.40155 0.225318 0
M  V30 2805 H 274.927 -2.43358 1.75262 0
M  V30 2806 H 272.48 -1.24603 0.943594 0
M  V30 2807 H 273.215 -3.16352 -0.713594 0
M  V30 2808 H 273 -3.80661 0.940193 0
M  V30 2809 H 274.49 -4.17594 0.0214784 0
M  V30 2810 N 274.927 -0.932562 -1.27047 0
M  V30 2811 C 275.837 -0.441219 -2.30414 0
M  V30 2812 C 276.853 0.480525 -1.67233 0
M  V30 2813 O 278.029 0.362151 -1.98117 0
M  V30 2814 C 275.094 0.293651 -3.45454 0
M  V30 2815 C 274.155 -0.663601 -4.2414 0
M  V30 2816 C 273.388 0.0362932 -5.33688 0
M  V30 2817 O 273.611 1.2548 -5.56427 0
M  V30 2818 O 272.545 -0.638015 -5.98509 0
M  V30 2819 H 276.371 -1.29962 -2.74488 0
M  V30 2820 H 273.956 -0.6981 -1.32087 0
M  V30 2821 H 275.838 0.707951 -4.15411 0
M  V30 2822 H 274.513 1.12758 -3.03426 0
M  V30 2823 H 273.42 -1.12768 -3.56699 0
M  V30 2824 H 274.753 -1.46489 -4.69896 0
M  V30 2825 N 276.405 1.4127 -0.698611 0
M  V30 2826 C 277.821 1.55241 -0.370462 0
M  V30 2827 C 278.021 1.67351 1.12231 0
M  V30 2828 O 277.077 1.65363 1.90818 0
M  V30 2829 C 278.39 2.78997 -1.12165 0
M  V30 2830 C 279.938 2.92797 -1.1063 0
M  V30 2831 C 280.413 4.19445 -1.8393 0
M  V30 2832 N 281.904 4.26409 -1.80914 0
M  V30 2833 C 282.639 5.23271 -2.34467 0
M  V30 2834 N 282.135 6.26145 -2.96504 0
M  V30 2835 N 283.928 5.15232 -2.24706 0
M  V30 2836 H 276.079 1.31654 -1.66676 0
M  V30 2837 H 278.342 0.635393 -0.703548 0
M  V30 2838 H 278.048 2.76268 -2.17644 0
M  V30 2839 H 277.922 3.70606 -0.702209 0
M  V30 2840 H 280.309 2.95039 -0.0597713 0
M  V30 2841 H 280.39 2.02353 -1.56483 0
M  V30 2842 H 280.034 4.17964 -2.88563 0
M  V30 2843 H 279.964 5.08866 -1.35509 0
M  V30 2844 H 282.455 3.527 -1.35687 0
M  V30 2845 H 282.768 6.96451 -3.34927 0
M  V30 2846 H 281.113 6.26638 -3.00583 0
M  V30 2847 H 284.304 4.33789 -1.7591 0
M  V30 2848 H 284.477 5.90552 -2.66745 0
M  V30 2849 N 277.883 0.443576 1.51229 0
M  V30 2850 C 279.131 -0.120557 2.0174 0
M  V30 2851 C 279.452 -1.42665 1.32935 0
M  V30 2852 O 278.722 -1.9028 0.465866 0
M  V30 2853 H 277.302 -0.0475426 0.745486 0
M  V30 2854 H 279.964 0.587711 1.85828 0
M  V30 2855 H 279.06 -0.291972 3.10731 0
M  V30 2856 N 279.361 -1.56624 0.175154 0
M  V30 2857 C 280.61 -1.96173 -0.468921 0
M  V30 2858 C 280.923 -1.06401 -1.64128 0
M  V30 2859 O 282.129 -1.35648 -2.35185 0
M  V30 2860 C 280.585 -3.48833 -0.885633 0
M  V30 2861 C 280.193 -4.47237 0.261343 0
M  V30 2862 C 281.937 -3.97194 -1.49791 0
M  V30 2863 C 279.844 -5.9114 -0.175214 0
M  V30 2864 H 278.774 -0.732455 -0.178958 0
M  V30 2865 H 281.425 -1.81591 0.263997 0
M  V30 2866 H 279.807 -3.58848 -1.67464 0
M  V30 2867 H 280.981 -4.4894 1.03871 0
M  V30 2868 H 279.296 -4.08956 0.783827 0
M  V30 2869 H 281.893 -5.02167 -1.83665 0
M  V30 2870 H 282.236 -3.40351 -2.39722 0
M  V30 2871 H 282.769 -3.90212 -0.773267 0
M  V30 2872 H 279.508 -6.51865 0.689414 0
M  V30 2873 H 279.028 -5.92735 -0.91786 0
M  V30 2874 H 280.707 -6.44044 -0.617792 0
M  V30 2875 N 280.839 0.0985539 -1.57292 0
M  V30 2876 C 281.749 1.13824 -2.05137 0
M  V30 2877 C 282.765 1.44076 -0.975604 0
M  V30 2878 O 283.941 1.54786 -1.28853 0
M  V30 2879 C 281.006 2.43969 -2.46333 0
M  V30 2880 C 280.067 2.2093 -3.68087 0
M  V30 2881 C 279.3 3.44869 -4.0731 0
M  V30 2882 O 279.523 4.52972 -3.46659 0
M  V30 2883 O 278.457 3.34661 -5.00285 0
M  V30 2884 H 282.283 0.761881 -2.93988 0
M  V30 2885 H 279.868 0.310818 -1.46131 0
M  V30 2886 H 281.75 3.20609 -2.73473 0
M  V30 2887 H 280.425 2.81038 -1.60621 0
M  V30 2888 H 279.332 1.42081 -3.46069 0
M  V30 2889 H 280.665 1.88755 -4.54568 0
M  V30 2890 N 282.317 1.53212 0.369288 0
M  V30 2891 C 283.728 1.60943 0.946276 0
M  V30 2892 C 284.079 0.47452 1.90375 0
M  V30 2893 O 283.204 -0.399597 2.12679 0
M  V30 2894 C 283.799 2.91715 1.72302 0
M  V30 2895 C 282.358 3.01792 2.24941 0
M  V30 2896 C 281.505 2.56211 1.06072 0
M  V30 2897 H 284.456 1.58007 0.148198 0
M  V30 2898 H 284.477 2.79309 2.58393 0
M  V30 2899 H 283.989 3.74295 1.0259 0
M  V30 2900 H 282.09 2.23791 2.97906 0
M  V30 2901 H 282.203 4.06803 2.53077 0
M  V30 2902 H 280.567 2.10998 1.4266 0
M  V30 2903 H 281.35 3.41206 0.378639 0
M  V30 2904 N 283.795 -0.628877 1.44509 0
M  V30 2905 C 284.725 -1.75187 1.54376 0
M  V30 2906 C 285.706 -1.65411 0.396618 0
M  V30 2907 O 286.891 -1.84137 0.617031 0
M  V30 2908 C 284.021 -3.13725 1.48976 0
M  V30 2909 C 282.975 -3.38291 2.62189 0
M  V30 2910 C 282.301 -4.76883 2.41841 0
M  V30 2911 C 283.601 -3.30632 4.04326 0
M  V30 2912 H 285.295 -1.67187 2.48373 0
M  V30 2913 H 282.841 -0.802909 1.19538 0
M  V30 2914 H 284.794 -3.92064 1.54478 0
M  V30 2915 H 283.518 -3.22515 0.514961 0
M  V30 2916 H 282.177 -2.62334 2.56079 0
M  V30 2917 H 281.825 -4.82378 1.42548 0
M  V30 2918 H 281.525 -4.94278 3.17747 0
M  V30 2919 H 283.049 -5.57449 2.49165 0
M  V30 2920 H 284.463 -3.98873 4.11793 0
M  V30 2921 H 282.86 -3.59561 4.80454 0
M  V30 2922 H 283.93 -2.28404 4.27738 0
M  V30 2923 N 285.273 -1.31445 -0.869486 0
M  V30 2924 C 286.183 -1.21097 -2.0093 0
M  V30 2925 C 287.199 -0.127584 -1.73532 0
M  V30 2926 O 288.375 -0.345477 -1.98415 0
M  V30 2927 C 285.44 -0.919378 -3.34288 0
M  V30 2928 C 284.501 -2.08971 -3.75006 0
M  V30 2929 C 283.734 -1.81194 -5.02001 0
M  V30 2930 O 283.957 -0.747296 -5.65484 0
M  V30 2931 O 282.891 -2.66883 -5.39497 0
M  V30 2932 H 286.717 -2.16883 -2.12592 0
M  V30 2933 H 284.302 -1.11189 -0.997868 0
M  V30 2934 H 286.184 -0.772625 -4.14257 0
M  V30 2935 H 284.859 0.00844772 -3.23699 0
M  V30 2936 H 283.766 -2.29187 -2.95676 0
M  V30 2937 H 285.099 -2.9998 -3.90221 0
M  V30 2938 N 286.751 1.08385 -1.14413 0
M  V30 2939 C 287.681 2.17321 -0.854044 0
M  V30 2940 C 288.662 1.69024 0.191049 0
M  V30 2941 O 289.847 1.94141 0.0476779 0
M  V30 2942 C 286.977 3.45719 -0.330983 0
M  V30 2943 C 285.931 4.07409 -1.31155 0
M  V30 2944 C 285.257 5.30762 -0.64778 0
M  V30 2945 C 286.557 4.48665 -2.67388 0
M  V30 2946 H 288.251 2.41845 -1.76498 0
M  V30 2947 H 285.797 1.16233 -0.850051 0
M  V30 2948 H 287.75 4.21241 -0.115645 0
M  V30 2949 H 286.474 3.2075 0.615381 0
M  V30 2950 H 285.133 3.33919 -1.51306 0
M  V30 2951 H 284.781 5.02078 0.304398 0
M  V30 2952 H 284.481 5.72992 -1.30207 0
M  V30 2953 H 286.005 6.08998 -0.441972 0
M  V30 2954 H 287.419 5.15364 -2.51143 0
M  V30 2955 H 285.816 5.01814 -3.29093 0
M  V30 2956 H 286.886 3.60543 -3.24248 0
M  V30 2957 N 288.23 0.939286 1.26551 0
M  V30 2958 C 289.646 0.641304 1.46149 0
M  V30 2959 C 289.846 -0.805964 1.84679 0
M  V30 2960 O 288.902 -1.58278 1.96734 0
M  V30 2961 C 290.215 1.6011 2.54529 0
M  V30 2962 C 291.763 1.6106 2.68382 0
M  V30 2963 C 292.238 2.55765 3.79932 0
M  V30 2964 N 293.729 2.5404 3.87322 0
M  V30 2965 C 294.464 3.24004 4.73085 0
M  V30 2966 N 293.96 4.03388 5.63249 0
M  V30 2967 N 295.753 3.12965 4.66914 0
M  V30 2968 H 287.904 1.87478 0.998285 0
M  V30 2969 H 290.167 0.805559 0.499779 0
M  V30 2970 H 289.873 2.63412 2.33039 0
M  V30 2971 H 289.747 1.35171 3.52149 0
M  V30 2972 H 292.134 0.584835 2.89247 0
M  V30 2973 H 292.215 1.90053 1.71212 0
M  V30 2974 H 291.859 3.58458 3.5982 0
M  V30 2975 H 291.789 2.24063 4.76554 0
M  V30 2976 H 294.28 1.96396 3.22858 0
M  V30 2977 H 294.593 4.5373 6.25579 0
M  V30 2978 H 292.938 4.07489 5.63008 0
M  V30 2979 H 296.129 2.50432 3.95476 0
M  V30 2980 H 296.302 3.67759 5.33533 0
M  V30 2981 N 289.708 -1.40897 0.706093 0
M  V30 2982 C 290.955 -2.01054 0.241531 0
M  V30 2983 C 291.283 -1.55956 -1.16223 0
M  V30 2984 O 290.538 -0.766336 -1.80072 0
M  V30 2985 C 290.837 -3.5646 0.259099 0
M  V30 2986 C 290.503 -4.21106 1.61184 0
M  V30 2987 C 289.165 -4.38479 1.98216 0
M  V30 2988 C 291.517 -4.57256 2.50132 0
M  V30 2989 C 288.845 -4.89282 3.2376 0
M  V30 2990 C 291.197 -5.09454 3.7502 0
M  V30 2991 C 289.861 -5.25037 4.12181 0
M  V30 2992 H 289.131 -0.73571 0.0883825 0
M  V30 2993 H 291.778 -1.68645 0.907257 0
M  V30 2994 H 290.083 -3.88721 -0.490189 0
M  V30 2995 H 291.78 -4.00826 -0.11804 0
M  V30 2996 H 288.37 -4.07966 1.31384 0
M  V30 2997 H 292.554 -4.43479 2.228 0
M  V30 2998 H 287.81 -4.99531 3.52532 0
M  V30 2999 H 291.984 -5.36404 4.44121 0
M  V30 3000 H 289.611 -5.64164 5.09532 0
M  V30 3001 N 291.186 -0.45159 -1.50991 0
M  V30 3002 C 292.133 0.352625 -2.2809 0
M  V30 3003 C 293.103 1.0044 -1.32291 0
M  V30 3004 O 294.288 1.02058 -1.6121 0
M  V30 3005 C 291.428 1.43983 -3.13629 0
M  V30 3006 C 290.541 0.804772 -4.24438 0
M  V30 3007 C 289.676 1.86822 -4.97263 0
M  V30 3008 C 288.715 1.21236 -5.99973 0
M  V30 3009 N 287.852 2.2178 -6.66152 0
M  V30 3010 H 292.692 -0.311186 -2.96371 0
M  V30 3011 H 290.229 -0.165308 -1.46168 0
M  V30 3012 H 292.187 2.08161 -3.61559 0
M  V30 3013 H 290.817 2.07307 -2.47434 0
M  V30 3014 H 289.869 0.0509129 -3.80366 0
M  V30 3015 H 291.181 0.286076 -4.97979 0
M  V30 3016 H 290.335 2.58628 -5.48813 0
M  V30 3017 H 289.074 2.42068 -4.23385 0
M  V30 3018 H 288.079 0.479828 -5.47702 0
M  V30 3019 H 289.304 0.667051 -6.75816 0
M  V30 3020 H 287.25 2.76079 -5.95077 0
M  V30 3021 H 287.167 1.74841 -7.35504 0
M  V30 3022 H 288.435 2.93026 -7.22327 0
M  V30 3023 N 292.664 1.56529 -0.183458 0
M  V30 3024 C 293.574 2.22144 0.754272 0
M  V30 3025 C 294.59 1.21684 1.24374 0
M  V30 3026 O 295.766 1.54385 1.29333 0
M  V30 3027 C 292.831 2.85884 1.96141 0
M  V30 3028 C 291.892 4.01579 1.51765 0
M  V30 3029 C 291.125 4.6227 2.66725 0
M  V30 3030 O 291.348 4.21865 3.83909 0
M  V30 3031 O 290.282 5.51936 2.40104 0
M  V30 3032 H 294.108 3.02861 0.225527 0
M  V30 3033 H 291.693 1.49331 0.0453032 0
M  V30 3034 H 293.575 3.26253 2.66715 0
M  V30 3035 H 292.25 2.08154 2.47899 0
M  V30 3036 H 291.157 3.65856 0.781049 0
M  V30 3037 H 292.49 4.80938 1.04686 0
M  V30 3038 N 294.142 -0.090211 1.57342 0
M  V30 3039 C 295.39 -0.791241 1.85967 0
M  V30 3040 C 295.711 -1.7903 0.772859 0
M  V30 3041 O 294.981 -1.94872 -0.200398 0
M  V30 3042 H 293.561 -0.295205 0.686195 0
M  V30 3043 H 296.223 -0.0706782 1.94772 0
M  V30 3044 H 295.319 -1.31882 2.82867 0
M  V30 3045 N 295.62 -1.53406 -0.361157 0
M  V30 3046 C 296.55 -1.83136 -1.44857 0
M  V30 3047 C 297.531 -0.685174 -1.5569 0
M  V30 3048 O 298.716 -0.93544 -1.70186 0
M  V30 3049 C 295.846 -2.02522 -2.82138 0
M  V30 3050 C 294.8 -3.18302 -2.86126 0
M  V30 3051 C 294.126 -3.22989 -4.26125 0
M  V30 3052 C 295.426 -4.56796 -2.53248 0
M  V30 3053 H 297.12 -2.74201 -1.20226 0
M  V30 3054 H 294.666 -1.31938 -0.576922 0
M  V30 3055 H 296.619 -2.21904 -3.58241 0
M  V30 3056 H 295.343 -1.08172 -3.08166 0
M  V30 3057 H 294.002 -2.98747 -2.12475 0
M  V30 3058 H 293.65 -2.26267 -4.49235 0
M  V30 3059 H 293.35 -4.00781 -4.29708 0
M  V30 3060 H 294.874 -3.44559 -5.04094 0
M  V30 3061 H 296.288 -4.7631 -3.19064 0
M  V30 3062 H 294.685 -5.36862 -2.68141 0
M  V30 3063 H 295.755 -4.61606 -1.48484 0
M  V30 3064 N 297.098 0.621204 -1.44841 0
M  V30 3065 C 298.061 1.71459 -1.521 0
M  V30 3066 C 299.061 1.55696 -0.401933 0
M  V30 3067 O 300.251 1.61011 -0.664925 0
M  V30 3068 C 297.383 3.10624 -1.40447 0
M  V30 3069 H 298.576 1.66394 -2.49506 0
M  V30 3070 H 296.129 0.835745 -1.3208 0
M  V30 3071 H 296.864 3.21277 -0.441737 0
M  V30 3072 H 296.649 3.23473 -2.21602 0
M  V30 3073 H 298.139 3.90293 -1.4853 0
M  V30 3074 N 298.576 1.31904 0.862503 0
M  V30 3075 C 299.506 1.22782 1.98612 0
M  V30 3076 C 300.487 0.113362 1.69722 0
M  V30 3077 O 301.672 0.299218 1.91881 0
M  V30 3078 C 298.802 0.942058 3.34279 0
M  V30 3079 C 297.756 2.0169 3.77499 0
M  V30 3080 C 297.082 1.58369 5.10709 0
M  V30 3081 C 298.382 3.43096 3.93805 0
M  V30 3082 H 300.076 2.16788 2.06502 0
M  V30 3083 H 297.622 1.04366 0.992154 0
M  V30 3084 H 299.575 0.864818 4.1243 0
M  V30 3085 H 298.299 -0.0336603 3.26583 0
M  V30 3086 H 296.958 2.08416 3.01593 0
M  V30 3087 H 296.606 0.595628 4.99461 0
M  V30 3088 H 296.306 2.30279 5.40597 0
M  V30 3089 H 297.83 1.52067 5.91361 0
M  V30 3090 H 299.244 3.39003 4.62331 0
M  V30 3091 H 297.641 4.13288 4.35101 0
M  V30 3092 H 298.711 3.83334 2.96957 0
M  V30 3093 N 300.054 -1.07777 1.14986 0
M  V30 3094 C 301.303 -1.79669 0.916617 0
M  V30 3095 C 301.616 -1.87474 -0.557917 0
M  V30 3096 O 302.822 -2.55845 -0.908617 0
M  V30 3097 C 301.278 -3.22848 1.59051 0
M  V30 3098 C 300.886 -3.23257 3.10176 0
M  V30 3099 C 302.63 -3.99379 1.43864 0
M  V30 3100 C 300.537 -4.61063 3.70372 0
M  V30 3101 H 299.467 -0.673349 0.33929 0
M  V30 3102 H 302.118 -1.21003 1.37951 0
M  V30 3103 H 300.5 -3.8168 1.0553 0
M  V30 3104 H 301.674 -2.74095 3.70417 0
M  V30 3105 H 299.989 -2.60222 3.25074 0
M  V30 3106 H 302.586 -5.0122 1.86232 0
M  V30 3107 H 302.929 -4.14511 0.385564 0
M  V30 3108 H 303.462 -3.47032 1.94457 0
M  V30 3109 H 300.201 -4.51135 4.7556 0
M  V30 3110 H 299.721 -5.1048 3.14913 0
M  V30 3111 H 301.4 -5.30034 3.71043 0
M  V30 3112 N 301.532 -0.945985 -1.26051 0
M  V30 3113 C 302.48 -0.450259 -2.282 0
M  V30 3114 C 303.474 0.47497 -1.62605 0
M  V30 3115 O 304.68 0.352653 -1.76512 0
M  V30 3116 H 301.055 -0.127081 -0.741184 0
M  V30 3117 H 303.026 -1.32422 -2.67408 0
M  V30 3118 C 301.775 0.26467 -3.46691 0
M  V30 3119 H 301.098 -0.438123 -3.97392 0
M  V30 3120 H 302.538 0.575678 -4.20074 0
M  V30 3121 C 300.997 1.48416 -3.02447 0
M  V30 3122 O 301.527 2.58227 -3.07704 0
M  V30 3123 N 299.733 1.34243 -2.57735 0
M  V30 3124 H 299.28 0.448994 -2.53657 0
M  V30 3125 H 299.238 2.15957 -2.28495 0
M  V30 3126 N 303.011 1.40521 -0.713556 0
M  V30 3127 C 304.259 2.00527 -0.251692 0
M  V30 3128 C 304.58 1.56857 1.15848 0
M  V30 3129 O 303.85 0.807127 1.785 0
M  V30 3130 H 302.43 0.741551 -0.0900646 0
M  V30 3131 H 305.092 1.71887 -0.918733 0
M  V30 3132 H 304.188 3.10813 -0.283192 0
M  V30 3133 N 304.489 0.459591 1.5075 0
M  V30 3134 C 305.717 -0.0973749 2.06671 0
M  V30 3135 C 306.132 -1.34524 1.32472 0
M  V30 3136 O 305.489 -1.7827 0.390634 0
M  V30 3137 C 305.54 -0.39714 3.59312 0
M  V30 3138 O 305.261 0.801214 4.30711 0
M  V30 3139 C 306.762 -1.00234 4.31819 0
M  V30 3140 H 303.982 0.00195854 0.670997 0
M  V30 3141 H 306.526 0.645072 1.94059 0
M  V30 3142 H 304.681 -1.08951 3.71764 0
M  V30 3143 H 305.095 0.538857 5.21725 0
M  V30 3144 H 306.569 -1.16193 5.39632 0
M  V30 3145 H 307.046 -1.98939 3.91561 0
M  V30 3146 H 307.652 -0.348699 4.23868 0
M  V30 3147 N 305.967 -1.56429 0.191757 0
M  V30 3148 C 307.192 -2.02309 -0.456706 0
M  V30 3149 C 307.617 -1.07103 -1.5463 0
M  V30 3150 O 306.975 -0.0539677 -1.8122 0
M  V30 3151 C 307.023 -3.46654 -0.993159 0
M  V30 3152 O 306.127 -3.54559 -2.10622 0
M  V30 3153 H 305.468 -0.655303 -0.107114 0
M  V30 3154 H 307.998 -2.02364 0.301653 0
M  V30 3155 H 308.008 -3.86377 -1.31061 0
M  V30 3156 H 306.683 -4.1544 -0.195504 0
M  V30 3157 H 305.26 -3.26708 -1.79767 0
M  V30 3158 N 307.445 0.0818655 -1.57387 0
M  V30 3159 C 308.693 0.781368 -1.86384 0
M  V30 3160 C 309.014 1.78618 -0.782342 0
M  V30 3161 O 308.284 1.94976 0.190061 0
M  V30 3162 H 306.864 0.291562 -0.687751 0
M  V30 3163 H 309.526 0.060348 -1.94807 0
M  V30 3164 H 308.622 1.3038 -2.83562 0
M  V30 3165 N 308.923 1.53595 0.353017 0
M  V30 3166 C 309.856 1.7572 1.45594 0
M  V30 3167 C 310.834 0.605961 1.50887 0
M  V30 3168 O 312.018 0.840023 1.68748 0
M  V30 3169 C 309.145 1.84732 2.83887 0
M  V30 3170 C 308.191 3.06808 2.96262 0
M  V30 3171 S 309.024 4.66065 2.63711 0
M  V30 3172 C 310.18 4.77943 4.04131 0
M  V30 3173 H 310.413 2.68994 1.26608 0
M  V30 3174 H 307.946 1.44343 0.548117 0
M  V30 3175 H 309.904 1.9061 3.63563 0
M  V30 3176 H 308.565 0.92488 3.00175 0
M  V30 3177 H 307.758 3.09761 3.97573 0
M  V30 3178 H 307.36 2.99108 2.24523 0
M  V30 3179 H 309.652 4.5877 4.98534 0
M  V30 3180 H 310.595 5.80022 4.06177 0
M  V30 3181 H 311.003 4.06472 3.91715 0
M  V30 3182 N 310.401 -0.613514 1.45168 0
M  V30 3183 C 311.629 -1.39946 1.5239 0
M  V30 3184 C 312.044 -1.88167 0.154531 0
M  V30 3185 O 311.401 -1.61872 -0.842843 0
M  V30 3186 C 311.452 -2.60795 2.50337 0
M  V30 3187 O 311.173 -2.1458 3.81952 0
M  V30 3188 C 312.674 -3.53723 2.67198 0
M  V30 3189 H 309.894 -0.428593 0.516284 0
M  V30 3190 H 312.438 -0.748753 1.903 0
M  V30 3191 H 310.593 -3.21919 2.15515 0
M  V30 3192 H 311.007 -2.93055 4.34993 0
M  V30 3193 H 312.481 -4.35079 3.39721 0
M  V30 3194 H 312.958 -4.0368 1.73029 0
M  V30 3195 H 313.564 -2.98456 3.02992 0
M  V30 3196 N 311.879 -1.3236 -0.855495 0
M  V30 3197 C 313.127 -1.22629 -1.60644 0
M  V30 3198 C 313.448 0.212136 -1.93843 0
M  V30 3199 O 312.718 1.13666 -1.59552 0
M  V30 3200 H 311.298 -0.450882 -0.595579 0
M  V30 3201 H 313.96 -1.65871 -1.02337 0
M  V30 3202 H 313.056 -1.80832 -2.54374 0
M  V30 3203 N 313.357 1.07166 -1.15556 0
M  V30 3204 C 314.287 2.16403 -0.877046 0
M  V30 3205 C 315.268 1.69217 0.173111 0
M  V30 3206 O 316.453 1.94181 0.027084 0
M  V30 3207 C 313.583 3.45349 -0.367632 0
M  V30 3208 C 312.537 4.05995 -1.35468 0
M  V30 3209 C 311.863 5.30045 -0.704038 0
M  V30 3210 C 313.163 4.45804 -2.72132 0
M  V30 3211 H 314.857 2.39959 -1.79053 0
M  V30 3212 H 312.403 1.15325 -0.862331 0
M  V30 3213 H 314.356 4.21095 -0.160317 0
M  V30 3214 H 313.08 3.21385 0.581326 0
M  V30 3215 H 311.739 3.32296 -1.54839 0
M  V30 3216 H 311.387 5.02373 0.251128 0
M  V30 3217 H 311.087 5.71579 -1.36277 0
M  V30 3218 H 312.611 6.08495 -0.50654 0
M  V30 3219 H 314.025 5.12671 -2.56595 0
M  V30 3220 H 312.422 4.98296 -3.34397 0
M  V30 3221 H 313.492 3.57083 -3.28054 0
M  V30 3222 N 314.835 0.952656 1.25548 0
M  V30 3223 C 316.083 0.605176 1.92826 0
M  V30 3224 C 316.404 -0.860261 1.74999 0
M  V30 3225 O 315.674 -1.6125 1.11244 0
M  V30 3226 H 314.254 0.220832 0.713612 0
M  V30 3227 H 316.916 1.21047 1.52754 0
M  V30 3228 H 316.012 0.832798 3.00784 0
M  V30 3229 N 316.313 -1.40141 0.720998 0
M  V30 3230 C 317.538 -2.05618 0.271258 0
M  V30 3231 C 317.963 -1.53978 -1.08039 0
M  V30 3232 O 317.321 -0.677463 -1.68167 0
M  V30 3233 C 317.369 -3.59609 0.267197 0
M  V30 3234 O 316.473 -4.05526 -0.749814 0
M  V30 3235 H 315.814 -0.651904 0.126162 0
M  V30 3236 H 318.344 -1.79439 0.982997 0
M  V30 3237 H 318.354 -4.0786 0.106744 0
M  V30 3238 H 317.029 -3.96559 1.25354 0
M  V30 3239 H 315.606 -3.68722 -0.556644 0
M  V30 3240 N 317.792 -0.46758 -1.50504 0
M  V30 3241 C 318.722 0.318381 -2.31319 0
M  V30 3242 C 319.703 0.993564 -1.38066 0
M  V30 3243 O 320.888 0.991411 -1.66987 0
M  V30 3244 C 318.018 1.40275 -3.17711 0
M  V30 3245 C 316.972 0.849373 -4.19487 0
M  V30 3246 C 316.298 2.03177 -4.94594 0
M  V30 3247 C 317.598 -0.136942 -5.2212 0
M  V30 3248 H 319.292 -0.356106 -2.97275 0
M  V30 3249 H 316.838 -0.172703 -1.42961 0
M  V30 3250 H 318.791 1.96004 -3.73042 0
M  V30 3251 H 317.515 2.10596 -2.49634 0
M  V30 3252 H 316.174 0.314076 -3.65252 0
M  V30 3253 H 315.822 2.72187 -4.22993 0
M  V30 3254 H 315.522 1.66774 -5.63436 0
M  V30 3255 H 317.046 2.59403 -5.52759 0
M  V30 3256 H 318.46 0.331056 -5.72343 0
M  V30 3257 H 316.857 -0.41507 -5.98663 0
M  V30 3258 H 317.927 -1.06398 -4.73083 0
M  V30 3259 N 319.27 1.56325 -0.20005 0
M  V30 3260 C 320.516 1.98012 0.438059 0
M  V30 3261 C 320.849 1.08702 1.60927 0
M  V30 3262 O 320.124 0.140064 1.93995 0
M  V30 3263 C 320.407 3.48841 0.893419 0
M  V30 3264 C 320.26 4.48928 -0.279947 0
M  V30 3265 C 321.579 4.03498 1.75719 0
M  V30 3266 H 318.698 0.719918 0.157757 0
M  V30 3267 H 321.34 1.87743 -0.291968 0
M  V30 3268 H 319.49 3.57723 1.51547 0
M  V30 3269 H 321.162 4.52079 -0.91772 0
M  V30 3270 H 319.405 4.23694 -0.930919 0
M  V30 3271 H 320.076 5.5194 0.0812601 0
M  V30 3272 H 322.552 3.97427 1.23253 0
M  V30 3273 H 321.428 5.09393 2.04476 0
M  V30 3274 H 321.689 3.4906 2.71311 0
M  V30 3275 N 320.748 -0.0735177 1.57428 0
M  V30 3276 C 321.994 -0.774145 1.87443 0
M  V30 3277 C 322.327 -1.77311 0.792103 0
M  V30 3278 O 321.602 -1.93492 -0.197793 0
M  V30 3279 C 321.885 -1.48367 3.28115 0
M  V30 3280 C 321.738 -0.501227 4.46999 0
M  V30 3281 C 323.057 -2.429 3.66998 0
M  V30 3282 H 320.176 -0.279971 0.681752 0
M  V30 3283 H 322.818 -0.0373616 1.89963 0
M  V30 3284 H 320.968 -2.11171 3.26097 0
M  V30 3285 H 322.64 0.121468 4.6114 0
M  V30 3286 H 320.883 0.183593 4.33411 0
M  V30 3287 H 321.554 -1.03526 5.42205 0
M  V30 3288 H 324.03 -1.90175 3.70098 0
M  V30 3289 H 322.906 -2.89549 4.66318 0
M  V30 3290 H 323.167 -3.27628 2.96837 0
M  V30 3291 N 322.226 -1.5378 -0.344866 0
M  V30 3292 C 323.474 -1.70625 -1.08311 0
M  V30 3293 C 323.795 -0.471447 -1.89215 0
M  V30 3294 O 323.065 0.514616 -1.8902 0
M  V30 3295 H 321.645 -0.629058 -0.402859 0
M  V30 3296 H 324.307 -1.9103 -0.386459 0
M  V30 3297 H 323.403 -2.57656 -1.76124 0
M  V30 3298 N 323.704 0.605807 -1.45491 0
M  V30 3299 C 325.12 0.926751 -1.29936 0
M  V30 3300 C 325.32 1.99896 -0.253706 0
M  V30 3301 O 324.376 2.50038 0.351737 0
M  V30 3302 C 325.689 1.36599 -2.67883 0
M  V30 3303 C 327.237 1.4801 -2.75793 0
M  V30 3304 C 327.712 1.95309 -4.14268 0
M  V30 3305 N 329.203 2.0254 -4.16571 0
M  V30 3306 C 329.938 2.40363 -5.20589 0
M  V30 3307 N 329.434 2.77143 -6.34952 0
M  V30 3308 N 331.227 2.40718 -5.07948 0
M  V30 3309 H 323.378 -0.102862 -2.12151 0
M  V30 3310 H 325.641 0.016639 -0.947854 0
M  V30 3311 H 325.347 0.652306 -3.45598 0
M  V30 3312 H 325.221 2.33215 -2.96463 0
M  V30 3313 H 327.608 2.1847 -1.98381 0
M  V30 3314 H 327.689 0.497041 -2.50925 0
M  V30 3315 H 327.333 1.25436 -4.92167 0
M  V30 3316 H 327.263 2.94532 -4.3653 0
M  V30 3317 H 329.754 1.76699 -3.34045 0
M  V30 3318 H 330.067 3.0489 -7.10114 0
M  V30 3319 H 328.412 2.74834 -6.3835 0
M  V30 3320 H 331.603 2.11392 -4.1765 0
M  V30 3321 H 331.776 2.69869 -5.89131 0
M  V30 3322 N 325.182 1.32811 0.848464 0
M  V30 3323 C 326.145 1.22194 1.9391 0
M  V30 3324 C 327.145 0.143404 1.60159 0
M  V30 3325 O 328.335 0.394253 1.6968 0
M  V30 3326 C 325.467 0.88067 3.29328 0
M  V30 3327 H 326.66 2.19127 2.04752 0
M  V30 3328 H 324.213 1.16731 1.0394 0
M  V30 3329 H 324.948 -0.0865776 3.24184 0
M  V30 3330 H 324.733 1.66052 3.55203 0
M  V30 3331 H 326.223 0.830871 4.09251 0
M  V30 3332 N 326.66 -1.06551 1.16123 0
M  V30 3333 C 327.59 -2.15935 0.88851 0
M  V30 3334 C 328.571 -1.69306 -0.164135 0
M  V30 3335 O 329.756 -1.94193 -0.0167857 0
M  V30 3336 C 326.886 -3.45149 0.385942 0
M  V30 3337 C 325.84 -4.05271 1.3762 0
M  V30 3338 C 325.166 -5.29664 0.732137 0
M  V30 3339 C 326.466 -4.44355 2.74493 0
M  V30 3340 H 328.16 -2.39006 1.80323 0
M  V30 3341 H 325.706 -1.14866 0.868435 0
M  V30 3342 H 327.659 -4.21004 0.182647 0
M  V30 3343 H 326.383 -3.21689 -0.564274 0
M  V30 3344 H 325.042 -3.3147 1.56599 0
M  V30 3345 H 324.69 -5.02499 -0.224483 0
M  V30 3346 H 324.39 -5.70848 1.39307 0
M  V30 3347 H 325.914 -6.08218 0.538802 0
M  V30 3348 H 327.328 -5.11303 2.59311 0
M  V30 3349 H 325.725 -4.96515 3.37035 0
M  V30 3350 H 326.795 -3.55339 3.29943 0
M  V30 3351 N 328.138 -0.959301 -1.25041 0
M  V30 3352 C 329.048 -0.489994 -2.29426 0
M  V30 3353 C 330.064 0.444944 -1.68215 0
M  V30 3354 O 331.24 0.320046 -1.98841 0
M  V30 3355 C 328.305 0.220309 -3.45999 0
M  V30 3356 C 327.366 -0.753418 -4.22637 0
M  V30 3357 C 326.599 -0.076918 -5.33645 0
M  V30 3358 O 326.822 1.13649 -5.58963 0
M  V30 3359 O 325.756 -0.764824 -5.97021 0
M  V30 3360 H 329.582 -1.35755 -2.71669 0
M  V30 3361 H 327.167 -0.725961 -1.30576 0
M  V30 3362 H 329.049 0.619677 -4.16819 0
M  V30 3363 H 327.724 1.06296 -3.0575 0
M  V30 3364 H 326.631 -1.20308 -3.54227 0
M  V30 3365 H 327.964 -1.56423 -4.66683 0
M  V30 3366 N 329.616 1.39756 -0.72842 0
M  V30 3367 C 330.548 2.29157 -0.0446202 0
M  V30 3368 C 331.561 1.46484 0.710367 0
M  V30 3369 O 332.75 1.69632 0.55562 0
M  V30 3370 C 329.85 3.24987 0.961071 0
M  V30 3371 C 329.023 4.36572 0.268967 0
M  V30 3372 C 328.082 5.12756 1.18184 0
M  V30 3373 O 327.108 5.6534 0.661794 0
M  V30 3374 N 328.31 5.23331 2.51206 0
M  V30 3375 H 331.075 2.88482 -0.812295 0
M  V30 3376 H 328.636 1.51265 -0.577098 0
M  V30 3377 H 330.628 3.72827 1.57423 0
M  V30 3378 H 329.198 2.66739 1.63 0
M  V30 3379 H 328.418 3.90694 -0.524574 0
M  V30 3380 H 329.706 5.08363 -0.210934 0
M  V30 3381 H 329.104 4.82116 2.9594 0
M  V30 3382 H 327.661 5.74634 3.07634 0
M  V30 3383 N 331.094 0.475555 1.50254 0
M  V30 3384 C 332.057 -0.305016 2.27161 0
M  V30 3385 C 333.057 -0.916519 1.32123 0
M  V30 3386 O 334.247 -0.785003 1.5551 0
M  V30 3387 C 331.379 -1.43496 3.09227 0
M  V30 3388 H 332.572 0.369511 2.97615 0
M  V30 3389 H 330.125 0.229747 1.54602 0
M  V30 3390 H 330.86 -2.14441 2.43281 0
M  V30 3391 H 330.645 -1.00223 3.79075 0
M  V30 3392 H 332.135 -1.98548 3.67381 0
M  V30 3393 N 332.573 -1.56217 0.208337 0
M  V30 3394 C 333.505 -2.1695 -0.739276 0
M  V30 3395 C 334.518 -1.13492 -1.1672 0
M  V30 3396 O 335.707 -1.40529 -1.10063 0
M  V30 3397 C 332.807 -2.72755 -2.01142 0
M  V30 3398 C 331.98 -4.0125 -1.74118 0
M  V30 3399 C 331.039 -4.41749 -2.85909 0
M  V30 3400 O 330.065 -5.08912 -2.54946 0
M  V30 3401 N 331.267 -4.06342 -4.14568 0
M  V30 3402 H 334.032 -2.98893 -0.219837 0
M  V30 3403 H 331.593 -1.61878 0.0268445 0
M  V30 3404 H 333.585 -2.96826 -2.75094 0
M  V30 3405 H 332.155 -1.95191 -2.4417 0
M  V30 3406 H 331.375 -3.85173 -0.838775 0
M  V30 3407 H 332.663 -4.851 -1.53477 0
M  V30 3408 H 332.061 -3.52345 -4.42571 0
M  V30 3409 H 330.618 -4.35335 -4.85105 0
M  V30 3410 N 334.051 0.0651679 -1.57465 0
M  V30 3411 C 334.983 1.10359 -2.00882 0
M  V30 3412 C 335.996 1.346 -0.915788 0
M  V30 3413 O 337.185 1.32723 -1.1936 0
M  V30 3414 C 334.285 2.45312 -2.33828 0
M  V30 3415 C 333.458 2.40934 -3.65061 0
M  V30 3416 C 332.517 3.58047 -3.85602 0
M  V30 3417 O 331.543 3.39175 -4.57109 0
M  V30 3418 N 332.745 4.78637 -3.28462 0
M  V30 3419 H 335.51 0.733807 -2.90578 0
M  V30 3420 H 333.071 0.253719 -1.599 0
M  V30 3421 H 335.063 3.22314 -2.44737 0
M  V30 3422 H 333.633 2.74267 -1.49988 0
M  V30 3423 H 332.853 1.49273 -3.64844 0
M  V30 3424 H 334.141 2.35117 -4.51218 0
M  V30 3425 H 333.539 4.96872 -2.70433 0
M  V30 3426 H 332.096 5.53127 -3.44809 0
M  V30 3427 N 335.529 1.53961 0.336706 0
M  V30 3428 C 336.492 1.81724 1.39675 0
M  V30 3429 C 337.492 0.688532 1.45313 0
M  V30 3430 O 338.682 0.956829 1.45569 0
M  V30 3431 C 335.814 1.96543 2.78538 0
M  V30 3432 H 337.007 2.76424 1.16318 0
M  V30 3433 H 334.56 1.45478 0.571474 0
M  V30 3434 H 335.295 1.0401 3.07168 0
M  V30 3435 H 335.08 2.78665 2.75841 0
M  V30 3436 H 336.57 2.19516 3.5525 0
M  V30 3437 N 337.007 -0.598083 1.45811 0
M  V30 3438 C 337.917 -1.73632 1.57763 0
M  V30 3439 C 338.933 -1.67763 0.461676 0
M  V30 3440 O 340.109 -1.87949 0.723685 0
M  V30 3441 C 337.174 -3.10114 1.55018 0
M  V30 3442 C 336.235 -3.27364 2.77726 0
M  V30 3443 C 335.468 -4.57334 2.75102 0
M  V30 3444 O 335.691 -5.40258 1.8297 0
M  V30 3445 O 334.625 -4.77502 3.66437 0
M  V30 3446 H 338.451 -1.66498 2.53992 0
M  V30 3447 H 336.036 -0.763308 1.28429 0
M  V30 3448 H 337.918 -3.9141 1.56129 0
M  V30 3449 H 336.593 -3.17718 0.619431 0
M  V30 3450 H 335.5 -2.45619 2.82174 0
M  V30 3451 H 336.833 -3.24641 3.69958 0
M  V30 3452 N 338.485 -1.33259 -0.841409 0
M  V30 3453 C 339.734 -1.23921 -1.59143 0
M  V30 3454 C 340.047 0.1941 -1.94635 0
M  V30 3455 O 341.253 0.409474 -2.68394 0
M  V30 3456 C 339.709 -2.17119 -2.87032 0
M  V30 3457 C 339.317 -3.65606 -2.58914 0
M  V30 3458 C 341.061 -2.16648 -3.65053 0
M  V30 3459 C 338.968 -4.50726 -3.82884 0
M  V30 3460 H 337.898 -0.460264 -0.597221 0
M  V30 3461 H 340.549 -1.58307 -0.927959 0
M  V30 3462 H 338.931 -1.75663 -3.54906 0
M  V30 3463 H 340.105 -4.15487 -1.99267 0
M  V30 3464 H 338.42 -3.68341 -1.942 0
M  V30 3465 H 341.017 -2.77474 -4.57069 0
M  V30 3466 H 341.36 -1.16088 -3.99787 0
M  V30 3467 H 341.893 -2.56453 -3.041 0
M  V30 3468 H 338.632 -5.52151 -3.53283 0
M  V30 3469 H 338.152 -4.0559 -4.41879 0
M  V30 3470 H 339.831 -4.64401 -4.50489 0
M  V30 3471 N 339.963 1.05934 -1.16686 0
M  V30 3472 C 341.209 1.79065 -0.95203 0
M  V30 3473 C 341.542 1.87147 0.518629 0
M  V30 3474 O 340.817 1.36574 1.38484 0
M  V30 3475 C 341.1 3.23359 -1.58464 0
M  V30 3476 C 340.953 3.23336 -3.12689 0
M  V30 3477 C 342.272 4.21004 -1.28232 0
M  V30 3478 H 339.391 0.65005 -0.34728 0
M  V30 3479 H 342.033 1.23868 -1.44072 0
M  V30 3480 H 340.183 3.70493 -1.16908 0
M  V30 3481 H 341.855 2.84336 -3.6325 0
M  V30 3482 H 340.098 2.61886 -3.4583 0
M  V30 3483 H 340.769 4.25144 -3.52075 0
M  V30 3484 H 343.245 3.8233 -1.64203 0
M  V30 3485 H 342.121 5.20225 -1.75092 0
M  V30 3486 H 342.382 4.41639 -0.201791 0
M  V30 3487 N 341.441 0.965919 1.2453 0
M  V30 3488 C 342.669 0.644385 1.96609 0
M  V30 3489 C 343.084 -0.785823 1.71669 0
M  V30 3490 O 342.441 -1.52703 0.999399 0
M  V30 3491 C 342.492 0.907375 3.49927 0
M  V30 3492 O 342.213 2.28136 3.74013 0
M  V30 3493 C 343.714 0.599784 4.39224 0
M  V30 3494 H 340.934 0.240588 0.626385 0
M  V30 3495 H 343.478 1.29337 1.58405 0
M  V30 3496 H 341.633 0.304631 3.862 0
M  V30 3497 H 342.047 2.36002 4.68405 0
M  V30 3498 H 343.521 0.834263 5.45659 0
M  V30 3499 H 343.998 -0.465921 4.36722 0
M  V30 3500 H 344.604 1.18235 4.08535 0
M  V30 3501 N 342.919 -1.39368 0.735821 0
M  V30 3502 C 343.882 -2.2896 0.104874 0
M  V30 3503 C 344.882 -1.46347 -0.666274 0
M  V30 3504 O 346.072 -1.67014 -0.49517 0
M  V30 3505 C 343.204 -3.29857 -0.860656 0
M  V30 3506 H 344.397 -2.86259 0.894205 0
M  V30 3507 H 341.95 -1.48029 0.501704 0
M  V30 3508 H 342.685 -2.77615 -1.67631 0
M  V30 3509 H 342.47 -3.9087 -0.310327 0
M  V30 3510 H 343.96 -3.96893 -1.29867 0
M  V30 3511 N 344.397 -0.483516 -1.5 0
M  V30 3512 C 345.327 0.293829 -2.31644 0
M  V30 3513 C 346.308 0.978864 -1.39112 0
M  V30 3514 O 347.493 0.973644 -1.68029 0
M  V30 3515 C 344.623 1.36897 -3.19181 0
M  V30 3516 C 343.577 0.804833 -4.20365 0
M  V30 3517 C 342.903 1.9792 -4.96721 0
M  V30 3518 C 344.203 -0.192313 -5.21946 0
M  V30 3519 H 345.897 -0.387616 -2.9688 0
M  V30 3520 H 343.443 -0.187856 -1.42769 0
M  V30 3521 H 345.396 1.92037 -3.751 0
M  V30 3522 H 344.12 2.07936 -2.51853 0
M  V30 3523 H 342.779 0.275319 -3.65565 0
M  V30 3524 H 342.427 2.67686 -4.25856 0
M  V30 3525 H 342.127 1.60789 -5.65173 0
M  V30 3526 H 343.651 2.53526 -5.55479 0
M  V30 3527 H 345.065 0.270333 -5.72662 0
M  V30 3528 H 343.462 -0.478543 -5.98189 0
M  V30 3529 H 344.532 -1.11409 -4.71928 0
M  V30 3530 N 345.875 1.56104 -0.216619 0
M  V30 3531 C 346.805 2.23063 0.690296 0
M  V30 3532 C 347.786 1.20072 1.20485 0
M  V30 3533 O 348.971 1.48643 1.24976 0
M  V30 3534 C 346.101 2.90672 1.90072 0
M  V30 3535 C 345.055 4.00092 1.5202 0
M  V30 3536 C 344.381 4.54972 2.80899 0
M  V30 3537 C 345.681 5.17398 0.71391 0
M  V30 3538 H 347.375 2.99109 0.132038 0
M  V30 3539 H 344.921 1.43866 0.0620664 0
M  V30 3540 H 346.874 3.36204 2.54057 0
M  V30 3541 H 345.598 2.12066 2.48386 0
M  V30 3542 H 344.257 3.55283 0.903839 0
M  V30 3543 H 343.905 3.73102 3.37348 0
M  V30 3544 H 343.605 5.28817 2.56176 0
M  V30 3545 H 345.129 5.0322 3.45836 0
M  V30 3546 H 346.543 5.59342 1.25735 0
M  V30 3547 H 344.94 5.97444 0.563951 0
M  V30 3548 H 346.01 4.84088 -0.280527 0
M  V30 3549 N 347.353 -0.0568162 1.57498 0
M  V30 3550 C 348.602 -0.752001 1.87157 0
M  V30 3551 C 348.915 -1.77978 0.811375 0
M  V30 3552 O 350.121 -2.52559 0.996293 0
M  V30 3553 C 348.577 -1.38844 3.3204 0
M  V30 3554 C 348.185 -0.398456 4.46225 0
M  V30 3555 C 349.929 -2.06512 3.70882 0
M  V30 3556 C 347.836 -1.04166 5.82154 0
M  V30 3557 H 346.766 -0.28461 0.698222 0
M  V30 3558 H 349.417 -0.00561272 1.83499 0
M  V30 3559 H 347.799 -2.1836 3.30356 0
M  V30 3560 H 348.973 0.367977 4.59328 0
M  V30 3561 H 347.288 0.174592 4.16034 0
M  V30 3562 H 349.885 -2.55437 4.6974 0
M  V30 3563 H 350.228 -2.87117 3.01445 0
M  V30 3564 H 350.761 -1.33808 3.7462 0
M  V30 3565 H 347.5 -0.275614 6.5492 0
M  V30 3566 H 347.02 -1.7786 5.72823 0
M  V30 3567 H 348.699 -1.55715 6.27982 0
M  V30 3568 N 348.832 -1.54138 -0.328536 0
M  V30 3569 C 349.742 -1.86192 -1.42723 0
M  V30 3570 C 350.758 -0.753382 -1.56844 0
M  V30 3571 O 351.934 -1.04718 -1.72035 0
M  V30 3572 C 348.999 -2.07824 -2.77507 0
M  V30 3573 C 348.06 -3.31641 -2.72603 0
M  V30 3574 C 347.293 -3.52232 -4.00959 0
M  V30 3575 O 347.516 -2.7636 -4.9898 0
M  V30 3576 O 346.45 -4.45699 -4.0452 0
M  V30 3577 H 350.276 -2.79608 -1.18547 0
M  V30 3578 H 347.861 -1.3998 -0.522104 0
M  V30 3579 H 349.743 -2.23411 -3.57303 0
M  V30 3580 H 348.418 -1.17596 -3.01584 0
M  V30 3581 H 347.325 -3.21444 -1.91376 0
M  V30 3582 H 348.658 -4.2191 -2.53481 0
M  V30 3583 N 350.31 0.590341 -1.46126 0
M  V30 3584 C 351.273 1.68194 -1.55703 0
M  V30 3585 C 352.273 1.54808 -0.434868 0
M  V30 3586 O 353.463 1.59564 -0.698928 0
M  V30 3587 C 350.595 3.07575 -1.47005 0
M  V30 3588 H 351.788 1.61064 -2.52979 0
M  V30 3589 H 349.341 0.807541 -1.33823 0
M  V30 3590 H 350.076 3.20268 -0.509785 0
M  V30 3591 H 349.861 3.187 -2.28414 0
M  V30 3592 H 351.351 3.87055 -1.56776 0
M  V30 3593 N 351.788 1.33704 0.83433 0
M  V30 3594 C 353.034 1.25603 1.59222 0
M  V30 3595 C 353.367 -0.176659 1.93395 0
M  V30 3596 O 352.642 -1.11915 1.59076 0
M  V30 3597 C 352.925 2.13576 2.89926 0
M  V30 3598 C 352.778 3.65326 2.62406 0
M  V30 3599 C 354.097 2.01238 3.91397 0
M  V30 3600 H 351.216 0.457613 0.577719 0
M  V30 3601 H 353.858 1.63848 0.961972 0
M  V30 3602 H 352.008 1.8109 3.43713 0
M  V30 3603 H 353.68 4.08124 2.15017 0
M  V30 3604 H 351.923 3.8698 1.96033 0
M  V30 3605 H 352.594 4.22232 3.55562 0
M  V30 3606 H 355.07 2.29738 3.46929 0
M  V30 3607 H 353.946 2.65036 4.80673 0
M  V30 3608 H 354.207 0.985951 4.30966 0
M  V30 3609 N 353.266 -1.05314 1.17247 0
M  V30 3610 C 354.682 -1.30452 0.919473 0
M  V30 3611 C 354.882 -1.9703 -0.42209 0
M  V30 3612 O 353.938 -2.24311 -1.15935 0
M  V30 3613 C 355.251 -2.17551 2.07586 0
M  V30 3614 C 356.799 -2.30937 2.11275 0
M  V30 3615 C 357.274 -3.21396 3.26296 0
M  V30 3616 N 358.765 -3.28981 3.26076 0
M  V30 3617 C 359.5 -3.99095 4.11716 0
M  V30 3618 N 358.996 -4.71648 5.07465 0
M  V30 3619 N 360.789 -3.95247 3.9967 0
M  V30 3620 H 352.94 -0.604988 2.03602 0
M  V30 3621 H 355.203 -0.329368 0.888944 0
M  V30 3622 H 354.909 -1.75921 3.0454 0
M  V30 3623 H 354.783 -3.18182 2.02584 0
M  V30 3624 H 357.17 -2.71809 1.14907 0
M  V30 3625 H 357.251 -1.2994 2.20339 0
M  V30 3626 H 356.895 -2.81238 4.22927 0
M  V30 3627 H 356.825 -4.22395 3.14467 0
M  V30 3628 H 359.316 -2.77286 2.5675 0
M  V30 3629 H 359.629 -5.22705 5.6921 0
M  V30 3630 H 357.974 -4.70594 5.11435 0
M  V30 3631 H 361.165 -3.37691 3.24164 0
M  V30 3632 H 361.338 -4.4962 4.66632 0
M  V30 3633 N 354.744 -0.972509 -1.24016 0
M  V30 3634 C 355.992 -0.635776 -1.91839 0
M  V30 3635 C 356.313 0.832312 -1.76345 0
M  V30 3636 O 355.583 1.5946 -1.13795 0
M  V30 3637 H 354.163 -0.232157 -0.710009 0
M  V30 3638 H 356.825 -1.23462 -1.50809 0
M  V30 3639 H 355.921 -0.880545 -2.99421 0
M  V30 3640 N 356.222 1.38976 -0.743202 0
M  V30 3641 C 357.447 2.05161 -0.303936 0
M  V30 3642 C 357.872 1.55677 1.05576 0
M  V30 3643 O 357.23 0.704131 1.67068 0
M  V30 3644 C 357.278 3.59138 -0.324373 0
M  V30 3645 O 356.382 4.06668 0.685204 0
M  V30 3646 H 355.723 0.649815 -0.136518 0
M  V30 3647 H 358.253 1.77852 -1.01142 0
M  V30 3648 H 358.263 4.07639 -0.171618 0
M  V30 3649 H 356.938 3.94515 -1.31647 0
M  V30 3650 H 355.515 3.69561 0.497913 0
M  V30 3651 N 357.7 0.491464 1.49741 0
M  V30 3652 C 358.928 -0.0535151 2.06831 0
M  V30 3653 C 359.343 -1.31683 1.35296 0
M  V30 3654 O 358.7 -1.77402 0.42836 0
M  V30 3655 C 358.751 -0.320835 3.60073 0
M  V30 3656 O 358.472 0.892394 4.28915 0
M  V30 3657 C 359.973 -0.910519 4.33848 0
M  V30 3658 H 357.193 0.0161909 0.670805 0
M  V30 3659 H 359.737 0.68609 1.92647 0
M  V30 3660 H 357.892 -1.0104 3.73991 0
M  V30 3661 H 358.306 0.649401 5.20464 0
M  V30 3662 H 359.78 -1.04721 5.41976 0
M  V30 3663 H 360.257 -1.90589 3.95692 0
M  V30 3664 H 360.863 -0.258712 4.24512 0
M  V30 3665 N 359.178 -1.55987 0.224894 0
M  V30 3666 C 360.403 -2.03232 -0.41369 0
M  V30 3667 C 360.828 -1.10359 -1.52323 0
M  V30 3668 O 360.186 -0.092395 -1.81064 0
M  V30 3669 C 360.234 -3.48682 -0.919405 0
M  V30 3670 O 359.338 -3.58947 -2.03054 0
M  V30 3671 H 358.679 -0.657428 -0.0931903 0
M  V30 3672 H 361.209 -2.01679 0.34451 0
M  V30 3673 H 361.219 -3.8907 -1.22835 0
M  V30 3674 H 359.894 -4.15761 -0.107339 0
M  V30 3675 H 358.471 -3.30448 -1.72796 0
M  V30 3676 N 360.656 0.0484629 -1.57525 0
M  V30 3677 C 362.067 0.597486 -1.76881 0
M  V30 3678 C 362.418 1.76664 -0.853475 0
M  V30 3679 O 361.543 2.16357 -0.0433656 0
M  V30 3680 C 362.138 1.09066 -3.20765 0
M  V30 3681 C 360.697 1.58535 -3.41385 0
M  V30 3682 C 359.844 0.514868 -2.72478 0
M  V30 3683 H 362.795 -0.177758 -1.57701 0
M  V30 3684 H 362.816 1.95875 -3.2621 0
M  V30 3685 H 362.328 0.239521 -3.8736 0
M  V30 3686 H 360.429 2.45898 -2.79937 0
M  V30 3687 H 360.542 1.64622 -4.49929 0
M  V30 3688 H 358.906 0.965407 -2.35695 0
M  V30 3689 H 359.689 -0.32648 -3.41744 0
M  V30 3690 N 362.134 1.5431 0.320358 0
M  V30 3691 C 363.381 1.72668 1.05792 0
M  V30 3692 C 363.709 0.502084 1.87908 0
M  V30 3693 O 362.964 -0.516149 1.88771 0
M  V30 3694 C 363.263 2.95639 2.00828 0
M  V30 3695 C 362.929 4.30265 1.34843 0
M  V30 3696 C 361.591 4.66865 1.16578 0
M  V30 3697 C 363.943 5.13801 0.875095 0
M  V30 3698 C 361.271 5.84597 0.496336 0
M  V30 3699 C 363.623 6.32219 0.219463 0
M  V30 3700 C 362.287 6.67495 0.0246915 0
M  V30 3701 H 361.557 0.631837 0.387121 0
M  V30 3702 H 364.204 1.88552 0.334735 0
M  V30 3703 H 362.509 2.74456 2.79609 0
M  V30 3704 H 364.206 3.07038 2.57932 0
M  V30 3705 H 360.796 4.01472 1.50061 0
M  V30 3706 H 364.98 4.86039 1.00398 0
M  V30 3707 H 360.236 6.10486 0.334264 0
M  V30 3708 H 364.41 6.96227 -0.155291 0
M  V30 3709 H 362.037 7.5858 -0.496065 0
M  V30 3710 N 363.613 -0.582584 1.46437 0
M  V30 3711 C 364.543 -1.70187 1.59871 0
M  V30 3712 C 365.524 -1.64066 0.449042 0
M  V30 3713 O 366.709 -1.82081 0.6753 0
M  V30 3714 C 363.839 -3.08827 1.58881 0
M  V30 3715 C 362.793 -3.29779 2.72819 0
M  V30 3716 C 362.119 -4.68947 2.5689 0
M  V30 3717 C 363.419 -3.17601 4.1464 0
M  V30 3718 H 365.113 -1.592 2.53566 0
M  V30 3719 H 362.659 -0.764472 1.22032 0
M  V30 3720 H 364.612 -3.86951 1.66873 0
M  V30 3721 H 363.336 -3.20713 0.617306 0
M  V30 3722 H 361.995 -2.54054 2.64296 0
M  V30 3723 H 361.643 -4.77599 1.57823 0
M  V30 3724 H 361.343 -4.83919 3.33312 0
M  V30 3725 H 362.867 -5.4924 2.66773 0
M  V30 3726 H 364.281 -3.8557 4.24274 0
M  V30 3727 H 362.678 -3.44094 4.9165 0
M  V30 3728 H 363.748 -2.14681 4.34788 0
M  V30 3729 N 365.091 -1.34144 -0.827227 0
M  V30 3730 C 366.054 -1.25264 -1.91942 0
M  V30 3731 C 367.054 -0.168866 -1.59911 0
M  V30 3732 O 368.244 -0.421198 -1.69031 0
M  V30 3733 C 365.376 -0.932952 -3.27885 0
M  V30 3734 H 366.569 -2.22357 -2.0124 0
M  V30 3735 H 364.122 -1.1837 -1.0207 0
M  V30 3736 H 364.857 0.0349917 -3.24281 0
M  V30 3737 H 364.642 -1.71682 -3.52516 0
M  V30 3738 H 366.132 -0.895874 -4.07877 0
M  V30 3739 N 366.569 1.04691 -1.17803 0
M  V30 3740 C 367.479 2.16057 -0.914151 0
M  V30 3741 C 368.495 1.73589 0.119503 0
M  V30 3742 O 369.671 2.01308 -0.0609468 0
M  V30 3743 C 366.736 3.4394 -0.436603 0
M  V30 3744 C 365.797 4.00825 -1.53746 0
M  V30 3745 C 365.03 5.22604 -1.0826 0
M  V30 3746 O 365.253 5.70367 0.0612244 0
M  V30 3747 O 364.187 5.7186 -1.87775 0
M  V30 3748 H 368.013 2.41169 -1.84584 0
M  V30 3749 H 365.598 1.1453 -0.959334 0
M  V30 3750 H 367.48 4.21024 -0.178057 0
M  V30 3751 H 366.155 3.20316 0.466869 0
M  V30 3752 H 365.062 3.25158 -1.84995 0
M  V30 3753 H 366.395 4.28778 -2.41683 0
M  V30 3754 N 368.047 0.979072 1.23499 0
M  V30 3755 C 369.295 0.645941 1.91499 0
M  V30 3756 C 369.616 -0.822948 1.76784 0
M  V30 3757 O 368.886 -1.58854 1.14639 0
M  V30 3758 H 367.466 0.235919 0.708767 0
M  V30 3759 H 370.128 1.2426 1.50152 0
M  V30 3760 H 369.224 0.896411 2.9895 0
M  V30 3761 N 369.525 -1.3858 0.750561 0
M  V30 3762 C 370.475 -2.27795 0.0965949 0
M  V30 3763 C 371.459 -1.45048 -0.696411 0
M  V30 3764 O 372.651 -1.67812 -0.562863 0
M  V30 3765 C 369.78 -3.33894 -0.798085 0
M  V30 3766 C 368.866 -4.241 0.0016067 0
M  V30 3767 N 369.257 -4.95067 1.03647 0
M  V30 3768 C 367.555 -4.45429 -0.225674 0
M  V30 3769 C 368.256 -5.61489 1.52004 0
M  V30 3770 N 367.232 -5.37135 0.835874 0
M  V30 3771 H 371.034 -2.80125 0.889228 0
M  V30 3772 H 368.548 -1.51446 0.586323 0
M  V30 3773 H 370.545 -3.96693 -1.28219 0
M  V30 3774 H 369.205 -2.83123 -1.5897 0
M  V30 3775 H 370.216 -4.98104 1.41819 0
M  V30 3776 H 366.893 -4.05571 -0.990872 0
M  V30 3777 H 368.283 -6.28264 2.38188 0
M  V30 3778 N 371.003 -0.499398 -1.49478 0
M  V30 3779 C 372.28 0.108629 -1.95298 0
M  V30 3780 C 372.66 1.54282 -1.44084 0
M  V30 3781 O 372.008 2.18944 -0.653908 0
M  V30 3782 C 372.218 0.0229111 -3.48992 0
M  V30 3783 C 373.566 0.197643 -4.2414 0
M  V30 3784 O 374.59 0.0981735 -3.56065 0
M  V30 3785 O 373.449 0.401669 -5.45022 0
M  V30 3786 H 370.543 0.096181 -0.821388 0
M  V30 3787 H 373.089 -0.561822 -1.6013 0
M  V30 3788 H 371.861 -0.977321 -3.78899 0
M  V30 3789 H 371.484 0.733579 -3.90774 0
M  V30 3790 N 372.481 1.55866 -0.233164 0
M  V30 3791 C 373.73 1.97779 0.39579 0
M  V30 3792 C 374.043 1.12419 1.60066 0
M  V30 3793 O 375.249 1.44283 2.29988 0
M  V30 3794 C 373.705 3.5188 0.755556 0
M  V30 3795 C 373.313 4.45959 -0.427152 0
M  V30 3796 C 375.057 4.02479 1.34946 0
M  V30 3797 C 372.964 5.91383 -0.0443043 0
M  V30 3798 H 371.894 0.738592 0.15165 0
M  V30 3799 H 374.545 1.80486 -0.331212 0
M  V30 3800 H 372.927 3.64816 1.5403 0
M  V30 3801 H 374.101 4.44776 -1.20462 0
M  V30 3802 H 372.416 4.05765 -0.935068 0
M  V30 3803 H 375.013 5.08637 1.649 0
M  V30 3804 H 375.356 3.49014 2.26925 0
M  V30 3805 H 375.889 3.92813 0.62791 0
M  V30 3806 H 372.628 6.48857 -0.930874 0
M  V30 3807 H 372.148 5.95734 0.697238 0
M  V30 3808 H 373.827 6.45893 0.378334 0
M  V30 3809 N 373.959 -0.0401083 1.57549 0
M  V30 3810 C 374.922 -1.02871 2.04817 0
M  V30 3811 C 375.922 -1.29708 0.950388 0
M  V30 3812 O 377.112 -1.24897 1.21435 0
M  V30 3813 C 374.244 -2.36443 2.45576 0
M  V30 3814 H 375.437 -0.620631 2.93408 0
M  V30 3815 H 372.99 -0.286667 1.53649 0
M  V30 3816 H 373.725 -2.82021 1.60108 0
M  V30 3817 H 373.51 -2.18296 3.25713 0
M  V30 3818 H 375 -3.07441 2.82612 0
M  V30 3819 N 375.437 -1.54477 -0.31217 0
M  V30 3820 C 376.853 -1.45442 -0.657185 0
M  V30 3821 C 377.053 -0.63653 -1.91182 0
M  V30 3822 O 376.109 -0.139815 -2.52113 0
M  V30 3823 C 377.422 -2.89287 -0.82058 0
M  V30 3824 C 378.97 -2.9926 -0.917188 0
M  V30 3825 C 379.445 -4.44279 -1.11267 0
M  V30 3826 N 380.936 -4.4794 -1.17914 0
M  V30 3827 C 381.671 -5.57318 -1.34848 0
M  V30 3828 N 381.167 -6.76642 -1.48752 0
M  V30 3829 N 382.96 -5.44986 -1.37647 0
M  V30 3830 H 375.111 -2.06129 0.512313 0
M  V30 3831 H 377.374 -0.933088 0.167485 0
M  V30 3832 H 377.08 -3.51687 0.0302604 0
M  V30 3833 H 376.954 -3.36061 -1.71298 0
M  V30 3834 H 379.341 -2.36981 -1.75852 0
M  V30 3835 H 379.422 -2.558 -0.00101257 0
M  V30 3836 H 379.066 -5.07149 -0.27614 0
M  V30 3837 H 378.996 -4.85359 -2.04289 0
M  V30 3838 H 381.487 -3.61969 -1.08567 0
M  V30 3839 H 381.8 -7.55758 -1.61397 0
M  V30 3840 H 380.145 -6.79529 -1.45828 0
M  V30 3841 H 383.336 -4.50715 -1.26388 0
M  V30 3842 H 383.509 -6.3028 -1.50501 0
M  V30 3843 N 376.915 0.57481 -1.46744 0
M  V30 3844 C 378.326 1.15695 -1.46532 0
M  V30 3845 C 378.677 1.95068 -0.210425 0
M  V30 3846 O 377.802 2.05241 0.685944 0
M  V30 3847 C 378.397 2.1048 -2.65487 0
M  V30 3848 C 376.956 2.64002 -2.68291 0
M  V30 3849 C 376.103 1.40026 -2.39349 0
M  V30 3850 H 379.054 0.362325 -1.54509 0
M  V30 3851 H 379.075 2.94074 -2.41455 0
M  V30 3852 H 378.587 1.52683 -3.56805 0
M  V30 3853 H 376.688 3.25646 -1.81067 0
M  V30 3854 H 376.801 3.06197 -3.68483 0
M  V30 3855 H 375.165 1.70106 -1.89568 0
M  V30 3856 H 375.948 0.840485 -3.32852 0
M  V30 3857 N 378.394 1.34581 0.820102 0
M  V30 3858 C 379.344 1.22943 1.92013 0
M  V30 3859 C 380.328 0.127802 1.60392 0
M  V30 3860 O 381.52 0.357737 1.73347 0
M  V30 3861 C 378.649 0.989938 3.28717 0
M  V30 3862 C 377.735 2.13486 3.66449 0
M  V30 3863 N 378.126 3.38625 3.75722 0
M  V30 3864 C 376.424 2.04573 3.96315 0
M  V30 3865 C 377.125 4.13832 4.08801 0
M  V30 3866 N 376.101 3.42451 4.22171 0
M  V30 3867 H 379.903 2.17771 1.97365 0
M  V30 3868 H 377.417 1.2686 1.01392 0
M  V30 3869 H 379.414 0.887462 4.07345 0
M  V30 3870 H 378.074 0.0503691 3.24661 0
M  V30 3871 H 379.085 3.73143 3.59144 0
M  V30 3872 H 375.762 1.1839 4.00362 0
M  V30 3873 H 377.152 5.21909 4.23156 0
M  V30 3874 N 379.872 -1.04064 1.18357 0
M  V30 3875 C 380.782 -2.15569 0.925596 0
M  V30 3876 C 381.798 -1.7365 -0.110295 0
M  V30 3877 O 382.974 -2.01273 0.0716218 0
M  V30 3878 C 380.039 -3.43704 0.454836 0
M  V30 3879 C 379.1 -4.00004 1.55869 0
M  V30 3880 C 378.333 -5.22023 1.1103 0
M  V30 3881 O 378.556 -5.70392 -0.0309756 0
M  V30 3882 O 377.49 -5.70856 1.90805 0
M  V30 3883 H 381.316 -2.40187 1.8586 0
M  V30 3884 H 378.901 -1.1402 0.965394 0
M  V30 3885 H 380.783 -4.20923 0.200382 0
M  V30 3886 H 379.458 -3.20559 -0.449876 0
M  V30 3887 H 378.365 -3.24172 1.86716 0
M  V30 3888 H 379.698 -4.2749 2.43953 0
M  V30 3889 N 381.35 -0.985608 -1.22978 0
M  V30 3890 C 382.598 -0.656087 -1.91154 0
M  V30 3891 C 382.919 0.813561 -1.77218 0
M  V30 3892 O 382.189 1.58244 -1.1548 0
M  V30 3893 H 380.769 -0.239674 -0.707506 0
M  V30 3894 H 383.431 -1.25054 -1.49491 0
M  V30 3895 H 382.527 -0.912253 -2.9847 0
M  V30 3896 N 382.828 1.3818 -0.7579 0
M  V30 3897 C 383.76 2.2901 -0.0932177 0
M  V30 3898 C 384.773 1.47958 0.679136 0
M  V30 3899 O 385.962 1.70773 0.519514 0
M  V30 3900 C 383.062 3.26953 0.89192 0
M  V30 3901 C 382.235 4.37045 0.176303 0
M  V30 3902 C 381.294 5.15148 1.07281 0
M  V30 3903 O 380.32 5.66616 0.541728 0
M  V30 3904 N 381.522 5.28542 2.40049 0
M  V30 3905 H 384.287 2.86694 -0.873303 0
M  V30 3906 H 381.848 1.50007 -0.609054 0
M  V30 3907 H 383.84 3.76083 1.49479 0
M  V30 3908 H 382.41 2.70136 1.57306 0
M  V30 3909 H 381.63 3.89493 -0.607328 0
M  V30 3910 H 382.918 5.07801 -0.318718 0
M  V30 3911 H 382.316 4.88285 2.85647 0
M  V30 3912 H 380.873 5.8103 2.95376 0
M  V30 3913 N 384.306 0.507319 1.49211 0
M  V30 3914 C 385.555 -0.0368315 2.01666 0
M  V30 3915 C 385.868 -1.37459 1.39156 0
M  V30 3916 O 387.074 -2.00579 1.82976 0
M  V30 3917 C 385.53 -0.116089 3.59713 0
M  V30 3918 C 385.138 1.2154 4.31198 0
M  V30 3919 C 386.882 -0.610268 4.2009 0
M  V30 3920 C 384.789 1.09796 5.81119 0
M  V30 3921 H 383.719 -0.0175376 0.753796 0
M  V30 3922 H 386.37 0.647691 1.71689 0
M  V30 3923 H 384.752 -0.8652 3.86433 0
M  V30 3924 H 385.926 1.9783 4.16173 0
M  V30 3925 H 384.241 1.64352 3.82593 0
M  V30 3926 H 386.838 -0.715742 5.29888 0
M  V30 3927 H 387.181 -1.61064 3.8388 0
M  V30 3928 H 387.714 0.0824916 3.97714 0
M  V30 3929 H 384.453 2.0728 6.21864 0
M  V30 3930 H 383.973 0.376058 5.9862 0
M  V30 3931 H 385.652 0.779281 6.4229 0
M  V30 3932 N 385.784 -1.5574 0.241426 0
M  V30 3933 C 387.061 -1.90704 -0.434881 0
M  V30 3934 C 387.441 -1.16145 -1.76277 0
M  V30 3935 O 386.789 -0.277152 -2.26813 0
M  V30 3936 C 386.999 -3.43657 -0.608343 0
M  V30 3937 C 388.347 -4.14806 -0.906725 0
M  V30 3938 O 389.371 -3.49366 -0.694408 0
M  V30 3939 O 388.23 -5.30548 -1.31075 0
M  V30 3940 H 385.324 -0.793592 -0.23268 0
M  V30 3941 H 387.87 -1.67288 0.285086 0
M  V30 3942 H 386.642 -3.89927 0.327505 0
M  V30 3943 H 386.265 -3.72918 -1.37906 0
M  V30 3944 N 387.262 0.0317525 -1.57568 0
M  V30 3945 C 388.49 0.734949 -1.93407 0
M  V30 3946 C 388.905 1.69036 -0.84096 0
M  V30 3947 O 388.262 1.81582 0.182836 0
M  V30 3948 C 388.313 1.49432 -3.29169 0
M  V30 3949 O 388.034 0.577261 -4.3428 0
M  V30 3950 C 389.535 2.29492 -3.79273 0
M  V30 3951 H 386.755 0.206706 -0.638368 0
M  V30 3952 H 389.299 -0.00992046 -2.04498 0
M  V30 3953 H 387.454 2.1911 -3.19483 0
M  V30 3954 H 387.868 1.10952 -5.1263 0
M  V30 3955 H 389.342 2.78172 -4.76785 0
M  V30 3956 H 389.819 3.10794 -3.10328 0
M  V30 3957 H 390.425 1.64894 -3.92033 0
M  V30 3958 N 388.74 1.54641 0.303973 0
M  V30 3959 C 389.703 1.84646 1.35789 0
M  V30 3960 C 390.703 0.7192 1.4382 0
M  V30 3961 O 391.893 0.987491 1.43507 0
M  V30 3962 C 389.025 2.02407 2.74307 0
M  V30 3963 H 390.218 2.78829 1.10429 0
M  V30 3964 H 387.771 1.46658 0.540487 0
M  V30 3965 H 388.506 1.10502 3.04893 0
M  V30 3966 H 388.291 2.84453 2.69868 0
M  V30 3967 H 389.781 2.27002 3.50514 0
M  V30 3968 N 390.218 -0.567019 1.47046 0
M  V30 3969 C 391.181 -1.65696 1.58359 0
M  V30 3970 C 392.181 -1.54097 0.459441 0
M  V30 3971 O 393.371 -1.58432 0.724225 0
M  V30 3972 C 390.503 -3.05197 1.51879 0
M  V30 3973 H 391.696 -1.57019 2.5551 0
M  V30 3974 H 389.249 -0.786148 1.3509 0
M  V30 3975 H 389.984 -3.19417 0.560673 0
M  V30 3976 H 389.769 -3.15025 2.33455 0
M  V30 3977 H 391.259 -3.84511 1.62913 0
M  V30 3978 N 391.696 -1.35014 -0.812953 0
M  V30 3979 C 392.644 -1.27435 -1.94585 0
M  V30 3980 C 393.638 -0.170494 -1.6854 0
M  V30 3981 O 394.844 -0.336085 -1.76835 0
M  V30 3982 H 391.219 -0.396144 -0.639198 0
M  V30 3983 H 393.19 -2.23158 -1.98098 0
M  V30 3984 C 391.939 -1.05677 -3.31252 0
M  V30 3985 H 391.262 -1.89853 -3.51846 0
M  V30 3986 H 392.702 -1.04413 -4.10943 0
M  V30 3987 C 391.161 0.239615 -3.36047 0
M  V30 3988 O 391.691 1.23759 -3.8216 0
M  V30 3989 N 389.897 0.276186 -2.89285 0
M  V30 3990 H 389.444 -0.53653 -2.51951 0
M  V30 3991 H 389.402 1.14332 -2.92875 0
M  V30 3992 N 393.175 1.03435 -1.18907 0
M  V30 3993 C 394.108 2.11162 -0.86521 0
M  V30 3994 C 395.086 1.6165 0.175473 0
M  V30 3995 O 396.27 1.88425 0.0530129 0
M  V30 3996 C 393.397 3.37423 -0.293868 0
M  V30 3997 C 392.443 4.05795 -1.31274 0
M  V30 3998 S 393.276 4.52027 -2.8711 0
M  V30 3999 C 394.432 5.81513 -2.31504 0
M  V30 4000 H 394.665 2.38308 -1.77754 0
M  V30 4001 H 392.198 1.16295 -1.01562 0
M  V30 4002 H 394.156 4.1049 0.0292572 0
M  V30 4003 H 392.817 3.0838 0.596682 0
M  V30 4004 H 392.01 4.96574 -0.86198 0
M  V30 4005 H 391.612 3.38874 -1.58242 0
M  V30 4006 H 393.904 6.55784 -1.70157 0
M  V30 4007 H 394.847 6.3136 -3.20608 0
M  V30 4008 H 395.255 5.36921 -1.74286 0
M  V30 4009 N 394.653 0.992116 1.22453 0
M  V30 4010 C 396.069 0.702713 1.43297 0
M  V30 4011 C 396.269 -0.726909 1.87932 0
M  V30 4012 O 395.325 -1.49792 2.0327 0
M  V30 4013 C 396.638 1.70762 2.47509 0
M  V30 4014 C 398.186 1.72298 2.61309 0
M  V30 4015 C 398.661 2.71649 3.68742 0
M  V30 4016 N 400.152 2.70239 3.76199 0
M  V30 4017 C 400.887 3.43778 4.58917 0
M  V30 4018 N 400.383 4.26914 5.45633 0
M  V30 4019 N 402.176 3.32487 4.5322 0
M  V30 4020 H 394.327 1.91543 0.917871 0
M  V30 4021 H 396.59 0.826031 0.465162 0
M  V30 4022 H 396.296 2.73059 2.21657 0
M  V30 4023 H 396.17 1.49985 3.46099 0
M  V30 4024 H 398.557 0.706989 2.86506 0
M  V30 4025 H 398.638 1.97143 1.62997 0
M  V30 4026 H 398.282 3.73397 3.44292 0
M  V30 4027 H 398.212 2.44074 4.66622 0
M  V30 4028 H 400.703 2.09912 3.14237 0
M  V30 4029 H 401.016 4.79855 6.05771 0
M  V30 4030 H 399.361 4.31002 5.45218 0
M  V30 4031 H 402.552 2.6698 3.84499 0
M  V30 4032 H 402.725 3.90058 5.17454 0
M  V30 4033 N 396.131 -1.37776 0.765217 0
M  V30 4034 C 397.094 -2.28686 0.153416 0
M  V30 4035 C 398.094 -1.47727 -0.635081 0
M  V30 4036 O 399.284 -1.68027 -0.459632 0
M  V30 4037 C 396.416 -3.31608 -0.790495 0
M  V30 4038 H 397.609 -2.84297 0.954723 0
M  V30 4039 H 395.162 -1.46932 0.53299 0
M  V30 4040 H 395.897 -2.81109 -1.61705 0
M  V30 4041 H 395.682 -3.9144 -0.227348 0
M  V30 4042 H 397.172 -3.99559 -1.21419 0
M  V30 4043 N 397.609 -0.515225 -1.4894 0
M  V30 4044 C 398.539 0.244628 -2.32215 0
M  V30 4045 C 399.52 0.949136 -1.41157 0
M  V30 4046 O 400.705 0.937783 -1.70057 0
M  V30 4047 C 397.835 1.30096 -3.22013 0
M  V30 4048 C 396.789 0.715486 -4.21977 0
M  V30 4049 C 396.115 1.87339 -5.00808 0
M  V30 4050 C 397.415 -0.302982 -5.2142 0
M  V30 4051 H 399.109 -0.450501 -2.95991 0
M  V30 4052 H 396.655 -0.218098 -1.42339 0
M  V30 4053 H 398.608 1.84037 -3.79089 0
M  V30 4054 H 397.332 2.02547 -2.56207 0
M  V30 4055 H 395.991 0.197715 -3.66066 0
M  V30 4056 H 395.639 2.58592 -4.31438 0
M  V30 4057 H 395.339 1.48764 -5.68457 0
M  V30 4058 H 396.863 2.41686 -5.60732 0
M  V30 4059 H 398.277 0.148802 -5.73107 0
M  V30 4060 H 396.674 -0.60532 -5.97039 0
M  V30 4061 H 397.744 -1.21395 -4.69459 0
M  V30 4062 N 399.087 1.5561 -0.249682 0
M  V30 4063 C 400.02 2.17537 0.689408 0
M  V30 4064 C 400.998 1.12829 1.17083 0
M  V30 4065 O 402.182 1.41229 1.24846 0
M  V30 4066 C 399.309 2.77828 1.93725 0
M  V30 4067 C 398.355 3.95615 1.59346 0
M  V30 4068 S 399.188 5.30988 0.69367 0
M  V30 4069 C 400.344 5.94734 1.95046 0
M  V30 4070 H 400.577 2.96852 0.163142 0
M  V30 4071 H 398.11 1.54362 -0.0341166 0
M  V30 4072 H 400.068 3.13199 2.65361 0
M  V30 4073 H 398.729 1.98454 2.43465 0
M  V30 4074 H 397.922 4.364 2.52132 0
M  V30 4075 H 397.524 3.61535 0.957512 0
M  V30 4076 H 399.816 6.12419 2.89739 0
M  V30 4077 H 400.759 6.90109 1.58604 0
M  V30 4078 H 401.167 5.23832 2.10381 0
M  V30 4079 N 400.565 -0.0233959 1.57583 0
M  V30 4080 C 401.981 -0.379134 1.55031 0
M  V30 4081 C 402.181 -1.76255 0.976548 0
M  V30 4082 O 401.237 -2.45266 0.600078 0
M  V30 4083 C 402.55 -0.275792 2.99433 0
M  V30 4084 C 404.098 -0.352458 3.11009 0
M  V30 4085 C 404.573 -0.278501 4.57152 0
M  V30 4086 N 406.064 -0.337123 4.61972 0
M  V30 4087 C 406.799 -0.302876 5.726 0
M  V30 4088 N 406.295 -0.220589 6.92449 0
M  V30 4089 N 408.088 -0.353023 5.6099 0
M  V30 4090 H 400.239 0.881869 1.93227 0
M  V30 4091 H 402.502 0.335867 0.886509 0
M  V30 4092 H 402.208 0.675108 3.4516 0
M  V30 4093 H 402.082 -1.06721 3.61788 0
M  V30 4094 H 404.469 -1.29379 2.65226 0
M  V30 4095 H 404.55 0.468409 2.51475 0
M  V30 4096 H 404.194 0.659189 5.03604 0
M  V30 4097 H 404.124 -1.11755 5.14605 0
M  V30 4098 H 406.615 -0.403002 3.75745 0
M  V30 4099 H 406.928 -0.199713 7.72542 0
M  V30 4100 H 405.273 -0.186555 6.9475 0
M  V30 4101 H 408.464 -0.415339 4.66254 0
M  V30 4102 H 408.637 -0.322866 6.47195 0
M  V30 4103 N 402.043 -1.548 -0.295768 0
M  V30 4104 C 403.291 -1.73985 -1.02828 0
M  V30 4105 C 403.612 -0.531406 -1.87619 0
M  V30 4106 O 402.882 0.454221 -1.90561 0
M  V30 4107 H 401.462 -0.641556 -0.382642 0
M  V30 4108 H 404.124 -1.92163 -0.325489 0
M  V30 4109 H 403.22 -2.63129 -1.67838 0
M  V30 4110 N 403.521 0.559213 -1.47345 0
M  V30 4111 C 404.746 1.34676 -1.57725 0
M  V30 4112 C 405.171 1.86723 -0.227164 0
M  V30 4113 O 404.529 1.6286 0.796642 0
M  V30 4114 C 404.577 2.49399 -2.60447 0
M  V30 4115 O 403.681 3.51567 -2.15578 0
M  V30 4116 H 403.022 0.400115 -0.52991 0
M  V30 4117 H 405.552 0.676009 -1.93109 0
M  V30 4118 H 405.562 2.95996 -2.80803 0
M  V30 4119 H 404.237 2.10873 -3.58477 0
M  V30 4120 H 402.814 3.11289 -2.05313 0
M  V30 4121 N 404.999 1.35443 0.805782 0
M  V30 4122 C 406.247 1.28507 1.55982 0
M  V30 4123 C 406.568 -0.140046 1.94496 0
M  V30 4124 O 405.838 -1.07666 1.63661 0
M  V30 4125 H 404.418 0.472676 0.578434 0
M  V30 4126 H 407.08 1.69555 0.961098 0
M  V30 4127 H 406.176 1.90148 2.47488 0
M  V30 4128 N 406.477 -1.02803 1.19454 0
M  V30 4129 C 407.407 -2.12999 0.956758 0
M  V30 4130 C 408.388 -1.69743 -0.110188 0
M  V30 4131 O 409.573 -1.94148 0.0450038 0
M  V30 4132 C 406.703 -3.43746 0.495553 0
M  V30 4133 C 405.657 -4.00688 1.50443 0
M  V30 4134 C 404.983 -5.27067 0.900275 0
M  V30 4135 C 406.283 -4.35397 2.8849 0
M  V30 4136 H 407.977 -2.33148 1.87836 0
M  V30 4137 H 405.523 -1.12045 0.904539 0
M  V30 4138 H 407.476 -4.2021 0.316493 0
M  V30 4139 H 406.2 -3.23321 -0.461646 0
M  V30 4140 H 404.859 -3.2632 1.67065 0
M  V30 4141 H 404.507 -5.02959 -0.064503 0
M  V30 4142 H 404.207 -5.66127 1.57397 0
M  V30 4143 H 405.731 -6.06196 0.73203 0
M  V30 4144 H 407.145 -5.02795 2.75446 0
M  V30 4145 H 405.542 -4.85541 3.52661 0
M  V30 4146 H 406.612 -3.44662 3.41081 0
M  V30 4147 N 407.956 -0.998596 -1.21925 0
M  V30 4148 C 409.184 -0.696286 -1.94832 0
M  V30 4149 C 409.599 0.740032 -1.73692 0
M  V30 4150 O 408.956 1.5 -1.03953 0
M  V30 4151 C 409.007 -0.999833 -3.47398 0
M  V30 4152 O 408.728 -2.37972 -3.67833 0
M  V30 4153 C 410.229 -0.716025 -4.37479 0
M  V30 4154 H 407.449 -0.257111 -0.619786 0
M  V30 4155 H 409.993 -1.33491 -1.54921 0
M  V30 4156 H 408.148 -0.406918 -3.85257 0
M  V30 4157 H 408.562 -2.48338 -4.61983 0
M  V30 4158 H 410.036 -0.978642 -5.43256 0
M  V30 4159 H 410.513 0.349968 -4.37803 0
M  V30 4160 H 411.119 -1.29025 -4.05256 0
M  V30 4161 N 409.434 1.37368 -0.772513 0
M  V30 4162 C 410.68 1.99969 -0.337681 0
M  V30 4163 C 411.013 1.61184 1.08321 0
M  V30 4164 O 410.288 0.858395 1.74533 0
M  V30 4165 C 410.571 3.56858 -0.482121 0
M  V30 4166 C 410.424 4.0555 -1.94549 0
M  V30 4167 C 411.743 4.39955 0.113143 0
M  V30 4168 H 408.862 0.726464 -0.124171 0
M  V30 4169 H 411.504 1.63034 -0.975699 0
M  V30 4170 H 409.654 3.88452 0.0610361 0
M  V30 4171 H 411.326 3.84518 -2.54841 0
M  V30 4172 H 409.569 3.57715 -2.45403 0
M  V30 4173 H 410.24 5.14587 -1.9976 0
M  V30 4174 H 412.716 4.14623 -0.35031 0
M  V30 4175 H 411.592 5.48897 -0.0180514 0
M  V30 4176 H 411.853 4.25403 1.20354 0
M  V30 4177 N 410.912 0.523116 1.48665 0
M  V30 4178 C 411.822 -0.247406 2.33292 0
M  V30 4179 C 412.838 -0.945769 1.46052 0
M  V30 4180 O 414.014 -0.922253 1.79043 0
M  V30 4181 C 411.079 -1.28487 3.22012 0
M  V30 4182 C 410.14 -0.597592 4.2512 0
M  V30 4183 C 409.373 -1.58563 5.09601 0
M  V30 4184 O 409.596 -2.81763 4.95949 0
M  V30 4185 O 408.53 -1.12879 5.91221 0
M  V30 4186 H 412.356 0.445869 3.00409 0
M  V30 4187 H 409.941 0.284128 1.46673 0
M  V30 4188 H 411.823 -1.88459 3.7691 0
M  V30 4189 H 410.498 -1.96068 2.57564 0
M  V30 4190 H 409.405 0.0424407 3.74076 0
M  V30 4191 H 410.738 0.0361517 4.92187 0
M  V30 4192 N 412.39 -1.55475 0.257931 0
M  V30 4193 C 413.34 -2.18506 -0.651094 0
M  V30 4194 C 414.324 -1.14431 -1.13112 0
M  V30 4195 O 415.516 -1.40305 -1.07905 0
M  V30 4196 C 412.645 -2.89653 -1.84272 0
M  V30 4197 C 411.731 -4.00996 -1.38068 0
M  V30 4198 N 412.122 -5.01816 -0.633609 0
M  V30 4199 C 410.42 -4.13753 -1.66506 0
M  V30 4200 C 411.121 -5.80371 -0.392922 0
M  V30 4201 N 410.097 -5.3505 -0.960359 0
M  V30 4202 H 413.899 -2.93811 -0.0722883 0
M  V30 4203 H 411.413 -1.62286 0.0607256 0
M  V30 4204 H 413.41 -3.33245 -2.50506 0
M  V30 4205 H 412.07 -2.15854 -2.42564 0
M  V30 4206 H 413.081 -5.17128 -0.282626 0
M  V30 4207 H 409.758 -3.51133 -2.25858 0
M  V30 4208 H 411.148 -6.7159 0.204235 0
M  V30 4209 N 413.868 0.0150385 -1.57593 0
M  V30 4210 C 414.831 0.995996 -2.06428 0
M  V30 4211 C 415.831 1.2818 -0.970903 0
M  V30 4212 O 417.021 1.22949 -1.23406 0
M  V30 4213 C 414.153 2.32506 -2.49307 0
M  V30 4214 H 415.346 0.573873 -2.94358 0
M  V30 4215 H 412.899 0.262186 -1.54085 0
M  V30 4216 H 413.634 2.79438 -1.64575 0
M  V30 4217 H 413.419 2.13087 -3.29145 0
M  V30 4218 H 414.909 3.02906 -2.87468 0
M  V30 4219 N 415.346 1.54954 0.287554 0
M  V30 4220 C 416.623 1.65569 1.04146 0
M  V30 4221 C 417.003 0.512672 2.0478 0
M  V30 4222 O 416.351 -0.489038 2.23205 0
M  V30 4223 C 416.561 3.04163 1.71131 0
M  V30 4224 C 417.909 3.61429 2.22832 0
M  V30 4225 O 418.933 3.06702 1.81141 0
M  V30 4226 O 417.792 4.57281 2.9926 0
M  V30 4227 H 414.886 0.671881 0.482188 0
M  V30 4228 H 417.432 1.67297 0.28457 0
M  V30 4229 H 416.204 3.78796 0.981303 0
M  V30 4230 H 415.827 3.06271 2.53543 0
M  V30 4231 N 416.824 -0.551391 1.4764 0
M  V30 4232 C 417.754 -1.66757 1.63445 0
M  V30 4233 C 418.735 -1.63077 0.483742 0
M  V30 4234 O 419.92 -1.80607 0.71377 0
M  V30 4235 C 417.05 -3.05387 1.65396 0
M  V30 4236 C 416.004 -3.23918 2.79752 0
M  V30 4237 C 415.33 -4.63393 2.66779 0
M  V30 4238 C 416.63 -3.08735 4.21284 0
M  V30 4239 H 418.324 -1.53786 2.56886 0
M  V30 4240 H 415.87 -0.738415 1.23626 0
M  V30 4241 H 417.823 -3.83325 1.75043 0
M  V30 4242 H 416.547 -3.19332 0.685195 0
M  V30 4243 H 415.206 -2.48391 2.69625 0
M  V30 4244 H 414.854 -4.74144 1.67918 0
M  V30 4245 H 414.554 -4.7674 3.43501 0
M  V30 4246 H 416.078 -5.43458 2.78364 0
M  V30 4247 H 417.492 -3.76484 4.32357 0
M  V30 4248 H 415.889 -3.33588 4.98838 0
M  V30 4249 H 416.959 -2.0541 4.39243 0
M  V30 4250 N 418.302 -1.35869 -0.798587 0
M  V30 4251 C 419.718 -1.16082 -1.09532 0
M  V30 4252 C 419.918 0.0213124 -2.01489 0
M  V30 4253 O 418.974 0.689488 -2.42904 0
M  V30 4254 C 420.287 -2.46748 -1.7186 0
M  V30 4255 C 421.835 -2.53028 -1.84244 0
M  V30 4256 C 422.31 -3.83758 -2.49988 0
M  V30 4257 N 423.801 -3.85053 -2.57465 0
M  V30 4258 C 424.536 -4.8294 -3.09122 0
M  V30 4259 N 424.032 -5.91217 -3.61157 0
M  V30 4260 N 425.825 -4.70369 -3.0775 0
M  V30 4261 H 417.976 -2.11571 -0.187461 0
M  V30 4262 H 420.239 -0.936726 -0.145765 0
M  V30 4263 H 419.945 -3.33471 -1.11759 0
M  V30 4264 H 419.819 -2.61883 -2.71472 0
M  V30 4265 H 422.206 -1.66729 -2.43486 0
M  V30 4266 H 422.287 -2.418 -0.834643 0
M  V30 4267 H 421.931 -4.70459 -1.91393 0
M  V30 4268 H 421.861 -3.92278 -3.5132 0
M  V30 4269 H 424.352 -3.06822 -2.20609 0
M  V30 4270 H 424.665 -6.61892 -3.98896 0
M  V30 4271 H 423.01 -5.94899 -3.59333 0
M  V30 4272 H 426.201 -3.84914 -2.66381 0
M  V30 4273 H 426.374 -5.46816 -3.47701 0
M  V30 4274 N 419.78 1.02168 -1.19998 0
M  V30 4275 C 421.196 1.27969 -0.953737 0
M  V30 4276 C 421.396 1.98079 0.369703 0
M  V30 4277 O 420.452 2.27306 1.09947 0
M  V30 4278 C 421.765 2.11971 -2.13281 0
M  V30 4279 C 423.313 2.25255 -2.17323 0
M  V30 4280 C 423.788 3.12632 -3.34702 0
M  V30 4281 N 425.279 3.2022 -3.34684 0
M  V30 4282 C 426.014 3.88039 -4.22153 0
M  V30 4283 N 425.51 4.58027 -5.19791 0
M  V30 4284 N 427.303 3.84511 -4.10009 0
M  V30 4285 H 419.454 0.550794 -2.05134 0
M  V30 4286 H 421.717 0.305683 -0.897364 0
M  V30 4287 H 421.423 1.67785 -3.09097 0
M  V30 4288 H 421.297 3.12699 -2.10949 0
M  V30 4289 H 423.684 2.68667 -1.22073 0
M  V30 4290 H 423.765 1.24053 -2.23706 0
M  V30 4291 H 423.409 2.69926 -4.30235 0
M  V30 4292 H 423.339 4.13909 -3.25556 0
M  V30 4293 H 425.83 2.70382 -2.64012 0
M  V30 4294 H 426.143 5.07429 -5.82868 0
M  V30 4295 H 424.488 4.56869 -5.23733 0
M  V30 4296 H 427.679 3.28978 -3.33003 0
M  V30 4297 H 427.852 4.3709 -4.78389 0
M  V30 4298 N 421.258 1.00505 1.21394 0
M  V30 4299 C 422.168 0.574806 2.27449 0
M  V30 4300 C 423.184 -0.382206 1.6975 0
M  V30 4301 O 424.36 -0.246027 1.99892 0
M  V30 4302 C 421.425 -0.0917414 3.46579 0
M  V30 4303 C 420.486 0.909758 4.1955 0
M  V30 4304 C 419.719 0.274924 5.32991 0
M  V30 4305 O 419.942 -0.928254 5.62796 0
M  V30 4306 O 418.876 0.985877 5.93771 0
M  V30 4307 H 422.702 1.45744 2.66444 0
M  V30 4308 H 420.287 0.773923 1.27792 0
M  V30 4309 H 422.169 -0.464551 4.18832 0
M  V30 4310 H 420.844 -0.948755 3.09484 0
M  V30 4311 H 419.751 1.33372 3.49518 0
M  V30 4312 H 421.084 1.73636 4.60555 0
M  V30 4313 N 422.737 -1.36956 0.779787 0
M  V30 4314 C 423.667 -2.32761 0.185651 0
M  V30 4315 C 424.648 -1.56177 -0.673989 0
M  V30 4316 O 425.833 -1.84378 -0.609797 0
M  V30 4317 C 422.963 -3.40418 -0.687964 0
M  V30 4318 C 421.917 -4.27941 0.0710102 0
M  V30 4319 C 421.243 -5.26681 -0.922573 0
M  V30 4320 C 422.543 -5.07006 1.25467 0
M  V30 4321 H 424.237 -2.82698 0.986008 0
M  V30 4322 H 421.783 -1.3592 0.475592 0
M  V30 4323 H 423.736 -4.06423 -1.11348 0
M  V30 4324 H 422.46 -2.89025 -1.52093 0
M  V30 4325 H 421.119 -3.63478 0.47739 0
M  V30 4326 H 420.767 -4.71565 -1.7503 0
M  V30 4327 H 420.467 -5.86103 -0.419237 0
M  V30 4328 H 421.991 -5.9556 -1.34686 0
M  V30 4329 H 423.405 -5.66105 0.905401 0
M  V30 4330 H 421.802 -5.75793 1.69063 0
M  V30 4331 H 422.872 -4.3921 2.05481 0
M  V30 4332 N 424.215 -0.530993 -1.48385 0
M  V30 4333 C 425.147 0.268353 -2.27624 0
M  V30 4334 C 426.16 0.903525 -1.35426 0
M  V30 4335 O 427.349 0.781796 -1.60469 0
M  V30 4336 C 424.449 1.39535 -3.08842 0
M  V30 4337 C 423.622 0.861913 -4.28824 0
M  V30 4338 C 422.681 1.87016 -4.91845 0
M  V30 4339 O 421.707 1.4267 -5.5103 0
M  V30 4340 N 422.909 3.20238 -4.84178 0
M  V30 4341 H 425.674 -0.41123 -2.96865 0
M  V30 4342 H 423.235 -0.365387 -1.57723 0
M  V30 4343 H 425.227 2.06803 -3.47871 0
M  V30 4344 H 423.797 1.97859 -2.42014 0
M  V30 4345 H 423.017 0.0132126 -3.94198 0
M  V30 4346 H 424.305 0.484415 -5.06489 0
M  V30 4347 H 423.703 3.58932 -4.37246 0
M  V30 4348 H 422.26 3.83136 -5.27305 0
M  V30 4349 N 425.693 1.55336 -0.266172 0
M  V30 4350 C 426.64 2.22172 0.625165 0
M  V30 4351 C 427.61 1.19211 1.15663 0
M  V30 4352 O 428.795 1.47723 1.20758 0
M  V30 4353 C 425.935 2.93972 1.8076 0
M  V30 4354 C 425.048 4.11632 1.31084 0
M  V30 4355 C 424.183 4.71099 2.45436 0
M  V30 4356 C 423.222 5.8097 1.92718 0
M  V30 4357 N 422.359 6.34538 3.00509 0
M  V30 4358 H 427.199 2.9796 0.0485582 0
M  V30 4359 H 424.736 1.47095 0.0122024 0
M  V30 4360 H 426.694 3.33811 2.50251 0
M  V30 4361 H 425.324 2.20623 2.35638 0
M  V30 4362 H 424.376 3.76975 0.509326 0
M  V30 4363 H 425.688 4.90893 0.884633 0
M  V30 4364 H 424.842 5.13612 3.22936 0
M  V30 4365 H 423.581 3.91096 2.91368 0
M  V30 4366 H 422.586 5.37916 1.13695 0
M  V30 4367 H 423.811 6.62836 1.47733 0
M  V30 4368 H 421.757 5.57433 3.45839 0
M  V30 4369 H 421.674 7.09046 2.62279 0
M  V30 4370 H 422.942 6.81709 3.78011 0
M  V30 4371 N 427.171 -0.0066808 1.57599 0
M  V30 4372 C 428.448 -0.729586 1.81484 0
M  V30 4373 C 428.828 -1.92359 0.869558 0
M  V30 4374 O 428.176 -2.28348 -0.0832533 0
M  V30 4375 C 428.386 -1.1416 3.29801 0
M  V30 4376 C 429.734 -1.54823 3.95367 0
M  V30 4377 O 430.758 -1.23558 3.34084 0
M  V30 4378 O 429.617 -2.12937 5.03309 0
M  V30 4379 H 426.711 -0.354674 0.747085 0
M  V30 4380 H 429.257 0.0182609 1.6969 0
M  V30 4381 H 428.029 -0.290231 3.90222 0
M  V30 4382 H 427.652 -1.94876 3.46568 0
M  V30 4383 N 428.649 -1.55105 -0.279332 0
M  V30 4384 C 429.596 -1.8755 -1.34513 0
M  V30 4385 C 430.566 -0.726384 -1.49375 0
M  V30 4386 O 431.751 -0.977063 -1.63884 0
M  V30 4387 C 428.891 -2.14738 -2.70151 0
M  V30 4388 C 428.004 -3.42285 -2.63562 0
M  V30 4389 C 427.139 -3.59206 -3.91337 0
M  V30 4390 C 426.178 -4.80467 -3.79233 0
M  V30 4391 N 425.315 -4.94079 -4.98829 0
M  V30 4392 H 430.155 -2.78456 -1.06143 0
M  V30 4393 H 427.692 -1.37867 -0.512936 0
M  V30 4394 H 429.65 -2.28501 -3.49061 0
M  V30 4395 H 428.28 -1.27075 -2.96735 0
M  V30 4396 H 427.332 -3.37029 -1.76397 0
M  V30 4397 H 428.644 -4.31328 -2.50515 0
M  V30 4398 H 427.798 -3.72751 -4.78687 0
M  V30 4399 H 426.537 -2.68337 -4.07243 0
M  V30 4400 H 425.542 -4.66932 -2.90266 0
M  V30 4401 H 426.767 -5.72765 -3.64852 0
M  V30 4402 H 424.713 -4.06139 -5.15158 0
M  V30 4403 H 424.63 -5.77156 -4.8829 0
M  V30 4404 H 425.898 -5.12003 -5.8777 0
M  V30 4405 N 430.127 0.543554 -1.4793 0
M  V30 4406 C 431.037 1.67657 -1.64098 0
M  V30 4407 C 432.053 1.65934 -0.523622 0
M  V30 4408 O 433.229 1.85133 -0.792943 0
M  V30 4409 C 430.294 3.04146 -1.66421 0
M  V30 4410 C 429.355 3.16831 -2.89684 0
M  V30 4411 C 428.588 4.46809 -2.91886 0
M  V30 4412 O 428.811 5.33095 -2.02895 0
M  V30 4413 O 427.745 4.63573 -3.83906 0
M  V30 4414 H 431.571 1.56957 -2.59997 0
M  V30 4415 H 429.156 0.715116 -1.31173 0
M  V30 4416 H 431.038 3.85346 -1.70548 0
M  V30 4417 H 429.713 3.152 -0.736923 0
M  V30 4418 H 428.62 2.34977 -2.91095 0
M  V30 4419 H 429.953 3.10687 -3.81752 0
M  V30 4420 N 431.605 1.3629 0.791371 0
M  V30 4421 C 432.568 1.30309 1.88553 0
M  V30 4422 C 433.568 0.211204 1.59407 0
M  V30 4423 O 434.758 0.465865 1.67855 0
M  V30 4424 C 431.89 1.01956 3.25297 0
M  V30 4425 H 433.083 2.27614 1.95273 0
M  V30 4426 H 430.636 1.21035 0.988953 0
M  V30 4427 H 431.371 0.050998 3.2426 0
M  V30 4428 H 431.156 1.80968 3.4784 0
M  V30 4429 H 432.646 1.0037 4.05359 0
M  V30 4430 N 433.083 -1.0153 1.20538 0
M  V30 4431 C 434.331 -1.74803 1.01432 0
M  V30 4432 C 434.652 -1.8963 -0.454456 0
M  V30 4433 O 433.922 -1.43975 -1.32846 0
M  V30 4434 H 432.502 -0.647598 0.372324 0
M  V30 4435 H 435.164 -1.22402 1.5167 0
M  V30 4436 H 434.26 -2.75114 1.47373 0
M  V30 4437 N 434.561 -1.01147 -1.20859 0
M  V30 4438 C 435.508 -0.577354 -2.23462 0
M  V30 4439 C 436.478 0.399922 -1.61214 0
M  V30 4440 O 437.663 0.300515 -1.88419 0
M  V30 4441 C 434.803 0.083372 -3.44999 0
M  V30 4442 C 433.916 -0.937856 -4.21697 0
M  V30 4443 C 433.051 -0.248717 -5.30617 0
M  V30 4444 C 432.09 -1.25705 -5.99053 0
M  V30 4445 N 431.227 -0.594939 -6.99575 0
M  V30 4446 H 436.067 -1.45695 -2.59956 0
M  V30 4447 H 433.604 -0.729428 -1.27741 0
M  V30 4448 H 435.562 0.483535 -4.14388 0
M  V30 4449 H 434.192 0.926645 -3.09214 0
M  V30 4450 H 433.244 -1.45622 -3.51423 0
M  V30 4451 H 434.556 -1.70493 -4.68757 0
M  V30 4452 H 433.71 0.207215 -6.06346 0
M  V30 4453 H 432.449 0.55071 -4.84581 0
M  V30 4454 H 431.454 -1.72343 -5.2209 0
M  V30 4455 H 432.679 -2.05767 -6.47176 0
M  V30 4456 H 430.625 0.184713 -6.5574 0
M  V30 4457 H 430.542 -1.30017 -7.44736 0
M  V30 4458 H 431.81 -0.162427 -7.79331 0
M  V30 4459 N 436.039 1.36541 -0.78704 0
M  V30 4460 C 437.316 1.9355 -0.282424 0
M  V30 4461 C 437.696 1.71919 1.22503 0
M  V30 4462 O 437.044 1.07677 2.01539 0
M  V30 4463 C 437.254 3.4246 -0.672462 0
M  V30 4464 C 438.602 4.19582 -0.650863 0
M  V30 4465 O 439.626 3.50889 -0.612789 0
M  V30 4466 O 438.485 5.42106 -0.691623 0
M  V30 4467 H 435.579 0.824091 -0.0693 0
M  V30 4468 H 438.125 1.45736 -0.869423 0
M  V30 4469 H 436.897 3.51851 -1.71221 0
M  V30 4470 H 436.52 3.97556 -0.0592211 0
M  V30 4471 N 437.518 0.538854 1.48102 0
M  V30 4472 C 438.764 0.00801365 2.02798 0
M  V30 4473 C 439.097 -1.3309 1.41424 0
M  V30 4474 O 438.372 -1.86169 0.563158 0
M  V30 4475 C 438.655 -0.104589 3.59948 0
M  V30 4476 C 438.508 1.26012 4.31788 0
M  V30 4477 C 439.827 -0.827055 4.32259 0
M  V30 4478 H 436.946 0.00438624 0.736987 0
M  V30 4479 H 439.588 0.6976 1.7673 0
M  V30 4480 H 437.738 -0.691893 3.82289 0
M  V30 4481 H 439.41 1.88922 4.2084 0
M  V30 4482 H 437.653 1.83968 3.92859 0
M  V30 4483 H 438.324 1.13424 5.40221 0
M  V30 4484 H 440.8 -0.328578 4.14801 0
M  V30 4485 H 439.676 -0.87476 5.41885 0
M  V30 4486 H 439.937 -1.87927 4.0017 0
M  V30 4487 N 438.996 -1.55193 0.274407 0
M  V30 4488 C 439.928 -2.1989 -0.646595 0
M  V30 4489 C 440.941 -1.1834 -1.11801 0
M  V30 4490 O 442.13 -1.4507 -1.04004 0
M  V30 4491 C 439.23 -2.8104 -1.89393 0
M  V30 4492 C 438.403 -4.08274 -1.56943 0
M  V30 4493 C 437.462 -4.53478 -2.66916 0
M  V30 4494 O 436.488 -5.19267 -2.33132 0
M  V30 4495 N 437.69 -4.2356 -3.9696 0
M  V30 4496 H 440.455 -2.99556 -0.0928686 0
M  V30 4497 H 438.016 -1.61618 0.0954783 0
M  V30 4498 H 440.008 -3.08226 -2.62257 0
M  V30 4499 H 438.578 -2.05372 -2.35672 0
M  V30 4500 H 437.798 -3.88384 -0.674655 0
M  V30 4501 H 439.086 -4.91173 -1.32764 0
M  V30 4502 H 438.484 -3.70799 -4.27229 0
M  V30 4503 H 437.041 -4.55518 -4.66205 0
M  V30 4504 N 440.474 -0.00167713 -1.576 0
M  V30 4505 C 441.89 0.354422 -1.55615 0
M  V30 4506 C 442.09 1.74679 -1.00447 0
M  V30 4507 O 441.146 2.4428 -0.639022 0
M  V30 4508 C 442.459 0.22812 -2.99833 0
M  V30 4509 C 444.007 0.302934 -3.11531 0
M  V30 4510 C 444.482 0.205737 -4.57538 0
M  V30 4511 N 445.973 0.263584 -4.62449 0
M  V30 4512 C 446.708 0.211742 -5.73009 0
M  V30 4513 N 446.204 0.110399 -6.92712 0
M  V30 4514 N 447.997 0.263729 -5.61481 0
M  V30 4515 H 440.148 -0.912498 -1.918 0
M  V30 4516 H 442.411 -0.349928 -0.881053 0
M  V30 4517 H 442.117 -0.729934 -3.44042 0
M  V30 4518 H 441.991 1.00951 -3.6344 0
M  V30 4519 H 444.378 1.25143 -2.67251 0
M  V30 4520 H 444.459 -0.508357 -2.50698 0
M  V30 4521 H 444.103 -0.739225 -5.02492 0
M  V30 4522 H 444.033 1.03554 -5.16318 0
M  V30 4523 H 446.524 0.343173 -3.76339 0
M  V30 4524 H 446.837 0.0767828 -7.72762 0
M  V30 4525 H 445.182 0.0760025 -6.94958 0
M  V30 4526 H 448.373 0.34111 -4.66855 0
M  V30 4527 H 448.546 0.219862 -6.47627 0
M  V30 4528 N 441.952 1.55251 0.271103 0
M  V30 4529 C 443.177 1.80306 1.02491 0
M  V30 4530 C 443.602 0.575457 1.79081 0
M  V30 4531 O 442.96 -0.474987 1.74967 0
M  V30 4532 C 443.008 3.02832 1.95768 0
M  V30 4533 O 442.112 2.78051 3.04568 0
M  V30 4534 H 441.453 0.595896 0.292923 0
M  V30 4535 H 443.983 2.02397 0.299436 0
M  V30 4536 H 443.993 3.31616 2.37686 0
M  V30 4537 H 442.668 3.9183 1.39434 0
M  V30 4538 H 441.245 2.60369 2.66951 0
M  V30 4539 N 443.43 -0.535701 1.48216 0
M  V30 4540 C 444.34 -1.66785 1.64985 0
M  V30 4541 C 445.356 -1.65654 0.532414 0
M  V30 4542 O 446.532 -1.8471 0.80275 0
M  V30 4543 C 443.597 -3.0326 1.68031 0
M  V30 4544 C 442.658 -3.1529 2.9136 0
M  V30 4545 C 441.891 -4.45255 2.94252 0
M  V30 4546 O 442.114 -5.32011 2.05719 0
M  V30 4547 O 441.048 -4.6153 3.86359 0
M  V30 4548 H 444.874 -1.55576 2.60825 0
M  V30 4549 H 442.459 -0.70815 1.31551 0
M  V30 4550 H 444.341 -3.84436 1.72589 0
M  V30 4551 H 443.016 -3.14805 0.753628 0
M  V30 4552 H 441.923 -2.3343 2.92337 0
M  V30 4553 H 443.256 -3.08658 3.83394 0
M  V30 4554 N 444.908 -1.36708 -0.784132 0
M  V30 4555 C 446.157 -1.30559 -1.53744 0
M  V30 4556 C 446.47 0.111374 -1.95283 0
M  V30 4557 O 447.676 0.29527 -2.6989 0
M  V30 4558 C 446.132 -2.29098 -2.77565 0
M  V30 4559 C 445.74 -3.76258 -2.43174 0
M  V30 4560 C 447.484 -2.31936 -3.55536 0
M  V30 4561 C 445.391 -4.6656 -3.63422 0
M  V30 4562 H 444.321 -0.48518 -0.577162 0
M  V30 4563 H 446.972 -1.62101 -0.859981 0
M  V30 4564 H 445.354 -1.90557 -3.47137 0
M  V30 4565 H 446.528 -4.23565 -1.81465 0
M  V30 4566 H 444.843 -3.76246 -1.78403 0
M  V30 4567 H 447.44 -2.9661 -4.44889 0
M  V30 4568 H 447.783 -1.3294 -3.94503 0
M  V30 4569 H 448.316 -2.6912 -2.92949 0
M  V30 4570 H 445.055 -5.66638 -3.29547 0
M  V30 4571 H 444.575 -4.23966 -4.24279 0
M  V30 4572 H 446.254 -4.8309 -4.30387 0
M  V30 4573 N 446.386 1.0089 -1.21074 0
M  V30 4574 C 447.616 1.77933 -1.04993 0
M  V30 4575 C 448.024 1.84847 0.403495 0
M  V30 4576 O 447.367 1.30606 1.29181 0
M  V30 4577 C 447.429 3.23541 -1.56722 0
M  V30 4578 C 447.093 3.40214 -3.05129 0
M  V30 4579 C 448.09 3.2881 -4.02716 0
M  V30 4580 C 445.775 3.65781 -3.44252 0
M  V30 4581 C 447.769 3.42732 -5.37414 0
M  V30 4582 C 445.456 3.79346 -4.79103 0
M  V30 4583 C 446.454 3.67827 -5.75493 0
M  V30 4584 O 446.142 3.80965 -7.07899 0
M  V30 4585 H 445.874 0.566157 -0.369381 0
M  V30 4586 H 448.428 1.27826 -1.60779 0
M  V30 4587 H 446.658 3.74766 -0.953285 0
M  V30 4588 H 448.347 3.82245 -1.36543 0
M  V30 4589 H 449.113 3.08986 -3.73835 0
M  V30 4590 H 444.992 3.73831 -2.69762 0
M  V30 4591 H 448.536 3.33658 -6.12632 0
M  V30 4592 H 444.433 3.98672 -5.07672 0
M  V30 4593 H 445.201 3.97937 -7.15254 0
M  V30 4594 N 447.864 1.01787 1.20321 0
M  V30 4595 C 448.794 0.609625 2.25401 0
M  V30 4596 C 449.775 -0.375951 1.65893 0
M  V30 4597 O 450.96 -0.261101 1.92437 0
M  V30 4598 C 448.09 -0.0515995 3.47262 0
M  V30 4599 C 447.044 0.855095 4.19371 0
M  V30 4600 C 446.37 0.0595757 5.34667 0
M  V30 4601 C 447.67 2.16374 4.75373 0
M  V30 4602 H 449.364 1.48803 2.59804 0
M  V30 4603 H 446.91 0.716934 1.24884 0
M  V30 4604 H 448.863 -0.348764 4.19954 0
M  V30 4605 H 447.587 -0.964726 3.12027 0
M  V30 4606 H 446.246 1.13628 3.48546 0
M  V30 4607 H 445.894 -0.85524 4.95676 0
M  V30 4608 H 445.594 0.663406 5.83843 0
M  V30 4609 H 447.118 -0.231105 6.10162 0
M  V30 4610 H 448.532 1.92885 5.39878 0
M  V30 4611 H 446.929 2.71853 5.34991 0
M  V30 4612 H 447.999 2.82589 3.94045 0
M  V30 4613 N 449.342 -1.36122 0.79427 0
M  V30 4614 C 450.274 -2.28683 0.153903 0
M  V30 4615 C 451.287 -1.49707 -0.639669 0
M  V30 4616 O 452.476 -1.7209 -0.474054 0
M  V30 4617 C 449.576 -3.29202 -0.804921 0
M  V30 4618 C 448.749 -4.37358 -0.060366 0
M  V30 4619 C 447.808 -5.17811 -0.935849 0
M  V30 4620 O 446.834 -5.67853 -0.391309 0
M  V30 4621 N 448.036 -5.34721 -2.25951 0
M  V30 4622 H 450.801 -2.84278 0.949008 0
M  V30 4623 H 448.362 -1.4834 0.648611 0
M  V30 4624 H 450.354 -3.79914 -1.39455 0
M  V30 4625 H 448.924 -2.74212 -1.50088 0
M  V30 4626 H 448.144 -3.87746 0.710382 0
M  V30 4627 H 449.432 -5.06777 0.45324 0
M  V30 4628 H 448.83 -4.95687 -2.72601 0
M  V30 4629 H 447.387 -5.88657 -2.79867 0
M  V30 4630 N 450.82 -0.546701 -1.47814 0
M  V30 4631 C 451.767 0.206854 -2.29871 0
M  V30 4632 C 452.737 0.918235 -1.38411 0
M  V30 4633 O 453.922 0.915991 -1.67375 0
M  V30 4634 C 451.062 1.23746 -3.22151 0
M  V30 4635 C 450.175 0.533216 -4.28697 0
M  V30 4636 C 449.31 1.5482 -5.08138 0
M  V30 4637 C 448.349 0.828347 -6.06469 0
M  V30 4638 N 447.486 1.78966 -6.78908 0
M  V30 4639 H 452.326 -0.499037 -2.93792 0
M  V30 4640 H 449.863 -0.25793 -1.44821 0
M  V30 4641 H 451.821 1.84746 -3.74065 0
M  V30 4642 H 450.451 1.91151 -2.60117 0
M  V30 4643 H 449.503 -0.191089 -3.7992 0
M  V30 4644 H 450.815 -0.0311987 -4.9879 0
M  V30 4645 H 449.969 2.23202 -5.6415 0
M  V30 4646 H 448.708 2.14652 -4.37922 0
M  V30 4647 H 447.713 0.130539 -5.49645 0
M  V30 4648 H 448.938 0.235907 -6.7869 0
M  V30 4649 H 446.884 2.37675 -6.1143 0
M  V30 4650 H 446.801 1.27712 -7.45135 0
M  V30 4651 H 448.069 2.46496 -7.395 0
M  V30 4652 N 452.299 1.55045 -0.282633 0
M  V30 4653 C 453.262 2.21515 0.588539 0
M  V30 4654 C 454.262 1.19535 1.07554 0
M  V30 4655 O 455.452 1.44391 0.974514 0
M  V30 4656 C 452.584 2.88704 1.8128 0
M  V30 4657 H 453.777 2.99899 0.00806397 0
M  V30 4658 H 451.33 1.56265 -0.0333067 0
M  V30 4659 H 452.065 2.14352 2.43359 0
M  V30 4660 H 451.85 3.63443 1.47144 0
M  V30 4661 H 453.34 3.39465 2.43214 0
M  V30 4662 N 453.777 0.010035 1.57597 0
M  V30 4663 C 455.007 -0.682422 1.95004 0
M  V30 4664 C 455.415 -1.67278 0.884014 0
M  V30 4665 O 454.758 -1.83129 -0.144672 0
M  V30 4666 C 454.82 -1.46141 3.28456 0
M  V30 4667 C 454.484 -0.631523 4.52615 0
M  V30 4668 C 455.481 0.0850905 5.1983 0
M  V30 4669 C 453.166 -0.574539 4.99003 0
M  V30 4670 C 455.16 0.847566 6.3174 0
M  V30 4671 C 452.847 0.191655 6.10799 0
M  V30 4672 C 453.845 0.901432 6.77025 0
M  V30 4673 O 453.533 1.65511 7.86677 0
M  V30 4674 H 453.265 -0.194361 0.647456 0
M  V30 4675 H 455.819 0.060312 2.05311 0
M  V30 4676 H 454.049 -2.24885 3.14585 0
M  V30 4677 H 455.738 -2.04016 3.50902 0
M  V30 4678 H 456.504 0.0502812 4.84974 0
M  V30 4679 H 452.383 -1.11654 4.47274 0
M  V30 4680 H 455.927 1.4021 6.83364 0
M  V30 4681 H 451.824 0.228249 6.45096 0
M  V30 4682 H 452.592 1.57287 8.03245 0
M  V30 4683 N 455.255 -1.55392 -0.262866 0
M  V30 4684 C 456.48 -1.80847 -1.01533 0
M  V30 4685 C 456.905 -0.584946 -1.78774 0
M  V30 4686 O 456.263 0.465701 -1.75217 0
M  V30 4687 C 456.311 -3.03866 -1.94159 0
M  V30 4688 O 455.415 -2.79662 -3.03089 0
M  V30 4689 H 454.756 -0.597441 -0.289759 0
M  V30 4690 H 457.286 -2.02553 -0.288698 0
M  V30 4691 H 457.296 -3.32872 -2.35924 0
M  V30 4692 H 455.971 -3.92564 -1.37354 0
M  V30 4693 H 454.548 -2.61781 -2.65566 0
M  V30 4694 N 456.733 0.527833 -1.48498 0
M  V30 4695 C 457.663 1.64136 -1.66077 0
M  V30 4696 C 458.644 1.62286 -0.509625 0
M  V30 4697 O 459.829 1.79449 -0.742413 0
M  V30 4698 C 456.959 3.02717 -1.70234 0
M  V30 4699 C 455.913 3.19426 -2.8487 0
M  V30 4700 C 455.239 4.5909 -2.74118 0
M  V30 4701 C 456.539 3.01993 -4.26142 0
M  V30 4702 H 458.233 1.4968 -2.593 0
M  V30 4703 H 455.779 0.718654 -1.24785 0
M  V30 4704 H 457.732 3.80491 -1.8112 0
M  V30 4705 H 456.456 3.18201 -0.735911 0
M  V30 4706 H 455.115 2.4407 -2.73542 0
M  V30 4707 H 454.763 4.71413 -1.7544 0
M  V30 4708 H 454.463 4.71214 -3.51042 0
M  V30 4709 H 455.987 5.3896 -2.86974 0
M  V30 4710 H 457.401 3.69558 -4.38292 0
M  V30 4711 H 455.798 3.2561 -5.04082 0
M  V30 4712 H 456.868 1.98396 -4.42456 0
M  V30 4713 N 458.211 1.37122 0.776871 0
M  V30 4714 C 459.627 1.1781 1.07671 0
M  V30 4715 C 459.827 0.0107454 2.01497 0
M  V30 4716 O 458.883 -0.650756 2.4397 0
M  V30 4717 C 460.196 2.49451 1.67913 0
M  V30 4718 C 461.744 2.55927 1.80195 0
M  V30 4719 C 462.219 3.87686 2.43851 0
M  V30 4720 N 463.71 3.891 2.51307 0
M  V30 4721 C 464.445 4.87797 3.014 0
M  V30 4722 N 463.941 5.96888 3.51705 0
M  V30 4723 N 465.734 4.75205 3.00227 0
M  V30 4724 H 457.885 2.11843 0.153778 0
M  V30 4725 H 460.148 0.938927 0.130844 0
M  V30 4726 H 459.854 3.35207 1.06439 0
M  V30 4727 H 459.728 2.66169 2.67271 0
M  V30 4728 H 462.115 1.70582 2.40803 0
M  V30 4729 H 462.196 2.43097 0.796069 0
M  V30 4730 H 461.84 4.73444 1.83884 0
M  V30 4731 H 461.77 3.97817 3.45035 0
M  V30 4732 H 464.261 3.10293 2.157 0
M  V30 4733 H 464.574 6.68155 3.88316 0
M  V30 4734 H 462.919 6.0054 3.49824 0
M  V30 4735 H 466.11 3.89103 2.60224 0
M  V30 4736 H 466.283 5.52279 3.38957 0
M  V30 4737 N 459.689 -1.00246 1.21608 0
M  V30 4738 C 460.652 -2.07233 0.979133 0
M  V30 4739 C 461.652 -1.6072 -0.0508219 0
M  V30 4740 O 462.842 -1.73196 0.186712 0
M  V30 4741 C 459.974 -3.37546 0.477016 0
M  V30 4742 H 461.167 -2.29687 1.92831 0
M  V30 4743 H 458.72 -1.17261 1.03342 0
M  V30 4744 H 459.455 -3.20773 -0.476966 0
M  V30 4745 H 459.24 -3.72638 1.21997 0
M  V30 4746 H 460.73 -4.16285 0.331181 0
M  V30 4747 N 461.167 -1.02423 -1.1978 0
M  V30 4748 C 462.416 -0.713265 -1.88667 0
M  V30 4749 C 462.729 0.7609 -1.80193 0
M  V30 4750 O 463.935 1.18473 -2.44288 0
M  V30 4751 C 462.391 -1.22545 -3.38394 0
M  V30 4752 C 461.999 -2.72706 -3.55437 0
M  V30 4753 C 463.743 -0.990257 -4.12788 0
M  V30 4754 C 461.65 -3.17367 -4.99031 0
M  V30 4755 H 460.58 -0.263105 -0.706606 0
M  V30 4756 H 463.231 -1.23792 -1.35454 0
M  V30 4757 H 461.613 -0.628732 -3.90977 0
M  V30 4758 H 462.787 -3.37993 -3.13205 0
M  V30 4759 H 461.102 -2.94453 -2.94425 0
M  V30 4760 H 463.699 -1.29926 -5.18675 0
M  V30 4761 H 464.042 0.0730761 -4.16236 0
M  V30 4762 H 464.575 -1.55074 -3.66329 0
M  V30 4763 H 461.314 -4.23009 -5.00743 0
M  V30 4764 H 460.834 -2.56805 -5.42044 0
M  V30 4765 H 462.513 -3.10441 -5.67658 0
M  V30 4766 N 462.645 1.35699 -0.801477 0
M  V30 4767 C 464.056 1.81415 -0.441073 0
M  V30 4768 C 464.407 1.66595 1.03636 0
M  V30 4769 O 463.532 1.19369 1.80499 0
M  V30 4770 C 464.127 3.29369 -0.793819 0
M  V30 4771 C 462.686 3.73248 -0.486083 0
M  V30 4772 C 461.833 2.57775 -1.02213 0
M  V30 4773 H 464.784 1.23749 -0.993572 0
M  V30 4774 H 464.805 3.80395 -0.0894158 0
M  V30 4775 H 464.317 3.40123 -1.86917 0
M  V30 4776 H 462.418 3.68046 0.580735 0
M  V30 4777 H 462.531 4.68222 -1.01513 0
M  V30 4778 H 460.895 2.50788 -0.444712 0
M  V30 4779 H 461.678 2.71309 -2.10348 0
M  V30 4780 N 464.123 0.554532 1.47522 0
M  V30 4781 C 465.055 -0.232106 2.28022 0
M  V30 4782 C 466.068 -0.881865 1.36847 0
M  V30 4783 O 467.257 -0.756168 1.61692 0
M  V30 4784 C 464.357 -1.34604 3.11022 0
M  V30 4785 C 463.53 -0.793582 4.30141 0
M  V30 4786 C 462.589 -1.79168 4.94758 0
M  V30 4787 O 461.615 -1.33886 5.5323 0
M  V30 4788 N 462.817 -3.12495 4.89211 0
M  V30 4789 H 465.582 0.458407 2.96173 0
M  V30 4790 H 463.143 0.390433 1.57122 0
M  V30 4791 H 465.135 -2.01243 3.51118 0
M  V30 4792 H 463.705 -1.93983 2.45131 0
M  V30 4793 H 462.925 0.0495025 3.94169 0
M  V30 4794 H 464.213 -0.403776 5.07195 0
M  V30 4795 H 463.611 -3.51931 4.42901 0
M  V30 4796 H 462.168 -3.74698 5.33333 0
M  V30 4797 N 465.601 -1.54893 0.290851 0
M  V30 4798 C 466.847 -2.0023 -0.321867 0
M  V30 4799 C 467.18 -1.179 -1.54316 0
M  V30 4800 O 466.455 -0.25293 -1.92848 0
M  V30 4801 C 466.738 -3.53456 -0.688515 0
M  V30 4802 C 466.591 -4.46532 0.541209 0
M  V30 4803 C 467.91 -4.13057 -1.51895 0
M  V30 4804 H 465.029 -0.727891 -0.115515 0
M  V30 4805 H 467.671 -1.85722 0.400931 0
M  V30 4806 H 465.821 -3.6595 -1.30433 0
M  V30 4807 H 467.493 -4.4596 1.17973 0
M  V30 4808 H 465.736 -4.17545 1.17636 0
M  V30 4809 H 466.407 -5.51475 0.240675 0
M  V30 4810 H 468.883 -4.03937 -0.99872 0
M  V30 4811 H 467.759 -5.20448 -1.74429 0
M  V30 4812 H 468.02 -3.64284 -2.50498 0
M  V30 4813 N 467.08 -0.0183926 -1.57589 0
M  V30 4814 C 468.326 0.663543 -1.91638 0
M  V30 4815 C 468.659 1.72392 -0.894134 0
M  V30 4816 O 467.934 1.94316 0.0846449 0
M  V30 4817 C 468.217 1.28984 -3.36207 0
M  V30 4818 C 468.07 0.239761 -4.49161 0
M  V30 4819 C 469.389 2.2109 -3.80536 0
M  V30 4820 H 466.508 0.239746 -0.696915 0
M  V30 4821 H 469.15 -0.073456 -1.89858 0
M  V30 4822 H 467.3 1.91799 -3.37854 0
M  V30 4823 H 468.972 -0.390119 -4.59647 0
M  V30 4824 H 467.215 -0.435972 -4.31604 0
M  V30 4825 H 467.886 0.717383 -5.47319 0
M  V30 4826 H 470.362 1.68273 -3.80557 0
M  V30 4827 H 469.238 2.61869 -4.82406 0
M  V30 4828 H 469.499 3.09764 -3.15434 0
M  V30 4829 N 468.558 1.5553 0.254621 0
M  V30 4830 C 469.806 1.7665 0.981793 0
M  V30 4831 C 470.127 0.580963 1.86145 0
M  V30 4832 O 469.397 -0.403537 1.91699 0
M  V30 4833 H 467.977 0.651475 0.365498 0
M  V30 4834 H 470.639 1.92958 0.274426 0
M  V30 4835 H 469.735 2.67486 1.60802 0
M  V30 4836 N 470.036 -0.519951 1.48776 0
M  V30 4837 C 470.999 -1.60574 1.6355 0
M  V30 4838 C 471.999 -1.52557 0.508234 0
M  V30 4839 O 473.189 -1.56047 0.774262 0
M  V30 4840 C 470.321 -3.00211 1.61512 0
M  V30 4841 H 471.514 -1.4881 2.60376 0
M  V30 4842 H 469.067 -0.742772 1.37523 0
M  V30 4843 H 469.802 -3.17471 0.662009 0
M  V30 4844 H 469.587 -3.07439 2.43359 0
M  V30 4845 H 471.077 -3.79134 1.75064 0
M  V30 4846 N 471.514 -1.37532 -0.769588 0
M  V30 4847 C 472.76 -1.33057 -1.53048 0
M  V30 4848 C 473.093 0.0841865 -1.94017 0
M  V30 4849 O 472.368 1.04198 -1.64235 0
M  V30 4850 C 472.651 -2.27166 -2.79406 0
M  V30 4851 C 472.504 -3.77429 -2.44677 0
M  V30 4852 C 473.823 -2.19683 -3.81349 0
M  V30 4853 H 470.942 -0.484655 -0.555228 0
M  V30 4854 H 473.584 -1.68251 -0.882702 0
M  V30 4855 H 471.734 -1.97283 -3.34682 0
M  V30 4856 H 473.406 -4.17918 -1.953 0
M  V30 4857 H 471.649 -3.95892 -1.77346 0
M  V30 4858 H 472.32 -4.38716 -3.35011 0
M  V30 4859 H 474.796 -2.46029 -3.35573 0
M  V30 4860 H 473.672 -2.87668 -4.67481 0
M  V30 4861 H 473.933 -1.19045 -4.25771 0
M  V30 4862 N 472.992 0.995999 -1.22138 0
M  V30 4863 C 474.408 1.25917 -0.980667 0
M  V30 4864 C 474.608 1.98819 0.327604 0
M  V30 4865 O 473.664 2.29587 1.05101 0
M  V30 4866 C 474.977 2.07399 -2.17729 0
M  V30 4867 C 476.525 2.20594 -2.22052 0
M  V30 4868 C 477 3.05462 -3.41258 0
M  V30 4869 N 478.491 3.13049 -3.41401 0
M  V30 4870 C 479.226 3.78997 -4.30289 0
M  V30 4871 N 478.722 4.46899 -5.2939 0
M  V30 4872 N 480.515 3.75728 -4.18073 0
M  V30 4873 H 472.666 0.507158 -2.06256 0
M  V30 4874 H 474.929 0.28658 -0.903646 0
M  V30 4875 H 474.635 1.61191 -3.12586 0
M  V30 4876 H 474.509 3.08154 -2.17534 0
M  V30 4877 H 476.896 2.66017 -1.27745 0
M  V30 4878 H 476.977 1.1928 -2.26287 0
M  V30 4879 H 476.621 2.60739 -4.35864 0
M  V30 4880 H 476.551 4.06911 -3.34262 0
M  V30 4881 H 479.042 2.64721 -2.69688 0
M  V30 4882 H 479.355 4.94952 -5.935 0
M  V30 4883 H 477.7 4.45657 -5.33306 0
M  V30 4884 H 480.891 3.2184 -3.39907 0
M  V30 4885 H 481.064 4.26845 -4.87553 0
M  V30 4886 N 474.47 1.03057 1.19235 0
M  V30 4887 C 475.747 0.642608 1.84743 0
M  V30 4888 C 476.127 -0.878577 1.91948 0
M  V30 4889 O 475.475 -1.77597 1.43776 0
M  V30 4890 C 475.685 1.30665 3.23616 0
M  V30 4891 C 477.033 1.43098 3.9976 0
M  V30 4892 O 478.057 1.26396 3.3302 0
M  V30 4893 O 476.916 1.70223 5.19313 0
M  V30 4894 H 474.01 0.223573 0.796206 0
M  V30 4895 H 476.556 1.12883 1.26711 0
M  V30 4896 H 475.328 2.34544 3.13217 0
M  V30 4897 H 474.951 0.808405 3.89295 0
M  V30 4898 N 475.948 -1.35272 0.808662 0
M  V30 4899 C 477.176 -2.02946 0.402537 0
M  V30 4900 C 477.591 -1.60937 -0.987147 0
M  V30 4901 O 476.948 -0.807917 -1.63643 0
M  V30 4902 C 476.999 -3.58317 0.47868 0
M  V30 4903 O 476.72 -3.98799 1.81358 0
M  V30 4904 C 478.221 -4.43251 0.0656281 0
M  V30 4905 H 475.441 -0.650831 0.163279 0
M  V30 4906 H 477.985 -1.72849 1.09286 0
M  V30 4907 H 476.14 -3.87055 -0.163415 0
M  V30 4908 H 476.554 -4.93451 1.77781 0
M  V30 4909 H 478.028 -5.51738 0.170017 0
M  V30 4910 H 478.505 -4.27913 -0.989278 0
M  V30 4911 H 479.111 -4.19813 0.68096 0
M  V30 4912 N 477.426 -0.562348 -1.47226 0
M  V30 4913 C 478.356 0.170627 -2.32876 0
M  V30 4914 C 479.337 0.903748 -1.44106 0
M  V30 4915 O 480.522 0.883206 -1.72954 0
M  V30 4916 C 477.652 1.19786 -3.25989 0
M  V30 4917 C 476.606 0.580875 -4.2404 0
M  V30 4918 C 475.932 1.71311 -5.06514 0
M  V30 4919 C 477.232 -0.468714 -5.20193 0
M  V30 4920 H 478.926 -0.544441 -2.94408 0
M  V30 4921 H 476.472 -0.263271 -1.41573 0
M  V30 4922 H 478.425 1.71884 -3.84752 0
M  V30 4923 H 477.149 1.94294 -2.62521 0
M  V30 4924 H 475.808 0.0811538 -3.6651 0
M  V30 4925 H 475.456 2.44736 -4.39447 0
M  V30 4926 H 475.156 1.30604 -5.72902 0
M  V30 4927 H 476.68 2.23725 -5.68137 0
M  V30 4928 H 478.094 -0.0336028 -5.7329 0
M  V30 4929 H 476.491 -0.794957 -5.94811 0
M  V30 4930 H 477.561 -1.36269 -4.65359 0
M  V30 4931 N 478.904 1.54736 -0.299062 0
M  V30 4932 C 480.134 2.04215 0.312992 0
M  V30 4933 C 480.542 1.17596 1.48215 0
M  V30 4934 O 479.885 0.193835 1.82674 0
M  V30 4935 C 479.947 3.49696 0.833862 0
M  V30 4936 C 479.611 4.56518 -0.20977 0
M  V30 4937 C 480.608 5.09442 -1.03756 0
M  V30 4938 C 478.293 5.01073 -0.35091 0
M  V30 4939 C 480.287 6.05459 -1.99244 0
M  V30 4940 C 477.974 5.9691 -1.30924 0
M  V30 4941 C 478.972 6.48987 -2.1285 0
M  V30 4942 O 478.66 7.42947 -3.07059 0
M  V30 4943 H 478.392 0.672128 0.0722494 0
M  V30 4944 H 480.946 2.00718 -0.436043 0
M  V30 4945 H 479.176 3.5051 1.63339 0
M  V30 4946 H 480.865 3.82381 1.36159 0
M  V30 4947 H 481.631 4.75816 -0.939376 0
M  V30 4948 H 477.51 4.60168 0.276813 0
M  V30 4949 H 481.054 6.46031 -2.63229 0
M  V30 4950 H 476.951 6.29953 -1.40815 0
M  V30 4951 H 477.719 7.60743 -3.02015 0
M  V30 4952 N 480.382 0.0267497 1.57577 0
M  V30 4953 C 481.332 -0.965003 2.06571 0
M  V30 4954 C 482.316 -1.28694 0.965746 0
M  V30 4955 O 483.508 -1.27345 1.22932 0
M  V30 4956 C 480.637 -2.24821 2.59443 0
M  V30 4957 C 479.723 -1.95474 3.76365 0
M  V30 4958 N 480.114 -1.36387 4.87065 0
M  V30 4959 C 478.412 -2.25478 3.84806 0
M  V30 4960 C 479.113 -1.24119 5.68304 0
M  V30 4961 N 478.089 -1.7359 5.15138 0
M  V30 4962 H 481.891 -0.503095 2.89562 0
M  V30 4963 H 479.405 -0.178322 1.61418 0
M  V30 4964 H 481.402 -2.9674 2.92833 0
M  V30 4965 H 480.062 -2.7164 1.77881 0
M  V30 4966 H 481.073 -1.03919 5.07367 0
M  V30 4967 H 477.75 -2.74987 3.14147 0
M  V30 4968 H 479.14 -0.784504 6.67304 0
M  V30 4969 N 481.861 -1.55662 -0.24637 0
M  V30 4970 C 482.824 -1.89558 -1.28842 0
M  V30 4971 C 483.824 -0.772082 -1.41052 0
M  V30 4972 O 485.014 -1.04007 -1.39743 0
M  V30 4973 C 482.146 -2.12449 -2.66605 0
M  V30 4974 H 483.339 -2.82735 -1.00004 0
M  V30 4975 H 480.892 -1.48562 -0.485684 0
M  V30 4976 H 481.627 -1.21742 -3.00582 0
M  V30 4977 H 481.412 -2.94273 -2.59125 0
M  V30 4978 H 482.902 -2.39854 -3.41847 0
M  V30 4979 N 483.339 0.512053 -1.4905 0
M  V30 4980 C 484.755 0.84224 -1.35567 0
M  V30 4981 C 484.955 1.97878 -0.380319 0
M  V30 4982 O 484.011 2.51769 0.19201 0
M  V30 4983 C 485.324 1.19286 -2.76028 0
M  V30 4984 C 486.872 1.30171 -2.84648 0
M  V30 4985 C 487.347 1.68568 -4.25851 0
M  V30 4986 N 488.838 1.75638 -4.28609 0
M  V30 4987 C 489.573 2.06769 -5.34821 0
M  V30 4988 N 489.069 2.36201 -6.51292 0
M  V30 4989 N 490.862 2.07927 -5.22229 0
M  V30 4990 H 483.013 -0.237574 -2.11067 0
M  V30 4991 H 485.276 -0.0436747 -0.946993 0
M  V30 4992 H 484.982 0.431199 -3.49047 0
M  V30 4993 H 484.856 2.13889 -3.10695 0
M  V30 4994 H 487.243 2.05411 -2.11873 0
M  V30 4995 H 487.324 0.336457 -2.53578 0
M  V30 4996 H 486.968 0.938824 -4.99148 0
M  V30 4997 H 486.898 2.66174 -4.54377 0
M  V30 4998 H 489.389 1.55097 -3.44606 0
M  V30 4999 H 489.702 2.59112 -7.28066 0
M  V30 5000 H 488.047 2.33681 -6.54536 0
M  V30 5001 H 491.238 1.84403 -4.30248 0
M  V30 5002 H 491.411 2.31856 -6.05101 0
M  V30 5003 N 484.817 1.37938 0.762283 0
M  V30 5004 C 485.767 1.30976 1.86626 0
M  V30 5005 C 486.751 0.195714 1.59705 0
M  V30 5006 O 487.943 0.430937 1.71674 0
M  V30 5007 C 485.072 1.12847 3.24223 0
M  V30 5008 C 484.158 2.28836 3.57064 0
M  V30 5009 N 484.549 3.54256 3.61022 0
M  V30 5010 C 482.847 2.21198 3.87282 0
M  V30 5011 C 483.548 4.30798 3.90881 0
M  V30 5012 N 482.524 3.60049 4.07266 0
M  V30 5013 H 486.326 2.25946 1.87951 0
M  V30 5014 H 483.84 1.31046 0.959206 0
M  V30 5015 H 485.837 1.05943 4.03214 0
M  V30 5016 H 484.497 0.188024 3.24155 0
M  V30 5017 H 485.508 3.8804 3.42995 0
M  V30 5018 H 482.185 1.35264 3.94981 0
M  V30 5019 H 483.575 5.39386 4.00639 0
M  V30 5020 N 486.295 -0.989507 1.22664 0
M  V30 5021 C 487.242 -2.08024 0.999733 0
M  V30 5022 C 488.212 -1.65909 -0.0797047 0
M  V30 5023 O 489.397 -1.90669 0.0705715 0
M  V30 5024 C 486.537 -3.40067 0.587234 0
M  V30 5025 C 485.65 -3.95505 1.73781 0
M  V30 5026 C 484.785 -5.15722 1.27297 0
M  V30 5027 C 483.824 -5.63305 2.39488 0
M  V30 5028 N 482.961 -6.74758 1.94026 0
M  V30 5029 H 487.801 -2.26768 1.9334 0
M  V30 5030 H 485.338 -1.11171 0.963297 0
M  V30 5031 H 487.296 -4.15899 0.329227 0
M  V30 5032 H 485.926 -3.21314 -0.309426 0
M  V30 5033 H 484.978 -3.16513 2.11006 0
M  V30 5034 H 486.29 -4.26797 2.58158 0
M  V30 5035 H 485.444 -5.98854 0.972546 0
M  V30 5036 H 484.183 -4.86061 0.399445 0
M  V30 5037 H 483.188 -4.78759 2.70315 0
M  V30 5038 H 484.413 -5.94988 3.27362 0
M  V30 5039 H 482.359 -6.46874 1.09041 0
M  V30 5040 H 482.276 -7.05386 2.71968 0
M  V30 5041 H 483.544 -7.61387 1.67062 0
M  V30 5042 N 487.773 -1.03688 -1.18687 0
M  V30 5043 C 488.703 -0.645407 -2.24403 0
M  V30 5044 C 489.684 0.349511 -1.66471 0
M  V30 5045 O 490.869 0.230453 -1.92828 0
M  V30 5046 C 487.999 -0.00365337 -3.473 0
M  V30 5047 C 486.953 -0.921705 -4.17958 0
M  V30 5048 C 486.279 -0.144629 -5.34504 0
M  V30 5049 C 487.579 -2.23909 -4.71871 0
M  V30 5050 H 489.273 -1.52917 -2.57404 0
M  V30 5051 H 486.819 -0.736711 -1.23728 0
M  V30 5052 H 488.772 0.281908 -4.20456 0
M  V30 5053 H 487.496 0.914963 -3.13522 0
M  V30 5054 H 486.155 -1.19159 -3.46694 0
M  V30 5055 H 485.803 0.776274 -4.96974 0
M  V30 5056 H 485.503 -0.756206 -5.82714 0
M  V30 5057 H 487.027 0.134004 -6.10453 0
M  V30 5058 H 488.441 -2.0145 -5.36741 0
M  V30 5059 H 486.838 -2.8033 -5.30599 0
M  V30 5060 H 487.908 -2.88822 -3.895 0
M  V30 5061 N 489.251 1.34841 -0.815825 0
M  V30 5062 C 490.667 1.51543 -0.500697 0
M  V30 5063 C 490.867 1.76261 0.976444 0
M  V30 5064 O 489.923 1.8094 1.76117 0
M  V30 5065 C 491.236 2.68487 -1.35407 0
M  V30 5066 C 492.784 2.82368 -1.35046 0
M  V30 5067 C 493.259 4.02347 -2.18816 0
M  V30 5068 N 494.75 4.09542 -2.16402 0
M  V30 5069 C 495.485 5.01517 -2.77971 0
M  V30 5070 N 494.981 5.98763 -3.48503 0
M  V30 5071 N 496.774 4.94334 -2.67563 0
M  V30 5072 H 488.925 1.17055 -1.77234 0
M  V30 5073 H 491.188 0.573481 -0.754866 0
M  V30 5074 H 490.894 2.56829 -2.40274 0
M  V30 5075 H 490.768 3.63321 -1.01377 0
M  V30 5076 H 493.155 2.93471 -0.309604 0
M  V30 5077 H 493.236 1.88363 -1.73069 0
M  V30 5078 H 492.88 3.92004 -3.22948 0
M  V30 5079 H 492.81 4.95551 -1.78148 0
M  V30 5080 H 495.301 3.39932 -1.65091 0
M  V30 5081 H 495.614 6.6556 -3.92747 0
M  V30 5082 H 493.959 5.98909 -3.52609 0
M  V30 5083 H 497.15 4.1732 -2.12041 0
M  V30 5084 H 497.323 5.6582 -3.15834 0
M  V30 5085 N 490.729 0.570148 1.46925 0
M  V30 5086 C 491.978 0.0487352 2.01641 0
M  V30 5087 C 492.291 -1.31433 1.44861 0
M  V30 5088 O 493.497 -1.92638 1.91318 0
M  V30 5089 C 491.953 0.0365817 3.59881 0
M  V30 5090 C 491.561 1.39719 4.25655 0
M  V30 5091 C 493.305 -0.431545 4.22301 0
M  V30 5092 C 491.212 1.34345 5.75939 0
M  V30 5093 H 490.142 0.0144492 0.753862 0
M  V30 5094 H 492.793 0.719928 1.68788 0
M  V30 5095 H 491.175 -0.700522 3.89755 0
M  V30 5096 H 492.349 2.15303 4.07408 0
M  V30 5097 H 490.664 1.80431 3.75278 0
M  V30 5098 H 493.261 -0.490354 5.32447 0
M  V30 5099 H 493.604 -1.44638 3.90366 0
M  V30 5100 H 494.137 0.251102 3.97007 0
M  V30 5101 H 490.876 2.33469 6.12513 0
M  V30 5102 H 490.396 0.629615 5.96486 0
M  V30 5103 H 492.075 1.051 6.38407 0
M  V30 5104 N 492.207 -1.54576 0.307264 0
M  V30 5105 C 493.117 -2.27435 -0.57536 0
M  V30 5106 C 494.133 -1.31183 -1.14311 0
M  V30 5107 O 495.309 -1.64175 -1.16656 0
M  V30 5108 C 492.374 -3.00566 -1.72803 0
M  V30 5109 C 491.435 -4.12369 -1.19373 0
M  V30 5110 C 490.668 -4.82003 -2.29147 0
M  V30 5111 O 490.891 -4.51038 -3.49171 0
M  V30 5112 O 489.825 -5.69271 -1.95485 0
M  V30 5113 H 493.651 -3.03696 0.0158558 0
M  V30 5114 H 491.236 -1.49219 0.0735064 0
M  V30 5115 H 493.118 -3.46416 -2.39946 0
M  V30 5116 H 491.793 -2.27195 -2.30574 0
M  V30 5117 H 490.7 -3.70905 -0.487851 0
M  V30 5118 H 492.033 -4.87736 -0.661376 0
M  V30 5119 N 493.685 -0.035106 -1.57561 0
M  V30 5120 C 494.615 0.942993 -2.13612 0
M  V30 5121 C 495.596 1.33531 -1.05373 0
M  V30 5122 O 496.781 1.41287 -1.33235 0
M  V30 5123 C 493.911 2.22332 -2.66807 0
M  V30 5124 C 492.865 1.97156 -3.79886 0
M  V30 5125 C 492.191 3.31506 -4.19533 0
M  V30 5126 C 493.491 1.30596 -5.05709 0
M  V30 5127 H 495.185 0.476179 -2.95589 0
M  V30 5128 H 492.731 0.227602 -1.4219 0
M  V30 5129 H 494.684 2.91142 -3.04654 0
M  V30 5130 H 493.408 2.7119 -1.81999 0
M  V30 5131 H 492.067 1.30763 -3.42486 0
M  V30 5132 H 491.715 3.78134 -3.31698 0
M  V30 5133 H 491.415 3.15465 -4.95738 0
M  V30 5134 H 492.939 4.01574 -4.59968 0
M  V30 5135 H 494.353 1.89416 -5.41105 0
M  V30 5136 H 492.75 1.24934 -5.86951 0
M  V30 5137 H 493.82 0.279742 -4.84092 0
M  V30 5138 N 495.163 1.55791 0.238111 0
M  V30 5139 C 496.111 1.91885 1.31464 0
M  V30 5140 C 497.105 0.798929 1.49377 0
M  V30 5141 O 498.311 0.983626 1.50747 0
M  V30 5142 H 494.686 0.609551 0.440399 0
M  V30 5143 H 496.657 2.81747 0.982925 0
M  V30 5144 C 495.406 2.23763 2.6613 0
M  V30 5145 H 494.729 3.09444 2.53149 0
M  V30 5146 H 496.169 2.52915 3.40309 0
M  V30 5147 C 494.628 1.05699 3.1989 0
M  V30 5148 O 495.158 0.309524 4.00506 0
M  V30 5149 N 493.364 0.845251 2.78036 0
M  V30 5150 H 492.911 1.4548 2.12588 0
M  V30 5151 H 492.869 0.0569973 3.14348 0
M  V30 5152 N 496.642 -0.504142 1.49319 0
M  V30 5153 C 497.867 -1.28729 1.62615 0
M  V30 5154 C 498.292 -1.85752 0.296309 0
M  V30 5155 O 497.65 -1.65704 -0.735649 0
M  V30 5156 C 497.698 -2.39561 2.69524 0
M  V30 5157 O 496.802 -3.43324 2.28478 0
M  V30 5158 H 496.143 -0.380172 0.544395 0
M  V30 5159 H 498.673 -0.603872 1.95485 0
M  V30 5160 H 498.683 -2.8537 2.91595 0
M  V30 5161 H 497.358 -1.97423 3.66056 0
M  V30 5162 H 495.935 -3.03455 2.16725 0
M  V30 5163 N 498.12 -1.38341 -0.754957 0
M  V30 5164 C 499.083 -1.35262 -1.85032 0
M  V30 5165 C 500.083 -0.253393 -1.58791 0
M  V30 5166 O 501.273 -0.510205 -1.66561 0
M  V30 5167 C 498.405 -1.10544 -3.22479 0
M  V30 5168 H 499.598 -2.32712 -1.8917 0
M  V30 5169 H 497.151 -1.23614 -0.956515 0
M  V30 5170 H 497.886 -0.136952 -3.24011 0
M  V30 5171 H 497.671 -1.90127 -3.4292 0
M  V30 5172 H 499.161 -1.11082 -4.02555 0
M  V30 5173 N 499.598 0.982988 -1.23187 0
M  V30 5174 C 500.546 2.09616 -1.00817 0
M  V30 5175 C 501.54 1.6932 0.0519995 0
M  V30 5176 O 502.746 1.79715 -0.101284 0
M  V30 5177 H 499.121 0.685628 -0.308899 0
M  V30 5178 H 501.092 2.25652 -1.95253 0
M  V30 5179 C 499.841 3.42249 -0.613243 0
M  V30 5180 H 499.164 3.73705 -1.42073 0
M  V30 5181 H 500.604 4.21086 -0.496208 0
M  V30 5182 C 499.063 3.30002 0.678233 0
M  V30 5183 O 499.593 3.6263 1.72807 0
M  V30 5184 N 497.799 2.83164 0.653165 0
M  V30 5185 H 497.346 2.56811 -0.201492 0
M  V30 5186 H 497.304 2.75352 1.51752 0
M  V30 5187 N 501.076 1.04316 1.18135 0
M  V30 5188 C 502.353 0.662166 1.84051 0
M  V30 5189 C 502.733 -0.858169 1.9287 0
M  V30 5190 O 502.081 -1.76062 1.45652 0
M  V30 5191 C 502.291 1.3409 3.22212 0
M  V30 5192 C 503.639 1.4733 3.9822 0
M  V30 5193 O 504.663 1.29921 3.31661 0
M  V30 5194 O 503.522 1.75722 5.17479 0
M  V30 5195 H 500.616 0.232005 0.79379 0
M  V30 5196 H 503.162 1.1422 1.25506 0
M  V30 5197 H 501.934 2.37853 3.10711 0
M  V30 5198 H 501.557 0.849649 3.88416 0
M  V30 5199 N 502.554 -1.34406 0.822964 0
M  V30 5200 C 503.502 -2.31428 0.233165 0
M  V30 5201 C 504.496 -1.57404 -0.626118 0
M  V30 5202 O 505.702 -1.72402 -0.517453 0
M  V30 5203 H 502.077 -0.749863 0.0566557 0
M  V30 5204 H 504.048 -2.78699 1.06628 0
M  V30 5205 C 502.797 -3.42653 -0.590264 0
M  V30 5206 H 502.12 -3.99753 0.0616129 0
M  V30 5207 H 503.56 -4.12778 -0.969054 0
M  V30 5208 C 502.019 -2.87112 -1.76262 0
M  V30 5209 O 502.549 -2.81995 -2.8608 0
M  V30 5210 N 500.755 -2.43934 -1.57938 0
M  V30 5211 H 500.302 -2.48296 -0.686078 0
M  V30 5212 H 500.26 -2.07123 -2.36532 0
M  V30 5213 N 504.032 -0.577932 -1.46621 0
M  V30 5214 C 505.443 -0.150071 -1.86096 0
M  V30 5215 C 505.794 1.28563 -1.48209 0
M  V30 5216 O 504.919 1.97036 -0.894754 0
M  V30 5217 C 505.514 -0.265576 -3.37758 0
M  V30 5218 C 504.073 0.10738 -3.76247 0
M  V30 5219 C 503.22 -0.603711 -2.70649 0
M  V30 5220 H 506.171 -0.786438 -1.37844 0
M  V30 5221 H 506.192 0.510352 -3.77062 0
M  V30 5222 H 505.704 -1.3106 -3.65301 0
M  V30 5223 H 503.805 1.15272 -3.54321 0
M  V30 5224 H 503.918 -0.26561 -4.78363 0
M  V30 5225 H 502.282 -0.0444884 -2.54661 0
M  V30 5226 H 503.065 -1.65029 -3.01032 0
M  V30 5227 N 505.51 1.54411 -0.315457 0
M  V30 5228 C 506.44 2.27002 0.547039 0
M  V30 5229 C 507.421 1.27492 1.12605 0
M  V30 5230 O 508.606 1.5629 1.15269 0
M  V30 5231 C 505.736 3.02171 1.71201 0
M  V30 5232 C 504.69 4.0895 1.26268 0
M  V30 5233 C 504.016 4.71915 2.51396 0
M  V30 5234 C 505.316 5.20891 0.383419 0
M  V30 5235 H 507.01 2.99343 -0.0584517 0
M  V30 5236 H 504.556 1.4397 -0.0295527 0
M  V30 5237 H 506.509 3.51681 2.32161 0
M  V30 5238 H 505.233 2.27433 2.34397 0
M  V30 5239 H 503.892 3.60312 0.676062 0
M  V30 5240 H 503.54 3.93801 3.12937 0
M  V30 5241 H 503.24 5.44039 2.22026 0
M  V30 5242 H 504.764 5.24195 3.13133 0
M  V30 5243 H 506.178 5.66206 0.899082 0
M  V30 5244 H 504.575 5.99821 0.182857 0
M  V30 5245 H 505.645 4.81324 -0.587821 0
M  V30 5246 N 506.988 0.0434614 1.5754 0
M  V30 5247 C 508.235 -0.632035 1.92384 0
M  V30 5248 C 508.563 -1.71304 0.921157 0
M  V30 5249 O 507.818 -1.95583 -0.067744 0
M  V30 5250 C 508.117 -1.2738 3.3393 0
M  V30 5251 C 507.783 -0.321757 4.49751 0
M  V30 5252 C 506.445 -0.0597611 4.81163 0
M  V30 5253 C 508.797 0.331158 5.20147 0
M  V30 5254 C 506.125 0.862715 5.80322 0
M  V30 5255 C 508.477 1.24178 6.20292 0
M  V30 5256 C 507.141 1.51252 6.50138 0
M  V30 5257 H 506.411 -0.231278 0.703983 0
M  V30 5258 H 509.058 0.108294 1.91194 0
M  V30 5259 H 507.363 -2.08921 3.3145 0
M  V30 5260 H 509.06 -1.80326 3.58167 0
M  V30 5261 H 505.65 -0.53614 4.25233 0
M  V30 5262 H 509.834 0.141826 4.96097 0
M  V30 5263 H 505.09 1.08003 6.01785 0
M  V30 5264 H 509.264 1.75381 6.73954 0
M  V30 5265 H 506.891 2.22897 7.26788 0
M  V30 5266 N 508.466 -1.55915 -0.229846 0
M  V30 5267 C 509.713 -1.78542 -0.955452 0
M  V30 5268 C 510.041 -0.610785 -1.84661 0
M  V30 5269 O 509.296 0.405213 -1.91459 0
M  V30 5270 C 509.595 -3.06845 -1.8325 0
M  V30 5271 C 509.261 -4.37395 -1.09528 0
M  V30 5272 C 507.923 -4.72868 -0.891598 0
M  V30 5273 C 510.275 -5.18029 -0.574046 0
M  V30 5274 C 507.603 -5.86496 -0.154655 0
M  V30 5275 C 509.955 -6.32423 0.149513 0
M  V30 5276 C 508.619 -6.66504 0.364519 0
M  V30 5277 H 507.889 -0.653333 -0.349625 0
M  V30 5278 H 510.536 -1.90183 -0.224235 0
M  V30 5279 H 508.841 -2.90291 -2.63132 0
M  V30 5280 H 510.538 -3.21553 -2.39592 0
M  V30 5281 H 507.128 -4.09538 -1.26399 0
M  V30 5282 H 511.312 -4.91066 -0.718899 0
M  V30 5283 H 506.568 -6.11396 0.0222356 0
M  V30 5284 H 510.742 -6.94137 0.560947 0
M  V30 5285 H 508.369 -7.54397 0.937495 0
M  V30 5286 N 509.944 0.496216 -1.49584 0
M  V30 5287 C 510.854 1.62352 -1.69349 0
M  V30 5288 C 511.87 1.64184 -0.576147 0
M  V30 5289 O 513.046 1.82517 -0.85144 0
M  V30 5290 C 510.111 2.98698 -1.76013 0
M  V30 5291 C 509.172 3.07454 -2.99617 0
M  V30 5292 C 508.405 4.37296 -3.05953 0
M  V30 5293 O 508.628 5.2637 -2.19752 0
M  V30 5294 O 507.562 4.51124 -3.9846 0
M  V30 5295 H 511.388 1.48606 -2.64859 0
M  V30 5296 H 508.973 0.673022 -1.33382 0
M  V30 5297 H 510.855 3.79725 -1.82721 0
M  V30 5298 H 509.53 3.12696 -0.836828 0
M  V30 5299 H 508.437 2.25597 -2.98424 0
M  V30 5300 H 509.77 2.98385 -3.91443 0
M  V30 5301 N 511.423 1.38739 0.74761 0
M  V30 5302 C 512.671 1.35007 1.50391 0
M  V30 5303 C 512.992 -0.0574274 1.94915 0
M  V30 5304 O 512.262 -1.00628 1.6808 0
M  V30 5305 H 510.842 0.496784 0.557866 0
M  V30 5306 H 513.504 1.73479 0.888319 0
M  V30 5307 H 512.6 2.00474 2.392 0
M  V30 5308 N 512.901 -0.976442 1.23707 0
M  V30 5309 C 513.848 -2.06952 1.02174 0
M  V30 5310 C 514.818 -1.65984 -0.0621034 0
M  V30 5311 O 516.003 -1.90584 0.0907906 0
M  V30 5312 C 513.143 -3.39425 0.62327 0
M  V30 5313 C 512.256 -3.9364 1.77966 0
M  V30 5314 C 511.391 -5.14343 1.3276 0
M  V30 5315 C 510.43 -5.60733 2.45449 0
M  V30 5316 N 509.567 -6.72662 2.01172 0
M  V30 5317 H 514.407 -2.24704 1.95734 0
M  V30 5318 H 511.944 -1.10143 0.975034 0
M  V30 5319 H 513.902 -4.15526 0.37332 0
M  V30 5320 H 512.532 -3.21624 -0.275329 0
M  V30 5321 H 511.584 -3.14258 2.14351 0
M  V30 5322 H 512.896 -4.24035 2.62671 0
M  V30 5323 H 512.05 -5.97789 1.03601 0
M  V30 5324 H 510.789 -4.8561 0.450975 0
M  V30 5325 H 509.794 -4.75865 2.75378 0
M  V30 5326 H 511.019 -5.91483 3.33654 0
M  V30 5327 H 508.965 -6.45681 1.15895 0
M  V30 5328 H 508.882 -7.02462 2.79434 0
M  V30 5329 H 510.15 -7.59572 1.75129 0
M  V30 5330 N 514.379 -1.04941 -1.1758 0
M  V30 5331 C 515.289 -0.658826 -2.25159 0
M  V30 5332 C 516.305 0.318941 -1.71052 0
M  V30 5333 O 517.481 0.171669 -2.00667 0
M  V30 5334 C 514.546 -0.0369522 -3.4668 0
M  V30 5335 C 513.607 -1.06484 -4.15884 0
M  V30 5336 C 512.84 -0.472551 -5.31604 0
M  V30 5337 O 513.063 0.718736 -5.65854 0
M  V30 5338 O 511.997 -1.20557 -5.89703 0
M  V30 5339 H 515.823 -1.55533 -2.60851 0
M  V30 5340 H 513.408 -0.820819 -1.24832 0
M  V30 5341 H 515.29 0.308784 -4.20267 0
M  V30 5342 H 513.965 0.833238 -3.12792 0
M  V30 5343 H 512.872 -1.46253 -3.44327 0
M  V30 5344 H 514.205 -1.9061 -4.53794 0
M  V30 5345 N 515.857 1.33968 -0.830081 0
M  V30 5346 C 517.106 1.97323 -0.417928 0
M  V30 5347 C 517.419 1.6652 1.02618 0
M  V30 5348 O 518.625 2.2342 1.54259 0
M  V30 5349 C 517.081 3.53099 -0.696359 0
M  V30 5350 C 516.689 3.92788 -2.15457 0
M  V30 5351 C 518.433 4.23049 -0.350724 0
M  V30 5352 C 516.34 5.41506 -2.37751 0
M  V30 5353 H 515.27 0.738409 -0.152541 0
M  V30 5354 H 517.921 1.52711 -1.01744 0
M  V30 5355 H 516.303 3.95991 -0.0265904 0
M  V30 5356 H 517.477 3.6098 -2.86408 0
M  V30 5357 H 515.792 3.35795 -2.46232 0
M  V30 5358 H 518.389 5.32403 -0.495036 0
M  V30 5359 H 518.732 4.10279 0.705476 0
M  V30 5360 H 519.265 3.85657 -0.975362 0
M  V30 5361 H 516.004 5.5927 -3.41903 0
M  V30 5362 H 515.524 5.74804 -1.7135 0
M  V30 5363 H 517.203 6.0828 -2.20465 0
M  V30 5364 N 517.335 0.585699 1.46312 0
M  V30 5365 C 518.582 0.0724211 2.0237 0
M  V30 5366 C 518.91 -1.28868 1.45683 0
M  V30 5367 O 518.165 -1.85853 0.612945 0
M  V30 5368 C 518.464 -0.0401312 3.57377 0
M  V30 5369 C 518.13 1.25376 4.33119 0
M  V30 5370 C 516.792 1.60824 4.5353 0
M  V30 5371 C 519.144 2.10987 4.76586 0
M  V30 5372 C 516.472 2.81676 5.14661 0
M  V30 5373 C 518.824 3.31068 5.39052 0
M  V30 5374 C 517.488 3.66794 5.5769 0
M  V30 5375 H 516.758 0.0265007 0.740526 0
M  V30 5376 H 519.405 0.762935 1.75646 0
M  V30 5377 H 517.71 -0.813791 3.83255 0
M  V30 5378 H 519.407 -0.453078 3.98432 0
M  V30 5379 H 515.997 0.967808 4.1753 0
M  V30 5380 H 520.181 1.84904 4.60569 0
M  V30 5381 H 515.437 3.0949 5.27282 0
M  V30 5382 H 519.611 3.97672 5.71691 0
M  V30 5383 H 517.238 4.60529 6.04828 0
M  V30 5384 N 518.813 -1.54241 0.323641 0
M  V30 5385 C 519.763 -2.21071 -0.557833 0
M  V30 5386 C 520.747 -1.19126 -1.08157 0
M  V30 5387 O 521.939 -1.44755 -1.01857 0
M  V30 5388 C 519.068 -2.97208 -1.71821 0
M  V30 5389 C 518.154 -4.06491 -1.20936 0
M  V30 5390 N 518.545 -5.04052 -0.420202 0
M  V30 5391 C 516.843 -4.20443 -1.48808 0
M  V30 5392 C 517.544 -5.81516 -0.146413 0
M  V30 5393 N 516.52 -5.38641 -0.732562 0
M  V30 5394 H 520.322 -2.93853 0.0523921 0
M  V30 5395 H 517.836 -1.61883 0.129502 0
M  V30 5396 H 519.833 -3.4357 -2.36146 0
M  V30 5397 H 518.493 -2.25947 -2.33191 0
M  V30 5398 H 519.504 -5.17862 -0.0630401 0
M  V30 5399 H 516.181 -3.60396 -2.10762 0
M  V30 5400 H 517.571 -6.70119 0.488895 0
M  V30 5401 N 520.291 -0.0518155 -1.57515 0
M  V30 5402 C 521.539 0.620595 -1.92336 0
M  V30 5403 C 521.86 1.71345 -0.930907 0
M  V30 5404 O 521.13 1.95885 0.0241341 0
M  V30 5405 H 519.71 0.232226 -0.709986 0
M  V30 5406 H 522.372 -0.104969 -1.94617 0
M  V30 5407 H 521.468 1.05879 -2.93592 0
M  V30 5408 N 521.769 1.56035 0.221574 0
M  V30 5409 C 522.732 1.91584 1.2581 0
M  V30 5410 C 523.732 0.794425 1.39805 0
M  V30 5411 O 524.922 1.06217 1.38071 0
M  V30 5412 C 522.054 2.16663 2.63192 0
M  V30 5413 H 523.247 2.8429 0.954935 0
M  V30 5414 H 520.8 1.49316 0.461988 0
M  V30 5415 H 521.535 1.26508 2.98607 0
M  V30 5416 H 521.32 2.98358 2.5441 0
M  V30 5417 H 522.81 2.45262 3.37988 0
M  V30 5418 N 523.247 -0.488276 1.49845 0
M  V30 5419 C 524.195 -1.60917 1.67954 0
M  V30 5420 C 525.189 -1.6038 0.54539 0
M  V30 5421 O 526.395 -1.64736 0.7254 0
M  V30 5422 H 522.77 -0.533658 0.529824 0
M  V30 5423 H 524.741 -1.428 2.62013 0
M  V30 5424 C 523.49 -2.98975 1.77509 0
M  V30 5425 H 522.813 -3.00099 2.6416 0
M  V30 5426 H 524.253 -3.76906 1.9421 0
M  V30 5427 C 522.712 -3.3282 0.522745 0
M  V30 5428 O 523.242 -4.00208 -0.345866 0
M  V30 5429 N 521.448 -2.8808 0.381882 0
M  V30 5430 H 520.995 -2.33415 1.08974 0
M  V30 5431 H 520.953 -3.11091 -0.454929 0
M  V30 5432 N 524.725 -1.39134 -0.740242 0
M  V30 5433 C 525.972 -1.36071 -1.49969 0
M  V30 5434 C 526.3 0.0450245 -1.94448 0
M  V30 5435 O 525.555 1.02482 -1.66721 0
M  V30 5436 C 525.854 -2.27457 -2.75678 0
M  V30 5437 C 525.52 -3.75185 -2.50094 0
M  V30 5438 C 524.182 -4.15439 -2.42825 0
M  V30 5439 C 526.534 -4.68643 -2.28086 0
M  V30 5440 C 523.862 -5.4722 -2.11584 0
M  V30 5441 C 526.214 -6.00695 -1.98363 0
M  V30 5442 C 524.878 -6.40018 -1.8956 0
M  V30 5443 H 524.148 -0.497921 -0.548777 0
M  V30 5444 H 526.795 -1.71599 -0.85007 0
M  V30 5445 H 525.1 -1.8503 -3.45356 0
M  V30 5446 H 526.797 -2.22384 -3.33686 0
M  V30 5447 H 523.387 -3.43279 -2.56627 0
M  V30 5448 H 527.571 -4.3838 -2.32672 0
M  V30 5449 H 522.827 -5.76615 -2.03287 0
M  V30 5450 H 527.001 -6.72644 -1.80341 0
M  V30 5451 H 524.628 -7.42051 -1.65117 0
M  V30 5452 N 526.204 0.969867 -1.24223 0
M  V30 5453 C 527.154 2.04913 -0.999732 0
M  V30 5454 C 528.138 1.60795 0.0580636 0
M  V30 5455 O 529.33 1.76317 -0.155392 0
M  V30 5456 C 526.459 3.37942 -0.604154 0
M  V30 5457 C 525.545 3.88628 -1.69791 0
M  V30 5458 N 525.936 4.12274 -2.93025 0
M  V30 5459 C 524.234 4.17268 -1.57492 0
M  V30 5460 C 524.935 4.53808 -3.63914 0
M  V30 5461 N 523.911 4.58855 -2.91468 0
M  V30 5462 H 527.713 2.21168 -1.93551 0
M  V30 5463 H 525.227 1.15349 -1.14317 0
M  V30 5464 H 527.224 4.14863 -0.411665 0
M  V30 5465 H 525.884 3.23075 0.324465 0
M  V30 5466 H 526.895 3.99789 -3.29225 0
M  V30 5467 H 523.572 4.11346 -0.714175 0
M  V30 5468 H 524.962 4.80534 -4.69614 0
M  V30 5469 N 527.682 1.05563 1.17022 0
M  V30 5470 C 528.93 0.76642 1.87004 0
M  V30 5471 C 529.251 -0.708854 1.8166 0
M  V30 5472 O 528.521 -1.51242 1.2451 0
M  V30 5473 H 527.101 0.280516 0.692329 0
M  V30 5474 H 529.763 1.33557 1.41945 0
M  V30 5475 H 528.859 1.08472 2.92644 0
M  V30 5476 N 529.16 -1.33526 0.837174 0
M  V30 5477 C 530.092 -2.28077 0.226579 0
M  V30 5478 C 531.105 -1.51666 -0.591717 0
M  V30 5479 O 532.294 -1.73511 -0.419064 0
M  V30 5480 C 529.394 -3.31597 -0.69978 0
M  V30 5481 C 528.567 -4.37329 0.0788067 0
M  V30 5482 C 527.626 -5.20526 -0.770637 0
M  V30 5483 O 526.652 -5.68811 -0.210453 0
M  V30 5484 N 527.854 -5.41639 -2.08825 0
M  V30 5485 H 530.619 -2.81115 1.03897 0
M  V30 5486 H 528.18 -1.46201 0.695476 0
M  V30 5487 H 530.172 -3.84158 -1.27298 0
M  V30 5488 H 528.742 -2.78848 -1.41288 0
M  V30 5489 H 527.962 -3.8529 0.833381 0
M  V30 5490 H 529.25 -5.05079 0.614238 0
M  V30 5491 H 528.648 -5.04108 -2.56693 0
M  V30 5492 H 527.205 -5.97263 -2.60998 0
M  V30 5493 N 530.638 -0.59345 -1.46 0
M  V30 5494 C 532.049 -0.169801 -1.85926 0
M  V30 5495 C 532.4 1.26984 -1.49565 0
M  V30 5496 O 531.525 1.96076 -0.915602 0
M  V30 5497 C 532.12 -0.301385 -3.37457 0
M  V30 5498 C 530.679 0.0674684 -3.7634 0
M  V30 5499 C 529.826 -0.632383 -2.69993 0
M  V30 5500 H 532.777 -0.801014 -1.37002 0
M  V30 5501 H 532.798 0.470331 -3.77582 0
M  V30 5502 H 532.31 -1.34927 -3.63891 0
M  V30 5503 H 530.411 1.11507 -3.55523 0
M  V30 5504 H 530.524 -0.316332 -4.78055 0
M  V30 5505 H 528.888 -0.0714961 -2.546 0
M  V30 5506 H 529.671 -1.68212 -2.99265 0
M  V30 5507 N 532.116 1.54067 -0.331816 0
M  V30 5508 C 533.365 1.99895 0.269209 0
M  V30 5509 C 533.678 1.22371 1.52593 0
M  V30 5510 O 534.884 1.58618 2.20347 0
M  V30 5511 C 533.34 3.55972 0.530244 0
M  V30 5512 C 532.948 4.4234 -0.709901 0
M  V30 5513 C 534.692 4.10247 1.09077 0
M  V30 5514 C 532.599 5.89905 -0.420312 0
M  V30 5515 H 531.529 0.746741 0.104371 0
M  V30 5516 H 534.18 1.78014 -0.445324 0
M  V30 5517 H 532.562 3.73873 1.30518 0
M  V30 5518 H 533.736 4.36215 -1.48504 0
M  V30 5519 H 532.051 3.98997 -1.19123 0
M  V30 5520 H 534.648 5.18095 1.32219 0
M  V30 5521 H 534.991 3.62739 2.0427 0
M  V30 5522 H 535.524 3.96011 0.376824 0
M  V30 5523 H 532.263 6.41623 -1.34164 0
M  V30 5524 H 531.783 5.98962 0.316962 0
M  V30 5525 H 533.462 6.46991 -0.0331956 0
M  V30 5526 N 533.594 0.0601682 1.57485 0
M  V30 5527 C 534.557 -0.896373 2.10945 0
M  V30 5528 C 535.557 -1.23402 1.03095 0
M  V30 5529 O 536.747 -1.16921 1.29132 0
M  V30 5530 C 533.879 -2.20346 2.60116 0
M  V30 5531 H 535.072 -0.432778 2.96761 0
M  V30 5532 H 532.625 -0.188372 1.55161 0
M  V30 5533 H 533.36 -2.71268 1.7772 0
M  V30 5534 H 533.145 -1.9714 3.38937 0
M  V30 5535 H 534.635 -2.88846 3.01592 0
M  V30 5536 N 535.072 -1.5615 -0.213296 0
M  V30 5537 C 536.319 -1.79546 -0.936462 0
M  V30 5538 C 536.647 -0.630337 -1.84003 0
M  V30 5539 O 535.902 0.384883 -1.91878 0
M  V30 5540 C 536.201 -3.08772 -1.79985 0
M  V30 5541 C 535.867 -4.38532 -1.04882 0
M  V30 5542 C 534.529 -4.73787 -0.841393 0
M  V30 5543 C 536.881 -5.18609 -0.51907 0
M  V30 5544 C 534.209 -5.86627 -0.0924403 0
M  V30 5545 C 536.561 -6.32229 0.216581 0
M  V30 5546 C 535.225 -6.6608 0.435191 0
M  V30 5547 H 534.495 -0.657004 -0.342676 0
M  V30 5548 H 537.142 -1.9041 -0.204051 0
M  V30 5549 H 535.447 -2.93065 -2.60038 0
M  V30 5550 H 537.144 -3.24077 -2.36168 0
M  V30 5551 H 533.734 -4.10855 -1.22048 0
M  V30 5552 H 537.918 -4.91801 -0.666775 0
M  V30 5553 H 533.174 -6.11338 0.087081 0
M  V30 5554 H 537.348 -6.93503 0.634538 0
M  V30 5555 H 534.975 -7.5336 1.01746 0
M  V30 5556 N 536.55 0.480323 -1.50102 0
M  V30 5557 C 537.513 1.56181 -1.6775 0
M  V30 5558 C 538.513 1.51156 -0.548503 0
M  V30 5559 O 539.703 1.5394 -0.815363 0
M  V30 5560 C 536.835 2.95823 -1.69415 0
M  V30 5561 H 538.028 1.41855 -2.6423 0
M  V30 5562 H 535.581 0.70605 -1.39444 0
M  V30 5563 H 536.316 3.15604 -0.745948 0
M  V30 5564 H 536.101 3.00878 -2.51425 0
M  V30 5565 H 537.591 3.74359 -1.85054 0
M  V30 5566 N 538.028 1.39524 0.732853 0
M  V30 5567 C 538.961 1.32806 1.85574 0
M  V30 5568 C 539.939 0.201354 1.61348 0
M  V30 5569 O 541.123 0.38216 1.84585 0
M  V30 5570 C 538.25 1.06271 3.21596 0
M  V30 5571 C 537.296 2.21161 3.64678 0
M  V30 5572 S 538.129 3.83454 3.73796 0
M  V30 5573 C 539.285 3.59149 5.12604 0
M  V30 5574 H 539.518 2.27838 1.9099 0
M  V30 5575 H 537.051 1.25605 0.897927 0
M  V30 5576 H 539.009 0.916461 4.00139 0
M  V30 5577 H 537.67 0.129223 3.13834 0
M  V30 5578 H 536.863 1.98193 4.63396 0
M  V30 5579 H 536.465 2.32 2.93346 0
M  V30 5580 H 538.757 3.16547 5.99003 0
M  V30 5581 H 539.7 4.57335 5.40602 0
M  V30 5582 H 540.108 2.93203 4.82382 0
M  V30 5583 N 539.506 -0.963266 1.24736 0
M  V30 5584 C 540.783 -1.68248 0.9976 0
M  V30 5585 C 541.163 -2.05599 -0.478776 0
M  V30 5586 O 540.511 -1.7626 -1.45412 0
M  V30 5587 C 540.721 -2.91118 1.92487 0
M  V30 5588 C 542.069 -3.63261 2.19833 0
M  V30 5589 O 543.093 -3.01184 1.90176 0
M  V30 5590 O 541.952 -4.75019 2.7022 0
M  V30 5591 H 539.046 -0.735744 0.377637 0
M  V30 5592 H 541.592 -1.01696 1.35853 0
M  V30 5593 H 540.364 -2.60242 2.92215 0
M  V30 5594 H 539.987 -3.65402 1.56738 0
M  V30 5595 N 540.985 -1.06182 -1.16461 0
M  V30 5596 C 542.232 -0.777863 -1.86964 0
M  V30 5597 C 542.56 0.695602 -1.81636 0
M  V30 5598 O 541.815 1.52532 -1.22607 0
M  V30 5599 C 542.114 -1.21633 -3.36066 0
M  V30 5600 C 541.78 -2.69371 -3.61594 0
M  V30 5601 C 540.442 -3.09727 -3.6827 0
M  V30 5602 C 542.794 -3.64791 -3.7226 0
M  V30 5603 C 540.122 -4.44345 -3.83112 0
M  V30 5604 C 542.474 -4.99155 -3.88623 0
M  V30 5605 C 541.138 -5.39149 -3.93541 0
M  V30 5606 H 540.408 -0.28464 -0.68415 0
M  V30 5607 H 543.055 -1.33071 -1.37711 0
M  V30 5608 H 541.36 -0.582651 -3.87443 0
M  V30 5609 H 543.057 -0.973682 -3.88999 0
M  V30 5610 H 539.647 -2.37124 -3.57029 0
M  V30 5611 H 543.831 -3.34746 -3.66413 0
M  V30 5612 H 539.087 -4.74819 -3.85172 0
M  V30 5613 H 543.261 -5.72976 -3.95817 0
M  V30 5614 H 540.888 -6.43464 -4.04794 0
M  V30 5615 N 542.463 1.3308 -0.844243 0
M  V30 5616 C 543.709 1.97898 -0.443206 0
M  V30 5617 C 544.042 1.66699 0.99625 0
M  V30 5618 O 543.317 0.949704 1.69738 0
M  V30 5619 C 543.6 3.53801 -0.670606 0
M  V30 5620 C 543.453 3.94667 -2.15772 0
M  V30 5621 C 544.772 4.39936 -0.120226 0
M  V30 5622 H 541.891 0.718861 -0.162504 0
M  V30 5623 H 544.533 1.57633 -1.06075 0
M  V30 5624 H 542.683 3.88229 -0.14496 0
M  V30 5625 H 544.355 3.70469 -2.74865 0
M  V30 5626 H 542.598 3.44203 -2.6402 0
M  V30 5627 H 543.269 5.03275 -2.26757 0
M  V30 5628 H 545.745 4.12183 -0.5696 0
M  V30 5629 H 544.621 5.4803 -0.308984 0
M  V30 5630 H 544.882 4.31184 0.976347 0
M  V30 5631 N 543.941 0.601185 1.45683 0
M  V30 5632 C 545.169 0.100054 2.06658 0
M  V30 5633 C 545.584 -1.21285 1.44691 0
M  V30 5634 O 544.941 -1.73735 0.558772 0
M  V30 5635 C 544.992 -0.0528579 3.61461 0
M  V30 5636 O 544.713 1.20809 4.21114 0
M  V30 5637 C 546.214 -0.586193 4.39407 0
M  V30 5638 H 543.434 0.065905 0.667756 0
M  V30 5639 H 545.978 0.827101 1.87028 0
M  V30 5640 H 544.133 -0.730203 3.80456 0
M  V30 5641 H 544.547 1.03368 5.14213 0
M  V30 5642 H 546.021 -0.642297 5.4825 0
M  V30 5643 H 546.498 -1.60713 4.0874 0
M  V30 5644 H 547.104 0.0568935 4.25262 0
M  V30 5645 N 545.419 -1.53889 0.339982 0
M  V30 5646 C 546.668 -2.00035 -0.258604 0
M  V30 5647 C 546.981 -1.23179 -1.51942 0
M  V30 5648 O 548.187 -1.59784 -2.19503 0
M  V30 5649 C 546.643 -3.56249 -0.511359 0
M  V30 5650 C 546.251 -4.41957 0.733349 0
M  V30 5651 C 547.995 -4.1082 -1.069 0
M  V30 5652 C 545.902 -5.89673 0.451591 0
M  V30 5653 H 544.832 -0.747284 -0.10041 0
M  V30 5654 H 547.483 -1.77776 0.454758 0
M  V30 5655 H 545.865 -3.7456 -1.28533 0
M  V30 5656 H 547.039 -4.35421 1.50815 0
M  V30 5657 H 545.354 -3.9836 1.21237 0
M  V30 5658 H 547.951 -5.18789 -1.2947 0
M  V30 5659 H 548.294 -3.63817 -2.02343 0
M  V30 5660 H 548.827 -3.96205 -0.355817 0
M  V30 5661 H 545.566 -6.40903 1.37565 0
M  V30 5662 H 545.086 -5.99122 -0.285193 0
M  V30 5663 H 546.765 -6.46965 0.0675067 0
M  V30 5664 N 546.897 -0.0685191 -1.57451 0
M  V30 5665 C 547.86 0.885173 -2.11417 0
M  V30 5666 C 548.86 1.22853 -1.03748 0
M  V30 5667 O 550.05 1.16235 -1.2975 0
M  V30 5668 C 547.182 2.18964 -2.61281 0
M  V30 5669 H 548.375 0.417034 -2.96986 0
M  V30 5670 H 545.928 0.18014 -1.55258 0
M  V30 5671 H 546.663 2.70321 -1.79156 0
M  V30 5672 H 546.448 1.9534 -3.39977 0
M  V30 5673 H 547.938 2.87242 -3.0312 0
M  V30 5674 N 548.375 1.56261 0.205012 0
M  V30 5675 C 549.305 1.96779 1.257 0
M  V30 5676 C 550.286 0.838309 1.48008 0
M  V30 5677 O 551.471 1.10189 1.59913 0
M  V30 5678 C 548.601 2.29876 2.60335 0
M  V30 5679 C 547.555 3.45469 2.52656 0
M  V30 5680 C 546.881 3.64215 3.91473 0
M  V30 5681 C 548.181 4.79954 2.06014 0
M  V30 5682 H 549.875 2.84904 0.920338 0
M  V30 5683 H 547.421 1.37072 0.441277 0
M  V30 5684 H 549.374 2.56814 3.34102 0
M  V30 5685 H 548.098 1.38622 2.95722 0
M  V30 5686 H 546.757 3.18605 1.81345 0
M  V30 5687 H 546.405 2.70309 4.24196 0
M  V30 5688 H 546.105 4.41973 3.87213 0
M  V30 5689 H 547.629 3.93519 4.66878 0
M  V30 5690 H 549.043 5.05989 2.69533 0
M  V30 5691 H 547.44 5.61111 2.12777 0
M  V30 5692 H 548.51 4.74201 1.01297 0
M  V30 5693 N 549.853 -0.472356 1.50355 0
M  V30 5694 C 551.081 -1.24784 1.65035 0
M  V30 5695 C 551.496 -1.85837 0.333176 0
M  V30 5696 O 550.853 -1.69168 -0.68472 0
M  V30 5697 C 550.904 -2.35747 2.74054 0
M  V30 5698 O 550.625 -1.77197 4.00665 0
M  V30 5699 C 552.126 -3.26645 2.99696 0
M  V30 5700 H 549.346 -0.377432 0.554785 0
M  V30 5701 H 551.89 -0.563962 1.9657 0
M  V30 5702 H 550.045 -2.99912 2.45217 0
M  V30 5703 H 550.459 -2.5026 4.60945 0
M  V30 5704 H 551.933 -4.00718 3.79644 0
M  V30 5705 H 552.41 -3.8535 2.10718 0
M  V30 5706 H 553.016 -2.68218 3.3006 0
M  V30 5707 N 551.331 -1.39911 -0.725443 0
M  V30 5708 C 552.263 -1.35301 -1.85003 0
M  V30 5709 C 553.276 -0.260102 -1.60709 0
M  V30 5710 O 554.465 -0.519749 -1.70766 0
M  V30 5711 C 551.565 -1.08039 -3.21218 0
M  V30 5712 C 550.738 -2.28793 -3.7279 0
M  V30 5713 C 549.797 -1.97841 -4.87591 0
M  V30 5714 O 548.823 -2.70616 -5.00755 0
M  V30 5715 N 550.025 -0.950367 -5.72668 0
M  V30 5716 H 552.79 -2.32218 -1.89459 0
M  V30 5717 H 550.351 -1.34137 -0.90658 0
M  V30 5718 H 552.343 -0.853354 -3.95601 0
M  V30 5719 H 550.913 -0.198229 -3.11971 0
M  V30 5720 H 550.133 -2.67388 -2.8965 0
M  V30 5721 H 551.421 -3.09317 -4.03981 0
M  V30 5722 H 550.819 -0.347436 -5.64632 0
M  V30 5723 H 549.376 -0.783232 -6.47077 0
M  V30 5724 N 552.809 0.956637 -1.25245 0
M  V30 5725 C 553.739 2.07058 -1.07931 0
M  V30 5726 C 554.72 1.70096 0.0110361 0
M  V30 5727 O 555.905 1.93555 -0.158121 0
M  V30 5728 C 553.035 3.40272 -0.695124 0
M  V30 5729 C 551.989 3.91235 -1.73549 0
M  V30 5730 C 551.315 5.20921 -1.20604 0
M  V30 5731 C 552.615 4.17837 -3.13385 0
M  V30 5732 H 554.309 2.218 -2.01109 0
M  V30 5733 H 551.855 1.06581 -0.968326 0
M  V30 5734 H 553.808 4.1765 -0.560949 0
M  V30 5735 H 552.532 3.25462 0.272355 0
M  V30 5736 H 551.191 3.16025 -1.85807 0
M  V30 5737 H 550.839 5.02479 -0.228846 0
M  V30 5738 H 550.539 5.55987 -1.90136 0
M  V30 5739 H 552.063 6.00897 -1.08421 0
M  V30 5740 H 553.477 4.8588 -3.04292 0
M  V30 5741 H 551.874 4.64154 -3.80369 0
M  V30 5742 H 552.944 3.2419 -3.60595 0
M  V30 5743 N 554.287 1.06798 1.15896 0
M  V30 5744 C 555.535 0.786211 1.8618 0
M  V30 5745 C 555.856 -0.689547 1.82401 0
M  V30 5746 O 555.126 -1.49913 1.26107 0
M  V30 5747 H 553.706 0.287843 0.689315 0
M  V30 5748 H 556.368 1.35055 1.40521 0
M  V30 5749 H 555.464 1.1157 2.91477 0
M  V30 5750 N 555.766 -1.3263 0.851289 0
M  V30 5751 C 557.012 -1.9766 0.453694 0
M  V30 5752 C 557.345 -1.67225 -0.987396 0
M  V30 5753 O 556.62 -0.958693 -1.69232 0
M  V30 5754 C 556.903 -3.5344 0.68936 0
M  V30 5755 C 556.756 -3.93517 2.17862 0
M  V30 5756 C 558.075 -4.39866 0.143555 0
M  V30 5757 H 555.194 -0.717989 0.166314 0
M  V30 5758 H 557.836 -1.57068 1.06909 0
M  V30 5759 H 555.986 -3.88147 0.165546 0
M  V30 5760 H 557.658 -3.69006 2.76826 0
M  V30 5761 H 555.901 -3.42798 2.65841 0
M  V30 5762 H 556.572 -5.02065 2.29422 0
M  V30 5763 H 559.048 -4.11875 0.591451 0
M  V30 5764 H 557.924 -5.47858 0.338043 0
M  V30 5765 H 558.185 -4.31696 -0.953466 0
M  V30 5766 N 557.244 -0.608902 -1.45362 0
M  V30 5767 C 558.174 0.0964526 -2.33301 0
M  V30 5768 C 559.155 0.857444 -1.46908 0
M  V30 5769 O 560.34 0.827735 -1.75676 0
M  V30 5770 C 557.47 1.09354 -3.29635 0
M  V30 5771 C 556.424 0.445676 -4.25673 0
M  V30 5772 C 555.75 1.5511 -5.11708 0
M  V30 5773 C 557.05 -0.633972 -5.18438 0
M  V30 5774 H 558.744 -0.637829 -2.92527 0
M  V30 5775 H 556.29 -0.308178 -1.40664 0
M  V30 5776 H 558.243 1.59556 -3.90025 0
M  V30 5777 H 556.967 1.85843 -2.6857 0
M  V30 5778 H 555.626 -0.0354897 -3.66583 0
M  V30 5779 H 555.274 2.30631 -4.4701 0
M  V30 5780 H 554.974 1.12311 -5.76767 0
M  V30 5781 H 556.498 2.05537 -5.74967 0
M  V30 5782 H 557.912 -0.215974 -5.72893 0
M  V30 5783 H 556.309 -0.983789 -5.91981 0
M  V30 5784 H 557.379 -1.51005 -4.60788 0
M  V30 5785 N 558.722 1.53707 -0.348139 0
M  V30 5786 C 559.685 2.23812 0.494058 0
M  V30 5787 C 560.685 1.23989 1.02388 0
M  V30 5788 O 561.875 1.48395 0.912396 0
M  V30 5789 C 559.007 2.96133 1.68872 0
M  V30 5790 H 560.2 2.99663 -0.119141 0
M  V30 5791 H 557.753 1.55983 -0.0995539 0
M  V30 5792 H 558.488 2.24481 2.34049 0
M  V30 5793 H 558.273 3.69357 1.31596 0
M  V30 5794 H 559.763 3.49475 2.28597 0
M  V30 5795 N 560.2 0.0768682 1.57412 0
M  V30 5796 C 561.11 -0.903207 2.16516 0
M  V30 5797 C 562.126 -1.32341 1.12968 0
M  V30 5798 O 563.302 -1.39507 1.45258 0
M  V30 5799 C 560.367 -2.1508 2.71922 0
M  V30 5800 C 559.428 -1.78653 3.90361 0
M  V30 5801 C 558.661 -2.97465 4.43114 0
M  V30 5802 O 558.884 -4.11638 3.94854 0
M  V30 5803 O 557.818 -2.76987 5.3438 0
M  V30 5804 H 561.644 -0.430427 3.00634 0
M  V30 5805 H 559.229 -0.146485 1.4868 0
M  V30 5806 H 561.111 -2.8823 3.07411 0
M  V30 5807 H 559.786 -2.61446 1.9086 0
M  V30 5808 H 558.693 -1.0274 3.59716 0
M  V30 5809 H 560.026 -1.37066 4.7273 0
M  V30 5810 N 561.678 -1.56367 -0.196722 0
M  V30 5811 C 563.094 -1.49916 -0.54749 0
M  V30 5812 C 563.294 -0.77659 -1.85934 0
M  V30 5813 O 562.35 -0.32644 -2.50381 0
M  V30 5814 C 563.663 -2.94577 -0.603734 0
M  V30 5815 C 565.211 -3.05239 -0.692677 0
M  V30 5816 C 565.686 -4.51308 -0.780046 0
M  V30 5817 N 567.177 -4.55453 -0.843616 0
M  V30 5818 C 567.912 -5.65786 -0.931358 0
M  V30 5819 N 567.408 -6.85812 -0.981503 0
M  V30 5820 N 569.201 -5.53695 -0.968421 0
M  V30 5821 H 561.352 -2.01761 0.663803 0
M  V30 5822 H 563.615 -0.918094 0.236238 0
M  V30 5823 H 563.321 -3.50494 0.29105 0
M  V30 5824 H 563.195 -3.47841 -1.45898 0
M  V30 5825 H 565.582 -2.49372 -1.57789 0
M  V30 5826 H 565.663 -2.55103 0.188736 0
M  V30 5827 H 565.307 -5.078 0.100811 0
M  V30 5828 H 565.237 -4.99176 -1.67724 0
M  V30 5829 H 567.728 -3.69025 -0.814176 0
M  V30 5830 H 568.041 -7.65648 -1.04892 0
M  V30 5831 H 566.386 -6.88474 -0.950208 0
M  V30 5832 H 569.577 -4.58848 -0.926072 0
M  V30 5833 H 569.75 -6.39708 -1.03334 0
M  V30 5834 N 563.156 0.464375 -1.50603 0
M  V30 5835 C 564.088 1.57916 -1.66118 0
M  V30 5836 C 565.101 1.53497 -0.54246 0
M  V30 5837 O 566.29 1.58763 -0.815877 0
M  V30 5838 C 563.39 2.96809 -1.63577 0
M  V30 5839 C 562.563 3.26026 -2.91592 0
M  V30 5840 C 561.622 4.44506 -2.81604 0
M  V30 5841 O 560.648 4.44484 -3.55559 0
M  V30 5842 N 561.85 5.46549 -1.95614 0
M  V30 5843 H 564.615 1.45022 -2.62276 0
M  V30 5844 H 562.176 0.652903 -1.48151 0
M  V30 5845 H 564.168 3.74048 -1.54499 0
M  V30 5846 H 562.738 3.03438 -0.751262 0
M  V30 5847 H 561.958 2.37337 -3.14746 0
M  V30 5848 H 563.246 3.42361 -3.76386 0
M  V30 5849 H 562.644 5.49391 -1.34854 0
M  V30 5850 H 561.201 6.22746 -1.92435 0
M  V30 5851 N 564.634 1.40294 0.718013 0
M  V30 5852 C 565.883 1.37746 1.4734 0
M  V30 5853 C 566.196 -0.0180754 1.95592 0
M  V30 5854 O 567.402 -0.166166 2.70991 0
M  V30 5855 C 565.858 2.4208 2.66318 0
M  V30 5856 C 565.466 3.87432 2.24945 0
M  V30 5857 C 567.21 2.48635 3.44065 0
M  V30 5858 C 565.117 4.83368 3.40748 0
M  V30 5859 H 564.047 0.512165 0.553356 0
M  V30 5860 H 566.698 1.66019 0.781661 0
M  V30 5861 H 565.08 2.06903 3.3765 0
M  V30 5862 H 566.254 4.3174 1.6105 0
M  V30 5863 H 564.569 3.8433 1.60249 0
M  V30 5864 H 567.166 3.17499 4.30231 0
M  V30 5865 H 567.509 1.51611 3.87711 0
M  V30 5866 H 568.042 2.82791 2.79775 0
M  V30 5867 H 564.781 5.81716 3.02136 0
M  V30 5868 H 564.301 4.43726 4.03568 0
M  V30 5869 H 565.98 5.03074 4.06848 0
M  V30 5870 N 566.112 -0.949982 1.2575 0
M  V30 5871 C 567.06 -2.06869 1.06339 0
M  V30 5872 C 568.054 -1.69399 -0.00708901 0
M  V30 5873 O 569.26 -1.79383 0.148897 0
M  V30 5874 H 565.635 -0.677197 0.326969 0
M  V30 5875 H 567.606 -2.20396 2.01167 0
M  V30 5876 C 566.355 -3.40503 0.703769 0
M  V30 5877 H 565.678 -3.69807 1.51931 0
M  V30 5878 H 567.118 -4.19623 0.607677 0
M  V30 5879 C 565.577 -3.31685 -0.5905 0
M  V30 5880 O 566.107 -3.67085 -1.63131 0
M  V30 5881 N 564.313 -2.84797 -0.577859 0
M  V30 5882 H 563.86 -2.56186 0.26951 0
M  V30 5883 H 563.818 -2.79279 -1.44398 0
M  V30 5884 N 567.59 -1.07411 -1.15328 0
M  V30 5885 C 569.006 -0.799759 -1.38116 0
M  V30 5886 C 569.206 0.59572 -1.92493 0
M  V30 5887 O 568.262 1.35433 -2.13106 0
M  V30 5888 C 569.575 -1.87407 -2.35158 0
M  V30 5889 C 571.123 -1.89889 -2.48819 0
M  V30 5890 C 571.598 -2.96406 -3.49153 0
M  V30 5891 N 573.089 -2.95512 -3.56689 0
M  V30 5892 C 573.824 -3.74575 -4.34144 0
M  V30 5893 N 573.32 -4.63488 -5.14928 0
M  V30 5894 N 575.113 -3.62919 -4.29239 0
M  V30 5895 H 567.264 -1.97411 -0.78374 0
M  V30 5896 H 569.527 -0.856113 -0.407154 0
M  V30 5897 H 569.233 -2.8768 -2.0232 0
M  V30 5898 H 569.107 -1.73471 -3.34944 0
M  V30 5899 H 571.494 -0.902677 -2.80955 0
M  V30 5900 H 571.575 -2.07904 -1.49029 0
M  V30 5901 H 571.219 -3.96227 -3.17752 0
M  V30 5902 H 571.149 -2.75638 -4.48699 0
M  V30 5903 H 573.64 -2.31061 -2.99031 0
M  V30 5904 H 573.953 -5.20445 -5.71276 0
M  V30 5905 H 572.298 -4.67537 -5.14232 0
M  V30 5906 H 575.489 -2.92833 -3.65194 0
M  V30 5907 H 575.662 -4.24777 -4.89355 0
M  V30 5908 N 569.068 1.32177 -0.85831 0
M  V30 5909 C 570.314 1.97417 -0.46417 0
M  V30 5910 C 570.647 1.67746 0.978514 0
M  V30 5911 O 569.922 0.967654 1.68721 0
M  V30 5912 C 570.205 3.53069 -0.708094 0
M  V30 5913 C 570.058 3.92357 -2.19946 0
M  V30 5914 C 571.377 4.39783 -0.166881 0
M  V30 5915 H 568.496 0.717097 -0.17012 0
M  V30 5916 H 571.138 1.56499 -1.07741 0
M  V30 5917 H 569.288 3.88054 -0.186128 0
M  V30 5918 H 570.96 3.67533 -2.78779 0
M  V30 5919 H 569.203 3.41384 -2.67656 0
M  V30 5920 H 569.874 5.00841 -2.32082 0
M  V30 5921 H 572.35 4.11556 -0.613285 0
M  V30 5922 H 571.226 5.47671 -0.367093 0
M  V30 5923 H 571.487 4.32196 0.930559 0
M  V30 5924 N 570.547 0.616602 1.45037 0
M  V30 5925 C 571.477 -0.0840787 2.33349 0
M  V30 5926 C 572.458 -0.849641 1.4736 0
M  V30 5927 O 573.643 -0.818407 1.76113 0
M  V30 5928 C 570.773 -1.07604 3.3021 0
M  V30 5929 C 569.727 -0.423096 4.25904 0
M  V30 5930 C 569.053 -1.52394 5.12523 0
M  V30 5931 C 570.353 0.661457 5.18095 0
M  V30 5932 H 572.047 0.653333 2.92185 0
M  V30 5933 H 569.593 0.315634 1.40498 0
M  V30 5934 H 571.546 -1.57485 3.90866 0
M  V30 5935 H 570.27 -1.84416 2.69552 0
M  V30 5936 H 568.929 0.05493 3.66559 0
M  V30 5937 H 568.577 -2.28257 4.48227 0
M  V30 5938 H 568.277 -1.09251 5.77354 0
M  V30 5939 H 569.801 -2.02485 5.76049 0
M  V30 5940 H 571.215 0.246353 5.7277 0
M  V30 5941 H 569.612 1.01517 5.91451 0
M  V30 5942 H 570.682 1.53446 4.59981 0
M  V30 5943 N 572.025 -1.5352 0.356285 0
M  V30 5944 C 572.973 -2.26945 -0.50978 0
M  V30 5945 C 573.967 -1.29569 -1.09125 0
M  V30 5946 O 575.173 -1.47231 -1.03552 0
M  V30 5947 H 571.548 -0.729368 -0.183102 0
M  V30 5948 H 573.519 -2.98111 0.131374 0
M  V30 5949 C 572.268 -3.06466 -1.64237 0
M  V30 5950 H 571.591 -3.81233 -1.20423 0
M  V30 5951 H 573.031 -3.61035 -2.22327 0
M  V30 5952 C 571.49 -2.16737 -2.57928 0
M  V30 5953 O 572.02 -1.77195 -3.60507 0
M  V30 5954 N 570.226 -1.81558 -2.26903 0
M  V30 5955 H 569.773 -2.13913 -1.43524 0
M  V30 5956 H 569.731 -1.21806 -2.89846 0
M  V30 5957 N 573.503 -0.0852151 -1.57369 0
M  V30 5958 C 574.919 0.271436 -1.57275 0
M  V30 5959 C 575.119 1.69109 -1.09565 0
M  V30 5960 O 574.175 2.40549 -0.767611 0
M  V30 5961 C 575.488 0.0688638 -3.00621 0
M  V30 5962 C 577.036 0.137373 -3.12698 0
M  V30 5963 C 577.511 -0.0370832 -4.57985 0
M  V30 5964 N 579.002 0.0180794 -4.63196 0
M  V30 5965 C 579.737 -0.0922953 -5.73326 0
M  V30 5966 N 579.233 -0.256948 -6.92323 0
M  V30 5967 N 581.026 -0.0342702 -5.6209 0
M  V30 5968 H 573.177 -1.01288 -1.86693 0
M  V30 5969 H 575.44 -0.396138 -0.861266 0
M  V30 5970 H 575.146 -0.911277 -3.39689 0
M  V30 5971 H 575.02 0.815442 -3.6828 0
M  V30 5972 H 577.407 1.10801 -2.73509 0
M  V30 5973 H 577.488 -0.640532 -2.47651 0
M  V30 5974 H 577.132 -1.00455 -4.97867 0
M  V30 5975 H 577.062 0.760392 -5.21081 0
M  V30 5976 H 579.553 0.143202 -3.77629 0
M  V30 5977 H 579.866 -0.332949 -7.72082 0
M  V30 5978 H 578.211 -0.292487 -6.94384 0
M  V30 5979 H 581.402 0.0931605 -4.68007 0
M  V30 5980 H 581.575 -0.12374 -6.47882 0
M  V30 5981 N 574.981 1.5647 0.188427 0
M  V30 5982 C 575.931 1.91479 1.23774 0
M  V30 5983 C 576.915 0.78119 1.40664 0
M  V30 5984 O 578.107 1.04414 1.42922 0
M  V30 5985 C 575.236 2.26354 2.58106 0
M  V30 5986 C 574.322 3.46186 2.44981 0
M  V30 5987 N 574.713 4.63911 2.01546 0
M  V30 5988 C 573.011 3.50456 2.75856 0
M  V30 5989 C 573.712 5.46064 2.00472 0
M  V30 5990 N 572.688 4.86648 2.42229 0
M  V30 5991 H 576.49 2.79994 0.893339 0
M  V30 5992 H 574.004 1.57477 0.39682 0
M  V30 5993 H 576.001 2.49622 3.33908 0
M  V30 5994 H 574.661 1.39168 2.93364 0
M  V30 5995 H 575.672 4.88451 1.7215 0
M  V30 5996 H 572.349 2.73704 3.15265 0
M  V30 5997 H 573.739 6.50368 1.68734 0
M  V30 5998 N 576.459 -0.456382 1.50847 0
M  V30 5999 C 577.389 -1.56025 1.73719 0
M  V30 6000 C 578.37 -1.5967 0.586473 0
M  V30 6001 O 579.555 -1.75702 0.827185 0
M  V30 6002 C 576.685 -2.94251 1.84483 0
M  V30 6003 C 575.639 -3.05471 2.99786 0
M  V30 6004 C 574.965 -4.45489 2.95709 0
M  V30 6005 C 576.265 -2.81318 4.40065 0
M  V30 6006 H 577.959 -1.37138 2.66146 0
M  V30 6007 H 575.505 -0.658299 1.28072 0
M  V30 6008 H 577.458 -3.71417 1.99067 0
M  V30 6009 H 576.182 -3.14328 0.886891 0
M  V30 6010 H 574.841 -2.30741 2.84876 0
M  V30 6011 H 574.489 -4.62505 1.97732 0
M  V30 6012 H 574.189 -4.53929 3.73125 0
M  V30 6013 H 575.713 -5.24655 3.12362 0
M  V30 6014 H 577.127 -3.48226 4.55425 0
M  V30 6015 H 575.524 -3.01188 5.19043 0
M  V30 6016 H 576.594 -1.7706 4.51418 0
M  V30 6017 N 577.937 -1.40673 -0.710563 0
M  V30 6018 C 579.162 -1.42741 -1.50465 0
M  V30 6019 C 579.587 -0.0302116 -1.88076 0
M  V30 6020 O 578.945 0.962945 -1.53613 0
M  V30 6021 C 578.993 -2.32873 -2.75322 0
M  V30 6022 O 578.097 -1.77544 -3.72226 0
M  V30 6023 H 577.438 -0.485056 -0.45345 0
M  V30 6024 H 579.968 -1.84961 -0.874681 0
M  V30 6025 H 579.978 -2.48233 -3.23797 0
M  V30 6026 H 578.653 -3.34401 -2.47283 0
M  V30 6027 H 577.23 -1.71556 -3.31093 0
M  V30 6028 N 579.415 0.9433 -1.26252 0
M  V30 6029 C 580.645 1.72117 -1.14277 0
M  V30 6030 C 581.053 1.86726 0.304944 0
M  V30 6031 O 580.396 1.3727 1.22076 0
M  V30 6032 C 580.458 3.14778 -1.73651 0
M  V30 6033 C 580.122 3.23561 -3.22734 0
M  V30 6034 C 581.119 3.07001 -4.19579 0
M  V30 6035 C 578.804 3.47019 -3.63157 0
M  V30 6036 C 580.798 3.13763 -5.54826 0
M  V30 6037 C 578.485 3.53416 -4.98538 0
M  V30 6038 C 579.483 3.36804 -5.94182 0
M  V30 6039 O 579.171 3.42906 -7.27098 0
M  V30 6040 H 578.903 0.545781 -0.398873 0
M  V30 6041 H 581.457 1.19123 -1.67328 0
M  V30 6042 H 579.687 3.69186 -1.1506 0
M  V30 6043 H 581.376 3.74469 -1.56613 0
M  V30 6044 H 582.142 2.88736 -3.89688 0
M  V30 6045 H 578.021 3.59006 -2.89199 0
M  V30 6046 H 581.565 3.00714 -6.29458 0
M  V30 6047 H 577.462 3.71201 -5.28091 0
M  V30 6048 H 578.23 3.59463 -7.35342 0
M  V30 6049 N 580.893 1.08022 1.14757 0
M  V30 6050 C 582.141 0.805913 1.85336 0
M  V30 6051 C 582.462 -0.670162 1.83122 0
M  V30 6052 O 581.732 -1.48567 1.2769 0
M  V30 6053 H 580.312 0.295138 0.686223 0
M  V30 6054 H 582.974 1.36538 1.3908 0
M  V30 6055 H 582.07 1.14655 2.90277 0
M  V30 6056 N 582.371 -1.3172 0.865308 0
M  V30 6057 C 583.301 -2.31109 0.333302 0
M  V30 6058 C 584.282 -1.60148 -0.573301 0
M  V30 6059 O 585.467 -1.87882 -0.491305 0
M  V30 6060 C 582.597 -3.44104 -0.470078 0
M  V30 6061 C 581.551 -4.26623 0.343021 0
M  V30 6062 C 580.877 -5.31482 -0.585756 0
M  V30 6063 C 582.177 -4.98001 1.57456 0
M  V30 6064 H 583.871 -2.75855 1.1638 0
M  V30 6065 H 581.417 -1.3262 0.561069 0
M  V30 6066 H 583.37 -4.12682 -0.852752 0
M  V30 6067 H 582.094 -2.98112 -1.33404 0
M  V30 6068 H 580.753 -3.59707 0.707583 0
M  V30 6069 H 580.401 -4.81741 -1.44686 0
M  V30 6070 H 580.101 -5.87582 -0.0456494 0
M  V30 6071 H 581.625 -6.0292 -0.965375 0
M  V30 6072 H 583.039 -5.59201 1.26359 0
M  V30 6073 H 581.436 -5.63876 2.05339 0
M  V30 6074 H 582.506 -4.25253 2.32997 0
M  V30 6075 N 583.85 -0.624285 -1.44708 0
M  V30 6076 C 585.26 -0.2092 -1.85524 0
M  V30 6077 C 585.611 1.23783 -1.52225 0
M  V30 6078 O 584.736 1.94089 -0.956986 0
M  V30 6079 C 585.332 -0.372897 -3.36742 0
M  V30 6080 C 583.891 -0.012374 -3.76398 0
M  V30 6081 C 583.038 -0.68951 -2.68591 0
M  V30 6082 H 585.989 -0.829894 -1.35272 0
M  V30 6083 H 586.01 0.390134 -3.78495 0
M  V30 6084 H 585.522 -1.42615 -3.60947 0
M  V30 6085 H 583.623 1.03941 -3.57809 0
M  V30 6086 H 583.736 -0.417663 -4.77276 0
M  V30 6087 H 582.1 -0.125484 -2.54391 0
M  V30 6088 H 582.883 -1.74522 -2.9563 0
M  V30 6089 N 585.328 1.53329 -0.364422 0
M  V30 6090 C 586.238 2.29414 0.490552 0
M  V30 6091 C 587.254 1.35335 1.09363 0
M  V30 6092 O 588.43 1.68391 1.10483 0
M  V30 6093 C 585.495 3.06772 1.61529 0
M  V30 6094 C 584.556 4.16516 1.03986 0
M  V30 6095 C 583.789 4.90176 2.111 0
M  V30 6096 O 584.012 4.63687 3.32191 0
M  V30 6097 O 582.946 5.76134 1.74222 0
M  V30 6098 H 586.772 3.03428 -0.12856 0
M  V30 6099 H 584.357 1.48843 -0.128837 0
M  V30 6100 H 586.239 3.55082 2.26924 0
M  V30 6101 H 584.914 2.35596 2.21983 0
M  V30 6102 H 583.821 3.7246 0.349856 0
M  V30 6103 H 585.154 4.89855 0.4799 0
M  V30 6104 N 586.806 0.0935595 1.57322 0
M  V30 6105 C 588.053 -0.570509 1.94297 0
M  V30 6106 C 588.381 -1.68286 0.97519 0
M  V30 6107 O 587.636 -1.95699 -0.00548655 0
M  V30 6108 C 587.935 -1.16692 3.37813 0
M  V30 6109 C 587.601 -0.178509 4.50547 0
M  V30 6110 C 586.263 0.0933475 4.81109 0
M  V30 6111 C 588.615 0.496472 5.1883 0
M  V30 6112 C 585.943 1.0469 5.77284 0
M  V30 6113 C 588.295 1.43849 6.16028 0
M  V30 6114 C 586.959 1.71859 6.44997 0
M  V30 6115 H 586.229 -0.208764 0.710984 0
M  V30 6116 H 588.876 0.169066 1.90752 0
M  V30 6117 H 587.181 -1.98271 3.37929 0
M  V30 6118 H 588.878 -1.6884 3.63722 0
M  V30 6119 H 585.468 -0.400584 4.26724 0
M  V30 6120 H 589.652 0.299584 4.95395 0
M  V30 6121 H 584.908 1.27094 5.98044 0
M  V30 6122 H 589.082 1.96734 6.68034 0
M  V30 6123 H 586.709 2.45906 7.19329 0
M  V30 6124 N 588.284 -1.56567 -0.180126 0
M  V30 6125 C 589.214 -1.98753 -1.22553 0
M  V30 6126 C 590.195 -0.86175 -1.46656 0
M  V30 6127 O 591.38 -1.12719 -1.58139 0
M  V30 6128 C 588.51 -2.33988 -2.56645 0
M  V30 6129 C 587.464 -3.49445 -2.47128 0
M  V30 6130 C 586.79 -3.70397 -3.8563 0
M  V30 6131 C 588.09 -4.83171 -1.98352 0
M  V30 6132 H 589.784 -2.86332 -0.874896 0
M  V30 6133 H 587.33 -1.37757 -0.419414 0
M  V30 6134 H 589.283 -2.62097 -3.29974 0
M  V30 6135 H 588.007 -1.43309 -2.93479 0
M  V30 6136 H 586.666 -3.2145 -1.76254 0
M  V30 6137 H 586.314 -2.77023 -4.19842 0
M  V30 6138 H 586.014 -4.48077 -3.80132 0
M  V30 6139 H 587.538 -4.00897 -4.60558 0
M  V30 6140 H 588.952 -5.10213 -2.61449 0
M  V30 6141 H 587.349 -5.64425 -2.03823 0
M  V30 6142 H 588.419 -4.75753 -0.937402 0
M  V30 6143 N 589.762 0.448376 -1.51087 0
M  V30 6144 C 591.008 1.20049 -1.6345 0
M  V30 6145 C 591.341 1.91121 -0.344444 0
M  V30 6146 O 590.616 1.83125 0.655396 0
M  V30 6147 C 590.899 2.22624 -2.83038 0
M  V30 6148 C 590.752 1.55708 -4.21989 0
M  V30 6149 C 592.071 3.23718 -2.98152 0
M  V30 6150 H 589.19 0.435085 -0.59487 0
M  V30 6151 H 591.832 0.491183 -1.83541 0
M  V30 6152 H 589.982 2.83117 -2.66039 0
M  V30 6153 H 591.654 0.986367 -4.50631 0
M  V30 6154 H 589.897 0.859647 -4.25197 0
M  V30 6155 H 590.568 2.30357 -5.01637 0
M  V30 6156 H 593.044 2.73269 -3.13788 0
M  V30 6157 H 591.92 3.92795 -3.83411 0
M  V30 6158 H 592.181 3.89179 -2.09743 0
M  V30 6159 N 591.24 1.41047 0.703093 0
M  V30 6160 C 592.465 1.43537 1.49706 0
M  V30 6161 C 592.89 0.0401853 1.88057 0
M  V30 6162 O 592.248 -0.954785 1.54122 0
M  V30 6163 C 592.296 2.3433 2.74084 0
M  V30 6164 O 591.4 1.79515 3.71279 0
M  V30 6165 H 590.741 0.487454 0.450871 0
M  V30 6166 H 593.271 1.85422 0.86486 0
M  V30 6167 H 593.281 2.49947 3.22476 0
M  V30 6168 H 591.956 3.35708 2.45506 0
M  V30 6169 H 590.533 1.7331 3.30179 0
M  V30 6170 N 592.718 -0.936591 1.26751 0
M  V30 6171 C 593.966 -1.67998 1.12343 0
M  V30 6172 C 594.287 -1.92137 -0.332938 0
M  V30 6173 O 593.557 -1.52132 -1.23421 0
M  V30 6174 H 592.137 -0.622609 0.412756 0
M  V30 6175 H 594.799 -1.12509 1.59147 0
M  V30 6176 H 593.895 -2.65185 1.64571 0
M  V30 6177 N 594.196 -1.08629 -1.14182 0
M  V30 6178 C 595.473 -0.73002 -1.81466 0
M  V30 6179 C 595.853 0.785996 -1.95922 0
M  V30 6180 O 595.201 1.70535 -1.52086 0
M  V30 6181 C 595.411 -1.45957 -3.17014 0
M  V30 6182 C 596.759 -1.62008 -3.92477 0
M  V30 6183 O 597.783 -1.42141 -3.26611 0
M  V30 6184 O 596.642 -1.94806 -5.106 0
M  V30 6185 H 593.736 -0.261307 -0.784632 0
M  V30 6186 H 596.282 -1.188 -1.2118 0
M  V30 6187 H 595.054 -2.49221 -3.01669 0
M  V30 6188 H 594.677 -0.993222 -3.84995 0
M  V30 6189 N 595.674 1.31259 -0.872281 0
M  V30 6190 C 597.085 1.78822 -0.536617 0
M  V30 6191 C 597.436 1.71855 0.946594 0
M  V30 6192 O 596.561 1.28769 1.73918 0
M  V30 6193 C 597.156 3.24698 -0.967294 0
M  V30 6194 C 595.715 3.70147 -0.683251 0
M  V30 6195 C 594.862 2.51994 -1.15733 0
M  V30 6196 H 597.813 1.18308 -1.05777 0
M  V30 6197 H 597.834 3.79386 -0.290929 0
M  V30 6198 H 597.346 3.29737 -2.04683 0
M  V30 6199 H 595.447 3.70607 0.384825 0
M  V30 6200 H 595.56 4.62183 -1.2619 0
M  V30 6201 H 593.924 2.48078 -0.577024 0
M  V30 6202 H 594.707 2.59778 -2.24434 0
M  V30 6203 N 597.152 0.631951 1.44375 0
M  V30 6204 C 598.4 0.136497 2.01639 0
M  V30 6205 C 598.721 -1.24637 1.49969 0
M  V30 6206 O 597.991 -1.82827 0.70363 0
M  V30 6207 H 596.571 0.0474703 0.74549 0
M  V30 6208 H 599.233 0.818837 1.76865 0
M  V30 6209 H 598.329 0.104817 3.11924 0
M  V30 6210 N 598.631 -1.53133 0.372548 0
M  V30 6211 C 599.561 -2.28876 -0.462412 0
M  V30 6212 C 600.542 -1.31583 -1.07796 0
M  V30 6213 O 601.727 -1.60461 -1.09389 0
M  V30 6214 C 598.857 -3.08317 -1.59868 0
M  V30 6215 C 597.811 -4.13355 -1.11003 0
M  V30 6216 C 597.137 -4.8092 -2.33708 0
M  V30 6217 C 598.437 -5.21955 -0.18983 0
M  V30 6218 H 600.131 -2.9892 0.169511 0
M  V30 6219 H 597.677 -1.43761 0.0829658 0
M  V30 6220 H 599.63 -3.60055 -2.18949 0
M  V30 6221 H 598.354 -2.35976 -2.25794 0
M  V30 6222 H 597.013 -3.62573 -0.541869 0
M  V30 6223 H 596.661 -4.05144 -2.98106 0
M  V30 6224 H 596.361 -5.51904 -2.01682 0
M  V30 6225 H 597.885 -5.35455 -2.93462 0
M  V30 6226 H 599.299 -5.69153 -0.688319 0
M  V30 6227 H 597.696 -6.00087 0.0398887 0
M  V30 6228 H 598.766 -4.78811 0.766057 0
M  V30 6229 N 600.109 -0.101901 -1.5727 0
M  V30 6230 C 601.059 0.865346 -2.1094 0
M  V30 6231 C 602.043 1.2394 -1.02605 0
M  V30 6232 O 603.235 1.21334 -1.28868 0
M  V30 6233 C 600.364 2.12187 -2.69874 0
M  V30 6234 C 599.45 1.77295 -3.85263 0
M  V30 6235 N 599.841 1.12993 -4.93017 0
M  V30 6236 C 598.139 2.06862 -3.95126 0
M  V30 6237 C 598.84 0.968631 -5.73579 0
M  V30 6238 N 597.816 1.48814 -5.22834 0
M  V30 6239 H 601.618 0.364368 -2.91633 0
M  V30 6240 H 599.132 0.101104 -1.62085 0
M  V30 6241 H 601.129 2.82431 -3.06657 0
M  V30 6242 H 599.789 2.62844 -1.90639 0
M  V30 6243 H 600.8 0.795935 -5.11747 0
M  V30 6244 H 597.477 2.59686 -3.26909 0
M  V30 6245 H 598.867 0.465231 -6.70287 0
M  V30 6246 N 601.587 1.56661 0.17182 0
M  V30 6247 C 602.812 1.86459 0.908165 0
M  V30 6248 C 603.237 0.688181 1.75059 0
M  V30 6249 O 602.595 -0.362753 1.77634 0
M  V30 6250 C 602.643 3.14669 1.76112 0
M  V30 6251 O 601.747 2.96858 2.86268 0
M  V30 6252 H 601.088 0.613318 0.254434 0
M  V30 6253 H 603.618 2.03892 0.170113 0
M  V30 6254 H 603.628 3.46061 2.16115 0
M  V30 6255 H 602.303 3.99905 1.14233 0
M  V30 6256 H 600.88 2.76819 2.49852 0
M  V30 6257 N 603.065 -0.440357 1.51323 0
M  V30 6258 C 604.313 -1.18769 1.63518 0
M  V30 6259 C 604.634 -1.91793 0.352201 0
M  V30 6260 O 603.904 -1.85432 -0.631811 0
M  V30 6261 H 602.484 -0.441408 0.602634 0
M  V30 6262 H 605.146 -0.505162 1.8824 0
M  V30 6263 H 604.242 -1.91892 2.46138 0
M  V30 6264 N 604.543 -1.41418 -0.695603 0
M  V30 6265 C 605.79 -1.40774 -1.45564 0
M  V30 6266 C 606.118 -0.0168604 -1.94493 0
M  V30 6267 O 605.373 0.971259 -1.69897 0
M  V30 6268 C 605.672 -2.36112 -2.68302 0
M  V30 6269 C 605.338 -3.82952 -2.38031 0
M  V30 6270 C 604 -4.22954 -2.29486 0
M  V30 6271 C 606.352 -4.75662 -2.13061 0
M  V30 6272 C 603.68 -5.53674 -1.94067 0
M  V30 6273 C 606.032 -6.06702 -1.79151 0
M  V30 6274 C 604.696 -6.45725 -1.69102 0
M  V30 6275 H 603.966 -0.515128 -0.532658 0
M  V30 6276 H 606.613 -1.74216 -0.795047 0
M  V30 6277 H 604.918 -1.95924 -3.39295 0
M  V30 6278 H 606.615 -2.32887 -3.26442 0
M  V30 6279 H 603.205 -3.5127 -2.45576 0
M  V30 6280 H 607.389 -4.45561 -2.18608 0
M  V30 6281 H 602.645 -5.8279 -1.8484 0
M  V30 6282 H 606.819 -6.78041 -1.5885 0
M  V30 6283 H 604.446 -7.46929 -1.41426 0
M  V30 6284 N 606.021 0.929856 -1.27246 0
M  V30 6285 C 606.984 2.01172 -1.09829 0
M  V30 6286 C 607.984 1.60743 -0.0429687 0
M  V30 6287 O 609.174 1.71813 -0.287373 0
M  V30 6288 C 606.306 3.34191 -0.673003 0
M  V30 6289 H 607.499 2.18054 -2.05895 0
M  V30 6290 H 605.052 1.11036 -1.10003 0
M  V30 6291 H 605.787 3.23009 0.289134 0
M  V30 6292 H 605.572 3.64892 -1.43515 0
M  V30 6293 H 607.062 4.13646 -0.573323 0
M  V30 6294 N 607.499 1.09233 1.13605 0
M  V30 6295 C 608.747 0.825525 1.84471 0
M  V30 6296 C 609.068 -0.650702 1.83823 0
M  V30 6297 O 608.338 -1.47204 1.29259 0
M  V30 6298 H 606.918 0.3024 0.683054 0
M  V30 6299 H 609.58 1.38006 1.37624 0
M  V30 6300 H 608.676 1.17727 2.89045 0
M  V30 6301 N 608.977 -1.30795 0.87923 0
M  V30 6302 C 609.94 -2.26563 0.346676 0
M  V30 6303 C 610.94 -1.52578 -0.507597 0
M  V30 6304 O 612.13 -1.71318 -0.315575 0
M  V30 6305 C 609.262 -3.37115 -0.506611 0
M  V30 6306 H 610.455 -2.75183 1.19223 0
M  V30 6307 H 608.008 -1.41886 0.655598 0
M  V30 6308 H 608.743 -2.93802 -1.37299 0
M  V30 6309 H 608.528 -3.91959 0.105218 0
M  V30 6310 H 610.018 -4.08412 -0.871192 0
M  V30 6311 N 610.455 -0.639598 -1.44038 0
M  V30 6312 C 611.387 0.0987684 -2.28987 0
M  V30 6313 C 612.4 0.80058 -1.41755 0
M  V30 6314 O 613.589 0.660611 -1.65826 0
M  V30 6315 C 610.689 1.16242 -3.18341 0
M  V30 6316 C 609.862 0.541447 -4.34036 0
M  V30 6317 C 608.921 1.50017 -5.04362 0
M  V30 6318 O 607.947 1.01403 -5.60095 0
M  V30 6319 N 609.149 2.83441 -5.06598 0
M  V30 6320 H 611.914 -0.630305 -2.92997 0
M  V30 6321 H 609.475 -0.481376 -1.54578 0
M  V30 6322 H 611.467 1.80429 -3.62253 0
M  V30 6323 H 610.037 1.79362 -2.56024 0
M  V30 6324 H 609.257 -0.27923 -3.9321 0
M  V30 6325 H 610.545 0.107379 -5.08687 0
M  V30 6326 H 609.943 3.2551 -4.62666 0
M  V30 6327 H 608.5 3.42966 -5.54272 0
M  V30 6328 N 611.933 1.52934 -0.380664 0
M  V30 6329 C 613.163 2.05587 0.204302 0
M  V30 6330 C 613.571 1.25288 1.41773 0
M  V30 6331 O 612.914 0.290394 1.8139 0
M  V30 6332 C 612.976 3.53624 0.647324 0
M  V30 6333 C 612.64 4.54765 -0.451465 0
M  V30 6334 C 613.637 5.03226 -1.30614 0
M  V30 6335 C 611.322 4.98508 -0.616025 0
M  V30 6336 C 613.316 5.94046 -2.31058 0
M  V30 6337 C 611.003 5.89131 -1.62381 0
M  V30 6338 C 612.001 6.36792 -2.46952 0
M  V30 6339 O 611.689 7.25626 -3.46009 0
M  V30 6340 H 611.421 0.675013 0.0365198 0
M  V30 6341 H 613.975 1.98125 -0.541827 0
M  V30 6342 H 612.205 3.58676 1.44529 0
M  V30 6343 H 613.894 3.89061 1.15698 0
M  V30 6344 H 614.66 4.70167 -1.19027 0
M  V30 6345 H 610.539 4.60989 0.0324987 0
M  V30 6346 H 614.083 6.3117 -2.97104 0
M  V30 6347 H 609.98 6.21603 -1.7401 0
M  V30 6348 H 610.748 7.43664 -3.41916 0
M  V30 6349 N 613.412 0.11024 1.57214 0
M  V30 6350 C 614.823 -0.416527 1.81994 0
M  V30 6351 C 615.174 -1.67183 1.02686 0
M  V30 6352 O 614.299 -2.14823 0.260782 0
M  V30 6353 C 614.894 -0.762466 3.30109 0
M  V30 6354 C 613.453 -1.23391 3.556 0
M  V30 6355 C 612.6 -0.238166 2.76275 0
M  V30 6356 H 615.551 0.335491 1.55113 0
M  V30 6357 H 615.572 -1.62068 3.44259 0
M  V30 6358 H 615.084 0.151346 3.87805 0
M  V30 6359 H 613.185 -2.16492 3.03253 0
M  V30 6360 H 613.298 -1.18528 4.64207 0
M  V30 6361 H 611.662 -0.723421 2.4421 0
M  V30 6362 H 612.445 0.668591 3.36727 0
M  V30 6363 N 614.89 -1.56749 -0.16351 0
M  V30 6364 C 615.853 -1.96121 -1.18613 0
M  V30 6365 C 616.853 -0.845765 -1.36761 0
M  V30 6366 O 618.043 -1.11268 -1.34033 0
M  V30 6367 C 615.175 -2.26282 -2.54969 0
M  V30 6368 H 616.368 -2.87639 -0.848764 0
M  V30 6369 H 613.921 -1.50928 -0.406251 0
M  V30 6370 H 614.656 -1.37504 -2.93706 0
M  V30 6371 H 614.441 -3.07595 -2.43162 0
M  V30 6372 H 615.931 -2.57638 -3.28653 0
M  V30 6373 N 616.368 0.432326 -1.51554 0
M  V30 6374 C 617.596 1.20364 -1.68286 0
M  V30 6375 C 618.011 1.84888 -0.38233 0
M  V30 6376 O 617.368 1.70924 0.639627 0
M  V30 6377 C 617.419 2.28398 -2.80208 0
M  V30 6378 O 617.14 1.66512 -4.05223 0
M  V30 6379 C 618.641 3.18584 -3.08251 0
M  V30 6380 H 615.861 0.36259 -0.564596 0
M  V30 6381 H 618.405 0.511647 -1.97996 0
M  V30 6382 H 616.56 2.93305 -2.53083 0
M  V30 6383 H 616.974 2.37951 -4.67418 0
M  V30 6384 H 618.448 3.90511 -3.90135 0
M  V30 6385 H 618.925 3.79628 -2.2086 0
M  V30 6386 H 619.531 2.59372 -3.37055 0
M  V30 6387 N 617.846 1.41785 0.688094 0
M  V30 6388 C 618.809 1.43936 1.78368 0
M  V30 6389 C 619.809 0.328866 1.57401 0
M  V30 6390 O 620.999 0.589093 1.63937 0
M  V30 6391 C 618.131 1.25804 3.16838 0
M  V30 6392 H 619.324 2.41472 1.77852 0
M  V30 6393 H 616.877 1.28037 0.896448 0
M  V30 6394 H 617.612 0.291386 3.22988 0
M  V30 6395 H 617.397 2.06272 3.33458 0
M  V30 6396 H 618.887 1.30162 3.96797 0
M  V30 6397 N 619.324 -0.923095 1.27737 0
M  V30 6398 C 620.254 -2.04124 1.13383 0
M  V30 6399 C 621.235 -1.70066 0.0340658 0
M  V30 6400 O 622.42 -1.93068 0.209383 0
M  V30 6401 C 619.55 -3.3831 0.785097 0
M  V30 6402 C 618.504 -3.86496 1.8386 0
M  V30 6403 C 617.83 -5.1754 1.34373 0
M  V30 6404 C 619.13 -4.09381 3.24353 0
M  V30 6405 H 620.824 -2.1639 2.06919 0
M  V30 6406 H 618.37 -1.03976 0.996243 0
M  V30 6407 H 620.323 -4.16016 0.671485 0
M  V30 6408 H 619.047 -3.2607 -0.185969 0
M  V30 6409 H 617.706 -3.10987 1.9412 0
M  V30 6410 H 617.354 -5.01696 0.361989 0
M  V30 6411 H 617.054 -5.50751 2.04811 0
M  V30 6412 H 618.578 -5.97811 1.24315 0
M  V30 6413 H 619.992 -4.77641 3.17067 0
M  V30 6414 H 618.389 -4.53906 3.92542 0
M  V30 6415 H 619.459 -3.14515 3.69064 0
M  V30 6416 N 620.802 -1.09834 -1.13024 0
M  V30 6417 C 622.048 -0.83819 -1.84668 0
M  V30 6418 C 622.381 0.634645 -1.83537 0
M  V30 6419 O 621.656 1.46753 -1.27647 0
M  V30 6420 C 621.939 -1.37933 -3.32636 0
M  V30 6421 C 621.792 -2.91857 -3.42257 0
M  V30 6422 C 623.111 -1.01654 -4.28199 0
M  V30 6423 H 620.23 -0.30595 -0.670495 0
M  V30 6424 H 622.872 -1.36044 -1.32635 0
M  V30 6425 H 621.022 -0.935111 -3.77078 0
M  V30 6426 H 622.694 -3.44759 -3.06495 0
M  V30 6427 H 620.937 -3.28776 -2.83 0
M  V30 6428 H 621.608 -3.24799 -4.46329 0
M  V30 6429 H 624.084 -1.39973 -3.9185 0
M  V30 6430 H 622.96 -1.42217 -5.30156 0
M  V30 6431 H 623.221 0.0747794 -4.42037 0
M  V30 6432 N 622.28 1.30327 -0.886154 0
M  V30 6433 C 623.243 2.26376 -0.358687 0
M  V30 6434 C 624.243 1.52845 0.499498 0
M  V30 6435 O 625.433 1.71483 0.306485 0
M  V30 6436 C 622.565 3.37379 0.488726 0
M  V30 6437 H 623.758 2.74547 -1.20681 0
M  V30 6438 H 621.311 1.41536 -0.663113 0
M  V30 6439 H 622.046 2.94526 1.35739 0
M  V30 6440 H 621.831 3.91897 -0.126003 0
M  V30 6441 H 623.321 4.08868 0.84952 0
M  V30 6442 N 623.758 0.647228 1.43697 0
M  V30 6443 C 624.668 -0.0487997 2.34549 0
M  V30 6444 C 625.684 -0.818586 1.53542 0
M  V30 6445 O 626.86 -0.767195 1.86215 0
M  V30 6446 C 623.925 -1.00734 3.31743 0
M  V30 6447 C 622.986 -0.23515 4.28655 0
M  V30 6448 C 622.219 -1.14803 5.21206 0
M  V30 6449 O 622.442 -2.38717 5.18045 0
M  V30 6450 O 621.376 -0.623667 5.9866 0
M  V30 6451 H 625.202 0.698863 2.9555 0
M  V30 6452 H 622.787 0.407412 1.43738 0
M  V30 6453 H 624.669 -1.55837 3.91526 0
M  V30 6454 H 623.344 -1.73534 2.73254 0
M  V30 6455 H 622.251 0.359319 3.7237 0
M  V30 6456 H 623.584 0.453152 4.9011 0
M  V30 6457 N 625.236 -1.5273 0.388769 0
M  V30 6458 C 626.184 -2.27975 -0.461527 0
M  V30 6459 C 627.178 -1.31854 -1.06352 0
M  V30 6460 O 628.384 -1.49394 -1.00406 0
M  V30 6461 H 624.759 -0.733088 -0.16759 0
M  V30 6462 H 626.73 -2.97765 0.194579 0
M  V30 6463 C 625.479 -3.09881 -1.577 0
M  V30 6464 H 624.802 -3.83701 -1.12309 0
M  V30 6465 H 626.242 -3.6567 -2.14619 0
M  V30 6466 C 624.701 -2.22159 -2.53272 0
M  V30 6467 O 625.231 -1.84802 -3.56667 0
M  V30 6468 N 623.437 -1.8633 -2.23001 0
M  V30 6469 H 622.984 -2.16909 -1.38954 0
M  V30 6470 H 622.942 -1.27927 -2.87197 0
M  V30 6471 N 626.714 -0.118576 -1.57153 0
M  V30 6472 C 628.13 0.238014 -1.57815 0
M  V30 6473 C 628.33 1.66747 -1.13127 0
M  V30 6474 O 627.386 2.38867 -0.818462 0
M  V30 6475 C 628.699 0.00508207 -3.007 0
M  V30 6476 C 630.247 0.0710139 -3.12919 0
M  V30 6477 C 630.722 -0.13422 -4.57803 0
M  V30 6478 N 632.213 -0.0801755 -4.63131 0
M  V30 6479 C 632.948 -0.213885 -5.73001 0
M  V30 6480 N 632.444 -0.403742 -6.91623 0
M  V30 6481 N 634.237 -0.15349 -5.6189 0
M  V30 6482 H 626.388 -1.05226 -1.84503 0
M  V30 6483 H 628.651 -0.414318 -0.852669 0
M  V30 6484 H 628.357 -0.983125 -3.3768 0
M  V30 6485 H 628.231 0.73714 -3.69927 0
M  V30 6486 H 630.618 1.04975 -2.75798 0
M  V30 6487 H 630.699 -0.692918 -2.46236 0
M  V30 6488 H 630.343 -1.10992 -4.95624 0
M  V30 6489 H 630.273 0.649692 -5.22577 0
M  V30 6490 H 632.764 0.0630689 -3.77847 0
M  V30 6491 H 633.077 -0.496645 -7.71202 0
M  V30 6492 H 631.422 -0.43971 -6.93608 0
M  V30 6493 H 634.613 -0.00613174 -4.681 0
M  V30 6494 H 634.786 -0.261138 -6.47474 0
M  V30 6495 N 628.193 1.56834 0.155195 0
M  V30 6496 C 629.421 1.87049 0.884326 0
M  V30 6497 C 629.836 0.705839 1.7511 0
M  V30 6498 O 629.193 -0.324641 1.79589 0
M  V30 6499 C 629.244 3.1644 1.74781 0
M  V30 6500 O 628.965 4.28417 0.915978 0
M  V30 6501 C 630.466 3.60113 2.58522 0
M  V30 6502 H 627.686 0.620196 0.25612 0
M  V30 6503 H 630.23 2.03946 0.150445 0
M  V30 6504 H 628.385 3.01321 2.43484 0
M  V30 6505 H 628.799 5.02353 1.50803 0
M  V30 6506 H 630.273 4.53508 3.14698 0
M  V30 6507 H 630.75 2.85005 3.34169 0
M  V30 6508 H 631.356 3.77898 1.95124 0
M  V30 6509 N 629.671 -0.424282 1.51781 0
M  V30 6510 C 630.92 -1.16961 1.64326 0
M  V30 6511 C 631.233 -1.92035 0.371749 0
M  V30 6512 O 632.439 -2.68873 0.37676 0
M  V30 6513 C 630.895 -2.12782 2.90262 0
M  V30 6514 C 630.503 -1.43295 4.24465 0
M  V30 6515 C 632.247 -2.87667 3.12166 0
M  V30 6516 C 630.154 -2.37676 5.41538 0
M  V30 6517 H 629.084 -0.440293 0.612093 0
M  V30 6518 H 631.735 -0.435431 1.78259 0
M  V30 6519 H 630.117 -2.8969 2.69992 0
M  V30 6520 H 631.291 -0.718564 4.55163 0
M  V30 6521 H 629.606 -0.805118 4.08542 0
M  V30 6522 H 632.203 -3.58395 3.96808 0
M  V30 6523 H 632.546 -3.49758 2.25776 0
M  V30 6524 H 633.079 -2.17863 3.32837 0
M  V30 6525 H 629.818 -1.80255 6.30229 0
M  V30 6526 H 629.338 -3.07132 5.15199 0
M  V30 6527 H 631.017 -2.98529 5.74012 0
M  V30 6528 N 631.149 -1.42148 -0.680565 0
M  V30 6529 C 632.397 -1.42029 -1.43779 0
M  V30 6530 C 632.718 -0.0356347 -1.94967 0
M  V30 6531 O 631.988 0.924936 -1.7269 0
M  V30 6532 H 630.568 -0.522835 -0.533529 0
M  V30 6533 H 633.23 -1.7752 -0.804538 0
M  V30 6534 H 632.326 -2.11658 -2.29363 0
M  V30 6535 N 632.627 0.916307 -1.28225 0
M  V30 6536 C 634.038 1.48024 -1.13779 0
M  V30 6537 C 634.389 1.94289 0.273139 0
M  V30 6538 O 633.514 1.82226 1.16716 0
M  V30 6539 C 634.109 2.69029 -2.05935 0
M  V30 6540 C 632.668 3.2161 -1.95561 0
M  V30 6541 C 631.815 1.94321 -1.97825 0
M  V30 6542 H 634.766 0.729272 -1.40951 0
M  V30 6543 H 634.787 3.44204 -1.62184 0
M  V30 6544 H 634.299 2.35325 -3.08616 0
M  V30 6545 H 632.4 3.60045 -0.959076 0
M  V30 6546 H 632.513 3.87032 -2.82388 0
M  V30 6547 H 630.877 2.1131 -1.42198 0
M  V30 6548 H 631.66 1.62917 -3.0218 0
M  V30 6549 N 634.105 1.10431 1.1244 0
M  V30 6550 C 635.068 0.756542 2.16354 0
M  V30 6551 C 636.068 -0.21899 1.59302 0
M  V30 6552 O 637.258 0.00415969 1.742 0
M  V30 6553 C 634.39 0.120612 3.40687 0
M  V30 6554 H 635.583 1.67696 2.48632 0
M  V30 6555 H 633.136 0.904832 1.27446 0
M  V30 6556 H 633.871 -0.810536 3.14008 0
M  V30 6557 H 633.656 0.822693 3.83372 0
M  V30 6558 H 635.146 -0.106945 4.17463 0
M  V30 6559 N 635.583 -1.29855 0.893053 0
M  V30 6560 C 636.808 -2.00512 0.530066 0
M  V30 6561 C 637.233 -1.66446 -0.876199 0
M  V30 6562 O 636.591 -0.885446 -1.58207 0
M  V30 6563 C 636.639 -3.53308 0.721505 0
M  V30 6564 O 635.743 -4.11764 -0.228994 0
M  V30 6565 H 635.084 -0.630617 0.207891 0
M  V30 6566 H 637.614 -1.6551 1.20282 0
M  V30 6567 H 637.624 -4.03206 0.623599 0
M  V30 6568 H 636.299 -3.77439 1.74678 0
M  V30 6569 H 634.876 -3.72805 -0.0841034 0
M  V30 6570 N 637.061 -0.65484 -1.43351 0
M  V30 6571 C 638.289 -0.176685 -2.06144 0
M  V30 6572 C 638.704 1.15831 -1.49093 0
M  V30 6573 O 638.061 1.71542 -0.622868 0
M  V30 6574 C 638.112 -0.0813326 -3.61408 0
M  V30 6575 O 637.833 -1.36355 -4.1634 0
M  V30 6576 C 639.334 0.422706 -4.4128 0
M  V30 6577 H 636.554 -0.0906429 -0.66485 0
M  V30 6578 H 639.098 -0.895945 -1.83829 0
M  V30 6579 H 637.253 0.588496 -3.82904 0
M  V30 6580 H 637.667 -1.22381 -5.10023 0
M  V30 6581 H 639.141 0.438375 -5.50257 0
M  V30 6582 H 639.618 1.45432 -4.14423 0
M  V30 6583 H 640.224 -0.214687 -4.24758 0
M  V30 6584 N 638.539 1.52521 -0.396863 0
M  V30 6585 C 639.471 2.24333 0.469814 0
M  V30 6586 C 640.484 1.2685 1.02043 0
M  V30 6587 O 641.673 1.52876 0.92147 0
M  V30 6588 C 638.773 2.95202 1.66461 0
M  V30 6589 C 637.946 4.19454 1.24003 0
M  V30 6590 C 637.005 4.73255 2.30036 0
M  V30 6591 O 636.031 5.36151 1.91131 0
M  V30 6592 N 637.233 4.53765 3.62047 0
M  V30 6593 H 639.998 2.99347 -0.145468 0
M  V30 6594 H 637.559 1.60348 -0.223606 0
M  V30 6595 H 639.551 3.28092 2.36934 0
M  V30 6596 H 638.121 2.2345 2.18607 0
M  V30 6597 H 637.341 3.92517 0.363892 0
M  V30 6598 H 638.629 5.0017 0.933135 0
M  V30 6599 H 638.027 4.03576 3.96412 0
M  V30 6600 H 636.584 4.91124 4.28533 0
M  V30 6601 N 640.017 0.126909 1.57088 0
M  V30 6602 C 641.242 -0.53997 2.00248 0
M  V30 6603 C 641.667 -1.58927 1.00618 0
M  V30 6604 O 641.025 -1.81288 -0.0210131 0
M  V30 6605 C 641.073 -1.13565 3.4225 0
M  V30 6606 O 640.177 -2.25103 3.45547 0
M  V30 6607 H 639.518 -0.13412 0.650314 0
M  V30 6608 H 642.048 0.217718 2.03438 0
M  V30 6609 H 642.058 -1.46925 3.80627 0
M  V30 6610 H 640.733 -0.367122 4.14277 0
M  V30 6611 H 639.31 -1.93123 3.18995 0
M  V30 6612 N 641.495 -1.56914 -0.146875 0
M  V30 6613 C 642.741 -1.83628 -0.860741 0
M  V30 6614 C 643.074 -0.708528 -1.80813 0
M  V30 6615 O 642.349 0.287838 -1.92358 0
M  V30 6616 C 642.632 -3.20836 -1.63511 0
M  V30 6617 C 642.485 -4.44174 -0.709199 0
M  V30 6618 C 643.804 -3.55268 -2.59756 0
M  V30 6619 H 640.923 -0.667949 -0.311468 0
M  V30 6620 H 643.565 -1.89582 -0.125936 0
M  V30 6621 H 641.715 -3.15891 -2.26153 0
M  V30 6622 H 643.387 -4.61205 -0.0937781 0
M  V30 6623 H 641.63 -4.33796 -0.0187856 0
M  V30 6624 H 642.301 -5.36785 -1.28707 0
M  V30 6625 H 644.777 -3.60824 -2.07232 0
M  V30 6626 H 643.653 -4.52303 -3.10987 0
M  V30 6627 H 643.914 -2.81231 -3.41118 0
M  V30 6628 N 642.974 0.416227 -1.52004 0
M  V30 6629 C 644.385 0.995319 -1.57957 0
M  V30 6630 C 644.736 1.91744 -0.415754 0
M  V30 6631 O 643.861 2.11349 0.464808 0
M  V30 6632 C 644.456 1.81191 -2.86278 0
M  V30 6633 C 643.015 2.34115 -2.94732 0
M  V30 6634 C 642.162 1.139 -2.52828 0
M  V30 6635 H 645.113 0.196716 -1.57476 0
M  V30 6636 H 645.134 2.66859 -2.71231 0
M  V30 6637 H 644.646 1.14051 -3.70963 0
M  V30 6638 H 642.747 3.04647 -2.14525 0
M  V30 6639 H 642.86 2.65466 -3.98829 0
M  V30 6640 H 641.224 1.49081 -2.06511 0
M  V30 6641 H 642.007 0.483383 -3.3988 0
M  V30 6642 N 644.452 1.42507 0.673017 0
M  V30 6643 C 645.677 1.4668 1.46627 0
M  V30 6644 C 646.102 0.080066 1.8793 0
M  V30 6645 O 645.46 -0.921879 1.56112 0
M  V30 6646 C 645.508 2.40091 2.69051 0
M  V30 6647 O 644.612 1.8735 3.67387 0
M  V30 6648 H 643.953 0.496908 0.44043 0
M  V30 6649 H 646.483 1.87215 0.825334 0
M  V30 6650 H 646.493 2.56731 3.17101 0
M  V30 6651 H 645.168 3.4084 2.3833 0
M  V30 6652 H 643.745 1.80274 3.26429 0
M  V30 6653 N 645.93 -0.909495 1.28709 0
M  V30 6654 C 646.878 -2.03381 1.12866 0
M  V30 6655 C 647.872 -1.69335 0.0468074 0
M  V30 6656 O 649.078 -1.78819 0.205891 0
M  V30 6657 H 645.453 -0.666452 0.348348 0
M  V30 6658 H 647.424 -2.13885 2.08077 0
M  V30 6659 C 646.173 -3.38092 0.811742 0
M  V30 6660 H 645.496 -3.64786 1.63619 0
M  V30 6661 H 646.936 -4.17477 0.740869 0
M  V30 6662 C 645.395 -3.33395 -0.484679 0
M  V30 6663 O 645.925 -3.72089 -1.5137 0
M  V30 6664 N 644.131 -2.86491 -0.486961 0
M  V30 6665 H 643.678 -2.55199 0.350877 0
M  V30 6666 H 643.636 -2.83731 -1.3544 0
M  V30 6667 N 647.408 -1.11026 -1.11852 0
M  V30 6668 C 648.656 -0.854769 -1.83134 0
M  V30 6669 C 648.977 0.621375 -1.84835 0
M  V30 6670 O 648.247 1.45129 -1.31584 0
M  V30 6671 H 646.827 -0.313229 -0.678157 0
M  V30 6672 H 649.489 -1.40178 -1.35411 0
M  V30 6673 H 648.585 -1.22311 -2.87135 0
M  V30 6674 N 648.886 1.2938 -0.899927 0
M  V30 6675 C 650.163 1.9046 -0.445443 0
M  V30 6676 C 650.543 1.81683 1.07492 0
M  V30 6677 O 649.891 1.24371 1.91688 0
M  V30 6678 C 650.101 3.35529 -0.960279 0
M  V30 6679 C 651.449 4.12556 -1.00412 0
M  V30 6680 O 652.473 3.44434 -0.907965 0
M  V30 6681 O 651.332 5.34294 -1.14857 0
M  V30 6682 H 648.426 0.815253 -0.138893 0
M  V30 6683 H 650.972 1.37844 -0.989808 0
M  V30 6684 H 649.744 3.36074 -2.00425 0
M  V30 6685 H 649.367 3.95624 -0.395939 0
M  V30 6686 N 650.364 0.662433 1.43002 0
M  V30 6687 C 651.312 -0.035345 2.32573 0
M  V30 6688 C 652.306 -0.803505 1.49131 0
M  V30 6689 O 653.512 -0.712865 1.65282 0
M  V30 6690 H 649.887 -0.0302194 0.751393 0
M  V30 6691 H 651.858 0.737686 2.89138 0
M  V30 6692 C 650.607 -0.981575 3.33557 0
M  V30 6693 H 649.93 -0.399914 3.97795 0
M  V30 6694 H 651.37 -1.43873 3.98844 0
M  V30 6695 C 649.829 -2.08204 2.64863 0
M  V30 6696 O 650.359 -3.16698 2.47113 0
M  V30 6697 N 648.565 -1.85022 2.24088 0
M  V30 6698 H 648.112 -0.967909 2.38724 0
M  V30 6699 H 648.07 -2.58845 1.78457 0
M  V30 6700 N 651.842 -1.52309 0.404946 0
M  V30 6701 C 652.774 -2.24579 -0.45791 0
M  V30 6702 C 653.787 -1.2739 -1.01369 0
M  V30 6703 O 654.976 -1.53363 -0.91335 0
M  V30 6704 C 652.076 -2.9608 -1.64893 0
M  V30 6705 C 651.249 -4.20106 -1.21777 0
M  V30 6706 C 650.308 -4.74468 -2.27523 0
M  V30 6707 O 649.334 -5.37157 -1.88285 0
M  V30 6708 N 650.536 -4.55678 -3.59635 0
M  V30 6709 H 653.301 -2.99265 0.161341 0
M  V30 6710 H 650.862 -1.60228 0.232107 0
M  V30 6711 H 652.854 -3.29344 -2.35191 0
M  V30 6712 H 651.424 -2.24606 -2.17419 0
M  V30 6713 H 650.644 -3.92704 -0.343071 0
M  V30 6714 H 651.932 -5.00658 -0.906596 0
M  V30 6715 H 651.33 -4.05673 -3.94266 0
M  V30 6716 H 649.887 -4.9339 -4.25922 0
M  V30 6717 N 653.32 -0.135238 -1.57019 0
M  V30 6718 C 654.597 0.563227 -1.87316 0
M  V30 6719 C 654.977 1.83749 -1.03921 0
M  V30 6720 O 654.325 2.2817 -0.122675 0
M  V30 6721 C 654.535 0.840031 -3.3874 0
M  V30 6722 C 655.883 1.18598 -4.077 0
M  V30 6723 O 656.907 0.92977 -3.43851 0
M  V30 6724 O 655.766 1.66758 -5.20436 0
M  V30 6725 H 652.86 0.285971 -0.775983 0
M  V30 6726 H 655.406 -0.170965 -1.68837 0
M  V30 6727 H 654.178 -0.0622785 -3.9125 0
M  V30 6728 H 653.801 1.62882 -3.62706 0
M  V30 6729 N 654.798 1.5699 0.138552 0
M  V30 6730 C 656.044 1.84081 0.85099 0
M  V30 6731 C 656.377 0.718107 1.80435 0
M  V30 6732 O 655.652 -0.277633 1.92508 0
M  V30 6733 C 655.935 3.21699 1.61808 0
M  V30 6734 C 655.788 4.44544 0.685633 0
M  V30 6735 C 657.107 3.5664 2.57868 0
M  V30 6736 H 654.226 0.669592 0.307922 0
M  V30 6737 H 656.868 1.89646 0.11588 0
M  V30 6738 H 655.018 3.17086 2.24474 0
M  V30 6739 H 656.69 4.61248 0.0693179 0
M  V30 6740 H 654.933 4.338 -0.00421993 0
M  V30 6741 H 655.604 5.3746 1.25858 0
M  V30 6742 H 658.08 3.61918 2.05316 0
M  V30 6743 H 656.956 4.53946 3.08584 0
M  V30 6744 H 657.217 2.83036 3.39622 0
M  V30 6745 N 656.276 -0.40816 1.52223 0
M  V30 6746 C 657.522 -1.15673 1.66576 0
M  V30 6747 C 657.855 -1.90141 0.394996 0
M  V30 6748 O 657.13 -1.84798 -0.606613 0
M  V30 6749 C 657.413 -2.15042 2.88841 0
M  V30 6750 C 657.266 -1.44465 4.25969 0
M  V30 6751 C 658.585 -3.15699 3.0663 0
M  V30 6752 H 655.704 -0.41916 0.606196 0
M  V30 6753 H 658.346 -0.442348 1.84779 0
M  V30 6754 H 656.496 -2.75964 2.73452 0
M  V30 6755 H 658.168 -0.866544 4.53088 0
M  V30 6756 H 656.411 -0.746612 4.27327 0
M  V30 6757 H 657.082 -2.16976 5.07568 0
M  V30 6758 H 659.558 -2.64854 3.20923 0
M  V30 6759 H 658.434 -3.82491 3.9369 0
M  V30 6760 H 658.695 -3.83481 2.19987 0
M  V30 6761 N 657.755 -1.42862 -0.66545 0
M  V30 6762 C 658.98 -1.47456 -1.45848 0
M  V30 6763 C 659.405 -0.0900312 -1.87884 0
M  V30 6764 O 658.763 0.913587 -1.56599 0
M  V30 6765 C 658.811 -2.41514 -2.67774 0
M  V30 6766 O 657.915 -1.89296 -3.66389 0
M  V30 6767 H 657.256 -0.499236 -0.437789 0
M  V30 6768 H 659.786 -1.8765 -0.815394 0
M  V30 6769 H 659.796 -2.58409 -3.15735 0
M  V30 6770 H 658.471 -3.42099 -2.36519 0
M  V30 6771 H 657.048 -1.82003 -3.25468 0
M  V30 6772 N 659.233 0.902656 -1.29189 0
M  V30 6773 C 660.166 2.00816 -1.0839 0
M  V30 6774 C 661.144 1.626 0.00335266 0
M  V30 6775 O 662.328 1.87928 -0.146765 0
M  V30 6776 C 659.455 3.32415 -0.649435 0
M  V30 6777 C 658.501 3.89617 -1.73496 0
M  V30 6778 S 659.334 4.19091 -3.33351 0
M  V30 6779 C 660.49 5.53736 -2.91766 0
M  V30 6780 H 660.723 2.18151 -2.01984 0
M  V30 6781 H 658.256 1.0489 -1.13303 0
M  V30 6782 H 660.214 4.08492 -0.405479 0
M  V30 6783 H 658.875 3.12964 0.266857 0
M  V30 6784 H 658.068 4.84658 -1.38284 0
M  V30 6785 H 657.67 3.20217 -1.93229 0
M  V30 6786 H 659.962 6.34085 -2.38627 0
M  V30 6787 H 660.905 5.93871 -3.85647 0
M  V30 6788 H 661.313 5.15453 -2.30149 0
M  V30 6789 N 660.711 1.11618 1.11262 0
M  V30 6790 C 661.959 0.864469 1.82678 0
M  V30 6791 C 662.28 -0.611564 1.85162 0
M  V30 6792 O 661.55 -1.44429 1.32352 0
M  V30 6793 H 660.13 0.316821 0.676486 0
M  V30 6794 H 662.792 1.40894 1.34666 0
M  V30 6795 H 661.888 1.23832 2.86482 0
M  V30 6796 N 662.189 -1.289 0.906776 0
M  V30 6797 C 663.119 -2.29932 0.406659 0
M  V30 6798 C 664.1 -1.6189 -0.522061 0
M  V30 6799 O 665.285 -1.8935 -0.431283 0
M  V30 6800 C 662.415 -3.45425 -0.360366 0
M  V30 6801 C 661.369 -4.25316 0.478574 0
M  V30 6802 C 660.695 -5.33076 -0.416373 0
M  V30 6803 C 661.995 -4.92739 1.7322 0
M  V30 6804 H 663.689 -2.72013 1.25097 0
M  V30 6805 H 661.235 -1.30768 0.602977 0
M  V30 6806 H 663.188 -4.15186 -0.721029 0
M  V30 6807 H 661.912 -3.02206 -1.23852 0
M  V30 6808 H 660.571 -3.57273 0.821662 0
M  V30 6809 H 660.219 -4.86101 -1.29287 0
M  V30 6810 H 659.919 -5.8743 0.141309 0
M  V30 6811 H 661.443 -6.05686 -0.773072 0
M  V30 6812 H 662.857 -5.54898 1.44086 0
M  V30 6813 H 661.254 -5.57057 2.23175 0
M  V30 6814 H 662.324 -4.17625 2.46408 0
M  V30 6815 N 663.667 -0.670007 -1.42649 0
M  V30 6816 C 664.916 -0.187526 -2.00826 0
M  V30 6817 C 665.229 1.21142 -1.53571 0
M  V30 6818 O 666.435 1.79001 -2.04134 0
M  V30 6819 C 664.891 -0.284409 -3.58774 0
M  V30 6820 C 664.499 -1.6871 -4.15019 0
M  V30 6821 C 666.243 0.139605 -4.2427 0
M  V30 6822 C 664.15 -1.73701 -5.65316 0
M  V30 6823 H 663.08 -0.0663468 -0.751075 0
M  V30 6824 H 665.731 -0.834492 -1.63427 0
M  V30 6825 H 664.113 0.430364 -3.93655 0
M  V30 6826 H 665.287 -2.42857 -3.91608 0
M  V30 6827 H 663.602 -2.05855 -3.61957 0
M  V30 6828 H 666.199 0.122398 -5.3456 0
M  V30 6829 H 666.542 1.17403 -3.99402 0
M  V30 6830 H 667.075 -0.523995 -3.94334 0
M  V30 6831 H 663.814 -2.75109 -5.94975 0
M  V30 6832 H 663.334 -1.03903 -5.90732 0
M  V30 6833 H 665.013 -1.48829 -6.2965 0
M  V30 6834 N 665.145 1.52092 -0.413018 0
M  V30 6835 C 666.37 2.06756 0.163338 0
M  V30 6836 C 666.795 1.28073 1.37764 0
M  V30 6837 O 666.153 0.312015 1.78595 0
M  V30 6838 C 666.201 3.57278 0.488322 0
M  V30 6839 O 665.305 3.80986 1.57871 0
M  V30 6840 H 664.646 0.663882 0.0125068 0
M  V30 6841 H 667.176 1.95988 -0.587339 0
M  V30 6842 H 667.186 4.01125 0.745836 0
M  V30 6843 H 665.861 4.13978 -0.399327 0
M  V30 6844 H 664.438 3.49017 1.31306 0
M  V30 6845 N 666.623 0.143563 1.56945 0
M  V30 6846 C 667.586 -0.783295 2.154 0
M  V30 6847 C 668.586 -1.17763 1.09492 0
M  V30 6848 O 669.776 -1.09912 1.35148 0
M  V30 6849 C 666.908 -2.06248 2.7143 0
M  V30 6850 H 668.101 -0.274863 2.98638 0
M  V30 6851 H 665.654 -0.105859 1.55941 0
M  V30 6852 H 666.389 -2.61466 1.91849 0
M  V30 6853 H 666.174 -1.78897 3.4891 0
M  V30 6854 H 667.664 -2.72453 3.16479 0
M  V30 6855 N 668.101 -1.57061 -0.130224 0
M  V30 6856 C 669.517 -1.52103 -0.483413 0
M  V30 6857 C 669.717 -0.854752 -1.82473 0
M  V30 6858 O 668.773 -0.432342 -2.48771 0
M  V30 6859 C 670.086 -2.96872 -0.47825 0
M  V30 6860 C 671.634 -3.07902 -0.562592 0
M  V30 6861 C 672.109 -4.54211 -0.587929 0
M  V30 6862 N 673.6 -4.58621 -0.649684 0
M  V30 6863 C 674.335 -5.69227 -0.690551 0
M  V30 6864 N 673.831 -6.89358 -0.689743 0
M  V30 6865 N 675.624 -5.57304 -0.732708 0
M  V30 6866 H 667.775 -1.98764 0.748779 0
M  V30 6867 H 670.038 -0.907248 0.274965 0
M  V30 6868 H 669.744 -3.48944 0.439444 0
M  V30 6869 H 669.618 -3.53716 -1.31013 0
M  V30 6870 H 672.005 -2.5584 -1.47071 0
M  V30 6871 H 672.086 -2.54073 0.296764 0
M  V30 6872 H 671.73 -5.06915 0.316096 0
M  V30 6873 H 671.66 -5.0584 -1.46401 0
M  V30 6874 H 674.151 -3.72146 -0.656927 0
M  V30 6875 H 674.464 -7.69408 -0.723239 0
M  V30 6876 H 672.809 -6.91884 -0.657347 0
M  V30 6877 H 676 -4.62363 -0.730625 0
M  V30 6878 H 676.173 -6.43515 -0.76109 0
M  V30 6879 N 669.579 0.400081 -1.52437 0
M  V30 6880 C 670.527 1.50851 -1.7705 0
M  V30 6881 C 671.521 1.56928 -0.637969 0
M  V30 6882 O 672.727 1.60226 -0.820212 0
M  V30 6883 H 669.102 0.50186 -0.560036 0
M  V30 6884 H 671.073 1.27281 -2.69893 0
M  V30 6885 C 669.822 2.88117 -1.94638 0
M  V30 6886 H 669.145 2.84187 -2.81208 0
M  V30 6887 H 670.585 3.64942 -2.15855 0
M  V30 6888 C 669.044 3.29206 -0.715899 0
M  V30 6889 O 669.574 4.01544 0.111944 0
M  V30 6890 N 667.78 2.85363 -0.549191 0
M  V30 6891 H 667.327 2.26664 -1.22397 0
M  V30 6892 H 667.285 3.13214 0.27278 0
M  V30 6893 N 671.057 1.43213 0.657864 0
M  V30 6894 C 672.02 1.47687 1.75275 0
M  V30 6895 C 673.02 0.362179 1.56668 0
M  V30 6896 O 674.21 0.623734 1.62651 0
M  V30 6897 C 671.342 1.32497 3.14098 0
M  V30 6898 H 672.535 2.4519 1.7269 0
M  V30 6899 H 670.088 1.2991 0.869087 0
M  V30 6900 H 670.823 0.359831 3.22298 0
M  V30 6901 H 670.608 2.13299 3.29008 0
M  V30 6902 H 672.098 1.38549 3.93946 0
M  V30 6903 N 672.536 -0.895792 1.29666 0
M  V30 6904 C 673.952 -1.17726 1.07763 0
M  V30 6905 C 674.152 -2.00794 -0.168576 0
M  V30 6906 O 673.208 -2.37213 -0.865244 0
M  V30 6907 C 674.521 -1.89441 2.33522 0
M  V30 6908 C 676.069 -2.02251 2.3888 0
M  V30 6909 C 676.544 -2.77378 3.64452 0
M  V30 6910 N 678.035 -2.8493 3.65198 0
M  V30 6911 C 678.77 -3.43606 4.59045 0
M  V30 6912 N 678.266 -4.03417 5.63228 0
M  V30 6913 N 680.059 -3.41317 4.46608 0
M  V30 6914 H 672.21 -0.341652 2.09634 0
M  V30 6915 H 674.473 -0.213865 0.923561 0
M  V30 6916 H 674.179 -1.35842 3.24407 0
M  V30 6917 H 674.053 -2.89893 2.41334 0
M  V30 6918 H 676.44 -2.55025 1.4848 0
M  V30 6919 H 676.521 -1.0092 2.3505 0
M  V30 6920 H 676.165 -2.25279 4.55205 0
M  V30 6921 H 676.095 -3.79062 3.65541 0
M  V30 6922 H 678.586 -2.42453 2.89871 0
M  V30 6923 H 678.899 -4.46224 6.30955 0
M  V30 6924 H 677.244 -4.01868 5.67033 0
M  V30 6925 H 680.435 -2.93812 3.64407 0
M  V30 6926 H 680.608 -3.86751 5.1993 0
M  V30 6927 N 674.014 -1.12206 -1.10668 0
M  V30 6928 C 675.43 -0.857619 -1.346 0
M  V30 6929 C 675.63 0.513542 -1.94846 0
M  V30 6930 O 674.686 1.26273 -2.18658 0
M  V30 6931 C 675.999 -1.97212 -2.26998 0
M  V30 6932 C 677.547 -2.00272 -2.40542 0
M  V30 6933 C 678.022 -3.10948 -3.36267 0
M  V30 6934 N 679.513 -3.10375 -3.43834 0
M  V30 6935 C 680.248 -3.92651 -4.17867 0
M  V30 6936 N 679.744 -4.84911 -4.94807 0
M  V30 6937 N 681.537 -3.80798 -4.1346 0
M  V30 6938 H 673.688 -2.00558 -0.699306 0
M  V30 6939 H 675.951 -0.872612 -0.370477 0
M  V30 6940 H 675.657 -2.96002 -1.89936 0
M  V30 6941 H 675.531 -1.87521 -3.27286 0
M  V30 6942 H 677.918 -1.02103 -2.76874 0
M  V30 6943 H 677.999 -2.14037 -1.40077 0
M  V30 6944 H 677.643 -4.09348 -3.00661 0
M  V30 6945 H 677.573 -2.94421 -4.36605 0
M  V30 6946 H 680.064 -2.43536 -2.88961 0
M  V30 6947 H 680.377 -5.44207 -5.48688 0
M  V30 6948 H 678.722 -4.88926 -4.93939 0
M  V30 6949 H 681.913 -3.08058 -3.52445 0
M  V30 6950 H 682.086 -4.4515 -4.70898 0
M  V30 6951 N 675.492 1.28418 -0.913599 0
M  V30 6952 C 676.738 1.9527 -0.547484 0
M  V30 6953 C 677.071 1.71745 0.906486 0
M  V30 6954 O 676.346 1.03834 1.64465 0
M  V30 6955 C 676.629 3.49748 -0.857205 0
M  V30 6956 C 676.482 3.82675 -2.3639 0
M  V30 6957 C 677.801 4.3868 -0.353258 0
M  V30 6958 H 674.92 0.709236 -0.200381 0
M  V30 6959 H 677.562 1.51789 -1.14281 0
M  V30 6960 H 675.712 3.86915 -0.350548 0
M  V30 6961 H 677.384 3.55378 -2.94116 0
M  V30 6962 H 675.627 3.29724 -2.81894 0
M  V30 6963 H 676.298 4.90547 -2.53115 0
M  V30 6964 H 678.774 4.08584 -0.787288 0
M  V30 6965 H 677.65 5.45621 -0.599049 0
M  V30 6966 H 677.911 4.35753 0.746413 0
M  V30 6967 N 676.97 0.677563 1.42291 0
M  V30 6968 C 677.9 0.014968 2.33495 0
M  V30 6969 C 678.881 -0.786376 1.50831 0
M  V30 6970 O 680.066 -0.742975 1.79426 0
M  V30 6971 C 677.196 -0.935023 3.34477 0
M  V30 6972 C 676.15 -0.242074 4.27315 0
M  V30 6973 C 675.476 -1.30519 5.18526 0
M  V30 6974 C 676.776 0.880604 5.14823 0
M  V30 6975 H 678.47 0.776671 2.89151 0
M  V30 6976 H 676.016 0.37494 1.39033 0
M  V30 6977 H 677.969 -1.40766 3.97194 0
M  V30 6978 H 676.693 -1.72818 2.77131 0
M  V30 6979 H 675.352 0.210351 3.65996 0
M  V30 6980 H 675 -2.09041 4.57505 0
M  V30 6981 H 674.7 -0.846652 5.81468 0
M  V30 6982 H 676.224 -1.7787 5.84119 0
M  V30 6983 H 677.638 0.489062 5.7121 0
M  V30 6984 H 676.035 1.26511 5.86613 0
M  V30 6985 H 677.105 1.72818 4.53059 0
M  V30 6986 N 678.448 -1.51871 0.421078 0
M  V30 6987 C 679.673 -2.0684 -0.152371 0
M  V30 6988 C 680.098 -1.28802 -1.37083 0
M  V30 6989 O 679.456 -0.321482 -1.78427 0
M  V30 6990 C 679.504 -3.57532 -0.469368 0
M  V30 6991 O 678.608 -3.81818 -1.55848 0
M  V30 6992 H 677.949 -0.663939 -0.00898586 0
M  V30 6993 H 680.479 -1.95674 0.597724 0
M  V30 6994 H 680.489 -4.01515 -0.724553 0
M  V30 6995 H 679.164 -4.13761 0.421276 0
M  V30 6996 H 677.741 -3.49709 -1.29453 0
M  V30 6997 N 679.926 -0.151884 -1.56866 0
M  V30 6998 C 680.874 0.80299 -2.183 0
M  V30 6999 C 681.868 1.25174 -1.14139 0
M  V30 7000 O 683.074 1.21966 -1.3238 0
M  V30 7001 H 679.449 0.277169 -0.699057 0
M  V30 7002 H 681.42 0.260699 -2.97259 0
M  V30 7003 C 680.169 2.03009 -2.82281 0
M  V30 7004 H 679.492 1.69377 -3.62148 0
M  V30 7005 H 680.932 2.67753 -3.28762 0
M  V30 7006 C 679.391 2.84123 -1.81041 0
M  V30 7007 O 679.921 3.8063 -1.28388 0
M  V30 7008 N 678.127 2.48753 -1.50234 0
M  V30 7009 H 677.674 1.70337 -1.93244 0
M  V30 7010 H 677.632 3.03316 -0.827445 0
M  V30 7011 N 681.404 1.57128 0.121893 0
M  V30 7012 C 682.352 2.01109 1.16868 0
M  V30 7013 C 683.346 0.907532 1.43039 0
M  V30 7014 O 684.552 1.09274 1.43036 0
M  V30 7015 H 680.927 0.640539 0.393971 0
M  V30 7016 H 682.898 2.88261 0.771224 0
M  V30 7017 C 681.647 2.42887 2.48799 0
M  V30 7018 H 680.97 3.2737 2.29498 0
M  V30 7019 H 682.41 2.77461 3.20611 0
M  V30 7020 C 680.869 1.29137 3.11168 0
M  V30 7021 O 681.399 0.605756 3.97106 0
M  V30 7022 N 679.605 1.04916 2.71 0
M  V30 7023 H 679.152 1.60848 2.01211 0
M  V30 7024 H 679.11 0.290016 3.1306 0
M  V30 7025 N 682.882 -0.391992 1.52647 0
M  V30 7026 C 683.83 -1.4991 1.77848 0
M  V30 7027 C 684.824 -1.56587 0.646282 0
M  V30 7028 O 686.03 -1.59789 0.828698 0
M  V30 7029 H 682.405 -0.498883 0.56269 0
M  V30 7030 H 684.376 -1.25847 2.70564 0
M  V30 7031 C 683.125 -2.87081 1.96163 0
M  V30 7032 H 682.448 -2.82692 2.82711 0
M  V30 7033 H 683.888 -3.63792 2.17787 0
M  V30 7034 C 682.347 -3.28822 0.733348 0
M  V30 7035 O 682.877 -4.01598 -0.0906481 0
M  V30 7036 N 681.083 -2.85068 0.564317 0
M  V30 7037 H 680.63 -2.26012 1.23598 0
M  V30 7038 H 680.588 -3.13355 -0.256166 0
M  V30 7039 N 684.36 -1.4356 -0.65026 0
M  V30 7040 C 685.307 -1.48948 -1.76304 0
M  V30 7041 C 686.277 -0.338919 -1.62605 0
M  V30 7042 O 687.462 -0.54649 -1.82806 0
M  V30 7043 C 684.602 -1.42131 -3.14472 0
M  V30 7044 C 683.715 -2.67415 -3.39284 0
M  V30 7045 C 682.85 -2.52565 -4.67316 0
M  V30 7046 C 681.889 -3.73103 -4.85243 0
M  V30 7047 N 681.026 -3.57046 -6.04535 0
M  V30 7048 H 685.866 -2.44032 -1.71034 0
M  V30 7049 H 683.403 -1.21131 -0.834601 0
M  V30 7050 H 685.361 -1.36172 -3.94351 0
M  V30 7051 H 683.991 -0.506273 -3.18805 0
M  V30 7052 H 683.043 -2.8364 -2.53481 0
M  V30 7053 H 684.355 -3.56943 -3.48415 0
M  V30 7054 H 683.509 -2.44331 -5.55326 0
M  V30 7055 H 682.248 -1.60566 -4.60511 0
M  V30 7056 H 681.253 -3.81743 -3.95667 0
M  V30 7057 H 682.478 -4.66115 -4.93876 0
M  V30 7058 H 680.424 -2.67783 -5.98856 0
M  V30 7059 H 680.341 -4.40178 -6.14638 0
M  V30 7060 H 681.609 -3.52669 -6.95158 0
M  V30 7061 N 685.838 0.888903 -1.30139 0
M  V30 7062 C 687.087 1.63507 -1.18103 0
M  V30 7063 C 687.4 1.93808 0.264141 0
M  V30 7064 O 688.606 2.66744 0.505966 0
M  V30 7065 C 687.062 2.94673 -2.0663 0
M  V30 7066 C 686.67 2.71926 -3.56034 0
M  V30 7067 C 688.414 3.72626 -2.03346 0
M  V30 7068 C 686.321 3.98884 -4.3663 0
M  V30 7069 H 685.251 0.613426 -0.438435 0
M  V30 7070 H 687.902 0.984427 -1.54859 0
M  V30 7071 H 686.284 3.61009 -1.62754 0
M  V30 7072 H 687.458 2.14116 -4.08033 0
M  V30 7073 H 685.773 2.07353 -3.61101 0
M  V30 7074 H 688.37 4.66775 -2.60816 0
M  V30 7075 H 688.713 4.03712 -1.016 0
M  V30 7076 H 689.246 3.13147 -2.45324 0
M  V30 7077 H 685.985 3.72959 -5.39056 0
M  V30 7078 H 685.505 4.56214 -3.89396 0
M  V30 7079 H 687.184 4.66938 -4.47859 0
M  V30 7080 N 687.317 1.12792 1.10072 0
M  V30 7081 C 688.247 0.821688 2.18565 0
M  V30 7082 C 689.228 -0.21612 1.68721 0
M  V30 7083 O 690.413 -0.0764932 1.94049 0
M  V30 7084 C 687.543 0.279624 3.46172 0
M  V30 7085 C 686.497 1.25092 4.09312 0
M  V30 7086 C 685.823 0.568916 5.31665 0
M  V30 7087 C 687.123 2.60699 4.52585 0
M  V30 7088 H 688.817 1.72888 2.44438 0
M  V30 7089 H 686.363 0.832702 1.17482 0
M  V30 7090 H 688.316 0.053099 4.21367 0
M  V30 7091 H 687.04 -0.662929 3.19801 0
M  V30 7092 H 685.699 1.46332 3.36129 0
M  V30 7093 H 685.347 -0.378898 5.01571 0
M  V30 7094 H 685.047 1.21687 5.74862 0
M  V30 7095 H 686.571 0.351517 6.09587 0
M  V30 7096 H 687.985 2.43465 5.19035 0
M  V30 7097 H 686.382 3.21608 5.06644 0
M  V30 7098 H 687.452 3.1886 3.65317 0
M  V30 7099 N 688.795 -1.27931 0.920396 0
M  V30 7100 C 689.758 -2.25345 0.41858 0
M  V30 7101 C 690.758 -1.54116 -0.458798 0
M  V30 7102 O 691.948 -1.72235 -0.260912 0
M  V30 7103 C 689.08 -3.38556 -0.399104 0
M  V30 7104 H 690.273 -2.71251 1.27918 0
M  V30 7105 H 687.826 -1.39728 0.700406 0
M  V30 7106 H 688.561 -2.98021 -1.27882 0
M  V30 7107 H 688.346 -3.91426 0.229863 0
M  V30 7108 H 689.836 -4.10976 -0.740817 0
M  V30 7109 N 690.273 -0.685099 -1.4193 0
M  V30 7110 C 691.519 -0.211971 -2.01689 0
M  V30 7111 C 691.852 1.18189 -1.54094 0
M  V30 7112 O 691.127 1.79559 -0.747572 0
M  V30 7113 C 691.41 -0.258019 -3.59174 0
M  V30 7114 C 691.263 -1.68807 -4.16922 0
M  V30 7115 C 692.582 0.388044 -4.38386 0
M  V30 7116 H 689.701 -0.0784987 -0.732808 0
M  V30 7117 H 692.343 -0.871837 -1.68816 0
M  V30 7118 H 690.493 0.303832 -3.8731 0
M  V30 7119 H 692.165 -2.30296 -3.99702 0
M  V30 7120 H 690.408 -2.22553 -3.72361 0
M  V30 7121 H 691.079 -1.6719 -5.26072 0
M  V30 7122 H 693.555 -0.0903432 -4.16002 0
M  V30 7123 H 692.431 0.325232 -5.47936 0
M  V30 7124 H 692.692 1.4672 -4.17044 0
M  V30 7125 N 691.751 1.51645 -0.429126 0
M  V30 7126 C 692.661 2.31288 0.392809 0
M  V30 7127 C 693.677 1.39852 1.03525 0
M  V30 7128 O 694.853 1.72926 1.03241 0
M  V30 7129 C 691.918 3.13347 1.48372 0
M  V30 7130 C 690.979 4.20551 0.862268 0
M  V30 7131 C 690.212 4.98688 1.9012 0
M  V30 7132 O 690.435 4.77359 3.12225 0
M  V30 7133 O 689.369 5.83005 1.4963 0
M  V30 7134 H 693.195 3.02609 -0.257138 0
M  V30 7135 H 690.78 1.48163 -0.191851 0
M  V30 7136 H 692.662 3.64387 2.1166 0
M  V30 7137 H 691.337 2.44799 2.1179 0
M  V30 7138 H 690.244 3.73609 0.191568 0
M  V30 7139 H 691.577 4.91449 0.271704 0
M  V30 7140 N 693.229 0.160201 1.56784 0
M  V30 7141 C 694.459 -0.493449 2.00621 0
M  V30 7142 C 694.867 -1.5809 1.03943 0
M  V30 7143 O 694.21 -1.83675 0.0305343 0
M  V30 7144 C 694.272 -1.14169 3.4089 0
M  V30 7145 C 693.936 -0.197243 4.56574 0
M  V30 7146 C 694.933 0.580174 5.16653 0
M  V30 7147 C 692.618 -0.0963038 5.02208 0
M  V30 7148 C 694.612 1.44584 6.20785 0
M  V30 7149 C 692.299 0.772959 6.06192 0
M  V30 7150 C 693.297 1.54263 6.65351 0
M  V30 7151 O 692.985 2.39738 7.67321 0
M  V30 7152 H 692.717 -0.131764 0.663034 0
M  V30 7153 H 695.271 0.255728 2.03802 0
M  V30 7154 H 693.501 -1.93877 3.34587 0
M  V30 7155 H 695.19 -1.69641 3.6875 0
M  V30 7156 H 695.956 0.5123 4.82287 0
M  V30 7157 H 691.835 -0.685143 4.5588 0
M  V30 7158 H 695.379 2.04706 6.66889 0
M  V30 7159 H 691.276 0.842077 6.39984 0
M  V30 7160 H 692.044 2.33131 7.84597 0
M  V30 7161 N 694.707 -1.5719 -0.113559 0
M  V30 7162 C 695.637 -2.03772 -1.14013 0
M  V30 7163 C 696.618 -0.923176 -1.42869 0
M  V30 7164 O 697.803 -1.19325 -1.53216 0
M  V30 7165 C 694.933 -2.44663 -2.4649 0
M  V30 7166 C 693.887 -3.59612 -2.32085 0
M  V30 7167 C 693.213 -3.8642 -3.69573 0
M  V30 7168 C 694.513 -4.91149 -1.7768 0
M  V30 7169 H 696.207 -2.89785 -0.752665 0
M  V30 7170 H 693.753 -1.39412 -0.360609 0
M  V30 7171 H 695.706 -2.75857 -3.18561 0
M  V30 7172 H 694.43 -1.55628 -2.87137 0
M  V30 7173 H 693.089 -3.28636 -1.62461 0
M  V30 7174 H 692.737 -2.94581 -4.07715 0
M  V30 7175 H 692.437 -4.63797 -3.60786 0
M  V30 7176 H 693.961 -4.2007 -4.4314 0
M  V30 7177 H 695.375 -5.20843 -2.39574 0
M  V30 7178 H 693.772 -5.72562 -1.79701 0
M  V30 7179 H 694.842 -4.79301 -0.734776 0
M  V30 7180 N 696.185 0.383891 -1.52853 0
M  V30 7181 C 697.148 1.45197 -1.77343 0
M  V30 7182 C 698.148 1.47362 -0.643522 0
M  V30 7183 O 699.338 1.48443 -0.911613 0
M  V30 7184 C 696.47 2.8445 -1.87885 0
M  V30 7185 H 697.663 1.24764 -2.72716 0
M  V30 7186 H 695.216 0.615939 -1.43652 0
M  V30 7187 H 695.951 3.10222 -0.94515 0
M  V30 7188 H 695.736 2.8428 -2.70051 0
M  V30 7189 H 697.226 3.61832 -2.08488 0
M  V30 7190 N 697.663 1.43903 0.642637 0
M  V30 7191 C 698.626 1.49538 1.73698 0
M  V30 7192 C 699.626 0.378776 1.56275 0
M  V30 7193 O 700.816 0.64095 1.6198 0
M  V30 7194 C 697.948 1.35821 3.12675 0
M  V30 7195 H 699.141 2.47008 1.70079 0
M  V30 7196 H 696.694 1.30824 0.85526 0
M  V30 7197 H 697.429 0.393994 3.21898 0
M  V30 7198 H 697.214 2.16776 3.26727 0
M  V30 7199 H 698.704 1.4272 3.92455 0
M  V30 7200 N 699.141 -0.881989 1.30609 0
M  V30 7201 C 700.104 -1.96957 1.1722 0
M  V30 7202 C 701.104 -1.60472 0.102598 0
M  V30 7203 O 702.294 -1.70628 0.350943 0
M  V30 7204 C 699.426 -3.31463 0.796572 0
M  V30 7205 H 700.619 -2.10262 2.13846 0
M  V30 7206 H 698.172 -1.06877 1.14048 0
M  V30 7207 H 698.907 -3.23859 -0.169053 0
M  V30 7208 H 698.692 -3.59314 1.56959 0
M  V30 7209 H 700.182 -4.11233 0.72645 0
M  V30 7210 N 700.619 -1.13374 -1.09472 0
M  V30 7211 C 701.551 -0.768466 -2.15933 0
M  V30 7212 C 702.564 0.209585 -1.61445 0
M  V30 7213 O 703.753 -0.010539 -1.78497 0
M  V30 7214 C 700.853 -0.118266 -3.38694 0
M  V30 7215 C 700.026 -1.12829 -4.22597 0
M  V30 7216 C 699.085 -0.503875 -5.23782 0
M  V30 7217 O 698.111 -1.16374 -5.57177 0
M  V30 7218 N 699.313 0.724288 -5.75964 0
M  V30 7219 H 702.078 -1.68457 -2.47876 0
M  V30 7220 H 699.639 -1.02668 -1.25183 0
M  V30 7221 H 701.631 0.311698 -4.03498 0
M  V30 7222 H 700.201 0.700769 -3.04644 0
M  V30 7223 H 699.421 -1.73556 -3.53938 0
M  V30 7224 H 700.709 -1.81095 -4.75481 0
M  V30 7225 H 700.107 1.27918 -5.51048 0
M  V30 7226 H 698.664 1.09692 -6.42504 0
M  V30 7227 N 702.098 1.27442 -0.927168 0
M  V30 7228 C 703.061 2.2512 -0.430525 0
M  V30 7229 C 704.061 1.54357 0.450619 0
M  V30 7230 O 705.251 1.72371 0.251774 0
M  V30 7231 C 702.383 3.38763 0.381144 0
M  V30 7232 H 703.576 2.70569 -1.29354 0
M  V30 7233 H 701.129 1.39355 -0.707806 0
M  V30 7234 H 701.864 2.98695 1.263 0
M  V30 7235 H 701.649 3.91298 -0.250618 0
M  V30 7236 H 703.139 4.11364 0.719012 0
M  V30 7237 N 703.576 0.692616 1.41565 0
M  V30 7238 C 704.822 0.222664 2.01574 0
M  V30 7239 C 705.155 -1.1737 1.54719 0
M  V30 7240 O 704.43 -1.79161 0.757084 0
M  V30 7241 C 704.713 0.277064 3.59033 0
M  V30 7242 C 704.566 1.71016 4.16021 0
M  V30 7243 C 705.885 -0.36479 4.38586 0
M  V30 7244 H 703.004 0.0823839 0.732381 0
M  V30 7245 H 705.646 0.880778 1.68352 0
M  V30 7246 H 703.796 -0.283288 3.87466 0
M  V30 7247 H 705.468 2.32413 3.98475 0
M  V30 7248 H 703.711 2.24525 3.71175 0
M  V30 7249 H 704.382 1.69978 5.25178 0
M  V30 7250 H 706.858 0.112404 4.15948 0
M  V30 7251 H 705.734 -0.296169 5.481 0
M  V30 7252 H 705.995 -1.44506 4.17816 0
M  V30 7253 N 705.054 -1.51416 0.437162 0
M  V30 7254 C 706.331 -1.94682 -0.189292 0
M  V30 7255 C 706.711 -1.37581 -1.60108 0
M  V30 7256 O 706.059 -0.562815 -2.2146 0
M  V30 7257 C 706.269 -3.48599 -0.167201 0
M  V30 7258 C 707.617 -4.2296 -0.372856 0
M  V30 7259 O 708.641 -3.55354 -0.245323 0
M  V30 7260 O 707.5 -5.42895 -0.626693 0
M  V30 7261 H 704.594 -0.816708 -0.130063 0
M  V30 7262 H 707.14 -1.62316 0.495128 0
M  V30 7263 H 705.912 -3.82616 0.81981 0
M  V30 7264 H 705.535 -3.87406 -0.894537 0
M  V30 7265 N 706.532 -0.168513 -1.56696 0
M  V30 7266 C 707.781 0.477233 -1.95973 0
M  V30 7267 C 708.094 1.64578 -1.05704 0
M  V30 7268 O 709.3 2.35758 -1.3465 0
M  V30 7269 C 707.756 0.900413 -3.48455 0
M  V30 7270 C 707.364 -0.242382 -4.47344 0
M  V30 7271 C 709.108 1.51474 -3.96555 0
M  V30 7272 C 707.015 0.200272 -5.91061 0
M  V30 7273 H 705.945 0.182061 -0.73169 0
M  V30 7274 H 708.596 -0.256297 -1.81701 0
M  V30 7275 H 706.978 1.68984 -3.58135 0
M  V30 7276 H 708.152 -1.01967 -4.49377 0
M  V30 7277 H 706.467 -0.766484 -4.09285 0
M  V30 7278 H 709.064 1.85792 -5.01384 0
M  V30 7279 H 709.407 2.41163 -3.39332 0
M  V30 7280 H 709.94 0.789802 -3.89881 0
M  V30 7281 H 706.679 -0.661775 -6.52151 0
M  V30 7282 H 706.199 0.942979 -5.92341 0
M  V30 7283 H 707.878 0.645088 -6.43776 0
M  V30 7284 N 708.01 1.57248 0.105221 0
M  V30 7285 C 709.235 1.90143 0.828264 0
M  V30 7286 C 709.66 0.761811 1.71983 0
M  V30 7287 O 709.018 -0.287086 1.79013 0
M  V30 7288 C 709.066 3.21856 1.62608 0
M  V30 7289 O 708.17 3.08732 2.7342 0
M  V30 7290 H 707.511 0.623558 0.228192 0
M  V30 7291 H 710.041 2.0443 0.0834826 0
M  V30 7292 H 710.051 3.54916 2.01243 0
M  V30 7293 H 708.726 4.0439 0.971687 0
M  V30 7294 H 707.303 2.87167 2.37886 0
M  V30 7295 N 709.488 -0.375779 1.53054 0
M  V30 7296 C 710.736 -1.11727 1.68409 0
M  V30 7297 C 711.057 -1.90127 0.43323 0
M  V30 7298 O 710.327 -1.87945 -0.552595 0
M  V30 7299 H 708.907 -0.415451 0.620813 0
M  V30 7300 H 711.569 -0.424869 1.90213 0
M  V30 7301 H 710.665 -1.8128 2.54055 0
M  V30 7302 N 710.966 -1.44241 -0.634997 0
M  V30 7303 C 712.382 -1.28043 -0.952742 0
M  V30 7304 C 712.582 -0.21338 -2.00367 0
M  V30 7305 O 711.638 0.402042 -2.49279 0
M  V30 7306 C 712.951 -2.65076 -1.41968 0
M  V30 7307 C 714.499 -2.72755 -1.53537 0
M  V30 7308 C 714.974 -4.10249 -2.03616 0
M  V30 7309 N 716.465 -4.12406 -2.10892 0
M  V30 7310 C 717.2 -5.15641 -2.50803 0
M  V30 7311 N 716.696 -6.29239 -2.89879 0
M  V30 7312 N 718.489 -5.02995 -2.50903 0
M  V30 7313 H 710.64 -2.12315 0.060098 0
M  V30 7314 H 712.903 -0.947326 -0.0357325 0
M  V30 7315 H 712.609 -3.44213 -0.721804 0
M  V30 7316 H 712.483 -2.91704 -2.39141 0
M  V30 7317 H 714.87 -1.93939 -2.22422 0
M  V30 7318 H 714.951 -2.49872 -0.547496 0
M  V30 7319 H 714.595 -4.8954 -1.35327 0
M  V30 7320 H 714.525 -4.30507 -3.03268 0
M  V30 7321 H 717.016 -3.30417 -1.83393 0
M  V30 7322 H 717.329 -7.03827 -3.19135 0
M  V30 7323 H 715.674 -6.32683 -2.8764 0
M  V30 7324 H 718.865 -4.13306 -2.19763 0
M  V30 7325 H 719.038 -5.83574 -2.81683 0
M  V30 7326 N 712.444 0.87505 -1.31075 0
M  V30 7327 C 713.691 1.62768 -1.20469 0
M  V30 7328 C 714.019 1.93034 0.23834 0
M  V30 7329 O 713.274 1.55693 1.18567 0
M  V30 7330 C 713.573 2.96948 -1.98888 0
M  V30 7331 C 713.239 2.86195 -3.4843 0
M  V30 7332 C 711.901 2.82969 -3.89207 0
M  V30 7333 C 714.253 2.73599 -4.43614 0
M  V30 7334 C 711.581 2.64999 -5.23443 0
M  V30 7335 C 713.933 2.57166 -5.77969 0
M  V30 7336 C 712.597 2.52321 -6.17973 0
M  V30 7337 H 711.867 0.595611 -0.440827 0
M  V30 7338 H 714.514 1.01665 -1.62285 0
M  V30 7339 H 712.819 3.62058 -1.49737 0
M  V30 7340 H 714.516 3.54164 -1.88067 0
M  V30 7341 H 711.106 2.8952 -3.16032 0
M  V30 7342 H 715.29 2.7515 -4.13045 0
M  V30 7343 H 710.546 2.5967 -5.53517 0
M  V30 7344 H 714.72 2.46396 -6.51354 0
M  V30 7345 H 712.347 2.38156 -7.21932 0
M  V30 7346 N 713.922 1.13953 1.08869 0
M  V30 7347 C 715.199 0.815768 1.77777 0
M  V30 7348 C 715.579 -0.691624 1.99449 0
M  V30 7349 O 714.927 -1.63085 1.60049 0
M  V30 7350 C 715.137 1.60916 3.09689 0
M  V30 7351 C 716.485 1.80549 3.84301 0
M  V30 7352 O 717.509 1.57562 3.19457 0
M  V30 7353 O 716.368 2.18946 5.00724 0
M  V30 7354 H 713.462 0.298445 0.771271 0
M  V30 7355 H 716.008 1.24446 1.15374 0
M  V30 7356 H 714.78 2.6333 2.89435 0
M  V30 7357 H 714.403 1.17578 3.79817 0
M  V30 7358 N 715.4 -1.26948 0.933913 0
M  V30 7359 C 716.648 -1.93704 0.576484 0
M  V30 7360 C 716.969 -1.73702 -0.886145 0
M  V30 7361 O 716.239 -1.08838 -1.62884 0
M  V30 7362 H 714.819 -0.716812 0.210214 0
M  V30 7363 H 717.481 -1.54534 1.18766 0
M  V30 7364 H 716.577 -3.01987 0.788055 0
M  V30 7365 N 716.879 -0.700114 -1.41195 0
M  V30 7366 C 717.809 -0.0521132 -2.33442 0
M  V30 7367 C 718.79 0.76228 -1.52063 0
M  V30 7368 O 719.975 0.714336 -1.80585 0
M  V30 7369 C 717.105 0.881693 -3.35922 0
M  V30 7370 C 716.059 0.174062 -4.27646 0
M  V30 7371 C 715.385 1.22254 -5.20536 0
M  V30 7372 C 716.685 -0.962396 -5.13357 0
M  V30 7373 H 718.379 -0.822574 -2.87879 0
M  V30 7374 H 715.925 -0.397011 -1.38419 0
M  V30 7375 H 717.878 1.34429 -3.99383 0
M  V30 7376 H 716.602 1.68387 -2.79845 0
M  V30 7377 H 715.261 -0.268551 -3.65615 0
M  V30 7378 H 714.909 2.01736 -4.60773 0
M  V30 7379 H 714.609 0.754038 -5.82742 0
M  V30 7380 H 716.133 1.68555 -5.86874 0
M  V30 7381 H 717.547 -0.579875 -5.7036 0
M  V30 7382 H 715.944 -1.35828 -5.84526 0
M  V30 7383 H 717.014 -1.80003 -4.50252 0
M  V30 7384 N 718.357 1.51182 -0.445186 0
M  V30 7385 C 719.582 2.07056 0.119445 0
M  V30 7386 C 720.007 1.30966 1.35016 0
M  V30 7387 O 719.365 0.349827 1.77893 0
M  V30 7388 C 719.413 3.58234 0.412428 0
M  V30 7389 O 718.517 3.84249 1.49754 0
M  V30 7390 H 717.858 0.663998 -0.00157797 0
M  V30 7391 H 720.388 1.94699 -0.628779 0
M  V30 7392 H 720.398 4.02617 0.660583 0
M  V30 7393 H 719.073 4.13038 -0.487049 0
M  V30 7394 H 717.65 3.51724 1.23873 0
M  V30 7395 N 719.835 0.176821 1.56605 0
M  V30 7396 C 721.246 -0.338963 1.83597 0
M  V30 7397 C 721.597 -1.62677 1.09684 0
M  V30 7398 O 720.722 -2.13524 0.351661 0
M  V30 7399 C 721.317 -0.62177 3.33046 0
M  V30 7400 C 719.876 -1.08198 3.60514 0
M  V30 7401 C 719.023 -0.120774 2.77037 0
M  V30 7402 H 721.974 0.400978 1.53551 0
M  V30 7403 H 721.995 -1.47321 3.50823 0
M  V30 7404 H 721.507 0.315692 3.86814 0
M  V30 7405 H 719.608 -2.03435 3.12162 0
M  V30 7406 H 719.721 -0.987329 4.68816 0
M  V30 7407 H 718.085 -0.619192 2.47059 0
M  V30 7408 H 718.868 0.810806 3.33588 0
M  V30 7409 N 721.313 -1.57302 -0.09688 0
M  V30 7410 C 722.276 -2.00976 -1.10188 0
M  V30 7411 C 723.276 -0.903009 -1.3305 0
M  V30 7412 O 724.466 -1.16853 -1.29194 0
M  V30 7413 C 721.598 -2.36893 -2.45142 0
M  V30 7414 H 722.791 -2.9098 -0.726003 0
M  V30 7415 H 720.344 -1.52515 -0.341872 0
M  V30 7416 H 721.079 -1.49837 -2.8761 0
M  V30 7417 H 720.864 -3.17632 -2.29897 0
M  V30 7418 H 722.354 -2.71345 -3.1743 0
M  V30 7419 N 722.791 0.367657 -1.53252 0
M  V30 7420 C 723.754 1.43308 -1.78873 0
M  V30 7421 C 724.754 1.46671 -0.659115 0
M  V30 7422 O 725.944 1.47468 -0.927306 0
M  V30 7423 C 723.076 2.82442 -1.90892 0
M  V30 7424 H 724.269 1.21864 -2.74024 0
M  V30 7425 H 721.822 0.600668 -1.44297 0
M  V30 7426 H 722.557 3.09202 -0.978 0
M  V30 7427 H 722.342 2.81399 -2.73051 0
M  V30 7428 H 723.832 3.59601 -2.12314 0
M  V30 7429 N 724.269 1.44576 0.627338 0
M  V30 7430 C 725.216 1.51734 1.73912 0
M  V30 7431 C 726.186 0.364745 1.62046 0
M  V30 7432 O 727.371 0.575503 1.81914 0
M  V30 7433 C 724.511 1.47116 3.12171 0
M  V30 7434 C 723.624 2.72778 3.34986 0
M  V30 7435 C 722.759 2.59968 4.63239 0
M  V30 7436 C 721.798 3.80776 4.79245 0
M  V30 7437 N 720.935 3.66618 5.98778 0
M  V30 7438 H 725.775 2.46722 1.6713 0
M  V30 7439 H 723.312 1.22444 0.815224 0
M  V30 7440 H 725.27 1.42429 3.92135 0
M  V30 7441 H 723.9 0.556928 3.17959 0
M  V30 7442 H 722.952 2.87637 2.48936 0
M  V30 7443 H 724.264 3.62441 3.42692 0
M  V30 7444 H 723.418 2.53135 5.51369 0
M  V30 7445 H 722.157 1.67872 4.57898 0
M  V30 7446 H 721.162 3.87989 3.89544 0
M  V30 7447 H 722.387 4.73913 4.86398 0
M  V30 7448 H 720.333 2.77277 5.9452 0
M  V30 7449 H 720.25 4.499 6.07557 0
M  V30 7450 H 721.518 3.63684 6.89459 0
M  V30 7451 N 725.747 -0.868086 1.31537 0
M  V30 7452 C 726.71 -1.95703 1.19302 0
M  V30 7453 C 727.71 -1.60355 0.119612 0
M  V30 7454 O 728.9 -1.70247 0.36902 0
M  V30 7455 C 726.032 -3.30599 0.831684 0
M  V30 7456 H 727.225 -2.07982 2.16064 0
M  V30 7457 H 724.778 -1.05661 1.15176 0
M  V30 7458 H 725.513 -3.2402 -0.134694 0
M  V30 7459 H 725.298 -3.57629 1.60761 0
M  V30 7460 H 726.788 -4.10439 0.770026 0
M  V30 7461 N 727.225 -1.14528 -1.08264 0
M  V30 7462 C 728.453 -0.937964 -1.84418 0
M  V30 7463 C 728.868 0.51357 -1.81681 0
M  V30 7464 O 728.225 1.35591 -1.22153 0
M  V30 7465 C 728.276 -1.43272 -3.31897 0
M  V30 7466 O 727.997 -2.82738 -3.34651 0
M  V30 7467 C 729.498 -1.26555 -4.24851 0
M  V30 7468 H 726.718 -0.333704 -0.582136 0
M  V30 7469 H 729.262 -1.52076 -1.36723 0
M  V30 7470 H 727.417 -0.892653 -3.76975 0
M  V30 7471 H 727.831 -3.04971 -4.26724 0
M  V30 7472 H 729.305 -1.66031 -5.26439 0
M  V30 7473 H 729.782 -0.208589 -4.38704 0
M  V30 7474 H 730.388 -1.79423 -3.856 0
M  V30 7475 N 728.703 1.26451 -0.940633 0
M  V30 7476 C 729.933 1.97581 -0.603766 0
M  V30 7477 C 730.341 1.70246 0.825395 0
M  V30 7478 O 729.684 0.967001 1.56188 0
M  V30 7479 C 729.746 3.51256 -0.765463 0
M  V30 7480 C 729.41 4.0224 -2.16915 0
M  V30 7481 C 730.407 4.1402 -3.14457 0
M  V30 7482 C 728.092 4.36263 -2.48958 0
M  V30 7483 C 730.086 4.59117 -4.42143 0
M  V30 7484 C 727.773 4.81048 -3.76877 0
M  V30 7485 C 728.771 4.92436 -4.73282 0
M  V30 7486 O 728.459 5.36234 -5.98923 0
M  V30 7487 H 728.191 0.636948 -0.226436 0
M  V30 7488 H 730.745 1.61941 -1.2635 0
M  V30 7489 H 728.975 3.86669 -0.0485956 0
M  V30 7490 H 730.664 4.03597 -0.431738 0
M  V30 7491 H 731.43 3.87981 -2.91026 0
M  V30 7492 H 727.309 4.26634 -1.74656 0
M  V30 7493 H 730.853 4.6792 -5.17394 0
M  V30 7494 H 726.75 5.06531 -4.00121 0
M  V30 7495 H 727.518 5.54456 -6.02097 0
M  V30 7496 N 730.181 0.707592 1.40822 0
M  V30 7497 C 731.091 0.0507246 2.34545 0
M  V30 7498 C 732.107 -0.752727 1.56876 0
M  V30 7499 O 733.283 -0.687524 1.89302 0
M  V30 7500 C 730.348 -0.865731 3.35717 0
M  V30 7501 C 729.409 -0.0531313 4.29267 0
M  V30 7502 C 728.642 -0.925939 5.25606 0
M  V30 7503 O 728.865 -2.16531 5.27703 0
M  V30 7504 O 727.799 -0.369194 6.00767 0
M  V30 7505 H 731.625 0.823587 2.9232 0
M  V30 7506 H 729.21 0.46801 1.4188 0
M  V30 7507 H 731.092 -1.39091 3.97783 0
M  V30 7508 H 729.767 -1.61788 2.80368 0
M  V30 7509 H 728.674 0.516931 3.70511 0
M  V30 7510 H 730.007 0.660617 4.87747 0
M  V30 7511 N 731.66 -1.50943 0.453197 0
M  V30 7512 C 732.623 -2.26684 -0.338705 0
M  V30 7513 C 733.623 -1.30748 -0.936032 0
M  V30 7514 O 734.813 -1.54327 -0.808002 0
M  V30 7515 C 731.945 -3.07063 -1.48071 0
M  V30 7516 H 733.138 -2.98131 0.325289 0
M  V30 7517 H 730.691 -1.54926 0.206771 0
M  V30 7518 H 731.426 -2.4007 -2.18029 0
M  V30 7519 H 731.211 -3.77545 -1.0584 0
M  V30 7520 H 732.701 -3.64393 -2.0398 0
M  V30 7521 N 733.138 -0.185124 -1.56509 0
M  V30 7522 C 734.384 0.456934 -1.97585 0
M  V30 7523 C 734.717 1.61957 -1.07161 0
M  V30 7524 O 733.992 1.9412 -0.121546 0
M  V30 7525 C 734.275 0.926666 -3.47973 0
M  V30 7526 C 734.128 -0.237097 -4.49175 0
M  V30 7527 C 735.447 1.79561 -4.01803 0
M  V30 7528 H 732.566 0.164619 -0.71838 0
M  V30 7529 H 735.208 -0.274039 -1.88013 0
M  V30 7530 H 733.358 1.54954 -3.56261 0
M  V30 7531 H 735.03 -0.87454 -4.52934 0
M  V30 7532 H 733.273 -0.890446 -4.24563 0
M  V30 7533 H 733.944 0.133924 -5.51838 0
M  V30 7534 H 736.42 1.27039 -3.96232 0
M  V30 7535 H 735.296 2.09327 -5.07418 0
M  V30 7536 H 735.557 2.74629 -3.46455 0
M  V30 7537 N 734.616 1.57351 0.0885366 0
M  V30 7538 C 736.032 1.53331 0.442916 0
M  V30 7539 C 736.232 0.902831 1.80142 0
M  V30 7540 O 735.288 0.498147 2.47537 0
M  V30 7541 C 736.601 2.98036 0.399372 0
M  V30 7542 C 738.149 3.09286 0.480759 0
M  V30 7543 C 738.624 4.5561 0.467296 0
M  V30 7544 N 740.115 4.60182 0.52786 0
M  V30 7545 C 740.85 5.70857 0.539388 0
M  V30 7546 N 740.346 6.90944 0.506729 0
M  V30 7547 N 742.139 5.59051 0.584691 0
M  V30 7548 H 734.29 1.96709 -0.801215 0
M  V30 7549 H 736.553 0.899639 -0.298922 0
M  V30 7550 H 736.259 3.47656 -0.531806 0
M  V30 7551 H 736.133 3.57066 1.21589 0
M  V30 7552 H 738.52 2.5965 1.40236 0
M  V30 7553 H 738.601 2.53197 -0.364023 0
M  V30 7554 H 738.245 5.05899 -0.450384 0
M  V30 7555 H 738.175 5.09544 1.32938 0
M  V30 7556 H 740.666 3.73757 0.558028 0
M  V30 7557 H 740.979 7.71055 0.518989 0
M  V30 7558 H 739.324 6.93384 0.473675 0
M  V30 7559 H 742.515 4.64138 0.607781 0
M  V30 7560 H 742.688 6.45307 0.590206 0
M  V30 7561 N 736.094 -0.359525 1.53444 0
M  V30 7562 C 737.51 -0.701599 1.43352 0
M  V30 7563 C 737.71 -1.93049 0.577439 0
M  V30 7564 O 736.766 -2.52423 0.0622224 0
M  V30 7565 C 738.079 -0.90915 2.86627 0
M  V30 7566 C 739.627 -1.00878 2.96298 0
M  V30 7567 C 740.102 -1.24876 4.40647 0
M  V30 7568 N 741.593 -1.31632 4.44103 0
M  V30 7569 C 742.328 -1.51922 5.52908 0
M  V30 7570 N 741.824 -1.69489 6.71748 0
M  V30 7571 N 743.617 -1.54341 5.40496 0
M  V30 7572 H 735.768 0.448685 2.07607 0
M  V30 7573 H 738.031 0.138713 0.937797 0
M  V30 7574 H 737.737 -0.0778997 3.51614 0
M  V30 7575 H 737.611 -1.81551 3.30634 0
M  V30 7576 H 739.998 -1.83057 2.31461 0
M  V30 7577 H 740.079 -0.0796721 2.55676 0
M  V30 7578 H 739.723 -0.431961 5.0606 0
M  V30 7579 H 739.653 -2.19118 4.78848 0
M  V30 7580 H 742.144 -1.19646 3.5846 0
M  V30 7581 H 742.457 -1.84561 7.50438 0
M  V30 7582 H 740.802 -1.66655 6.74723 0
M  V30 7583 H 743.993 -1.40188 4.46615 0
M  V30 7584 H 744.166 -1.69812 6.25354 0
M  V30 7585 N 737.572 -1.44907 -0.619662 0
M  V30 7586 C 738.502 -1.55488 -1.742 0
M  V30 7587 C 739.483 -0.407143 -1.65156 0
M  V30 7588 O 740.668 -0.628743 -1.8374 0
M  V30 7589 C 737.798 -1.5097 -3.1277 0
M  V30 7590 C 736.752 -2.64337 -3.36615 0
M  V30 7591 C 736.078 -2.44872 -4.75333 0
M  V30 7592 C 737.378 -4.06423 -3.28051 0
M  V30 7593 H 739.072 -2.49432 -1.65602 0
M  V30 7594 H 736.618 -1.20047 -0.795281 0
M  V30 7595 H 738.571 -1.56971 -3.91073 0
M  V30 7596 H 737.295 -0.535486 -3.2218 0
M  V30 7597 H 735.954 -2.57744 -2.60698 0
M  V30 7598 H 735.602 -1.45617 -4.81461 0
M  V30 7599 H 735.302 -3.20888 -4.92244 0
M  V30 7600 H 736.826 -2.52709 -5.55851 0
M  V30 7601 H 738.24 -4.14324 -3.96243 0
M  V30 7602 H 736.637 -4.82733 -3.56495 0
M  V30 7603 H 737.707 -4.29183 -2.25676 0
M  V30 7604 N 739.05 0.861098 -1.31996 0
M  V30 7605 C 740.296 1.61721 -1.22369 0
M  V30 7606 C 740.629 1.93 0.215587 0
M  V30 7607 O 739.904 1.56789 1.15098 0
M  V30 7608 C 740.187 2.9417 -2.07691 0
M  V30 7609 C 740.04 2.69714 -3.59965 0
M  V30 7610 C 741.359 3.95372 -1.93312 0
M  V30 7611 H 738.478 0.586822 -0.44588 0
M  V30 7612 H 741.12 0.994788 -1.61876 0
M  V30 7613 H 739.27 3.47292 -1.74128 0
M  V30 7614 H 740.942 2.23196 -4.03709 0
M  V30 7615 H 739.185 2.03789 -3.82952 0
M  V30 7616 H 739.856 3.63996 -4.14983 0
M  V30 7617 H 742.332 3.51487 -2.22701 0
M  V30 7618 H 741.208 4.85916 -2.55298 0
M  V30 7619 H 741.469 4.32865 -0.898922 0
M  V30 7620 N 740.528 1.15101 1.07655 0
M  V30 7621 C 741.939 0.933848 1.61667 0
M  V30 7622 C 742.29 -0.525569 1.8903 0
M  V30 7623 O 741.415 -1.39605 1.65346 0
M  V30 7624 C 742.01 1.68876 2.93711 0
M  V30 7625 C 740.569 1.51697 3.44478 0
M  V30 7626 C 739.716 1.70633 2.18586 0
M  V30 7627 H 742.667 1.30171 0.907816 0
M  V30 7628 H 742.688 1.15645 3.625 0
M  V30 7629 H 742.2 2.7509 2.73764 0
M  V30 7630 H 740.301 0.478635 3.69513 0
M  V30 7631 H 740.414 2.29194 4.20722 0
M  V30 7632 H 738.778 1.13259 2.28132 0
M  V30 7633 H 739.561 2.78206 2.01137 0
M  V30 7634 N 742.006 -1.2595 0.947325 0
M  V30 7635 C 743.234 -1.97544 0.615127 0
M  V30 7636 C 743.649 -1.70484 -0.811221 0
M  V30 7637 O 743.006 -0.97662 -1.5417 0
M  V30 7638 C 743.057 -3.51236 0.855328 0
M  V30 7639 O 742.778 -3.77359 2.22558 0
M  V30 7640 C 744.279 -4.40066 0.534515 0
M  V30 7641 H 741.499 -0.629888 0.231263 0
M  V30 7642 H 744.043 -1.60308 1.26971 0
M  V30 7643 H 742.198 -3.8661 0.247266 0
M  V30 7644 H 742.612 -4.71857 2.29022 0
M  V30 7645 H 744.086 -5.46838 0.753168 0
M  V30 7646 H 744.563 -4.35982 -0.530701 0
M  V30 7647 H 745.169 -4.10245 1.12158 0
M  V30 7648 N 743.484 -0.715051 -1.40445 0
M  V30 7649 C 744.414 -0.0768699 -2.33373 0
M  V30 7650 C 745.395 0.746109 -1.52863 0
M  V30 7651 O 746.58 0.695142 -1.81332 0
M  V30 7652 C 743.71 0.846014 -3.36838 0
M  V30 7653 C 742.664 0.128694 -4.27806 0
M  V30 7654 C 741.99 1.16726 -5.21804 0
M  V30 7655 C 743.29 -1.01679 -5.12307 0
M  V30 7656 H 744.984 -0.853061 -2.8699 0
M  V30 7657 H 742.53 -0.41167 -1.3799 0
M  V30 7658 H 744.483 1.30185 -4.00786 0
M  V30 7659 H 743.207 1.6541 -2.81615 0
M  V30 7660 H 741.866 -0.307314 -3.6531 0
M  V30 7661 H 741.514 1.96838 -4.62887 0
M  V30 7662 H 741.214 0.692188 -5.83509 0
M  V30 7663 H 742.738 1.62321 -5.88629 0
M  V30 7664 H 744.152 -0.640337 -5.69713 0
M  V30 7665 H 742.549 -1.4202 -5.83053 0
M  V30 7666 H 743.619 -1.84769 -4.48317 0
M  V30 7667 N 744.962 1.50701 -0.461195 0
M  V30 7668 C 746.21 2.01867 0.0970051 0
M  V30 7669 C 746.531 1.34591 1.41104 0
M  V30 7670 O 745.801 0.488041 1.89723 0
M  V30 7671 H 744.381 0.74599 0.0388392 0
M  V30 7672 H 747.043 1.85129 -0.609357 0
M  V30 7673 H 746.139 3.11051 0.255688 0
M  V30 7674 N 746.441 0.193421 1.56409 0
M  V30 7675 C 747.687 -0.446449 1.97825 0
M  V30 7676 C 748.02 -1.61386 1.08019 0
M  V30 7677 O 747.295 -1.94053 0.131839 0
M  V30 7678 C 747.578 -0.908199 3.48459 0
M  V30 7679 C 747.431 0.260914 4.49043 0
M  V30 7680 C 748.75 -1.77428 4.0275 0
M  V30 7681 H 745.869 -0.160807 0.719243 0
M  V30 7682 H 748.511 0.284006 1.87865 0
M  V30 7683 H 746.661 -1.53062 3.57077 0
M  V30 7684 H 748.333 0.898548 4.52464 0
M  V30 7685 H 746.576 0.912949 4.24085 0
M  V30 7686 H 747.247 -0.104657 5.51901 0
M  V30 7687 H 749.723 -1.24936 3.96901 0
M  V30 7688 H 748.599 -2.06633 5.08521 0
M  V30 7689 H 748.86 -2.72788 3.47907 0
M  V30 7690 N 747.919 -1.57396 -0.0801906 0
M  V30 7691 C 749.196 -1.77883 -0.813451 0
M  V30 7692 C 749.576 -0.778879 -1.96206 0
M  V30 7693 O 748.924 0.189683 -2.27711 0
M  V30 7694 C 749.134 -3.24116 -1.2942 0
M  V30 7695 C 750.482 -3.87714 -1.73098 0
M  V30 7696 O 751.506 -3.27956 -1.39007 0
M  V30 7697 O 750.365 -4.92828 -2.36184 0
M  V30 7698 H 747.459 -0.729727 -0.389138 0
M  V30 7699 H 750.005 -1.69591 -0.0609166 0
M  V30 7700 H 748.777 -3.88443 -0.471947 0
M  V30 7701 H 748.4 -3.371 -2.1083 0
M  V30 7702 N 749.397 0.351382 -1.53633 0
M  V30 7703 C 750.813 0.693987 -1.43722 0
M  V30 7704 C 751.013 1.9274 -0.587669 0
M  V30 7705 O 750.069 2.52387 -0.0756082 0
M  V30 7706 C 751.382 0.893937 -2.87105 0
M  V30 7707 C 752.93 0.993051 -2.96829 0
M  V30 7708 C 753.405 1.22537 -4.41303 0
M  V30 7709 N 754.896 1.29275 -4.44795 0
M  V30 7710 C 755.631 1.48988 -5.53706 0
M  V30 7711 N 755.127 1.65924 -6.72637 0
M  V30 7712 N 756.92 1.51472 -5.41306 0
M  V30 7713 H 749.071 -0.459688 -2.07366 0
M  V30 7714 H 751.334 -0.143684 -0.937048 0
M  V30 7715 H 751.04 0.0592517 -3.5165 0
M  V30 7716 H 750.914 1.79795 -3.31592 0
M  V30 7717 H 753.301 1.81827 -2.32429 0
M  V30 7718 H 753.382 0.0661119 -2.55715 0
M  V30 7719 H 753.026 0.405117 -5.06282 0
M  V30 7720 H 752.956 2.16575 -4.80003 0
M  V30 7721 H 755.447 1.17743 -3.59089 0
M  V30 7722 H 755.76 1.80578 -7.51406 0
M  V30 7723 H 754.105 1.63075 -6.75597 0
M  V30 7724 H 757.296 1.37818 -4.47352 0
M  V30 7725 H 757.469 1.66493 -6.26246 0
M  V30 7726 N 750.875 1.45233 0.611969 0
M  V30 7727 C 752.105 1.52318 1.39581 0
M  V30 7728 C 752.513 0.153093 1.8858 0
M  V30 7729 O 751.856 -0.854792 1.62601 0
M  V30 7730 C 751.918 2.4426 2.63775 0
M  V30 7731 C 751.582 3.91079 2.36445 0
M  V30 7732 C 752.579 4.81099 1.97079 0
M  V30 7733 C 750.264 4.35958 2.49492 0
M  V30 7734 C 752.258 6.14002 1.71115 0
M  V30 7735 C 749.945 5.68903 2.23142 0
M  V30 7736 C 750.943 6.57744 1.84015 0
M  V30 7737 O 750.631 7.88226 1.5797 0
M  V30 7738 H 750.363 0.518428 0.43383 0
M  V30 7739 H 752.917 1.91067 0.753837 0
M  V30 7740 H 751.147 2.00474 3.30677 0
M  V30 7741 H 752.836 2.42077 3.25812 0
M  V30 7742 H 753.602 4.47692 1.86539 0
M  V30 7743 H 749.481 3.67053 2.78914 0
M  V30 7744 H 753.025 6.83305 1.405 0
M  V30 7745 H 748.922 6.01866 2.33297 0
M  V30 7746 H 749.69 8.00211 1.72058 0
M  V30 7747 N 752.353 -0.854086 1.3245 0
M  V30 7748 C 753.286 -1.96654 1.15768 0
M  V30 7749 C 754.264 -1.625 0.0569975 0
M  V30 7750 O 755.448 -1.87254 0.216412 0
M  V30 7751 C 752.575 -3.29776 0.772361 0
M  V30 7752 C 751.621 -3.82909 1.87837 0
M  V30 7753 S 752.454 -4.0643 3.48675 0
M  V30 7754 C 753.61 -5.42526 3.12116 0
M  V30 7755 H 753.843 -2.10504 2.09942 0
M  V30 7756 H 751.376 -1.00612 1.17118 0
M  V30 7757 H 753.334 -4.06706 0.556809 0
M  V30 7758 H 751.995 -3.13739 -0.150519 0
M  V30 7759 H 751.188 -4.79192 1.56177 0
M  V30 7760 H 750.79 -3.12825 2.0498 0
M  V30 7761 H 753.082 -6.24792 2.61996 0
M  V30 7762 H 754.025 -5.79148 4.07422 0
M  V30 7763 H 754.433 -5.06556 2.49121 0
M  V30 7764 N 753.831 -1.1567 -1.07043 0
M  V30 7765 C 754.794 -0.858906 -2.12498 0
M  V30 7766 C 755.794 0.142735 -1.60165 0
M  V30 7767 O 756.984 -0.0872678 -1.73981 0
M  V30 7768 C 754.116 -0.283021 -3.39723 0
M  V30 7769 H 755.309 -1.79368 -2.40348 0
M  V30 7770 H 752.862 -0.964608 -1.22984 0
M  V30 7771 H 753.597 0.659796 -3.17517 0
M  V30 7772 H 753.382 -1.00467 -3.7901 0
M  V30 7773 H 754.872 -0.0923543 -4.17498 0
M  V30 7774 N 755.309 1.25446 -0.953992 0
M  V30 7775 C 756.586 1.884 -0.525823 0
M  V30 7776 C 756.966 1.86079 0.996891 0
M  V30 7777 O 756.314 1.32389 1.8624 0
M  V30 7778 C 756.524 3.31154 -1.10172 0
M  V30 7779 C 757.872 4.07926 -1.17819 0
M  V30 7780 O 758.896 3.40273 -1.05323 0
M  V30 7781 O 757.755 5.28942 -1.37415 0
M  V30 7782 H 754.849 0.808629 -0.173345 0
M  V30 7783 H 757.395 1.33522 -1.04738 0
M  V30 7784 H 756.167 3.27271 -2.14499 0
M  V30 7785 H 755.79 3.93588 -0.56338 0
M  V30 7786 N 756.787 0.722489 1.40064 0
M  V30 7787 C 758.064 0.191829 1.94657 0
M  V30 7788 C 758.444 -1.30389 1.66018 0
M  V30 7789 O 757.792 -2.06342 0.981588 0
M  V30 7790 C 758.002 0.511978 3.45224 0
M  V30 7791 C 759.35 0.454426 4.22161 0
M  V30 7792 O 760.374 0.448438 3.53366 0
M  V30 7793 O 759.233 0.437986 5.44742 0
M  V30 7794 H 756.327 0.0307821 0.826427 0
M  V30 7795 H 758.873 0.800493 1.49634 0
M  V30 7796 H 757.645 1.54622 3.59455 0
M  V30 7797 H 757.268 -0.126296 3.97399 0
M  V30 7798 N 758.265 -1.50454 0.469181 0
M  V30 7799 C 759.514 -2.01507 -0.0881425 0
M  V30 7800 C 759.827 -1.35613 -1.40956 0
M  V30 7801 O 761.033 -1.77812 -2.05171 0
M  V30 7802 C 759.489 -3.59301 -0.207596 0
M  V30 7803 C 759.097 -4.34152 1.10527 0
M  V30 7804 C 760.841 -4.18401 -0.716981 0
M  V30 7805 C 758.748 -5.83725 0.949717 0
M  V30 7806 H 757.678 -0.753106 -0.0367156 0
M  V30 7807 H 760.329 -1.73282 0.603788 0
M  V30 7808 H 758.711 -3.84106 -0.963265 0
M  V30 7809 H 759.885 -4.21073 1.87175 0
M  V30 7810 H 758.2 -3.86652 1.54562 0
M  V30 7811 H 760.797 -5.27895 -0.850363 0
M  V30 7812 H 761.14 -3.79657 -1.70782 0
M  V30 7813 H 761.673 -3.97796 -0.0187511 0
M  V30 7814 H 758.412 -6.26938 1.91387 0
M  V30 7815 H 757.932 -5.99383 0.223591 0
M  V30 7816 H 759.611 -6.44065 0.61557 0
M  V30 7817 N 759.743 -0.201713 -1.56304 0
M  V30 7818 C 760.653 0.728296 -2.23009 0
M  V30 7819 C 761.669 1.22945 -1.23128 0
M  V30 7820 O 762.845 1.27523 -1.55884 0
M  V30 7821 C 759.91 1.92792 -2.88153 0
M  V30 7822 C 758.971 1.47068 -4.03323 0
M  V30 7823 C 758.204 2.61312 -4.65351 0
M  V30 7824 O 758.427 3.7896 -4.26317 0
M  V30 7825 O 757.361 2.33646 -5.54701 0
M  V30 7826 H 761.187 0.190166 -3.03104 0
M  V30 7827 H 758.772 0.0278725 -1.49374 0
M  V30 7828 H 760.654 2.6289 -3.29343 0
M  V30 7829 H 759.329 2.45452 -2.11033 0
M  V30 7830 H 758.236 0.738299 -3.66742 0
M  V30 7831 H 759.569 0.990666 -4.82127 0
M  V30 7832 N 761.222 1.57436 0.0718424 0
M  V30 7833 C 762.152 2.06724 1.08571 0
M  V30 7834 C 763.133 0.960731 1.40371 0
M  V30 7835 O 764.318 1.23345 1.49999 0
M  V30 7836 C 761.448 2.51112 2.39916 0
M  V30 7837 C 760.402 3.65639 2.22469 0
M  V30 7838 C 759.728 3.96082 3.59198 0
M  V30 7839 C 761.028 4.95687 1.64596 0
M  V30 7840 H 762.722 2.91679 0.675569 0
M  V30 7841 H 760.268 1.40319 0.32352 0
M  V30 7842 H 762.221 2.84206 3.11135 0
M  V30 7843 H 760.945 1.63186 2.8291 0
M  V30 7844 H 759.604 3.32828 1.53691 0
M  V30 7845 H 759.252 3.05287 3.99761 0
M  V30 7846 H 758.952 4.73199 3.48362 0
M  V30 7847 H 760.476 4.31672 4.31847 0
M  V30 7848 H 761.89 5.27011 2.25681 0
M  V30 7849 H 760.287 5.77126 1.64457 0
M  V30 7850 H 761.357 4.8108 0.60744 0
M  V30 7851 N 762.7 -0.34323 1.53817 0
M  V30 7852 C 763.946 -1.08504 1.71332 0
M  V30 7853 C 764.279 -1.88294 0.475285 0
M  V30 7854 O 763.554 -1.87205 -0.527688 0
M  V30 7855 C 763.837 -2.02597 2.97702 0
M  V30 7856 C 763.69 -1.26268 4.31713 0
M  V30 7857 C 765.009 -3.0241 3.19744 0
M  V30 7858 H 762.128 -0.393072 0.623429 0
M  V30 7859 H 764.77 -0.363579 1.86489 0
M  V30 7860 H 762.92 -2.64118 2.8491 0
M  V30 7861 H 764.592 -0.673594 4.56356 0
M  V30 7862 H 762.835 -0.564696 4.30109 0
M  V30 7863 H 763.506 -1.95253 5.16314 0
M  V30 7864 H 765.982 -2.51004 3.31868 0
M  V30 7865 H 764.858 -3.65449 4.09558 0
M  V30 7866 H 765.119 -3.73806 2.36054 0
M  V30 7867 N 764.178 -1.45556 -0.604258 0
M  V30 7868 C 765.141 -1.54091 -1.69672 0
M  V30 7869 C 766.141 -0.420076 -1.55216 0
M  V30 7870 O 767.331 -0.683671 -1.60224 0
M  V30 7871 C 764.463 -1.44063 -3.08964 0
M  V30 7872 H 765.656 -2.51431 -1.6347 0
M  V30 7873 H 763.209 -1.33046 -0.820273 0
M  V30 7874 H 763.944 -0.479201 -3.2074 0
M  V30 7875 H 763.729 -2.25362 -3.20865 0
M  V30 7876 H 765.219 -1.53075 -3.88533 0
M  V30 7877 N 765.656 0.84705 -1.32902 0
M  V30 7878 C 766.933 1.58583 -1.14503 0
M  V30 7879 C 767.313 2.09075 0.291724 0
M  V30 7880 O 766.661 1.88636 1.28952 0
M  V30 7881 C 766.871 2.72605 -2.17916 0
M  V30 7882 C 768.219 3.41993 -2.51646 0
M  V30 7883 O 769.243 2.82838 -2.1652 0
M  V30 7884 O 768.102 4.48761 -3.1189 0
M  V30 7885 H 765.196 0.698756 -0.442345 0
M  V30 7886 H 767.742 0.890516 -1.44457 0
M  V30 7887 H 766.514 2.32876 -3.14459 0
M  V30 7888 H 766.137 3.49807 -1.89 0
M  V30 7889 N 767.134 1.16236 1.06428 0
M  V30 7890 C 768.097 0.870163 2.1204 0
M  V30 7891 C 769.097 -0.134239 1.60239 0
M  V30 7892 O 770.287 0.0964932 1.73933 0
M  V30 7893 C 767.419 0.301033 3.39568 0
M  V30 7894 H 768.612 1.8064 2.39394 0
M  V30 7895 H 766.165 0.971116 1.2247 0
M  V30 7896 H 766.9 -0.642948 3.17863 0
M  V30 7897 H 766.685 1.02475 3.78472 0
M  V30 7898 H 768.175 0.114494 4.17443 0
M  V30 7899 N 768.612 -1.24939 0.960631 0
M  V30 7900 C 769.542 -2.28 0.503815 0
M  V30 7901 C 770.523 -1.63959 -0.452928 0
M  V30 7902 O 771.708 -1.91009 -0.350585 0
M  V30 7903 C 768.838 -3.46643 -0.213535 0
M  V30 7904 C 767.792 -4.22903 0.658535 0
M  V30 7905 C 767.118 -5.34363 -0.189902 0
M  V30 7906 C 768.418 -4.84949 1.93963 0
M  V30 7907 H 770.112 -2.66462 1.36521 0
M  V30 7908 H 767.658 -1.28093 0.657897 0
M  V30 7909 H 769.611 -4.1787 -0.544286 0
M  V30 7910 H 768.335 -3.07187 -1.10923 0
M  V30 7911 H 766.994 -3.53467 0.972455 0
M  V30 7912 H 766.642 -4.91147 -1.08553 0
M  V30 7913 H 766.342 -5.86302 0.390331 0
M  V30 7914 H 767.866 -6.0842 -0.515484 0
M  V30 7915 H 769.28 -5.48288 1.67491 0
M  V30 7916 H 767.677 -5.47091 2.46601 0
M  V30 7917 H 768.747 -4.06799 2.639 0
M  V30 7918 N 770.09 -0.729906 -1.39679 0
M  V30 7919 C 771.315 -0.284345 -2.05442 0
M  V30 7920 C 771.74 1.07056 -1.54663 0
M  V30 7921 O 771.098 1.67732 -0.688157 0
M  V30 7922 C 771.146 -0.290089 -3.59431 0
M  V30 7923 O 770.25 0.723978 -4.05995 0
M  V30 7924 H 769.591 -0.130311 -0.651088 0
M  V30 7925 H 772.121 -0.994403 -1.78809 0
M  V30 7926 H 772.131 -0.132712 -4.07784 0
M  V30 7927 H 770.806 -1.27877 -3.95753 0
M  V30 7928 H 769.383 0.533154 -3.69069 0
M  V30 7929 N 771.568 1.50203 -0.477153 0
M  V30 7930 C 772.984 1.59056 -0.131663 0
M  V30 7931 C 773.184 1.48473 1.36227 0
M  V30 7932 O 772.24 1.34635 2.13611 0
M  V30 7933 C 773.553 2.92741 -0.687254 0
M  V30 7934 C 775.101 3.0615 -0.651223 0
M  V30 7935 C 775.576 4.42419 -1.18446 0
M  V30 7936 N 777.067 4.48847 -1.14413 0
M  V30 7937 C 777.802 5.52689 -1.52717 0
M  V30 7938 N 777.298 6.63754 -1.98499 0
M  V30 7939 N 779.091 5.43267 -1.44282 0
M  V30 7940 H 771.242 1.55325 -1.44872 0
M  V30 7941 H 773.505 0.734395 -0.599473 0
M  V30 7942 H 773.211 3.0598 -1.73405 0
M  V30 7943 H 773.085 3.76961 -0.134215 0
M  V30 7944 H 775.472 2.92556 0.386677 0
M  V30 7945 H 775.553 2.23673 -1.24114 0
M  V30 7946 H 775.197 4.56763 -2.22103 0
M  V30 7947 H 775.127 5.23498 -0.570709 0
M  V30 7948 H 777.618 3.69152 -0.808416 0
M  V30 7949 H 777.931 7.39059 -2.25859 0
M  V30 7950 H 776.276 6.64858 -2.02456 0
M  V30 7951 H 779.467 4.55387 -1.08352 0
M  V30 7952 H 779.64 6.24074 -1.74459 0
M  V30 7953 N 773.046 0.209999 1.56195 0
M  V30 7954 C 774.294 -0.423974 1.97603 0
M  V30 7955 C 774.615 -1.61112 1.09854 0
M  V30 7956 O 773.885 -1.95134 0.173032 0
M  V30 7957 H 772.465 -0.159629 0.729745 0
M  V30 7958 H 775.127 0.300205 1.92574 0
M  V30 7959 H 774.223 -0.75809 3.02753 0
M  V30 7960 N 774.524 -1.57472 -0.0634922 0
M  V30 7961 C 775.434 -2.07621 -1.09227 0
M  V30 7962 C 776.45 -1.00746 -1.41867 0
M  V30 7963 O 777.626 -1.32269 -1.51878 0
M  V30 7964 C 774.691 -2.51707 -2.38421 0
M  V30 7965 C 773.752 -3.72917 -2.12676 0
M  V30 7966 C 772.985 -4.14891 -3.3571 0
M  V30 7967 O 773.208 -3.56663 -4.45137 0
M  V30 7968 O 772.142 -5.07616 -3.23434 0
M  V30 7969 H 775.968 -2.95612 -0.696205 0
M  V30 7970 H 773.553 -1.46787 -0.27819 0
M  V30 7971 H 775.435 -2.80547 -3.14438 0
M  V30 7972 H 774.11 -1.66842 -2.77391 0
M  V30 7973 H 773.017 -3.49148 -1.34337 0
M  V30 7974 H 774.35 -4.5866 -1.78583 0
M  V30 7975 N 776.003 0.335068 -1.53997 0
M  V30 7976 C 777.25 1.07435 -1.71651 0
M  V30 7977 C 777.578 1.88378 -0.48413 0
M  V30 7978 O 776.833 1.8827 0.534139 0
M  V30 7979 C 777.132 2.0364 -2.9371 0
M  V30 7980 C 776.798 1.38942 -4.28959 0
M  V30 7981 C 775.46 1.21027 -4.65732 0
M  V30 7982 C 777.812 0.924083 -5.12943 0
M  V30 7983 C 775.14 0.552097 -5.84097 0
M  V30 7984 C 777.492 0.27978 -6.31981 0
M  V30 7985 C 776.156 0.0883843 -6.67441 0
M  V30 7986 H 775.426 0.393133 -0.628114 0
M  V30 7987 H 778.073 0.352712 -1.88224 0
M  V30 7988 H 776.378 2.82215 -2.71775 0
M  V30 7989 H 778.075 2.6085 -3.04562 0
M  V30 7990 H 774.665 1.53885 -4.00022 0
M  V30 7991 H 778.849 1.05032 -4.85059 0
M  V30 7992 H 774.105 0.392502 -6.10139 0
M  V30 7993 H 778.279 -0.0888479 -6.96343 0
M  V30 7994 H 775.906 -0.423657 -7.59019 0
M  V30 7995 N 777.481 1.45874 0.596531 0
M  V30 7996 C 778.411 1.5824 1.71705 0
M  V30 7997 C 779.392 0.433366 1.64487 0
M  V30 7998 O 780.577 0.657895 1.82717 0
M  V30 7999 C 777.707 1.55927 3.10329 0
M  V30 8000 C 776.661 2.69659 3.32367 0
M  V30 8001 C 775.987 2.52403 4.71377 0
M  V30 8002 C 777.287 4.11591 3.21544 0
M  V30 8003 H 778.981 2.52035 1.61613 0
M  V30 8004 H 776.527 1.21297 0.776082 0
M  V30 8005 H 778.48 1.63173 3.88526 0
M  V30 8006 H 777.204 0.586674 3.21288 0
M  V30 8007 H 775.863 2.61859 2.56564 0
M  V30 8008 H 775.511 1.53258 4.79083 0
M  V30 8009 H 775.211 3.28679 4.87077 0
M  V30 8010 H 776.735 2.6152 5.5176 0
M  V30 8011 H 778.149 4.20576 3.89601 0
M  V30 8012 H 776.546 4.88344 3.4877 0
M  V30 8013 H 777.616 4.32719 2.1882 0
M  V30 8014 N 778.959 -0.83999 1.33349 0
M  V30 8015 C 780.375 -1.13049 1.12659 0
M  V30 8016 C 780.575 -2.01328 -0.0832613 0
M  V30 8017 O 779.631 -2.40669 -0.763856 0
M  V30 8018 C 780.944 -1.79366 2.41347 0
M  V30 8019 C 782.492 -1.91937 2.47243 0
M  V30 8020 C 782.967 -2.6167 3.75889 0
M  V30 8021 N 784.458 -2.69184 3.76954 0
M  V30 8022 C 785.193 -3.23827 4.73206 0
M  V30 8023 N 784.689 -3.79166 5.79832 0
M  V30 8024 N 786.482 -3.22068 4.60683 0
M  V30 8025 H 778.633 -0.252432 2.10895 0
M  V30 8026 H 780.896 -0.174501 0.931801 0
M  V30 8027 H 780.602 -1.2196 3.29877 0
M  V30 8028 H 780.476 -2.79396 2.53412 0
M  V30 8029 H 782.863 -2.48498 1.59163 0
M  V30 8030 H 782.944 -0.908604 2.39119 0
M  V30 8031 H 782.588 -2.05769 4.64351 0
M  V30 8032 H 782.518 -3.63217 3.81289 0
M  V30 8033 H 785.009 -2.2994 2.99893 0
M  V30 8034 H 785.322 -4.19061 6.49313 0
M  V30 8035 H 783.667 -3.77457 5.83568 0
M  V30 8036 H 786.858 -2.78092 3.7654 0
M  V30 8037 H 787.031 -3.64351 5.35866 0
M  V30 8038 N 780.437 -1.16799 -1.0581 0
M  V30 8039 C 781.4 -0.881396 -2.11575 0
M  V30 8040 C 782.4 0.12574 -1.60308 0
M  V30 8041 O 783.59 -0.105716 -1.73879 0
M  V30 8042 C 780.722 -0.319037 -3.39404 0
M  V30 8043 H 781.915 -1.81907 -2.38432 0
M  V30 8044 H 779.468 -0.977597 -1.21954 0
M  V30 8045 H 780.203 0.626082 -3.18199 0
M  V30 8046 H 779.988 -1.04481 -3.77923 0
M  V30 8047 H 781.478 -0.13663 -4.17376 0
M  V30 8048 N 781.915 1.24427 -0.967243 0
M  V30 8049 C 783.164 1.91789 -0.624478 0
M  V30 8050 C 783.477 1.76448 0.844129 0
M  V30 8051 O 784.683 2.38495 1.2974 0
M  V30 8052 C 783.139 3.43743 -1.06626 0
M  V30 8053 C 782.747 3.67771 -2.55829 0
M  V30 8054 C 784.491 4.16958 -0.79662 0
M  V30 8055 C 782.398 5.13293 -2.93742 0
M  V30 8056 H 781.328 0.71811 -0.229856 0
M  V30 8057 H 783.979 1.41081 -1.17339 0
M  V30 8058 H 782.361 3.93484 -0.445663 0
M  V30 8059 H 783.535 3.28631 -3.23015 0
M  V30 8060 H 781.85 3.07841 -2.80398 0
M  V30 8061 H 784.447 5.24171 -1.05589 0
M  V30 8062 H 784.79 4.15442 0.267163 0
M  V30 8063 H 785.323 3.73164 -1.37816 0
M  V30 8064 H 782.062 5.19931 -3.9919 0
M  V30 8065 H 781.582 5.53433 -2.3124 0
M  V30 8066 H 783.261 5.81521 -2.83623 0
M  V30 8067 N 783.393 0.737304 1.3929 0
M  V30 8068 C 784.356 0.10731 2.28949 0
M  V30 8069 C 785.356 -0.664716 1.46418 0
M  V30 8070 O 786.546 -0.493392 1.67067 0
M  V30 8071 C 783.678 -0.857145 3.29948 0
M  V30 8072 H 784.871 0.89725 2.86163 0
M  V30 8073 H 782.424 0.503279 1.47976 0
M  V30 8074 H 783.159 -1.67336 2.77794 0
M  V30 8075 H 782.944 -0.306167 3.90903 0
M  V30 8076 H 784.434 -1.29444 3.97031 0
M  V30 8077 N 784.871 -1.49948 0.485112 0
M  V30 8078 C 786.287 -1.58984 0.140096 0
M  V30 8079 C 786.487 -1.49194 -1.35438 0
M  V30 8080 O 785.543 -1.35765 -2.12894 0
M  V30 8081 C 786.856 -2.92372 0.702769 0
M  V30 8082 C 788.404 -3.05801 0.66745 0
M  V30 8083 C 788.879 -4.41785 1.20791 0
M  V30 8084 N 790.37 -4.48234 1.16792 0
M  V30 8085 C 791.105 -5.51871 1.55646 0
M  V30 8086 N 790.601 -6.62692 2.02016 0
M  V30 8087 N 792.394 -5.42494 1.47161 0
M  V30 8088 H 784.545 -1.54555 1.45693 0
M  V30 8089 H 786.808 -0.731206 0.603359 0
M  V30 8090 H 786.514 -3.05056 1.75025 0
M  V30 8091 H 786.388 -3.76885 0.154205 0
M  V30 8092 H 788.775 -2.92757 -0.371157 0
M  V30 8093 H 788.856 -2.23011 1.25298 0
M  V30 8094 H 788.5 -4.55579 2.24522 0
M  V30 8095 H 788.43 -5.23188 0.598464 0
M  V30 8096 H 790.921 -3.68718 0.827982 0
M  V30 8097 H 791.234 -7.3785 2.29775 0
M  V30 8098 H 789.579 -6.63775 2.05979 0
M  V30 8099 H 792.77 -4.54806 1.10765 0
M  V30 8100 H 792.943 -6.2314 1.77766 0
M  V30 8101 N 786.349 -0.21828 -1.56081 0
M  V30 8102 C 787.259 0.704602 -2.23769 0
M  V30 8103 C 788.275 1.21633 -1.24425 0
M  V30 8104 O 789.451 1.25862 -1.57228 0
M  V30 8105 C 786.516 1.89725 -2.90182 0
M  V30 8106 C 785.577 1.42782 -4.0486 0
M  V30 8107 C 784.81 2.56361 -4.68097 0
M  V30 8108 O 785.033 3.74417 -4.30312 0
M  V30 8109 O 783.967 2.2775 -5.57148 0
M  V30 8110 H 787.793 0.158007 -3.03289 0
M  V30 8111 H 785.378 0.0120279 -1.49395 0
M  V30 8112 H 787.26 2.59382 -3.32113 0
M  V30 8113 H 785.935 2.432 -2.13624 0
M  V30 8114 H 784.842 0.699359 -3.67505 0
M  V30 8115 H 786.175 0.939474 -4.83151 0
M  V30 8116 N 787.827 1.57504 0.0551401 0
M  V30 8117 C 789.055 1.92294 0.76358 0
M  V30 8118 C 789.47 0.815774 1.70266 0
M  V30 8119 O 788.827 -0.209772 1.8129 0
M  V30 8120 C 788.878 3.26914 1.54302 0
M  V30 8121 O 788.599 4.33375 0.641666 0
M  V30 8122 C 790.1 3.75825 2.35097 0
M  V30 8123 H 787.32 0.635229 0.216159 0
M  V30 8124 H 789.864 2.0449 0.0204385 0
M  V30 8125 H 788.019 3.16196 2.23828 0
M  V30 8126 H 788.433 5.10927 1.1855 0
M  V30 8127 H 789.907 4.72603 2.8522 0
M  V30 8128 H 790.384 3.0568 3.15367 0
M  V30 8129 H 790.99 3.89542 1.70696 0
M  V30 8130 N 789.305 -0.326896 1.54172 0
M  V30 8131 C 790.582 -1.08326 1.62864 0
M  V30 8132 C 790.962 -2.06018 0.46039 0
M  V30 8133 O 790.31 -2.21889 -0.545685 0
M  V30 8134 C 790.52 -1.78816 2.9971 0
M  V30 8135 C 791.868 -2.31958 3.55641 0
M  V30 8136 O 792.892 -1.88888 3.01993 0
M  V30 8137 O 791.751 -3.10801 4.49517 0
M  V30 8138 H 788.845 -0.499131 0.659392 0
M  V30 8139 H 791.391 -0.327054 1.66519 0
M  V30 8140 H 790.163 -1.07739 3.76176 0
M  V30 8141 H 789.786 -2.61255 2.99719 0
M  V30 8142 N 790.784 -1.46188 -0.588786 0
M  V30 8143 C 792.033 -1.50452 -1.34339 0
M  V30 8144 C 792.346 -0.158096 -1.9496 0
M  V30 8145 O 793.552 -0.0784918 -2.71387 0
M  V30 8146 C 792.008 -2.65074 -2.43441 0
M  V30 8147 C 791.616 -4.06111 -1.8915 0
M  V30 8148 C 793.36 -2.78603 -3.20282 0
M  V30 8149 C 791.267 -5.12084 -2.95845 0
M  V30 8150 H 790.197 -0.559905 -0.504997 0
M  V30 8151 H 792.848 -1.72382 -0.629014 0
M  V30 8152 H 791.23 -2.36462 -3.1765 0
M  V30 8153 H 792.404 -4.44487 -1.21524 0
M  V30 8154 H 790.719 -3.97197 -1.24995 0
M  V30 8155 H 793.316 -3.54944 -3.99898 0
M  V30 8156 H 793.659 -1.85902 -3.72486 0
M  V30 8157 H 794.192 -3.06832 -2.53178 0
M  V30 8158 H 790.931 -6.06556 -2.48535 0
M  V30 8159 H 790.451 -4.78259 -3.61979 0
M  V30 8160 H 792.13 -5.37661 -3.59902 0
M  V30 8161 N 792.262 0.832906 -1.33792 0
M  V30 8162 C 793.194 1.95042 -1.2038 0
M  V30 8163 C 794.207 1.62253 -0.133299 0
M  V30 8164 O 795.396 1.74315 -0.384261 0
M  V30 8165 C 792.496 3.287 -0.825215 0
M  V30 8166 C 791.669 3.89581 -1.98861 0
M  V30 8167 C 790.728 5.01602 -1.59003 0
M  V30 8168 O 789.754 5.20431 -2.30522 0
M  V30 8169 N 790.956 5.78356 -0.498446 0
M  V30 8170 H 793.721 2.07083 -2.16649 0
M  V30 8171 H 791.282 1.00896 -1.26616 0
M  V30 8172 H 793.274 4.01074 -0.540559 0
M  V30 8173 H 791.844 3.12565 0.0469796 0
M  V30 8174 H 791.064 3.09723 -2.43856 0
M  V30 8175 H 792.352 4.26989 -2.76691 0
M  V30 8176 H 791.75 5.65618 0.0963297 0
M  V30 8177 H 790.307 6.51226 -0.273485 0
M  V30 8178 N 793.74 1.17359 1.05189 0
M  V30 8179 C 794.67 0.91365 2.14883 0
M  V30 8180 C 795.651 -0.144365 1.69486 0
M  V30 8181 O 796.836 0.00587861 1.94199 0
M  V30 8182 C 793.966 0.426196 3.44675 0
M  V30 8183 C 792.92 1.4234 4.03638 0
M  V30 8184 C 792.246 0.793902 5.28773 0
M  V30 8185 C 793.546 2.7966 4.41121 0
M  V30 8186 H 795.24 1.831 2.36885 0
M  V30 8187 H 792.786 0.881781 1.13845 0
M  V30 8188 H 794.739 0.231767 4.20762 0
M  V30 8189 H 793.463 -0.526693 3.22325 0
M  V30 8190 H 792.122 1.60457 3.2962 0
M  V30 8191 H 791.77 -0.165824 5.02727 0
M  V30 8192 H 791.47 1.45959 5.69183 0
M  V30 8193 H 792.994 0.609747 6.07548 0
M  V30 8194 H 794.408 2.6526 5.08242 0
M  V30 8195 H 792.805 3.42807 4.92548 0
M  V30 8196 H 793.875 3.34068 3.51464 0
M  V30 8197 N 795.218 -1.23913 0.973828 0
M  V30 8198 C 796.634 -1.44325 0.681363 0
M  V30 8199 C 796.834 -1.86832 -0.754728 0
M  V30 8200 O 795.89 -2.01024 -1.52793 0
M  V30 8201 C 797.203 -2.50017 1.67069 0
M  V30 8202 C 798.751 -2.63838 1.68399 0
M  V30 8203 C 799.226 -3.72734 2.66145 0
M  V30 8204 N 800.717 -3.80169 2.64624 0
M  V30 8205 C 801.452 -4.6397 3.36927 0
M  V30 8206 N 800.948 -5.51911 4.18767 0
M  V30 8207 N 802.741 -4.58106 3.25722 0
M  V30 8208 H 794.892 -0.946204 1.9016 0
M  V30 8209 H 797.155 -0.477374 0.819035 0
M  V30 8210 H 796.861 -2.25686 2.69738 0
M  V30 8211 H 796.735 -3.48287 1.4483 0
M  V30 8212 H 799.122 -2.87524 0.664379 0
M  V30 8213 H 799.203 -1.65906 1.94702 0
M  V30 8214 H 798.847 -3.49797 3.68245 0
M  V30 8215 H 798.777 -4.70193 2.3712 0
M  V30 8216 H 801.268 -3.17319 2.05224 0
M  V30 8217 H 801.581 -6.12828 4.70809 0
M  V30 8218 H 799.926 -5.51556 4.2286 0
M  V30 8219 H 803.117 -3.8842 2.61242 0
M  V30 8220 H 803.29 -5.23188 3.82333 0
M  V30 8221 O 796.735 -0.882192 -1.35276 0
M  V30 8222 H 797.426 -0.486499 -1.87491 0
M  V30 END ATOM
M  V30 BEGIN BOND
M  V30 END BOND
M  V30 END CTAB
M  END
$$$$
