drugbank_target|Q8GN86 4-chlorobenzoyl CoA ligase (DB03728)
 OpenBabel12092120283D

  0  0  0     0  0            999 V3000
M  V30 BEGIN CTAB
M  V30 COUNTS 7702 7774 0 0 0
M  V30 BEGIN ATOM
M  V30 1 H -0.908 1.98254 -0.117106 0
M  V30 2 N 0 1.576 0 0
M  V30 3 C 0.933 2.03868 1.02534 0
M  V30 4 C 1.911 0.928543 1.3348 0
M  V30 5 O 3.095 1.19667 1.45644 0
M  V30 6 C 0.222 2.43627 2.35294 0
M  V30 7 C -0.732 3.65373 2.2001 0
M  V30 8 S 0.101 5.13292 1.52614 0
M  V30 9 C 1.257 5.56322 2.86805 0
M  V30 10 H 1.49 2.90518 0.631377 0
M  V30 11 H -0.977 1.52953 0.210867 0
M  V30 12 H 0.981 2.67203 3.11629 0
M  V30 13 H -0.358 1.57376 2.7183 0
M  V30 14 H -1.165 3.90944 3.18086 0
M  V30 15 H -1.563 3.418 1.51819 0
M  V30 16 H 0.729 5.58782 3.83104 0
M  V30 17 H 1.672 6.56266 2.65933 0
M  V30 18 H 2.08 4.83886 2.90714 0
M  V30 19 N 1.4781 -0.272755 1.55222 0
M  V30 20 C 2.4101 -1.35946 1.8453 0
M  V30 21 C 3.4231 -1.45525 0.729818 0
M  V30 22 O 4.6121 -1.47337 1.00767 0
M  V30 23 C 1.7121 -2.74069 1.99347 0
M  V30 24 C 0.8851 -2.87079 3.30007 0
M  V30 25 C -0.0559 -4.05879 3.34886 0
M  V30 26 O -1.0299 -3.96626 4.08261 0
M  V30 27 N 0.1721 -5.17857 2.62307 0
M  V30 28 H 2.9371 -1.11149 2.78327 0
M  V30 29 H 0.4981 -0.462869 1.55142 0
M  V30 30 H 2.4901 -3.51838 1.99981 0
M  V30 31 H 1.0601 -2.91688 1.12415 0
M  V30 32 H 0.2801 -1.96193 3.41909 0
M  V30 33 H 1.5681 -2.92701 4.16177 0
M  V30 34 H 0.9661 -5.28261 2.02377 0
M  V30 35 H -0.4769 -5.93855 2.68663 0
M  V30 36 N 2.9562 -1.48159 -0.537278 0
M  V30 37 C 4.1842 -1.59454 -1.31841 0
M  V30 38 C 4.5992 -0.252065 -1.8711 0
M  V30 39 O 3.9562 0.757621 -1.66031 0
M  V30 40 C 4.0072 -2.63546 -2.47439 0
M  V30 41 O 3.7282 -3.92583 -1.94449 0
M  V30 42 C 5.2292 -2.85212 -3.39366 0
M  V30 43 H 2.4492 -0.53785 -0.401196 0
M  V30 44 H 4.9932 -1.93932 -0.648891 0
M  V30 45 H 3.1482 -2.31946 -3.1029 0
M  V30 46 H 3.5622 -4.49629 -2.70063 0
M  V30 47 H 5.0362 -3.61863 -4.16844 0
M  V30 48 H 5.5132 -1.93765 -3.94147 0
M  V30 49 H 6.1192 -3.18086 -2.82314 0
M  V30 50 N 4.4343 0.785586 -1.36625 0
M  V30 51 C 5.6803 1.54591 -1.31261 0
M  V30 52 C 6.0133 1.93906 0.106823 0
M  V30 53 O 5.2883 1.63007 1.06108 0
M  V30 54 C 5.5713 2.82038 -2.23889 0
M  V30 55 C 5.4243 2.49066 -3.74548 0
M  V30 56 C 6.7433 3.83887 -2.15217 0
M  V30 57 H 3.8623 0.560846 -0.478143 0
M  V30 58 H 6.5043 0.902278 -1.67209 0
M  V30 59 H 4.6543 3.36961 -1.93363 0
M  V30 60 H 6.3263 2.00164 -4.15611 0
M  V30 61 H 4.5693 1.81954 -3.93796 0
M  V30 62 H 5.2403 3.40109 -4.34776 0
M  V30 63 H 7.7163 3.38421 -2.42096 0
M  V30 64 H 6.5923 4.70806 -2.82193 0
M  V30 65 H 6.8533 4.27131 -1.14068 0
M  V30 66 N 5.9124 1.20967 1.01018 0
M  V30 67 C 6.8604 0.961223 2.1181 0
M  V30 68 C 7.8544 -0.0897034 1.69162 0
M  V30 69 O 9.0604 0.0612271 1.79896 0
M  V30 70 H 5.4354 0.29355 0.692338 0
M  V30 71 H 7.4064 1.90178 2.29946 0
M  V30 72 C 6.1554 0.536854 3.4353 0
M  V30 73 H 5.4784 1.33713 3.76777 0
M  V30 74 H 6.9184 0.402286 4.22087 0
M  V30 75 C 5.3774 -0.751574 3.2841 0
M  V30 76 O 5.9074 -1.80841 3.58691 0
M  V30 77 N 4.1134 -0.716079 2.81639 0
M  V30 78 H 3.6604 0.144236 2.57196 0
M  V30 79 H 3.6184 -1.57847 2.71904 0
M  V30 80 N 7.3905 -1.2043 1.01659 0
M  V30 81 C 8.3005 -2.2689 0.596484 0
M  V30 82 C 9.3165 -1.70107 -0.36599 0
M  V30 83 O 10.4925 -2.00117 -0.226942 0
M  V30 84 C 7.5575 -3.4665 -0.0586659 0
M  V30 85 C 6.6185 -4.18662 0.949751 0
M  V30 86 C 5.8515 -5.32705 0.32577 0
M  V30 87 O 6.0745 -5.63656 -0.874509 0
M  V30 88 O 5.0085 -5.92803 1.04249 0
M  V30 89 H 8.8345 -2.65041 1.4828 0
M  V30 90 H 6.4195 -1.27048 0.786082 0
M  V30 91 H 8.3015 -4.19256 -0.424564 0
M  V30 92 H 6.9765 -3.10375 -0.91918 0
M  V30 93 H 5.8835 -3.48229 1.36702 0
M  V30 94 H 7.2165 -4.58878 1.78023 0
M  V30 95 N 8.8686 -0.792821 -1.36206 0
M  V30 96 C 9.8016 -0.139422 -2.27774 0
M  V30 97 C 10.7796 0.68649 -1.47398 0
M  V30 98 O 11.9636 0.656738 -1.7669 0
M  V30 99 C 9.0906 0.807947 -3.28922 0
M  V30 100 C 8.1366 0.0633999 -4.26453 0
M  V30 101 S 8.9696 -1.26319 -5.20388 0
M  V30 102 C 10.1256 -0.31991 -6.25082 0
M  V30 103 H 10.3586 -0.915809 -2.82843 0
M  V30 104 H 7.8916 -0.587203 -1.42798 0
M  V30 105 H 9.8496 1.34908 -3.87699 0
M  V30 106 H 8.5106 1.55761 -2.72759 0
M  V30 107 H 7.7036 0.782386 -4.9789 0
M  V30 108 H 7.3056 -0.407352 -3.71775 0
M  V30 109 H 9.5976 0.499985 -6.75653 0
M  V30 110 H 10.5406 -1.00307 -7.00959 0
M  V30 111 H 10.9486 0.0782694 -5.64446 0
M  V30 112 N 10.3467 1.47872 -0.545128 0
M  V30 113 C 11.2767 2.32661 0.197793 0
M  V30 114 C 12.2577 1.43041 0.920504 0
M  V30 115 O 13.4427 1.71912 0.90333 0
M  V30 116 C 10.5727 3.24569 1.23582 0
M  V30 117 C 9.5267 4.23333 0.630323 0
M  V30 118 C 8.8527 5.0448 1.77211 0
M  V30 119 C 10.1527 5.20704 -0.407974 0
M  V30 120 H 11.8467 2.95024 -0.510045 0
M  V30 121 H 9.3927 1.4187 -0.246731 0
M  V30 122 H 11.3457 3.8272 1.76362 0
M  V30 123 H 10.0697 2.60236 1.97344 0
M  V30 124 H 8.7287 3.6639 0.123922 0
M  V30 125 H 8.3767 4.36561 2.49847 0
M  V30 126 H 8.0767 5.71339 1.37281 0
M  V30 127 H 9.6007 5.65487 2.3034 0
M  V30 128 H 11.0147 5.7329 0.033305 0
M  V30 129 H 9.4117 5.95699 -0.725486 0
M  V30 130 H 10.4817 4.66917 -1.30828 0
M  V30 131 N 11.8248 0.280983 1.55075 0
M  V30 132 C 13.2408 -0.0729964 1.59433 0
M  V30 133 C 13.4408 -1.5411 1.29817 0
M  V30 134 O 12.4968 -2.29086 1.06187 0
M  V30 135 C 13.8098 0.306921 2.9913 0
M  V30 136 C 15.3578 0.254023 3.11968 0
M  V30 137 C 15.8328 0.608467 4.5394 0
M  V30 138 N 17.3238 0.560241 4.59799 0
M  V30 139 C 18.0588 0.80722 5.6769 0
M  V30 140 N 17.5548 1.11912 6.83701 0
M  V30 141 N 19.3478 0.735623 5.57266 0
M  V30 142 H 11.4988 1.238 1.7259 0
M  V30 143 H 13.7618 0.500547 0.805082 0
M  V30 144 H 13.4678 1.32816 3.25657 0
M  V30 145 H 13.3418 -0.349363 3.75579 0
M  V30 146 H 15.7288 -0.75794 2.852 0
M  V30 147 H 15.8098 0.944649 2.37718 0
M  V30 148 H 15.4538 1.61814 4.81434 0
M  V30 149 H 15.3838 -0.104013 5.26497 0
M  V30 150 H 17.8748 0.329288 3.76463 0
M  V30 151 H 18.1878 1.29409 7.61888 0
M  V30 152 H 16.5328 1.15695 6.85303 0
M  V30 153 H 19.7238 0.491752 4.6551 0
M  V30 154 H 19.8968 0.931482 6.4127 0
M  V30 155 N 13.3029 -1.57598 0.00835791 0
M  V30 156 C 14.7189 -1.55764 -0.347822 0
M  V30 157 C 14.9189 -1.01186 -1.74252 0
M  V30 158 O 13.9749 -0.649371 -2.44007 0
M  V30 159 C 15.2879 -2.99927 -0.215407 0
M  V30 160 C 16.8359 -3.11656 -0.289725 0
M  V30 161 C 17.3109 -4.57621 -0.18634 0
M  V30 162 N 18.8019 -4.62557 -0.243978 0
M  V30 163 C 19.5369 -5.73094 -0.18745 0
M  V30 164 N 19.0329 -6.92753 -0.0810331 0
M  V30 165 N 20.8259 -5.61588 -0.239925 0
M  V30 166 H 12.9769 -1.91411 0.92062 0
M  V30 167 H 15.2399 -0.879562 0.353659 0
M  V30 168 H 14.9459 -3.43729 0.744512 0
M  V30 169 H 14.8199 -3.63865 -0.994097 0
M  V30 170 H 17.2069 -2.67779 -1.24009 0
M  V30 171 H 17.2879 -2.5048 0.51898 0
M  V30 172 H 16.9319 -5.02174 0.760519 0
M  V30 173 H 16.8619 -5.16752 -1.01364 0
M  V30 174 H 19.3529 -3.76481 -0.327217 0
M  V30 175 H 19.6659 -7.72787 -0.0440241 0
M  V30 176 H 18.0109 -6.94984 -0.0465419 0
M  V30 177 H 21.2019 -4.66996 -0.321317 0
M  V30 178 H 21.3749 -6.47714 -0.192407 0
M  V30 179 N 14.781 0.264519 -1.55364 0
M  V30 180 C 15.744 1.31046 -1.88042 0
M  V30 181 C 16.744 1.41943 -0.755569 0
M  V30 182 O 17.934 1.40947 -1.02369 0
M  V30 183 C 15.066 2.69067 -2.09323 0
M  V30 184 H 16.259 1.03297 -2.81549 0
M  V30 185 H 13.812 0.502989 -1.47986 0
M  V30 186 H 14.547 3.01982 -1.18226 0
M  V30 187 H 14.332 2.62542 -2.91229 0
M  V30 188 H 15.822 3.44623 -2.35848 0
M  V30 189 N 16.2591 1.48442 0.529413 0
M  V30 190 C 17.2221 1.62524 1.61612 0
M  V30 191 C 18.2221 0.498509 1.52877 0
M  V30 192 O 19.4121 0.76431 1.56537 0
M  V30 193 C 16.5441 1.59597 3.01233 0
M  V30 194 H 17.7371 2.59423 1.50465 0
M  V30 195 H 15.2901 1.37047 0.751514 0
M  V30 196 H 16.0251 0.641781 3.17886 0
M  V30 197 H 15.8101 2.41397 3.08982 0
M  V30 198 H 17.3001 1.72646 3.80241 0
M  V30 199 N 17.7372 -0.778329 1.37039 0
M  V30 200 C 18.9652 -1.56734 1.35063 0
M  V30 201 C 19.3802 -1.88686 -0.0655597 0
M  V30 202 O 18.7372 -1.5096 -1.02554 0
M  V30 203 C 18.7882 -2.88163 2.18276 0
M  V30 204 O 18.5092 -2.57583 3.54376 0
M  V30 205 C 20.0102 -3.82422 2.24206 0
M  V30 206 H 17.2302 -0.485778 0.462883 0
M  V30 207 H 19.7742 -0.965185 1.8029 0
M  V30 208 H 17.9292 -3.44818 1.76576 0
M  V30 209 H 18.3432 -3.41699 3.97922 0
M  V30 210 H 19.8172 -4.71667 2.86765 0
M  V30 211 H 20.2942 -4.21078 1.24861 0
M  V30 212 H 20.9002 -3.31697 2.6619 0
M  V30 213 N 19.2153 -1.21501 -1.00376 0
M  V30 214 C 20.6313 -0.972629 -1.26539 0
M  V30 215 C 20.8313 0.340257 -1.98606 0
M  V30 216 O 19.8873 1.06561 -2.28913 0
M  V30 217 C 21.2003 -2.16404 -2.08781 0
M  V30 218 C 22.7483 -2.20643 -2.22004 0
M  V30 219 C 23.2233 -3.39306 -3.07629 0
M  V30 220 N 24.7143 -3.39401 -3.15217 0
M  V30 221 C 25.4493 -4.27867 -3.81729 0
M  V30 222 N 24.9453 -5.26533 -4.5026 0
M  V30 223 N 26.7383 -4.15672 -3.78382 0
M  V30 224 H 18.8893 -2.05929 -0.520281 0
M  V30 225 H 21.1523 -0.901803 -0.292328 0
M  V30 226 H 20.8583 -3.11554 -1.63178 0
M  V30 227 H 20.7323 -2.15567 -3.09533 0
M  V30 228 H 23.1193 -1.26048 -2.66825 0
M  V30 229 H 23.2003 -2.25523 -1.20718 0
M  V30 230 H 22.8443 -4.34195 -2.63509 0
M  V30 231 H 22.7743 -3.31665 -4.09031 0
M  V30 232 H 25.2653 -2.67997 -2.66432 0
M  V30 233 H 25.5783 -5.90337 -4.98721 0
M  V30 234 H 23.9233 -5.30457 -4.49044 0
M  V30 235 H 27.1143 -3.3785 -3.23998 0
M  V30 236 H 27.2873 -4.84825 -4.2994 0
M  V30 237 N 20.6934 1.19889 -1.02296 0
M  V30 238 C 21.6564 2.21116 -0.603351 0
M  V30 239 C 22.6564 1.5738 0.329884 0
M  V30 240 O 23.8464 1.73802 0.117702 0
M  V30 241 C 20.9784 3.40696 0.117992 0
M  V30 242 H 22.1714 2.59754 -1.49893 0
M  V30 243 H 19.7244 1.33463 -0.813468 0
M  V30 244 H 20.4594 3.07569 1.0282 0
M  V30 245 H 20.2444 3.88188 -0.552511 0
M  V30 246 H 21.7344 4.15692 0.398696 0
M  V30 247 N 22.1715 0.800033 1.35784 0
M  V30 248 C 23.5825 0.439142 1.81462 0
M  V30 249 C 23.9335 -1.03813 1.66485 0
M  V30 250 O 23.0585 -1.80626 1.19177 0
M  V30 251 C 23.6535 0.790314 3.29453 0
M  V30 252 C 22.2125 0.482111 3.733 0
M  V30 253 C 21.3595 1.01938 2.57883 0
M  V30 254 H 24.3105 0.992254 1.23855 0
M  V30 255 H 24.3315 0.0853677 3.80404 0
M  V30 256 H 23.8435 1.86554 3.40322 0
M  V30 257 H 21.9445 -0.584652 3.67984 0
M  V30 258 H 22.0575 1.01015 4.6833 0
M  V30 259 H 20.4215 0.442043 2.50835 0
M  V30 260 H 21.2045 2.10059 2.71533 0
M  V30 261 N 23.6496 -1.47581 0.552962 0
M  V30 262 C 24.9266 -1.95563 -0.0381515 0
M  V30 263 C 25.3066 -1.49552 -1.48988 0
M  V30 264 O 24.6546 -0.732414 -2.16444 0
M  V30 265 C 24.8646 -3.48848 0.102919 0
M  V30 266 C 26.2126 -4.24577 -0.0446082 0
M  V30 267 O 27.2366 -3.56187 0.0302548 0
M  V30 268 O 26.0956 -5.46116 -0.204923 0
M  V30 269 H 23.1896 -0.824321 -0.0665067 0
M  V30 270 H 25.7356 -1.58001 0.619186 0
M  V30 271 H 24.5076 -3.75129 1.11328 0
M  V30 272 H 24.1306 -3.93165 -0.592224 0
M  V30 273 N 25.1277 -0.289203 -1.54924 0
M  V30 274 C 26.0777 0.606939 -2.19773 0
M  V30 275 C 27.0617 1.10783 -1.16687 0
M  V30 276 O 28.2537 1.05057 -1.4245 0
M  V30 277 C 25.3827 1.78398 -2.93307 0
M  V30 278 C 24.4687 1.29961 -4.03697 0
M  V30 279 N 24.8597 0.532377 -5.0299 0
M  V30 280 C 23.1577 1.58136 -4.17024 0
M  V30 281 C 23.8587 0.275912 -5.81045 0
M  V30 282 N 22.8347 0.852365 -5.36876 0
M  V30 283 H 26.6367 0.0130779 -2.93897 0
M  V30 284 H 24.1507 -0.09341 -1.62131 0
M  V30 285 H 26.1477 2.43741 -3.38225 0
M  V30 286 H 24.8077 2.38166 -2.20697 0
M  V30 287 H 25.8187 0.17838 -5.17593 0
M  V30 288 H 22.4957 2.18738 -3.55612 0
M  V30 289 H 23.8857 -0.339502 -6.71042 0
M  V30 290 N 26.6058 1.57591 -0.0167156 0
M  V30 291 C 27.8458 1.93145 0.668902 0
M  V30 292 C 28.2098 0.892406 1.7 0
M  V30 293 O 29.4108 1.13373 2.43721 0
M  V30 294 C 27.6818 3.33678 1.28039 0
M  V30 295 S 29.2408 3.91142 1.9888 0
M  V30 296 H 26.0588 0.67593 0.220545 0
M  V30 297 H 28.6608 1.95347 -0.0774105 0
M  V30 298 H 27.3648 4.07126 0.517339 0
M  V30 299 H 26.8958 3.3489 2.06427 0
M  V30 300 H 28.9108 3.73571 3.26587 0
M  V30 301 N 28.0839 -0.256276 1.55502 0
M  V30 302 C 29.0469 -1.30047 1.88734 0
M  V30 303 C 30.0469 -1.4154 0.763086 0
M  V30 304 O 31.2369 -1.40403 1.03115 0
M  V30 305 C 28.3689 -2.67953 2.10747 0
M  V30 306 H 29.5619 -1.01802 2.82093 0
M  V30 307 H 27.1149 -0.495134 1.4825 0
M  V30 308 H 27.8499 -3.01351 1.19825 0
M  V30 309 H 27.6349 -2.60993 2.92617 0
M  V30 310 H 29.1249 -3.43368 2.37673 0
M  V30 311 N 29.562 -1.4872 -0.521534 0
M  V30 312 C 30.492 -1.66771 -1.63431 0
M  V30 313 C 31.473 -0.516499 -1.62069 0
M  V30 314 O 32.658 -0.750013 -1.79132 0
M  V30 315 C 29.788 -1.71515 -3.01993 0
M  V30 316 C 28.742 -2.86222 -3.18216 0
M  V30 317 C 28.068 -2.76061 -4.57924 0
M  V30 318 C 29.368 -4.27419 -3.00184 0
M  V30 319 H 31.062 -2.59932 -1.48579 0
M  V30 320 H 28.608 -1.25089 -0.713358 0
M  V30 321 H 30.561 -1.82731 -3.7972 0
M  V30 322 H 29.285 -0.749393 -3.17886 0
M  V30 323 H 27.944 -2.74575 -2.42908 0
M  V30 324 H 27.592 -1.77437 -4.70665 0
M  V30 325 H 27.292 -3.53037 -4.69722 0
M  V30 326 H 28.816 -2.89256 -5.37739 0
M  V30 327 H 30.23 -4.39855 -3.67697 0
M  V30 328 H 28.627 -5.05458 -3.2347 0
M  V30 329 H 29.697 -4.43293 -1.96518 0
M  V30 330 N 31.0401 0.771051 -1.3745 0
M  V30 331 C 32.0031 1.86598 -1.33093 0
M  V30 332 C 33.0031 1.59076 -0.234845 0
M  V30 333 O 34.1931 1.67145 -0.490732 0
M  V30 334 C 31.3251 3.23747 -1.06773 0
M  V30 335 H 32.5181 1.91873 -2.30488 0
M  V30 336 H 30.0711 0.970876 -1.2249 0
M  V30 337 H 30.8061 3.24148 -0.099129 0
M  V30 338 H 30.5911 3.45115 -1.86112 0
M  V30 339 H 32.0811 4.03824 -1.06377 0
M  V30 340 N 32.5182 1.22032 0.997298 0
M  V30 341 C 33.7642 1.04376 1.73878 0
M  V30 342 C 34.0972 -0.420716 1.89588 0
M  V30 343 O 33.3722 -1.31202 1.43583 0
M  V30 344 C 33.6552 1.75047 3.14691 0
M  V30 345 C 33.5082 3.29062 3.06656 0
M  V30 346 C 34.8272 1.49928 4.13775 0
M  V30 347 H 31.9462 0.380578 0.631133 0
M  V30 348 H 34.5882 1.50312 1.16217 0
M  V30 349 H 32.7382 1.35996 3.63919 0
M  V30 350 H 34.4102 3.7753 2.65083 0
M  V30 351 H 32.6532 3.58967 2.43568 0
M  V30 352 H 33.3242 3.73683 4.06282 0
M  V30 353 H 35.8002 1.83842 3.73285 0
M  V30 354 H 34.6762 2.01878 5.10428 0
M  V30 355 H 34.9372 0.430929 4.39995 0
M  V30 356 N 33.9963 -1.19345 1.0293 0
M  V30 357 C 35.4073 -1.70725 0.755633 0
M  V30 358 C 35.7583 -1.82326 -0.724676 0
M  V30 359 O 34.8833 -1.49471 -1.56484 0
M  V30 360 C 35.4783 -3.10084 1.36503 0
M  V30 361 C 34.0373 -3.58723 1.13994 0
M  V30 362 C 33.1843 -2.35577 1.46283 0
M  V30 363 H 36.1353 -1.0418 1.19718 0
M  V30 364 H 36.1563 -3.72787 0.762217 0
M  V30 365 H 35.6683 -3.01609 2.44241 0
M  V30 366 H 33.7693 -3.72512 0.0807901 0
M  V30 367 H 33.8823 -4.42816 1.82894 0
M  V30 368 H 32.2463 -2.38935 0.88217 0
M  V30 369 H 33.0293 -2.29731 2.55105 0
M  V30 370 N 35.4744 -0.807222 -1.35358 0
M  V30 371 C 36.4374 -0.223665 -2.28106 0
M  V30 372 C 37.4374 0.589354 -1.4961 0
M  V30 373 O 38.6274 0.407745 -1.69361 0
M  V30 374 C 35.7594 0.688149 -3.33882 0
M  V30 375 H 36.9524 -1.04169 -2.81227 0
M  V30 376 H 34.5054 -0.577921 -1.45223 0
M  V30 377 H 35.2404 1.52984 -2.85948 0
M  V30 378 H 35.0254 0.10687 -3.91954 0
M  V30 379 H 36.5154 1.09075 -4.03104 0
M  V30 380 N 36.9525 1.47285 -0.560781 0
M  V30 381 C 38.3685 1.58065 -0.22081 0
M  V30 382 C 38.5685 1.55892 1.27671 0
M  V30 383 O 37.6245 1.46422 2.0571 0
M  V30 384 C 38.9375 2.88418 -0.850625 0
M  V30 385 C 40.4855 3.02009 -0.822184 0
M  V30 386 C 40.9605 4.35066 -1.43113 0
M  V30 387 N 42.4515 4.41711 -1.39448 0
M  V30 388 C 43.1865 5.43237 -1.83525 0
M  V30 389 N 42.6825 6.51555 -2.35474 0
M  V30 390 N 44.4755 5.34304 -1.74574 0
M  V30 391 H 36.6265 1.46941 -1.53369 0
M  V30 392 H 38.8895 0.699558 -0.639783 0
M  V30 393 H 38.5955 2.95755 -1.9032 0
M  V30 394 H 38.4695 3.75612 -0.345773 0
M  V30 395 H 40.8565 2.94266 0.221714 0
M  V30 396 H 40.9375 2.16347 -1.36483 0
M  V30 397 H 40.5815 4.43565 -2.47412 0
M  V30 398 H 40.5115 5.19465 -0.863899 0
M  V30 399 H 43.0025 3.64027 -1.01452 0
M  V30 400 H 43.3155 7.25203 -2.67021 0
M  V30 401 H 41.6605 6.52435 -2.39487 0
M  V30 402 H 44.8515 4.48581 -1.33763 0
M  V30 403 H 45.0245 6.13288 -2.09242 0
M  V30 404 N 38.4306 0.297415 1.54768 0
M  V30 405 C 39.6786 -0.312295 1.99673 0
M  V30 406 C 39.9996 -1.54686 1.18732 0
M  V30 407 O 39.2696 -1.93854 0.282382 0
M  V30 408 H 37.8496 -0.118381 0.73756 0
M  V30 409 H 40.5116 0.407915 1.90583 0
M  V30 410 H 39.6076 -0.586813 3.06534 0
M  V30 411 N 39.9087 -1.5758 0.0250728 0
M  V30 412 C 40.8387 -2.13007 -0.956575 0
M  V30 413 C 41.8197 -1.0452 -1.342 0
M  V30 414 O 43.0047 -1.32332 -1.42133 0
M  V30 415 C 40.1347 -2.65386 -2.24026 0
M  V30 416 C 39.0887 -3.78623 -1.99571 0
M  V30 417 C 38.4147 -4.17414 -3.3417 0
M  V30 418 C 39.7147 -5.04867 -1.33814 0
M  V30 419 H 41.4087 -2.9528 -0.494991 0
M  V30 420 H 38.9547 -1.42042 -0.236651 0
M  V30 421 H 40.9077 -3.02794 -2.93076 0
M  V30 422 H 39.6317 -1.80268 -2.72343 0
M  V30 423 H 38.2907 -3.41646 -1.32941 0
M  V30 424 H 37.9387 -3.29284 -3.80238 0
M  V30 425 H 37.6387 -4.93719 -3.18615 0
M  V30 426 H 39.1627 -4.57402 -4.04495 0
M  V30 427 H 40.5767 -5.39888 -1.92857 0
M  V30 428 H 38.9737 -5.86144 -1.28669 0
M  V30 429 H 40.0437 -4.83904 -0.310561 0
M  V30 430 N 41.3868 0.248026 -1.55636 0
M  V30 431 C 42.8028 0.596483 -1.48035 0
M  V30 432 C 43.0028 1.88386 -0.715039 0
M  V30 433 O 42.0588 2.51319 -0.243944 0
M  V30 434 C 43.3718 0.700258 -2.92433 0
M  V30 435 C 44.9198 0.792659 -3.02797 0
M  V30 436 C 45.3948 0.928005 -4.485 0
M  V30 437 N 46.8858 0.992903 -4.52433 0
M  V30 438 C 47.6208 1.11687 -5.62418 0
M  V30 439 N 47.1168 1.20645 -6.82214 0
M  V30 440 N 48.9098 1.14994 -5.50212 0
M  V30 441 H 41.0608 -0.597109 -2.03834 0
M  V30 442 H 43.3238 -0.205925 -0.925364 0
M  V30 443 H 43.0298 -0.175658 -3.51261 0
M  V30 444 H 42.9038 1.57255 -3.42857 0
M  V30 445 H 45.2908 1.65903 -2.4405 0
M  V30 446 H 45.3718 -0.104762 -2.55585 0
M  V30 447 H 45.0158 0.0661971 -5.07857 0
M  V30 448 H 44.9458 1.84045 -4.93391 0
M  V30 449 H 47.4368 0.935064 -3.66149 0
M  V30 450 H 47.7498 1.30008 -7.61786 0
M  V30 451 H 46.0948 1.17605 -6.84977 0
M  V30 452 H 49.2858 1.07643 -4.55555 0
M  V30 453 H 49.4588 1.24311 -6.35965 0
M  V30 454 N 42.8649 1.48995 0.513639 0
M  V30 455 C 43.7949 1.67636 1.62544 0
M  V30 456 C 44.7759 0.525087 1.61793 0
M  V30 457 O 45.9609 0.759502 1.78732 0
M  V30 458 C 43.0909 1.73114 3.01079 0
M  V30 459 C 42.0449 2.87905 3.16693 0
M  V30 460 C 41.3709 2.78486 4.56453 0
M  V30 461 C 42.6709 4.29005 2.97913 0
M  V30 462 H 44.3649 2.60716 1.47198 0
M  V30 463 H 41.9109 1.25465 0.706714 0
M  V30 464 H 43.8639 1.84742 3.78746 0
M  V30 465 H 42.5879 0.766241 3.17484 0
M  V30 466 H 41.2469 2.75859 2.41448 0
M  V30 467 H 40.8949 1.7993 4.69717 0
M  V30 468 H 40.5949 3.55523 4.67843 0
M  V30 469 H 42.1189 2.92104 5.36197 0
M  V30 470 H 43.5329 4.41798 3.65359 0
M  V30 471 H 41.9299 5.07166 3.20785 0
M  V30 472 H 42.9999 4.44329 1.94165 0
M  V30 473 N 44.343 -0.763751 1.37857 0
M  V30 474 C 45.571 -1.55293 1.36718 0
M  V30 475 C 45.986 -1.88745 -0.0455434 0
M  V30 476 O 45.343 -1.52039 -1.00947 0
M  V30 477 C 45.394 -2.85831 2.2132 0
M  V30 478 O 45.115 -2.5381 3.57089 0
M  V30 479 C 46.616 -3.80023 2.28249 0
M  V30 480 H 43.836 -0.480841 0.468009 0
M  V30 481 H 46.38 -0.946009 1.81303 0
M  V30 482 H 44.535 -3.42926 1.80223 0
M  V30 483 H 44.949 -3.37459 4.01524 0
M  V30 484 H 46.423 -4.68599 2.91752 0
M  V30 485 H 46.9 -4.1973 1.2932 0
M  V30 486 H 47.506 -3.28855 2.69693 0
M  V30 487 N 45.8211 -1.22559 -0.990812 0
M  V30 488 C 46.7711 -0.964807 -2.0658 0
M  V30 489 C 47.7551 0.0853472 -1.60673 0
M  V30 490 O 48.9471 -0.125443 -1.76555 0
M  V30 491 C 46.0761 -0.546707 -3.38919 0
M  V30 492 C 45.1621 -1.6317 -3.91454 0
M  V30 493 N 45.5531 -2.85985 -4.17189 0
M  V30 494 C 43.8511 -1.50387 -4.19881 0
M  V30 495 C 44.5521 -3.56159 -4.59919 0
M  V30 496 N 43.5281 -2.83637 -4.63736 0
M  V30 497 H 47.3301 -1.89769 -2.24421 0
M  V30 498 H 44.8441 -1.12343 -1.17273 0
M  V30 499 H 46.8411 -0.34119 -4.15502 0
M  V30 500 H 45.5011 0.379254 -3.22478 0
M  V30 501 H 46.5121 -3.22392 -4.05319 0
M  V30 502 H 43.1891 -0.644254 -4.12499 0
M  V30 503 H 44.5791 -4.6139 -4.88435 0
M  V30 504 N 47.2992 1.18797 -1.03562 0
M  V30 505 C 48.2622 2.20464 -0.626769 0
M  V30 506 C 49.2622 1.57721 0.313173 0
M  V30 507 O 50.4522 1.73917 0.0992615 0
M  V30 508 C 47.5842 3.40802 0.0818498 0
M  V30 509 H 48.7772 2.58149 -1.5264 0
M  V30 510 H 46.3302 1.32593 -0.827578 0
M  V30 511 H 47.0652 3.08642 0.995518 0
M  V30 512 H 46.8502 3.8758 -0.593652 0
M  V30 513 H 48.3402 4.16092 0.354584 0
M  V30 514 N 48.7773 0.814389 1.34928 0
M  V30 515 C 49.6873 0.231978 2.3345 0
M  V30 516 C 50.7033 -0.629139 1.62228 0
M  V30 517 O 51.8793 -0.539052 1.94052 0
M  V30 518 C 48.9443 -0.603482 3.41407 0
M  V30 519 C 48.0053 0.279037 4.28392 0
M  V30 520 C 47.2383 -0.516643 5.31193 0
M  V30 521 O 47.4613 -1.75068 5.4287 0
M  V30 522 O 46.3953 0.0965652 6.01823 0
M  V30 523 H 50.2213 1.04721 2.85074 0
M  V30 524 H 47.8063 0.576343 1.37836 0
M  V30 525 H 49.6883 -1.07908 4.0735 0
M  V30 526 H 48.3633 -1.39618 2.92042 0
M  V30 527 H 47.2703 0.801948 3.65403 0
M  V30 528 H 48.6033 1.03588 4.81176 0
M  V30 529 N 50.2554 -1.46986 0.568584 0
M  V30 530 C 51.1854 -2.32946 -0.160753 0
M  V30 531 C 52.1664 -1.44487 -0.897631 0
M  V30 532 O 53.3514 -1.73327 -0.875867 0
M  V30 533 C 50.4814 -3.26494 -1.18403 0
M  V30 534 C 49.4354 -4.24282 -0.562895 0
M  V30 535 C 48.7614 -5.07236 -1.69163 0
M  V30 536 C 50.0614 -5.19989 0.490761 0
M  V30 537 H 51.7554 -2.94175 0.556916 0
M  V30 538 H 49.3014 -1.4146 0.26927 0
M  V30 539 H 51.2544 -3.85477 -1.70251 0
M  V30 540 H 49.9784 -2.63343 -1.93179 0
M  V30 541 H 48.6374 -3.66541 -0.0656164 0
M  V30 542 H 48.2854 -4.4048 -2.42871 0
M  V30 543 H 47.9854 -5.7345 -1.28174 0
M  V30 544 H 49.5094 -5.6908 -2.21314 0
M  V30 545 H 50.9234 -5.73271 0.0579047 0
M  V30 546 H 49.3204 -5.94469 0.820165 0
M  V30 547 H 50.3904 -4.64777 1.3824 0
M  V30 548 N 51.7335 -0.305618 -1.54608 0
M  V30 549 C 53.1495 0.0476228 -1.59529 0
M  V30 550 C 53.3495 1.52025 -1.32252 0
M  V30 551 O 52.4055 2.27368 -1.09818 0
M  V30 552 C 53.7185 -0.354471 -2.98603 0
M  V30 553 C 55.2665 -0.303622 -3.11524 0
M  V30 554 C 55.7415 -0.680608 -4.52915 0
M  V30 555 N 57.2325 -0.63332 -4.5885 0
M  V30 556 C 57.9675 -0.897432 -5.66334 0
M  V30 557 N 57.4635 -1.22775 -6.81834 0
M  V30 558 N 59.2565 -0.824186 -5.56025 0
M  V30 559 H 51.4075 -1.2653 -1.70599 0
M  V30 560 H 53.6705 -0.513291 -0.797017 0
M  V30 561 H 53.3765 -1.3798 -3.23503 0
M  V30 562 H 53.2505 0.289568 -3.76087 0
M  V30 563 H 55.6375 0.712472 -2.8637 0
M  V30 564 H 55.7185 -0.982348 -2.36185 0
M  V30 565 H 55.3625 -1.69453 -4.78799 0
M  V30 566 H 55.2925 0.0202385 -5.26596 0
M  V30 567 H 57.7835 -0.389138 -3.75891 0
M  V30 568 H 58.0965 -1.41513 -7.59733 0
M  V30 569 H 56.4415 -1.26583 -6.83375 0
M  V30 570 H 59.6325 -0.565748 -4.64669 0
M  V30 571 H 59.8055 -1.03338 -6.39707 0
M  V30 572 N 53.2116 1.57565 -0.0334293 0
M  V30 573 C 54.1746 2.09393 0.932048 0
M  V30 574 C 55.1746 1.00986 1.25134 0
M  V30 575 O 56.3646 1.27129 1.19096 0
M  V30 576 C 53.4966 2.56338 2.2473 0
M  V30 577 H 54.6896 2.95984 0.483085 0
M  V30 578 H 52.2426 1.54819 0.21468 0
M  V30 579 H 52.9776 1.7309 2.74245 0
M  V30 580 H 52.7626 3.35542 2.02865 0
M  V30 581 H 54.2526 2.96646 2.93923 0
M  V30 582 N 54.6897 -0.239769 1.55765 0
M  V30 583 C 56.1057 -0.588624 1.48349 0
M  V30 584 C 56.3057 -1.88005 0.72502 0
M  V30 585 O 55.3617 -2.51186 0.257269 0
M  V30 586 C 56.6747 -0.68474 2.928 0
M  V30 587 C 58.2227 -0.77659 3.03213 0
M  V30 588 C 58.6977 -0.904207 4.48986 0
M  V30 589 N 60.1887 -0.968896 4.52953 0
M  V30 590 C 60.9237 -1.08703 5.63002 0
M  V30 591 N 60.4197 -1.17026 6.82845 0
M  V30 592 N 62.2127 -1.12074 5.50814 0
M  V30 593 H 54.3637 0.607911 2.03515 0
M  V30 594 H 56.6267 0.21083 0.924259 0
M  V30 595 H 56.3327 0.194284 3.51163 0
M  V30 596 H 56.2067 -1.55435 3.43686 0
M  V30 597 H 58.5937 -1.64606 2.44926 0
M  V30 598 H 58.6747 0.118315 2.55526 0
M  V30 599 H 58.3187 -0.0392633 5.07885 0
M  V30 600 H 58.2487 -1.81426 4.9436 0
M  V30 601 H 60.7397 -0.915633 3.6664 0
M  V30 602 H 61.0527 -1.25966 7.62465 0
M  V30 603 H 59.3977 -1.13971 6.85591 0
M  V30 604 H 62.5887 -1.05226 4.5612 0
M  V30 605 H 62.7617 -1.20936 6.36615 0
M  V30 606 N 56.1678 -1.49265 -0.50573 0
M  V30 607 C 57.4138 -1.58748 -1.26202 0
M  V30 608 C 57.7468 -0.271227 -1.92297 0
M  V30 609 O 57.0218 0.724831 -1.80489 0
M  V30 610 C 57.3048 -2.74332 -2.33268 0
M  V30 611 C 57.1578 -4.15737 -1.71705 0
M  V30 612 C 58.4768 -2.85576 -3.34865 0
M  V30 613 H 55.5958 -0.577826 -0.457478 0
M  V30 614 H 58.2378 -1.81532 -0.560897 0
M  V30 615 H 56.3878 -2.55036 -2.93068 0
M  V30 616 H 58.0598 -4.46537 -1.15769 0
M  V30 617 H 56.3028 -4.21605 -1.02135 0
M  V30 618 H 56.9738 -4.92477 -2.49341 0
M  V30 619 H 59.4498 -3.03127 -2.8505 0
M  V30 620 H 58.3258 -3.68135 -4.07146 0
M  V30 621 H 58.5868 -1.94732 -3.96903 0
M  V30 622 N 57.6459 0.756429 -1.3826 0
M  V30 623 C 58.5559 1.9009 -1.37488 0
M  V30 624 C 59.5719 1.71855 -0.272366 0
M  V30 625 O 60.7479 1.94827 -0.510318 0
M  V30 626 C 57.8129 3.25421 -1.19592 0
M  V30 627 C 56.8739 3.56202 -2.39622 0
M  V30 628 C 56.1069 4.85075 -2.2257 0
M  V30 629 O 56.3299 5.57246 -1.21793 0
M  V30 630 O 55.2639 5.15269 -3.11098 0
M  V30 631 H 59.0899 1.93695 -2.33914 0
M  V30 632 H 56.6749 0.901313 -1.1915 0
M  V30 633 H 58.5569 4.06337 -1.11661 0
M  V30 634 H 57.2319 3.22634 -0.262486 0
M  V30 635 H 56.1389 2.75458 -2.53128 0
M  V30 636 H 57.4719 3.63747 -3.31586 0
M  V30 637 N 59.124 1.23083 0.984299 0
M  V30 638 C 60.087 1.00979 2.05757 0
M  V30 639 C 61.087 -0.0269573 1.60777 0
M  V30 640 O 62.277 0.212403 1.729 0
M  V30 641 C 59.409 0.527072 3.36801 0
M  V30 642 H 60.602 1.9622 2.26799 0
M  V30 643 H 58.155 1.05072 1.15714 0
M  V30 644 H 58.89 -0.429294 3.21446 0
M  V30 645 H 58.675 1.27515 3.70786 0
M  V30 646 H 60.165 0.392942 4.15747 0
M  V30 647 N 60.6021 -1.18246 1.0419 0
M  V30 648 C 61.8481 -1.88536 0.747122 0
M  V30 649 C 62.1811 -1.80223 -0.723409 0
M  V30 650 O 61.4561 -1.20337 -1.52804 0
M  V30 651 C 61.7391 -3.38968 1.21544 0
M  V30 652 C 61.5921 -3.56084 2.74816 0
M  V30 653 C 62.9111 -4.32648 0.806482 0
M  V30 654 H 60.0301 -0.684619 0.272883 0
M  V30 655 H 62.6721 -1.39113 1.29413 0
M  V30 656 H 60.8221 -3.8119 0.750081 0
M  V30 657 H 62.4941 -3.22946 3.29399 0
M  V30 658 H 60.7371 -2.98699 3.14582 0
M  V30 659 H 61.4081 -4.61639 3.02644 0
M  V30 660 H 63.8841 -3.98211 1.20695 0
M  V30 661 H 62.7601 -5.36462 1.1619 0
M  V30 662 H 63.0211 -4.41146 -0.29029 0
M  V30 663 N 62.0802 -0.821533 -1.34494 0
M  V30 664 C 63.0432 -0.247847 -2.27856 0
M  V30 665 C 64.0432 0.573453 -1.50227 0
M  V30 666 O 65.2332 0.389759 -1.69784 0
M  V30 667 C 62.3652 0.652698 -3.34593 0
M  V30 668 H 63.5582 -1.07146 -2.80107 0
M  V30 669 H 61.1112 -0.593291 -1.44602 0
M  V30 670 H 61.8462 1.49943 -2.87555 0
M  V30 671 H 61.6312 0.065292 -3.92046 0
M  V30 672 H 63.1212 1.04793 -4.04238 0
M  V30 673 N 63.5583 1.46682 -0.576371 0
M  V30 674 C 64.5213 2.28707 0.150239 0
M  V30 675 C 65.5213 1.38035 0.824794 0
M  V30 676 O 66.7113 1.60476 0.677719 0
M  V30 677 C 63.8433 3.18248 1.22192 0
M  V30 678 H 65.0363 2.94423 -0.570521 0
M  V30 679 H 62.5893 1.52688 -0.334078 0
M  V30 680 H 63.3243 2.57265 1.97447 0
M  V30 681 H 63.1093 3.85 0.742812 0
M  V30 682 H 64.5993 3.80001 1.73172 0
M  V30 683 N 65.0364 0.313813 1.54444 0
M  V30 684 C 66.4524 -0.0391619 1.59552 0
M  V30 685 C 66.6524 -1.51322 1.33056 0
M  V30 686 O 65.7084 -2.26782 1.11022 0
M  V30 687 C 67.0214 0.370302 2.98411 0
M  V30 688 C 68.5694 0.320139 3.11358 0
M  V30 689 C 69.0444 0.704617 4.52547 0
M  V30 690 N 70.5354 0.657645 4.58508 0
M  V30 691 C 71.2704 0.927453 5.6585 0
M  V30 692 N 70.7664 1.26389 6.81174 0
M  V30 693 N 72.5594 0.853662 5.5558 0
M  V30 694 H 64.7104 1.27433 1.69925 0
M  V30 695 H 66.9734 0.517511 0.794284 0
M  V30 696 H 66.6794 1.39694 3.22767 0
M  V30 697 H 66.5534 -0.269619 3.76235 0
M  V30 698 H 68.9404 -0.697275 2.86744 0
M  V30 699 H 69.0214 0.99486 2.35661 0
M  V30 700 H 68.6654 1.7199 4.77893 0
M  V30 701 H 68.5954 0.00768843 5.26599 0
M  V30 702 H 71.0864 0.409067 3.75679 0
M  V30 703 H 71.3994 1.4554 7.58972 0
M  V30 704 H 69.7444 1.30206 6.82694 0
M  V30 705 H 72.9354 0.590383 4.64362 0
M  V30 706 H 73.1084 1.0673 6.3915 0
M  V30 707 N 66.5145 -1.57545 0.0417849 0
M  V30 708 C 67.4445 -2.14009 -0.933929 0
M  V30 709 C 68.4255 -1.05938 -1.33083 0
M  V30 710 O 69.6105 -1.33833 -1.40721 0
M  V30 711 C 66.7405 -2.67747 -2.21199 0
M  V30 712 C 65.6945 -3.80718 -1.95544 0
M  V30 713 C 65.0205 -4.20935 -3.29724 0
M  V30 714 C 66.3205 -5.06258 -1.28452 0
M  V30 715 H 68.0145 -2.95788 -0.463645 0
M  V30 716 H 65.5605 -1.42285 -0.221573 0
M  V30 717 H 67.5135 -3.05886 -2.89848 0
M  V30 718 H 66.2375 -1.83147 -2.70416 0
M  V30 719 H 64.8965 -3.43037 -1.2931 0
M  V30 720 H 64.5445 -3.33298 -3.76724 0
M  V30 721 H 64.2445 -4.9707 -3.13361 0
M  V30 722 H 65.7685 -4.61666 -3.9962 0
M  V30 723 H 67.1825 -5.41903 -1.8712 0
M  V30 724 H 65.5795 -5.87475 -1.22445 0
M  V30 725 H 66.6495 -4.84207 -0.259219 0
M  V30 726 N 67.9926 0.231505 -1.5589 0
M  V30 727 C 68.9426 1.29007 -1.87993 0
M  V30 728 C 69.9266 1.42764 -0.742102 0
M  V30 729 O 71.1186 1.45747 -1.00433 0
M  V30 730 C 68.2476 2.6425 -2.1915 0
M  V30 731 C 67.3336 2.54435 -3.39299 0
M  V30 732 N 67.7246 2.14262 -4.58176 0
M  V30 733 C 66.0226 2.85416 -3.42715 0
M  V30 734 C 66.7236 2.15455 -5.40328 0
M  V30 735 N 65.6996 2.55558 -4.79783 0
M  V30 736 H 69.5016 0.970213 -2.77424 0
M  V30 737 H 67.0156 0.440097 -1.56323 0
M  V30 738 H 69.0126 3.40665 -2.40319 0
M  V30 739 H 67.6726 2.9709 -1.31025 0
M  V30 740 H 68.6836 1.85554 -4.83518 0
M  V30 741 H 65.3606 3.22693 -2.64906 0
M  V30 742 H 66.7506 1.86605 -6.45467 0
M  V30 743 N 69.4707 1.49531 0.497807 0
M  V30 744 C 70.4337 1.65916 1.58128 0
M  V30 745 C 71.4337 0.530825 1.51786 0
M  V30 746 O 72.6237 0.797342 1.54881 0
M  V30 747 C 69.7557 1.65951 2.9778 0
M  V30 748 H 70.9487 2.62556 1.44929 0
M  V30 749 H 68.5017 1.38611 0.722275 0
M  V30 750 H 69.2367 0.709065 3.16453 0
M  V30 751 H 69.0217 2.47897 3.03792 0
M  V30 752 H 70.5117 1.80673 3.76493 0
M  V30 753 N 70.9488 -0.749086 1.3866 0
M  V30 754 C 72.2258 -1.4992 1.25632 0
M  V30 755 C 72.6058 -2.10633 -0.140317 0
M  V30 756 O 71.9538 -1.97437 -1.15025 0
M  V30 757 C 72.1638 -2.56195 2.36992 0
M  V30 758 C 73.5118 -3.22972 2.75634 0
M  V30 759 O 74.5358 -2.66502 2.36337 0
M  V30 760 O 73.3948 -4.25122 3.43415 0
M  V30 761 H 70.4888 -0.665067 0.491544 0
M  V30 762 H 73.0348 -0.784113 1.50498 0
M  V30 763 H 71.8068 -2.09612 3.30422 0
M  V30 764 H 71.4298 -3.35279 2.13714 0
M  V30 765 N 72.4269 -1.23603 -0.977757 0
M  V30 766 C 73.6749 -1.06759 -1.71601 0
M  V30 767 C 73.9959 0.395929 -1.90938 0
M  V30 768 O 73.2659 1.28356 -1.47992 0
M  V30 769 H 71.8459 -0.392062 -0.635843 0
M  V30 770 H 74.5079 -1.55362 -1.1768 0
M  V30 771 H 73.6039 -1.55763 -2.70452 0
M  V30 772 N 73.905 1.17692 -1.04816 0
M  V30 773 C 74.835 2.23777 -0.666791 0
M  V30 774 C 75.816 1.66796 0.33361 0
M  V30 775 O 77.001 1.93039 0.212042 0
M  V30 776 C 74.131 3.47281 -0.0367933 0
M  V30 777 C 73.085 4.17059 -0.961546 0
M  V30 778 C 72.411 5.34342 -0.195626 0
M  V30 779 C 73.711 4.69713 -2.28402 0
M  V30 780 H 75.405 2.55933 -1.55367 0
M  V30 781 H 72.951 1.23019 -0.748484 0
M  V30 782 H 74.904 4.20706 0.241775 0
M  V30 783 H 73.628 3.14381 0.885004 0
M  V30 784 H 72.287 3.45541 -1.22462 0
M  V30 785 H 71.935 4.97692 0.728816 0
M  V30 786 H 71.635 5.81966 -0.811775 0
M  V30 787 H 73.159 6.10553 0.0757473 0
M  V30 788 H 74.573 5.34794 -2.06563 0
M  V30 789 H 72.97 5.279 -2.8538 0
M  V30 790 H 74.04 3.86726 -2.92525 0
M  V30 791 N 75.3831 0.828654 1.34056 0
M  V30 792 C 76.7991 0.515135 1.51058 0
M  V30 793 C 76.9991 -0.959581 1.77184 0
M  V30 794 O 76.0551 -1.74382 1.82612 0
M  V30 795 C 77.3681 1.37963 2.67183 0
M  V30 796 C 78.9161 1.37735 2.81066 0
M  V30 797 C 79.3911 2.22645 4.00241 0
M  V30 798 N 80.8821 2.203 4.07458 0
M  V30 799 C 81.6171 2.82744 4.98842 0
M  V30 800 N 81.1131 3.54201 5.9541 0
M  V30 801 N 82.9061 2.72268 4.91759 0
M  V30 802 H 75.0571 1.78343 1.15358 0
M  V30 803 H 77.3201 0.760304 0.566252 0
M  V30 804 H 77.0261 2.42714 2.54525 0
M  V30 805 H 76.9001 1.0484 3.62338 0
M  V30 806 H 79.2871 0.337593 2.93163 0
M  V30 807 H 79.3681 1.74859 1.86703 0
M  V30 808 H 79.0121 3.26674 3.88905 0
M  V30 809 H 78.9421 1.82869 4.93829 0
M  V30 810 H 81.4331 1.68327 3.38341 0
M  V30 811 H 81.7461 3.9908 6.61782 0
M  V30 812 H 80.0911 3.58308 5.95517 0
M  V30 813 H 83.2821 2.16014 4.15278 0
M  V30 814 H 83.4551 3.21219 5.62781 0
M  V30 815 N 76.8612 -1.46375 0.584142 0
M  V30 816 C 78.2722 -1.86031 0.157959 0
M  V30 817 C 78.6232 -1.48753 -1.27933 0
M  V30 818 O 77.7482 -0.903098 -1.96655 0
M  V30 819 C 78.3432 -3.37642 0.279892 0
M  V30 820 C 76.9022 -3.76289 -0.09143 0
M  V30 821 C 76.0492 -2.7039 0.615178 0
M  V30 822 H 79.0002 -1.37509 0.792274 0
M  V30 823 H 79.0212 -3.77275 -0.494364 0
M  V30 824 H 78.5332 -3.64742 1.32607 0
M  V30 825 H 76.6342 -3.54806 -1.13769 0
M  V30 826 H 76.7472 -4.78246 0.285886 0
M  V30 827 H 75.1112 -2.5464 0.0552833 0
M  V30 828 H 75.8942 -3.0033 1.66303 0
M  V30 829 N 78.3393 -0.321999 -1.54275 0
M  V30 830 C 79.2713 0.578671 -2.21775 0
M  V30 831 C 80.2843 1.08109 -1.21722 0
M  V30 832 O 81.4733 0.994938 -1.482 0
M  V30 833 C 78.5733 1.80661 -2.86731 0
M  V30 834 C 77.7463 1.44314 -4.12907 0
M  V30 835 C 76.8053 2.52845 -4.61472 0
M  V30 836 O 75.8313 2.17054 -5.2619 0
M  V30 837 N 77.0333 3.83748 -4.35566 0
M  V30 838 H 79.7983 0.000709447 -2.997 0
M  V30 839 H 77.3593 -0.145132 -1.61248 0
M  V30 840 H 79.3513 2.52655 -3.16145 0
M  V30 841 H 77.9213 2.29245 -2.12521 0
M  V30 842 H 77.1413 0.554906 -3.90275 0
M  V30 843 H 78.4293 1.17598 -4.95023 0
M  V30 844 H 77.8273 4.15625 -3.83761 0
M  V30 845 H 76.3843 4.51977 -4.69638 0
M  V30 846 N 79.8174 1.5752 -0.0501392 0
M  V30 847 C 80.7494 2.08413 0.95376 0
M  V30 848 C 81.7624 1.01175 1.27544 0
M  V30 849 O 82.9514 1.28744 1.23641 0
M  V30 850 C 80.0514 2.51138 2.27559 0
M  V30 851 C 79.2244 3.817 2.13598 0
M  V30 852 C 78.2834 4.10749 3.28895 0
M  V30 853 O 77.3094 4.80685 3.04845 0
M  V30 854 N 78.5114 3.62579 4.5334 0
M  V30 855 H 81.2764 2.95165 0.519383 0
M  V30 856 H 78.8374 1.61327 0.136127 0
M  V30 857 H 80.8294 2.67648 3.03557 0
M  V30 858 H 79.3994 1.6964 2.62567 0
M  V30 859 H 78.6194 3.74782 1.22197 0
M  V30 860 H 79.9074 4.67201 2.01496 0
M  V30 861 H 79.3054 3.06039 4.75769 0
M  V30 862 H 77.8624 3.84329 5.26436 0
M  V30 863 N 81.2955 -0.223234 1.56011 0
M  V30 864 C 82.7115 -0.572856 1.48965 0
M  V30 865 C 82.9115 -1.87225 0.74492 0
M  V30 866 O 81.9675 -2.50899 0.283896 0
M  V30 867 C 83.2805 -0.653646 2.9351 0
M  V30 868 C 84.8285 -0.744386 3.0402 0
M  V30 869 C 85.3035 -0.856535 4.49919 0
M  V30 870 N 86.7945 -0.9208 4.53955 0
M  V30 871 C 87.5295 -1.02726 5.64123 0
M  V30 872 N 87.0255 -1.09777 6.84047 0
M  V30 873 N 88.8185 -1.06226 5.51971 0
M  V30 874 H 80.9695 0.629462 2.02858 0
M  V30 875 H 83.2325 0.220621 0.921971 0
M  V30 876 H 82.9385 0.231518 3.50937 0
M  V30 877 H 82.8125 -1.51781 3.45315 0
M  V30 878 H 85.1995 -1.61999 2.46658 0
M  V30 879 H 85.2805 0.14541 2.55386 0
M  V30 880 H 84.9245 0.0146069 5.07898 0
M  V30 881 H 84.8545 -1.76172 4.96257 0
M  V30 882 H 87.3455 -0.876694 3.6759 0
M  V30 883 H 87.6585 -1.17872 7.63758 0
M  V30 884 H 86.0035 -1.06693 6.86762 0
M  V30 885 H 89.1945 -1.00382 4.5721 0
M  V30 886 H 89.3675 -1.14177 6.37862 0
M  V30 887 N 82.7736 -1.49793 -0.48987 0
M  V30 888 C 84.0196 -1.60078 -1.24511 0
M  V30 889 C 84.3526 -0.291608 -1.91998 0
M  V30 890 O 83.6276 0.705647 -1.81248 0
M  V30 891 C 83.9106 -2.76791 -2.30345 0
M  V30 892 C 83.7636 -4.17535 -1.67286 0
M  V30 893 C 85.0826 -2.89111 -3.31817 0
M  V30 894 H 82.2016 -0.582645 -0.451324 0
M  V30 895 H 84.8436 -1.82117 -0.541612 0
M  V30 896 H 82.9936 -2.5813 -2.90346 0
M  V30 897 H 84.6656 -4.4774 -1.11026 0
M  V30 898 H 82.9086 -4.22665 -0.976577 0
M  V30 899 H 83.5796 -4.95094 -2.44103 0
M  V30 900 H 86.0556 -3.06133 -2.81819 0
M  V30 901 H 84.9316 -3.72433 -4.03219 0
M  V30 902 H 85.1926 -1.9893 -3.94815 0
M  V30 903 N 84.2517 0.741722 -1.39055 0
M  V30 904 C 85.2147 1.83733 -1.37021 0
M  V30 905 C 86.2147 1.58542 -0.268534 0
M  V30 906 O 87.4047 1.66067 -0.526076 0
M  V30 907 C 84.5367 3.2141 -1.13617 0
M  V30 908 H 85.7297 1.86941 -2.34506 0
M  V30 909 H 83.2827 0.944676 -1.24521 0
M  V30 910 H 84.0177 3.23865 -0.167863 0
M  V30 911 H 83.8027 3.4109 -1.93391 0
M  V30 912 H 85.2927 4.01477 -1.14918 0
M  V30 913 N 85.7298 1.2412 0.971189 0
M  V30 914 C 86.9758 1.08041 1.71625 0
M  V30 915 C 87.3088 -0.380407 1.90438 0
M  V30 916 O 86.5838 -1.28127 1.46334 0
M  V30 917 C 86.8668 1.81682 3.10908 0
M  V30 918 C 86.7198 3.35493 2.99608 0
M  V30 919 C 88.0388 1.58671 4.10501 0
M  V30 920 H 85.1578 0.39388 0.622919 0
M  V30 921 H 87.7998 1.52743 1.13003 0
M  V30 922 H 85.9498 1.43684 3.60953 0
M  V30 923 H 87.6218 3.83068 2.57015 0
M  V30 924 H 85.8648 3.64052 2.35899 0
M  V30 925 H 86.5358 3.82217 3.98264 0
M  V30 926 H 89.0118 1.91719 3.69301 0
M  V30 927 H 87.8878 2.1266 5.06031 0
M  V30 928 H 88.1488 0.524161 4.38982 0
M  V30 929 N 87.2079 -1.17134 1.05439 0
M  V30 930 C 88.4539 -1.87733 0.767077 0
M  V30 931 C 88.7869 -1.8098 -0.704253 0
M  V30 932 O 88.0619 -1.21951 -1.5152 0
M  V30 933 C 88.3449 -3.37659 1.25133 0
M  V30 934 C 88.1979 -3.53149 2.78578 0
M  V30 935 C 89.5169 -4.31768 0.852324 0
M  V30 936 H 86.6359 -0.681687 0.280129 0
M  V30 937 H 89.2779 -1.37732 1.30881 0
M  V30 938 H 87.4279 -3.80373 0.790469 0
M  V30 939 H 89.0999 -3.19434 3.32806 0
M  V30 940 H 87.3429 -2.95345 3.17732 0
M  V30 941 H 88.0139 -4.58403 3.07523 0
M  V30 942 H 90.4899 -3.96909 1.24911 0
M  V30 943 H 89.3659 -5.35199 1.21873 0
M  V30 944 H 89.6269 -4.41429 -0.243485 0
M  V30 945 N 88.686 -0.835752 -1.33615 0
M  V30 946 C 89.649 -0.272 -2.2758 0
M  V30 947 C 90.649 0.557487 -1.50827 0
M  V30 948 O 91.839 0.37173 -1.70188 0
M  V30 949 C 88.971 0.617173 -3.35267 0
M  V30 950 H 90.164 -1.10111 -2.78954 0
M  V30 951 H 87.717 -0.608594 -1.43965 0
M  V30 952 H 88.452 1.46884 -2.89129 0
M  V30 953 H 88.237 0.0237066 -3.92093 0
M  V30 954 H 89.727 1.005 -4.05326 0
M  V30 955 N 90.1641 1.46063 -0.591896 0
M  V30 956 C 91.5751 1.85944 -0.167822 0
M  V30 957 C 91.9261 1.49429 1.27143 0
M  V30 958 O 91.0511 0.913515 1.96173 0
M  V30 959 C 91.6461 3.37489 -0.297794 0
M  V30 960 C 90.2051 3.76332 0.0714732 0
M  V30 961 C 89.3521 2.7006 -0.629509 0
M  V30 962 H 92.3031 1.37087 -0.799555 0
M  V30 963 H 92.3241 3.77532 0.474349 0
M  V30 964 H 91.8361 3.64034 -1.3454 0
M  V30 965 H 89.9371 3.55405 1.11886 0
M  V30 966 H 90.0501 4.78088 -0.311245 0
M  V30 967 H 88.4141 2.54607 -0.0687867 0
M  V30 968 H 89.1971 2.99444 -1.67894 0
M  V30 969 N 91.6422 0.330177 1.54103 0
M  V30 970 C 92.5902 -0.548226 2.26047 0
M  V30 971 C 93.5842 -1.11309 1.27698 0
M  V30 972 O 94.7902 -1.06036 1.45452 0
M  V30 973 H 91.1652 -0.195456 0.726155 0
M  V30 974 H 93.1362 0.0807567 2.98291 0
M  V30 975 C 91.8852 -1.69415 3.03634 0
M  V30 976 H 91.2082 -1.26876 3.79134 0
M  V30 977 H 92.6482 -2.28423 3.5721 0
M  V30 978 C 91.1072 -2.61569 2.12328 0
M  V30 979 O 91.6372 -3.63462 1.7105 0
M  V30 980 N 89.8432 -2.29952 1.77681 0
M  V30 981 H 89.3902 -1.47134 2.11446 0
M  V30 982 H 89.3482 -2.91871 1.16869 0
M  V30 983 N 93.1203 -1.57491 0.0584922 0
M  V30 984 C 94.3453 -1.97711 -0.62652 0
M  V30 985 C 94.7703 -0.936132 -1.63151 0
M  V30 986 O 94.1283 0.099811 -1.81025 0
M  V30 987 C 94.1763 -3.36989 -1.28338 0
M  V30 988 O 93.2803 -3.35433 -2.39913 0
M  V30 989 H 92.6213 -0.643868 -0.162266 0
M  V30 990 H 95.1513 -2.04193 0.129064 0
M  V30 991 H 95.1613 -3.73879 -1.63335 0
M  V30 992 H 93.8363 -4.12289 -0.546889 0
M  V30 993 H 92.4133 -3.10298 -2.06809 0
M  V30 994 N 94.5984 0.214957 -1.56127 0
M  V30 995 C 95.5614 1.24997 -1.92116 0
M  V30 996 C 96.5614 1.39467 -0.800344 0
M  V30 997 O 97.7514 1.37619 -1.06802 0
M  V30 998 C 94.8834 2.62271 -2.17777 0
M  V30 999 H 96.0764 0.942875 -2.84693 0
M  V30 1000 H 93.6294 0.455654 -1.49511 0
M  V30 1001 H 94.3644 2.98068 -1.27773 0
M  V30 1002 H 94.1494 2.53143 -2.99434 0
M  V30 1003 H 95.6394 3.36946 -2.46693 0
M  V30 1004 N 96.0765 1.50051 0.48192 0
M  V30 1005 C 97.3535 1.51009 1.2432 0
M  V30 1006 C 97.7335 0.248587 2.09631 0
M  V30 1007 O 97.0815 -0.768409 2.15192 0
M  V30 1008 C 97.2915 2.79981 2.08355 0
M  V30 1009 C 98.6395 3.3022 2.66908 0
M  V30 1010 O 99.6635 2.81228 2.18607 0
M  V30 1011 O 98.5225 4.15595 3.54884 0
M  V30 1012 H 95.6165 0.605239 0.563573 0
M  V30 1013 H 98.1625 1.62332 0.494627 0
M  V30 1014 H 96.9345 3.63275 1.45419 0
M  V30 1015 H 96.5575 2.7161 2.90368 0
M  V30 1016 N 97.5546 -0.734337 1.39446 0
M  V30 1017 C 98.8006 -1.49613 1.36908 0
M  V30 1018 C 99.1336 -1.94169 -0.0347829 0
M  V30 1019 O 98.4086 -1.66833 -0.999847 0
M  V30 1020 C 98.6916 -2.73534 2.34203 0
M  V30 1021 C 98.5446 -2.34993 3.83534 0
M  V30 1022 C 99.8636 -3.75635 2.29317 0
M  V30 1023 H 96.9826 -0.542714 0.498629 0
M  V30 1024 H 99.6246 -0.839597 1.70443 0
M  V30 1025 H 97.7746 -3.29553 2.05736 0
M  V30 1026 H 99.4466 -1.84601 4.22753 0
M  V30 1027 H 97.6896 -1.67213 4.00278 0
M  V30 1028 H 98.3606 -3.23738 4.47099 0
M  V30 1029 H 100.837 -3.29203 2.54489 0
M  V30 1030 H 99.7126 -4.60008 2.99472 0
M  V30 1031 H 99.9736 -4.22603 1.29842 0
M  V30 1032 N 99.0327 -1.24633 -0.964593 0
M  V30 1033 C 100.279 -1.08949 -1.71049 0
M  V30 1034 C 100.612 0.370302 -1.90637 0
M  V30 1035 O 99.8867 1.27349 -1.47011 0
M  V30 1036 C 100.17 -1.83329 -3.0994 0
M  V30 1037 C 100.023 -3.37077 -2.97824 0
M  V30 1038 C 101.342 -1.60846 -4.09654 0
M  V30 1039 H 98.4607 -0.397178 -0.620821 0
M  V30 1040 H 101.103 -1.5334 -1.12191 0
M  V30 1041 H 99.2527 -1.45597 -3.60186 0
M  V30 1042 H 100.925 -3.84425 -2.5498 0
M  V30 1043 H 99.1677 -3.65298 -2.33965 0
M  V30 1044 H 99.8387 -3.84324 -3.96231 0
M  V30 1045 H 102.315 -1.93674 -3.68279 0
M  V30 1046 H 101.191 -2.1534 -5.04896 0
M  V30 1047 H 101.452 -0.547434 -4.38698 0
M  V30 1048 N 100.511 1.16574 -1.06058 0
M  V30 1049 C 101.76 1.86385 -0.770944 0
M  V30 1050 C 102.073 1.82448 0.705129 0
M  V30 1051 O 103.279 2.47815 1.10905 0
M  V30 1052 C 101.735 3.34466 -1.32893 0
M  V30 1053 C 101.343 3.46883 -2.83507 0
M  V30 1054 C 103.087 4.09548 -1.11672 0
M  V30 1055 C 100.994 4.89036 -3.32562 0
M  V30 1056 H 99.9238 0.698181 -0.284709 0
M  V30 1057 H 102.575 1.31583 -1.27899 0
M  V30 1058 H 100.957 3.88859 -0.748662 0
M  V30 1059 H 102.131 3.02663 -3.47465 0
M  V30 1060 H 100.446 2.85232 -3.03368 0
M  V30 1061 H 103.043 5.14434 -1.45814 0
M  V30 1062 H 103.386 4.16264 -0.0549535 0
M  V30 1063 H 103.919 3.61387 -1.66265 0
M  V30 1064 H 100.658 4.87499 -4.38207 0
M  V30 1065 H 100.178 5.3389 -2.73351 0
M  V30 1066 H 101.857 5.57843 -3.2775 0
M  V30 1067 N 101.989 0.842826 1.3317 0
M  V30 1068 C 102.952 0.284065 2.27433 0
M  V30 1069 C 103.952 -0.54948 1.5112 0
M  V30 1070 O 105.142 -0.362699 1.70382 0
M  V30 1071 C 102.274 -0.599384 3.35589 0
M  V30 1072 H 103.467 1.11589 2.78366 0
M  V30 1073 H 101.02 0.616221 1.4364 0
M  V30 1074 H 101.755 -1.45349 2.89904 0
M  V30 1075 H 101.54 -0.00291266 3.921 0
M  V30 1076 H 103.03 -0.983488 4.05854 0
M  V30 1077 N 103.467 -1.45747 0.599634 0
M  V30 1078 C 104.716 -2.01502 0.0893511 0
M  V30 1079 C 105.029 -1.4748 -1.28488 0
M  V30 1080 O 106.235 -1.95161 -1.88745 0
M  V30 1081 C 104.691 -3.59735 0.109082 0
M  V30 1082 C 104.299 -4.22754 1.48267 0
M  V30 1083 C 106.043 -4.23085 -0.346374 0
M  V30 1084 C 103.95 -5.73115 1.45921 0
M  V30 1085 H 102.88 -0.753417 0.0296347 0
M  V30 1086 H 105.531 -1.67303 0.753788 0
M  V30 1087 H 103.913 -3.91087 -0.621854 0
M  V30 1088 H 105.087 -4.02987 2.23468 0
M  V30 1089 H 103.402 -3.71567 1.87955 0
M  V30 1090 H 105.999 -5.33327 -0.38298 0
M  V30 1091 H 106.342 -3.93201 -1.36743 0
M  V30 1092 H 106.875 -3.9642 0.331038 0
M  V30 1093 H 103.614 -6.07685 2.45762 0
M  V30 1094 H 103.134 -5.95097 0.749665 0
M  V30 1095 H 104.813 -6.3616 1.17941 0
M  V30 1096 N 104.945 -0.338344 -1.53925 0
M  V30 1097 C 105.875 0.51328 -2.27789 0
M  V30 1098 C 106.856 1.107 -1.29149 0
M  V30 1099 O 108.041 1.12937 -1.57984 0
M  V30 1100 C 105.171 1.66697 -3.04679 0
M  V30 1101 C 104.125 1.20183 -4.1078 0
M  V30 1102 C 103.451 2.44363 -4.75595 0
M  V30 1103 C 104.751 0.30605 -5.21403 0
M  V30 1104 H 106.445 -0.102883 -2.99223 0
M  V30 1105 H 103.991 -0.0509219 -1.4391 0
M  V30 1106 H 105.944 2.26915 -3.55088 0
M  V30 1107 H 104.668 2.30995 -2.30887 0
M  V30 1108 H 103.327 0.622499 -3.61276 0
M  V30 1109 H 102.975 3.07057 -3.98403 0
M  V30 1110 H 102.675 2.13925 -5.47275 0
M  V30 1111 H 104.199 3.05317 -5.28786 0
M  V30 1112 H 105.613 0.814929 -5.67478 0
M  V30 1113 H 104.01 0.0937929 -6.00027 0
M  V30 1114 H 105.08 -0.65921 -4.80398 0
M  V30 1115 N 106.423 1.57458 -0.0668435 0
M  V30 1116 C 107.386 2.11323 0.887422 0
M  V30 1117 C 108.386 1.03618 1.22964 0
M  V30 1118 O 109.576 1.29626 1.16373 0
M  V30 1119 C 106.708 2.61048 2.19242 0
M  V30 1120 H 107.901 2.96942 0.420194 0
M  V30 1121 H 105.454 1.55239 0.181793 0
M  V30 1122 H 106.189 1.78868 2.70512 0
M  V30 1123 H 105.974 3.39769 1.95702 0
M  V30 1124 H 107.464 3.02814 2.87565 0
M  V30 1125 N 107.901 -0.206675 1.56239 0
M  V30 1126 C 108.831 -1.25909 1.96645 0
M  V30 1127 C 109.812 -1.48097 0.836734 0
M  V30 1128 O 110.997 -1.6003 1.10019 0
M  V30 1129 C 108.127 -2.6058 2.29599 0
M  V30 1130 C 107.081 -2.53024 3.452 0
M  V30 1131 C 106.407 -3.91861 3.63798 0
M  V30 1132 C 107.707 -2.06524 4.79734 0
M  V30 1133 H 109.401 -0.923369 2.84806 0
M  V30 1134 H 106.947 -0.442735 1.37025 0
M  V30 1135 H 108.9 -3.34375 2.56459 0
M  V30 1136 H 107.624 -2.95869 1.38307 0
M  V30 1137 H 106.283 -1.81684 3.18412 0
M  V30 1138 H 105.931 -4.24483 2.69857 0
M  V30 1139 H 105.631 -3.87683 4.4156 0
M  V30 1140 H 107.155 -4.67296 3.93022 0
M  V30 1141 H 108.569 -2.70072 5.05702 0
M  V30 1142 H 106.966 -2.13374 5.60885 0
M  V30 1143 H 108.036 -1.01802 4.74093 0
M  V30 1144 N 109.379 -1.50304 -0.473955 0
M  V30 1145 C 110.329 -1.65347 -1.56985 0
M  V30 1146 C 111.313 -0.508176 -1.52664 0
M  V30 1147 O 112.505 -0.762446 -1.59737 0
M  V30 1148 C 109.634 -1.74832 -2.95447 0
M  V30 1149 C 108.72 -2.95028 -3.04662 0
M  V30 1150 N 109.111 -4.18747 -2.83698 0
M  V30 1151 C 107.409 -2.93527 -3.35795 0
M  V30 1152 C 108.11 -4.99687 -2.97805 0
M  V30 1153 N 107.086 -4.33585 -3.2788 0
M  V30 1154 H 110.888 -2.58698 -1.39472 0
M  V30 1155 H 108.402 -1.47449 -0.680629 0
M  V30 1156 H 110.399 -1.83712 -3.7424 0
M  V30 1157 H 109.059 -0.826376 -3.14008 0
M  V30 1158 H 110.07 -4.48291 -2.59337 0
M  V30 1159 H 106.747 -2.10821 -3.60362 0
M  V30 1160 H 108.137 -6.08057 -2.85861 0
M  V30 1161 N 110.857 0.726932 -1.39834 0
M  V30 1162 C 112.273 1.03354 -1.21615 0
M  V30 1163 C 112.473 2.01327 -0.08338 0
M  V30 1164 O 111.529 2.46158 0.56238 0
M  V30 1165 C 112.842 1.58811 -2.55342 0
M  V30 1166 C 114.39 1.70851 -2.62257 0
M  V30 1167 C 114.865 2.29716 -3.96225 0
M  V30 1168 N 116.356 2.37116 -3.97907 0
M  V30 1169 C 117.091 2.83619 -4.98345 0
M  V30 1170 N 116.587 3.29958 -6.09179 0
M  V30 1171 N 118.38 2.82901 -4.8572 0
M  V30 1172 H 110.531 0.0773069 -2.12259 0
M  V30 1173 H 112.794 0.0969102 -0.943034 0
M  V30 1174 H 112.5 0.942855 -3.38826 0
M  V30 1175 H 112.374 2.57502 -2.75632 0
M  V30 1176 H 114.761 2.34497 -1.79152 0
M  V30 1177 H 114.842 0.707913 -2.45809 0
M  V30 1178 H 114.486 1.66696 -4.79765 0
M  V30 1179 H 114.416 3.30469 -4.09997 0
M  V30 1180 H 116.907 2.04374 -3.17868 0
M  V30 1181 H 117.22 3.63976 -6.8172 0
M  V30 1182 H 115.565 3.27946 -6.12761 0
M  V30 1183 H 118.756 2.46027 -3.98231 0
M  V30 1184 H 118.929 3.18827 -5.6414 0
M  V30 1185 N 112.336 1.25143 0.95797 0
M  V30 1186 C 113.266 1.07711 2.07173 0
M  V30 1187 C 114.247 -0.0128462 1.70095 0
M  V30 1188 O 115.432 0.156061 1.93572 0
M  V30 1189 C 112.562 0.691503 3.40346 0
M  V30 1190 C 111.516 1.73132 3.9142 0
M  V30 1191 C 110.842 1.20049 5.21049 0
M  V30 1192 C 112.142 3.1294 4.1817 0
M  V30 1193 H 113.836 2.00873 2.22014 0
M  V30 1194 H 111.382 0.967191 1.06684 0
M  V30 1195 H 113.335 0.556505 4.17709 0
M  V30 1196 H 112.059 -0.275819 3.25433 0
M  V30 1197 H 110.718 1.8547 3.16222 0
M  V30 1198 H 110.366 0.223499 5.02503 0
M  V30 1199 H 110.066 1.89545 5.56189 0
M  V30 1200 H 111.59 1.07782 6.01012 0
M  V30 1201 H 113.004 3.03775 4.86203 0
M  V30 1202 H 111.401 3.79875 4.64559 0
M  V30 1203 H 112.471 3.6025 3.24573 0
M  V30 1204 N 113.814 -1.1601 1.06675 0
M  V30 1205 C 115.062 -1.86264 0.784229 0
M  V30 1206 C 115.383 -1.82328 -0.691488 0
M  V30 1207 O 114.653 -1.25947 -1.50047 0
M  V30 1208 H 113.233 -0.689621 0.28711 0
M  V30 1209 H 115.895 -1.40664 1.34906 0
M  V30 1210 H 114.991 -2.91595 1.11259 0
M  V30 1211 N 115.292 -0.849877 -1.32721 0
M  V30 1212 C 116.255 -0.296122 -2.27279 0
M  V30 1213 C 117.255 0.541458 -1.5141 0
M  V30 1214 O 118.445 0.353658 -1.70572 0
M  V30 1215 C 115.577 0.581579 -3.35902 0
M  V30 1216 H 116.77 -1.13064 -2.77771 0
M  V30 1217 H 114.323 -0.62383 -1.43311 0
M  V30 1218 H 115.058 1.43809 -2.9067 0
M  V30 1219 H 114.843 -0.0178814 -3.92096 0
M  V30 1220 H 116.333 0.961951 -4.0637 0
M  V30 1221 N 116.77 1.45427 -0.607355 0
M  V30 1222 C 118.016 2.0254 -0.102607 0
M  V30 1223 C 118.349 1.47478 1.26348 0
M  V30 1224 O 117.624 0.64939 1.83339 0
M  V30 1225 C 117.907 3.60044 -0.0634347 0
M  V30 1226 C 117.76 4.2544 -1.46017 0
M  V30 1227 C 119.079 4.35646 0.624514 0
M  V30 1228 H 116.198 0.73598 -0.0387607 0
M  V30 1229 H 118.84 1.73284 -0.779282 0
M  V30 1230 H 116.99 3.85101 0.512808 0
M  V30 1231 H 118.662 4.11569 -2.08347 0
M  V30 1232 H 116.905 3.83849 -2.02094 0
M  V30 1233 H 117.576 5.34342 -1.385 0
M  V30 1234 H 120.052 4.15882 0.134723 0
M  V30 1235 H 118.928 5.45376 0.621028 0
M  V30 1236 H 119.189 4.08501 1.69055 0
M  V30 1237 N 118.248 0.346503 1.53744 0
M  V30 1238 C 119.659 -0.136779 1.86198 0
M  V30 1239 C 120.01 -1.49749 1.26766 0
M  V30 1240 O 119.135 -2.08417 0.582355 0
M  V30 1241 C 119.73 -0.254966 3.37839 0
M  V30 1242 C 118.289 -0.682482 3.70161 0
M  V30 1243 C 117.436 0.181981 2.76702 0
M  V30 1244 H 120.387 0.565994 1.48264 0
M  V30 1245 H 120.408 -1.08195 3.64793 0
M  V30 1246 H 119.92 0.735526 3.81066 0
M  V30 1247 H 118.021 -1.68189 3.3248 0
M  V30 1248 H 118.134 -0.470326 4.76786 0
M  V30 1249 H 116.498 -0.34615 2.52337 0
M  V30 1250 H 117.281 1.16966 3.2276 0
M  V30 1251 N 119.726 -1.57421 0.075193 0
M  V30 1252 C 120.689 -2.11791 -0.876203 0
M  V30 1253 C 121.689 -1.04268 -1.22412 0
M  V30 1254 O 122.879 -1.30242 -1.15684 0
M  V30 1255 C 120.011 -2.62207 -2.17854 0
M  V30 1256 H 121.204 -2.9716 -0.40444 0
M  V30 1257 H 118.757 -1.55333 -0.173557 0
M  V30 1258 H 119.492 -1.803 -2.6956 0
M  V30 1259 H 119.277 -3.40802 -1.93897 0
M  V30 1260 H 120.767 -3.04335 -2.85955 0
M  V30 1261 N 121.204 0.198386 -1.56346 0
M  V30 1262 C 122.134 1.24865 -1.9731 0
M  V30 1263 C 123.115 1.47651 -0.844576 0
M  V30 1264 O 124.3 1.59444 -1.10866 0
M  V30 1265 C 121.43 2.59358 -2.30977 0
M  V30 1266 C 120.384 2.5119 -3.46537 0
M  V30 1267 C 119.71 3.89926 -3.65871 0
M  V30 1268 C 121.01 2.03977 -4.80823 0
M  V30 1269 H 122.704 0.908252 -2.85291 0
M  V30 1270 H 120.25 0.435462 -1.37258 0
M  V30 1271 H 122.203 3.33011 -2.58228 0
M  V30 1272 H 120.927 2.95132 -1.39874 0
M  V30 1273 H 119.586 1.79993 -3.19371 0
M  V30 1274 H 119.234 4.23046 -2.72105 0
M  V30 1275 H 118.934 3.85336 -4.4361 0
M  V30 1276 H 120.458 4.65205 -3.95495 0
M  V30 1277 H 121.872 2.67386 -5.07127 0
M  V30 1278 H 120.269 2.10397 -5.62008 0
M  V30 1279 H 121.339 0.992861 -4.74626 0
M  V30 1280 N 122.682 1.50554 0.465978 0
M  V30 1281 C 123.612 1.72722 1.57128 0
M  V30 1282 C 124.593 0.576294 1.6004 0
M  V30 1283 O 125.778 0.81598 1.76225 0
M  V30 1284 C 122.908 1.82605 2.95419 0
M  V30 1285 C 121.862 2.97835 3.07373 0
M  V30 1286 C 121.188 2.92867 4.47363 0
M  V30 1287 C 122.488 4.38265 2.84114 0
M  V30 1288 H 124.182 2.65267 1.38829 0
M  V30 1289 H 121.728 1.2765 0.666441 0
M  V30 1290 H 123.681 1.96698 3.72677 0
M  V30 1291 H 122.405 0.866858 3.14886 0
M  V30 1292 H 121.064 2.83401 2.3255 0
M  V30 1293 H 120.712 1.94783 4.63755 0
M  V30 1294 H 120.412 3.70227 4.56296 0
M  V30 1295 H 121.936 3.09015 5.26633 0
M  V30 1296 H 123.35 4.53198 3.51118 0
M  V30 1297 H 121.747 5.17115 3.04487 0
M  V30 1298 H 122.817 4.50281 1.7993 0
M  V30 1299 N 124.16 -0.719506 1.40217 0
M  V30 1300 C 125.108 -1.85493 1.40339 0
M  V30 1301 C 126.102 -1.66995 0.284415 0
M  V30 1302 O 127.308 -1.74148 0.455252 0
M  V30 1303 H 123.683 -0.610857 0.438586 0
M  V30 1304 H 125.654 -1.82506 2.36081 0
M  V30 1305 C 124.403 -3.23321 1.27901 0
M  V30 1306 H 123.726 -3.38159 2.1328 0
M  V30 1307 H 125.166 -4.02914 1.32045 0
M  V30 1308 C 123.625 -3.36898 -0.0111355 0
M  V30 1309 O 124.155 -3.89674 -0.975538 0
M  V30 1310 N 122.361 -2.90492 -0.0793393 0
M  V30 1311 H 121.908 -2.47731 0.706183 0
M  V30 1312 H 121.866 -2.99955 -0.942038 0
M  V30 1313 N 125.638 -1.25649 -0.95132 0
M  V30 1314 C 127.049 -1.09654 -1.51106 0
M  V30 1315 C 127.4 0.326615 -1.93462 0
M  V30 1316 O 126.525 1.21697 -1.78938 0
M  V30 1317 C 127.12 -1.98437 -2.74605 0
M  V30 1318 C 125.679 -1.86618 -3.2688 0
M  V30 1319 C 124.826 -1.9239 -1.99703 0
M  V30 1320 H 127.777 -1.38887 -0.767865 0
M  V30 1321 H 127.798 -1.5263 -3.48546 0
M  V30 1322 H 127.31 -3.02009 -2.43746 0
M  V30 1323 H 125.411 -0.859421 -3.62553 0
M  V30 1324 H 125.524 -2.71607 -3.94673 0
M  V30 1325 H 123.888 -1.36317 -2.15151 0
M  V30 1326 H 124.671 -2.97573 -1.71188 0
M  V30 1327 N 127.117 1.15442 -1.07289 0
M  V30 1328 C 128.533 1.38201 -0.798288 0
M  V30 1329 C 128.733 1.92429 0.597769 0
M  V30 1330 O 127.789 2.12962 1.3566 0
M  V30 1331 C 129.102 2.35357 -1.87156 0
M  V30 1332 C 130.65 2.49021 -1.89624 0
M  V30 1333 C 131.125 3.49468 -2.96034 0
M  V30 1334 N 132.616 3.57003 -2.95132 0
M  V30 1335 C 133.351 4.34543 -3.74112 0
M  V30 1336 N 132.847 5.15421 -4.6294 0
M  V30 1337 N 134.64 4.29625 -3.62462 0
M  V30 1338 H 126.791 0.78584 -1.97328 0
M  V30 1339 H 129.054 0.408065 -0.855679 0
M  V30 1340 H 128.76 2.02626 -2.87464 0
M  V30 1341 H 128.634 3.35129 -1.73114 0
M  V30 1342 H 131.021 2.81051 -0.899687 0
M  V30 1343 H 131.102 1.4925 -2.07745 0
M  V30 1344 H 130.746 3.18173 -3.95889 0
M  V30 1345 H 130.676 4.48992 -2.75161 0
M  V30 1346 H 133.167 2.99276 -2.30743 0
M  V30 1347 H 133.48 5.7183 -5.19837 0
M  V30 1348 H 131.825 5.14729 -4.66989 0
M  V30 1349 H 135.016 3.65505 -2.92444 0
M  V30 1350 H 135.189 4.89807 -4.24256 0
M  V30 1351 N 128.595 0.856903 1.32268 0
M  V30 1352 C 129.525 0.31858 2.31316 0
M  V30 1353 C 130.506 -0.583487 1.59779 0
M  V30 1354 O 131.691 -0.503259 1.87566 0
M  V30 1355 C 128.821 -0.491979 3.43798 0
M  V30 1356 C 127.775 0.315849 4.26833 0
M  V30 1357 C 127.101 -0.619586 5.31098 0
M  V30 1358 C 128.401 1.54282 4.98993 0
M  V30 1359 H 130.095 1.14621 2.76591 0
M  V30 1360 H 127.641 0.552613 1.32974 0
M  V30 1361 H 129.594 -0.879012 4.1213 0
M  V30 1362 H 128.318 -1.35299 2.97257 0
M  V30 1363 H 126.977 0.684664 3.6015 0
M  V30 1364 H 126.625 -1.47751 4.8081 0
M  V30 1365 H 126.325 -0.0830621 5.87541 0
M  V30 1366 H 127.849 -1.00375 6.02293 0
M  V30 1367 H 129.263 1.22796 5.59995 0
M  V30 1368 H 127.66 2.01745 5.65172 0
M  V30 1369 H 128.73 2.30285 4.26728 0
M  V30 1370 N 130.073 -1.45103 0.615059 0
M  V30 1371 C 131.02 -2.30586 -0.0993978 0
M  V30 1372 C 131.99 -1.42544 -0.852669 0
M  V30 1373 O 133.175 -1.71465 -0.836917 0
M  V30 1374 C 130.315 -3.27572 -1.08583 0
M  V30 1375 C 129.428 -4.30717 -0.332656 0
M  V30 1376 C 128.563 -5.14807 -1.30947 0
M  V30 1377 C 127.602 -6.09673 -0.544538 0
M  V30 1378 N 126.739 -6.86517 -1.47101 0
M  V30 1379 H 131.579 -2.91144 0.635542 0
M  V30 1380 H 129.116 -1.4346 0.325206 0
M  V30 1381 H 131.074 -3.82276 -1.67095 0
M  V30 1382 H 129.704 -2.68751 -1.78809 0
M  V30 1383 H 128.756 -3.78615 0.368107 0
M  V30 1384 H 130.068 -4.98102 0.263842 0
M  V30 1385 H 129.222 -5.73948 -1.96643 0
M  V30 1386 H 127.961 -4.47458 -1.9399 0
M  V30 1387 H 126.966 -5.49656 0.126003 0
M  V30 1388 H 128.191 -6.79052 0.080947 0
M  V30 1389 H 126.137 -6.21851 -2.08895 0
M  V30 1390 H 126.054 -7.50281 -0.928137 0
M  V30 1391 H 127.322 -7.50194 -2.11731 0
M  V30 1392 N 131.551 -0.354651 -1.53558 0
M  V30 1393 C 132.776 0.242153 -2.05981 0
M  V30 1394 C 133.201 1.42553 -1.2272 0
M  V30 1395 O 132.559 1.79656 -0.243604 0
M  V30 1396 C 132.607 0.624367 -3.55154 0
M  V30 1397 O 131.711 1.72301 -3.74681 0
M  V30 1398 H 131.052 0.0378432 -0.662921 0
M  V30 1399 H 133.582 -0.512087 -1.98088 0
M  V30 1400 H 133.592 0.898433 -3.97985 0
M  V30 1401 H 132.267 -0.240989 -4.15201 0
M  V30 1402 H 130.844 1.44535 -3.4375 0
M  V30 1403 N 133.029 1.57378 -0.0835403 0
M  V30 1404 C 133.992 2.12252 0.864959 0
M  V30 1405 C 134.992 1.04916 1.21858 0
M  V30 1406 O 136.182 1.30853 1.14991 0
M  V30 1407 C 133.314 2.63358 2.16461 0
M  V30 1408 H 134.507 2.97371 0.388676 0
M  V30 1409 H 132.06 1.55423 0.165317 0
M  V30 1410 H 132.795 1.81727 2.686 0
M  V30 1411 H 132.58 3.41826 1.92087 0
M  V30 1412 H 134.07 3.05847 2.84337 0
M  V30 1413 N 134.507 -0.190092 1.56449 0
M  V30 1414 C 135.417 -1.25591 1.98152 0
M  V30 1415 C 136.433 -1.49519 0.889944 0
M  V30 1416 O 137.609 -1.62036 1.19609 0
M  V30 1417 C 134.674 -2.57916 2.3169 0
M  V30 1418 C 133.735 -2.42015 3.5458 0
M  V30 1419 C 132.968 -3.6803 3.8651 0
M  V30 1420 O 133.191 -4.72413 3.1966 0
M  V30 1421 O 132.125 -3.6326 4.79923 0
M  V30 1422 H 135.951 -0.931988 2.89046 0
M  V30 1423 H 133.536 -0.395488 1.4407 0
M  V30 1424 H 135.418 -3.36008 2.54316 0
M  V30 1425 H 134.093 -2.89925 1.43963 0
M  V30 1426 H 133 -1.62017 3.37196 0
M  V30 1427 H 134.333 -2.14937 4.4279 0
M  V30 1428 N 135.985 -1.50799 -0.457987 0
M  V30 1429 C 136.915 -1.73553 -1.5621 0
M  V30 1430 C 137.896 -0.584774 -1.59732 0
M  V30 1431 O 139.081 -0.825314 -1.7579 0
M  V30 1432 C 136.211 -1.84169 -2.94447 0
M  V30 1433 C 135.165 -2.99461 -3.0579 0
M  V30 1434 C 134.491 -2.95235 -4.45803 0
M  V30 1435 C 135.791 -4.39766 -2.81786 0
M  V30 1436 H 137.485 -2.66 -1.37421 0
M  V30 1437 H 135.031 -1.28002 -0.659662 0
M  V30 1438 H 136.984 -1.98672 -3.71628 0
M  V30 1439 H 135.708 -0.883545 -3.14422 0
M  V30 1440 H 134.367 -2.8463 -2.31044 0
M  V30 1441 H 134.015 -1.97239 -4.62715 0
M  V30 1442 H 133.715 -3.72642 -4.54326 0
M  V30 1443 H 135.239 -3.11803 -5.24987 0
M  V30 1444 H 136.653 -4.55054 -3.4871 0
M  V30 1445 H 135.05 -5.18722 -3.0174 0
M  V30 1446 H 136.12 -4.51229 -1.7754 0
M  V30 1447 N 137.463 0.71206 -1.40597 0
M  V30 1448 C 138.426 1.80785 -1.40888 0
M  V30 1449 C 139.426 1.57937 -0.302103 0
M  V30 1450 O 140.616 1.64913 -0.561182 0
M  V30 1451 C 137.748 3.18927 -1.20409 0
M  V30 1452 H 138.941 1.81924 -2.38419 0
M  V30 1453 H 136.494 0.91805 -1.26497 0
M  V30 1454 H 137.229 3.23436 -0.236522 0
M  V30 1455 H 137.014 3.36911 -2.00582 0
M  V30 1456 H 138.504 3.98949 -1.23408 0
M  V30 1457 N 138.941 1.26152 0.944643 0
M  V30 1458 C 139.851 1.09176 2.07648 0
M  V30 1459 C 140.867 0.0261935 1.7398 0
M  V30 1460 O 142.043 0.229208 2.00091 0
M  V30 1461 C 139.108 0.722915 3.39079 0
M  V30 1462 C 138.169 1.86752 3.86552 0
M  V30 1463 C 137.402 1.51617 5.11711 0
M  V30 1464 O 137.625 0.416331 5.68879 0
M  V30 1465 O 136.559 2.34975 5.54139 0
M  V30 1466 H 140.385 2.0412 2.24875 0
M  V30 1467 H 137.97 1.05182 1.061 0
M  V30 1468 H 139.852 0.529787 4.18056 0
M  V30 1469 H 138.527 -0.197159 3.23099 0
M  V30 1470 H 137.434 2.11558 3.08535 0
M  V30 1471 H 138.767 2.76719 4.07047 0
M  V30 1472 N 140.419 -1.14872 1.07899 0
M  V30 1473 C 141.349 -2.2193 0.725887 0
M  V30 1474 C 142.33 -1.67622 -0.28927 0
M  V30 1475 O 143.515 -1.93533 -0.160787 0
M  V30 1476 C 140.645 -3.47061 0.128856 0
M  V30 1477 C 139.599 -4.14363 1.07178 0
M  V30 1478 C 138.925 -5.33636 0.337229 0
M  V30 1479 C 140.225 -4.63492 2.40775 0
M  V30 1480 H 141.919 -2.51724 1.62097 0
M  V30 1481 H 139.465 -1.20991 0.780838 0
M  V30 1482 H 141.418 -4.21199 -0.130147 0
M  V30 1483 H 140.142 -3.16617 -0.80134 0
M  V30 1484 H 138.801 -3.42173 1.3158 0
M  V30 1485 H 138.449 -4.99449 -0.596606 0
M  V30 1486 H 138.149 -5.79609 0.965788 0
M  V30 1487 H 139.673 -6.10539 0.0861567 0
M  V30 1488 H 141.087 -5.2913 2.20669 0
M  V30 1489 H 139.484 -5.20148 2.99276 0
M  V30 1490 H 140.554 -3.78834 3.02676 0
M  V30 1491 N 141.898 -0.863906 -1.31812 0
M  V30 1492 C 143.147 -0.46801 -1.96195 0
M  V30 1493 C 143.46 0.983474 -1.69077 0
M  V30 1494 O 144.666 1.48523 -2.27273 0
M  V30 1495 C 143.122 -0.785995 -3.51212 0
M  V30 1496 C 142.73 -2.25383 -3.87178 0
M  V30 1497 C 144.474 -0.458274 -4.22019 0
M  V30 1498 C 142.381 -2.51455 -5.3528 0
M  V30 1499 H 141.311 -0.171283 -0.734287 0
M  V30 1500 H 143.962 -1.05597 -1.50072 0
M  V30 1501 H 142.344 -0.127359 -3.95795 0
M  V30 1502 H 143.518 -2.95502 -3.53575 0
M  V30 1503 H 141.833 -2.54698 -3.2942 0
M  V30 1504 H 144.43 -0.630369 -5.30971 0
M  V30 1505 H 144.773 0.600834 -4.11941 0
M  V30 1506 H 145.306 -1.07319 -3.8305 0
M  V30 1507 H 142.045 -3.56025 -5.50387 0
M  V30 1508 H 141.565 -1.85923 -5.70257 0
M  V30 1509 H 143.244 -2.35874 -6.02472 0
M  V30 1510 N 143.376 1.44774 -0.622745 0
M  V30 1511 C 144.323 2.30635 0.0871679 0
M  V30 1512 C 145.293 1.42994 0.845097 0
M  V30 1513 O 146.478 1.71907 0.827812 0
M  V30 1514 C 143.618 3.28144 1.06844 0
M  V30 1515 C 142.731 4.30888 0.309809 0
M  V30 1516 C 141.866 5.15494 1.28215 0
M  V30 1517 C 140.905 6.09953 0.512198 0
M  V30 1518 N 140.042 6.87287 1.43458 0
M  V30 1519 H 144.882 2.90803 -0.650974 0
M  V30 1520 H 142.419 1.43286 -0.33281 0
M  V30 1521 H 144.377 3.83157 1.65066 0
M  V30 1522 H 143.007 2.69695 1.77382 0
M  V30 1523 H 142.059 3.78414 -0.388181 0
M  V30 1524 H 143.371 4.97955 -0.290254 0
M  V30 1525 H 142.525 5.74983 1.93596 0
M  V30 1526 H 141.264 4.48481 1.91614 0
M  V30 1527 H 140.269 5.49581 -0.155151 0
M  V30 1528 H 141.494 6.78999 -0.116958 0
M  V30 1529 H 139.44 6.2295 2.05594 0
M  V30 1530 H 139.357 7.50763 0.888335 0
M  V30 1531 H 140.625 7.51306 2.07749 0
M  V30 1532 N 144.854 0.36279 1.53368 0
M  V30 1533 C 146.27 0.0116182 1.59596 0
M  V30 1534 C 146.47 -1.47012 1.37803 0
M  V30 1535 O 145.526 -2.23136 1.18181 0
M  V30 1536 C 146.839 0.465052 2.97082 0
M  V30 1537 C 148.387 0.419033 3.10182 0
M  V30 1538 C 148.862 0.848235 4.50077 0
M  V30 1539 N 150.353 0.803183 4.56183 0
M  V30 1540 C 151.088 1.107 5.62613 0
M  V30 1541 N 150.584 1.47996 6.76808 0
M  V30 1542 N 152.377 1.02998 5.52583 0
M  V30 1543 H 144.528 1.32775 1.65785 0
M  V30 1544 H 146.791 0.542518 0.777417 0
M  V30 1545 H 146.497 1.49892 3.18159 0
M  V30 1546 H 146.371 -0.149786 3.76902 0
M  V30 1547 H 148.758 -0.605696 2.88817 0
M  V30 1548 H 148.839 1.06933 2.32377 0
M  V30 1549 H 148.483 1.87107 4.7218 0
M  V30 1550 H 148.413 0.175218 5.26308 0
M  V30 1551 H 150.904 0.52838 3.74188 0
M  V30 1552 H 151.217 1.69613 7.53957 0
M  V30 1553 H 149.562 1.51859 6.78206 0
M  V30 1554 H 152.753 0.737817 4.62249 0
M  V30 1555 H 152.926 1.2701 6.35431 0
M  V30 1556 N 146.332 -1.57332 0.0918853 0
M  V30 1557 C 147.58 -1.93853 -0.571446 0
M  V30 1558 C 147.901 -0.974212 -1.6892 0
M  V30 1559 O 147.171 -0.0257254 -1.95883 0
M  V30 1560 H 145.751 -0.715666 -0.214082 0
M  V30 1561 H 148.413 -1.94287 0.154464 0
M  V30 1562 H 147.509 -2.96191 -0.983729 0
M  V30 1563 N 147.81 0.181792 -1.56548 0
M  V30 1564 C 148.72 1.24538 -1.98815 0
M  V30 1565 C 149.736 1.49045 -0.897861 0
M  V30 1566 O 150.912 1.61399 -1.20467 0
M  V30 1567 C 147.977 2.56683 -2.33055 0
M  V30 1568 C 147.038 2.40131 -3.55859 0
M  V30 1569 C 146.271 3.65975 -3.88456 0
M  V30 1570 O 146.494 4.70711 -3.22161 0
M  V30 1571 O 145.428 3.6071 -4.81842 0
M  V30 1572 H 149.254 0.916647 -2.89536 0
M  V30 1573 H 146.839 0.387842 -1.44278 0
M  V30 1574 H 148.721 3.34655 -2.56094 0
M  V30 1575 H 147.396 2.89157 -1.45498 0
M  V30 1576 H 146.303 1.60226 -3.38051 0
M  V30 1577 H 147.636 2.12585 -4.43924 0
M  V30 1578 N 149.288 1.51039 0.449983 0
M  V30 1579 C 150.221 1.66105 1.56474 0
M  V30 1580 C 151.199 0.508776 1.54435 0
M  V30 1581 O 152.383 0.731005 1.73749 0
M  V30 1582 C 149.51 1.66304 2.9506 0
M  V30 1583 C 148.556 2.87346 3.15174 0
M  V30 1584 S 149.389 4.4835 2.92818 0
M  V30 1585 C 150.545 4.51274 4.33708 0
M  V30 1586 H 150.778 2.60397 1.43459 0
M  V30 1587 H 148.311 1.40565 0.638805 0
M  V30 1588 H 150.269 1.67103 3.74949 0
M  V30 1589 H 148.93 0.732108 3.05449 0
M  V30 1590 H 148.123 2.83849 4.16468 0
M  V30 1591 H 147.725 2.84223 2.43091 0
M  V30 1592 H 150.017 4.26136 5.26701 0
M  V30 1593 H 150.96 5.53017 4.42242 0
M  V30 1594 H 151.368 3.80738 4.16772 0
M  V30 1595 N 150.766 -0.704594 1.40972 0
M  V30 1596 C 151.994 -1.49354 1.43182 0
M  V30 1597 C 152.409 -1.88768 0.0345508 0
M  V30 1598 O 151.766 -1.56184 -0.944081 0
M  V30 1599 C 151.817 -2.76187 2.33244 0
M  V30 1600 O 151.538 -2.38436 3.67532 0
M  V30 1601 C 153.039 -3.7 2.44162 0
M  V30 1602 H 150.259 -0.460559 0.487982 0
M  V30 1603 H 152.803 -0.868261 1.85153 0
M  V30 1604 H 150.958 -3.34974 1.94606 0
M  V30 1605 H 151.372 -3.20126 4.15475 0
M  V30 1606 H 152.846 -4.55803 3.11364 0
M  V30 1607 H 153.323 -4.13867 1.47006 0
M  V30 1608 H 153.929 -3.17121 2.83398 0
M  V30 1609 N 152.244 -1.26651 -0.937939 0
M  V30 1610 C 153.207 -1.08546 -2.01867 0
M  V30 1611 C 154.207 -0.0327327 -1.60767 0
M  V30 1612 O 155.397 -0.276427 -1.71993 0
M  V30 1613 C 152.529 -0.651711 -3.34613 0
M  V30 1614 H 153.722 -2.04502 -2.1936 0
M  V30 1615 H 151.275 -1.09294 -1.11734 0
M  V30 1616 H 152.01 0.309696 -3.22818 0
M  V30 1617 H 151.795 -1.41189 -3.65798 0
M  V30 1618 H 153.285 -0.546973 -4.14002 0
M  V30 1619 N 153.722 1.14298 -1.08507 0
M  V30 1620 C 154.685 2.17607 -0.719711 0
M  V30 1621 C 155.685 1.58907 0.245997 0
M  V30 1622 O 156.875 1.74181 0.0254081 0
M  V30 1623 C 154.007 3.40842 -0.0627695 0
M  V30 1624 H 155.2 2.51443 -1.63452 0
M  V30 1625 H 152.753 1.28963 -0.88307 0
M  V30 1626 H 153.488 3.12587 0.863716 0
M  V30 1627 H 153.273 3.84713 -0.757504 0
M  V30 1628 H 154.763 4.17221 0.177786 0
M  V30 1629 N 155.201 0.870884 1.31352 0
M  V30 1630 C 156.447 0.482987 1.96965 0
M  V30 1631 C 156.78 -0.962462 1.68672 0
M  V30 1632 O 156.055 -1.6779 0.98371 0
M  V30 1633 C 156.338 0.741752 3.52378 0
M  V30 1634 C 156.191 2.2368 3.9024 0
M  V30 1635 C 157.51 0.208838 4.39604 0
M  V30 1636 H 154.629 0.176955 0.715441 0
M  V30 1637 H 157.271 1.09229 1.55464 0
M  V30 1638 H 155.421 0.223149 3.87859 0
M  V30 1639 H 157.093 2.82273 3.64856 0
M  V30 1640 H 155.336 2.70901 3.38814 0
M  V30 1641 H 156.007 2.3685 4.98604 0
M  V30 1642 H 158.483 0.652529 4.10952 0
M  V30 1643 H 157.359 0.419336 5.47296 0
M  V30 1644 H 157.62 -0.889275 4.33064 0
M  V30 1645 N 156.679 -1.44442 0.630414 0
M  V30 1646 C 157.928 -2.01267 0.132073 0
M  V30 1647 C 158.241 -1.50172 -1.25331 0
M  V30 1648 O 159.447 -1.9912 -1.84562 0
M  V30 1649 C 157.903 -3.59422 0.185362 0
M  V30 1650 C 157.511 -4.19514 1.57201 0
M  V30 1651 C 159.255 -4.23724 -0.256553 0
M  V30 1652 C 157.162 -5.69891 1.58045 0
M  V30 1653 H 156.092 -0.752619 0.0456092 0
M  V30 1654 H 158.743 -1.65666 0.789106 0
M  V30 1655 H 157.125 -3.92318 -0.538759 0
M  V30 1656 H 158.299 -3.98156 2.31966 0
M  V30 1657 H 156.614 -3.67496 1.95795 0
M  V30 1658 H 159.211 -5.34019 -0.269767 0
M  V30 1659 H 159.554 -3.96013 -1.28372 0
M  V30 1660 H 160.087 -3.95629 0.41505 0
M  V30 1661 H 156.826 -6.02336 2.58597 0
M  V30 1662 H 156.346 -5.93373 0.875725 0
M  V30 1663 H 158.025 -6.33515 1.31408 0
M  V30 1664 N 158.157 -0.370918 -1.53173 0
M  V30 1665 C 159.12 0.460778 -2.24521 0
M  V30 1666 C 160.12 1.00536 -1.25496 0
M  V30 1667 O 161.31 0.890266 -1.49733 0
M  V30 1668 C 158.442 1.64457 -2.98608 0
M  V30 1669 H 159.635 -0.163613 -2.99453 0
M  V30 1670 H 157.188 -0.122699 -1.55818 0
M  V30 1671 H 157.923 2.30691 -2.2793 0
M  V30 1672 H 157.708 1.26099 -3.7127 0
M  V30 1673 H 159.198 2.23384 -3.5283 0
M  V30 1674 N 159.635 1.57281 -0.100228 0
M  V30 1675 C 160.881 1.94826 0.563101 0
M  V30 1676 C 161.214 0.982475 1.67514 0
M  V30 1677 O 160.489 0.0164069 1.94493 0
M  V30 1678 C 160.772 3.42453 1.11346 0
M  V30 1679 C 160.625 4.498 0.00612081 0
M  V30 1680 C 161.944 3.91506 2.01024 0
M  V30 1681 H 159.063 0.708428 0.203221 0
M  V30 1682 H 161.705 1.8922 -0.171979 0
M  V30 1683 H 159.855 3.47361 1.7399 0
M  V30 1684 H 161.527 4.57 -0.628357 0
M  V30 1685 H 159.77 4.28756 -0.659581 0
M  V30 1686 H 160.441 5.50306 0.432109 0
M  V30 1687 H 162.917 3.88784 1.48278 0
M  V30 1688 H 161.793 4.95358 2.36457 0
M  V30 1689 H 162.054 3.31099 2.92961 0
M  V30 1690 N 161.113 -0.173488 1.56642 0
M  V30 1691 C 162.361 -0.888706 1.81512 0
M  V30 1692 C 162.682 -1.82875 0.676872 0
M  V30 1693 O 161.952 -1.93536 -0.303414 0
M  V30 1694 H 160.532 -0.331164 0.669582 0
M  V30 1695 H 163.194 -0.173823 1.94123 0
M  V30 1696 H 162.29 -1.46691 2.75478 0
M  V30 1697 N 162.591 -1.51276 -0.441967 0
M  V30 1698 C 164.007 -1.39349 -0.778083 0
M  V30 1699 C 164.207 -0.472212 -1.95889 0
M  V30 1700 O 163.263 0.0743551 -2.5239 0
M  V30 1701 C 164.576 -2.81292 -1.0628 0
M  V30 1702 C 166.124 -2.9041 -1.16751 0
M  V30 1703 C 166.599 -4.33251 -1.48519 0
M  V30 1704 N 168.09 -4.36336 -1.55453 0
M  V30 1705 C 168.825 -5.43885 -1.81596 0
M  V30 1706 N 168.321 -6.61601 -2.05562 0
M  V30 1707 N 170.114 -5.3136 -1.8334 0
M  V30 1708 H 162.265 -2.09729 0.335774 0
M  V30 1709 H 164.528 -0.943925 0.0878028 0
M  V30 1710 H 164.234 -3.50678 -0.267905 0
M  V30 1711 H 164.108 -3.20334 -1.99163 0
M  V30 1712 H 166.495 -2.21225 -1.95304 0
M  V30 1713 H 166.576 -2.54871 -0.217801 0
M  V30 1714 H 166.22 -5.02984 -0.704958 0
M  V30 1715 H 166.15 -4.66299 -2.44689 0
M  V30 1716 H 168.641 -3.51466 -1.38853 0
M  V30 1717 H 168.954 -7.39361 -2.24867 0
M  V30 1718 H 167.299 -6.64725 -2.02894 0
M  V30 1719 H 170.49 -4.38382 -1.64132 0
M  V30 1720 H 170.663 -6.15258 -2.03377 0
M  V30 1721 N 164.069 0.697108 -1.41344 0
M  V30 1722 C 165.001 1.8224 -1.39001 0
M  V30 1723 C 166.014 1.60152 -0.292428 0
M  V30 1724 O 167.203 1.69684 -0.554048 0
M  V30 1725 C 164.303 3.18976 -1.14489 0
M  V30 1726 C 163.476 3.68105 -2.36258 0
M  V30 1727 C 162.535 4.83506 -2.07625 0
M  V30 1728 O 161.561 4.95201 -2.8065 0
M  V30 1729 N 162.763 5.70637 -1.06555 0
M  V30 1730 H 165.528 1.84742 -2.35988 0
M  V30 1731 H 163.089 0.87937 -1.35936 0
M  V30 1732 H 165.081 3.93801 -0.932885 0
M  V30 1733 H 163.651 3.11508 -0.261043 0
M  V30 1734 H 162.871 2.84204 -2.7317 0
M  V30 1735 H 164.159 3.97667 -3.17393 0
M  V30 1736 H 163.557 5.63817 -0.461125 0
M  V30 1737 H 162.114 6.45368 -0.913444 0
M  V30 1738 N 165.547 1.27147 0.931209 0
M  V30 1739 C 166.793 1.13446 1.68101 0
M  V30 1740 C 167.126 -0.319628 1.91552 0
M  V30 1741 O 166.401 -1.23407 1.50336 0
M  V30 1742 C 166.684 1.91482 3.0497 0
M  V30 1743 C 166.537 3.44855 2.88782 0
M  V30 1744 C 167.856 1.71651 4.05246 0
M  V30 1745 H 164.975 0.413498 0.610072 0
M  V30 1746 H 167.617 1.56261 1.08086 0
M  V30 1747 H 165.767 1.55095 3.56199 0
M  V30 1748 H 167.439 3.9105 2.44698 0
M  V30 1749 H 165.682 3.71373 2.24198 0
M  V30 1750 H 166.353 3.94694 3.85902 0
M  V30 1751 H 168.829 2.0337 3.63015 0
M  V30 1752 H 167.705 2.28651 4.99009 0
M  V30 1753 H 167.966 0.663555 4.37092 0
M  V30 1754 N 167.025 -1.13721 1.09112 0
M  V30 1755 C 167.988 -2.17222 0.731241 0
M  V30 1756 C 168.988 -1.59035 -0.237566 0
M  V30 1757 O 170.178 -1.74192 -0.0161704 0
M  V30 1758 C 167.31 -3.40804 0.0808443 0
M  V30 1759 H 168.503 -2.50573 1.64783 0
M  V30 1760 H 166.056 -1.28493 0.889897 0
M  V30 1761 H 166.791 -3.1304 -0.847127 0
M  V30 1762 H 166.576 -3.84306 0.777896 0
M  V30 1763 H 168.066 -4.1731 -0.155657 0
M  V30 1764 N 168.503 -0.877838 -1.30888 0
M  V30 1765 C 169.78 -0.413052 -1.91189 0
M  V30 1766 C 170.16 1.1056 -1.79832 0
M  V30 1767 O 169.508 1.93771 -1.21099 0
M  V30 1768 C 169.718 -0.903191 -3.3711 0
M  V30 1769 C 171.066 -0.93395 -4.14201 0
M  V30 1770 O 172.09 -0.849373 -3.45925 0
M  V30 1771 O 170.949 -1.05772 -5.36167 0
M  V30 1772 H 168.043 -0.125035 -0.817493 0
M  V30 1773 H 170.589 -0.966269 -1.39504 0
M  V30 1774 H 169.361 -1.94692 -3.39427 0
M  V30 1775 H 168.984 -0.328732 -3.96239 0
M  V30 1776 N 169.982 1.44106 -0.638065 0
M  V30 1777 C 170.945 2.29138 0.0531013 0
M  V30 1778 C 171.945 1.41409 0.765506 0
M  V30 1779 O 173.135 1.63206 0.609046 0
M  V30 1780 C 170.267 3.23144 1.08584 0
M  V30 1781 H 171.46 2.91739 -0.694883 0
M  V30 1782 H 169.013 1.51134 -0.398538 0
M  V30 1783 H 169.748 2.65408 1.86357 0
M  V30 1784 H 169.533 3.87804 0.578852 0
M  V30 1785 H 171.023 3.87004 1.56899 0
M  V30 1786 N 171.46 0.379036 1.52974 0
M  V30 1787 C 172.709 -0.207612 2.00629 0
M  V30 1788 C 173.022 -1.48758 1.27006 0
M  V30 1789 O 174.228 -2.15365 1.65318 0
M  V30 1790 C 172.684 -0.42053 3.57435 0
M  V30 1791 C 172.292 0.845587 4.39948 0
M  V30 1792 C 174.036 -0.964102 4.13407 0
M  V30 1793 C 171.943 0.601513 5.88333 0
M  V30 1794 H 170.873 -0.0813591 0.749598 0
M  V30 1795 H 173.524 0.499853 1.76561 0
M  V30 1796 H 171.906 -1.18959 3.7771 0
M  V30 1797 H 173.08 1.61848 4.31442 0
M  V30 1798 H 171.395 1.31336 3.95145 0
M  V30 1799 H 173.992 -1.16225 5.21916 0
M  V30 1800 H 174.335 -1.93019 3.68849 0
M  V30 1801 H 174.868 -0.25487 3.96983 0
M  V30 1802 H 171.607 1.53831 6.37194 0
M  V30 1803 H 171.127 -0.132628 5.99653 0
M  V30 1804 H 172.806 0.232134 6.46583 0
M  V30 1805 N 172.938 -1.57226 0.108567 0
M  V30 1806 C 174.185 -1.94833 -0.551943 0
M  V30 1807 C 174.513 -0.991204 -1.67348 0
M  V30 1808 O 173.768 -0.0131878 -1.95696 0
M  V30 1809 C 174.067 -3.38911 -1.13463 0
M  V30 1810 C 173.733 -4.50696 -0.135509 0
M  V30 1811 C 172.395 -4.80998 0.139252 0
M  V30 1812 C 174.747 -5.18333 0.545957 0
M  V30 1813 C 172.075 -5.76259 1.10194 0
M  V30 1814 C 174.427 -6.14627 1.49721 0
M  V30 1815 C 173.091 -6.43327 1.78006 0
M  V30 1816 H 172.361 -0.712944 -0.20197 0
M  V30 1817 H 175.008 -1.90582 0.18726 0
M  V30 1818 H 173.313 -3.39805 -1.95037 0
M  V30 1819 H 175.01 -3.65317 -1.65362 0
M  V30 1820 H 171.6 -4.27087 -0.359846 0
M  V30 1821 H 175.784 -4.95087 0.346842 0
M  V30 1822 H 171.04 -5.96804 1.32795 0
M  V30 1823 H 175.214 -6.66126 2.03099 0
M  V30 1824 H 172.841 -7.1695 2.52759 0
M  V30 1825 N 174.416 0.165178 -1.56732 0
M  V30 1826 C 175.348 1.22911 -1.93457 0
M  V30 1827 C 176.361 1.40152 -0.828333 0
M  V30 1828 O 177.55 1.40046 -1.10677 0
M  V30 1829 C 174.65 2.59686 -2.17753 0
M  V30 1830 C 173.823 2.63663 -3.48999 0
M  V30 1831 C 172.882 3.81845 -3.62051 0
M  V30 1832 O 171.908 3.67559 -4.34613 0
M  V30 1833 N 173.11 4.98557 -2.97357 0
M  V30 1834 H 175.875 0.917118 -2.85323 0
M  V30 1835 H 173.436 0.354895 -1.57962 0
M  V30 1836 H 175.428 3.37225 -2.23743 0
M  V30 1837 H 173.998 2.83251 -1.32242 0
M  V30 1838 H 173.218 1.72173 -3.54612 0
M  V30 1839 H 174.506 2.63336 -4.35352 0
M  V30 1840 H 173.904 5.13065 -2.38287 0
M  V30 1841 H 172.461 5.73936 -3.08934 0
M  V30 1842 N 175.894 1.51508 0.433938 0
M  V30 1843 C 177.119 1.68443 1.21003 0
M  V30 1844 C 177.544 0.382636 1.84167 0
M  V30 1845 O 176.902 -0.65755 1.68956 0
M  V30 1846 C 176.95 2.80405 2.26727 0
M  V30 1847 O 176.054 2.44245 3.32292 0
M  V30 1848 H 175.395 0.561536 0.354363 0
M  V30 1849 H 177.925 1.9809 0.512024 0
M  V30 1850 H 177.935 3.0459 2.71457 0
M  V30 1851 H 176.61 3.74867 1.80132 0
M  V30 1852 H 175.187 2.30644 2.93015 0
M  V30 1853 N 177.372 -0.689602 1.41712 0
M  V30 1854 C 178.62 -1.4468 1.4111 0
M  V30 1855 C 178.941 -1.94986 0.0232196 0
M  V30 1856 O 178.211 -1.72097 -0.935913 0
M  V30 1857 H 176.791 -0.536847 0.519427 0
M  V30 1858 H 179.453 -0.815825 1.77004 0
M  V30 1859 H 178.549 -2.30706 2.10193 0
M  V30 1860 N 178.85 -1.27639 -0.924453 0
M  V30 1861 C 180.075 -1.17101 -1.71179 0
M  V30 1862 C 180.5 0.268134 -1.86179 0
M  V30 1863 O 179.858 1.19415 -1.36418 0
M  V30 1864 C 179.906 -1.86313 -3.08739 0
M  V30 1865 O 179.01 -1.16331 -3.95652 0
M  V30 1866 H 178.351 -0.407091 -0.524569 0
M  V30 1867 H 180.881 -1.68767 -1.15666 0
M  V30 1868 H 180.891 -1.938 -3.59034 0
M  V30 1869 H 179.566 -2.91001 -2.97138 0
M  V30 1870 H 178.143 -1.16935 -3.54091 0
M  V30 1871 N 180.328 1.1314 -1.09713 0
M  V30 1872 C 181.576 1.84119 -0.833338 0
M  V30 1873 C 181.897 1.84097 0.642904 0
M  V30 1874 O 181.167 1.29881 1.46655 0
M  V30 1875 H 179.747 0.681766 -0.305293 0
M  V30 1876 H 182.409 1.37038 -1.38588 0
M  V30 1877 H 181.505 2.88543 -1.18951 0
M  V30 1878 N 181.806 0.884767 1.30421 0
M  V30 1879 C 182.769 0.356277 2.26414 0
M  V30 1880 C 183.769 -0.501124 1.52792 0
M  V30 1881 O 184.959 -0.30831 1.7145 0
M  V30 1882 C 182.091 -0.492316 3.37326 0
M  V30 1883 H 183.284 1.20389 2.74675 0
M  V30 1884 H 180.837 0.661607 1.41607 0
M  V30 1885 H 181.572 -1.36052 2.94381 0
M  V30 1886 H 181.357 0.121832 3.91911 0
M  V30 1887 H 182.847 -0.853871 4.08777 0
M  V30 1888 N 183.284 -1.43765 0.645699 0
M  V30 1889 C 184.7 -1.56509 0.312591 0
M  V30 1890 C 184.9 -1.6307 -1.18365 0
M  V30 1891 O 183.956 -1.58167 -1.96824 0
M  V30 1892 C 185.269 -2.82968 1.01733 0
M  V30 1893 C 186.817 -2.96701 0.996865 0
M  V30 1894 C 187.292 -4.25982 1.68236 0
M  V30 1895 N 188.783 -4.32829 1.64964 0
M  V30 1896 C 189.518 -5.31613 2.14885 0
M  V30 1897 N 189.014 -6.36718 2.73061 0
M  V30 1898 N 190.807 -5.23217 2.05428 0
M  V30 1899 H 182.958 -1.3775 1.61675 0
M  V30 1900 H 185.221 -0.661067 0.679481 0
M  V30 1901 H 184.927 -2.84156 2.0724 0
M  V30 1902 H 184.801 -3.72957 0.564177 0
M  V30 1903 H 187.188 -2.95058 -0.0497719 0
M  V30 1904 H 187.269 -2.08022 1.48865 0
M  V30 1905 H 186.913 -4.28386 2.72852 0
M  V30 1906 H 186.843 -5.13545 1.16529 0
M  V30 1907 H 189.334 -3.57493 1.22503 0
M  V30 1908 H 189.647 -7.08401 3.08848 0
M  V30 1909 H 187.992 -6.37362 2.77118 0
M  V30 1910 H 191.183 -4.40019 1.59689 0
M  V30 1911 H 191.356 -6.00045 2.44643 0
M  V30 1912 N 184.763 -0.387143 -1.52771 0
M  V30 1913 C 186.012 0.19697 -2.00736 0
M  V30 1914 C 186.325 1.48082 -1.27793 0
M  V30 1915 O 187.531 2.14485 -1.66458 0
M  V30 1916 C 185.987 0.401568 -3.57653 0
M  V30 1917 C 185.595 -0.868907 -4.39493 0
M  V30 1918 C 187.339 0.942164 -4.13912 0
M  V30 1919 C 185.246 -0.632705 -5.88006 0
M  V30 1920 H 184.176 0.0773827 -0.750019 0
M  V30 1921 H 186.827 -0.50921 -1.76293 0
M  V30 1922 H 185.209 1.16954 -3.78335 0
M  V30 1923 H 186.383 -1.64133 -4.30577 0
M  V30 1924 H 184.698 -1.33429 -3.94443 0
M  V30 1925 H 187.295 1.13455 -5.22525 0
M  V30 1926 H 187.638 1.9106 -3.69867 0
M  V30 1927 H 188.171 0.233814 -3.97112 0
M  V30 1928 H 184.91 -1.57208 -6.36369 0
M  V30 1929 H 184.43 0.100825 -5.99715 0
M  V30 1930 H 186.109 -0.26642 -6.46451 0
M  V30 1931 N 186.241 1.57166 -0.116904 0
M  V30 1932 C 187.49 1.94298 0.541407 0
M  V30 1933 C 187.803 1.00236 1.67964 0
M  V30 1934 O 189.009 1.26826 2.40057 0
M  V30 1935 C 187.465 3.45306 1.01449 0
M  V30 1936 C 187.073 4.47899 -0.0951738 0
M  V30 1937 C 188.817 3.91361 1.6443 0
M  V30 1938 C 186.724 5.90083 0.394491 0
M  V30 1939 H 185.654 0.725308 0.206019 0
M  V30 1940 H 188.305 1.82446 -0.196419 0
M  V30 1941 H 186.687 3.52385 1.80667 0
M  V30 1942 H 187.861 4.52486 -0.871374 0
M  V30 1943 H 186.176 4.11583 -0.631505 0
M  V30 1944 H 188.773 4.95004 2.02176 0
M  V30 1945 H 189.116 3.3122 2.52189 0
M  V30 1946 H 189.649 3.87073 0.917559 0
M  V30 1947 H 186.388 6.53974 -0.447004 0
M  V30 1948 H 185.908 5.88921 1.13722 0
M  V30 1949 H 187.587 6.41307 0.856399 0
M  V30 1950 N 187.719 -0.156864 1.56817 0
M  V30 1951 C 188.966 -0.871125 1.82805 0
M  V30 1952 C 189.294 -1.81611 0.696262 0
M  V30 1953 O 188.549 -1.93141 -0.315459 0
M  V30 1954 C 188.848 -1.68737 3.1506 0
M  V30 1955 C 188.514 -0.890045 4.42028 0
M  V30 1956 C 187.176 -0.670042 4.76512 0
M  V30 1957 C 189.528 -0.331769 5.20143 0
M  V30 1958 C 186.856 0.119104 5.86579 0
M  V30 1959 C 189.208 0.444365 6.31037 0
M  V30 1960 C 187.872 0.675035 6.64078 0
M  V30 1961 H 187.142 -0.318767 0.668931 0
M  V30 1962 H 189.789 -0.135274 1.91022 0
M  V30 1963 H 188.094 -2.49304 3.0225 0
M  V30 1964 H 189.791 -2.24331 3.3238 0
M  V30 1965 H 186.381 -1.07157 4.14988 0
M  V30 1966 H 190.565 -0.489043 4.93885 0
M  V30 1967 H 185.821 0.307417 6.10627 0
M  V30 1968 H 189.995 0.884139 6.90765 0
M  V30 1969 H 187.622 1.28839 7.49203 0
M  V30 1970 N 189.197 -1.51736 -0.425897 0
M  V30 1971 C 190.127 -1.76827 -1.52494 0
M  V30 1972 C 191.108 -0.618524 -1.58456 0
M  V30 1973 O 192.293 -0.862416 -1.74 0
M  V30 1974 C 189.423 -1.90374 -2.90474 0
M  V30 1975 C 188.377 -3.0588 -2.99369 0
M  V30 1976 C 187.703 -3.04625 -4.3944 0
M  V30 1977 C 189.003 -4.45644 -2.72394 0
M  V30 1978 H 190.697 -2.68855 -1.31748 0
M  V30 1979 H 188.243 -1.29372 -0.632362 0
M  V30 1980 H 190.196 -2.0651 -3.6733 0
M  V30 1981 H 188.92 -0.95004 -3.12477 0
M  V30 1982 H 187.579 -2.89467 -2.24954 0
M  V30 1983 H 187.227 -2.0701 -4.58428 0
M  V30 1984 H 186.927 -3.82195 -4.46319 0
M  V30 1985 H 188.451 -3.22869 -5.18255 0
M  V30 1986 H 189.865 -4.62348 -3.38979 0
M  V30 1987 H 188.262 -5.25006 -2.9067 0
M  V30 1988 H 189.332 -4.54893 -1.67929 0
M  V30 1989 N 190.675 0.682077 -1.42076 0
M  V30 1990 C 191.923 1.4393 -1.41876 0
M  V30 1991 C 192.244 1.94971 -0.0335599 0
M  V30 1992 O 191.514 1.72591 0.926773 0
M  V30 1993 H 190.094 0.534085 -0.522267 0
M  V30 1994 H 192.756 0.806427 -1.77434 0
M  V30 1995 H 191.852 2.29588 -2.11414 0
M  V30 1996 N 192.153 1.28127 0.917671 0
M  V30 1997 C 193.43 1.05761 1.64542 0
M  V30 1998 C 193.81 -0.404344 2.07191 0
M  V30 1999 O 193.158 -1.38963 1.81388 0
M  V30 2000 C 193.368 2.02857 2.83989 0
M  V30 2001 C 194.716 2.32786 3.551 0
M  V30 2002 O 195.74 2.0091 2.94132 0
M  V30 2003 O 194.599 2.87169 4.64969 0
M  V30 2004 H 191.693 0.403916 0.721652 0
M  V30 2005 H 194.239 1.39431 0.967322 0
M  V30 2006 H 193.011 3.01407 2.49538 0
M  V30 2007 H 192.634 1.69809 3.59514 0
M  V30 2008 N 193.631 -1.12557 1.10312 0
M  V30 2009 C 194.561 -2.20341 0.772798 0
M  V30 2010 C 195.542 -1.68198 -0.25365 0
M  V30 2011 O 196.727 -1.93831 -0.119699 0
M  V30 2012 C 193.857 -3.46709 0.202443 0
M  V30 2013 C 192.811 -4.11996 1.15943 0
M  V30 2014 C 192.137 -5.328 0.450345 0
M  V30 2015 C 193.437 -4.5828 2.50552 0
M  V30 2016 H 195.131 -2.48229 1.674 0
M  V30 2017 H 192.677 -1.19308 0.806326 0
M  V30 2018 H 194.63 -4.2138 -0.0407752 0
M  V30 2019 H 193.354 -3.18245 -0.734001 0
M  V30 2020 H 192.013 -3.39305 1.38808 0
M  V30 2021 H 191.661 -5.00602 -0.490531 0
M  V30 2022 H 191.361 -5.7743 1.08851 0
M  V30 2023 H 192.885 -6.10219 0.215642 0
M  V30 2024 H 194.299 -5.2433 2.31843 0
M  V30 2025 H 192.696 -5.13683 3.10242 0
M  V30 2026 H 193.766 -3.72329 3.10643 0
M  V30 2027 N 195.109 -0.891671 -1.2995 0
M  V30 2028 C 196.355 -0.514261 -1.96171 0
M  V30 2029 C 196.688 0.935506 -1.70182 0
M  V30 2030 O 195.963 1.66204 -1.01028 0
M  V30 2031 C 196.246 -0.797719 -3.51153 0
M  V30 2032 C 196.099 -2.2986 -3.86632 0
M  V30 2033 C 197.418 -0.278749 -4.39216 0
M  V30 2034 H 194.537 -0.188314 -0.712535 0
M  V30 2035 H 197.179 -1.11689 -1.53706 0
M  V30 2036 H 195.329 -0.284826 -3.87455 0
M  V30 2037 H 197.001 -2.88042 -3.60319 0
M  V30 2038 H 195.244 -2.76257 -3.34462 0
M  V30 2039 H 195.915 -2.44753 -4.94773 0
M  V30 2040 H 198.391 -0.717825 -4.09862 0
M  V30 2041 H 197.267 -0.506353 -5.46559 0
M  V30 2042 H 197.528 0.820266 -4.34424 0
M  V30 2043 N 196.587 1.43421 -0.653314 0
M  V30 2044 C 198.003 1.56341 -0.320886 0
M  V30 2045 C 198.203 1.63696 1.17499 0
M  V30 2046 O 197.259 1.59208 1.95982 0
M  V30 2047 C 198.572 2.82424 -1.03233 0
M  V30 2048 C 200.12 2.96168 -1.01259 0
M  V30 2049 C 200.595 4.25084 -1.70492 0
M  V30 2050 N 202.086 4.31948 -1.67257 0
M  V30 2051 C 202.821 5.30466 -2.17701 0
M  V30 2052 N 202.317 6.35261 -2.76434 0
M  V30 2053 N 204.11 5.2212 -2.082 0
M  V30 2054 H 196.261 1.3689 -1.62403 0
M  V30 2055 H 198.524 0.657455 -0.682977 0
M  V30 2056 H 198.23 2.83053 -2.08744 0
M  V30 2057 H 198.104 3.72653 -0.583948 0
M  V30 2058 H 200.491 2.9508 0.0341235 0
M  V30 2059 H 200.572 2.07229 -1.49966 0
M  V30 2060 H 200.216 4.26932 -2.7512 0
M  V30 2061 H 200.146 5.1292 -1.19251 0
M  V30 2062 H 202.637 3.56838 -1.24398 0
M  V30 2063 H 202.95 7.06754 -3.12601 0
M  V30 2064 H 201.295 6.35884 -2.80495 0
M  V30 2065 H 204.486 4.39166 -1.62021 0
M  V30 2066 H 204.659 5.98739 -2.47822 0
M  V30 2067 N 198.065 0.39524 1.52563 0
M  V30 2068 C 199.342 -0.242908 1.94086 0
M  V30 2069 C 199.722 -1.63841 1.33114 0
M  V30 2070 O 199.07 -2.22928 0.501529 0
M  V30 2071 C 199.28 -0.26327 3.48006 0
M  V30 2072 C 200.628 -0.489354 4.21771 0
M  V30 2073 O 201.652 -0.343226 3.54543 0
M  V30 2074 O 200.511 -0.776169 5.4096 0
M  V30 2075 H 197.605 -0.152536 0.812811 0
M  V30 2076 H 200.151 0.450178 1.6362 0
M  V30 2077 H 198.923 0.713985 3.84731 0
M  V30 2078 H 198.546 -1.00103 3.84792 0
M  V30 2079 N 199.544 -1.57102 0.125237 0
M  V30 2080 C 200.792 -1.95021 -0.530198 0
M  V30 2081 C 201.113 -1.00982 -1.66816 0
M  V30 2082 O 200.383 -0.0672693 -1.95784 0
M  V30 2083 H 198.963 -0.720046 -0.198853 0
M  V30 2084 H 201.625 -1.93916 0.19564 0
M  V30 2085 H 200.721 -2.98211 -0.920681 0
M  V30 2086 N 201.022 0.148545 -1.56898 0
M  V30 2087 C 201.932 1.20293 -2.01412 0
M  V30 2088 C 202.948 1.47107 -0.929273 0
M  V30 2089 O 204.124 1.58807 -1.23863 0
M  V30 2090 C 201.189 2.51682 -2.38447 0
M  V30 2091 C 200.25 2.32529 -3.60872 0
M  V30 2092 C 199.483 3.57653 -3.96132 0
M  V30 2093 O 199.706 4.63771 -3.32073 0
M  V30 2094 O 198.64 3.50408 -4.89385 0
M  V30 2095 H 202.466 0.855025 -2.91416 0
M  V30 2096 H 200.051 0.357151 -1.45068 0
M  V30 2097 H 201.933 3.29147 -2.63135 0
M  V30 2098 H 200.608 2.86006 -1.51599 0
M  V30 2099 H 199.515 1.53019 -3.41373 0
M  V30 2100 H 200.848 2.03121 -4.48333 0
M  V30 2101 N 202.5 1.5196 0.417844 0
M  V30 2102 C 203.911 1.57851 0.997 0
M  V30 2103 C 204.262 0.413714 1.91789 0
M  V30 2104 O 203.387 -0.467057 2.113 0
M  V30 2105 C 203.982 2.86085 1.81496 0
M  V30 2106 C 202.541 2.94483 2.34428 0
M  V30 2107 C 201.688 2.52707 1.14169 0
M  V30 2108 H 204.639 1.57455 0.198392 0
M  V30 2109 H 204.66 2.70947 2.67148 0
M  V30 2110 H 204.172 3.70842 1.14446 0
M  V30 2111 H 202.273 2.142 3.04875 0
M  V30 2112 H 202.386 3.98546 2.65891 0
M  V30 2113 H 200.75 2.06353 1.49301 0
M  V30 2114 H 201.533 3.39828 0.486999 0
M  V30 2115 N 203.978 -0.674533 1.42435 0
M  V30 2116 C 205.208 -1.46071 1.46105 0
M  V30 2117 C 205.616 -1.89067 0.0709605 0
M  V30 2118 O 204.959 -1.58731 -0.924677 0
M  V30 2119 C 205.021 -2.74145 2.32561 0
M  V30 2120 C 204.685 -2.53224 3.8043 0
M  V30 2121 C 205.682 -2.17809 4.72075 0
M  V30 2122 C 203.367 -2.6821 4.24698 0
M  V30 2123 C 205.361 -1.97648 6.05982 0
M  V30 2124 C 203.048 -2.47665 5.58664 0
M  V30 2125 C 204.046 -2.12437 6.49122 0
M  V30 2126 O 203.734 -1.9209 7.80613 0
M  V30 2127 H 203.466 -0.455959 0.499076 0
M  V30 2128 H 206.02 -0.836193 1.87609 0
M  V30 2129 H 204.25 -3.3908 1.85908 0
M  V30 2130 H 205.939 -3.36028 2.27683 0
M  V30 2131 H 206.705 -2.05826 4.39159 0
M  V30 2132 H 202.584 -2.94609 3.54579 0
M  V30 2133 H 206.128 -1.70075 6.7655 0
M  V30 2134 H 202.025 -2.59244 5.91154 0
M  V30 2135 H 202.793 -2.06686 7.91974 0
M  V30 2136 N 205.456 -1.28612 -0.910864 0
M  V30 2137 C 206.681 -1.1891 -1.69927 0
M  V30 2138 C 207.106 0.248372 -1.86453 0
M  V30 2139 O 206.464 1.17961 -1.37676 0
M  V30 2140 C 206.512 -1.89578 -3.06745 0
M  V30 2141 O 205.616 -1.20521 -3.94396 0
M  V30 2142 H 204.957 -0.412632 -0.520222 0
M  V30 2143 H 207.487 -1.69985 -1.1387 0
M  V30 2144 H 207.497 -1.97597 -3.56958 0
M  V30 2145 H 206.172 -2.94136 -2.94035 0
M  V30 2146 H 204.749 -1.20684 -3.52831 0
M  V30 2147 N 206.934 1.1197 -1.10907 0
M  V30 2148 C 208.164 1.8713 -0.875553 0
M  V30 2149 C 208.572 1.8016 0.577843 0
M  V30 2150 O 207.915 1.17699 1.41042 0
M  V30 2151 C 207.977 3.37005 -1.2517 0
M  V30 2152 C 207.641 3.67748 -2.71313 0
M  V30 2153 C 208.638 3.65698 -3.69542 0
M  V30 2154 C 206.323 3.96928 -3.07821 0
M  V30 2155 C 208.317 3.92395 -5.023 0
M  V30 2156 C 206.004 4.23284 -4.40765 0
M  V30 2157 C 207.002 4.21005 -5.37814 0
M  V30 2158 O 206.69 4.46704 -6.68364 0
M  V30 2159 H 206.422 0.598786 -0.313737 0
M  V30 2160 H 208.976 1.42568 -1.47863 0
M  V30 2161 H 207.206 3.82146 -0.591741 0
M  V30 2162 H 208.895 3.93519 -0.994877 0
M  V30 2163 H 209.661 3.43211 -3.42682 0
M  V30 2164 H 205.54 3.97841 -2.32902 0
M  V30 2165 H 209.084 3.90531 -5.78041 0
M  V30 2166 H 204.981 4.45246 -4.67361 0
M  V30 2167 H 205.749 4.64299 -6.74069 0
M  V30 2168 N 208.412 0.89855 1.29475 0
M  V30 2169 C 209.66 0.522847 1.9522 0
M  V30 2170 C 209.981 -0.93371 1.71192 0
M  V30 2171 O 209.251 -1.65823 1.04305 0
M  V30 2172 H 207.831 0.190366 0.722336 0
M  V30 2173 H 210.493 1.14459 1.5775 0
M  V30 2174 H 209.589 0.704476 3.04045 0
M  V30 2175 N 209.89 -1.43072 0.660911 0
M  V30 2176 C 211.301 -1.84932 0.256348 0
M  V30 2177 C 211.652 -1.55325 -1.19868 0
M  V30 2178 O 210.777 -1.00607 -1.91591 0
M  V30 2179 C 211.372 -3.35684 0.458475 0
M  V30 2180 C 209.931 -3.76245 0.108161 0
M  V30 2181 C 209.078 -2.66749 0.757641 0
M  V30 2182 H 212.029 -1.33116 0.864051 0
M  V30 2183 H 212.05 -3.79365 -0.293683 0
M  V30 2184 H 211.562 -3.572 1.51755 0
M  V30 2185 H 209.663 -3.60338 -0.948014 0
M  V30 2186 H 209.776 -4.76058 0.538992 0
M  V30 2187 H 208.14 -2.53989 0.190185 0
M  V30 2188 H 208.923 -2.91092 1.81989 0
M  V30 2189 N 211.368 -0.403325 -1.52352 0
M  V30 2190 C 212.779 0.0675782 -1.86578 0
M  V30 2191 C 213.13 1.44941 -1.32236 0
M  V30 2192 O 212.255 2.06112 -0.659307 0
M  V30 2193 C 212.85 0.129404 -3.38553 0
M  V30 2194 C 211.409 0.544629 -3.72439 0
M  V30 2195 C 210.556 -0.284551 -2.75836 0
M  V30 2196 H 213.507 -0.620631 -1.46061 0
M  V30 2197 H 213.528 0.94581 -3.68558 0
M  V30 2198 H 213.04 -0.87645 -3.78074 0
M  V30 2199 H 211.141 1.55734 -3.38493 0
M  V30 2200 H 211.254 0.293046 -4.78203 0
M  V30 2201 H 209.618 0.252258 -2.53448 0
M  V30 2202 H 210.401 -1.28865 -3.18196 0
M  V30 2203 N 212.846 1.57033 -0.133567 0
M  V30 2204 C 214.095 1.94861 0.520768 0
M  V30 2205 C 214.408 1.02012 1.66892 0
M  V30 2206 O 215.614 1.29365 2.38699 0
M  V30 2207 C 214.07 3.46362 0.977809 0
M  V30 2208 C 213.678 4.47773 -0.142674 0
M  V30 2209 C 215.422 3.93083 1.60269 0
M  V30 2210 C 213.329 5.90468 0.331883 0
M  V30 2211 H 212.259 0.727453 0.198315 0
M  V30 2212 H 214.91 1.82227 -0.215759 0
M  V30 2213 H 213.292 3.54282 1.7692 0
M  V30 2214 H 214.466 4.51536 -0.919317 0
M  V30 2215 H 212.781 4.10891 -0.675124 0
M  V30 2216 H 215.378 4.97121 1.96914 0
M  V30 2217 H 215.721 3.33876 2.48662 0
M  V30 2218 H 216.254 3.88025 0.876453 0
M  V30 2219 H 212.993 6.53463 -0.516341 0
M  V30 2220 H 212.513 5.90094 1.07469 0
M  V30 2221 H 214.192 6.42179 0.788332 0
M  V30 2222 N 214.325 -0.140222 1.56975 0
M  V30 2223 C 215.235 -1.19223 2.02047 0
M  V30 2224 C 216.251 -1.46612 0.937062 0
M  V30 2225 O 217.427 -1.58148 1.24704 0
M  V30 2226 C 214.492 -2.50414 2.39778 0
M  V30 2227 C 213.553 -2.30612 3.621 0
M  V30 2228 C 212.786 -3.55547 3.98023 0
M  V30 2229 O 213.009 -4.62004 3.34528 0
M  V30 2230 O 211.943 -3.47808 4.91237 0
M  V30 2231 H 215.769 -0.839559 2.91865 0
M  V30 2232 H 213.354 -0.349453 1.45256 0
M  V30 2233 H 215.236 -3.27747 2.64877 0
M  V30 2234 H 213.911 -2.85198 1.53114 0
M  V30 2235 H 212.818 -1.51207 3.4218 0
M  V30 2236 H 214.151 -2.00741 4.49404 0
M  V30 2237 N 215.803 -1.52179 -0.40978 0
M  V30 2238 C 217.08 -1.56769 -1.16974 0
M  V30 2239 C 217.46 -0.348322 -2.08206 0
M  V30 2240 O 216.808 0.664862 -2.18613 0
M  V30 2241 C 217.018 -2.89603 -1.9476 0
M  V30 2242 C 218.366 -3.42579 -2.50849 0
M  V30 2243 O 219.39 -2.91338 -2.04941 0
M  V30 2244 O 218.249 -4.32054 -3.34652 0
M  V30 2245 H 215.343 -0.631439 -0.534054 0
M  V30 2246 H 217.889 -1.64507 -0.416613 0
M  V30 2247 H 216.661 -3.698 -1.27921 0
M  V30 2248 H 216.284 -2.85155 -2.77079 0
M  V30 2249 N 217.281 0.66697 -1.42791 0
M  V30 2250 C 218.692 1.2478 -1.38877 0
M  V30 2251 C 219.043 1.96012 -0.0859426 0
M  V30 2252 O 218.168 2.00463 0.815081 0
M  V30 2253 C 218.763 2.26938 -2.51564 0
M  V30 2254 C 217.322 2.80529 -2.50959 0
M  V30 2255 C 216.469 1.54965 -2.29959 0
M  V30 2256 H 219.42 0.459853 -1.51892 0
M  V30 2257 H 219.441 3.08834 -2.22265 0
M  V30 2258 H 218.953 1.75065 -3.46372 0
M  V30 2259 H 217.054 3.36502 -1.59991 0
M  V30 2260 H 217.167 3.29012 -3.48265 0
M  V30 2261 H 215.531 1.81817 -1.78366 0
M  V30 2262 H 216.314 1.05047 -3.26833 0
M  V30 2263 N 218.759 1.29093 0.90403 0
M  V30 2264 C 219.691 1.09658 2.01266 0
M  V30 2265 C 220.704 0.0453729 1.62737 0
M  V30 2266 O 221.893 0.289446 1.76138 0
M  V30 2267 C 218.993 0.646278 3.32681 0
M  V30 2268 C 218.166 1.77505 3.99763 0
M  V30 2269 C 217.225 1.31649 5.09465 0
M  V30 2270 O 216.251 2.02045 5.32134 0
M  V30 2271 N 217.453 0.184997 5.80205 0
M  V30 2272 H 220.218 2.05135 2.18494 0
M  V30 2273 H 217.779 1.20975 1.07594 0
M  V30 2274 H 219.771 0.322906 4.0341 0
M  V30 2275 H 218.341 -0.215916 3.11853 0
M  V30 2276 H 217.561 2.26752 3.22455 0
M  V30 2277 H 218.849 2.53198 4.41325 0
M  V30 2278 H 218.247 -0.402021 5.6427 0
M  V30 2279 H 216.804 -0.0790358 6.51752 0
M  V30 2280 N 220.237 -1.11381 1.11499 0
M  V30 2281 C 221.653 -1.35143 0.849031 0
M  V30 2282 C 221.853 -1.94515 -0.525938 0
M  V30 2283 O 220.909 -2.1785 -1.27662 0
M  V30 2284 C 222.222 -2.28249 1.95762 0
M  V30 2285 C 223.77 -2.41812 1.98736 0
M  V30 2286 C 224.245 -3.3824 3.088 0
M  V30 2287 N 225.736 -3.45803 3.08179 0
M  V30 2288 C 226.471 -4.20358 3.89982 0
M  V30 2289 N 225.967 -4.97884 4.8175 0
M  V30 2290 N 227.76 -4.15877 3.78157 0
M  V30 2291 H 219.911 -0.712062 2.00109 0
M  V30 2292 H 222.174 -0.376025 0.870235 0
M  V30 2293 H 221.88 -1.91817 2.94787 0
M  V30 2294 H 221.754 -3.28473 1.85433 0
M  V30 2295 H 224.141 -2.77518 1.00338 0
M  V30 2296 H 224.222 -1.41437 2.13141 0
M  V30 2297 H 223.866 -3.03261 4.07425 0
M  V30 2298 H 223.796 -4.38471 2.91635 0
M  V30 2299 H 226.287 -2.90506 2.41691 0
M  V30 2300 H 226.6 -5.52142 5.40702 0
M  V30 2301 H 224.945 -4.97043 4.85771 0
M  V30 2302 H 228.136 -3.544 3.05808 0
M  V30 2303 H 228.309 -4.73723 4.42143 0
M  V30 2304 N 221.715 -0.905404 -1.28997 0
M  V30 2305 C 222.625 -0.392246 -2.31298 0
M  V30 2306 C 223.641 0.515889 -1.66176 0
M  V30 2307 O 224.817 0.404093 -1.97304 0
M  V30 2308 C 221.882 0.36686 -3.44754 0
M  V30 2309 C 220.943 -0.573485 -4.25452 0
M  V30 2310 C 220.176 0.149488 -5.33491 0
M  V30 2311 O 220.399 1.37255 -5.5364 0
M  V30 2312 O 219.333 -0.510919 -5.99728 0
M  V30 2313 H 223.159 -1.2411 -2.77183 0
M  V30 2314 H 220.744 -0.669926 -1.33538 0
M  V30 2315 H 222.626 0.795907 -4.13816 0
M  V30 2316 H 221.301 1.19169 -3.00966 0
M  V30 2317 H 220.208 -1.05176 -3.59011 0
M  V30 2318 H 221.541 -1.36489 -4.72897 0
M  V30 2319 N 223.193 1.4272 -0.668489 0
M  V30 2320 C 224.604 1.84793 -0.266151 0
M  V30 2321 C 224.955 1.55959 1.19043 0
M  V30 2322 O 224.08 1.01622 1.91055 0
M  V30 2323 C 224.675 3.35436 -0.476271 0
M  V30 2324 C 223.234 3.76182 -0.128113 0
M  V30 2325 C 222.381 2.66344 -0.771777 0
M  V30 2326 H 225.332 1.32656 -0.871098 0
M  V30 2327 H 225.353 3.79515 0.273561 0
M  V30 2328 H 224.865 3.5639 -1.53647 0
M  V30 2329 H 222.966 3.60836 0.928891 0
M  V30 2330 H 223.079 4.75766 -0.564231 0
M  V30 2331 H 221.443 2.53885 -0.203652 0
M  V30 2332 H 222.226 2.90123 -1.83531 0
M  V30 2333 N 224.671 0.411399 1.52136 0
M  V30 2334 C 225.634 -0.401089 2.25663 0
M  V30 2335 C 226.634 -0.971732 1.28117 0
M  V30 2336 O 227.824 -0.850254 1.52041 0
M  V30 2337 C 224.956 -1.56483 3.02863 0
M  V30 2338 H 226.149 0.24295 2.98914 0
M  V30 2339 H 223.702 0.163968 1.55438 0
M  V30 2340 H 224.437 -2.24567 2.33967 0
M  V30 2341 H 224.222 -1.16211 3.74483 0
M  V30 2342 H 225.712 -2.13951 3.58629 0
M  V30 2343 N 226.149 -1.5696 0.141893 0
M  V30 2344 C 227.081 -2.13619 -0.830627 0
M  V30 2345 C 228.094 -1.08439 -1.21428 0
M  V30 2346 O 229.283 -1.35734 -1.15925 0
M  V30 2347 C 226.383 -2.63978 -2.12529 0
M  V30 2348 C 225.556 -3.93504 -1.9098 0
M  V30 2349 C 224.615 -4.29225 -3.04388 0
M  V30 2350 O 223.641 -4.97641 -2.76302 0
M  V30 2351 N 224.843 -3.88393 -4.31429 0
M  V30 2352 H 227.608 -2.97691 -0.34641 0
M  V30 2353 H 225.169 -1.61846 -0.0418375 0
M  V30 2354 H 227.161 -2.84891 -2.87436 0
M  V30 2355 H 225.731 -1.84659 -2.52229 0
M  V30 2356 H 224.951 -3.81269 -1.00139 0
M  V30 2357 H 226.239 -4.78154 -1.73914 0
M  V30 2358 H 225.637 -3.33257 -4.57117 0
M  V30 2359 H 224.194 -4.14368 -5.03133 0
M  V30 2360 N 227.627 0.131896 -1.57047 0
M  V30 2361 C 229.038 0.690407 -1.73465 0
M  V30 2362 C 229.389 1.8094 -0.758629 0
M  V30 2363 O 228.514 2.16282 0.0713813 0
M  V30 2364 C 229.109 1.25916 -3.14532 0
M  V30 2365 C 227.668 1.76409 -3.32501 0
M  V30 2366 C 226.815 0.658579 -2.69366 0
M  V30 2367 H 229.766 -0.0939144 -1.58422 0
M  V30 2368 H 229.787 2.12892 -3.15369 0
M  V30 2369 H 229.299 0.444515 -3.85546 0
M  V30 2370 H 227.4 2.60391 -2.66509 0
M  V30 2371 H 227.513 1.88241 -4.4057 0
M  V30 2372 H 225.877 1.08899 -2.30246 0
M  V30 2373 H 226.66 -0.14487 -3.42994 0
M  V30 2374 N 229.106 1.52395 0.401703 0
M  V30 2375 C 230.069 1.75636 1.47257 0
M  V30 2376 C 231.069 0.62628 1.48103 0
M  V30 2377 O 232.259 0.894227 1.49497 0
M  V30 2378 C 229.391 1.84553 2.86624 0
M  V30 2379 H 230.584 2.71241 1.27938 0
M  V30 2380 H 228.137 1.42923 0.632662 0
M  V30 2381 H 228.872 0.908882 3.11303 0
M  V30 2382 H 228.657 2.66715 2.87412 0
M  V30 2383 H 230.147 2.04251 3.64241 0
M  V30 2384 N 230.584 -0.659388 1.43143 0
M  V30 2385 C 231.831 -1.41935 1.44433 0
M  V30 2386 C 232.159 -1.94387 0.0663522 0
M  V30 2387 O 231.414 -1.72314 -0.927706 0
M  V30 2388 C 231.713 -2.62206 2.42864 0
M  V30 2389 C 231.379 -2.28208 3.88886 0
M  V30 2390 C 230.041 -2.18647 4.28657 0
M  V30 2391 C 232.393 -2.00887 4.8093 0
M  V30 2392 C 229.721 -1.79914 5.58433 0
M  V30 2393 C 232.073 -1.63653 6.11065 0
M  V30 2394 C 230.737 -1.52614 6.49819 0
M  V30 2395 H 230.007 -0.519376 0.528517 0
M  V30 2396 H 232.654 -0.750453 1.76183 0
M  V30 2397 H 230.959 -3.34199 2.04495 0
M  V30 2398 H 232.656 -3.2041 2.41119 0
M  V30 2399 H 229.246 -2.36557 3.57406 0
M  V30 2400 H 233.43 -2.07198 4.5098 0
M  V30 2401 H 228.686 -1.69948 5.87305 0
M  V30 2402 H 232.86 -1.41543 6.81864 0
M  V30 2403 H 230.487 -1.22371 7.50286 0
M  V30 2404 N 232.062 -1.29571 -0.897171 0
M  V30 2405 C 233.311 -1.1706 -1.64256 0
M  V30 2406 C 233.624 0.276476 -1.93636 0
M  V30 2407 O 234.83 0.52294 -2.66416 0
M  V30 2408 C 233.286 -2.0475 -2.95982 0
M  V30 2409 C 232.894 -3.54295 -2.74187 0
M  V30 2410 C 234.638 -2.0097 -3.73914 0
M  V30 2411 C 232.545 -4.34081 -4.01656 0
M  V30 2412 H 231.475 -0.43452 -0.616205 0
M  V30 2413 H 234.126 -1.54229 -0.994268 0
M  V30 2414 H 232.508 -1.60452 -3.62038 0
M  V30 2415 H 233.682 -4.06662 -2.1671 0
M  V30 2416 H 231.997 -3.59773 -2.09648 0
M  V30 2417 H 234.594 -2.57838 -4.68427 0
M  V30 2418 H 234.937 -0.990273 -4.0435 0
M  V30 2419 H 235.47 -2.43325 -3.14703 0
M  V30 2420 H 232.209 -5.36671 -3.76384 0
M  V30 2421 H 231.729 -3.86483 -4.58684 0
M  V30 2422 H 233.408 -4.44877 -4.69781 0
M  V30 2423 N 233.54 1.10788 -1.12088 0
M  V30 2424 C 234.787 1.82671 -0.873931 0
M  V30 2425 C 235.115 1.85004 0.600311 0
M  V30 2426 O 234.37 1.30365 1.45957 0
M  V30 2427 C 234.669 3.29294 -1.38926 0
M  V30 2428 C 234.335 3.47113 -2.87791 0
M  V30 2429 C 232.997 3.51684 -3.28439 0
M  V30 2430 C 235.349 3.52808 -3.83635 0
M  V30 2431 C 232.677 3.59513 -4.63646 0
M  V30 2432 C 235.029 3.62169 -5.18668 0
M  V30 2433 C 233.693 3.65003 -5.58864 0
M  V30 2434 H 232.963 0.668441 -0.319794 0
M  V30 2435 H 235.61 1.30613 -1.40045 0
M  V30 2436 H 233.915 3.83894 -0.783122 0
M  V30 2437 H 235.612 3.83416 -1.17443 0
M  V30 2438 H 232.202 3.4423 -2.5535 0
M  V30 2439 H 236.386 3.4853 -3.53328 0
M  V30 2440 H 231.642 3.59987 -4.94185 0
M  V30 2441 H 235.816 3.6552 -5.92763 0
M  V30 2442 H 233.443 3.70822 -6.63623 0
M  V30 2443 N 235.018 0.912232 1.28515 0
M  V30 2444 C 236.248 0.559604 1.98877 0
M  V30 2445 C 236.656 -0.863113 1.68366 0
M  V30 2446 O 235.999 -1.58304 0.931969 0
M  V30 2447 C 236.061 0.68703 3.52874 0
M  V30 2448 C 235.725 2.07901 4.06972 0
M  V30 2449 C 236.722 3.05157 4.20922 0
M  V30 2450 C 234.407 2.39178 4.417 0
M  V30 2451 C 236.401 4.31806 4.68852 0
M  V30 2452 C 234.088 3.66068 4.89324 0
M  V30 2453 C 235.086 4.62195 5.02856 0
M  V30 2454 O 234.774 5.86829 5.49442 0
M  V30 2455 H 234.506 0.212191 0.641834 0
M  V30 2456 H 237.06 1.22712 1.64715 0
M  V30 2457 H 235.29 -0.0375486 3.86682 0
M  V30 2458 H 236.979 0.341727 4.04459 0
M  V30 2459 H 237.745 2.82311 3.94367 0
M  V30 2460 H 233.624 1.65109 4.30418 0
M  V30 2461 H 237.168 5.06842 4.79329 0
M  V30 2462 H 233.065 3.88739 5.15318 0
M  V30 2463 H 233.833 5.89597 5.6773 0
M  V30 2464 N 236.496 -1.42363 0.676048 0
M  V30 2465 C 237.724 -2.05859 0.207268 0
M  V30 2466 C 238.139 -1.50796 -1.13605 0
M  V30 2467 O 237.496 -0.648265 -1.70598 0
M  V30 2468 C 237.547 -3.61248 0.134975 0
M  V30 2469 O 237.268 -4.1427 1.42521 0
M  V30 2470 C 238.769 -4.41859 -0.357151 0
M  V30 2471 H 235.989 -0.663431 0.100503 0
M  V30 2472 H 238.533 -1.82479 0.923136 0
M  V30 2473 H 236.688 -3.83735 -0.531588 0
M  V30 2474 H 237.102 -5.0815 1.29939 0
M  V30 2475 H 238.576 -5.50847 -0.356641 0
M  V30 2476 H 239.053 -4.16536 -1.39264 0
M  V30 2477 H 239.659 -4.24392 0.27772 0
M  V30 2478 N 237.974 -0.419461 -1.51915 0
M  V30 2479 C 239.199 0.154572 -2.06823 0
M  V30 2480 C 239.624 1.3722 -1.28656 0
M  V30 2481 O 238.982 1.78461 -0.319583 0
M  V30 2482 C 239.03 0.473172 -3.57482 0
M  V30 2483 O 238.134 1.56255 -3.81652 0
M  V30 2484 H 237.475 0.0096924 -0.663929 0
M  V30 2485 H 240.005 -0.595642 -1.95738 0
M  V30 2486 H 240.015 0.728825 -4.01438 0
M  V30 2487 H 238.69 -0.416873 -4.13805 0
M  V30 2488 H 237.267 1.29825 -3.49571 0
M  V30 2489 N 239.452 1.56882 -0.150215 0
M  V30 2490 C 240.7 1.9584 0.499105 0
M  V30 2491 C 241.021 1.03623 1.65188 0
M  V30 2492 O 240.291 0.0984084 1.95653 0
M  V30 2493 H 238.871 0.723119 0.187373 0
M  V30 2494 H 241.533 1.9358 -0.226466 0
M  V30 2495 H 240.629 2.99638 0.873122 0
M  V30 2496 N 240.93 -0.123565 1.57115 0
M  V30 2497 C 242.158 -0.846461 1.88793 0
M  V30 2498 C 242.573 -1.73652 0.740976 0
M  V30 2499 O 241.93 -1.80207 -0.288393 0
M  V30 2500 C 241.981 -1.6837 3.19897 0
M  V30 2501 O 241.702 -0.829477 4.30176 0
M  V30 2502 C 243.203 -2.51214 3.65248 0
M  V30 2503 H 240.423 -0.243573 0.625231 0
M  V30 2504 H 242.967 -0.109324 2.04208 0
M  V30 2505 H 241.122 -2.37364 3.06165 0
M  V30 2506 H 241.536 -1.40651 5.0529 0
M  V30 2507 H 243.01 -3.05497 4.59756 0
M  V30 2508 H 243.487 -3.28359 2.9168 0
M  V30 2509 H 244.093 -1.8747 3.81752 0
M  V30 2510 N 242.408 -1.52605 -0.393616 0
M  V30 2511 C 243.636 -1.71294 -1.16043 0
M  V30 2512 C 244.051 -0.429259 -1.83855 0
M  V30 2513 O 243.408 0.595921 -1.72496 0
M  V30 2514 C 243.459 -2.8593 -2.21193 0
M  V30 2515 O 243.18 -4.09329 -1.56146 0
M  V30 2516 C 244.681 -3.16259 -3.10636 0
M  V30 2517 H 241.901 -0.573641 -0.348104 0
M  V30 2518 H 244.445 -1.99234 -0.461092 0
M  V30 2519 H 242.6 -2.60465 -2.86769 0
M  V30 2520 H 243.014 -4.73323 -2.25978 0
M  V30 2521 H 244.488 -3.99946 -3.80456 0
M  V30 2522 H 244.965 -2.3045 -3.73884 0
M  V30 2523 H 245.571 -3.43547 -2.50711 0
M  V30 2524 N 243.887 0.651787 -1.4349 0
M  V30 2525 C 245.135 1.40888 -1.44897 0
M  V30 2526 C 245.456 1.94856 -0.0749086 0
M  V30 2527 O 244.726 1.74518 0.889956 0
M  V30 2528 H 243.306 0.522887 -0.533478 0
M  V30 2529 H 245.968 0.768609 -1.79104 0
M  V30 2530 H 245.064 2.25052 -2.16236 0
M  V30 2531 N 245.365 1.30045 0.890287 0
M  V30 2532 C 246.295 1.18541 2.01172 0
M  V30 2533 C 247.276 0.0773356 1.69924 0
M  V30 2534 O 248.461 0.25845 1.92473 0
M  V30 2535 C 245.591 0.870941 3.36202 0
M  V30 2536 C 244.545 1.93637 3.81692 0
M  V30 2537 C 243.871 1.475 5.13953 0
M  V30 2538 C 245.171 3.34666 4.00994 0
M  V30 2539 H 246.865 2.12359 2.11054 0
M  V30 2540 H 244.411 1.02238 1.01407 0
M  V30 2541 H 246.364 0.777141 4.14172 0
M  V30 2542 H 245.088 -0.102926 3.26438 0
M  V30 2543 H 243.747 2.01972 3.05946 0
M  V30 2544 H 243.395 0.489551 5.00612 0
M  V30 2545 H 243.095 2.1876 5.4536 0
M  V30 2546 H 244.619 1.39489 5.94454 0
M  V30 2547 H 246.033 3.2912 4.69417 0
M  V30 2548 H 244.43 4.03966 4.43769 0
M  V30 2549 H 245.5 3.76949 3.05021 0
M  V30 2550 N 246.843 -1.10192 1.12674 0
M  V30 2551 C 248.254 -1.63707 0.897604 0
M  V30 2552 C 248.605 -1.87812 -0.567546 0
M  V30 2553 O 247.73 -1.62196 -1.43253 0
M  V30 2554 C 248.325 -2.974 1.62292 0
M  V30 2555 C 246.884 -3.47772 1.43986 0
M  V30 2556 C 246.031 -2.22332 1.65722 0
M  V30 2557 H 248.982 -0.936587 1.28116 0
M  V30 2558 H 249.003 -3.64986 1.07541 0
M  V30 2559 H 248.515 -2.79824 2.68924 0
M  V30 2560 H 246.616 -3.70487 0.396206 0
M  V30 2561 H 246.729 -4.25723 2.19765 0
M  V30 2562 H 245.093 -2.30599 1.08149 0
M  V30 2563 H 245.876 -2.07285 2.73657 0
M  V30 2564 N 248.321 -0.919034 -1.28029 0
M  V30 2565 C 249.268 -0.410005 -2.27129 0
M  V30 2566 C 250.238 0.518405 -1.57803 0
M  V30 2567 O 251.423 0.439451 -1.8567 0
M  V30 2568 C 248.563 0.339054 -3.4343 0
M  V30 2569 C 247.676 -0.622468 -4.27492 0
M  V30 2570 C 246.811 0.145567 -5.31001 0
M  V30 2571 C 245.85 -0.809226 -6.06727 0
M  V30 2572 N 244.987 -0.0743728 -7.02061 0
M  V30 2573 H 249.827 -1.26011 -2.70047 0
M  V30 2574 H 247.364 -0.632663 -1.328 0
M  V30 2575 H 249.322 0.789586 -4.0966 0
M  V30 2576 H 247.952 1.15346 -3.01488 0
M  V30 2577 H 247.004 -1.19153 -3.61257 0
M  V30 2578 H 248.316 -1.35252 -4.80113 0
M  V30 2579 H 247.47 0.656417 -6.03139 0
M  V30 2580 H 246.209 0.908643 -4.79161 0
M  V30 2581 H 245.214 -1.3314 -5.33436 0
M  V30 2582 H 246.439 -1.57194 -6.60656 0
M  V30 2583 H 244.385 0.670616 -6.52563 0
M  V30 2584 H 244.302 -0.744157 -7.52329 0
M  V30 2585 H 245.57 0.416109 -7.78389 0
M  V30 2586 N 249.799 1.42003 -0.683588 0
M  V30 2587 C 250.762 2.29191 -0.0198243 0
M  V30 2588 C 251.762 1.43773 0.72013 0
M  V30 2589 O 252.952 1.65061 0.556815 0
M  V30 2590 C 250.084 3.26435 0.982487 0
M  V30 2591 H 251.277 2.8938 -0.787345 0
M  V30 2592 H 248.83 1.49789 -0.446418 0
M  V30 2593 H 249.565 2.71203 1.77819 0
M  V30 2594 H 249.35 3.89449 0.455182 0
M  V30 2595 H 250.84 3.918 1.44508 0
M  V30 2596 N 251.277 0.427512 1.51691 0
M  V30 2597 C 252.24 -0.377132 2.26076 0
M  V30 2598 C 253.24 -0.958089 1.29141 0
M  V30 2599 O 254.43 -0.83408 1.52934 0
M  V30 2600 C 251.562 -1.53262 3.04506 0
M  V30 2601 H 252.755 0.27464 2.9864 0
M  V30 2602 H 250.308 0.180445 1.55255 0
M  V30 2603 H 251.043 -2.22072 2.36335 0
M  V30 2604 H 250.828 -1.12232 3.75694 0
M  V30 2605 H 252.318 -2.10135 3.60878 0
M  V30 2606 N 252.755 -1.56801 0.158532 0
M  V30 2607 C 254.004 -1.95665 -0.489702 0
M  V30 2608 C 254.317 -1.04654 -1.65248 0
M  V30 2609 O 255.523 -1.33146 -2.3661 0
M  V30 2610 C 253.979 -3.47874 -0.922582 0
M  V30 2611 C 253.587 -4.47489 0.213893 0
M  V30 2612 C 255.331 -3.95583 -1.53996 0
M  V30 2613 C 253.238 -5.90921 -0.237903 0
M  V30 2614 H 252.168 -0.730516 -0.186716 0
M  V30 2615 H 254.819 -1.81861 0.244722 0
M  V30 2616 H 253.201 -3.57051 -1.71261 0
M  V30 2617 H 254.375 -4.50017 0.991036 0
M  V30 2618 H 252.69 -4.09764 0.740407 0
M  V30 2619 H 255.287 -5.0019 -1.8898 0
M  V30 2620 H 255.63 -3.37789 -2.43319 0
M  V30 2621 H 256.163 -3.8937 -0.814611 0
M  V30 2622 H 252.902 -6.52559 0.620236 0
M  V30 2623 H 252.422 -5.91729 -0.980676 0
M  V30 2624 H 254.101 -6.43352 -0.686067 0
M  V30 2625 N 254.233 0.115231 -1.57178 0
M  V30 2626 C 255.482 0.820945 -1.84237 0
M  V30 2627 C 255.795 1.80866 -0.744761 0
M  V30 2628 O 257.001 2.56083 -0.901871 0
M  V30 2629 C 255.457 1.51072 -3.26658 0
M  V30 2630 C 255.065 0.563795 -4.44438 0
M  V30 2631 C 256.809 2.20134 -3.62962 0
M  V30 2632 C 254.716 1.25701 -5.77887 0
M  V30 2633 H 253.646 0.310328 -0.687177 0
M  V30 2634 H 256.297 0.0737134 -1.83352 0
M  V30 2635 H 254.679 2.30471 -3.22024 0
M  V30 2636 H 255.853 -0.197247 -4.60378 0
M  V30 2637 H 254.168 -0.0200638 -4.16395 0
M  V30 2638 H 256.765 2.72696 -4.59936 0
M  V30 2639 H 257.108 2.98107 -2.90582 0
M  V30 2640 H 257.641 1.47619 -3.69396 0
M  V30 2641 H 254.38 0.518493 -6.53446 0
M  V30 2642 H 253.9 1.98997 -5.65827 0
M  V30 2643 H 255.579 1.78915 -6.2177 0
M  V30 2644 N 255.711 1.52812 0.385517 0
M  V30 2645 C 257.122 1.5993 0.963293 0
M  V30 2646 C 257.473 0.454302 1.90868 0
M  V30 2647 O 256.598 -0.422132 2.12243 0
M  V30 2648 C 257.193 2.89871 1.75387 0
M  V30 2649 C 255.752 2.99389 2.28129 0
M  V30 2650 C 254.899 2.55071 1.08783 0
M  V30 2651 H 257.85 1.5784 0.164948 0
M  V30 2652 H 257.871 2.76553 2.61341 0
M  V30 2653 H 257.383 3.73186 1.06554 0
M  V30 2654 H 255.484 2.20619 3.00263 0
M  V30 2655 H 255.597 4.04096 2.57377 0
M  V30 2656 H 253.961 2.09473 1.4489 0
M  V30 2657 H 254.744 3.40785 0.414807 0
M  V30 2658 N 257.189 -0.644168 1.43834 0
M  V30 2659 C 258.121 -1.76955 1.45669 0
M  V30 2660 C 259.134 -1.58956 0.351666 0
M  V30 2661 O 260.323 -1.6751 0.616644 0
M  V30 2662 C 257.423 -3.14507 1.26248 0
M  V30 2663 C 256.596 -3.59083 2.49757 0
M  V30 2664 C 255.655 -4.75467 2.25427 0
M  V30 2665 O 254.681 -4.84444 2.98836 0
M  V30 2666 N 255.883 -5.66289 1.27661 0
M  V30 2667 H 258.648 -1.75856 2.42682 0
M  V30 2668 H 256.209 -0.828312 1.39106 0
M  V30 2669 H 258.201 -3.90067 1.0784 0
M  V30 2670 H 256.771 -3.10325 0.376478 0
M  V30 2671 H 255.991 -2.7387 2.8353 0
M  V30 2672 H 257.279 -3.85613 3.31934 0
M  V30 2673 H 256.677 -5.61718 0.670064 0
M  V30 2674 H 255.234 -6.41533 1.15234 0
M  V30 2675 N 258.668 -1.30515 -0.883378 0
M  V30 2676 C 260.084 -1.08881 -1.16692 0
M  V30 2677 C 260.284 0.149409 -2.00945 0
M  V30 2678 O 259.34 0.84257 -2.38027 0
M  V30 2679 C 260.653 -2.35319 -1.87204 0
M  V30 2680 C 262.201 -2.40799 -1.99962 0
M  V30 2681 C 262.676 -3.67083 -2.73887 0
M  V30 2682 N 264.167 -3.679 -2.81432 0
M  V30 2683 C 264.902 -4.62303 -3.3921 0
M  V30 2684 N 264.398 -5.67052 -3.98025 0
M  V30 2685 N 266.191 -4.49845 -3.3704 0
M  V30 2686 H 258.342 -2.09951 -0.321633 0
M  V30 2687 H 260.605 -0.92556 -0.205043 0
M  V30 2688 H 260.311 -3.25689 -1.3274 0
M  V30 2689 H 260.185 -2.44089 -2.87577 0
M  V30 2690 H 262.572 -1.50907 -2.53597 0
M  V30 2691 H 262.653 -2.36003 -0.98673 0
M  V30 2692 H 262.297 -4.57334 -2.20925 0
M  V30 2693 H 262.227 -3.69141 -3.75556 0
M  V30 2694 H 264.718 -2.92171 -2.39676 0
M  V30 2695 H 265.031 -6.35184 -4.40183 0
M  V30 2696 H 263.376 -5.70842 -3.96439 0
M  V30 2697 H 266.567 -3.67194 -2.90321 0
M  V30 2698 H 266.74 -5.23597 -3.81772 0
M  V30 2699 N 260.146 1.09593 -1.13257 0
M  V30 2700 C 261.109 2.14359 -0.811358 0
M  V30 2701 C 262.109 1.59808 0.178377 0
M  V30 2702 O 263.299 1.74132 -0.0484911 0
M  V30 2703 C 260.431 3.40269 -0.207276 0
M  V30 2704 H 261.624 2.44284 -1.73969 0
M  V30 2705 H 259.177 1.25102 -0.936973 0
M  V30 2706 H 259.912 3.15969 0.73036 0
M  V30 2707 H 259.697 3.81154 -0.919992 0
M  V30 2708 H 261.187 4.176 0.000667944 0
M  V30 2709 N 261.624 0.925811 1.2754 0
M  V30 2710 C 262.587 0.428129 2.25166 0
M  V30 2711 C 263.587 -0.452261 1.54309 0
M  V30 2712 O 264.777 -0.253608 1.72344 0
M  V30 2713 C 261.909 -0.384749 3.38722 0
M  V30 2714 H 263.102 1.29066 2.70706 0
M  V30 2715 H 260.655 0.706323 1.3943 0
M  V30 2716 H 261.39 -1.26618 2.98561 0
M  V30 2717 H 261.175 0.246454 3.91325 0
M  V30 2718 H 262.665 -0.723389 4.11287 0
M  V30 2719 N 263.102 -1.41638 0.69111 0
M  V30 2720 C 264.012 -2.34588 0.0233487 0
M  V30 2721 C 265.028 -1.55987 -0.770984 0
M  V30 2722 O 266.204 -1.88486 -0.709569 0
M  V30 2723 C 263.269 -3.34684 -0.904851 0
M  V30 2724 C 262.33 -4.29176 -0.103225 0
M  V30 2725 C 261.563 -5.2449 -0.987216 0
M  V30 2726 O 261.786 -5.2514 -2.22674 0
M  V30 2727 O 260.72 -6.00295 -0.439281 0
M  V30 2728 H 264.546 -2.93261 0.789416 0
M  V30 2729 H 262.131 -1.42417 0.45142 0
M  V30 2730 H 264.013 -3.96133 -1.43724 0
M  V30 2731 H 262.688 -2.78461 -1.65049 0
M  V30 2732 H 261.595 -3.71089 0.473655 0
M  V30 2733 H 262.928 -4.88484 0.60365 0
M  V30 2734 N 264.58 -0.43555 -1.51462 0
M  V30 2735 C 265.805 0.132627 -2.06976 0
M  V30 2736 C 266.23 1.35848 -1.30104 0
M  V30 2737 O 265.588 1.78112 -0.338493 0
M  V30 2738 C 265.636 0.43523 -3.57964 0
M  V30 2739 O 264.74 1.52198 -3.83288 0
M  V30 2740 H 264.081 0.00265 -0.663995 0
M  V30 2741 H 266.611 -0.616369 -1.95095 0
M  V30 2742 H 266.621 0.686206 -4.02188 0
M  V30 2743 H 265.296 -0.460739 -4.1334 0
M  V30 2744 H 263.873 1.2611 -3.50928 0
M  V30 2745 N 266.058 1.56714 -0.166846 0
M  V30 2746 C 267.474 1.58473 0.189372 0
M  V30 2747 C 267.674 1.18201 1.63189 0
M  V30 2748 O 266.73 0.891528 2.36237 0
M  V30 2749 C 268.043 3.00573 -0.0873872 0
M  V30 2750 C 269.591 3.1299 -0.0252443 0
M  V30 2751 C 270.066 4.57174 -0.274934 0
M  V30 2752 N 271.557 4.62665 -0.222553 0
M  V30 2753 C 272.292 5.72072 -0.389985 0
M  V30 2754 N 271.788 6.90054 -0.616229 0
M  V30 2755 N 273.581 5.61153 -0.326202 0
M  V30 2756 H 265.732 1.8118 -1.10849 0
M  V30 2757 H 267.995 0.839525 -0.440342 0
M  V30 2758 H 267.701 3.34497 -1.0865 0
M  V30 2759 H 267.575 3.72019 0.623037 0
M  V30 2760 H 269.962 2.78895 0.96444 0
M  V30 2761 H 270.043 2.43989 -0.768309 0
M  V30 2762 H 269.687 4.91976 -1.26181 0
M  V30 2763 H 269.617 5.24328 0.48869 0
M  V30 2764 H 272.108 3.77863 -0.0531512 0
M  V30 2765 H 272.421 7.69311 -0.733559 0
M  V30 2766 H 270.766 6.91927 -0.652791 0
M  V30 2767 H 273.957 4.67859 -0.150072 0
M  V30 2768 H 274.13 6.46364 -0.460116 0
M  V30 2769 N 267.536 -0.106894 1.57237 0
M  V30 2770 C 268.782 -0.81373 1.85759 0
M  V30 2771 C 269.115 -1.78952 0.754315 0
M  V30 2772 O 268.39 -1.93029 -0.23879 0
M  V30 2773 C 268.673 -1.55293 3.24894 0
M  V30 2774 C 268.526 -0.595929 4.45835 0
M  V30 2775 C 269.845 -2.5063 3.61763 0
M  V30 2776 H 266.964 -0.294369 0.67566 0
M  V30 2777 H 269.606 -0.0776472 1.89841 0
M  V30 2778 H 267.756 -2.1804 3.21544 0
M  V30 2779 H 269.428 0.0236262 4.61294 0
M  V30 2780 H 267.671 0.0916191 4.33703 0
M  V30 2781 H 268.342 -1.15004 5.39887 0
M  V30 2782 H 270.818 -1.97982 3.65981 0
M  V30 2783 H 269.694 -2.99376 4.60071 0
M  V30 2784 H 269.955 -3.3385 2.89821 0
M  V30 2785 N 269.014 -1.53014 -0.377408 0
M  V30 2786 C 269.944 -1.81589 -1.46791 0
M  V30 2787 C 270.925 -0.668622 -1.56408 0
M  V30 2788 O 272.11 -0.917337 -1.71168 0
M  V30 2789 C 269.24 -1.99519 -2.8427 0
M  V30 2790 C 268.194 -3.15249 -2.89486 0
M  V30 2791 C 267.52 -3.18451 -4.29527 0
M  V30 2792 C 268.82 -4.54084 -2.58079 0
M  V30 2793 H 270.514 -2.7291 -1.23127 0
M  V30 2794 H 268.06 -1.31319 -0.590883 0
M  V30 2795 H 270.013 -2.18092 -3.60575 0
M  V30 2796 H 268.737 -1.04897 -3.09296 0
M  V30 2797 H 267.396 -2.96477 -2.15631 0
M  V30 2798 H 267.044 -2.2149 -4.5161 0
M  V30 2799 H 266.744 -3.962 -4.33934 0
M  V30 2800 H 268.268 -3.39193 -5.07721 0
M  V30 2801 H 269.682 -4.72899 -3.24098 0
M  V30 2802 H 268.079 -5.33987 -2.7382 0
M  V30 2803 H 269.149 -4.60006 -1.53372 0
M  V30 2804 N 270.492 0.636531 -1.44174 0
M  V30 2805 C 271.739 1.39619 -1.46672 0
M  V30 2806 C 272.067 1.94257 -0.0972691 0
M  V30 2807 O 271.322 1.73768 0.900175 0
M  V30 2808 C 271.621 2.58309 -2.47005 0
M  V30 2809 C 271.287 2.21992 -3.92467 0
M  V30 2810 C 269.949 2.118 -4.32081 0
M  V30 2811 C 272.301 1.9321 -4.84065 0
M  V30 2812 C 269.629 1.71007 -5.61225 0
M  V30 2813 C 271.981 1.53911 -6.13591 0
M  V30 2814 C 270.645 1.42257 -6.52165 0
M  V30 2815 H 269.915 0.510902 -0.536712 0
M  V30 2816 H 272.562 0.722328 -1.77355 0
M  V30 2817 H 270.867 3.30903 -2.09786 0
M  V30 2818 H 272.564 3.16533 -2.46186 0
M  V30 2819 H 269.154 2.30841 -3.61124 0
M  V30 2820 H 273.338 1.99997 -4.54219 0
M  V30 2821 H 268.594 1.60583 -5.89935 0
M  V30 2822 H 272.768 1.30677 -6.8403 0
M  V30 2823 H 270.395 1.10419 -7.52138 0
M  V30 2824 N 271.97 1.30982 0.876444 0
M  V30 2825 C 272.903 1.12414 1.98591 0
M  V30 2826 C 273.881 0.0294078 1.62573 0
M  V30 2827 O 275.065 0.184598 1.87594 0
M  V30 2828 C 272.192 0.716276 3.3104 0
M  V30 2829 C 271.238 1.81311 3.86042 0
M  V30 2830 S 272.071 3.41727 4.1229 0
M  V30 2831 C 273.227 3.02863 5.47745 0
M  V30 2832 H 273.46 2.06338 2.14037 0
M  V30 2833 H 270.993 1.15393 1.02586 0
M  V30 2834 H 272.951 0.487697 4.07593 0
M  V30 2835 H 271.612 -0.203749 3.13438 0
M  V30 2836 H 270.805 1.48021 4.81774 0
M  V30 2837 H 270.407 1.99641 3.16259 0
M  V30 2838 H 272.699 2.51353 6.29148 0
M  V30 2839 H 273.642 3.97533 5.8598 0
M  V30 2840 H 274.05 2.40487 5.10711 0
M  V30 2841 N 273.449 -1.08991 1.13837 0
M  V30 2842 C 274.674 -1.85551 0.926585 0
M  V30 2843 C 275.099 -1.80782 -0.519566 0
M  V30 2844 O 274.457 -1.18855 -1.36906 0
M  V30 2845 C 274.505 -3.31266 1.42462 0
M  V30 2846 O 273.609 -4.07822 0.612789 0
M  V30 2847 H 272.95 -0.575192 0.331738 0
M  V30 2848 H 275.48 -1.37604 1.51414 0
M  V30 2849 H 275.49 -3.82112 1.43019 0
M  V30 2850 H 274.165 -3.34052 2.47754 0
M  V30 2851 H 272.742 -3.66731 0.675463 0
M  V30 2852 N 274.927 -0.932562 -1.27047 0
M  V30 2853 C 276.155 -0.592031 -1.98249 0
M  V30 2854 C 276.57 0.831062 -1.69525 0
M  V30 2855 O 275.927 1.55299 -0.958561 0
M  V30 2856 C 275.978 -0.814279 -3.5221 0
M  V30 2857 O 275.699 -2.18139 -3.7993 0
M  V30 2858 C 277.2 -0.483121 -4.4066 0
M  V30 2859 H 274.42 -0.223896 -0.632544 0
M  V30 2860 H 276.964 -1.25091 -1.61779 0
M  V30 2861 H 275.119 -0.20213 -3.86872 0
M  V30 2862 H 275.533 -2.235 -4.74498 0
M  V30 2863 H 277.007 -0.689298 -5.47679 0
M  V30 2864 H 277.484 0.581546 -4.35333 0
M  V30 2865 H 278.09 -1.07362 -4.11526 0
M  V30 2866 N 276.405 1.4127 -0.698611 0
M  V30 2867 C 277.337 2.292 0.00399731 0
M  V30 2868 C 278.35 1.44944 0.741279 0
M  V30 2869 O 279.539 1.68416 0.591477 0
M  V30 2870 C 276.639 3.22875 1.02979 0
M  V30 2871 C 275.812 4.35904 0.36151 0
M  V30 2872 C 274.871 5.10134 1.29033 0
M  V30 2873 O 273.897 5.63809 0.781562 0
M  V30 2874 N 275.099 5.17885 2.6225 0
M  V30 2875 H 277.864 2.9014 -0.750921 0
M  V30 2876 H 275.425 1.52455 -0.544882 0
M  V30 2877 H 277.417 3.69404 1.65296 0
M  V30 2878 H 275.987 2.63221 1.68622 0
M  V30 2879 H 275.207 3.91719 -0.441584 0
M  V30 2880 H 276.495 5.08696 -0.103055 0
M  V30 2881 H 275.893 4.7573 3.061 0
M  V30 2882 H 274.45 5.6798 3.19754 0
M  V30 2883 N 277.883 0.443576 1.51229 0
M  V30 2884 C 279.129 -0.120975 2.02439 0
M  V30 2885 C 279.462 -1.41815 1.32674 0
M  V30 2886 O 278.737 -1.89373 0.443622 0
M  V30 2887 C 279.02 -0.333291 3.58554 0
M  V30 2888 C 278.873 0.982968 4.38928 0
M  V30 2889 C 280.192 -1.10028 4.26124 0
M  V30 2890 H 277.311 -0.0424923 0.735774 0
M  V30 2891 H 279.953 0.583794 1.80809 0
M  V30 2892 H 278.103 -0.933614 3.77115 0
M  V30 2893 H 279.775 1.61775 4.32003 0
M  V30 2894 H 278.018 1.58611 4.03763 0
M  V30 2895 H 278.689 0.788379 5.46341 0
M  V30 2896 H 281.165 -0.591711 4.11871 0
M  V30 2897 H 280.041 -1.21761 5.35225 0
M  V30 2898 H 280.302 -2.12996 3.87408 0
M  V30 2899 N 279.361 -1.56624 0.175154 0
M  V30 2900 C 280.609 -1.96609 -0.467885 0
M  V30 2901 C 280.93 -1.06238 -1.63519 0
M  V30 2902 O 280.2 -0.129523 -1.95471 0
M  V30 2903 H 278.78 -0.726008 -0.175845 0
M  V30 2904 H 281.442 -1.93195 0.257234 0
M  V30 2905 H 280.538 -3.00989 -0.825342 0
M  V30 2906 N 280.839 0.0985539 -1.57292 0
M  V30 2907 C 281.769 1.12064 -2.04851 0
M  V30 2908 C 282.75 1.41981 -0.936767 0
M  V30 2909 O 283.935 1.52071 -1.20781 0
M  V30 2910 C 281.065 2.44144 -2.47004 0
M  V30 2911 C 280.019 2.28643 -3.6181 0
M  V30 2912 C 279.345 3.65869 -3.89929 0
M  V30 2913 C 280.645 1.72986 -4.92822 0
M  V30 2914 H 282.339 0.724979 -2.9049 0
M  V30 2915 H 279.885 0.34729 -1.39749 0
M  V30 2916 H 281.838 3.15914 -2.78884 0
M  V30 2917 H 280.562 2.85639 -1.5836 0
M  V30 2918 H 279.221 1.59318 -3.30172 0
M  V30 2919 H 278.869 4.04885 -2.98458 0
M  V30 2920 H 278.569 3.56344 -4.67218 0
M  V30 2921 H 280.093 4.39112 -4.2428 0
M  V30 2922 H 281.507 2.34593 -5.23105 0
M  V30 2923 H 279.904 1.74229 -5.74251 0
M  V30 2924 H 280.974 0.689007 -4.7998 0
M  V30 2925 N 282.317 1.53212 0.369288 0
M  V30 2926 C 283.733 1.42902 0.710712 0
M  V30 2927 C 283.933 0.565135 1.93413 0
M  V30 2928 O 282.989 0.0461484 2.52458 0
M  V30 2929 C 284.302 2.86042 0.927382 0
M  V30 2930 C 285.85 2.9565 1.02762 0
M  V30 2931 C 286.325 4.39843 1.27679 0
M  V30 2932 N 287.816 4.43256 1.34457 0
M  V30 2933 C 288.551 5.51929 1.55439 0
M  V30 2934 N 288.047 6.70655 1.73762 0
M  V30 2935 N 289.84 5.39502 1.57779 0
M  V30 2936 H 281.991 2.07888 -0.435457 0
M  V30 2937 H 284.254 0.938661 -0.132739 0
M  V30 2938 H 283.96 3.51557 0.100287 0
M  V30 2939 H 283.834 3.29472 1.83653 0
M  V30 2940 H 286.221 2.30291 1.84527 0
M  V30 2941 H 286.302 2.5562 0.0959504 0
M  V30 2942 H 285.946 5.05774 0.464175 0
M  V30 2943 H 285.876 4.77443 2.22162 0
M  V30 2944 H 288.367 3.5769 1.21926 0
M  V30 2945 H 288.68 7.49248 1.89335 0
M  V30 2946 H 287.025 6.73648 1.70948 0
M  V30 2947 H 290.216 4.45713 1.43029 0
M  V30 2948 H 290.389 6.2426 1.7379 0
M  V30 2949 N 283.795 -0.628877 1.44509 0
M  V30 2950 C 284.745 -1.7345 1.47983 0
M  V30 2951 C 285.729 -1.5715 0.345373 0
M  V30 2952 O 286.921 -1.66848 0.590829 0
M  V30 2953 C 284.05 -3.12143 1.42904 0
M  V30 2954 C 283.136 -3.33906 2.61472 0
M  V30 2955 N 283.527 -3.26024 3.86706 0
M  V30 2956 C 281.825 -3.64709 2.56716 0
M  V30 2957 C 282.526 -3.48536 4.65722 0
M  V30 2958 N 281.502 -3.71517 3.96832 0
M  V30 2959 H 285.304 -1.65818 2.42655 0
M  V30 2960 H 282.818 -0.831419 1.39503 0
M  V30 2961 H 284.815 -3.91433 1.43476 0
M  V30 2962 H 283.475 -3.2094 0.492717 0
M  V30 2963 H 284.486 -3.04893 4.18641 0
M  V30 2964 H 281.163 -3.80473 1.71891 0
M  V30 2965 H 282.553 -3.48016 5.74747 0
M  V30 2966 N 285.273 -1.31445 -0.869486 0
M  V30 2967 C 286.521 -1.20918 -1.61936 0
M  V30 2968 C 286.842 0.232683 -1.93607 0
M  V30 2969 O 286.112 1.15352 -1.58338 0
M  V30 2970 H 284.692 -0.44454 -0.600328 0
M  V30 2971 H 287.354 -1.64776 -1.0409 0
M  V30 2972 H 286.45 -1.78124 -2.56278 0
M  V30 2973 N 286.751 1.08385 -1.14413 0
M  V30 2974 C 288.167 1.32844 -0.884563 0
M  V30 2975 C 288.367 1.95841 0.474181 0
M  V30 2976 O 287.423 2.21158 1.21842 0
M  V30 2977 C 288.736 2.22978 -2.01745 0
M  V30 2978 C 290.284 2.36458 -2.05077 0
M  V30 2979 C 290.759 3.29934 -3.1766 0
M  V30 2980 N 292.25 3.37511 -3.17239 0
M  V30 2981 C 292.985 4.09871 -4.0099 0
M  V30 2982 N 292.481 4.84936 -4.94781 0
M  V30 2983 N 294.274 4.05704 -3.89051 0
M  V30 2984 H 286.425 0.658756 -2.01926 0
M  V30 2985 H 288.688 0.352821 -0.879899 0
M  V30 2986 H 288.394 1.83934 -2.99769 0
M  V30 2987 H 288.268 3.23441 -1.94077 0
M  V30 2988 H 290.655 2.7476 -1.0766 0
M  V30 2989 H 290.736 1.35736 -2.16816 0
M  V30 2990 H 290.38 2.92352 -4.15322 0
M  V30 2991 H 290.31 4.30584 -3.03158 0
M  V30 2992 H 292.801 2.83996 -2.49308 0
M  V30 2993 H 293.114 5.37612 -5.55151 0
M  V30 2994 H 291.459 4.83988 -4.98779 0
M  V30 2995 H 294.65 3.46167 -3.15097 0
M  V30 2996 H 294.823 4.61834 -4.54547 0
M  V30 2997 N 288.23 0.939286 1.26551 0
M  V30 2998 C 289.18 0.418284 2.2413 0
M  V30 2999 C 290.164 -0.483935 1.5345 0
M  V30 3000 O 291.356 -0.319489 1.74093 0
M  V30 3001 C 288.485 -0.31709 3.41832 0
M  V30 3002 C 287.571 0.602311 4.19801 0
M  V30 3003 N 287.962 1.72726 4.75394 0
M  V30 3004 C 286.26 0.407534 4.44134 0
M  V30 3005 C 286.961 2.30004 5.34297 0
M  V30 3006 N 285.937 1.58828 5.1988 0
M  V30 3007 H 289.739 1.27705 2.64705 0
M  V30 3008 H 287.253 0.794929 1.41614 0
M  V30 3009 H 289.25 -0.707364 4.10855 0
M  V30 3010 H 287.91 -1.17264 3.02786 0
M  V30 3011 H 288.921 2.10944 4.72994 0
M  V30 3012 H 285.598 -0.406406 4.15517 0
M  V30 3013 H 286.988 3.24778 5.88191 0
M  V30 3014 N 289.708 -1.40897 0.706093 0
M  V30 3015 C 290.656 -2.32572 0.0361893 0
M  V30 3016 C 291.65 -1.51532 -0.757266 0
M  V30 3017 O 292.856 -1.67396 -0.661703 0
M  V30 3018 H 289.231 -0.751966 -0.00709935 0
M  V30 3019 H 291.202 -2.86733 0.826249 0
M  V30 3020 C 289.951 -3.36418 -0.87854 0
M  V30 3021 H 289.274 -3.98836 -0.277401 0
M  V30 3022 H 290.714 -4.0308 -1.3154 0
M  V30 3023 C 289.173 -2.71141 -1.99961 0
M  V30 3024 O 289.703 -2.56735 -3.0895 0
M  V30 3025 N 287.909 -2.29671 -1.78043 0
M  V30 3026 H 287.456 -2.41588 -0.894042 0
M  V30 3027 H 287.414 -1.86332 -2.53235 0
M  V30 3028 N 291.186 -0.45159 -1.50991 0
M  V30 3029 C 292.432 0.110237 -2.025 0
M  V30 3030 C 292.765 1.41109 -1.33424 0
M  V30 3031 O 292.04 1.89135 -0.453659 0
M  V30 3032 C 292.323 0.314271 -3.58726 0
M  V30 3033 C 292.176 -1.00623 -4.38401 0
M  V30 3034 C 293.495 1.07767 -4.26702 0
M  V30 3035 H 290.614 0.0385897 -0.735989 0
M  V30 3036 H 293.256 -0.593374 -1.80497 0
M  V30 3037 H 291.406 0.913601 -3.77605 0
M  V30 3038 H 293.078 -1.64064 -4.31139 0
M  V30 3039 H 291.321 -1.6075 -4.02917 0
M  V30 3040 H 291.992 -0.817341 -5.45915 0
M  V30 3041 H 294.468 0.56986 -4.12179 0
M  V30 3042 H 293.344 1.18921 -5.35863 0
M  V30 3043 H 293.605 2.10939 -3.88532 0
M  V30 3044 N 292.664 1.56529 -0.183458 0
M  V30 3045 C 293.91 1.97537 0.459036 0
M  V30 3046 C 294.243 1.06989 1.62071 0
M  V30 3047 O 293.518 0.11948 1.94133 0
M  V30 3048 C 293.801 3.47874 0.930368 0
M  V30 3049 C 293.654 4.492 -0.232317 0
M  V30 3050 C 294.973 4.01612 1.79989 0
M  V30 3051 H 292.092 0.718204 0.165383 0
M  V30 3052 H 294.734 1.88042 -0.272038 0
M  V30 3053 H 292.884 3.56095 1.55333 0
M  V30 3054 H 294.556 4.53027 -0.86972 0
M  V30 3055 H 292.799 4.24657 -0.885928 0
M  V30 3056 H 293.47 5.51823 0.139796 0
M  V30 3057 H 295.946 3.96097 1.27461 0
M  V30 3058 H 294.822 5.07195 2.09867 0
M  V30 3059 H 295.083 3.46163 2.74998 0
M  V30 3060 N 294.142 -0.090211 1.57342 0
M  V30 3061 C 295.072 -1.10976 2.05443 0
M  V30 3062 C 296.053 -1.41482 0.944284 0
M  V30 3063 O 297.238 -1.51428 1.21586 0
M  V30 3064 C 294.368 -2.42831 2.48295 0
M  V30 3065 C 293.322 -2.26721 3.63018 0
M  V30 3066 C 292.648 -3.63796 3.91863 0
M  V30 3067 C 293.948 -1.7037 4.93732 0
M  V30 3068 H 295.642 -0.709564 2.9087 0
M  V30 3069 H 293.188 -0.339874 1.39932 0
M  V30 3070 H 295.141 -3.14431 2.80555 0
M  V30 3071 H 293.865 -2.84795 1.59873 0
M  V30 3072 H 292.524 -1.57565 3.31012 0
M  V30 3073 H 292.172 -4.03297 3.00601 0
M  V30 3074 H 291.872 -3.53861 4.69101 0
M  V30 3075 H 293.396 -4.36855 4.26603 0
M  V30 3076 H 294.81 -2.31816 5.24342 0
M  V30 3077 H 293.207 -1.71181 5.75167 0
M  V30 3078 H 294.277 -0.663542 4.80339 0
M  V30 3079 N 295.62 -1.53406 -0.361157 0
M  V30 3080 C 296.868 -1.69467 -1.10115 0
M  V30 3081 C 297.189 -0.451352 -1.89705 0
M  V30 3082 O 296.459 0.534636 -1.88463 0
M  V30 3083 H 295.039 -0.624749 -0.409508 0
M  V30 3084 H 297.701 -1.90609 -0.406699 0
M  V30 3085 H 296.797 -2.55774 -1.78847 0
M  V30 3086 N 297.098 0.621204 -1.44841 0
M  V30 3087 C 298.028 1.74366 -1.55303 0
M  V30 3088 C 299.009 1.65199 -0.405385 0
M  V30 3089 O 300.194 1.83807 -0.626787 0
M  V30 3090 C 297.324 3.12931 -1.50637 0
M  V30 3091 C 296.278 3.36896 -2.63979 0
M  V30 3092 C 295.604 4.75594 -2.44366 0
M  V30 3093 C 296.904 3.28483 -4.06074 0
M  V30 3094 H 298.598 1.65867 -2.49256 0
M  V30 3095 H 296.144 0.796558 -1.19962 0
M  V30 3096 H 298.097 3.9124 -1.56555 0
M  V30 3097 H 296.821 3.22237 -0.532057 0
M  V30 3098 H 295.48 2.60972 -2.57467 0
M  V30 3099 H 295.128 4.81616 -1.45105 0
M  V30 3100 H 294.828 4.92586 -3.20364 0
M  V30 3101 H 296.352 5.5612 -2.52117 0
M  V30 3102 H 297.766 3.96684 -4.13902 0
M  V30 3103 H 296.163 3.57008 -4.82354 0
M  V30 3104 H 297.233 2.26133 -4.28943 0
M  V30 3105 N 298.576 1.31904 0.862503 0
M  V30 3106 C 299.509 1.14514 1.97388 0
M  V30 3107 C 300.487 0.0466493 1.62533 0
M  V30 3108 O 301.671 0.204484 1.87388 0
M  V30 3109 C 298.798 0.751347 3.30261 0
M  V30 3110 C 297.844 1.85395 3.84098 0
M  V30 3111 S 298.677 3.46081 4.08642 0
M  V30 3112 C 299.833 3.08655 5.44502 0
M  V30 3113 H 300.066 2.08597 2.11836 0
M  V30 3114 H 297.599 1.16475 1.01356 0
M  V30 3115 H 299.557 0.530901 4.07052 0
M  V30 3116 H 298.218 -0.170493 3.13637 0
M  V30 3117 H 297.411 1.53122 4.80177 0
M  V30 3118 H 297.013 2.02984 3.14123 0
M  V30 3119 H 299.305 2.58012 6.26447 0
M  V30 3120 H 300.248 4.03726 5.81731 0
M  V30 3121 H 300.656 2.45891 5.08132 0
M  V30 3122 N 300.054 -1.07777 1.14986 0
M  V30 3123 C 301.465 -1.61766 0.932127 0
M  V30 3124 C 301.816 -1.88974 -0.527581 0
M  V30 3125 O 300.941 -1.65198 -1.39781 0
M  V30 3126 C 301.536 -2.93891 1.68563 0
M  V30 3127 C 300.095 -3.44639 1.5133 0
M  V30 3128 C 299.242 -2.18767 1.704 0
M  V30 3129 H 302.193 -0.909201 1.30074 0
M  V30 3130 H 302.214 -3.62623 1.15259 0
M  V30 3131 H 301.726 -2.74057 2.74799 0
M  V30 3132 H 299.827 -3.69564 0.474702 0
M  V30 3133 H 299.94 -4.20966 2.28746 0
M  V30 3134 H 298.304 -2.28253 1.13016 0
M  V30 3135 H 299.087 -2.01433 2.77992 0
M  V30 3136 N 301.532 -0.945985 -1.26051 0
M  V30 3137 C 302.462 -0.477172 -2.28572 0
M  V30 3138 C 303.443 0.472032 -1.63419 0
M  V30 3139 O 304.628 0.372853 -1.90587 0
M  V30 3140 C 301.758 0.253975 -3.4637 0
M  V30 3141 C 300.712 -0.609135 -4.23643 0
M  V30 3142 C 300.038 0.252252 -5.34105 0
M  V30 3143 C 301.338 -1.8829 -4.8718 0
M  V30 3144 H 303.032 -1.33402 -2.68038 0
M  V30 3145 H 300.578 -0.642904 -1.28852 0
M  V30 3146 H 302.531 0.593016 -4.17207 0
M  V30 3147 H 301.255 1.145 -3.05871 0
M  V30 3148 H 299.914 -0.931138 -3.54578 0
M  V30 3149 H 299.562 1.14278 -4.89846 0
M  V30 3150 H 299.262 -0.32188 -5.86718 0
M  V30 3151 H 300.786 0.586454 -6.07777 0
M  V30 3152 H 302.2 -1.61081 -5.50205 0
M  V30 3153 H 300.597 -2.40199 -5.49931 0
M  V30 3154 H 301.667 -2.59134 -4.09851 0
M  V30 3155 N 303.011 1.40521 -0.713556 0
M  V30 3156 C 304.241 2.0494 -0.261395 0
M  V30 3157 C 304.649 1.53861 1.10107 0
M  V30 3158 O 303.992 0.689321 1.70276 0
M  V30 3159 C 304.054 3.59138 -0.161227 0
M  V30 3160 C 303.718 4.33096 -1.45865 0
M  V30 3161 C 304.715 4.61182 -2.40016 0
M  V30 3162 C 302.4 4.72043 -1.71701 0
M  V30 3163 C 304.394 5.27196 -3.58251 0
M  V30 3164 C 302.081 5.37789 -2.90218 0
M  V30 3165 C 303.079 5.65295 -3.83315 0
M  V30 3166 O 302.767 6.29683 -4.99754 0
M  V30 3167 H 302.499 0.666041 -0.115608 0
M  V30 3168 H 305.053 1.80954 -0.971849 0
M  V30 3169 H 303.283 3.81936 0.605153 0
M  V30 3170 H 304.972 4.05091 0.256105 0
M  V30 3171 H 305.738 4.31559 -2.21318 0
M  V30 3172 H 301.617 4.50003 -1.00092 0
M  V30 3173 H 305.161 5.48582 -4.30934 0
M  V30 3174 H 301.058 5.66831 -3.08825 0
M  V30 3175 H 301.826 6.4818 -4.99805 0
M  V30 3176 N 304.489 0.459591 1.5075 0
M  V30 3177 C 305.439 -0.358926 2.25157 0
M  V30 3178 C 306.423 -0.971285 1.28276 0
M  V30 3179 O 307.615 -0.885739 1.53244 0
M  V30 3180 C 304.744 -1.44695 3.11317 0
M  V30 3181 C 303.83 -0.842894 4.15639 0
M  V30 3182 N 304.221 0.0299373 5.05791 0
M  V30 3183 C 302.519 -1.10809 4.32015 0
M  V30 3184 C 303.22 0.371563 5.80512 0
M  V30 3185 N 302.196 -0.250409 5.43023 0
M  V30 3186 H 305.998 0.313636 2.92222 0
M  V30 3187 H 303.512 0.273021 1.60089 0
M  V30 3188 H 305.509 -2.04641 3.63218 0
M  V30 3189 H 304.169 -2.12162 2.45799 0
M  V30 3190 H 305.18 0.39797 5.16369 0
M  V30 3191 H 301.857 -1.7786 3.77719 0
M  V30 3192 H 303.247 1.08319 6.63111 0
M  V30 3193 N 305.967 -1.56429 0.191757 0
M  V30 3194 C 307.213 -1.97777 -0.448554 0
M  V30 3195 C 307.546 -1.07847 -1.61501 0
M  V30 3196 O 306.821 -0.129774 -1.94067 0
M  V30 3197 C 307.104 -3.48362 -0.911906 0
M  V30 3198 C 306.957 -4.4907 0.256136 0
M  V30 3199 C 308.276 -4.02561 -1.77857 0
M  V30 3200 H 305.395 -0.719071 -0.161572 0
M  V30 3201 H 308.037 -1.87896 0.282007 0
M  V30 3202 H 306.187 -3.56914 -1.53442 0
M  V30 3203 H 307.859 -4.5256 0.893733 0
M  V30 3204 H 306.102 -4.24181 0.908436 0
M  V30 3205 H 306.773 -5.51889 -0.11053 0
M  V30 3206 H 309.249 -3.96767 -1.25359 0
M  V30 3207 H 308.125 -5.08301 -2.07174 0
M  V30 3208 H 308.386 -3.47616 -2.73158 0
M  V30 3209 N 307.445 0.0818655 -1.57387 0
M  V30 3210 C 308.691 0.784074 -1.8703 0
M  V30 3211 C 309.024 1.77729 -0.782689 0
M  V30 3212 O 308.299 1.93384 0.208051 0
M  V30 3213 C 308.582 1.50105 -3.27323 0
M  V30 3214 C 308.435 0.524925 -4.46727 0
M  V30 3215 C 309.754 2.44843 -3.65705 0
M  V30 3216 H 306.873 0.283582 -0.680257 0
M  V30 3217 H 309.515 0.0474352 -1.89941 0
M  V30 3218 H 307.665 2.12897 -3.24972 0
M  V30 3219 H 309.337 -0.0970111 -4.61198 0
M  V30 3220 H 307.58 -0.160606 -4.33503 0
M  V30 3221 H 308.251 1.064 -5.41648 0
M  V30 3222 H 310.727 1.92135 -3.69085 0
M  V30 3223 H 309.603 2.92018 -4.64776 0
M  V30 3224 H 309.864 3.29197 -2.95096 0
M  V30 3225 N 308.923 1.53595 0.353017 0
M  V30 3226 C 310.171 1.70049 1.09215 0
M  V30 3227 C 310.492 0.461406 1.89463 0
M  V30 3228 O 309.762 -0.524633 1.88744 0
M  V30 3229 H 308.342 0.626912 0.40619 0
M  V30 3230 H 311.004 1.90822 0.396585 0
M  V30 3231 H 310.1 2.56718 1.77488 0
M  V30 3232 N 310.401 -0.613514 1.45168 0
M  V30 3233 C 311.648 -1.37268 1.48875 0
M  V30 3234 C 311.976 -1.94077 0.128161 0
M  V30 3235 O 311.231 -1.75178 -0.872416 0
M  V30 3236 C 311.53 -2.54347 2.51083 0
M  V30 3237 C 311.196 -2.1572 3.95949 0
M  V30 3238 C 309.858 -2.04899 4.35396 0
M  V30 3239 C 312.21 -1.85485 4.87078 0
M  V30 3240 C 309.538 -1.62057 5.63875 0
M  V30 3241 C 311.89 -1.4413 6.15962 0
M  V30 3242 C 310.554 -1.31863 6.54346 0
M  V30 3243 H 309.824 -0.502299 0.544773 0
M  V30 3244 H 312.471 -0.694021 1.78481 0
M  V30 3245 H 310.776 -3.27524 2.15024 0
M  V30 3246 H 312.473 -3.12577 2.51191 0
M  V30 3247 H 309.063 -2.25066 3.64751 0
M  V30 3248 H 313.247 -1.92745 4.57343 0
M  V30 3249 H 308.503 -1.51177 5.92415 0
M  V30 3250 H 312.677 -1.19778 6.86022 0
M  V30 3251 H 310.304 -0.984392 7.538 0
M  V30 3252 N 311.879 -1.3236 -0.855495 0
M  V30 3253 C 313.126 -1.22872 -1.60962 0
M  V30 3254 C 313.454 0.209658 -1.93367 0
M  V30 3255 O 312.709 1.16243 -1.57436 0
M  V30 3256 C 313.008 -2.03275 -2.93963 0
M  V30 3257 C 312.674 -3.5264 -2.80991 0
M  V30 3258 C 311.336 -3.93364 -2.7716 0
M  V30 3259 C 313.688 -4.47626 -2.66983 0
M  V30 3260 C 311.016 -5.27319 -2.572 0
M  V30 3261 C 313.368 -5.81723 -2.48558 0
M  V30 3262 C 312.032 -6.2165 -2.4312 0
M  V30 3263 H 311.302 -0.44962 -0.589001 0
M  V30 3264 H 313.949 -1.63777 -0.992442 0
M  V30 3265 H 312.254 -1.55095 -3.59795 0
M  V30 3266 H 313.951 -1.93303 -3.51333 0
M  V30 3267 H 310.541 -3.20295 -2.84797 0
M  V30 3268 H 314.725 -4.17084 -2.68988 0
M  V30 3269 H 309.981 -5.57311 -2.51424 0
M  V30 3270 H 314.155 -6.5494 -2.36699 0
M  V30 3271 H 311.782 -7.25388 -2.27412 0
M  V30 3272 N 313.357 1.07166 -1.15556 0
M  V30 3273 C 314.32 2.12589 -0.856644 0
M  V30 3274 C 315.32 1.6015 0.14444 0
M  V30 3275 O 316.51 1.7399 -0.0854163 0
M  V30 3276 C 313.642 3.39753 -0.279405 0
M  V30 3277 H 314.835 2.40539 -1.79112 0
M  V30 3278 H 312.388 1.23086 -0.963298 0
M  V30 3279 H 313.123 3.17447 0.663174 0
M  V30 3280 H 312.908 3.79117 -1.00063 0
M  V30 3281 H 314.398 4.17507 -0.0879113 0
M  V30 3282 N 314.835 0.952656 1.25548 0
M  V30 3283 C 316.081 0.607272 1.93494 0
M  V30 3284 C 316.414 -0.853245 1.74452 0
M  V30 3285 O 315.689 -1.61194 1.08843 0
M  V30 3286 C 315.972 0.96435 3.46947 0
M  V30 3287 C 315.825 2.48045 3.75225 0
M  V30 3288 C 317.144 0.487987 4.37386 0
M  V30 3289 H 314.263 0.222096 0.702739 0
M  V30 3290 H 316.905 1.18895 1.48203 0
M  V30 3291 H 315.055 0.469361 3.85654 0
M  V30 3292 H 316.727 3.04905 3.46166 0
M  V30 3293 H 314.97 2.919 3.209 0
M  V30 3294 H 315.641 2.6808 4.82532 0
M  V30 3295 H 318.117 0.912558 4.0597 0
M  V30 3296 H 316.993 0.766547 5.43521 0
M  V30 3297 H 317.254 -0.612063 4.37843 0
M  V30 3298 N 316.313 -1.40141 0.720998 0
M  V30 3299 C 317.243 -2.33339 0.0867621 0
M  V30 3300 C 318.224 -1.53178 -0.739622 0
M  V30 3301 O 319.409 -1.81625 -0.687449 0
M  V30 3302 C 316.539 -3.37194 -0.831728 0
M  V30 3303 C 315.493 -4.27857 -0.110558 0
M  V30 3304 C 314.819 -5.22294 -1.14513 0
M  V30 3305 C 316.119 -5.11872 1.0385 0
M  V30 3306 H 317.813 -2.86626 0.865219 0
M  V30 3307 H 315.359 -1.37814 0.417516 0
M  V30 3308 H 317.312 -4.01335 -1.28485 0
M  V30 3309 H 316.036 -2.82314 -1.64214 0
M  V30 3310 H 314.695 -3.65176 0.322797 0
M  V30 3311 H 314.343 -4.63717 -1.94874 0
M  V30 3312 H 314.043 -5.83797 -0.667446 0
M  V30 3313 H 315.567 -5.89312 -1.59824 0
M  V30 3314 H 316.981 -5.69436 0.664482 0
M  V30 3315 H 315.378 -5.82445 1.4449 0
M  V30 3316 H 316.448 -4.4753 1.86668 0
M  V30 3317 N 317.792 -0.46758 -1.50504 0
M  V30 3318 C 319.038 0.0887532 -2.02606 0
M  V30 3319 C 319.371 1.39686 -1.34913 0
M  V30 3320 O 318.646 1.88644 -0.473694 0
M  V30 3321 C 318.929 0.276206 -3.59039 0
M  V30 3322 C 318.782 -1.05267 -4.37309 0
M  V30 3323 C 320.101 1.03235 -4.27821 0
M  V30 3324 H 317.22 0.0307814 -0.736357 0
M  V30 3325 H 319.862 -0.612485 -1.79857 0
M  V30 3326 H 318.012 0.8735 -3.78553 0
M  V30 3327 H 319.684 -1.68628 -4.29374 0
M  V30 3328 H 317.927 -1.65015 -4.01189 0
M  V30 3329 H 318.598 -0.875197 -5.45018 0
M  V30 3330 H 321.074 0.526111 -4.12761 0
M  V30 3331 H 319.95 1.1323 -5.37094 0
M  V30 3332 H 320.211 2.06806 -3.90748 0
M  V30 3333 N 319.27 1.56325 -0.20005 0
M  V30 3334 C 320.233 2.18084 0.705132 0
M  V30 3335 C 321.233 1.13666 1.1374 0
M  V30 3336 O 322.423 1.39023 1.04968 0
M  V30 3337 C 319.555 2.78689 1.96329 0
M  V30 3338 H 320.748 2.99435 0.167023 0
M  V30 3339 H 318.301 1.56221 0.0495725 0
M  V30 3340 H 319.036 2.0115 2.5438 0
M  V30 3341 H 318.821 3.55133 1.66202 0
M  V30 3342 H 320.311 3.26096 2.60866 0
M  V30 3343 N 320.748 -0.0735177 1.57428 0
M  V30 3344 C 321.711 -1.07192 2.02589 0
M  V30 3345 C 322.711 -1.31695 0.922661 0
M  V30 3346 O 323.901 -1.27445 1.18758 0
M  V30 3347 C 321.033 -2.41599 2.40506 0
M  V30 3348 H 322.226 -0.682727 2.92025 0
M  V30 3349 H 319.779 -0.319193 1.53006 0
M  V30 3350 H 320.514 -2.85354 1.5409 0
M  V30 3351 H 320.299 -2.25156 3.21009 0
M  V30 3352 H 321.789 -3.13367 2.76027 0
M  V30 3353 N 322.226 -1.5378 -0.344866 0
M  V30 3354 C 323.156 -1.84662 -1.42906 0
M  V30 3355 C 324.137 -0.701648 -1.54955 0
M  V30 3356 O 325.322 -0.953438 -1.69184 0
M  V30 3357 C 322.452 -2.05503 -2.79974 0
M  V30 3358 C 321.406 -3.21318 -2.82734 0
M  V30 3359 C 320.732 -3.2749 -4.22675 0
M  V30 3360 C 322.032 -4.59456 -2.48389 0
M  V30 3361 H 323.726 -2.75461 -1.17311 0
M  V30 3362 H 321.272 -1.32542 -0.562896 0
M  V30 3363 H 323.225 -2.25691 -3.55867 0
M  V30 3364 H 321.949 -1.11434 -3.07002 0
M  V30 3365 H 320.608 -3.00984 -2.09294 0
M  V30 3366 H 320.256 -2.31019 -4.4681 0
M  V30 3367 H 319.956 -4.05316 -4.25433 0
M  V30 3368 H 321.48 -3.49887 -5.00412 0
M  V30 3369 H 322.894 -4.79667 -3.13995 0
M  V30 3370 H 321.291 -5.39675 -2.62432 0
M  V30 3371 H 322.361 -4.63155 -1.4358 0
M  V30 3372 N 323.704 0.605807 -1.45491 0
M  V30 3373 C 324.667 1.69836 -1.5391 0
M  V30 3374 C 325.667 1.55261 -0.418424 0
M  V30 3375 O 326.857 1.60296 -0.681965 0
M  V30 3376 C 323.989 3.09117 -1.43734 0
M  V30 3377 H 325.182 1.63738 -2.51257 0
M  V30 3378 H 322.735 0.821689 -1.32959 0
M  V30 3379 H 323.47 3.20791 -0.475788 0
M  V30 3380 H 323.255 3.21104 -2.25021 0
M  V30 3381 H 324.745 3.88696 -1.52661 0
M  V30 3382 N 325.182 1.32811 0.848464 0
M  V30 3383 C 326.112 1.24882 1.97299 0
M  V30 3384 C 327.093 0.131357 1.69592 0
M  V30 3385 O 328.278 0.319553 1.91553 0
M  V30 3386 C 325.408 0.97746 3.33261 0
M  V30 3387 C 324.362 2.05682 3.75338 0
M  V30 3388 C 323.688 1.63777 5.09 0
M  V30 3389 C 324.988 3.47254 3.90144 0
M  V30 3390 H 326.682 2.18966 2.04191 0
M  V30 3391 H 324.228 1.05413 0.981029 0
M  V30 3392 H 326.181 0.908513 4.1149 0
M  V30 3393 H 324.905 0.000980011 3.266 0
M  V30 3394 H 323.564 2.11603 2.99366 0
M  V30 3395 H 323.212 0.648569 4.98801 0
M  V30 3396 H 322.912 2.36 5.38124 0
M  V30 3397 H 324.436 1.5833 5.89715 0
M  V30 3398 H 325.85 3.43888 4.58709 0
M  V30 3399 H 324.247 4.1788 4.30693 0
M  V30 3400 H 325.317 3.86462 2.92874 0
M  V30 3401 N 326.66 -1.06551 1.16123 0
M  V30 3402 C 327.937 -1.76097 0.85142 0
M  V30 3403 C 328.317 -2.00802 -0.6513 0
M  V30 3404 O 327.665 -1.63302 -1.59827 0
M  V30 3405 C 327.875 -3.06384 1.67122 0
M  V30 3406 C 329.223 -3.80585 1.88255 0
M  V30 3407 O 330.247 -3.16218 1.63966 0
M  V30 3408 O 329.106 -4.96212 2.2899 0
M  V30 3409 H 326.2 -0.765102 0.313923 0
M  V30 3410 H 328.746 -1.12844 1.26745 0
M  V30 3411 H 327.518 -2.84071 2.69108 0
M  V30 3412 H 327.141 -3.77371 1.25206 0
M  V30 3413 N 328.138 -0.959301 -1.25041 0
M  V30 3414 C 329.386 -0.615393 -1.92503 0
M  V30 3415 C 329.707 0.850969 -1.75452 0
M  V30 3416 O 328.977 1.60658 -1.12098 0
M  V30 3417 H 327.557 -0.224613 -0.712431 0
M  V30 3418 H 330.219 -1.21855 -1.5211 0
M  V30 3419 H 329.315 -0.848738 -3.00338 0
M  V30 3420 N 329.616 1.39756 -0.72842 0
M  V30 3421 C 330.844 2.04948 -0.283528 0
M  V30 3422 C 331.259 1.54908 1.0793 0
M  V30 3423 O 330.616 0.711135 1.68075 0
M  V30 3424 C 330.667 3.60498 -0.268957 0
M  V30 3425 O 330.388 4.08695 -1.57798 0
M  V30 3426 C 331.889 4.4288 0.192912 0
M  V30 3427 H 329.109 0.659243 -0.125056 0
M  V30 3428 H 331.653 1.78927 -0.990226 0
M  V30 3429 H 329.808 3.85444 0.388801 0
M  V30 3430 H 330.222 5.02977 -1.48709 0
M  V30 3431 H 331.696 5.51791 0.151952 0
M  V30 3432 H 332.173 4.21418 1.23708 0
M  V30 3433 H 332.779 4.23069 -0.435039 0
M  V30 3434 N 331.094 0.475555 1.50254 0
M  V30 3435 C 332.324 -0.0753399 2.06463 0
M  V30 3436 C 332.732 -1.33661 1.33908 0
M  V30 3437 O 332.075 -1.79219 0.403257 0
M  V30 3438 C 332.137 -0.424921 3.5698 0
M  V30 3439 C 331.801 0.734965 4.51051 0
M  V30 3440 C 332.798 1.61827 4.94073 0
M  V30 3441 C 330.483 0.926557 4.9368 0
M  V30 3442 C 332.477 2.67754 5.78434 0
M  V30 3443 C 330.164 1.98904 5.77824 0
M  V30 3444 C 331.162 2.8629 6.20103 0
M  V30 3445 O 330.85 3.90708 7.02568 0
M  V30 3446 H 330.582 0.00576308 0.675975 0
M  V30 3447 H 333.136 0.664662 1.94349 0
M  V30 3448 H 331.366 -1.21817 3.67012 0
M  V30 3449 H 333.055 -0.911422 3.95535 0
M  V30 3450 H 333.821 1.48196 4.61804 0
M  V30 3451 H 329.7 0.25584 4.6029 0
M  V30 3452 H 333.244 3.35992 6.11355 0
M  V30 3453 H 329.141 2.12541 6.09505 0
M  V30 3454 H 329.909 3.87751 7.20827 0
M  V30 3455 N 332.573 -1.56217 0.208337 0
M  V30 3456 C 333.819 -1.98242 -0.427552 0
M  V30 3457 C 334.152 -1.09554 -1.60348 0
M  V30 3458 O 333.427 -0.15035 -1.93918 0
M  V30 3459 C 333.71 -3.4931 -0.874907 0
M  V30 3460 C 333.563 -4.48773 0.303751 0
M  V30 3461 C 334.882 -4.04424 -1.73577 0
M  V30 3462 H 332.001 -0.720744 -0.153936 0
M  V30 3463 H 334.643 -1.87586 0.30192 0
M  V30 3464 H 332.793 -3.58522 -1.49648 0
M  V30 3465 H 334.465 -4.51586 0.941682 0
M  V30 3466 H 332.708 -4.23194 0.953375 0
M  V30 3467 H 333.379 -5.51976 -0.0519883 0
M  V30 3468 H 335.855 -3.98075 -1.21143 0
M  V30 3469 H 334.731 -5.1047 -2.01771 0
M  V30 3470 H 334.992 -3.50494 -2.69456 0
M  V30 3471 N 334.051 0.0651679 -1.57465 0
M  V30 3472 C 335.297 0.764193 -1.87851 0
M  V30 3473 C 335.63 1.76889 -0.801495 0
M  V30 3474 O 334.905 1.93594 0.187528 0
M  V30 3475 C 335.188 1.46625 -3.28897 0
M  V30 3476 C 335.041 0.477515 -4.47258 0
M  V30 3477 C 336.36 2.4095 -3.68281 0
M  V30 3478 H 333.479 0.276351 -0.683227 0
M  V30 3479 H 336.121 0.0272868 -1.8998 0
M  V30 3480 H 334.271 2.09438 -3.27212 0
M  V30 3481 H 335.943 -0.145922 -4.61069 0
M  V30 3482 H 334.186 -0.206576 -4.33308 0
M  V30 3483 H 334.857 1.0065 -5.42746 0
M  V30 3484 H 337.333 1.88209 -3.71102 0
M  V30 3485 H 336.209 2.87072 -4.67847 0
M  V30 3486 H 336.47 3.26049 -2.98571 0
M  V30 3487 N 335.529 1.53961 0.336706 0
M  V30 3488 C 336.775 1.7179 1.07777 0
M  V30 3489 C 337.108 0.483263 1.88091 0
M  V30 3490 O 336.383 -0.519747 1.87427 0
M  V30 3491 C 336.666 2.98558 2.01334 0
M  V30 3492 C 336.519 4.32245 1.24437 0
M  V30 3493 C 337.838 3.21023 3.01052 0
M  V30 3494 H 334.957 0.625089 0.390426 0
M  V30 3495 H 337.599 1.86641 0.35567 0
M  V30 3496 H 335.749 2.86028 2.62908 0
M  V30 3497 H 337.421 4.56637 0.654243 0
M  V30 3498 H 335.664 4.30344 0.546458 0
M  V30 3499 H 336.335 5.17137 1.93063 0
M  V30 3500 H 338.811 3.32929 2.49595 0
M  V30 3501 H 337.687 4.11104 3.6371 0
M  V30 3502 H 337.948 2.37637 3.72802 0
M  V30 3503 N 337.007 -0.598083 1.45811 0
M  V30 3504 C 337.917 -1.73632 1.57763 0
M  V30 3505 C 338.933 -1.67763 0.461676 0
M  V30 3506 O 340.109 -1.87949 0.723685 0
M  V30 3507 C 337.174 -3.10114 1.55018 0
M  V30 3508 C 336.235 -3.27364 2.77726 0
M  V30 3509 C 335.468 -4.57334 2.75102 0
M  V30 3510 O 335.691 -5.40258 1.8297 0
M  V30 3511 O 334.625 -4.77502 3.66437 0
M  V30 3512 H 338.451 -1.66498 2.53992 0
M  V30 3513 H 336.036 -0.763308 1.28429 0
M  V30 3514 H 337.918 -3.9141 1.56129 0
M  V30 3515 H 336.593 -3.17718 0.619431 0
M  V30 3516 H 335.5 -2.45619 2.82174 0
M  V30 3517 H 336.833 -3.24641 3.69958 0
M  V30 3518 N 338.485 -1.33259 -0.841409 0
M  V30 3519 C 339.395 -1.25332 -1.98316 0
M  V30 3520 C 340.411 -0.164364 -1.73222 0
M  V30 3521 O 341.587 -0.387486 -1.97637 0
M  V30 3522 C 338.652 -0.990078 -3.32262 0
M  V30 3523 C 337.713 -2.16879 -3.70489 0
M  V30 3524 C 336.946 -1.91801 -4.98044 0
M  V30 3525 O 337.169 -0.867075 -5.63771 0
M  V30 3526 O 336.103 -2.78267 -5.33714 0
M  V30 3527 H 339.929 -2.21344 -2.07944 0
M  V30 3528 H 337.514 -1.1328 -0.974058 0
M  V30 3529 H 339.396 -0.860321 -4.12524 0
M  V30 3530 H 338.071 -0.0602155 -3.23644 0
M  V30 3531 H 336.978 -2.35407 -2.90748 0
M  V30 3532 H 338.311 -3.0819 -3.8377 0
M  V30 3533 N 339.963 1.05934 -1.16686 0
M  V30 3534 C 341.21 1.788 -0.950622 0
M  V30 3535 C 341.538 1.87384 0.521305 0
M  V30 3536 O 340.793 1.36438 1.40297 0
M  V30 3537 C 341.092 3.23105 -1.52767 0
M  V30 3538 C 340.758 3.34594 -3.02254 0
M  V30 3539 C 339.42 3.37437 -3.43059 0
M  V30 3540 C 341.772 3.36219 -3.98254 0
M  V30 3541 C 339.1 3.39525 -4.78477 0
M  V30 3542 C 341.452 3.39845 -5.33562 0
M  V30 3543 C 340.116 3.40971 -5.73842 0
M  V30 3544 H 339.386 0.654275 -0.347857 0
M  V30 3545 H 342.033 1.24555 -1.45459 0
M  V30 3546 H 340.338 3.80227 -0.94524 0
M  V30 3547 H 342.035 3.7809 -1.336 0
M  V30 3548 H 338.625 3.3309 -2.6972 0
M  V30 3549 H 342.809 3.33231 -3.67792 0
M  V30 3550 H 338.065 3.38703 -5.09009 0
M  V30 3551 H 342.239 3.4005 -6.07733 0
M  V30 3552 H 339.866 3.42342 -6.78753 0
M  V30 3553 N 341.441 0.965919 1.2453 0
M  V30 3554 C 342.857 0.67216 1.44756 0
M  V30 3555 C 343.057 -0.766609 1.86347 0
M  V30 3556 O 342.113 -1.5407 2.00047 0
M  V30 3557 C 343.426 1.65473 2.51076 0
M  V30 3558 C 344.974 1.66716 2.64905 0
M  V30 3559 C 345.449 2.63766 3.74421 0
M  V30 3560 N 346.94 2.62198 3.81846 0
M  V30 3561 C 347.675 3.33966 4.66106 0
M  V30 3562 N 347.171 4.15245 5.54566 0
M  V30 3563 N 348.964 3.22799 4.60171 0
M  V30 3564 H 341.115 1.89553 0.958293 0
M  V30 3565 H 343.378 0.815979 0.482579 0
M  V30 3566 H 343.084 2.68296 2.27399 0
M  V30 3567 H 342.958 1.4261 3.49202 0
M  V30 3568 H 345.345 0.646057 2.87941 0
M  V30 3569 H 345.426 1.93642 1.67142 0
M  V30 3570 H 345.07 3.6601 3.52135 0
M  V30 3571 H 345 2.34121 4.71694 0
M  V30 3572 H 347.491 2.032 3.18619 0
M  V30 3573 H 347.804 4.66898 6.15814 0
M  V30 3574 H 346.149 4.1934 5.54237 0
M  V30 3575 H 349.34 2.58764 3.90075 0
M  V30 3576 H 349.513 3.78994 5.25612 0
M  V30 3577 N 342.919 -1.39368 0.735821 0
M  V30 3578 C 344.33 -1.83313 0.354015 0
M  V30 3579 C 344.681 -1.61461 -1.11466 0
M  V30 3580 O 343.806 -1.10621 -1.85989 0
M  V30 3581 C 344.401 -3.32781 0.635769 0
M  V30 3582 C 342.96 -3.75142 0.307448 0
M  V30 3583 C 342.107 -2.62358 0.897974 0
M  V30 3584 H 345.058 -1.28349 0.933398 0
M  V30 3585 H 345.079 -3.80388 -0.0921773 0
M  V30 3586 H 344.591 -3.48654 1.70476 0
M  V30 3587 H 342.692 -3.64857 -0.755674 0
M  V30 3588 H 342.805 -4.72532 0.790583 0
M  V30 3589 H 341.169 -2.52624 0.324551 0
M  V30 3590 H 341.952 -2.81036 1.97164 0
M  V30 3591 N 344.397 -0.483516 -1.5 0
M  V30 3592 C 345.643 0.0672592 -2.02688 0
M  V30 3593 C 345.976 1.38247 -1.36387 0
M  V30 3594 O 345.251 1.88131 -0.493675 0
M  V30 3595 C 345.534 0.238109 -3.59312 0
M  V30 3596 C 345.387 -1.099 -4.36168 0
M  V30 3597 C 346.706 0.986916 -4.28892 0
M  V30 3598 H 343.825 0.0229696 -0.736642 0
M  V30 3599 H 346.467 -0.631527 -1.79197 0
M  V30 3600 H 344.617 0.8333 -3.79458 0
M  V30 3601 H 346.289 -1.73172 -4.27562 0
M  V30 3602 H 344.532 -1.69261 -3.99416 0
M  V30 3603 H 345.203 -0.932954 -5.44059 0
M  V30 3604 H 347.679 0.482302 -4.13295 0
M  V30 3605 H 346.555 1.07527 -5.38265 0
M  V30 3606 H 346.816 2.0265 -3.92919 0
M  V30 3607 N 345.875 1.56104 -0.216619 0
M  V30 3608 C 347.152 1.89988 0.465165 0
M  V30 3609 C 347.532 1.13326 1.78102 0
M  V30 3610 O 346.88 0.241033 2.27225 0
M  V30 3611 C 347.09 3.42646 0.662939 0
M  V30 3612 C 348.438 4.13311 0.972602 0
M  V30 3613 O 349.462 3.48217 0.749901 0
M  V30 3614 O 348.321 5.28396 1.39499 0
M  V30 3615 H 345.415 0.78979 0.245276 0
M  V30 3616 H 347.961 1.67721 -0.258436 0
M  V30 3617 H 346.733 3.90399 -0.26543 0
M  V30 3618 H 346.356 3.70677 1.43821 0
M  V30 3619 N 347.353 -0.0568162 1.57498 0
M  V30 3620 C 348.316 -1.05038 2.03715 0
M  V30 3621 C 349.316 -1.30709 0.936577 0
M  V30 3622 O 350.506 -1.26178 1.20103 0
M  V30 3623 C 347.638 -2.39034 2.43055 0
M  V30 3624 H 348.831 -0.651715 2.92733 0
M  V30 3625 H 346.384 -0.302947 1.53336 0
M  V30 3626 H 347.119 -2.83703 1.57108 0
M  V30 3627 H 346.904 -2.21739 3.2338 0
M  V30 3628 H 348.394 -3.10421 2.79336 0
M  V30 3629 N 348.832 -1.54138 -0.328536 0
M  V30 3630 C 349.762 -1.86167 -1.40939 0
M  V30 3631 C 350.743 -0.718044 -1.54202 0
M  V30 3632 O 351.928 -0.971328 -1.68163 0
M  V30 3633 C 349.058 -2.08461 -2.77779 0
M  V30 3634 C 348.012 -3.24299 -2.7931 0
M  V30 3635 C 347.338 -3.31955 -4.19178 0
M  V30 3636 C 348.638 -4.62065 -2.43502 0
M  V30 3637 H 350.332 -2.76689 -1.14383 0
M  V30 3638 H 347.878 -1.33132 -0.548806 0
M  V30 3639 H 349.831 -2.29453 -3.53454 0
M  V30 3640 H 348.555 -1.14684 -3.05802 0
M  V30 3641 H 347.214 -3.03187 -2.0609 0
M  V30 3642 H 346.862 -2.35745 -4.44335 0
M  V30 3643 H 346.562 -4.09805 -4.2111 0
M  V30 3644 H 348.086 -3.55175 -4.96672 0
M  V30 3645 H 349.5 -4.8297 -3.08889 0
M  V30 3646 H 347.897 -5.42429 -2.56693 0
M  V30 3647 H 348.967 -4.64652 -1.38659 0
M  V30 3648 N 350.31 0.590341 -1.46126 0
M  V30 3649 C 351.242 1.71427 -1.52136 0
M  V30 3650 C 352.255 1.57542 -0.41042 0
M  V30 3651 O 353.444 1.65106 -0.678389 0
M  V30 3652 C 350.544 3.09605 -1.37834 0
M  V30 3653 C 349.717 3.49566 -2.62912 0
M  V30 3654 C 348.776 4.66773 -2.42918 0
M  V30 3655 O 347.802 4.73019 -3.1661 0
M  V30 3656 N 349.004 5.61161 -1.4859 0
M  V30 3657 H 351.769 1.66728 -2.49042 0
M  V30 3658 H 349.33 0.776113 -1.42085 0
M  V30 3659 H 351.322 3.85796 -1.22243 0
M  V30 3660 H 349.892 3.08714 -0.491393 0
M  V30 3661 H 349.112 2.63158 -2.93499 0
M  V30 3662 H 350.4 3.73028 -3.46017 0
M  V30 3663 H 349.798 5.58844 -0.87808 0
M  V30 3664 H 348.355 6.36814 -1.38965 0
M  V30 3665 N 351.788 1.33704 0.83433 0
M  V30 3666 C 352.718 1.26967 1.95963 0
M  V30 3667 C 353.699 0.149337 1.69443 0
M  V30 3668 O 354.884 0.339852 1.91203 0
M  V30 3669 C 352.014 1.01275 3.32206 0
M  V30 3670 C 350.968 2.09652 3.73136 0
M  V30 3671 C 350.294 1.69166 5.07235 0
M  V30 3672 C 351.594 3.51372 3.86439 0
M  V30 3673 H 353.288 2.2112 2.01857 0
M  V30 3674 H 350.834 1.06447 0.969793 0
M  V30 3675 H 352.787 0.952106 4.10503 0
M  V30 3676 H 351.511 0.0356203 3.26581 0
M  V30 3677 H 350.17 2.14766 2.97104 0
M  V30 3678 H 349.818 0.701437 4.98085 0
M  V30 3679 H 349.518 2.41694 5.35591 0
M  V30 3680 H 351.042 1.64576 5.88003 0
M  V30 3681 H 352.456 3.48734 4.55036 0
M  V30 3682 H 350.853 4.22425 4.26236 0
M  V30 3683 H 351.923 3.89546 2.88759 0
M  V30 3684 N 353.266 -1.05314 1.17247 0
M  V30 3685 C 354.512 -1.78557 0.961513 0
M  V30 3686 C 354.845 -1.87419 -0.508697 0
M  V30 3687 O 354.12 -1.37307 -1.37757 0
M  V30 3688 C 354.403 -3.22514 1.60176 0
M  V30 3689 C 354.256 -3.21673 3.14399 0
M  V30 3690 C 355.575 -4.20318 1.30463 0
M  V30 3691 H 352.694 -0.6482 0.350723 0
M  V30 3692 H 355.336 -1.23102 1.44727 0
M  V30 3693 H 353.486 -3.69867 1.18871 0
M  V30 3694 H 355.158 -2.82405 3.64753 0
M  V30 3695 H 353.401 -2.60048 3.47214 0
M  V30 3696 H 354.072 -4.23271 3.54324 0
M  V30 3697 H 356.548 -3.81454 1.66229 0
M  V30 3698 H 355.424 -5.19289 1.77848 0
M  V30 3699 H 355.685 -4.41526 0.22521 0
M  V30 3700 N 354.744 -0.972509 -1.24016 0
M  V30 3701 C 355.676 -0.464375 -2.24446 0
M  V30 3702 C 356.689 0.4295 -1.57032 0
M  V30 3703 O 357.878 0.234902 -1.76948 0
M  V30 3704 C 354.978 0.348385 -3.37105 0
M  V30 3705 C 354.151 -0.53673 -4.34094 0
M  V30 3706 C 353.21 0.220838 -5.25736 0
M  V30 3707 O 352.236 -0.386867 -5.67884 0
M  V30 3708 N 353.438 1.50907 -5.60542 0
M  V30 3709 H 356.203 -1.32788 -2.68677 0
M  V30 3710 H 353.764 -0.844877 -1.38107 0
M  V30 3711 H 355.756 0.863341 -3.95384 0
M  V30 3712 H 354.326 1.11285 -2.92121 0
M  V30 3713 H 353.546 -1.23261 -3.74433 0
M  V30 3714 H 354.834 -1.14022 -4.95859 0
M  V30 3715 H 354.232 2.02444 -5.28236 0
M  V30 3716 H 352.789 1.96962 -6.21329 0
M  V30 3717 N 356.222 1.38976 -0.743202 0
M  V30 3718 C 357.154 2.29096 -0.0689228 0
M  V30 3719 C 358.167 1.47229 0.694791 0
M  V30 3720 O 359.356 1.70212 0.537597 0
M  V30 3721 C 356.456 3.25988 0.926548 0
M  V30 3722 C 355.629 4.36833 0.222647 0
M  V30 3723 C 354.688 5.13981 1.12739 0
M  V30 3724 O 353.714 5.6601 0.601795 0
M  V30 3725 N 354.916 5.25966 2.45641 0
M  V30 3726 H 357.681 2.87604 -0.842846 0
M  V30 3727 H 355.242 1.50645 -0.593109 0
M  V30 3728 H 357.234 3.74476 1.5346 0
M  V30 3729 H 355.804 2.68453 1.60162 0
M  V30 3730 H 355.024 3.90116 -0.565983 0
M  V30 3731 H 356.312 5.0811 -0.264841 0
M  V30 3732 H 355.71 4.85228 2.9081 0
M  V30 3733 H 354.267 5.77865 3.01522 0
M  V30 3734 N 357.7 0.491464 1.49741 0
M  V30 3735 C 358.61 -0.296835 2.32715 0
M  V30 3736 C 359.626 -0.976536 1.44013 0
M  V30 3737 O 360.802 -0.960023 1.77047 0
M  V30 3738 C 357.867 -1.35288 3.19215 0
M  V30 3739 C 356.928 -0.687632 4.23757 0
M  V30 3740 C 356.161 -1.69336 5.06123 0
M  V30 3741 O 356.384 -2.92219 4.89861 0
M  V30 3742 O 355.318 -1.25394 5.88693 0
M  V30 3743 H 359.144 0.382048 3.01287 0
M  V30 3744 H 356.729 0.252953 1.47243 0
M  V30 3745 H 358.611 -1.96411 3.72828 0
M  V30 3746 H 357.286 -2.01487 2.53347 0
M  V30 3747 H 356.193 -0.0369159 3.74082 0
M  V30 3748 H 357.526 -0.0682566 4.92153 0
M  V30 3749 N 359.178 -1.55987 0.224894 0
M  V30 3750 C 360.11 -2.17722 -0.716224 0
M  V30 3751 C 361.123 -1.14723 -1.15509 0
M  V30 3752 O 362.312 -1.41688 -1.08567 0
M  V30 3753 C 359.412 -2.74873 -1.98238 0
M  V30 3754 C 358.585 -4.03074 -1.69853 0
M  V30 3755 C 357.644 -4.44757 -2.81208 0
M  V30 3756 O 356.67 -5.11587 -2.49534 0
M  V30 3757 N 357.872 -4.10716 -4.10235 0
M  V30 3758 H 360.637 -2.99109 -0.188123 0
M  V30 3759 H 358.198 -1.6184 0.0440123 0
M  V30 3760 H 360.19 -2.99727 -2.7193 0
M  V30 3761 H 358.76 -1.9777 -2.42086 0
M  V30 3762 H 357.98 -3.86041 -0.797875 0
M  V30 3763 H 359.268 -4.86701 -1.48324 0
M  V30 3764 H 358.666 -3.57019 -4.38809 0
M  V30 3765 H 357.223 -4.40455 -4.80461 0
M  V30 3766 N 360.656 0.0484629 -1.57525 0
M  V30 3767 C 361.902 0.744226 -1.88651 0
M  V30 3768 C 362.235 1.76029 -0.820212 0
M  V30 3769 O 361.51 1.93782 0.166985 0
M  V30 3770 C 361.793 1.43128 -3.30434 0
M  V30 3771 C 361.646 0.43005 -4.47739 0
M  V30 3772 C 362.965 2.37031 -3.70816 0
M  V30 3773 H 360.084 0.269089 -0.68612 0
M  V30 3774 H 362.726 0.00713532 -1.89999 0
M  V30 3775 H 360.876 2.05956 -3.29415 0
M  V30 3776 H 362.548 -0.194816 -4.60888 0
M  V30 3777 H 360.791 -0.252522 -4.33064 0
M  V30 3778 H 361.462 0.948874 -5.43783 0
M  V30 3779 H 363.938 1.84263 -3.73077 0
M  V30 3780 H 362.814 2.82094 -4.70865 0
M  V30 3781 H 363.075 3.22864 -3.02012 0
M  V30 3782 N 362.134 1.5431 0.320358 0
M  V30 3783 C 363.362 1.76636 1.07738 0
M  V30 3784 C 363.777 0.51649 1.81598 0
M  V30 3785 O 363.134 -0.512942 1.75143 0
M  V30 3786 C 363.185 2.96158 2.07299 0
M  V30 3787 O 362.906 4.16313 1.36438 0
M  V30 3788 C 364.407 3.3072 2.95193 0
M  V30 3789 H 361.627 0.589597 0.320339 0
M  V30 3790 H 364.171 2.01207 0.36551 0
M  V30 3791 H 362.326 2.73851 2.74016 0
M  V30 3792 H 362.74 4.83565 2.03138 0
M  V30 3793 H 364.214 4.17643 3.60941 0
M  V30 3794 H 364.691 2.48026 3.62463 0
M  V30 3795 H 365.297 3.55117 2.34034 0
M  V30 3796 N 363.613 -0.582584 1.46437 0
M  V30 3797 C 364.838 -1.37168 1.55563 0
M  V30 3798 C 365.263 -1.87061 0.19743 0
M  V30 3799 O 364.621 -1.61572 -0.822451 0
M  V30 3800 C 364.669 -2.53511 2.56446 0
M  V30 3801 O 363.773 -3.54953 2.09958 0
M  V30 3802 H 363.114 -0.408494 0.523477 0
M  V30 3803 H 365.644 -0.706646 1.9201 0
M  V30 3804 H 365.654 -3.00426 2.76058 0
M  V30 3805 H 364.329 -2.16549 3.55076 0
M  V30 3806 H 362.906 -3.14516 2.00334 0
M  V30 3807 N 365.091 -1.34144 -0.827227 0
M  V30 3808 C 366.021 -1.28005 -1.95287 0
M  V30 3809 C 367.002 -0.158321 -1.69362 0
M  V30 3810 O 368.187 -0.349987 -1.9102 0
M  V30 3811 C 365.317 -1.03036 -3.31664 0
M  V30 3812 C 364.271 -2.11628 -3.72019 0
M  V30 3813 C 363.597 -1.71854 -5.0633 0
M  V30 3814 C 364.897 -3.53417 -3.8457 0
M  V30 3815 H 366.591 -2.22187 -2.00682 0
M  V30 3816 H 364.137 -1.0696 -0.964135 0
M  V30 3817 H 366.09 -0.973863 -4.09993 0
M  V30 3818 H 364.814 -0.0529391 -3.26557 0
M  V30 3819 H 363.473 -2.16339 -2.95961 0
M  V30 3820 H 363.121 -0.727841 -4.97706 0
M  V30 3821 H 362.821 -2.44531 -5.34302 0
M  V30 3822 H 364.345 -1.67692 -5.87122 0
M  V30 3823 H 365.759 -3.51142 -4.5318 0
M  V30 3824 H 364.156 -4.24679 -4.2399 0
M  V30 3825 H 365.226 -3.91072 -2.86689 0
M  V30 3826 N 366.569 1.04691 -1.17803 0
M  V30 3827 C 367.816 1.77782 -0.969532 0
M  V30 3828 C 368.144 1.87926 0.501401 0
M  V30 3829 O 367.399 1.37918 1.38842 0
M  V30 3830 C 367.698 3.21467 -1.56186 0
M  V30 3831 C 367.364 3.3137 -3.05786 0
M  V30 3832 C 366.026 3.3378 -3.46619 0
M  V30 3833 C 368.378 3.31976 -4.01797 0
M  V30 3834 C 365.706 3.34431 -4.82051 0
M  V30 3835 C 368.058 3.34167 -5.37136 0
M  V30 3836 C 366.722 3.34866 -5.77426 0
M  V30 3837 H 365.992 0.650549 -0.354777 0
M  V30 3838 H 368.639 1.23006 -1.46772 0
M  V30 3839 H 366.944 3.79203 -0.985515 0
M  V30 3840 H 368.641 3.76652 -1.37602 0
M  V30 3841 H 365.231 3.3021 -2.73238 0
M  V30 3842 H 369.415 3.29311 -3.71306 0
M  V30 3843 H 364.671 3.33285 -5.12573 0
M  V30 3844 H 368.845 3.33585 -6.11305 0
M  V30 3845 H 366.472 3.35124 -6.82346 0
M  V30 3846 N 368.047 0.979072 1.23499 0
M  V30 3847 C 369.01 0.523244 2.23147 0
M  V30 3848 C 370.01 -0.386406 1.56088 0
M  V30 3849 O 371.2 -0.180283 1.73265 0
M  V30 3850 C 368.332 -0.240739 3.40049 0
M  V30 3851 H 369.525 1.40432 2.64989 0
M  V30 3852 H 367.078 0.764824 1.36309 0
M  V30 3853 H 367.813 -1.13841 3.03662 0
M  V30 3854 H 367.598 0.412207 3.89927 0
M  V30 3855 H 369.088 -0.548297 4.13985 0
M  V30 3856 N 369.525 -1.3858 0.750561 0
M  V30 3857 C 370.753 -2.04471 0.316098 0
M  V30 3858 C 371.168 -1.56606 -1.05452 0
M  V30 3859 O 370.525 -0.737784 -1.66922 0
M  V30 3860 C 370.576 -3.60025 0.326275 0
M  V30 3861 O 370.297 -4.06133 1.6428 0
M  V30 3862 C 371.798 -4.43131 -0.122429 0
M  V30 3863 H 369.018 -0.65717 0.135528 0
M  V30 3864 H 371.562 -1.77329 1.01857 0
M  V30 3865 H 369.717 -3.86014 -0.327431 0
M  V30 3866 H 370.131 -5.00547 1.56693 0
M  V30 3867 H 371.605 -5.51963 -0.0641473 0
M  V30 3868 H 372.082 -4.23333 -1.16988 0
M  V30 3869 H 372.688 -4.22323 0.50229 0
M  V30 3870 N 371.003 -0.499398 -1.49478 0
M  V30 3871 C 372.414 -0.051215 -1.8663 0
M  V30 3872 C 372.765 1.36238 -1.41186 0
M  V30 3873 O 371.89 2.01502 -0.789051 0
M  V30 3874 C 372.485 -0.0861651 -3.3869 0
M  V30 3875 C 371.044 0.30667 -3.75149 0
M  V30 3876 C 370.191 -0.459397 -2.73468 0
M  V30 3877 H 373.142 -0.712264 -1.41818 0
M  V30 3878 H 373.163 0.709507 -3.73826 0
M  V30 3879 H 372.675 -1.11512 -3.71735 0
M  V30 3880 H 370.776 1.33892 -3.47712 0
M  V30 3881 H 370.889 -0.0116669 -4.79099 0
M  V30 3882 H 369.253 0.0905645 -2.54539 0
M  V30 3883 H 370.036 -1.4884 -3.09357 0
M  V30 3884 N 372.481 1.55866 -0.233164 0
M  V30 3885 C 373.709 2.02998 0.399905 0
M  V30 3886 C 374.124 1.11274 1.52524 0
M  V30 3887 O 373.481 0.124528 1.82075 0
M  V30 3888 C 373.532 3.4958 0.920639 0
M  V30 3889 O 373.253 4.37808 -0.159834 0
M  V30 3890 C 374.754 4.12411 1.62578 0
M  V30 3891 H 371.974 0.664006 0.0966281 0
M  V30 3892 H 374.518 2.0143 -0.353013 0
M  V30 3893 H 372.673 3.51727 1.62379 0
M  V30 3894 H 373.087 5.23981 0.23337 0
M  V30 3895 H 374.561 5.16711 1.94201 0
M  V30 3896 H 375.038 3.5809 2.54299 0
M  V30 3897 H 375.644 4.14148 0.967553 0
M  V30 3898 N 373.959 -0.0401083 1.57549 0
M  V30 3899 C 374.909 -1.05175 2.02292 0
M  V30 3900 C 375.893 -1.32674 0.910294 0
M  V30 3901 O 377.085 -1.32444 1.17421 0
M  V30 3902 C 374.214 -2.35622 2.49674 0
M  V30 3903 C 373.3 -2.11261 3.67736 0
M  V30 3904 N 373.691 -1.56923 4.80842 0
M  V30 3905 C 371.989 -2.41596 3.74897 0
M  V30 3906 C 372.69 -1.48111 5.62528 0
M  V30 3907 N 371.666 -1.95282 5.07312 0
M  V30 3908 H 375.468 -0.625455 2.87168 0
M  V30 3909 H 372.982 -0.246624 1.60516 0
M  V30 3910 H 374.979 -3.08893 2.79983 0
M  V30 3911 H 373.639 -2.7894 1.662 0
M  V30 3912 H 374.65 -1.25345 5.02503 0
M  V30 3913 H 371.327 -2.88064 3.02201 0
M  V30 3914 H 372.717 -1.06683 6.63377 0
M  V30 3915 N 375.437 -1.54477 -0.31217 0
M  V30 3916 C 376.367 -1.87652 -1.38957 0
M  V30 3917 C 377.348 -0.734358 -1.53431 0
M  V30 3918 O 378.533 -0.98911 -1.67123 0
M  V30 3919 C 375.663 -2.11396 -2.75552 0
M  V30 3920 C 374.617 -3.27243 -2.75855 0
M  V30 3921 C 373.943 -3.36382 -4.15633 0
M  V30 3922 C 375.243 -4.64622 -2.38587 0
M  V30 3923 H 376.937 -2.77887 -1.11442 0
M  V30 3924 H 374.483 -1.33707 -0.534655 0
M  V30 3925 H 376.436 -2.33189 -3.51 0
M  V30 3926 H 375.16 -1.17921 -3.04569 0
M  V30 3927 H 373.819 -3.05356 -2.02863 0
M  V30 3928 H 373.467 -2.40445 -4.41809 0
M  V30 3929 H 373.167 -4.14249 -4.1674 0
M  V30 3930 H 374.691 -3.60422 -4.92877 0
M  V30 3931 H 376.105 -4.86219 -3.03749 0
M  V30 3932 H 374.502 -5.45121 -2.50925 0
M  V30 3933 H 375.572 -4.66097 -1.33723 0
M  V30 3934 N 376.915 0.57481 -1.46744 0
M  V30 3935 C 378.192 1.3352 -1.4294 0
M  V30 3936 C 378.572 2.10775 -0.117009 0
M  V30 3937 O 377.92 2.09966 0.901474 0
M  V30 3938 C 378.13 2.25456 -2.66403 0
M  V30 3939 C 379.478 2.87035 -3.12883 0
M  V30 3940 O 380.502 2.35766 -2.67007 0
M  V30 3941 O 379.361 3.80179 -3.92589 0
M  V30 3942 H 376.455 0.600318 -0.568812 0
M  V30 3943 H 379.001 0.595171 -1.58921 0
M  V30 3944 H 377.773 1.67851 -3.53471 0
M  V30 3945 H 377.396 3.06785 -2.52921 0
M  V30 3946 N 378.394 1.34581 0.820102 0
M  V30 3947 C 379.357 1.2628 1.91275 0
M  V30 3948 C 380.357 0.177344 1.59819 0
M  V30 3949 O 381.547 0.430156 1.68806 0
M  V30 3950 C 378.679 0.950327 3.27386 0
M  V30 3951 H 379.872 2.23421 2.00057 0
M  V30 3952 H 377.425 1.1891 1.0144 0
M  V30 3953 H 378.16 -0.0177938 3.24295 0
M  V30 3954 H 377.945 1.73549 3.51601 0
M  V30 3955 H 379.435 0.917492 4.07396 0
M  V30 3956 N 379.872 -1.04064 1.18357 0
M  V30 3957 C 380.802 -2.14001 0.934113 0
M  V30 3958 C 381.783 -1.69616 -0.128186 0
M  V30 3959 O 382.968 -1.94185 0.0244093 0
M  V30 3960 C 380.098 -3.44253 0.459066 0
M  V30 3961 C 379.052 -4.02261 1.46185 0
M  V30 3962 C 378.378 -5.27992 0.844322 0
M  V30 3963 C 379.678 -4.38432 2.83856 0
M  V30 3964 H 381.372 -2.35127 1.85352 0
M  V30 3965 H 378.918 -1.12998 0.892604 0
M  V30 3966 H 380.871 -4.20522 0.271907 0
M  V30 3967 H 379.595 -3.22813 -0.495912 0
M  V30 3968 H 378.254 -3.28074 1.63595 0
M  V30 3969 H 377.902 -5.02862 -0.117845 0
M  V30 3970 H 377.602 -5.67765 1.51384 0
M  V30 3971 H 379.126 -6.06938 0.667693 0
M  V30 3972 H 380.54 -5.05688 2.70098 0
M  V30 3973 H 378.937 -4.89254 3.47491 0
M  V30 3974 H 380.007 -3.4826 3.37406 0
M  V30 3975 N 381.35 -0.985608 -1.22978 0
M  V30 3976 C 382.313 -0.535071 -2.22867 0
M  V30 3977 C 383.313 0.378123 -1.56291 0
M  V30 3978 O 384.503 0.171092 -1.73358 0
M  V30 3979 C 381.635 0.222702 -3.40172 0
M  V30 3980 H 382.828 -1.41835 -2.6424 0
M  V30 3981 H 380.381 -0.772042 -1.35901 0
M  V30 3982 H 381.116 1.12229 -3.04262 0
M  V30 3983 H 380.901 -0.43288 -3.89703 0
M  V30 3984 H 382.391 0.526335 -4.1427 0
M  V30 3985 N 382.828 1.3818 -0.7579 0
M  V30 3986 C 383.791 2.28764 -0.141286 0
M  V30 3987 C 384.791 1.47388 0.642907 0
M  V30 3988 O 385.981 1.67781 0.468536 0
M  V30 3989 C 383.113 3.31184 0.808069 0
M  V30 3990 H 384.306 2.848 -0.939633 0
M  V30 3991 H 381.859 1.47212 -0.525191 0
M  V30 3992 H 382.594 2.80247 1.63193 0
M  V30 3993 H 382.379 3.91314 0.248104 0
M  V30 3994 H 383.869 3.98909 1.23536 0
M  V30 3995 N 384.306 0.507319 1.49211 0
M  V30 3996 C 385.269 -0.256763 2.27757 0
M  V30 3997 C 386.269 -0.888287 1.34038 0
M  V30 3998 O 387.459 -0.751841 1.5714 0
M  V30 3999 C 384.591 -1.36905 3.12202 0
M  V30 4000 H 385.784 0.432557 2.96764 0
M  V30 4001 H 383.337 0.262488 1.5408 0
M  V30 4002 H 384.072 -2.09233 2.47775 0
M  V30 4003 H 383.857 -0.921599 3.81115 0
M  V30 4004 H 385.347 -1.9071 3.7151 0
M  V30 4005 N 385.784 -1.5574 0.241426 0
M  V30 4006 C 386.747 -2.19877 -0.647063 0
M  V30 4007 C 387.747 -1.16642 -1.10686 0
M  V30 4008 O 388.937 -1.41757 -1.01245 0
M  V30 4009 C 386.069 -2.83797 -1.88871 0
M  V30 4010 H 387.262 -2.99772 -0.087574 0
M  V30 4011 H 384.815 -1.56298 -0.00813574 0
M  V30 4012 H 385.55 -2.07824 -2.48957 0
M  V30 4013 H 385.335 -3.59414 -1.56728 0
M  V30 4014 H 386.825 -3.32898 -2.52129 0
M  V30 4015 N 387.262 0.0317525 -1.57568 0
M  V30 4016 C 388.225 1.01783 -2.0536 0
M  V30 4017 C 389.225 1.29203 -0.957253 0
M  V30 4018 O 390.415 1.24251 -1.22095 0
M  V30 4019 C 387.547 2.35137 -2.46827 0
M  V30 4020 H 388.74 0.605062 -2.93733 0
M  V30 4021 H 386.293 0.278514 -1.53799 0
M  V30 4022 H 387.028 2.81168 -1.61602 0
M  V30 4023 H 386.813 2.16566 -3.26866 0
M  V30 4024 H 388.303 3.05938 -2.84239 0
M  V30 4025 N 388.74 1.54641 0.303973 0
M  V30 4026 C 389.69 1.8177 1.37636 0
M  V30 4027 C 390.674 0.674697 1.46071 0
M  V30 4028 O 391.866 0.935251 1.50273 0
M  V30 4029 C 388.995 2.06584 2.74186 0
M  V30 4030 C 388.081 3.2706 2.69986 0
M  V30 4031 N 388.472 4.47682 2.35402 0
M  V30 4032 C 386.77 3.29028 3.01092 0
M  V30 4033 C 387.471 5.29689 2.40426 0
M  V30 4034 N 386.447 4.67339 2.7766 0
M  V30 4035 H 390.249 2.72596 1.09857 0
M  V30 4036 H 387.763 1.541 0.51254 0
M  V30 4037 H 389.76 2.24166 3.51504 0
M  V30 4038 H 388.42 1.17024 3.02879 0
M  V30 4039 H 389.431 4.74336 2.07908 0
M  V30 4040 H 386.108 2.49565 3.34699 0
M  V30 4041 H 387.498 6.3606 2.16512 0
M  V30 4042 N 390.218 -0.567019 1.47046 0
M  V30 4043 C 391.181 -1.65696 1.58359 0
M  V30 4044 C 392.181 -1.54097 0.459441 0
M  V30 4045 O 393.371 -1.58432 0.724225 0
M  V30 4046 C 390.503 -3.05197 1.51879 0
M  V30 4047 H 391.696 -1.57019 2.5551 0
M  V30 4048 H 389.249 -0.786148 1.3509 0
M  V30 4049 H 389.984 -3.19417 0.560673 0
M  V30 4050 H 389.769 -3.15025 2.33455 0
M  V30 4051 H 391.259 -3.84511 1.62913 0
M  V30 4052 N 391.696 -1.35014 -0.812953 0
M  V30 4053 C 392.944 -1.27678 -1.56661 0
M  V30 4054 C 393.265 0.150359 -1.94419 0
M  V30 4055 O 392.535 1.08532 -1.63088 0
M  V30 4056 H 391.115 -0.469602 -0.580933 0
M  V30 4057 H 393.777 -1.69043 -0.970076 0
M  V30 4058 H 392.873 -1.88833 -2.48492 0
M  V30 4059 N 393.175 1.03435 -1.18907 0
M  V30 4060 C 394.4 1.80919 -1.01406 0
M  V30 4061 C 394.825 1.83055 0.432721 0
M  V30 4062 O 394.183 1.25252 1.31079 0
M  V30 4063 C 394.231 3.24091 -1.58105 0
M  V30 4064 O 393.335 4.04434 -0.806669 0
M  V30 4065 H 392.676 0.558709 -0.358803 0
M  V30 4066 H 395.206 1.30223 -1.57807 0
M  V30 4067 H 395.216 3.74853 -1.61087 0
M  V30 4068 H 393.891 3.21851 -2.6341 0
M  V30 4069 H 392.468 3.63091 -0.849666 0
M  V30 4070 N 394.653 0.992116 1.22453 0
M  V30 4071 C 395.878 0.685644 1.95739 0
M  V30 4072 C 396.303 -0.743 1.72804 0
M  V30 4073 O 395.661 -1.50778 1.00676 0
M  V30 4074 C 395.709 0.996293 3.46564 0
M  V30 4075 O 394.813 0.0945512 4.12292 0
M  V30 4076 H 394.154 0.256694 0.612376 0
M  V30 4077 H 396.684 1.32888 1.5557 0
M  V30 4078 H 396.694 0.93781 3.97076 0
M  V30 4079 H 395.369 2.03733 3.62582 0
M  V30 4080 H 393.946 0.208451 3.72317 0
M  V30 4081 N 396.131 -1.37776 0.765217 0
M  V30 4082 C 397.061 -2.32945 0.160953 0
M  V30 4083 C 398.042 -1.55454 -0.690516 0
M  V30 4084 O 399.227 -1.83721 -0.629318 0
M  V30 4085 C 396.357 -3.39669 -0.724031 0
M  V30 4086 C 395.311 -4.27992 0.0256173 0
M  V30 4087 C 394.637 -5.25673 -0.978383 0
M  V30 4088 C 395.937 -5.08309 1.20082 0
M  V30 4089 H 397.631 -2.83728 0.955969 0
M  V30 4090 H 395.177 -1.36416 0.461149 0
M  V30 4091 H 397.13 -4.05219 -1.15652 0
M  V30 4092 H 395.854 -2.87396 -1.5515 0
M  V30 4093 H 394.513 -3.63964 0.438812 0
M  V30 4094 H 394.161 -4.69682 -1.80022 0
M  V30 4095 H 393.861 -5.85625 -0.481378 0
M  V30 4096 H 395.385 -5.94098 -1.40995 0
M  V30 4097 H 396.799 -5.67034 0.845307 0
M  V30 4098 H 395.196 -5.77554 1.62947 0
M  V30 4099 H 396.266 -4.41365 2.00811 0
M  V30 4100 N 397.609 -0.515225 -1.4894 0
M  V30 4101 C 398.556 0.255567 -2.29381 0
M  V30 4102 C 399.526 0.947387 -1.36432 0
M  V30 4103 O 400.711 0.951288 -1.65394 0
M  V30 4104 C 397.851 1.30551 -3.19453 0
M  V30 4105 C 396.964 0.624029 -4.27469 0
M  V30 4106 C 396.099 1.65563 -5.0474 0
M  V30 4107 C 395.138 0.956802 -6.04576 0
M  V30 4108 N 394.275 1.93326 -6.74959 0
M  V30 4109 H 399.115 -0.436607 -2.94784 0
M  V30 4110 H 396.652 -0.227154 -1.45336 0
M  V30 4111 H 398.61 1.92639 -3.70062 0
M  V30 4112 H 397.24 1.96626 -2.56004 0
M  V30 4113 H 396.292 -0.110459 -3.8024 0
M  V30 4114 H 397.604 0.0746092 -4.98744 0
M  V30 4115 H 396.758 2.35119 -5.59289 0
M  V30 4116 H 395.497 2.23893 -4.3327 0
M  V30 4117 H 394.502 0.247097 -5.49244 0
M  V30 4118 H 395.727 0.379814 -6.78037 0
M  V30 4119 H 393.673 2.50591 -6.06251 0
M  V30 4120 H 393.59 1.43489 -7.42258 0
M  V30 4121 H 394.858 2.62126 -7.34105 0
M  V30 4122 N 399.087 1.5561 -0.249682 0
M  V30 4123 C 400.017 2.24477 0.642826 0
M  V30 4124 C 400.998 1.22601 1.17911 0
M  V30 4125 O 402.183 1.5126 1.21795 0
M  V30 4126 C 399.313 2.94638 1.83863 0
M  V30 4127 C 398.267 4.03227 1.435 0
M  V30 4128 C 397.593 4.60828 2.71186 0
M  V30 4129 C 398.893 5.18796 0.604002 0
M  V30 4130 H 400.587 2.99321 0.0685625 0
M  V30 4131 H 398.133 1.43965 0.0315363 0
M  V30 4132 H 400.086 3.41517 2.46868 0
M  V30 4133 H 398.81 2.17287 2.43832 0
M  V30 4134 H 397.469 3.57121 0.828275 0
M  V30 4135 H 397.117 3.80174 3.29358 0
M  V30 4136 H 396.817 5.34132 2.44901 0
M  V30 4137 H 398.341 5.10442 3.35084 0
M  V30 4138 H 399.755 5.61883 1.13842 0
M  V30 4139 H 398.152 5.98506 0.437097 0
M  V30 4140 H 399.222 4.83384 -0.383147 0
M  V30 4141 N 400.565 -0.0233959 1.57583 0
M  V30 4142 C 401.842 -0.748794 1.807 0
M  V30 4143 C 402.222 -1.9327 0.849106 0
M  V30 4144 O 401.57 -2.28247 -0.107468 0
M  V30 4145 C 401.78 -1.17651 3.28571 0
M  V30 4146 C 403.128 -1.59008 3.93702 0
M  V30 4147 O 404.152 -1.27094 3.32755 0
M  V30 4148 O 403.011 -2.18264 5.01022 0
M  V30 4149 H 400.105 -0.362578 0.743281 0
M  V30 4150 H 402.651 0.000261958 1.697 0
M  V30 4151 H 401.423 -0.331603 3.89892 0
M  V30 4152 H 401.046 -1.98541 3.44481 0
M  V30 4153 N 402.043 -1.548 -0.295768 0
M  V30 4154 C 403.268 -1.78653 -1.05346 0
M  V30 4155 C 403.693 -0.546894 -1.79974 0
M  V30 4156 O 403.051 0.502763 -1.7419 0
M  V30 4157 C 403.099 -2.99679 -2.00561 0
M  V30 4158 O 402.203 -2.7317 -3.08953 0
M  V30 4159 H 401.544 -0.59116 -0.302367 0
M  V30 4160 H 404.074 -2.01895 -0.331598 0
M  V30 4161 H 404.084 -3.27793 -2.42932 0
M  V30 4162 H 402.759 -3.89562 -1.4565 0
M  V30 4163 H 401.336 -2.56089 -2.71059 0
M  V30 4164 N 403.521 0.559213 -1.47345 0
M  V30 4165 C 404.451 1.67622 -1.62558 0
M  V30 4166 C 405.432 1.63331 -0.475087 0
M  V30 4167 O 406.617 1.80983 -0.704182 0
M  V30 4168 C 403.747 3.0626 -1.63774 0
M  V30 4169 C 402.701 3.25397 -2.7803 0
M  V30 4170 C 402.027 4.64801 -2.64318 0
M  V30 4171 C 403.327 3.10965 -4.19641 0
M  V30 4172 H 405.021 1.55146 -2.56067 0
M  V30 4173 H 402.567 0.744961 -1.23233 0
M  V30 4174 H 404.52 3.84247 -1.73008 0
M  V30 4175 H 403.244 3.1969 -0.66825 0
M  V30 4176 H 401.903 2.49817 -2.68304 0
M  V30 4177 H 401.551 4.75028 -1.65401 0
M  V30 4178 H 401.251 4.78555 -3.40968 0
M  V30 4179 H 402.775 5.44926 -2.75478 0
M  V30 4180 H 404.189 3.78772 -4.30354 0
M  V30 4181 H 402.586 3.36229 -4.97062 0
M  V30 4182 H 403.656 2.07736 -4.38148 0
M  V30 4183 N 404.999 1.35443 0.805782 0
M  V30 4184 C 406.415 1.15499 1.10146 0
M  V30 4185 C 406.615 -0.0319975 2.01475 0
M  V30 4186 O 405.671 -0.70236 2.42535 0
M  V30 4187 C 406.984 2.45833 1.73166 0
M  V30 4188 C 408.532 2.52047 1.85583 0
M  V30 4189 C 409.007 3.82427 2.52019 0
M  V30 4190 N 410.498 3.83682 2.59504 0
M  V30 4191 C 411.233 4.81294 3.11679 0
M  V30 4192 N 410.729 5.89294 3.64287 0
M  V30 4193 N 412.522 4.6873 3.1024 0
M  V30 4194 H 404.673 2.11469 0.198678 0
M  V30 4195 H 406.936 0.93594 0.150731 0
M  V30 4196 H 406.642 3.32874 1.13526 0
M  V30 4197 H 406.516 2.6044 2.72857 0
M  V30 4198 H 408.903 1.65435 2.44367 0
M  V30 4199 H 408.984 2.41354 0.847455 0
M  V30 4200 H 408.628 4.69437 1.93885 0
M  V30 4201 H 408.558 3.90409 3.53395 0
M  V30 4202 H 411.049 3.05648 2.22234 0
M  V30 4203 H 411.362 6.59768 4.02401 0
M  V30 4204 H 409.707 5.92985 3.62483 0
M  V30 4205 H 412.898 3.83496 2.68419 0
M  V30 4206 H 413.071 5.44965 3.50596 0
M  V30 4207 N 406.477 -1.02803 1.19454 0
M  V30 4208 C 407.427 -2.0945 0.900827 0
M  V30 4209 C 408.411 -1.60335 -0.134715 0
M  V30 4210 O 409.603 -1.76857 0.0710924 0
M  V30 4211 C 406.732 -3.4044 0.442229 0
M  V30 4212 C 405.818 -3.96286 1.51056 0
M  V30 4213 N 406.209 -4.25785 2.73021 0
M  V30 4214 C 404.507 -4.24307 1.37404 0
M  V30 4215 C 405.208 -4.70654 3.41848 0
M  V30 4216 N 404.184 -4.72238 2.69243 0
M  V30 4217 H 407.986 -2.3015 1.82779 0
M  V30 4218 H 405.5 -1.20672 1.08683 0
M  V30 4219 H 407.497 -4.16354 0.21326 0
M  V30 4220 H 406.157 -3.21159 -0.478238 0
M  V30 4221 H 407.168 -4.15041 3.09776 0
M  V30 4222 H 403.845 -4.14285 0.517103 0
M  V30 4223 H 405.235 -5.02392 4.46152 0
M  V30 4224 N 407.956 -0.998596 -1.21925 0
M  V30 4225 C 409.202 -0.678667 -1.91107 0
M  V30 4226 C 409.535 0.78791 -1.77498 0
M  V30 4227 O 408.81 1.57043 -1.1475 0
M  V30 4228 C 409.093 -1.09245 -3.43129 0
M  V30 4229 C 408.946 -2.61801 -3.6576 0
M  V30 4230 C 410.265 -0.649984 -4.35274 0
M  V30 4231 H 407.384 -0.248025 -0.694012 0
M  V30 4232 H 410.026 -1.24314 -1.43688 0
M  V30 4233 H 408.176 -0.612171 -3.83647 0
M  V30 4234 H 409.848 -3.17543 -3.34611 0
M  V30 4235 H 408.091 -3.03609 -3.09845 0
M  V30 4236 H 408.762 -2.85804 -4.7225 0
M  V30 4237 H 411.238 -1.0626 -4.02303 0
M  V30 4238 H 410.114 -0.967743 -5.40302 0
M  V30 4239 H 410.375 0.449139 -4.39813 0
M  V30 4240 N 409.434 1.37368 -0.772513 0
M  V30 4241 C 410.662 2.03942 -0.348588 0
M  V30 4242 C 411.077 1.58264 1.02947 0
M  V30 4243 O 410.434 0.764246 1.65727 0
M  V30 4244 C 410.485 3.5946 -0.38351 0
M  V30 4245 O 410.206 4.03468 -1.70721 0
M  V30 4246 C 411.707 4.4327 0.0519152 0
M  V30 4247 H 408.927 0.654931 -0.145966 0
M  V30 4248 H 411.471 1.75686 -1.04665 0
M  V30 4249 H 409.626 3.86486 0.265978 0
M  V30 4250 H 410.04 4.97991 -1.64636 0
M  V30 4251 H 411.514 5.51995 -0.0236733 0
M  V30 4252 H 411.991 4.2514 1.10238 0
M  V30 4253 H 412.597 4.21471 -0.569415 0
M  V30 4254 N 410.912 0.523116 1.48665 0
M  V30 4255 C 412.159 -0.0134763 2.02496 0
M  V30 4256 C 412.487 -1.3493 1.40086 0
M  V30 4257 O 411.742 -1.88286 0.533567 0
M  V30 4258 C 412.041 -0.191671 3.56886 0
M  V30 4259 C 411.707 1.06893 4.38046 0
M  V30 4260 C 410.369 1.41443 4.59943 0
M  V30 4261 C 412.721 1.90584 4.85106 0
M  V30 4262 C 410.049 2.59594 5.26144 0
M  V30 4263 C 412.401 3.07907 5.52609 0
M  V30 4264 C 411.065 3.42811 5.72745 0
M  V30 4265 H 410.335 -0.00493133 0.740984 0
M  V30 4266 H 412.982 0.687751 1.78724 0
M  V30 4267 H 411.287 -0.97561 3.79459 0
M  V30 4268 H 412.984 -0.621659 3.96152 0
M  V30 4269 H 409.574 0.789848 4.21259 0
M  V30 4270 H 413.758 1.65203 4.67997 0
M  V30 4271 H 409.014 2.86847 5.39934 0
M  V30 4272 H 413.188 3.73066 5.88043 0
M  V30 4273 H 410.815 4.34462 6.23816 0
M  V30 4274 N 412.39 -1.55475 0.257931 0
M  V30 4275 C 413.353 -2.20551 -0.623706 0
M  V30 4276 C 414.353 -1.17809 -1.09443 0
M  V30 4277 O 415.543 -1.42823 -0.997362 0
M  V30 4278 C 412.675 -2.85784 -1.8585 0
M  V30 4279 H 413.868 -2.99848 -0.0557743 0
M  V30 4280 H 411.421 -1.56298 0.0084422 0
M  V30 4281 H 412.156 -2.10453 -2.46739 0
M  V30 4282 H 411.941 -3.61057 -1.52907 0
M  V30 4283 H 413.431 -3.35553 -2.48584 0
M  V30 4284 N 413.868 0.0150385 -1.57593 0
M  V30 4285 C 415.116 0.701613 -1.8953 0
M  V30 4286 C 415.437 1.75139 -0.857396 0
M  V30 4287 O 414.707 1.95607 0.107194 0
M  V30 4288 H 413.287 0.26213 -0.699498 0
M  V30 4289 H 415.949 -0.0223304 -1.94887 0
M  V30 4290 H 415.045 1.18236 -2.88837 0
M  V30 4291 N 415.346 1.54954 0.287554 0
M  V30 4292 C 416.309 1.86076 1.33823 0
M  V30 4293 C 417.309 0.734414 1.43049 0
M  V30 4294 O 418.499 1.00266 1.42452 0
M  V30 4295 C 415.631 2.05305 2.72144 0
M  V30 4296 H 416.824 2.79984 1.07465 0
M  V30 4297 H 414.377 1.47223 0.524902 0
M  V30 4298 H 415.112 1.1373 3.03704 0
M  V30 4299 H 414.897 2.873 2.66836 0
M  V30 4300 H 416.387 2.30706 3.48087 0
M  V30 4301 N 416.824 -0.551391 1.4764 0
M  V30 4302 C 418.052 -1.33357 1.58189 0
M  V30 4303 C 418.467 -1.87342 0.234199 0
M  V30 4304 O 417.824 -1.65301 -0.77343 0
M  V30 4305 C 417.875 -2.49942 2.61173 0
M  V30 4306 O 417.596 -1.98187 3.90709 0
M  V30 4307 C 419.097 -3.42072 2.8196 0
M  V30 4308 H 416.317 -0.40631 0.533998 0
M  V30 4309 H 418.861 -0.667367 1.93304 0
M  V30 4310 H 417.016 -3.12489 2.28975 0
M  V30 4311 H 417.43 -2.74342 4.47031 0
M  V30 4312 H 418.904 -4.20278 3.57869 0
M  V30 4313 H 419.381 -3.95978 1.89995 0
M  V30 4314 H 419.987 -2.85336 3.15378 0
M  V30 4315 N 418.302 -1.35869 -0.798587 0
M  V30 4316 C 419.235 -1.23801 -1.91699 0
M  V30 4317 C 420.213 -0.124143 -1.62125 0
M  V30 4318 O 421.397 -0.293656 -1.86199 0
M  V30 4319 C 418.524 -0.908063 -3.263 0
M  V30 4320 C 417.57 -2.0351 -3.74815 0
M  V30 4321 S 418.403 -3.65183 -3.91665 0
M  V30 4322 C 419.559 -3.34283 -5.29156 0
M  V30 4323 H 419.792 -2.18466 -2.01643 0
M  V30 4324 H 417.325 -1.21178 -0.956833 0
M  V30 4325 H 419.283 -0.724506 -4.04056 0
M  V30 4326 H 417.944 0.0206584 -3.14093 0
M  V30 4327 H 417.137 -1.75858 -4.72324 0
M  V30 4328 H 416.739 -2.1774 -3.04081 0
M  V30 4329 H 419.031 -2.87607 -6.13424 0
M  V30 4330 H 419.974 -4.31022 -5.61806 0
M  V30 4331 H 420.382 -2.69854 -4.95822 0
M  V30 4332 N 419.78 1.02168 -1.19998 0
M  V30 4333 C 421.191 1.57135 -1.00825 0
M  V30 4334 C 421.542 1.91276 0.436818 0
M  V30 4335 O 420.667 1.71679 1.3174 0
M  V30 4336 C 421.262 2.85514 -1.82393 0
M  V30 4337 C 419.821 3.37027 -1.67601 0
M  V30 4338 C 418.968 2.10388 -1.80644 0
M  V30 4339 H 421.919 0.846106 -1.34264 0
M  V30 4340 H 421.94 3.56711 -1.32429 0
M  V30 4341 H 421.452 2.60634 -2.87561 0
M  V30 4342 H 419.553 3.66878 -0.650485 0
M  V30 4343 H 419.666 4.09572 -2.4857 0
M  V30 4344 H 418.03 2.22601 -1.23778 0
M  V30 4345 H 418.813 1.8794 -2.87286 0
M  V30 4346 N 421.258 1.00505 1.21394 0
M  V30 4347 C 422.535 0.603277 1.86064 0
M  V30 4348 C 422.915 -0.919095 1.90042 0
M  V30 4349 O 422.263 -1.80607 1.39977 0
M  V30 4350 C 422.473 1.23772 3.26315 0
M  V30 4351 C 423.821 1.34586 4.02705 0
M  V30 4352 O 424.845 1.19304 3.35626 0
M  V30 4353 O 423.704 1.59169 5.22807 0
M  V30 4354 H 420.798 0.206634 0.800769 0
M  V30 4355 H 423.344 1.1017 1.29076 0
M  V30 4356 H 422.116 2.27848 3.18121 0
M  V30 4357 H 421.739 0.725648 3.90922 0
M  V30 4358 N 422.737 -1.36956 0.779787 0
M  V30 4359 C 423.7 -2.2851 0.177662 0
M  V30 4360 C 424.7 -1.48393 -0.619377 0
M  V30 4361 O 425.89 -1.68505 -0.441785 0
M  V30 4362 C 423.022 -3.32428 -0.755279 0
M  V30 4363 H 424.215 -2.83269 0.984823 0
M  V30 4364 H 421.768 -1.46358 0.548544 0
M  V30 4365 H 422.503 -2.82808 -1.58714 0
M  V30 4366 H 422.288 -3.91659 -0.185817 0
M  V30 4367 H 423.778 -4.00824 -1.17174 0
M  V30 4368 N 424.215 -0.530993 -1.48385 0
M  V30 4369 C 425.461 0.00274135 -2.028 0
M  V30 4370 C 425.794 1.33838 -1.40716 0
M  V30 4371 O 425.069 1.86465 -0.553277 0
M  V30 4372 C 425.352 0.123676 -3.59888 0
M  V30 4373 C 425.205 -1.2372 -4.3245 0
M  V30 4374 C 426.524 0.849967 -4.31814 0
M  V30 4375 H 423.643 -0.000477758 -0.737 0
M  V30 4376 H 426.285 -0.688217 -1.77098 0
M  V30 4377 H 424.435 0.712157 -3.81917 0
M  V30 4378 H 426.107 -1.86687 -4.21836 0
M  V30 4379 H 424.35 -1.81882 -3.93829 0
M  V30 4380 H 425.021 -1.10557 -5.40815 0
M  V30 4381 H 427.497 0.350572 -4.14621 0
M  V30 4382 H 426.373 0.903486 -5.41413 0
M  V30 4383 H 426.634 1.90047 -3.99167 0
M  V30 4384 N 425.693 1.55336 -0.266172 0
M  V30 4385 C 426.623 2.25146 0.618981 0
M  V30 4386 C 427.604 1.23845 1.16604 0
M  V30 4387 O 428.789 1.52544 1.20183 0
M  V30 4388 C 425.919 2.96572 1.80728 0
M  V30 4389 C 424.873 4.04726 1.39215 0
M  V30 4390 C 424.199 4.63678 2.66283 0
M  V30 4391 C 425.499 5.19407 0.548942 0
M  V30 4392 H 427.193 2.99377 0.0368116 0
M  V30 4393 H 424.739 1.43991 0.0162651 0
M  V30 4394 H 426.692 3.44116 2.43232 0
M  V30 4395 H 425.416 2.19861 2.41514 0
M  V30 4396 H 424.075 3.57979 0.790351 0
M  V30 4397 H 423.723 3.83646 3.25308 0
M  V30 4398 H 423.423 5.367 2.39222 0
M  V30 4399 H 424.947 5.13967 3.29651 0
M  V30 4400 H 426.361 5.63059 1.07876 0
M  V30 4401 H 424.758 5.98936 0.373593 0
M  V30 4402 H 425.828 4.8295 -0.434394 0
M  V30 4403 N 427.171 -0.0066808 1.57599 0
M  V30 4404 C 428.081 -1.01671 2.11424 0
M  V30 4405 C 429.097 -1.38143 1.05795 0
M  V30 4406 O 430.273 -1.47011 1.37658 0
M  V30 4407 C 427.338 -2.29192 2.60139 0
M  V30 4408 C 426.399 -1.99094 3.80342 0
M  V30 4409 C 425.632 -3.20535 4.26724 0
M  V30 4410 O 425.855 -4.3199 3.72479 0
M  V30 4411 O 424.789 -3.04924 5.18946 0
M  V30 4412 H 428.615 -0.589181 2.9793 0
M  V30 4413 H 426.2 -0.225091 1.47695 0
M  V30 4414 H 428.082 -3.0412 2.917 0
M  V30 4415 H 426.757 -2.71195 1.76733 0
M  V30 4416 H 425.664 -1.21663 3.53764 0
M  V30 4417 H 426.997 -1.61931 4.648 0
M  V30 4418 N 428.649 -1.55105 -0.279332 0
M  V30 4419 C 429.877 -1.7943 -1.03017 0
M  V30 4420 C 430.292 -0.564456 -1.80165 0
M  V30 4421 O 429.649 0.466326 -1.76442 0
M  V30 4422 C 429.7 -3.0155 -1.99374 0
M  V30 4423 O 429.421 -4.19784 -1.25352 0
M  V30 4424 C 430.922 -3.3843 -2.86321 0
M  V30 4425 H 428.142 -0.597882 -0.304594 0
M  V30 4426 H 430.686 -2.02105 -0.312035 0
M  V30 4427 H 428.841 -2.81019 -2.66659 0
M  V30 4428 H 429.255 -4.88781 -1.90246 0
M  V30 4429 H 430.729 -4.27066 -3.49741 0
M  V30 4430 H 431.206 -2.57549 -3.5576 0
M  V30 4431 H 431.812 -3.61197 -2.24536 0
M  V30 4432 N 430.127 0.543554 -1.4793 0
M  V30 4433 C 431.373 1.30201 -1.55485 0
M  V30 4434 C 431.706 1.92925 -0.222201 0
M  V30 4435 O 430.981 1.78586 0.77053 0
M  V30 4436 C 431.264 2.40174 -2.68307 0
M  V30 4437 C 431.117 1.8223 -4.11233 0
M  V30 4438 C 432.436 3.42024 -2.76961 0
M  V30 4439 H 429.555 0.472036 -0.565996 0
M  V30 4440 H 432.197 0.606914 -1.80046 0
M  V30 4441 H 430.347 2.99463 -2.47495 0
M  V30 4442 H 432.019 1.27096 -4.43446 0
M  V30 4443 H 430.262 1.12832 -4.18869 0
M  V30 4444 H 430.933 2.61793 -4.85972 0
M  V30 4445 H 433.409 2.92672 -2.95774 0
M  V30 4446 H 432.285 4.16383 -3.57654 0
M  V30 4447 H 432.546 4.0173 -1.84568 0
M  V30 4448 N 431.605 1.3629 0.791371 0
M  V30 4449 C 432.555 1.26988 1.89362 0
M  V30 4450 C 433.539 0.161795 1.60084 0
M  V30 4451 O 434.731 0.394426 1.72549 0
M  V30 4452 C 431.86 1.05944 3.26544 0
M  V30 4453 C 430.946 2.21211 3.61838 0
M  V30 4454 N 431.337 3.46518 3.68455 0
M  V30 4455 C 429.635 2.12933 3.91887 0
M  V30 4456 C 430.336 4.2241 3.99931 0
M  V30 4457 N 429.312 3.51329 4.14812 0
M  V30 4458 H 433.114 2.21908 1.92702 0
M  V30 4459 H 430.628 1.28982 0.986787 0
M  V30 4460 H 432.625 0.973666 4.05371 0
M  V30 4461 H 431.285 0.119223 3.24481 0
M  V30 4462 H 432.296 3.80677 3.51148 0
M  V30 4463 H 428.973 1.26855 3.97761 0
M  V30 4464 H 430.363 5.30767 4.1199 0
M  V30 4465 N 433.083 -1.0153 1.20538 0
M  V30 4466 C 434.015 -2.10224 0.913155 0
M  V30 4467 C 435.028 -1.62495 -0.0995998 0
M  V30 4468 O 436.217 -1.78014 0.131582 0
M  V30 4469 C 433.317 -3.37111 0.347717 0
M  V30 4470 C 432.49 -4.13971 1.41233 0
M  V30 4471 C 431.549 -5.19158 0.857976 0
M  V30 4472 O 430.575 -5.48 1.53897 0
M  V30 4473 N 431.777 -5.7955 -0.331966 0
M  V30 4474 H 434.542 -2.35879 1.84881 0
M  V30 4475 H 432.103 -1.17931 1.10923 0
M  V30 4476 H 434.095 -4.04683 -0.0373026 0
M  V30 4477 H 432.665 -3.08696 -0.492527 0
M  V30 4478 H 431.885 -3.41351 1.97163 0
M  V30 4479 H 433.173 -4.62103 2.12928 0
M  V30 4480 H 432.571 -5.58455 -0.902478 0
M  V30 4481 H 431.128 -6.48464 -0.65861 0
M  V30 4482 N 434.561 -1.01147 -1.20859 0
M  V30 4483 C 435.511 -0.548247 -2.2131 0
M  V30 4484 C 436.495 0.393646 -1.5601 0
M  V30 4485 O 437.687 0.217445 -1.75659 0
M  V30 4486 C 434.816 0.117252 -3.431 0
M  V30 4487 C 433.902 -0.846043 -4.15575 0
M  V30 4488 N 434.293 -2.00149 -4.64515 0
M  V30 4489 C 432.591 -0.665783 -4.41003 0
M  V30 4490 C 433.292 -2.60764 -5.19978 0
M  V30 4491 N 432.268 -1.88868 -5.09735 0
M  V30 4492 H 436.07 -1.42921 -2.56809 0
M  V30 4493 H 433.584 -0.876142 -1.36739 0
M  V30 4494 H 435.581 0.46662 -4.1428 0
M  V30 4495 H 434.241 0.994115 -3.09107 0
M  V30 4496 H 435.252 -2.38162 -4.5989 0
M  V30 4497 H 431.929 0.163456 -4.1718 0
M  V30 4498 H 433.319 -3.58519 -5.68255 0
M  V30 4499 N 436.039 1.36541 -0.78704 0
M  V30 4500 C 436.969 2.32659 -0.197992 0
M  V30 4501 C 437.95 1.56533 0.665697 0
M  V30 4502 O 439.135 1.84698 0.60001 0
M  V30 4503 C 436.265 3.40778 0.669901 0
M  V30 4504 C 435.219 4.27897 -0.0937039 0
M  V30 4505 C 434.545 5.27163 0.894629 0
M  V30 4506 C 435.845 5.06334 -1.28154 0
M  V30 4507 H 437.539 2.82171 -1.00099 0
M  V30 4508 H 435.085 1.35665 -0.482793 0
M  V30 4509 H 437.038 4.07008 1.09191 0
M  V30 4510 H 435.762 2.89827 1.50558 0
M  V30 4511 H 434.421 3.6322 -0.49666 0
M  V30 4512 H 434.069 4.72486 1.72527 0
M  V30 4513 H 433.769 5.86317 0.388149 0
M  V30 4514 H 435.293 5.96266 1.31525 0
M  V30 4515 H 436.707 5.65617 -0.93541 0
M  V30 4516 H 435.104 5.74888 -1.72115 0
M  V30 4517 H 436.174 4.38114 -2.07807 0
M  V30 4518 N 437.518 0.538854 1.48102 0
M  V30 4519 C 438.929 0.100679 1.86428 0
M  V30 4520 C 439.28 -1.32447 1.44749 0
M  V30 4521 O 438.405 -1.99339 0.842199 0
M  V30 4522 C 439 0.175933 3.38343 0
M  V30 4523 C 437.559 -0.207098 3.7583 0
M  V30 4524 C 436.706 0.531741 2.72154 0
M  V30 4525 H 439.657 0.749614 1.3988 0
M  V30 4526 H 439.678 -0.610144 3.75576 0
M  V30 4527 H 439.19 1.21328 3.68648 0
M  V30 4528 H 437.291 -1.24626 3.5114 0
M  V30 4529 H 437.404 0.138687 4.78899 0
M  V30 4530 H 435.768 -0.0230462 2.5469 0
M  V30 4531 H 436.551 1.56989 3.05302 0
M  V30 4532 N 438.996 -1.55193 0.274407 0
M  V30 4533 C 440.244 -1.99187 -0.341902 0
M  V30 4534 C 440.565 -1.16422 -1.56431 0
M  V30 4535 O 439.835 -0.253573 -1.94252 0
M  V30 4536 H 438.415 -0.735721 -0.129317 0
M  V30 4537 H 441.077 -1.91168 0.379578 0
M  V30 4538 H 440.173 -3.05629 -0.632253 0
M  V30 4539 N 440.474 -0.00167713 -1.576 0
M  V30 4540 C 441.384 1.00548 -2.1196 0
M  V30 4541 C 442.4 1.3758 -1.06526 0
M  V30 4542 O 443.576 1.46278 -1.38436 0
M  V30 4543 C 440.641 2.27809 -2.6135 0
M  V30 4544 C 439.702 1.97074 -3.81393 0
M  V30 4545 C 438.935 3.18267 -4.28417 0
M  V30 4546 O 439.158 4.30009 -3.74765 0
M  V30 4547 O 438.092 3.02167 -5.20556 0
M  V30 4548 H 441.918 0.573373 -2.98238 0
M  V30 4549 H 439.503 0.217255 -1.47812 0
M  V30 4550 H 441.385 3.02568 -2.93309 0
M  V30 4551 H 440.06 2.70254 -1.78169 0
M  V30 4552 H 438.967 1.19785 -3.54404 0
M  V30 4553 H 440.3 1.59464 -4.65652 0
M  V30 4554 N 441.952 1.55251 0.271103 0
M  V30 4555 C 442.899 1.88261 1.33516 0
M  V30 4556 C 443.869 0.734296 1.48988 0
M  V30 4557 O 445.054 0.985741 1.63364 0
M  V30 4558 C 442.194 2.16168 2.69008 0
M  V30 4559 C 441.307 3.43678 2.61743 0
M  V30 4560 C 440.442 3.61276 3.89427 0
M  V30 4561 C 439.481 4.82472 3.7668 0
M  V30 4562 N 438.618 4.96717 4.96202 0
M  V30 4563 H 443.458 2.79015 1.04665 0
M  V30 4564 H 440.995 1.38137 0.505618 0
M  V30 4565 H 442.953 2.30349 3.47844 0
M  V30 4566 H 441.583 1.28646 2.96057 0
M  V30 4567 H 440.635 3.37959 1.74607 0
M  V30 4568 H 441.947 4.3265 2.48224 0
M  V30 4569 H 441.101 3.75284 4.76704 0
M  V30 4570 H 439.84 2.70492 4.05814 0
M  V30 4571 H 438.845 4.68465 2.87786 0
M  V30 4572 H 440.07 5.74692 3.61809 0
M  V30 4573 H 438.016 4.08865 5.12997 0
M  V30 4574 H 437.933 5.79738 4.85222 0
M  V30 4575 H 439.201 5.15113 5.85046 0
M  V30 4576 N 443.43 -0.535701 1.48216 0
M  V30 4577 C 444.676 -1.29375 1.56173 0
M  V30 4578 C 445.009 -1.92804 0.232429 0
M  V30 4579 O 444.284 -1.78992 -0.761048 0
M  V30 4580 C 444.567 -2.38747 2.69577 0
M  V30 4581 C 444.42 -1.80046 4.12193 0
M  V30 4582 C 445.739 -3.40551 2.78771 0
M  V30 4583 H 442.858 -0.469027 0.568491 0
M  V30 4584 H 445.5 -0.597358 1.80365 0
M  V30 4585 H 443.65 -2.98147 2.4908 0
M  V30 4586 H 445.322 -1.24742 4.44114 0
M  V30 4587 H 443.565 -1.10609 4.19462 0
M  V30 4588 H 444.236 -2.59212 4.87353 0
M  V30 4589 H 446.712 -2.91099 2.97322 0
M  V30 4590 H 445.588 -4.1448 3.59857 0
M  V30 4591 H 445.849 -4.00746 1.86696 0
M  V30 4592 N 444.908 -1.36708 -0.784132 0
M  V30 4593 C 445.856 -1.31533 -1.91838 0
M  V30 4594 C 446.85 -0.206205 -1.6814 0
M  V30 4595 O 448.056 -0.373519 -1.76082 0
M  V30 4596 H 444.431 -0.409613 -0.630651 0
M  V30 4597 H 446.402 -2.2731 -1.9332 0
M  V30 4598 C 445.151 -1.12679 -3.28936 0
M  V30 4599 H 444.474 -1.97274 -3.4774 0
M  V30 4600 H 445.914 -1.13106 -4.08636 0
M  V30 4601 C 444.373 0.168281 -3.36479 0
M  V30 4602 O 444.903 1.15625 -3.84699 0
M  V30 4603 N 443.109 0.214762 -2.89805 0
M  V30 4604 H 442.656 -0.589852 -2.50756 0
M  V30 4605 H 442.614 1.08094 -2.95234 0
M  V30 4606 N 446.386 1.0089 -1.21074 0
M  V30 4607 C 447.635 1.74019 -1.01981 0
M  V30 4608 C 447.948 1.90408 0.447665 0
M  V30 4609 O 449.154 2.60707 0.757906 0
M  V30 4610 C 447.61 3.13026 -1.77603 0
M  V30 4611 C 447.218 3.04623 -3.28495 0
M  V30 4612 C 448.962 3.90312 -1.66904 0
M  V30 4613 C 446.869 4.38685 -3.96623 0
M  V30 4614 H 445.799 0.652422 -0.377971 0
M  V30 4615 H 448.45 1.12755 -1.44771 0
M  V30 4616 H 446.832 3.74878 -1.27604 0
M  V30 4617 H 448.006 2.52032 -3.85767 0
M  V30 4618 H 446.321 2.40827 -3.39693 0
M  V30 4619 H 448.918 4.8951 -2.15138 0
M  V30 4620 H 449.261 4.11558 -0.62658 0
M  V30 4621 H 449.794 3.35104 -2.14359 0
M  V30 4622 H 446.533 4.22641 -5.01054 0
M  V30 4623 H 446.053 4.91252 -3.4414 0
M  V30 4624 H 447.732 5.075 -4.01314 0
M  V30 4625 N 447.864 1.01787 1.20321 0
M  V30 4626 C 449.094 0.72614 1.93419 0
M  V30 4627 C 449.502 -0.717317 1.75075 0
M  V30 4628 O 448.845 -1.49836 1.06278 0
M  V30 4629 C 448.907 0.983621 3.45782 0
M  V30 4630 C 448.571 2.41645 3.87888 0
M  V30 4631 C 449.568 3.39732 3.93545 0
M  V30 4632 C 447.253 2.75752 4.19841 0
M  V30 4633 C 449.247 4.69988 4.30569 0
M  V30 4634 C 446.934 4.06221 4.56539 0
M  V30 4635 C 447.932 5.0315 4.61876 0
M  V30 4636 O 447.62 6.31284 4.97731 0
M  V30 4637 H 447.352 0.265824 0.621541 0
M  V30 4638 H 449.906 1.3623 1.53722 0
M  V30 4639 H 448.136 0.290301 3.85609 0
M  V30 4640 H 449.825 0.683279 4.00108 0
M  V30 4641 H 450.591 3.14718 3.69022 0
M  V30 4642 H 446.47 2.00993 4.14877 0
M  V30 4643 H 450.014 5.45642 4.3465 0
M  V30 4644 H 445.911 4.31013 4.80518 0
M  V30 4645 H 446.679 6.35591 5.15719 0
M  V30 4646 N 449.342 -1.36122 0.79427 0
M  V30 4647 C 450.59 -1.98718 0.368177 0
M  V30 4648 C 450.911 -1.63345 -1.06506 0
M  V30 4649 O 450.181 -0.909825 -1.73491 0
M  V30 4650 H 448.761 -0.735038 0.133146 0
M  V30 4651 H 451.423 -1.66239 1.01739 0
M  V30 4652 H 450.519 -3.08633 0.463923 0
M  V30 4653 N 450.82 -0.546701 -1.47814 0
M  V30 4654 C 452.048 -0.0232857 -2.06887 0
M  V30 4655 C 452.463 1.26571 -1.4009 0
M  V30 4656 O 451.82 1.7569 -0.493906 0
M  V30 4657 C 451.871 0.186975 -3.61016 0
M  V30 4658 O 451.592 -1.05097 -4.25307 0
M  V30 4659 C 453.093 0.748872 -4.36929 0
M  V30 4660 H 450.313 -0.0410763 -0.669742 0
M  V30 4661 H 452.857 -0.757117 -1.89968 0
M  V30 4662 H 451.012 0.870903 -3.77484 0
M  V30 4663 H 451.426 -0.842121 -5.17695 0
M  V30 4664 H 452.9 0.845334 -5.45489 0
M  V30 4665 H 453.377 1.75772 -4.02493 0
M  V30 4666 H 453.983 0.100979 -4.2518 0
M  V30 4667 N 452.299 1.55045 -0.282633 0
M  V30 4668 C 453.527 2.04168 0.33512 0
M  V30 4669 C 453.942 1.16071 1.48906 0
M  V30 4670 O 453.299 0.182391 1.81586 0
M  V30 4671 C 453.35 3.52332 0.808957 0
M  V30 4672 O 453.071 4.37078 -0.299038 0
M  V30 4673 C 454.572 4.17375 1.49375 0
M  V30 4674 H 451.792 0.666744 0.0754543 0
M  V30 4675 H 454.336 2.00205 -0.416918 0
M  V30 4676 H 452.491 3.56715 1.51106 0
M  V30 4677 H 452.905 5.24458 0.0665514 0
M  V30 4678 H 454.379 5.22627 1.77664 0
M  V30 4679 H 454.856 3.65999 2.42778 0
M  V30 4680 H 455.462 4.17016 0.835305 0
M  V30 4681 N 453.777 0.010035 1.57597 0
M  V30 4682 C 454.687 -0.994226 2.12491 0
M  V30 4683 C 455.703 -1.37013 1.07254 0
M  V30 4684 O 456.879 -1.45542 1.3921 0
M  V30 4685 C 453.944 -2.2642 2.62555 0
M  V30 4686 C 453.005 -1.95049 3.82432 0
M  V30 4687 C 452.238 -3.15991 4.30099 0
M  V30 4688 O 452.461 -4.28015 3.7704 0
M  V30 4689 O 451.395 -2.99403 5.22151 0
M  V30 4690 H 455.221 -0.557549 2.98538 0
M  V30 4691 H 452.806 -0.209413 1.47925 0
M  V30 4692 H 454.688 -3.01009 2.9491 0
M  V30 4693 H 453.363 -2.69306 1.796 0
M  V30 4694 H 452.27 -1.17904 3.55034 0
M  V30 4695 H 453.603 -1.56992 4.66491 0
M  V30 4696 N 455.255 -1.55392 -0.262866 0
M  V30 4697 C 456.218 -1.88181 -1.30846 0
M  V30 4698 C 457.218 -0.757079 -1.41862 0
M  V30 4699 O 458.408 -1.02519 -1.40838 0
M  V30 4700 C 455.54 -2.09609 -2.68844 0
M  V30 4701 H 456.733 -2.81659 -1.02997 0
M  V30 4702 H 454.286 -1.48039 -0.501414 0
M  V30 4703 H 455.021 -1.18547 -3.01856 0
M  V30 4704 H 454.806 -2.91508 -2.62231 0
M  V30 4705 H 456.296 -2.36215 -3.44372 0
M  V30 4706 N 456.733 0.527833 -1.48498 0
M  V30 4707 C 457.666 1.64892 -1.57753 0
M  V30 4708 C 458.644 1.5687 -0.427867 0
M  V30 4709 O 459.828 1.77311 -0.639764 0
M  V30 4710 C 456.955 3.03301 -1.50752 0
M  V30 4711 C 456.001 3.29675 -2.70586 0
M  V30 4712 S 456.834 3.15712 -4.32535 0
M  V30 4713 C 457.99 4.56564 -4.28136 0
M  V30 4714 H 458.223 1.56792 -2.52594 0
M  V30 4715 H 455.756 0.710959 -1.37057 0
M  V30 4716 H 457.714 3.83123 -1.474 0
M  V30 4717 H 456.375 3.08839 -0.572454 0
M  V30 4718 H 455.568 4.3065 -2.61833 0
M  V30 4719 H 455.17 2.57526 -2.71212 0
M  V30 4720 H 457.462 5.48126 -3.98201 0
M  V30 4721 H 458.405 4.70371 -5.29298 0
M  V30 4722 H 458.813 4.35987 -3.58574 0
M  V30 4723 N 458.211 1.37122 0.776871 0
M  V30 4724 C 459.159 1.32549 1.91138 0
M  V30 4725 C 460.153 0.215119 1.68029 0
M  V30 4726 O 461.359 0.382852 1.75881 0
M  V30 4727 H 457.734 0.412952 0.62847 0
M  V30 4728 H 459.705 2.28332 1.92112 0
M  V30 4729 C 458.454 1.14422 3.28333 0
M  V30 4730 H 457.777 1.99115 3.46689 0
M  V30 4731 H 459.217 1.15272 4.0803 0
M  V30 4732 C 457.676 -0.150434 3.36564 0
M  V30 4733 O 458.206 -1.13584 3.85307 0
M  V30 4734 N 456.412 -0.19939 2.89915 0
M  V30 4735 H 455.959 0.603142 2.5044 0
M  V30 4736 H 455.917 -1.06526 2.95803 0
M  V30 4737 N 459.689 -1.00246 1.21608 0
M  V30 4738 C 460.914 -1.78167 1.06167 0
M  V30 4739 C 461.339 -1.84138 -0.384035 0
M  V30 4740 O 460.697 -1.28683 -1.27712 0
M  V30 4741 C 460.745 -3.19786 1.66642 0
M  V30 4742 O 459.849 -4.02153 0.913613 0
M  V30 4743 H 459.19 -0.549 0.37349 0
M  V30 4744 H 461.72 -1.25994 1.61204 0
M  V30 4745 H 461.73 -3.70451 1.70969 0
M  V30 4746 H 460.405 -3.14754 2.7185 0
M  V30 4747 H 458.982 -3.60711 0.945635 0
M  V30 4748 N 461.167 -1.02423 -1.1978 0
M  V30 4749 C 462.097 -0.62157 -2.25075 0
M  V30 4750 C 463.078 0.367148 -1.6609 0
M  V30 4751 O 464.263 0.250892 -1.92573 0
M  V30 4752 C 461.393 0.0331826 -3.47284 0
M  V30 4753 C 460.347 -0.877323 -4.18912 0
M  V30 4754 C 459.673 -0.0879296 -5.34628 0
M  V30 4755 C 460.973 -2.18892 -4.74219 0
M  V30 4756 H 462.667 -1.50179 -2.59011 0
M  V30 4757 H 460.213 -0.723547 -1.24502 0
M  V30 4758 H 462.166 0.326488 -4.20133 0
M  V30 4759 H 460.89 0.948164 -3.12534 0
M  V30 4760 H 459.549 -1.15475 -3.47938 0
M  V30 4761 H 459.197 0.828941 -4.96123 0
M  V30 4762 H 458.897 -0.694359 -5.83483 0
M  V30 4763 H 460.421 0.198743 -6.10276 0
M  V30 4764 H 461.835 -1.95746 -5.38847 0
M  V30 4765 H 460.232 -2.74686 -5.33542 0
M  V30 4766 H 461.302 -2.84674 -3.92541 0
M  V30 4767 N 462.645 1.35699 -0.801477 0
M  V30 4768 C 463.875 2.02862 -0.3912 0
M  V30 4769 C 464.283 1.60552 1.00099 0
M  V30 4770 O 463.626 0.796215 1.65548 0
M  V30 4771 C 463.688 3.57386 -0.389299 0
M  V30 4772 C 463.352 4.22943 -1.73113 0
M  V30 4773 C 464.349 4.44984 -2.68859 0
M  V30 4774 C 462.034 4.60167 -2.01373 0
M  V30 4775 C 464.028 5.03345 -3.91053 0
M  V30 4776 C 461.715 5.18243 -3.23832 0
M  V30 4777 C 462.713 5.39773 -4.1849 0
M  V30 4778 O 462.401 5.96626 -5.38788 0
M  V30 4779 H 462.133 0.657341 -0.157732 0
M  V30 4780 H 464.687 1.74407 -1.08496 0
M  V30 4781 H 462.917 3.85011 0.361031 0
M  V30 4782 H 464.606 4.059 -0.0020365 0
M  V30 4783 H 465.372 4.1661 -2.48316 0
M  V30 4784 H 461.251 4.42726 -1.28508 0
M  V30 4785 H 464.795 5.20065 -4.64949 0
M  V30 4786 H 460.692 5.46044 -3.44248 0
M  V30 4787 H 461.46 6.15082 -5.40015 0
M  V30 4788 N 464.123 0.554532 1.47522 0
M  V30 4789 C 465.056 -0.242442 2.26908 0
M  V30 4790 C 466.034 -0.922722 1.33883 0
M  V30 4791 O 467.218 -0.942244 1.63261 0
M  V30 4792 C 464.345 -1.34525 3.10839 0
M  V30 4793 C 463.391 -0.773805 4.19422 0
M  V30 4794 S 464.224 0.377525 5.34168 0
M  V30 4795 C 465.38 -0.727164 6.21662 0
M  V30 4796 H 465.613 0.431218 2.94156 0
M  V30 4797 H 463.146 0.3408 1.50592 0
M  V30 4798 H 465.104 -1.97683 3.59766 0
M  V30 4799 H 463.765 -1.99073 2.42958 0
M  V30 4800 H 462.958 -1.60187 4.77866 0
M  V30 4801 H 462.56 -0.218448 3.73361 0
M  V30 4802 H 464.852 -1.61992 6.57849 0
M  V30 4803 H 465.795 -0.180135 7.07871 0
M  V30 4804 H 466.203 -1.01863 5.55233 0
M  V30 4805 N 465.601 -1.54893 0.290851 0
M  V30 4806 C 467.017 -1.59476 -0.0628432 0
M  V30 4807 C 467.217 -1.30795 -1.5328 0
M  V30 4808 O 466.273 -1.07644 -2.28406 0
M  V30 4809 C 467.586 -2.98928 0.325962 0
M  V30 4810 C 469.134 -3.11799 0.273882 0
M  V30 4811 C 469.609 -4.53544 0.637359 0
M  V30 4812 N 471.1 -4.59433 0.589507 0
M  V30 4813 C 471.835 -5.67164 0.84335 0
M  V30 4814 N 471.331 -6.82975 1.16263 0
M  V30 4815 N 473.124 -5.56786 0.771091 0
M  V30 4816 H 465.275 -1.71798 1.24896 0
M  V30 4817 H 467.538 -0.801879 0.505663 0
M  V30 4818 H 467.244 -3.24805 1.34887 0
M  V30 4819 H 467.118 -3.75793 -0.325441 0
M  V30 4820 H 469.505 -2.85677 -0.739765 0
M  V30 4821 H 469.586 -2.37112 0.959766 0
M  V30 4822 H 469.23 -4.80394 1.64877 0
M  V30 4823 H 469.16 -5.26553 -0.0704866 0
M  V30 4824 H 471.651 -3.76245 0.353252 0
M  V30 4825 H 471.964 -7.61048 1.34257 0
M  V30 4826 H 470.309 -6.84552 1.20057 0
M  V30 4827 H 473.5 -4.65187 0.521383 0
M  V30 4828 H 473.673 -6.40664 0.972295 0
M  V30 4829 N 467.08 -0.0183926 -1.57589 0
M  V30 4830 C 468.012 0.995557 -2.06449 0
M  V30 4831 C 469.025 1.29556 -0.985849 0
M  V30 4832 O 470.214 1.2621 -1.26227 0
M  V30 4833 C 467.314 2.32572 -2.46502 0
M  V30 4834 C 466.487 2.21245 -3.77319 0
M  V30 4835 C 465.546 3.37104 -4.04039 0
M  V30 4836 O 464.572 3.14468 -4.74445 0
M  V30 4837 N 465.774 4.60553 -3.53372 0
M  V30 4838 H 468.539 0.578746 -2.94059 0
M  V30 4839 H 466.1 0.168603 -1.6102 0
M  V30 4840 H 468.092 3.08887 -2.61478 0
M  V30 4841 H 466.662 2.65931 -1.64315 0
M  V30 4842 H 465.882 1.29723 -3.72244 0
M  V30 4843 H 467.17 2.10868 -4.63047 0
M  V30 4844 H 466.568 4.81839 -2.96391 0
M  V30 4845 H 465.125 5.34072 -3.73644 0
M  V30 4846 N 468.558 1.5553 0.254621 0
M  V30 4847 C 469.969 1.67518 0.824286 0
M  V30 4848 C 470.32 0.614429 1.86331 0
M  V30 4849 O 469.445 -0.240736 2.15057 0
M  V30 4850 C 470.04 3.03692 1.50189 0
M  V30 4851 C 468.599 3.17646 2.01935 0
M  V30 4852 C 467.746 2.63373 0.867746 0
M  V30 4853 H 470.697 1.58671 0.0305843 0
M  V30 4854 H 470.718 2.97706 2.36962 0
M  V30 4855 H 470.23 3.80874 0.745431 0
M  V30 4856 H 468.331 2.45273 2.80485 0
M  V30 4857 H 468.444 4.24455 2.22204 0
M  V30 4858 H 466.808 2.20999 1.26616 0
M  V30 4859 H 467.591 3.43074 0.124498 0
M  V30 4860 N 470.036 -0.519951 1.48776 0
M  V30 4861 C 470.983 -1.62352 1.64044 0
M  V30 4862 C 471.953 -1.58945 0.482251 0
M  V30 4863 O 473.138 -1.77219 0.706971 0
M  V30 4864 C 470.278 -3.00579 1.69547 0
M  V30 4865 C 469.391 -3.14145 2.96541 0
M  V30 4866 C 468.526 -4.42991 2.93142 0
M  V30 4867 C 467.565 -4.50122 4.14797 0
M  V30 4868 N 466.702 -5.7037 4.09418 0
M  V30 4869 H 471.542 -1.48643 2.58281 0
M  V30 4870 H 469.079 -0.723516 1.28077 0
M  V30 4871 H 471.037 -3.80671 1.70719 0
M  V30 4872 H 469.667 -3.13036 0.787918 0
M  V30 4873 H 468.719 -2.27239 3.05068 0
M  V30 4874 H 470.031 -3.15275 3.86527 0
M  V30 4875 H 469.185 -5.31385 2.92772 0
M  V30 4876 H 467.924 -4.44398 2.00902 0
M  V30 4877 H 466.929 -3.60133 4.15433 0
M  V30 4878 H 468.154 -4.50445 5.08208 0
M  V30 4879 H 466.1 -5.72655 3.20004 0
M  V30 4880 H 466.017 -5.73036 4.93119 0
M  V30 4881 H 467.285 -6.61023 4.13121 0
M  V30 4882 N 471.514 -1.37532 -0.769588 0
M  V30 4883 C 472.742 -1.36059 -1.55871 0
M  V30 4884 C 473.157 0.053544 -1.88724 0
M  V30 4885 O 472.514 1.01591 -1.5161 0
M  V30 4886 C 472.565 -2.20107 -2.86767 0
M  V30 4887 O 472.286 -3.56009 -2.55321 0
M  V30 4888 C 473.787 -2.26636 -3.80987 0
M  V30 4889 H 471.007 -0.465967 -0.482821 0
M  V30 4890 H 473.551 -1.80901 -0.953686 0
M  V30 4891 H 471.706 -1.78768 -3.43687 0
M  V30 4892 H 472.12 -4.0009 -3.39158 0
M  V30 4893 H 473.594 -2.89763 -4.69831 0
M  V30 4894 H 474.071 -1.2754 -4.20274 0
M  V30 4895 H 474.677 -2.68296 -3.29996 0
M  V30 4896 N 472.992 0.995999 -1.22138 0
M  V30 4897 C 474.24 1.73167 -1.042 0
M  V30 4898 C 474.561 1.90329 0.42423 0
M  V30 4899 O 473.831 1.4607 1.30539 0
M  V30 4900 H 472.411 0.641593 -0.38258 0
M  V30 4901 H 475.073 1.19974 -1.53598 0
M  V30 4902 H 474.169 2.72734 -1.51731 0
M  V30 4903 N 474.47 1.03057 1.19235 0
M  V30 4904 C 475.698 0.747697 1.92917 0
M  V30 4905 C 476.113 -0.69372 1.75593 0
M  V30 4906 O 475.47 -1.47191 1.07894 0
M  V30 4907 C 475.521 1.09159 3.44625 0
M  V30 4908 O 475.242 2.47641 3.61394 0
M  V30 4909 C 476.743 0.831763 4.35427 0
M  V30 4910 H 473.963 0.273453 0.612751 0
M  V30 4911 H 476.507 1.37552 1.51327 0
M  V30 4912 H 474.662 0.508919 3.84043 0
M  V30 4913 H 475.076 2.60499 4.55237 0
M  V30 4914 H 476.55 1.12233 5.4047 0
M  V30 4915 H 477.027 -0.233769 4.38577 0
M  V30 4916 H 477.633 1.39725 4.01693 0
M  V30 4917 N 475.948 -1.35272 0.808662 0
M  V30 4918 C 476.858 -2.33546 0.222079 0
M  V30 4919 C 477.874 -1.6196 -0.636011 0
M  V30 4920 O 479.05 -1.93822 -0.547274 0
M  V30 4921 C 476.115 -3.41148 -0.61795 0
M  V30 4922 C 475.176 -4.28507 0.260875 0
M  V30 4923 C 474.409 -5.3097 -0.539156 0
M  V30 4924 O 474.632 -5.42123 -1.77367 0
M  V30 4925 O 473.566 -6.01858 0.0710526 0
M  V30 4926 H 477.392 -2.85515 1.03512 0
M  V30 4927 H 474.977 -1.38079 0.570495 0
M  V30 4928 H 476.859 -4.06889 -1.09634 0
M  V30 4929 H 475.534 -2.91447 -1.40855 0
M  V30 4930 H 474.441 -3.6574 0.786451 0
M  V30 4931 H 475.774 -4.81611 1.01547 0
M  V30 4932 N 477.426 -0.562348 -1.47226 0
M  V30 4933 C 478.359 0.230405 -2.27034 0
M  V30 4934 C 479.337 0.915609 -1.3437 0
M  V30 4935 O 480.521 0.933573 -1.63758 0
M  V30 4936 C 477.648 1.32874 -3.11548 0
M  V30 4937 C 476.694 0.751552 -4.19826 0
M  V30 4938 S 477.527 -0.405848 -5.3396 0
M  V30 4939 C 478.683 0.694186 -6.22038 0
M  V30 4940 H 478.916 -0.446811 -2.93923 0
M  V30 4941 H 476.449 -0.348781 -1.50409 0
M  V30 4942 H 478.407 1.95773 -3.60809 0
M  V30 4943 H 477.068 1.97782 -2.44011 0
M  V30 4944 H 476.261 1.57651 -4.78709 0
M  V30 4945 H 475.863 0.198645 -3.73472 0
M  V30 4946 H 478.155 1.58501 -6.58698 0
M  V30 4947 H 479.098 0.142592 -7.07956 0
M  V30 4948 H 479.506 0.989169 -5.55766 0
M  V30 4949 N 478.904 1.54736 -0.299062 0
M  V30 4950 C 479.867 2.22127 0.565012 0
M  V30 4951 C 480.867 1.20669 1.06281 0
M  V30 4952 O 482.057 1.45417 0.959145 0
M  V30 4953 C 479.189 2.90611 1.78208 0
M  V30 4954 H 480.382 2.99891 -0.0237448 0
M  V30 4955 H 477.935 1.5622 -0.0498788 0
M  V30 4956 H 478.67 2.16921 2.41072 0
M  V30 4957 H 478.455 3.64984 1.43281 0
M  V30 4958 H 479.945 3.42026 2.396 0
M  V30 4959 N 480.382 0.0267497 1.57577 0
M  V30 4960 C 481.793 -0.512413 1.79531 0
M  V30 4961 C 482.144 -1.72391 0.936791 0
M  V30 4962 O 481.269 -2.15903 0.146543 0
M  V30 4963 C 481.864 -0.936378 3.25603 0
M  V30 4964 C 480.423 -1.42067 3.4856 0
M  V30 4965 C 479.57 -0.384278 2.74624 0
M  V30 4966 H 482.521 0.252797 1.56674 0
M  V30 4967 H 482.542 -1.80088 3.35184 0
M  V30 4968 H 482.054 -0.0544332 3.88062 0
M  V30 4969 H 480.155 -2.32262 2.9135 0
M  V30 4970 H 480.268 -1.42968 4.57271 0
M  V30 4971 H 478.632 -0.851855 2.40032 0
M  V30 4972 H 479.415 0.489159 3.39797 0
M  V30 4973 N 481.861 -1.55662 -0.24637 0
M  V30 4974 C 483.109 -1.77168 -0.972411 0
M  V30 4975 C 483.43 -0.590827 -1.85834 0
M  V30 4976 O 482.7 0.393365 -1.9191 0
M  V30 4977 H 481.28 -0.653405 -0.362038 0
M  V30 4978 H 483.942 -1.93101 -0.264189 0
M  V30 4979 H 483.038 -2.68335 -1.59382 0
M  V30 4980 N 483.339 0.512053 -1.4905 0
M  V30 4981 C 484.586 1.26686 -1.57978 0
M  V30 4982 C 484.914 1.92733 -0.261553 0
M  V30 4983 O 484.169 1.80772 0.749667 0
M  V30 4984 C 484.468 2.36446 -2.68008 0
M  V30 4985 C 484.134 1.87932 -4.09869 0
M  V30 4986 C 482.796 1.74419 -4.48477 0
M  V30 4987 C 485.148 1.5149 -4.98698 0
M  V30 4988 C 482.476 1.22827 -5.73699 0
M  V30 4989 C 484.828 1.01355 -6.24428 0
M  V30 4990 C 483.492 0.864735 -6.61875 0
M  V30 4991 H 482.762 0.463577 -0.578081 0
M  V30 4992 H 485.409 0.569421 -1.82838 0
M  V30 4993 H 483.714 3.11933 -2.37076 0
M  V30 4994 H 485.411 2.9453 -2.72127 0
M  V30 4995 H 482.001 1.99405 -3.79389 0
M  V30 4996 H 486.185 1.60782 -4.69535 0
M  V30 4997 H 481.441 1.10008 -6.01422 0
M  V30 4998 H 485.615 0.722351 -6.92644 0
M  V30 4999 H 483.242 0.462777 -7.5879 0
M  V30 5000 N 484.817 1.37938 0.762283 0
M  V30 5001 C 486.064 1.33668 1.52115 0
M  V30 5002 C 486.392 -0.0759538 1.94352 0
M  V30 5003 O 485.647 -1.05121 1.6507 0
M  V30 5004 C 485.946 2.23042 2.79261 0
M  V30 5005 C 485.612 3.71159 2.56031 0
M  V30 5006 C 484.274 4.11523 2.49404 0
M  V30 5007 C 486.626 4.64955 2.35513 0
M  V30 5008 C 483.954 5.43784 2.20263 0
M  V30 5009 C 486.306 5.97464 2.07894 0
M  V30 5010 C 484.97 6.36922 1.99718 0
M  V30 5011 H 484.24 0.489127 0.556629 0
M  V30 5012 H 486.887 1.70224 0.877262 0
M  V30 5013 H 485.192 1.79512 3.48256 0
M  V30 5014 H 486.889 2.17047 3.37182 0
M  V30 5015 H 483.479 3.39153 2.62056 0
M  V30 5016 H 487.663 4.34623 2.39617 0
M  V30 5017 H 482.919 5.73307 2.12435 0
M  V30 5018 H 487.093 6.6969 1.91019 0
M  V30 5019 H 484.72 7.39331 1.76902 0
M  V30 5020 N 486.295 -0.989507 1.22664 0
M  V30 5021 C 487.52 -1.77031 1.08051 0
M  V30 5022 C 487.945 -1.84535 -0.364483 0
M  V30 5023 O 487.303 -1.3003 -1.2634 0
M  V30 5024 C 487.351 -3.18 1.70024 0
M  V30 5025 O 486.455 -4.01161 0.956216 0
M  V30 5026 H 485.796 -0.545008 0.379292 0
M  V30 5027 H 488.326 -1.24277 1.62531 0
M  V30 5028 H 488.336 -3.68616 1.74888 0
M  V30 5029 H 487.011 -3.11853 2.75174 0
M  V30 5030 H 485.588 -3.59687 0.98384 0
M  V30 5031 N 487.773 -1.03688 -1.18687 0
M  V30 5032 C 488.683 -0.634908 -2.25845 0
M  V30 5033 C 489.699 0.337065 -1.70704 0
M  V30 5034 O 490.875 0.192943 -2.00474 0
M  V30 5035 C 487.94 -0.000180054 -3.467 0
M  V30 5036 C 487.001 -1.02067 -4.1699 0
M  V30 5037 C 486.234 -0.41614 -5.32075 0
M  V30 5038 O 486.457 0.778712 -5.65059 0
M  V30 5039 O 485.391 -1.14296 -5.90948 0
M  V30 5040 H 489.217 -1.52757 -2.62486 0
M  V30 5041 H 486.802 -0.807533 -1.25695 0
M  V30 5042 H 488.684 0.353342 -4.19916 0
M  V30 5043 H 487.359 0.866367 -3.11891 0
M  V30 5044 H 486.266 -1.42592 -3.45859 0
M  V30 5045 H 487.599 -1.85786 -4.5579 0
M  V30 5046 N 489.251 1.34841 -0.815825 0
M  V30 5047 C 490.497 1.98793 -0.401129 0
M  V30 5048 C 490.83 1.64548 1.03139 0
M  V30 5049 O 490.105 0.913487 1.71714 0
M  V30 5050 C 490.388 3.55143 -0.595409 0
M  V30 5051 C 490.241 3.99155 -2.07352 0
M  V30 5052 C 491.56 4.40092 -0.0268823 0
M  V30 5053 H 488.679 0.722146 -0.14722 0
M  V30 5054 H 491.321 1.59847 -1.02707 0
M  V30 5055 H 489.471 3.8845 -0.0625779 0
M  V30 5056 H 491.143 3.76216 -2.66945 0
M  V30 5057 H 489.386 3.49726 -2.56659 0
M  V30 5058 H 490.057 5.07971 -2.1603 0
M  V30 5059 H 492.533 4.13298 -0.482042 0
M  V30 5060 H 491.409 5.48562 -0.19267 0
M  V30 5061 H 491.67 4.29016 1.06759 0
M  V30 5062 N 490.729 0.570148 1.46925 0
M  V30 5063 C 492.145 0.23087 1.57921 0
M  V30 5064 C 492.345 -1.26676 1.56702 0
M  V30 5065 O 491.401 -2.04774 1.47729 0
M  V30 5066 C 492.714 0.868973 2.8787 0
M  V30 5067 C 494.262 0.841397 3.01479 0
M  V30 5068 C 494.737 1.45881 4.34146 0
M  V30 5069 N 496.228 1.42258 4.40814 0
M  V30 5070 C 496.963 1.8698 5.42057 0
M  V30 5071 N 496.459 2.39618 6.50042 0
M  V30 5072 N 498.252 1.77972 5.33181 0
M  V30 5073 H 490.403 1.54301 1.45962 0
M  V30 5074 H 492.666 0.644224 0.69547 0
M  V30 5075 H 492.372 1.922 2.94537 0
M  V30 5076 H 492.246 0.369682 3.75384 0
M  V30 5077 H 494.633 -0.202973 2.94401 0
M  V30 5078 H 494.714 1.37858 2.15474 0
M  V30 5079 H 494.358 2.50231 4.4198 0
M  V30 5080 H 494.288 0.896958 5.18905 0
M  V30 5081 H 496.779 1.03768 3.63374 0
M  V30 5082 H 497.092 2.71633 7.23488 0
M  V30 5083 H 495.437 2.43636 6.50897 0
M  V30 5084 H 498.628 1.36617 4.4772 0
M  V30 5085 H 498.801 2.13143 6.11943 0
M  V30 5086 N 492.207 -1.54576 0.307264 0
M  V30 5087 C 493.456 -1.99442 -0.300976 0
M  V30 5088 C 493.769 -1.19928 -1.5452 0
M  V30 5089 O 494.975 -1.55092 -2.22842 0
M  V30 5090 C 493.431 -3.55084 -0.586809 0
M  V30 5091 C 493.039 -4.43413 0.639438 0
M  V30 5092 C 494.783 -4.0846 -1.1559 0
M  V30 5093 C 492.69 -5.90499 0.326411 0
M  V30 5094 H 491.62 -0.744986 -0.116238 0
M  V30 5095 H 494.271 -1.787 0.416947 0
M  V30 5096 H 492.653 -3.71749 -1.36449 0
M  V30 5097 H 493.827 -4.38522 1.41545 0
M  V30 5098 H 492.142 -4.00842 1.1276 0
M  V30 5099 H 494.739 -5.15926 -1.40445 0
M  V30 5100 H 495.082 -3.59443 -2.10015 0
M  V30 5101 H 495.615 -3.95362 -0.439778 0
M  V30 5102 H 492.354 -6.43676 1.23939 0
M  V30 5103 H 491.874 -5.98382 -0.412212 0
M  V30 5104 H 493.553 -6.46962 -0.0697393 0
M  V30 5105 N 493.685 -0.035106 -1.57561 0
M  V30 5106 C 494.931 0.64318 -1.92331 0
M  V30 5107 C 495.264 1.71434 -0.912368 0
M  V30 5108 O 494.539 1.94395 0.0640303 0
M  V30 5109 C 494.822 1.25411 -3.37556 0
M  V30 5110 C 494.675 0.192109 -4.4939 0
M  V30 5111 C 495.994 2.17041 -3.82859 0
M  V30 5112 H 493.113 0.232341 -0.699419 0
M  V30 5113 H 495.755 -0.0935889 -1.89769 0
M  V30 5114 H 493.905 1.88205 -3.39869 0
M  V30 5115 H 495.577 -0.438849 -4.59208 0
M  V30 5116 H 493.82 -0.481725 -4.31117 0
M  V30 5117 H 494.491 0.659292 -5.48049 0
M  V30 5118 H 496.967 1.64228 -3.8232 0
M  V30 5119 H 495.843 2.56738 -4.85157 0
M  V30 5120 H 496.104 3.06401 -3.18702 0
M  V30 5121 N 495.163 1.55791 0.238111 0
M  V30 5122 C 496.579 1.48411 0.587045 0
M  V30 5123 C 496.779 0.72702 1.87927 0
M  V30 5124 O 495.835 0.259942 2.51158 0
M  V30 5125 C 497.148 2.92873 0.681623 0
M  V30 5126 C 498.696 3.03295 0.773363 0
M  V30 5127 C 499.171 4.49082 0.899428 0
M  V30 5128 N 500.662 4.53056 0.964075 0
M  V30 5129 C 501.397 5.63117 1.08104 0
M  V30 5130 N 500.893 6.82969 1.16299 0
M  V30 5131 N 502.686 5.50933 1.11488 0
M  V30 5132 H 494.837 2.0345 -0.610076 0
M  V30 5133 H 497.1 0.924034 -0.211813 0
M  V30 5134 H 496.806 3.51142 -0.19802 0
M  V30 5135 H 496.68 3.43851 1.55069 0
M  V30 5136 H 499.067 2.45101 1.64346 0
M  V30 5137 H 499.148 2.55513 -0.121034 0
M  V30 5138 H 498.792 5.07889 0.0338586 0
M  V30 5139 H 498.722 4.94553 1.809 0
M  V30 5140 H 501.213 3.66737 0.91173 0
M  V30 5141 H 501.526 7.62598 1.25155 0
M  V30 5142 H 499.871 6.85712 1.13241 0
M  V30 5143 H 503.062 4.56231 1.0474 0
M  V30 5144 H 503.235 6.36743 1.20259 0
M  V30 5145 N 496.642 -0.504142 1.49319 0
M  V30 5146 C 497.891 -1.25507 1.57895 0
M  V30 5147 C 498.204 -1.93735 0.269433 0
M  V30 5148 O 499.41 -2.70492 0.233706 0
M  V30 5149 C 497.866 -2.27869 2.78574 0
M  V30 5150 C 497.474 -1.65594 4.16272 0
M  V30 5151 C 499.218 -3.0381 2.96479 0
M  V30 5152 C 497.125 -2.66048 5.28178 0
M  V30 5153 H 496.055 -0.47212 0.587894 0
M  V30 5154 H 498.706 -0.52931 1.757 0
M  V30 5155 H 497.088 -3.03594 2.54257 0
M  V30 5156 H 498.262 -0.958826 4.50714 0
M  V30 5157 H 496.577 -1.02055 4.037 0
M  V30 5158 H 499.174 -3.78925 3.77253 0
M  V30 5159 H 499.517 -3.61235 2.06918 0
M  V30 5160 H 500.05 -2.352 3.20821 0
M  V30 5161 H 496.789 -2.13408 6.19788 0
M  V30 5162 H 496.309 -3.34009 4.98195 0
M  V30 5163 H 497.988 -3.28536 5.57381 0
M  V30 5164 N 498.12 -1.38341 -0.754957 0
M  V30 5165 C 499.368 -1.34208 -1.51105 0
M  V30 5166 C 499.689 0.0677634 -1.94882 0
M  V30 5167 O 498.959 1.01517 -1.67544 0
M  V30 5168 H 497.539 -0.493819 -0.560493 0
M  V30 5169 H 500.201 -1.73005 -0.897507 0
M  V30 5170 H 499.297 -1.99203 -2.4026 0
M  V30 5171 N 499.598 0.982988 -1.23187 0
M  V30 5172 C 500.846 1.72052 -1.06031 0
M  V30 5173 C 501.167 1.90769 0.404019 0
M  V30 5174 O 500.437 1.47446 1.28982 0
M  V30 5175 H 499.017 0.637499 -0.389363 0
M  V30 5176 H 501.679 1.18338 -1.54862 0
M  V30 5177 H 500.775 2.7111 -1.54615 0
M  V30 5178 N 501.076 1.04316 1.18135 0
M  V30 5179 C 502.324 0.746542 1.87806 0
M  V30 5180 C 502.645 -0.728082 1.80898 0
M  V30 5181 O 501.915 -1.52554 1.22899 0
M  V30 5182 H 500.495 0.273157 0.695265 0
M  V30 5183 H 503.157 1.32044 1.43354 0
M  V30 5184 H 502.253 1.05362 2.93778 0
M  V30 5185 N 502.554 -1.34406 0.822964 0
M  V30 5186 C 503.8 -1.98578 0.411666 0
M  V30 5187 C 504.133 -1.65093 -1.02264 0
M  V30 5188 O 503.408 -0.92258 -1.71227 0
M  V30 5189 C 503.691 -3.54823 0.614235 0
M  V30 5190 C 503.544 -3.9805 2.09466 0
M  V30 5191 C 504.863 -4.40071 0.050221 0
M  V30 5192 H 501.982 -0.721355 0.151047 0
M  V30 5193 H 504.624 -1.59301 1.03554 0
M  V30 5194 H 502.774 -3.88411 0.0831774 0
M  V30 5195 H 504.446 -3.74795 2.68936 0
M  V30 5196 H 502.689 -3.4836 2.5851 0
M  V30 5197 H 503.36 -5.06819 2.18721 0
M  V30 5198 H 505.836 -4.13037 0.503953 0
M  V30 5199 H 504.712 -5.48452 0.221759 0
M  V30 5200 H 504.973 -4.29576 -1.04482 0
M  V30 5201 N 504.032 -0.577932 -1.46621 0
M  V30 5202 C 505.309 0.00495287 -1.95599 0
M  V30 5203 C 505.689 1.46428 -1.5206 0
M  V30 5204 O 505.037 2.1517 -0.769046 0
M  V30 5205 C 505.247 -0.162114 -3.48623 0
M  V30 5206 C 506.595 -0.0274623 -4.24591 0
M  V30 5207 O 507.619 -0.0907067 -3.56084 0
M  V30 5208 O 506.478 0.1122 -5.46385 0
M  V30 5209 H 503.572 0.0525057 -0.825332 0
M  V30 5210 H 506.118 -0.645914 -1.56927 0
M  V30 5211 H 504.89 -1.17679 -3.73185 0
M  V30 5212 H 504.513 0.525407 -3.94113 0
M  V30 5213 N 505.51 1.54411 -0.315457 0
M  V30 5214 C 506.42 2.27737 0.56329 0
M  V30 5215 C 507.436 1.31787 1.13614 0
M  V30 5216 O 508.612 1.64791 1.15784 0
M  V30 5217 C 505.677 3.01478 1.71207 0
M  V30 5218 C 504.738 4.12997 1.17185 0
M  V30 5219 C 503.971 4.83212 2.26588 0
M  V30 5220 O 504.194 4.52884 3.46775 0
M  V30 5221 O 503.128 5.70299 1.92463 0
M  V30 5222 H 506.954 3.03683 -0.0319614 0
M  V30 5223 H 504.539 1.49178 -0.0814188 0
M  V30 5224 H 506.421 3.47683 2.38106 0
M  V30 5225 H 505.096 2.28414 2.29366 0
M  V30 5226 H 504.003 3.71159 0.468174 0
M  V30 5227 H 505.336 4.8808 0.635501 0
M  V30 5228 N 506.988 0.0434614 1.5754 0
M  V30 5229 C 508.237 -0.631454 1.91561 0
M  V30 5230 C 508.55 -1.72457 0.92292 0
M  V30 5231 O 509.756 -2.45712 1.15489 0
M  V30 5232 C 508.212 -1.17447 3.40197 0
M  V30 5233 C 507.82 -0.113867 4.47855 0
M  V30 5234 C 509.564 -1.82507 3.83264 0
M  V30 5235 C 507.471 -0.669326 5.876 0
M  V30 5236 H 506.401 -0.239629 0.714908 0
M  V30 5237 H 509.052 0.111097 1.83163 0
M  V30 5238 H 507.434 -1.96909 3.43574 0
M  V30 5239 H 508.608 0.659348 4.56058 0
M  V30 5240 H 506.923 0.438821 4.14081 0
M  V30 5241 H 509.52 -2.25047 4.85034 0
M  V30 5242 H 509.863 -2.67365 3.19095 0
M  V30 5243 H 510.396 -1.09712 3.82372 0
M  V30 5244 H 507.135 0.141449 6.55347 0
M  V30 5245 H 506.655 -1.4107 5.82974 0
M  V30 5246 H 508.334 -1.15463 6.36614 0
M  V30 5247 N 508.466 -1.55915 -0.229846 0
M  V30 5248 C 509.712 -1.78807 -0.956868 0
M  V30 5249 C 510.045 -0.611687 -1.84315 0
M  V30 5250 O 509.32 0.389398 -1.90562 0
M  V30 5251 C 509.603 -3.11718 -1.80288 0
M  V30 5252 C 509.456 -4.3979 -0.943649 0
M  V30 5253 C 510.775 -3.40999 -2.78222 0
M  V30 5254 H 507.894 -0.6505 -0.346437 0
M  V30 5255 H 510.536 -1.88648 -0.226252 0
M  V30 5256 H 508.686 -3.03459 -2.42579 0
M  V30 5257 H 510.358 -4.60059 -0.338121 0
M  V30 5258 H 508.601 -4.33086 -0.248705 0
M  V30 5259 H 509.272 -5.29208 -1.5698 0
M  V30 5260 H 511.748 -3.49332 -2.26067 0
M  V30 5261 H 510.624 -4.35183 -3.34526 0
M  V30 5262 H 510.885 -2.62754 -3.55546 0
M  V30 5263 N 509.944 0.496216 -1.49584 0
M  V30 5264 C 510.907 1.57952 -1.66084 0
M  V30 5265 C 511.907 1.51729 -0.53244 0
M  V30 5266 O 513.097 1.54796 -0.79899 0
M  V30 5267 C 510.229 2.97604 -1.66268 0
M  V30 5268 H 511.422 1.44649 -2.6271 0
M  V30 5269 H 508.975 0.7208 -1.38687 0
M  V30 5270 H 509.71 3.16378 -0.712432 0
M  V30 5271 H 509.495 3.03528 -2.4822 0
M  V30 5272 H 510.985 3.76301 -1.81073 0
M  V30 5273 N 511.423 1.38739 0.74761 0
M  V30 5274 C 512.371 1.36573 1.88283 0
M  V30 5275 C 513.365 0.250712 1.67534 0
M  V30 5276 O 514.571 0.420073 1.7503 0
M  V30 5277 H 510.946 0.42619 0.619569 0
M  V30 5278 H 512.917 2.32356 1.87226 0
M  V30 5279 C 511.666 1.21361 3.25832 0
M  V30 5280 H 510.989 2.06424 3.42388 0
M  V30 5281 H 512.429 1.23901 4.05493 0
M  V30 5282 C 510.888 -0.0790099 3.36807 0
M  V30 5283 O 511.418 -1.05385 3.8763 0
M  V30 5284 N 509.624 -0.13785 2.90273 0
M  V30 5285 H 509.171 0.656128 2.49104 0
M  V30 5286 H 509.129 -1.00228 2.97996 0
M  V30 5287 N 512.901 -0.976442 1.23707 0
M  V30 5288 C 514.149 -1.71487 1.06942 0
M  V30 5289 C 514.47 -1.9098 -0.393897 0
M  V30 5290 O 513.74 -1.48128 -1.28198 0
M  V30 5291 H 512.32 -0.635425 0.392739 0
M  V30 5292 H 514.982 -1.17515 1.55487 0
M  V30 5293 H 514.078 -2.70286 1.56051 0
M  V30 5294 N 514.379 -1.04941 -1.1758 0
M  V30 5295 C 515.289 -0.658826 -2.25159 0
M  V30 5296 C 516.305 0.318941 -1.71052 0
M  V30 5297 O 517.481 0.171669 -2.00667 0
M  V30 5298 C 514.546 -0.0369522 -3.4668 0
M  V30 5299 C 513.607 -1.06484 -4.15884 0
M  V30 5300 C 512.84 -0.472551 -5.31604 0
M  V30 5301 O 513.063 0.718736 -5.65854 0
M  V30 5302 O 511.997 -1.20557 -5.89703 0
M  V30 5303 H 515.823 -1.55533 -2.60851 0
M  V30 5304 H 513.408 -0.820819 -1.24832 0
M  V30 5305 H 515.29 0.308784 -4.20267 0
M  V30 5306 H 513.965 0.833238 -3.12792 0
M  V30 5307 H 512.872 -1.46253 -3.44327 0
M  V30 5308 H 514.205 -1.9061 -4.53794 0
M  V30 5309 N 515.857 1.33968 -0.830081 0
M  V30 5310 C 516.767 2.33164 -0.259207 0
M  V30 5311 C 517.783 1.62951 0.610164 0
M  V30 5312 O 518.959 1.94668 0.516369 0
M  V30 5313 C 516.024 3.42088 0.563598 0
M  V30 5314 C 515.085 4.28037 -0.329014 0
M  V30 5315 C 514.318 5.3176 0.454616 0
M  V30 5316 O 514.541 5.44876 1.6872 0
M  V30 5317 O 513.475 6.01669 -0.166794 0
M  V30 5318 H 517.301 2.83832 -1.08041 0
M  V30 5319 H 514.886 1.37154 -0.59239 0
M  V30 5320 H 516.768 4.08581 1.03147 0
M  V30 5321 H 515.443 2.93651 1.36201 0
M  V30 5322 H 514.35 3.64443 -0.844538 0
M  V30 5323 H 515.683 4.79934 -1.09196 0
M  V30 5324 N 517.335 0.585699 1.46312 0
M  V30 5325 C 518.583 0.072278 2.01971 0
M  V30 5326 C 518.904 -1.29345 1.45928 0
M  V30 5327 O 518.174 -1.84973 0.645109 0
M  V30 5328 H 516.754 0.023729 0.746623 0
M  V30 5329 H 519.416 0.762155 1.7938 0
M  V30 5330 H 518.512 0.00552767 3.121 0
M  V30 5331 N 518.813 -1.54241 0.323641 0
M  V30 5332 C 519.723 -2.28033 -0.551205 0
M  V30 5333 C 520.739 -1.32388 -1.12913 0
M  V30 5334 O 521.915 -1.65403 -1.14908 0
M  V30 5335 C 518.98 -3.02382 -1.69606 0
M  V30 5336 C 518.041 -4.13612 -1.14993 0
M  V30 5337 C 517.274 -4.84407 -2.24022 0
M  V30 5338 O 517.497 -4.54716 -3.44368 0
M  V30 5339 O 516.431 -5.71312 -1.89436 0
M  V30 5340 H 520.257 -3.03662 0.048066 0
M  V30 5341 H 517.842 -1.49133 0.0893289 0
M  V30 5342 H 519.724 -3.48941 -2.36259 0
M  V30 5343 H 518.399 -2.29628 -2.28151 0
M  V30 5344 H 517.306 -3.71402 -0.448484 0
M  V30 5345 H 518.639 -4.8841 -0.609608 0
M  V30 5346 N 520.291 -0.0518155 -1.57515 0
M  V30 5347 C 521.221 0.920283 -2.146 0
M  V30 5348 C 522.202 1.32406 -1.06783 0
M  V30 5349 O 523.387 1.39866 -1.34726 0
M  V30 5350 C 520.517 2.1949 -2.6915 0
M  V30 5351 C 519.471 1.93116 -3.81956 0
M  V30 5352 C 518.797 3.27037 -4.23026 0
M  V30 5353 C 520.097 1.25225 -5.07066 0
M  V30 5354 H 521.791 0.444801 -2.96077 0
M  V30 5355 H 519.337 0.212508 -1.42423 0
M  V30 5356 H 521.29 2.87894 -3.07725 0
M  V30 5357 H 520.014 2.69244 -1.84865 0
M  V30 5358 H 518.673 1.27123 -3.43854 0
M  V30 5359 H 518.321 3.74595 -3.3569 0
M  V30 5360 H 518.021 3.10189 -4.99056 0
M  V30 5361 H 519.545 3.96673 -4.64202 0
M  V30 5362 H 520.959 1.83666 -5.43083 0
M  V30 5363 H 519.356 1.18702 -5.88243 0
M  V30 5364 H 520.426 0.228382 -4.84362 0
M  V30 5365 N 521.769 1.56035 0.221574 0
M  V30 5366 C 523.018 1.78245 0.944016 0
M  V30 5367 C 523.331 0.620371 1.85501 0
M  V30 5368 O 524.537 0.726103 2.6161 0
M  V30 5369 C 522.993 3.15659 1.7288 0
M  V30 5370 C 522.601 4.39591 0.863942 0
M  V30 5371 C 524.345 3.47195 2.44246 0
M  V30 5372 C 522.252 5.6803 1.64607 0
M  V30 5373 H 521.182 0.664547 0.356222 0
M  V30 5374 H 523.833 1.8243 0.197904 0
M  V30 5375 H 522.215 3.0565 2.51781 0
M  V30 5376 H 523.389 4.60655 0.115464 0
M  V30 5377 H 521.704 4.15572 0.262407 0
M  V30 5378 H 524.301 4.40381 3.03263 0
M  V30 5379 H 524.644 2.69693 3.1713 0
M  V30 5380 H 525.177 3.58533 1.72334 0
M  V30 5381 H 521.916 6.48425 0.960507 0
M  V30 5382 H 521.436 5.51027 2.36917 0
M  V30 5383 H 523.115 6.08203 2.20675 0
M  V30 5384 N 523.247 -0.488276 1.49845 0
M  V30 5385 C 524.493 -1.24341 1.6021 0
M  V30 5386 C 524.826 -1.91967 0.293651 0
M  V30 5387 O 524.101 -1.81323 -0.703718 0
M  V30 5388 C 524.384 -2.3005 2.77036 0
M  V30 5389 C 524.237 -1.66842 4.17713 0
M  V30 5390 C 525.556 -3.31509 2.89464 0
M  V30 5391 H 522.675 -0.450704 0.583125 0
M  V30 5392 H 525.317 -0.539673 1.82174 0
M  V30 5393 H 523.467 -2.90071 2.58439 0
M  V30 5394 H 525.139 -1.1055 4.47858 0
M  V30 5395 H 523.382 -0.972079 4.22768 0
M  V30 5396 H 524.053 -2.43576 4.95353 0
M  V30 5397 H 526.529 -2.81493 3.06433 0
M  V30 5398 H 525.405 -4.02822 3.72861 0
M  V30 5399 H 525.666 -3.94603 1.99351 0
M  V30 5400 N 524.725 -1.39134 -0.740242 0
M  V30 5401 C 525.688 -1.37217 -1.83587 0
M  V30 5402 C 526.688 -0.270221 -1.58513 0
M  V30 5403 O 527.878 -0.527843 -1.6601 0
M  V30 5404 C 525.01 -1.13959 -3.21288 0
M  V30 5405 H 526.203 -2.34705 -1.86691 0
M  V30 5406 H 523.756 -1.24622 -0.94335 0
M  V30 5407 H 524.491 -0.17131 -3.23847 0
M  V30 5408 H 524.276 -1.93754 -3.40884 0
M  V30 5409 H 525.766 -1.15346 -4.01354 0
M  V30 5410 N 526.204 0.969867 -1.24223 0
M  V30 5411 C 527.167 2.04564 -1.03373 0
M  V30 5412 C 528.167 1.60798 0.00819206 0
M  V30 5413 O 529.357 1.72641 -0.232567 0
M  V30 5414 C 526.489 3.36163 -0.566343 0
M  V30 5415 H 527.682 2.24494 -1.98853 0
M  V30 5416 H 525.235 1.1448 -1.06415 0
M  V30 5417 H 525.97 3.21925 0.391751 0
M  V30 5418 H 525.755 3.69273 -1.31834 0
M  V30 5419 H 527.245 4.1526 -0.441435 0
M  V30 5420 N 527.682 1.05563 1.17022 0
M  V30 5421 C 528.907 0.788437 1.91829 0
M  V30 5422 C 529.332 -0.650356 1.76499 0
M  V30 5423 O 528.69 -1.45229 1.08527 0
M  V30 5424 C 528.738 1.1786 3.40795 0
M  V30 5425 O 527.842 0.312965 4.11211 0
M  V30 5426 H 527.183 0.288794 0.597908 0
M  V30 5427 H 529.713 1.40948 1.48307 0
M  V30 5428 H 529.723 1.14697 3.91546 0
M  V30 5429 H 528.398 2.22666 3.51273 0
M  V30 5430 H 526.975 0.405515 3.70689 0
M  V30 5431 N 529.16 -1.33526 0.837174 0
M  V30 5432 C 530.437 -1.92369 0.354065 0
M  V30 5433 C 530.817 -1.76348 -1.16038 0
M  V30 5434 O 530.165 -1.15083 -1.97403 0
M  V30 5435 C 530.375 -3.39728 0.799101 0
M  V30 5436 C 531.723 -4.16877 0.806139 0
M  V30 5437 O 532.747 -3.48373 0.742597 0
M  V30 5438 O 531.606 -5.39166 0.892345 0
M  V30 5439 H 528.7 -0.820952 0.0998378 0
M  V30 5440 H 531.246 -1.42409 0.922913 0
M  V30 5441 H 530.018 -3.45254 1.84162 0
M  V30 5442 H 529.641 -3.97062 0.206731 0
M  V30 5443 N 530.638 -0.59345 -1.46 0
M  V30 5444 C 531.863 -0.0872365 -2.07216 0
M  V30 5445 C 532.288 1.2131 -1.43755 0
M  V30 5446 O 531.646 1.73528 -0.525152 0
M  V30 5447 C 531.694 0.0538197 -3.6056 0
M  V30 5448 O 530.798 1.10765 -3.97247 0
M  V30 5449 H 530.139 -0.0676598 -0.660544 0
M  V30 5450 H 532.669 -0.819445 -1.87473 0
M  V30 5451 H 532.679 0.256567 -4.07193 0
M  V30 5452 H 531.354 -0.895739 -4.0614 0
M  V30 5453 H 529.931 0.882501 -3.62307 0
M  V30 5454 N 532.116 1.54067 -0.331816 0
M  V30 5455 C 533.079 2.23275 0.517768 0
M  V30 5456 C 534.079 1.22897 1.03697 0
M  V30 5457 O 535.269 1.47419 0.928084 0
M  V30 5458 C 532.401 2.94326 1.72004 0
M  V30 5459 H 533.594 2.99773 -0.0873507 0
M  V30 5460 H 531.147 1.56079 -0.0830042 0
M  V30 5461 H 531.882 2.21986 2.36417 0
M  V30 5462 H 531.667 3.67941 1.35507 0
M  V30 5463 H 533.157 3.47031 2.32291 0
M  V30 5464 N 533.594 0.0601682 1.57485 0
M  V30 5465 C 534.841 -0.611594 1.93043 0
M  V30 5466 C 535.169 -1.70317 0.939274 0
M  V30 5467 O 534.424 -1.95644 -0.046996 0
M  V30 5468 C 534.723 -1.23831 3.35262 0
M  V30 5469 C 534.389 -0.274037 4.50066 0
M  V30 5470 C 533.051 -0.00872394 4.81199 0
M  V30 5471 C 535.403 0.386308 5.19766 0
M  V30 5472 C 532.731 0.924218 5.79375 0
M  V30 5473 C 535.083 1.3075 6.1894 0
M  V30 5474 C 533.747 1.58139 6.48497 0
M  V30 5475 H 533.017 -0.223798 0.706396 0
M  V30 5476 H 535.664 0.128566 1.91068 0
M  V30 5477 H 533.969 -2.05394 3.33647 0
M  V30 5478 H 535.666 -1.76517 3.60059 0
M  V30 5479 H 532.256 -0.491008 4.25778 0
M  V30 5480 H 536.44 0.194436 4.95919 0
M  V30 5481 H 531.696 1.1438 6.00606 0
M  V30 5482 H 535.87 1.82519 6.72056 0
M  V30 5483 H 533.497 2.30593 7.24383 0
M  V30 5484 N 535.072 -1.5615 -0.213296 0
M  V30 5485 C 536.318 -1.79812 -0.937849 0
M  V30 5486 C 536.651 -0.631201 -1.83656 0
M  V30 5487 O 535.926 0.369165 -1.90964 0
M  V30 5488 C 536.209 -3.13613 -1.76972 0
M  V30 5489 C 536.062 -4.40766 -0.89695 0
M  V30 5490 C 537.381 -3.43931 -2.7459 0
M  V30 5491 H 534.5 -0.654138 -0.339518 0
M  V30 5492 H 537.142 -1.88877 -0.20623 0
M  V30 5493 H 535.292 -3.06015 -2.39347 0
M  V30 5494 H 536.964 -4.60392 -0.289306 0
M  V30 5495 H 535.207 -4.33326 -0.202756 0
M  V30 5496 H 535.878 -5.30843 -1.51358 0
M  V30 5497 H 538.354 -3.5171 -2.22349 0
M  V30 5498 H 537.23 -4.38706 -3.29891 0
M  V30 5499 H 537.491 -2.6651 -3.52739 0
M  V30 5500 N 536.55 0.480323 -1.50102 0
M  V30 5501 C 537.798 1.23063 -1.60312 0
M  V30 5502 C 538.119 1.92659 -0.301226 0
M  V30 5503 O 537.389 1.83691 0.680753 0
M  V30 5504 H 535.969 0.457231 -0.590719 0
M  V30 5505 H 538.631 0.554893 -1.86834 0
M  V30 5506 H 537.727 1.9835 -2.40964 0
M  V30 5507 N 538.028 1.39524 0.732853 0
M  V30 5508 C 539.258 1.3994 1.51988 0
M  V30 5509 C 539.666 -0.00727973 1.89199 0
M  V30 5510 O 539.009 -0.989521 1.54771 0
M  V30 5511 C 539.071 2.21026 2.83527 0
M  V30 5512 C 538.735 3.69633 2.68738 0
M  V30 5513 C 539.732 4.62665 2.37143 0
M  V30 5514 C 537.417 4.13244 2.85542 0
M  V30 5515 C 539.411 5.97291 2.22536 0
M  V30 5516 C 537.098 5.47945 2.70554 0
M  V30 5517 C 538.096 6.39783 2.39097 0
M  V30 5518 O 537.784 7.72002 2.24204 0
M  V30 5519 H 537.516 0.479795 0.476206 0
M  V30 5520 H 540.07 1.8399 0.913054 0
M  V30 5521 H 538.3 1.71728 3.46477 0
M  V30 5522 H 539.989 2.13594 3.45156 0
M  V30 5523 H 540.755 4.30272 2.2381 0
M  V30 5524 H 536.634 3.42094 3.09019 0
M  V30 5525 H 540.178 6.68939 1.97905 0
M  V30 5526 H 536.075 5.79928 2.83466 0
M  V30 5527 H 536.843 7.8275 2.39258 0
M  V30 5528 N 539.506 -0.963266 1.24736 0
M  V30 5529 C 540.436 -2.07628 1.06832 0
M  V30 5530 C 541.417 -1.70088 -0.0200566 0
M  V30 5531 O 542.602 -1.93636 0.147854 0
M  V30 5532 C 539.732 -3.40636 0.677069 0
M  V30 5533 C 538.686 -3.9215 1.71471 0
M  V30 5534 C 538.012 -5.21553 1.1784 0
M  V30 5535 C 539.312 -4.19493 3.11164 0
M  V30 5536 H 541.006 -2.22864 1.9993 0
M  V30 5537 H 538.552 -1.07093 0.96266 0
M  V30 5538 H 540.505 -4.17941 0.538792 0
M  V30 5539 H 539.229 -3.25313 -0.289612 0
M  V30 5540 H 537.888 -3.17005 1.84128 0
M  V30 5541 H 537.536 -5.02593 0.202195 0
M  V30 5542 H 537.236 -5.56988 1.87185 0
M  V30 5543 H 538.76 -6.01463 1.05233 0
M  V30 5544 H 540.174 -4.87487 3.01711 0
M  V30 5545 H 538.571 -4.66165 3.77902 0
M  V30 5546 H 539.641 -3.26097 3.58871 0
M  V30 5547 N 540.985 -1.06182 -1.16461 0
M  V30 5548 C 541.933 -0.665716 -2.2287 0
M  V30 5549 C 542.927 0.317822 -1.66392 0
M  V30 5550 O 544.133 0.182807 -1.79069 0
M  V30 5551 H 540.508 -0.197148 -0.725697 0
M  V30 5552 H 542.479 -1.57307 -2.53569 0
M  V30 5553 C 541.228 -0.0669803 -3.47635 0
M  V30 5554 H 540.551 -0.814899 -3.91407 0
M  V30 5555 H 541.991 0.172669 -4.23648 0
M  V30 5556 C 540.45 1.18913 -3.15216 0
M  V30 5557 O 540.98 2.27723 -3.30916 0
M  V30 5558 N 539.186 1.09066 -2.69357 0
M  V30 5559 H 538.733 0.20518 -2.56782 0
M  V30 5560 H 538.691 1.93195 -2.48039 0
M  V30 5561 N 542.463 1.3308 -0.844243 0
M  V30 5562 C 543.395 2.27954 -0.238671 0
M  V30 5563 C 544.408 1.51978 0.583665 0
M  V30 5564 O 545.597 1.73731 0.409857 0
M  V30 5565 C 542.697 3.31963 0.682185 0
M  V30 5566 C 541.87 4.37281 -0.101998 0
M  V30 5567 C 540.929 5.20928 0.743022 0
M  V30 5568 O 539.955 5.68914 0.180285 0
M  V30 5569 N 541.157 5.42738 2.0595 0
M  V30 5570 H 543.922 2.8056 -1.05386 0
M  V30 5571 H 541.483 1.4583 -0.70322 0
M  V30 5572 H 543.475 3.84828 1.25259 0
M  V30 5573 H 542.045 2.79594 1.39808 0
M  V30 5574 H 541.265 3.84843 -0.853802 0
M  V30 5575 H 542.553 5.04746 -0.641015 0
M  V30 5576 H 541.951 5.05463 2.54016 0
M  V30 5577 H 540.508 5.98639 2.57827 0
M  V30 5578 N 543.941 0.601185 1.45683 0
M  V30 5579 C 545.352 0.179659 1.85834 0
M  V30 5580 C 545.703 -1.26189 1.50236 0
M  V30 5581 O 544.828 -1.95587 0.925987 0
M  V30 5582 C 545.423 0.319277 3.37292 0
M  V30 5583 C 543.982 -0.0475092 3.7637 0
M  V30 5584 C 543.129 0.646692 2.69654 0
M  V30 5585 H 546.08 0.808268 1.36575 0
M  V30 5586 H 546.101 -0.4503 3.77826 0
M  V30 5587 H 545.613 1.36855 3.6317 0
M  V30 5588 H 543.714 -1.0962 3.5611 0
M  V30 5589 H 543.827 0.34168 4.7788 0
M  V30 5590 H 542.191 0.0849971 2.54558 0
M  V30 5591 H 542.974 1.69797 2.98369 0
M  V30 5592 N 545.419 -1.53889 0.339982 0
M  V30 5593 C 546.351 -2.22435 -0.55275 0
M  V30 5594 C 547.364 -1.22975 -1.06681 0
M  V30 5595 O 548.553 -1.49351 -0.977575 0
M  V30 5596 C 545.653 -2.8882 -1.77302 0
M  V30 5597 C 544.826 -4.14563 -1.39486 0
M  V30 5598 C 543.885 -4.64391 -2.47442 0
M  V30 5599 O 542.911 -5.28687 -2.10899 0
M  V30 5600 N 544.113 -4.40015 -3.78639 0
M  V30 5601 H 546.878 -2.9968 0.0342669 0
M  V30 5602 H 544.439 -1.61068 0.16394 0
M  V30 5603 H 546.431 -3.19072 -2.48948 0
M  V30 5604 H 545.001 -2.15182 -2.26749 0
M  V30 5605 H 544.221 -3.90896 -0.509321 0
M  V30 5606 H 545.509 -4.96362 -1.11813 0
M  V30 5607 H 544.907 -3.88586 -4.11118 0
M  V30 5608 H 543.464 -4.74881 -4.46465 0
M  V30 5609 N 546.897 -0.0685191 -1.57451 0
M  V30 5610 C 547.86 0.885173 -2.11417 0
M  V30 5611 C 548.86 1.22853 -1.03748 0
M  V30 5612 O 550.05 1.16235 -1.2975 0
M  V30 5613 C 547.182 2.18964 -2.61281 0
M  V30 5614 H 548.375 0.417034 -2.96986 0
M  V30 5615 H 545.928 0.18014 -1.55258 0
M  V30 5616 H 546.663 2.70321 -1.79156 0
M  V30 5617 H 546.448 1.9534 -3.39977 0
M  V30 5618 H 547.938 2.87242 -3.0312 0
M  V30 5619 N 548.375 1.56261 0.205012 0
M  V30 5620 C 549.603 1.84141 0.943386 0
M  V30 5621 C 550.018 0.649772 1.77266 0
M  V30 5622 O 549.375 -0.381612 1.78466 0
M  V30 5623 C 549.426 3.10719 1.84759 0
M  V30 5624 O 549.147 4.25286 1.05181 0
M  V30 5625 C 550.648 3.51706 2.69848 0
M  V30 5626 H 547.868 0.611734 0.275721 0
M  V30 5627 H 550.412 2.03364 0.215253 0
M  V30 5628 H 548.567 2.93422 2.52947 0
M  V30 5629 H 548.981 4.97301 1.66709 0
M  V30 5630 H 550.455 4.43266 3.28967 0
M  V30 5631 H 550.932 2.7423 3.43067 0
M  V30 5632 H 551.538 3.71499 2.07047 0
M  V30 5633 N 549.853 -0.472356 1.50355 0
M  V30 5634 C 550.816 -1.5529 1.68576 0
M  V30 5635 C 551.816 -1.50863 0.556511 0
M  V30 5636 O 553.006 -1.53505 0.823516 0
M  V30 5637 C 550.138 -2.94921 1.70981 0
M  V30 5638 H 551.331 -1.40451 2.64978 0
M  V30 5639 H 548.884 -0.698645 1.39816 0
M  V30 5640 H 549.619 -3.15204 0.762675 0
M  V30 5641 H 549.404 -2.99541 2.53017 0
M  V30 5642 H 550.894 -3.73372 1.87037 0
M  V30 5643 N 551.331 -1.39911 -0.725443 0
M  V30 5644 C 552.241 -1.41688 -1.8698 0
M  V30 5645 C 553.257 -0.310579 -1.71206 0
M  V30 5646 O 554.433 -0.55359 -1.93642 0
M  V30 5647 C 551.498 -1.26811 -3.22676 0
M  V30 5648 C 550.559 -2.47497 -3.50776 0
M  V30 5649 C 549.792 -2.3332 -4.79997 0
M  V30 5650 O 550.015 -1.34175 -5.54394 0
M  V30 5651 O 548.949 -3.22498 -5.08211 0
M  V30 5652 H 552.775 -2.38171 -1.88436 0
M  V30 5653 H 550.36 -1.21128 -0.874548 0
M  V30 5654 H 552.242 -1.20684 -4.03749 0
M  V30 5655 H 550.917 -0.334289 -3.21969 0
M  V30 5656 H 549.824 -2.59201 -2.69751 0
M  V30 5657 H 551.157 -3.39606 -3.5627 0
M  V30 5658 N 552.809 0.956637 -1.25245 0
M  V30 5659 C 553.756 2.053 -1.05454 0
M  V30 5660 C 554.726 1.66062 0.0356889 0
M  V30 5661 O 555.911 1.90415 -0.121099 0
M  V30 5662 C 553.051 3.38391 -0.677191 0
M  V30 5663 C 552.164 3.90758 -1.84206 0
M  V30 5664 C 551.299 5.12165 -1.40926 0
M  V30 5665 C 550.338 5.56757 -2.54338 0
M  V30 5666 N 549.475 6.69376 -2.11848 0
M  V30 5667 H 554.315 2.21562 -1.99284 0
M  V30 5668 H 551.852 1.08578 -0.992434 0
M  V30 5669 H 553.81 4.1488 -0.43938 0
M  V30 5670 H 552.44 3.22021 0.224127 0
M  V30 5671 H 551.492 3.10808 -2.19323 0
M  V30 5672 H 552.804 4.19802 -2.69383 0
M  V30 5673 H 551.958 5.96065 -1.13098 0
M  V30 5674 H 550.697 4.84832 -0.528175 0
M  V30 5675 H 549.702 4.71423 -2.82913 0
M  V30 5676 H 550.927 5.861 -3.43022 0
M  V30 5677 H 548.873 6.43756 -1.26153 0
M  V30 5678 H 548.79 6.97927 -2.90574 0
M  V30 5679 H 550.058 7.5669 -1.87191 0
M  V30 5680 N 554.287 1.06798 1.15896 0
M  V30 5681 C 555.217 0.704677 2.22613 0
M  V30 5682 C 556.198 -0.305252 1.67339 0
M  V30 5683 O 557.383 -0.179247 1.93371 0
M  V30 5684 C 554.513 0.0957325 3.47168 0
M  V30 5685 C 553.467 1.0322 4.15367 0
M  V30 5686 C 552.793 0.286293 5.33933 0
M  V30 5687 C 554.093 2.36341 4.65768 0
M  V30 5688 H 555.787 1.59688 2.53259 0
M  V30 5689 H 553.333 0.769257 1.21731 0
M  V30 5690 H 555.286 -0.170333 4.21056 0
M  V30 5691 H 554.01 -0.831516 3.15838 0
M  V30 5692 H 552.669 1.28309 3.43413 0
M  V30 5693 H 552.317 -0.644237 4.98857 0
M  V30 5694 H 552.017 0.910436 5.80504 0
M  V30 5695 H 553.541 0.0278938 6.10594 0
M  V30 5696 H 554.955 2.1561 5.31211 0
M  V30 5697 H 553.352 2.94299 5.2298 0
M  V30 5698 H 554.422 2.99047 3.81705 0
M  V30 5699 N 555.766 -1.3263 0.851289 0
M  V30 5700 C 556.698 -2.27824 0.250757 0
M  V30 5701 C 557.711 -1.52285 -0.575598 0
M  V30 5702 O 558.9 -1.73946 -0.400638 0
M  V30 5703 C 556 -3.3232 -0.664571 0
M  V30 5704 C 555.173 -4.37221 0.125187 0
M  V30 5705 C 554.232 -5.21314 -0.715385 0
M  V30 5706 O 553.258 -5.69002 -0.150111 0
M  V30 5707 N 554.46 -5.43823 -2.03069 0
M  V30 5708 H 557.225 -2.79997 1.06873 0
M  V30 5709 H 554.786 -1.45455 0.710943 0
M  V30 5710 H 556.778 -3.85486 -1.23216 0
M  V30 5711 H 555.348 -2.80331 -1.38323 0
M  V30 5712 H 554.568 -3.84384 0.874199 0
M  V30 5713 H 555.856 -5.04399 0.667774 0
M  V30 5714 H 555.254 -5.06803 -2.51332 0
M  V30 5715 H 553.811 -5.99998 -2.54648 0
M  V30 5716 N 557.244 -0.608902 -1.45362 0
M  V30 5717 C 558.521 -0.0365378 -1.95566 0
M  V30 5718 C 558.901 1.43169 -1.55131 0
M  V30 5719 O 558.249 2.1349 -0.814513 0
M  V30 5720 C 558.459 -0.236026 -3.48201 0
M  V30 5721 C 559.807 -0.117518 -4.24437 0
M  V30 5722 O 560.831 -0.166217 -3.55812 0
M  V30 5723 O 559.69 -0.00372127 -5.465 0
M  V30 5724 H 556.784 0.0349874 -0.82626 0
M  V30 5725 H 559.33 -0.679055 -1.55521 0
M  V30 5726 H 558.102 -1.25569 -3.70605 0
M  V30 5727 H 557.725 0.441691 -3.95139 0
M  V30 5728 N 558.722 1.53707 -0.348139 0
M  V30 5729 C 559.97 2.00591 0.246478 0
M  V30 5730 C 560.291 1.23753 1.50699 0
M  V30 5731 O 559.561 0.345964 1.92821 0
M  V30 5732 H 558.141 0.741053 0.0940679 0
M  V30 5733 H 560.803 1.89139 -0.470354 0
M  V30 5734 H 559.899 3.08297 0.485714 0
M  V30 5735 N 560.2 0.0768682 1.57412 0
M  V30 5736 C 561.446 -0.585926 1.94778 0
M  V30 5737 C 561.801 -1.66912 0.956982 0
M  V30 5738 O 561.094 -1.9159 -0.0199454 0
M  V30 5739 C 561.288 -1.20268 3.36557 0
M  V30 5740 C 561.117 -0.18076 4.49337 0
M  V30 5741 C 559.887 0.236362 5.04747 0
M  V30 5742 C 562.085 0.583978 5.10974 0
M  V30 5743 N 560.067 1.24846 6.01071 0
M  V30 5744 C 561.438 1.44841 6.02844 0
M  V30 5745 C 563.493 0.639492 4.93776 0
M  V30 5746 C 562.196 2.36343 6.79363 0
M  V30 5747 C 564.222 1.54204 5.70942 0
M  V30 5748 C 563.584 2.39414 6.62465 0
M  V30 5749 H 559.683 -0.185281 0.759734 0
M  V30 5750 H 562.267 0.155193 1.9408 0
M  V30 5751 H 560.438 -1.9137 3.37982 0
M  V30 5752 H 562.17 -1.82636 3.61146 0
M  V30 5753 H 558.925 -0.14777 4.73369 0
M  V30 5754 H 559.349 1.75217 6.53933 0
M  V30 5755 H 563.991 -0.00510074 4.228 0
M  V30 5756 H 561.709 3.01836 7.49614 0
M  V30 5757 H 565.295 1.5899 5.59655 0
M  V30 5758 H 564.175 3.0812 7.21132 0
M  V30 5759 N 561.678 -1.56367 -0.196722 0
M  V30 5760 C 562.908 -1.84371 -0.932254 0
M  V30 5761 C 563.316 -0.657013 -1.77426 0
M  V30 5762 O 562.659 0.383576 -1.79651 0
M  V30 5763 C 562.721 -3.06454 -1.87952 0
M  V30 5764 C 562.385 -4.40425 -1.21962 0
M  V30 5765 C 563.382 -5.16457 -0.597343 0
M  V30 5766 C 561.067 -4.8716 -1.22396 0
M  V30 5767 C 563.061 -6.37399 0.0117913 0
M  V30 5768 C 560.748 -6.08038 -0.610995 0
M  V30 5769 C 561.746 -6.83 0.00580487 0
M  V30 5770 O 561.434 -8.01589 0.609173 0
M  V30 5771 H 561.166 -0.616377 -0.277589 0
M  V30 5772 H 563.72 -2.04329 -0.209452 0
M  V30 5773 H 561.95 -2.82377 -2.64197 0
M  V30 5774 H 563.639 -3.21118 -2.48271 0
M  V30 5775 H 564.405 -4.81445 -0.586142 0
M  V30 5776 H 560.284 -4.2877 -1.69345 0
M  V30 5777 H 563.828 -6.9585 0.493836 0
M  V30 5778 H 559.725 -6.42519 -0.619693 0
M  V30 5779 H 560.493 -8.16935 0.505919 0
M  V30 5780 N 563.156 0.464375 -1.50603 0
M  V30 5781 C 564.572 0.798684 -1.38178 0
M  V30 5782 C 564.772 1.96568 -0.44308 0
M  V30 5783 O 563.828 2.52252 0.111814 0
M  V30 5784 C 565.141 1.10444 -2.79683 0
M  V30 5785 C 566.689 1.2105 -2.88645 0
M  V30 5786 C 567.164 1.54934 -4.30998 0
M  V30 5787 N 568.655 1.61913 -4.3398 0
M  V30 5788 C 569.39 1.8965 -5.41129 0
M  V30 5789 N 568.886 2.15361 -6.58477 0
M  V30 5790 N 570.679 1.91207 -5.28579 0
M  V30 5791 H 562.83 -0.304603 -2.10204 0
M  V30 5792 H 565.093 -0.0737804 -0.945125 0
M  V30 5793 H 564.799 0.319934 -3.50242 0
M  V30 5794 H 564.673 2.03896 -3.17342 0
M  V30 5795 H 567.06 1.98567 -2.18301 0
M  V30 5796 H 567.141 0.255613 -2.5452 0
M  V30 5797 H 566.785 0.779549 -5.01882 0
M  V30 5798 H 566.715 2.51584 -4.62615 0
M  V30 5799 H 569.206 1.44055 -3.49366 0
M  V30 5800 H 569.519 2.35818 -7.35941 0
M  V30 5801 H 567.864 2.1274 -6.6164 0
M  V30 5802 H 571.055 1.70622 -4.35897 0
M  V30 5803 H 571.228 2.12488 -6.12171 0
M  V30 5804 N 564.634 1.40294 0.718013 0
M  V30 5805 C 565.862 1.4175 1.50714 0
M  V30 5806 C 566.277 0.0165366 1.88793 0
M  V30 5807 O 565.634 -0.958942 1.55276 0
M  V30 5808 C 565.685 2.30598 2.784 0
M  V30 5809 O 565.406 3.6524 2.41932 0
M  V30 5810 C 566.907 2.4062 3.72313 0
M  V30 5811 H 564.127 0.483565 0.465194 0
M  V30 5812 H 566.671 1.84316 0.885889 0
M  V30 5813 H 564.826 1.91401 3.36815 0
M  V30 5814 H 565.24 4.12402 3.24076 0
M  V30 5815 H 566.714 3.07001 4.58753 0
M  V30 5816 H 567.191 1.4305 4.15251 0
M  V30 5817 H 567.797 2.80359 3.19811 0
M  V30 5818 N 566.112 -0.949982 1.2575 0
M  V30 5819 C 567.337 -1.73503 1.13628 0
M  V30 5820 C 567.762 -1.85601 -0.30559 0
M  V30 5821 O 567.12 -1.33984 -1.22139 0
M  V30 5822 C 567.168 -3.1243 1.80055 0
M  V30 5823 O 566.272 -3.97916 1.08336 0
M  V30 5824 H 565.613 -0.532665 0.396439 0
M  V30 5825 H 568.143 -1.19043 1.66403 0
M  V30 5826 H 568.153 -3.62866 1.86527 0
M  V30 5827 H 566.828 -3.02941 2.84956 0
M  V30 5828 H 565.405 -3.56375 1.09777 0
M  V30 5829 N 567.59 -1.07411 -1.15328 0
M  V30 5830 C 568.867 -0.710732 -1.82231 0
M  V30 5831 C 569.247 0.806732 -1.95077 0
M  V30 5832 O 568.595 1.72139 -1.50268 0
M  V30 5833 C 568.805 -1.42586 -3.18544 0
M  V30 5834 C 570.153 -1.57836 -3.94174 0
M  V30 5835 O 571.177 -1.38669 -3.281 0
M  V30 5836 O 570.036 -1.8938 -5.12638 0
M  V30 5837 H 567.13 -0.25297 -0.78736 0
M  V30 5838 H 569.676 -1.17508 -1.22434 0
M  V30 5839 H 568.448 -2.46008 -3.04296 0
M  V30 5840 H 568.071 -0.952332 -3.86026 0
M  V30 5841 N 569.068 1.32177 -0.85831 0
M  V30 5842 C 570.314 1.97417 -0.46417 0
M  V30 5843 C 570.647 1.67746 0.978514 0
M  V30 5844 O 569.922 0.967654 1.68721 0
M  V30 5845 C 570.205 3.53069 -0.708094 0
M  V30 5846 C 570.058 3.92357 -2.19946 0
M  V30 5847 C 571.377 4.39783 -0.166881 0
M  V30 5848 H 568.496 0.717097 -0.17012 0
M  V30 5849 H 571.138 1.56499 -1.07741 0
M  V30 5850 H 569.288 3.88054 -0.186128 0
M  V30 5851 H 570.96 3.67533 -2.78779 0
M  V30 5852 H 569.203 3.41384 -2.67656 0
M  V30 5853 H 569.874 5.00841 -2.32082 0
M  V30 5854 H 572.35 4.11556 -0.613285 0
M  V30 5855 H 571.226 5.47671 -0.367093 0
M  V30 5856 H 571.487 4.32196 0.930559 0
M  V30 5857 N 570.547 0.616602 1.45037 0
M  V30 5858 C 571.51 -0.0871112 2.29034 0
M  V30 5859 C 572.51 -0.786414 1.40258 0
M  V30 5860 O 573.7 -0.633207 1.62284 0
M  V30 5861 C 570.832 -1.13369 3.21497 0
M  V30 5862 H 572.025 0.651497 2.92738 0
M  V30 5863 H 569.578 0.376058 1.51709 0
M  V30 5864 H 570.313 -1.90277 2.62612 0
M  V30 5865 H 570.098 -0.636358 3.86902 0
M  V30 5866 H 571.588 -1.62627 3.84633 0
M  V30 5867 N 572.025 -1.5352 0.356285 0
M  V30 5868 C 573.271 -2.01414 -0.236653 0
M  V30 5869 C 573.604 -1.24339 -1.49176 0
M  V30 5870 O 572.879 -0.334496 -1.91602 0
M  V30 5871 C 573.162 -3.56059 -0.537982 0
M  V30 5872 C 573.015 -4.43835 0.730112 0
M  V30 5873 C 574.334 -4.19127 -1.34239 0
M  V30 5874 H 571.453 -0.732135 -0.0845386 0
M  V30 5875 H 574.095 -1.83854 0.479341 0
M  V30 5876 H 572.245 -3.71153 -1.14795 0
M  V30 5877 H 573.917 -4.40555 1.36782 0
M  V30 5878 H 572.16 -4.1218 1.3524 0
M  V30 5879 H 572.831 -5.49958 0.474358 0
M  V30 5880 H 575.307 -4.07809 -0.826498 0
M  V30 5881 H 574.183 -5.27378 -1.52198 0
M  V30 5882 H 574.444 -3.74581 -2.34822 0
M  V30 5883 N 573.503 -0.0852151 -1.57369 0
M  V30 5884 C 574.749 0.575588 -1.95086 0
M  V30 5885 C 575.104 1.66402 -0.96582 0
M  V30 5886 O 574.397 1.91598 0.00978463 0
M  V30 5887 C 574.591 1.18482 -3.3719 0
M  V30 5888 C 574.42 0.156928 -4.49426 0
M  V30 5889 C 573.19 -0.263126 -5.04614 0
M  V30 5890 C 575.388 -0.611068 -5.10657 0
M  V30 5891 N 573.37 -1.28032 -6.00401 0
M  V30 5892 C 574.741 -1.48036 -6.02068 0
M  V30 5893 C 576.796 -0.665669 -4.9343 0
M  V30 5894 C 575.499 -2.39943 -6.781 0
M  V30 5895 C 577.525 -1.5723 -5.70116 0
M  V30 5896 C 576.887 -2.42924 -6.61186 0
M  V30 5897 H 572.986 0.181249 -0.760705 0
M  V30 5898 H 575.57 -0.165484 -1.93995 0
M  V30 5899 H 573.741 1.89575 -3.38992 0
M  V30 5900 H 575.473 1.80718 -3.62109 0
M  V30 5901 H 572.228 0.122664 -4.73441 0
M  V30 5902 H 572.652 -1.78682 -6.52994 0
M  V30 5903 H 577.294 -0.0173214 -4.22796 0
M  V30 5904 H 575.012 -3.05807 -7.48002 0
M  V30 5905 H 578.598 -1.61956 -5.58804 0
M  V30 5906 H 577.478 -3.1194 -7.19488 0
M  V30 5907 N 574.981 1.5647 0.188427 0
M  V30 5908 C 576.209 1.85131 0.923803 0
M  V30 5909 C 576.624 0.668537 1.76567 0
M  V30 5910 O 575.981 -0.362662 1.7886 0
M  V30 5911 C 576.032 3.12661 1.81453 0
M  V30 5912 O 575.753 4.26378 1.00665 0
M  V30 5913 C 577.254 3.54548 2.66103 0
M  V30 5914 H 574.474 0.614624 0.269218 0
M  V30 5915 H 577.018 2.03581 0.193671 0
M  V30 5916 H 575.173 2.96088 2.49821 0
M  V30 5917 H 575.587 4.99041 1.61425 0
M  V30 5918 H 577.061 4.4673 3.24247 0
M  V30 5919 H 577.538 2.77853 3.40139 0
M  V30 5920 H 578.144 3.73674 2.03096 0
M  V30 5921 N 576.459 -0.456382 1.50847 0
M  V30 5922 C 577.87 -1.03685 1.55262 0
M  V30 5923 C 578.221 -1.92779 0.364771 0
M  V30 5924 O 577.346 -2.10043 -0.52068 0
M  V30 5925 C 577.941 -1.88718 2.81374 0
M  V30 5926 C 576.5 -2.41847 2.88422 0
M  V30 5927 C 575.647 -1.20564 2.49719 0
M  V30 5928 H 578.598 -0.238399 1.56899 0
M  V30 5929 H 578.619 -2.73957 2.6406 0
M  V30 5930 H 578.131 -1.23847 3.67809 0
M  V30 5931 H 576.232 -3.10228 2.06372 0
M  V30 5932 H 576.345 -2.75947 3.9165 0
M  V30 5933 H 574.709 -1.54504 2.02486 0
M  V30 5934 H 575.492 -0.573326 3.38479 0
M  V30 5935 N 577.937 -1.40673 -0.710563 0
M  V30 5936 C 578.847 -1.43663 -1.85467 0
M  V30 5937 C 579.863 -0.328721 -1.70867 0
M  V30 5938 O 581.039 -0.574098 -1.93044 0
M  V30 5939 C 578.104 -1.30226 -3.21313 0
M  V30 5940 C 577.165 -2.51204 -3.48131 0
M  V30 5941 C 576.398 -2.38398 -4.77495 0
M  V30 5942 O 576.621 -1.40048 -5.5294 0
M  V30 5943 O 575.555 -3.2787 -5.04762 0
M  V30 5944 H 579.381 -2.40156 -1.859 0
M  V30 5945 H 576.966 -1.22049 -0.861652 0
M  V30 5946 H 578.848 -1.2496 -4.02446 0
M  V30 5947 H 577.523 -0.368419 -3.21597 0
M  V30 5948 H 576.43 -2.62048 -2.66987 0
M  V30 5949 H 577.763 -3.43366 -3.52648 0
M  V30 5950 N 579.415 0.9433 -1.26252 0
M  V30 5951 C 580.663 1.68592 -1.11451 0
M  V30 5952 C 580.984 1.91957 0.343123 0
M  V30 5953 O 580.254 1.51475 1.24226 0
M  V30 5954 H 578.834 0.624789 -0.409448 0
M  V30 5955 H 581.496 1.13351 -1.58548 0
M  V30 5956 H 580.592 2.66054 -1.63162 0
M  V30 5957 N 580.893 1.08022 1.14757 0
M  V30 5958 C 582.121 0.828847 1.89572 0
M  V30 5959 C 582.536 -0.618621 1.78377 0
M  V30 5960 O 581.893 -1.42482 1.1404 0
M  V30 5961 C 581.944 1.23677 3.39685 0
M  V30 5962 O 581.665 2.62746 3.50566 0
M  V30 5963 C 583.166 1.01569 4.31507 0
M  V30 5964 H 580.386 0.299196 0.600602 0
M  V30 5965 H 582.93 1.43846 1.45357 0
M  V30 5966 H 581.085 0.671347 3.81539 0
M  V30 5967 H 581.499 2.79573 4.43778 0
M  V30 5968 H 582.973 1.35055 5.35223 0
M  V30 5969 H 583.45 -0.0475433 4.39174 0
M  V30 5970 H 584.056 1.56636 3.95405 0
M  V30 5971 N 582.371 -1.3172 0.865308 0
M  V30 5972 C 583.617 -1.97168 0.474633 0
M  V30 5973 C 583.95 -1.68263 -0.969604 0
M  V30 5974 O 583.225 -0.976588 -1.68205 0
M  V30 5975 C 583.508 -3.52689 0.726808 0
M  V30 5976 C 583.361 -3.91185 2.22024 0
M  V30 5977 C 584.68 -4.39689 0.190201 0
M  V30 5978 H 581.799 -0.716185 0.17392 0
M  V30 5979 H 584.441 -1.55925 1.08569 0
M  V30 5980 H 582.591 -3.8795 0.206705 0
M  V30 5981 H 584.263 -3.66049 2.80724 0
M  V30 5982 H 582.506 -3.3996 2.69462 0
M  V30 5983 H 583.177 -4.99604 2.34735 0
M  V30 5984 H 585.653 -4.11225 0.635103 0
M  V30 5985 H 584.529 -5.47469 0.396132 0
M  V30 5986 H 584.79 -4.32683 -0.907625 0
M  V30 5987 N 583.85 -0.624285 -1.44708 0
M  V30 5988 C 585.266 -0.289322 -1.56956 0
M  V30 5989 C 585.466 1.20773 -1.61295 0
M  V30 5990 O 584.522 1.9915 -1.55227 0
M  V30 5991 C 585.835 -0.975215 -2.84447 0
M  V30 5992 C 587.383 -0.952709 -2.98148 0
M  V30 5993 C 587.858 -1.61893 -4.28433 0
M  V30 5994 N 589.349 -1.5852 -4.35231 0
M  V30 5995 C 590.084 -2.06969 -5.34744 0
M  V30 5996 N 589.58 -2.63579 -6.40701 0
M  V30 5997 N 591.373 -1.97638 -5.26209 0
M  V30 5998 H 583.524 -1.59612 -1.40135 0
M  V30 5999 H 585.787 -0.669592 -0.671081 0
M  V30 6000 H 585.493 -2.02999 -2.87201 0
M  V30 6001 H 585.367 -0.508749 -3.73753 0
M  V30 6002 H 587.754 0.093568 -2.94952 0
M  V30 6003 H 587.835 -1.4576 -2.10209 0
M  V30 6004 H 587.479 -2.66463 -4.32389 0
M  V30 6005 H 587.409 -1.08893 -5.15218 0
M  V30 6006 H 589.899 -1.17183 -3.59272 0
M  V30 6007 H 590.213 -2.98298 -7.12908 0
M  V30 6008 H 588.558 -2.67626 -6.41406 0
M  V30 6009 H 591.749 -1.5314 -4.42341 0
M  V30 6010 H 591.922 -2.35708 -6.03611 0
M  V30 6011 N 585.328 1.53329 -0.364422 0
M  V30 6012 C 586.577 2.00421 0.226747 0
M  V30 6013 C 586.89 1.25581 1.49963 0
M  V30 6014 O 588.096 1.63256 2.16933 0
M  V30 6015 C 586.552 3.57017 0.454618 0
M  V30 6016 C 586.16 4.40734 -0.803568 0
M  V30 6017 C 587.904 4.12468 1.00351 0
M  V30 6018 C 585.811 5.8888 -0.545345 0
M  V30 6019 H 584.741 0.748787 0.0885082 0
M  V30 6020 H 587.392 1.7703 -0.482983 0
M  V30 6021 H 585.774 3.76558 1.22558 0
M  V30 6022 H 586.948 4.32967 -1.57723 0
M  V30 6023 H 585.263 3.96381 -1.27559 0
M  V30 6024 H 587.86 5.20783 1.212 0
M  V30 6025 H 588.203 3.6699 1.9653 0
M  V30 6026 H 588.736 3.96721 0.29274 0
M  V30 6027 H 585.475 6.38633 -1.47743 0
M  V30 6028 H 584.995 5.99499 0.189842 0
M  V30 6029 H 586.674 6.46776 -0.170425 0
M  V30 6030 N 586.806 0.0935595 1.57322 0
M  V30 6031 C 587.736 -0.863062 2.16964 0
M  V30 6032 C 588.717 -1.29528 1.10256 0
M  V30 6033 O 589.902 -1.36245 1.38387 0
M  V30 6034 C 587.032 -2.12276 2.74875 0
M  V30 6035 C 585.986 -1.82921 3.86942 0
M  V30 6036 C 585.312 -3.15707 4.31548 0
M  V30 6037 C 586.612 -1.11737 5.10208 0
M  V30 6038 H 588.306 -0.366145 2.97153 0
M  V30 6039 H 585.852 -0.174673 1.42937 0
M  V30 6040 H 587.805 -2.79634 3.1525 0
M  V30 6041 H 586.529 -2.64248 1.91938 0
M  V30 6042 H 585.188 -1.17961 3.47103 0
M  V30 6043 H 584.836 -3.65563 3.45504 0
M  V30 6044 H 584.536 -2.96849 5.07104 0
M  V30 6045 H 586.06 -3.84226 4.74555 0
M  V30 6046 H 587.474 -1.69203 5.47762 0
M  V30 6047 H 585.871 -1.03064 5.91183 0
M  V30 6048 H 586.941 -0.0998818 4.84797 0
M  V30 6049 N 588.284 -1.56567 -0.180126 0
M  V30 6050 C 589.532 -1.81133 -0.896392 0
M  V30 6051 C 589.853 -0.669114 -1.83161 0
M  V30 6052 O 589.123 0.311616 -1.93406 0
M  V30 6053 H 587.703 -0.668172 -0.333999 0
M  V30 6054 H 590.365 -1.94048 -0.182051 0
M  V30 6055 H 589.461 -2.74854 -1.47857 0
M  V30 6056 N 589.762 0.448376 -1.51087 0
M  V30 6057 C 591.178 0.783984 -1.39017 0
M  V30 6058 C 591.378 1.96087 -0.463904 0
M  V30 6059 O 590.434 2.52357 0.0850534 0
M  V30 6060 C 591.747 1.07471 -2.80839 0
M  V30 6061 C 593.295 1.17981 -2.89913 0
M  V30 6062 C 593.77 1.50354 -4.32617 0
M  V30 6063 N 595.261 1.57301 -4.35673 0
M  V30 6064 C 595.996 1.839 -5.4311 0
M  V30 6065 N 595.492 2.08365 -6.60724 0
M  V30 6066 N 597.285 1.8559 -5.30578 0
M  V30 6067 H 589.436 -0.326881 -2.0987 0
M  V30 6068 H 591.699 -0.0838006 -0.944289 0
M  V30 6069 H 591.405 0.282768 -3.50561 0
M  V30 6070 H 591.279 2.00519 -3.19487 0
M  V30 6071 H 593.666 1.9624 -2.20395 0
M  V30 6072 H 593.747 0.228603 -2.54776 0
M  V30 6073 H 593.391 0.726273 -5.0268 0
M  V30 6074 H 593.321 2.46663 -4.65258 0
M  V30 6075 H 595.812 1.40342 -3.50874 0
M  V30 6076 H 596.125 2.27999 -7.38401 0
M  V30 6077 H 594.47 2.0571 -6.63859 0
M  V30 6078 H 597.661 1.65989 -4.37682 0
M  V30 6079 H 597.834 2.05983 -6.1439 0
M  V30 6080 N 591.24 1.41047 0.703093 0
M  V30 6081 C 592.486 1.40207 1.46526 0
M  V30 6082 C 592.819 0.00847763 1.94198 0
M  V30 6083 O 592.094 -0.962437 1.69019 0
M  V30 6084 C 592.377 2.40238 2.6825 0
M  V30 6085 C 592.23 3.88674 2.26391 0
M  V30 6086 C 593.549 2.37627 3.70434 0
M  V30 6087 H 590.668 0.510594 0.531472 0
M  V30 6088 H 593.31 1.72271 0.801422 0
M  V30 6089 H 591.46 2.13026 3.24888 0
M  V30 6090 H 593.132 4.2676 1.75138 0
M  V30 6091 H 591.375 4.03903 1.58255 0
M  V30 6092 H 592.046 4.542 3.13698 0
M  V30 6093 H 594.522 2.61759 3.23452 0
M  V30 6094 H 593.398 3.09645 4.53223 0
M  V30 6095 H 593.659 1.39223 4.19606 0
M  V30 6096 N 592.718 -0.936591 1.26751 0
M  V30 6097 C 593.995 -1.66094 1.03306 0
M  V30 6098 C 594.375 -2.06568 -0.435058 0
M  V30 6099 O 593.723 -1.79305 -1.41641 0
M  V30 6100 C 593.933 -2.86969 1.98619 0
M  V30 6101 C 595.281 -3.58516 2.27489 0
M  V30 6102 O 596.305 -2.97082 1.96522 0
M  V30 6103 O 595.164 -4.69181 2.80235 0
M  V30 6104 H 592.258 -0.727568 0.393158 0
M  V30 6105 H 594.804 -0.987914 1.3798 0
M  V30 6106 H 593.576 -2.53985 2.9767 0
M  V30 6107 H 593.199 -3.61996 1.64454 0
M  V30 6108 N 594.196 -1.08629 -1.14182 0
M  V30 6109 C 595.473 -0.73002 -1.81466 0
M  V30 6110 C 595.853 0.785996 -1.95922 0
M  V30 6111 O 595.201 1.70535 -1.52086 0
M  V30 6112 C 595.411 -1.45957 -3.17014 0
M  V30 6113 C 596.759 -1.62008 -3.92477 0
M  V30 6114 O 597.783 -1.42141 -3.26611 0
M  V30 6115 O 596.642 -1.94806 -5.106 0
M  V30 6116 H 593.736 -0.261307 -0.784632 0
M  V30 6117 H 596.282 -1.188 -1.2118 0
M  V30 6118 H 595.054 -2.49221 -3.01669 0
M  V30 6119 H 594.677 -0.993222 -3.84995 0
M  V30 6120 N 595.674 1.31259 -0.872281 0
M  V30 6121 C 596.607 2.26544 -0.274394 0
M  V30 6122 C 597.585 1.51213 0.597776 0
M  V30 6123 O 598.769 1.80277 0.550687 0
M  V30 6124 C 595.896 3.33139 0.611256 0
M  V30 6125 C 594.942 4.26077 -0.189876 0
M  V30 6126 S 595.775 5.11971 -1.56989 0
M  V30 6127 C 596.931 6.2208 -0.690427 0
M  V30 6128 H 597.164 2.76908 -1.0821 0
M  V30 6129 H 594.697 1.3906 -0.670939 0
M  V30 6130 H 596.655 3.95024 1.11654 0
M  V30 6131 H 595.316 2.81525 1.39294 0
M  V30 6132 H 594.509 5.01657 0.485433 0
M  V30 6133 H 594.111 3.68701 -0.627339 0
M  V30 6134 H 596.403 6.77429 0.098001 0
M  V30 6135 H 597.346 6.93768 -1.41742 0
M  V30 6136 H 597.754 5.63915 -0.256953 0
M  V30 6137 N 597.152 0.631951 1.44375 0
M  V30 6138 C 598.401 0.134214 2.01253 0
M  V30 6139 C 598.714 -1.25171 1.50305 0
M  V30 6140 O 599.92 -1.8435 1.99317 0
M  V30 6141 C 598.376 0.189187 3.59402 0
M  V30 6142 C 597.984 1.57647 4.19346 0
M  V30 6143 C 599.728 -0.252044 4.23751 0
M  V30 6144 C 597.635 1.58651 5.69722 0
M  V30 6145 H 596.565 0.0464101 0.75257 0
M  V30 6146 H 599.216 0.790868 1.65582 0
M  V30 6147 H 597.598 -0.534584 3.92375 0
M  V30 6148 H 598.772 2.32389 3.97909 0
M  V30 6149 H 597.087 1.96186 3.67288 0
M  V30 6150 H 599.684 -0.264084 5.34047 0
M  V30 6151 H 600.027 -1.27951 3.96149 0
M  V30 6152 H 600.56 0.41926 3.95584 0
M  V30 6153 H 597.299 2.59237 6.0206 0
M  V30 6154 H 596.819 0.882039 5.93279 0
M  V30 6155 H 598.498 1.32082 6.33375 0
M  V30 6156 N 598.631 -1.53133 0.372548 0
M  V30 6157 C 599.88 -2.00539 -0.216115 0
M  V30 6158 C 600.193 -1.26374 -1.49295 0
M  V30 6159 O 601.399 -1.64404 -2.16064 0
M  V30 6160 C 599.855 -3.57253 -0.435678 0
M  V30 6161 C 599.463 -4.40302 0.82693 0
M  V30 6162 C 601.207 -4.12995 -0.981618 0
M  V30 6163 C 599.114 -5.88583 0.576567 0
M  V30 6164 H 598.044 -0.749246 -0.084536 0
M  V30 6165 H 600.695 -1.76771 0.492364 0
M  V30 6166 H 599.077 -3.77202 -1.20559 0
M  V30 6167 H 600.251 -4.32124 1.60017 0
M  V30 6168 H 598.566 -3.95699 1.29659 0
M  V30 6169 H 601.163 -5.21418 -1.18436 0
M  V30 6170 H 601.506 -3.68027 -1.94581 0
M  V30 6171 H 602.039 -3.96871 -0.271696 0
M  V30 6172 H 598.778 -6.37841 1.51128 0
M  V30 6173 H 598.298 -5.99592 -0.158047 0
M  V30 6174 H 599.977 -6.46676 0.204722 0
M  V30 6175 N 600.109 -0.101901 -1.5727 0
M  V30 6176 C 601.334 0.571759 -1.99363 0
M  V30 6177 C 601.759 1.60507 -0.980768 0
M  V30 6178 O 601.117 1.81231 0.0498517 0
M  V30 6179 C 601.165 1.18996 -3.404 0
M  V30 6180 O 600.269 2.30572 -3.41922 0
M  V30 6181 H 599.61 0.144449 -0.648098 0
M  V30 6182 H 602.14 -0.185325 -2.03759 0
M  V30 6183 H 602.15 1.52962 -3.78241 0
M  V30 6184 H 600.825 0.432984 -4.1364 0
M  V30 6185 H 599.402 1.98173 -3.15883 0
M  V30 6186 N 601.587 1.56661 0.17182 0
M  V30 6187 C 602.835 1.81606 0.886774 0
M  V30 6188 C 603.156 0.678818 1.82803 0
M  V30 6189 O 602.426 -0.301354 1.93568 0
M  V30 6190 H 601.006 0.669934 0.330451 0
M  V30 6191 H 603.668 1.94142 0.171757 0
M  V30 6192 H 602.764 2.75634 1.46398 0
M  V30 6193 N 603.065 -0.440357 1.51323 0
M  V30 6194 C 604.313 -1.18769 1.63518 0
M  V30 6195 C 604.634 -1.91793 0.352201 0
M  V30 6196 O 603.904 -1.85432 -0.631811 0
M  V30 6197 H 602.484 -0.441408 0.602634 0
M  V30 6198 H 605.146 -0.505162 1.8824 0
M  V30 6199 H 604.242 -1.91892 2.46138 0
M  V30 6200 N 604.543 -1.41418 -0.695603 0
M  V30 6201 C 605.453 -1.45622 -1.83933 0
M  V30 6202 C 606.469 -0.346825 -1.70508 0
M  V30 6203 O 607.645 -0.59454 -1.92424 0
M  V30 6204 C 604.71 -1.33627 -3.19914 0
M  V30 6205 C 603.771 -2.54882 -3.45447 0
M  V30 6206 C 603.004 -2.43449 -4.7494 0
M  V30 6207 O 603.227 -1.45905 -5.51424 0
M  V30 6208 O 602.161 -3.33206 -5.01256 0
M  V30 6209 H 605.987 -2.42114 -1.83342 0
M  V30 6210 H 603.572 -1.22956 -0.848658 0
M  V30 6211 H 605.454 -1.29221 -4.01098 0
M  V30 6212 H 604.129 -0.402508 -3.21188 0
M  V30 6213 H 603.036 -2.64865 -2.64192 0
M  V30 6214 H 604.369 -3.47087 -3.48987 0
M  V30 6215 N 606.021 0.929856 -1.27246 0
M  V30 6216 C 606.969 2.05151 -1.09616 0
M  V30 6217 C 607.963 1.69388 -0.0198617 0
M  V30 6218 O 609.169 1.79124 -0.177417 0
M  V30 6219 H 605.544 0.671909 -0.337701 0
M  V30 6220 H 607.515 2.17168 -2.04648 0
M  V30 6221 C 606.264 3.3934 -0.757851 0
M  V30 6222 H 605.587 3.67343 -1.57795 0
M  V30 6223 H 607.027 4.18603 -0.674358 0
M  V30 6224 C 605.486 3.32582 0.537658 0
M  V30 6225 O 606.016 3.69633 1.57271 0
M  V30 6226 N 604.222 2.8568 0.532478 0
M  V30 6227 H 603.769 2.55725 -0.310233 0
M  V30 6228 H 603.727 2.81541 1.39936 0
M  V30 6229 N 607.499 1.09233 1.13605 0
M  V30 6230 C 608.748 0.82205 1.84188 0
M  V30 6231 C 609.061 -0.654548 1.84323 0
M  V30 6232 O 610.267 -1.04029 2.50779 0
M  V30 6233 C 608.723 1.42066 3.30674 0
M  V30 6234 C 608.331 2.92965 3.38933 0
M  V30 6235 C 610.075 1.22924 4.06313 0
M  V30 6236 C 607.982 3.45922 4.79679 0
M  V30 6237 H 606.912 0.303854 0.690064 0
M  V30 6238 H 609.563 1.31479 1.28006 0
M  V30 6239 H 607.945 0.855613 3.86646 0
M  V30 6240 H 609.119 3.55679 2.92966 0
M  V30 6241 H 607.434 3.11118 2.76757 0
M  V30 6242 H 610.031 1.59945 5.10217 0
M  V30 6243 H 610.374 0.169726 4.15954 0
M  V30 6244 H 610.907 1.76168 3.56665 0
M  V30 6245 H 607.646 4.51484 4.75229 0
M  V30 6246 H 607.166 2.87971 5.26149 0
M  V30 6247 H 608.845 3.43009 5.48592 0
M  V30 6248 N 608.977 -1.30795 0.87923 0
M  V30 6249 C 609.927 -2.25838 0.313276 0
M  V30 6250 C 610.911 -1.51025 -0.55499 0
M  V30 6251 O 612.103 -1.72413 -0.400353 0
M  V30 6252 C 609.232 -3.39981 -0.476204 0
M  V30 6253 C 608.318 -4.22154 0.405826 0
M  V30 6254 N 608.709 -4.82934 1.50362 0
M  V30 6255 C 607.007 -4.45552 0.199909 0
M  V30 6256 C 607.708 -5.44444 2.0483 0
M  V30 6257 N 606.684 -5.26723 1.34403 0
M  V30 6258 H 610.486 -2.70374 1.15218 0
M  V30 6259 H 608 -1.45168 0.728003 0
M  V30 6260 H 609.997 -4.07108 -0.898251 0
M  V30 6261 H 608.657 -2.96986 -1.31261 0
M  V30 6262 H 609.668 -4.82319 1.8865 0
M  V30 6263 H 606.345 -4.13169 -0.599795 0
M  V30 6264 H 607.735 -6.02701 2.96986 0
M  V30 6265 N 610.455 -0.639598 -1.44038 0
M  V30 6266 C 611.866 -0.228866 -1.85292 0
M  V30 6267 C 612.217 1.22161 -1.53529 0
M  V30 6268 O 611.342 1.93064 -0.977518 0
M  V30 6269 C 611.937 -0.408592 -3.36327 0
M  V30 6270 C 610.496 -0.0522953 -3.76364 0
M  V30 6271 C 609.643 -0.717959 -2.67844 0
M  V30 6272 H 612.594 -0.844194 -1.34384 0
M  V30 6273 H 612.615 0.349968 -3.78887 0
M  V30 6274 H 612.127 -1.46435 -3.59414 0
M  V30 6275 H 610.228 1.0014 -3.58891 0
M  V30 6276 H 610.341 -0.468261 -4.76806 0
M  V30 6277 H 608.705 -0.152459 -2.54243 0
M  V30 6278 H 609.488 -1.77648 -2.93762 0
M  V30 6279 N 611.933 1.52934 -0.380664 0
M  V30 6280 C 613.158 2.06363 0.207157 0
M  V30 6281 C 613.583 1.25122 1.4045 0
M  V30 6282 O 612.941 0.274062 1.79217 0
M  V30 6283 C 612.989 3.56162 0.563996 0
M  V30 6284 O 612.093 3.77552 1.65917 0
M  V30 6285 H 611.434 0.663468 0.0265859 0
M  V30 6286 H 613.964 1.9719 -0.545635 0
M  V30 6287 H 613.974 3.99453 0.830752 0
M  V30 6288 H 612.649 4.14732 -0.311427 0
M  V30 6289 H 611.226 3.46154 1.3868 0
M  V30 6290 N 613.412 0.11024 1.57214 0
M  V30 6291 C 614.322 -0.857077 2.18383 0
M  V30 6292 C 615.338 -1.29915 1.1575 0
M  V30 6293 O 616.514 -1.36394 1.48184 0
M  V30 6294 C 613.579 -2.09264 2.76423 0
M  V30 6295 C 612.64 -1.70333 3.94063 0
M  V30 6296 C 611.873 -2.87999 4.49324 0
M  V30 6297 O 612.096 -4.0317 4.03497 0
M  V30 6298 O 611.03 -2.6559 5.40135 0
M  V30 6299 H 614.856 -0.366561 3.0148 0
M  V30 6300 H 612.441 -0.114914 1.48957 0
M  V30 6301 H 614.323 -2.81644 3.13456 0
M  V30 6302 H 612.998 -2.57339 1.96363 0
M  V30 6303 H 611.905 -0.950864 3.61814 0
M  V30 6304 H 613.238 -1.27007 4.75531 0
M  V30 6305 N 614.89 -1.56749 -0.16351 0
M  V30 6306 C 616.139 -1.81626 -0.877211 0
M  V30 6307 C 616.452 -0.688791 -1.83071 0
M  V30 6308 O 617.658 -0.822697 -2.58735 0
M  V30 6309 C 616.114 -3.21858 -1.61045 0
M  V30 6310 C 615.722 -4.42494 -0.700195 0
M  V30 6311 C 617.466 -3.56021 -2.31192 0
M  V30 6312 C 615.373 -5.73748 -1.43412 0
M  V30 6313 H 614.303 -0.67731 -0.331312 0
M  V30 6314 H 616.954 -1.83039 -0.13006 0
M  V30 6315 H 615.336 -3.14784 -2.40264 0
M  V30 6316 H 616.51 -4.60766 0.0555849 0
M  V30 6317 H 614.825 -4.1626 -0.10799 0
M  V30 6318 H 617.422 -4.51333 -2.8671 0
M  V30 6319 H 617.765 -2.81277 -3.06902 0
M  V30 6320 H 618.298 -3.64682 -1.58909 0
M  V30 6321 H 615.037 -6.51543 -0.719186 0
M  V30 6322 H 614.557 -5.5944 -2.16302 0
M  V30 6323 H 616.236 -6.15975 -1.9795 0
M  V30 6324 N 616.368 0.432326 -1.51554 0
M  V30 6325 C 617.278 1.55023 -1.76082 0
M  V30 6326 C 618.294 1.61593 -0.645265 0
M  V30 6327 O 619.47 1.78742 -0.928086 0
M  V30 6328 C 616.535 2.90964 -1.88523 0
M  V30 6329 C 615.596 2.9447 -3.12388 0
M  V30 6330 C 614.829 4.23926 -3.24225 0
M  V30 6331 O 615.052 5.16576 -2.4188 0
M  V30 6332 O 613.986 4.33818 -4.17235 0
M  V30 6333 H 617.812 1.37238 -2.70923 0
M  V30 6334 H 615.397 0.615845 -1.36117 0
M  V30 6335 H 617.279 3.71633 -1.98662 0
M  V30 6336 H 615.954 3.08865 -0.9687 0
M  V30 6337 H 614.861 2.12737 -3.07723 0
M  V30 6338 H 616.194 2.81514 -4.03746 0
M  V30 6339 N 617.846 1.41785 0.688094 0
M  V30 6340 C 619.262 1.24419 0.999608 0
M  V30 6341 C 619.462 0.138868 2.01021 0
M  V30 6342 O 618.518 -0.494283 2.47615 0
M  V30 6343 C 619.831 2.59625 1.51709 0
M  V30 6344 C 621.379 2.66869 1.63554 0
M  V30 6345 C 621.854 4.0241 2.18702 0
M  V30 6346 N 623.345 4.04295 2.26053 0
M  V30 6347 C 624.08 5.05977 2.69768 0
M  V30 6348 N 623.576 6.18047 3.13033 0
M  V30 6349 N 625.369 4.93336 2.69398 0
M  V30 6350 H 617.52 2.12392 0.0187427 0
M  V30 6351 H 619.783 0.945347 0.0708673 0
M  V30 6352 H 619.489 3.41297 0.849059 0
M  V30 6353 H 619.363 2.82628 2.49803 0
M  V30 6354 H 621.75 1.8555 2.29467 0
M  V30 6355 H 621.831 2.47668 0.639857 0
M  V30 6356 H 621.475 4.8418 1.53402 0
M  V30 6357 H 621.405 4.18955 3.19037 0
M  V30 6358 H 623.896 3.23383 1.9553 0
M  V30 6359 H 624.209 6.91498 3.45038 0
M  V30 6360 H 622.554 6.21572 3.10923 0
M  V30 6361 H 625.745 4.04865 2.34952 0
M  V30 6362 H 625.918 5.72717 3.03148 0
M  V30 6363 N 619.324 -0.923095 1.27737 0
M  V30 6364 C 620.57 -1.67375 1.14514 0
M  V30 6365 C 620.903 -1.91751 -0.307424 0
M  V30 6366 O 620.178 -1.51119 -1.22447 0
M  V30 6367 C 620.461 -3.03745 1.9342 0
M  V30 6368 C 620.314 -2.86581 3.46686 0
M  V30 6369 C 621.633 -4.04144 1.74228 0
M  V30 6370 H 618.752 -0.607427 0.417374 0
M  V30 6371 H 621.394 -1.07089 1.56946 0
M  V30 6372 H 619.544 -3.55204 1.5736 0
M  V30 6373 H 621.216 -2.42203 3.92601 0
M  V30 6374 H 619.459 -2.21829 3.72793 0
M  V30 6375 H 620.13 -3.83381 3.97143 0
M  V30 6376 H 622.606 -3.61712 2.05678 0
M  V30 6377 H 621.482 -4.97543 2.31824 0
M  V30 6378 H 621.743 -4.36661 0.691373 0
M  V30 6379 N 620.802 -1.09834 -1.13024 0
M  V30 6380 C 621.732 -0.763451 -2.20666 0
M  V30 6381 C 622.713 0.260778 -1.68089 0
M  V30 6382 O 623.898 0.127915 -1.93778 0
M  V30 6383 C 621.028 -0.187744 -3.46792 0
M  V30 6384 C 619.982 -1.14196 -4.12484 0
M  V30 6385 C 619.308 -0.427755 -5.32986 0
M  V30 6386 C 620.608 -2.48607 -4.59338 0
M  V30 6387 H 622.302 -1.66347 -2.48936 0
M  V30 6388 H 619.848 -0.801261 -1.19649 0
M  V30 6389 H 621.801 0.0586375 -4.21359 0
M  V30 6390 H 620.525 0.747485 -3.17931 0
M  V30 6391 H 619.184 -1.37369 -3.3989 0
M  V30 6392 H 618.832 0.511747 -5.0039 0
M  V30 6393 H 618.532 -1.06403 -5.77886 0
M  V30 6394 H 620.056 -0.189772 -6.10305 0
M  V30 6395 H 621.47 -2.29618 -5.25308 0
M  V30 6396 H 619.867 -3.08062 -5.14993 0
M  V30 6397 H 620.937 -3.09062 -3.73642 0
M  V30 6398 N 622.28 1.30327 -0.886154 0
M  V30 6399 C 623.528 1.9571 -0.504195 0
M  V30 6400 C 623.849 1.70294 0.950003 0
M  V30 6401 O 623.119 1.02718 1.66811 0
M  V30 6402 H 621.699 0.72412 -0.183465 0
M  V30 6403 H 624.361 1.58835 -1.12949 0
M  V30 6404 H 623.457 3.04704 -0.675431 0
M  V30 6405 N 623.758 0.647228 1.43697 0
M  V30 6406 C 624.986 0.16575 2.06235 0
M  V30 6407 C 625.401 -1.1662 1.48476 0
M  V30 6408 O 624.758 -1.7187 0.613762 0
M  V30 6409 C 624.809 0.0621651 3.61447 0
M  V30 6410 O 624.53 1.34146 4.17057 0
M  V30 6411 C 626.031 -0.446102 4.4105 0
M  V30 6412 H 623.251 0.0871158 0.665321 0
M  V30 6413 H 625.795 0.886183 1.84301 0
M  V30 6414 H 623.95 -0.608794 3.82587 0
M  V30 6415 H 624.364 1.19675 5.10664 0
M  V30 6416 H 625.838 -0.46755 5.50016 0
M  V30 6417 H 626.315 -1.47627 4.13646 0
M  V30 6418 H 626.921 0.192159 4.24866 0
M  V30 6419 N 625.236 -1.5273 0.388769 0
M  V30 6420 C 626.199 -2.25043 -0.434544 0
M  V30 6421 C 627.199 -1.26661 -0.990644 0
M  V30 6422 O 628.389 -1.50762 -0.872731 0
M  V30 6423 C 625.521 -3.00507 -1.60961 0
M  V30 6424 H 626.714 -2.99242 0.198549 0
M  V30 6425 H 624.267 -1.55664 0.140875 0
M  V30 6426 H 625.002 -2.30607 -2.28015 0
M  V30 6427 H 624.787 -3.72716 -1.21757 0
M  V30 6428 H 626.277 -3.55413 -2.19251 0
M  V30 6429 N 626.714 -0.118576 -1.57153 0
M  V30 6430 C 628.125 0.40687 -1.82213 0
M  V30 6431 C 628.476 1.66636 -1.03571 0
M  V30 6432 O 627.601 2.14682 -0.272171 0
M  V30 6433 C 628.196 0.744949 -3.30509 0
M  V30 6434 C 626.755 1.21503 -3.5625 0
M  V30 6435 C 625.902 0.223511 -2.76398 0
M  V30 6436 H 628.853 -0.343712 -1.54933 0
M  V30 6437 H 628.874 1.6024 -3.45114 0
M  V30 6438 H 628.386 -0.171911 -3.87719 0
M  V30 6439 H 626.487 2.1488 -3.04396 0
M  V30 6440 H 626.6 1.16065 -4.64829 0
M  V30 6441 H 624.964 0.71046 -2.44591 0
M  V30 6442 H 625.747 -0.686439 -3.36367 0
M  V30 6443 N 628.193 1.56834 0.155195 0
M  V30 6444 C 629.441 1.82536 0.867462 0
M  V30 6445 C 629.762 0.698168 1.82073 0
M  V30 6446 O 629.032 -0.280807 1.93877 0
M  V30 6447 H 627.612 0.673401 0.323327 0
M  V30 6448 H 630.274 1.94313 0.151156 0
M  V30 6449 H 629.37 2.77171 1.43466 0
M  V30 6450 N 629.671 -0.424282 1.51781 0
M  V30 6451 C 630.917 -1.17434 1.6534 0
M  V30 6452 C 631.25 -1.90549 0.374806 0
M  V30 6453 O 630.525 -1.84145 -0.626179 0
M  V30 6454 C 630.808 -2.18093 2.86544 0
M  V30 6455 C 630.661 -1.48975 4.24413 0
M  V30 6456 C 631.98 -3.18934 3.03264 0
M  V30 6457 H 629.099 -0.425566 0.601716 0
M  V30 6458 H 631.741 -0.461921 1.84299 0
M  V30 6459 H 629.891 -2.78849 2.7051 0
M  V30 6460 H 631.563 -0.914551 4.52143 0
M  V30 6461 H 629.806 -0.791893 4.26511 0
M  V30 6462 H 630.477 -2.22347 5.05238 0
M  V30 6463 H 632.953 -2.68243 3.18096 0
M  V30 6464 H 631.829 -3.86645 3.89611 0
M  V30 6465 H 632.09 -3.85793 2.15908 0
M  V30 6466 N 631.149 -1.42148 -0.680565 0
M  V30 6467 C 632.377 -1.45696 -1.46902 0
M  V30 6468 C 632.792 -0.0665858 -1.88683 0
M  V30 6469 O 632.149 0.917436 -1.57764 0
M  V30 6470 C 632.2 -2.37898 -2.72188 0
M  V30 6471 O 631.921 -3.71526 -2.32163 0
M  V30 6472 C 633.422 -2.50407 -3.65802 0
M  V30 6473 H 630.642 -0.495729 -0.45221 0
M  V30 6474 H 633.186 -1.866 -0.836709 0
M  V30 6475 H 631.341 -2.00263 -3.31622 0
M  V30 6476 H 631.755 -4.20849 -3.13027 0
M  V30 6477 H 633.229 -3.19056 -4.50452 0
M  V30 6478 H 633.706 -1.5401 -4.11312 0
M  V30 6479 H 634.312 -2.8874 -3.12265 0
M  V30 6480 N 632.627 0.916307 -1.28225 0
M  V30 6481 C 633.537 2.05165 -1.13775 0
M  V30 6482 C 634.553 1.73879 -0.0649418 0
M  V30 6483 O 635.729 1.99531 -0.273722 0
M  V30 6484 C 632.794 3.37385 -0.798267 0
M  V30 6485 C 631.855 3.82296 -1.95316 0
M  V30 6486 C 631.088 5.08206 -1.62978 0
M  V30 6487 O 631.311 5.6781 -0.542948 0
M  V30 6488 O 630.245 5.48768 -2.47261 0
M  V30 6489 H 634.071 2.20273 -2.09078 0
M  V30 6490 H 631.656 1.0373 -1.07519 0
M  V30 6491 H 633.538 4.16773 -0.62278 0
M  V30 6492 H 632.213 3.23458 0.125139 0
M  V30 6493 H 631.12 3.03746 -2.18378 0
M  V30 6494 H 632.453 4.00782 -2.85718 0
M  V30 6495 N 634.105 1.10431 1.1244 0
M  V30 6496 C 635.351 0.847972 1.84221 0
M  V30 6497 C 635.684 -0.624903 1.83871 0
M  V30 6498 O 634.959 -1.46074 1.28423 0
M  V30 6499 C 635.242 1.39695 3.319 0
M  V30 6500 C 635.095 2.93668 3.40704 0
M  V30 6501 C 636.414 1.03924 4.27654 0
M  V30 6502 H 633.533 0.309502 0.668863 0
M  V30 6503 H 636.175 1.36745 1.31912 0
M  V30 6504 H 634.325 0.955095 3.76577 0
M  V30 6505 H 635.997 3.46379 3.04662 0
M  V30 6506 H 634.24 3.30272 2.81252 0
M  V30 6507 H 634.911 3.27162 4.446 0
M  V30 6508 H 637.387 1.42049 3.91102 0
M  V30 6509 H 636.263 1.45027 5.29394 0
M  V30 6510 H 636.524 -0.051336 4.4207 0
M  V30 6511 N 635.583 -1.29855 0.893053 0
M  V30 6512 C 636.829 -1.96116 0.516349 0
M  V30 6513 C 637.162 -1.70281 -0.933695 0
M  V30 6514 O 636.437 -1.01205 -1.66096 0
M  V30 6515 C 636.72 -3.51068 0.801455 0
M  V30 6516 C 636.573 -3.86387 2.30272 0
M  V30 6517 C 637.892 -4.39186 0.283423 0
M  V30 6518 H 635.011 -0.712335 0.189072 0
M  V30 6519 H 637.653 -1.53587 1.11852 0
M  V30 6520 H 635.803 -3.87424 0.288949 0
M  V30 6521 H 637.475 -3.60012 2.88425 0
M  V30 6522 H 635.718 -3.34167 2.76613 0
M  V30 6523 H 636.389 -4.94512 2.45279 0
M  V30 6524 H 638.865 -4.09785 0.722187 0
M  V30 6525 H 637.741 -5.46505 0.512169 0
M  V30 6526 H 638.002 -4.34511 -0.815643 0
M  V30 6527 N 637.061 -0.65484 -1.43351 0
M  V30 6528 C 638.307 -0.169142 -2.02093 0
M  V30 6529 C 638.64 1.21431 -1.51553 0
M  V30 6530 O 637.915 1.81105 -0.709317 0
M  V30 6531 C 638.198 -0.181775 -3.59641 0
M  V30 6532 C 638.051 -1.59926 -4.20409 0
M  V30 6533 C 639.37 0.480945 -4.37464 0
M  V30 6534 H 636.489 -0.0629371 -0.734308 0
M  V30 6535 H 639.131 -0.835833 -1.70628 0
M  V30 6536 H 637.281 0.385918 -3.86578 0
M  V30 6537 H 638.953 -2.21766 -4.04497 0
M  V30 6538 H 637.196 -2.14605 -3.76998 0
M  V30 6539 H 637.867 -1.55994 -5.295 0
M  V30 6540 H 640.343 -0.00208273 -4.161 0
M  V30 6541 H 639.219 0.441384 -5.47122 0
M  V30 6542 H 639.48 1.55533 -4.13838 0
M  V30 6543 N 638.539 1.52521 -0.396863 0
M  V30 6544 C 639.788 2.00857 0.184184 0
M  V30 6545 C 640.101 1.28733 1.47265 0
M  V30 6546 O 641.307 1.67821 2.13421 0
M  V30 6547 C 639.763 3.57901 0.378787 0
M  V30 6548 C 639.371 4.38931 -0.896873 0
M  V30 6549 C 641.115 4.14504 0.915789 0
M  V30 6550 C 639.022 5.87591 -0.670133 0
M  V30 6551 H 637.952 0.750496 0.0726055 0
M  V30 6552 H 640.603 1.75965 -0.520425 0
M  V30 6553 H 638.985 3.79072 1.14543 0
M  V30 6554 H 640.159 4.29524 -1.66872 0
M  V30 6555 H 638.474 3.93586 -1.35938 0
M  V30 6556 H 641.071 5.23236 1.10126 0
M  V30 6557 H 641.414 3.71076 1.88701 0
M  V30 6558 H 641.947 3.97253 0.208523 0
M  V30 6559 H 638.686 6.35355 -1.61257 0
M  V30 6560 H 638.206 5.99767 0.0626368 0
M  V30 6561 H 639.885 6.46268 -0.307577 0
M  V30 6562 N 640.017 0.126909 1.57088 0
M  V30 6563 C 641.265 -0.528123 1.95078 0
M  V30 6564 C 641.586 -1.66708 1.0116 0
M  V30 6565 O 640.856 -1.95777 0.0693527 0
M  V30 6566 H 639.436 -0.198087 0.720257 0
M  V30 6567 H 642.098 0.197703 1.93895 0
M  V30 6568 H 641.194 -0.917507 2.98309 0
M  V30 6569 N 641.495 -1.56914 -0.146875 0
M  V30 6570 C 642.425 -2.01308 -1.1831 0
M  V30 6571 C 643.406 -0.892664 -1.44795 0
M  V30 6572 O 644.591 -1.16048 -1.55713 0
M  V30 6573 C 641.721 -2.3938 -2.51624 0
M  V30 6574 C 640.675 -3.54608 -2.3966 0
M  V30 6575 C 640.001 -3.78493 -3.77686 0
M  V30 6576 C 641.301 -4.87269 -1.88058 0
M  V30 6577 H 642.995 -2.88123 -0.813964 0
M  V30 6578 H 640.541 -1.38615 -0.3901 0
M  V30 6579 H 642.494 -2.69037 -3.24341 0
M  V30 6580 H 641.218 -1.49502 -2.90373 0
M  V30 6581 H 639.877 -3.25116 -1.69396 0
M  V30 6582 H 639.525 -2.85866 -4.13871 0
M  V30 6583 H 639.225 -4.56039 -3.70543 0
M  V30 6584 H 640.749 -4.10576 -4.51951 0
M  V30 6585 H 642.163 -5.15644 -2.50568 0
M  V30 6586 H 640.56 -5.68622 -1.91805 0
M  V30 6587 H 641.63 -4.77634 -0.836277 0
M  V30 6588 N 642.974 0.416227 -1.52004 0
M  V30 6589 C 643.937 1.48926 -1.74223 0
M  V30 6590 C 644.937 1.48693 -0.612119 0
M  V30 6591 O 646.127 1.50343 -0.879921 0
M  V30 6592 C 643.259 2.88372 -1.81809 0
M  V30 6593 H 644.452 1.3052 -2.70008 0
M  V30 6594 H 642.005 0.646271 -1.42313 0
M  V30 6595 H 642.74 3.12157 -0.879135 0
M  V30 6596 H 642.525 2.89944 -2.6396 0
M  V30 6597 H 644.015 3.66173 -2.00766 0
M  V30 6598 N 644.452 1.42507 0.673017 0
M  V30 6599 C 645.729 1.33554 1.42908 0
M  V30 6600 C 646.109 -0.0262211 2.11084 0
M  V30 6601 O 645.457 -1.04181 2.03368 0
M  V30 6602 C 645.667 2.50498 2.43006 0
M  V30 6603 C 647.015 2.92694 3.07596 0
M  V30 6604 O 648.039 2.50401 2.53333 0
M  V30 6605 O 646.898 3.65899 4.05931 0
M  V30 6606 H 643.992 0.526785 0.637516 0
M  V30 6607 H 646.538 1.54518 0.701591 0
M  V30 6608 H 645.31 3.41272 1.9144 0
M  V30 6609 H 644.933 2.3153 3.23233 0
M  V30 6610 N 645.93 -0.909495 1.28709 0
M  V30 6611 C 646.862 -2.01729 1.08804 0
M  V30 6612 C 647.875 -1.62755 0.0384739 0
M  V30 6613 O 649.064 -1.76259 0.281977 0
M  V30 6614 C 646.164 -3.32952 0.63217 0
M  V30 6615 C 645.337 -4.00512 1.75809 0
M  V30 6616 C 644.396 -5.10019 1.29488 0
M  V30 6617 O 643.422 -5.32986 1.99787 0
M  V30 6618 N 644.624 -5.80278 0.1604 0
M  V30 6619 H 647.389 -2.19362 2.04207 0
M  V30 6620 H 644.95 -1.08106 1.20518 0
M  V30 6621 H 646.942 -4.03543 0.305802 0
M  V30 6622 H 645.512 -3.11759 -0.229134 0
M  V30 6623 H 644.732 -3.23413 2.25383 0
M  V30 6624 H 646.02 -4.42395 2.51325 0
M  V30 6625 H 645.418 -5.64094 -0.425937 0
M  V30 6626 H 643.975 -6.51713 -0.106663 0
M  V30 6627 N 647.408 -1.11026 -1.11852 0
M  V30 6628 C 648.824 -0.843294 -1.35502 0
M  V30 6629 C 649.024 0.534179 -1.9429 0
M  V30 6630 O 648.08 1.28585 -2.17307 0
M  V30 6631 C 649.393 -1.94793 -2.29077 0
M  V30 6632 C 650.941 -1.97709 -2.42652 0
M  V30 6633 C 651.416 -3.07364 -3.39546 0
M  V30 6634 N 652.907 -3.0671 -3.47107 0
M  V30 6635 C 653.642 -3.88197 -4.22008 0
M  V30 6636 N 653.138 -4.79635 -4.99922 0
M  V30 6637 N 654.931 -3.76391 -4.17476 0
M  V30 6638 H 647.082 -1.99805 -0.720538 0
M  V30 6639 H 649.345 -0.868633 -0.379711 0
M  V30 6640 H 649.051 -2.93971 -1.93065 0
M  V30 6641 H 648.925 -1.84039 -3.29256 0
M  V30 6642 H 651.312 -0.991604 -2.77941 0
M  V30 6643 H 651.393 -2.1254 -1.4234 0
M  V30 6644 H 651.037 -4.06136 -3.04985 0
M  V30 6645 H 650.967 -2.89774 -4.39703 0
M  V30 6646 H 653.458 -2.40457 -2.91528 0
M  V30 6647 H 653.771 -5.38357 -5.54429 0
M  V30 6648 H 652.116 -4.8366 -4.99097 0
M  V30 6649 H 655.307 -3.04303 -3.55693 0
M  V30 6650 H 655.48 -4.40131 -4.75593 0
M  V30 6651 N 648.886 1.2938 -0.899927 0
M  V30 6652 C 650.132 1.96206 -0.536153 0
M  V30 6653 C 650.487 1.69647 0.90761 0
M  V30 6654 O 649.78 0.999089 1.63489 0
M  V30 6655 C 649.974 3.49114 -0.765113 0
M  V30 6656 C 649.803 3.90538 -2.22958 0
M  V30 6657 C 648.573 4.15395 -2.87706 0
M  V30 6658 C 650.771 4.0224 -3.20479 0
M  V30 6659 N 648.753 4.43389 -4.24593 0
M  V30 6660 C 650.124 4.34288 -4.42486 0
M  V30 6661 C 652.179 3.84716 -3.16066 0
M  V30 6662 C 650.882 4.50638 -5.6064 0
M  V30 6663 C 652.908 4.02276 -4.33507 0
M  V30 6664 C 652.27 4.34684 -5.54283 0
M  V30 6665 H 648.369 0.742364 -0.245804 0
M  V30 6666 H 650.953 1.56314 -1.16078 0
M  V30 6667 H 649.124 3.88028 -0.169861 0
M  V30 6668 H 650.856 4.03035 -0.366751 0
M  V30 6669 H 647.611 4.09164 -2.385 0
M  V30 6670 H 648.035 4.61494 -4.95331 0
M  V30 6671 H 652.677 3.58724 -2.23778 0
M  V30 6672 H 650.395 4.75467 -6.5342 0
M  V30 6673 H 653.981 3.90169 -4.31578 0
M  V30 6674 H 652.861 4.47988 -6.43643 0
M  V30 6675 N 650.364 0.662433 1.43002 0
M  V30 6676 C 651.612 0.179237 2.01304 0
M  V30 6677 C 651.933 -1.21428 1.52579 0
M  V30 6678 O 651.203 -1.81294 0.742252 0
M  V30 6679 H 649.783 0.0632725 0.744316 0
M  V30 6680 H 652.445 0.856169 1.75088 0
M  V30 6681 H 651.541 0.170957 3.11631 0
M  V30 6682 N 651.842 -1.52309 0.404946 0
M  V30 6683 C 652.774 -2.24579 -0.45791 0
M  V30 6684 C 653.787 -1.2739 -1.01369 0
M  V30 6685 O 654.976 -1.53363 -0.91335 0
M  V30 6686 C 652.076 -2.9608 -1.64893 0
M  V30 6687 C 651.249 -4.20106 -1.21777 0
M  V30 6688 C 650.308 -4.74468 -2.27523 0
M  V30 6689 O 649.334 -5.37157 -1.88285 0
M  V30 6690 N 650.536 -4.55678 -3.59635 0
M  V30 6691 H 653.301 -2.99265 0.161341 0
M  V30 6692 H 650.862 -1.60228 0.232107 0
M  V30 6693 H 652.854 -3.29344 -2.35191 0
M  V30 6694 H 651.424 -2.24606 -2.17419 0
M  V30 6695 H 650.644 -3.92704 -0.343071 0
M  V30 6696 H 651.932 -5.00658 -0.906596 0
M  V30 6697 H 651.33 -4.05673 -3.94266 0
M  V30 6698 H 649.887 -4.9339 -4.25922 0
M  V30 6699 N 653.32 -0.135238 -1.57019 0
M  V30 6700 C 654.545 0.529343 -2.00531 0
M  V30 6701 C 654.97 1.58391 -1.01459 0
M  V30 6702 O 654.328 1.81296 0.0113986 0
M  V30 6703 C 654.376 1.11748 -3.42848 0
M  V30 6704 O 653.48 2.23267 -3.46736 0
M  V30 6705 H 652.821 0.130669 -0.651016 0
M  V30 6706 H 655.351 -0.228503 -2.0332 0
M  V30 6707 H 655.361 1.44905 -3.81401 0
M  V30 6708 H 654.036 0.345147 -4.14465 0
M  V30 6709 H 652.613 1.91428 -3.20015 0
M  V30 6710 N 654.798 1.5699 0.138552 0
M  V30 6711 C 656.044 1.84081 0.85099 0
M  V30 6712 C 656.377 0.718107 1.80435 0
M  V30 6713 O 655.652 -0.277633 1.92508 0
M  V30 6714 C 655.935 3.21699 1.61808 0
M  V30 6715 C 655.788 4.44544 0.685633 0
M  V30 6716 C 657.107 3.5664 2.57868 0
M  V30 6717 H 654.226 0.669592 0.307922 0
M  V30 6718 H 656.868 1.89646 0.11588 0
M  V30 6719 H 655.018 3.17086 2.24474 0
M  V30 6720 H 656.69 4.61248 0.0693179 0
M  V30 6721 H 654.933 4.338 -0.00421993 0
M  V30 6722 H 655.604 5.3746 1.25858 0
M  V30 6723 H 658.08 3.61918 2.05316 0
M  V30 6724 H 656.956 4.53946 3.08584 0
M  V30 6725 H 657.217 2.83036 3.39622 0
M  V30 6726 N 656.276 -0.40816 1.52223 0
M  V30 6727 C 657.504 -1.17672 1.70179 0
M  V30 6728 C 657.919 -1.84257 0.411696 0
M  V30 6729 O 657.276 -1.7192 -0.612354 0
M  V30 6730 C 657.327 -2.23911 2.83806 0
M  V30 6731 O 657.048 -1.60044 4.0782 0
M  V30 6732 C 658.549 -3.1364 3.13281 0
M  V30 6733 H 655.769 -0.353562 0.570293 0
M  V30 6734 H 658.313 -0.480083 1.98785 0
M  V30 6735 H 656.468 -2.89242 2.57717 0
M  V30 6736 H 656.882 -2.30484 4.71145 0
M  V30 6737 H 658.356 -3.84255 3.96298 0
M  V30 6738 H 658.833 -3.76066 2.26872 0
M  V30 6739 H 659.439 -2.53977 3.41139 0
M  V30 6740 N 657.755 -1.42862 -0.66545 0
M  V30 6741 C 658.718 -1.46756 -1.76055 0
M  V30 6742 C 659.718 -0.353866 -1.56858 0
M  V30 6743 O 660.908 -0.615099 -1.62979 0
M  V30 6744 C 658.04 -1.30829 -3.14796 0
M  V30 6745 H 659.233 -2.44271 -1.73987 0
M  V30 6746 H 656.786 -1.29447 -0.875965 0
M  V30 6747 H 657.521 -0.342733 -3.22484 0
M  V30 6748 H 657.306 -2.11551 -3.30134 0
M  V30 6749 H 658.796 -1.36458 -3.94676 0
M  V30 6750 N 659.233 0.902656 -1.29189 0
M  V30 6751 C 660.473 1.6672 -1.18254 0
M  V30 6752 C 660.837 1.90199 0.262336 0
M  V30 6753 O 662.038 2.6421 0.494612 0
M  V30 6754 C 660.309 2.98178 -1.9704 0
M  V30 6755 S 661.868 3.89226 -2.02605 0
M  V30 6756 H 658.686 0.572432 -0.421714 0
M  V30 6757 H 661.288 1.07279 -1.63436 0
M  V30 6758 H 659.992 2.788 -3.01163 0
M  V30 6759 H 659.523 3.62661 -1.5245 0
M  V30 6760 H 661.538 4.82913 -1.14059 0
M  V30 6761 N 660.711 1.11618 1.11262 0
M  V30 6762 C 661.957 0.867463 1.83311 0
M  V30 6763 C 662.29 -0.605366 1.84524 0
M  V30 6764 O 661.565 -1.44704 1.29965 0
M  V30 6765 C 661.848 1.43207 3.30399 0
M  V30 6766 C 661.701 2.97265 3.3757 0
M  V30 6767 C 663.02 1.08454 4.26528 0
M  V30 6768 H 660.139 0.316578 0.665543 0
M  V30 6769 H 662.781 1.38137 1.30454 0
M  V30 6770 H 660.931 0.994982 3.75543 0
M  V30 6771 H 662.603 3.49591 3.00971 0
M  V30 6772 H 660.846 3.33237 2.77733 0
M  V30 6773 H 661.517 3.31859 4.41105 0
M  V30 6774 H 663.993 1.4619 3.89574 0
M  V30 6775 H 662.869 1.50633 5.27826 0
M  V30 6776 H 663.13 -0.00444568 4.421 0
M  V30 6777 N 662.189 -1.289 0.906776 0
M  V30 6778 C 663.435 -1.95558 0.53712 0
M  V30 6779 C 663.768 -1.71262 -0.915582 0
M  V30 6780 O 663.043 -1.02961 -1.65013 0
M  V30 6781 C 663.326 -3.50198 0.838645 0
M  V30 6782 C 663.179 -3.83923 2.34357 0
M  V30 6783 C 664.498 -4.38861 0.329988 0
M  V30 6784 H 661.617 -0.710289 0.196617 0
M  V30 6785 H 664.259 -1.52392 1.13475 0
M  V30 6786 H 662.409 -3.87096 0.330024 0
M  V30 6787 H 664.081 -3.56933 2.92227 0
M  V30 6788 H 662.324 -3.31215 2.80141 0
M  V30 6789 H 662.995 -4.91883 2.5051 0
M  V30 6790 H 665.471 -4.08996 0.765609 0
M  V30 6791 H 664.347 -5.45931 0.570105 0
M  V30 6792 H 664.608 -4.35352 -0.769511 0
M  V30 6793 N 663.667 -0.670007 -1.42649 0
M  V30 6794 C 665.078 -0.268118 -1.84765 0
M  V30 6795 C 665.429 1.18877 -1.56086 0
M  V30 6796 O 664.554 1.90947 -1.01825 0
M  V30 6797 C 665.149 -0.47984 -3.35385 0
M  V30 6798 C 663.708 -0.132116 -3.76168 0
M  V30 6799 C 662.855 -0.774611 -2.66261 0
M  V30 6800 H 665.806 -0.872509 -1.32563 0
M  V30 6801 H 665.827 0.269522 -3.79544 0
M  V30 6802 H 665.339 -1.54026 -3.56227 0
M  V30 6803 H 663.44 0.92505 -3.60934 0
M  V30 6804 H 663.553 -0.569294 -4.75706 0
M  V30 6805 H 661.917 -0.206353 -2.53863 0
M  V30 6806 H 662.7 -1.83839 -2.89928 0
M  V30 6807 N 665.145 1.52092 -0.413018 0
M  V30 6808 C 666.561 1.59471 -0.0640836 0
M  V30 6809 C 666.761 1.42562 1.42402 0
M  V30 6810 O 665.817 1.25453 2.19129 0
M  V30 6811 C 667.13 2.95392 -0.562474 0
M  V30 6812 C 668.678 3.08637 -0.520788 0
M  V30 6813 C 669.153 4.47044 -0.995752 0
M  V30 6814 N 670.644 4.53296 -0.952732 0
M  V30 6815 C 671.379 5.58669 -1.29138 0
M  V30 6816 N 670.875 6.71576 -1.70168 0
M  V30 6817 N 672.668 5.48898 -1.2111 0
M  V30 6818 H 664.819 1.6133 -1.38153 0
M  V30 6819 H 667.082 0.75916 -0.567785 0
M  V30 6820 H 666.788 3.13059 -1.60271 0
M  V30 6821 H 666.662 3.77191 0.0257875 0
M  V30 6822 H 669.049 2.90652 0.510412 0
M  V30 6823 H 669.13 2.28735 -1.14515 0
M  V30 6824 H 668.774 4.65773 -2.0253 0
M  V30 6825 H 668.704 5.25448 -0.348162 0
M  V30 6826 H 671.195 3.72248 -0.651119 0
M  V30 6827 H 671.508 7.47973 -1.9431 0
M  V30 6828 H 669.853 6.72847 -1.74075 0
M  V30 6829 H 673.044 4.59573 -0.889396 0
M  V30 6830 H 673.217 6.30912 -1.47833 0
M  V30 6831 N 666.623 0.143563 1.56945 0
M  V30 6832 C 667.553 -0.7936 2.196 0
M  V30 6833 C 668.534 -1.25955 1.14321 0
M  V30 6834 O 669.719 -1.31773 1.42651 0
M  V30 6835 C 666.849 -2.03424 2.81489 0
M  V30 6836 C 665.803 -1.70519 3.92565 0
M  V30 6837 C 665.129 -3.01817 4.41373 0
M  V30 6838 C 666.429 -0.95449 5.13504 0
M  V30 6839 H 668.123 -0.271423 2.98167 0
M  V30 6840 H 665.669 -0.12911 1.4342 0
M  V30 6841 H 667.622 -2.69463 3.23987 0
M  V30 6842 H 666.346 -2.58008 2.00248 0
M  V30 6843 H 665.005 -1.06859 3.5068 0
M  V30 6844 H 664.653 -3.54386 3.56959 0
M  V30 6845 H 664.353 -2.80565 5.16292 0
M  V30 6846 H 665.877 -3.68934 4.86539 0
M  V30 6847 H 667.291 -1.5169 5.52868 0
M  V30 6848 H 665.688 -0.842035 5.94163 0
M  V30 6849 H 666.758 0.0544033 4.84869 0
M  V30 6850 N 668.101 -1.57061 -0.130224 0
M  V30 6851 C 669.349 -1.83893 -0.838313 0
M  V30 6852 C 669.67 -0.727046 -1.80939 0
M  V30 6853 O 668.94 0.249927 -1.94299 0
M  V30 6854 H 667.52 -0.67846 -0.312573 0
M  V30 6855 H 670.182 -1.94529 -0.120224 0
M  V30 6856 H 669.278 -2.79419 -1.39038 0
M  V30 6857 N 669.579 0.400081 -1.52437 0
M  V30 6858 C 670.489 1.51253 -1.79331 0
M  V30 6859 C 671.505 1.60188 -0.679396 0
M  V30 6860 O 672.681 1.76733 -0.965791 0
M  V30 6861 C 669.746 2.869 -1.94652 0
M  V30 6862 C 668.807 2.87777 -3.18564 0
M  V30 6863 C 668.04 4.16954 -3.33145 0
M  V30 6864 O 668.263 5.11329 -2.52783 0
M  V30 6865 O 667.197 4.2487 -4.26343 0
M  V30 6866 H 671.023 1.31461 -2.73773 0
M  V30 6867 H 668.608 0.586834 -1.37392 0
M  V30 6868 H 670.49 3.67336 -2.065 0
M  V30 6869 H 669.165 3.06741 -1.034 0
M  V30 6870 H 668.072 2.06162 -3.12167 0
M  V30 6871 H 669.405 2.72886 -4.09627 0
M  V30 6872 N 671.057 1.43213 0.657864 0
M  V30 6873 C 672.285 1.48015 1.44566 0
M  V30 6874 C 672.7 0.0965951 1.88553 0
M  V30 6875 O 672.057 -0.892221 1.59203 0
M  V30 6876 C 672.108 2.42199 2.68369 0
M  V30 6877 O 671.829 3.75173 2.26223 0
M  V30 6878 C 673.33 2.56195 3.61772 0
M  V30 6879 H 670.55 0.502861 0.444266 0
M  V30 6880 H 673.094 1.87907 0.806917 0
M  V30 6881 H 671.249 2.05514 3.28394 0
M  V30 6882 H 671.663 4.25776 3.06293 0
M  V30 6883 H 673.137 3.26182 4.4532 0
M  V30 6884 H 673.614 1.60534 4.0881 0
M  V30 6885 H 674.22 2.93671 3.07632 0
M  V30 6886 N 672.536 -0.895792 1.29666 0
M  V30 6887 C 673.466 -2.01673 1.17688 0
M  V30 6888 C 674.447 -1.69955 0.0701317 0
M  V30 6889 O 675.632 -1.9258 0.250289 0
M  V30 6890 C 672.762 -3.36568 0.856681 0
M  V30 6891 C 671.716 -3.82509 1.92017 0
M  V30 6892 C 671.042 -5.14574 1.4532 0
M  V30 6893 C 672.342 -4.02409 3.32963 0
M  V30 6894 H 674.036 -2.11953 2.11463 0
M  V30 6895 H 671.582 -1.01839 1.01807 0
M  V30 6896 H 673.535 -4.14498 0.759577 0
M  V30 6897 H 672.259 -3.26391 -0.116763 0
M  V30 6898 H 670.918 -3.068 2.00673 0
M  V30 6899 H 670.566 -5.00815 0.468325 0
M  V30 6900 H 670.266 -5.46283 2.16447 0
M  V30 6901 H 671.79 -5.9504 1.36968 0
M  V30 6902 H 673.204 -4.70808 3.27127 0
M  V30 6903 H 671.601 -4.45478 4.02082 0
M  V30 6904 H 672.671 -3.06616 3.75652 0
M  V30 6905 N 674.014 -1.12206 -1.10668 0
M  V30 6906 C 675.239 -0.898938 -1.86906 0
M  V30 6907 C 675.664 0.546346 -1.79991 0
M  V30 6908 O 675.022 1.38655 -1.1681 0
M  V30 6909 C 675.07 -1.37529 -3.33344 0
M  V30 6910 O 674.174 -0.55218 -4.08687 0
M  V30 6911 H 673.515 -0.323163 -0.580053 0
M  V30 6912 H 676.045 -1.49355 -1.39837 0
M  V30 6913 H 676.055 -1.3733 -3.84193 0
M  V30 6914 H 674.73 -2.42767 -3.37693 0
M  V30 6915 H 673.307 -0.620947 -3.67694 0
M  V30 6916 N 675.492 1.28418 -0.913599 0
M  V30 6917 C 676.455 2.25564 -0.406624 0
M  V30 6918 C 677.455 1.5387 0.466965 0
M  V30 6919 O 678.645 1.72094 0.270042 0
M  V30 6920 C 675.777 3.38339 0.417053 0
M  V30 6921 H 676.97 2.71926 -1.26477 0
M  V30 6922 H 674.523 1.40098 -0.692986 0
M  V30 6923 H 675.258 2.97339 1.29461 0
M  V30 6924 H 675.043 3.91542 -0.209102 0
M  V30 6925 H 676.533 4.10578 0.762602 0
M  V30 6926 N 676.97 0.677563 1.42291 0
M  V30 6927 C 678.247 0.129803 1.95169 0
M  V30 6928 C 678.627 -1.35605 1.61786 0
M  V30 6929 O 677.975 -2.09361 0.915444 0
M  V30 6930 C 678.185 0.401889 3.46678 0
M  V30 6931 C 679.533 0.319889 4.23393 0
M  V30 6932 O 680.557 0.33579 3.54614 0
M  V30 6933 O 679.416 0.264459 5.4586 0
M  V30 6934 H 676.51 0.00447433 0.826988 0
M  V30 6935 H 679.056 0.752483 1.52105 0
M  V30 6936 H 677.828 1.43108 3.64192 0
M  V30 6937 H 677.451 -0.252662 3.96796 0
M  V30 6938 N 678.448 -1.51871 0.421078 0
M  V30 6939 C 679.411 -2.25914 -0.386712 0
M  V30 6940 C 680.411 -1.28733 -0.963555 0
M  V30 6941 O 681.601 -1.52579 -0.840556 0
M  V30 6942 C 678.733 -3.03853 -1.54551 0
M  V30 6943 H 679.926 -2.98754 0.261978 0
M  V30 6944 H 677.479 -1.5533 0.173862 0
M  V30 6945 H 678.214 -2.35392 -2.23072 0
M  V30 6946 H 677.999 -3.75215 -1.13824 0
M  V30 6947 H 679.489 -3.59984 -2.11663 0
M  V30 6948 N 679.926 -0.151884 -1.56866 0
M  V30 6949 C 680.856 0.781943 -2.20018 0
M  V30 6950 C 681.837 1.25347 -1.14987 0
M  V30 6951 O 683.022 1.31015 -1.43348 0
M  V30 6952 C 680.152 2.01928 -2.82564 0
M  V30 6953 C 679.106 1.68434 -3.93464 0
M  V30 6954 C 678.432 2.99472 -4.42968 0
M  V30 6955 C 679.732 0.927244 -5.14003 0
M  V30 6956 H 681.426 0.255607 -2.98307 0
M  V30 6957 H 678.972 0.121502 -1.43486 0
M  V30 6958 H 680.925 2.67741 -3.25411 0
M  V30 6959 H 679.649 2.56943 -2.01614 0
M  V30 6960 H 678.308 1.04998 -3.51242 0
M  V30 6961 H 677.956 3.52488 -3.58834 0
M  V30 6962 H 677.656 2.77823 -5.17772 0
M  V30 6963 H 679.18 3.66348 -4.88489 0
M  V30 6964 H 680.594 1.48756 -5.53665 0
M  V30 6965 H 678.991 0.810513 -5.94601 0
M  V30 6966 H 680.061 -0.0801163 -4.84834 0
M  V30 6967 N 681.404 1.57128 0.121893 0
M  V30 6968 C 682.681 1.75664 0.860327 0
M  V30 6969 C 683.061 0.726585 1.98202 0
M  V30 6970 O 682.409 -0.24999 2.27128 0
M  V30 6971 C 682.619 3.20571 1.37968 0
M  V30 6972 C 683.967 3.82988 1.83317 0
M  V30 6973 O 684.991 3.24156 1.47654 0
M  V30 6974 O 683.85 4.86393 2.49168 0
M  V30 6975 H 680.944 0.719153 0.408348 0
M  V30 6976 H 683.49 1.6937 0.105859 0
M  V30 6977 H 682.262 3.87056 0.57477 0
M  V30 6978 H 681.885 3.31392 2.19694 0
M  V30 6979 N 682.882 -0.391992 1.52647 0
M  V30 6980 C 684.11 -1.1586 1.71418 0
M  V30 6981 C 684.525 -1.8381 0.431216 0
M  V30 6982 O 683.882 -1.7256 -0.594085 0
M  V30 6983 C 683.933 -2.20888 2.86165 0
M  V30 6984 O 683.654 -1.5571 4.09495 0
M  V30 6985 C 685.155 -3.103 3.1659 0
M  V30 6986 H 682.375 -0.347494 0.574011 0
M  V30 6987 H 684.919 -0.458972 1.99283 0
M  V30 6988 H 683.074 -2.86492 2.6077 0
M  V30 6989 H 683.488 -2.25474 4.73563 0
M  V30 6990 H 684.962 -3.8003 4.00351 0
M  V30 6991 H 685.439 -3.73639 2.30848 0
M  V30 6992 H 686.045 -2.50345 3.43813 0
M  V30 6993 N 684.36 -1.4356 -0.65026 0
M  V30 6994 C 685.607 -1.45333 -1.41012 0
M  V30 6995 C 685.935 -0.0787282 -1.94341 0
M  V30 6996 O 685.19 0.916715 -1.72901 0
M  V30 6997 C 685.489 -2.44528 -2.60654 0
M  V30 6998 C 685.155 -3.90331 -2.25727 0
M  V30 6999 C 683.817 -4.3004 -2.15914 0
M  V30 7000 C 686.169 -4.822 -1.97821 0
M  V30 7001 C 683.497 -5.59568 -1.76354 0
M  V30 7002 C 685.849 -6.12095 -1.59759 0
M  V30 7003 C 684.513 -6.50778 -1.48473 0
M  V30 7004 H 683.783 -0.531813 -0.516 0
M  V30 7005 H 686.43 -1.76657 -0.739219 0
M  V30 7006 H 684.735 -2.06619 -3.3289 0
M  V30 7007 H 686.432 -2.43155 -3.18868 0
M  V30 7008 H 683.022 -3.58905 -2.34276 0
M  V30 7009 H 687.206 -4.5229 -2.04322 0
M  V30 7010 H 682.462 -5.88376 -1.66205 0
M  V30 7011 H 686.636 -6.82751 -1.37198 0
M  V30 7012 H 684.263 -7.5105 -1.17591 0
M  V30 7013 N 685.838 0.888903 -1.30139 0
M  V30 7014 C 687.078 1.65456 -1.20015 0
M  V30 7015 C 687.442 1.90467 0.242148 0
M  V30 7016 O 688.643 2.6472 0.466561 0
M  V30 7017 C 686.914 2.96071 -2.00191 0
M  V30 7018 S 688.473 3.87055 -2.06721 0
M  V30 7019 H 685.291 0.567927 -0.427761 0
M  V30 7020 H 687.893 1.05539 -1.64565 0
M  V30 7021 H 686.597 2.7559 -3.04103 0
M  V30 7022 H 686.128 3.61023 -1.56288 0
M  V30 7023 H 688.143 4.81676 -1.19174 0
M  V30 7024 N 687.317 1.12792 1.10072 0
M  V30 7025 C 688.733 0.864745 1.34143 0
M  V30 7026 C 688.933 -0.503201 1.95116 0
M  V30 7027 O 687.989 -1.25111 2.19325 0
M  V30 7028 C 689.302 1.98413 2.25949 0
M  V30 7029 C 690.85 2.01545 2.39476 0
M  V30 7030 C 691.325 3.12727 3.34613 0
M  V30 7031 N 692.816 3.12194 3.42183 0
M  V30 7032 C 693.551 3.94862 4.15779 0
M  V30 7033 N 693.047 4.87528 4.92228 0
M  V30 7034 N 694.84 3.82985 4.11435 0
M  V30 7035 H 686.991 2.00926 0.68866 0
M  V30 7036 H 689.254 0.874564 0.365844 0
M  V30 7037 H 688.96 2.97005 1.88364 0
M  V30 7038 H 688.834 1.89254 3.26287 0
M  V30 7039 H 691.221 1.0357 2.76328 0
M  V30 7040 H 691.302 2.14777 1.3894 0
M  V30 7041 H 690.946 4.10936 2.98486 0
M  V30 7042 H 690.876 2.96732 4.35037 0
M  V30 7043 H 693.367 2.45065 2.87666 0
M  V30 7044 H 693.68 5.47109 5.45794 0
M  V30 7045 H 692.025 4.91539 4.9134 0
M  V30 7046 H 695.216 3.09923 3.50807 0
M  V30 7047 H 695.389 4.47641 4.68531 0
M  V30 7048 N 688.795 -1.27931 0.920396 0
M  V30 7049 C 690.02 -1.99343 0.572478 0
M  V30 7050 C 690.445 -1.68267 -0.840696 0
M  V30 7051 O 689.803 -0.918805 -1.56294 0
M  V30 7052 C 689.851 -3.51698 0.796284 0
M  V30 7053 O 688.955 -4.12157 -0.141602 0
M  V30 7054 H 688.296 -0.626065 0.221221 0
M  V30 7055 H 690.826 -1.62921 1.23765 0
M  V30 7056 H 690.836 -4.01793 0.708984 0
M  V30 7057 H 689.511 -3.73649 1.82644 0
M  V30 7058 H 688.088 -3.729 -0.005007 0
M  V30 7059 N 690.273 -0.685099 -1.4193 0
M  V30 7060 C 691.498 -0.218842 -2.06242 0
M  V30 7061 C 691.923 1.11923 -1.51178 0
M  V30 7062 O 691.281 1.69837 -0.634446 0
M  V30 7063 C 691.329 -0.175592 -3.60172 0
M  V30 7064 O 690.433 0.852776 -4.03487 0
M  V30 7065 H 689.774 -0.109531 -0.654904 0
M  V30 7066 H 692.304 -0.937013 -1.81882 0
M  V30 7067 H 692.314 -0.00291151 -4.08 0
M  V30 7068 H 690.989 -1.15222 -3.99621 0
M  V30 7069 H 689.566 0.650301 -3.67186 0
M  V30 7070 N 691.751 1.51645 -0.429126 0
M  V30 7071 C 692.661 2.31288 0.392809 0
M  V30 7072 C 693.677 1.39852 1.03525 0
M  V30 7073 O 694.853 1.72926 1.03241 0
M  V30 7074 C 691.918 3.13347 1.48372 0
M  V30 7075 C 690.979 4.20551 0.862268 0
M  V30 7076 C 690.212 4.98688 1.9012 0
M  V30 7077 O 690.435 4.77359 3.12225 0
M  V30 7078 O 689.369 5.83005 1.4963 0
M  V30 7079 H 693.195 3.02609 -0.257138 0
M  V30 7080 H 690.78 1.48163 -0.191851 0
M  V30 7081 H 692.662 3.64387 2.1166 0
M  V30 7082 H 691.337 2.44799 2.1179 0
M  V30 7083 H 690.244 3.73609 0.191568 0
M  V30 7084 H 691.577 4.91449 0.271704 0
M  V30 7085 N 693.229 0.160201 1.56784 0
M  V30 7086 C 694.159 -0.770264 2.2043 0
M  V30 7087 C 695.14 -1.24736 1.15651 0
M  V30 7088 O 696.325 -1.30253 1.44041 0
M  V30 7089 C 693.455 -2.00427 2.83631 0
M  V30 7090 C 692.409 -1.66345 3.94352 0
M  V30 7091 C 691.735 -2.97119 4.4455 0
M  V30 7092 C 693.035 -0.899972 5.14488 0
M  V30 7093 H 694.729 -0.239783 2.98438 0
M  V30 7094 H 692.275 -0.113891 1.43549 0
M  V30 7095 H 694.228 -2.66012 3.26827 0
M  V30 7096 H 692.952 -2.5587 2.02973 0
M  V30 7097 H 691.611 -1.03133 3.51794 0
M  V30 7098 H 691.259 -3.5058 3.60698 0
M  V30 7099 H 690.959 -2.75073 5.19238 0
M  V30 7100 H 692.483 -3.63753 4.90425 0
M  V30 7101 H 693.897 -1.45818 5.54446 0
M  V30 7102 H 692.294 -0.778968 5.95023 0
M  V30 7103 H 693.364 0.105827 4.84785 0
M  V30 7104 N 694.707 -1.5719 -0.113559 0
M  V30 7105 C 695.67 -1.99796 -1.12314 0
M  V30 7106 C 696.67 -0.888847 -1.34001 0
M  V30 7107 O 697.86 -1.15476 -1.30426 0
M  V30 7108 C 694.992 -2.34279 -2.47641 0
M  V30 7109 H 696.185 -2.90193 -0.756825 0
M  V30 7110 H 693.738 -1.52144 -0.358029 0
M  V30 7111 H 694.473 -1.46778 -2.89183 0
M  V30 7112 H 694.258 -3.15175 -2.33253 0
M  V30 7113 H 695.748 -2.67963 -3.2029 0
M  V30 7114 N 696.185 0.383891 -1.52853 0
M  V30 7115 C 697.462 1.14296 -1.58732 0
M  V30 7116 C 697.842 2.07585 -0.383611 0
M  V30 7117 O 697.19 2.1971 0.627661 0
M  V30 7118 C 697.4 1.89816 -2.92867 0
M  V30 7119 C 698.748 2.44998 -3.46787 0
M  V30 7120 O 699.772 1.99966 -2.94774 0
M  V30 7121 O 698.631 3.2727 -4.37672 0
M  V30 7122 H 695.725 0.52326 -0.640413 0
M  V30 7123 H 698.271 0.388631 -1.6519 0
M  V30 7124 H 697.043 1.21626 -3.71918 0
M  V30 7125 H 696.666 2.72199 -2.89816 0
M  V30 7126 N 697.663 1.43903 0.642637 0
M  V30 7127 C 698.91 1.46079 1.40239 0
M  V30 7128 C 699.238 0.0890335 1.94296 0
M  V30 7129 O 698.493 -0.907533 1.73385 0
M  V30 7130 C 698.792 2.45907 2.59354 0
M  V30 7131 C 698.458 3.91522 2.23654 0
M  V30 7132 C 697.12 4.31179 2.1363 0
M  V30 7133 C 699.472 4.83242 1.95261 0
M  V30 7134 C 696.8 5.60495 1.73384 0
M  V30 7135 C 699.152 6.12933 1.56511 0
M  V30 7136 C 697.816 6.51556 1.4502 0
M  V30 7137 H 697.086 0.534542 0.513172 0
M  V30 7138 H 699.733 1.77047 0.72984 0
M  V30 7139 H 698.038 2.08381 3.3179 0
M  V30 7140 H 699.735 2.44842 3.17574 0
M  V30 7141 H 696.325 3.60142 2.32369 0
M  V30 7142 H 700.509 4.53367 2.0192 0
M  V30 7143 H 695.765 5.89249 1.63082 0
M  V30 7144 H 699.939 6.83469 1.33576 0
M  V30 7145 H 697.566 7.51663 1.13606 0
M  V30 7146 N 699.141 -0.881989 1.30609 0
M  V30 7147 C 700.088 -1.98803 1.17244 0
M  V30 7148 C 701.058 -1.65987 0.0611905 0
M  V30 7149 O 702.243 -1.89385 0.231911 0
M  V30 7150 C 699.383 -3.33867 0.87333 0
M  V30 7151 C 698.496 -3.79354 2.06675 0
M  V30 7152 C 697.631 -5.03078 1.70547 0
M  V30 7153 C 696.67 -5.40981 2.86366 0
M  V30 7154 N 695.807 -6.55886 2.50514 0
M  V30 7155 H 700.647 -2.09566 2.11863 0
M  V30 7156 H 698.184 -1.02607 1.05405 0
M  V30 7157 H 700.142 -4.11612 0.680519 0
M  V30 7158 H 698.772 -3.2278 -0.0359983 0
M  V30 7159 H 697.824 -2.97492 2.37071 0
M  V30 7160 H 699.136 -4.03382 2.93401 0
M  V30 7161 H 698.29 -5.88457 1.47658 0
M  V30 7162 H 697.029 -4.80927 0.809947 0
M  V30 7163 H 696.034 -4.54127 3.09917 0
M  V30 7164 H 697.259 -5.65104 3.76609 0
M  V30 7165 H 695.205 -6.35306 1.63471 0
M  V30 7166 H 695.122 -6.79799 3.30771 0
M  V30 7167 H 696.39 -7.44489 2.30989 0
M  V30 7168 N 700.619 -1.13374 -1.09472 0
M  V30 7169 C 702.035 -0.871846 -1.33682 0
M  V30 7170 C 702.235 0.492847 -1.9538 0
M  V30 7171 O 701.291 1.23946 -2.19985 0
M  V30 7172 C 702.604 -1.99608 -2.24893 0
M  V30 7173 C 704.152 -2.02812 -2.38404 0
M  V30 7174 C 704.627 -3.14497 -3.3295 0
M  V30 7175 N 706.118 -3.14004 -3.40523 0
M  V30 7176 C 706.853 -3.97061 -4.13679 0
M  V30 7177 N 706.349 -4.90131 -4.89636 0
M  V30 7178 N 708.142 -3.85162 -4.09398 0
M  V30 7179 H 700.293 -2.01288 -0.677995 0
M  V30 7180 H 702.556 -0.876492 -0.361201 0
M  V30 7181 H 702.262 -2.98 -1.86786 0
M  V30 7182 H 702.136 -1.90981 -3.25278 0
M  V30 7183 H 704.523 -1.05034 -2.75775 0
M  V30 7184 H 704.604 -2.15511 -1.37799 0
M  V30 7185 H 704.248 -4.12514 -2.96302 0
M  V30 7186 H 704.178 -2.99035 -4.33458 0
M  V30 7187 H 706.669 -2.46587 -2.86362 0
M  V30 7188 H 706.982 -5.49996 -5.42885 0
M  V30 7189 H 705.327 -4.94138 -4.88726 0
M  V30 7190 H 708.518 -3.11779 -3.49158 0
M  V30 7191 H 708.691 -4.5012 -4.6615 0
M  V30 7192 N 702.098 1.27442 -0.927168 0
M  V30 7193 C 703.509 1.76385 -0.611979 0
M  V30 7194 C 703.86 1.75715 0.872853 0
M  V30 7195 O 702.985 1.3603 1.683 0
M  V30 7196 C 703.58 3.20303 -1.10414 0
M  V30 7197 C 702.139 3.66916 -0.839628 0
M  V30 7198 C 701.286 2.46859 -1.26317 0
M  V30 7199 H 704.237 1.13716 -1.107 0
M  V30 7200 H 704.258 3.77811 -0.451578 0
M  V30 7201 H 703.77 3.20759 -2.18484 0
M  V30 7202 H 701.871 3.71906 0.227292 0
M  V30 7203 H 701.984 4.56415 -1.45679 0
M  V30 7204 H 700.348 2.45407 -0.681723 0
M  V30 7205 H 701.131 2.50025 -2.3525 0
M  V30 7206 N 703.576 0.692616 1.41565 0
M  V30 7207 C 704.523 0.0254264 2.30786 0
M  V30 7208 C 705.493 -0.774347 1.46946 0
M  V30 7209 O 706.678 -0.742981 1.7574 0
M  V30 7210 C 703.818 -0.907123 3.32964 0
M  V30 7211 C 702.931 -0.0992784 4.31886 0
M  V30 7212 C 702.066 -1.0292 5.21134 0
M  V30 7213 C 701.105 -0.214088 6.11725 0
M  V30 7214 N 700.242 -1.09766 6.93467 0
M  V30 7215 H 705.082 0.792036 2.87282 0
M  V30 7216 H 702.619 0.4023 1.41492 0
M  V30 7217 H 704.577 -1.46181 3.90752 0
M  V30 7218 H 703.207 -1.64016 2.78026 0
M  V30 7219 H 702.259 0.572287 3.76071 0
M  V30 7220 H 703.571 0.532782 4.95946 0
M  V30 7221 H 702.725 -1.65321 5.83741 0
M  V30 7222 H 701.464 -1.69512 4.57293 0
M  V30 7223 H 700.469 0.42302 5.4817 0
M  V30 7224 H 701.694 0.447995 6.77621 0
M  V30 7225 H 699.64 -1.74965 6.32237 0
M  V30 7226 H 699.557 -0.521099 7.54202 0
M  V30 7227 H 700.825 -1.70858 7.60544 0
M  V30 7228 N 705.054 -1.51416 0.437162 0
M  V30 7229 C 706.47 -1.59349 0.0894459 0
M  V30 7230 C 706.67 -1.44809 -1.40116 0
M  V30 7231 O 705.726 -1.28924 -2.17106 0
M  V30 7232 C 707.039 -2.9446 0.609398 0
M  V30 7233 C 708.587 -3.07769 0.569824 0
M  V30 7234 C 709.062 -4.45404 1.06675 0
M  V30 7235 N 710.553 -4.51723 1.02473 0
M  V30 7236 C 711.288 -5.56544 1.3801 0
M  V30 7237 N 710.784 -6.68784 1.80831 0
M  V30 7238 N 712.577 -5.46901 1.29828 0
M  V30 7239 H 704.728 -1.59112 1.40703 0
M  V30 7240 H 706.991 -0.750031 0.579791 0
M  V30 7241 H 706.697 -3.1047 1.65231 0
M  V30 7242 H 706.571 -3.77184 0.0342236 0
M  V30 7243 H 708.958 -2.91428 -0.464107 0
M  V30 7244 H 709.039 -2.26885 1.1814 0
M  V30 7245 H 708.683 -4.62492 2.09914 0
M  V30 7246 H 708.613 -5.24827 0.431712 0
M  V30 7247 H 711.104 -3.71165 0.710258 0
M  V30 7248 H 711.417 -7.44787 2.06185 0
M  V30 7249 H 709.762 -6.69992 1.84757 0
M  V30 7250 H 712.953 -4.581 0.962397 0
M  V30 7251 H 713.126 -6.2848 1.57851 0
M  V30 7252 N 706.532 -0.168513 -1.56696 0
M  V30 7253 C 707.762 0.482802 -2.0088 0
M  V30 7254 C 708.17 1.57537 -1.0478 0
M  V30 7255 O 707.513 1.83656 -0.0402746 0
M  V30 7256 C 707.575 1.1236 -3.4149 0
M  V30 7257 C 707.239 0.173027 -4.56672 0
M  V30 7258 C 708.236 -0.607565 -5.16338 0
M  V30 7259 C 705.921 0.0696691 -5.02252 0
M  V30 7260 C 707.915 -1.47874 -6.2001 0
M  V30 7261 C 705.602 -0.805096 -6.05773 0
M  V30 7262 C 706.6 -1.57789 -6.64524 0
M  V30 7263 O 706.288 -2.43804 -7.66038 0
M  V30 7264 H 706.02 0.128246 -0.663723 0
M  V30 7265 H 708.574 -0.266532 -2.03663 0
M  V30 7266 H 706.804 1.921 -3.35611 0
M  V30 7267 H 708.493 1.67683 -3.69645 0
M  V30 7268 H 709.259 -0.53787 -4.82008 0
M  V30 7269 H 705.138 0.660957 -4.56237 0
M  V30 7270 H 708.682 -2.0824 -6.65794 0
M  V30 7271 H 704.579 -0.876005 -6.39528 0
M  V30 7272 H 705.347 -2.37289 -7.83349 0
M  V30 7273 N 708.01 1.57248 0.105221 0
M  V30 7274 C 709.257 1.8557 0.810552 0
M  V30 7275 C 709.585 0.755595 1.79223 0
M  V30 7276 O 708.84 -0.251788 1.94073 0
M  V30 7277 C 709.139 3.20437 1.58287 0
M  V30 7278 C 708.805 4.44716 0.744235 0
M  V30 7279 C 707.467 4.78458 0.513013 0
M  V30 7280 C 709.819 5.20953 0.160578 0
M  V30 7281 C 707.147 5.8587 -0.311894 0
M  V30 7282 C 709.499 6.29235 -0.651596 0
M  V30 7283 C 708.163 6.615 -0.893005 0
M  V30 7284 H 707.433 0.67905 0.296602 0
M  V30 7285 H 710.08 1.91363 0.0723968 0
M  V30 7286 H 708.385 3.10283 2.39232 0
M  V30 7287 H 710.082 3.39576 2.13282 0
M  V30 7288 H 706.672 4.18287 0.934555 0
M  V30 7289 H 710.856 4.95226 0.3264 0
M  V30 7290 H 706.112 6.09286 -0.508012 0
M  V30 7291 H 710.286 6.87484 -1.11077 0
M  V30 7292 H 707.913 7.44562 -1.53401 0
M  V30 7293 N 709.488 -0.375779 1.53054 0
M  V30 7294 C 710.737 -1.11674 1.67964 0
M  V30 7295 C 711.05 -1.90755 0.432655 0
M  V30 7296 O 712.256 -2.67538 0.462109 0
M  V30 7297 C 710.712 -2.0344 2.96884 0
M  V30 7298 C 710.32 -1.29719 4.28809 0
M  V30 7299 C 712.064 -2.7759 3.2116 0
M  V30 7300 C 709.971 -2.20327 5.48826 0
M  V30 7301 H 708.901 -0.420597 0.625791 0
M  V30 7302 H 711.552 -0.378499 1.79554 0
M  V30 7303 H 709.934 -2.80953 2.79072 0
M  V30 7304 H 711.108 -0.573394 4.57219 0
M  V30 7305 H 709.423 -0.674735 4.10897 0
M  V30 7306 H 712.02 -3.4559 4.0801 0
M  V30 7307 H 712.363 -3.42399 2.36789 0
M  V30 7308 H 712.896 -2.07164 3.396 0
M  V30 7309 H 709.635 -1.60113 6.35645 0
M  V30 7310 H 709.155 -2.90585 5.2471 0
M  V30 7311 H 710.834 -2.80116 5.83219 0
M  V30 7312 N 710.966 -1.44241 -0.634997 0
M  V30 7313 C 711.896 -1.53632 -1.7584 0
M  V30 7314 C 712.877 -0.389603 -1.65578 0
M  V30 7315 O 714.062 -0.609219 -1.84397 0
M  V30 7316 C 711.192 -1.47644 -3.14354 0
M  V30 7317 C 710.146 -2.60752 -3.394 0
M  V30 7318 C 709.472 -2.39817 -4.77904 0
M  V30 7319 C 710.772 -4.02921 -3.32343 0
M  V30 7320 H 712.466 -2.47662 -1.68238 0
M  V30 7321 H 710.012 -1.19197 -0.807969 0
M  V30 7322 H 711.965 -1.52815 -3.92716 0
M  V30 7323 H 710.689 -0.501284 -3.2273 0
M  V30 7324 H 709.348 -2.54965 -2.63417 0
M  V30 7325 H 708.996 -1.40502 -4.82978 0
M  V30 7326 H 708.696 -3.15649 -4.9562 0
M  V30 7327 H 710.22 -2.46799 -5.585 0
M  V30 7328 H 711.634 -4.10098 -4.00615 0
M  V30 7329 H 710.031 -4.78925 -3.61595 0
M  V30 7330 H 711.101 -4.26766 -2.30215 0
M  V30 7331 N 712.444 0.87505 -1.31075 0
M  V30 7332 C 713.721 1.60976 -1.11113 0
M  V30 7333 C 714.101 2.08409 0.336006 0
M  V30 7334 O 713.449 1.85858 1.32924 0
M  V30 7335 C 713.659 2.77166 -2.12085 0
M  V30 7336 C 715.007 3.47254 -2.44335 0
M  V30 7337 O 716.031 2.87367 -2.10472 0
M  V30 7338 O 714.89 4.55276 -3.02301 0
M  V30 7339 H 711.984 0.707982 -0.427424 0
M  V30 7340 H 714.53 0.920957 -1.42536 0
M  V30 7341 H 713.302 2.39494 -3.09449 0
M  V30 7342 H 712.925 3.53737 -1.81538 0
M  V30 7343 N 713.922 1.13953 1.08869 0
M  V30 7344 C 714.854 0.779906 2.15523 0
M  V30 7345 C 715.867 -0.20102 1.61554 0
M  V30 7346 O 717.056 0.0200049 1.78489 0
M  V30 7347 C 714.156 0.136226 3.38626 0
M  V30 7348 C 713.329 1.15069 4.21993 0
M  V30 7349 C 712.388 0.531645 5.23507 0
M  V30 7350 O 711.414 1.19327 5.56552 0
M  V30 7351 N 712.616 -0.693734 5.7634 0
M  V30 7352 H 715.381 1.69769 2.46979 0
M  V30 7353 H 712.942 1.03331 1.24637 0
M  V30 7354 H 714.934 -0.290295 4.03658 0
M  V30 7355 H 713.504 -0.684603 3.05011 0
M  V30 7356 H 712.724 1.75431 3.53012 0
M  V30 7357 H 714.012 1.83614 4.74514 0
M  V30 7358 H 713.41 -1.24994 5.51718 0
M  V30 7359 H 711.967 -1.06283 6.43076 0
M  V30 7360 N 715.4 -1.26948 0.933913 0
M  V30 7361 C 716.33 -2.29017 0.45534 0
M  V30 7362 C 717.311 -1.62961 -0.487605 0
M  V30 7363 O 718.496 -1.90223 -0.391022 0
M  V30 7364 C 715.626 -3.46112 -0.287015 0
M  V30 7365 C 714.58 -4.24205 0.568682 0
M  V30 7366 C 713.906 -5.3384 -0.303206 0
M  V30 7367 C 715.206 -4.88954 1.83633 0
M  V30 7368 H 716.9 -2.69298 1.30839 0
M  V30 7369 H 714.446 -1.29459 0.630579 0
M  V30 7370 H 716.399 -4.16622 -0.6328 0
M  V30 7371 H 715.123 -3.04765 -1.17414 0
M  V30 7372 H 713.782 -3.5545 0.897261 0
M  V30 7373 H 713.43 -4.88734 -1.18947 0
M  V30 7374 H 713.13 -5.86998 0.265879 0
M  V30 7375 H 714.654 -6.0719 -0.644423 0
M  V30 7376 H 716.068 -5.51717 1.55823 0
M  V30 7377 H 714.465 -5.52198 2.34941 0
M  V30 7378 H 715.535 -4.12305 2.55211 0
M  V30 7379 N 716.879 -0.700114 -1.41195 0
M  V30 7380 C 718.29 -0.307249 -1.84154 0
M  V30 7381 C 718.641 1.15539 -1.58572 0
M  V30 7382 O 717.766 1.88744 -1.05852 0
M  V30 7383 C 718.361 -0.550872 -3.34292 0
M  V30 7384 C 716.92 -0.211877 -3.75803 0
M  V30 7385 C 716.067 -0.830915 -2.64558 0
M  V30 7386 H 719.018 -0.900431 -1.30683 0
M  V30 7387 H 719.039 0.188954 -3.80031 0
M  V30 7388 H 718.551 -1.61548 -3.5288 0
M  V30 7389 H 716.652 0.848283 -3.62815 0
M  V30 7390 H 716.765 -0.67007 -4.74391 0
M  V30 7391 H 715.129 -0.260155 -2.53368 0
M  V30 7392 H 715.912 -1.89948 -2.85963 0
M  V30 7393 N 718.357 1.51182 -0.445186 0
M  V30 7394 C 719.304 2.27939 0.362291 0
M  V30 7395 C 720.274 1.31864 1.01 0
M  V30 7396 O 721.459 1.60776 1.02741 0
M  V30 7397 C 718.599 3.13016 1.45311 0
M  V30 7398 C 717.712 4.24093 0.822757 0
M  V30 7399 C 716.847 4.96467 1.88928 0
M  V30 7400 C 715.886 5.99454 1.23778 0
M  V30 7401 N 715.023 6.65206 2.24602 0
M  V30 7402 H 719.863 2.965 -0.29862 0
M  V30 7403 H 717.4 1.46237 -0.15911 0
M  V30 7404 H 719.358 3.60673 2.09692 0
M  V30 7405 H 717.988 2.46553 2.08354 0
M  V30 7406 H 717.04 3.80341 0.0670364 0
M  V30 7407 H 718.352 4.97853 0.307184 0
M  V30 7408 H 717.506 5.47712 2.60953 0
M  V30 7409 H 716.245 4.22355 2.4386 0
M  V30 7410 H 715.25 5.47494 0.503042 0
M  V30 7411 H 716.475 6.75527 0.695694 0
M  V30 7412 H 714.421 5.93901 2.78599 0
M  V30 7413 H 714.338 7.34756 1.77958 0
M  V30 7414 H 715.606 7.21078 2.96085 0
M  V30 7415 N 719.835 0.176821 1.56605 0
M  V30 7416 C 720.783 -0.768159 2.1955 0
M  V30 7417 C 721.777 -1.23343 1.16116 0
M  V30 7418 O 722.983 -1.19844 1.34303 0
M  V30 7419 H 719.358 -0.266013 0.703378 0
M  V30 7420 H 721.329 -0.213374 2.97636 0
M  V30 7421 C 720.078 -1.98492 2.85475 0
M  V30 7422 H 719.401 -1.63595 3.64797 0
M  V30 7423 H 720.841 -2.62489 3.3298 0
M  V30 7424 C 719.3 -2.81207 1.85538 0
M  V30 7425 O 719.83 -3.7854 1.34427 0
M  V30 7426 N 718.036 -2.46331 1.54173 0
M  V30 7427 H 717.583 -1.67241 1.95929 0
M  V30 7428 H 717.541 -3.01961 0.875595 0
M  V30 7429 N 721.313 -1.57302 -0.09688 0
M  V30 7430 C 722.276 -2.00976 -1.10188 0
M  V30 7431 C 723.276 -0.903009 -1.3305 0
M  V30 7432 O 724.466 -1.16853 -1.29194 0
M  V30 7433 C 721.598 -2.36893 -2.45142 0
M  V30 7434 H 722.791 -2.9098 -0.726003 0
M  V30 7435 H 720.344 -1.52515 -0.341872 0
M  V30 7436 H 721.079 -1.49837 -2.8761 0
M  V30 7437 H 720.864 -3.17632 -2.29897 0
M  V30 7438 H 722.354 -2.71345 -3.1743 0
M  V30 7439 N 722.791 0.367657 -1.53252 0
M  V30 7440 C 723.721 1.45632 -1.8252 0
M  V30 7441 C 724.702 1.55979 -0.678568 0
M  V30 7442 O 725.887 1.70581 -0.928217 0
M  V30 7443 C 723.017 2.82994 -2.01325 0
M  V30 7444 C 721.971 2.87473 -3.17086 0
M  V30 7445 C 721.297 4.2749 -3.21179 0
M  V30 7446 C 722.597 2.55182 -4.55719 0
M  V30 7447 H 724.291 1.21387 -2.73689 0
M  V30 7448 H 721.837 0.58251 -1.31692 0
M  V30 7449 H 723.79 3.59179 -2.20383 0
M  V30 7450 H 722.514 3.08622 -1.06864 0
M  V30 7451 H 721.173 2.13739 -2.97844 0
M  V30 7452 H 720.821 4.5019 -2.24361 0
M  V30 7453 H 720.521 4.31403 -3.98955 0
M  V30 7454 H 722.045 5.0555 -3.42419 0
M  V30 7455 H 723.459 3.21081 -4.74953 0
M  V30 7456 H 721.856 2.70414 -5.3572 0
M  V30 7457 H 722.926 1.5044 -4.60973 0
M  V30 7458 N 724.269 1.44576 0.627338 0
M  V30 7459 C 725.217 1.52039 1.76031 0
M  V30 7460 C 726.211 0.391796 1.64807 0
M  V30 7461 O 727.417 0.5669 1.7084 0
M  V30 7462 H 723.792 0.477165 0.581221 0
M  V30 7463 H 725.763 2.47387 1.6686 0
M  V30 7464 C 724.512 1.48539 3.14375 0
M  V30 7465 H 723.835 2.34699 3.23661 0
M  V30 7466 H 725.275 1.57821 3.93534 0
M  V30 7467 C 723.734 0.20672 3.36265 0
M  V30 7468 O 724.264 -0.72154 3.95167 0
M  V30 7469 N 722.47 0.108654 2.90397 0
M  V30 7470 H 722.017 0.864884 2.42647 0
M  V30 7471 H 721.975 -0.746121 3.05418 0
M  V30 7472 N 725.747 -0.868086 1.31537 0
M  V30 7473 C 726.694 -1.97548 1.19346 0
M  V30 7474 C 727.664 -1.65913 0.0787922 0
M  V30 7475 O 728.849 -1.89129 0.251985 0
M  V30 7476 C 725.989 -3.32922 0.908692 0
M  V30 7477 C 725.102 -3.77141 2.10687 0
M  V30 7478 C 724.237 -5.01241 1.75873 0
M  V30 7479 C 723.276 -5.37914 2.92088 0
M  V30 7480 N 722.413 -6.53192 2.57457 0
M  V30 7481 H 727.253 -2.07307 2.14074 0
M  V30 7482 H 724.79 -1.01483 1.06487 0
M  V30 7483 H 726.748 -4.10867 0.724138 0
M  V30 7484 H 725.378 -3.228 -0.0017611 0
M  V30 7485 H 724.43 -2.94961 2.40213 0
M  V30 7486 H 725.742 -4.00248 2.97663 0
M  V30 7487 H 724.896 -5.86858 1.53891 0
M  V30 7488 H 723.635 -4.80041 0.86091 0
M  V30 7489 H 722.64 -4.50814 3.14717 0
M  V30 7490 H 723.865 -5.61077 3.82582 0
M  V30 7491 H 721.811 -6.33536 1.702 0
M  V30 7492 H 721.728 -6.76252 3.37963 0
M  V30 7493 H 722.996 -7.41997 2.38873 0
M  V30 7494 N 727.225 -1.14528 -1.08264 0
M  V30 7495 C 728.471 -0.91576 -1.80947 0
M  V30 7496 C 728.804 0.55623 -1.86064 0
M  V30 7497 O 728.079 1.41207 -1.33756 0
M  V30 7498 C 728.362 -1.51917 -3.26486 0
M  V30 7499 C 728.215 -3.06111 -3.2957 0
M  V30 7500 C 729.534 -1.19724 -4.23502 0
M  V30 7501 H 726.653 -0.334113 -0.656915 0
M  V30 7502 H 729.295 -1.41547 -1.26746 0
M  V30 7503 H 727.445 -1.0942 -3.72773 0
M  V30 7504 H 729.117 -3.57448 -2.91597 0
M  V30 7505 H 727.36 -3.40483 -2.688 0
M  V30 7506 H 728.031 -3.43438 -4.32151 0
M  V30 7507 H 730.507 -1.56467 -3.85561 0
M  V30 7508 H 729.383 -1.64575 -5.23647 0
M  V30 7509 H 729.644 -0.112771 -4.41956 0
M  V30 7510 N 728.703 1.26451 -0.940633 0
M  V30 7511 C 729.633 2.28773 -0.467479 0
M  V30 7512 C 730.614 1.63218 0.478955 0
M  V30 7513 O 731.799 1.90427 0.380929 0
M  V30 7514 C 728.929 3.46259 0.268656 0
M  V30 7515 C 727.883 4.23898 -0.591171 0
M  V30 7516 C 727.209 5.33993 0.274891 0
M  V30 7517 C 728.509 4.87974 -1.86223 0
M  V30 7518 H 730.203 2.68601 -1.32265 0
M  V30 7519 H 727.749 1.29123 -0.637436 0
M  V30 7520 H 729.702 4.16951 0.610696 0
M  V30 7521 H 728.426 3.05383 1.15796 0
M  V30 7522 H 727.085 3.54969 -0.916098 0
M  V30 7523 H 726.733 4.89358 1.16353 0
M  V30 7524 H 726.433 5.86849 -0.297006 0
M  V30 7525 H 727.957 6.07523 0.612213 0
M  V30 7526 H 729.371 5.50883 -1.58747 0
M  V30 7527 H 727.768 5.50945 -2.37866 0
M  V30 7528 H 728.838 4.10945 -2.57394 0
M  V30 7529 N 730.181 0.707592 1.40822 0
M  V30 7530 C 731.597 0.38034 1.55002 0
M  V30 7531 C 731.797 -1.11163 1.68062 0
M  V30 7532 O 730.853 -1.89761 1.66574 0
M  V30 7533 C 732.166 1.1394 2.78277 0
M  V30 7534 C 733.714 1.12492 2.92087 0
M  V30 7535 C 734.189 1.86597 4.18265 0
M  V30 7536 N 735.68 1.83626 4.25248 0
M  V30 7537 C 736.415 2.37794 5.21768 0
M  V30 7538 N 735.911 3.00485 6.24244 0
M  V30 7539 N 737.704 2.27982 5.13791 0
M  V30 7540 H 729.855 1.67511 1.3059 0
M  V30 7541 H 732.118 0.707579 0.630901 0
M  V30 7542 H 731.824 2.19398 2.74877 0
M  V30 7543 H 731.698 0.725793 3.70151 0
M  V30 7544 H 734.085 0.0785564 2.94995 0
M  V30 7545 H 734.166 1.57768 2.01353 0
M  V30 7546 H 733.81 2.91219 4.16118 0
M  V30 7547 H 733.74 1.38746 5.07993 0
M  V30 7548 H 736.231 1.3793 3.51829 0
M  V30 7549 H 736.544 3.39355 6.94304 0
M  V30 7550 H 734.889 3.04567 6.24711 0
M  V30 7551 H 738.08 1.78669 4.3266 0
M  V30 7552 H 738.253 2.70499 5.88841 0
M  V30 7553 N 731.66 -1.50943 0.453197 0
M  V30 7554 C 733.076 -1.59245 0.106342 0
M  V30 7555 C 733.276 -1.46287 -1.38572 0
M  V30 7556 O 732.332 -1.31219 -2.15726 0
M  V30 7557 C 733.645 -2.93797 0.640595 0
M  V30 7558 C 735.193 -3.07148 0.602435 0
M  V30 7559 C 735.668 -4.44247 1.11393 0
M  V30 7560 N 737.159 -4.50611 1.07258 0
M  V30 7561 C 737.894 -5.55049 1.43905 0
M  V30 7562 N 737.39 -6.66828 1.87914 0
M  V30 7563 N 739.183 -5.45494 1.35621 0
M  V30 7564 H 731.334 -1.5761 1.42382 0
M  V30 7565 H 733.597 -0.74384 0.587713 0
M  V30 7566 H 733.303 -3.087 1.68515 0
M  V30 7567 H 733.177 -3.77127 0.0742272 0
M  V30 7568 H 735.564 -2.91903 -0.433171 0
M  V30 7569 H 735.645 -2.25619 1.20539 0
M  V30 7570 H 735.289 -4.60239 2.14808 0
M  V30 7571 H 735.219 -5.2434 0.487353 0
M  V30 7572 H 737.71 -3.70391 0.749585 0
M  V30 7573 H 738.023 -7.42558 2.14072 0
M  V30 7574 H 736.368 -6.67995 1.91853 0
M  V30 7575 H 739.559 -4.57053 1.01093 0
M  V30 7576 H 739.732 -6.2677 1.64508 0
M  V30 7577 N 733.138 -0.185124 -1.56509 0
M  V30 7578 C 734.07 0.771401 -2.15829 0
M  V30 7579 C 735.083 1.18392 -1.11747 0
M  V30 7580 O 736.272 1.12137 -1.38879 0
M  V30 7581 C 733.372 2.05169 -2.69739 0
M  V30 7582 C 732.545 1.80056 -3.98621 0
M  V30 7583 C 731.604 2.92435 -4.37456 0
M  V30 7584 O 730.63 2.62473 -5.05071 0
M  V30 7585 N 731.832 4.20554 -4.00143 0
M  V30 7586 H 734.597 0.264184 -2.98533 0
M  V30 7587 H 732.158 -0.00281069 -1.619 0
M  V30 7588 H 734.15 2.7947 -2.92709 0
M  V30 7589 H 732.72 2.47041 -1.91545 0
M  V30 7590 H 731.94 0.895862 -3.83885 0
M  V30 7591 H 733.228 1.60662 -4.82768 0
M  V30 7592 H 732.626 4.47753 -3.45736 0
M  V30 7593 H 731.183 4.91514 -4.28085 0
M  V30 7594 N 734.616 1.57351 0.0885366 0
M  V30 7595 C 735.546 2.05561 1.10757 0
M  V30 7596 C 736.527 0.945789 1.41382 0
M  V30 7597 O 737.712 1.21747 1.51299 0
M  V30 7598 C 734.842 2.48554 2.42566 0
M  V30 7599 C 733.796 3.63259 2.26334 0
M  V30 7600 C 733.122 3.9225 3.63378 0
M  V30 7601 C 734.422 4.93913 1.69844 0
M  V30 7602 H 736.116 2.90946 0.706468 0
M  V30 7603 H 733.662 1.39968 0.338385 0
M  V30 7604 H 735.615 2.8089 3.14132 0
M  V30 7605 H 734.339 1.60176 2.84625 0
M  V30 7606 H 732.998 3.31179 1.57213 0
M  V30 7607 H 732.646 3.0103 4.02976 0
M  V30 7608 H 732.346 4.69478 3.53362 0
M  V30 7609 H 733.87 4.27067 4.36401 0
M  V30 7610 H 735.284 5.24588 2.31258 0
M  V30 7611 H 733.681 5.75349 1.70569 0
M  V30 7612 H 734.751 4.80409 0.65843 0
M  V30 7613 N 736.094 -0.359525 1.53444 0
M  V30 7614 C 737.34 -1.10315 1.70172 0
M  V30 7615 C 737.673 -1.88788 0.455287 0
M  V30 7616 O 736.948 -1.86635 -0.547514 0
M  V30 7617 C 737.231 -2.05744 2.95536 0
M  V30 7618 C 737.084 -1.3084 4.3035 0
M  V30 7619 C 738.403 -3.05784 3.16518 0
M  V30 7620 H 735.522 -0.399662 0.619225 0
M  V30 7621 H 738.164 -0.383338 1.86093 0
M  V30 7622 H 736.314 -2.67125 2.82093 0
M  V30 7623 H 737.986 -0.721959 4.55615 0
M  V30 7624 H 736.229 -0.610283 4.29486 0
M  V30 7625 H 736.9 -2.00718 5.14214 0
M  V30 7626 H 739.376 -2.5451 3.29187 0
M  V30 7627 H 738.252 -3.69772 4.05659 0
M  V30 7628 H 738.513 -3.76289 2.32076 0
M  V30 7629 N 737.572 -1.44907 -0.619662 0
M  V30 7630 C 738.504 -1.48652 -1.74457 0
M  V30 7631 C 739.517 -0.378596 -1.58337 0
M  V30 7632 O 740.706 -0.644987 -1.6644 0
M  V30 7633 C 737.806 -1.31568 -3.12319 0
M  V30 7634 C 736.979 -2.55816 -3.54792 0
M  V30 7635 C 736.038 -2.33465 -4.71573 0
M  V30 7636 O 735.064 -3.07015 -4.79302 0
M  V30 7637 N 736.266 -1.37254 -5.6404 0
M  V30 7638 H 739.031 -2.45632 -1.71712 0
M  V30 7639 H 736.592 -1.40492 -0.804582 0
M  V30 7640 H 738.584 -1.14445 -3.88181 0
M  V30 7641 H 737.154 -0.429095 -3.09641 0
M  V30 7642 H 736.374 -2.88137 -2.69018 0
M  V30 7643 H 737.662 -3.38431 -3.79924 0
M  V30 7644 H 737.06 -0.765309 -5.60499 0
M  V30 7645 H 735.617 -1.26106 -6.39485 0
M  V30 7646 N 739.05 0.861098 -1.31996 0
M  V30 7647 C 739.982 1.97551 -1.16216 0
M  V30 7648 C 740.995 1.625 -0.0988527 0
M  V30 7649 O 742.184 1.75091 -0.3472 0
M  V30 7650 C 739.284 3.30376 -0.755307 0
M  V30 7651 C 738.457 3.93711 -1.90552 0
M  V30 7652 C 737.516 5.04862 -1.48328 0
M  V30 7653 O 736.542 5.25204 -2.19431 0
M  V30 7654 N 737.744 5.79283 -0.375656 0
M  V30 7655 H 740.509 2.11632 -2.12208 0
M  V30 7656 H 738.07 1.03559 -1.24448 0
M  V30 7657 H 740.062 4.0213 -0.455364 0
M  V30 7658 H 738.632 3.12395 0.113269 0
M  V30 7659 H 737.852 3.14825 -2.37231 0
M  V30 7660 H 739.14 4.32762 -2.67571 0
M  V30 7661 H 738.538 5.65286 0.216284 0
M  V30 7662 H 737.095 6.5166 -0.135289 0
M  V30 7663 N 740.528 1.15101 1.07655 0
M  V30 7664 C 741.774 0.925343 1.80458 0
M  V30 7665 C 742.107 -0.546354 1.86356 0
M  V30 7666 O 741.382 -1.40496 1.34503 0
M  V30 7667 C 741.665 1.53646 3.25676 0
M  V30 7668 C 741.518 3.07854 3.27942 0
M  V30 7669 C 742.837 1.21968 4.22861 0
M  V30 7670 H 739.956 0.337592 0.655134 0
M  V30 7671 H 742.598 1.42217 1.25993 0
M  V30 7672 H 740.748 1.11395 3.72187 0
M  V30 7673 H 742.42 3.58989 2.89697 0
M  V30 7674 H 740.663 3.41904 2.66991 0
M  V30 7675 H 741.334 3.45725 4.30324 0
M  V30 7676 H 743.81 1.5851 3.84726 0
M  V30 7677 H 742.686 1.67349 5.22767 0
M  V30 7678 H 742.947 0.136207 4.4189 0
M  V30 7679 N 742.006 -1.2595 0.947325 0
M  V30 7680 C 743.231 -1.98083 0.614633 0
M  V30 7681 C 743.656 -1.70013 -0.804815 0
M  V30 7682 O 743.014 -0.95175 -1.54309 0
M  V30 7683 C 743.062 -3.4993 0.870706 0
M  V30 7684 O 742.166 -4.12364 -0.0541451 0
M  V30 7685 H 741.507 -0.621232 0.234451 0
M  V30 7686 H 744.037 -1.60259 1.27193 0
M  V30 7687 H 744.047 -4.00198 0.794051 0
M  V30 7688 H 742.722 -3.69691 1.90529 0
M  V30 7689 H 741.299 -3.72826 0.0740917 0
M  V30 7690 N 743.484 -0.715051 -1.40445 0
M  V30 7691 C 744.709 -0.26254 -2.05732 0
M  V30 7692 C 745.134 1.08691 -1.53519 0
M  V30 7693 O 744.492 1.68453 -0.670328 0
M  V30 7694 C 744.54 -0.25195 -3.59719 0
M  V30 7695 O 743.644 0.766998 -4.05205 0
M  V30 7696 H 742.985 -0.123398 -0.652433 0
M  V30 7697 H 745.515 -0.975382 -1.79854 0
M  V30 7698 H 745.525 -0.0894537 -4.07902 0
M  V30 7699 H 744.2 -1.23672 -3.97087 0
M  V30 7700 H 742.777 0.572269 -3.68483 0
M  V30 7701 O 745.001 1.49816 -0.603118 0
M  V30 7702 H 745.692 1.93366 -0.113681 0
M  V30 END ATOM
M  V30 BEGIN BOND
M  V30 END BOND
M  V30 END CTAB
M  END
$$$$
