drugbank_target|Q8GR64 Quinohemoprotein alcohol dehydrogenase ADH IIB (DB03205)
 OpenBabel12092120263D

  0  0  0     0  0            999 V3000
M  V30 BEGIN CTAB
M  V30 COUNTS 10491 10636 0 0 0
M  V30 BEGIN ATOM
M  V30 1 H -0.908 1.98254 -0.117106 0
M  V30 2 N 0 1.576 0 0
M  V30 3 C 0.933 2.03868 1.02534 0
M  V30 4 C 1.911 0.928543 1.3348 0
M  V30 5 O 3.095 1.19667 1.45644 0
M  V30 6 C 0.222 2.43627 2.35294 0
M  V30 7 C -0.732 3.65373 2.2001 0
M  V30 8 S 0.101 5.13292 1.52614 0
M  V30 9 C 1.257 5.56322 2.86805 0
M  V30 10 H 1.49 2.90518 0.631377 0
M  V30 11 H -0.977 1.52953 0.210867 0
M  V30 12 H 0.981 2.67203 3.11629 0
M  V30 13 H -0.358 1.57376 2.7183 0
M  V30 14 H -1.165 3.90944 3.18086 0
M  V30 15 H -1.563 3.418 1.51819 0
M  V30 16 H 0.729 5.58782 3.83104 0
M  V30 17 H 1.672 6.56266 2.65933 0
M  V30 18 H 2.08 4.83886 2.90714 0
M  V30 19 N 1.4781 -0.272755 1.55222 0
M  V30 20 C 2.4251 -1.33716 1.88119 0
M  V30 21 C 3.3951 -1.49066 0.73271 0
M  V30 22 O 4.5801 -1.63469 0.984002 0
M  V30 23 C 1.7201 -2.69238 2.15882 0
M  V30 24 C 0.8331 -2.62108 3.43399 0
M  V30 25 C -0.0319 -3.89811 3.60861 0
M  V30 26 C -0.9929 -3.77193 4.8207 0
M  V30 27 N -1.8559 -4.9673 4.96189 0
M  V30 28 H 2.9841 -1.04962 2.78903 0
M  V30 29 H 0.5211 -0.507088 1.38083 0
M  V30 30 H 2.4791 -3.48089 2.29978 0
M  V30 31 H 1.1091 -2.96194 1.28331 0
M  V30 32 H 0.1611 -1.74967 3.37773 0
M  V30 33 H 1.4731 -2.48685 4.32386 0
M  V30 34 H 0.6271 -4.77103 3.74777 0
M  V30 35 H -0.6339 -4.06102 2.7006 0
M  V30 36 H -1.6289 -2.88284 4.68159 0
M  V30 37 H -0.4039 -3.62421 5.74307 0
M  V30 38 H -2.4579 -5.13431 4.08319 0
M  V30 39 H -2.5409 -4.85839 5.79221 0
M  V30 40 H -1.2729 -5.85594 5.1449 0
M  V30 41 N 2.9562 -1.48159 -0.537278 0
M  V30 42 C 3.9032 -1.62138 -1.64256 0
M  V30 43 C 4.8732 -0.463668 -1.59497 0
M  V30 44 O 6.0582 -0.686241 -1.78032 0
M  V30 45 C 3.1982 -1.66028 -3.02537 0
M  V30 46 C 2.3112 -2.92855 -3.17585 0
M  V30 47 C 1.4462 -2.87952 -4.46382 0
M  V30 48 C 0.4852 -4.09516 -4.54932 0
M  V30 49 N -0.3778 -4.02733 -5.75109 0
M  V30 50 H 4.4622 -2.56529 -1.51647 0
M  V30 51 H 1.9992 -1.27224 -0.738414 0
M  V30 52 H 3.9572 -1.66265 -3.82638 0
M  V30 53 H 2.5872 -0.751331 -3.13934 0
M  V30 54 H 1.6392 -3.02395 -2.30784 0
M  V30 55 H 2.9512 -3.82822 -3.19764 0
M  V30 56 H 2.1052 -2.8655 -5.34765 0
M  V30 57 H 0.8442 -1.95702 -4.46712 0
M  V30 58 H -0.1508 -4.11201 -3.64957 0
M  V30 59 H 1.0742 -5.02917 -4.56346 0
M  V30 60 H -0.9798 -3.13299 -5.76351 0
M  V30 61 H -1.0628 -4.86397 -5.78752 0
M  V30 62 H 0.2052 -4.05379 -6.65799 0
M  V30 63 N 4.4343 0.785586 -1.36625 0
M  V30 64 C 5.8453 1.36101 -1.27803 0
M  V30 65 C 6.1963 1.96035 0.0804875 0
M  V30 66 O 5.3213 1.92834 0.982042 0
M  V30 67 C 5.9163 2.47442 -2.31426 0
M  V30 68 C 4.4753 3.00789 -2.26281 0
M  V30 69 C 3.6223 1.73896 -2.15999 0
M  V30 70 H 6.5733 0.586928 -1.47448 0
M  V30 71 H 6.5943 3.2656 -1.95291 0
M  V30 72 H 6.1063 2.03791 -3.30289 0
M  V30 73 H 4.2073 3.48851 -1.30896 0
M  V30 74 H 4.3203 3.57343 -3.19128 0
M  V30 75 H 2.6843 1.9628 -1.62316 0
M  V30 76 H 3.4673 1.32368 -3.16755 0
M  V30 77 N 5.9124 1.20967 1.01018 0
M  V30 78 C 6.8424 0.988272 2.11555 0
M  V30 79 C 7.8234 -0.0849778 1.69888 0
M  V30 80 O 9.0084 0.0738202 1.9406 0
M  V30 81 C 6.1384 0.546528 3.42973 0
M  V30 82 C 5.0924 1.56375 3.9841 0
M  V30 83 C 4.4184 0.97842 5.25672 0
M  V30 84 C 5.7184 2.94922 4.31066 0
M  V30 85 H 7.4124 1.91276 2.30334 0
M  V30 86 H 4.9584 0.921073 1.1069 0
M  V30 87 H 6.9114 0.378839 4.19694 0
M  V30 88 H 5.6354 -0.413598 3.23971 0
M  V30 89 H 4.2944 1.71891 3.23804 0
M  V30 90 H 3.9424 0.0101688 5.02999 0
M  V30 91 H 3.6424 1.65784 5.63728 0
M  V30 92 H 5.1664 0.821939 6.05043 0
M  V30 93 H 6.5804 2.8288 4.9865 0
M  V30 94 H 4.9774 3.5983 4.80253 0
M  V30 95 H 6.0474 3.4616 3.39561 0
M  V30 96 N 7.3905 -1.2043 1.01659 0
M  V30 97 C 8.8065 -1.41852 0.731442 0
M  V30 98 C 9.0065 -1.89358 -0.688898 0
M  V30 99 O 8.0625 -2.06247 -1.45666 0
M  V30 100 C 9.3755 -2.44019 1.75714 0
M  V30 101 C 10.9235 -2.57785 1.77527 0
M  V30 102 C 11.3985 -3.63194 2.79023 0
M  V30 103 N 12.8895 -3.70678 2.77763 0
M  V30 104 C 13.6245 -4.51897 3.52954 0
M  V30 105 N 13.1205 -5.36921 4.37821 0
M  V30 106 N 14.9135 -4.4643 3.41551 0
M  V30 107 H 7.0645 -0.879093 1.93354 0
M  V30 108 H 9.3275 -0.448425 0.835236 0
M  V30 109 H 9.0335 -2.1611 2.77469 0
M  V30 110 H 8.9075 -3.43007 1.56927 0
M  V30 111 H 11.2945 -2.85023 0.764569 0
M  V30 112 H 11.3755 -1.58992 2.00387 0
M  V30 113 H 11.0195 -3.36699 3.80258 0
M  V30 114 H 10.9495 -4.61609 2.53425 0
M  V30 115 H 13.4405 -3.09944 2.16201 0
M  V30 116 H 13.7535 -5.95981 4.91962 0
M  V30 117 H 12.0985 -5.36424 4.41899 0
M  V30 118 H 15.2895 -3.79042 2.74672 0
M  V30 119 H 15.4625 -5.09491 4.00404 0
M  V30 120 N 8.8686 -0.792821 -1.36206 0
M  V30 121 C 10.0966 -0.378825 -2.03402 0
M  V30 122 C 10.5116 1.00586 -1.59774 0
M  V30 123 O 9.8686 1.64574 -0.788764 0
M  V30 124 C 9.9196 -0.43683 -3.58851 0
M  V30 125 O 9.6406 -1.76691 -4.00889 0
M  V30 126 C 11.1416 -0.0138943 -4.43298 0
M  V30 127 H 8.3616 -0.155673 -0.652692 0
M  V30 128 H 10.9056 -1.07261 -1.74113 0
M  V30 129 H 9.0606 0.208575 -3.86838 0
M  V30 130 H 9.4746 -1.72011 -4.95492 0
M  V30 131 H 10.9486 -0.105615 -5.51899 0
M  V30 132 H 11.4256 1.03915 -4.2673 0
M  V30 133 H 12.0316 -0.63192 -4.20579 0
M  V30 134 N 10.3467 1.47872 -0.545128 0
M  V30 135 C 11.5717 2.07391 -0.0190611 0
M  V30 136 C 11.9967 1.39688 1.25971 0
M  V30 137 O 11.3547 0.467816 1.7516 0
M  V30 138 C 11.4027 3.60188 0.172335 0
M  V30 139 O 10.5067 3.9339 1.23766 0
M  V30 140 H 9.8477 0.662411 -0.0459059 0
M  V30 141 H 12.3777 1.90066 -0.757365 0
M  V30 142 H 12.3877 4.06129 0.390305 0
M  V30 143 H 11.0627 4.08865 -0.761725 0
M  V30 144 H 9.6397 3.5921 1.00114 0
M  V30 145 N 11.8248 0.280983 1.55075 0
M  V30 146 C 12.7548 -0.597469 2.25727 0
M  V30 147 C 13.7358 -1.15417 1.24952 0
M  V30 148 O 14.9208 -1.18722 1.53684 0
M  V30 149 C 12.0508 -1.7789 2.98283 0
M  V30 150 C 11.0048 -1.35347 4.06036 0
M  V30 151 C 10.3308 -2.61846 4.66198 0
M  V30 152 C 11.6308 -0.499354 5.19907 0
M  V30 153 H 13.3248 -0.00824265 2.99399 0
M  V30 154 H 10.8708 -0.0025244 1.44 0
M  V30 155 H 12.8238 -2.39937 3.46422 0
M  V30 156 H 11.5478 -2.39405 2.22155 0
M  V30 157 H 10.2068 -0.756156 3.58717 0
M  V30 158 H 9.8548 -3.21632 3.86732 0
M  V30 159 H 9.5548 -2.3409 5.38958 0
M  V30 160 H 11.0788 -3.24732 5.1709 0
M  V30 161 H 12.4928 -1.02498 5.64063 0
M  V30 162 H 10.8898 -0.316424 5.99265 0
M  V30 163 H 11.9598 0.480459 4.82514 0
M  V30 164 N 13.3029 -1.57598 0.00835791 0
M  V30 165 C 14.2329 -2.1198 -0.979113 0
M  V30 166 C 15.2139 -1.03091 -1.35301 0
M  V30 167 O 16.3989 -1.30818 -1.43528 0
M  V30 168 C 13.5289 -2.62995 -2.26828 0
M  V30 169 C 12.4829 -3.76485 -2.03576 0
M  V30 170 C 11.8089 -4.13846 -3.38579 0
M  V30 171 C 13.1089 -5.0342 -1.39161 0
M  V30 172 H 14.8029 -2.94738 -0.526281 0
M  V30 173 H 12.3489 -1.41783 -0.251704 0
M  V30 174 H 14.3019 -2.99669 -2.96271 0
M  V30 175 H 13.0259 -1.7737 -2.7424 0
M  V30 176 H 11.6849 -3.40217 -1.36557 0
M  V30 177 H 11.3329 -3.25232 -3.83709 0
M  V30 178 H 11.0329 -4.90312 -3.23834 0
M  V30 179 H 12.5569 -4.53086 -4.09323 0
M  V30 180 H 13.9709 -5.37812 -1.98573 0
M  V30 181 H 12.3679 -5.84746 -1.34878 0
M  V30 182 H 13.4379 -4.83548 -0.361868 0
M  V30 183 N 14.781 0.264519 -1.55364 0
M  V30 184 C 15.714 1.35297 -1.83766 0
M  V30 185 C 16.692 1.47171 -0.691336 0
M  V30 186 O 17.876 1.63663 -0.935238 0
M  V30 187 C 15.003 2.72847 -2.00679 0
M  V30 188 C 14.049 2.78214 -3.23263 0
M  V30 189 S 14.882 2.36601 -4.80396 0
M  V30 190 C 16.038 3.7611 -5.00292 0
M  V30 191 H 16.271 1.11003 -2.758 0
M  V30 192 H 13.804 0.464596 -1.47244 0
M  V30 193 H 15.762 3.52057 -2.11108 0
M  V30 194 H 14.423 2.94388 -1.09518 0
M  V30 195 H 13.616 3.7919 -3.3201 0
M  V30 196 H 13.218 2.07034 -3.11469 0
M  V30 197 H 15.51 4.71457 -4.86554 0
M  V30 198 H 16.453 3.7231 -6.02321 0
M  V30 199 H 16.861 3.67806 -4.28228 0
M  V30 200 N 16.2591 1.48442 0.529413 0
M  V30 201 C 17.1891 1.65902 1.64313 0
M  V30 202 C 18.1701 0.507897 1.6234 0
M  V30 203 O 19.3551 0.740503 1.79528 0
M  V30 204 C 16.4851 1.69911 3.02898 0
M  V30 205 C 15.4391 2.8453 3.19729 0
M  V30 206 C 14.7651 2.73629 4.59381 0
M  V30 207 C 16.0651 4.25821 3.02447 0
M  V30 208 H 17.7591 2.5914 1.49955 0
M  V30 209 H 15.3051 1.24709 0.719982 0
M  V30 210 H 17.2581 1.80715 3.80684 0
M  V30 211 H 15.9821 0.732524 3.18279 0
M  V30 212 H 14.6411 2.73283 2.44361 0
M  V30 213 H 14.2891 1.74938 4.71599 0
M  V30 214 H 13.9891 3.50541 4.71588 0
M  V30 215 H 15.5131 2.86401 5.39265 0
M  V30 216 H 16.9271 4.37898 3.70024 0
M  V30 217 H 15.3241 5.03735 3.26146 0
M  V30 218 H 16.3941 4.42244 1.98867 0
M  V30 219 N 17.7372 -0.778329 1.37039 0
M  V30 220 C 18.9772 -1.54973 1.33276 0
M  V30 221 C 19.3412 -1.91816 -0.0839376 0
M  V30 222 O 20.5422 -2.6767 -0.246228 0
M  V30 223 C 18.8132 -2.78517 2.23971 0
M  V30 224 S 20.3722 -3.6865 2.37997 0
M  V30 225 H 17.1902 -0.530639 0.473226 0
M  V30 226 H 19.7922 -0.915806 1.72723 0
M  V30 227 H 18.4962 -2.4952 3.25835 0
M  V30 228 H 18.0272 -3.46875 1.85584 0
M  V30 229 H 20.0422 -4.70182 1.58567 0
M  V30 230 N 19.2153 -1.21501 -1.00376 0
M  V30 231 C 20.1453 -0.999478 -2.11028 0
M  V30 232 C 21.1263 0.0759671 -1.6993 0
M  V30 233 O 22.3113 -0.0841106 -1.94018 0
M  V30 234 C 19.4413 -0.564709 -3.42678 0
M  V30 235 C 18.3953 -1.58486 -3.97576 0
M  V30 236 C 17.7213 -1.00628 -5.25146 0
M  V30 237 C 19.0213 -2.97204 -4.29496 0
M  V30 238 H 20.7153 -1.92495 -2.29317 0
M  V30 239 H 18.2613 -0.92693 -1.102 0
M  V30 240 H 20.2143 -0.401091 -4.19487 0
M  V30 241 H 18.9383 0.396411 -3.24185 0
M  V30 242 H 17.5973 -1.73606 -3.22888 0
M  V30 243 H 17.2453 -0.0368439 -5.02987 0
M  V30 244 H 16.9453 -1.68771 -5.62841 0
M  V30 245 H 18.4693 -0.854015 -6.04598 0
M  V30 246 H 19.8833 -2.8552 -4.97143 0
M  V30 247 H 18.2803 -3.62372 -4.78338 0
M  V30 248 H 19.3503 -3.47956 -3.3772 0
M  V30 249 N 20.6934 1.19889 -1.02296 0
M  V30 250 C 21.6564 2.21116 -0.603351 0
M  V30 251 C 22.6564 1.5738 0.329884 0
M  V30 252 O 23.8464 1.73802 0.117702 0
M  V30 253 C 20.9784 3.40696 0.117992 0
M  V30 254 H 22.1714 2.59754 -1.49893 0
M  V30 255 H 19.7244 1.33463 -0.813468 0
M  V30 256 H 20.4594 3.07569 1.0282 0
M  V30 257 H 20.2444 3.88188 -0.552511 0
M  V30 258 H 21.7344 4.15692 0.398696 0
M  V30 259 N 22.1715 0.800033 1.35784 0
M  V30 260 C 23.3995 0.389606 2.03199 0
M  V30 261 C 23.8145 -0.997375 1.60306 0
M  V30 262 O 23.1715 -1.64154 0.797481 0
M  V30 263 C 23.2225 0.455855 3.58614 0
M  V30 264 O 22.9435 1.78815 3.99946 0
M  V30 265 C 24.4445 0.0374032 4.43284 0
M  V30 266 H 21.6645 0.159132 0.651857 0
M  V30 267 H 24.2085 1.08183 1.73541 0
M  V30 268 H 22.3635 -0.188057 3.86943 0
M  V30 269 H 22.7775 1.74636 4.94573 0
M  V30 270 H 24.2515 0.134882 5.51835 0
M  V30 271 H 24.7285 -1.01651 4.27275 0
M  V30 272 H 25.3345 0.654215 4.20238 0
M  V30 273 N 23.6496 -1.47581 0.552962 0
M  V30 274 C 25.0606 -1.86324 0.118463 0
M  V30 275 C 25.4116 -1.46006 -1.3106 0
M  V30 276 O 24.5366 -0.861182 -1.98526 0
M  V30 277 C 25.1316 -3.3816 0.20821 0
M  V30 278 C 23.6906 -3.7601 -0.171226 0
M  V30 279 C 22.8376 -2.71634 0.557686 0
M  V30 280 H 25.7886 -1.39159 0.762928 0
M  V30 281 H 25.8096 -3.76141 -0.574278 0
M  V30 282 H 25.3216 -3.67473 1.24841 0
M  V30 283 H 23.4226 -3.52313 -1.21269 0
M  V30 284 H 23.5356 -4.78745 0.184379 0
M  V30 285 H 21.8996 -2.547 0.00125792 0
M  V30 286 H 22.6826 -3.0379 1.59896 0
M  V30 287 N 25.1277 -0.289203 -1.54924 0
M  V30 288 C 26.0577 0.58549 -2.2604 0
M  V30 289 C 27.0387 1.14753 -1.25562 0
M  V30 290 O 28.2237 1.17906 -1.54311 0
M  V30 291 C 25.3537 1.76305 -2.99222 0
M  V30 292 C 24.3077 1.33191 -4.06748 0
M  V30 293 C 23.6337 2.5937 -4.6758 0
M  V30 294 C 24.9337 0.471775 -5.20165 0
M  V30 295 H 26.6277 -0.00763532 -2.99399 0
M  V30 296 H 24.1737 -0.00511229 -1.43999 0
M  V30 297 H 26.1267 2.38097 -3.47689 0
M  V30 298 H 24.8507 2.38223 -2.23422 0
M  V30 299 H 23.5097 0.737121 -3.59113 0
M  V30 300 H 23.1577 3.19576 -3.88433 0
M  V30 301 H 22.8577 2.31228 -5.40192 0
M  V30 302 H 24.3817 3.21985 -5.18804 0
M  V30 303 H 25.7957 0.995056 -5.64599 0
M  V30 304 H 24.1927 0.284639 -5.99425 0
M  V30 305 H 25.2627 -0.506041 -4.82252 0
M  V30 306 N 26.6058 1.57591 -0.0167156 0
M  V30 307 C 27.5688 2.08393 0.954204 0
M  V30 308 C 28.5688 0.996531 1.26198 0
M  V30 309 O 29.7588 1.25858 1.20438 0
M  V30 310 C 26.8908 2.5394 2.27436 0
M  V30 311 H 28.0838 2.95455 0.514451 0
M  V30 312 H 25.6368 1.54582 0.231089 0
M  V30 313 H 26.3718 1.70171 2.76066 0
M  V30 314 H 26.1568 3.33371 2.06412 0
M  V30 315 H 27.6468 2.93512 2.97053 0
M  V30 316 N 28.0839 -0.256276 1.55502 0
M  V30 317 C 29.0469 -1.30047 1.88734 0
M  V30 318 C 30.0469 -1.4154 0.763086 0
M  V30 319 O 31.2369 -1.40403 1.03115 0
M  V30 320 C 28.3689 -2.67953 2.10747 0
M  V30 321 H 29.5619 -1.01802 2.82093 0
M  V30 322 H 27.1149 -0.495134 1.4825 0
M  V30 323 H 27.8499 -3.01351 1.19825 0
M  V30 324 H 27.6349 -2.60993 2.92617 0
M  V30 325 H 29.1249 -3.43368 2.37673 0
M  V30 326 N 29.562 -1.4872 -0.521534 0
M  V30 327 C 30.492 -1.66771 -1.63431 0
M  V30 328 C 31.473 -0.516499 -1.62069 0
M  V30 329 O 32.658 -0.750013 -1.79132 0
M  V30 330 C 29.788 -1.71515 -3.01993 0
M  V30 331 C 28.742 -2.86222 -3.18216 0
M  V30 332 C 28.068 -2.76061 -4.57924 0
M  V30 333 C 29.368 -4.27419 -3.00184 0
M  V30 334 H 31.062 -2.59932 -1.48579 0
M  V30 335 H 28.608 -1.25089 -0.713358 0
M  V30 336 H 30.561 -1.82731 -3.7972 0
M  V30 337 H 29.285 -0.749393 -3.17886 0
M  V30 338 H 27.944 -2.74575 -2.42908 0
M  V30 339 H 27.592 -1.77437 -4.70665 0
M  V30 340 H 27.292 -3.53037 -4.69722 0
M  V30 341 H 28.816 -2.89256 -5.37739 0
M  V30 342 H 30.23 -4.39855 -3.67697 0
M  V30 343 H 28.627 -5.05458 -3.2347 0
M  V30 344 H 29.697 -4.43293 -1.96518 0
M  V30 345 N 31.0401 0.771051 -1.3745 0
M  V30 346 C 32.0031 1.86598 -1.33093 0
M  V30 347 C 33.0031 1.59076 -0.234845 0
M  V30 348 O 34.1931 1.67145 -0.490732 0
M  V30 349 C 31.3251 3.23747 -1.06773 0
M  V30 350 H 32.5181 1.91873 -2.30488 0
M  V30 351 H 30.0711 0.970876 -1.2249 0
M  V30 352 H 30.8061 3.24148 -0.099129 0
M  V30 353 H 30.5911 3.45115 -1.86112 0
M  V30 354 H 32.0811 4.03824 -1.06377 0
M  V30 355 N 32.5182 1.22032 0.997298 0
M  V30 356 C 33.4812 0.987909 2.06816 0
M  V30 357 C 34.4812 -0.0440084 1.6074 0
M  V30 358 O 35.6712 0.194053 1.73116 0
M  V30 359 C 32.8032 0.49132 3.37341 0
M  V30 360 H 33.9962 1.93803 2.28868 0
M  V30 361 H 31.5492 1.03838 1.16822 0
M  V30 362 H 32.2842 -0.463364 3.20973 0
M  V30 363 H 32.0692 1.23575 3.72118 0
M  V30 364 H 33.5592 0.348824 4.16141 0
M  V30 365 N 33.9963 -1.19345 1.0293 0
M  V30 366 C 35.2443 -1.88665 0.724574 0
M  V30 367 C 35.5653 -1.80036 -0.749144 0
M  V30 368 O 34.8353 -1.2111 -1.53978 0
M  V30 369 H 33.4153 -0.698406 0.265025 0
M  V30 370 H 36.0773 -1.44885 1.30362 0
M  V30 371 H 35.1733 -2.94987 1.01926 0
M  V30 372 N 35.4744 -0.807222 -1.35358 0
M  V30 373 C 36.7204 -0.388463 -1.99045 0
M  V30 374 C 37.0534 1.04184 -1.63888 0
M  V30 375 O 36.3284 1.72292 -0.902535 0
M  V30 376 C 36.6114 -0.572783 -3.55515 0
M  V30 377 C 36.4644 -2.04807 -4.00468 0
M  V30 378 C 37.7834 0.00114064 -4.401 0
M  V30 379 H 34.9024 -0.142619 -0.723069 0
M  V30 380 H 37.5444 -1.01687 -1.60498 0
M  V30 381 H 35.6944 -0.0378425 -3.88482 0
M  V30 382 H 37.3664 -2.64544 -3.77908 0
M  V30 383 H 35.6094 -2.54427 -3.51353 0
M  V30 384 H 36.2804 -2.12792 -5.09337 0
M  V30 385 H 38.7564 -0.455716 -4.13597 0
M  V30 386 H 37.6324 -0.157737 -5.48673 0
M  V30 387 H 37.8934 1.09488 -4.28328 0
M  V30 388 N 36.9525 1.47285 -0.560781 0
M  V30 389 C 38.2295 1.9558 0.0277798 0
M  V30 390 C 38.6095 1.5034 1.48192 0
M  V30 391 O 37.9575 0.743882 2.16052 0
M  V30 392 C 38.1675 3.48789 -0.121418 0
M  V30 393 C 39.5155 4.24594 0.0220912 0
M  V30 394 O 40.5395 3.56166 -0.0491439 0
M  V30 395 O 39.3985 5.46217 0.175958 0
M  V30 396 H 36.4925 0.824663 0.0621342 0
M  V30 397 H 39.0385 1.5767 -0.627556 0
M  V30 398 H 37.8105 3.74533 -1.13316 0
M  V30 399 H 37.4335 3.93473 0.571366 0
M  V30 400 N 38.4306 0.297415 1.54768 0
M  V30 401 C 39.3406 -0.58983 2.27064 0
M  V30 402 C 40.3566 -1.15144 1.30453 0
M  V30 403 O 41.5326 -1.17699 1.63428 0
M  V30 404 C 38.5976 -1.74714 2.9946 0
M  V30 405 C 37.6586 -1.21997 4.11601 0
M  V30 406 C 36.8916 -2.32212 4.80535 0
M  V30 407 O 37.1146 -3.52036 4.48806 0
M  V30 408 O 36.0486 -1.99106 5.68014 0
M  V30 409 H 39.8746 -0.00348199 3.037 0
M  V30 410 H 37.4596 0.0640035 1.49263 0
M  V30 411 H 39.3416 -2.42147 3.44881 0
M  V30 412 H 38.0166 -2.32016 2.25722 0
M  V30 413 H 36.9236 -0.511458 3.70587 0
M  V30 414 H 38.2566 -0.692419 4.87305 0
M  V30 415 N 39.9087 -1.5758 0.0250728 0
M  V30 416 C 40.8717 -2.08896 -0.943139 0
M  V30 417 C 41.8717 -1.00321 -1.25668 0
M  V30 418 O 43.0617 -1.26495 -1.19769 0
M  V30 419 C 40.1937 -2.55143 -2.26086 0
M  V30 420 H 41.3867 -2.95723 -0.498775 0
M  V30 421 H 38.9397 -1.54703 -0.222888 0
M  V30 422 H 39.6747 -1.71633 -2.75159 0
M  V30 423 H 39.4597 -3.34461 -2.04641 0
M  V30 424 H 40.9497 -2.95083 -2.95492 0
M  V30 425 N 41.3868 0.248026 -1.55636 0
M  V30 426 C 42.3498 1.29044 -1.89421 0
M  V30 427 C 43.3498 1.41134 -0.770581 0
M  V30 428 O 44.5398 1.39854 -1.03858 0
M  V30 429 C 41.6718 2.66831 -2.12165 0
M  V30 430 H 42.8648 1.00305 -2.82629 0
M  V30 431 H 40.4178 0.487265 -1.48511 0
M  V30 432 H 41.1528 3.00711 -1.21422 0
M  V30 433 H 40.9378 2.59438 -2.93997 0
M  V30 434 H 42.4278 3.42103 -2.3949 0
M  V30 435 N 42.8649 1.48995 0.513639 0
M  V30 436 C 44.1139 1.57093 1.2651 0
M  V30 437 C 44.4269 0.257091 1.93903 0
M  V30 438 O 45.6329 0.216478 2.70636 0
M  V30 439 C 44.0889 2.77118 2.29638 0
M  V30 440 C 43.6969 4.15209 1.68241 0
M  V30 441 C 45.4409 2.94538 3.05692 0
M  V30 442 C 43.3479 5.26474 2.69406 0
M  V30 443 H 42.2779 0.584876 0.475854 0
M  V30 444 H 44.9289 1.7536 0.540487 0
M  V30 445 H 43.3109 2.52319 3.05207 0
M  V30 446 H 44.4849 4.50094 0.987505 0
M  V30 447 H 42.7999 4.03042 1.04623 0
M  V30 448 H 45.3969 3.74832 3.8132 0
M  V30 449 H 45.7399 2.04614 3.62545 0
M  V30 450 H 46.2729 3.19316 2.37238 0
M  V30 451 H 43.0119 6.18417 2.17351 0
M  V30 452 H 42.5319 4.96058 3.37175 0
M  V30 453 H 44.2109 5.55277 3.32078 0
M  V30 454 N 44.343 -0.763751 1.37857 0
M  V30 455 C 45.759 -1.06542 1.18832 0
M  V30 456 C 45.959 -2.01478 0.0299722 0
M  V30 457 O 45.015 -2.4458 -0.627447 0
M  V30 458 C 46.328 -1.65525 2.51042 0
M  V30 459 C 47.876 -1.77745 2.57635 0
M  V30 460 C 48.351 -2.4014 3.89996 0
M  V30 461 N 49.842 -2.47582 3.91481 0
M  V30 462 C 50.577 -2.96732 4.9065 0
M  V30 463 N 50.073 -3.45993 6.00217 0
M  V30 464 N 51.866 -2.95679 4.78048 0
M  V30 465 H 44.017 -0.133556 2.1198 0
M  V30 466 H 46.28 -0.121879 0.940133 0
M  V30 467 H 45.986 -1.03236 3.36207 0
M  V30 468 H 45.86 -2.64719 2.68707 0
M  V30 469 H 48.247 -2.39164 1.72872 0
M  V30 470 H 48.328 -0.772836 2.43846 0
M  V30 471 H 47.972 -1.79358 4.75177 0
M  V30 472 H 47.902 -3.41223 4.01092 0
M  V30 473 H 50.393 -2.1273 3.12337 0
M  V30 474 H 50.706 -3.81922 6.7183 0
M  V30 475 H 49.051 -3.44077 6.03851 0
M  V30 476 H 52.242 -2.56499 3.91568 0
M  V30 477 H 52.415 -3.33672 5.55488 0
M  V30 478 N 45.8211 -1.22559 -0.990812 0
M  V30 479 C 46.7841 -0.998863 -2.0629 0
M  V30 480 C 47.7841 0.0354834 -1.60761 0
M  V30 481 O 48.9741 -0.203231 -1.7301 0
M  V30 482 C 46.1061 -0.509203 -3.37076 0
M  V30 483 H 47.2991 -1.95014 -2.27837 0
M  V30 484 H 44.8521 -1.04456 -1.16269 0
M  V30 485 H 45.5871 0.446335 -3.21214 0
M  V30 486 H 45.3721 -1.25547 -3.71457 0
M  V30 487 H 46.8621 -0.370888 -4.1595 0
M  V30 488 N 47.2992 1.18797 -1.03562 0
M  V30 489 C 48.5272 1.92599 -0.755869 0
M  V30 490 C 48.9422 1.75886 0.686271 0
M  V30 491 O 48.2992 1.08517 1.46732 0
M  V30 492 C 48.3502 3.44159 -1.10619 0
M  V30 493 O 48.0712 3.60341 -2.4917 0
M  V30 494 C 49.5722 4.3507 -0.850214 0
M  V30 495 H 46.7922 0.611587 -0.276048 0
M  V30 496 H 49.3362 1.50742 -1.38192 0
M  V30 497 H 47.4912 3.83823 -0.525194 0
M  V30 498 H 47.9052 4.54128 -2.62427 0
M  V30 499 H 49.3792 5.39989 -1.14523 0
M  V30 500 H 49.8562 4.38673 0.215176 0
M  V30 501 H 50.4622 4.01097 -1.41426 0
M  V30 502 N 48.7773 0.814389 1.34928 0
M  V30 503 C 49.6873 0.231978 2.3345 0
M  V30 504 C 50.7033 -0.629139 1.62228 0
M  V30 505 O 51.8793 -0.539052 1.94052 0
M  V30 506 C 48.9443 -0.603482 3.41407 0
M  V30 507 C 48.0053 0.279037 4.28392 0
M  V30 508 C 47.2383 -0.516643 5.31193 0
M  V30 509 O 47.4613 -1.75068 5.4287 0
M  V30 510 O 46.3953 0.0965652 6.01823 0
M  V30 511 H 50.2213 1.04721 2.85074 0
M  V30 512 H 47.8063 0.576343 1.37836 0
M  V30 513 H 49.6883 -1.07908 4.0735 0
M  V30 514 H 48.3633 -1.39618 2.92042 0
M  V30 515 H 47.2703 0.801948 3.65403 0
M  V30 516 H 48.6033 1.03588 4.81176 0
M  V30 517 N 50.2554 -1.46986 0.568584 0
M  V30 518 C 51.1874 -2.28233 -0.210337 0
M  V30 519 C 52.2004 -1.37682 -0.868767 0
M  V30 520 O 53.3894 -1.62406 -0.740705 0
M  V30 521 C 50.4894 -3.12293 -1.3163 0
M  V30 522 C 49.6624 -4.30878 -0.7525 0
M  V30 523 C 48.7214 -4.96445 -1.74439 0
M  V30 524 O 47.7474 -5.54482 -1.286 0
M  V30 525 N 48.9494 -4.92171 -3.07812 0
M  V30 526 H 51.7144 -2.95723 0.486648 0
M  V30 527 H 49.2754 -1.56742 0.405409 0
M  V30 528 H 51.2674 -3.53022 -1.97883 0
M  V30 529 H 49.8374 -2.46971 -1.91636 0
M  V30 530 H 49.0574 -3.94104 0.0871128 0
M  V30 531 H 50.3454 -5.07558 -0.35536 0
M  V30 532 H 49.7434 -4.46239 -3.47688 0
M  V30 533 H 48.3004 -5.36884 -3.69592 0
M  V30 534 N 51.7335 -0.305618 -1.54608 0
M  V30 535 C 52.6965 0.555591 -2.22364 0
M  V30 536 C 53.6965 1.05768 -1.21119 0
M  V30 537 O 54.8865 0.952972 -1.45822 0
M  V30 538 C 52.0185 1.76974 -2.91364 0
M  V30 539 H 53.2115 -0.0364572 -2.99878 0
M  V30 540 H 50.7645 -0.0565007 -1.56198 0
M  V30 541 H 51.4995 2.40151 -2.17941 0
M  V30 542 H 51.2845 1.41732 -3.65588 0
M  V30 543 H 52.7745 2.38148 -3.43038 0
M  V30 544 N 53.2116 1.57565 -0.0334293 0
M  V30 545 C 54.4596 1.91598 0.642999 0
M  V30 546 C 54.7806 0.910847 1.7242 0
M  V30 547 O 54.0506 -0.0469931 1.95844 0
M  V30 548 H 52.6306 0.707228 0.240496 0
M  V30 549 H 55.2926 1.94726 -0.0822488 0
M  V30 550 H 54.3886 2.92336 1.09298 0
M  V30 551 N 54.6897 -0.239769 1.55765 0
M  V30 552 C 55.9377 -0.964892 1.77579 0
M  V30 553 C 56.2587 -1.85582 0.598699 0
M  V30 554 O 55.5287 -1.92075 -0.385226 0
M  V30 555 H 54.1087 -0.359265 0.654933 0
M  V30 556 H 56.7707 -0.256001 1.93211 0
M  V30 557 H 55.8667 -1.58243 2.69009 0
M  V30 558 N 56.1678 -1.49265 -0.50573 0
M  V30 559 C 57.0778 -1.68312 -1.63427 0
M  V30 560 C 58.0938 -0.565682 -1.64548 0
M  V30 561 O 59.2698 -0.839801 -1.83055 0
M  V30 562 C 56.3348 -1.74107 -2.99813 0
M  V30 563 C 55.3958 -2.97653 -3.09356 0
M  V30 564 C 54.6288 -3.03163 -4.39236 0
M  V30 565 O 54.8518 -2.16396 -5.27758 0
M  V30 566 O 53.7858 -3.9558 -4.53652 0
M  V30 567 H 57.6118 -2.63907 -1.50289 0
M  V30 568 H 55.1968 -1.32951 -0.681502 0
M  V30 569 H 57.0788 -1.803 -3.80881 0
M  V30 570 H 55.7538 -0.816901 -3.13223 0
M  V30 571 H 54.6608 -2.96981 -2.27493 0
M  V30 572 H 55.9938 -3.89535 -3.00871 0
M  V30 573 N 57.6459 0.756429 -1.3826 0
M  V30 574 C 58.8919 1.5168 -1.35517 0
M  V30 575 C 59.2469 1.9232 0.0554451 0
M  V30 576 O 58.5399 1.62352 1.01746 0
M  V30 577 C 58.7339 2.78313 -2.24224 0
M  V30 578 C 58.5629 2.50053 -3.7377 0
M  V30 579 C 57.3329 2.43414 -4.42807 0
M  V30 580 C 59.5309 2.1702 -4.66269 0
M  V30 581 N 57.5129 2.07398 -5.77805 0
M  V30 582 C 58.8839 1.91271 -5.89759 0
M  V30 583 C 60.9389 2.03305 -4.54501 0
M  V30 584 C 59.6419 1.53192 -7.02798 0
M  V30 585 C 61.6679 1.66627 -5.67441 0
M  V30 586 C 61.0299 1.4175 -6.8999 0
M  V30 587 H 57.1289 0.554735 -0.551174 0
M  V30 588 H 59.7129 0.881106 -1.73622 0
M  V30 589 H 57.8839 3.39696 -1.88311 0
M  V30 590 H 59.6159 3.44343 -2.12627 0
M  V30 591 H 56.3709 2.59789 -3.95988 0
M  V30 592 H 56.7949 1.92044 -6.4919 0
M  V30 593 H 61.4369 2.21215 -3.60311 0
M  V30 594 H 59.1549 1.34022 -7.96909 0
M  V30 595 H 62.7409 1.56652 -5.60314 0
M  V30 596 H 61.6209 1.1379 -7.759 0
M  V30 597 N 59.124 1.23083 0.984299 0
M  V30 598 C 60.054 1.03292 2.09411 0
M  V30 599 C 61.035 -0.048923 1.7003 0
M  V30 600 O 62.22 0.114967 1.93859 0
M  V30 601 C 59.35 0.619155 3.41736 0
M  V30 602 C 58.304 1.64791 3.95004 0
M  V30 603 C 57.63 1.0897 5.23478 0
M  V30 604 C 58.93 3.03999 4.24714 0
M  V30 605 H 60.624 1.96119 2.26225 0
M  V30 606 H 58.17 0.944344 1.08711 0
M  V30 607 H 60.123 0.467777 4.18796 0
M  V30 608 H 58.847 -0.344786 3.24775 0
M  V30 609 H 57.506 1.78721 3.20085 0
M  V30 610 H 57.154 0.11686 5.02864 0
M  V30 611 H 56.854 1.77704 5.60085 0
M  V30 612 H 58.378 0.950093 6.03163 0
M  V30 613 H 59.792 2.93393 4.92538 0
M  V30 614 H 58.189 3.69936 4.72512 0
M  V30 615 H 59.259 3.53285 3.32142 0
M  V30 616 N 60.6021 -1.18246 1.0419 0
M  V30 617 C 61.8271 -1.92736 0.765996 0
M  V30 618 C 62.2521 -1.75728 -0.67091 0
M  V30 619 O 61.6101 -1.06825 -1.46486 0
M  V30 620 C 61.6581 -3.42148 1.13875 0
M  V30 621 O 60.7621 -4.11548 0.264954 0
M  V30 622 H 60.1031 -0.601238 0.281797 0
M  V30 623 H 62.6331 -1.49942 1.39207 0
M  V30 624 H 62.6431 -3.92858 1.1012 0
M  V30 625 H 61.3181 -3.53848 2.18551 0
M  V30 626 H 59.8951 -3.71137 0.362226 0
M  V30 627 N 62.0802 -0.821533 -1.34494 0
M  V30 628 C 63.0302 -0.214793 -2.26986 0
M  V30 629 C 64.0142 0.620125 -1.4847 0
M  V30 630 O 65.2062 0.474933 -1.70509 0
M  V30 631 C 62.3352 0.623566 -3.37589 0
M  V30 632 C 61.4212 -0.221904 -4.23519 0
M  V30 633 N 61.8122 -1.29223 -4.89014 0
M  V30 634 C 60.1102 -0.00600922 -4.46 0
M  V30 635 C 60.8112 -1.80965 -5.52835 0
M  V30 636 N 59.7872 -1.11376 -5.32068 0
M  V30 637 H 63.5892 -1.03354 -2.75128 0
M  V30 638 H 61.1032 -0.6642 -1.48196 0
M  V30 639 H 63.1002 1.0744 -4.02818 0
M  V30 640 H 61.7602 1.44049 -2.90998 0
M  V30 641 H 62.7712 -1.67502 -4.90065 0
M  V30 642 H 59.4482 0.77886 -4.10171 0
M  V30 643 H 60.8382 -2.70502 -6.15043 0
M  V30 644 N 63.5583 1.46682 -0.576371 0
M  V30 645 C 64.8063 2.02013 -0.0594163 0
M  V30 646 C 65.1273 1.45101 1.30271 0
M  V30 647 O 64.3973 0.633317 1.8538 0
M  V30 648 H 62.9773 0.746759 -0.0189745 0
M  V30 649 H 65.6393 1.79862 -0.750717 0
M  V30 650 H 64.7353 3.12097 0.014345 0
M  V30 651 N 65.0364 0.313813 1.54444 0
M  V30 652 C 66.4524 -0.0391619 1.59552 0
M  V30 653 C 66.6524 -1.51322 1.33056 0
M  V30 654 O 65.7084 -2.26782 1.11022 0
M  V30 655 C 67.0214 0.370302 2.98411 0
M  V30 656 C 68.5694 0.320139 3.11358 0
M  V30 657 C 69.0444 0.704617 4.52547 0
M  V30 658 N 70.5354 0.657645 4.58508 0
M  V30 659 C 71.2704 0.927453 5.6585 0
M  V30 660 N 70.7664 1.26389 6.81174 0
M  V30 661 N 72.5594 0.853662 5.5558 0
M  V30 662 H 64.7104 1.27433 1.69925 0
M  V30 663 H 66.9734 0.517511 0.794284 0
M  V30 664 H 66.6794 1.39694 3.22767 0
M  V30 665 H 66.5534 -0.269619 3.76235 0
M  V30 666 H 68.9404 -0.697275 2.86744 0
M  V30 667 H 69.0214 0.99486 2.35661 0
M  V30 668 H 68.6654 1.7199 4.77893 0
M  V30 669 H 68.5954 0.00768843 5.26599 0
M  V30 670 H 71.0864 0.409067 3.75679 0
M  V30 671 H 71.3994 1.4554 7.58972 0
M  V30 672 H 69.7444 1.30206 6.82694 0
M  V30 673 H 72.9354 0.590383 4.64362 0
M  V30 674 H 73.1084 1.0673 6.3915 0
M  V30 675 N 66.5145 -1.57545 0.0417849 0
M  V30 676 C 67.7425 -1.96624 -0.643928 0
M  V30 677 C 68.1575 -0.918897 -1.64929 0
M  V30 678 O 67.5145 0.0979323 -1.82237 0
M  V30 679 C 67.5655 -3.35781 -1.33914 0
M  V30 680 O 67.2865 -4.365 -0.374048 0
M  V30 681 C 68.7875 -3.89566 -2.1155 0
M  V30 682 H 66.0075 -0.647316 -0.176702 0
M  V30 683 H 68.5515 -2.04229 0.105304 0
M  V30 684 H 66.7065 -3.29357 -2.03968 0
M  V30 685 H 67.1205 -5.17248 -0.869179 0
M  V30 686 H 68.5945 -4.89242 -2.55628 0
M  V30 687 H 69.0715 -3.24488 -2.9598 0
M  V30 688 H 69.6775 -3.99298 -1.46427 0
M  V30 689 N 67.9926 0.231505 -1.5589 0
M  V30 690 C 69.2226 0.973092 -1.82248 0
M  V30 691 C 69.6306 1.78845 -0.617328 0
M  V30 692 O 68.9736 1.78752 0.423499 0
M  V30 693 C 69.0356 1.94732 -3.02192 0
M  V30 694 C 68.6996 1.31743 -4.37599 0
M  V30 695 C 69.6966 0.712238 -5.14998 0
M  V30 696 C 67.3816 1.33218 -4.84312 0
M  V30 697 C 69.3756 0.130195 -6.37267 0
M  V30 698 C 67.0626 0.746286 -6.06526 0
M  V30 699 C 68.0606 0.146337 -6.82843 0
M  V30 700 O 67.7486 -0.430465 -8.02747 0
M  V30 701 H 67.4806 0.29125 -0.61004 0
M  V30 702 H 70.0346 0.254915 -2.03812 0
M  V30 703 H 68.2646 2.70422 -2.76422 0
M  V30 704 H 69.9536 2.55362 -3.15508 0
M  V30 705 H 70.7196 0.69324 -4.8002 0
M  V30 706 H 66.5986 1.78854 -4.24891 0
M  V30 707 H 70.1426 -0.33871 -6.96777 0
M  V30 708 H 66.0396 0.762663 -6.40979 0
M  V30 709 H 66.8076 -0.323818 -8.17859 0
M  V30 710 N 69.4707 1.49531 0.497807 0
M  V30 711 C 70.4337 1.65916 1.58128 0
M  V30 712 C 71.4337 0.530825 1.51786 0
M  V30 713 O 72.6237 0.797342 1.54881 0
M  V30 714 C 69.7557 1.65951 2.9778 0
M  V30 715 H 70.9487 2.62556 1.44929 0
M  V30 716 H 68.5017 1.38611 0.722275 0
M  V30 717 H 69.2367 0.709065 3.16453 0
M  V30 718 H 69.0217 2.47897 3.03792 0
M  V30 719 H 70.5117 1.80673 3.76493 0
M  V30 720 N 70.9488 -0.749086 1.3866 0
M  V30 721 C 71.8588 -1.89358 1.38494 0
M  V30 722 C 72.8748 -1.71708 0.281476 0
M  V30 723 O 74.0508 -1.94554 0.520643 0
M  V30 724 C 71.1158 -3.24782 1.21316 0
M  V30 725 C 70.1768 -3.54926 2.41508 0
M  V30 726 C 69.4098 -4.83888 2.2514 0
M  V30 727 O 69.6328 -5.56592 1.24746 0
M  V30 728 O 68.5668 -5.13612 3.13826 0
M  V30 729 H 72.3928 -1.92452 2.34938 0
M  V30 730 H 69.9778 -0.894981 1.19626 0
M  V30 731 H 71.8598 -4.05739 1.13814 0
M  V30 732 H 70.5348 -3.2249 0.279592 0
M  V30 733 H 69.4418 -2.74112 2.54585 0
M  V30 734 H 70.7748 -3.61983 3.3351 0
M  V30 735 N 72.4269 -1.23603 -0.977757 0
M  V30 736 C 73.3589 -0.977369 -2.07317 0
M  V30 737 C 74.3719 0.0495845 -1.62724 0
M  V30 738 O 75.5609 -0.186261 -1.77526 0
M  V30 739 C 72.6609 -0.451216 -3.35883 0
M  V30 740 C 71.8339 -1.53896 -4.09432 0
M  V30 741 C 70.8929 -1.01721 -5.16274 0
M  V30 742 O 69.9189 -1.70676 -5.43009 0
M  V30 743 N 71.1209 0.153594 -5.80297 0
M  V30 744 H 73.8859 -1.92047 -2.30082 0
M  V30 745 H 71.4469 -1.14497 -1.14465 0
M  V30 746 H 73.4389 -0.0871574 -4.04606 0
M  V30 747 H 72.0089 0.397368 -3.10064 0
M  V30 748 H 71.2289 -2.07566 -3.35127 0
M  V30 749 H 72.5169 -2.27037 -4.55337 0
M  V30 750 H 71.9149 0.730323 -5.60966 0
M  V30 751 H 70.4719 0.458892 -6.50183 0
M  V30 752 N 73.905 1.17692 -1.04816 0
M  V30 753 C 75.321 1.39863 -0.768794 0
M  V30 754 C 75.521 1.91118 0.638451 0
M  V30 755 O 74.577 2.10036 1.40146 0
M  V30 756 C 75.89 2.39274 -1.82122 0
M  V30 757 C 77.438 2.52987 -1.843 0
M  V30 758 C 77.913 3.55669 -2.88555 0
M  V30 759 N 79.404 3.63183 -2.87493 0
M  V30 760 C 80.139 4.42381 -3.64811 0
M  V30 761 N 79.635 5.25125 -4.51903 0
M  V30 762 N 81.428 4.37217 -3.53267 0
M  V30 763 H 73.579 0.82752 -1.95617 0
M  V30 764 H 75.842 0.426123 -0.846831 0
M  V30 765 H 75.548 2.08678 -2.83102 0
M  V30 766 H 75.422 3.38725 -1.65967 0
M  V30 767 H 77.809 2.82896 -0.839869 0
M  V30 768 H 77.89 1.53623 -2.04532 0
M  V30 769 H 77.534 3.26499 -3.89051 0
M  V30 770 H 77.464 4.54728 -2.65575 0
M  V30 771 H 79.955 3.04103 -2.24343 0
M  V30 772 H 80.268 5.82728 -5.07591 0
M  V30 773 H 78.613 5.24519 -4.55966 0
M  V30 774 H 81.804 3.71626 -2.84625 0
M  V30 775 H 81.977 4.98696 -4.13771 0
M  V30 776 N 75.3831 0.828654 1.34056 0
M  V30 777 C 76.6301 0.419458 1.98108 0
M  V30 778 C 76.9581 -1.01886 1.65679 0
M  V30 779 O 76.2131 -1.72539 0.923512 0
M  V30 780 C 76.5121 0.575226 3.52741 0
M  V30 781 C 76.1781 1.98012 4.05095 0
M  V30 782 C 74.8401 2.36442 4.19104 0
M  V30 783 C 77.1921 2.89824 4.33188 0
M  V30 784 C 74.5201 3.66009 4.58535 0
M  V30 785 C 76.8721 4.1886 4.74066 0
M  V30 786 C 75.5361 4.5726 4.86281 0
M  V30 787 H 74.8061 0.153491 0.724929 0
M  V30 788 H 77.4531 1.05371 1.59904 0
M  V30 789 H 75.7581 -0.142385 3.91541 0
M  V30 790 H 77.4551 0.239057 4.00287 0
M  V30 791 H 74.0451 1.67162 3.94658 0
M  V30 792 H 78.2291 2.61375 4.21897 0
M  V30 793 H 73.4851 3.95579 4.66184 0
M  V30 794 H 77.6591 4.90086 4.94761 0
M  V30 795 H 75.2861 5.57707 5.16592 0
M  V30 796 N 76.8612 -1.46375 0.584142 0
M  V30 797 C 78.0862 -2.07268 0.0740405 0
M  V30 798 C 78.5112 -1.42979 -1.22223 0
M  V30 799 O 77.8692 -0.514092 -1.73859 0
M  V30 800 C 77.9172 -3.60518 -0.0767769 0
M  V30 801 O 77.0212 -3.96533 -1.13292 0
M  V30 802 H 76.3622 -0.660961 0.0634524 0
M  V30 803 H 78.8922 -1.87991 0.807492 0
M  V30 804 H 78.9022 -4.07021 -0.282489 0
M  V30 805 H 77.5772 -4.06702 0.86986 0
M  V30 806 H 76.1542 -3.61738 -0.905553 0
M  V30 807 N 78.3393 -0.321999 -1.54275 0
M  V30 808 C 79.7503 0.166384 -1.85957 0
M  V30 809 C 80.1013 1.51747 -1.24367 0
M  V30 810 O 79.2263 2.09317 -0.549124 0
M  V30 811 C 79.8213 0.308681 -3.37391 0
M  V30 812 C 78.3803 0.741286 -3.69028 0
M  V30 813 C 77.5273 -0.137937 -2.76957 0
M  V30 814 H 80.4783 -0.542335 -1.49146 0
M  V30 815 H 80.4993 1.13984 -3.63026 0
M  V30 816 H 80.0113 -0.674809 -3.82188 0
M  V30 817 H 78.1123 1.73458 -3.29762 0
M  V30 818 H 78.2253 0.546118 -4.75977 0
M  V30 819 H 76.5893 0.386251 -2.51754 0
M  V30 820 H 77.3723 -1.11816 -3.2458 0
M  V30 821 N 79.8174 1.5752 -0.0501392 0
M  V30 822 C 80.7474 2.14502 0.922566 0
M  V30 823 C 81.7284 1.06642 1.3252 0
M  V30 824 O 82.9134 1.34577 1.4001 0
M  V30 825 C 80.0434 2.68916 2.19776 0
M  V30 826 C 78.9974 3.8175 1.93523 0
M  V30 827 C 78.3234 4.22677 3.27487 0
M  V30 828 C 79.6234 5.06932 1.25765 0
M  V30 829 H 81.3174 2.9603 0.447952 0
M  V30 830 H 78.8634 1.42401 0.214024 0
M  V30 831 H 80.8164 3.07419 2.88222 0
M  V30 832 H 79.5404 1.84578 2.69441 0
M  V30 833 H 78.1994 3.43718 1.27489 0
M  V30 834 H 77.8474 3.35291 3.74952 0
M  V30 835 H 77.5474 4.98725 3.1072 0
M  V30 836 H 79.0714 4.63779 3.97166 0
M  V30 837 H 80.4854 5.42888 1.84244 0
M  V30 838 H 78.8824 5.88116 1.19328 0
M  V30 839 H 79.9524 4.84337 0.233536 0
M  V30 840 N 81.2955 -0.223234 1.56011 0
M  V30 841 C 82.2425 -1.27664 1.92277 0
M  V30 842 C 83.2125 -1.46659 0.779763 0
M  V30 843 O 84.3975 -1.60256 1.03551 0
M  V30 844 C 81.5375 -2.62234 2.24338 0
M  V30 845 C 80.6505 -2.51051 3.51564 0
M  V30 846 C 79.7855 -3.78133 3.7308 0
M  V30 847 C 78.8245 -3.61665 4.93827 0
M  V30 848 N 77.9615 -4.80693 5.11741 0
M  V30 849 H 82.8015 -0.960358 2.82101 0
M  V30 850 H 80.3385 -0.462901 1.39627 0
M  V30 851 H 82.2965 -3.40596 2.40936 0
M  V30 852 H 80.9265 -2.91961 1.3769 0
M  V30 853 H 79.9785 -1.64132 3.43169 0
M  V30 854 H 81.2905 -2.34803 4.40079 0
M  V30 855 H 80.4445 -4.64938 3.89766 0
M  V30 856 H 79.1835 -3.97304 2.82844 0
M  V30 857 H 78.1885 -2.73244 4.77093 0
M  V30 858 H 79.4135 -3.43966 5.85546 0
M  V30 859 H 77.3595 -5.00181 4.24446 0
M  V30 860 H 77.2765 -4.67165 5.94384 0
M  V30 861 H 78.5445 -5.6893 5.3286 0
M  V30 862 N 82.7736 -1.49793 -0.48987 0
M  V30 863 C 83.7056 -1.63413 -1.60713 0
M  V30 864 C 84.7186 -0.516329 -1.54395 0
M  V30 865 O 85.9076 -0.788812 -1.60125 0
M  V30 866 C 83.0076 -1.58516 -2.99543 0
M  V30 867 C 82.1806 -2.86016 -3.30928 0
M  V30 868 C 81.2396 -2.74018 -4.49222 0
M  V30 869 O 80.2656 -3.47964 -4.50455 0
M  V30 870 N 81.4676 -1.86309 -5.4979 0
M  V30 871 H 84.2326 -2.59777 -1.49452 0
M  V30 872 H 81.7936 -1.47022 -0.677955 0
M  V30 873 H 83.7856 -1.48128 -3.76617 0
M  V30 874 H 82.3556 -0.69965 -3.0467 0
M  V30 875 H 81.5756 -3.10672 -2.42645 0
M  V30 876 H 82.8636 -3.70521 -3.487 0
M  V30 877 H 82.2616 -1.2551 -5.51601 0
M  V30 878 H 80.8186 -1.81837 -6.25922 0
M  V30 879 N 84.2517 0.741722 -1.39055 0
M  V30 880 C 85.5007 1.49656 -1.35225 0
M  V30 881 C 85.8137 1.95533 0.0512708 0
M  V30 882 O 87.0197 2.7067 0.212138 0
M  V30 883 C 85.4757 2.70389 -2.37525 0
M  V30 884 C 85.0837 2.31489 -3.83558 0
M  V30 885 C 86.8277 3.48236 -2.42759 0
M  V30 886 C 84.7347 3.48903 -4.77515 0
M  V30 887 H 83.6647 0.56197 -0.502699 0
M  V30 888 H 86.3157 0.809727 -1.64668 0
M  V30 889 H 84.6977 3.41113 -2.01142 0
M  V30 890 H 85.8717 1.68354 -4.28945 0
M  V30 891 H 84.1867 1.66749 -3.81554 0
M  V30 892 H 86.7837 4.35558 -3.1015 0
M  V30 893 H 87.1267 3.90229 -1.45008 0
M  V30 894 H 87.6597 2.84535 -2.78002 0
M  V30 895 H 84.3987 3.11966 -5.76504 0
M  V30 896 H 83.9187 4.11041 -4.36813 0
M  V30 897 H 85.5977 4.15328 -4.96096 0
M  V30 898 N 85.7298 1.2412 0.971189 0
M  V30 899 C 87.0068 0.986867 1.6888 0
M  V30 900 C 87.3868 -0.491857 2.0529 0
M  V30 901 O 86.7348 -1.46531 1.75331 0
M  V30 902 C 86.9448 1.9063 2.92338 0
M  V30 903 C 88.2928 2.17515 3.64654 0
M  V30 904 O 89.3168 1.88254 3.02388 0
M  V30 905 O 88.1758 2.6719 4.7673 0
M  V30 906 H 85.2698 0.372944 0.738134 0
M  V30 907 H 87.8158 1.35203 1.02559 0
M  V30 908 H 86.5878 2.90552 2.62097 0
M  V30 909 H 86.2108 1.54408 3.66393 0
M  V30 910 N 87.2079 -1.17134 1.05439 0
M  V30 911 C 88.1709 -2.19439 0.661764 0
M  V30 912 C 89.1709 -1.58199 -0.288042 0
M  V30 913 O 90.3609 -1.74053 -0.0715803 0
M  V30 914 C 87.4929 -3.40889 -0.0276209 0
M  V30 915 H 88.6859 -2.55688 1.56728 0
M  V30 916 H 86.2389 -1.31259 0.848567 0
M  V30 917 H 86.9739 -3.10187 -0.94629 0
M  V30 918 H 86.7589 -3.86586 0.655238 0
M  V30 919 H 88.2489 -4.16603 -0.288342 0
M  V30 920 N 88.686 -0.835752 -1.33615 0
M  V30 921 C 89.911 -0.442389 -2.02627 0
M  V30 922 C 90.336 0.947735 -1.62479 0
M  V30 923 O 89.694 1.61907 -0.815826 0
M  V30 924 C 89.742 -0.567216 -3.56111 0
M  V30 925 O 88.846 0.407799 -4.10379 0
M  V30 926 H 88.187 -0.180278 -0.639059 0
M  V30 927 H 90.717 -1.12972 -1.70583 0
M  V30 928 H 90.727 -0.447708 -4.05536 0
M  V30 929 H 89.402 -1.58103 -3.84677 0
M  V30 930 H 87.979 0.246107 -3.72087 0
M  V30 931 N 90.1641 1.46063 -0.591896 0
M  V30 932 C 91.1121 2.32124 0.148739 0
M  V30 933 C 92.1061 1.45035 0.875286 0
M  V30 934 O 93.3121 1.61609 0.792632 0
M  V30 935 H 89.6871 0.749024 0.066832 0
M  V30 936 H 91.6581 2.92392 -0.595783 0
M  V30 937 C 90.4071 3.28373 1.1431 0
M  V30 938 H 89.7301 3.95371 0.59346 0
M  V30 939 H 91.1701 3.91352 1.63155 0
M  V30 940 C 89.6291 2.54393 2.20875 0
M  V30 941 O 90.1591 2.31373 3.28374 0
M  V30 942 N 88.3651 2.14797 1.95731 0
M  V30 943 H 87.9121 2.33719 1.08319 0
M  V30 944 H 87.8701 1.65619 2.67241 0
M  V30 945 N 91.6422 0.330177 1.54103 0
M  V30 946 C 92.8882 -0.270806 2.00984 0
M  V30 947 C 93.2212 -1.51265 1.21789 0
M  V30 948 O 92.4962 -1.92142 0.301927 0
M  V30 949 C 92.7792 -0.598339 3.55094 0
M  V30 950 C 92.6322 0.654674 4.4501 0
M  V30 951 C 93.9512 -1.41334 4.16789 0
M  V30 952 H 91.0702 -0.0969531 0.730595 0
M  V30 953 H 93.7122 0.448066 1.84641 0
M  V30 954 H 91.8622 -1.21078 3.69151 0
M  V30 955 H 93.5342 1.29285 4.42813 0
M  V30 956 H 91.7772 1.28224 4.14416 0
M  V30 957 H 92.4482 0.380944 5.50684 0
M  V30 958 H 94.9242 -0.895597 4.06347 0
M  V30 959 H 93.8002 -1.61127 5.24718 0
M  V30 960 H 94.0612 -2.41146 3.70541 0
M  V30 961 N 93.1203 -1.57491 0.0584922 0
M  V30 962 C 94.5363 -1.56792 -0.298091 0
M  V30 963 C 94.7363 -1.06679 -1.70944 0
M  V30 964 O 93.7923 -0.726672 -2.41818 0
M  V30 965 C 95.1053 -3.00461 -0.119879 0
M  V30 966 C 96.6533 -3.1242 -0.190428 0
M  V30 967 C 97.1283 -4.57982 -0.0406567 0
M  V30 968 N 98.6193 -4.63099 -0.0966958 0
M  V30 969 C 99.3543 -5.734 -0.00502943 0
M  V30 970 N 98.8503 -6.9266 0.139402 0
M  V30 971 N 100.643 -5.62067 -0.0611391 0
M  V30 972 H 92.7943 -1.88386 0.98105 0
M  V30 973 H 95.0573 -0.867865 0.381463 0
M  V30 974 H 94.7633 -3.41187 0.85349 0
M  V30 975 H 94.6373 -3.66843 -0.877833 0
M  V30 976 H 97.0243 -2.71589 -1.15427 0
M  V30 977 H 97.1053 -2.48702 0.598405 0
M  V30 978 H 96.7493 -4.995 0.919897 0
M  V30 979 H 96.6793 -5.19715 -0.848727 0
M  V30 980 H 99.1703 -3.77331 -0.207277 0
M  V30 981 H 99.4833 -7.72536 0.201855 0
M  V30 982 H 97.8283 -6.94781 0.174586 0
M  V30 983 H 101.019 -4.67782 -0.172583 0
M  V30 984 H 101.192 -6.47999 0.0137562 0
M  V30 985 N 94.5984 0.214957 -1.56127 0
M  V30 986 C 95.8234 0.95924 -1.83884 0
M  V30 987 C 96.2484 1.7689 -0.639644 0
M  V30 988 O 95.6064 1.76566 0.411601 0
M  V30 989 C 95.6544 1.84723 -3.09693 0
M  V30 990 O 94.7584 2.94346 -2.8885 0
M  V30 991 H 94.0994 0.27125 -0.606069 0
M  V30 992 H 96.6294 0.226276 -2.03345 0
M  V30 993 H 96.6394 2.25576 -3.39969 0
M  V30 994 H 95.3144 1.25218 -3.96602 0
M  V30 995 H 93.8914 2.57391 -2.69823 0
M  V30 996 N 96.0765 1.50051 0.48192 0
M  V30 997 C 97.0065 1.71046 1.58951 0
M  V30 998 C 97.9875 0.559288 1.60642 0
M  V30 999 O 99.1725 0.797243 1.77081 0
M  V30 1000 C 96.3025 1.79462 2.97339 0
M  V30 1001 C 95.2565 2.94558 3.10515 0
M  V30 1002 C 94.5825 2.88105 4.50444 0
M  V30 1003 C 95.8825 4.35227 2.88747 0
M  V30 1004 H 97.5765 2.6378 1.41635 0
M  V30 1005 H 95.1225 1.26936 0.679942 0
M  V30 1006 H 97.0755 1.92734 3.74742 0
M  V30 1007 H 95.7995 0.833412 3.15788 0
M  V30 1008 H 94.4585 2.80918 2.35543 0
M  V30 1009 H 94.1065 1.89853 4.65795 0
M  V30 1010 H 93.8065 3.65366 4.60197 0
M  V30 1011 H 95.3305 3.03412 5.29881 0
M  V30 1012 H 96.7445 4.49449 3.55905 0
M  V30 1013 H 95.1415 5.13856 3.09955 0
M  V30 1014 H 96.2115 4.48347 1.84696 0
M  V30 1015 N 97.5546 -0.734337 1.39446 0
M  V30 1016 C 98.8026 -1.49096 1.36436 0
M  V30 1017 C 99.1236 -1.94961 -0.0388255 0
M  V30 1018 O 98.3936 -1.69033 -0.990191 0
M  V30 1019 H 96.9736 -0.5531 0.502085 0
M  V30 1020 H 99.6356 -0.871725 1.74319 0
M  V30 1021 H 98.7316 -2.37276 2.02747 0
M  V30 1022 N 99.0327 -1.24633 -0.964593 0
M  V30 1023 C 99.9627 -1.06611 -2.07741 0
M  V30 1024 C 100.944 0.0218666 -1.70086 0
M  V30 1025 O 102.129 -0.145793 -1.93652 0
M  V30 1026 C 99.2587 -0.673444 -3.40708 0
M  V30 1027 C 98.2127 -1.71054 -3.92332 0
M  V30 1028 C 97.5387 -1.17285 -5.21678 0
M  V30 1029 C 98.8387 -3.10718 -4.19824 0
M  V30 1030 H 100.533 -1.99693 -2.23076 0
M  V30 1031 H 98.0787 -0.96152 -1.07195 0
M  V30 1032 H 100.032 -0.534345 -4.17998 0
M  V30 1033 H 98.7557 0.293073 -3.25282 0
M  V30 1034 H 97.4147 -1.83791 -3.17201 0
M  V30 1035 H 97.0627 -0.196847 -5.02615 0
M  V30 1036 H 96.7627 -1.86592 -5.57187 0
M  V30 1037 H 98.2867 -1.04593 -6.01575 0
M  V30 1038 H 99.7007 -3.01192 -4.87808 0
M  V30 1039 H 98.0977 -3.77406 -4.66567 0
M  V30 1040 H 99.1677 -3.58524 -3.26479 0
M  V30 1041 N 100.511 1.16574 -1.06058 0
M  V30 1042 C 101.474 2.19085 -0.673392 0
M  V30 1043 C 102.474 1.5835 0.279648 0
M  V30 1044 O 103.664 1.74088 0.0623488 0
M  V30 1045 C 100.796 3.40899 0.00954234 0
M  V30 1046 H 101.989 2.54853 -1.58081 0
M  V30 1047 H 99.5418 1.30808 -0.855516 0
M  V30 1048 H 100.277 3.10684 0.929826 0
M  V30 1049 H 100.062 3.86233 -0.67573 0
M  V30 1050 H 101.552 4.1675 0.266245 0
M  V30 1051 N 101.989 0.842826 1.3317 0
M  V30 1052 C 103.235 0.450342 1.98352 0
M  V30 1053 C 103.59 -0.980508 1.65541 0
M  V30 1054 O 102.883 -1.67678 0.927065 0
M  V30 1055 C 103.077 0.612607 3.52111 0
M  V30 1056 C 102.906 2.05768 3.99862 0
M  V30 1057 C 101.676 2.69374 4.27511 0
M  V30 1058 C 103.874 3.02688 4.15794 0
M  V30 1059 N 101.856 4.04915 4.61429 0
M  V30 1060 C 103.227 4.23186 4.53115 0
M  V30 1061 C 105.282 2.99041 3.98094 0
M  V30 1062 C 103.985 5.40518 4.74587 0
M  V30 1063 C 106.011 4.15607 4.20743 0
M  V30 1064 C 105.373 5.3486 4.58371 0
M  V30 1065 H 101.472 0.213296 0.752349 0
M  V30 1066 H 104.056 1.09173 1.61212 0
M  V30 1067 H 102.227 0.000998822 3.884 0
M  V30 1068 H 103.959 0.191179 4.04248 0
M  V30 1069 H 100.714 2.20485 4.19146 0
M  V30 1070 H 101.138 4.74798 4.82593 0
M  V30 1071 H 105.78 2.0797 3.68114 0
M  V30 1072 H 103.498 6.3213 5.03425 0
M  V30 1073 H 107.084 4.14207 4.08563 0
M  V30 1074 H 105.964 6.23558 4.75547 0
M  V30 1075 N 103.467 -1.45747 0.599634 0
M  V30 1076 C 104.697 -2.06369 0.0977132 0
M  V30 1077 C 105.105 -1.44624 -1.21985 0
M  V30 1078 O 104.448 -0.551831 -1.75216 0
M  V30 1079 C 104.51 -3.59284 -0.124673 0
M  V30 1080 C 104.174 -4.43318 1.10987 0
M  V30 1081 C 105.171 -4.78796 2.02609 0
M  V30 1082 C 102.856 -4.84194 1.33647 0
M  V30 1083 C 104.85 -5.53997 3.15224 0
M  V30 1084 C 102.537 -5.5915 2.46565 0
M  V30 1085 C 103.535 -5.93968 3.37182 0
M  V30 1086 O 103.223 -6.67405 4.48136 0
M  V30 1087 H 102.955 -0.673122 0.0623153 0
M  V30 1088 H 105.509 -1.88104 0.824981 0
M  V30 1089 H 103.739 -3.75919 -0.906745 0
M  V30 1090 H 105.428 -4.01775 -0.577201 0
M  V30 1091 H 106.194 -4.47781 1.86325 0
M  V30 1092 H 102.073 -4.56534 0.64016 0
M  V30 1093 H 105.617 -5.81091 3.85978 0
M  V30 1094 H 101.514 -5.89579 2.62805 0
M  V30 1095 H 102.282 -6.85847 4.46717 0
M  V30 1096 N 104.945 -0.338344 -1.53925 0
M  V30 1097 C 105.878 0.563758 -2.21127 0
M  V30 1098 C 106.856 1.10433 -1.19345 0
M  V30 1099 O 108.04 1.16557 -1.48144 0
M  V30 1100 C 105.167 1.77505 -2.88461 0
M  V30 1101 C 104.213 1.3644 -4.04087 0
M  V30 1102 S 105.046 0.388593 -5.34088 0
M  V30 1103 C 106.202 1.60683 -6.04923 0
M  V30 1104 H 106.435 -0.00704546 -2.97299 0
M  V30 1105 H 103.968 -0.122418 -1.53914 0
M  V30 1106 H 105.926 2.46999 -3.27875 0
M  V30 1107 H 104.587 2.31706 -2.12064 0
M  V30 1108 H 103.78 2.26739 -4.50117 0
M  V30 1109 H 103.382 0.748998 -3.66423 0
M  V30 1110 H 105.674 2.54209 -6.28 0
M  V30 1111 H 106.617 1.18842 -6.98056 0
M  V30 1112 H 107.025 1.80052 -5.35015 0
M  V30 1113 N 106.423 1.57458 -0.0668435 0
M  V30 1114 C 107.7 1.8469 0.644132 0
M  V30 1115 C 108.08 0.958343 1.88093 0
M  V30 1116 O 107.428 0.0233579 2.28488 0
M  V30 1117 C 107.638 3.34767 0.986509 0
M  V30 1118 C 108.986 4.02159 1.36212 0
M  V30 1119 O 110.01 3.39484 1.07839 0
M  V30 1120 O 108.869 5.12694 1.89227 0
M  V30 1121 H 105.963 0.762816 0.319437 0
M  V30 1122 H 108.509 1.6942 -0.0973986 0
M  V30 1123 H 107.281 3.91151 0.107883 0
M  V30 1124 H 106.904 3.55281 1.78497 0
M  V30 1125 N 107.901 -0.206675 1.56239 0
M  V30 1126 C 108.831 -1.25909 1.96645 0
M  V30 1127 C 109.812 -1.48097 0.836734 0
M  V30 1128 O 110.997 -1.6003 1.10019 0
M  V30 1129 C 108.127 -2.6058 2.29599 0
M  V30 1130 C 107.081 -2.53024 3.452 0
M  V30 1131 C 106.407 -3.91861 3.63798 0
M  V30 1132 C 107.707 -2.06524 4.79734 0
M  V30 1133 H 109.401 -0.923369 2.84806 0
M  V30 1134 H 106.947 -0.442735 1.37025 0
M  V30 1135 H 108.9 -3.34375 2.56459 0
M  V30 1136 H 107.624 -2.95869 1.38307 0
M  V30 1137 H 106.283 -1.81684 3.18412 0
M  V30 1138 H 105.931 -4.24483 2.69857 0
M  V30 1139 H 105.631 -3.87683 4.4156 0
M  V30 1140 H 107.155 -4.67296 3.93022 0
M  V30 1141 H 108.569 -2.70072 5.05702 0
M  V30 1142 H 106.966 -2.13374 5.60885 0
M  V30 1143 H 108.036 -1.01802 4.74093 0
M  V30 1144 N 109.379 -1.50304 -0.473955 0
M  V30 1145 C 110.656 -1.51667 -1.23518 0
M  V30 1146 C 111.036 -0.259701 -2.09496 0
M  V30 1147 O 110.384 0.756986 -2.15597 0
M  V30 1148 C 110.594 -2.81082 -2.06868 0
M  V30 1149 C 111.942 -3.31631 -2.65153 0
M  V30 1150 O 112.966 -2.82384 -2.17113 0
M  V30 1151 O 111.825 -4.17471 -3.52675 0
M  V30 1152 H 108.919 -0.60822 -0.560355 0
M  V30 1153 H 111.465 -1.62592 -0.486011 0
M  V30 1154 H 110.237 -3.64041 -1.4349 0
M  V30 1155 H 109.86 -2.73146 -2.88924 0
M  V30 1156 N 110.857 0.726932 -1.39834 0
M  V30 1157 C 111.805 1.86235 -1.39353 0
M  V30 1158 C 112.799 1.67144 -0.275555 0
M  V30 1159 O 114.005 1.74387 -0.44601 0
M  V30 1160 H 110.38 0.613174 -0.43534 0
M  V30 1161 H 112.351 1.83756 -2.35109 0
M  V30 1162 C 111.1 3.23995 -1.26185 0
M  V30 1163 H 110.423 3.39285 -2.11484 0
M  V30 1164 H 111.863 4.03609 -1.29907 0
M  V30 1165 C 110.322 3.36888 0.0290018 0
M  V30 1166 O 110.852 3.89152 0.99619 0
M  V30 1167 N 109.058 2.90446 0.0947437 0
M  V30 1168 H 108.605 2.48102 -0.693035 0
M  V30 1169 H 108.563 2.99451 0.957932 0
M  V30 1170 N 112.336 1.25143 0.95797 0
M  V30 1171 C 113.564 1.12424 1.73691 0
M  V30 1172 C 113.979 -0.322304 1.86029 0
M  V30 1173 O 113.336 -1.22186 1.35561 0
M  V30 1174 C 113.387 1.76933 3.15241 0
M  V30 1175 O 113.108 3.15932 3.03511 0
M  V30 1176 C 114.609 1.6995 4.09429 0
M  V30 1177 H 111.829 0.3923 0.544373 0
M  V30 1178 H 114.373 1.6544 1.20207 0
M  V30 1179 H 112.528 1.27895 3.6568 0
M  V30 1180 H 112.942 3.47598 3.9278 0
M  V30 1181 H 114.416 2.19753 5.06372 0
M  V30 1182 H 114.893 0.662619 4.34173 0
M  V30 1183 H 115.499 2.18461 3.64904 0
M  V30 1184 N 113.814 -1.1601 1.06675 0
M  V30 1185 C 115.23 -1.38622 0.790948 0
M  V30 1186 C 115.43 -1.92109 -0.607965 0
M  V30 1187 O 114.486 -2.12239 -1.36787 0
M  V30 1188 C 115.799 -2.36347 1.85905 0
M  V30 1189 C 117.347 -2.50023 1.88301 0
M  V30 1190 C 117.822 -3.51033 2.94176 0
M  V30 1191 N 119.313 -3.58563 2.93235 0
M  V30 1192 C 120.048 -4.36521 3.71803 0
M  V30 1193 N 119.544 -5.17869 4.602 0
M  V30 1194 N 121.337 -4.31541 3.60178 0
M  V30 1195 H 113.488 -0.796294 1.96908 0
M  V30 1196 H 115.751 -0.412597 0.853503 0
M  V30 1197 H 115.457 -2.04147 2.86386 0
M  V30 1198 H 115.331 -3.36042 1.71334 0
M  V30 1199 H 117.718 -2.81524 0.884769 0
M  V30 1200 H 117.799 -1.5035 2.06951 0
M  V30 1201 H 117.443 -3.20268 3.94196 0
M  V30 1202 H 117.373 -4.50445 2.72776 0
M  V30 1203 H 119.864 -3.00496 2.29152 0
M  V30 1204 H 120.177 -5.74578 5.16797 0
M  V30 1205 H 118.522 -5.17199 4.64253 0
M  V30 1206 H 121.713 -3.67051 2.90502 0
M  V30 1207 H 121.886 -4.9205 4.21653 0
M  V30 1208 N 115.292 -0.849877 -1.32721 0
M  V30 1209 C 116.54 -0.450032 -1.97026 0
M  V30 1210 C 116.861 0.996604 -1.67609 0
M  V30 1211 O 116.131 1.6958 -0.980786 0
M  V30 1212 H 114.711 -0.163426 -0.728904 0
M  V30 1213 H 117.373 -1.08526 -1.6189 0
M  V30 1214 H 116.469 -0.591146 -3.0645 0
M  V30 1215 N 116.77 1.45427 -0.607355 0
M  V30 1216 C 117.7 2.3329 0.0989352 0
M  V30 1217 C 118.681 1.46816 0.859007 0
M  V30 1218 O 119.866 1.75588 0.829604 0
M  V30 1219 C 116.996 3.29518 1.09705 0
M  V30 1220 C 115.95 4.25626 0.450206 0
M  V30 1221 C 115.276 5.11542 1.55655 0
M  V30 1222 C 116.576 5.18505 -0.628455 0
M  V30 1223 H 118.27 2.92595 -0.634716 0
M  V30 1224 H 115.816 1.40696 -0.306681 0
M  V30 1225 H 117.769 3.89855 1.59971 0
M  V30 1226 H 116.493 2.68372 1.86129 0
M  V30 1227 H 115.152 3.66586 -0.0315886 0
M  V30 1228 H 114.8 4.46765 2.31107 0
M  V30 1229 H 114.5 5.76647 1.12925 0
M  V30 1230 H 116.024 5.74748 2.06148 0
M  V30 1231 H 117.438 5.72916 -0.209877 0
M  V30 1232 H 115.835 5.92085 -0.977489 0
M  V30 1233 H 116.905 4.60948 -1.50514 0
M  V30 1234 N 118.248 0.346503 1.53744 0
M  V30 1235 C 119.158 -0.517293 2.28826 0
M  V30 1236 C 120.174 -1.10935 1.3405 0
M  V30 1237 O 121.35 -1.1244 1.6709 0
M  V30 1238 C 118.415 -1.65098 3.04866 0
M  V30 1239 C 117.476 -1.0884 4.15274 0
M  V30 1240 C 116.709 -2.16806 4.87679 0
M  V30 1241 O 116.932 -3.3758 4.59778 0
M  V30 1242 O 115.866 -1.80934 5.74061 0
M  V30 1243 H 119.692 0.0931396 3.03557 0
M  V30 1244 H 117.277 0.111458 1.48984 0
M  V30 1245 H 119.159 -2.31053 3.5241 0
M  V30 1246 H 117.834 -2.24717 2.32989 0
M  V30 1247 H 116.741 -0.3933 3.72027 0
M  V30 1248 H 118.074 -0.537036 4.89261 0
M  V30 1249 N 119.726 -1.57421 0.075193 0
M  V30 1250 C 120.689 -2.11791 -0.876203 0
M  V30 1251 C 121.689 -1.04268 -1.22412 0
M  V30 1252 O 122.879 -1.30242 -1.15684 0
M  V30 1253 C 120.011 -2.62207 -2.17854 0
M  V30 1254 H 121.204 -2.9716 -0.40444 0
M  V30 1255 H 118.757 -1.55333 -0.173557 0
M  V30 1256 H 119.492 -1.803 -2.6956 0
M  V30 1257 H 119.277 -3.40802 -1.93897 0
M  V30 1258 H 120.767 -3.04335 -2.85955 0
M  V30 1259 N 121.204 0.198386 -1.56346 0
M  V30 1260 C 122.432 0.935572 -1.84539 0
M  V30 1261 C 122.847 1.76989 -0.657281 0
M  V30 1262 O 122.204 1.78626 0.374043 0
M  V30 1263 C 122.255 1.8344 -3.11499 0
M  V30 1264 O 121.976 1.03377 -4.25728 0
M  V30 1265 C 123.477 2.68355 -3.52846 0
M  V30 1266 H 120.697 0.273126 -0.612897 0
M  V30 1267 H 123.241 0.20663 -2.03453 0
M  V30 1268 H 121.396 2.51701 -2.94492 0
M  V30 1269 H 121.81 1.64599 -4.98003 0
M  V30 1270 H 123.284 3.27085 -4.44657 0
M  V30 1271 H 123.761 3.41901 -2.75681 0
M  V30 1272 H 124.367 2.05471 -3.72373 0
M  V30 1273 N 122.682 1.50554 0.465978 0
M  V30 1274 C 124.093 1.54599 1.04671 0
M  V30 1275 C 124.444 0.352488 1.93008 0
M  V30 1276 O 123.569 -0.534044 2.09707 0
M  V30 1277 C 124.164 2.80166 1.90505 0
M  V30 1278 C 122.723 2.86876 2.43678 0
M  V30 1279 C 121.87 2.48947 1.22151 0
M  V30 1280 H 124.821 1.56744 0.248384 0
M  V30 1281 H 124.842 2.62311 2.75633 0
M  V30 1282 H 124.354 3.67013 1.26186 0
M  V30 1283 H 122.455 2.04393 3.11536 0
M  V30 1284 H 122.568 3.89885 2.78436 0
M  V30 1285 H 120.932 2.01498 1.5579 0
M  V30 1286 H 121.715 3.38107 0.594866 0
M  V30 1287 N 124.16 -0.719506 1.40217 0
M  V30 1288 C 125.09 -1.8465 1.42922 0
M  V30 1289 C 126.071 -1.67599 0.29062 0
M  V30 1290 O 127.256 -1.87688 0.498677 0
M  V30 1291 C 124.386 -3.22565 1.28722 0
M  V30 1292 C 123.34 -3.54281 2.40144 0
M  V30 1293 C 122.666 -4.91298 2.11023 0
M  V30 1294 C 123.966 -3.55676 3.82481 0
M  V30 1295 H 125.66 -1.82644 2.37237 0
M  V30 1296 H 123.206 -0.877305 1.1419 0
M  V30 1297 H 125.159 -4.01095 1.29232 0
M  V30 1298 H 123.883 -3.25137 0.308811 0
M  V30 1299 H 122.542 -2.78088 2.38877 0
M  V30 1300 H 122.19 -4.90468 1.11582 0
M  V30 1301 H 121.89 -5.13485 2.8567 0
M  V30 1302 H 123.414 -5.72166 2.13209 0
M  V30 1303 H 124.828 -4.24254 3.85592 0
M  V30 1304 H 123.225 -3.89388 4.56614 0
M  V30 1305 H 124.295 -2.55144 4.12346 0
M  V30 1306 N 125.638 -1.25649 -0.95132 0
M  V30 1307 C 126.885 -1.10594 -1.69633 0
M  V30 1308 C 127.213 0.352515 -1.91279 0
M  V30 1309 O 126.468 1.27601 -1.4838 0
M  V30 1310 C 126.767 -1.80909 -3.08231 0
M  V30 1311 C 126.433 -3.30825 -3.06375 0
M  V30 1312 C 125.095 -3.71722 -3.05576 0
M  V30 1313 C 127.447 -4.26589 -2.99452 0
M  V30 1314 C 124.775 -5.06788 -2.95606 0
M  V30 1315 C 127.127 -5.61683 -2.91024 0
M  V30 1316 C 125.791 -6.01904 -2.88562 0
M  V30 1317 H 125.061 -0.404691 -0.620731 0
M  V30 1318 H 127.708 -1.55964 -1.11119 0
M  V30 1319 H 126.013 -1.27979 -3.70309 0
M  V30 1320 H 127.71 -1.6671 -3.64704 0
M  V30 1321 H 124.3 -2.98287 -3.07771 0
M  V30 1322 H 128.484 -3.95982 -2.99185 0
M  V30 1323 H 123.74 -5.37126 -2.92071 0
M  V30 1324 H 127.914 -6.35578 -2.84629 0
M  V30 1325 H 125.541 -7.06521 -2.80593 0
M  V30 1326 N 127.117 1.15442 -1.07289 0
M  V30 1327 C 128.067 2.18164 -0.662467 0
M  V30 1328 C 129.051 1.57845 0.312074 0
M  V30 1329 O 130.243 1.76552 0.125905 0
M  V30 1330 C 127.372 3.43246 -0.0611295 0
M  V30 1331 C 126.458 4.1062 -1.06077 0
M  V30 1332 N 126.849 4.53491 -2.24008 0
M  V30 1333 C 125.147 4.36949 -0.893964 0
M  V30 1334 C 125.848 5.05731 -2.87422 0
M  V30 1335 N 124.824 4.99236 -2.15091 0
M  V30 1336 H 128.626 2.49038 -1.56068 0
M  V30 1337 H 126.14 1.32003 -0.945988 0
M  V30 1338 H 128.137 4.16145 0.250792 0
M  V30 1339 H 126.797 3.13854 0.832207 0
M  V30 1340 H 127.808 4.46898 -2.6173 0
M  V30 1341 H 124.485 4.17466 -0.0534693 0
M  V30 1342 H 125.875 5.48865 -3.87553 0
M  V30 1343 N 128.595 0.856903 1.32268 0
M  V30 1344 C 129.872 0.382583 1.91822 0
M  V30 1345 C 130.252 -1.13407 1.78051 0
M  V30 1346 O 129.6 -1.95673 1.18001 0
M  V30 1347 C 129.81 0.849446 3.38505 0
M  V30 1348 C 131.158 0.867936 4.15634 0
M  V30 1349 O 132.182 0.794232 3.47232 0
M  V30 1350 O 131.041 0.972286 5.37781 0
M  V30 1351 H 128.135 0.112014 0.819379 0
M  V30 1352 H 130.681 0.943952 1.41024 0
M  V30 1353 H 129.453 1.89267 3.42482 0
M  V30 1354 H 129.076 0.265652 3.96712 0
M  V30 1355 N 130.073 -1.45103 0.615059 0
M  V30 1356 C 131.321 -2.01784 0.112955 0
M  V30 1357 C 131.642 -1.48504 -1.26378 0
M  V30 1358 O 130.912 -0.682245 -1.83636 0
M  V30 1359 H 129.492 -0.745993 0.0387668 0
M  V30 1360 H 132.154 -1.77808 0.798141 0
M  V30 1361 H 131.25 -3.12025 0.0684069 0
M  V30 1362 N 131.551 -0.354651 -1.53558 0
M  V30 1363 C 132.797 0.238797 -2.01389 0
M  V30 1364 C 133.13 1.49309 -1.2418 0
M  V30 1365 O 132.405 1.91638 -0.332457 0
M  V30 1366 C 132.688 0.541771 -3.56001 0
M  V30 1367 C 132.541 -0.725388 -4.43912 0
M  V30 1368 C 133.86 1.34685 -4.18984 0
M  V30 1369 H 130.979 0.0853177 -0.732045 0
M  V30 1370 H 133.621 -0.477384 -1.83905 0
M  V30 1371 H 131.771 1.15189 -3.71031 0
M  V30 1372 H 133.443 -1.36313 -4.407 0
M  V30 1373 H 131.686 -1.34801 -4.12324 0
M  V30 1374 H 132.357 -0.468505 -5.50008 0
M  V30 1375 H 134.833 0.830837 -4.07721 0
M  V30 1376 H 133.709 1.52759 -5.27215 0
M  V30 1377 H 133.97 2.35221 -3.74331 0
M  V30 1378 N 133.029 1.57378 -0.0835403 0
M  V30 1379 C 134.278 1.93106 0.582498 0
M  V30 1380 C 134.591 0.96651 1.70053 0
M  V30 1381 O 135.797 1.21705 2.42693 0
M  V30 1382 C 134.253 3.43076 1.08751 0
M  V30 1383 C 133.861 4.48 -0.000146404 0
M  V30 1384 C 135.605 3.87785 1.72694 0
M  V30 1385 C 133.512 5.89113 0.519568 0
M  V30 1386 H 132.442 0.720775 0.221358 0
M  V30 1387 H 135.093 1.82821 -0.157675 0
M  V30 1388 H 133.475 3.48474 1.88101 0
M  V30 1389 H 134.649 4.54233 -0.775199 0
M  V30 1390 H 132.964 4.1283 -0.54406 0
M  V30 1391 H 135.561 4.90604 2.1263 0
M  V30 1392 H 135.904 3.25796 2.59158 0
M  V30 1393 H 136.437 3.8504 0.999457 0
M  V30 1394 H 133.176 6.54775 -0.308186 0
M  V30 1395 H 132.696 5.86376 1.26188 0
M  V30 1396 H 134.375 6.39346 0.992237 0
M  V30 1397 N 134.507 -0.190092 1.56449 0
M  V30 1398 C 135.737 -0.92443 1.84764 0
M  V30 1399 C 136.145 -1.77146 0.664529 0
M  V30 1400 O 135.488 -1.79812 -0.375957 0
M  V30 1401 C 135.55 -1.86651 3.07248 0
M  V30 1402 C 135.214 -1.20094 4.40938 0
M  V30 1403 C 136.211 -0.575445 5.16706 0
M  V30 1404 C 133.896 -1.2033 4.87674 0
M  V30 1405 C 135.89 0.0388111 6.37388 0
M  V30 1406 C 133.577 -0.585214 6.08291 0
M  V30 1407 C 134.575 0.0347578 6.82991 0
M  V30 1408 O 134.263 0.643147 8.01323 0
M  V30 1409 H 133.995 -0.274974 0.617548 0
M  V30 1410 H 136.549 -0.200788 2.04416 0
M  V30 1411 H 134.779 -2.62998 2.83494 0
M  V30 1412 H 136.468 -2.46907 3.22167 0
M  V30 1413 H 137.234 -0.565728 4.81689 0
M  V30 1414 H 133.113 -1.67526 4.29484 0
M  V30 1415 H 136.657 0.523329 6.95634 0
M  V30 1416 H 132.554 -0.592451 6.42775 0
M  V30 1417 H 133.322 0.540545 8.16713 0
M  V30 1418 N 135.985 -1.50799 -0.457987 0
M  V30 1419 C 137.213 -1.66218 -1.23203 0
M  V30 1420 C 137.628 -0.350894 -1.85511 0
M  V30 1421 O 136.985 0.668546 -1.69814 0
M  V30 1422 C 137.036 -2.76291 -2.33121 0
M  V30 1423 O 136.757 -4.02338 -1.73366 0
M  V30 1424 C 138.258 -3.028 -3.2377 0
M  V30 1425 H 135.478 -0.558361 -0.372121 0
M  V30 1426 H 138.022 -1.97099 -0.545179 0
M  V30 1427 H 136.177 -2.48068 -2.97558 0
M  V30 1428 H 136.591 -4.63312 -2.4585 0
M  V30 1429 H 138.065 -3.8345 -3.97077 0
M  V30 1430 H 138.542 -2.14385 -3.83322 0
M  V30 1431 H 139.148 -3.32604 -2.65056 0
M  V30 1432 N 137.463 0.71206 -1.40597 0
M  V30 1433 C 138.688 1.50617 -1.42581 0
M  V30 1434 C 139.113 1.88079 -0.0282102 0
M  V30 1435 O 138.471 1.53511 0.964579 0
M  V30 1436 C 138.519 2.7557 -2.3258 0
M  V30 1437 O 137.623 3.72414 -1.77148 0
M  V30 1438 H 136.964 0.453966 -0.484573 0
M  V30 1439 H 139.494 0.876649 -1.84868 0
M  V30 1440 H 139.504 3.2406 -2.47889 0
M  V30 1441 H 138.179 2.47639 -3.34138 0
M  V30 1442 H 136.756 3.31276 -1.71204 0
M  V30 1443 N 138.941 1.26152 0.944643 0
M  V30 1444 C 139.874 1.01729 2.04271 0
M  V30 1445 C 140.852 -0.0568101 1.62501 0
M  V30 1446 O 142.036 0.0848987 1.88309 0
M  V30 1447 C 139.163 0.539792 3.34371 0
M  V30 1448 C 138.209 1.60593 3.9511 0
M  V30 1449 S 139.042 3.19392 4.29825 0
M  V30 1450 C 140.198 2.73402 5.63029 0
M  V30 1451 H 140.431 1.94703 2.24673 0
M  V30 1452 H 137.964 1.09793 1.08558 0
M  V30 1453 H 139.922 0.270956 4.09605 0
M  V30 1454 H 138.583 -0.369609 3.11918 0
M  V30 1455 H 137.776 1.22275 4.88943 0
M  V30 1456 H 137.378 1.82596 3.26397 0
M  V30 1457 H 139.67 2.1765 6.41588 0
M  V30 1458 H 140.613 3.65913 6.06229 0
M  V30 1459 H 141.021 2.13077 5.22741 0
M  V30 1460 N 140.419 -1.14872 1.07899 0
M  V30 1461 C 141.644 -1.90202 0.826926 0
M  V30 1462 C 142.069 -1.77774 -0.614664 0
M  V30 1463 O 141.427 -1.11431 -1.43013 0
M  V30 1464 C 141.475 -3.38352 1.24702 0
M  V30 1465 O 140.579 -4.10497 0.39575 0
M  V30 1466 H 139.92 -0.591968 0.300782 0
M  V30 1467 H 142.45 -1.45437 1.43907 0
M  V30 1468 H 142.46 -3.89156 1.22563 0
M  V30 1469 H 141.135 -3.46715 2.29698 0
M  V30 1470 H 139.712 -3.69796 0.480117 0
M  V30 1471 N 141.898 -0.863906 -1.31812 0
M  V30 1472 C 143.144 -0.481841 -1.9761 0
M  V30 1473 C 143.499 0.954048 -1.6708 0
M  V30 1474 O 142.792 1.66182 -0.953624 0
M  V30 1475 C 142.986 -0.668547 -3.51091 0
M  V30 1476 C 142.815 -2.12103 -3.96538 0
M  V30 1477 C 141.585 -2.76141 -4.23171 0
M  V30 1478 C 143.783 -3.09265 -4.10925 0
M  V30 1479 N 141.765 -4.12205 -4.54929 0
M  V30 1480 C 143.136 -4.30341 -4.46326 0
M  V30 1481 C 145.191 -3.05337 -3.93286 0
M  V30 1482 C 143.894 -5.48 -4.65928 0
M  V30 1483 C 145.92 -4.22248 -4.14078 0
M  V30 1484 C 145.282 -5.42085 -4.49804 0
M  V30 1485 H 141.381 -0.225238 -0.74886 0
M  V30 1486 H 143.965 -1.11723 -1.59455 0
M  V30 1487 H 142.136 -0.0627898 -3.88349 0
M  V30 1488 H 143.868 -0.255467 -4.03893 0
M  V30 1489 H 140.623 -2.27125 -4.15585 0
M  V30 1490 H 141.047 -4.82416 -4.74978 0
M  V30 1491 H 145.689 -2.138 -3.64759 0
M  V30 1492 H 143.407 -6.40059 -4.93305 0
M  V30 1493 H 146.993 -4.20654 -4.01922 0
M  V30 1494 H 145.873 -6.31044 -4.65567 0
M  V30 1495 N 143.376 1.44774 -0.622745 0
M  V30 1496 C 144.601 2.06999 -0.128968 0
M  V30 1497 C 145.026 1.4617 1.1839 0
M  V30 1498 O 144.384 0.560007 1.72434 0
M  V30 1499 C 144.432 3.60595 -0.0188351 0
M  V30 1500 O 143.536 3.99398 1.02739 0
M  V30 1501 H 142.877 0.659047 -0.0809544 0
M  V30 1502 H 145.407 1.85784 -0.85705 0
M  V30 1503 H 145.417 4.07627 0.174476 0
M  V30 1504 H 144.092 4.04252 -0.977384 0
M  V30 1505 H 142.669 3.64011 0.809326 0
M  V30 1506 N 144.854 0.36279 1.53368 0
M  V30 1507 C 146.27 0.0116182 1.59596 0
M  V30 1508 C 146.47 -1.47012 1.37803 0
M  V30 1509 O 145.526 -2.23136 1.18181 0
M  V30 1510 C 146.839 0.465052 2.97082 0
M  V30 1511 C 148.387 0.419033 3.10182 0
M  V30 1512 C 148.862 0.848235 4.50077 0
M  V30 1513 N 150.353 0.803183 4.56183 0
M  V30 1514 C 151.088 1.107 5.62613 0
M  V30 1515 N 150.584 1.47996 6.76808 0
M  V30 1516 N 152.377 1.02998 5.52583 0
M  V30 1517 H 144.528 1.32775 1.65785 0
M  V30 1518 H 146.791 0.542518 0.777417 0
M  V30 1519 H 146.497 1.49892 3.18159 0
M  V30 1520 H 146.371 -0.149786 3.76902 0
M  V30 1521 H 148.758 -0.605696 2.88817 0
M  V30 1522 H 148.839 1.06933 2.32377 0
M  V30 1523 H 148.483 1.87107 4.7218 0
M  V30 1524 H 148.413 0.175218 5.26308 0
M  V30 1525 H 150.904 0.52838 3.74188 0
M  V30 1526 H 151.217 1.69613 7.53957 0
M  V30 1527 H 149.562 1.51859 6.78206 0
M  V30 1528 H 152.753 0.737817 4.62249 0
M  V30 1529 H 152.926 1.2701 6.35431 0
M  V30 1530 N 146.332 -1.57332 0.0918853 0
M  V30 1531 C 147.578 -1.94524 -0.573425 0
M  V30 1532 C 147.911 -0.973578 -1.68033 0
M  V30 1533 O 147.186 -0.00609226 -1.94499 0
M  V30 1534 C 147.469 -3.41858 -1.13161 0
M  V30 1535 C 147.322 -4.4979 -0.0299747 0
M  V30 1536 C 148.641 -3.90435 -2.03098 0
M  V30 1537 H 145.76 -0.70734 -0.206975 0
M  V30 1538 H 148.402 -1.89309 0.161942 0
M  V30 1539 H 146.552 -3.46433 -1.7583 0
M  V30 1540 H 148.224 -4.57327 0.604112 0
M  V30 1541 H 146.467 -4.291 0.636833 0
M  V30 1542 H 147.138 -5.50069 -0.461287 0
M  V30 1543 H 149.614 -3.87992 -1.50338 0
M  V30 1544 H 148.49 -4.94097 -2.39081 0
M  V30 1545 H 148.751 -3.29541 -2.94712 0
M  V30 1546 N 147.81 0.181792 -1.56548 0
M  V30 1547 C 149.059 0.898348 -1.8059 0
M  V30 1548 C 149.372 1.83862 -0.667379 0
M  V30 1549 O 150.578 2.59678 -0.792446 0
M  V30 1550 C 149.034 1.64791 -3.19956 0
M  V30 1551 C 148.642 0.751789 -4.41647 0
M  V30 1552 C 150.386 2.35331 -3.53298 0
M  V30 1553 C 148.293 1.50098 -5.72035 0
M  V30 1554 H 147.223 0.339194 -0.673397 0
M  V30 1555 H 149.874 0.151413 -1.82874 0
M  V30 1556 H 148.256 2.43921 -3.11959 0
M  V30 1557 H 149.43 -0.0018076 -4.608 0
M  V30 1558 H 147.745 0.156562 -4.16106 0
M  V30 1559 H 150.342 2.91958 -4.47956 0
M  V30 1560 H 150.685 3.10164 -2.77676 0
M  V30 1561 H 151.218 1.63154 -3.62803 0
M  V30 1562 H 147.957 0.795175 -6.50659 0
M  V30 1563 H 147.477 2.22817 -5.56878 0
M  V30 1564 H 149.156 2.05125 -6.13622 0
M  V30 1565 N 149.288 1.51039 0.449983 0
M  V30 1566 C 150.251 1.70863 1.5277 0
M  V30 1567 C 151.251 0.578846 1.5002 0
M  V30 1568 O 152.441 0.846213 1.52266 0
M  V30 1569 C 149.573 1.75341 2.9235 0
M  V30 1570 H 150.766 2.67034 1.36502 0
M  V30 1571 H 148.319 1.40838 0.677812 0
M  V30 1572 H 149.054 0.809383 3.14037 0
M  V30 1573 H 148.839 2.57436 2.95752 0
M  V30 1574 H 150.329 1.92559 3.70555 0
M  V30 1575 N 150.766 -0.704594 1.40972 0
M  V30 1576 C 152.012 -1.46675 1.40051 0
M  V30 1577 C 152.345 -1.94199 0.00641102 0
M  V30 1578 O 151.62 -1.68916 -0.964235 0
M  V30 1579 C 151.903 -2.68505 2.39952 0
M  V30 1580 C 151.756 -2.26805 3.88432 0
M  V30 1581 C 153.075 -3.70686 2.37233 0
M  V30 1582 H 150.194 -0.532015 0.510028 0
M  V30 1583 H 152.836 -0.803255 1.72185 0
M  V30 1584 H 150.986 -3.25114 2.1268 0
M  V30 1585 H 152.658 -1.75592 4.26574 0
M  V30 1586 H 150.901 -1.58685 4.03734 0
M  V30 1587 H 151.572 -3.14181 4.53866 0
M  V30 1588 H 154.048 -3.23731 2.61415 0
M  V30 1589 H 152.924 -4.53553 3.09162 0
M  V30 1590 H 153.185 -4.19754 1.38777 0
M  V30 1591 N 152.244 -1.26651 -0.937939 0
M  V30 1592 C 153.521 -1.0313 -1.66204 0
M  V30 1593 C 153.901 0.437256 -2.06522 0
M  V30 1594 O 153.249 1.41831 -1.79154 0
M  V30 1595 C 153.459 -1.98314 -2.87181 0
M  V30 1596 C 154.807 -2.27107 -3.58758 0
M  V30 1597 O 155.831 -1.96205 -2.97291 0
M  V30 1598 O 154.69 -2.79736 -4.69479 0
M  V30 1599 H 151.784 -0.392384 -0.727986 0
M  V30 1600 H 154.33 -1.37874 -0.989382 0
M  V30 1601 H 153.102 -2.97399 -2.54302 0
M  V30 1602 H 152.725 -1.64068 -3.6217 0
M  V30 1603 N 153.722 1.14298 -1.08507 0
M  V30 1604 C 154.685 2.17607 -0.719711 0
M  V30 1605 C 155.685 1.58907 0.245997 0
M  V30 1606 O 156.875 1.74181 0.0254081 0
M  V30 1607 C 154.007 3.40842 -0.0627695 0
M  V30 1608 H 155.2 2.51443 -1.63452 0
M  V30 1609 H 152.753 1.28963 -0.88307 0
M  V30 1610 H 153.488 3.12587 0.863716 0
M  V30 1611 H 153.273 3.84713 -0.757504 0
M  V30 1612 H 154.763 4.17221 0.177786 0
M  V30 1613 N 155.201 0.870884 1.31352 0
M  V30 1614 C 156.164 0.332243 2.26779 0
M  V30 1615 C 157.164 -0.517302 1.52252 0
M  V30 1616 O 158.354 -0.326477 1.71113 0
M  V30 1617 C 155.486 -0.528066 3.36785 0
M  V30 1618 H 156.679 1.17469 2.75937 0
M  V30 1619 H 154.232 0.64655 1.423 0
M  V30 1620 H 154.967 -1.39167 2.92922 0
M  V30 1621 H 154.752 0.0802582 3.92018 0
M  V30 1622 H 156.242 -0.897179 4.07849 0
M  V30 1623 N 156.679 -1.44442 0.630414 0
M  V30 1624 C 157.904 -2.06927 0.139944 0
M  V30 1625 C 158.329 -1.46795 -1.17613 0
M  V30 1626 O 157.687 -0.569144 -1.72135 0
M  V30 1627 C 157.735 -3.6058 0.0379581 0
M  V30 1628 O 156.839 -3.99937 -1.0062 0
M  V30 1629 H 156.18 -0.658608 0.0844483 0
M  V30 1630 H 158.71 -1.85327 0.866891 0
M  V30 1631 H 158.72 -4.07714 -0.152856 0
M  V30 1632 H 157.395 -4.03728 0.998809 0
M  V30 1633 H 155.972 -3.64436 -0.79001 0
M  V30 1634 N 158.157 -0.370918 -1.53173 0
M  V30 1635 C 159.405 0.216673 -2.00935 0
M  V30 1636 C 159.726 1.48845 -1.25977 0
M  V30 1637 O 158.996 1.92286 -0.374551 0
M  V30 1638 H 157.576 0.0830565 -0.742368 0
M  V30 1639 H 160.238 -0.49838 -1.8842 0
M  V30 1640 H 159.334 0.439893 -3.08984 0
M  V30 1641 N 159.635 1.57281 -0.100228 0
M  V30 1642 C 160.582 2.14305 0.856858 0
M  V30 1643 C 161.552 1.06296 1.27634 0
M  V30 1644 O 162.737 1.34109 1.35718 0
M  V30 1645 C 159.877 2.73184 2.10866 0
M  V30 1646 C 158.99 3.95442 1.73925 0
M  V30 1647 C 158.125 4.42468 2.93931 0
M  V30 1648 C 157.164 5.57303 2.5314 0
M  V30 1649 N 156.301 5.99158 3.65997 0
M  V30 1650 H 161.141 2.95772 0.363726 0
M  V30 1651 H 158.678 1.46139 0.167858 0
M  V30 1652 H 160.636 3.05442 2.84185 0
M  V30 1653 H 159.266 1.94437 2.57671 0
M  V30 1654 H 158.318 3.69464 0.905554 0
M  V30 1655 H 159.63 4.78769 1.39935 0
M  V30 1656 H 158.784 4.76537 3.75496 0
M  V30 1657 H 157.523 3.58052 3.31134 0
M  V30 1658 H 156.528 5.22857 1.70003 0
M  V30 1659 H 157.753 6.43471 2.17075 0
M  V30 1660 H 155.699 5.17687 4.02909 0
M  V30 1661 H 155.616 6.77295 3.35869 0
M  V30 1662 H 156.884 6.3786 4.48057 0
M  V30 1663 N 161.113 -0.173488 1.56642 0
M  V30 1664 C 162.023 -1.23482 1.99473 0
M  V30 1665 C 163.039 -1.48567 0.905752 0
M  V30 1666 O 164.215 -1.60758 1.21321 0
M  V30 1667 C 161.28 -2.55444 2.34413 0
M  V30 1668 C 160.341 -2.38241 3.57127 0
M  V30 1669 C 159.574 -3.63909 3.90392 0
M  V30 1670 O 159.797 -4.68996 3.24653 0
M  V30 1671 O 158.731 -3.58149 4.83749 0
M  V30 1672 H 162.557 -0.901279 2.90018 0
M  V30 1673 H 160.142 -0.380185 1.44482 0
M  V30 1674 H 162.024 -3.33292 2.57865 0
M  V30 1675 H 160.699 -2.88382 1.4703 0
M  V30 1676 H 159.606 -1.58431 3.38896 0
M  V30 1677 H 160.939 -2.10228 4.45045 0
M  V30 1678 N 162.591 -1.51276 -0.441967 0
M  V30 1679 C 163.521 -1.752 -1.54361 0
M  V30 1680 C 164.502 -0.601682 -1.59103 0
M  V30 1681 O 165.687 -0.843913 -1.74905 0
M  V30 1682 C 162.817 -1.87282 -2.92477 0
M  V30 1683 C 161.771 -3.02687 -3.02596 0
M  V30 1684 C 161.097 -2.99947 -4.42647 0
M  V30 1685 C 162.397 -4.4273 -2.77106 0
M  V30 1686 H 164.091 -2.67442 -1.34592 0
M  V30 1687 H 161.637 -1.28694 -0.646048 0
M  V30 1688 H 163.59 -2.02602 -3.695 0
M  V30 1689 H 162.314 -0.916844 -3.13467 0
M  V30 1690 H 160.973 -2.87065 -2.28012 0
M  V30 1691 H 160.621 -2.02136 -4.60597 0
M  V30 1692 H 160.321 -3.77439 -4.50348 0
M  V30 1693 H 161.845 -3.17354 -5.2165 0
M  V30 1694 H 163.259 -4.58727 -3.43864 0
M  V30 1695 H 161.656 -5.21893 -2.96222 0
M  V30 1696 H 162.726 -4.53087 -1.72744 0
M  V30 1697 N 164.069 0.697108 -1.41344 0
M  V30 1698 C 165.315 1.45796 -1.41828 0
M  V30 1699 C 165.67 1.92382 -0.0261743 0
M  V30 1700 O 164.963 1.66522 0.947688 0
M  V30 1701 C 165.157 2.68553 -2.35826 0
M  V30 1702 C 164.986 2.33975 -3.84039 0
M  V30 1703 C 163.756 2.24414 -4.52732 0
M  V30 1704 C 165.954 1.97048 -4.75054 0
M  V30 1705 N 163.936 1.82705 -5.86082 0
M  V30 1706 C 165.307 1.66086 -5.9734 0
M  V30 1707 C 167.362 1.83845 -4.62715 0
M  V30 1708 C 166.065 1.23246 -7.08663 0
M  V30 1709 C 168.091 1.4241 -5.73998 0
M  V30 1710 C 167.453 1.12357 -6.95381 0
M  V30 1711 H 163.552 0.530859 -0.574206 0
M  V30 1712 H 166.136 0.806674 -1.77203 0
M  V30 1713 H 164.307 3.31404 -2.02549 0
M  V30 1714 H 166.039 3.35015 -2.2704 0
M  V30 1715 H 162.794 2.4276 -4.0665 0
M  V30 1716 H 163.218 1.64337 -6.56751 0
M  V30 1717 H 167.86 2.05734 -3.69369 0
M  V30 1718 H 165.578 1.00102 -8.01876 0
M  V30 1719 H 169.164 1.32746 -5.66454 0
M  V30 1720 H 168.044 0.807795 -7.80028 0
M  V30 1721 N 165.547 1.27147 0.931209 0
M  V30 1722 C 166.963 1.04475 1.20653 0
M  V30 1723 C 167.163 -0.223885 2.00252 0
M  V30 1724 O 166.219 -0.930332 2.34736 0
M  V30 1725 C 167.532 2.28209 1.95809 0
M  V30 1726 C 169.08 2.33211 2.08762 0
M  V30 1727 C 169.555 3.56665 2.87323 0
M  V30 1728 N 171.046 3.57201 2.94892 0
M  V30 1729 C 171.781 4.49395 3.56134 0
M  V30 1730 N 171.277 5.51889 4.18796 0
M  V30 1731 N 173.07 4.37026 3.53504 0
M  V30 1732 H 165.221 2.08612 0.399333 0
M  V30 1733 H 167.484 0.917312 0.239253 0
M  V30 1734 H 167.19 3.20538 1.44736 0
M  V30 1735 H 167.064 2.33247 2.96438 0
M  V30 1736 H 169.451 1.41391 2.59023 0
M  V30 1737 H 169.532 2.32178 1.07364 0
M  V30 1738 H 169.176 4.4882 2.37746 0
M  V30 1739 H 169.106 3.54948 3.88998 0
M  V30 1740 H 171.597 2.83074 2.50354 0
M  V30 1741 H 171.91 6.18409 4.63454 0
M  V30 1742 H 170.255 5.55735 4.17353 0
M  V30 1743 H 173.446 3.56166 3.03749 0
M  V30 1744 H 173.619 5.09067 4.00942 0
M  V30 1745 N 167.025 -1.13721 1.09112 0
M  V30 1746 C 168.255 -1.88499 0.845671 0
M  V30 1747 C 168.663 -1.79218 -0.606432 0
M  V30 1748 O 168.006 -1.1544 -1.42896 0
M  V30 1749 C 168.068 -3.38954 1.19793 0
M  V30 1750 C 167.732 -3.72018 2.65428 0
M  V30 1751 C 168.729 -3.7153 3.63677 0
M  V30 1752 C 166.414 -4.01775 3.01467 0
M  V30 1753 C 168.408 -4.00336 4.95994 0
M  V30 1754 C 166.095 -4.30243 4.33975 0
M  V30 1755 C 167.093 -4.29508 5.31048 0
M  V30 1756 O 166.781 -4.5728 6.61173 0
M  V30 1757 H 166.513 -0.603702 0.304171 0
M  V30 1758 H 169.067 -1.44903 1.45576 0
M  V30 1759 H 167.297 -3.83039 0.530871 0
M  V30 1760 H 168.986 -3.95052 0.932146 0
M  V30 1761 H 169.752 -3.4862 3.37179 0
M  V30 1762 H 165.631 -4.01496 2.26544 0
M  V30 1763 H 169.175 -3.99678 5.71755 0
M  V30 1764 H 165.072 -4.52625 4.60219 0
M  V30 1765 H 165.84 -4.74964 6.66597 0
M  V30 1766 N 168.503 -0.877838 -1.30888 0
M  V30 1767 C 169.78 -0.413052 -1.91189 0
M  V30 1768 C 170.16 1.1056 -1.79832 0
M  V30 1769 O 169.508 1.93771 -1.21099 0
M  V30 1770 C 169.718 -0.903191 -3.3711 0
M  V30 1771 C 171.066 -0.93395 -4.14201 0
M  V30 1772 O 172.09 -0.849373 -3.45925 0
M  V30 1773 O 170.949 -1.05772 -5.36167 0
M  V30 1774 H 168.043 -0.125035 -0.817493 0
M  V30 1775 H 170.589 -0.966269 -1.39504 0
M  V30 1776 H 169.361 -1.94692 -3.39427 0
M  V30 1777 H 168.984 -0.328732 -3.96239 0
M  V30 1778 N 169.982 1.44106 -0.638065 0
M  V30 1779 C 171.393 1.85316 -0.226894 0
M  V30 1780 C 171.744 1.53399 1.22324 0
M  V30 1781 O 170.869 0.975463 1.93167 0
M  V30 1782 C 171.464 3.3637 -0.405013 0
M  V30 1783 C 170.023 3.76369 -0.0482902 0
M  V30 1784 C 169.17 2.67921 -0.715108 0
M  V30 1785 H 172.121 1.34474 -0.842764 0
M  V30 1786 H 172.142 3.7885 0.354 0
M  V30 1787 H 171.654 3.59569 -1.46053 0
M  V30 1788 H 169.755 3.58784 1.00522 0
M  V30 1789 H 169.868 4.76856 -0.463187 0
M  V30 1790 H 168.232 2.54259 -0.149753 0
M  V30 1791 H 169.015 2.93951 -1.77335 0
M  V30 1792 N 171.46 0.379036 1.52974 0
M  V30 1793 C 172.37 -0.468639 2.29872 0
M  V30 1794 C 173.386 -1.08067 1.36373 0
M  V30 1795 O 174.562 -1.08871 1.69438 0
M  V30 1796 C 171.627 -1.58594 3.083 0
M  V30 1797 C 170.688 -1.00007 4.17489 0
M  V30 1798 C 169.921 -2.06413 4.92168 0
M  V30 1799 O 170.144 -3.27751 4.66835 0
M  V30 1800 O 169.078 -1.68717 5.7777 0
M  V30 1801 H 172.904 0.157508 3.03291 0
M  V30 1802 H 170.489 0.143035 1.48714 0
M  V30 1803 H 172.371 -2.23525 3.57232 0
M  V30 1804 H 171.046 -2.19724 2.37703 0
M  V30 1805 H 169.953 -0.314299 3.72777 0
M  V30 1806 H 171.286 -0.433135 4.90291 0
M  V30 1807 N 172.938 -1.57226 0.108567 0
M  V30 1808 C 174.184 -1.95121 -0.552761 0
M  V30 1809 C 174.517 -0.991345 -1.66991 0
M  V30 1810 O 173.792 -0.0267211 -1.94482 0
M  V30 1811 C 174.075 -3.43039 -1.09528 0
M  V30 1812 C 173.928 -4.49797 0.0177332 0
M  V30 1813 C 175.247 -3.92567 -1.98945 0
M  V30 1814 H 172.366 -0.709496 -0.199461 0
M  V30 1815 H 175.008 -1.89126 0.182011 0
M  V30 1816 H 173.158 -3.48279 -1.72146 0
M  V30 1817 H 174.83 -4.56661 0.652584 0
M  V30 1818 H 173.073 -4.284 0.682309 0
M  V30 1819 H 173.744 -5.50528 -0.402919 0
M  V30 1820 H 176.22 -3.89565 -1.46214 0
M  V30 1821 H 175.096 -4.96605 -2.33827 0
M  V30 1822 H 175.357 -3.32648 -2.91201 0
M  V30 1823 N 174.416 0.165178 -1.56732 0
M  V30 1824 C 175.379 1.18822 -1.95995 0
M  V30 1825 C 176.379 1.3685 -0.84431 0
M  V30 1826 O 177.569 1.34152 -1.11126 0
M  V30 1827 C 174.701 2.5521 -2.26011 0
M  V30 1828 H 175.894 0.851825 -2.87548 0
M  V30 1829 H 173.447 0.407857 -1.50885 0
M  V30 1830 H 174.182 2.93852 -1.37191 0
M  V30 1831 H 173.967 2.43489 -3.07336 0
M  V30 1832 H 175.457 3.28927 -2.57288 0
M  V30 1833 N 175.894 1.51508 0.433938 0
M  V30 1834 C 176.841 1.73068 1.52696 0
M  V30 1835 C 177.811 0.572441 1.55924 0
M  V30 1836 O 178.996 0.807253 1.72882 0
M  V30 1837 C 176.136 1.86474 2.90381 0
M  V30 1838 C 175.249 3.14037 2.96656 0
M  V30 1839 C 174.384 3.18019 4.25485 0
M  V30 1840 C 173.423 4.39882 4.2564 0
M  V30 1841 N 172.56 4.41394 5.45999 0
M  V30 1842 H 177.4 2.66366 1.33615 0
M  V30 1843 H 174.937 1.32008 0.649018 0
M  V30 1844 H 176.895 1.92229 3.70275 0
M  V30 1845 H 175.525 0.965809 3.08013 0
M  V30 1846 H 174.577 3.17575 2.09404 0
M  V30 1847 H 175.889 4.0394 2.92633 0
M  V30 1848 H 175.043 3.22708 5.13755 0
M  V30 1849 H 173.782 2.2601 4.3217 0
M  V30 1850 H 172.787 4.35366 3.35763 0
M  V30 1851 H 174.012 5.33159 4.20617 0
M  V30 1852 H 171.958 3.52258 5.53399 0
M  V30 1853 H 171.875 5.25111 5.4387 0
M  V30 1854 H 173.143 4.50281 6.36292 0
M  V30 1855 N 177.372 -0.689602 1.41712 0
M  V30 1856 C 178.618 -1.45181 1.41599 0
M  V30 1857 C 178.951 -1.94181 0.0270081 0
M  V30 1858 O 178.226 -1.6993 -0.946265 0
M  V30 1859 C 178.509 -2.65945 2.42787 0
M  V30 1860 C 178.362 -2.22672 3.90816 0
M  V30 1861 C 179.681 -3.68149 2.41151 0
M  V30 1862 H 176.8 -0.526576 0.515642 0
M  V30 1863 H 179.442 -0.784947 1.73028 0
M  V30 1864 H 177.592 -3.2284 2.16116 0
M  V30 1865 H 179.264 -1.71058 4.28412 0
M  V30 1866 H 177.507 -1.54394 4.05395 0
M  V30 1867 H 178.178 -3.0935 4.57172 0
M  V30 1868 H 180.654 -3.2094 2.64834 0
M  V30 1869 H 179.53 -4.50248 3.13955 0
M  V30 1870 H 179.791 -4.18259 1.43221 0
M  V30 1871 N 178.85 -1.27639 -0.924453 0
M  V30 1872 C 179.797 -1.10644 -2.0255 0
M  V30 1873 C 180.767 -0.00658438 -1.66099 0
M  V30 1874 O 181.952 -0.16952 -1.90045 0
M  V30 1875 C 179.092 -0.76309 -3.36557 0
M  V30 1876 C 178.205 -1.94091 -3.85944 0
M  V30 1877 C 177.34 -1.53914 -5.08413 0
M  V30 1878 C 176.379 -2.68425 -5.50104 0
M  V30 1879 N 175.516 -2.28815 -6.63768 0
M  V30 1880 H 180.356 -2.04858 -2.16419 0
M  V30 1881 H 177.893 -1.01974 -1.06017 0
M  V30 1882 H 179.851 -0.544822 -4.13627 0
M  V30 1883 H 178.481 0.142102 -3.22487 0
M  V30 1884 H 177.533 -2.27162 -3.05125 0
M  V30 1885 H 178.845 -2.7998 -4.12811 0
M  V30 1886 H 177.999 -1.28231 -5.92994 0
M  V30 1887 H 176.738 -0.651391 -4.8333 0
M  V30 1888 H 175.743 -2.94819 -4.64071 0
M  V30 1889 H 176.968 -3.57826 -5.7718 0
M  V30 1890 H 174.914 -1.42495 -6.40337 0
M  V30 1891 H 174.831 -3.08242 -6.90306 0
M  V30 1892 H 176.099 -2.06387 -7.51681 0
M  V30 1893 N 180.328 1.1314 -1.09713 0
M  V30 1894 C 181.291 2.16831 -0.742751 0
M  V30 1895 C 182.291 1.59159 0.229129 0
M  V30 1896 O 183.481 1.74199 0.00693237 0
M  V30 1897 C 180.613 3.40756 -0.0989168 0
M  V30 1898 H 181.806 2.49695 -1.66109 0
M  V30 1899 H 179.359 1.2802 -0.896699 0
M  V30 1900 H 180.094 3.13485 0.830514 0
M  V30 1901 H 179.879 3.83888 -0.798265 0
M  V30 1902 H 181.369 4.17386 0.133524 0
M  V30 1903 N 181.806 0.884767 1.30421 0
M  V30 1904 C 183.222 0.57874 1.48737 0
M  V30 1905 C 183.422 -0.883567 1.81095 0
M  V30 1906 O 182.478 -1.6648 1.89844 0
M  V30 1907 C 183.791 1.49171 2.61091 0
M  V30 1908 C 185.339 1.49532 2.74971 0
M  V30 1909 C 185.814 2.39421 3.90438 0
M  V30 1910 N 187.305 2.37383 3.97748 0
M  V30 1911 C 188.04 3.03647 4.86401 0
M  V30 1912 N 187.536 3.79136 5.79852 0
M  V30 1913 N 189.329 2.9288 4.79768 0
M  V30 1914 H 181.48 1.83075 1.0769 0
M  V30 1915 H 183.743 0.783637 0.533495 0
M  V30 1916 H 183.449 2.53291 2.44001 0
M  V30 1917 H 183.323 1.20113 3.57565 0
M  V30 1918 H 185.71 0.46163 2.91467 0
M  V30 1919 H 185.791 1.8262 1.79119 0
M  V30 1920 H 185.435 3.42874 3.74699 0
M  V30 1921 H 185.365 2.03649 4.85628 0
M  V30 1922 H 187.856 1.82525 3.30897 0
M  V30 1923 H 188.169 4.26789 6.4426 0
M  V30 1924 H 186.514 3.83243 5.79784 0
M  V30 1925 H 189.705 2.33433 4.05742 0
M  V30 1926 H 189.878 3.448 5.4865 0
M  V30 1927 N 183.284 -1.43765 0.645699 0
M  V30 1928 C 184.512 -2.06253 0.163556 0
M  V30 1929 C 184.927 -1.48352 -1.16778 0
M  V30 1930 O 184.284 -0.611932 -1.71935 0
M  V30 1931 C 184.335 -3.61453 0.0583186 0
M  V30 1932 O 184.056 -4.172 1.33702 0
M  V30 1933 C 185.557 -4.41002 -0.450795 0
M  V30 1934 H 182.777 -0.665413 0.0864077 0
M  V30 1935 H 185.321 -1.84396 0.884222 0
M  V30 1936 H 183.476 -3.82522 -0.612865 0
M  V30 1937 H 183.89 -5.10791 1.19131 0
M  V30 1938 H 185.364 -5.49966 -0.473403 0
M  V30 1939 H 185.841 -4.13488 -1.48068 0
M  V30 1940 H 186.447 -4.24886 0.187637 0
M  V30 1941 N 184.763 -0.387143 -1.52771 0
M  V30 1942 C 185.988 0.198407 -2.06449 0
M  V30 1943 C 186.413 1.39918 -1.25716 0
M  V30 1944 O 185.771 1.79099 -0.281657 0
M  V30 1945 C 185.819 0.548893 -3.56398 0
M  V30 1946 O 184.923 1.64315 -3.78252 0
M  V30 1947 H 184.264 0.0237731 -0.663574 0
M  V30 1948 H 186.794 -0.553989 -1.96957 0
M  V30 1949 H 186.804 0.813812 -3.99801 0
M  V30 1950 H 185.479 -0.329005 -4.14597 0
M  V30 1951 H 184.056 1.37211 -3.46738 0
M  V30 1952 N 186.241 1.57166 -0.116904 0
M  V30 1953 C 187.481 1.97008 0.544715 0
M  V30 1954 C 187.845 0.998713 1.63981 0
M  V30 1955 O 189.046 1.28644 2.36018 0
M  V30 1956 C 187.317 3.41145 1.06559 0
M  V30 1957 S 188.876 4.02998 1.73603 0
M  V30 1958 H 185.694 0.688587 0.177112 0
M  V30 1959 H 188.296 1.94459 -0.201487 0
M  V30 1960 H 187 4.09592 0.257374 0
M  V30 1961 H 186.531 3.4734 1.84712 0
M  V30 1962 H 188.546 3.93585 3.02168 0
M  V30 1963 N 187.719 -0.156864 1.56817 0
M  V30 1964 C 188.959 -0.877453 1.84608 0
M  V30 1965 C 189.323 -1.78791 0.699845 0
M  V30 1966 O 190.524 -2.5472 0.858553 0
M  V30 1967 C 188.795 -1.63992 3.17555 0
M  V30 1968 S 190.354 -2.40729 3.66872 0
M  V30 1969 H 187.172 -0.293612 0.647544 0
M  V30 1970 H 189.774 -0.138099 1.95012 0
M  V30 1971 H 188.478 -0.962363 3.98957 0
M  V30 1972 H 188.009 -2.42038 3.10131 0
M  V30 1973 H 190.024 -3.65725 3.3535 0
M  V30 1974 N 189.197 -1.51736 -0.425897 0
M  V30 1975 C 190.474 -1.55519 -1.1863 0
M  V30 1976 C 190.854 -0.326219 -2.08564 0
M  V30 1977 O 190.202 0.688012 -2.17896 0
M  V30 1978 C 190.412 -2.87521 -1.9782 0
M  V30 1979 C 191.76 -3.39899 -2.54468 0
M  V30 1980 O 192.784 -2.89148 -2.08019 0
M  V30 1981 O 191.643 -4.2848 -3.39215 0
M  V30 1982 H 188.737 -0.625739 -0.540721 0
M  V30 1983 H 191.283 -1.64055 -0.434038 0
M  V30 1984 H 190.055 -3.68422 -1.31836 0
M  V30 1985 H 189.678 -2.822 -2.80088 0
M  V30 1986 N 190.675 0.682077 -1.42076 0
M  V30 1987 C 191.638 1.77756 -1.44691 0
M  V30 1988 C 192.638 1.5726 -0.335535 0
M  V30 1989 O 193.828 1.63686 -0.596037 0
M  V30 1990 C 190.96 3.16301 -1.27146 0
M  V30 1991 H 192.153 1.76826 -2.42224 0
M  V30 1992 H 189.706 0.891012 -1.28416 0
M  V30 1993 H 190.441 3.22862 -0.305075 0
M  V30 1994 H 190.226 3.32581 -2.07683 0
M  V30 1995 H 191.716 3.96241 -1.31843 0
M  V30 1996 N 192.153 1.28127 0.917671 0
M  V30 1997 C 193.399 1.15223 1.66888 0
M  V30 1998 C 193.732 -0.299293 1.9188 0
M  V30 1999 O 193.007 -1.21805 1.51637 0
M  V30 2000 C 193.29 1.94706 3.02922 0
M  V30 2001 C 193.143 3.47898 2.85109 0
M  V30 2002 C 194.462 1.75939 4.03402 0
M  V30 2003 H 191.581 0.419946 0.605652 0
M  V30 2004 H 194.223 1.57398 1.06423 0
M  V30 2005 H 192.373 1.58864 3.54534 0
M  V30 2006 H 194.045 3.93624 2.40537 0
M  V30 2007 H 192.288 3.7373 2.20246 0
M  V30 2008 H 192.959 3.98765 3.81694 0
M  V30 2009 H 195.435 2.07209 3.60837 0
M  V30 2010 H 194.311 2.33931 4.96556 0
M  V30 2011 H 194.572 0.709877 4.36364 0
M  V30 2012 N 193.631 -1.12557 1.10312 0
M  V30 2013 C 194.579 -2.20325 0.745629 0
M  V30 2014 C 195.573 -1.67429 -0.25763 0
M  V30 2015 O 196.779 -1.79612 -0.118132 0
M  V30 2016 H 193.154 -0.718118 0.223182 0
M  V30 2017 H 195.125 -2.47733 1.66346 0
M  V30 2018 C 193.874 -3.47168 0.192262 0
M  V30 2019 H 193.197 -3.88215 0.955475 0
M  V30 2020 H 194.637 -4.23995 -0.0198274 0
M  V30 2021 C 193.096 -3.19298 -1.07472 0
M  V30 2022 O 193.626 -3.3891 -2.15645 0
M  V30 2023 N 191.832 -2.73113 -0.992847 0
M  V30 2024 H 191.379 -2.57354 -0.112474 0
M  V30 2025 H 191.337 -2.54842 -1.84127 0
M  V30 2026 N 195.109 -0.891671 -1.2995 0
M  V30 2027 C 196.525 -0.58662 -1.48428 0
M  V30 2028 C 196.725 0.873951 -1.81561 0
M  V30 2029 O 195.781 1.65471 -1.90724 0
M  V30 2030 C 197.094 -1.50553 -2.60296 0
M  V30 2031 C 198.642 -1.50988 -2.74175 0
M  V30 2032 C 199.117 -2.41488 -3.89163 0
M  V30 2033 N 200.608 -2.39489 -3.96483 0
M  V30 2034 C 201.343 -3.06223 -4.84784 0
M  V30 2035 N 200.839 -3.82206 -5.77833 0
M  V30 2036 N 202.632 -2.95421 -4.78208 0
M  V30 2037 H 194.783 -1.83644 -1.06718 0
M  V30 2038 H 197.046 -0.786455 -0.529332 0
M  V30 2039 H 196.752 -2.54581 -2.42654 0
M  V30 2040 H 196.626 -1.22008 -3.56923 0
M  V30 2041 H 199.013 -0.47708 -2.91218 0
M  V30 2042 H 199.094 -1.83567 -1.78148 0
M  V30 2043 H 198.738 -3.44857 -3.72876 0
M  V30 2044 H 198.668 -2.06222 -4.84541 0
M  V30 2045 H 201.159 -1.84278 -3.29924 0
M  V30 2046 H 201.472 -4.302 -6.41988 0
M  V30 2047 H 199.817 -3.86313 -5.77743 0
M  V30 2048 H 203.008 -2.35581 -4.04499 0
M  V30 2049 H 203.181 -3.47704 -5.46814 0
M  V30 2050 N 196.587 1.43421 -0.653314 0
M  V30 2051 C 197.835 2.01414 -0.166415 0
M  V30 2052 C 198.156 1.51803 1.22397 0
M  V30 2053 O 197.426 0.730693 1.81763 0
M  V30 2054 H 196.006 0.744703 -0.0585319 0
M  V30 2055 H 198.668 1.75629 -0.845003 0
M  V30 2056 H 197.764 3.11734 -0.151111 0
M  V30 2057 N 198.065 0.39524 1.52563 0
M  V30 2058 C 199.311 -0.185318 2.01952 0
M  V30 2059 C 199.644 -1.45964 1.28095 0
M  V30 2060 O 198.919 -1.90689 0.38315 0
M  V30 2061 C 199.202 -0.447193 3.57312 0
M  V30 2062 C 199.055 0.842828 4.41833 0
M  V30 2063 C 200.374 -1.23529 4.22408 0
M  V30 2064 H 197.493 -0.0658788 0.73405 0
M  V30 2065 H 200.135 0.525975 1.82575 0
M  V30 2066 H 198.285 -1.05312 3.73954 0
M  V30 2067 H 199.957 1.4795 4.36931 0
M  V30 2068 H 198.2 1.45686 4.08605 0
M  V30 2069 H 198.871 0.614165 5.48573 0
M  V30 2070 H 201.347 -0.722445 4.0978 0
M  V30 2071 H 200.223 -1.38727 5.3108 0
M  V30 2072 H 200.484 -2.25213 3.80436 0
M  V30 2073 N 199.544 -1.57102 0.125237 0
M  V30 2074 C 200.507 -2.14471 -0.80838 0
M  V30 2075 C 201.507 -1.0811 -1.19033 0
M  V30 2076 O 202.697 -1.33856 -1.11482 0
M  V30 2077 C 199.829 -2.69005 -2.09402 0
M  V30 2078 H 201.022 -2.98297 -0.309696 0
M  V30 2079 H 198.575 -1.55807 -0.124051 0
M  V30 2080 H 199.31 -1.88785 -2.63687 0
M  V30 2081 H 199.095 -3.46799 -1.82957 0
M  V30 2082 H 200.585 -3.13278 -2.76128 0
M  V30 2083 N 201.022 0.148545 -1.56898 0
M  V30 2084 C 201.952 1.18524 -2.01182 0
M  V30 2085 C 202.933 1.4489 -0.891123 0
M  V30 2086 O 204.118 1.55836 -1.15882 0
M  V30 2087 C 201.248 2.51879 -2.39112 0
M  V30 2088 C 200.202 2.40038 -3.54353 0
M  V30 2089 C 199.528 3.78089 -3.78091 0
M  V30 2090 C 200.828 1.88577 -4.87069 0
M  V30 2091 H 202.522 0.817029 -2.88036 0
M  V30 2092 H 200.068 0.391575 -1.38574 0
M  V30 2093 H 202.021 3.24627 -2.68692 0
M  V30 2094 H 200.745 2.90532 -1.49193 0
M  V30 2095 H 199.404 1.69742 -3.24936 0
M  V30 2096 H 199.052 4.14175 -2.85426 0
M  V30 2097 H 198.752 3.71028 -4.55645 0
M  V30 2098 H 200.276 4.52387 -4.10095 0
M  V30 2099 H 201.69 2.51117 -5.15377 0
M  V30 2100 H 200.087 1.9241 -5.68417 0
M  V30 2101 H 201.157 0.84136 -4.77545 0
M  V30 2102 N 202.5 1.5196 0.417844 0
M  V30 2103 C 203.746 1.66793 1.16411 0
M  V30 2104 C 204.101 0.388758 1.88432 0
M  V30 2105 O 203.394 -0.616409 1.81414 0
M  V30 2106 C 203.588 2.82269 2.19223 0
M  V30 2107 C 203.417 4.21293 1.57297 0
M  V30 2108 C 202.187 4.86948 1.34944 0
M  V30 2109 C 204.385 5.03704 1.03858 0
M  V30 2110 N 202.367 6.1003 0.688195 0
M  V30 2111 C 203.738 6.1795 0.503742 0
M  V30 2112 C 205.793 4.89095 0.932203 0
M  V30 2113 C 204.496 7.19188 -0.127034 0
M  V30 2114 C 206.522 5.90559 0.315293 0
M  V30 2115 C 205.884 7.0409 -0.208906 0
M  V30 2116 H 201.983 0.66407 0.412959 0
M  V30 2117 H 204.567 1.89242 0.457772 0
M  V30 2118 H 202.738 2.61451 2.87225 0
M  V30 2119 H 204.47 2.86183 2.86149 0
M  V30 2120 H 201.225 4.45156 1.61657 0
M  V30 2121 H 201.649 6.75964 0.374449 0
M  V30 2122 H 206.291 4.01557 1.32332 0
M  V30 2123 H 204.009 8.06359 -0.530231 0
M  V30 2124 H 207.595 5.81327 0.234625 0
M  V30 2125 H 206.475 7.81257 -0.67875 0
M  V30 2126 N 203.978 -0.674533 1.42435 0
M  V30 2127 C 205.226 -1.43175 1.42637 0
M  V30 2128 C 205.547 -1.94951 0.0438992 0
M  V30 2129 O 204.817 -1.7308 -0.917607 0
M  V30 2130 H 203.397 -0.531307 0.525092 0
M  V30 2131 H 206.059 -0.797006 1.77859 0
M  V30 2132 H 205.155 -2.28463 2.12629 0
M  V30 2133 N 205.456 -1.28612 -0.910864 0
M  V30 2134 C 206.733 -1.06632 -1.63979 0
M  V30 2135 C 207.113 0.393351 -2.07403 0
M  V30 2136 O 206.461 1.37999 -1.82122 0
M  V30 2137 C 206.671 -2.0436 -2.8291 0
M  V30 2138 C 208.019 -2.34666 -3.5386 0
M  V30 2139 O 209.043 -2.02467 -2.93062 0
M  V30 2140 O 207.902 -2.89631 -4.63439 0
M  V30 2141 H 204.996 -0.407737 -0.7195 0
M  V30 2142 H 207.542 -1.39942 -0.959914 0
M  V30 2143 H 206.314 -3.02727 -2.47936 0
M  V30 2144 H 205.937 -1.71714 -3.58609 0
M  V30 2145 N 206.934 1.1197 -1.10907 0
M  V30 2146 C 207.881 2.17846 -0.762345 0
M  V30 2147 C 208.851 1.63995 0.263599 0
M  V30 2148 O 210.036 1.90273 0.141773 0
M  V30 2149 C 207.176 3.44487 -0.205651 0
M  V30 2150 C 206.289 4.12369 -1.28748 0
M  V30 2151 C 205.424 5.26674 -0.691919 0
M  V30 2152 C 204.463 5.86431 -1.75399 0
M  V30 2153 N 203.6 6.92142 -1.17833 0
M  V30 2154 H 208.44 2.46851 -1.6694 0
M  V30 2155 H 205.977 1.21188 -0.833776 0
M  V30 2156 H 207.935 4.16981 0.135037 0
M  V30 2157 H 206.565 3.15884 0.664613 0
M  V30 2158 H 205.617 3.38003 -1.74522 0
M  V30 2159 H 206.929 4.52844 -2.09125 0
M  V30 2160 H 206.083 6.05953 -0.300963 0
M  V30 2161 H 204.822 4.8749 0.143232 0
M  V30 2162 H 203.827 5.05835 -2.15432 0
M  V30 2163 H 205.052 6.27685 -2.59208 0
M  V30 2164 H 202.998 6.54985 -0.364725 0
M  V30 2165 H 202.915 7.31242 -1.91887 0
M  V30 2166 H 204.183 7.75237 -0.81408 0
M  V30 2167 N 208.412 0.89855 1.29475 0
M  V30 2168 C 209.658 0.524658 1.95896 0
M  V30 2169 C 209.991 -0.926468 1.70676 0
M  V30 2170 O 209.266 -1.65665 1.01908 0
M  V30 2171 C 209.549 0.81633 3.50725 0
M  V30 2172 C 209.402 2.31907 3.85408 0
M  V30 2173 C 210.721 0.302038 4.39062 0
M  V30 2174 H 207.84 0.19209 0.711527 0
M  V30 2175 H 210.482 1.12502 1.53112 0
M  V30 2176 H 208.632 0.305369 3.87298 0
M  V30 2177 H 210.304 2.89949 3.58786 0
M  V30 2178 H 208.547 2.78027 3.32992 0
M  V30 2179 H 209.218 2.47373 4.93468 0
M  V30 2180 H 211.694 0.739551 4.09475 0
M  V30 2181 H 210.57 0.535331 5.46283 0
M  V30 2182 H 210.831 -0.797216 4.34853 0
M  V30 2183 N 209.89 -1.43072 0.660911 0
M  V30 2184 C 211.12 -2.05769 0.185153 0
M  V30 2185 C 211.528 -1.49668 -1.15742 0
M  V30 2186 O 210.871 -0.625649 -1.72717 0
M  V30 2187 C 210.933 -3.59489 0.0278237 0
M  V30 2188 C 210.597 -4.38212 1.2969 0
M  V30 2189 C 211.594 -4.69772 2.22734 0
M  V30 2190 C 209.279 -4.7809 1.54063 0
M  V30 2191 C 211.273 -5.40129 3.38437 0
M  V30 2192 C 208.96 -5.4819 2.70058 0
M  V30 2193 C 209.958 -5.79132 3.62071 0
M  V30 2194 O 209.646 -6.47798 4.76039 0
M  V30 2195 H 209.378 -0.669873 0.0908086 0
M  V30 2196 H 211.932 -1.84436 0.90402 0
M  V30 2197 H 210.162 -3.79426 -0.746489 0
M  V30 2198 H 211.851 -4.03862 -0.406275 0
M  V30 2199 H 212.617 -4.39476 2.05149 0
M  V30 2200 H 208.496 -4.53408 0.833215 0
M  V30 2201 H 212.04 -5.64198 4.10277 0
M  V30 2202 H 207.937 -5.77902 2.87574 0
M  V30 2203 H 208.705 -6.66283 4.75404 0
M  V30 2204 N 211.368 -0.403325 -1.52352 0
M  V30 2205 C 212.614 0.174605 -2.02047 0
M  V30 2206 C 212.947 1.45282 -1.28867 0
M  V30 2207 O 212.222 1.90483 -0.393257 0
M  V30 2208 C 212.505 0.428238 -3.57545 0
M  V30 2209 C 212.358 -0.866248 -4.4138 0
M  V30 2210 C 213.677 1.21287 -4.23057 0
M  V30 2211 H 210.796 0.0619851 -0.734389 0
M  V30 2212 H 213.438 -0.53565 -1.82293 0
M  V30 2213 H 211.588 1.03327 -3.74507 0
M  V30 2214 H 213.26 -1.50265 -4.3614 0
M  V30 2215 H 211.503 -1.47851 -4.07827 0
M  V30 2216 H 212.174 -0.643249 -5.48239 0
M  V30 2217 H 214.65 0.700703 -4.10158 0
M  V30 2218 H 213.526 1.35909 -5.31808 0
M  V30 2219 H 213.787 2.23193 -3.81625 0
M  V30 2220 N 212.846 1.57033 -0.133567 0
M  V30 2221 C 214.094 1.953 0.519848 0
M  V30 2222 C 214.415 1.01866 1.66278 0
M  V30 2223 O 213.685 0.0776513 1.95746 0
M  V30 2224 H 212.265 0.721091 0.195032 0
M  V30 2225 H 214.927 1.93809 -0.205921 0
M  V30 2226 H 214.023 2.98695 0.904854 0
M  V30 2227 N 214.325 -0.140222 1.56975 0
M  V30 2228 C 215.553 -0.866437 1.87884 0
M  V30 2229 C 215.968 -1.74428 0.722517 0
M  V30 2230 O 215.325 -1.79891 -0.30749 0
M  V30 2231 C 215.376 -1.71753 3.18093 0
M  V30 2232 O 215.097 -0.875056 4.29272 0
M  V30 2233 C 216.598 -2.55074 3.62563 0
M  V30 2234 H 213.818 -0.25019 0.622612 0
M  V30 2235 H 216.362 -0.130977 2.0408 0
M  V30 2236 H 214.517 -2.40598 3.03631 0
M  V30 2237 H 214.931 -1.46002 5.03769 0
M  V30 2238 H 216.405 -3.10356 4.5649 0
M  V30 2239 H 216.882 -3.31434 2.88181 0
M  V30 2240 H 217.488 -1.91509 3.79743 0
M  V30 2241 N 215.803 -1.52179 -0.40978 0
M  V30 2242 C 216.733 -1.78435 -1.5061 0
M  V30 2243 C 217.714 -0.635295 -1.57791 0
M  V30 2244 O 218.899 -0.880823 -1.73076 0
M  V30 2245 C 216.029 -1.93444 -2.88439 0
M  V30 2246 C 214.983 -3.09038 -2.96108 0
M  V30 2247 C 214.309 -3.09268 -4.36185 0
M  V30 2248 C 215.609 -4.48508 -2.67652 0
M  V30 2249 H 217.303 -2.70237 -1.28889 0
M  V30 2250 H 214.849 -1.30036 -0.618605 0
M  V30 2251 H 216.802 -2.10394 -3.65119 0
M  V30 2252 H 215.526 -0.983129 -3.11452 0
M  V30 2253 H 214.185 -2.91837 -2.21872 0
M  V30 2254 H 213.833 -2.11861 -4.56206 0
M  V30 2255 H 213.533 -3.86907 -4.42241 0
M  V30 2256 H 215.057 -3.28348 -5.14801 0
M  V30 2257 H 216.471 -4.65918 -3.34056 0
M  V30 2258 H 214.868 -5.28059 -2.85085 0
M  V30 2259 H 215.938 -4.56649 -1.63095 0
M  V30 2260 N 217.281 0.66697 -1.42791 0
M  V30 2261 C 218.558 1.4234 -1.34159 0
M  V30 2262 C 218.938 2.11093 0.0172729 0
M  V30 2263 O 218.286 2.03808 1.03318 0
M  V30 2264 C 218.496 2.41942 -2.51526 0
M  V30 2265 C 219.844 3.06353 -2.93995 0
M  V30 2266 O 220.868 2.52269 -2.51473 0
M  V30 2267 O 219.727 4.04376 -3.67617 0
M  V30 2268 H 216.821 0.635277 -0.529483 0
M  V30 2269 H 219.367 0.695034 -1.54814 0
M  V30 2270 H 218.139 1.89991 -3.42081 0
M  V30 2271 H 217.762 3.22249 -2.32898 0
M  V30 2272 N 218.759 1.29093 0.90403 0
M  V30 2273 C 220.007 1.16583 1.65085 0
M  V30 2274 C 220.328 -0.283933 1.92922 0
M  V30 2275 O 219.598 -1.19509 1.55224 0
M  V30 2276 H 218.178 0.428467 0.611903 0
M  V30 2277 H 220.84 1.61959 1.08422 0
M  V30 2278 H 219.936 1.71266 2.6091 0
M  V30 2279 N 220.237 -1.11381 1.11499 0
M  V30 2280 C 221.653 -1.35143 0.849031 0
M  V30 2281 C 221.853 -1.94515 -0.525938 0
M  V30 2282 O 220.909 -2.1785 -1.27662 0
M  V30 2283 C 222.222 -2.28249 1.95762 0
M  V30 2284 C 223.77 -2.41812 1.98736 0
M  V30 2285 C 224.245 -3.3824 3.088 0
M  V30 2286 N 225.736 -3.45803 3.08179 0
M  V30 2287 C 226.471 -4.20358 3.89982 0
M  V30 2288 N 225.967 -4.97884 4.8175 0
M  V30 2289 N 227.76 -4.15877 3.78157 0
M  V30 2290 H 219.911 -0.712062 2.00109 0
M  V30 2291 H 222.174 -0.376025 0.870235 0
M  V30 2292 H 221.88 -1.91817 2.94787 0
M  V30 2293 H 221.754 -3.28473 1.85433 0
M  V30 2294 H 224.141 -2.77518 1.00338 0
M  V30 2295 H 224.222 -1.41437 2.13141 0
M  V30 2296 H 223.866 -3.03261 4.07425 0
M  V30 2297 H 223.796 -4.38471 2.91635 0
M  V30 2298 H 226.287 -2.90506 2.41691 0
M  V30 2299 H 226.6 -5.52142 5.40702 0
M  V30 2300 H 224.945 -4.97043 4.85771 0
M  V30 2301 H 228.136 -3.544 3.05808 0
M  V30 2302 H 228.309 -4.73723 4.42143 0
M  V30 2303 N 221.715 -0.905404 -1.28997 0
M  V30 2304 C 222.645 -0.404212 -2.29975 0
M  V30 2305 C 223.626 0.523784 -1.61835 0
M  V30 2306 O 224.811 0.433298 -1.89304 0
M  V30 2307 C 221.941 0.364042 -3.45387 0
M  V30 2308 C 220.895 -0.474048 -4.25367 0
M  V30 2309 C 220.221 0.422045 -5.33032 0
M  V30 2310 C 221.521 -1.72696 -4.92923 0
M  V30 2311 H 223.215 -1.24807 -2.72146 0
M  V30 2312 H 220.761 -0.601585 -1.30832 0
M  V30 2313 H 222.714 0.725447 -4.15109 0
M  V30 2314 H 221.438 1.24174 -3.02074 0
M  V30 2315 H 220.097 -0.81786 -3.57361 0
M  V30 2316 H 219.745 1.29804 -4.85963 0
M  V30 2317 H 219.445 -0.135057 -5.87445 0
M  V30 2318 H 220.969 0.779517 -6.05604 0
M  V30 2319 H 222.383 -1.43495 -5.55051 0
M  V30 2320 H 220.78 -2.22582 -5.57295 0
M  V30 2321 H 221.85 -2.45964 -4.17887 0
M  V30 2322 N 223.193 1.4272 -0.668489 0
M  V30 2323 C 224.442 2.00846 -0.185389 0
M  V30 2324 C 224.755 1.53442 1.21305 0
M  V30 2325 O 225.961 2.03944 1.79218 0
M  V30 2326 C 224.417 3.58805 -0.280591 0
M  V30 2327 C 224.025 4.15198 -1.68268 0
M  V30 2328 C 225.769 4.24255 0.14412 0
M  V30 2329 C 223.676 5.655 -1.73099 0
M  V30 2330 H 222.606 0.751145 -0.0655475 0
M  V30 2331 H 225.257 1.63516 -0.832752 0
M  V30 2332 H 223.639 3.93608 0.434553 0
M  V30 2333 H 224.813 3.91866 -2.42441 0
M  V30 2334 H 223.128 3.62176 -2.05469 0
M  V30 2335 H 225.725 5.34547 0.128086 0
M  V30 2336 H 226.068 3.99277 1.17827 0
M  V30 2337 H 226.601 3.94389 -0.519798 0
M  V30 2338 H 223.34 5.95268 -2.74475 0
M  V30 2339 H 222.86 5.90842 -1.03274 0
M  V30 2340 H 224.539 6.29808 -1.48158 0
M  V30 2341 N 224.671 0.411399 1.52136 0
M  V30 2342 C 225.634 -0.401089 2.25663 0
M  V30 2343 C 226.634 -0.971732 1.28117 0
M  V30 2344 O 227.824 -0.850254 1.52041 0
M  V30 2345 C 224.956 -1.56483 3.02863 0
M  V30 2346 H 226.149 0.24295 2.98914 0
M  V30 2347 H 223.702 0.163968 1.55438 0
M  V30 2348 H 224.437 -2.24567 2.33967 0
M  V30 2349 H 224.222 -1.16211 3.74483 0
M  V30 2350 H 225.712 -2.13951 3.58629 0
M  V30 2351 N 226.149 -1.5696 0.141893 0
M  V30 2352 C 227.079 -2.19516 -0.795936 0
M  V30 2353 C 228.06 -1.14187 -1.26077 0
M  V30 2354 O 229.245 -1.42511 -1.31925 0
M  V30 2355 C 226.375 -2.81272 -2.03723 0
M  V30 2356 C 225.329 -3.92384 -1.70936 0
M  V30 2357 C 224.655 -4.41052 -3.02287 0
M  V30 2358 C 225.955 -5.13403 -0.959954 0
M  V30 2359 H 227.649 -2.98138 -0.274596 0
M  V30 2360 H 225.195 -1.43406 -0.130636 0
M  V30 2361 H 227.148 -3.237 -2.69808 0
M  V30 2362 H 225.872 -1.99973 -2.58221 0
M  V30 2363 H 224.531 -3.50566 -1.07232 0
M  V30 2364 H 224.179 -3.56582 -3.54765 0
M  V30 2365 H 223.879 -5.15993 -2.81114 0
M  V30 2366 H 225.403 -4.86146 -3.69451 0
M  V30 2367 H 226.817 -5.52706 -1.52279 0
M  V30 2368 H 225.214 -5.94073 -0.848357 0
M  V30 2369 H 226.284 -4.84875 0.0492434 0
M  V30 2370 N 227.627 0.131896 -1.57047 0
M  V30 2371 C 228.904 0.871495 -1.75112 0
M  V30 2372 C 229.284 1.9866 -0.713949 0
M  V30 2373 O 228.632 2.26965 0.264447 0
M  V30 2374 C 228.842 1.40007 -3.19686 0
M  V30 2375 C 230.19 1.85752 -3.81813 0
M  V30 2376 O 231.214 1.49715 -3.23209 0
M  V30 2377 O 230.073 2.5226 -4.84796 0
M  V30 2378 H 227.167 0.412919 -0.716538 0
M  V30 2379 H 229.713 0.116641 -1.69299 0
M  V30 2380 H 228.485 0.599404 -3.86682 0
M  V30 2381 H 228.108 2.218 -3.29986 0
M  V30 2382 N 229.106 1.52395 0.401703 0
M  V30 2383 C 230.069 1.75636 1.47257 0
M  V30 2384 C 231.069 0.62628 1.48103 0
M  V30 2385 O 232.259 0.894227 1.49497 0
M  V30 2386 C 229.391 1.84553 2.86624 0
M  V30 2387 H 230.584 2.71241 1.27938 0
M  V30 2388 H 228.137 1.42923 0.632662 0
M  V30 2389 H 228.872 0.908882 3.11303 0
M  V30 2390 H 228.657 2.66715 2.87412 0
M  V30 2391 H 230.147 2.04251 3.64241 0
M  V30 2392 N 230.584 -0.659388 1.43143 0
M  V30 2393 C 231.531 -1.77249 1.47822 0
M  V30 2394 C 232.501 -1.62818 0.328558 0
M  V30 2395 O 233.686 -1.83151 0.534838 0
M  V30 2396 C 230.826 -3.15371 1.40126 0
M  V30 2397 C 229.939 -3.4098 2.65249 0
M  V30 2398 C 229.074 -4.68915 2.49584 0
M  V30 2399 C 228.113 -4.87608 3.70006 0
M  V30 2400 N 227.25 -6.06796 3.53189 0
M  V30 2401 H 232.09 -1.72584 2.42938 0
M  V30 2402 H 229.627 -0.842297 1.20598 0
M  V30 2403 H 231.585 -3.9521 1.33659 0
M  V30 2404 H 230.215 -3.19121 0.485964 0
M  V30 2405 H 229.267 -2.55282 2.8202 0
M  V30 2406 H 230.579 -3.50681 3.54717 0
M  V30 2407 H 229.733 -5.56871 2.4079 0
M  V30 2408 H 228.472 -4.61524 1.5763 0
M  V30 2409 H 227.477 -3.9809 3.79215 0
M  V30 2410 H 228.702 -4.96834 4.62961 0
M  V30 2411 H 226.648 -6.00549 2.63965 0
M  V30 2412 H 226.565 -6.17428 4.36255 0
M  V30 2413 H 227.833 -6.9739 3.48236 0
M  V30 2414 N 232.062 -1.29571 -0.897171 0
M  V30 2415 C 233.29 -1.20583 -1.68129 0
M  V30 2416 C 233.705 0.233181 -1.87354 0
M  V30 2417 O 233.062 1.15579 -1.41236 0
M  V30 2418 C 233.113 -1.91772 -3.06441 0
M  V30 2419 O 232.834 -3.30053 -2.88091 0
M  V30 2420 C 234.335 -1.89291 -4.00854 0
M  V30 2421 H 231.555 -0.417826 -0.525036 0
M  V30 2422 H 234.099 -1.70987 -1.12177 0
M  V30 2423 H 232.254 -1.45196 -3.59161 0
M  V30 2424 H 232.668 -3.65942 -3.75748 0
M  V30 2425 H 234.142 -2.43662 -4.95311 0
M  V30 2426 H 234.619 -0.869014 -4.30517 0
M  V30 2427 H 235.225 -2.35622 -3.54066 0
M  V30 2428 N 233.54 1.10788 -1.12088 0
M  V30 2429 C 234.788 1.8231 -0.872205 0
M  V30 2430 C 235.109 1.85419 0.603709 0
M  V30 2431 O 234.379 1.32963 1.43867 0
M  V30 2432 H 232.959 0.675137 -0.319686 0
M  V30 2433 H 235.621 1.34068 -1.41463 0
M  V30 2434 H 234.717 2.85955 -1.25045 0
M  V30 2435 N 235.018 0.912232 1.28515 0
M  V30 2436 C 235.965 0.397954 2.27343 0
M  V30 2437 C 236.935 -0.526766 1.57526 0
M  V30 2438 O 238.12 -0.449292 1.85435 0
M  V30 2439 C 235.26 -0.357263 3.43246 0
M  V30 2440 C 234.373 0.599788 4.27816 0
M  V30 2441 C 233.508 -0.173725 5.30916 0
M  V30 2442 C 232.547 0.777039 6.07148 0
M  V30 2443 N 231.684 0.0371398 7.0209 0
M  V30 2444 H 236.524 1.24577 2.70711 0
M  V30 2445 H 234.061 0.625612 1.33133 0
M  V30 2446 H 236.019 -0.8113 4.09236 0
M  V30 2447 H 234.649 -1.16943 3.00872 0
M  V30 2448 H 233.701 1.17235 3.61884 0
M  V30 2449 H 235.013 1.32704 4.80823 0
M  V30 2450 H 234.167 -0.688394 6.02782 0
M  V30 2451 H 232.906 -0.934041 4.78672 0
M  V30 2452 H 231.911 1.3031 5.34134 0
M  V30 2453 H 233.136 1.53689 6.61481 0
M  V30 2454 H 231.082 -0.705213 6.52198 0
M  V30 2455 H 230.999 0.704249 7.52713 0
M  V30 2456 H 232.267 -0.457383 7.78157 0
M  V30 2457 N 236.496 -1.42363 0.676048 0
M  V30 2458 C 237.459 -2.29199 0.00766941 0
M  V30 2459 C 238.459 -1.43389 -0.727745 0
M  V30 2460 O 239.649 -1.64764 -0.56556 0
M  V30 2461 C 236.781 -3.2591 -0.999785 0
M  V30 2462 H 237.974 -2.89794 0.771988 0
M  V30 2463 H 235.527 -1.50024 0.438468 0
M  V30 2464 H 236.262 -2.70256 -1.79255 0
M  V30 2465 H 236.047 -3.89202 -0.475829 0
M  V30 2466 H 237.537 -3.91028 -1.46583 0
M  V30 2467 N 237.974 -0.419461 -1.51915 0
M  V30 2468 C 239.223 0.154346 -2.01109 0
M  V30 2469 C 239.536 1.45338 -1.30905 0
M  V30 2470 O 240.742 2.10906 -1.7097 0
M  V30 2471 C 239.198 0.325615 -3.58424 0
M  V30 2472 C 238.806 -0.961934 -4.37551 0
M  V30 2473 C 240.55 0.854155 -4.15818 0
M  V30 2474 C 238.457 -0.757287 -5.86531 0
M  V30 2475 H 237.387 0.0614563 -0.751491 0
M  V30 2476 H 240.038 -0.54649 -1.75173 0
M  V30 2477 H 238.42 1.08903 -3.80731 0
M  V30 2478 H 239.594 -1.7323 -4.26999 0
M  V30 2479 H 237.909 -1.41766 -3.91524 0
M  V30 2480 H 240.506 1.02346 -5.24814 0
M  V30 2481 H 240.849 1.83172 -3.73837 0
M  V30 2482 H 241.382 0.149528 -3.97519 0
M  V30 2483 H 238.121 -1.70671 -6.32892 0
M  V30 2484 H 237.641 -0.0264061 -5.99794 0
M  V30 2485 H 239.32 -0.403482 -6.45741 0
M  V30 2486 N 239.452 1.56882 -0.150215 0
M  V30 2487 C 240.698 1.97299 0.494427 0
M  V30 2488 C 241.053 1.0338 1.62266 0
M  V30 2489 O 240.346 0.0694497 1.91474 0
M  V30 2490 C 240.54 3.41801 1.04437 0
M  V30 2491 C 240.369 4.49691 -0.0290451 0
M  V30 2492 C 239.139 5.03095 -0.47156 0
M  V30 2493 C 241.337 5.07693 -0.821703 0
M  V30 2494 N 239.319 5.94593 -1.52749 0
M  V30 2495 C 240.69 5.95431 -1.72805 0
M  V30 2496 C 242.745 4.90256 -0.869134 0
M  V30 2497 C 241.448 6.67599 -2.67777 0
M  V30 2498 C 243.474 5.63127 -1.8067 0
M  V30 2499 C 242.836 6.50576 -2.70057 0
M  V30 2500 H 238.935 0.76755 0.149639 0
M  V30 2501 H 241.519 1.93145 -0.24556 0
M  V30 2502 H 239.69 3.46541 1.75396 0
M  V30 2503 H 241.422 3.69272 1.6559 0
M  V30 2504 H 238.177 4.73543 -0.0732101 0
M  V30 2505 H 238.601 6.45047 -2.05531 0
M  V30 2506 H 243.243 4.22363 -0.192134 0
M  V30 2507 H 240.961 7.34717 -3.36476 0
M  V30 2508 H 244.547 5.51629 -1.84924 0
M  V30 2509 H 243.427 7.05974 -3.41424 0
M  V30 2510 N 240.93 -0.123565 1.57115 0
M  V30 2511 C 242.155 -0.850398 1.89164 0
M  V30 2512 C 242.58 -1.7286 0.741688 0
M  V30 2513 O 241.938 -1.78665 -0.307958 0
M  V30 2514 C 241.986 -1.66353 3.19936 0
M  V30 2515 O 241.09 -2.77004 3.0552 0
M  V30 2516 H 240.431 -0.235454 0.620852 0
M  V30 2517 H 242.961 -0.107335 2.04318 0
M  V30 2518 H 242.971 -2.05372 3.52543 0
M  V30 2519 H 241.646 -1.01881 4.03228 0
M  V30 2520 H 240.223 -2.41221 2.84371 0
M  V30 2521 N 242.408 -1.52605 -0.393616 0
M  V30 2522 C 243.34 -1.73303 -1.49995 0
M  V30 2523 C 244.353 -0.613473 -1.50799 0
M  V30 2524 O 245.542 -0.889049 -1.54784 0
M  V30 2525 C 242.642 -1.77245 -2.88855 0
M  V30 2526 C 241.815 -3.06483 -3.12069 0
M  V30 2527 C 240.874 -3.02033 -4.30886 0
M  V30 2528 O 239.9 -3.75907 -4.27414 0
M  V30 2529 N 241.102 -2.20897 -5.36828 0
M  V30 2530 H 243.867 -2.68756 -1.32629 0
M  V30 2531 H 241.428 -1.51036 -0.583083 0
M  V30 2532 H 243.42 -1.7178 -3.66434 0
M  V30 2533 H 241.99 -0.891993 -2.99603 0
M  V30 2534 H 241.21 -3.25474 -2.22396 0
M  V30 2535 H 242.498 -3.91947 -3.2443 0
M  V30 2536 H 241.896 -1.60336 -5.42502 0
M  V30 2537 H 240.453 -2.21275 -6.13091 0
M  V30 2538 N 243.887 0.651787 -1.4349 0
M  V30 2539 C 244.819 1.77725 -1.44729 0
M  V30 2540 C 245.832 1.59141 -0.343231 0
M  V30 2541 O 247.021 1.67835 -0.607751 0
M  V30 2542 C 244.121 3.15172 -1.24579 0
M  V30 2543 C 243.294 3.60402 -2.47849 0
M  V30 2544 C 242.353 4.76656 -2.22902 0
M  V30 2545 O 241.379 4.86022 -2.96263 0
M  V30 2546 N 242.581 5.66958 -1.24656 0
M  V30 2547 H 245.346 1.77141 -2.41746 0
M  V30 2548 H 242.907 0.835678 -1.38665 0
M  V30 2549 H 244.899 3.90634 -1.0577 0
M  V30 2550 H 243.469 3.1052 -0.360015 0
M  V30 2551 H 242.689 2.75369 -2.82073 0
M  V30 2552 H 243.977 3.87368 -3.29884 0
M  V30 2553 H 243.375 5.62065 -0.640265 0
M  V30 2554 H 241.932 6.42135 -1.1183 0
M  V30 2555 N 245.365 1.30045 0.890287 0
M  V30 2556 C 246.593 1.21472 1.67487 0
M  V30 2557 C 247.008 -0.223241 1.87476 0
M  V30 2558 O 246.365 -1.14828 1.41847 0
M  V30 2559 C 246.416 1.93394 3.05419 0
M  V30 2560 O 246.137 3.31576 2.86337 0
M  V30 2561 C 247.638 1.91414 3.99844 0
M  V30 2562 H 244.858 0.420604 0.522813 0
M  V30 2563 H 247.402 1.7158 1.11268 0
M  V30 2564 H 245.557 1.47099 3.58386 0
M  V30 2565 H 245.971 3.67929 3.73802 0
M  V30 2566 H 247.445 2.46285 4.94012 0
M  V30 2567 H 247.922 0.891833 4.3005 0
M  V30 2568 H 248.528 2.37496 3.52811 0
M  V30 2569 N 246.843 -1.10192 1.12674 0
M  V30 2570 C 248.071 -1.85983 0.906527 0
M  V30 2571 C 248.486 -1.80783 -0.544333 0
M  V30 2572 O 247.843 -1.19834 -1.37645 0
M  V30 2573 C 247.894 -3.34281 1.37618 0
M  V30 2574 O 247.615 -3.39401 2.77017 0
M  V30 2575 C 249.116 -4.26938 1.19325 0
M  V30 2576 H 246.336 -0.587716 0.323775 0
M  V30 2577 H 248.88 -1.39284 1.49734 0
M  V30 2578 H 247.035 -3.78436 0.828539 0
M  V30 2579 H 247.449 -4.31838 2.97684 0
M  V30 2580 H 248.923 -5.29181 1.57071 0
M  V30 2581 H 249.4 -4.38995 0.134097 0
M  V30 2582 H 250.006 -3.8859 1.72852 0
M  V30 2583 N 248.321 -0.919034 -1.28029 0
M  V30 2584 C 249.598 -0.473668 -1.89778 0
M  V30 2585 C 249.978 1.04783 -1.83259 0
M  V30 2586 O 249.326 1.8982 -1.27202 0
M  V30 2587 C 249.536 -1.00998 -3.34066 0
M  V30 2588 C 250.884 -1.06525 -4.1102 0
M  V30 2589 O 251.908 -0.958996 -3.43048 0
M  V30 2590 O 250.767 -1.22776 -5.3253 0
M  V30 2591 H 247.861 -0.15098 -0.813101 0
M  V30 2592 H 250.407 -1.01016 -1.36359 0
M  V30 2593 H 249.179 -2.05392 -3.33061 0
M  V30 2594 H 248.802 -0.454626 -3.94992 0
M  V30 2595 N 249.799 1.42003 -0.683588 0
M  V30 2596 C 251.21 1.84501 -0.285736 0
M  V30 2597 C 251.561 1.57213 1.17382 0
M  V30 2598 O 250.686 1.03642 1.89966 0
M  V30 2599 C 251.281 3.34912 -0.511821 0
M  V30 2600 C 249.84 3.76025 -0.168005 0
M  V30 2601 C 248.987 2.6551 -0.799983 0
M  V30 2602 H 251.938 1.31724 -0.885119 0
M  V30 2603 H 251.959 3.79784 0.233292 0
M  V30 2604 H 251.471 3.54741 -1.57418 0
M  V30 2605 H 249.572 3.61801 0.890567 0
M  V30 2606 H 249.685 4.75141 -0.614661 0
M  V30 2607 H 248.049 2.53654 -0.230568 0
M  V30 2608 H 248.832 2.8816 -1.86597 0
M  V30 2609 N 251.277 0.427512 1.51691 0
M  V30 2610 C 252.24 -0.377132 2.26076 0
M  V30 2611 C 253.24 -0.958089 1.29141 0
M  V30 2612 O 254.43 -0.83408 1.52934 0
M  V30 2613 C 251.562 -1.53262 3.04506 0
M  V30 2614 H 252.755 0.27464 2.9864 0
M  V30 2615 H 250.308 0.180445 1.55255 0
M  V30 2616 H 251.043 -2.22072 2.36335 0
M  V30 2617 H 250.828 -1.12232 3.75694 0
M  V30 2618 H 252.318 -2.10135 3.60878 0
M  V30 2619 N 252.755 -1.56801 0.158532 0
M  V30 2620 C 253.702 -2.17337 -0.776729 0
M  V30 2621 C 254.672 -1.1096 -1.23601 0
M  V30 2622 O 255.857 -1.39054 -1.30647 0
M  V30 2623 C 252.997 -2.80822 -2.00582 0
M  V30 2624 C 252.11 -4.01624 -1.59129 0
M  V30 2625 C 251.245 -4.53072 -2.77306 0
M  V30 2626 C 250.284 -5.66314 -2.32282 0
M  V30 2627 N 249.421 -6.12329 -3.43508 0
M  V30 2628 H 254.261 -2.96918 -0.253701 0
M  V30 2629 H 251.798 -1.46661 -0.113504 0
M  V30 2630 H 253.756 -3.15779 -2.72652 0
M  V30 2631 H 252.386 -2.03866 -2.50277 0
M  V30 2632 H 251.438 -3.72571 -0.767806 0
M  V30 2633 H 252.75 -4.83633 -1.2207 0
M  V30 2634 H 251.904 -4.90145 -3.57551 0
M  V30 2635 H 250.643 -3.70095 -3.17617 0
M  V30 2636 H 249.648 -5.28806 -1.5048 0
M  V30 2637 H 250.873 -6.51085 -1.93043 0
M  V30 2638 H 248.819 -5.32284 -3.83418 0
M  V30 2639 H 248.736 -6.89293 -3.105 0
M  V30 2640 H 250.004 -6.5405 -4.24075 0
M  V30 2641 N 254.233 0.115231 -1.57178 0
M  V30 2642 C 255.644 0.67197 -1.74188 0
M  V30 2643 C 255.995 1.80125 -0.777777 0
M  V30 2644 O 255.12 2.16346 0.0484376 0
M  V30 2645 C 255.715 1.22573 -3.1585 0
M  V30 2646 C 254.274 1.72872 -3.34353 0
M  V30 2647 C 253.421 0.629972 -2.70049 0
M  V30 2648 H 256.372 -0.110712 -1.58313 0
M  V30 2649 H 256.393 2.09535 -3.17609 0
M  V30 2650 H 255.905 0.403598 -3.85996 0
M  V30 2651 H 254.006 2.5755 -2.69256 0
M  V30 2652 H 254.119 1.83557 -4.42542 0
M  V30 2653 H 252.483 1.0645 -2.31388 0
M  V30 2654 H 253.266 -0.181241 -3.42821 0
M  V30 2655 N 255.711 1.52812 0.385517 0
M  V30 2656 C 256.941 1.71658 1.14966 0
M  V30 2657 C 257.349 0.436253 1.84102 0
M  V30 2658 O 256.692 -0.599313 1.73649 0
M  V30 2659 C 256.754 2.81309 2.23843 0
M  V30 2660 C 256.418 4.22313 1.74644 0
M  V30 2661 C 257.415 5.05352 1.22129 0
M  V30 2662 C 255.1 4.68648 1.80761 0
M  V30 2663 C 257.094 6.32807 0.763838 0
M  V30 2664 C 254.781 5.96086 1.34627 0
M  V30 2665 C 255.779 6.77996 0.825264 0
M  V30 2666 O 255.467 8.03045 0.370669 0
M  V30 2667 H 255.199 0.578022 0.350523 0
M  V30 2668 H 257.753 2.00263 0.456509 0
M  V30 2669 H 255.983 2.48133 2.96592 0
M  V30 2670 H 257.672 2.88524 2.85497 0
M  V30 2671 H 258.438 4.70736 1.16758 0
M  V30 2672 H 254.317 4.04979 2.20256 0
M  V30 2673 H 257.861 6.96689 0.356494 0
M  V30 2674 H 253.758 6.30205 1.39686 0
M  V30 2675 H 254.526 8.17021 0.491829 0
M  V30 2676 N 257.189 -0.644168 1.43834 0
M  V30 2677 C 258.414 -1.43642 1.49605 0
M  V30 2678 C 258.839 -1.8773 0.117913 0
M  V30 2679 O 258.197 -1.57938 -0.890239 0
M  V30 2680 C 258.245 -2.6416 2.45463 0
M  V30 2681 O 257.349 -3.63538 1.94714 0
M  V30 2682 H 256.69 -0.430329 0.50568 0
M  V30 2683 H 259.22 -0.787448 1.8884 0
M  V30 2684 H 259.23 -3.11864 2.63068 0
M  V30 2685 H 257.905 -2.31414 3.45572 0
M  V30 2686 H 256.482 -3.2273 1.86814 0
M  V30 2687 N 258.668 -1.30515 -0.883378 0
M  V30 2688 C 259.917 -1.18795 -1.63005 0
M  V30 2689 C 260.23 0.255923 -1.93919 0
M  V30 2690 O 261.436 0.494654 -2.66956 0
M  V30 2691 C 259.892 -2.07878 -2.93794 0
M  V30 2692 C 259.5 -3.57184 -2.70414 0
M  V30 2693 C 261.244 -2.04924 -3.71761 0
M  V30 2694 C 259.151 -4.38317 -3.97029 0
M  V30 2695 H 258.081 -0.441031 -0.611562 0
M  V30 2696 H 260.732 -1.55275 -0.977854 0
M  V30 2697 H 259.114 -1.64283 -3.60315 0
M  V30 2698 H 260.288 -4.08937 -2.12384 0
M  V30 2699 H 258.603 -3.61976 -2.0582 0
M  V30 2700 H 261.2 -2.62792 -4.65665 0
M  V30 2701 H 261.543 -1.0331 -4.03277 0
M  V30 2702 H 262.076 -2.46649 -3.12104 0
M  V30 2703 H 258.815 -5.40632 -3.70671 0
M  V30 2704 H 258.335 -3.91326 -4.54559 0
M  V30 2705 H 260.014 -4.49834 -4.65036 0
M  V30 2706 N 260.146 1.09593 -1.13257 0
M  V30 2707 C 261.374 1.855 -0.916378 0
M  V30 2708 C 261.789 1.81069 0.534738 0
M  V30 2709 O 261.146 1.20562 1.37007 0
M  V30 2710 C 261.197 3.33546 -1.39388 0
M  V30 2711 O 260.918 3.37927 -2.78813 0
M  V30 2712 C 262.419 4.26299 -1.21588 0
M  V30 2713 H 259.639 0.585991 -0.326887 0
M  V30 2714 H 262.183 1.38488 -1.5047 0
M  V30 2715 H 260.338 3.77992 -0.848597 0
M  V30 2716 H 260.752 4.30254 -2.9997 0
M  V30 2717 H 262.226 5.28341 -1.59876 0
M  V30 2718 H 262.703 4.38918 -0.157376 0
M  V30 2719 H 263.309 3.87668 -1.7491 0
M  V30 2720 N 261.624 0.925811 1.2754 0
M  V30 2721 C 262.872 0.564138 1.94067 0
M  V30 2722 C 263.193 -0.897188 1.73134 0
M  V30 2723 O 262.463 -1.63573 1.07799 0
M  V30 2724 H 261.043 0.205645 0.718136 0
M  V30 2725 H 263.705 1.1778 1.55287 0
M  V30 2726 H 262.801 0.76881 3.02483 0
M  V30 2727 N 263.102 -1.41638 0.69111 0
M  V30 2728 C 264.065 -2.29178 0.0319786 0
M  V30 2729 C 265.065 -1.44153 -0.712496 0
M  V30 2730 O 266.255 -1.65354 -0.548053 0
M  V30 2731 C 263.387 -3.26952 -0.965161 0
M  V30 2732 H 264.58 -2.88959 0.802681 0
M  V30 2733 H 262.133 -1.4955 0.454356 0
M  V30 2734 H 262.868 -2.72142 -1.76378 0
M  V30 2735 H 262.653 -3.89685 -0.434522 0
M  V30 2736 H 264.143 -3.92561 -1.42428 0
M  V30 2737 N 264.58 -0.43555 -1.51462 0
M  V30 2738 C 265.991 0.0279871 -1.86679 0
M  V30 2739 C 266.342 1.42104 -1.35281 0
M  V30 2740 O 265.467 2.04667 -0.702878 0
M  V30 2741 C 266.062 0.0575626 -3.38751 0
M  V30 2742 C 264.621 0.465507 -3.7351 0
M  V30 2743 C 263.768 -0.342996 -2.75171 0
M  V30 2744 H 266.719 -0.651473 -1.44712 0
M  V30 2745 H 266.74 0.867421 -3.70481 0
M  V30 2746 H 266.252 -0.956448 -3.7613 0
M  V30 2747 H 264.353 1.48519 -3.41721 0
M  V30 2748 H 264.466 0.191546 -4.78717 0
M  V30 2749 H 262.83 0.198442 -2.53926 0
M  V30 2750 H 263.613 -1.35585 -3.15391 0
M  V30 2751 N 266.058 1.56714 -0.166846 0
M  V30 2752 C 267.474 1.58473 0.189372 0
M  V30 2753 C 267.674 1.18201 1.63189 0
M  V30 2754 O 266.73 0.891528 2.36237 0
M  V30 2755 C 268.043 3.00573 -0.0873872 0
M  V30 2756 C 269.591 3.1299 -0.0252443 0
M  V30 2757 C 270.066 4.57174 -0.274934 0
M  V30 2758 N 271.557 4.62665 -0.222553 0
M  V30 2759 C 272.292 5.72072 -0.389985 0
M  V30 2760 N 271.788 6.90054 -0.616229 0
M  V30 2761 N 273.581 5.61153 -0.326202 0
M  V30 2762 H 265.732 1.8118 -1.10849 0
M  V30 2763 H 267.995 0.839525 -0.440342 0
M  V30 2764 H 267.701 3.34497 -1.0865 0
M  V30 2765 H 267.575 3.72019 0.623037 0
M  V30 2766 H 269.962 2.78895 0.96444 0
M  V30 2767 H 270.043 2.43989 -0.768309 0
M  V30 2768 H 269.687 4.91976 -1.26181 0
M  V30 2769 H 269.617 5.24328 0.48869 0
M  V30 2770 H 272.108 3.77863 -0.0531512 0
M  V30 2771 H 272.421 7.69311 -0.733559 0
M  V30 2772 H 270.766 6.91927 -0.652791 0
M  V30 2773 H 273.957 4.67859 -0.150072 0
M  V30 2774 H 274.13 6.46364 -0.460116 0
M  V30 2775 N 267.536 -0.106894 1.57237 0
M  V30 2776 C 268.782 -0.81373 1.85759 0
M  V30 2777 C 269.115 -1.78952 0.754315 0
M  V30 2778 O 268.39 -1.93029 -0.23879 0
M  V30 2779 C 268.673 -1.55293 3.24894 0
M  V30 2780 C 268.526 -0.595929 4.45835 0
M  V30 2781 C 269.845 -2.5063 3.61763 0
M  V30 2782 H 266.964 -0.294369 0.67566 0
M  V30 2783 H 269.606 -0.0776472 1.89841 0
M  V30 2784 H 267.756 -2.1804 3.21544 0
M  V30 2785 H 269.428 0.0236262 4.61294 0
M  V30 2786 H 267.671 0.0916191 4.33703 0
M  V30 2787 H 268.342 -1.15004 5.39887 0
M  V30 2788 H 270.818 -1.97982 3.65981 0
M  V30 2789 H 269.694 -2.99376 4.60071 0
M  V30 2790 H 269.955 -3.3385 2.89821 0
M  V30 2791 N 269.014 -1.53014 -0.377408 0
M  V30 2792 C 270.26 -1.68872 -1.12294 0
M  V30 2793 C 270.593 -0.433224 -1.89306 0
M  V30 2794 O 269.868 0.569258 -1.85983 0
M  V30 2795 C 270.151 -2.93115 -2.09179 0
M  V30 2796 C 270.004 -4.28794 -1.35853 0
M  V30 2797 C 271.323 -3.12928 -3.09458 0
M  V30 2798 H 268.442 -0.614518 -0.406862 0
M  V30 2799 H 271.084 -1.85633 -0.40503 0
M  V30 2800 H 269.234 -2.78956 -2.70399 0
M  V30 2801 H 270.906 -4.54742 -0.775082 0
M  V30 2802 H 269.149 -4.28744 -0.660364 0
M  V30 2803 H 269.82 -5.11837 -2.06706 0
M  V30 2804 H 272.296 -3.26194 -2.58334 0
M  V30 2805 H 271.172 -4.01316 -3.74482 0
M  V30 2806 H 271.433 -2.27669 -3.78971 0
M  V30 2807 N 270.492 0.636531 -1.44174 0
M  V30 2808 C 271.439 1.74875 -1.50624 0
M  V30 2809 C 272.409 1.62275 -0.35442 0
M  V30 2810 O 273.594 1.82276 -0.563908 0
M  V30 2811 C 270.734 3.13102 -1.45125 0
M  V30 2812 C 269.847 3.36717 -2.7064 0
M  V30 2813 C 268.982 4.64885 -2.57013 0
M  V30 2814 C 268.021 4.8166 -3.77717 0
M  V30 2815 N 267.158 6.01101 -3.62798 0
M  V30 2816 H 271.998 1.68697 -2.45653 0
M  V30 2817 H 269.535 0.823004 -1.21922 0
M  V30 2818 H 271.493 3.93034 -1.39929 0
M  V30 2819 H 270.123 3.18308 -0.536671 0
M  V30 2820 H 269.175 2.50763 -2.86046 0
M  V30 2821 H 270.487 3.44993 -3.60252 0
M  V30 2822 H 269.641 5.52969 -2.49619 0
M  V30 2823 H 268.38 4.58957 -1.64953 0
M  V30 2824 H 267.385 3.92007 -3.85501 0
M  V30 2825 H 268.61 4.89406 -4.70807 0
M  V30 2826 H 266.556 5.96273 -2.73486 0
M  V30 2827 H 266.473 6.10409 -4.46023 0
M  V30 2828 H 267.741 6.91761 -3.59286 0
M  V30 2829 N 271.97 1.30982 0.876444 0
M  V30 2830 C 273.218 1.20058 1.62575 0
M  V30 2831 C 273.539 -0.242947 1.93481 0
M  V30 2832 O 272.809 -1.1619 1.57724 0
M  V30 2833 H 271.389 0.44135 0.602677 0
M  V30 2834 H 274.051 1.64222 1.04962 0
M  V30 2835 H 273.147 1.76762 2.57219 0
M  V30 2836 N 273.449 -1.08991 1.13837 0
M  V30 2837 C 274.396 -2.15748 0.819835 0
M  V30 2838 C 275.366 -1.64636 -0.220026 0
M  V30 2839 O 276.551 -1.90582 -0.0912757 0
M  V30 2840 C 273.691 -3.4382 0.296913 0
M  V30 2841 C 272.804 -4.0881 1.39636 0
M  V30 2842 C 271.939 -5.24655 0.831314 0
M  V30 2843 C 270.978 -5.81575 1.90886 0
M  V30 2844 N 270.115 -6.88774 1.36142 0
M  V30 2845 H 274.955 -2.42338 1.73426 0
M  V30 2846 H 272.492 -1.18935 0.865613 0
M  V30 2847 H 274.45 -4.17193 -0.0244339 0
M  V30 2848 H 273.08 -3.17535 -0.580628 0
M  V30 2849 H 272.132 -3.33258 1.83422 0
M  V30 2850 H 273.444 -4.47141 2.21058 0
M  V30 2851 H 272.598 -6.04942 0.461515 0
M  V30 2852 H 271.337 -4.87698 -0.013932 0
M  V30 2853 H 270.342 -4.99946 2.28767 0
M  V30 2854 H 271.567 -6.20592 2.75758 0
M  V30 2855 H 269.513 -6.53788 0.538254 0
M  V30 2856 H 269.43 -7.25898 2.11208 0
M  V30 2857 H 270.698 -7.72806 1.01933 0
M  V30 2858 N 274.927 -0.932562 -1.27047 0
M  V30 2859 C 276.173 -0.576412 -1.94436 0
M  V30 2860 C 276.506 0.880891 -1.73072 0
M  V30 2861 O 275.781 1.62905 -1.06264 0
M  V30 2862 C 276.064 -0.909031 -3.48437 0
M  V30 2863 C 275.917 -2.42044 -3.79123 0
M  V30 2864 C 277.236 -0.418341 -4.38107 0
M  V30 2865 H 274.355 -0.210888 -0.706184 0
M  V30 2866 H 276.997 -1.16522 -1.50075 0
M  V30 2867 H 275.147 -0.407947 -3.86352 0
M  V30 2868 H 276.819 -2.99359 -3.50973 0
M  V30 2869 H 275.062 -2.86758 -3.25503 0
M  V30 2870 H 275.733 -2.6037 -4.86736 0
M  V30 2871 H 278.209 -0.847856 -4.0737 0
M  V30 2872 H 277.085 -0.679981 -5.44672 0
M  V30 2873 H 277.346 0.681642 -4.36814 0
M  V30 2874 N 276.405 1.4127 -0.698611 0
M  V30 2875 C 277.654 2.00408 -0.227949 0
M  V30 2876 C 277.967 1.55981 1.18023 0
M  V30 2877 O 279.173 2.07699 1.74852 0
M  V30 2878 C 277.629 3.58129 -0.356636 0
M  V30 2879 C 277.237 4.11536 -1.77037 0
M  V30 2880 C 278.981 4.24466 0.0540969 0
M  V30 2881 C 276.888 5.61701 -1.85055 0
M  V30 2882 H 275.818 0.749586 -0.0814657 0
M  V30 2883 H 278.469 1.61713 -0.867249 0
M  V30 2884 H 276.851 3.94442 0.350965 0
M  V30 2885 H 278.025 3.86636 -2.50698 0
M  V30 2886 H 276.34 3.57736 -2.13105 0
M  V30 2887 H 278.937 5.34698 0.0146723 0
M  V30 2888 H 279.28 4.01687 1.09332 0
M  V30 2889 H 279.813 3.93198 -0.603337 0
M  V30 2890 H 276.552 5.89312 -2.8704 0
M  V30 2891 H 276.072 5.88519 -1.15783 0
M  V30 2892 H 277.751 6.26524 -1.61484 0
M  V30 2893 N 277.883 0.443576 1.51229 0
M  V30 2894 C 279.132 -0.122332 2.01329 0
M  V30 2895 C 279.445 -1.43237 1.33201 0
M  V30 2896 O 280.651 -2.0816 1.74304 0
M  V30 2897 C 279.107 -0.268551 3.58897 0
M  V30 2898 C 278.715 1.03142 4.35965 0
M  V30 2899 C 280.459 -0.787894 4.17124 0
M  V30 2900 C 278.366 0.850504 5.85252 0
M  V30 2901 H 277.296 -0.0494929 0.752374 0
M  V30 2902 H 279.947 0.574289 1.74282 0
M  V30 2903 H 278.329 -1.02832 3.82415 0
M  V30 2904 H 279.503 1.80001 4.24189 0
M  V30 2905 H 277.818 1.47977 3.89219 0
M  V30 2906 H 280.415 -0.939841 5.26375 0
M  V30 2907 H 280.758 -1.77201 3.76703 0
M  V30 2908 H 281.291 -0.0862669 3.97706 0
M  V30 2909 H 278.03 1.80718 6.30096 0
M  V30 2910 H 277.55 0.121825 5.99676 0
M  V30 2911 H 279.229 0.506163 6.45017 0
M  V30 2912 N 279.361 -1.56624 0.175154 0
M  V30 2913 C 280.609 -1.96609 -0.467885 0
M  V30 2914 C 280.93 -1.06238 -1.63519 0
M  V30 2915 O 280.2 -0.129523 -1.95471 0
M  V30 2916 H 278.78 -0.726008 -0.175845 0
M  V30 2917 H 281.442 -1.93195 0.257234 0
M  V30 2918 H 280.538 -3.00989 -0.825342 0
M  V30 2919 N 280.839 0.0985539 -1.57292 0
M  V30 2920 C 281.787 1.1387 -2.02821 0
M  V30 2921 C 282.781 1.41676 -0.928666 0
M  V30 2922 O 283.987 1.41398 -1.11385 0
M  V30 2923 H 280.362 0.384419 -0.646317 0
M  V30 2924 H 282.333 0.728347 -2.89375 0
M  V30 2925 C 281.082 2.45166 -2.46554 0
M  V30 2926 H 280.405 2.24613 -3.3074 0
M  V30 2927 H 281.845 3.16456 -2.8219 0
M  V30 2928 C 280.304 3.09216 -1.33742 0
M  V30 2929 O 280.834 3.96163 -0.66464 0
M  V30 2930 N 279.04 2.69413 -1.08928 0
M  V30 2931 H 278.587 1.98801 -1.63817 0
M  V30 2932 H 278.545 3.12594 -0.336458 0
M  V30 2933 N 282.317 1.53212 0.369288 0
M  V30 2934 C 283.565 1.68881 1.11012 0
M  V30 2935 C 283.886 0.441285 1.89941 0
M  V30 2936 O 283.156 -0.544623 1.88177 0
M  V30 2937 H 281.736 0.622569 0.412816 0
M  V30 2938 H 284.398 1.90391 0.416802 0
M  V30 2939 H 283.494 2.54822 1.80201 0
M  V30 2940 N 283.795 -0.628877 1.44509 0
M  V30 2941 C 285.043 -1.38565 1.4712 0
M  V30 2942 C 285.364 -1.94712 0.105899 0
M  V30 2943 O 284.634 -1.75912 -0.862079 0
M  V30 2944 H 283.214 -0.514333 0.541729 0
M  V30 2945 H 285.876 -0.740018 1.80305 0
M  V30 2946 H 284.972 -2.21583 2.19789 0
M  V30 2947 N 285.273 -1.31445 -0.869486 0
M  V30 2948 C 286.236 -1.19094 -1.9583 0
M  V30 2949 C 287.236 -0.117906 -1.60367 0
M  V30 2950 O 288.426 -0.367208 -1.70286 0
M  V30 2951 C 285.558 -0.828165 -3.30688 0
M  V30 2952 H 286.751 -2.15842 -2.08212 0
M  V30 2953 H 284.304 -1.15063 -1.05784 0
M  V30 2954 H 285.039 0.138142 -3.24006 0
M  V30 2955 H 284.824 -1.6038 -3.578 0
M  V30 2956 H 286.314 -0.765658 -4.10521 0
M  V30 2957 N 286.751 1.08385 -1.14413 0
M  V30 2958 C 287.661 2.18856 -0.844951 0
M  V30 2959 C 288.677 1.73121 0.174668 0
M  V30 2960 O 289.853 2.014 0.00312857 0
M  V30 2961 C 286.918 3.45155 -0.32696 0
M  V30 2962 C 285.979 4.05513 -1.40916 0
M  V30 2963 C 285.212 5.25784 -0.915793 0
M  V30 2964 O 285.435 5.69884 0.242651 0
M  V30 2965 O 284.369 5.77545 -1.69487 0
M  V30 2966 H 288.195 2.46919 -1.76818 0
M  V30 2967 H 285.78 1.17524 -0.922411 0
M  V30 2968 H 287.662 4.21377 -0.0440211 0
M  V30 2969 H 286.337 3.18668 0.568539 0
M  V30 2970 H 285.244 3.30879 -1.74556 0
M  V30 2971 H 286.577 4.3625 -2.27919 0
M  V30 2972 N 288.23 0.939286 1.26551 0
M  V30 2973 C 289.46 0.601663 1.97645 0
M  V30 2974 C 289.868 -0.827206 1.70159 0
M  V30 2975 O 289.211 -1.56291 0.965338 0
M  V30 2976 C 289.273 0.761725 3.51337 0
M  V30 2977 C 288.937 2.16487 4.0247 0
M  V30 2978 C 289.934 3.14016 4.14355 0
M  V30 2979 C 287.619 2.48494 4.36527 0
M  V30 2980 C 289.613 4.41654 4.59587 0
M  V30 2981 C 287.3 3.76364 4.81449 0
M  V30 2982 C 288.298 4.72758 4.92939 0
M  V30 2983 O 287.986 5.98352 5.36871 0
M  V30 2984 H 287.718 0.225758 0.637189 0
M  V30 2985 H 290.272 1.26178 1.62075 0
M  V30 2986 H 288.502 0.0444808 3.86674 0
M  V30 2987 H 290.191 0.427442 4.03643 0
M  V30 2988 H 290.957 2.90613 3.8829 0
M  V30 2989 H 286.836 1.74202 4.26819 0
M  V30 2990 H 290.38 5.16896 4.68471 0
M  V30 2991 H 286.277 3.99582 5.06956 0
M  V30 2992 H 287.045 6.01507 5.55096 0
M  V30 2993 N 289.708 -1.40897 0.706093 0
M  V30 2994 C 290.956 -2.00657 0.241054 0
M  V30 2995 C 291.277 -1.56241 -1.16678 0
M  V30 2996 O 290.547 -0.79765 -1.78926 0
M  V30 2997 H 289.127 -0.742018 0.0861308 0
M  V30 2998 H 291.789 -1.72372 0.909604 0
M  V30 2999 H 290.885 -3.10958 0.266705 0
M  V30 3000 N 291.186 -0.45159 -1.50991 0
M  V30 3001 C 292.432 0.110237 -2.025 0
M  V30 3002 C 292.765 1.41109 -1.33424 0
M  V30 3003 O 292.04 1.89135 -0.453659 0
M  V30 3004 C 292.323 0.314271 -3.58726 0
M  V30 3005 C 292.176 -1.00623 -4.38401 0
M  V30 3006 C 293.495 1.07767 -4.26702 0
M  V30 3007 H 290.614 0.0385897 -0.735989 0
M  V30 3008 H 293.256 -0.593374 -1.80497 0
M  V30 3009 H 291.406 0.913601 -3.77605 0
M  V30 3010 H 293.078 -1.64064 -4.31139 0
M  V30 3011 H 291.321 -1.6075 -4.02917 0
M  V30 3012 H 291.992 -0.817341 -5.45915 0
M  V30 3013 H 294.468 0.56986 -4.12179 0
M  V30 3014 H 293.344 1.18921 -5.35863 0
M  V30 3015 H 293.605 2.10939 -3.88532 0
M  V30 3016 N 292.664 1.56529 -0.183458 0
M  V30 3017 C 294.08 1.58664 0.172554 0
M  V30 3018 C 294.28 1.19925 1.61926 0
M  V30 3019 O 293.336 0.916534 2.35278 0
M  V30 3020 C 294.649 3.00463 -0.119262 0
M  V30 3021 C 296.197 3.12945 -0.0584396 0
M  V30 3022 C 296.672 4.56857 -0.323408 0
M  V30 3023 N 298.163 4.62403 -0.271612 0
M  V30 3024 C 298.898 5.71626 -0.450639 0
M  V30 3025 N 298.394 6.89362 -0.689384 0
M  V30 3026 N 300.187 5.60775 -0.385701 0
M  V30 3027 H 292.338 1.79994 -1.12765 0
M  V30 3028 H 294.601 0.834808 -0.449222 0
M  V30 3029 H 294.307 3.33326 -1.12192 0
M  V30 3030 H 294.181 3.72659 0.583544 0
M  V30 3031 H 296.568 2.79902 0.934805 0
M  V30 3032 H 296.649 2.4316 -0.794144 0
M  V30 3033 H 296.293 4.9061 -1.31392 0
M  V30 3034 H 296.223 5.24816 0.43305 0
M  V30 3035 H 298.714 3.77785 -0.0932256 0
M  V30 3036 H 299.027 7.68489 -0.815113 0
M  V30 3037 H 297.372 6.91196 -0.726142 0
M  V30 3038 H 300.563 4.67674 -0.199687 0
M  V30 3039 H 300.736 6.4584 -0.528646 0
M  V30 3040 N 294.142 -0.090211 1.57342 0
M  V30 3041 C 295.39 -0.791241 1.85967 0
M  V30 3042 C 295.711 -1.7903 0.772859 0
M  V30 3043 O 294.981 -1.94872 -0.200398 0
M  V30 3044 H 293.561 -0.295205 0.686195 0
M  V30 3045 H 296.223 -0.0706782 1.94772 0
M  V30 3046 H 295.319 -1.31882 2.82867 0
M  V30 3047 N 295.62 -1.53406 -0.361157 0
M  V30 3048 C 296.867 -1.69802 -1.10333 0
M  V30 3049 C 297.195 -0.452087 -1.89173 0
M  V30 3050 O 296.45 0.566017 -1.87336 0
M  V30 3051 C 296.749 -2.90211 -2.08596 0
M  V30 3052 C 296.415 -4.26539 -1.46203 0
M  V30 3053 C 295.077 -4.6361 -1.28915 0
M  V30 3054 C 297.429 -5.113 -1.01101 0
M  V30 3055 C 294.757 -5.83075 -0.651157 0
M  V30 3056 C 297.109 -6.31415 -0.387007 0
M  V30 3057 C 295.773 -6.67195 -0.201657 0
M  V30 3058 H 295.043 -0.621351 -0.403737 0
M  V30 3059 H 297.69 -1.87598 -0.384609 0
M  V30 3060 H 295.995 -2.66946 -2.86788 0
M  V30 3061 H 297.692 -3.00091 -2.65982 0
M  V30 3062 H 294.282 -3.97352 -1.60653 0
M  V30 3063 H 298.466 -4.83206 -1.13249 0
M  V30 3064 H 293.722 -6.09385 -0.496006 0
M  V30 3065 H 297.896 -6.96394 -0.0293563 0
M  V30 3066 H 295.523 -7.59628 0.294766 0
M  V30 3067 N 297.098 0.621204 -1.44841 0
M  V30 3068 C 298.344 1.3826 -1.48365 0
M  V30 3069 C 298.677 1.93831 -0.119624 0
M  V30 3070 O 297.952 1.74251 0.864111 0
M  V30 3071 C 298.235 2.54058 -2.55199 0
M  V30 3072 C 298.088 2.03772 -4.00995 0
M  V30 3073 C 299.407 3.56225 -2.58442 0
M  V30 3074 H 296.526 0.501374 -0.540179 0
M  V30 3075 H 299.168 0.7015 -1.76576 0
M  V30 3076 H 297.318 3.12162 -2.31274 0
M  V30 3077 H 298.99 1.50423 -4.36086 0
M  V30 3078 H 297.233 1.34876 -4.12299 0
M  V30 3079 H 297.904 2.87185 -4.71411 0
M  V30 3080 H 300.38 3.07939 -2.79844 0
M  V30 3081 H 299.256 4.34756 -3.3508 0
M  V30 3082 H 299.517 4.10949 -1.63013 0
M  V30 3083 N 298.576 1.31904 0.862503 0
M  V30 3084 C 299.801 1.25135 1.65397 0
M  V30 3085 C 300.226 -0.179 1.87246 0
M  V30 3086 O 299.584 -1.1277 1.4196 0
M  V30 3087 C 299.632 2.00832 2.99498 0
M  V30 3088 O 298.736 1.35075 3.89652 0
M  V30 3089 H 298.077 0.431655 0.504549 0
M  V30 3090 H 300.607 1.74094 1.07483 0
M  V30 3091 H 300.617 2.10709 3.49379 0
M  V30 3092 H 299.292 3.04847 2.82916 0
M  V30 3093 H 297.869 1.33696 3.48109 0
M  V30 3094 N 300.054 -1.07777 1.14986 0
M  V30 3095 C 301.017 -2.13041 0.845358 0
M  V30 3096 C 302.017 -1.60071 -0.152931 0
M  V30 3097 O 303.207 -1.74033 0.0761879 0
M  V30 3098 C 300.339 -3.39896 0.261383 0
M  V30 3099 H 301.532 -2.41485 1.77834 0
M  V30 3100 H 299.085 -1.23595 0.956757 0
M  V30 3101 H 299.82 -3.17091 -0.68 0
M  V30 3102 H 299.605 -3.79642 0.980514 0
M  V30 3103 H 301.095 -4.17548 0.0657687 0
M  V30 3104 N 301.532 -0.945985 -1.26051 0
M  V30 3105 C 302.762 -0.612136 -1.97323 0
M  V30 3106 C 303.17 0.818171 -1.70595 0
M  V30 3107 O 302.513 1.55777 -0.973613 0
M  V30 3108 C 302.575 -0.780347 -3.50929 0
M  V30 3109 C 302.239 -2.18619 -4.01317 0
M  V30 3110 C 303.236 -3.16209 -4.12683 0
M  V30 3111 C 300.921 -2.50805 -4.35203 0
M  V30 3112 C 302.915 -4.44085 -4.57238 0
M  V30 3113 C 300.602 -3.78912 -4.79446 0
M  V30 3114 C 301.6 -4.75365 -4.90425 0
M  V30 3115 O 301.288 -6.01191 -5.3369 0
M  V30 3116 H 301.02 -0.229134 -0.635982 0
M  V30 3117 H 303.574 -1.27036 -1.61404 0
M  V30 3118 H 301.804 -0.0649864 -3.86645 0
M  V30 3119 H 303.493 -0.448842 -4.03411 0
M  V30 3120 H 304.259 -2.92668 -3.86744 0
M  V30 3121 H 300.138 -1.76463 -4.2589 0
M  V30 3122 H 303.682 -5.19373 -4.65723 0
M  V30 3123 H 299.579 -4.02265 -5.0483 0
M  V30 3124 H 300.347 -6.04442 -5.51899 0
M  V30 3125 N 303.011 1.40521 -0.713556 0
M  V30 3126 C 304.288 1.94775 -0.17943 0
M  V30 3127 C 304.668 1.65184 1.31444 0
M  V30 3128 O 304.016 0.968429 2.06963 0
M  V30 3129 C 304.226 3.45543 -0.489986 0
M  V30 3130 C 305.574 4.22442 -0.427536 0
M  V30 3131 O 306.598 3.53644 -0.425929 0
M  V30 3132 O 305.457 5.4501 -0.403292 0
M  V30 3133 H 302.551 0.826606 -0.0255192 0
M  V30 3134 H 305.097 1.5014 -0.790949 0
M  V30 3135 H 303.869 3.60432 -1.5233 0
M  V30 3136 H 303.492 3.97311 0.151598 0
M  V30 3137 N 304.489 0.459591 1.5075 0
M  V30 3138 C 305.452 -0.329093 2.26825 0
M  V30 3139 C 306.452 -0.930481 1.31144 0
M  V30 3140 O 307.642 -0.801453 1.54669 0
M  V30 3141 C 304.774 -1.46768 3.07688 0
M  V30 3142 H 305.967 0.337924 2.9799 0
M  V30 3143 H 303.52 0.213336 1.54837 0
M  V30 3144 H 304.255 -2.17009 2.40993 0
M  V30 3145 H 304.04 -1.04238 3.77991 0
M  V30 3146 H 305.53 -2.02433 3.65254 0
M  V30 3147 N 305.967 -1.56429 0.191757 0
M  V30 3148 C 307.244 -1.89224 -0.495332 0
M  V30 3149 C 307.624 -1.10478 -1.79883 0
M  V30 3150 O 306.972 -0.204852 -2.2758 0
M  V30 3151 C 307.182 -3.41548 -0.717367 0
M  V30 3152 C 308.53 -4.11711 -1.03823 0
M  V30 3153 O 309.554 -3.4698 -0.805204 0
M  V30 3154 O 308.413 -5.2611 -1.47887 0
M  V30 3155 H 305.507 -0.785788 -0.25781 0
M  V30 3156 H 308.053 -1.68111 0.231721 0
M  V30 3157 H 306.825 -3.90772 0.203287 0
M  V30 3158 H 306.448 -3.68342 -1.497 0
M  V30 3159 N 307.445 0.0818655 -1.57387 0
M  V30 3160 C 308.673 0.796108 -1.9097 0
M  V30 3161 C 309.088 1.71626 -0.786757 0
M  V30 3162 O 308.445 1.80908 0.240513 0
M  V30 3163 C 308.496 1.59829 -3.24248 0
M  V30 3164 O 308.217 0.715131 -4.32224 0
M  V30 3165 C 309.718 2.41442 -3.7178 0
M  V30 3166 H 306.938 0.22691 -0.631469 0
M  V30 3167 H 309.482 0.0551439 -2.04426 0
M  V30 3168 H 307.637 2.29163 -3.12351 0
M  V30 3169 H 308.051 1.27205 -5.08841 0
M  V30 3170 H 309.525 2.932 -4.67694 0
M  V30 3171 H 310.002 3.2051 -3.00283 0
M  V30 3172 H 310.608 1.77283 -3.86589 0
M  V30 3173 N 308.923 1.53595 0.353017 0
M  V30 3174 C 310.171 1.70049 1.09215 0
M  V30 3175 C 310.492 0.461406 1.89463 0
M  V30 3176 O 309.762 -0.524633 1.88744 0
M  V30 3177 H 308.342 0.626912 0.40619 0
M  V30 3178 H 311.004 1.90822 0.396585 0
M  V30 3179 H 310.1 2.56718 1.77488 0
M  V30 3180 N 310.401 -0.613514 1.45168 0
M  V30 3181 C 311.348 -1.72456 1.53387 0
M  V30 3182 C 312.318 -1.6169 0.380191 0
M  V30 3183 O 313.503 -1.81356 0.592836 0
M  V30 3184 C 310.643 -3.10753 1.50088 0
M  V30 3185 C 309.756 -3.32368 2.75963 0
M  V30 3186 C 308.891 -4.60737 2.64376 0
M  V30 3187 C 307.93 -4.7559 3.85332 0
M  V30 3188 N 307.067 -5.95253 3.72315 0
M  V30 3189 H 311.907 -1.64768 2.48305 0
M  V30 3190 H 309.444 -0.803503 1.23216 0
M  V30 3191 H 311.402 -3.90758 1.46164 0
M  V30 3192 H 310.032 -3.17413 0.587243 0
M  V30 3193 H 309.084 -2.4618 2.89999 0
M  V30 3194 H 310.396 -3.39218 3.65695 0
M  V30 3195 H 309.55 -5.48928 2.58385 0
M  V30 3196 H 308.289 -4.56275 1.72233 0
M  V30 3197 H 307.294 -3.85824 3.91688 0
M  V30 3198 H 308.519 -4.81854 4.78533 0
M  V30 3199 H 306.465 -5.91847 2.82937 0
M  V30 3200 H 306.382 -6.03236 4.55677 0
M  V30 3201 H 307.65 -6.85958 3.70246 0
M  V30 3202 N 311.879 -1.3236 -0.855495 0
M  V30 3203 C 312.809 -1.23833 -1.97958 0
M  V30 3204 C 313.79 -0.122361 -1.69659 0
M  V30 3205 O 314.975 -0.30939 -1.9172 0
M  V30 3206 C 312.105 -0.959772 -3.33775 0
M  V30 3207 C 311.059 -2.03689 -3.76424 0
M  V30 3208 C 310.385 -1.61075 -5.09862 0
M  V30 3209 C 311.685 -3.4518 -3.9198 0
M  V30 3210 H 313.379 -2.1788 -2.0535 0
M  V30 3211 H 310.925 -1.04891 -0.986605 0
M  V30 3212 H 312.878 -0.886678 -4.11966 0
M  V30 3213 H 311.602 0.0163404 -3.26596 0
M  V30 3214 H 310.261 -2.10012 -3.00484 0
M  V30 3215 H 309.909 -0.622107 -4.99138 0
M  V30 3216 H 309.609 -2.33143 -5.39368 0
M  V30 3217 H 311.133 -1.55201 -5.90546 0
M  V30 3218 H 312.547 -3.4145 -4.60526 0
M  V30 3219 H 310.944 -4.1559 -4.32903 0
M  V30 3220 H 312.014 -3.84903 -2.94919 0
M  V30 3221 N 313.357 1.07166 -1.15556 0
M  V30 3222 C 314.32 2.12589 -0.856644 0
M  V30 3223 C 315.32 1.6015 0.14444 0
M  V30 3224 O 316.51 1.7399 -0.0854163 0
M  V30 3225 C 313.642 3.39753 -0.279405 0
M  V30 3226 H 314.835 2.40539 -1.79112 0
M  V30 3227 H 312.388 1.23086 -0.963298 0
M  V30 3228 H 313.123 3.17447 0.663174 0
M  V30 3229 H 312.908 3.79117 -1.00063 0
M  V30 3230 H 314.398 4.17507 -0.0879113 0
M  V30 3231 N 314.835 0.952656 1.25548 0
M  V30 3232 C 316.081 0.616826 1.93822 0
M  V30 3233 C 316.436 -0.836684 1.73255 0
M  V30 3234 O 315.729 -1.59218 1.06584 0
M  V30 3235 C 315.923 0.908818 3.45652 0
M  V30 3236 C 315.752 2.38916 3.80984 0
M  V30 3237 C 314.522 3.04637 4.03143 0
M  V30 3238 C 316.72 3.36838 3.88645 0
M  V30 3239 N 314.702 4.42565 4.25453 0
M  V30 3240 C 316.073 4.60065 4.1562 0
M  V30 3241 C 318.128 3.31704 3.71318 0
M  V30 3242 C 316.831 5.78795 4.2707 0
M  V30 3243 C 318.857 4.4977 3.84006 0
M  V30 3244 C 318.219 5.71783 4.11392 0
M  V30 3245 H 314.318 0.27629 0.731565 0
M  V30 3246 H 316.902 1.22443 1.5138 0
M  V30 3247 H 315.073 0.330166 3.86994 0
M  V30 3248 H 316.805 0.533093 4.01174 0
M  V30 3249 H 313.56 2.55215 3.98952 0
M  V30 3250 H 313.984 5.1399 4.40617 0
M  V30 3251 H 318.626 2.3842 3.49164 0
M  V30 3252 H 316.344 6.72521 4.48041 0
M  V30 3253 H 319.93 4.47342 3.71989 0
M  V30 3254 H 318.81 6.61617 4.2099 0
M  V30 3255 N 316.313 -1.40141 0.720998 0
M  V30 3256 C 317.729 -1.54632 0.395113 0
M  V30 3257 C 317.929 -1.69115 -1.09555 0
M  V30 3258 O 316.985 -1.68377 -1.88163 0
M  V30 3259 C 318.298 -2.77177 1.1659 0
M  V30 3260 C 319.846 -2.91 1.15274 0
M  V30 3261 C 320.321 -4.16465 1.90579 0
M  V30 3262 N 321.812 -4.23476 1.87675 0
M  V30 3263 C 322.547 -5.19475 2.42762 0
M  V30 3264 N 322.043 -6.21348 3.06428 0
M  V30 3265 N 323.836 -5.11592 2.32874 0
M  V30 3266 H 315.987 -1.28986 1.68749 0
M  V30 3267 H 318.25 -0.62412 0.713567 0
M  V30 3268 H 317.956 -2.72771 2.22011 0
M  V30 3269 H 317.83 -3.69442 0.76108 0
M  V30 3270 H 320.217 -2.94907 0.106702 0
M  V30 3271 H 320.298 -1.99838 1.59682 0
M  V30 3272 H 319.942 -4.1332 2.95176 0
M  V30 3273 H 319.872 -5.06646 1.43587 0
M  V30 3274 H 322.363 -3.50497 1.41281 0
M  V30 3275 H 322.676 -6.91034 3.45965 0
M  V30 3276 H 321.021 -6.21777 3.10514 0
M  V30 3277 H 324.212 -4.30936 1.82789 0
M  V30 3278 H 324.385 -5.86233 2.76106 0
M  V30 3279 N 317.792 -0.46758 -1.50504 0
M  V30 3280 C 319.039 0.0886219 -2.02306 0
M  V30 3281 C 319.367 1.40037 -1.34981 0
M  V30 3282 O 318.622 1.90136 -0.463318 0
M  V30 3283 C 318.921 0.323995 -3.55928 0
M  V30 3284 C 318.587 -0.905618 -4.41712 0
M  V30 3285 C 317.249 -1.24275 -4.64875 0
M  V30 3286 C 319.601 -1.72448 -4.91845 0
M  V30 3287 C 316.929 -2.39888 -5.35417 0
M  V30 3288 C 319.281 -2.87185 -5.63656 0
M  V30 3289 C 317.945 -3.21317 -5.85074 0
M  V30 3290 H 317.215 0.0324291 -0.74029 0
M  V30 3291 H 319.862 -0.620945 -1.81153 0
M  V30 3292 H 318.167 1.11577 -3.75577 0
M  V30 3293 H 319.864 0.76826 -3.93572 0
M  V30 3294 H 316.454 -0.632956 -4.239 0
M  V30 3295 H 320.638 -1.4772 -4.73806 0
M  V30 3296 H 315.894 -2.66611 -5.50208 0
M  V30 3297 H 320.068 -3.50985 -6.01484 0
M  V30 3298 H 317.695 -4.1101 -6.39511 0
M  V30 3299 N 319.27 1.56325 -0.20005 0
M  V30 3300 C 320.5 2.01811 0.442232 0
M  V30 3301 C 320.908 1.07932 1.55394 0
M  V30 3302 O 320.251 0.0772685 1.83537 0
M  V30 3303 C 320.313 3.43685 1.05457 0
M  V30 3304 C 319.977 4.56928 0.0809833 0
M  V30 3305 C 320.974 5.15009 -0.711471 0
M  V30 3306 C 318.659 5.0229 -0.0315364 0
M  V30 3307 C 320.653 6.16904 -1.60336 0
M  V30 3308 C 318.34 6.04028 -0.926981 0
M  V30 3309 C 319.338 6.6121 -1.71146 0
M  V30 3310 O 319.026 7.60971 -2.59189 0
M  V30 3311 H 318.758 0.666173 0.114848 0
M  V30 3312 H 321.312 2.03085 -0.307511 0
M  V30 3313 H 319.542 3.39413 1.85299 0
M  V30 3314 H 321.231 3.72948 1.60201 0
M  V30 3315 H 321.997 4.80827 -0.634873 0
M  V30 3316 H 317.876 4.57476 0.568902 0
M  V30 3317 H 321.42 6.61464 -2.21611 0
M  V30 3318 H 317.317 6.37634 -1.00468 0
M  V30 3319 H 318.085 7.7841 -2.53023 0
M  V30 3320 N 320.748 -0.0735177 1.57428 0
M  V30 3321 C 321.976 -0.785969 1.9139 0
M  V30 3322 C 322.391 -1.71207 0.795847 0
M  V30 3323 O 321.748 -1.81033 -0.230915 0
M  V30 3324 C 321.799 -1.58107 3.25091 0
M  V30 3325 O 321.52 -0.6922 4.32597 0
M  V30 3326 C 323.021 -2.39467 3.73055 0
M  V30 3327 H 320.241 -0.223558 0.632663 0
M  V30 3328 H 322.785 -0.044302 2.04452 0
M  V30 3329 H 320.94 -2.27503 3.13562 0
M  V30 3330 H 321.354 -1.24504 5.09508 0
M  V30 3331 H 322.828 -2.90716 4.69242 0
M  V30 3332 H 323.305 -3.18913 3.01979 0
M  V30 3333 H 323.911 -1.7523 3.87523 0
M  V30 3334 N 322.226 -1.5378 -0.344866 0
M  V30 3335 C 323.472 -1.71216 -1.08687 0
M  V30 3336 C 323.805 -0.473281 -1.88345 0
M  V30 3337 O 323.08 0.52968 -1.87149 0
M  V30 3338 C 323.363 -2.97486 -2.02914 0
M  V30 3339 C 323.216 -4.31579 -1.26727 0
M  V30 3340 C 324.535 -3.19422 -3.0275 0
M  V30 3341 H 321.654 -0.62301 -0.393735 0
M  V30 3342 H 324.296 -1.8645 -0.365563 0
M  V30 3343 H 322.446 -2.84629 -2.64421 0
M  V30 3344 H 324.118 -4.56284 -0.67845 0
M  V30 3345 H 322.361 -4.30049 -0.569273 0
M  V30 3346 H 323.032 -5.16106 -1.95803 0
M  V30 3347 H 325.508 -3.316 -2.51357 0
M  V30 3348 H 324.384 -4.09169 -3.65885 0
M  V30 3349 H 324.645 -2.35656 -3.74057 0
M  V30 3350 N 323.704 0.605807 -1.45491 0
M  V30 3351 C 325.115 1.18777 -1.44045 0
M  V30 3352 C 325.466 1.95471 -0.169001 0
M  V30 3353 O 324.591 2.0374 0.729324 0
M  V30 3354 C 325.186 2.16064 -2.60963 0
M  V30 3355 C 323.745 2.69633 -2.62631 0
M  V30 3356 C 322.892 1.45072 -2.36325 0
M  V30 3357 H 325.843 0.395017 -1.53705 0
M  V30 3358 H 325.864 2.9913 -2.35163 0
M  V30 3359 H 325.376 1.60217 -3.53486 0
M  V30 3360 H 323.477 3.29414 -1.74119 0
M  V30 3361 H 323.59 3.13944 -3.61906 0
M  V30 3362 H 321.954 1.74089 -1.85917 0
M  V30 3363 H 322.737 0.910899 -3.30995 0
M  V30 3364 N 325.182 1.32811 0.848464 0
M  V30 3365 C 326.43 1.23479 1.59991 0
M  V30 3366 C 326.751 -0.201853 1.93952 0
M  V30 3367 O 326.021 -1.12818 1.60153 0
M  V30 3368 H 324.601 0.454034 0.593179 0
M  V30 3369 H 327.263 1.66412 1.01455 0
M  V30 3370 H 326.359 1.82178 2.53412 0
M  V30 3371 N 326.66 -1.06551 1.16123 0
M  V30 3372 C 327.937 -1.76097 0.85142 0
M  V30 3373 C 328.317 -2.00802 -0.6513 0
M  V30 3374 O 327.665 -1.63302 -1.59827 0
M  V30 3375 C 327.875 -3.06384 1.67122 0
M  V30 3376 C 329.223 -3.80585 1.88255 0
M  V30 3377 O 330.247 -3.16218 1.63966 0
M  V30 3378 O 329.106 -4.96212 2.2899 0
M  V30 3379 H 326.2 -0.765102 0.313923 0
M  V30 3380 H 328.746 -1.12844 1.26745 0
M  V30 3381 H 327.518 -2.84071 2.69108 0
M  V30 3382 H 327.141 -3.77371 1.25206 0
M  V30 3383 N 328.138 -0.959301 -1.25041 0
M  V30 3384 C 329.549 -0.65667 -1.74771 0
M  V30 3385 C 329.9 0.827852 -1.77879 0
M  V30 3386 O 329.025 1.64783 -1.40269 0
M  V30 3387 C 329.62 -1.1853 -3.1739 0
M  V30 3388 C 328.179 -0.932734 -3.6466 0
M  V30 3389 C 327.326 -1.32558 -2.43564 0
M  V30 3390 H 330.277 -1.13558 -1.10862 0
M  V30 3391 H 330.298 -0.547582 -3.76539 0
M  V30 3392 H 329.81 -2.26576 -3.15095 0
M  V30 3393 H 327.911 0.13257 -3.72364 0
M  V30 3394 H 328.024 -1.57248 -4.52559 0
M  V30 3395 H 326.388 -0.743956 -2.43593 0
M  V30 3396 H 327.171 -2.41537 -2.43957 0
M  V30 3397 N 329.616 1.39756 -0.72842 0
M  V30 3398 C 330.579 2.29012 -0.0927297 0
M  V30 3399 C 331.579 1.45992 0.674025 0
M  V30 3400 O 332.769 1.66749 0.50402 0
M  V30 3401 C 329.901 3.29396 0.878137 0
M  V30 3402 H 331.094 2.86729 -0.879011 0
M  V30 3403 H 328.647 1.48293 -0.493847 0
M  V30 3404 H 329.382 2.76722 1.69101 0
M  V30 3405 H 329.167 3.907 0.331051 0
M  V30 3406 H 330.657 3.96199 1.3197 0
M  V30 3407 N 331.094 0.475555 1.50254 0
M  V30 3408 C 332.024 -0.30611 2.31485 0
M  V30 3409 C 333.005 -0.986228 1.38591 0
M  V30 3410 O 334.19 -0.982541 1.67511 0
M  V30 3411 C 331.32 -1.38588 3.1845 0
M  V30 3412 C 330.274 -0.827115 4.19932 0
M  V30 3413 C 329.6 -2.00551 4.95665 0
M  V30 3414 C 330.9 0.16463 5.2204 0
M  V30 3415 H 332.594 0.371866 2.97082 0
M  V30 3416 H 330.14 0.180282 1.42867 0
M  V30 3417 H 332.093 -1.94023 3.74076 0
M  V30 3418 H 330.817 -2.09269 2.50747 0
M  V30 3419 H 329.476 -0.294702 3.65414 0
M  V30 3420 H 329.124 -2.6994 4.2443 0
M  V30 3421 H 328.824 -1.63784 5.64313 0
M  V30 3422 H 330.348 -2.56468 5.54127 0
M  V30 3423 H 331.762 -0.300699 5.72511 0
M  V30 3424 H 330.159 0.446813 5.98434 0
M  V30 3425 H 331.229 1.08905 4.72512 0
M  V30 3426 N 332.573 -1.56217 0.208337 0
M  V30 3427 C 333.984 -1.84243 -0.301904 0
M  V30 3428 C 334.335 -1.12939 -1.60434 0
M  V30 3429 O 333.46 -0.39461 -2.12772 0
M  V30 3430 C 334.055 -3.34231 -0.554543 0
M  V30 3431 C 332.614 -3.62621 -1.00912 0
M  V30 3432 C 331.761 -2.77224 -0.064933 0
M  V30 3433 H 334.712 -1.52712 0.431833 0
M  V30 3434 H 334.733 -3.5372 -1.40223 0
M  V30 3435 H 334.245 -3.86099 0.393561 0
M  V30 3436 H 332.346 -3.16197 -1.97104 0
M  V30 3437 H 332.459 -4.7071 -0.892674 0
M  V30 3438 H 330.823 -2.48256 -0.56929 0
M  V30 3439 H 331.606 -3.31887 0.877851 0
M  V30 3440 N 334.051 0.0651679 -1.57465 0
M  V30 3441 C 335.281 0.774683 -1.91526 0
M  V30 3442 C 335.689 1.71305 -0.803196 0
M  V30 3443 O 335.032 1.82231 0.231881 0
M  V30 3444 C 335.094 1.61645 -3.21109 0
M  V30 3445 C 334.758 0.846753 -4.49087 0
M  V30 3446 C 335.755 0.163024 -5.19644 0
M  V30 3447 C 333.44 0.811966 -4.95694 0
M  V30 3448 C 335.434 -0.54519 -6.35064 0
M  V30 3449 C 333.121 0.0999836 -6.11018 0
M  V30 3450 C 334.119 -0.577388 -6.80555 0
M  V30 3451 O 333.807 -1.27789 -7.93678 0
M  V30 3452 H 333.539 0.225031 -0.637446 0
M  V30 3453 H 336.093 0.0377134 -2.05365 0
M  V30 3454 H 334.323 2.39638 -3.03497 0
M  V30 3455 H 336.012 2.20525 -3.40769 0
M  V30 3456 H 336.778 0.181163 -4.84662 0
M  V30 3457 H 332.657 1.32867 -4.41438 0
M  V30 3458 H 336.201 -1.07446 -6.89276 0
M  V30 3459 H 332.098 0.0797945 -6.45451 0
M  V30 3460 H 332.866 -1.18784 -8.09835 0
M  V30 3461 N 335.529 1.53961 0.336706 0
M  V30 3462 C 336.439 1.85432 1.43708 0
M  V30 3463 C 337.455 0.745053 1.57242 0
M  V30 3464 O 338.631 1.03804 1.72588 0
M  V30 3465 C 335.696 2.06349 2.78605 0
M  V30 3466 C 334.757 3.30191 2.74358 0
M  V30 3467 C 333.99 3.50101 4.02822 0
M  V30 3468 O 334.213 2.7371 5.00439 0
M  V30 3469 O 333.147 4.43547 4.06878 0
M  V30 3470 H 336.973 2.78975 1.20028 0
M  V30 3471 H 334.558 1.39701 0.52952 0
M  V30 3472 H 336.44 2.21513 3.58483 0
M  V30 3473 H 335.115 1.15995 3.02203 0
M  V30 3474 H 334.022 3.20425 1.93078 0
M  V30 3475 H 335.355 4.2056 2.55715 0
M  V30 3476 N 337.007 -0.598083 1.45811 0
M  V30 3477 C 337.957 -1.70272 1.51629 0
M  V30 3478 C 338.941 -1.56382 0.378629 0
M  V30 3479 O 340.133 -1.65557 0.626087 0
M  V30 3480 C 337.262 -3.09042 1.49493 0
M  V30 3481 C 336.348 -3.28284 2.68496 0
M  V30 3482 N 336.739 -3.17748 3.93535 0
M  V30 3483 C 335.037 -3.59182 2.64394 0
M  V30 3484 C 335.738 -3.38579 4.7301 0
M  V30 3485 N 334.714 -3.63016 4.04624 0
M  V30 3486 H 338.516 -1.60634 2.46118 0
M  V30 3487 H 336.03 -0.801642 1.41235 0
M  V30 3488 H 338.027 -3.88302 1.51747 0
M  V30 3489 H 336.687 -3.19823 0.560683 0
M  V30 3490 H 337.698 -2.95944 4.25014 0
M  V30 3491 H 334.375 -3.76742 1.79922 0
M  V30 3492 H 335.765 -3.35747 5.82 0
M  V30 3493 N 338.485 -1.33259 -0.841409 0
M  V30 3494 C 339.896 -1.22066 -1.41269 0
M  V30 3495 C 340.247 0.161479 -1.95534 0
M  V30 3496 O 339.372 1.06094 -1.88608 0
M  V30 3497 C 339.967 -2.20996 -2.568 0
M  V30 3498 C 338.526 -2.13649 -3.09888 0
M  V30 3499 C 337.673 -2.08623 -1.82679 0
M  V30 3500 H 340.624 -1.44895 -0.647395 0
M  V30 3501 H 340.645 -1.81621 -3.34356 0
M  V30 3502 H 340.157 -3.2158 -2.17274 0
M  V30 3503 H 338.258 -1.16359 -3.53965 0
M  V30 3504 H 338.371 -3.04079 -3.70234 0
M  V30 3505 H 336.735 -1.54061 -2.02824 0
M  V30 3506 H 337.518 -3.1101 -1.45353 0
M  V30 3507 N 339.963 1.05934 -1.16686 0
M  V30 3508 C 340.873 2.17014 -0.891183 0
M  V30 3509 C 341.889 1.73453 0.137907 0
M  V30 3510 O 343.065 2.01361 -0.039592 0
M  V30 3511 C 340.13 3.44384 -0.400099 0
M  V30 3512 C 339.191 4.02433 -1.49486 0
M  V30 3513 C 338.424 5.23723 -1.02711 0
M  V30 3514 O 338.647 5.7027 0.121716 0
M  V30 3515 O 337.581 5.7382 -1.81699 0
M  V30 3516 H 341.407 2.43113 -1.82015 0
M  V30 3517 H 338.992 1.15541 -0.947132 0
M  V30 3518 H 340.874 4.21189 -0.133392 0
M  V30 3519 H 339.549 3.19802 0.500817 0
M  V30 3520 H 338.456 3.27102 -1.81535 0
M  V30 3521 H 339.789 4.31317 -2.37121 0
M  V30 3522 N 341.441 0.965919 1.2453 0
M  V30 3523 C 342.371 0.513476 2.27784 0
M  V30 3524 C 343.352 -0.445974 1.6415 0
M  V30 3525 O 344.537 -0.342485 1.91156 0
M  V30 3526 C 341.667 -0.198839 3.4673 0
M  V30 3527 C 340.621 0.676456 4.2262 0
M  V30 3528 C 339.947 -0.167248 5.34438 0
M  V30 3529 C 341.247 1.96017 4.84123 0
M  V30 3530 H 342.941 1.3765 2.65881 0
M  V30 3531 H 340.487 0.663321 1.27813 0
M  V30 3532 H 342.44 -0.526567 4.18097 0
M  V30 3533 H 341.164 -1.0962 3.07654 0
M  V30 3534 H 339.823 0.98743 3.53052 0
M  V30 3535 H 339.471 -1.0647 4.91603 0
M  V30 3536 H 339.171 0.415181 5.86131 0
M  V30 3537 H 340.695 -0.489688 6.08633 0
M  V30 3538 H 342.109 1.69814 5.47573 0
M  V30 3539 H 340.506 2.48918 5.4604 0
M  V30 3540 H 341.576 2.65622 4.05676 0
M  V30 3541 N 342.919 -1.39368 0.735821 0
M  V30 3542 C 344.335 -1.54204 0.411492 0
M  V30 3543 C 344.535 -1.70268 -1.07755 0
M  V30 3544 O 343.591 -1.70364 -1.86366 0
M  V30 3545 C 344.904 -2.75925 1.19523 0
M  V30 3546 C 346.452 -2.89761 1.18354 0
M  V30 3547 C 346.927 -4.14421 1.94986 0
M  V30 3548 N 348.418 -4.21462 1.92156 0
M  V30 3549 C 349.153 -5.16871 2.48258 0
M  V30 3550 N 348.649 -6.18063 3.13001 0
M  V30 3551 N 350.442 -5.09093 2.38287 0
M  V30 3552 H 342.593 -1.27189 1.70108 0
M  V30 3553 H 344.856 -0.616517 0.720147 0
M  V30 3554 H 344.562 -2.70401 2.24892 0
M  V30 3555 H 344.436 -3.68614 0.800222 0
M  V30 3556 H 346.823 -2.94777 0.137975 0
M  V30 3557 H 346.904 -1.98133 1.61793 0
M  V30 3558 H 346.548 -4.10166 2.99543 0
M  V30 3559 H 346.478 -5.05095 1.48953 0
M  V30 3560 H 348.969 -3.48979 1.44991 0
M  V30 3561 H 349.282 -6.87326 3.53275 0
M  V30 3562 H 347.627 -6.18448 3.17091 0
M  V30 3563 H 350.818 -4.28973 1.8735 0
M  V30 3564 H 350.991 -5.83272 2.82308 0
M  V30 3565 N 344.397 -0.483516 -1.5 0
M  V30 3566 C 345.307 0.309172 -2.32554 0
M  V30 3567 C 346.323 0.984159 -1.43493 0
M  V30 3568 O 347.499 0.969399 -1.76535 0
M  V30 3569 C 344.564 1.36979 -3.18493 0
M  V30 3570 C 343.625 0.710095 -4.23387 0
M  V30 3571 C 342.858 1.72018 -5.05218 0
M  V30 3572 O 343.081 2.94813 -4.88305 0
M  V30 3573 O 342.015 1.28515 -5.8802 0
M  V30 3574 H 345.841 -0.366064 -3.01486 0
M  V30 3575 H 343.426 -0.24514 -1.47375 0
M  V30 3576 H 345.308 1.98385 -3.71781 0
M  V30 3577 H 343.983 2.02828 -2.52275 0
M  V30 3578 H 342.89 0.0567539 -3.74057 0
M  V30 3579 H 344.223 0.0943557 -4.9211 0
M  V30 3580 N 345.875 1.56104 -0.216619 0
M  V30 3581 C 346.838 2.18819 0.681962 0
M  V30 3582 C 347.838 1.14866 1.12528 0
M  V30 3583 O 349.028 1.40128 1.03488 0
M  V30 3584 C 346.16 2.80756 1.93362 0
M  V30 3585 H 347.353 2.99595 0.135254 0
M  V30 3586 H 344.906 1.56265 0.0330003 0
M  V30 3587 H 345.641 2.03837 2.52232 0
M  V30 3588 H 345.426 3.56876 1.62426 0
M  V30 3589 H 346.916 3.28844 2.57393 0
M  V30 3590 N 347.353 -0.0568162 1.57498 0
M  V30 3591 C 348.316 -1.05038 2.03715 0
M  V30 3592 C 349.316 -1.30709 0.936577 0
M  V30 3593 O 350.506 -1.26178 1.20103 0
M  V30 3594 C 347.638 -2.39034 2.43055 0
M  V30 3595 H 348.831 -0.651715 2.92733 0
M  V30 3596 H 346.384 -0.302947 1.53336 0
M  V30 3597 H 347.119 -2.83703 1.57108 0
M  V30 3598 H 346.904 -2.21739 3.2338 0
M  V30 3599 H 348.394 -3.10421 2.79336 0
M  V30 3600 N 348.832 -1.54138 -0.328536 0
M  V30 3601 C 349.779 -1.83176 -1.40411 0
M  V30 3602 C 350.749 -0.678494 -1.5161 0
M  V30 3603 O 351.934 -0.92443 -1.6691 0
M  V30 3604 C 349.074 -2.06035 -2.76846 0
M  V30 3605 C 348.187 -3.33727 -2.74318 0
M  V30 3606 C 347.322 -3.46574 -4.02567 0
M  V30 3607 C 346.361 -4.68159 -3.94327 0
M  V30 3608 N 345.498 -4.77959 -5.14296 0
M  V30 3609 H 350.338 -2.74938 -1.14948 0
M  V30 3610 H 347.875 -1.36166 -0.556538 0
M  V30 3611 H 349.833 -2.1728 -3.56153 0
M  V30 3612 H 348.463 -1.1757 -3.00628 0
M  V30 3613 H 347.515 -3.31246 -1.8703 0
M  V30 3614 H 348.827 -4.23139 -2.64111 0
M  V30 3615 H 347.981 -3.57333 -4.90304 0
M  V30 3616 H 346.72 -2.55245 -4.15574 0
M  V30 3617 H 345.725 -4.57461 -3.04974 0
M  V30 3618 H 346.95 -5.60868 -3.82889 0
M  V30 3619 H 344.896 -3.89544 -5.27818 0
M  V30 3620 H 344.813 -5.6133 -5.06404 0
M  V30 3621 H 346.081 -4.93044 -6.03761 0
M  V30 3622 N 350.31 0.590341 -1.46126 0
M  V30 3623 C 351.538 1.37504 -1.54597 0
M  V30 3624 C 351.953 1.87897 -0.184447 0
M  V30 3625 O 351.31 1.63192 0.816984 0
M  V30 3626 C 351.361 2.56779 -2.54454 0
M  V30 3627 O 351.082 2.08476 -3.85317 0
M  V30 3628 C 352.583 3.49427 -2.72792 0
M  V30 3629 H 349.803 0.420325 -0.523037 0
M  V30 3630 H 352.347 0.718383 -1.91467 0
M  V30 3631 H 350.502 3.1845 -2.20609 0
M  V30 3632 H 350.916 2.86097 -4.396 0
M  V30 3633 H 352.39 4.29619 -3.466 0
M  V30 3634 H 352.867 4.00876 -1.79429 0
M  V30 3635 H 353.473 2.93598 -3.07702 0
M  V30 3636 N 351.788 1.33704 0.83433 0
M  V30 3637 C 353.034 1.26612 1.59188 0
M  V30 3638 C 353.389 -0.165439 1.91687 0
M  V30 3639 O 352.682 -1.10873 1.56262 0
M  V30 3640 C 352.876 2.07926 2.90692 0
M  V30 3641 C 352.705 3.58844 2.71038 0
M  V30 3642 C 351.475 4.28148 2.68361 0
M  V30 3643 C 353.673 4.53082 2.43353 0
M  V30 3644 N 351.655 5.64987 2.40132 0
M  V30 3645 C 353.026 5.77843 2.24716 0
M  V30 3646 C 355.081 4.42119 2.28987 0
M  V30 3647 C 353.784 6.92877 1.9317 0
M  V30 3648 C 355.81 5.56973 1.98835 0
M  V30 3649 C 355.172 6.80745 1.81012 0
M  V30 3650 H 351.271 0.518517 0.585375 0
M  V30 3651 H 353.855 1.68294 0.979044 0
M  V30 3652 H 352.026 1.68558 3.49918 0
M  V30 3653 H 353.758 1.92568 3.55949 0
M  V30 3654 H 350.513 3.80469 2.82029 0
M  V30 3655 H 350.937 6.37133 2.28889 0
M  V30 3656 H 355.579 3.47058 2.41477 0
M  V30 3657 H 353.297 7.87931 1.79418 0
M  V30 3658 H 356.883 5.50428 1.88468 0
M  V30 3659 H 355.763 7.68115 1.58017 0
M  V30 3660 N 353.266 -1.05314 1.17247 0
M  V30 3661 C 354.198 -2.13023 0.845812 0
M  V30 3662 C 355.211 -1.62096 -0.151246 0
M  V30 3663 O 356.4 -1.78343 0.0748818 0
M  V30 3664 C 353.5 -3.38047 0.240292 0
M  V30 3665 C 352.673 -4.18255 1.27991 0
M  V30 3666 C 351.732 -5.21625 0.692375 0
M  V30 3667 O 350.758 -5.52619 1.36385 0
M  V30 3668 N 351.96 -5.78201 -0.516178 0
M  V30 3669 H 354.725 -2.41642 1.77283 0
M  V30 3670 H 352.286 -1.21401 1.07115 0
M  V30 3671 H 354.278 -4.04359 -0.16603 0
M  V30 3672 H 352.848 -3.06972 -0.590487 0
M  V30 3673 H 352.068 -3.47451 1.86203 0
M  V30 3674 H 353.356 -4.68643 1.98119 0
M  V30 3675 H 352.754 -5.55301 -1.07969 0
M  V30 3676 H 351.311 -6.4604 -0.86458 0
M  V30 3677 N 354.744 -0.972509 -1.24016 0
M  V30 3678 C 355.992 -0.635776 -1.91839 0
M  V30 3679 C 356.313 0.832312 -1.76345 0
M  V30 3680 O 355.583 1.5946 -1.13795 0
M  V30 3681 H 354.163 -0.232157 -0.710009 0
M  V30 3682 H 356.825 -1.23462 -1.50809 0
M  V30 3683 H 355.921 -0.880545 -2.99421 0
M  V30 3684 N 356.222 1.38976 -0.743202 0
M  V30 3685 C 357.499 1.94351 -0.220705 0
M  V30 3686 C 357.879 1.67935 1.2791 0
M  V30 3687 O 357.227 1.01211 2.04862 0
M  V30 3688 C 357.437 3.44426 -0.563171 0
M  V30 3689 C 358.785 4.2144 -0.517046 0
M  V30 3690 O 359.809 3.52661 -0.500846 0
M  V30 3691 O 358.668 5.44032 -0.518806 0
M  V30 3692 H 355.762 0.825879 -0.043047 0
M  V30 3693 H 358.308 1.48429 -0.822618 0
M  V30 3694 H 357.08 3.5712 -1.59941 0
M  V30 3695 H 356.703 3.97543 0.0672883 0
M  V30 3696 N 357.7 0.491464 1.49741 0
M  V30 3697 C 358.632 -0.328609 2.26832 0
M  V30 3698 C 359.645 -0.939113 1.32983 0
M  V30 3699 O 360.834 -0.824067 1.58339 0
M  V30 3700 C 357.934 -1.47675 3.05033 0
M  V30 3701 C 357.107 -0.975305 4.26388 0
M  V30 3702 C 356.166 -1.99991 4.86714 0
M  V30 3703 O 355.192 -1.57229 5.47054 0
M  V30 3704 N 356.394 -3.32962 4.75517 0
M  V30 3705 H 359.159 0.332377 2.97851 0
M  V30 3706 H 356.72 0.323441 1.58636 0
M  V30 3707 H 358.712 -2.15954 3.42266 0
M  V30 3708 H 357.282 -2.04206 2.36683 0
M  V30 3709 H 356.502 -0.117723 3.94024 0
M  V30 3710 H 357.79 -0.618531 5.05026 0
M  V30 3711 H 357.188 -3.70399 4.27576 0
M  V30 3712 H 355.745 -3.96982 5.16961 0
M  V30 3713 N 359.178 -1.55987 0.224894 0
M  V30 3714 C 360.408 -2.02489 -0.41007 0
M  V30 3715 C 360.816 -1.10391 -1.53657 0
M  V30 3716 O 360.159 -0.106458 -1.83391 0
M  V30 3717 C 360.221 -3.45319 -0.999757 0
M  V30 3718 C 359.885 -4.56999 -0.00827976 0
M  V30 3719 C 360.882 -5.13812 0.793314 0
M  V30 3720 C 358.567 -5.02176 0.111442 0
M  V30 3721 C 360.561 -6.14276 1.7013 0
M  V30 3722 C 358.248 -6.02477 1.02296 0
M  V30 3723 C 359.246 -6.58403 1.81643 0
M  V30 3724 O 358.934 -7.56751 2.71262 0
M  V30 3725 H 358.666 -0.667915 -0.104235 0
M  V30 3726 H 361.22 -2.0257 0.339782 0
M  V30 3727 H 359.45 -3.42318 -1.79876 0
M  V30 3728 H 361.139 -3.7545 -1.54248 0
M  V30 3729 H 361.905 -4.79756 0.711288 0
M  V30 3730 H 357.784 -4.58323 -0.49605 0
M  V30 3731 H 361.328 -6.57854 2.32107 0
M  V30 3732 H 357.225 -6.35954 1.10599 0
M  V30 3733 H 357.993 -7.74286 2.65375 0
M  V30 3734 N 360.656 0.0484629 -1.57525 0
M  V30 3735 C 361.902 0.738854 -1.89506 0
M  V30 3736 C 362.257 1.73989 -0.821319 0
M  V30 3737 O 361.55 1.90825 0.172129 0
M  V30 3738 C 361.744 1.46632 -3.25935 0
M  V30 3739 C 361.573 0.537254 -4.46479 0
M  V30 3740 C 360.343 0.165484 -5.05029 0
M  V30 3741 C 362.541 -0.176085 -5.13998 0
M  V30 3742 N 360.523 -0.766868 -6.09091 0
M  V30 3743 C 361.894 -0.96478 -6.12448 0
M  V30 3744 C 363.949 -0.24509 -4.97296 0
M  V30 3745 C 362.652 -1.8161 -6.95996 0
M  V30 3746 C 364.678 -1.08347 -5.81391 0
M  V30 3747 C 364.04 -1.86014 -6.79395 0
M  V30 3748 H 360.139 0.245067 -0.742608 0
M  V30 3749 H 362.723 -0.000476161 -1.947 0
M  V30 3750 H 360.894 2.17623 -3.21706 0
M  V30 3751 H 362.626 2.10757 -3.45491 0
M  V30 3752 H 359.381 0.523466 -4.70698 0
M  V30 3753 H 359.805 -1.22698 -6.65788 0
M  V30 3754 H 364.447 0.341063 -4.21422 0
M  V30 3755 H 362.165 -2.41313 -7.71229 0
M  V30 3756 H 365.751 -1.14014 -5.70519 0
M  V30 3757 H 364.631 -2.4984 -7.43337 0
M  V30 3758 N 362.134 1.5431 0.320358 0
M  V30 3759 C 363.081 1.83918 1.39438 0
M  V30 3760 C 364.051 0.686525 1.51248 0
M  V30 3761 O 365.236 0.933269 1.66417 0
M  V30 3762 C 362.376 2.075 2.75749 0
M  V30 3763 C 361.489 3.35177 2.72544 0
M  V30 3764 C 360.624 3.48704 4.00723 0
M  V30 3765 C 359.663 4.70244 3.91838 0
M  V30 3766 N 358.8 4.80679 5.11754 0
M  V30 3767 H 363.64 2.75544 1.13489 0
M  V30 3768 H 361.177 1.36459 0.549309 0
M  V30 3769 H 363.135 2.19166 3.54996 0
M  V30 3770 H 361.765 1.19163 3 0
M  V30 3771 H 360.817 3.32233 1.85271 0
M  V30 3772 H 362.129 4.24534 2.61863 0
M  V30 3773 H 361.283 3.59928 4.88402 0
M  V30 3774 H 360.022 2.57445 4.14214 0
M  V30 3775 H 359.027 4.59072 3.02544 0
M  V30 3776 H 360.252 5.6289 3.7991 0
M  V30 3777 H 358.198 3.92337 5.25745 0
M  V30 3778 H 358.115 5.64007 5.0342 0
M  V30 3779 H 359.383 4.96239 6.01138 0
M  V30 3780 N 363.613 -0.582584 1.46437 0
M  V30 3781 C 364.543 -1.70187 1.59871 0
M  V30 3782 C 365.524 -1.64066 0.449042 0
M  V30 3783 O 366.709 -1.82081 0.6753 0
M  V30 3784 C 363.839 -3.08827 1.58881 0
M  V30 3785 C 362.793 -3.29779 2.72819 0
M  V30 3786 C 362.119 -4.68947 2.5689 0
M  V30 3787 C 363.419 -3.17601 4.1464 0
M  V30 3788 H 365.113 -1.592 2.53566 0
M  V30 3789 H 362.659 -0.764472 1.22032 0
M  V30 3790 H 364.612 -3.86951 1.66873 0
M  V30 3791 H 363.336 -3.20713 0.617306 0
M  V30 3792 H 361.995 -2.54054 2.64296 0
M  V30 3793 H 361.643 -4.77599 1.57823 0
M  V30 3794 H 361.343 -4.83919 3.33312 0
M  V30 3795 H 362.867 -5.4924 2.66773 0
M  V30 3796 H 364.281 -3.8557 4.24274 0
M  V30 3797 H 362.678 -3.44094 4.9165 0
M  V30 3798 H 363.748 -2.14681 4.34788 0
M  V30 3799 N 365.091 -1.34144 -0.827227 0
M  V30 3800 C 366.339 -1.26009 -1.58007 0
M  V30 3801 C 366.66 0.170971 -1.94249 0
M  V30 3802 O 365.93 1.10256 -1.61927 0
M  V30 3803 H 364.51 -0.463414 -0.585881 0
M  V30 3804 H 367.172 -1.68005 -0.987951 0
M  V30 3805 H 366.268 -1.86187 -2.50481 0
M  V30 3806 N 366.569 1.04691 -1.17803 0
M  V30 3807 C 367.817 1.7743 -0.967617 0
M  V30 3808 C 368.138 1.88359 0.504574 0
M  V30 3809 O 367.408 1.40402 1.36617 0
M  V30 3810 H 365.988 0.657242 -0.355024 0
M  V30 3811 H 368.65 1.2638 -1.48371 0
M  V30 3812 H 367.746 2.78924 -1.40027 0
M  V30 3813 N 368.047 0.979072 1.23499 0
M  V30 3814 C 369.295 0.645941 1.91499 0
M  V30 3815 C 369.616 -0.822948 1.76784 0
M  V30 3816 O 368.886 -1.58854 1.14639 0
M  V30 3817 H 367.466 0.235919 0.708767 0
M  V30 3818 H 370.128 1.2426 1.50152 0
M  V30 3819 H 369.224 0.896411 2.9895 0
M  V30 3820 N 369.525 -1.3858 0.750561 0
M  V30 3821 C 370.773 -1.99789 0.30477 0
M  V30 3822 C 371.094 -1.59874 -1.11649 0
M  V30 3823 O 370.364 -0.85417 -1.76297 0
M  V30 3824 H 368.944 -0.738902 0.109694 0
M  V30 3825 H 371.606 -1.69391 0.963983 0
M  V30 3826 H 370.702 -3.09952 0.365499 0
M  V30 3827 N 371.003 -0.499398 -1.49478 0
M  V30 3828 C 372.231 0.0425456 -2.06856 0
M  V30 3829 C 372.646 1.30964 -1.35992 0
M  V30 3830 O 372.003 1.77172 -0.437762 0
M  V30 3831 C 372.054 0.301735 -3.60239 0
M  V30 3832 O 371.775 -0.915127 -4.28436 0
M  V30 3833 C 373.276 0.887499 -4.34325 0
M  V30 3834 H 370.496 -0.0197482 -0.670709 0
M  V30 3835 H 373.04 -0.696297 -1.92281 0
M  V30 3836 H 371.195 0.990556 -3.74522 0
M  V30 3837 H 371.609 -0.676993 -5.20113 0
M  V30 3838 H 373.083 1.01845 -5.42523 0
M  V30 3839 H 373.56 1.88488 -3.96698 0
M  V30 3840 H 374.166 0.236196 -4.24644 0
M  V30 3841 N 372.481 1.55866 -0.233164 0
M  V30 3842 C 373.727 1.98897 0.395959 0
M  V30 3843 C 374.06 1.12091 1.58585 0
M  V30 3844 O 373.335 0.181182 1.93654 0
M  V30 3845 C 373.618 3.50658 0.819224 0
M  V30 3846 C 373.471 4.48233 -0.375109 0
M  V30 3847 C 374.79 4.07135 1.67121 0
M  V30 3848 H 371.909 0.723102 0.142451 0
M  V30 3849 H 374.551 1.87082 -0.331725 0
M  V30 3850 H 372.701 3.60857 1.43925 0
M  V30 3851 H 374.373 4.50031 -1.01341 0
M  V30 3852 H 372.616 4.21624 -1.02058 0
M  V30 3853 H 373.287 5.51988 -0.0358328 0
M  V30 3854 H 375.763 3.99952 1.14795 0
M  V30 3855 H 374.639 5.13615 1.93625 0
M  V30 3856 H 374.9 3.54736 2.63846 0
M  V30 3857 N 373.959 -0.0401083 1.57549 0
M  V30 3858 C 375.205 -0.728793 1.89895 0
M  V30 3859 C 375.56 -1.73551 0.830535 0
M  V30 3860 O 374.853 -1.90914 -0.162007 0
M  V30 3861 C 375.047 -1.44902 3.26708 0
M  V30 3862 C 374.876 -0.513568 4.46758 0
M  V30 3863 C 373.646 -0.138698 5.0511 0
M  V30 3864 C 375.844 0.203341 5.13898 0
M  V30 3865 N 373.826 0.799159 6.08676 0
M  V30 3866 C 375.197 0.997246 6.11927 0
M  V30 3867 C 377.252 0.271459 4.97159 0
M  V30 3868 C 375.955 1.85299 6.95023 0
M  V30 3869 C 377.981 1.11429 5.80808 0
M  V30 3870 C 377.343 1.89615 6.78399 0
M  V30 3871 H 373.442 -0.241125 0.743897 0
M  V30 3872 H 376.026 0.0108016 1.94697 0
M  V30 3873 H 374.197 -2.15914 3.22856 0
M  V30 3874 H 375.929 -2.08921 3.46603 0
M  V30 3875 H 372.684 -0.498496 4.70969 0
M  V30 3876 H 373.108 1.26227 6.65128 0
M  V30 3877 H 377.75 -0.318709 4.21597 0
M  V30 3878 H 375.468 2.454 7.69938 0
M  V30 3879 H 379.054 1.17038 5.69906 0
M  V30 3880 H 377.934 2.53779 7.42001 0
M  V30 3881 N 375.437 -1.54477 -0.31217 0
M  V30 3882 C 376.714 -1.63891 -1.06767 0
M  V30 3883 C 377.094 -0.480028 -2.0557 0
M  V30 3884 O 376.442 0.524487 -2.22399 0
M  V30 3885 C 376.652 -3.01402 -1.75948 0
M  V30 3886 C 378 -3.57838 -2.28554 0
M  V30 3887 O 379.024 -3.03782 -1.85998 0
M  V30 3888 O 377.883 -4.52462 -3.06497 0
M  V30 3889 H 374.977 -0.664125 -0.492816 0
M  V30 3890 H 377.523 -1.66823 -0.311149 0
M  V30 3891 H 376.295 -3.77187 -1.04144 0
M  V30 3892 H 375.918 -3.02199 -2.58383 0
M  V30 3893 N 376.915 0.57481 -1.46744 0
M  V30 3894 C 378.14 1.36341 -1.56288 0
M  V30 3895 C 378.565 1.86954 -0.207347 0
M  V30 3896 O 377.923 1.62006 0.813871 0
M  V30 3897 C 377.971 2.52147 -2.57787 0
M  V30 3898 O 377.075 3.53834 -2.11838 0
M  V30 3899 H 376.416 0.405713 -0.525636 0
M  V30 3900 H 378.946 0.696453 -1.92382 0
M  V30 3901 H 378.956 2.98958 -2.77648 0
M  V30 3902 H 377.631 2.14663 -3.5622 0
M  V30 3903 H 376.208 3.1345 -2.01999 0
M  V30 3904 N 378.394 1.34581 0.820102 0
M  V30 3905 C 379.327 1.20735 1.93644 0
M  V30 3906 C 380.305 0.0983343 1.62302 0
M  V30 3907 O 381.489 0.263997 1.86642 0
M  V30 3908 C 378.616 0.856037 3.27704 0
M  V30 3909 C 377.662 1.97521 3.78005 0
M  V30 3910 S 378.495 3.58906 3.97425 0
M  V30 3911 C 379.651 3.25822 5.34407 0
M  V30 3912 H 379.884 2.15231 2.05093 0
M  V30 3913 H 377.417 1.1964 0.97599 0
M  V30 3914 H 379.375 0.660133 4.05157 0
M  V30 3915 H 378.036 -0.0706253 3.14021 0
M  V30 3916 H 377.229 1.68321 4.75062 0
M  V30 3917 H 376.831 2.12875 3.07507 0
M  V30 3918 H 379.123 2.77812 6.17922 0
M  V30 3919 H 380.066 4.22029 5.68592 0
M  V30 3920 H 380.474 2.61932 5.00052 0
M  V30 3921 N 379.872 -1.04064 1.18357 0
M  V30 3922 C 380.835 -2.10243 0.912707 0
M  V30 3923 C 381.835 -1.60477 -0.101928 0
M  V30 3924 O 383.025 -1.73703 0.131517 0
M  V30 3925 C 380.157 -3.38893 0.369387 0
M  V30 3926 H 381.35 -2.35706 1.85426 0
M  V30 3927 H 378.903 -1.20489 0.995594 0
M  V30 3928 H 379.638 -3.19094 -0.578776 0
M  V30 3929 H 379.423 -3.76331 1.1008 0
M  V30 3930 H 380.913 -4.17128 0.198575 0
M  V30 3931 N 381.35 -0.985608 -1.22978 0
M  V30 3932 C 382.58 -0.674603 -1.95276 0
M  V30 3933 C 382.988 0.763483 -1.73111 0
M  V30 3934 O 382.331 1.52601 -1.02268 0
M  V30 3935 C 382.393 -0.891597 -3.48268 0
M  V30 3936 C 382.057 -2.31275 -3.94158 0
M  V30 3937 C 383.054 -3.29179 -4.02415 0
M  V30 3938 C 380.739 -2.64524 -4.27004 0
M  V30 3939 C 382.733 -4.58407 -4.42879 0
M  V30 3940 C 380.42 -3.93974 -4.67149 0
M  V30 3941 C 381.418 -4.90727 -4.75053 0
M  V30 3942 O 381.106 -6.17865 -5.14294 0
M  V30 3943 H 380.838 -0.249251 -0.628371 0
M  V30 3944 H 383.392 -1.32106 -1.5728 0
M  V30 3945 H 381.622 -0.187962 -3.86243 0
M  V30 3946 H 383.311 -0.576957 -4.01779 0
M  V30 3947 H 384.077 -3.04823 -3.77237 0
M  V30 3948 H 379.956 -1.89923 -4.2006 0
M  V30 3949 H 383.5 -5.33926 -4.48964 0
M  V30 3950 H 379.397 -4.18122 -4.91777 0
M  V30 3951 H 380.165 -6.21694 -5.32389 0
M  V30 3952 N 382.828 1.3818 -0.7579 0
M  V30 3953 C 384.105 1.94106 -0.241306 0
M  V30 3954 C 384.485 1.69282 1.26122 0
M  V30 3955 O 383.833 1.03378 2.03777 0
M  V30 3956 C 384.043 3.43809 -0.59967 0
M  V30 3957 C 385.391 4.20868 -0.561717 0
M  V30 3958 O 386.415 3.5211 -0.538222 0
M  V30 3959 O 385.274 5.43451 -0.576478 0
M  V30 3960 H 382.368 0.825376 -0.0518042 0
M  V30 3961 H 384.914 1.47548 -0.838315 0
M  V30 3962 H 383.686 3.55403 -1.6372 0
M  V30 3963 H 383.309 3.97592 0.0251197 0
M  V30 3964 N 384.306 0.507319 1.49211 0
M  V30 3965 C 385.717 0.0611118 1.866 0
M  V30 3966 C 386.068 -1.35488 1.41907 0
M  V30 3967 O 385.193 -2.0108 0.799726 0
M  V30 3968 C 385.788 0.104125 3.3864 0
M  V30 3969 C 384.347 -0.28677 3.75306 0
M  V30 3970 C 383.494 0.473893 2.73221 0
M  V30 3971 H 386.445 0.719775 1.41439 0
M  V30 3972 H 386.466 -0.689672 3.74198 0
M  V30 3973 H 385.978 1.13482 3.71138 0
M  V30 3974 H 384.079 -1.32046 3.48417 0
M  V30 3975 H 384.192 0.0370745 4.79086 0
M  V30 3976 H 382.556 -0.0770644 2.54583 0
M  V30 3977 H 383.339 1.50478 3.08563 0
M  V30 3978 N 385.784 -1.5574 0.241426 0
M  V30 3979 C 386.694 -2.2479 -0.671305 0
M  V30 3980 C 387.71 -1.26217 -1.19772 0
M  V30 3981 O 388.886 -1.59079 -1.23514 0
M  V30 3982 C 385.951 -2.92966 -1.85396 0
M  V30 3983 C 385.012 -4.06935 -1.36756 0
M  V30 3984 C 384.245 -4.71851 -2.49384 0
M  V30 3985 O 384.468 -4.35823 -3.67987 0
M  V30 3986 O 383.402 -5.60467 -2.19454 0
M  V30 3987 H 387.228 -3.0349 -0.112966 0
M  V30 3988 H 384.813 -1.49397 0.0101513 0
M  V30 3989 H 386.695 -3.35927 -2.54423 0
M  V30 3990 H 385.37 -2.17211 -2.40002 0
M  V30 3991 H 384.277 -3.68503 -0.644726 0
M  V30 3992 H 385.61 -4.84492 -0.867647 0
M  V30 3993 N 387.262 0.0317525 -1.57568 0
M  V30 3994 C 388.192 1.03274 -2.0942 0
M  V30 3995 C 389.173 1.3788 -0.996143 0
M  V30 3996 O 390.358 1.46811 -1.27122 0
M  V30 3997 C 387.488 2.33448 -2.57137 0
M  V30 3998 C 386.442 2.13091 -3.71182 0
M  V30 3999 C 385.768 3.49001 -4.05095 0
M  V30 4000 C 387.068 1.51928 -4.99715 0
M  V30 4001 H 388.762 0.60112 -2.93303 0
M  V30 4002 H 386.308 0.287705 -1.41097 0
M  V30 4003 H 388.261 3.03802 -2.92032 0
M  V30 4004 H 386.985 2.78665 -1.70333 0
M  V30 4005 H 385.644 1.45171 -3.36632 0
M  V30 4006 H 385.292 3.91862 -3.15362 0
M  V30 4007 H 384.992 3.36207 -4.81911 0
M  V30 4008 H 386.516 4.20721 -4.42522 0
M  V30 4009 H 387.93 2.12196 -5.32584 0
M  V30 4010 H 386.327 1.49716 -5.81124 0
M  V30 4011 H 387.397 0.484811 -4.8247 0
M  V30 4012 N 388.74 1.54641 0.303973 0
M  V30 4013 C 390.017 1.64455 1.05896 0
M  V30 4014 C 390.397 0.490923 2.05312 0
M  V30 4015 O 389.745 -0.512685 2.22674 0
M  V30 4016 C 389.955 3.02331 1.74347 0
M  V30 4017 C 391.303 3.59045 2.26653 0
M  V30 4018 O 392.327 3.04764 1.84384 0
M  V30 4019 O 391.186 4.54081 3.04093 0
M  V30 4020 H 388.28 0.666729 0.489287 0
M  V30 4021 H 390.826 1.66986 0.302298 0
M  V30 4022 H 389.598 3.77734 1.02142 0
M  V30 4023 H 389.221 3.03565 2.56777 0
M  V30 4024 N 390.218 -0.567019 1.47046 0
M  V30 4025 C 391.148 -1.68482 1.61667 0
M  V30 4026 C 392.129 -1.6358 0.466418 0
M  V30 4027 O 393.314 -1.81354 0.694574 0
M  V30 4028 C 390.444 -3.07124 1.62148 0
M  V30 4029 C 389.398 -3.26867 2.76301 0
M  V30 4030 C 388.724 -4.66196 2.61849 0
M  V30 4031 C 390.024 -3.13186 4.17986 0
M  V30 4032 H 391.718 -1.56502 2.5524 0
M  V30 4033 H 389.264 -0.751486 1.22836 0
M  V30 4034 H 391.217 -3.8516 1.70968 0
M  V30 4035 H 389.941 -3.2004 0.651287 0
M  V30 4036 H 388.6 -2.51237 2.66975 0
M  V30 4037 H 388.248 -4.75898 1.62879 0
M  V30 4038 H 387.948 -4.80356 3.38425 0
M  V30 4039 H 389.472 -5.46379 2.72584 0
M  V30 4040 H 390.886 -3.81049 4.2834 0
M  V30 4041 H 389.283 -3.3886 4.95272 0
M  V30 4042 H 390.353 -2.10057 4.3704 0
M  V30 4043 N 391.696 -1.35014 -0.812953 0
M  V30 4044 C 392.626 -1.30069 -1.93919 0
M  V30 4045 C 393.607 -0.176275 -1.69184 0
M  V30 4046 O 394.792 -0.370227 -1.90638 0
M  V30 4047 C 391.922 -1.06547 -3.30552 0
M  V30 4048 C 390.876 -2.15561 -3.69753 0
M  V30 4049 C 390.202 -1.77214 -5.04479 0
M  V30 4050 C 391.502 -3.57476 -3.808 0
M  V30 4051 H 393.196 -2.24303 -1.98314 0
M  V30 4052 H 390.742 -1.07977 -0.952736 0
M  V30 4053 H 392.695 -1.01729 -4.08937 0
M  V30 4054 H 391.419 -0.0875719 -3.26483 0
M  V30 4055 H 390.078 -2.19466 -2.9365 0
M  V30 4056 H 389.726 -0.780589 -4.96906 0
M  V30 4057 H 389.426 -2.50184 -5.31678 0
M  V30 4058 H 390.95 -1.7391 -5.8531 0
M  V30 4059 H 392.364 -3.55929 -4.4943 0
M  V30 4060 H 390.761 -4.29152 -4.19462 0
M  V30 4061 H 391.831 -3.94091 -2.82525 0
M  V30 4062 N 393.175 1.03435 -1.18907 0
M  V30 4063 C 394.405 1.8012 -1.01195 0
M  V30 4064 C 394.813 1.8395 0.442613 0
M  V30 4065 O 394.156 1.27836 1.31923 0
M  V30 4066 C 394.218 3.26792 -1.49823 0
M  V30 4067 C 393.882 3.46609 -2.97844 0
M  V30 4068 C 394.879 3.37278 -3.95651 0
M  V30 4069 C 392.564 3.73001 -3.36416 0
M  V30 4070 C 394.558 3.54054 -5.30023 0
M  V30 4071 C 392.245 3.89423 -4.70949 0
M  V30 4072 C 393.243 3.79951 -5.67562 0
M  V30 4073 O 392.931 3.95895 -6.99659 0
M  V30 4074 H 392.663 0.573865 -0.357289 0
M  V30 4075 H 395.217 1.31207 -1.58031 0
M  V30 4076 H 393.447 3.76703 -0.873578 0
M  V30 4077 H 395.136 3.85055 -1.28404 0
M  V30 4078 H 395.902 3.16846 -3.67197 0
M  V30 4079 H 391.781 3.79469 -2.61772 0
M  V30 4080 H 395.325 3.46577 -6.05417 0
M  V30 4081 H 391.222 4.09351 -4.99101 0
M  V30 4082 H 391.99 4.13019 -7.06653 0
M  V30 4083 N 394.653 0.992116 1.22453 0
M  V30 4084 C 395.899 0.668523 1.91464 0
M  V30 4085 C 396.232 -0.797313 1.77078 0
M  V30 4086 O 395.507 -1.5765 1.13916 0
M  V30 4087 C 395.79 1.07424 3.43703 0
M  V30 4088 C 395.643 2.59857 3.67143 0
M  V30 4089 C 396.962 0.626891 4.35612 0
M  V30 4090 H 394.081 0.244341 0.695318 0
M  V30 4091 H 396.723 1.2355 1.44345 0
M  V30 4092 H 394.873 0.591816 3.83966 0
M  V30 4093 H 396.545 3.15764 3.3629 0
M  V30 4094 H 394.788 3.01961 3.11451 0
M  V30 4095 H 395.459 2.83296 4.73759 0
M  V30 4096 H 397.935 1.04125 4.02861 0
M  V30 4097 H 396.811 0.939076 5.40807 0
M  V30 4098 H 397.072 -0.472457 4.39568 0
M  V30 4099 N 396.131 -1.37776 0.765217 0
M  V30 4100 C 397.379 -1.99454 0.325943 0
M  V30 4101 C 397.7 -1.61049 -1.09947 0
M  V30 4102 O 396.97 -0.872821 -1.75381 0
M  V30 4103 H 395.55 -0.737697 0.117525 0
M  V30 4104 H 398.212 -1.68359 0.981895 0
M  V30 4105 H 397.308 -3.09547 0.398353 0
M  V30 4106 N 397.609 -0.515225 -1.4894 0
M  V30 4107 C 398.837 0.0206034 -2.0689 0
M  V30 4108 C 399.252 1.29514 -1.37374 0
M  V30 4109 O 398.609 1.76698 -0.456529 0
M  V30 4110 C 398.66 0.26351 -3.60538 0
M  V30 4111 O 398.381 -0.960517 -4.27441 0
M  V30 4112 C 399.882 0.841383 -4.35242 0
M  V30 4113 H 397.102 -0.0268608 -0.670462 0
M  V30 4114 H 399.646 -0.716651 -1.91532 0
M  V30 4115 H 397.801 0.950777 -3.75552 0
M  V30 4116 H 398.215 -0.73212 -5.19365 0
M  V30 4117 H 399.689 0.96085 -5.43573 0
M  V30 4118 H 400.166 1.8427 -3.98674 0
M  V30 4119 H 400.772 0.191143 -4.2487 0
M  V30 4120 N 399.087 1.5561 -0.249682 0
M  V30 4121 C 400.335 1.98618 0.373548 0
M  V30 4122 C 400.656 1.13919 1.58264 0
M  V30 4123 O 399.926 0.222637 1.94631 0
M  V30 4124 H 398.506 0.733571 0.141006 0
M  V30 4125 H 401.168 1.91748 -0.349117 0
M  V30 4126 H 400.264 3.04584 0.680796 0
M  V30 4127 N 400.565 -0.0233959 1.57583 0
M  V30 4128 C 401.513 -1.04063 2.08023 0
M  V30 4129 C 402.507 -1.37084 0.995204 0
M  V30 4130 O 403.713 -1.35923 1.18004 0
M  V30 4131 H 400.088 -0.353144 0.663922 0
M  V30 4132 H 402.059 -0.589453 2.9252 0
M  V30 4133 C 400.808 -2.33123 2.57971 0
M  V30 4134 H 400.131 -2.08577 3.4108 0
M  V30 4135 H 401.571 -3.02632 2.96967 0
M  V30 4136 C 400.03 -3.02483 1.48342 0
M  V30 4137 O 400.56 -3.92541 0.852898 0
M  V30 4138 N 398.766 -2.63909 1.21658 0
M  V30 4139 H 398.313 -1.90758 1.73116 0
M  V30 4140 H 398.271 -3.10633 0.485218 0
M  V30 4141 N 402.043 -1.548 -0.295768 0
M  V30 4142 C 403.291 -1.73985 -1.02828 0
M  V30 4143 C 403.612 -0.531406 -1.87619 0
M  V30 4144 O 402.882 0.454221 -1.90561 0
M  V30 4145 H 401.462 -0.641556 -0.382642 0
M  V30 4146 H 404.124 -1.92163 -0.325489 0
M  V30 4147 H 403.22 -2.63129 -1.67838 0
M  V30 4148 N 403.521 0.559213 -1.47345 0
M  V30 4149 C 404.746 1.34676 -1.57725 0
M  V30 4150 C 405.171 1.86723 -0.227164 0
M  V30 4151 O 404.529 1.6286 0.796642 0
M  V30 4152 C 404.577 2.49399 -2.60447 0
M  V30 4153 O 403.681 3.51567 -2.15578 0
M  V30 4154 H 403.022 0.400115 -0.52991 0
M  V30 4155 H 405.552 0.676009 -1.93109 0
M  V30 4156 H 405.562 2.95996 -2.80803 0
M  V30 4157 H 404.237 2.10873 -3.58477 0
M  V30 4158 H 402.814 3.11289 -2.05313 0
M  V30 4159 N 404.999 1.35443 0.805782 0
M  V30 4160 C 406.41 1.25768 1.37983 0
M  V30 4161 C 406.761 -0.10958 1.95894 0
M  V30 4162 O 405.886 -1.01056 1.91355 0
M  V30 4163 C 406.481 2.27727 2.5085 0
M  V30 4164 C 405.04 2.2179 3.04115 0
M  V30 4165 C 404.187 2.13393 1.77084 0
M  V30 4166 H 407.138 1.4656 0.608752 0
M  V30 4167 H 407.159 1.90422 3.29424 0
M  V30 4168 H 406.671 3.27227 2.08671 0
M  V30 4169 H 404.772 1.25703 3.50756 0
M  V30 4170 H 404.885 3.13788 3.62042 0
M  V30 4171 H 403.249 1.59384 1.98668 0
M  V30 4172 H 404.032 3.14755 1.37056 0
M  V30 4173 N 406.477 -1.02803 1.19454 0
M  V30 4174 C 407.723 -1.76598 1.0092 0
M  V30 4175 C 408.078 -1.86939 -0.455142 0
M  V30 4176 O 407.371 -1.37575 -1.33355 0
M  V30 4177 C 407.565 -3.18941 1.6128 0
M  V30 4178 C 407.394 -3.22476 3.13431 0
M  V30 4179 C 406.164 -3.30375 3.82336 0
M  V30 4180 C 408.362 -3.09451 4.10785 0
M  V30 4181 N 406.344 -3.23292 5.21877 0
M  V30 4182 C 407.715 -3.10012 5.36929 0
M  V30 4183 C 409.77 -2.93585 4.02135 0
M  V30 4184 C 408.473 -2.96334 6.55423 0
M  V30 4185 C 410.499 -2.81256 5.20239 0
M  V30 4186 C 409.861 -2.82472 6.45282 0
M  V30 4187 H 405.96 -0.657447 0.423424 0
M  V30 4188 H 408.544 -1.22369 1.5144 0
M  V30 4189 H 406.715 -3.71489 1.1336 0
M  V30 4190 H 408.447 -3.81102 1.36173 0
M  V30 4191 H 405.202 -3.3663 3.33132 0
M  V30 4192 H 405.626 -3.23156 5.94894 0
M  V30 4193 H 410.268 -2.91466 3.0628 0
M  V30 4194 H 407.986 -2.97203 7.51463 0
M  V30 4195 H 411.572 -2.70014 5.15348 0
M  V30 4196 H 410.452 -2.73036 7.35133 0
M  V30 4197 N 407.956 -0.998596 -1.21925 0
M  V30 4198 C 408.904 -0.546641 -2.26085 0
M  V30 4199 C 409.898 0.405576 -1.64473 0
M  V30 4200 O 411.104 0.277471 -1.77849 0
M  V30 4201 H 407.479 -0.158403 -0.735127 0
M  V30 4202 H 409.45 -1.43645 -2.61551 0
M  V30 4203 C 408.199 0.117388 -3.47502 0
M  V30 4204 H 407.522 -0.606277 -3.95176 0
M  V30 4205 H 408.962 0.396993 -4.22137 0
M  V30 4206 C 407.421 1.35455 -3.0847 0
M  V30 4207 O 407.951 2.44944 -3.18379 0
M  V30 4208 N 406.157 1.23191 -2.63196 0
M  V30 4209 H 405.704 0.341006 -2.55333 0
M  V30 4210 H 405.662 2.06071 -2.37449 0
M  V30 4211 N 409.434 1.37368 -0.772513 0
M  V30 4212 C 410.85 1.53059 -0.452231 0
M  V30 4213 C 411.05 1.73065 1.03203 0
M  V30 4214 O 410.106 1.75245 1.81784 0
M  V30 4215 C 411.419 2.72659 -1.26797 0
M  V30 4216 C 412.967 2.86521 -1.25995 0
M  V30 4217 C 413.442 4.09105 -2.05905 0
M  V30 4218 N 414.933 4.16219 -2.03263 0
M  V30 4219 C 415.668 5.10107 -2.61875 0
M  V30 4220 N 415.164 6.09547 -3.29278 0
M  V30 4221 N 416.957 5.02596 -2.51701 0
M  V30 4222 H 409.108 1.22634 -1.7342 0
M  V30 4223 H 411.371 0.597206 -0.736239 0
M  V30 4224 H 411.077 2.64343 -2.31982 0
M  V30 4225 H 410.951 3.66363 -0.897672 0
M  V30 4226 H 413.338 2.94308 -0.216081 0
M  V30 4227 H 413.419 1.93774 -1.66989 0
M  V30 4228 H 413.063 4.0208 -3.10313 0
M  V30 4229 H 412.993 5.00968 -1.62292 0
M  V30 4230 H 415.484 3.45012 -1.54192 0
M  V30 4231 H 415.797 6.77718 -3.71374 0
M  V30 4232 H 414.142 6.09824 -3.33377 0
M  V30 4233 H 417.333 4.23855 -1.98657 0
M  V30 4234 H 417.506 5.75582 -2.97673 0
M  V30 4235 N 410.912 0.523116 1.48665 0
M  V30 4236 C 411.822 -0.247406 2.33292 0
M  V30 4237 C 412.838 -0.945769 1.46052 0
M  V30 4238 O 414.014 -0.922253 1.79043 0
M  V30 4239 C 411.079 -1.28487 3.22012 0
M  V30 4240 C 410.14 -0.597592 4.2512 0
M  V30 4241 C 409.373 -1.58563 5.09601 0
M  V30 4242 O 409.596 -2.81763 4.95949 0
M  V30 4243 O 408.53 -1.12879 5.91221 0
M  V30 4244 H 412.356 0.445869 3.00409 0
M  V30 4245 H 409.941 0.284128 1.46673 0
M  V30 4246 H 411.823 -1.88459 3.7691 0
M  V30 4247 H 410.498 -1.96068 2.57564 0
M  V30 4248 H 409.405 0.0424407 3.74076 0
M  V30 4249 H 410.738 0.0361517 4.92187 0
M  V30 4250 N 412.39 -1.55475 0.257931 0
M  V30 4251 C 413.636 -1.99502 -0.364266 0
M  V30 4252 C 413.969 -1.146 -1.56782 0
M  V30 4253 O 413.244 -0.211968 -1.93342 0
M  V30 4254 C 413.527 -3.51917 -0.763333 0
M  V30 4255 C 413.38 -4.4758 0.446371 0
M  V30 4256 C 414.699 -4.09742 -1.60623 0
M  V30 4257 H 411.818 -0.725277 -0.130929 0
M  V30 4258 H 414.46 -1.8653 0.361446 0
M  V30 4259 H 412.61 -3.63101 -1.38166 0
M  V30 4260 H 414.282 -4.48362 1.08487 0
M  V30 4261 H 412.525 -4.19947 1.08753 0
M  V30 4262 H 413.196 -5.51862 0.123645 0
M  V30 4263 H 415.672 -4.01727 -1.08418 0
M  V30 4264 H 414.548 -5.16631 -1.85429 0
M  V30 4265 H 414.809 -3.58889 -2.58169 0
M  V30 4266 N 413.868 0.0150385 -1.57593 0
M  V30 4267 C 415.284 0.370907 -1.5523 0
M  V30 4268 C 415.484 1.75735 -0.985882 0
M  V30 4269 O 414.54 2.44944 -0.613077 0
M  V30 4270 C 415.853 0.259908 -2.99575 0
M  V30 4271 C 417.401 0.335959 -3.11192 0
M  V30 4272 C 417.876 0.254253 -4.57294 0
M  V30 4273 N 419.367 0.312618 -4.62144 0
M  V30 4274 C 420.102 0.272505 -5.72752 0
M  V30 4275 N 419.598 0.183864 -6.92556 0
M  V30 4276 N 421.391 0.323267 -5.6117 0
M  V30 4277 H 413.542 -0.892104 -1.92757 0
M  V30 4278 H 415.805 -0.340563 -0.884715 0
M  V30 4279 H 415.511 -0.693403 -3.44797 0
M  V30 4280 H 415.385 1.048 -3.62349 0
M  V30 4281 H 417.772 1.27971 -2.65909 0
M  V30 4282 H 417.853 -0.481739 -2.51223 0
M  V30 4283 H 417.497 -0.685887 -5.03247 0
M  V30 4284 H 417.427 1.09024 -5.15191 0
M  V30 4285 H 419.918 0.38307 -3.75953 0
M  V30 4286 H 420.231 0.15874 -7.72637 0
M  V30 4287 H 418.576 0.149708 -6.94839 0
M  V30 4288 H 421.767 0.390607 -4.66467 0
M  V30 4289 H 421.94 0.288539 -6.47357 0
M  V30 4290 N 415.346 1.54954 0.287554 0
M  V30 4291 C 416.571 1.79209 1.04397 0
M  V30 4292 C 416.996 0.556431 1.79682 0
M  V30 4293 O 416.354 -0.493518 1.74454 0
M  V30 4294 C 416.402 3.00739 1.98969 0
M  V30 4295 O 415.506 2.74805 3.075 0
M  V30 4296 H 414.847 0.592755 0.299227 0
M  V30 4297 H 417.377 2.02068 0.320886 0
M  V30 4298 H 417.387 3.29077 2.4119 0
M  V30 4299 H 416.062 3.90329 1.43582 0
M  V30 4300 H 414.639 2.57523 2.69697 0
M  V30 4301 N 416.824 -0.551391 1.4764 0
M  V30 4302 C 418.235 -1.13349 1.48354 0
M  V30 4303 C 418.586 -1.94709 0.241432 0
M  V30 4304 O 417.711 -2.06306 -0.653205 0
M  V30 4305 C 418.306 -2.0623 2.68802 0
M  V30 4306 C 416.865 -2.597 2.72457 0
M  V30 4307 C 416.012 -1.36201 2.41546 0
M  V30 4308 H 418.963 -0.337698 1.55065 0
M  V30 4309 H 418.984 -2.90196 2.46103 0
M  V30 4310 H 418.496 -1.46987 3.59188 0
M  V30 4311 H 416.597 -3.22724 1.86225 0
M  V30 4312 H 416.71 -3.00296 3.73308 0
M  V30 4313 H 415.074 -1.67068 1.9225 0
M  V30 4314 H 415.857 -0.787425 3.34147 0
M  V30 4315 N 418.302 -1.35869 -0.798587 0
M  V30 4316 C 419.55 -1.29332 -1.55298 0
M  V30 4317 C 419.871 0.129729 -1.94568 0
M  V30 4318 O 419.141 1.06796 -1.6423 0
M  V30 4319 H 417.721 -0.475737 -0.57592 0
M  V30 4320 H 420.383 -1.70062 -0.952093 0
M  V30 4321 H 419.479 -1.91458 -2.46476 0
M  V30 4322 N 419.78 1.02168 -1.19998 0
M  V30 4323 C 421.028 1.75338 -1.00504 0
M  V30 4324 C 421.349 1.89387 0.464506 0
M  V30 4325 O 420.619 1.43268 1.33608 0
M  V30 4326 H 419.199 0.649564 -0.368885 0
M  V30 4327 H 421.861 1.23205 -1.51018 0
M  V30 4328 H 420.957 2.75892 -1.45912 0
M  V30 4329 N 421.258 1.00505 1.21394 0
M  V30 4330 C 422.506 0.686415 1.90086 0
M  V30 4331 C 422.827 -0.785264 1.7849 0
M  V30 4332 O 422.097 -1.56387 1.17983 0
M  V30 4333 H 420.677 0.2509 0.703604 0
M  V30 4334 H 423.339 1.27417 1.47482 0
M  V30 4335 H 422.435 0.959621 2.96981 0
M  V30 4336 N 422.737 -1.36956 0.779787 0
M  V30 4337 C 424.014 -1.93697 0.272156 0
M  V30 4338 C 424.394 -1.71267 -1.23413 0
M  V30 4339 O 423.742 -1.06607 -2.02107 0
M  V30 4340 C 423.952 -3.42812 0.654291 0
M  V30 4341 C 425.3 -4.19921 0.628602 0
M  V30 4342 O 426.324 -3.51209 0.594172 0
M  V30 4343 O 425.183 -5.42465 0.662864 0
M  V30 4344 H 422.277 -0.824447 0.0649286 0
M  V30 4345 H 424.823 -1.46196 0.861682 0
M  V30 4346 H 423.595 -3.52754 1.69353 0
M  V30 4347 H 423.218 -3.97582 0.0381369 0
M  V30 4348 N 424.215 -0.530993 -1.48385 0
M  V30 4349 C 425.163 0.244595 -2.3131 0
M  V30 4350 C 426.157 0.93451 -1.41291 0
M  V30 4351 O 427.363 0.85878 -1.58193 0
M  V30 4352 H 423.738 0.0977472 -0.74562 0
M  V30 4353 H 425.709 -0.474369 -2.94605 0
M  V30 4354 C 424.458 1.2779 -3.23365 0
M  V30 4355 H 423.781 0.756439 -3.92579 0
M  V30 4356 H 425.221 1.79198 -3.84271 0
M  V30 4357 C 423.68 2.31205 -2.45042 0
M  V30 4358 O 424.21 3.37661 -2.17596 0
M  V30 4359 N 422.416 2.04446 -2.0652 0
M  V30 4360 H 421.963 1.17891 -2.2904 0
M  V30 4361 H 421.921 2.73861 -1.54427 0
M  V30 4362 N 425.693 1.55336 -0.266172 0
M  V30 4363 C 426.623 2.25146 0.618981 0
M  V30 4364 C 427.604 1.23845 1.16604 0
M  V30 4365 O 428.789 1.52544 1.20183 0
M  V30 4366 C 425.919 2.96572 1.80728 0
M  V30 4367 C 424.873 4.04726 1.39215 0
M  V30 4368 C 424.199 4.63678 2.66283 0
M  V30 4369 C 425.499 5.19407 0.548942 0
M  V30 4370 H 427.193 2.99377 0.0368116 0
M  V30 4371 H 424.739 1.43991 0.0162651 0
M  V30 4372 H 426.692 3.44116 2.43232 0
M  V30 4373 H 425.416 2.19861 2.41514 0
M  V30 4374 H 424.075 3.57979 0.790351 0
M  V30 4375 H 423.723 3.83646 3.25308 0
M  V30 4376 H 423.423 5.367 2.39222 0
M  V30 4377 H 424.947 5.13967 3.29651 0
M  V30 4378 H 426.361 5.63059 1.07876 0
M  V30 4379 H 424.758 5.98936 0.373593 0
M  V30 4380 H 425.828 4.8295 -0.434394 0
M  V30 4381 N 427.171 -0.0066808 1.57599 0
M  V30 4382 C 428.401 -0.703066 1.94269 0
M  V30 4383 C 428.809 -1.68206 0.866222 0
M  V30 4384 O 428.152 -1.82966 -0.164087 0
M  V30 4385 C 428.214 -1.49616 3.26887 0
M  V30 4386 C 427.878 -0.679494 4.5192 0
M  V30 4387 C 428.875 0.0299508 5.19891 0
M  V30 4388 C 426.56 -0.627433 4.98366 0
M  V30 4389 C 428.554 0.780514 6.32603 0
M  V30 4390 C 426.241 0.126861 6.10968 0
M  V30 4391 C 427.239 0.829574 6.77943 0
M  V30 4392 O 426.927 1.57157 7.88389 0
M  V30 4393 H 426.659 -0.201217 0.645359 0
M  V30 4394 H 429.213 0.0385326 2.05364 0
M  V30 4395 H 427.443 -2.28209 3.12182 0
M  V30 4396 H 429.132 -2.07726 3.48719 0
M  V30 4397 H 429.898 -0.00115963 4.85 0
M  V30 4398 H 425.777 -1.16392 4.46065 0
M  V30 4399 H 429.321 1.32954 6.84813 0
M  V30 4400 H 425.218 0.159815 6.45302 0
M  V30 4401 H 425.986 1.48758 8.04868 0
M  V30 4402 N 428.649 -1.55105 -0.279332 0
M  V30 4403 C 429.579 -1.90557 -1.34945 0
M  V30 4404 C 430.56 -0.766738 -1.51839 0
M  V30 4405 O 431.745 -1.02434 -1.64988 0
M  V30 4406 C 428.875 -2.17193 -2.71006 0
M  V30 4407 C 427.829 -3.33021 -2.68851 0
M  V30 4408 C 427.155 -3.45123 -4.08405 0
M  V30 4409 C 428.455 -4.69578 -2.28678 0
M  V30 4410 H 430.149 -2.80188 -1.05522 0
M  V30 4411 H 427.695 -1.34811 -0.506173 0
M  V30 4412 H 429.648 -2.40581 -3.45975 0
M  V30 4413 H 428.372 -1.24355 -3.01999 0
M  V30 4414 H 427.031 -3.0959 -1.9634 0
M  V30 4415 H 426.679 -2.49762 -4.3661 0
M  V30 4416 H 426.379 -4.22995 -4.07859 0
M  V30 4417 H 427.903 -3.70796 -4.85121 0
M  V30 4418 H 429.317 -4.92553 -2.93368 0
M  V30 4419 H 427.714 -5.5032 -2.39306 0
M  V30 4420 H 428.784 -4.68828 -1.23807 0
M  V30 4421 N 430.127 0.543554 -1.4793 0
M  V30 4422 C 431.352 1.32995 -1.59145 0
M  V30 4423 C 431.777 1.86472 -0.246956 0
M  V30 4424 O 431.135 1.63696 0.779324 0
M  V30 4425 C 431.183 2.46623 -2.63077 0
M  V30 4426 O 430.287 3.49261 -2.19295 0
M  V30 4427 H 429.628 0.394472 -0.534124 0
M  V30 4428 H 432.158 0.655489 -1.93816 0
M  V30 4429 H 432.168 2.93001 -2.83926 0
M  V30 4430 H 430.843 2.07059 -3.60693 0
M  V30 4431 H 429.42 3.09094 -2.08603 0
M  V30 4432 N 431.605 1.3629 0.791371 0
M  V30 4433 C 432.83 1.33726 1.58531 0
M  V30 4434 C 433.255 -0.0794933 1.87932 0
M  V30 4435 O 432.613 -1.05087 1.47738 0
M  V30 4436 C 432.661 2.16425 2.88431 0
M  V30 4437 O 431.765 1.5554 3.81944 0
M  V30 4438 H 431.106 0.457793 0.480959 0
M  V30 4439 H 433.636 1.79547 0.981031 0
M  V30 4440 H 433.646 2.28933 3.37718 0
M  V30 4441 H 432.321 3.19415 2.66359 0
M  V30 4442 H 430.898 1.51961 3.40532 0
M  V30 4443 N 433.083 -1.0153 1.20538 0
M  V30 4444 C 434.332 -1.74558 1.01057 0
M  V30 4445 C 434.645 -1.90168 -0.457756 0
M  V30 4446 O 435.851 -2.60301 -0.771722 0
M  V30 4447 C 434.307 -3.13963 1.75941 0
M  V30 4448 C 433.915 -3.06361 3.26875 0
M  V30 4449 C 435.659 -3.91191 1.64832 0
M  V30 4450 C 433.566 -4.40782 3.94291 0
M  V30 4451 H 432.496 -0.654417 0.374505 0
M  V30 4452 H 435.147 -1.13521 1.44171 0
M  V30 4453 H 433.529 -3.75549 1.25614 0
M  V30 4454 H 434.703 -2.54074 3.84425 0
M  V30 4455 H 433.018 -2.42625 3.38411 0
M  V30 4456 H 435.615 -4.90644 2.12539 0
M  V30 4457 H 435.958 -4.11884 0.604745 0
M  V30 4458 H 436.491 -3.36236 2.12579 0
M  V30 4459 H 433.23 -4.25292 4.98805 0
M  V30 4460 H 432.75 -4.9307 3.41529 0
M  V30 4461 H 434.429 -5.09621 3.98617 0
M  V30 4462 N 434.561 -1.01147 -1.20859 0
M  V30 4463 C 435.491 -0.597663 -2.25722 0
M  V30 4464 C 436.472 0.384744 -1.65692 0
M  V30 4465 O 437.657 0.271303 -1.92296 0
M  V30 4466 C 434.787 0.0700149 -3.47229 0
M  V30 4467 C 433.741 -0.832843 -4.19819 0
M  V30 4468 C 433.067 -0.0312202 -5.34691 0
M  V30 4469 C 434.367 -2.1385 -4.76514 0
M  V30 4470 H 436.061 -1.47423 -2.60589 0
M  V30 4471 H 433.607 -0.710301 -1.25263 0
M  V30 4472 H 435.56 0.37103 -4.19763 0
M  V30 4473 H 434.284 0.981259 -3.11511 0
M  V30 4474 H 432.943 -1.11778 -3.49144 0
M  V30 4475 H 432.591 0.881515 -4.95215 0
M  V30 4476 H 432.291 -0.632434 -5.84187 0
M  V30 4477 H 433.815 0.26346 -6.10031 0
M  V30 4478 H 435.229 -1.9002 -5.40893 0
M  V30 4479 H 433.626 -2.69012 -5.36426 0
M  V30 4480 H 434.696 -2.80495 -3.95538 0
M  V30 4481 N 436.039 1.36541 -0.78704 0
M  V30 4482 C 437.002 2.28413 -0.189778 0
M  V30 4483 C 438.002 1.48719 0.611499 0
M  V30 4484 O 439.192 1.68737 0.432842 0
M  V30 4485 C 436.324 3.32824 0.737638 0
M  V30 4486 H 437.517 2.82743 -0.999831 0
M  V30 4487 H 435.07 1.46065 -0.556298 0
M  V30 4488 H 435.805 2.83646 1.57212 0
M  V30 4489 H 435.59 3.91752 0.165044 0
M  V30 4490 H 437.08 4.0144 1.15047 0
M  V30 4491 N 437.518 0.538854 1.48102 0
M  V30 4492 C 438.767 0.0059532 2.01699 0
M  V30 4493 C 439.08 -1.34476 1.42041 0
M  V30 4494 O 440.286 -1.96653 1.87189 0
M  V30 4495 C 438.742 -0.0397627 3.59878 0
M  V30 4496 C 438.35 1.30659 4.28523 0
M  V30 4497 C 440.094 -0.521024 4.2129 0
M  V30 4498 C 438.001 1.22098 5.78659 0
M  V30 4499 H 436.931 -0.00154456 0.753998 0
M  V30 4500 H 439.582 0.683963 1.70277 0
M  V30 4501 H 437.964 -0.783037 3.88181 0
M  V30 4502 H 439.138 2.06613 4.11883 0
M  V30 4503 H 437.453 1.7243 3.79021 0
M  V30 4504 H 440.05 -0.603184 5.31287 0
M  V30 4505 H 440.393 -1.52885 3.8721 0
M  V30 4506 H 440.926 0.166834 3.9745 0
M  V30 4507 H 437.665 2.20424 6.17328 0
M  V30 4508 H 437.185 0.50295 5.97688 0
M  V30 4509 H 438.864 0.915345 6.40492 0
M  V30 4510 N 438.996 -1.55193 0.274407 0
M  V30 4511 C 440.412 -1.59401 -0.0797543 0
M  V30 4512 C 440.612 -1.29162 -1.54659 0
M  V30 4513 O 439.668 -1.05215 -2.29534 0
M  V30 4514 C 440.981 -2.99257 0.294238 0
M  V30 4515 C 442.529 -3.12072 0.240796 0
M  V30 4516 C 443.004 -4.54194 0.589218 0
M  V30 4517 N 444.495 -4.60033 0.540744 0
M  V30 4518 C 445.23 -5.68027 0.783147 0
M  V30 4519 N 444.726 -6.8417 1.09013 0
M  V30 4520 N 446.519 -5.57572 0.711993 0
M  V30 4521 H 438.67 -1.73113 1.23067 0
M  V30 4522 H 440.933 -0.807197 0.497129 0
M  V30 4523 H 440.639 -3.26217 1.31435 0
M  V30 4524 H 440.513 -3.75427 -0.365281 0
M  V30 4525 H 442.9 -2.84877 -0.770024 0
M  V30 4526 H 442.981 -2.38117 0.934563 0
M  V30 4527 H 442.625 -4.82115 1.59772 0
M  V30 4528 H 442.555 -5.26448 -0.126331 0
M  V30 4529 H 445.046 -3.76599 0.313327 0
M  V30 4530 H 445.359 -7.6243 1.26178 0
M  V30 4531 H 443.704 -6.85787 1.12789 0
M  V30 4532 H 446.895 -4.65714 0.472014 0
M  V30 4533 H 447.068 -6.41659 0.90429 0
M  V30 4534 N 440.474 -0.00167713 -1.576 0
M  V30 4535 C 441.885 0.54091 -1.78693 0
M  V30 4536 C 442.236 1.7386 -0.909247 0
M  V30 4537 O 441.361 2.16109 -0.112176 0
M  V30 4538 C 441.956 0.98806 -3.24072 0
M  V30 4539 C 440.515 1.47594 -3.46256 0
M  V30 4540 C 439.662 0.42792 -2.73978 0
M  V30 4541 H 442.613 -0.22784 -1.57056 0
M  V30 4542 H 442.634 1.85398 -3.32277 0
M  V30 4543 H 442.146 0.116164 -3.87926 0
M  V30 4544 H 440.247 2.36868 -2.87618 0
M  V30 4545 H 440.36 1.50225 -4.54939 0
M  V30 4546 H 438.724 0.889934 -2.38647 0
M  V30 4547 H 439.507 -0.435038 -3.40532 0
M  V30 4548 N 441.952 1.55251 0.271103 0
M  V30 4549 C 443.229 1.66664 1.02384 0
M  V30 4550 C 443.609 0.534363 2.04225 0
M  V30 4551 O 442.957 -0.465337 2.23712 0
M  V30 4552 C 443.167 3.05961 1.67895 0
M  V30 4553 C 444.515 3.63772 2.18986 0
M  V30 4554 O 445.539 3.08606 1.77878 0
M  V30 4555 O 444.398 4.60429 2.94393 0
M  V30 4556 H 441.492 0.676957 0.475035 0
M  V30 4557 H 444.038 1.67589 0.26681 0
M  V30 4558 H 442.81 3.79815 0.941071 0
M  V30 4559 H 442.433 3.08943 2.5028 0
M  V30 4560 N 443.43 -0.535701 1.48216 0
M  V30 4561 C 444.658 -1.31671 1.59594 0
M  V30 4562 C 445.073 -1.87083 0.254056 0
M  V30 4563 O 444.43 -1.66112 -0.755854 0
M  V30 4564 C 444.481 -2.47158 2.63809 0
M  V30 4565 O 444.202 -1.94032 3.92789 0
M  V30 4566 C 445.703 -3.39062 2.85573 0
M  V30 4567 H 442.923 -0.400623 0.538277 0
M  V30 4568 H 445.467 -0.646827 1.94001 0
M  V30 4569 H 443.622 -3.10043 2.32276 0
M  V30 4570 H 444.036 -2.69585 4.49916 0
M  V30 4571 H 445.51 -4.16459 3.62306 0
M  V30 4572 H 445.987 -3.93941 1.94184 0
M  V30 4573 H 446.593 -2.81975 3.18387 0
M  V30 4574 N 444.908 -1.36708 -0.784132 0
M  V30 4575 C 446.156 -1.30972 -1.53918 0
M  V30 4576 C 446.477 0.109086 -1.94695 0
M  V30 4577 O 445.747 1.05048 -1.65353 0
M  V30 4578 H 444.327 -0.481819 -0.570841 0
M  V30 4579 H 446.989 -1.71063 -0.934002 0
M  V30 4580 H 446.085 -1.94061 -2.44431 0
M  V30 4581 N 446.386 1.0089 -1.21074 0
M  V30 4582 C 447.333 2.09588 -0.966512 0
M  V30 4583 C 448.303 1.65761 0.106089 0
M  V30 4584 O 449.488 1.90758 -0.0402287 0
M  V30 4585 C 446.628 3.40958 -0.533058 0
M  V30 4586 C 445.741 3.9822 -1.67467 0
M  V30 4587 C 444.876 5.17682 -1.19076 0
M  V30 4588 C 443.915 5.67043 -2.30496 0
M  V30 4589 N 443.052 6.77759 -1.83267 0
M  V30 4590 H 447.892 2.29815 -1.89708 0
M  V30 4591 H 445.429 1.12689 -0.945489 0
M  V30 4592 H 447.387 4.1637 -0.263019 0
M  V30 4593 H 446.017 3.20781 0.360505 0
M  V30 4594 H 445.069 3.1983 -2.05944 0
M  V30 4595 H 446.381 4.3085 -2.51336 0
M  V30 4596 H 445.535 6.00326 -0.877151 0
M  V30 4597 H 444.274 4.86635 -0.322066 0
M  V30 4598 H 443.279 4.82999 -2.62664 0
M  V30 4599 H 444.504 6.00121 -3.17855 0
M  V30 4600 H 442.45 6.48527 -0.987356 0
M  V30 4601 H 442.367 7.09624 -2.60711 0
M  V30 4602 H 443.635 7.63949 -1.54928 0
M  V30 4603 N 447.864 1.01787 1.20321 0
M  V30 4604 C 448.794 0.609625 2.25401 0
M  V30 4605 C 449.775 -0.375951 1.65893 0
M  V30 4606 O 450.96 -0.261101 1.92437 0
M  V30 4607 C 448.09 -0.0515995 3.47262 0
M  V30 4608 C 447.044 0.855095 4.19371 0
M  V30 4609 C 446.37 0.0595757 5.34667 0
M  V30 4610 C 447.67 2.16374 4.75373 0
M  V30 4611 H 449.364 1.48803 2.59804 0
M  V30 4612 H 446.91 0.716934 1.24884 0
M  V30 4613 H 448.863 -0.348764 4.19954 0
M  V30 4614 H 447.587 -0.964726 3.12027 0
M  V30 4615 H 446.246 1.13628 3.48546 0
M  V30 4616 H 445.894 -0.85524 4.95676 0
M  V30 4617 H 445.594 0.663406 5.83843 0
M  V30 4618 H 447.118 -0.231105 6.10162 0
M  V30 4619 H 448.532 1.92885 5.39878 0
M  V30 4620 H 446.929 2.71853 5.34991 0
M  V30 4621 H 447.999 2.82589 3.94045 0
M  V30 4622 N 449.342 -1.36122 0.79427 0
M  V30 4623 C 450.305 -2.28309 0.201889 0
M  V30 4624 C 451.305 -1.49041 -0.603603 0
M  V30 4625 O 452.495 -1.68964 -0.423888 0
M  V30 4626 C 449.627 -3.3321 -0.719978 0
M  V30 4627 H 450.82 -2.82208 1.01481 0
M  V30 4628 H 448.373 -1.45768 0.564037 0
M  V30 4629 H 449.108 -2.84475 -1.55706 0
M  V30 4630 H 448.893 -3.91835 -0.144266 0
M  V30 4631 H 450.383 -4.02044 -1.12916 0
M  V30 4632 N 450.82 -0.546701 -1.47814 0
M  V30 4633 C 452.066 -0.0269594 -2.03382 0
M  V30 4634 C 452.421 1.30406 -1.41464 0
M  V30 4635 O 451.714 1.8332 -0.557151 0
M  V30 4636 C 451.908 0.134869 -3.57145 0
M  V30 4637 C 451.737 -1.17891 -4.33972 0
M  V30 4638 C 450.507 -1.74336 -4.74273 0
M  V30 4639 C 452.705 -2.09361 -4.69758 0
M  V30 4640 N 450.687 -2.99829 -5.35701 0
M  V30 4641 C 452.058 -3.19431 -5.31379 0
M  V30 4642 C 454.113 -2.09484 -4.51687 0
M  V30 4643 C 452.816 -4.2971 -5.76838 0
M  V30 4644 C 454.842 -3.18767 -4.98138 0
M  V30 4645 C 454.204 -4.27557 -5.59799 0
M  V30 4646 H 450.303 -0.0517733 -0.780284 0
M  V30 4647 H 452.887 -0.731673 -1.80429 0
M  V30 4648 H 451.058 0.80869 -3.79888 0
M  V30 4649 H 452.79 0.655726 -3.99352 0
M  V30 4650 H 449.545 -1.28265 -4.559 0
M  V30 4651 H 449.969 -3.63765 -5.70968 0
M  V30 4652 H 454.611 -1.26663 -4.03381 0
M  V30 4653 H 452.329 -5.13297 -6.24141 0
M  V30 4654 H 455.915 -3.19937 -4.85934 0
M  V30 4655 H 454.795 -5.10725 -5.95088 0
M  V30 4656 N 452.299 1.55045 -0.282633 0
M  V30 4657 C 453.249 2.19514 0.616249 0
M  V30 4658 C 454.233 1.16216 1.11277 0
M  V30 4659 O 455.425 1.42004 1.05659 0
M  V30 4660 C 452.554 2.92548 1.7964 0
M  V30 4661 C 451.64 4.03142 1.31671 0
M  V30 4662 N 452.031 5.0276 0.553695 0
M  V30 4663 C 450.329 4.1635 1.59903 0
M  V30 4664 C 451.03 5.80923 0.30054 0
M  V30 4665 N 450.006 5.3651 0.875116 0
M  V30 4666 H 453.808 2.93889 0.0255363 0
M  V30 4667 H 451.322 1.62169 -0.0865362 0
M  V30 4668 H 453.319 3.37188 2.45173 0
M  V30 4669 H 451.979 2.19685 2.39099 0
M  V30 4670 H 452.99 5.17512 0.20032 0
M  V30 4671 H 449.667 3.54682 2.20243 0
M  V30 4672 H 451.057 6.7118 -0.311053 0
M  V30 4673 N 453.777 0.010035 1.57597 0
M  V30 4674 C 455.007 -0.682422 1.95004 0
M  V30 4675 C 455.415 -1.67278 0.884014 0
M  V30 4676 O 454.758 -1.83129 -0.144672 0
M  V30 4677 C 454.82 -1.46141 3.28456 0
M  V30 4678 C 454.484 -0.631523 4.52615 0
M  V30 4679 C 455.481 0.0850905 5.1983 0
M  V30 4680 C 453.166 -0.574539 4.99003 0
M  V30 4681 C 455.16 0.847566 6.3174 0
M  V30 4682 C 452.847 0.191655 6.10799 0
M  V30 4683 C 453.845 0.901432 6.77025 0
M  V30 4684 O 453.533 1.65511 7.86677 0
M  V30 4685 H 453.265 -0.194361 0.647456 0
M  V30 4686 H 455.819 0.060312 2.05311 0
M  V30 4687 H 454.049 -2.24885 3.14585 0
M  V30 4688 H 455.738 -2.04016 3.50902 0
M  V30 4689 H 456.504 0.0502812 4.84974 0
M  V30 4690 H 452.383 -1.11654 4.47274 0
M  V30 4691 H 455.927 1.4021 6.83364 0
M  V30 4692 H 451.824 0.228249 6.45096 0
M  V30 4693 H 452.592 1.57287 8.03245 0
M  V30 4694 N 455.255 -1.55392 -0.262866 0
M  V30 4695 C 456.187 -1.85392 -1.34768 0
M  V30 4696 C 457.2 -0.739069 -1.45057 0
M  V30 4697 O 458.389 -1.01703 -1.46693 0
M  V30 4698 C 455.489 -2.01088 -2.72795 0
M  V30 4699 C 454.662 -3.31828 -2.84972 0
M  V30 4700 C 453.721 -3.37464 -4.03738 0
M  V30 4701 O 452.747 -4.10778 -3.94018 0
M  V30 4702 N 453.949 -2.65599 -5.16176 0
M  V30 4703 H 456.714 -2.79029 -1.09375 0
M  V30 4704 H 454.275 -1.55434 -0.452981 0
M  V30 4705 H 456.267 -2.02217 -3.50557 0
M  V30 4706 H 454.837 -1.1427 -2.90966 0
M  V30 4707 H 454.057 -3.43152 -1.94012 0
M  V30 4708 H 455.345 -4.18032 -2.90045 0
M  V30 4709 H 454.743 -2.05736 -5.26962 0
M  V30 4710 H 453.3 -2.72439 -5.92132 0
M  V30 4711 N 456.733 0.527833 -1.48498 0
M  V30 4712 C 457.979 1.28545 -1.56857 0
M  V30 4713 C 458.312 1.92678 -0.242651 0
M  V30 4714 O 457.587 1.79394 0.751545 0
M  V30 4715 C 457.87 2.37314 -2.70839 0
M  V30 4716 C 457.723 1.77858 -4.13142 0
M  V30 4717 C 459.042 3.39068 -2.80573 0
M  V30 4718 H 456.161 0.466006 -0.570971 0
M  V30 4719 H 458.803 0.587784 -1.8068 0
M  V30 4720 H 456.953 2.96821 -2.50658 0
M  V30 4721 H 458.625 1.22385 -4.44769 0
M  V30 4722 H 456.868 1.08383 -4.20042 0
M  V30 4723 H 457.539 2.56624 -4.88721 0
M  V30 4724 H 460.015 2.89518 -2.98862 0
M  V30 4725 H 458.891 4.12566 -3.6205 0
M  V30 4726 H 459.152 3.9975 -1.88818 0
M  V30 4727 N 458.211 1.37122 0.776871 0
M  V30 4728 C 459.439 1.3523 1.5659 0
M  V30 4729 C 459.854 -0.0635518 1.88693 0
M  V30 4730 O 459.211 -1.02394 1.51069 0
M  V30 4731 C 459.262 2.18583 2.8793 0
M  V30 4732 O 458.983 3.5465 2.57206 0
M  V30 4733 C 460.484 2.24612 3.82183 0
M  V30 4734 H 457.704 0.4634 0.485285 0
M  V30 4735 H 460.248 1.80392 0.963266 0
M  V30 4736 H 458.403 1.76943 3.4463 0
M  V30 4737 H 458.817 3.98286 3.41275 0
M  V30 4738 H 460.291 2.87267 4.71361 0
M  V30 4739 H 460.768 1.25309 4.20944 0
M  V30 4740 H 461.374 2.66543 3.31414 0
M  V30 4741 N 459.689 -1.00246 1.21608 0
M  V30 4742 C 461.1 -1.55511 1.03312 0
M  V30 4743 C 461.451 -1.91946 -0.406332 0
M  V30 4744 O 460.576 -1.73753 -1.28992 0
M  V30 4745 C 461.171 -2.82576 1.86913 0
M  V30 4746 C 459.73 -3.34318 1.72941 0
M  V30 4747 C 458.877 -2.07487 1.83968 0
M  V30 4748 H 461.828 -0.824638 1.35593 0
M  V30 4749 H 461.849 -3.54559 1.38087 0
M  V30 4750 H 461.361 -2.56026 2.91672 0
M  V30 4751 H 459.462 -3.65797 0.70877 0
M  V30 4752 H 459.575 -4.05566 2.55055 0
M  V30 4753 H 457.939 -2.20603 1.27304 0
M  V30 4754 H 458.722 -1.83346 2.9024 0
M  V30 4755 N 461.167 -1.02423 -1.1978 0
M  V30 4756 C 462.415 -0.716569 -1.8897 0
M  V30 4757 C 462.736 0.756769 -1.79716 0
M  V30 4758 O 462.006 1.5449 -1.20456 0
M  V30 4759 H 460.586 -0.262062 -0.699523 0
M  V30 4760 H 463.248 -1.29747 -1.45436 0
M  V30 4761 H 462.344 -1.00675 -2.95417 0
M  V30 4762 N 462.645 1.35699 -0.801477 0
M  V30 4763 C 463.922 1.9324 -0.302937 0
M  V30 4764 C 464.302 1.73209 1.20672 0
M  V30 4765 O 463.65 1.09809 2.00385 0
M  V30 4766 C 463.86 3.41728 -0.708747 0
M  V30 4767 C 465.208 4.18868 -0.695328 0
M  V30 4768 O 466.232 3.5022 -0.649971 0
M  V30 4769 O 465.091 5.41342 -0.749081 0
M  V30 4770 H 462.185 0.82331 -0.0780367 0
M  V30 4771 H 464.731 1.44806 -0.884832 0
M  V30 4772 H 463.503 3.50015 -1.74944 0
M  V30 4773 H 463.126 3.97471 -0.101384 0
M  V30 4774 N 464.123 0.554532 1.47522 0
M  V30 4775 C 465.348 0.0322661 2.07375 0
M  V30 4776 C 465.773 -1.25079 1.40488 0
M  V30 4777 O 465.131 -1.74859 0.47896 0
M  V30 4778 C 465.179 -0.149397 3.6029 0
M  V30 4779 O 464.283 -1.21259 3.9417 0
M  V30 4780 H 463.624 0.0501228 0.662106 0
M  V30 4781 H 466.154 0.769452 1.8958 0
M  V30 4782 H 466.164 -0.364437 4.06369 0
M  V30 4783 H 464.839 0.787743 4.08372 0
M  V30 4784 H 463.416 -0.97825 3.5984 0
M  V30 4785 N 465.601 -1.54893 0.290851 0
M  V30 4786 C 466.847 -2.00949 -0.314784 0
M  V30 4787 C 467.202 -1.1757 -1.52299 0
M  V30 4788 O 466.495 -0.241558 -1.90071 0
M  V30 4789 C 466.689 -3.49815 -0.732397 0
M  V30 4790 C 466.518 -4.47603 0.433799 0
M  V30 4791 C 465.288 -4.96806 0.922599 0
M  V30 4792 C 467.486 -4.98233 1.27546 0
M  V30 4793 N 465.468 -5.78426 2.05662 0
M  V30 4794 C 466.839 -5.77455 2.25712 0
M  V30 4795 C 468.894 -4.80439 1.307 0
M  V30 4796 C 467.597 -6.40778 3.26796 0
M  V30 4797 C 469.623 -5.44574 2.30637 0
M  V30 4798 C 468.985 -6.23619 3.27533 0
M  V30 4799 H 465.084 -0.777905 -0.0799257 0
M  V30 4800 H 467.668 -1.9015 0.418458 0
M  V30 4801 H 465.839 -3.60925 -1.43483 0
M  V30 4802 H 467.571 -3.82681 -1.31671 0
M  V30 4803 H 464.326 -4.70961 0.49926 0
M  V30 4804 H 464.75 -6.23923 2.62772 0
M  V30 4805 H 469.392 -4.18918 0.571622 0
M  V30 4806 H 467.11 -7.01439 4.01258 0
M  V30 4807 H 470.696 -5.32739 2.33838 0
M  V30 4808 H 469.576 -6.72367 4.03599 0
M  V30 4809 N 467.08 -0.0183926 -1.57589 0
M  V30 4810 C 468.357 0.700621 -1.82622 0
M  V30 4811 C 468.737 1.90951 -0.90005 0
M  V30 4812 O 468.085 2.28452 0.0469145 0
M  V30 4813 C 468.295 1.08899 -3.31575 0
M  V30 4814 C 469.643 1.48514 -3.9778 0
M  V30 4815 O 470.667 1.18227 -3.36007 0
M  V30 4816 O 469.526 2.04903 -5.06633 0
M  V30 4817 H 466.62 0.342743 -0.752633 0
M  V30 4818 H 469.166 -0.0452548 -1.6964 0
M  V30 4819 H 467.938 0.228113 -3.90635 0
M  V30 4820 H 467.561 1.89338 -3.49624 0
M  V30 4821 N 468.558 1.5553 0.254621 0
M  V30 4822 C 469.805 1.77 0.983736 0
M  V30 4823 C 470.133 0.58133 1.85609 0
M  V30 4824 O 469.388 -0.435621 1.9079 0
M  V30 4825 C 469.687 3.03891 1.88109 0
M  V30 4826 C 469.353 4.35597 1.16472 0
M  V30 4827 C 468.015 4.7139 0.966714 0
M  V30 4828 C 470.367 5.1705 0.656387 0
M  V30 4829 C 467.695 5.86176 0.247942 0
M  V30 4830 C 470.047 6.32581 -0.0488807 0
M  V30 4831 C 468.711 6.67 -0.258438 0
M  V30 4832 H 467.981 0.647688 0.359974 0
M  V30 4833 H 470.628 1.89802 0.254463 0
M  V30 4834 H 468.933 2.86068 2.67717 0
M  V30 4835 H 470.63 3.17701 2.44677 0
M  V30 4836 H 467.22 4.07475 1.32899 0
M  V30 4837 H 471.404 4.8986 0.796933 0
M  V30 4838 H 466.66 6.11354 0.075035 0
M  V30 4839 H 470.834 6.94942 -0.450444 0
M  V30 4840 H 468.461 7.55793 -0.817358 0
M  V30 4841 N 470.036 -0.519951 1.48776 0
M  V30 4842 C 471.264 -1.29971 1.60982 0
M  V30 4843 C 471.679 -1.86803 0.273885 0
M  V30 4844 O 471.036 -1.66904 -0.738193 0
M  V30 4845 C 471.087 -2.44346 2.66415 0
M  V30 4846 O 470.808 -1.89855 3.94825 0
M  V30 4847 C 472.309 -3.36014 2.89153 0
M  V30 4848 H 469.529 -0.394891 0.542496 0
M  V30 4849 H 472.073 -0.626214 1.94676 0
M  V30 4850 H 470.228 -3.07562 2.35552 0
M  V30 4851 H 470.642 -2.64798 4.5275 0
M  V30 4852 H 472.116 -4.12593 3.66703 0
M  V30 4853 H 472.593 -3.91859 1.98351 0
M  V30 4854 H 473.199 -2.78582 3.21359 0
M  V30 4855 N 471.514 -1.37532 -0.769588 0
M  V30 4856 C 472.477 -1.33292 -1.86456 0
M  V30 4857 C 473.477 -0.236537 -1.59051 0
M  V30 4858 O 474.667 -0.492511 -1.67093 0
M  V30 4859 C 471.799 -1.07118 -3.23633 0
M  V30 4860 H 472.992 -2.30692 -1.91628 0
M  V30 4861 H 470.545 -1.22593 -0.969572 0
M  V30 4862 H 471.28 -0.102578 -3.24138 0
M  V30 4863 H 471.065 -1.86479 -3.44917 0
M  V30 4864 H 472.555 -1.06806 -4.03711 0
M  V30 4865 N 472.992 0.995999 -1.22138 0
M  V30 4866 C 474.22 1.77066 -1.07029 0
M  V30 4867 C 474.635 1.8495 0.379357 0
M  V30 4868 O 473.992 1.3174 1.26297 0
M  V30 4869 C 474.043 3.20533 -1.67155 0
M  V30 4870 O 473.764 3.13082 -3.06449 0
M  V30 4871 C 475.265 4.14461 -1.5728 0
M  V30 4872 H 472.485 0.556179 -0.375374 0
M  V30 4873 H 475.029 1.25238 -1.61666 0
M  V30 4874 H 473.184 3.6944 -1.16589 0
M  V30 4875 H 473.598 4.03283 -3.35355 0
M  V30 4876 H 475.072 5.1289 -2.04078 0
M  V30 4877 H 475.549 4.36005 -0.528795 0
M  V30 4878 H 476.155 3.71449 -2.07136 0
M  V30 4879 N 474.47 1.03057 1.19235 0
M  V30 4880 C 475.402 0.570932 2.21975 0
M  V30 4881 C 476.415 -0.354088 1.58903 0
M  V30 4882 O 477.604 -0.150211 1.77867 0
M  V30 4883 C 474.704 -0.187152 3.38383 0
M  V30 4884 C 473.877 0.743231 4.31039 0
M  V30 4885 C 472.936 0.0302493 5.26191 0
M  V30 4886 O 471.962 0.657371 5.65391 0
M  V30 4887 N 473.164 -1.23991 5.67104 0
M  V30 4888 H 475.929 1.45456 2.62036 0
M  V30 4889 H 473.49 0.909807 1.33918 0
M  V30 4890 H 475.482 -0.673715 3.99053 0
M  V30 4891 H 474.052 -0.972205 2.97098 0
M  V30 4892 H 473.272 1.40985 3.68126 0
M  V30 4893 H 474.56 1.3755 4.89854 0
M  V30 4894 H 473.958 -1.77011 5.37293 0
M  V30 4895 H 472.515 -1.67093 6.30018 0
M  V30 4896 N 475.948 -1.35272 0.808662 0
M  V30 4897 C 476.88 -2.28507 0.178149 0
M  V30 4898 C 477.893 -1.50377 -0.623754 0
M  V30 4899 O 479.082 -1.72583 -0.455774 0
M  V30 4900 C 476.182 -3.30038 -0.769959 0
M  V30 4901 C 475.355 -4.37398 -0.0139749 0
M  V30 4902 C 474.414 -5.18775 -0.880875 0
M  V30 4903 O 473.44 -5.68236 -0.331059 0
M  V30 4904 N 474.642 -5.37087 -2.20267 0
M  V30 4905 H 477.407 -2.83255 0.979106 0
M  V30 4906 H 474.968 -1.47643 0.664308 0
M  V30 4907 H 476.96 -3.81371 -1.35418 0
M  V30 4908 H 475.53 -2.75789 -1.47171 0
M  V30 4909 H 474.75 -3.86971 0.751468 0
M  V30 4910 H 476.038 -5.06268 0.506965 0
M  V30 4911 H 475.436 -4.9855 -2.67328 0
M  V30 4912 H 473.993 -5.91593 -2.73608 0
M  V30 4913 N 477.426 -0.562348 -1.47226 0
M  V30 4914 C 478.675 -0.038041 -2.01664 0
M  V30 4915 C 478.988 1.32199 -1.44162 0
M  V30 4916 O 480.194 1.9365 -1.90294 0
M  V30 4917 C 478.65 -0.0174958 -3.59896 0
M  V30 4918 C 478.258 -1.3746 -4.2639 0
M  V30 4919 C 480.002 0.453934 -4.22066 0
M  V30 4920 C 477.909 -1.31289 -5.76643 0
M  V30 4921 H 476.839 -0.0104511 -0.753928 0
M  V30 4922 H 479.49 -0.710966 -1.69167 0
M  V30 4923 H 477.872 0.721182 -3.89378 0
M  V30 4924 H 479.046 -2.1314 -4.08544 0
M  V30 4925 H 477.361 -1.78438 -3.7623 0
M  V30 4926 H 479.958 0.518584 -5.32179 0
M  V30 4927 H 480.301 1.46706 -3.89594 0
M  V30 4928 H 480.834 -0.230044 -3.97134 0
M  V30 4929 H 477.573 -2.30217 -6.13743 0
M  V30 4930 H 477.093 -0.597973 -5.96812 0
M  V30 4931 H 478.772 -1.01713 -6.38955 0
M  V30 4932 N 478.904 1.54736 -0.299062 0
M  V30 4933 C 480.132 2.04512 0.313447 0
M  V30 4934 C 480.547 1.17643 1.47667 0
M  V30 4935 O 479.904 0.20164 1.81383 0
M  V30 4936 C 479.955 3.53171 0.771542 0
M  V30 4937 O 479.676 4.36736 -0.345379 0
M  V30 4938 C 481.177 4.18936 1.4494 0
M  V30 4939 H 478.397 0.667507 0.0683784 0
M  V30 4940 H 480.941 1.99752 -0.438129 0
M  V30 4941 H 479.096 3.58298 1.47314 0
M  V30 4942 H 479.51 5.24499 0.0109219 0
M  V30 4943 H 480.984 5.24482 1.72111 0
M  V30 4944 H 481.461 3.68554 2.38883 0
M  V30 4945 H 482.067 4.17879 0.791028 0
M  V30 4946 N 480.382 0.0267497 1.57577 0
M  V30 4947 C 481.312 -0.954308 2.13108 0
M  V30 4948 C 482.293 -1.34088 1.04663 0
M  V30 4949 O 483.478 -1.41992 1.32484 0
M  V30 4950 C 480.608 -2.23744 2.65624 0
M  V30 4951 C 479.562 -1.99168 3.78835 0
M  V30 4952 C 478.888 -3.33726 4.17769 0
M  V30 4953 C 480.188 -1.33277 5.0501 0
M  V30 4954 H 481.882 -0.491848 2.95332 0
M  V30 4955 H 479.428 -0.23514 1.42067 0
M  V30 4956 H 481.381 -2.92754 3.03106 0
M  V30 4957 H 480.105 -2.72151 1.80558 0
M  V30 4958 H 478.764 -1.32577 3.41788 0
M  V30 4959 H 478.412 -3.79888 3.29688 0
M  V30 4960 H 478.112 -3.18089 4.94058 0
M  V30 4961 H 479.636 -4.04008 4.57832 0
M  V30 4962 H 481.05 -1.92283 5.40093 0
M  V30 4963 H 479.447 -1.28045 5.8628 0
M  V30 4964 H 480.517 -0.305411 4.83937 0
M  V30 4965 N 481.861 -1.55662 -0.24637 0
M  V30 4966 C 482.824 -1.89558 -1.28842 0
M  V30 4967 C 483.824 -0.772082 -1.41052 0
M  V30 4968 O 485.014 -1.04007 -1.39743 0
M  V30 4969 C 482.146 -2.12449 -2.66605 0
M  V30 4970 H 483.339 -2.82735 -1.00004 0
M  V30 4971 H 480.892 -1.48562 -0.485684 0
M  V30 4972 H 481.627 -1.21742 -3.00582 0
M  V30 4973 H 481.412 -2.94273 -2.59125 0
M  V30 4974 H 482.902 -2.39854 -3.41847 0
M  V30 4975 N 483.339 0.512053 -1.4905 0
M  V30 4976 C 484.249 1.64139 -1.67617 0
M  V30 4977 C 485.265 1.64786 -0.558701 0
M  V30 4978 O 486.441 1.8341 -0.832034 0
M  V30 4979 C 483.506 3.00548 -1.72835 0
M  V30 4980 C 482.567 3.10615 -2.96339 0
M  V30 4981 C 481.8 4.40517 -3.01298 0
M  V30 4982 O 482.023 5.28671 -2.14157 0
M  V30 4983 O 480.957 4.55325 -3.93653 0
M  V30 4984 H 484.783 1.51407 -2.63267 0
M  V30 4985 H 482.368 0.687131 -1.32661 0
M  V30 4986 H 484.25 3.81641 -1.78683 0
M  V30 4987 H 482.925 3.13566 -0.803616 0
M  V30 4988 H 481.832 2.2875 -2.96014 0
M  V30 4989 H 483.165 3.0252 -3.88256 0
M  V30 4990 N 484.817 1.37938 0.762283 0
M  V30 4991 C 485.747 1.37176 1.88958 0
M  V30 4992 C 486.728 0.238945 1.68413 0
M  V30 4993 O 487.913 0.440726 1.89133 0
M  V30 4994 C 485.043 1.18742 3.2637 0
M  V30 4995 C 483.997 2.29136 3.61498 0
M  V30 4996 C 483.323 1.95816 4.97554 0
M  V30 4997 C 484.623 3.71363 3.6727 0
M  V30 4998 H 486.317 2.31509 1.89853 0
M  V30 4999 H 483.863 1.11438 0.912005 0
M  V30 5000 H 485.816 1.16837 4.04879 0
M  V30 5001 H 484.54 0.208683 3.25933 0
M  V30 5002 H 483.199 2.30213 2.85303 0
M  V30 5003 H 482.847 0.964475 4.93667 0
M  V30 5004 H 482.547 2.69745 5.22026 0
M  V30 5005 H 484.071 1.95513 5.78452 0
M  V30 5006 H 485.485 3.72364 4.35911 0
M  V30 5007 H 483.882 4.44425 4.03245 0
M  V30 5008 H 484.952 4.04305 2.67704 0
M  V30 5009 N 486.295 -0.989507 1.22664 0
M  V30 5010 C 487.243 -2.10148 0.997035 0
M  V30 5011 C 488.237 -1.6929 -0.0609783 0
M  V30 5012 O 489.443 -1.79766 0.0917523 0
M  V30 5013 H 485.818 -0.687256 0.305259 0
M  V30 5014 H 487.789 -2.26685 1.94053 0
M  V30 5015 C 486.538 -3.4257 0.595085 0
M  V30 5016 H 485.861 -3.74453 1.40089 0
M  V30 5017 H 487.301 -4.21344 0.473869 0
M  V30 5018 C 485.76 -3.29638 -0.695725 0
M  V30 5019 O 486.29 -3.61709 -1.74727 0
M  V30 5020 N 484.496 -2.82814 -0.668173 0
M  V30 5021 H 484.043 -2.56914 0.18787 0
M  V30 5022 H 484.001 -2.74544 -1.5321 0
M  V30 5023 N 487.773 -1.03688 -1.18687 0
M  V30 5024 C 489.022 -0.733235 -1.879 0
M  V30 5025 C 489.335 0.741745 -1.8099 0
M  V30 5026 O 490.541 1.15875 -2.4553 0
M  V30 5027 C 488.997 -1.26127 -3.37076 0
M  V30 5028 C 488.605 -2.76461 -3.52524 0
M  V30 5029 C 490.349 -1.03398 -4.11715 0
M  V30 5030 C 488.256 -3.22642 -4.95637 0
M  V30 5031 H 487.186 -0.270584 -0.703776 0
M  V30 5032 H 489.837 -1.25222 -1.34133 0
M  V30 5033 H 488.219 -0.670165 -3.90288 0
M  V30 5034 H 489.393 -3.41296 -3.09602 0
M  V30 5035 H 487.708 -2.97559 -2.91286 0
M  V30 5036 H 490.305 -1.3542 -5.17267 0
M  V30 5037 H 490.648 0.0289246 -4.1629 0
M  V30 5038 H 491.181 -1.5895 -3.64664 0
M  V30 5039 H 487.92 -4.28296 -4.96228 0
M  V30 5040 H 487.44 -2.62539 -5.39289 0
M  V30 5041 H 489.119 -3.16444 -5.64333 0
M  V30 5042 N 489.251 1.34841 -0.815825 0
M  V30 5043 C 490.528 1.92908 -0.323416 0
M  V30 5044 C 490.908 1.74479 1.18828 0
M  V30 5045 O 490.256 1.11928 1.99209 0
M  V30 5046 C 490.466 3.40957 -0.744952 0
M  V30 5047 C 491.814 4.18107 -0.739716 0
M  V30 5048 O 492.838 3.49511 -0.68708 0
M  V30 5049 O 491.697 5.40517 -0.806456 0
M  V30 5050 H 488.791 0.822436 -0.0867646 0
M  V30 5051 H 491.337 1.4386 -0.90014 0
M  V30 5052 H 490.109 3.4814 -1.78646 0
M  V30 5053 H 489.732 3.97341 -0.143535 0
M  V30 5054 N 490.729 0.570148 1.46925 0
M  V30 5055 C 491.977 0.0508523 2.02036 0
M  V30 5056 C 492.298 -1.30885 1.44548 0
M  V30 5057 O 491.568 -1.85647 0.625453 0
M  V30 5058 H 490.148 0.0158088 0.746833 0
M  V30 5059 H 492.81 0.743086 1.80178 0
M  V30 5060 H 491.906 -0.027575 3.12088 0
M  V30 5061 N 492.207 -1.54576 0.307264 0
M  V30 5062 C 493.154 -2.23751 -0.56604 0
M  V30 5063 C 494.124 -1.22235 -1.12462 0
M  V30 5064 O 495.309 -1.50873 -1.16799 0
M  V30 5065 C 492.449 -2.98661 -1.72903 0
M  V30 5066 C 491.562 -4.14963 -1.20124 0
M  V30 5067 C 490.697 -4.77441 -2.3286 0
M  V30 5068 C 489.736 -5.85875 -1.77247 0
M  V30 5069 N 488.873 -6.42282 -2.8358 0
M  V30 5070 H 493.713 -2.97984 0.0304578 0
M  V30 5071 H 491.25 -1.47076 0.0268015 0
M  V30 5072 H 493.208 -3.40329 -2.41313 0
M  V30 5073 H 491.838 -2.26793 -2.29706 0
M  V30 5074 H 490.89 -3.78193 -0.409198 0
M  V30 5075 H 492.202 -4.93066 -0.754171 0
M  V30 5076 H 491.356 -5.21993 -3.09205 0
M  V30 5077 H 490.095 -3.98684 -2.80896 0
M  V30 5078 H 489.1 -5.40741 -0.993926 0
M  V30 5079 H 490.325 -6.6652 -1.30107 0
M  V30 5080 H 488.271 -5.66406 -3.30939 0
M  V30 5081 H 488.188 -7.1575 -2.43388 0
M  V30 5082 H 489.456 -6.91492 -3.59804 0
M  V30 5083 N 493.685 -0.035106 -1.57561 0
M  V30 5084 C 495.096 0.502885 -1.798 0
M  V30 5085 C 495.447 1.71892 -0.945921 0
M  V30 5086 O 494.572 2.15822 -0.157991 0
M  V30 5087 C 495.167 0.919097 -3.26095 0
M  V30 5088 C 493.726 1.40216 -3.49308 0
M  V30 5089 C 492.873 0.369709 -2.74824 0
M  V30 5090 H 495.824 -0.261102 -1.56537 0
M  V30 5091 H 495.845 1.78308 -3.36135 0
M  V30 5092 H 495.357 0.0338526 -3.88085 0
M  V30 5093 H 493.458 2.30714 -2.92578 0
M  V30 5094 H 493.571 1.40541 -4.58023 0
M  V30 5095 H 491.935 0.839113 -2.40481 0
M  V30 5096 H 492.718 -0.507173 -3.39533 0
M  V30 5097 N 495.163 1.55791 0.238111 0
M  V30 5098 C 496.579 1.48411 0.587045 0
M  V30 5099 C 496.779 0.72702 1.87927 0
M  V30 5100 O 495.835 0.259942 2.51158 0
M  V30 5101 C 497.148 2.92873 0.681623 0
M  V30 5102 C 498.696 3.03295 0.773363 0
M  V30 5103 C 499.171 4.49082 0.899428 0
M  V30 5104 N 500.662 4.53056 0.964075 0
M  V30 5105 C 501.397 5.63117 1.08104 0
M  V30 5106 N 500.893 6.82969 1.16299 0
M  V30 5107 N 502.686 5.50933 1.11488 0
M  V30 5108 H 494.837 2.0345 -0.610076 0
M  V30 5109 H 497.1 0.924034 -0.211813 0
M  V30 5110 H 496.806 3.51142 -0.19802 0
M  V30 5111 H 496.68 3.43851 1.55069 0
M  V30 5112 H 499.067 2.45101 1.64346 0
M  V30 5113 H 499.148 2.55513 -0.121034 0
M  V30 5114 H 498.792 5.07889 0.0338586 0
M  V30 5115 H 498.722 4.94553 1.809 0
M  V30 5116 H 501.213 3.66737 0.91173 0
M  V30 5117 H 501.526 7.62598 1.25155 0
M  V30 5118 H 499.871 6.85712 1.13241 0
M  V30 5119 H 503.062 4.56231 1.0474 0
M  V30 5120 H 503.235 6.36743 1.20259 0
M  V30 5121 N 496.642 -0.504142 1.49319 0
M  V30 5122 C 497.589 -1.60603 1.65756 0
M  V30 5123 C 498.559 -1.58425 0.499082 0
M  V30 5124 O 499.744 -1.76459 0.725728 0
M  V30 5125 C 496.884 -2.98764 1.72726 0
M  V30 5126 C 495.997 -3.10982 2.99857 0
M  V30 5127 C 495.132 -4.39857 2.97824 0
M  V30 5128 C 494.171 -4.45697 4.19548 0
M  V30 5129 N 493.308 -5.65995 4.15444 0
M  V30 5130 H 498.148 -1.45895 2.59843 0
M  V30 5131 H 495.685 -0.709891 1.28837 0
M  V30 5132 H 497.643 -3.78839 1.74747 0
M  V30 5133 H 496.273 -3.12183 0.821075 0
M  V30 5134 H 495.325 -2.23991 3.07461 0
M  V30 5135 H 496.637 -3.11157 3.89849 0
M  V30 5136 H 495.791 -5.2825 2.98391 0
M  V30 5137 H 494.53 -4.42242 2.05604 0
M  V30 5138 H 493.535 -3.55707 4.19229 0
M  V30 5139 H 494.76 -4.4503 5.12957 0
M  V30 5140 H 492.706 -5.69229 3.26059 0
M  V30 5141 H 492.623 -5.67773 4.99169 0
M  V30 5142 H 493.891 -6.56604 4.20109 0
M  V30 5143 N 498.12 -1.38341 -0.754957 0
M  V30 5144 C 499.366 -1.34672 -1.51628 0
M  V30 5145 C 499.699 0.0636036 -1.94096 0
M  V30 5146 O 498.974 1.0245 -1.6533 0
M  V30 5147 C 499.257 -2.30116 -2.76981 0
M  V30 5148 C 499.11 -3.80003 -2.4066 0
M  V30 5149 C 500.429 -2.23715 -3.78998 0
M  V30 5150 H 497.548 -0.490517 -0.550056 0
M  V30 5151 H 500.19 -1.69178 -0.864807 0
M  V30 5152 H 498.34 -2.00821 -3.3257 0
M  V30 5153 H 500.012 -4.19966 -1.90856 0
M  V30 5154 H 498.255 -3.97751 -1.73137 0
M  V30 5155 H 498.926 -4.42244 -3.30339 0
M  V30 5156 H 501.402 -2.49574 -3.32945 0
M  V30 5157 H 500.278 -2.9261 -4.64403 0
M  V30 5158 H 500.539 -1.23554 -4.24484 0
M  V30 5159 N 499.598 0.982988 -1.23187 0
M  V30 5160 C 500.528 2.09301 -1.03515 0
M  V30 5161 C 501.509 1.70035 0.0471136 0
M  V30 5162 O 502.694 1.93847 -0.117029 0
M  V30 5163 C 499.824 3.4167 -0.622791 0
M  V30 5164 C 498.778 3.94828 -1.65211 0
M  V30 5165 C 498.104 5.23362 -1.09527 0
M  V30 5166 C 499.404 4.2439 -3.04451 0
M  V30 5167 H 501.098 2.26016 -1.96359 0
M  V30 5168 H 498.644 1.08611 -0.945501 0
M  V30 5169 H 500.597 4.18746 -0.472233 0
M  V30 5170 H 499.321 3.24811 0.341329 0
M  V30 5171 H 497.98 3.19895 -1.79061 0
M  V30 5172 H 497.628 5.02852 -0.122211 0
M  V30 5173 H 497.328 5.59895 -1.783 0
M  V30 5174 H 498.852 6.03062 -0.956511 0
M  V30 5175 H 500.266 4.92225 -2.93917 0
M  V30 5176 H 498.663 4.72118 -3.70438 0
M  V30 5177 H 499.733 3.31765 -3.53638 0
M  V30 5178 N 501.076 1.04316 1.18135 0
M  V30 5179 C 502.009 0.580823 2.20685 0
M  V30 5180 C 502.987 -0.385943 1.57953 0
M  V30 5181 O 504.171 -0.299654 1.86103 0
M  V30 5182 C 501.298 -0.151162 3.38363 0
M  V30 5183 C 500.344 0.769247 4.19505 0
M  V30 5184 S 501.177 2.25352 4.85774 0
M  V30 5185 C 502.333 1.53246 6.0685 0
M  V30 5186 H 502.566 1.44968 2.5956 0
M  V30 5187 H 500.099 0.85434 1.28609 0
M  V30 5188 H 502.057 -0.567315 4.06561 0
M  V30 5189 H 500.718 -0.995936 2.97892 0
M  V30 5190 H 499.911 0.203335 5.0359 0
M  V30 5191 H 499.513 1.12436 3.56699 0
M  V30 5192 H 501.805 0.82689 6.72435 0
M  V30 5193 H 502.748 2.35044 6.67952 0
M  V30 5194 H 503.156 1.0237 5.5514 0
M  V30 5195 N 502.554 -1.34406 0.822964 0
M  V30 5196 C 503.486 -2.28305 0.202375 0
M  V30 5197 C 504.499 -1.5103 -0.60777 0
M  V30 5198 O 505.688 -1.73057 -0.437444 0
M  V30 5199 C 502.788 -3.30836 -0.734911 0
M  V30 5200 C 501.961 -4.37388 0.0324177 0
M  V30 5201 C 501.02 -5.1968 -0.825803 0
M  V30 5202 O 500.046 -5.68556 -0.270771 0
M  V30 5203 N 501.248 -5.39393 -2.14558 0
M  V30 5204 H 504.013 -2.82201 1.00909 0
M  V30 5205 H 501.574 -1.4693 0.67993 0
M  V30 5206 H 503.566 -3.82786 -1.31365 0
M  V30 5207 H 502.136 -2.77334 -1.44238 0
M  V30 5208 H 501.356 -3.86152 0.792469 0
M  V30 5209 H 502.644 -5.05702 0.560633 0
M  V30 5210 H 502.042 -5.01357 -2.62025 0
M  V30 5211 H 500.599 -5.94461 -2.67318 0
M  V30 5212 N 504.032 -0.577932 -1.46621 0
M  V30 5213 C 504.995 0.147805 -2.28723 0
M  V30 5214 C 505.995 0.823325 -1.38123 0
M  V30 5215 O 507.185 0.676011 -1.60548 0
M  V30 5216 C 504.317 1.21853 -3.18378 0
M  V30 5217 H 505.51 -0.573654 -2.94362 0
M  V30 5218 H 503.063 -0.335703 -1.52652 0
M  V30 5219 H 503.798 1.97173 -2.57475 0
M  V30 5220 H 503.583 0.738714 -3.85078 0
M  V30 5221 H 505.073 1.72768 -3.80186 0
M  V30 5222 N 505.51 1.54411 -0.315457 0
M  V30 5223 C 506.921 1.85885 0.174265 0
M  V30 5224 C 507.272 1.23723 1.52273 0
M  V30 5225 O 506.397 0.540246 2.09548 0
M  V30 5226 C 506.992 3.37257 0.322981 0
M  V30 5227 C 505.551 3.68711 0.756922 0
M  V30 5228 C 504.698 2.77013 -0.126195 0
M  V30 5229 H 507.649 1.49374 -0.536007 0
M  V30 5230 H 507.67 3.62539 1.15522 0
M  V30 5231 H 507.182 3.82471 -0.658602 0
M  V30 5232 H 505.283 3.29024 1.74854 0
M  V30 5233 H 505.396 4.75741 0.566291 0
M  V30 5234 H 503.76 2.51588 0.39692 0
M  V30 5235 H 504.543 3.25051 -1.1044 0
M  V30 5236 N 506.988 0.0434614 1.5754 0
M  V30 5237 C 507.935 -0.93356 2.11077 0
M  V30 5238 C 508.905 -1.31383 1.01626 0
M  V30 5239 O 510.09 -1.40465 1.29129 0
M  V30 5240 C 507.23 -2.20578 2.65404 0
M  V30 5241 C 506.343 -1.88068 3.88914 0
M  V30 5242 C 505.478 -3.09691 4.31584 0
M  V30 5243 C 504.517 -2.73067 5.47815 0
M  V30 5244 N 503.654 -3.87359 5.85574 0
M  V30 5245 H 508.494 -0.470118 2.94268 0
M  V30 5246 H 506.031 -0.220434 1.45439 0
M  V30 5247 H 507.989 -2.95011 2.94999 0
M  V30 5248 H 506.619 -2.64513 1.85021 0
M  V30 5249 H 505.671 -1.03816 3.6596 0
M  V30 5250 H 506.983 -1.57104 4.73413 0
M  V30 5251 H 506.137 -3.92431 4.62691 0
M  V30 5252 H 504.876 -3.43827 3.45882 0
M  V30 5253 H 503.881 -1.88742 5.16388 0
M  V30 5254 H 505.106 -2.40131 6.35227 0
M  V30 5255 H 503.052 -4.21311 5.02825 0
M  V30 5256 H 502.969 -3.60068 6.64746 0
M  V30 5257 H 504.237 -4.70761 6.21292 0
M  V30 5258 N 508.466 -1.55915 -0.229846 0
M  V30 5259 C 509.414 -1.9258 -1.30444 0
M  V30 5260 C 510.408 -0.806839 -1.48951 0
M  V30 5261 O 511.614 -0.991606 -1.50224 0
M  V30 5262 H 507.989 -0.611878 -0.437161 0
M  V30 5263 H 509.96 -2.82264 -0.96797 0
M  V30 5264 C 508.709 -2.25171 -2.6494 0
M  V30 5265 H 508.032 -3.10782 -2.51504 0
M  V30 5266 H 509.472 -2.54716 -3.38963 0
M  V30 5267 C 507.931 -1.07394 -3.19324 0
M  V30 5268 O 508.461 -0.330759 -4.00336 0
M  V30 5269 N 506.667 -0.859984 -2.77584 0
M  V30 5270 H 506.214 -1.46605 -2.11813 0
M  V30 5271 H 506.172 -0.0736671 -3.14314 0
M  V30 5272 N 509.944 0.496216 -1.49584 0
M  V30 5273 C 511.192 1.24756 -1.58998 0
M  V30 5274 C 511.513 1.92968 -0.280775 0
M  V30 5275 O 510.783 1.82959 0.700198 0
M  V30 5276 H 509.363 0.463471 -0.585836 0
M  V30 5277 H 512.025 0.574678 -1.86235 0
M  V30 5278 H 511.121 2.00895 -2.38847 0
M  V30 5279 N 511.423 1.38739 0.74761 0
M  V30 5280 C 512.67 1.35274 1.50689 0
M  V30 5281 C 512.998 -0.0553359 1.94421 0
M  V30 5282 O 512.253 -1.03365 1.66175 0
M  V30 5283 C 512.552 2.25992 2.7688 0
M  V30 5284 C 512.218 3.73854 2.5208 0
M  V30 5285 C 510.88 4.14145 2.45025 0
M  V30 5286 C 513.232 4.67427 2.30568 0
M  V30 5287 C 510.56 5.4609 2.14483 0
M  V30 5288 C 512.912 5.99635 2.01545 0
M  V30 5289 C 511.576 6.39004 1.92951 0
M  V30 5290 H 510.846 0.495003 0.55141 0
M  V30 5291 H 513.493 1.71145 0.859158 0
M  V30 5292 H 511.798 1.83196 3.46333 0
M  V30 5293 H 513.495 2.20611 3.34861 0
M  V30 5294 H 510.085 3.41913 2.58444 0
M  V30 5295 H 514.269 4.3714 2.34994 0
M  V30 5296 H 509.525 5.75528 2.06342 0
M  V30 5297 H 513.699 6.71678 1.83906 0
M  V30 5298 H 511.326 7.41165 1.6905 0
M  V30 5299 N 512.901 -0.976442 1.23707 0
M  V30 5300 C 514.148 -1.71827 1.07153 0
M  V30 5301 C 514.476 -1.9053 -0.390982 0
M  V30 5302 O 513.731 -1.45779 -1.30564 0
M  V30 5303 C 514.03 -3.11814 1.74662 0
M  V30 5304 C 513.696 -3.12978 3.24585 0
M  V30 5305 C 512.358 -3.13003 3.6549 0
M  V30 5306 C 514.71 -3.07986 4.20469 0
M  V30 5307 C 512.038 -3.05757 5.00729 0
M  V30 5308 C 514.39 -3.02282 5.55705 0
M  V30 5309 C 513.054 -3.00631 5.95968 0
M  V30 5310 H 512.324 -0.628758 0.392102 0
M  V30 5311 H 514.971 -1.14239 1.53693 0
M  V30 5312 H 513.276 -3.72812 1.20492 0
M  V30 5313 H 514.973 -3.67989 1.59328 0
M  V30 5314 H 511.563 -3.13718 2.92026 0
M  V30 5315 H 515.747 -3.07103 3.89874 0
M  V30 5316 H 511.003 -3.02834 5.31132 0
M  V30 5317 H 515.177 -2.97376 6.29714 0
M  V30 5318 H 512.804 -2.94771 7.00724 0
M  V30 5319 N 514.379 -1.04941 -1.1758 0
M  V30 5320 C 515.609 -0.777166 -1.91425 0
M  V30 5321 C 516.017 0.670647 -1.76915 0
M  V30 5322 O 515.36 1.46965 -1.10213 0
M  V30 5323 C 515.422 -1.07495 -3.43052 0
M  V30 5324 C 515.086 -2.51844 -3.81345 0
M  V30 5325 C 516.083 -3.50047 -3.844 0
M  V30 5326 C 513.768 -2.86787 -4.12382 0
M  V30 5327 C 515.762 -4.81239 -4.17957 0
M  V30 5328 C 513.449 -4.18182 -4.45608 0
M  V30 5329 C 514.447 -5.15219 -4.48373 0
M  V30 5330 O 514.135 -6.44258 -4.80819 0
M  V30 5331 H 513.867 -0.282209 -0.614275 0
M  V30 5332 H 516.421 -1.40258 -1.50056 0
M  V30 5333 H 514.651 -0.392437 -3.84704 0
M  V30 5334 H 516.34 -0.78912 -3.98155 0
M  V30 5335 H 517.106 -3.24391 -3.60548 0
M  V30 5336 H 512.985 -2.11922 -4.09402 0
M  V30 5337 H 516.529 -5.56974 -4.2003 0
M  V30 5338 H 512.426 -4.43602 -4.68922 0
M  V30 5339 H 513.194 -6.49041 -4.98686 0
M  V30 5340 N 515.857 1.33968 -0.830081 0
M  V30 5341 C 517.103 1.98357 -0.422191 0
M  V30 5342 C 517.436 1.65633 1.01387 0
M  V30 5343 O 516.711 0.931648 1.70735 0
M  V30 5344 C 516.994 3.54492 -0.633043 0
M  V30 5345 C 516.847 3.96934 -2.11574 0
M  V30 5346 C 518.166 4.40039 -0.0735584 0
M  V30 5347 H 515.285 0.720544 -0.154871 0
M  V30 5348 H 517.927 1.58749 -1.04397 0
M  V30 5349 H 516.077 3.88361 -0.103775 0
M  V30 5350 H 517.749 3.73363 -2.7092 0
M  V30 5351 H 515.992 3.46984 -2.60354 0
M  V30 5352 H 516.663 5.05651 -2.21406 0
M  V30 5353 H 519.139 4.12764 -0.52585 0
M  V30 5354 H 518.015 5.48327 -0.250841 0
M  V30 5355 H 518.276 4.30124 1.02202 0
M  V30 5356 N 517.335 0.585699 1.46312 0
M  V30 5357 C 518.265 -0.133556 2.33118 0
M  V30 5358 C 519.246 -0.880707 1.45525 0
M  V30 5359 O 520.431 -0.855579 1.74337 0
M  V30 5360 C 517.561 -1.14585 3.27853 0
M  V30 5361 C 516.515 -0.513341 4.2491 0
M  V30 5362 C 515.841 -1.63231 5.09175 0
M  V30 5363 C 517.141 0.551413 5.19381 0
M  V30 5364 H 518.835 0.59121 2.93505 0
M  V30 5365 H 516.381 0.285761 1.41136 0
M  V30 5366 H 518.334 -1.65741 3.87438 0
M  V30 5367 H 517.058 -1.90093 2.65579 0
M  V30 5368 H 515.717 -0.0228349 3.66593 0
M  V30 5369 H 515.365 -2.37713 4.43285 0
M  V30 5370 H 515.065 -1.21473 5.74907 0
M  V30 5371 H 516.589 -2.14658 5.71624 0
M  V30 5372 H 518.003 0.124804 5.73164 0
M  V30 5373 H 516.4 0.889486 5.93471 0
M  V30 5374 H 517.47 1.43655 4.63132 0
M  V30 5375 N 518.813 -1.54241 0.323641 0
M  V30 5376 C 520.09 -1.92741 -0.333181 0
M  V30 5377 C 520.47 -1.25326 -1.69872 0
M  V30 5378 O 519.818 -0.396991 -2.25025 0
M  V30 5379 C 520.028 -3.46399 -0.425322 0
M  V30 5380 C 521.376 -4.19029 -0.68557 0
M  V30 5381 O 522.4 -3.52555 -0.50824 0
M  V30 5382 O 521.259 -5.36751 -1.02767 0
M  V30 5383 H 518.353 -0.804811 -0.190286 0
M  V30 5384 H 520.899 -1.65542 0.373361 0
M  V30 5385 H 519.671 -3.87643 0.533737 0
M  V30 5386 H 519.294 -3.79704 -1.17944 0
M  V30 5387 N 520.291 -0.0518155 -1.57515 0
M  V30 5388 C 521.707 0.304735 -1.56664 0
M  V30 5389 C 521.907 1.71395 -1.05953 0
M  V30 5390 O 520.963 2.42123 -0.716414 0
M  V30 5391 C 522.276 0.132614 -3.00407 0
M  V30 5392 C 523.824 0.20367 -3.12337 0
M  V30 5393 C 524.299 0.0600706 -4.57961 0
M  V30 5394 N 525.79 0.116326 -4.63054 0
M  V30 5395 C 526.525 0.0293363 -5.73392 0
M  V30 5396 N 526.021 -0.110038 -6.92713 0
M  V30 5397 N 527.814 0.0849651 -5.62036 0
M  V30 5398 H 519.965 -0.973056 -1.888 0
M  V30 5399 H 522.228 -0.377781 -0.869474 0
M  V30 5400 H 521.934 -0.839019 -3.41546 0
M  V30 5401 H 521.808 0.893376 -3.66468 0
M  V30 5402 H 524.195 1.16578 -2.71097 0
M  V30 5403 H 524.276 -0.587857 -2.48954 0
M  V30 5404 H 523.92 -0.898715 -4.99886 0
M  V30 5405 H 523.85 0.87075 -5.19351 0
M  V30 5406 H 526.341 0.22327 -3.7724 0
M  V30 5407 H 526.654 -0.169104 -7.72615 0
M  V30 5408 H 524.999 -0.145132 -6.94848 0
M  V30 5409 H 528.19 0.192411 -4.67704 0
M  V30 5410 H 528.363 0.0137131 -6.47999 0
M  V30 5411 N 521.769 1.56035 0.221574 0
M  V30 5412 C 522.997 1.8313 0.962864 0
M  V30 5413 C 523.412 0.630934 1.77946 0
M  V30 5414 O 522.769 -0.400519 1.78051 0
M  V30 5415 C 522.82 3.08742 1.88045 0
M  V30 5416 O 522.541 4.24147 1.09686 0
M  V30 5417 C 524.042 3.48824 2.73563 0
M  V30 5418 H 521.262 0.608775 0.282194 0
M  V30 5419 H 523.806 2.03124 0.23681 0
M  V30 5420 H 521.961 2.90723 2.56045 0
M  V30 5421 H 522.375 4.95505 1.71974 0
M  V30 5422 H 523.849 4.39752 3.3365 0
M  V30 5423 H 524.326 2.70575 3.45956 0
M  V30 5424 H 524.932 3.69282 2.10976 0
M  V30 5425 N 523.247 -0.488276 1.49845 0
M  V30 5426 C 524.195 -1.60917 1.67954 0
M  V30 5427 C 525.189 -1.6038 0.54539 0
M  V30 5428 O 526.395 -1.64736 0.7254 0
M  V30 5429 H 522.77 -0.533658 0.529824 0
M  V30 5430 H 524.741 -1.428 2.62013 0
M  V30 5431 C 523.49 -2.98975 1.77509 0
M  V30 5432 H 522.813 -3.00099 2.6416 0
M  V30 5433 H 524.253 -3.76906 1.9421 0
M  V30 5434 C 522.712 -3.3282 0.522745 0
M  V30 5435 O 523.242 -4.00208 -0.345866 0
M  V30 5436 N 521.448 -2.8808 0.381882 0
M  V30 5437 H 520.995 -2.33415 1.08974 0
M  V30 5438 H 520.953 -3.11091 -0.454929 0
M  V30 5439 N 524.725 -1.39134 -0.740242 0
M  V30 5440 C 525.973 -1.35803 -1.49673 0
M  V30 5441 C 526.294 0.0470897 -1.94943 0
M  V30 5442 O 525.564 0.997347 -1.68611 0
M  V30 5443 H 524.144 -0.499736 -0.555224 0
M  V30 5444 H 526.806 -1.73947 -0.879107 0
M  V30 5445 H 525.902 -2.0174 -2.38133 0
M  V30 5446 N 526.204 0.969867 -1.24223 0
M  V30 5447 C 527.151 2.06407 -1.0327 0
M  V30 5448 C 528.121 1.66014 0.0533 0
M  V30 5449 O 529.306 1.90533 -0.100896 0
M  V30 5450 C 526.446 3.3909 -0.641262 0
M  V30 5451 C 525.559 3.9269 -1.80051 0
M  V30 5452 C 524.694 5.13631 -1.35486 0
M  V30 5453 C 523.733 5.59423 -2.48419 0
M  V30 5454 N 522.87 6.71586 -2.04737 0
M  V30 5455 H 527.71 2.23663 -1.96923 0
M  V30 5456 H 525.247 1.09624 -0.980862 0
M  V30 5457 H 527.205 4.15323 -0.395351 0
M  V30 5458 H 525.835 3.21765 0.258269 0
M  V30 5459 H 524.887 3.13116 -2.16014 0
M  V30 5460 H 526.199 4.22636 -2.64916 0
M  V30 5461 H 525.353 5.97231 -1.0677 0
M  V30 5462 H 524.092 4.85364 -0.476722 0
M  V30 5463 H 523.097 4.74398 -2.77897 0
M  V30 5464 H 524.322 5.89705 -3.36786 0
M  V30 5465 H 522.268 6.45058 -1.19318 0
M  V30 5466 H 522.185 7.0097 -2.83156 0
M  V30 5467 H 523.453 7.58633 -1.79154 0
M  V30 5468 N 527.682 1.05563 1.17022 0
M  V30 5469 C 528.612 0.681026 2.23348 0
M  V30 5470 C 529.593 -0.322983 1.67005 0
M  V30 5471 O 530.778 -0.199746 1.9317 0
M  V30 5472 C 527.908 0.0589053 3.4725 0
M  V30 5473 C 526.862 0.988082 4.16438 0
M  V30 5474 C 526.188 0.229646 5.34207 0
M  V30 5475 C 527.488 2.31388 4.68249 0
M  V30 5476 H 529.182 1.56993 2.54938 0
M  V30 5477 H 526.728 0.756302 1.2254 0
M  V30 5478 H 528.681 -0.214982 4.20851 0
M  V30 5479 H 527.405 -0.864968 3.14938 0
M  V30 5480 H 526.064 1.24659 3.44754 0
M  V30 5481 H 525.712 -0.697111 4.98146 0
M  V30 5482 H 525.412 0.848815 5.81437 0
M  V30 5483 H 526.936 -0.0368694 6.10589 0
M  V30 5484 H 528.35 2.09964 5.33468 0
M  V30 5485 H 526.747 2.88736 5.26072 0
M  V30 5486 H 527.817 2.94982 3.84855 0
M  V30 5487 N 529.16 -1.33526 0.837174 0
M  V30 5488 C 530.409 -1.97098 0.428387 0
M  V30 5489 C 530.722 -1.67062 -1.01734 0
M  V30 5490 O 531.928 -2.24235 -1.53072 0
M  V30 5491 C 530.384 -3.52725 0.715075 0
M  V30 5492 C 529.992 -3.9164 2.17537 0
M  V30 5493 C 531.736 -4.22857 0.373154 0
M  V30 5494 C 529.643 -5.40237 2.40619 0
M  V30 5495 H 528.573 -0.737589 0.156455 0
M  V30 5496 H 531.224 -1.52169 1.02552 0
M  V30 5497 H 529.606 -3.95971 0.0475904 0
M  V30 5498 H 530.78 -3.59456 2.88319 0
M  V30 5499 H 529.095 -3.34485 2.4801 0
M  V30 5500 H 531.692 -5.32133 0.523264 0
M  V30 5501 H 532.035 -4.10647 -0.683708 0
M  V30 5502 H 532.568 -3.85135 0.995801 0
M  V30 5503 H 529.307 -5.57449 3.44864 0
M  V30 5504 H 528.827 -5.73887 1.74396 0
M  V30 5505 H 530.506 -6.07102 2.23688 0
M  V30 5506 N 530.638 -0.59345 -1.46 0
M  V30 5507 C 531.863 -0.0872365 -2.07216 0
M  V30 5508 C 532.288 1.2131 -1.43755 0
M  V30 5509 O 531.646 1.73528 -0.525152 0
M  V30 5510 C 531.694 0.0538197 -3.6056 0
M  V30 5511 O 530.798 1.10765 -3.97247 0
M  V30 5512 H 530.139 -0.0676598 -0.660544 0
M  V30 5513 H 532.669 -0.819445 -1.87473 0
M  V30 5514 H 532.679 0.256567 -4.07193 0
M  V30 5515 H 531.354 -0.895739 -4.0614 0
M  V30 5516 H 529.931 0.882501 -3.62307 0
M  V30 5517 N 532.116 1.54067 -0.331816 0
M  V30 5518 C 533.079 2.23275 0.517768 0
M  V30 5519 C 534.079 1.22897 1.03697 0
M  V30 5520 O 535.269 1.47419 0.928084 0
M  V30 5521 C 532.401 2.94326 1.72004 0
M  V30 5522 H 533.594 2.99773 -0.0873507 0
M  V30 5523 H 531.147 1.56079 -0.0830042 0
M  V30 5524 H 531.882 2.21986 2.36417 0
M  V30 5525 H 531.667 3.67941 1.35507 0
M  V30 5526 H 533.157 3.47031 2.32291 0
M  V30 5527 N 533.594 0.0601682 1.57485 0
M  V30 5528 C 534.504 -0.926121 2.15546 0
M  V30 5529 C 535.52 -1.33532 1.11558 0
M  V30 5530 O 536.696 -1.4104 1.4377 0
M  V30 5531 C 533.761 -2.17952 2.69625 0
M  V30 5532 C 532.822 -1.82783 3.88444 0
M  V30 5533 C 532.055 -3.02148 4.39935 0
M  V30 5534 O 532.278 -4.15803 3.90466 0
M  V30 5535 O 531.212 -2.82639 5.31412 0
M  V30 5536 H 535.038 -0.462289 3.00161 0
M  V30 5537 H 532.623 -0.162246 1.48516 0
M  V30 5538 H 534.505 -2.91474 3.04337 0
M  V30 5539 H 533.18 -2.63456 1.88077 0
M  V30 5540 H 532.087 -1.06549 3.58606 0
M  V30 5541 H 533.42 -1.42072 4.7125 0
M  V30 5542 N 535.072 -1.5615 -0.213296 0
M  V30 5543 C 536.019 -1.93086 -1.26437 0
M  V30 5544 C 536.989 -0.789086 -1.4616 0
M  V30 5545 O 538.174 -1.04569 -1.59593 0
M  V30 5546 C 535.314 -2.26003 -2.608 0
M  V30 5547 C 534.427 -3.53156 -2.48807 0
M  V30 5548 C 533.562 -3.7548 -3.7575 0
M  V30 5549 C 532.601 -4.96119 -3.58514 0
M  V30 5550 N 531.738 -5.14791 -4.77425 0
M  V30 5551 H 536.578 -2.82707 -0.942376 0
M  V30 5552 H 534.115 -1.39919 -0.454001 0
M  V30 5553 H 536.073 -2.431 -3.39055 0
M  V30 5554 H 534.703 -1.39546 -2.91079 0
M  V30 5555 H 533.755 -3.44207 -1.61944 0
M  V30 5556 H 535.067 -4.41565 -2.31996 0
M  V30 5557 H 534.221 -3.92718 -4.62447 0
M  V30 5558 H 532.96 -2.85368 -3.95495 0
M  V30 5559 H 531.965 -4.78823 -2.70201 0
M  V30 5560 H 533.19 -5.87724 -3.40231 0
M  V30 5561 H 531.136 -4.27623 -4.97468 0
M  V30 5562 H 531.053 -5.97347 -4.63371 0
M  V30 5563 H 532.321 -5.36471 -5.65525 0
M  V30 5564 N 536.55 0.480323 -1.50102 0
M  V30 5565 C 537.797 1.23307 -1.60629 0
M  V30 5566 C 538.125 1.92135 -0.302375 0
M  V30 5567 O 537.38 1.82321 0.711154 0
M  V30 5568 C 537.679 2.30708 -2.72963 0
M  V30 5569 C 537.345 1.79195 -4.13763 0
M  V30 5570 C 536.007 1.64867 -4.52076 0
M  V30 5571 C 538.359 1.40878 -5.018 0
M  V30 5572 C 535.687 1.10631 -5.76175 0
M  V30 5573 C 538.039 0.880872 -6.26437 0
M  V30 5574 C 536.703 0.724146 -6.6356 0
M  V30 5575 H 535.973 0.451211 -0.587784 0
M  V30 5576 H 538.62 0.53051 -1.84005 0
M  V30 5577 H 536.925 3.06834 -2.43639 0
M  V30 5578 H 538.622 2.88692 -2.78313 0
M  V30 5579 H 535.212 1.91313 -3.83533 0
M  V30 5580 H 539.396 1.50786 -4.7284 0
M  V30 5581 H 534.652 0.972263 -6.0362 0
M  V30 5582 H 538.826 0.575269 -6.9402 0
M  V30 5583 H 536.453 0.301722 -7.59601 0
M  V30 5584 N 538.028 1.39524 0.732853 0
M  V30 5585 C 539.276 1.36594 1.48951 0
M  V30 5586 C 539.597 -0.0367507 1.94965 0
M  V30 5587 O 538.867 -0.988391 1.69138 0
M  V30 5588 H 537.447 0.502673 0.552566 0
M  V30 5589 H 540.109 1.74411 0.869869 0
M  V30 5590 H 539.205 2.03 2.3706 0
M  V30 5591 N 539.506 -0.963266 1.24736 0
M  V30 5592 C 540.453 -2.05857 1.04363 0
M  V30 5593 C 541.423 -1.6604 -0.0444951 0
M  V30 5594 O 542.608 -1.90477 0.110999 0
M  V30 5595 C 539.748 -3.38745 0.659235 0
M  V30 5596 C 538.861 -3.9173 1.82131 0
M  V30 5597 C 537.996 -5.12906 1.38208 0
M  V30 5598 C 537.035 -5.58098 2.51382 0
M  V30 5599 N 536.172 -6.7049 2.08295 0
M  V30 5600 H 541.012 -2.22616 1.98107 0
M  V30 5601 H 538.549 -1.09103 0.986661 0
M  V30 5602 H 540.507 -4.15107 0.417371 0
M  V30 5603 H 539.137 -3.21898 -0.241201 0
M  V30 5604 H 538.189 -3.11966 2.17672 0
M  V30 5605 H 539.501 -4.21225 2.67153 0
M  V30 5606 H 538.655 -5.96657 1.09935 0
M  V30 5607 H 537.394 -4.85105 0.502456 0
M  V30 5608 H 536.399 -4.72917 2.80409 0
M  V30 5609 H 537.624 -5.87911 3.39909 0
M  V30 5610 H 535.57 -6.44416 1.22737 0
M  V30 5611 H 535.487 -6.99458 2.86869 0
M  V30 5612 H 536.755 -7.57672 1.83175 0
M  V30 5613 N 540.985 -1.06182 -1.16461 0
M  V30 5614 C 542.231 -0.779015 -1.87241 0
M  V30 5615 C 542.564 0.692715 -1.81425 0
M  V30 5616 O 541.839 1.5074 -1.22913 0
M  V30 5617 C 542.122 -1.2728 -3.36856 0
M  V30 5618 C 541.975 -2.80821 -3.51368 0
M  V30 5619 C 543.294 -0.879799 -4.31216 0
M  V30 5620 H 540.413 -0.284464 -0.679889 0
M  V30 5621 H 543.055 -1.31755 -1.36896 0
M  V30 5622 H 541.205 -0.814673 -3.79862 0
M  V30 5623 H 542.877 -3.34833 -3.17308 0
M  V30 5624 H 541.12 -3.19606 -2.93316 0
M  V30 5625 H 541.791 -3.10435 -4.56436 0
M  V30 5626 H 544.267 -1.27436 -3.96105 0
M  V30 5627 H 543.143 -1.25278 -5.34412 0
M  V30 5628 H 543.404 0.215372 -4.41575 0
M  V30 5629 N 542.463 1.3308 -0.844243 0
M  V30 5630 C 543.691 2.01808 -0.456203 0
M  V30 5631 C 544.106 1.63498 0.944131 0
M  V30 5632 O 543.463 0.85102 1.61443 0
M  V30 5633 C 543.514 3.56922 -0.573513 0
M  V30 5634 O 543.235 3.93851 -1.91868 0
M  V30 5635 C 544.736 4.42922 -0.183125 0
M  V30 5636 H 541.956 0.646273 -0.180477 0
M  V30 5637 H 544.5 1.69891 -1.1383 0
M  V30 5638 H 542.655 3.87352 0.0607367 0
M  V30 5639 H 543.069 4.88564 -1.90802 0
M  V30 5640 H 544.543 5.51093 -0.316241 0
M  V30 5641 H 545.02 4.30386 0.875477 0
M  V30 5642 H 545.626 4.1786 -0.792027 0
M  V30 5643 N 543.941 0.601185 1.45683 0
M  V30 5644 C 545.187 0.102425 2.03142 0
M  V30 5645 C 545.542 -1.25066 1.46207 0
M  V30 5646 O 544.835 -1.81126 0.624806 0
M  V30 5647 C 545.029 -0.00222425 3.574 0
M  V30 5648 C 544.858 1.33917 4.29298 0
M  V30 5649 C 543.628 1.91818 4.67476 0
M  V30 5650 C 545.826 2.26652 4.61664 0
M  V30 5651 N 543.808 3.19504 5.24204 0
M  V30 5652 C 545.179 3.38933 5.19157 0
M  V30 5653 C 547.234 2.26103 4.43601 0
M  V30 5654 C 545.937 4.50823 5.60492 0
M  V30 5655 C 547.963 3.37036 4.85964 0
M  V30 5656 C 547.325 4.48039 5.43545 0
M  V30 5657 H 543.424 0.0806974 0.777825 0
M  V30 5658 H 546.008 0.798134 1.77589 0
M  V30 5659 H 544.179 -0.66714 3.82627 0
M  V30 5660 H 545.911 -0.507058 4.01511 0
M  V30 5661 H 542.666 1.45097 4.50826 0
M  V30 5662 H 543.09 3.84705 5.57073 0
M  V30 5663 H 547.732 1.41547 3.98402 0
M  V30 5664 H 545.45 5.36108 6.0466 0
M  V30 5665 H 549.036 3.37752 4.73725 0
M  V30 5666 H 547.916 5.32459 5.75723 0
M  V30 5667 N 545.419 -1.53889 0.339982 0
M  V30 5668 C 546.382 -2.23547 -0.50592 0
M  V30 5669 C 547.382 -1.23445 -1.03044 0
M  V30 5670 O 548.572 -1.47909 -0.920253 0
M  V30 5671 C 545.704 -2.95234 -1.7044 0
M  V30 5672 H 546.897 -2.99722 0.103247 0
M  V30 5673 H 544.45 -1.56033 0.0912804 0
M  V30 5674 H 545.185 -2.23236 -2.35236 0
M  V30 5675 H 544.97 -3.68654 -1.33553 0
M  V30 5676 H 546.46 -3.48258 -2.30447 0
M  V30 5677 N 546.897 -0.0685191 -1.57451 0
M  V30 5678 C 547.807 0.914677 -2.16034 0
M  V30 5679 C 548.823 1.32938 -1.12265 0
M  V30 5680 O 549.999 1.40275 -1.44516 0
M  V30 5681 C 547.064 2.16519 -2.70777 0
M  V30 5682 C 546.125 1.80721 -3.89408 0
M  V30 5683 C 545.358 2.9981 -4.41531 0
M  V30 5684 O 545.581 4.13727 -3.92666 0
M  V30 5685 O 544.515 2.79817 -5.32903 0
M  V30 5686 H 548.341 0.446364 -3.00402 0
M  V30 5687 H 545.926 0.154367 -1.486 0
M  V30 5688 H 547.808 2.89856 -3.05878 0
M  V30 5689 H 546.483 2.62454 -1.89471 0
M  V30 5690 H 545.39 1.04646 -3.59166 0
M  V30 5691 H 546.723 1.39571 -4.71997 0
M  V30 5692 N 548.375 1.56261 0.205012 0
M  V30 5693 C 549.322 1.93754 1.25411 0
M  V30 5694 C 550.292 0.796826 1.45739 0
M  V30 5695 O 551.477 1.05414 1.59036 0
M  V30 5696 C 548.617 2.27383 2.59598 0
M  V30 5697 C 547.73 3.5447 2.46931 0
M  V30 5698 C 546.865 3.77468 3.73753 0
M  V30 5699 C 545.904 4.98014 3.55877 0
M  V30 5700 N 545.041 5.17316 4.74688 0
M  V30 5701 H 549.881 2.83203 0.92737 0
M  V30 5702 H 547.418 1.40158 0.446574 0
M  V30 5703 H 549.376 2.44895 3.37761 0
M  V30 5704 H 548.006 1.41088 2.90335 0
M  V30 5705 H 547.058 3.45061 1.60116 0
M  V30 5706 H 548.37 4.42789 2.29651 0
M  V30 5707 H 547.524 3.95165 4.60358 0
M  V30 5708 H 546.263 2.87461 3.93976 0
M  V30 5709 H 545.268 4.80249 2.67657 0
M  V30 5710 H 546.493 5.8952 3.37109 0
M  V30 5711 H 544.439 4.30255 4.95194 0
M  V30 5712 H 544.356 5.99796 4.60197 0
M  V30 5713 H 545.624 5.39463 5.62672 0
M  V30 5714 N 549.853 -0.472356 1.50355 0
M  V30 5715 C 551.099 -1.22634 1.6152 0
M  V30 5716 C 551.432 -1.91645 0.313995 0
M  V30 5717 O 550.707 -1.82059 -0.684446 0
M  V30 5718 C 550.99 -2.27099 2.7946 0
M  V30 5719 C 550.843 -1.62402 4.19459 0
M  V30 5720 C 552.162 -3.28421 2.92964 0
M  V30 5721 H 549.281 -0.444494 0.587873 0
M  V30 5722 H 551.923 -0.520321 1.82737 0
M  V30 5723 H 550.073 -2.87314 2.61501 0
M  V30 5724 H 551.745 -1.05793 4.49005 0
M  V30 5725 H 549.988 -0.927184 4.23776 0
M  V30 5726 H 550.659 -2.38309 4.97909 0
M  V30 5727 H 553.135 -2.78227 3.09401 0
M  V30 5728 H 552.011 -3.98845 3.77113 0
M  V30 5729 H 552.272 -3.92467 2.03525 0
M  V30 5730 N 551.331 -1.39911 -0.725443 0
M  V30 5731 C 552.608 -1.28158 -1.47766 0
M  V30 5732 C 552.988 0.104545 -2.10841 0
M  V30 5733 O 552.336 1.11657 -1.99361 0
M  V30 5734 C 552.546 -2.41306 -2.52135 0
M  V30 5735 C 553.894 -2.81076 -3.18247 0
M  V30 5736 O 554.918 -2.40827 -2.62452 0
M  V30 5737 O 553.777 -3.50581 -4.19231 0
M  V30 5738 H 550.871 -0.502761 -0.656628 0
M  V30 5739 H 553.417 -1.51808 -0.758456 0
M  V30 5740 H 552.189 -3.33932 -2.03974 0
M  V30 5741 H 551.812 -2.19374 -3.31603 0
M  V30 5742 N 552.809 0.956637 -1.25245 0
M  V30 5743 C 553.739 2.07058 -1.07931 0
M  V30 5744 C 554.72 1.70096 0.0110361 0
M  V30 5745 O 555.905 1.93555 -0.158121 0
M  V30 5746 C 553.035 3.40272 -0.695124 0
M  V30 5747 C 551.989 3.91235 -1.73549 0
M  V30 5748 C 551.315 5.20921 -1.20604 0
M  V30 5749 C 552.615 4.17837 -3.13385 0
M  V30 5750 H 554.309 2.218 -2.01109 0
M  V30 5751 H 551.855 1.06581 -0.968326 0
M  V30 5752 H 553.808 4.1765 -0.560949 0
M  V30 5753 H 552.532 3.25462 0.272355 0
M  V30 5754 H 551.191 3.16025 -1.85807 0
M  V30 5755 H 550.839 5.02479 -0.228846 0
M  V30 5756 H 550.539 5.55987 -1.90136 0
M  V30 5757 H 552.063 6.00897 -1.08421 0
M  V30 5758 H 553.477 4.8588 -3.04292 0
M  V30 5759 H 551.874 4.64154 -3.80369 0
M  V30 5760 H 552.944 3.2419 -3.60595 0
M  V30 5761 N 554.287 1.06798 1.15896 0
M  V30 5762 C 555.25 0.687328 2.18651 0
M  V30 5763 C 556.25 -0.269559 1.58524 0
M  V30 5764 O 557.44 -0.0512627 1.74125 0
M  V30 5765 C 554.572 0.0121642 3.40898 0
M  V30 5766 H 555.765 1.59701 2.53842 0
M  V30 5767 H 553.318 0.863828 1.3026 0
M  V30 5768 H 554.053 -0.910025 3.1127 0
M  V30 5769 H 553.838 0.700309 3.85795 0
M  V30 5770 H 555.328 -0.239703 4.16911 0
M  V30 5771 N 555.766 -1.3263 0.851289 0
M  V30 5772 C 556.994 -2.01563 0.466899 0
M  V30 5773 C 557.409 -1.63996 -0.935447 0
M  V30 5774 O 556.766 -0.85957 -1.6099 0
M  V30 5775 C 556.817 -3.56613 0.592433 0
M  V30 5776 O 556.538 -3.92828 1.93954 0
M  V30 5777 C 558.039 -4.42818 0.206612 0
M  V30 5778 H 555.259 -0.645307 0.183902 0
M  V30 5779 H 557.803 -1.69285 1.1473 0
M  V30 5780 H 555.958 -3.87379 -0.0401936 0
M  V30 5781 H 556.372 -4.87545 1.9339 0
M  V30 5782 H 557.846 -5.50918 0.345462 0
M  V30 5783 H 558.323 -4.30844 -0.85264 0
M  V30 5784 H 558.929 -4.17434 0.814176 0
M  V30 5785 N 557.244 -0.608902 -1.45362 0
M  V30 5786 C 558.492 -0.104401 -2.0183 0
M  V30 5787 C 558.813 1.27007 -1.47967 0
M  V30 5788 O 558.083 1.83924 -0.674455 0
M  V30 5789 H 556.663 -0.0356042 -0.746151 0
M  V30 5790 H 559.325 -0.790596 -1.78145 0
M  V30 5791 H 558.421 -0.0551793 -3.12051 0
M  V30 5792 N 558.722 1.53707 -0.348139 0
M  V30 5793 C 560.138 1.596 0.00361134 0
M  V30 5794 C 560.338 1.36394 1.4832 0
M  V30 5795 O 559.394 1.16046 2.24253 0
M  V30 5796 C 560.707 2.97512 -0.436682 0
M  V30 5797 C 562.255 3.10568 -0.389416 0
M  V30 5798 C 562.73 4.50866 -0.805249 0
M  V30 5799 N 564.221 4.56929 -0.759616 0
M  V30 5800 C 564.956 5.63643 -1.05327 0
M  V30 5801 N 564.452 6.78189 -1.41531 0
M  V30 5802 N 566.245 5.5354 -0.977207 0
M  V30 5803 H 558.396 1.67044 -1.31187 0
M  V30 5804 H 560.659 0.782559 -0.535075 0
M  V30 5805 H 560.365 3.19575 -1.46849 0
M  V30 5806 H 560.239 3.76742 0.185744 0
M  V30 5807 H 562.626 2.88226 0.633228 0
M  V30 5808 H 562.707 2.33387 -1.04711 0
M  V30 5809 H 562.351 4.73943 -1.82593 0
M  V30 5810 H 562.281 5.26452 -0.124989 0
M  V30 5811 H 564.772 3.74675 -0.49265 0
M  V30 5812 H 565.085 7.55541 -1.62411 0
M  V30 5813 H 563.43 6.79624 -1.45381 0
M  V30 5814 H 566.621 4.62932 -0.693675 0
M  V30 5815 H 566.794 6.36614 -1.2094 0
M  V30 5816 N 560.2 0.0768682 1.57412 0
M  V30 5817 C 561.611 -0.455037 1.8107 0
M  V30 5818 C 561.962 -1.69323 0.991162 0
M  V30 5819 O 561.087 -2.15328 0.215156 0
M  V30 5820 C 561.682 -0.832316 3.28417 0
M  V30 5821 C 560.241 -1.30906 3.52903 0
M  V30 5822 C 559.388 -0.296714 2.75708 0
M  V30 5823 H 562.339 0.302514 1.5579 0
M  V30 5824 H 562.36 -1.69333 3.40744 0
M  V30 5825 H 561.872 0.0690532 3.88039 0
M  V30 5826 H 559.973 -2.22875 2.98592 0
M  V30 5827 H 560.086 -1.28348 4.61588 0
M  V30 5828 H 558.45 -0.775059 2.42621 0
M  V30 5829 H 559.233 0.597015 3.38069 0
M  V30 5830 N 561.678 -1.56367 -0.196722 0
M  V30 5831 C 562.924 -1.80796 -0.918725 0
M  V30 5832 C 563.257 -0.650645 -1.82976 0
M  V30 5833 O 562.532 0.348889 -1.91345 0
M  V30 5834 C 562.815 -3.15472 -1.73636 0
M  V30 5835 C 562.668 -4.41693 -0.85015 0
M  V30 5836 C 563.987 -3.46824 -2.70927 0
M  V30 5837 H 561.106 -0.657702 -0.332561 0
M  V30 5838 H 563.748 -1.89086 -0.186186 0
M  V30 5839 H 561.898 -3.08536 -2.36088 0
M  V30 5840 H 563.57 -4.60673 -0.240459 0
M  V30 5841 H 561.813 -4.33517 -0.156785 0
M  V30 5842 H 562.484 -5.32419 -1.45719 0
M  V30 5843 H 564.96 -3.54049 -2.18607 0
M  V30 5844 H 563.836 -4.4218 -3.25219 0
M  V30 5845 H 564.097 -2.70236 -3.49893 0
M  V30 5846 N 563.156 0.464375 -1.50603 0
M  V30 5847 C 564.066 1.58723 -1.72754 0
M  V30 5848 C 565.082 1.62925 -0.610844 0
M  V30 5849 O 566.258 1.8067 -0.889963 0
M  V30 5850 C 563.323 2.94897 -1.82309 0
M  V30 5851 C 562.384 3.0103 -3.06071 0
M  V30 5852 C 561.617 4.30708 -3.1516 0
M  V30 5853 O 561.84 5.2159 -2.30868 0
M  V30 5854 O 560.774 4.42571 -4.0794 0
M  V30 5855 H 564.6 1.42954 -2.67951 0
M  V30 5856 H 562.185 0.644579 -1.3478 0
M  V30 5857 H 564.067 3.75764 -1.90735 0
M  V30 5858 H 562.742 3.10851 -0.902967 0
M  V30 5859 H 561.649 2.19217 -3.03142 0
M  V30 5860 H 562.982 2.90014 -3.97684 0
M  V30 5861 N 564.634 1.40294 0.718013 0
M  V30 5862 C 565.597 1.4012 1.81381 0
M  V30 5863 C 566.597 0.295405 1.58063 0
M  V30 5864 O 567.787 0.554187 1.6515 0
M  V30 5865 C 564.919 1.19056 3.19435 0
M  V30 5866 H 566.112 2.37645 1.82933 0
M  V30 5867 H 563.665 1.26107 0.923405 0
M  V30 5868 H 564.4 0.222809 3.23534 0
M  V30 5869 H 564.185 1.99152 3.37758 0
M  V30 5870 H 565.675 1.21716 3.99468 0
M  V30 5871 N 566.112 -0.949982 1.2575 0
M  V30 5872 C 567.523 -1.50989 1.09815 0
M  V30 5873 C 567.874 -1.93497 -0.324556 0
M  V30 5874 O 566.999 -1.79068 -1.21506 0
M  V30 5875 C 567.594 -2.74394 1.98729 0
M  V30 5876 C 566.153 -3.26682 1.86965 0
M  V30 5877 C 565.3 -1.99498 1.92603 0
M  V30 5878 H 568.251 -0.766387 1.38968 0
M  V30 5879 H 568.272 -3.48383 1.53001 0
M  V30 5880 H 567.784 -2.43425 3.02268 0
M  V30 5881 H 565.885 -3.62461 0.863279 0
M  V30 5882 H 565.998 -3.94383 2.72027 0
M  V30 5883 H 564.362 -2.15005 1.36546 0
M  V30 5884 H 565.145 -1.70871 2.97755 0
M  V30 5885 N 567.59 -1.07411 -1.15328 0
M  V30 5886 C 568.838 -0.796073 -1.85761 0
M  V30 5887 C 569.159 0.679864 -1.82764 0
M  V30 5888 O 568.429 1.49242 -1.269 0
M  V30 5889 H 567.009 -0.291495 -0.687779 0
M  V30 5890 H 569.671 -1.35799 -1.39802 0
M  V30 5891 H 568.767 -1.13114 -2.90881 0
M  V30 5892 N 569.068 1.32177 -0.85831 0
M  V30 5893 C 570.314 1.97417 -0.46417 0
M  V30 5894 C 570.647 1.67746 0.978514 0
M  V30 5895 O 569.922 0.967654 1.68721 0
M  V30 5896 C 570.205 3.53069 -0.708094 0
M  V30 5897 C 570.058 3.92357 -2.19946 0
M  V30 5898 C 571.377 4.39783 -0.166881 0
M  V30 5899 H 568.496 0.717097 -0.17012 0
M  V30 5900 H 571.138 1.56499 -1.07741 0
M  V30 5901 H 569.288 3.88054 -0.186128 0
M  V30 5902 H 570.96 3.67533 -2.78779 0
M  V30 5903 H 569.203 3.41384 -2.67656 0
M  V30 5904 H 569.874 5.00841 -2.32082 0
M  V30 5905 H 572.35 4.11556 -0.613285 0
M  V30 5906 H 571.226 5.47671 -0.367093 0
M  V30 5907 H 571.487 4.32196 0.930559 0
M  V30 5908 N 570.547 0.616602 1.45037 0
M  V30 5909 C 571.963 0.280994 1.57107 0
M  V30 5910 C 572.163 -1.21627 1.60653 0
M  V30 5911 O 571.219 -1.9997 1.54169 0
M  V30 5912 C 572.532 0.960116 2.8496 0
M  V30 5913 C 574.08 0.936884 2.98649 0
M  V30 5914 C 574.555 1.59619 4.29285 0
M  V30 5915 N 576.046 1.5621 4.36065 0
M  V30 5916 C 576.781 2.04131 5.35834 0
M  V30 5917 N 576.277 2.60177 6.4209 0
M  V30 5918 N 578.07 1.94845 5.27249 0
M  V30 5919 H 570.221 1.58867 1.40979 0
M  V30 5920 H 572.484 0.666024 0.674623 0
M  V30 5921 H 572.19 2.01473 2.88273 0
M  V30 5922 H 572.064 0.488921 3.74018 0
M  V30 5923 H 574.451 -0.109209 2.94898 0
M  V30 5924 H 574.532 1.44643 2.10979 0
M  V30 5925 H 574.176 2.64166 4.33796 0
M  V30 5926 H 574.106 1.06159 5.15789 0
M  V30 5927 H 576.597 1.15276 3.59889 0
M  V30 5928 H 576.91 2.94513 7.1448 0
M  V30 5929 H 575.255 2.64221 6.42816 0
M  V30 5930 H 578.446 1.50792 4.43147 0
M  V30 5931 H 578.619 2.32504 6.04852 0
M  V30 5932 N 572.025 -1.5352 0.356285 0
M  V30 5933 C 573.255 -2.05236 -0.236983 0
M  V30 5934 C 573.663 -1.23016 -1.43749 0
M  V30 5935 O 573.006 -0.2615 -1.81829 0
M  V30 5936 C 573.068 -3.52549 -0.7035 0
M  V30 5937 C 572.732 -4.55425 0.379059 0
M  V30 5938 C 573.729 -5.0524 1.22592 0
M  V30 5939 C 571.414 -4.99425 0.536638 0
M  V30 5940 C 573.408 -5.97647 2.21578 0
M  V30 5941 C 571.095 -5.9164 1.52988 0
M  V30 5942 C 572.093 -6.4064 2.3679 0
M  V30 5943 O 571.781 -7.31039 3.34421 0
M  V30 5944 H 571.513 -0.674346 -0.047254 0
M  V30 5945 H 574.067 -1.98962 0.510238 0
M  V30 5946 H 572.297 -3.56331 -1.50217 0
M  V30 5947 H 573.986 -3.87171 -1.21873 0
M  V30 5948 H 574.752 -4.72002 1.11532 0
M  V30 5949 H 570.631 -4.60879 -0.105834 0
M  V30 5950 H 574.175 -6.35816 2.87025 0
M  V30 5951 H 570.072 -6.24293 1.64099 0
M  V30 5952 H 570.84 -7.49009 3.30041 0
M  V30 5953 N 573.503 -0.0852151 -1.57369 0
M  V30 5954 C 574.413 0.891712 -2.16992 0
M  V30 5955 C 575.429 1.3174 -1.13669 0
M  V30 5956 O 576.605 1.38735 -1.45995 0
M  V30 5957 C 573.67 2.13635 -2.73059 0
M  V30 5958 C 572.731 1.7658 -3.91303 0
M  V30 5959 C 571.964 2.95111 -4.44686 0
M  V30 5960 O 572.187 4.09539 -3.97032 0
M  V30 5961 O 571.121 2.74149 -5.35841 0
M  V30 5962 H 574.947 0.414477 -3.00858 0
M  V30 5963 H 572.532 0.138598 -1.48756 0
M  V30 5964 H 574.414 2.86595 -3.08935 0
M  V30 5965 H 573.089 2.6043 -1.92244 0
M  V30 5966 H 571.996 1.00831 -3.60255 0
M  V30 5967 H 573.329 1.34557 -4.7345 0
M  V30 5968 N 574.981 1.5647 0.188427 0
M  V30 5969 C 575.928 1.95073 1.23349 0
M  V30 5970 C 576.898 0.812238 1.44886 0
M  V30 5971 O 578.083 1.07095 1.57909 0
M  V30 5972 C 575.223 2.30124 2.57171 0
M  V30 5973 C 574.336 3.57069 2.43157 0
M  V30 5974 C 573.471 3.81411 3.69729 0
M  V30 5975 C 572.51 5.0176 3.50575 0
M  V30 5976 N 571.647 5.22321 4.69175 0
M  V30 5977 H 576.487 2.84171 0.89728 0
M  V30 5978 H 574.024 1.40623 0.431683 0
M  V30 5979 H 575.982 2.48463 3.35145 0
M  V30 5980 H 574.612 1.44159 2.88822 0
M  V30 5981 H 573.664 3.4674 1.56447 0
M  V30 5982 H 574.976 4.452 2.24942 0
M  V30 5983 H 574.13 4.00026 4.56141 0
M  V30 5984 H 572.869 2.91624 3.90905 0
M  V30 5985 H 571.874 4.83061 2.62549 0
M  V30 5986 H 573.099 5.93063 3.30837 0
M  V30 5987 H 571.045 4.35483 4.90602 0
M  V30 5988 H 570.962 6.04643 4.53809 0
M  V30 5989 H 572.23 5.45401 5.56919 0
M  V30 5990 N 576.459 -0.456382 1.50847 0
M  V30 5991 C 577.369 -1.57805 1.73594 0
M  V30 5992 C 578.385 -1.62599 0.619476 0
M  V30 5993 O 579.561 -1.80195 0.899532 0
M  V30 5994 C 576.626 -2.93926 1.8387 0
M  V30 5995 C 575.687 -2.99402 3.07663 0
M  V30 5996 C 574.92 -4.29031 3.1744 0
M  V30 5997 O 575.143 -5.20358 2.33631 0
M  V30 5998 O 574.077 -4.40401 4.10281 0
M  V30 5999 H 577.903 -1.41531 2.68705 0
M  V30 6000 H 575.488 -0.637422 1.3512 0
M  V30 6001 H 577.37 -3.74747 1.92725 0
M  V30 6002 H 576.045 -3.10368 0.91944 0
M  V30 6003 H 574.952 -2.17606 3.043 0
M  V30 6004 H 576.285 -2.87901 3.99216 0
M  V30 6005 N 577.937 -1.40673 -0.710563 0
M  V30 6006 C 579.348 -1.34975 -1.28991 0
M  V30 6007 C 579.699 -0.0256272 -1.96183 0
M  V30 6008 O 578.824 0.876339 -1.97862 0
M  V30 6009 C 579.419 -2.44467 -2.34567 0
M  V30 6010 C 577.978 -2.42213 -2.88114 0
M  V30 6011 C 577.125 -2.25085 -1.61963 0
M  V30 6012 H 580.076 -1.50406 -0.506343 0
M  V30 6013 H 580.097 -2.12663 -3.15523 0
M  V30 6014 H 579.609 -3.40825 -1.85634 0
M  V30 6015 H 577.71 -1.49568 -3.41263 0
M  V30 6016 H 577.823 -3.37983 -3.39565 0
M  V30 6017 H 576.187 -1.72691 -1.87216 0
M  V30 6018 H 576.97 -3.23449 -1.15047 0
M  V30 6019 N 579.415 0.9433 -1.26252 0
M  V30 6020 C 580.664 1.68369 -1.11062 0
M  V30 6021 C 580.977 1.92514 0.346104 0
M  V30 6022 O 582.183 2.64358 0.618646 0
M  V30 6023 C 580.639 3.03171 -1.93946 0
M  V30 6024 C 580.247 2.86782 -3.4418 0
M  V30 6025 C 581.991 3.80916 -1.87359 0
M  V30 6026 C 579.898 4.17044 -4.19319 0
M  V30 6027 H 578.828 0.631469 -0.412023 0
M  V30 6028 H 581.479 1.04922 -1.50544 0
M  V30 6029 H 579.861 3.67587 -1.47296 0
M  V30 6030 H 581.035 2.31229 -3.98585 0
M  V30 6031 H 579.35 2.22482 -3.51981 0
M  V30 6032 H 581.947 4.77417 -2.40784 0
M  V30 6033 H 582.29 4.07658 -0.843857 0
M  V30 6034 H 582.823 3.2327 -2.31821 0
M  V30 6035 H 579.562 3.95487 -5.22753 0
M  V30 6036 H 579.082 4.72319 -3.69696 0
M  V30 6037 H 580.761 4.85513 -4.27651 0
M  V30 6038 N 580.893 1.08022 1.14757 0
M  V30 6039 C 582.139 0.808705 1.85978 0
M  V30 6040 C 582.472 -0.663764 1.82504 0
M  V30 6041 O 581.747 -1.48765 1.25296 0
M  V30 6042 C 582.03 1.32623 3.34788 0
M  V30 6043 C 581.883 2.86375 3.46856 0
M  V30 6044 C 583.202 0.948291 4.29762 0
M  V30 6045 H 580.321 0.295244 0.675278 0
M  V30 6046 H 582.963 1.33917 1.34783 0
M  V30 6047 H 581.113 0.875002 3.78518 0
M  V30 6048 H 582.785 3.39839 3.11941 0
M  V30 6049 H 581.028 3.24232 2.88194 0
M  V30 6050 H 581.699 3.17658 4.51439 0
M  V30 6051 H 584.175 1.33722 3.94028 0
M  V30 6052 H 583.051 1.33765 5.32352 0
M  V30 6053 H 583.312 -0.145094 4.41862 0
M  V30 6054 N 582.371 -1.3172 0.865308 0
M  V30 6055 C 583.304 -2.26687 0.262376 0
M  V30 6056 C 584.282 -1.50894 -0.605787 0
M  V30 6057 O 585.466 -1.79982 -0.56024 0
M  V30 6058 C 582.593 -3.3281 -0.628915 0
M  V30 6059 C 581.639 -4.26172 0.167278 0
M  V30 6060 S 582.472 -5.12797 1.54272 0
M  V30 6061 C 583.628 -6.22438 0.657427 0
M  V30 6062 H 583.861 -2.77478 1.0674 0
M  V30 6063 H 581.394 -1.39414 0.663555 0
M  V30 6064 H 583.352 -3.94426 -1.13747 0
M  V30 6065 H 582.013 -2.80782 -1.40785 0
M  V30 6066 H 581.206 -5.01392 -0.51203 0
M  V30 6067 H 580.808 -3.69029 0.607777 0
M  V30 6068 H 583.1 -6.77368 -0.133925 0
M  V30 6069 H 584.043 -6.9451 1.38061 0
M  V30 6070 H 584.451 -5.64043 0.227044 0
M  V30 6071 N 583.85 -0.624285 -1.44708 0
M  V30 6072 C 585.096 -0.13473 -2.02953 0
M  V30 6073 C 585.451 1.22724 -1.48178 0
M  V30 6074 O 584.744 1.80109 -0.653542 0
M  V30 6075 C 584.938 -0.0546353 -3.57358 0
M  V30 6076 C 584.767 -1.40729 -4.27113 0
M  V30 6077 C 583.537 -1.99231 -4.64365 0
M  V30 6078 C 585.735 -2.33968 -4.58 0
M  V30 6079 N 583.716 -3.27803 -5.19055 0
M  V30 6080 C 585.088 -3.47149 -5.137 0
M  V30 6081 C 587.143 -2.33132 -4.39948 0
M  V30 6082 C 585.846 -4.59682 -5.53249 0
M  V30 6083 C 587.872 -3.44724 -4.8054 0
M  V30 6084 C 587.234 -4.56629 -5.36348 0
M  V30 6085 H 583.332 -0.0930617 -0.776443 0
M  V30 6086 H 585.917 -0.826286 -1.76297 0
M  V30 6087 H 584.088 0.606183 -3.8364 0
M  V30 6088 H 585.82 0.443116 -4.02267 0
M  V30 6089 H 582.575 -1.52251 -4.4846 0
M  V30 6090 H 582.999 -3.93519 -5.50883 0
M  V30 6091 H 587.641 -1.47868 -3.961 0
M  V30 6092 H 585.359 -5.4566 -5.96054 0
M  V30 6093 H 588.945 -3.45245 -4.68291 0
M  V30 6094 H 587.825 -5.41551 -5.67179 0
M  V30 6095 N 585.328 1.53329 -0.364422 0
M  V30 6096 C 586.739 1.86345 0.115039 0
M  V30 6097 C 587.09 1.28505 1.4826 0
M  V30 6098 O 586.215 0.606639 2.07723 0
M  V30 6099 C 586.81 3.38114 0.215522 0
M  V30 6100 C 585.369 3.70932 0.639237 0
M  V30 6101 C 584.516 2.76471 -0.214261 0
M  V30 6102 H 587.467 1.47593 -0.583258 0
M  V30 6103 H 587.488 3.66031 1.0393 0
M  V30 6104 H 587 3.80182 -0.779948 0
M  V30 6105 H 585.101 3.3442 1.64298 0
M  V30 6106 H 585.214 4.77302 0.41465 0
M  V30 6107 H 583.578 2.52724 0.316678 0
M  V30 6108 H 584.361 3.21373 -1.20725 0
M  V30 6109 N 586.806 0.0935595 1.57322 0
M  V30 6110 C 588.031 -0.582324 1.99057 0
M  V30 6111 C 588.456 -1.61025 0.972242 0
M  V30 6112 O 587.814 -1.81202 -0.0594622 0
M  V30 6113 C 587.862 -1.20799 3.39765 0
M  V30 6114 O 586.966 -2.32382 3.40694 0
M  V30 6115 H 586.307 -0.147884 0.647323 0
M  V30 6116 H 588.837 0.174516 2.03854 0
M  V30 6117 H 588.847 -1.54966 3.77425 0
M  V30 6118 H 587.522 -0.454914 4.13405 0
M  V30 6119 H 586.099 -1.99845 3.14827 0
M  V30 6120 N 588.284 -1.56567 -0.180126 0
M  V30 6121 C 589.695 -1.7126 -0.743422 0
M  V30 6122 C 590.046 -0.70263 -1.83187 0
M  V30 6123 O 589.171 0.137856 -2.1596 0
M  V30 6124 C 589.766 -3.10512 -1.35528 0
M  V30 6125 C 588.325 -3.26919 -1.8655 0
M  V30 6126 C 587.472 -2.67213 -0.741099 0
M  V30 6127 H 590.423 -1.58636 0.0451543 0
M  V30 6128 H 590.444 -3.08673 -2.22489 0
M  V30 6129 H 589.956 -3.83997 -0.562862 0
M  V30 6130 H 588.057 -2.58376 -2.68464 0
M  V30 6131 H 588.17 -4.34574 -2.01699 0
M  V30 6132 H 586.534 -2.26788 -1.15927 0
M  V30 6133 H 587.317 -3.43277 0.0393291 0
M  V30 6134 N 589.762 0.448376 -1.51087 0
M  V30 6135 C 591.009 1.19872 -1.63209 0
M  V30 6136 C 591.337 1.91451 -0.343062 0
M  V30 6137 O 590.592 1.83789 0.672321 0
M  V30 6138 C 590.891 2.24866 -2.77795 0
M  V30 6139 C 590.557 1.70378 -4.17471 0
M  V30 6140 C 589.219 1.55241 -4.55471 0
M  V30 6141 C 591.571 1.30203 -5.04675 0
M  V30 6142 C 588.899 0.983844 -5.78392 0
M  V30 6143 C 591.251 0.747798 -6.28165 0
M  V30 6144 C 589.915 0.583233 -6.64947 0
M  V30 6145 H 589.185 0.438642 -0.597222 0
M  V30 6146 H 591.832 0.49136 -1.85089 0
M  V30 6147 H 590.137 3.01598 -2.50092 0
M  V30 6148 H 591.834 2.82723 -2.84374 0
M  V30 6149 H 588.424 1.83134 -3.87505 0
M  V30 6150 H 592.608 1.40723 -4.75932 0
M  V30 6151 H 587.864 0.844007 -6.05546 0
M  V30 6152 H 592.038 0.427927 -6.95084 0
M  V30 6153 H 589.665 0.140532 -7.6007 0
M  V30 6154 N 591.24 1.41047 0.703093 0
M  V30 6155 C 592.488 1.39723 1.4602 0
M  V30 6156 C 592.809 0.00461257 1.94999 0
M  V30 6157 O 592.079 -0.952292 1.71196 0
M  V30 6158 H 590.659 0.514281 0.541779 0
M  V30 6159 H 593.321 1.76217 0.832678 0
M  V30 6160 H 592.417 2.07982 2.32701 0
M  V30 6161 N 592.718 -0.936591 1.26751 0
M  V30 6162 C 593.681 -2.01752 1.08761 0
M  V30 6163 C 594.681 -1.60763 0.0344435 0
M  V30 6164 O 595.871 -1.71963 0.278258 0
M  V30 6165 C 593.003 -3.34543 0.655271 0
M  V30 6166 H 594.196 -2.19143 2.04735 0
M  V30 6167 H 591.749 -1.11618 1.09413 0
M  V30 6168 H 592.484 -3.22851 -0.30626 0
M  V30 6169 H 592.269 -3.65647 1.41578 0
M  V30 6170 H 593.759 -4.13944 0.551378 0
M  V30 6171 N 594.196 -1.08629 -1.14182 0
M  V30 6172 C 595.146 -0.687882 -2.17376 0
M  V30 6173 C 596.13 0.293632 -1.58198 0
M  V30 6174 O 597.322 0.105292 -1.76687 0
M  V30 6175 C 594.451 -0.101184 -3.43151 0
M  V30 6176 C 593.537 -1.10862 -4.09354 0
M  V30 6177 N 593.928 -2.29285 -4.50846 0
M  V30 6178 C 592.226 -0.944897 -4.35876 0
M  V30 6179 C 592.927 -2.93305 -5.02342 0
M  V30 6180 N 591.903 -2.20903 -4.96692 0
M  V30 6181 H 595.705 -1.58963 -2.472 0
M  V30 6182 H 593.219 -0.961329 -1.3089 0
M  V30 6183 H 595.216 0.202209 -4.16409 0
M  V30 6184 H 593.876 0.795522 -3.14804 0
M  V30 6185 H 594.887 -2.66927 -4.43813 0
M  V30 6186 H 591.564 -0.102186 -4.17375 0
M  V30 6187 H 592.954 -3.93932 -5.44304 0
M  V30 6188 N 595.674 1.31259 -0.872281 0
M  V30 6189 C 596.622 2.30404 -0.318897 0
M  V30 6190 C 597.616 1.5962 0.567267 0
M  V30 6191 O 598.822 1.74204 0.453111 0
M  V30 6192 H 595.197 0.747243 -0.0844474 0
M  V30 6193 H 597.168 2.74549 -1.16899 0
M  V30 6194 C 595.917 3.44608 0.462683 0
M  V30 6195 H 595.24 3.99248 -0.209936 0
M  V30 6196 H 596.68 4.1609 0.815187 0
M  V30 6197 C 595.139 2.93456 1.65485 0
M  V30 6198 O 595.669 2.92418 2.75417 0
M  V30 6199 N 593.875 2.49628 1.48776 0
M  V30 6200 H 593.422 2.50671 0.593452 0
M  V30 6201 H 593.38 2.15759 2.28682 0
M  V30 6202 N 597.152 0.631951 1.44375 0
M  V30 6203 C 598.398 0.145491 2.02879 0
M  V30 6204 C 598.753 -1.21936 1.48827 0
M  V30 6205 O 598.046 -1.7976 0.663085 0
M  V30 6206 C 598.24 0.0735861 3.57324 0
M  V30 6207 C 598.069 1.42992 4.2636 0
M  V30 6208 C 596.839 2.01691 4.63302 0
M  V30 6209 C 599.037 2.36393 4.56752 0
M  V30 6210 N 597.019 3.30551 5.17309 0
M  V30 6211 C 598.39 3.49869 5.11851 0
M  V30 6212 C 600.445 2.35462 4.38705 0
M  V30 6213 C 599.148 4.6261 5.50803 0
M  V30 6214 C 601.174 3.47268 4.78706 0
M  V30 6215 C 600.536 4.59467 5.33919 0
M  V30 6216 H 596.635 0.0971781 0.775938 0
M  V30 6217 H 599.219 0.835624 1.75856 0
M  V30 6218 H 597.39 -0.585829 3.83957 0
M  V30 6219 H 599.122 -0.421777 4.02496 0
M  V30 6220 H 595.877 1.54627 4.47647 0
M  V30 6221 H 596.301 3.96435 5.48788 0
M  V30 6222 H 600.943 1.49966 3.9531 0
M  V30 6223 H 598.661 5.48813 5.93152 0
M  V30 6224 H 602.247 3.47724 4.66454 0
M  V30 6225 H 601.127 5.44551 5.64299 0
M  V30 6226 N 598.631 -1.53133 0.372548 0
M  V30 6227 C 599.581 -2.22733 -0.487218 0
M  V30 6228 C 600.565 -1.22506 -1.04312 0
M  V30 6229 O 601.757 -1.47923 -0.972005 0
M  V30 6230 C 598.886 -3.02524 -1.62278 0
M  V30 6231 C 597.972 -4.10133 -1.07943 0
M  V30 6232 N 598.363 -5.05133 -0.259629 0
M  V30 6233 C 596.661 -4.24964 -1.35356 0
M  V30 6234 C 597.362 -5.81687 0.0386656 0
M  V30 6235 N 596.338 -5.40699 -0.560827 0
M  V30 6236 H 600.14 -2.93538 0.145853 0
M  V30 6237 H 597.654 -1.61389 0.180938 0
M  V30 6238 H 599.651 -3.50909 -2.25096 0
M  V30 6239 H 598.311 -2.33252 -2.25884 0
M  V30 6240 H 599.322 -5.178 0.101746 0
M  V30 6241 H 595.999 -3.66919 -1.9919 0
M  V30 6242 H 597.389 -6.68224 0.701841 0
M  V30 6243 N 600.109 -0.101901 -1.5727 0
M  V30 6244 C 601.334 0.571759 -1.99363 0
M  V30 6245 C 601.759 1.60507 -0.980768 0
M  V30 6246 O 601.117 1.81231 0.0498517 0
M  V30 6247 C 601.165 1.18996 -3.404 0
M  V30 6248 O 600.269 2.30572 -3.41922 0
M  V30 6249 H 599.61 0.144449 -0.648098 0
M  V30 6250 H 602.14 -0.185325 -2.03759 0
M  V30 6251 H 602.15 1.52962 -3.78241 0
M  V30 6252 H 600.825 0.432984 -4.1364 0
M  V30 6253 H 599.402 1.98173 -3.15883 0
M  V30 6254 N 601.587 1.56661 0.17182 0
M  V30 6255 C 602.52 1.91474 1.24149 0
M  V30 6256 C 603.498 0.777485 1.42807 0
M  V30 6257 O 604.682 1.03075 1.57822 0
M  V30 6258 C 601.809 2.16523 2.60453 0
M  V30 6259 C 600.855 3.39209 2.58533 0
M  V30 6260 S 601.688 4.93594 2.07665 0
M  V30 6261 C 602.844 5.21737 3.45747 0
M  V30 6262 H 603.077 2.81903 0.944346 0
M  V30 6263 H 600.61 1.49743 0.376364 0
M  V30 6264 H 602.568 2.31635 3.38903 0
M  V30 6265 H 601.229 1.26802 2.87368 0
M  V30 6266 H 600.422 3.53935 3.58812 0
M  V30 6267 H 600.024 3.2321 1.88178 0
M  V30 6268 H 602.316 5.13684 4.41741 0
M  V30 6269 H 603.259 6.23361 3.35896 0
M  V30 6270 H 603.667 4.49307 3.41736 0
M  V30 6271 N 603.065 -0.440357 1.51323 0
M  V30 6272 C 604.29 -1.21716 1.67928 0
M  V30 6273 C 604.715 -1.84328 0.374826 0
M  V30 6274 O 604.073 -1.68675 -0.664706 0
M  V30 6275 C 604.121 -2.27914 2.79442 0
M  V30 6276 O 603.225 -3.33325 2.42834 0
M  V30 6277 H 602.566 -0.35674 0.560029 0
M  V30 6278 H 605.096 -0.520417 1.97871 0
M  V30 6279 H 605.106 -2.72746 3.03436 0
M  V30 6280 H 603.781 -1.8172 3.741 0
M  V30 6281 H 602.358 -2.9399 2.294 0
M  V30 6282 N 604.543 -1.41418 -0.695603 0
M  V30 6283 C 605.79 -1.40774 -1.45564 0
M  V30 6284 C 606.118 -0.0168604 -1.94493 0
M  V30 6285 O 605.373 0.971259 -1.69897 0
M  V30 6286 C 605.672 -2.36112 -2.68302 0
M  V30 6287 C 605.338 -3.82952 -2.38031 0
M  V30 6288 C 604 -4.22954 -2.29486 0
M  V30 6289 C 606.352 -4.75662 -2.13061 0
M  V30 6290 C 603.68 -5.53674 -1.94067 0
M  V30 6291 C 606.032 -6.06702 -1.79151 0
M  V30 6292 C 604.696 -6.45725 -1.69102 0
M  V30 6293 H 603.966 -0.515128 -0.532658 0
M  V30 6294 H 606.613 -1.74216 -0.795047 0
M  V30 6295 H 604.918 -1.95924 -3.39295 0
M  V30 6296 H 606.615 -2.32887 -3.26442 0
M  V30 6297 H 603.205 -3.5127 -2.45576 0
M  V30 6298 H 607.389 -4.45561 -2.18608 0
M  V30 6299 H 602.645 -5.8279 -1.8484 0
M  V30 6300 H 606.819 -6.78041 -1.5885 0
M  V30 6301 H 604.446 -7.46929 -1.41426 0
M  V30 6302 N 606.021 0.929856 -1.27246 0
M  V30 6303 C 606.969 2.05151 -1.09616 0
M  V30 6304 C 607.963 1.69388 -0.0198617 0
M  V30 6305 O 609.169 1.79124 -0.177417 0
M  V30 6306 H 605.544 0.671909 -0.337701 0
M  V30 6307 H 607.515 2.17168 -2.04648 0
M  V30 6308 C 606.264 3.3934 -0.757851 0
M  V30 6309 H 605.587 3.67343 -1.57795 0
M  V30 6310 H 607.027 4.18603 -0.674358 0
M  V30 6311 C 605.486 3.32582 0.537658 0
M  V30 6312 O 606.016 3.69633 1.57271 0
M  V30 6313 N 604.222 2.8568 0.532478 0
M  V30 6314 H 603.769 2.55725 -0.310233 0
M  V30 6315 H 603.727 2.81541 1.39936 0
M  V30 6316 N 607.499 1.09233 1.13605 0
M  V30 6317 C 608.91 0.846839 1.6639 0
M  V30 6318 C 609.261 -0.625031 1.85978 0
M  V30 6319 O 608.386 -1.48173 1.57714 0
M  V30 6320 C 608.981 1.5307 3.0225 0
M  V30 6321 C 607.54 1.33223 3.52035 0
M  V30 6322 C 606.687 1.58806 2.27323 0
M  V30 6323 H 609.638 1.25175 0.975541 0
M  V30 6324 H 609.659 0.96267 3.68121 0
M  V30 6325 H 609.171 2.60192 2.87961 0
M  V30 6326 H 607.272 0.282091 3.71531 0
M  V30 6327 H 607.385 2.0657 4.32279 0
M  V30 6328 H 605.749 1.01007 2.33815 0
M  V30 6329 H 606.532 2.67153 2.15602 0
M  V30 6330 N 608.977 -1.30795 0.87923 0
M  V30 6331 C 610.225 -1.95974 0.493809 0
M  V30 6332 C 610.546 -1.69787 -0.959021 0
M  V30 6333 O 609.816 -1.01832 -1.67353 0
M  V30 6334 H 608.396 -0.725083 0.179622 0
M  V30 6335 H 611.058 -1.59432 1.12105 0
M  V30 6336 H 610.154 -3.05058 0.659263 0
M  V30 6337 N 610.455 -0.639598 -1.44038 0
M  V30 6338 C 611.683 -0.154811 -2.0632 0
M  V30 6339 C 612.098 1.17406 -1.47856 0
M  V30 6340 O 611.455 1.72193 -0.604638 0
M  V30 6341 C 611.506 -0.0429958 -3.61474 0
M  V30 6342 O 611.227 -1.31932 -4.17763 0
M  V30 6343 C 612.728 0.469486 -4.40807 0
M  V30 6344 H 609.948 -0.0835862 -0.665773 0
M  V30 6345 H 612.492 -0.876397 -1.84769 0
M  V30 6346 H 610.647 0.629075 -3.82258 0
M  V30 6347 H 611.061 -1.16965 -5.11292 0
M  V30 6348 H 612.535 0.496712 -5.49761 0
M  V30 6349 H 613.012 1.49819 -4.12857 0
M  V30 6350 H 613.618 -0.169624 -4.24962 0
M  V30 6351 N 611.933 1.52934 -0.380664 0
M  V30 6352 C 613.181 2.01069 0.203874 0
M  V30 6353 C 613.502 1.26922 1.4804 0
M  V30 6354 O 612.772 0.386787 1.92044 0
M  V30 6355 H 611.352 0.742882 0.0783279 0
M  V30 6356 H 614.014 1.88099 -0.510368 0
M  V30 6357 H 613.11 3.09258 0.42021 0
M  V30 6358 N 613.412 0.11024 1.57214 0
M  V30 6359 C 614.342 -0.840002 2.17867 0
M  V30 6360 C 615.323 -1.28352 1.11624 0
M  V30 6361 O 616.508 -1.3477 1.39824 0
M  V30 6362 C 613.638 -2.09349 2.77111 0
M  V30 6363 C 612.592 -1.78807 3.8886 0
M  V30 6364 C 611.918 -3.11112 4.34872 0
M  V30 6365 C 613.218 -1.0632 5.11364 0
M  V30 6366 H 614.912 -0.334608 2.97524 0
M  V30 6367 H 612.458 -0.159502 1.43114 0
M  V30 6368 H 614.411 -2.76275 3.18198 0
M  V30 6369 H 613.135 -2.62198 1.9473 0
M  V30 6370 H 611.794 -1.14273 3.48335 0
M  V30 6371 H 611.442 -3.61877 3.49362 0
M  V30 6372 H 611.142 -2.91453 5.10224 0
M  V30 6373 H 612.666 -3.79171 4.78604 0
M  V30 6374 H 614.08 -1.63383 5.49526 0
M  V30 6375 H 612.477 -0.967876 5.92243 0
M  V30 6376 H 613.547 -0.0484569 4.84876 0
M  V30 6377 N 614.89 -1.56749 -0.16351 0
M  V30 6378 C 616.136 -1.82704 -0.880168 0
M  V30 6379 C 616.469 -0.689311 -1.81555 0
M  V30 6380 O 615.744 0.308224 -1.92042 0
M  V30 6381 C 616.027 -3.19084 -1.66905 0
M  V30 6382 C 615.88 -4.43397 -0.756269 0
M  V30 6383 C 617.199 -3.52493 -2.63509 0
M  V30 6384 H 614.318 -0.664608 -0.318535 0
M  V30 6385 H 616.96 -1.89438 -0.146036 0
M  V30 6386 H 615.11 -3.13475 -2.2949 0
M  V30 6387 H 616.782 -4.61079 -0.14269 0
M  V30 6388 H 615.025 -4.33752 -0.0647944 0
M  V30 6389 H 615.696 -5.3539 -1.34393 0
M  V30 6390 H 618.172 -3.58606 -2.11047 0
M  V30 6391 H 617.048 -4.48979 -3.15767 0
M  V30 6392 H 617.309 -2.77597 -3.44082 0
M  V30 6393 N 616.368 0.432326 -1.51554 0
M  V30 6394 C 617.598 1.2019 -1.68042 0
M  V30 6395 C 618.006 1.85356 -0.379434 0
M  V30 6396 O 617.349 1.71724 0.652427 0
M  V30 6397 C 617.411 2.32387 -2.74292 0
M  V30 6398 C 617.075 1.87548 -4.16743 0
M  V30 6399 C 618.072 1.37611 -5.01357 0
M  V30 6400 C 615.757 1.95087 -4.62868 0
M  V30 6401 C 617.751 0.958069 -6.30159 0
M  V30 6402 C 615.438 1.52894 -5.91664 0
M  V30 6403 C 616.436 1.03336 -6.75137 0
M  V30 6404 O 616.124 0.617435 -8.01525 0
M  V30 6405 H 615.856 0.368132 -0.56697 0
M  V30 6406 H 618.41 0.517875 -1.98764 0
M  V30 6407 H 616.64 3.04082 -2.38895 0
M  V30 6408 H 618.329 2.94235 -2.79608 0
M  V30 6409 H 619.095 1.31178 -4.66923 0
M  V30 6410 H 614.974 2.32606 -3.98015 0
M  V30 6411 H 618.518 0.570562 -6.95263 0
M  V30 6412 H 614.415 1.58999 -6.25611 0
M  V30 6413 H 615.183 0.742835 -8.15122 0
M  V30 6414 N 617.846 1.41785 0.688094 0
M  V30 6415 C 619.095 1.4084 1.44385 0
M  V30 6416 C 619.408 0.0234166 1.95586 0
M  V30 6417 O 620.614 -0.108647 2.71283 0
M  V30 6418 C 619.07 2.47675 2.61123 0
M  V30 6419 C 618.678 3.92116 2.16677 0
M  V30 6420 C 620.422 2.55877 3.38714 0
M  V30 6421 C 618.329 4.90487 3.30419 0
M  V30 6422 H 617.259 0.523787 0.542368 0
M  V30 6423 H 619.91 1.6764 0.74627 0
M  V30 6424 H 618.292 2.14018 3.33185 0
M  V30 6425 H 619.466 4.35059 1.51856 0
M  V30 6426 H 617.781 3.87642 1.5206 0
M  V30 6427 H 620.378 3.26553 4.234 0
M  V30 6428 H 620.721 1.59801 3.84408 0
M  V30 6429 H 621.254 2.88662 2.73714 0
M  V30 6430 H 617.993 5.87994 2.89729 0
M  V30 6431 H 617.513 4.52187 3.94065 0
M  V30 6432 H 619.192 5.11591 3.96085 0
M  V30 6433 N 619.324 -0.923095 1.27737 0
M  V30 6434 C 620.735 -1.48626 1.12993 0
M  V30 6435 C 621.086 -1.94142 -0.283439 0
M  V30 6436 O 620.211 -1.81605 -1.17681 0
M  V30 6437 C 620.806 -2.70117 2.04505 0
M  V30 6438 C 619.365 -3.22642 1.93853 0
M  V30 6439 C 618.512 -1.95368 1.96791 0
M  V30 6440 H 621.463 -0.736737 1.40563 0
M  V30 6441 H 621.484 -3.4506 1.60356 0
M  V30 6442 H 620.996 -2.36959 3.07363 0
M  V30 6443 H 619.097 -3.60549 0.939968 0
M  V30 6444 H 619.21 -3.88525 2.80331 0
M  V30 6445 H 617.574 -2.12061 1.41076 0
M  V30 6446 H 618.357 -1.64517 3.01312 0
M  V30 6447 N 620.802 -1.09834 -1.13024 0
M  V30 6448 C 622.032 -0.857657 -1.87957 0
M  V30 6449 C 622.44 0.595008 -1.796 0
M  V30 6450 O 621.783 1.42158 -1.16347 0
M  V30 6451 C 621.845 -1.21949 -3.38185 0
M  V30 6452 C 621.509 -2.67791 -3.7032 0
M  V30 6453 C 622.506 -3.66036 -3.69207 0
M  V30 6454 C 620.191 -3.04019 -3.99847 0
M  V30 6455 C 622.185 -4.98533 -3.9717 0
M  V30 6456 C 619.872 -4.36706 -4.27471 0
M  V30 6457 C 620.87 -5.33772 -4.26118 0
M  V30 6458 O 620.558 -6.64072 -4.53061 0
M  V30 6459 H 620.29 -0.308009 -0.601753 0
M  V30 6460 H 622.844 -1.46496 -1.43973 0
M  V30 6461 H 621.074 -0.555249 -3.82693 0
M  V30 6462 H 622.763 -0.957281 -3.9445 0
M  V30 6463 H 623.529 -3.39392 -3.46465 0
M  V30 6464 H 619.408 -2.29096 -4.00045 0
M  V30 6465 H 622.952 -5.74288 -3.96029 0
M  V30 6466 H 618.849 -4.63091 -4.49685 0
M  V30 6467 H 619.617 -6.69608 -4.7071 0
M  V30 6468 N 622.28 1.30327 -0.886154 0
M  V30 6469 C 623.212 2.27079 -0.311072 0
M  V30 6470 C 624.225 1.53758 0.53502 0
M  V30 6471 O 625.414 1.74947 0.354378 0
M  V30 6472 C 622.514 3.33965 0.576228 0
M  V30 6473 C 621.687 4.36735 -0.241064 0
M  V30 6474 C 620.746 5.23028 0.576916 0
M  V30 6475 O 619.772 5.692 -0.000802231 0
M  V30 6476 N 620.974 5.49016 1.88579 0
M  V30 6477 H 623.739 2.77065 -1.14259 0
M  V30 6478 H 621.3 1.43519 -0.749258 0
M  V30 6479 H 623.292 3.88618 1.12953 0
M  V30 6480 H 621.862 2.839 1.30842 0
M  V30 6481 H 621.082 3.81932 -0.975805 0
M  V30 6482 H 622.37 5.02451 -0.801272 0
M  V30 6483 H 621.768 5.13288 2.37806 0
M  V30 6484 H 620.325 6.06539 2.38651 0
M  V30 6485 N 623.758 0.647228 1.43697 0
M  V30 6486 C 624.668 -0.0487997 2.34549 0
M  V30 6487 C 625.684 -0.818586 1.53542 0
M  V30 6488 O 626.86 -0.767195 1.86215 0
M  V30 6489 C 623.925 -1.00734 3.31743 0
M  V30 6490 C 622.986 -0.23515 4.28655 0
M  V30 6491 C 622.219 -1.14803 5.21206 0
M  V30 6492 O 622.442 -2.38717 5.18045 0
M  V30 6493 O 621.376 -0.623667 5.9866 0
M  V30 6494 H 625.202 0.698863 2.9555 0
M  V30 6495 H 622.787 0.407412 1.43738 0
M  V30 6496 H 624.669 -1.55837 3.91526 0
M  V30 6497 H 623.344 -1.73534 2.73254 0
M  V30 6498 H 622.251 0.359319 3.7237 0
M  V30 6499 H 623.584 0.453152 4.9011 0
M  V30 6500 N 625.236 -1.5273 0.388769 0
M  V30 6501 C 626.482 -2.01871 -0.193877 0
M  V30 6502 C 626.815 -1.27475 -1.46505 0
M  V30 6503 O 626.09 -0.375063 -1.90849 0
M  V30 6504 C 626.373 -3.5712 -0.462336 0
M  V30 6505 C 626.226 -4.42186 0.824091 0
M  V30 6506 C 627.545 -4.21881 -1.25319 0
M  V30 6507 H 624.664 -0.733764 -0.0689899 0
M  V30 6508 H 627.306 -1.82796 0.518231 0
M  V30 6509 H 625.456 -3.73504 -1.06896 0
M  V30 6510 H 627.128 -4.37554 1.46096 0
M  V30 6511 H 625.371 -4.09219 1.43952 0
M  V30 6512 H 626.042 -5.48828 0.590905 0
M  V30 6513 H 628.518 -4.0947 -0.73981 0
M  V30 6514 H 627.394 -5.30487 -1.40977 0
M  V30 6515 H 627.655 -3.79478 -2.26824 0
M  V30 6516 N 626.714 -0.118576 -1.57153 0
M  V30 6517 C 628.125 0.40687 -1.82213 0
M  V30 6518 C 628.476 1.66636 -1.03571 0
M  V30 6519 O 627.601 2.14682 -0.272171 0
M  V30 6520 C 628.196 0.744949 -3.30509 0
M  V30 6521 C 626.755 1.21503 -3.5625 0
M  V30 6522 C 625.902 0.223511 -2.76398 0
M  V30 6523 H 628.853 -0.343712 -1.54933 0
M  V30 6524 H 628.874 1.6024 -3.45114 0
M  V30 6525 H 628.386 -0.171911 -3.87719 0
M  V30 6526 H 626.487 2.1488 -3.04396 0
M  V30 6527 H 626.6 1.16065 -4.64829 0
M  V30 6528 H 624.964 0.71046 -2.44591 0
M  V30 6529 H 625.747 -0.686439 -3.36367 0
M  V30 6530 N 628.193 1.56834 0.155195 0
M  V30 6531 C 629.441 1.82536 0.867462 0
M  V30 6532 C 629.762 0.698168 1.82073 0
M  V30 6533 O 629.032 -0.280807 1.93877 0
M  V30 6534 H 627.612 0.673401 0.323327 0
M  V30 6535 H 630.274 1.94313 0.151156 0
M  V30 6536 H 629.37 2.77171 1.43466 0
M  V30 6537 N 629.671 -0.424282 1.51781 0
M  V30 6538 C 630.917 -1.17434 1.6534 0
M  V30 6539 C 631.25 -1.90549 0.374806 0
M  V30 6540 O 630.525 -1.84145 -0.626179 0
M  V30 6541 C 630.808 -2.18093 2.86544 0
M  V30 6542 C 630.661 -1.48975 4.24413 0
M  V30 6543 C 631.98 -3.18934 3.03264 0
M  V30 6544 H 629.099 -0.425566 0.601716 0
M  V30 6545 H 631.741 -0.461921 1.84299 0
M  V30 6546 H 629.891 -2.78849 2.7051 0
M  V30 6547 H 631.563 -0.914551 4.52143 0
M  V30 6548 H 629.806 -0.791893 4.26511 0
M  V30 6549 H 630.477 -2.22347 5.05238 0
M  V30 6550 H 632.953 -2.68243 3.18096 0
M  V30 6551 H 631.829 -3.86645 3.89611 0
M  V30 6552 H 632.09 -3.85793 2.15908 0
M  V30 6553 N 631.149 -1.42148 -0.680565 0
M  V30 6554 C 632.379 -1.45485 -1.46689 0
M  V30 6555 C 632.787 -0.0629451 -1.89095 0
M  V30 6556 O 632.13 0.931397 -1.58337 0
M  V30 6557 C 632.192 -2.31397 -2.75129 0
M  V30 6558 C 631.856 -3.79353 -2.54834 0
M  V30 6559 C 632.853 -4.71148 -2.19808 0
M  V30 6560 C 630.538 -4.23557 -2.70008 0
M  V30 6561 C 632.532 -6.05139 -2.00215 0
M  V30 6562 C 630.219 -5.57609 -2.50031 0
M  V30 6563 C 631.217 -6.48216 -2.15187 0
M  V30 6564 O 630.905 -7.79792 -1.95397 0
M  V30 6565 H 630.637 -0.497139 -0.458071 0
M  V30 6566 H 633.191 -1.87252 -0.844139 0
M  V30 6567 H 631.421 -1.84468 -3.39865 0
M  V30 6568 H 633.11 -2.26257 -3.36991 0
M  V30 6569 H 633.876 -4.38282 -2.07686 0
M  V30 6570 H 629.755 -3.53327 -2.96109 0
M  V30 6571 H 633.299 -6.75823 -1.72941 0
M  V30 6572 H 629.196 -5.9005 -2.61748 0
M  V30 6573 H 629.964 -7.91091 -2.10042 0
M  V30 6574 N 632.627 0.916307 -1.28225 0
M  V30 6575 C 634.043 1.19425 -1.05876 0
M  V30 6576 C 634.243 2.005 0.2005 0
M  V30 6577 O 633.299 2.35806 0.902873 0
M  V30 6578 C 634.612 1.93133 -2.30478 0
M  V30 6579 C 636.16 2.06026 -2.35632 0
M  V30 6580 C 636.635 2.83141 -3.59994 0
M  V30 6581 N 638.126 2.90704 -3.60618 0
M  V30 6582 C 638.861 3.50865 -4.53521 0
M  V30 6583 N 638.357 4.12327 -5.56739 0
M  V30 6584 N 640.15 3.48379 -4.41122 0
M  V30 6585 H 632.301 0.37496 -2.09064 0
M  V30 6586 H 634.564 0.228531 -0.920042 0
M  V30 6587 H 634.27 1.40985 -3.22205 0
M  V30 6588 H 634.144 2.93696 -2.36691 0
M  V30 6589 H 636.531 2.57355 -1.44404 0
M  V30 6590 H 636.612 1.04647 -2.33415 0
M  V30 6591 H 636.256 2.32492 -4.51564 0
M  V30 6592 H 636.186 3.84829 -3.59464 0
M  V30 6593 H 638.677 2.47034 -2.85977 0
M  V30 6594 H 638.99 4.56205 -6.23776 0
M  V30 6595 H 637.335 4.10839 -5.60568 0
M  V30 6596 H 640.526 2.99572 -3.59686 0
M  V30 6597 H 640.699 3.94974 -5.13712 0
M  V30 6598 N 634.105 1.10431 1.1244 0
M  V30 6599 C 635.053 0.747974 2.20246 0
M  V30 6600 C 636.047 -0.255848 1.67457 0
M  V30 6601 O 637.253 -0.116221 1.79624 0
M  V30 6602 H 633.628 0.223946 0.71788 0
M  V30 6603 H 635.599 1.6661 2.47556 0
M  V30 6604 C 634.348 0.195957 3.47147 0
M  V30 6605 H 633.671 0.959606 3.88113 0
M  V30 6606 H 635.111 -0.0153154 4.23997 0
M  V30 6607 C 633.57 -1.07132 3.19413 0
M  V30 6608 O 634.1 -2.15284 3.3914 0
M  V30 6609 N 632.306 -0.98994 2.73219 0
M  V30 6610 H 631.853 -0.109736 2.57366 0
M  V30 6611 H 631.811 -1.83856 2.55038 0
M  V30 6612 N 635.583 -1.29855 0.893053 0
M  V30 6613 C 636.493 -2.31661 0.370157 0
M  V30 6614 C 637.509 -1.65677 -0.531723 0
M  V30 6615 O 638.685 -1.9691 -0.422902 0
M  V30 6616 C 635.75 -3.44388 -0.399741 0
M  V30 6617 C 634.811 -4.2598 0.532861 0
M  V30 6618 C 634.044 -5.33324 -0.200388 0
M  V30 6619 O 634.267 -5.52305 -1.42531 0
M  V30 6620 O 633.201 -6.00188 0.453668 0
M  V30 6621 H 637.027 -2.78354 1.2146 0
M  V30 6622 H 634.612 -1.34171 0.657153 0
M  V30 6623 H 636.494 -4.13037 -0.835358 0
M  V30 6624 H 635.169 -2.99815 -1.22035 0
M  V30 6625 H 634.076 -3.59998 1.01746 0
M  V30 6626 H 635.409 -4.74178 1.3197 0
M  V30 6627 N 637.061 -0.65484 -1.43351 0
M  V30 6628 C 638.309 -0.168559 -2.01396 0
M  V30 6629 C 638.63 1.22235 -1.51933 0
M  V30 6630 O 637.9 1.81685 -0.732627 0
M  V30 6631 H 636.48 -0.0593244 -0.744641 0
M  V30 6632 H 639.142 -0.846871 -1.75539 0
M  V30 6633 H 638.238 -0.154428 -3.11718 0
M  V30 6634 N 638.539 1.52521 -0.396863 0
M  V30 6635 C 639.486 2.26671 0.434624 0
M  V30 6636 C 640.456 1.28584 1.05144 0
M  V30 6637 O 641.641 1.57426 1.07804 0
M  V30 6638 C 638.781 3.08234 1.55196 0
M  V30 6639 C 637.894 4.21261 0.957262 0
M  V30 6640 C 637.029 4.90205 2.04627 0
M  V30 6641 C 636.068 5.95213 1.42787 0
M  V30 6642 N 635.205 6.57723 2.45651 0
M  V30 6643 H 640.045 2.973 -0.204139 0
M  V30 6644 H 637.582 1.46669 -0.112505 0
M  V30 6645 H 639.54 3.53819 2.2106 0
M  V30 6646 H 638.17 2.398 2.16092 0
M  V30 6647 H 637.222 3.79935 0.188005 0
M  V30 6648 H 638.534 4.96624 0.465416 0
M  V30 6649 H 637.688 5.39133 2.78246 0
M  V30 6650 H 636.427 4.14383 2.57174 0
M  V30 6651 H 635.432 5.45616 0.676968 0
M  V30 6652 H 636.657 6.72972 0.910255 0
M  V30 6653 H 634.603 5.84737 2.97353 0
M  V30 6654 H 634.52 7.28723 2.01243 0
M  V30 6655 H 635.788 7.11293 3.18876 0
M  V30 6656 N 640.017 0.126909 1.57088 0
M  V30 6657 C 641.294 -0.573152 1.87014 0
M  V30 6658 C 641.674 -1.84297 1.02945 0
M  V30 6659 O 641.022 -2.28232 0.110573 0
M  V30 6660 C 641.232 -0.857984 3.38289 0
M  V30 6661 C 642.58 -1.20759 4.07066 0
M  V30 6662 O 643.604 -0.947992 3.43353 0
M  V30 6663 O 642.463 -1.69516 5.19545 0
M  V30 6664 H 639.557 -0.290082 0.774456 0
M  V30 6665 H 642.103 0.162008 1.68925 0
M  V30 6666 H 640.875 0.0415286 3.91278 0
M  V30 6667 H 640.498 -1.64803 3.61837 0
M  V30 6668 N 641.495 -1.56914 -0.146875 0
M  V30 6669 C 642.742 -1.83356 -0.859467 0
M  V30 6670 C 643.07 -0.707811 -1.81164 0
M  V30 6671 O 642.325 0.303155 -1.93338 0
M  V30 6672 C 642.624 -3.16128 -1.66727 0
M  V30 6673 C 642.29 -4.42586 -0.861881 0
M  V30 6674 C 640.952 -4.76929 -0.639687 0
M  V30 6675 C 643.304 -5.20344 -0.298643 0
M  V30 6676 C 640.632 -5.86491 0.156451 0
M  V30 6677 C 642.984 -6.30742 0.484536 0
M  V30 6678 C 641.648 -6.63635 0.717306 0
M  V30 6679 H 640.918 -0.670947 -0.314501 0
M  V30 6680 H 643.565 -1.91104 -0.123108 0
M  V30 6681 H 641.87 -3.03831 -2.47374 0
M  V30 6682 H 643.567 -3.33802 -2.2221 0
M  V30 6683 H 640.157 -4.15662 -1.04513 0
M  V30 6684 H 644.341 -4.94186 -0.457585 0
M  V30 6685 H 639.597 -6.10419 0.346292 0
M  V30 6686 H 643.771 -6.90188 0.928105 0
M  V30 6687 H 641.398 -7.48367 1.33607 0
M  V30 6688 N 642.974 0.416227 -1.52004 0
M  V30 6689 C 644.22 1.16555 -1.6596 0
M  V30 6690 C 644.553 1.90347 -0.384906 0
M  V30 6691 O 643.828 1.84474 0.616405 0
M  V30 6692 C 644.111 2.1657 -2.87696 0
M  V30 6693 C 643.964 1.46722 -4.25197 0
M  V30 6694 C 645.283 3.17321 -3.04951 0
M  V30 6695 H 642.402 0.422369 -0.603965 0
M  V30 6696 H 645.044 0.452141 -1.84542 0
M  V30 6697 H 643.194 2.77411 -2.71985 0
M  V30 6698 H 644.866 0.89056 -4.52622 0
M  V30 6699 H 643.109 0.769263 -4.26925 0
M  V30 6700 H 643.78 2.19665 -5.0641 0
M  V30 6701 H 646.256 2.66552 -3.19514 0
M  V30 6702 H 645.132 3.84573 -3.91656 0
M  V30 6703 H 645.393 3.84643 -2.17951 0
M  V30 6704 N 644.452 1.42507 0.673017 0
M  V30 6705 C 645.68 1.46473 1.46128 0
M  V30 6706 C 646.095 0.0765912 1.88645 0
M  V30 6707 O 645.452 -0.909057 1.58248 0
M  V30 6708 C 645.503 2.39339 2.70923 0
M  V30 6709 O 645.224 3.72752 2.3019 0
M  V30 6710 C 646.725 2.52343 3.64469 0
M  V30 6711 H 643.945 0.49812 0.449575 0
M  V30 6712 H 646.489 1.87041 0.826802 0
M  V30 6713 H 644.644 2.02019 3.30556 0
M  V30 6714 H 645.058 4.22503 3.10791 0
M  V30 6715 H 646.532 3.2144 4.48754 0
M  V30 6716 H 647.009 1.56189 4.1049 0
M  V30 6717 H 647.615 2.90392 3.10729 0
M  V30 6718 N 645.93 -0.909495 1.28709 0
M  V30 6719 C 647.346 -1.18862 1.06508 0
M  V30 6720 C 647.546 -2.00604 -0.189864 0
M  V30 6721 O 646.602 -2.36281 -0.890355 0
M  V30 6722 C 647.915 -1.91908 2.31499 0
M  V30 6723 C 649.463 -2.04773 2.36721 0
M  V30 6724 C 649.938 -2.81228 3.6149 0
M  V30 6725 N 651.429 -2.88787 3.62155 0
M  V30 6726 C 652.164 -3.48455 4.55375 0
M  V30 6727 N 651.66 -4.09369 5.58918 0
M  V30 6728 N 653.453 -3.46035 4.42963 0
M  V30 6729 H 645.604 -0.363867 2.0926 0
M  V30 6730 H 647.867 -0.223649 0.921241 0
M  V30 6731 H 647.573 -1.39275 3.22948 0
M  V30 6732 H 647.447 -2.92436 2.38245 0
M  V30 6733 H 649.834 -2.56585 1.45767 0
M  V30 6734 H 649.915 -1.03408 2.33967 0
M  V30 6735 H 649.559 -2.30094 4.5279 0
M  V30 6736 H 649.489 -3.82917 3.61499 0
M  V30 6737 H 651.98 -2.45514 2.87283 0
M  V30 6738 H 652.293 -4.52891 6.26187 0
M  V30 6739 H 650.638 -4.0786 5.62739 0
M  V30 6740 H 653.829 -2.9766 3.6127 0
M  V30 6741 H 654.002 -3.92244 5.15799 0
M  V30 6742 N 647.408 -1.11026 -1.11852 0
M  V30 6743 C 648.355 -0.764662 -2.17765 0
M  V30 6744 C 649.325 0.261854 -1.64023 0
M  V30 6745 O 650.51 0.139748 -1.90288 0
M  V30 6746 C 647.65 -0.209317 -3.44465 0
M  V30 6747 C 646.763 -1.29187 -4.12231 0
M  V30 6748 C 645.898 -0.697523 -5.266 0
M  V30 6749 C 644.937 -1.76023 -5.86244 0
M  V30 6750 N 644.074 -1.18569 -6.92016 0
M  V30 6751 H 648.914 -1.67202 -2.46673 0
M  V30 6752 H 646.451 -0.835065 -1.21099 0
M  V30 6753 H 648.409 0.130599 -4.16996 0
M  V30 6754 H 647.039 0.661251 -3.15955 0
M  V30 6755 H 646.091 -1.74881 -3.37818 0
M  V30 6756 H 647.403 -2.09607 -4.52622 0
M  V30 6757 H 646.557 -0.307412 -6.05921 0
M  V30 6758 H 645.296 0.138044 -4.87505 0
M  V30 6759 H 644.301 -2.1597 -5.05606 0
M  V30 6760 H 645.526 -2.59875 -6.27409 0
M  V30 6761 H 643.472 -0.371695 -6.54946 0
M  V30 6762 H 643.389 -1.92666 -7.31038 0
M  V30 6763 H 644.657 -0.82233 -7.7515 0
M  V30 6764 N 648.886 1.2938 -0.899927 0
M  V30 6765 C 649.849 2.25983 -0.382677 0
M  V30 6766 C 650.849 1.53366 0.483259 0
M  V30 6767 O 652.039 1.71798 0.28828 0
M  V30 6768 C 649.171 3.37878 0.452915 0
M  V30 6769 H 650.364 2.73252 -1.23586 0
M  V30 6770 H 647.917 1.40825 -0.678088 0
M  V30 6771 H 648.652 2.95949 1.32608 0
M  V30 6772 H 648.437 3.91742 -0.167562 0
M  V30 6773 H 649.927 4.09746 0.806107 0
M  V30 6774 N 650.364 0.662433 1.43002 0
M  V30 6775 C 651.611 0.179591 2.01702 0
M  V30 6776 C 651.939 -1.20964 1.52309 0
M  V30 6777 O 651.194 -1.82343 0.7106 0
M  V30 6778 C 651.493 0.149363 3.57088 0
M  V30 6779 C 651.159 1.48158 4.25864 0
M  V30 6780 C 649.821 1.84638 4.44367 0
M  V30 6781 C 652.173 2.35953 4.64732 0
M  V30 6782 C 649.501 3.08561 4.99006 0
M  V30 6783 C 651.853 3.59176 5.20745 0
M  V30 6784 C 650.517 3.95841 5.37463 0
M  V30 6785 H 649.787 0.0657172 0.73808 0
M  V30 6786 H 652.434 0.854968 1.71355 0
M  V30 6787 H 650.739 -0.609491 3.8703 0
M  V30 6788 H 652.436 -0.241241 4.00274 0
M  V30 6789 H 649.026 1.18777 4.11813 0
M  V30 6790 H 653.21 2.09058 4.50121 0
M  V30 6791 H 648.466 3.37005 5.10135 0
M  V30 6792 H 652.64 4.27417 5.49807 0
M  V30 6793 H 650.267 4.91942 5.79566 0
M  V30 6794 N 651.842 -1.52309 0.404946 0
M  V30 6795 C 652.79 -2.28452 -0.437321 0
M  V30 6796 C 653.784 -1.32975 -1.04948 0
M  V30 6797 O 654.99 -1.50451 -0.988159 0
M  V30 6798 H 651.365 -0.734824 -0.159805 0
M  V30 6799 H 653.336 -2.97542 0.22615 0
M  V30 6800 C 652.085 -3.11536 -1.54404 0
M  V30 6801 H 651.408 -3.84871 -1.08233 0
M  V30 6802 H 652.848 -3.67926 -2.10729 0
M  V30 6803 C 651.307 -2.24833 -2.50902 0
M  V30 6804 O 651.837 -1.88574 -3.54687 0
M  V30 6805 N 650.043 -1.88685 -2.21012 0
M  V30 6806 H 649.59 -2.18371 -1.36646 0
M  V30 6807 H 649.548 -1.30966 -2.85824 0
M  V30 6808 N 653.32 -0.135238 -1.57019 0
M  V30 6809 C 654.548 0.526066 -2.001 0
M  V30 6810 C 654.963 1.59184 -1.01519 0
M  V30 6811 O 654.32 1.82497 -0.0104258 0
M  V30 6812 C 654.371 1.13744 -3.43139 0
M  V30 6813 O 654.092 0.114259 -4.37951 0
M  V30 6814 C 655.593 1.8805 -4.01438 0
M  V30 6815 H 652.813 0.137962 -0.656664 0
M  V30 6816 H 655.357 -0.226359 -2.03243 0
M  V30 6817 H 653.512 1.84056 -3.40885 0
M  V30 6818 H 653.926 0.56058 -5.21496 0
M  V30 6819 H 655.4 2.26133 -5.03555 0
M  V30 6820 H 655.877 2.76194 -3.41487 0
M  V30 6821 H 656.483 1.22464 -4.07287 0
M  V30 6822 N 654.798 1.5699 0.138552 0
M  V30 6823 C 655.761 1.97984 1.15478 0
M  V30 6824 C 656.761 0.867416 1.35398 0
M  V30 6825 O 657.951 1.13387 1.32246 0
M  V30 6826 C 655.083 2.3031 2.51337 0
M  V30 6827 H 656.276 2.88953 0.802896 0
M  V30 6828 H 653.829 1.51555 0.382189 0
M  V30 6829 H 654.564 1.42159 2.91481 0
M  V30 6830 H 654.349 3.11425 2.38237 0
M  V30 6831 H 655.839 2.62834 3.24512 0
M  V30 6832 N 656.276 -0.40816 1.52223 0
M  V30 6833 C 657.239 -1.48 1.7501 0
M  V30 6834 C 658.239 -1.48367 0.619996 0
M  V30 6835 O 659.429 -1.49874 0.887881 0
M  V30 6836 C 656.561 -2.87403 1.83336 0
M  V30 6837 H 657.754 -1.29086 2.70697 0
M  V30 6838 H 655.307 -0.638715 1.42654 0
M  V30 6839 H 656.042 -3.11686 0.895677 0
M  V30 6840 H 655.827 -2.8854 2.65494 0
M  V30 6841 H 657.317 -3.65103 2.02705 0
M  V30 6842 N 657.755 -1.42862 -0.66545 0
M  V30 6843 C 659.003 -1.43546 -1.42264 0
M  V30 6844 C 659.324 -0.0563116 -1.94919 0
M  V30 6845 O 658.594 0.906568 -1.73661 0
M  V30 6846 H 657.174 -0.528464 -0.527953 0
M  V30 6847 H 659.836 -1.78363 -0.785665 0
M  V30 6848 H 658.932 -2.14079 -2.27105 0
M  V30 6849 N 659.233 0.902656 -1.29189 0
M  V30 6850 C 660.48 1.65287 -1.16989 0
M  V30 6851 C 660.808 1.92485 0.279232 0
M  V30 6852 O 660.063 1.53143 1.21843 0
M  V30 6853 C 660.362 3.011 -1.92545 0
M  V30 6854 C 660.028 2.93521 -3.42281 0
M  V30 6855 C 658.69 2.91161 -3.83117 0
M  V30 6856 C 661.042 2.82947 -4.3771 0
M  V30 6857 C 658.37 2.76043 -5.17704 0
M  V30 6858 C 660.722 2.69368 -5.72384 0
M  V30 6859 C 659.386 2.65373 -6.12482 0
M  V30 6860 H 658.656 0.604828 -0.428094 0
M  V30 6861 H 661.303 1.05084 -1.60092 0
M  V30 6862 H 659.608 3.65153 -1.42024 0
M  V30 6863 H 661.305 3.58073 -1.80512 0
M  V30 6864 H 657.895 2.96158 -3.09819 0
M  V30 6865 H 662.079 2.83849 -4.07116 0
M  V30 6866 H 657.335 2.71352 -5.47885 0
M  V30 6867 H 661.509 2.60156 -6.45981 0
M  V30 6868 H 659.136 2.53415 -7.16718 0
M  V30 6869 N 660.711 1.11618 1.11262 0
M  V30 6870 C 661.674 0.779447 2.15539 0
M  V30 6871 C 662.674 -0.202081 1.59525 0
M  V30 6872 O 663.864 0.0226356 1.74185 0
M  V30 6873 C 660.996 0.15674 3.40539 0
M  V30 6874 H 662.189 1.70324 2.4684 0
M  V30 6875 H 659.742 0.918298 1.26479 0
M  V30 6876 H 660.477 -0.777186 3.1485 0
M  V30 6877 H 660.262 0.863308 3.82478 0
M  V30 6878 H 661.752 -0.062661 4.17553 0
M  V30 6879 N 662.189 -1.289 0.906776 0
M  V30 6880 C 663.466 -1.90221 0.455537 0
M  V30 6881 C 663.846 -1.82251 -1.06527 0
M  V30 6882 O 663.194 -1.25385 -1.91026 0
M  V30 6883 C 663.404 -3.35015 0.97806 0
M  V30 6884 C 664.752 -4.12018 1.02598 0
M  V30 6885 O 665.776 -3.43947 0.926218 0
M  V30 6886 O 664.635 -5.33677 1.17689 0
M  V30 6887 H 661.729 -0.814505 0.143214 0
M  V30 6888 H 664.275 -1.37317 0.997104 0
M  V30 6889 H 663.047 -3.35006 2.02204 0
M  V30 6890 H 662.67 -3.95408 0.416914 0
M  V30 6891 N 663.667 -0.670007 -1.42649 0
M  V30 6892 C 664.63 0.00204659 -2.292 0
M  V30 6893 C 665.63 0.733817 -1.4308 0
M  V30 6894 O 666.82 0.57254 -1.64522 0
M  V30 6895 C 663.952 1.01359 -3.25483 0
M  V30 6896 H 665.145 -0.759696 -2.90118 0
M  V30 6897 H 662.698 -0.432105 -1.50208 0
M  V30 6898 H 663.433 1.80399 -2.69493 0
M  V30 6899 H 663.218 0.492323 -3.88997 0
M  V30 6900 H 664.708 1.4824 -3.90403 0
M  V30 6901 N 665.145 1.52092 -0.413018 0
M  V30 6902 C 666.373 2.06274 0.160881 0
M  V30 6903 C 666.788 1.28273 1.38533 0
M  V30 6904 O 666.145 0.33563 1.79387 0
M  V30 6905 C 666.196 3.57921 0.507443 0
M  V30 6906 O 665.917 4.32971 -0.668388 0
M  V30 6907 C 667.418 4.28533 1.13465 0
M  V30 6908 H 664.638 0.67074 0.0186759 0
M  V30 6909 H 667.182 1.95951 -0.585092 0
M  V30 6910 H 665.337 3.68238 1.20331 0
M  V30 6911 H 665.751 5.23135 -0.378169 0
M  V30 6912 H 667.225 5.35804 1.32732 0
M  V30 6913 H 667.702 3.85258 2.10886 0
M  V30 6914 H 668.308 4.22595 0.478876 0
M  V30 6915 N 666.623 0.143563 1.56945 0
M  V30 6916 C 667.9 -0.553285 1.87612 0
M  V30 6917 C 668.28 -1.83195 1.04894 0
M  V30 6918 O 667.628 -2.28102 0.134773 0
M  V30 6919 C 667.838 -0.822055 3.3918 0
M  V30 6920 C 669.186 -1.16435 4.08324 0
M  V30 6921 O 670.21 -0.911522 3.4434 0
M  V30 6922 O 669.069 -1.63996 5.21313 0
M  V30 6923 H 666.163 -0.281851 0.777489 0
M  V30 6924 H 668.709 0.179916 1.68744 0
M  V30 6925 H 667.481 0.0830265 3.91212 0
M  V30 6926 H 667.104 -1.60956 3.63564 0
M  V30 6927 N 668.101 -1.57061 -0.130224 0
M  V30 6928 C 669.347 -1.8453 -0.841216 0
M  V30 6929 C 669.68 -0.727666 -1.80052 0
M  V30 6930 O 668.955 0.267419 -1.92653 0
M  V30 6931 C 669.238 -3.22553 -1.60099 0
M  V30 6932 C 669.091 -4.44901 -0.662048 0
M  V30 6933 C 670.41 -3.58003 -2.55973 0
M  V30 6934 H 667.529 -0.671215 -0.304366 0
M  V30 6935 H 670.171 -1.89705 -0.105821 0
M  V30 6936 H 668.321 -3.18272 -2.22789 0
M  V30 6937 H 669.993 -4.61278 -0.0448559 0
M  V30 6938 H 668.236 -4.33791 0.0272253 0
M  V30 6939 H 668.907 -5.3812 -1.23006 0
M  V30 6940 H 671.383 -3.63002 -2.03393 0
M  V30 6941 H 670.259 -4.55576 -3.06172 0
M  V30 6942 H 670.52 -2.84833 -3.38116 0
M  V30 6943 N 669.579 0.400081 -1.52437 0
M  V30 6944 C 670.99 0.97851 -1.59003 0
M  V30 6945 C 671.341 1.91293 -0.436068 0
M  V30 6946 O 670.466 2.1183 0.442365 0
M  V30 6947 C 671.061 1.78145 -2.88184 0
M  V30 6948 C 669.62 2.30976 -2.97199 0
M  V30 6949 C 668.767 1.11212 -2.54022 0
M  V30 6950 H 671.718 0.180002 -1.57676 0
M  V30 6951 H 671.739 2.63968 -2.74046 0
M  V30 6952 H 671.251 1.1011 -3.72152 0
M  V30 6953 H 669.352 3.02355 -2.17744 0
M  V30 6954 H 669.465 2.61221 -4.01622 0
M  V30 6955 H 667.829 1.46882 -2.08081 0
M  V30 6956 H 668.612 0.447307 -3.40373 0
M  V30 6957 N 671.057 1.43213 0.657864 0
M  V30 6958 C 672.02 1.47687 1.75275 0
M  V30 6959 C 673.02 0.362179 1.56668 0
M  V30 6960 O 674.21 0.623734 1.62651 0
M  V30 6961 C 671.342 1.32497 3.14098 0
M  V30 6962 H 672.535 2.4519 1.7269 0
M  V30 6963 H 670.088 1.2991 0.869087 0
M  V30 6964 H 670.823 0.359831 3.22298 0
M  V30 6965 H 670.608 2.13299 3.29008 0
M  V30 6966 H 672.098 1.38549 3.93946 0
M  V30 6967 N 672.536 -0.895792 1.29666 0
M  V30 6968 C 673.499 -1.98189 1.15124 0
M  V30 6969 C 674.499 -1.60572 0.0855717 0
M  V30 6970 O 675.689 -1.70991 0.332826 0
M  V30 6971 C 672.821 -3.32289 0.761372 0
M  V30 6972 H 674.014 -2.12518 2.11603 0
M  V30 6973 H 671.567 -1.0808 1.12908 0
M  V30 6974 H 672.302 -3.23662 -0.203393 0
M  V30 6975 H 672.087 -3.60958 1.53139 0
M  V30 6976 H 673.577 -4.1198 0.682792 0
M  V30 6977 N 674.014 -1.12206 -1.10668 0
M  V30 6978 C 675.26 -0.877172 -1.82848 0
M  V30 6979 C 675.593 0.595571 -1.84842 0
M  V30 6980 O 674.868 1.44013 -1.30731 0
M  V30 6981 C 675.151 -1.44957 -3.29635 0
M  V30 6982 C 675.004 -2.99051 -3.35989 0
M  V30 6983 C 676.323 -1.10714 -4.25946 0
M  V30 6984 H 673.442 -0.320103 -0.663854 0
M  V30 6985 H 676.084 -1.38827 -1.2972 0
M  V30 6986 H 674.234 -1.01488 -3.7501 0
M  V30 6987 H 675.906 -3.51182 -2.99113 0
M  V30 6988 H 674.149 -3.34705 -2.75962 0
M  V30 6989 H 674.82 -3.34194 -4.39339 0
M  V30 6990 H 677.296 -1.48254 -3.88793 0
M  V30 6991 H 676.172 -1.5343 -5.2702 0
M  V30 6992 H 676.433 -0.019 -4.42096 0
M  V30 6993 N 675.492 1.28418 -0.913599 0
M  V30 6994 C 676.738 1.9527 -0.547484 0
M  V30 6995 C 677.071 1.71745 0.906486 0
M  V30 6996 O 676.346 1.03834 1.64465 0
M  V30 6997 C 676.629 3.49748 -0.857205 0
M  V30 6998 C 676.482 3.82675 -2.3639 0
M  V30 6999 C 677.801 4.3868 -0.353258 0
M  V30 7000 H 674.92 0.709236 -0.200381 0
M  V30 7001 H 677.562 1.51789 -1.14281 0
M  V30 7002 H 675.712 3.86915 -0.350548 0
M  V30 7003 H 677.384 3.55378 -2.94116 0
M  V30 7004 H 675.627 3.29724 -2.81894 0
M  V30 7005 H 676.298 4.90547 -2.53115 0
M  V30 7006 H 678.774 4.08584 -0.787288 0
M  V30 7007 H 677.65 5.45621 -0.599049 0
M  V30 7008 H 677.911 4.35753 0.746413 0
M  V30 7009 N 676.97 0.677563 1.42291 0
M  V30 7010 C 678.195 0.207901 2.06355 0
M  V30 7011 C 678.62 -1.12723 1.50583 0
M  V30 7012 O 677.978 -1.70171 0.62543 0
M  V30 7013 C 678.026 0.156489 3.6026 0
M  V30 7014 O 677.13 -0.874162 4.03029 0
M  V30 7015 H 676.471 0.106056 0.655475 0
M  V30 7016 H 679.001 0.927354 1.82377 0
M  V30 7017 H 679.011 -0.0187258 4.07996 0
M  V30 7018 H 677.686 1.13101 4.00226 0
M  V30 7019 H 676.263 -0.669764 3.66836 0
M  V30 7020 N 678.448 -1.51871 0.421078 0
M  V30 7021 C 679.696 -2.01539 -0.150492 0
M  V30 7022 C 680.017 -1.30803 -1.44623 0
M  V30 7023 O 679.287 -0.437568 -1.90951 0
M  V30 7024 H 677.867 -0.744698 -0.0586041 0
M  V30 7025 H 680.529 -1.8668 0.560059 0
M  V30 7026 H 679.625 -3.10264 -0.338068 0
M  V30 7027 N 679.926 -0.151884 -1.56866 0
M  V30 7028 C 680.889 0.771861 -2.15812 0
M  V30 7029 C 681.889 1.17181 -1.10115 0
M  V30 7030 O 683.079 1.09194 -1.35729 0
M  V30 7031 C 680.211 2.04806 -2.7252 0
M  V30 7032 H 681.404 0.259021 -2.98779 0
M  V30 7033 H 678.957 0.097588 -1.55995 0
M  V30 7034 H 679.692 2.60445 -1.93233 0
M  V30 7035 H 679.477 1.77044 -3.49854 0
M  V30 7036 H 680.967 2.70771 -3.1792 0
M  V30 7037 N 681.404 1.57128 0.121893 0
M  V30 7038 C 682.334 2.03165 1.15092 0
M  V30 7039 C 683.315 0.915587 1.43356 0
M  V30 7040 O 684.5 1.1851 1.53847 0
M  V30 7041 C 681.63 2.43352 2.47784 0
M  V30 7042 C 680.584 3.58376 2.33989 0
M  V30 7043 C 679.91 3.84454 3.71617 0
M  V30 7044 C 681.21 4.90199 1.80283 0
M  V30 7045 H 682.904 2.89382 0.768023 0
M  V30 7046 H 680.45 1.39218 0.367998 0
M  V30 7047 H 682.403 2.74163 3.20019 0
M  V30 7048 H 681.127 1.54103 2.87958 0
M  V30 7049 H 679.786 3.2777 1.64202 0
M  V30 7050 H 679.434 2.92414 4.09271 0
M  V30 7051 H 679.134 4.61877 3.6324 0
M  V30 7052 H 680.658 4.17714 4.45362 0
M  V30 7053 H 682.072 5.19565 2.42333 0
M  V30 7054 H 680.469 5.71601 1.82735 0
M  V30 7055 H 681.539 4.78904 0.760184 0
M  V30 7056 N 682.882 -0.391992 1.52647 0
M  V30 7057 C 683.812 -1.48517 1.8018 0
M  V30 7058 C 684.793 -1.57039 0.653667 0
M  V30 7059 O 685.978 -1.72036 0.900962 0
M  V30 7060 C 683.108 -2.86161 1.96797 0
M  V30 7061 C 682.062 -2.92481 3.12472 0
M  V30 7062 C 681.388 -4.32546 3.14338 0
M  V30 7063 C 682.688 -2.624 4.51601 0
M  V30 7064 H 684.382 -1.25726 2.71723 0
M  V30 7065 H 681.928 -0.603387 1.30749 0
M  V30 7066 H 683.881 -3.62639 2.14641 0
M  V30 7067 H 682.605 -3.10283 1.01941 0
M  V30 7068 H 681.264 -2.18451 2.94406 0
M  V30 7069 H 680.912 -4.53703 2.1717 0
M  V30 7070 H 680.612 -4.37695 3.92042 0
M  V30 7071 H 682.136 -5.10934 3.34333 0
M  V30 7072 H 683.55 -3.28596 4.69785 0
M  V30 7073 H 681.947 -2.78903 5.3135 0
M  V30 7074 H 683.017 -1.57754 4.58521 0
M  V30 7075 N 684.36 -1.4356 -0.65026 0
M  V30 7076 C 685.323 -1.48615 -1.74489 0
M  V30 7077 C 686.323 -0.370483 -1.56474 0
M  V30 7078 O 687.513 -0.632351 -1.62317 0
M  V30 7079 C 684.645 -1.34161 -3.13391 0
M  V30 7080 H 685.838 -2.46103 -1.71387 0
M  V30 7081 H 683.391 -1.30369 -0.862186 0
M  V30 7082 H 684.126 -0.376918 -3.22102 0
M  V30 7083 H 683.911 -2.1504 -3.27872 0
M  V30 7084 H 685.401 -1.40637 -3.93206 0
M  V30 7085 N 685.838 0.888903 -1.30139 0
M  V30 7086 C 687.084 1.64288 -1.19922 0
M  V30 7087 C 687.439 1.90839 0.244561 0
M  V30 7088 O 686.732 1.51544 1.17239 0
M  V30 7089 C 686.926 2.99041 -1.95728 0
M  V30 7090 C 686.755 2.85644 -3.47329 0
M  V30 7091 C 685.525 2.85836 -4.16685 0
M  V30 7092 C 687.723 2.6188 -4.42632 0
M  V30 7093 N 685.705 2.63289 -5.54574 0
M  V30 7094 C 687.076 2.48418 -5.68057 0
M  V30 7095 C 689.131 2.47073 -4.32272 0
M  V30 7096 C 687.834 2.21655 -6.84296 0
M  V30 7097 C 689.86 2.21695 -5.48275 0
M  V30 7098 C 689.222 2.09007 -6.72678 0
M  V30 7099 H 685.321 0.606315 -0.493868 0
M  V30 7100 H 687.905 1.0478 -1.64102 0
M  V30 7101 H 686.076 3.56589 -1.53945 0
M  V30 7102 H 687.808 3.63607 -1.77685 0
M  V30 7103 H 684.563 2.97521 -3.68481 0
M  V30 7104 H 684.987 2.55039 -6.27124 0
M  V30 7105 H 689.629 2.55621 -3.36776 0
M  V30 7106 H 687.347 2.11845 -7.79838 0
M  V30 7107 H 690.933 2.11067 -5.42164 0
M  V30 7108 H 689.813 1.89643 -7.60924 0
M  V30 7109 N 687.317 1.12792 1.10072 0
M  V30 7110 C 688.594 0.796867 1.78632 0
M  V30 7111 C 688.974 -0.712739 1.98704 0
M  V30 7112 O 688.322 -1.64773 1.5831 0
M  V30 7113 C 688.532 1.57622 3.11378 0
M  V30 7114 C 689.88 1.76463 3.86194 0
M  V30 7115 O 690.904 1.54165 3.2111 0
M  V30 7116 O 689.763 2.13623 5.03018 0
M  V30 7117 H 686.857 0.290248 0.774394 0
M  V30 7118 H 689.403 1.23215 1.16688 0
M  V30 7119 H 688.175 2.60246 2.92212 0
M  V30 7120 H 687.798 1.13543 3.81043 0
M  V30 7121 N 688.795 -1.27931 0.920396 0
M  V30 7122 C 690.206 -1.76707 0.602616 0
M  V30 7123 C 690.557 -1.75249 -0.882159 0
M  V30 7124 O 689.682 -1.35135 -1.69019 0
M  V30 7125 C 690.277 -3.20884 1.08714 0
M  V30 7126 C 688.836 -3.67356 0.820157 0
M  V30 7127 C 687.983 -2.47525 1.25006 0
M  V30 7128 H 690.934 -1.14301 1.10095 0
M  V30 7129 H 690.955 -3.78045 0.431535 0
M  V30 7130 H 690.467 -3.21913 2.1678 0
M  V30 7131 H 688.568 -3.7178 -0.247012 0
M  V30 7132 H 688.681 -4.57181 1.43257 0
M  V30 7133 H 687.045 -2.45765 0.668698 0
M  V30 7134 H 687.828 -2.51269 2.3392 0
M  V30 7135 N 690.273 -0.685099 -1.4193 0
M  V30 7136 C 691.519 -0.211971 -2.01689 0
M  V30 7137 C 691.852 1.18189 -1.54094 0
M  V30 7138 O 691.127 1.79559 -0.747572 0
M  V30 7139 C 691.41 -0.258019 -3.59174 0
M  V30 7140 C 691.263 -1.68807 -4.16922 0
M  V30 7141 C 692.582 0.388044 -4.38386 0
M  V30 7142 H 689.701 -0.0784987 -0.732808 0
M  V30 7143 H 692.343 -0.871837 -1.68816 0
M  V30 7144 H 690.493 0.303832 -3.8731 0
M  V30 7145 H 692.165 -2.30296 -3.99702 0
M  V30 7146 H 690.408 -2.22553 -3.72361 0
M  V30 7147 H 691.079 -1.6719 -5.26072 0
M  V30 7148 H 693.555 -0.0903432 -4.16002 0
M  V30 7149 H 692.431 0.325232 -5.47936 0
M  V30 7150 H 692.692 1.4672 -4.17044 0
M  V30 7151 N 691.751 1.51645 -0.429126 0
M  V30 7152 C 692.698 2.27542 0.386446 0
M  V30 7153 C 693.668 1.30786 1.02393 0
M  V30 7154 O 694.853 1.59678 1.0444 0
M  V30 7155 C 691.993 3.11457 1.48623 0
M  V30 7156 C 691.106 4.23196 0.867691 0
M  V30 7157 C 690.241 4.94435 1.94183 0
M  V30 7158 C 689.28 5.98108 1.30129 0
M  V30 7159 N 688.417 6.62786 2.31644 0
M  V30 7160 H 693.257 2.968 -0.267155 0
M  V30 7161 H 690.794 1.46397 -0.143591 0
M  V30 7162 H 692.752 3.58429 2.13506 0
M  V30 7163 H 691.382 2.44329 2.10957 0
M  V30 7164 H 690.434 3.80248 0.107373 0
M  V30 7165 H 691.746 4.97499 0.35997 0
M  V30 7166 H 690.9 5.44914 2.66747 0
M  V30 7167 H 689.639 4.19744 2.48326 0
M  V30 7168 H 688.644 5.4693 0.561082 0
M  V30 7169 H 689.869 6.74751 0.767303 0
M  V30 7170 H 687.815 5.90913 2.84883 0
M  V30 7171 H 687.732 7.32828 1.85741 0
M  V30 7172 H 689 7.17897 3.03717 0
M  V30 7173 N 693.229 0.160201 1.56784 0
M  V30 7174 C 694.161 -0.80564 2.14574 0
M  V30 7175 C 695.174 -1.20154 1.09849 0
M  V30 7176 O 696.363 -1.14333 1.37078 0
M  V30 7177 C 693.463 -2.09434 2.6644 0
M  V30 7178 C 692.636 -1.86375 3.95706 0
M  V30 7179 C 691.695 -2.99358 4.32749 0
M  V30 7180 O 690.721 -2.70475 5.00831 0
M  V30 7181 N 691.923 -4.26867 3.93402 0
M  V30 7182 H 694.688 -0.311644 2.98075 0
M  V30 7183 H 692.249 -0.0229465 1.61884 0
M  V30 7184 H 694.241 -2.84091 2.88226 0
M  V30 7185 H 692.811 -2.50057 1.8759 0
M  V30 7186 H 692.031 -0.956821 3.82412 0
M  V30 7187 H 693.319 -1.68322 4.80151 0
M  V30 7188 H 692.717 -4.53197 3.38569 0
M  V30 7189 H 691.274 -4.98263 4.20211 0
M  V30 7190 N 694.707 -1.5719 -0.113559 0
M  V30 7191 C 695.654 -2.00736 -1.13901 0
M  V30 7192 C 696.624 -0.88044 -1.40846 0
M  V30 7193 O 697.809 -1.14507 -1.5262 0
M  V30 7194 C 694.949 -2.42132 -2.45899 0
M  V30 7195 C 694.062 -3.68264 -2.25844 0
M  V30 7196 C 693.197 -3.98617 -3.5111 0
M  V30 7197 C 692.236 -5.17915 -3.26236 0
M  V30 7198 N 691.373 -5.44111 -4.4372 0
M  V30 7199 H 696.213 -2.88128 -0.760677 0
M  V30 7200 H 693.75 -1.42523 -0.364099 0
M  V30 7201 H 695.708 -2.6417 -3.22908 0
M  V30 7202 H 694.338 -1.57775 -2.81615 0
M  V30 7203 H 693.39 -3.53809 -1.39726 0
M  V30 7204 H 694.702 -4.55425 -2.03444 0
M  V30 7205 H 693.856 -4.21333 -4.36536 0
M  V30 7206 H 692.595 -3.09942 -3.76546 0
M  V30 7207 H 691.6 -4.95038 -2.39202 0
M  V30 7208 H 692.825 -6.08172 -3.02165 0
M  V30 7209 H 690.771 -4.58394 -4.69266 0
M  V30 7210 H 690.688 -6.25606 -4.24444 0
M  V30 7211 H 691.956 -5.71351 -5.30263 0
M  V30 7212 N 696.185 0.383891 -1.52853 0
M  V30 7213 C 697.148 1.45197 -1.77343 0
M  V30 7214 C 698.148 1.47362 -0.643522 0
M  V30 7215 O 699.338 1.48443 -0.911613 0
M  V30 7216 C 696.47 2.8445 -1.87885 0
M  V30 7217 H 697.663 1.24764 -2.72716 0
M  V30 7218 H 695.216 0.615939 -1.43652 0
M  V30 7219 H 695.951 3.10222 -0.94515 0
M  V30 7220 H 695.736 2.8428 -2.70051 0
M  V30 7221 H 697.226 3.61832 -2.08488 0
M  V30 7222 N 697.663 1.43903 0.642637 0
M  V30 7223 C 698.626 1.49538 1.73698 0
M  V30 7224 C 699.626 0.378776 1.56275 0
M  V30 7225 O 700.816 0.64095 1.6198 0
M  V30 7226 C 697.948 1.35821 3.12675 0
M  V30 7227 H 699.141 2.47008 1.70079 0
M  V30 7228 H 696.694 1.30824 0.85526 0
M  V30 7229 H 697.429 0.393994 3.21898 0
M  V30 7230 H 697.214 2.16776 3.26727 0
M  V30 7231 H 698.704 1.4272 3.92455 0
M  V30 7232 N 699.141 -0.881989 1.30609 0
M  V30 7233 C 700.387 -1.63649 1.20791 0
M  V30 7234 C 700.742 -1.90966 -0.234437 0
M  V30 7235 O 700.035 -1.52163 -1.16434 0
M  V30 7236 C 700.229 -2.97999 1.97311 0
M  V30 7237 C 700.058 -2.83798 3.48839 0
M  V30 7238 C 698.828 -2.83622 4.18195 0
M  V30 7239 C 701.026 -2.59529 4.44015 0
M  V30 7240 N 699.008 -2.60344 5.55962 0
M  V30 7241 C 700.379 -2.45401 5.69366 0
M  V30 7242 C 702.434 -2.44777 4.33576 0
M  V30 7243 C 701.137 -2.18023 6.85462 0
M  V30 7244 C 703.163 -2.18785 5.49443 0
M  V30 7245 C 702.525 -2.05436 6.73777 0
M  V30 7246 H 698.624 -0.603687 0.497077 0
M  V30 7247 H 701.208 -1.03908 1.64655 0
M  V30 7248 H 699.379 -3.55767 1.55834 0
M  V30 7249 H 701.111 -3.6266 1.79611 0
M  V30 7250 H 697.866 -2.95562 3.70054 0
M  V30 7251 H 698.29 -2.51709 6.28468 0
M  V30 7252 H 702.932 -2.53831 3.38126 0
M  V30 7253 H 700.65 -2.07707 7.8095 0
M  V30 7254 H 704.236 -2.08188 5.43276 0
M  V30 7255 H 703.116 -1.85605 7.61919 0
M  V30 7256 N 700.619 -1.13374 -1.09472 0
M  V30 7257 C 701.566 -0.810682 -2.16094 0
M  V30 7258 C 702.536 0.227003 -1.64541 0
M  V30 7259 O 703.721 0.0993538 -1.90541 0
M  V30 7260 C 700.861 -0.282336 -3.43943 0
M  V30 7261 C 699.974 -1.37902 -4.09398 0
M  V30 7262 C 699.109 -0.809066 -5.25002 0
M  V30 7263 C 698.148 -1.88419 -5.82379 0
M  V30 7264 N 697.285 -1.33221 -6.89345 0
M  V30 7265 H 702.125 -1.72397 -2.43071 0
M  V30 7266 H 699.662 -0.860564 -1.19301 0
M  V30 7267 H 701.62 0.0421189 -4.17179 0
M  V30 7268 H 700.25 0.594083 -3.17286 0
M  V30 7269 H 699.302 -1.82008 -3.34032 0
M  V30 7270 H 700.614 -2.19161 -4.48074 0
M  V30 7271 H 699.768 -0.435867 -6.05132 0
M  V30 7272 H 698.507 0.0346058 -4.87688 0
M  V30 7273 H 697.512 -2.26646 -5.00911 0
M  V30 7274 H 698.737 -2.73125 -6.21755 0
M  V30 7275 H 696.683 -0.510535 -6.5401 0
M  V30 7276 H 696.6 -2.08129 -7.26786 0
M  V30 7277 H 697.868 -0.986565 -7.73232 0
M  V30 7278 N 702.098 1.27442 -0.927168 0
M  V30 7279 C 703.344 1.94679 -0.568164 0
M  V30 7280 C 703.677 1.72697 0.888219 0
M  V30 7281 O 702.952 1.05573 1.63354 0
M  V30 7282 C 703.235 3.4882 -0.894253 0
M  V30 7283 C 703.088 3.80146 -2.40435 0
M  V30 7284 C 704.407 4.38281 -0.399766 0
M  V30 7285 H 701.526 0.707071 -0.207892 0
M  V30 7286 H 704.168 1.50568 -1.15885 0
M  V30 7287 H 702.318 3.86522 -0.391566 0
M  V30 7288 H 703.99 3.52238 -2.97869 0
M  V30 7289 H 702.233 3.26716 -2.85375 0
M  V30 7290 H 702.904 4.87835 -2.58304 0
M  V30 7291 H 705.38 4.07726 -0.83058 0
M  V30 7292 H 704.256 5.44955 -0.656885 0
M  V30 7293 H 704.517 4.36521 0.700153 0
M  V30 7294 N 703.576 0.692616 1.41565 0
M  V30 7295 C 704.987 0.297478 1.84315 0
M  V30 7296 C 705.338 -1.16379 1.57957 0
M  V30 7297 O 704.463 -1.89303 1.0485 0
M  V30 7298 C 705.058 0.533136 3.34579 0
M  V30 7299 C 703.617 0.191944 3.7591 0
M  V30 7300 C 702.764 0.816873 2.64995 0
M  V30 7301 H 705.715 0.893488 1.31158 0
M  V30 7302 H 705.736 -0.209105 3.79925 0
M  V30 7303 H 705.248 1.59674 3.53731 0
M  V30 7304 H 703.349 -0.867512 3.6236 0
M  V30 7305 H 703.462 0.644902 4.7474 0
M  V30 7306 H 701.826 0.246715 2.53502 0
M  V30 7307 H 702.609 1.88429 2.86966 0
M  V30 7308 N 705.054 -1.51416 0.437162 0
M  V30 7309 C 706.284 -2.06204 -0.127859 0
M  V30 7310 C 706.692 -1.30463 -1.37026 0
M  V30 7311 O 706.035 -0.357516 -1.80187 0
M  V30 7312 C 706.097 -3.55783 -0.515632 0
M  V30 7313 C 705.761 -4.52776 0.619937 0
M  V30 7314 C 706.758 -4.98031 1.49201 0
M  V30 7315 C 704.443 -4.95878 0.800618 0
M  V30 7316 C 706.437 -5.85061 2.52947 0
M  V30 7317 C 704.124 -5.82699 1.84135 0
M  V30 7318 C 705.122 -6.27188 2.70416 0
M  V30 7319 O 704.81 -7.12284 3.72702 0
M  V30 7320 H 704.542 -0.675903 -0.011442 0
M  V30 7321 H 707.096 -1.95977 0.614986 0
M  V30 7322 H 705.326 -3.63793 -1.31118 0
M  V30 7323 H 707.015 -3.93087 -1.01179 0
M  V30 7324 H 707.781 -4.65426 1.36395 0
M  V30 7325 H 703.66 -4.60792 0.138617 0
M  V30 7326 H 707.204 -6.19708 3.20325 0
M  V30 7327 H 703.101 -6.14717 1.9696 0
M  V30 7328 H 703.869 -7.30462 3.69281 0
M  V30 7329 N 706.532 -0.168513 -1.56696 0
M  V30 7330 C 707.943 0.348694 -1.83415 0
M  V30 7331 C 708.294 1.63257 -1.0882 0
M  V30 7332 O 707.419 2.13707 -0.340333 0
M  V30 7333 C 708.014 0.639423 -3.32711 0
M  V30 7334 C 706.573 1.10108 -3.59935 0
M  V30 7335 C 705.72 0.135464 -2.76969 0
M  V30 7336 H 708.671 -0.392829 -1.53761 0
M  V30 7337 H 708.692 1.49179 -3.50037 0
M  V30 7338 H 708.204 -0.295173 -3.86976 0
M  V30 7339 H 706.305 2.05088 -3.11079 0
M  V30 7340 H 706.418 1.01218 -4.68286 0
M  V30 7341 H 704.782 0.632286 -2.46727 0
M  V30 7342 H 705.565 -0.793104 -3.34013 0
M  V30 7343 N 708.01 1.57248 0.105221 0
M  V30 7344 C 709.238 1.89768 0.82437 0
M  V30 7345 C 709.653 0.761192 1.72775 0
M  V30 7346 O 709.01 -0.267342 1.80531 0
M  V30 7347 C 709.061 3.2184 1.64625 0
M  V30 7348 O 708.782 4.31115 0.779217 0
M  V30 7349 C 710.283 3.68155 2.46935 0
M  V30 7350 H 707.503 0.628031 0.236259 0
M  V30 7351 H 710.047 2.04321 0.085485 0
M  V30 7352 H 708.202 3.08915 2.33775 0
M  V30 7353 H 708.616 5.06897 1.34745 0
M  V30 7354 H 710.09 4.6329 3.00111 0
M  V30 7355 H 710.567 2.95492 3.24932 0
M  V30 7356 H 711.173 3.83914 1.83002 0
M  V30 7357 N 709.488 -0.375779 1.53054 0
M  V30 7358 C 710.438 -1.45965 1.75152 0
M  V30 7359 C 711.422 -1.49059 0.605823 0
M  V30 7360 O 712.614 -1.54472 0.864133 0
M  V30 7361 C 709.743 -2.83524 1.93569 0
M  V30 7362 C 708.829 -2.84949 3.1411 0
M  V30 7363 N 709.22 -2.56029 4.36214 0
M  V30 7364 C 707.518 -3.16113 3.14625 0
M  V30 7365 C 708.219 -2.64873 5.17897 0
M  V30 7366 N 707.195 -2.99159 4.53878 0
M  V30 7367 H 710.997 -1.22454 2.67175 0
M  V30 7368 H 708.511 -0.583867 1.51541 0
M  V30 7369 H 710.508 -3.61578 2.07525 0
M  V30 7370 H 709.168 -3.08008 1.02768 0
M  V30 7371 H 710.179 -2.29808 4.64121 0
M  V30 7372 H 706.856 -3.45977 2.3368 0
M  V30 7373 H 708.246 -2.45947 6.25268 0
M  V30 7374 N 710.966 -1.44241 -0.634997 0
M  V30 7375 C 712.212 -1.48033 -1.39492 0
M  V30 7376 C 712.567 -0.109791 -1.92086 0
M  V30 7377 O 711.86 0.874394 -1.70484 0
M  V30 7378 C 712.054 -2.47279 -2.58046 0
M  V30 7379 C 711.883 -3.93848 -2.17057 0
M  V30 7380 C 710.653 -4.62061 -2.04518 0
M  V30 7381 C 712.851 -4.83172 -1.76208 0
M  V30 7382 N 710.833 -5.93471 -1.57051 0
M  V30 7383 C 712.204 -6.03996 -1.39958 0
M  V30 7384 C 714.259 -4.70271 -1.63554 0
M  V30 7385 C 712.962 -7.13351 -0.923196 0
M  V30 7386 C 714.988 -5.79646 -1.1732 0
M  V30 7387 C 714.35 -6.99609 -0.820181 0
M  V30 7388 H 710.449 -0.596743 -0.505392 0
M  V30 7389 H 713.033 -1.80542 -0.72887 0
M  V30 7390 H 711.204 -2.16766 -3.22284 0
M  V30 7391 H 712.936 -2.41391 -3.24827 0
M  V30 7392 H 709.691 -4.1682 -2.24851 0
M  V30 7393 H 710.115 -6.63275 -1.35628 0
M  V30 7394 H 714.757 -3.77964 -1.8948 0
M  V30 7395 H 712.475 -8.0547 -0.651441 0
M  V30 7396 H 716.061 -5.71689 -1.07993 0
M  V30 7397 H 714.941 -7.82803 -0.467901 0
M  V30 7398 N 712.444 0.87505 -1.31075 0
M  V30 7399 C 713.392 2.00317 -1.18219 0
M  V30 7400 C 714.386 1.69152 -0.0916872 0
M  V30 7401 O 715.592 1.7821 -0.253229 0
M  V30 7402 H 711.967 0.656981 -0.365895 0
M  V30 7403 H 713.938 2.08293 -2.13674 0
M  V30 7404 C 712.687 3.35821 -0.901095 0
M  V30 7405 H 712.01 3.6032 -1.73233 0
M  V30 7406 H 713.45 4.15366 -0.851295 0
M  V30 7407 C 711.909 3.34563 0.396114 0
M  V30 7408 O 712.439 3.75971 1.41452 0
M  V30 7409 N 710.645 2.87681 0.410832 0
M  V30 7410 H 710.192 2.54179 -0.418415 0
M  V30 7411 H 710.15 2.87223 1.27869 0
M  V30 7412 N 713.922 1.13953 1.08869 0
M  V30 7413 C 715.17 0.903023 1.80803 0
M  V30 7414 C 715.491 -0.572151 1.86417 0
M  V30 7415 O 714.761 -1.41589 1.35386 0
M  V30 7416 H 713.341 0.331099 0.669614 0
M  V30 7417 H 716.003 1.43719 1.31647 0
M  V30 7418 H 715.099 1.29881 2.83791 0
M  V30 7419 N 715.4 -1.26948 0.933913 0
M  V30 7420 C 716.648 -1.93704 0.576484 0
M  V30 7421 C 716.969 -1.73702 -0.886145 0
M  V30 7422 O 716.239 -1.08838 -1.62884 0
M  V30 7423 H 714.819 -0.716812 0.210214 0
M  V30 7424 H 717.481 -1.54534 1.18766 0
M  V30 7425 H 716.577 -3.01987 0.788055 0
M  V30 7426 N 716.879 -0.700114 -1.41195 0
M  V30 7427 C 718.107 -0.242179 -2.05478 0
M  V30 7428 C 718.522 1.11029 -1.52702 0
M  V30 7429 O 717.879 1.69473 -0.677127 0
M  V30 7430 C 717.93 -0.196271 -3.60967 0
M  V30 7431 O 717.651 -1.49532 -4.11791 0
M  V30 7432 C 719.152 0.282102 -4.42401 0
M  V30 7433 H 716.372 -0.111749 -0.661629 0
M  V30 7434 H 718.916 -0.953975 -1.80885 0
M  V30 7435 H 717.071 0.46638 -3.84582 0
M  V30 7436 H 717.485 -1.38545 -5.05871 0
M  V30 7437 H 718.959 0.263093 -5.51373 0
M  V30 7438 H 719.436 1.32174 -4.1884 0
M  V30 7439 H 720.042 -0.349712 -4.2386 0
M  V30 7440 N 718.357 1.51182 -0.445186 0
M  V30 7441 C 719.287 2.30821 0.352686 0
M  V30 7442 C 720.268 1.36576 1.01395 0
M  V30 7443 O 721.453 1.65497 1.01609 0
M  V30 7444 C 718.583 3.15593 1.44976 0
M  V30 7445 C 717.537 4.1818 0.911553 0
M  V30 7446 C 716.863 4.91523 2.10497 0
M  V30 7447 C 718.163 5.22266 -0.059418 0
M  V30 7448 H 719.857 2.97771 -0.311936 0
M  V30 7449 H 717.403 1.43201 -0.151461 0
M  V30 7450 H 719.356 3.70091 2.01521 0
M  V30 7451 H 718.08 2.4648 2.14278 0
M  V30 7452 H 716.739 3.64746 0.368264 0
M  V30 7453 H 716.387 4.18906 2.78437 0
M  V30 7454 H 716.087 5.60898 1.7512 0
M  V30 7455 H 717.611 5.48847 2.6758 0
M  V30 7456 H 719.025 5.71789 0.415985 0
M  V30 7457 H 717.422 5.99213 -0.326152 0
M  V30 7458 H 718.492 4.7461 -0.993631 0
M  V30 7459 N 719.835 0.176821 1.56605 0
M  V30 7460 C 721.06 -0.47599 2.01864 0
M  V30 7461 C 721.485 -1.55645 1.05623 0
M  V30 7462 O 720.843 -1.81263 0.0366729 0
M  V30 7463 C 720.891 -1.02619 3.4569 0
M  V30 7464 O 719.995 -2.13996 3.52533 0
M  V30 7465 H 719.336 -0.113363 0.654251 0
M  V30 7466 H 721.866 0.28233 2.02643 0
M  V30 7467 H 721.876 -1.34742 3.85109 0
M  V30 7468 H 720.551 -0.235138 4.15235 0
M  V30 7469 H 719.128 -1.82876 3.24978 0
M  V30 7470 N 721.313 -1.57302 -0.09688 0
M  V30 7471 C 722.541 -1.90202 -0.814295 0
M  V30 7472 C 722.956 -0.770344 -1.72369 0
M  V30 7473 O 722.313 0.257764 -1.8067 0
M  V30 7474 C 722.364 -3.22708 -1.62916 0
M  V30 7475 O 722.085 -4.31522 -0.756343 0
M  V30 7476 C 723.586 -3.69459 -2.44979 0
M  V30 7477 H 720.806 -0.629275 -0.232925 0
M  V30 7478 H 723.35 -2.04364 -0.0746482 0
M  V30 7479 H 721.505 -3.1015 -2.32133 0
M  V30 7480 H 721.919 -5.07604 -1.32054 0
M  V30 7481 H 723.393 -4.64875 -2.9765 0
M  V30 7482 H 723.87 -2.97211 -3.23361 0
M  V30 7483 H 724.476 -3.84879 -1.80964 0
M  V30 7484 N 722.791 0.367657 -1.53252 0
M  V30 7485 C 723.754 1.43308 -1.78873 0
M  V30 7486 C 724.754 1.46671 -0.659115 0
M  V30 7487 O 725.944 1.47468 -0.927306 0
M  V30 7488 C 723.076 2.82442 -1.90892 0
M  V30 7489 H 724.269 1.21864 -2.74024 0
M  V30 7490 H 721.822 0.600668 -1.44297 0
M  V30 7491 H 722.557 3.09202 -0.978 0
M  V30 7492 H 722.342 2.81399 -2.73051 0
M  V30 7493 H 723.832 3.59601 -2.12314 0
M  V30 7494 N 724.269 1.44576 0.627338 0
M  V30 7495 C 725.517 1.47267 1.38408 0
M  V30 7496 C 725.838 0.107971 1.94701 0
M  V30 7497 O 725.108 -0.860206 1.76004 0
M  V30 7498 H 723.688 0.542276 0.513756 0
M  V30 7499 H 726.35 1.80383 0.738099 0
M  V30 7500 H 725.446 2.20025 2.21349 0
M  V30 7501 N 725.747 -0.868086 1.31537 0
M  V30 7502 C 726.695 -1.99688 1.1928 0
M  V30 7503 C 727.689 -1.69101 0.100656 0
M  V30 7504 O 728.895 -1.78073 0.262677 0
M  V30 7505 H 725.27 -0.655032 0.369374 0
M  V30 7506 H 727.241 -2.07157 2.14776 0
M  V30 7507 C 725.99 -3.35338 0.918892 0
M  V30 7508 H 725.313 -3.59396 1.75142 0
M  V30 7509 H 726.753 -4.14909 0.873311 0
M  V30 7510 C 725.212 -3.34769 -0.378366 0
M  V30 7511 O 725.742 -3.76716 -1.39456 0
M  V30 7512 N 723.948 -2.87895 -0.39557 0
M  V30 7513 H 723.495 -2.53954 0.431889 0
M  V30 7514 H 723.453 -2.87897 -1.26344 0
M  V30 7515 N 727.225 -1.14528 -1.08264 0
M  V30 7516 C 728.155 -0.856356 -2.1723 0
M  V30 7517 C 729.136 0.189251 -1.69044 0
M  V30 7518 O 730.321 0.0456119 -1.94146 0
M  V30 7519 C 727.451 -0.334662 -3.45684 0
M  V30 7520 C 726.405 -1.31588 -4.0727 0
M  V30 7521 C 725.731 -0.653428 -5.30692 0
M  V30 7522 C 727.031 -2.67866 -4.48381 0
M  V30 7523 H 728.725 -1.76755 -2.41657 0
M  V30 7524 H 726.271 -0.851287 -1.16143 0
M  V30 7525 H 728.224 -0.120128 -4.21229 0
M  V30 7526 H 726.948 0.611967 -3.20815 0
M  V30 7527 H 725.607 -1.51661 -3.33758 0
M  V30 7528 H 725.255 0.299054 -5.0211 0
M  V30 7529 H 724.955 -1.30817 -5.72853 0
M  V30 7530 H 726.479 -0.448453 -6.08951 0
M  V30 7531 H 727.893 -2.51692 -5.15096 0
M  V30 7532 H 726.29 -3.29627 -5.01464 0
M  V30 7533 H 727.36 -3.24632 -3.60198 0
M  V30 7534 N 728.703 1.26451 -0.940633 0
M  V30 7535 C 729.949 1.94065 -0.58878 0
M  V30 7536 C 730.282 1.7363 0.869853 0
M  V30 7537 O 729.557 1.073 1.62225 0
M  V30 7538 C 729.84 3.47852 -0.931199 0
M  V30 7539 C 729.693 3.77575 -2.44453 0
M  V30 7540 C 731.012 4.37832 -0.446229 0
M  V30 7541 H 728.131 0.704827 -0.21538 0
M  V30 7542 H 730.773 1.4933 -1.17475 0
M  V30 7543 H 728.923 3.86085 -0.432539 0
M  V30 7544 H 730.595 3.49059 -3.01588 0
M  V30 7545 H 728.838 3.23671 -2.88825 0
M  V30 7546 H 729.509 4.85068 -2.63464 0
M  V30 7547 H 731.985 4.06822 -0.873778 0
M  V30 7548 H 730.861 5.44228 -0.714648 0
M  V30 7549 H 731.122 4.37239 0.653815 0
M  V30 7550 N 730.181 0.707592 1.40822 0
M  V30 7551 C 731.428 0.243671 2.01029 0
M  V30 7552 C 731.756 -1.16057 1.5608 0
M  V30 7553 O 731.011 -1.7999 0.768251 0
M  V30 7554 C 731.31 0.262892 3.56432 0
M  V30 7555 C 730.976 1.61632 4.20935 0
M  V30 7556 C 729.638 1.98682 4.38268 0
M  V30 7557 C 731.99 2.50619 4.5699 0
M  V30 7558 C 729.318 3.2428 4.88937 0
M  V30 7559 C 731.67 3.75562 5.09054 0
M  V30 7560 C 730.334 4.12739 5.24598 0
M  V30 7561 H 729.604 0.0891654 0.735616 0
M  V30 7562 H 732.251 0.909051 1.68548 0
M  V30 7563 H 730.556 -0.486052 3.88773 0
M  V30 7564 H 732.253 -0.113775 4.00839 0
M  V30 7565 H 728.843 1.31818 4.07826 0
M  V30 7566 H 733.027 2.23272 4.43242 0
M  V30 7567 H 728.283 3.53064 4.99155 0
M  V30 7568 H 732.457 4.44692 5.35931 0
M  V30 7569 H 730.084 5.10132 5.63622 0
M  V30 7570 N 731.66 -1.50943 0.453197 0
M  V30 7571 C 732.592 -2.25922 -0.38623 0
M  V30 7572 C 733.605 -1.3055 -0.972652 0
M  V30 7573 O 734.794 -1.56191 -0.864097 0
M  V30 7574 C 731.894 -3.01176 -1.5539 0
M  V30 7575 C 731.067 -4.23768 -1.0835 0
M  V30 7576 C 730.126 -4.81466 -2.12313 0
M  V30 7577 O 729.152 -5.42875 -1.71101 0
M  V30 7578 N 730.354 -4.66889 -3.44956 0
M  V30 7579 H 733.119 -2.98601 0.256468 0
M  V30 7580 H 730.68 -1.59408 0.282965 0
M  V30 7581 H 732.672 -3.36659 -2.24594 0
M  V30 7582 H 731.242 -2.31409 -2.10163 0
M  V30 7583 H 730.462 -3.93597 -0.217961 0
M  V30 7584 H 731.75 -5.03289 -0.746857 0
M  V30 7585 H 731.148 -4.18011 -3.81161 0
M  V30 7586 H 729.705 -5.06691 -4.1001 0
M  V30 7587 N 733.138 -0.185124 -1.56509 0
M  V30 7588 C 734.386 0.455357 -1.96903 0
M  V30 7589 C 734.707 1.62839 -1.07277 0
M  V30 7590 O 733.977 1.95385 -0.141966 0
M  V30 7591 H 732.557 0.171218 -0.727113 0
M  V30 7592 H 735.219 -0.26953 -1.93027 0
M  V30 7593 H 734.315 0.80616 -3.01509 0
M  V30 7594 N 734.616 1.57351 0.0885366 0
M  V30 7595 C 735.844 1.90631 0.804196 0
M  V30 7596 C 736.259 0.779474 1.71958 0
M  V30 7597 O 735.616 -0.248179 1.80805 0
M  V30 7598 C 735.667 3.23568 1.61202 0
M  V30 7599 O 735.388 4.31917 0.733447 0
M  V30 7600 C 736.889 3.70753 2.43016 0
M  V30 7601 H 734.109 0.630501 0.229585 0
M  V30 7602 H 736.653 2.044 0.0638092 0
M  V30 7603 H 734.808 3.11377 2.30485 0
M  V30 7604 H 735.222 5.08297 1.29361 0
M  V30 7605 H 736.696 4.66447 2.9518 0
M  V30 7606 H 737.173 2.98922 3.2178 0
M  V30 7607 H 737.779 3.85834 1.7892 0
M  V30 7608 N 736.094 -0.359525 1.53444 0
M  V30 7609 C 737.057 -1.42357 1.7963 0
M  V30 7610 C 738.057 -1.46319 0.666884 0
M  V30 7611 O 739.247 -1.46974 0.935113 0
M  V30 7612 C 736.379 -2.81425 1.92387 0
M  V30 7613 H 737.572 -1.20409 2.74666 0
M  V30 7614 H 735.125 -0.593007 1.44614 0
M  V30 7615 H 735.86 -3.08679 0.994384 0
M  V30 7616 H 735.645 -2.79947 2.74539 0
M  V30 7617 H 737.135 -3.5847 2.14218 0
M  V30 7618 N 737.572 -1.44907 -0.619662 0
M  V30 7619 C 738.535 -1.52282 -1.71297 0
M  V30 7620 C 739.535 -0.40359 -1.55653 0
M  V30 7621 O 740.725 -0.666638 -1.6094 0
M  V30 7622 C 737.857 -1.40778 -3.10474 0
M  V30 7623 H 739.05 -2.49683 -1.66128 0
M  V30 7624 H 736.603 -1.32168 -0.834339 0
M  V30 7625 H 737.338 -0.445156 -3.2123 0
M  V30 7626 H 737.123 -2.21947 -3.23237 0
M  V30 7627 H 738.613 -1.48946 -3.90135 0
M  V30 7628 N 739.05 0.861098 -1.31996 0
M  V30 7629 C 740.298 1.61162 -1.21947 0
M  V30 7630 C 740.619 1.93751 0.220351 0
M  V30 7631 O 739.889 1.59069 1.14341 0
M  V30 7632 H 738.469 0.597485 -0.448353 0
M  V30 7633 H 741.131 1.03039 -1.65436 0
M  V30 7634 H 740.227 2.55138 -1.79752 0
M  V30 7635 N 740.528 1.15101 1.07655 0
M  V30 7636 C 741.46 0.802722 2.14684 0
M  V30 7637 C 742.473 -0.183874 1.61758 0
M  V30 7638 O 743.662 0.0389349 1.78458 0
M  V30 7639 C 740.762 0.172135 3.38463 0
M  V30 7640 C 739.935 1.19538 4.20749 0
M  V30 7641 C 738.994 0.58714 5.22914 0
M  V30 7642 O 738.02 1.25224 5.55255 0
M  V30 7643 N 739.222 -0.632566 5.77043 0
M  V30 7644 H 741.987 1.72379 2.45164 0
M  V30 7645 H 739.548 1.04647 1.23534 0
M  V30 7646 H 741.54 -0.247465 4.03943 0
M  V30 7647 H 740.11 -0.652214 3.0572 0
M  V30 7648 H 739.33 1.79165 3.51132 0
M  V30 7649 H 740.618 1.88636 4.7254 0
M  V30 7650 H 740.016 -1.19135 5.53013 0
M  V30 7651 H 738.573 -0.994566 6.44167 0
M  V30 7652 N 742.006 -1.2595 0.947325 0
M  V30 7653 C 742.939 -2.24559 0.406009 0
M  V30 7654 C 743.917 -1.54441 -0.508598 0
M  V30 7655 O 745.101 -1.83181 -0.444644 0
M  V30 7656 C 742.228 -3.36136 -0.415987 0
M  V30 7657 C 741.274 -4.24245 0.437969 0
M  V30 7658 S 742.107 -5.01948 1.86572 0
M  V30 7659 C 743.263 -6.16997 1.05194 0
M  V30 7660 H 743.496 -2.70128 1.24171 0
M  V30 7661 H 741.029 -1.34912 0.750874 0
M  V30 7662 H 742.987 -4.00861 -0.88433 0
M  V30 7663 H 741.648 -2.89167 -1.22643 0
M  V30 7664 H 740.841 -5.03634 -0.192127 0
M  V30 7665 H 740.443 -3.64416 0.841235 0
M  V30 7666 H 742.735 -6.76848 0.297126 0
M  V30 7667 H 743.678 -6.84324 1.8195 0
M  V30 7668 H 744.086 -5.61458 0.585294 0
M  V30 7669 N 743.484 -0.715051 -1.40445 0
M  V30 7670 C 744.434 -0.038591 -2.27967 0
M  V30 7671 C 745.418 0.733099 -1.43229 0
M  V30 7672 O 746.61 0.605388 -1.66325 0
M  V30 7673 C 743.739 0.882801 -3.31755 0
M  V30 7674 C 742.825 0.106325 -4.23967 0
M  V30 7675 N 743.216 -0.910143 -4.97544 0
M  V30 7676 C 741.514 0.33896 -4.4471 0
M  V30 7677 C 742.215 -1.37665 -5.65175 0
M  V30 7678 N 741.191 -0.698905 -5.39088 0
M  V30 7679 H 744.993 -0.81765 -2.82297 0
M  V30 7680 H 742.507 -0.547591 -1.5289 0
M  V30 7681 H 744.504 1.38273 -3.93302 0
M  V30 7682 H 743.164 1.66124 -2.78985 0
M  V30 7683 H 744.175 -1.29097 -5.01552 0
M  V30 7684 H 740.852 1.09377 -4.02918 0
M  V30 7685 H 742.242 -2.22122 -6.34123 0
M  V30 7686 N 744.962 1.50701 -0.461195 0
M  V30 7687 C 745.925 2.2686 0.326679 0
M  V30 7688 C 746.925 1.31243 0.929085 0
M  V30 7689 O 748.115 1.54754 0.799807 0
M  V30 7690 C 745.247 3.07844 1.46441 0
M  V30 7691 H 746.44 2.97954 -0.341095 0
M  V30 7692 H 743.993 1.54814 -0.214984 0
M  V30 7693 H 744.728 2.41223 2.16753 0
M  V30 7694 H 744.513 3.78101 1.03836 0
M  V30 7695 H 746.003 3.65469 2.02044 0
M  V30 7696 N 746.441 0.193421 1.56409 0
M  V30 7697 C 747.671 -0.450783 2.01622 0
M  V30 7698 C 748.079 -1.5585 1.07273 0
M  V30 7699 O 747.422 -1.83569 0.0694875 0
M  V30 7700 C 747.484 -1.06913 3.43235 0
M  V30 7701 C 747.148 -0.100352 4.5689 0
M  V30 7702 C 748.145 0.689633 5.15306 0
M  V30 7703 C 745.83 0.0102436 5.02299 0
M  V30 7704 C 747.824 1.5772 6.17579 0
M  V30 7705 C 745.511 0.901368 6.04416 0
M  V30 7706 C 746.509 1.68341 6.61929 0
M  V30 7707 O 746.197 2.5596 7.62063 0
M  V30 7708 H 745.929 -0.117671 0.66568 0
M  V30 7709 H 748.483 0.2989 2.03214 0
M  V30 7710 H 746.713 -1.86736 3.38624 0
M  V30 7711 H 748.402 -1.61781 3.72266 0
M  V30 7712 H 749.168 0.614485 4.81092 0
M  V30 7713 H 745.047 -0.58829 4.57231 0
M  V30 7714 H 748.591 2.18805 6.62397 0
M  V30 7715 H 744.488 0.977637 6.38054 0
M  V30 7716 H 745.256 2.49721 7.79475 0
M  V30 7717 N 747.919 -1.57396 -0.0801906 0
M  V30 7718 C 749.144 -1.91437 -0.797909 0
M  V30 7719 C 749.569 -0.789075 -1.70749 0
M  V30 7720 O 748.927 0.25857 -1.79447 0
M  V30 7721 C 748.975 -3.24402 -1.57467 0
M  V30 7722 O 748.079 -3.13043 -2.68473 0
M  V30 7723 H 747.42 -0.627109 -0.218243 0
M  V30 7724 H 749.95 -2.04537 -0.050949 0
M  V30 7725 H 749.96 -3.58072 -1.95571 0
M  V30 7726 H 748.635 -4.05884 -0.907229 0
M  V30 7727 H 747.212 -2.90915 -2.33287 0
M  V30 7728 N 749.397 0.351382 -1.53633 0
M  V30 7729 C 750.36 1.41403 -1.80383 0
M  V30 7730 C 751.36 1.45963 -0.674635 0
M  V30 7731 O 752.55 1.46476 -0.942895 0
M  V30 7732 C 749.682 2.80401 -1.93876 0
M  V30 7733 H 750.875 1.18951 -2.75301 0
M  V30 7734 H 748.428 0.58533 -1.44926 0
M  V30 7735 H 749.163 3.08147 -1.01074 0
M  V30 7736 H 748.948 2.78488 -2.7602 0
M  V30 7737 H 750.438 3.57329 -2.16116 0
M  V30 7738 N 750.875 1.45233 0.611969 0
M  V30 7739 C 752.152 1.39495 1.37115 0
M  V30 7740 C 752.532 0.0633303 2.11005 0
M  V30 7741 O 751.88 -0.954617 2.07604 0
M  V30 7742 C 752.09 2.60579 2.32163 0
M  V30 7743 C 753.438 3.05477 2.94905 0
M  V30 7744 O 754.462 2.60921 2.42485 0
M  V30 7745 O 753.321 3.82787 3.90047 0
M  V30 7746 H 750.415 0.55335 0.614599 0
M  V30 7747 H 752.961 1.57355 0.635423 0
M  V30 7748 H 751.733 3.49085 1.76793 0
M  V30 7749 H 751.356 2.45031 3.13122 0
M  V30 7750 N 752.353 -0.854086 1.3245 0
M  V30 7751 C 753.3 -1.96271 1.21434 0
M  V30 7752 C 754.27 -1.6582 0.0963851 0
M  V30 7753 O 755.455 -1.88851 0.27203 0
M  V30 7754 C 752.595 -3.31939 0.943952 0
M  V30 7755 C 751.708 -3.74885 2.14675 0
M  V30 7756 C 750.843 -4.99347 1.81179 0
M  V30 7757 C 749.882 -5.34785 2.97777 0
M  V30 7758 N 749.019 -6.50425 2.6437 0
M  V30 7759 H 753.859 -2.05025 2.16261 0
M  V30 7760 H 751.396 -1.00348 1.07558 0
M  V30 7761 H 753.354 -4.10076 0.767675 0
M  V30 7762 H 751.984 -3.22784 0.0324763 0
M  V30 7763 H 751.036 -2.92396 2.43328 0
M  V30 7764 H 752.348 -3.97068 3.01891 0
M  V30 7765 H 751.502 -5.85193 1.60107 0
M  V30 7766 H 750.241 -4.79101 0.911777 0
M  V30 7767 H 749.246 -4.47451 3.1948 0
M  V30 7768 H 750.471 -5.56988 3.88511 0
M  V30 7769 H 748.417 -6.31695 1.7691 0
M  V30 7770 H 748.334 -6.7263 3.45116 0
M  V30 7771 H 749.602 -7.39422 2.46729 0
M  V30 7772 N 753.831 -1.1567 -1.07043 0
M  V30 7773 C 755.079 -0.931673 -1.79344 0
M  V30 7774 C 755.4 0.542421 -1.87304 0
M  V30 7775 O 754.67 1.39418 -1.37621 0
M  V30 7776 H 753.25 -0.34171 -0.664262 0
M  V30 7777 H 755.912 -1.45795 -1.29344 0
M  V30 7778 H 755.008 -1.34379 -2.81689 0
M  V30 7779 N 755.309 1.25446 -0.953992 0
M  V30 7780 C 756.219 2.29632 -0.480264 0
M  V30 7781 C 757.235 1.68025 0.452071 0
M  V30 7782 O 758.411 1.98703 0.328472 0
M  V30 7783 C 755.476 3.45903 0.234974 0
M  V30 7784 C 754.537 4.22953 -0.735495 0
M  V30 7785 C 753.77 5.33672 -0.0542957 0
M  V30 7786 O 753.993 5.58477 1.16018 0
M  V30 7787 O 752.927 5.9734 -0.739509 0
M  V30 7788 H 756.753 2.72242 -1.34602 0
M  V30 7789 H 754.338 1.30883 -0.720419 0
M  V30 7790 H 756.22 4.16552 0.637341 0
M  V30 7791 H 754.895 3.05296 1.07592 0
M  V30 7792 H 753.802 3.54734 -1.18806 0
M  V30 7793 H 755.135 4.67341 -1.54444 0
M  V30 7794 N 756.787 0.722489 1.40064 0
M  V30 7795 C 757.75 0.0830209 2.2905 0
M  V30 7796 C 758.75 -0.680208 1.45705 0
M  V30 7797 O 759.94 -0.511084 1.66534 0
M  V30 7798 C 757.072 -0.892092 3.29021 0
M  V30 7799 H 758.265 0.866848 2.87099 0
M  V30 7800 H 755.818 0.487556 1.48501 0
M  V30 7801 H 756.553 -1.70273 2.76003 0
M  V30 7802 H 756.338 -0.34761 3.90556 0
M  V30 7803 H 757.828 -1.33648 3.95636 0
M  V30 7804 N 758.265 -1.50454 0.469181 0
M  V30 7805 C 759.195 -2.31353 -0.31592 0
M  V30 7806 C 760.176 -1.38172 -0.992094 0
M  V30 7807 O 761.361 -1.67093 -0.989633 0
M  V30 7808 C 758.491 -3.1786 -1.39937 0
M  V30 7809 C 757.445 -4.19578 -0.844909 0
M  V30 7810 C 756.771 -4.9481 -2.0265 0
M  V30 7811 C 758.071 -5.22106 0.142499 0
M  V30 7812 H 759.765 -2.97237 0.359269 0
M  V30 7813 H 757.311 -1.42942 0.174224 0
M  V30 7814 H 759.264 -3.7325 -1.95607 0
M  V30 7815 H 757.988 -2.49858 -2.1033 0
M  V30 7816 H 756.647 -3.65285 -0.310189 0
M  V30 7817 H 756.295 -4.23282 -2.71737 0
M  V30 7818 H 755.995 -5.63613 -1.66174 0
M  V30 7819 H 757.519 -5.53035 -2.58815 0
M  V30 7820 H 758.933 -5.72378 -0.324966 0
M  V30 7821 H 757.33 -5.98618 0.421441 0
M  V30 7822 H 758.4 -4.7297 1.06901 0
M  V30 7823 N 759.743 -0.201713 -1.56304 0
M  V30 7824 C 760.989 0.429292 -1.98818 0
M  V30 7825 C 761.344 1.58779 -1.08659 0
M  V30 7826 O 760.637 1.91142 -0.132365 0
M  V30 7827 C 760.831 0.931432 -3.45049 0
M  V30 7828 C 760.66 -0.176878 -4.49352 0
M  V30 7829 C 759.43 -0.636712 -5.01272 0
M  V30 7830 C 761.628 -0.988177 -5.04717 0
M  V30 7831 N 759.61 -1.72215 -5.8925 0
M  V30 7832 C 760.981 -1.92288 -5.89428 0
M  V30 7833 C 763.036 -1.02985 -4.87133 0
M  V30 7834 C 761.739 -2.89582 -6.58434 0
M  V30 7835 C 763.765 -1.99087 -5.56883 0
M  V30 7836 C 763.127 -2.913 -6.41345 0
M  V30 7837 H 759.226 0.124322 -0.772054 0
M  V30 7838 H 761.81 -0.308929 -1.92234 0
M  V30 7839 H 759.981 1.63907 -3.52121 0
M  V30 7840 H 761.713 1.5336 -3.74517 0
M  V30 7841 H 758.468 -0.228861 -4.73047 0
M  V30 7842 H 758.892 -2.26627 -6.37941 0
M  V30 7843 H 763.534 -0.330894 -4.21503 0
M  V30 7844 H 761.252 -3.6045 -7.23258 0
M  V30 7845 H 764.838 -2.0296 -5.45251 0
M  V30 7846 H 763.718 -3.6445 -6.94367 0
M  V30 7847 N 761.222 1.57436 0.0718424 0
M  V30 7848 C 762.154 2.00412 1.1121 0
M  V30 7849 C 763.167 0.910074 1.34987 0
M  V30 7850 O 764.356 1.18796 1.33228 0
M  V30 7851 C 761.456 2.32786 2.46301 0
M  V30 7852 C 760.629 3.64036 2.4248 0
M  V30 7853 C 759.688 3.8408 3.59679 0
M  V30 7854 O 758.714 4.55667 3.4111 0
M  V30 7855 N 759.916 3.2643 4.80025 0
M  V30 7856 H 762.681 2.90264 0.746118 0
M  V30 7857 H 760.242 1.59791 0.260495 0
M  V30 7858 H 762.234 2.43368 3.23348 0
M  V30 7859 H 760.804 1.48824 2.74901 0
M  V30 7860 H 760.024 3.64208 1.50818 0
M  V30 7861 H 761.312 4.50217 2.37027 0
M  V30 7862 H 760.71 2.68325 4.98014 0
M  V30 7863 H 759.267 3.42461 5.54584 0
M  V30 7864 N 762.7 -0.34323 1.53817 0
M  V30 7865 C 763.947 -1.08344 1.71079 0
M  V30 7866 C 764.275 -1.88633 0.474133 0
M  V30 7867 O 763.53 -1.87984 -0.544116 0
M  V30 7868 C 763.829 -2.05195 2.92626 0
M  V30 7869 C 763.495 -1.41215 4.28216 0
M  V30 7870 C 762.157 -1.23495 4.65083 0
M  V30 7871 C 764.509 -0.951273 5.12445 0
M  V30 7872 C 761.837 -0.583065 5.83796 0
M  V30 7873 C 764.189 -0.313292 6.31824 0
M  V30 7874 C 762.853 -0.123779 6.67385 0
M  V30 7875 H 762.123 -0.396458 0.626021 0
M  V30 7876 H 764.77 -0.362689 1.88034 0
M  V30 7877 H 763.075 -2.83653 2.70275 0
M  V30 7878 H 764.772 -2.62462 3.03175 0
M  V30 7879 H 761.362 -1.56005 3.992 0
M  V30 7880 H 765.546 -1.07602 4.84495 0
M  V30 7881 H 760.802 -0.424854 6.09922 0
M  V30 7882 H 764.976 0.0519179 6.96381 0
M  V30 7883 H 762.603 0.383398 7.59233 0
M  V30 7884 N 764.178 -1.45556 -0.604258 0
M  V30 7885 C 765.088 -1.57025 -1.74299 0
M  V30 7886 C 766.104 -0.45456 -1.67958 0
M  V30 7887 O 767.28 -0.715711 -1.88254 0
M  V30 7888 C 764.345 -1.53702 -3.10768 0
M  V30 7889 C 763.406 -2.76335 -3.28538 0
M  V30 7890 C 762.639 -2.73161 -4.58496 0
M  V30 7891 O 762.862 -1.80678 -5.41028 0
M  V30 7892 O 761.796 -3.64409 -4.79051 0
M  V30 7893 H 765.622 -2.53284 -1.67573 0
M  V30 7894 H 763.207 -1.28104 -0.768745 0
M  V30 7895 H 765.089 -1.54468 -3.92068 0
M  V30 7896 H 763.764 -0.605957 -3.17978 0
M  V30 7897 H 762.671 -2.8113 -2.46813 0
M  V30 7898 H 764.004 -3.68578 -3.26207 0
M  V30 7899 N 765.656 0.84705 -1.32902 0
M  V30 7900 C 766.619 1.9378 -1.224 0
M  V30 7901 C 767.619 1.60144 -0.145108 0
M  V30 7902 O 768.809 1.69638 -0.396058 0
M  V30 7903 C 765.941 3.29234 -0.884174 0
M  V30 7904 H 767.134 2.04518 -2.19345 0
M  V30 7905 H 764.687 1.03816 -1.16842 0
M  V30 7906 H 765.422 3.24193 0.0831277 0
M  V30 7907 H 765.207 3.55026 -1.6643 0
M  V30 7908 H 766.697 4.09162 -0.835226 0
M  V30 7909 N 767.134 1.16236 1.06428 0
M  V30 7910 C 768.066 0.825446 2.1382 0
M  V30 7911 C 769.079 -0.166707 1.61944 0
M  V30 7912 O 770.268 0.0578606 1.78406 0
M  V30 7913 C 767.368 0.208023 3.38261 0
M  V30 7914 C 766.541 1.23994 4.19457 0
M  V30 7915 C 765.6 0.642569 5.22262 0
M  V30 7916 O 764.626 1.31106 5.53895 0
M  V30 7917 N 765.828 -0.571327 5.77682 0
M  V30 7918 H 768.593 1.7497 2.43322 0
M  V30 7919 H 766.154 1.05951 1.22417 0
M  V30 7920 H 768.146 -0.204608 4.04182 0
M  V30 7921 H 766.716 -0.619752 3.06395 0
M  V30 7922 H 765.936 1.82879 3.49212 0
M  V30 7923 H 767.224 1.93638 4.70512 0
M  V30 7924 H 766.622 -1.13263 5.54245 0
M  V30 7925 H 765.179 -0.926187 6.45186 0
M  V30 7926 N 768.612 -1.24939 0.960631 0
M  V30 7927 C 769.837 -1.9742 0.635608 0
M  V30 7928 C 770.262 -1.70857 -0.786737 0
M  V30 7929 O 769.62 -0.968063 -1.53291 0
M  V30 7930 C 769.668 -3.48987 0.907771 0
M  V30 7931 O 768.772 -4.12399 -0.0104053 0
M  V30 7932 H 768.113 -0.61871 0.241027 0
M  V30 7933 H 770.643 -1.58901 1.28886 0
M  V30 7934 H 770.653 -3.99334 0.836453 0
M  V30 7935 H 769.328 -3.6765 1.94439 0
M  V30 7936 H 767.905 -3.72727 0.113631 0
M  V30 7937 N 770.09 -0.729906 -1.39679 0
M  V30 7938 C 771.338 -0.275077 -2.00219 0
M  V30 7939 C 771.659 1.1401 -1.58199 0
M  V30 7940 O 770.929 1.77546 -0.827904 0
M  V30 7941 H 769.509 -0.0987127 -0.740449 0
M  V30 7942 H 772.171 -0.93873 -1.70804 0
M  V30 7943 H 771.267 -0.319446 -3.10461 0
M  V30 7944 N 771.568 1.50203 -0.477153 0
M  V30 7945 C 772.817 2.01551 0.0774548 0
M  V30 7946 C 773.13 1.36359 1.40234 0
M  V30 7947 O 774.336 1.78898 2.04225 0
M  V30 7948 C 772.792 3.59406 0.188539 0
M  V30 7949 C 772.4 4.3356 -1.12828 0
M  V30 7950 C 774.144 4.18776 0.694782 0
M  V30 7951 C 772.051 5.83213 -0.98066 0
M  V30 7952 H 770.981 0.75329 0.0327212 0
M  V30 7953 H 773.632 1.72959 -0.612969 0
M  V30 7954 H 772.014 3.84611 0.942881 0
M  V30 7955 H 773.188 4.20074 -1.89405 0
M  V30 7956 H 771.503 3.85827 -1.5661 0
M  V30 7957 H 774.1 5.28338 0.822356 0
M  V30 7958 H 774.443 3.80557 1.68766 0
M  V30 7959 H 774.976 3.978 -0.00234519 0
M  V30 7960 H 771.715 6.25914 -1.94709 0
M  V30 7961 H 771.235 5.99256 -0.255375 0
M  V30 7962 H 772.914 6.4373 -0.649717 0
M  V30 7963 N 773.046 0.209999 1.56195 0
M  V30 7964 C 774.292 -0.425442 1.98287 0
M  V30 7965 C 774.625 -1.60232 1.09724 0
M  V30 7966 O 773.9 -1.93902 0.152414 0
M  V30 7967 C 774.183 -0.871189 3.49403 0
M  V30 7968 C 774.036 0.308527 4.48741 0
M  V30 7969 C 775.355 -1.73146 4.04609 0
M  V30 7970 H 772.474 -0.153169 0.720908 0
M  V30 7971 H 775.116 0.303916 1.87554 0
M  V30 7972 H 773.266 -1.49266 3.58681 0
M  V30 7973 H 774.938 0.946487 4.51486 0
M  V30 7974 H 773.181 0.957878 4.23092 0
M  V30 7975 H 773.852 -0.0461143 5.51981 0
M  V30 7976 H 776.328 -1.2072 3.98203 0
M  V30 7977 H 775.204 -2.01228 5.10684 0
M  V30 7978 H 775.465 -2.69083 3.5078 0
M  V30 7979 N 774.524 -1.57472 -0.0634922 0
M  V30 7980 C 775.487 -2.03268 -1.059 0
M  V30 7981 C 776.487 -0.931028 -1.31105 0
M  V30 7982 O 777.677 -1.19567 -1.26686 0
M  V30 7983 C 774.809 -2.42039 -2.40062 0
M  V30 7984 H 776.002 -2.92454 -0.664119 0
M  V30 7985 H 773.555 -1.53206 -0.309444 0
M  V30 7986 H 774.29 -1.55904 -2.84367 0
M  V30 7987 H 774.075 -3.22437 -2.23108 0
M  V30 7988 H 775.565 -2.78017 -3.11603 0
M  V30 7989 N 776.003 0.335068 -1.53997 0
M  V30 7990 C 776.966 1.39481 -1.81872 0
M  V30 7991 C 777.966 1.4524 -0.690078 0
M  V30 7992 O 779.156 1.45467 -0.958377 0
M  V30 7993 C 776.288 2.78329 -1.9684 0
M  V30 7994 H 777.481 1.16024 -2.76547 0
M  V30 7995 H 775.034 0.569926 -1.45539 0
M  V30 7996 H 775.769 3.07058 -1.04337 0
M  V30 7997 H 775.554 2.75544 -2.78958 0
M  V30 7998 H 777.044 3.55016 -2.19894 0
M  V30 7999 N 777.481 1.45874 0.596531 0
M  V30 8000 C 778.892 1.44798 1.17857 0
M  V30 8001 C 779.243 0.181443 1.95359 0
M  V30 8002 O 778.368 -0.716336 2.042 0
M  V30 8003 C 778.963 2.62333 2.14398 0
M  V30 8004 C 777.522 2.64342 2.67955 0
M  V30 8005 C 776.669 2.37244 1.43564 0
M  V30 8006 H 779.62 1.53954 0.385222 0
M  V30 8007 H 779.641 2.37063 2.97626 0
M  V30 8008 H 779.153 3.54499 1.57963 0
M  V30 8009 H 777.254 1.76213 3.28298 0
M  V30 8010 H 777.367 3.63897 3.11634 0
M  V30 8011 H 775.731 1.87022 1.72901 0
M  V30 8012 H 776.514 3.31568 0.889805 0
M  V30 8013 N 778.959 -0.83999 1.33349 0
M  V30 8014 C 779.892 -1.95415 1.17848 0
M  V30 8015 C 780.87 -1.6243 0.0742296 0
M  V30 8016 O 782.054 -1.87014 0.23626 0
M  V30 8017 C 779.181 -3.28938 0.807295 0
M  V30 8018 C 778.227 -3.80895 1.91888 0
M  V30 8019 S 779.06 -4.02709 3.52967 0
M  V30 8020 C 780.216 -5.39185 3.17853 0
M  V30 8021 H 780.449 -2.08265 2.12162 0
M  V30 8022 H 777.982 -0.993643 1.18178 0
M  V30 8023 H 779.94 -4.06093 0.599914 0
M  V30 8024 H 778.601 -3.13881 -0.117234 0
M  V30 8025 H 777.794 -4.77508 1.6125 0
M  V30 8026 H 777.396 -3.10633 2.08286 0
M  V30 8027 H 779.688 -6.21978 2.68608 0
M  V30 8028 H 780.631 -5.74795 4.13542 0
M  V30 8029 H 781.039 -5.03885 2.5448 0
M  V30 8030 N 780.437 -1.16799 -1.0581 0
M  V30 8031 C 781.665 -0.97687 -1.82387 0
M  V30 8032 C 782.08 0.474917 -1.82729 0
M  V30 8033 O 781.437 1.3297 -1.25001 0
M  V30 8034 C 781.488 -1.50279 -3.28783 0
M  V30 8035 O 781.209 -2.89772 -3.28578 0
M  V30 8036 C 782.71 -1.35538 -4.22071 0
M  V30 8037 H 779.93 -0.345977 -0.574927 0
M  V30 8038 H 782.474 -1.54942 -1.33466 0
M  V30 8039 H 780.629 -0.972414 -3.74997 0
M  V30 8040 H 781.043 -3.13954 -4.20159 0
M  V30 8041 H 782.517 -1.7716 -5.22799 0
M  V30 8042 H 782.994 -0.301598 -4.38163 0
M  V30 8043 H 783.6 -1.87562 -3.81708 0
M  V30 8044 N 781.915 1.24427 -0.967243 0
M  V30 8045 C 783.162 1.92487 -0.62888 0
M  V30 8046 C 783.49 1.75623 0.835871 0
M  V30 8047 O 782.745 1.1027 1.61675 0
M  V30 8048 C 783.044 3.44568 -0.949096 0
M  V30 8049 C 782.71 3.816 -2.40192 0
M  V30 8050 C 781.372 3.9142 -2.799 0
M  V30 8051 C 783.724 3.99715 -3.34481 0
M  V30 8052 C 781.052 4.16771 -4.12939 0
M  V30 8053 C 783.404 4.26562 -4.67148 0
M  V30 8054 C 782.068 4.34601 -5.06634 0
M  V30 8055 H 781.338 0.704361 -0.230124 0
M  V30 8056 H 783.985 1.4772 -1.21864 0
M  V30 8057 H 782.29 3.90819 -0.277085 0
M  V30 8058 H 783.987 3.95436 -0.665692 0
M  V30 8059 H 780.577 3.74522 -2.08402 0
M  V30 8060 H 784.761 3.91531 -3.04987 0
M  V30 8061 H 780.017 4.21214 -4.43158 0
M  V30 8062 H 784.191 4.39523 -5.40178 0
M  V30 8063 H 781.818 4.53998 -6.09746 0
M  V30 8064 N 783.393 0.737304 1.3929 0
M  V30 8065 C 784.303 0.100464 2.34385 0
M  V30 8066 C 785.319 -0.719282 1.58437 0
M  V30 8067 O 786.495 -0.647216 1.90717 0
M  V30 8068 C 783.56 -0.794325 3.37478 0
M  V30 8069 C 782.621 0.0379345 4.29283 0
M  V30 8070 C 781.854 -0.814241 5.27452 0
M  V30 8071 O 782.077 -2.05288 5.32177 0
M  V30 8072 O 781.011 -0.241679 6.01415 0
M  V30 8073 H 784.837 0.885407 2.90507 0
M  V30 8074 H 782.422 0.497999 1.40856 0
M  V30 8075 H 784.304 -1.30622 4.00644 0
M  V30 8076 H 782.979 -1.55804 2.83737 0
M  V30 8077 H 781.886 0.595405 3.69331 0
M  V30 8078 H 783.219 0.763926 4.86236 0
M  V30 8079 N 784.871 -1.49948 0.485112 0
M  V30 8080 C 785.801 -2.31675 -0.291364 0
M  V30 8081 C 786.782 -1.39216 -0.977383 0
M  V30 8082 O 787.967 -1.68133 -0.971855 0
M  V30 8083 C 785.097 -3.19326 -1.36558 0
M  V30 8084 C 784.051 -4.2045 -0.800359 0
M  V30 8085 C 783.377 -4.96931 -1.97391 0
M  V30 8086 C 784.677 -5.21925 0.197867 0
M  V30 8087 H 786.371 -2.96839 0.390775 0
M  V30 8088 H 783.917 -1.42749 0.189375 0
M  V30 8089 H 785.87 -3.75304 -1.91638 0
M  V30 8090 H 784.594 -2.52074 -2.07668 0
M  V30 8091 H 783.253 -3.65594 -0.271428 0
M  V30 8092 H 782.901 -4.26141 -2.67232 0
M  V30 8093 H 782.601 -5.65344 -1.60187 0
M  V30 8094 H 784.125 -5.55749 -2.52935 0
M  V30 8095 H 785.539 -5.72691 -0.264239 0
M  V30 8096 H 783.936 -5.98138 0.484908 0
M  V30 8097 H 785.006 -4.71809 1.11912 0
M  V30 8098 N 786.349 -0.21828 -1.56081 0
M  V30 8099 C 787.312 0.679633 -2.18892 0
M  V30 8100 C 788.312 1.12405 -1.14986 0
M  V30 8101 O 789.502 1.03339 -1.40238 0
M  V30 8102 C 786.634 1.93063 -2.80962 0
M  V30 8103 H 787.827 0.132066 -2.99609 0
M  V30 8104 H 785.38 0.0313374 -1.56269 0
M  V30 8105 H 786.115 2.52015 -2.04106 0
M  V30 8106 H 785.9 1.62046 -3.57048 0
M  V30 8107 H 787.39 2.57043 -3.29118 0
M  V30 8108 N 787.827 1.57504 0.0551401 0
M  V30 8109 C 789.075 1.87684 0.74962 0
M  V30 8110 C 789.396 0.812547 1.77264 0
M  V30 8111 O 788.666 -0.15694 1.9527 0
M  V30 8112 H 787.246 0.6926 0.279846 0
M  V30 8113 H 789.908 1.94881 0.0272745 0
M  V30 8114 H 789.004 2.85734 1.25548 0
M  V30 8115 N 789.305 -0.326896 1.54172 0
M  V30 8116 C 790.721 -0.671034 1.44808 0
M  V30 8117 C 790.921 -1.91781 0.618258 0
M  V30 8118 O 789.977 -2.52235 0.115751 0
M  V30 8119 C 791.29 -0.848147 2.88491 0
M  V30 8120 C 792.838 -0.945702 2.98371 0
M  V30 8121 C 793.313 -1.15501 4.43197 0
M  V30 8122 N 794.804 -1.22183 4.46795 0
M  V30 8123 C 795.539 -1.4016 5.56006 0
M  V30 8124 N 795.035 -1.55202 6.75192 0
M  V30 8125 N 796.828 -1.42841 5.43648 0
M  V30 8126 H 788.979 0.49262 2.06608 0
M  V30 8127 H 791.242 0.158574 0.934643 0
M  V30 8128 H 790.948 -0.00329969 3.517 0
M  V30 8129 H 790.822 -1.74497 3.34411 0
M  V30 8130 H 793.209 -1.78106 2.35292 0
M  V30 8131 H 793.29 -0.0254215 2.55787 0
M  V30 8132 H 792.934 -0.324521 5.06862 0
M  V30 8133 H 792.864 -2.08911 4.83388 0
M  V30 8134 H 795.355 -1.12016 3.60917 0
M  V30 8135 H 795.668 -1.68601 7.54184 0
M  V30 8136 H 794.013 -1.52306 6.78106 0
M  V30 8137 H 797.204 -1.30683 4.49488 0
M  V30 8138 H 797.377 -1.56509 6.28816 0
M  V30 8139 N 790.784 -1.46188 -0.588786 0
M  V30 8140 C 791.716 -1.52319 -1.71265 0
M  V30 8141 C 792.729 -0.412096 -1.57498 0
M  V30 8142 O 793.918 -0.680146 -1.65034 0
M  V30 8143 C 791.018 -1.38164 -3.09458 0
M  V30 8144 C 790.191 -2.63284 -3.49286 0
M  V30 8145 C 789.25 -2.43415 -4.66514 0
M  V30 8146 O 788.276 -3.17113 -4.72682 0
M  V30 8147 N 789.478 -1.49187 -5.61002 0
M  V30 8148 H 792.243 -2.49219 -1.66463 0
M  V30 8149 H 789.804 -1.42167 -0.774601 0
M  V30 8150 H 791.796 -1.22653 -3.85666 0
M  V30 8151 H 790.366 -0.494678 -3.08661 0
M  V30 8152 H 789.586 -2.93779 -2.62845 0
M  V30 8153 H 790.874 -3.46413 -3.7266 0
M  V30 8154 H 790.272 -0.884027 -5.5875 0
M  V30 8155 H 788.829 -1.39642 -6.36666 0
M  V30 8156 N 792.262 0.832906 -1.33792 0
M  V30 8157 C 793.492 1.61813 -1.28453 0
M  V30 8158 C 793.9 1.88639 0.145595 0
M  V30 8159 O 793.243 1.47122 1.10004 0
M  V30 8160 C 793.305 2.98929 -1.99704 0
M  V30 8161 C 792.969 2.95045 -3.48995 0
M  V30 8162 C 793.966 2.70337 -4.44088 0
M  V30 8163 C 791.651 3.14993 -3.91261 0
M  V30 8164 C 793.645 2.65612 -5.79421 0
M  V30 8165 C 791.332 3.09893 -5.26697 0
M  V30 8166 C 792.33 2.85235 -6.20588 0
M  V30 8167 O 792.018 2.8005 -7.53543 0
M  V30 8168 H 791.75 0.510013 -0.443693 0
M  V30 8169 H 794.304 1.04514 -1.76822 0
M  V30 8170 H 792.534 3.58106 -1.45935 0
M  V30 8171 H 794.223 3.59849 -1.87786 0
M  V30 8172 H 794.989 2.54671 -4.12756 0
M  V30 8173 H 790.868 3.33204 -3.18584 0
M  V30 8174 H 794.412 2.46285 -6.52679 0
M  V30 8175 H 790.309 3.2511 -5.5765 0
M  V30 8176 H 791.077 2.95849 -7.63162 0
M  V30 8177 N 793.74 1.17359 1.05189 0
M  V30 8178 C 794.986 0.963413 1.78455 0
M  V30 8179 C 795.319 -0.506703 1.87473 0
M  V30 8180 O 794.594 -1.37611 1.37453 0
M  V30 8181 C 794.877 1.60519 3.22344 0
M  V30 8182 C 794.73 3.14741 3.21338 0
M  V30 8183 C 796.049 1.3091 4.20179 0
M  V30 8184 H 793.168 0.351412 0.647826 0
M  V30 8185 H 795.81 1.44858 1.22948 0
M  V30 8186 H 793.96 1.19265 3.69741 0
M  V30 8187 H 795.632 3.65053 2.82017 0
M  V30 8188 H 793.875 3.4749 2.59679 0
M  V30 8189 H 794.546 3.54775 4.22894 0
M  V30 8190 H 797.022 1.66635 3.81277 0
M  V30 8191 H 795.898 1.784 5.191 0
M  V30 8192 H 796.159 0.229908 4.41502 0
M  V30 8193 N 795.218 -1.23913 0.973828 0
M  V30 8194 C 796.181 -2.23367 0.51378 0
M  V30 8195 C 797.181 -1.55923 -0.39302 0
M  V30 8196 O 798.371 -1.73187 -0.187626 0
M  V30 8197 C 795.503 -3.39944 -0.255152 0
M  V30 8198 H 796.696 -2.65581 1.39307 0
M  V30 8199 H 794.249 -1.36632 0.759039 0
M  V30 8200 H 794.984 -3.03177 -1.15127 0
M  V30 8201 H 794.769 -3.90098 0.395673 0
M  V30 8202 H 796.259 -4.13749 -0.565842 0
M  V30 8203 N 796.696 -0.74468 -1.38897 0
M  V30 8204 C 797.945 -0.293716 -1.9955 0
M  V30 8205 C 798.258 1.12831 -1.59777 0
M  V30 8206 O 799.464 1.67929 -2.13336 0
M  V30 8207 C 797.92 -0.474188 -3.56762 0
M  V30 8208 C 797.528 -1.90472 -4.05493 0
M  V30 8209 C 799.272 -0.0854875 -4.24414 0
M  V30 8210 C 797.179 -2.03423 -5.55314 0
M  V30 8211 H 796.109 -0.106066 -0.746502 0
M  V30 8212 H 798.76 -0.919948 -1.58774 0
M  V30 8213 H 797.142 0.221092 -3.95382 0
M  V30 8214 H 798.316 -2.63274 -3.78184 0
M  V30 8215 H 796.631 -2.24752 -3.50536 0
M  V30 8216 H 799.228 -0.161133 -5.34457 0
M  V30 8217 H 799.571 0.96066 -4.05064 0
M  V30 8218 H 800.104 -0.732286 -3.91002 0
M  V30 8219 H 796.843 -3.0626 -5.79556 0
M  V30 8220 H 796.363 -1.3507 -5.84394 0
M  V30 8221 H 798.042 -1.81996 -6.20876 0
M  V30 8222 N 798.174 1.49689 -0.493057 0
M  V30 8223 C 799.107 2.25712 0.336062 0
M  V30 8224 C 800.085 1.29953 0.977294 0
M  V30 8225 O 801.269 1.59225 1.00895 0
M  V30 8226 C 798.396 3.0501 1.47263 0
M  V30 8227 C 797.442 4.15863 0.946575 0
M  V30 8228 S 798.275 5.35272 -0.156323 0
M  V30 8229 C 799.431 6.18123 0.983601 0
M  V30 8230 H 799.664 2.95688 -0.309215 0
M  V30 8231 H 797.197 1.51872 -0.278238 0
M  V30 8232 H 799.155 3.51284 2.12391 0
M  V30 8233 H 797.816 2.34519 2.08949 0
M  V30 8234 H 797.009 4.70834 1.7981 0
M  V30 8235 H 796.611 3.72139 0.372647 0
M  V30 8236 H 798.903 6.50588 1.89056 0
M  V30 8237 H 799.846 7.06521 0.472687 0
M  V30 8238 H 800.254 5.50547 1.24735 0
M  V30 8239 N 799.652 0.226554 1.55963 0
M  V30 8240 C 800.615 -0.668015 2.19249 0
M  V30 8241 C 801.615 -1.11794 1.1558 0
M  V30 8242 O 802.805 -1.02593 1.40784 0
M  V30 8243 C 799.937 -1.91571 2.81981 0
M  V30 8244 H 801.13 -0.116175 2.99675 0
M  V30 8245 H 798.683 -0.0230497 1.56283 0
M  V30 8246 H 799.418 -2.50929 2.05439 0
M  V30 8247 H 799.203 -1.6015 3.57903 0
M  V30 8248 H 800.693 -2.55294 3.30477 0
M  V30 8249 N 801.13 -1.57531 -0.0467866 0
M  V30 8250 C 802.378 -1.88078 -0.739656 0
M  V30 8251 C 802.699 -0.821936 -1.76831 0
M  V30 8252 O 801.969 0.146582 -1.95351 0
M  V30 8253 H 800.549 -0.694075 -0.276169 0
M  V30 8254 H 803.211 -1.94893 -0.0169391 0
M  V30 8255 H 802.307 -2.86396 -1.24031 0
M  V30 8256 N 802.608 0.318715 -1.54344 0
M  V30 8257 C 803.854 1.05383 -1.73971 0
M  V30 8258 C 804.209 1.85524 -0.509781 0
M  V30 8259 O 803.502 1.8502 0.49782 0
M  V30 8260 C 803.696 2.00514 -2.95853 0
M  V30 8261 C 803.525 1.29728 -4.30582 0
M  V30 8262 C 802.295 1.03177 -4.94654 0
M  V30 8263 C 804.493 0.710718 -5.09366 0
M  V30 8264 N 802.475 0.29232 -6.13204 0
M  V30 8265 C 803.846 0.103132 -6.19914 0
M  V30 8266 C 805.901 0.614011 -4.94099 0
M  V30 8267 C 804.604 -0.591782 -7.16862 0
M  V30 8268 C 806.63 -0.0672115 -5.91362 0
M  V30 8269 C 805.992 -0.663721 -7.01266 0
M  V30 8270 H 802.091 0.369157 -0.689382 0
M  V30 8271 H 804.675 0.334453 -1.91806 0
M  V30 8272 H 802.846 2.69719 -2.79475 0
M  V30 8273 H 804.578 2.67046 -3.04086 0
M  V30 8274 H 801.333 1.32536 -4.54677 0
M  V30 8275 H 801.757 -0.0634005 -6.7697 0
M  V30 8276 H 806.399 1.06091 -4.09273 0
M  V30 8277 H 804.117 -1.0505 -8.01243 0
M  V30 8278 H 807.703 -0.141742 -5.81627 0
M  V30 8279 H 806.583 -1.18248 -7.75234 0
M  V30 8280 N 804.086 1.46499 0.581025 0
M  V30 8281 C 805.334 1.51596 1.33653 0
M  V30 8282 C 805.655 0.169859 1.94259 0
M  V30 8283 O 804.925 -0.803776 1.78651 0
M  V30 8284 H 803.505 0.558346 0.496244 0
M  V30 8285 H 806.167 1.8264 0.680338 0
M  V30 8286 H 805.263 2.26956 2.14237 0
M  V30 8287 N 805.565 -0.825799 1.34232 0
M  V30 8288 C 806.813 -1.57873 1.26177 0
M  V30 8289 C 807.134 -1.94267 -0.168904 0
M  V30 8290 O 806.404 -1.62045 -1.10084 0
M  V30 8291 H 804.984 -0.585388 0.464037 0
M  V30 8292 H 807.646 -0.986163 1.6811 0
M  V30 8293 H 806.742 -2.50283 1.86453 0
M  V30 8294 N 807.043 -1.17915 -1.04565 0
M  V30 8295 C 808.289 -0.972863 -1.77942 0
M  V30 8296 C 808.622 0.496753 -1.87739 0
M  V30 8297 O 807.897 1.3688 -1.38181 0
M  V30 8298 C 808.18 -1.62227 -3.21488 0
M  V30 8299 C 808.033 -3.16441 -3.19664 0
M  V30 8300 C 809.352 -1.33137 -4.19479 0
M  V30 8301 H 806.471 -0.354843 -0.645953 0
M  V30 8302 H 809.113 -1.45508 -1.22178 0
M  V30 8303 H 807.263 -1.21224 -3.69103 0
M  V30 8304 H 808.935 -3.66544 -2.80077 0
M  V30 8305 H 807.178 -3.48863 -2.57832 0
M  V30 8306 H 807.849 -3.57012 -4.21006 0
M  V30 8307 H 810.325 -1.68654 -3.80388 0
M  V30 8308 H 809.201 -1.81151 -5.18146 0
M  V30 8309 H 809.462 -0.253319 -4.41374 0
M  V30 8310 N 808.521 1.23394 -0.980386 0
M  V30 8311 C 809.484 2.23092 -0.525619 0
M  V30 8312 C 810.484 1.56129 0.384745 0
M  V30 8313 O 811.674 1.73284 0.178439 0
M  V30 8314 C 808.806 3.40074 0.23712 0
M  V30 8315 H 809.999 2.64839 -1.40714 0
M  V30 8316 H 807.552 1.36227 -0.766275 0
M  V30 8317 H 808.287 3.03783 1.13518 0
M  V30 8318 H 808.072 3.89883 -0.416356 0
M  V30 8319 H 809.562 4.14043 0.543892 0
M  V30 8320 N 809.999 0.752036 1.385 0
M  V30 8321 C 811.227 0.318274 2.04437 0
M  V30 8322 C 811.642 -1.05285 1.56718 0
M  V30 8323 O 810.999 -1.66844 0.73956 0
M  V30 8324 C 811.05 0.330106 3.5999 0
M  V30 8325 O 810.771 1.64712 4.05957 0
M  V30 8326 C 812.272 -0.117713 4.43144 0
M  V30 8327 H 809.492 0.136228 0.657026 0
M  V30 8328 H 812.036 1.02045 1.7722 0
M  V30 8329 H 810.191 -0.323323 3.86048 0
M  V30 8330 H 810.605 1.57225 5.0038 0
M  V30 8331 H 812.079 -0.0582735 5.51969 0
M  V30 8332 H 812.556 -1.16538 4.23457 0
M  V30 8333 H 813.162 0.506784 4.2227 0
M  V30 8334 N 811.477 -1.49425 0.500989 0
M  V30 8335 C 812.407 -2.31971 -0.266775 0
M  V30 8336 C 813.388 -1.40245 -0.962563 0
M  V30 8337 O 814.573 -1.69154 -0.953968 0
M  V30 8338 C 811.703 -3.20757 -1.33163 0
M  V30 8339 C 810.657 -4.21275 -0.75572 0
M  V30 8340 C 809.983 -4.98997 -1.92109 0
M  V30 8341 C 811.283 -5.21686 0.253213 0
M  V30 8342 H 812.977 -2.96408 0.422237 0
M  V30 8343 H 810.523 -1.4254 0.204505 0
M  V30 8344 H 812.476 -3.77315 -1.87646 0
M  V30 8345 H 811.2 -2.54263 -2.04983 0
M  V30 8346 H 809.859 -3.65861 -0.232637 0
M  V30 8347 H 809.507 -4.28951 -2.62698 0
M  V30 8348 H 809.207 -5.67011 -1.54182 0
M  V30 8349 H 810.731 -5.584 -2.47026 0
M  V30 8350 H 812.145 -5.72939 -0.203483 0
M  V30 8351 H 810.542 -5.9759 0.548322 0
M  V30 8352 H 811.612 -4.70596 1.16909 0
M  V30 8353 N 812.955 -0.234822 -1.55841 0
M  V30 8354 C 814.183 0.397745 -2.03041 0
M  V30 8355 C 814.598 1.52405 -1.11437 0
M  V30 8356 O 813.955 1.82061 -0.126466 0
M  V30 8357 C 814.006 0.916919 -3.49678 0
M  V30 8358 O 813.727 -0.164493 -4.37791 0
M  V30 8359 C 815.228 1.62139 -4.12584 0
M  V30 8360 H 812.448 0.0959214 -0.664108 0
M  V30 8361 H 814.992 -0.355156 -2.01392 0
M  V30 8362 H 813.147 1.62004 -3.519 0
M  V30 8363 H 813.561 0.227794 -5.24005 0
M  V30 8364 H 815.035 1.93651 -5.16917 0
M  V30 8365 H 815.512 2.53918 -3.58361 0
M  V30 8366 H 816.118 0.963145 -4.14251 0
M  V30 8367 N 814.433 1.57553 0.0384317 0
M  V30 8368 C 815.681 1.88468 0.729672 0
M  V30 8369 C 816.002 0.831302 1.76393 0
M  V30 8370 O 815.272 -0.13622 1.95426 0
M  V30 8371 H 813.852 0.695529 0.272485 0
M  V30 8372 H 816.514 1.94899 0.0066032 0
M  V30 8373 H 815.61 2.8705 1.22511 0
M  V30 8374 N 815.911 -0.310526 1.54511 0
M  V30 8375 C 817.159 -1.04484 1.72996 0
M  V30 8376 C 817.48 -1.88118 0.513479 0
M  V30 8377 O 816.75 -1.90119 -0.472384 0
M  V30 8378 H 815.33 -0.388747 0.637875 0
M  V30 8379 H 817.992 -0.343811 1.91844 0
M  V30 8380 H 817.088 -1.70341 2.61515 0
M  V30 8381 N 817.389 -1.46805 -0.573248 0
M  V30 8382 C 818.299 -1.60687 -1.70929 0
M  V30 8383 C 819.315 -0.490084 -1.66956 0
M  V30 8384 O 820.491 -0.755482 -1.86693 0
M  V30 8385 C 817.556 -1.60259 -3.07438 0
M  V30 8386 C 816.617 -2.83242 -3.22603 0
M  V30 8387 C 815.85 -2.82825 -4.52599 0
M  V30 8388 O 816.073 -1.92113 -5.37074 0
M  V30 8389 O 815.007 -3.74489 -4.71213 0
M  V30 8390 H 818.833 -2.56782 -1.62163 0
M  V30 8391 H 816.418 -1.29706 -0.741399 0
M  V30 8392 H 818.3 -1.6275 -3.88704 0
M  V30 8393 H 816.975 -0.673268 -3.16621 0
M  V30 8394 H 815.882 -2.86302 -2.40794 0
M  V30 8395 H 817.215 -3.75415 -3.18315 0
M  V30 8396 N 818.867 0.818669 -1.34668 0
M  V30 8397 C 820.092 1.61193 -1.30505 0
M  V30 8398 C 820.517 1.87734 0.117341 0
M  V30 8399 O 819.875 1.45591 1.08042 0
M  V30 8400 C 819.923 2.92733 -2.1057 0
M  V30 8401 O 819.027 3.85 -1.47813 0
M  V30 8402 H 818.368 0.490085 -0.44801 0
M  V30 8403 H 820.898 1.01701 -1.77534 0
M  V30 8404 H 820.908 3.42262 -2.22082 0
M  V30 8405 H 819.583 2.7274 -3.13984 0
M  V30 8406 H 818.16 3.43525 -1.45069 0
M  V30 8407 N 820.346 1.18468 1.03938 0
M  V30 8408 C 821.279 0.856251 2.11527 0
M  V30 8409 C 822.257 -0.182323 1.61575 0
M  V30 8410 O 823.441 -0.061 1.88401 0
M  V30 8411 C 820.568 0.279562 3.37544 0
M  V30 8412 C 819.614 1.29552 4.06348 0
M  V30 8413 S 820.447 2.85191 4.5324 0
M  V30 8414 C 821.603 2.29037 5.82489 0
M  V30 8415 H 821.836 1.76742 2.39059 0
M  V30 8416 H 819.369 1.01068 1.16725 0
M  V30 8417 H 821.327 -0.0466579 4.10473 0
M  V30 8418 H 819.988 -0.60975 3.08125 0
M  V30 8419 H 819.181 0.840922 4.96935 0
M  V30 8420 H 818.783 1.56804 3.39541 0
M  V30 8421 H 821.075 1.67376 6.565 0
M  V30 8422 H 822.018 3.17929 6.32714 0
M  V30 8423 H 822.426 1.72009 5.37655 0
M  V30 8424 N 821.824 -1.22873 0.986916 0
M  V30 8425 C 822.772 -2.26597 0.525043 0
M  V30 8426 C 823.766 -1.64079 -0.421252 0
M  V30 8427 O 824.972 -1.77576 -0.294429 0
M  V30 8428 H 821.347 -0.736606 0.151381 0
M  V30 8429 H 823.318 -2.62909 1.41142 0
M  V30 8430 C 822.067 -3.47374 -0.150542 0
M  V30 8431 H 821.39 -3.95737 0.568541 0
M  V30 8432 H 822.83 -4.21739 -0.437256 0
M  V30 8433 C 821.289 -3.07163 -1.38392 0
M  V30 8434 O 821.819 -3.16028 -2.47971 0
M  V30 8435 N 820.025 -2.62009 -1.25697 0
M  V30 8436 H 819.572 -2.54996 -0.365355 0
M  V30 8437 H 819.53 -2.35472 -2.08327 0
M  V30 8438 N 823.302 -0.75937 -1.38099 0
M  V30 8439 C 824.232 -0.151077 -2.33011 0
M  V30 8440 C 825.213 0.697099 -1.5516 0
M  V30 8441 O 826.398 0.637101 -1.83452 0
M  V30 8442 C 823.528 0.738423 -3.39359 0
M  V30 8443 C 822.482 -0.0074741 -4.27999 0
M  V30 8444 C 821.808 1.00066 -5.25253 0
M  V30 8445 C 823.108 -1.17926 -5.08813 0
M  V30 8446 H 824.802 -0.943933 -2.84131 0
M  V30 8447 H 822.348 -0.455362 -1.36611 0
M  V30 8448 H 824.301 1.17369 -4.04725 0
M  V30 8449 H 823.025 1.56366 -2.86735 0
M  V30 8450 H 821.684 -0.423379 -3.64147 0
M  V30 8451 H 821.332 1.82012 -4.68914 0
M  V30 8452 H 821.032 0.506199 -5.85416 0
M  V30 8453 H 822.556 1.43512 -5.93495 0
M  V30 8454 H 823.97 -0.821262 -5.67387 0
M  V30 8455 H 822.367 -1.60497 -5.78239 0
M  V30 8456 H 823.437 -1.98938 -4.42212 0
M  V30 8457 N 824.78 1.49157 -0.508906 0
M  V30 8458 C 826.191 1.86593 -0.0630975 0
M  V30 8459 C 826.542 1.42051 1.35337 0
M  V30 8460 O 825.667 0.801866 2.00995 0
M  V30 8461 C 826.262 3.38629 -0.107729 0
M  V30 8462 C 824.821 3.75336 0.282776 0
M  V30 8463 C 823.968 2.7317 -0.4768 0
M  V30 8464 H 826.919 1.41362 -0.72128 0
M  V30 8465 H 826.94 3.74271 0.685689 0
M  V30 8466 H 826.452 3.71017 -1.13876 0
M  V30 8467 H 824.553 3.48558 1.31675 0
M  V30 8468 H 824.666 4.79081 -0.0421728 0
M  V30 8469 H 823.03 2.54591 0.0743552 0
M  V30 8470 H 823.813 3.08403 -1.50807 0
M  V30 8471 N 826.258 0.243083 1.55714 0
M  V30 8472 C 827.506 -0.381964 1.98458 0
M  V30 8473 C 827.827 -1.58745 1.13247 0
M  V30 8474 O 827.097 -1.94723 0.214384 0
M  V30 8475 H 825.677 -0.144114 0.732967 0
M  V30 8476 H 828.339 0.340985 1.91894 0
M  V30 8477 H 827.435 -0.693702 3.04293 0
M  V30 8478 N 827.736 -1.57571 -0.0300757 0
M  V30 8479 C 828.669 -2.01874 -1.06406 0
M  V30 8480 C 829.647 -0.902901 -1.35227 0
M  V30 8481 O 830.831 -1.16865 -1.47901 0
M  V30 8482 C 827.958 -2.39093 -2.39901 0
M  V30 8483 C 827.004 -3.61108 -2.26943 0
M  V30 8484 S 827.837 -5.10287 -1.62382 0
M  V30 8485 C 828.993 -5.50747 -2.97369 0
M  V30 8486 H 829.226 -2.89261 -0.686703 0
M  V30 8487 H 826.759 -1.52523 -0.240017 0
M  V30 8488 H 828.717 -2.61207 -3.16672 0
M  V30 8489 H 827.378 -1.52159 -2.74784 0
M  V30 8490 H 826.571 -3.84803 -3.25489 0
M  V30 8491 H 826.173 -3.3884 -1.58314 0
M  V30 8492 H 828.465 -5.51369 -3.93698 0
M  V30 8493 H 829.408 -6.51071 -2.78409 0
M  V30 8494 H 829.816 -4.7825 -2.99895 0
M  V30 8495 N 829.214 0.302327 -1.54673 0
M  V30 8496 C 830.161 1.37282 -1.85532 0
M  V30 8497 C 831.131 1.50437 -0.704129 0
M  V30 8498 O 832.316 1.65317 -0.952627 0
M  V30 8499 C 829.456 2.73309 -2.10704 0
M  V30 8500 C 828.569 2.68614 -3.38335 0
M  V30 8501 C 827.704 3.96626 -3.53357 0
M  V30 8502 C 826.743 3.86324 -4.74784 0
M  V30 8503 N 825.88 5.06109 -4.86619 0
M  V30 8504 H 830.72 1.10265 -2.76849 0
M  V30 8505 H 828.257 0.533346 -1.37091 0
M  V30 8506 H 830.215 3.52414 -2.23294 0
M  V30 8507 H 828.845 2.98589 -1.22656 0
M  V30 8508 H 827.897 1.81381 -3.34373 0
M  V30 8509 H 829.209 2.56891 -4.27561 0
M  V30 8510 H 828.363 4.84168 -3.65604 0
M  V30 8511 H 827.102 4.11182 -2.62261 0
M  V30 8512 H 826.107 2.97166 -4.62572 0
M  V30 8513 H 827.332 3.73315 -5.67286 0
M  V30 8514 H 825.278 5.2113 -3.98446 0
M  V30 8515 H 825.195 4.96804 -5.69844 0
M  V30 8516 H 826.463 5.95306 -5.03221 0
M  V30 8517 N 830.692 1.47107 0.565454 0
M  V30 8518 C 831.64 1.59368 1.69424 0
M  V30 8519 C 832.634 0.461344 1.62997 0
M  V30 8520 O 833.84 0.638849 1.68282 0
M  V30 8521 H 830.215 0.501387 0.560459 0
M  V30 8522 H 832.186 2.54242 1.56217 0
M  V30 8523 C 830.935 1.61739 3.07792 0
M  V30 8524 H 830.258 2.48215 3.13416 0
M  V30 8525 H 831.698 1.7437 3.86486 0
M  V30 8526 C 830.157 0.349156 3.35086 0
M  V30 8527 O 830.687 -0.553287 3.97871 0
M  V30 8528 N 828.893 0.231723 2.89675 0
M  V30 8529 H 828.44 0.967021 2.3876 0
M  V30 8530 H 828.398 -0.615911 3.08308 0
M  V30 8531 N 832.17 -0.811516 1.35101 0
M  V30 8532 C 833.586 -1.10634 1.15031 0
M  V30 8533 C 833.786 -2.01459 -0.0405379 0
M  V30 8534 O 832.842 -2.42235 -0.712635 0
M  V30 8535 C 834.155 -1.74207 2.45097 0
M  V30 8536 C 835.703 -1.8665 2.51258 0
M  V30 8537 C 836.178 -2.53638 3.81355 0
M  V30 8538 N 837.669 -2.61128 3.82579 0
M  V30 8539 C 838.404 -3.13717 4.79968 0
M  V30 8540 N 837.9 -3.66782 5.87744 0
M  V30 8541 N 839.693 -3.12224 4.67411 0
M  V30 8542 H 831.844 -0.207641 2.11383 0
M  V30 8543 H 834.107 -0.154697 0.935293 0
M  V30 8544 H 833.813 -1.14936 3.32389 0
M  V30 8545 H 833.687 -2.73958 2.59281 0
M  V30 8546 H 836.074 -2.45066 1.64398 0
M  V30 8547 H 836.155 -0.857678 2.40993 0
M  V30 8548 H 835.799 -1.95873 4.68611 0
M  V30 8549 H 835.729 -3.55047 3.88907 0
M  V30 8550 H 838.22 -2.23527 3.04703 0
M  V30 8551 H 838.533 -4.05194 6.58056 0
M  V30 8552 H 836.878 -3.64994 5.91443 0
M  V30 8553 H 840.069 -2.70042 3.82354 0
M  V30 8554 H 840.242 -3.52903 5.43474 0
M  V30 8555 N 833.648 -1.19017 -1.03309 0
M  V30 8556 C 834.873 -1.01598 -1.80811 0
M  V30 8557 C 835.298 0.430773 -1.83101 0
M  V30 8558 O 834.656 1.30946 -1.25391 0
M  V30 8559 C 834.704 -1.5845 -3.23923 0
M  V30 8560 O 833.808 -0.810972 -4.04348 0
M  V30 8561 H 833.149 -0.359398 -0.558327 0
M  V30 8562 H 835.679 -1.57945 -1.30055 0
M  V30 8563 H 835.689 -1.61486 -3.74682 0
M  V30 8564 H 834.364 -2.63752 -3.21571 0
M  V30 8565 H 832.941 -0.85353 -3.63 0
M  V30 8566 N 835.127 1.22348 -0.993418 0
M  V30 8567 C 836.543 1.43222 -0.704238 0
M  V30 8568 C 836.743 1.88009 0.724909 0
M  V30 8569 O 835.799 2.03429 1.49575 0
M  V30 8570 C 837.112 2.47328 -1.71025 0
M  V30 8571 C 838.66 2.61126 -1.72576 0
M  V30 8572 C 839.135 3.68453 -2.72041 0
M  V30 8573 N 840.626 3.75911 -2.70639 0
M  V30 8574 C 841.361 4.58551 -3.44266 0
M  V30 8575 N 840.857 5.45179 -4.27495 0
M  V30 8576 N 842.65 4.52866 -3.32969 0
M  V30 8577 H 834.801 0.915832 -1.91641 0
M  V30 8578 H 837.064 0.464283 -0.826526 0
M  V30 8579 H 836.77 2.21366 -2.73295 0
M  V30 8580 H 836.644 3.45939 -1.50353 0
M  V30 8581 H 839.031 2.86431 -0.710037 0
M  V30 8582 H 839.112 1.62787 -1.97317 0
M  V30 8583 H 838.756 3.43895 -3.73763 0
M  V30 8584 H 838.686 4.66362 -2.4457 0
M  V30 8585 H 841.177 3.14014 -2.10247 0
M  V30 8586 H 841.49 6.0526 -4.80499 0
M  V30 8587 H 839.835 5.44759 -4.31582 0
M  V30 8588 H 843.026 3.84215 -2.67389 0
M  V30 8589 H 843.199 5.17039 -3.90608 0
M  V30 8590 N 836.605 0.766683 1.37694 0
M  V30 8591 C 837.535 0.163432 2.32927 0
M  V30 8592 C 838.516 -0.688861 1.55527 0
M  V30 8593 O 839.701 -0.627363 1.83787 0
M  V30 8594 C 836.831 -0.720416 3.39746 0
M  V30 8595 C 835.785 0.0301718 4.27989 0
M  V30 8596 C 835.111 -0.972788 5.25776 0
M  V30 8597 C 836.411 1.20623 5.0818 0
M  V30 8598 H 838.105 0.958988 2.83626 0
M  V30 8599 H 835.651 0.462601 1.36367 0
M  V30 8600 H 837.604 -1.15221 4.05342 0
M  V30 8601 H 836.328 -1.54844 2.8756 0
M  V30 8602 H 834.987 0.442685 3.63917 0
M  V30 8603 H 834.635 -1.79522 4.69873 0
M  V30 8604 H 834.335 -0.475145 5.85676 0
M  V30 8605 H 835.859 -1.40362 5.94248 0
M  V30 8606 H 837.273 0.851341 5.66944 0
M  V30 8607 H 835.67 1.63561 5.7738 0
M  V30 8608 H 836.74 2.01281 4.41151 0
M  V30 8609 N 838.083 -1.48885 0.516809 0
M  V30 8610 C 839.013 -2.32241 -0.242157 0
M  V30 8611 C 839.994 -1.41258 -0.947633 0
M  V30 8612 O 841.179 -1.70156 -0.935973 0
M  V30 8613 C 838.309 -3.22151 -1.29754 0
M  V30 8614 C 837.263 -4.22053 -0.710995 0
M  V30 8615 C 836.589 -5.01007 -1.86806 0
M  V30 8616 C 837.889 -5.21388 0.30853 0
M  V30 8617 H 839.583 -2.95943 0.453651 0
M  V30 8618 H 837.129 -1.42316 0.219612 0
M  V30 8619 H 839.082 -3.79284 -1.83634 0
M  V30 8620 H 837.806 -2.56423 -2.02274 0
M  V30 8621 H 836.465 -3.66087 -0.193819 0
M  V30 8622 H 836.113 -4.31713 -2.58133 0
M  V30 8623 H 835.813 -5.68615 -1.48159 0
M  V30 8624 H 837.337 -5.60989 -2.4109 0
M  V30 8625 H 838.751 -5.73122 -0.142703 0
M  V30 8626 H 837.148 -5.96975 0.611673 0
M  V30 8627 H 838.218 -4.69329 1.21894 0
M  V30 8628 N 839.561 -0.251338 -1.55583 0
M  V30 8629 C 840.807 0.37272 -1.99346 0
M  V30 8630 C 841.14 1.57266 -1.13934 0
M  V30 8631 O 840.415 1.9343 -0.20377 0
M  V30 8632 C 840.698 0.778245 -3.5159 0
M  V30 8633 C 840.551 -0.427394 -4.47765 0
M  V30 8634 C 841.87 1.62358 -4.09057 0
M  V30 8635 H 838.989 0.134002 -0.724715 0
M  V30 8636 H 841.631 -0.353536 -1.86682 0
M  V30 8637 H 839.781 1.39704 -3.62512 0
M  V30 8638 H 841.453 -1.06586 -4.48818 0
M  V30 8639 H 839.696 -1.06972 -4.20404 0
M  V30 8640 H 840.367 -0.10025 -5.51909 0
M  V30 8641 H 842.843 1.1012 -4.01264 0
M  V30 8642 H 841.719 1.87617 -5.1584 0
M  V30 8643 H 841.98 2.59688 -3.57791 0
M  V30 8644 N 841.039 1.57585 0.0217189 0
M  V30 8645 C 842.286 1.89606 0.711045 0
M  V30 8646 C 842.614 0.849535 1.74966 0
M  V30 8647 O 841.869 -0.14856 1.95135 0
M  V30 8648 C 842.168 3.28377 1.41079 0
M  V30 8649 C 841.834 4.48035 0.507454 0
M  V30 8650 C 840.496 4.80504 0.258672 0
M  V30 8651 C 842.848 5.21071 -0.115793 0
M  V30 8652 C 840.176 5.83393 -0.622013 0
M  V30 8653 C 842.528 6.24897 -0.984224 0
M  V30 8654 C 841.192 6.55836 -1.2424 0
M  V30 8655 H 840.462 0.693817 0.26019 0
M  V30 8656 H 843.109 1.91478 -0.0291424 0
M  V30 8657 H 841.414 3.22528 2.22448 0
M  V30 8658 H 843.111 3.50404 1.94982 0
M  V30 8659 H 839.701 4.22653 0.711516 0
M  V30 8660 H 843.885 4.96259 0.0634327 0
M  V30 8661 H 839.141 6.05736 -0.830267 0
M  V30 8662 H 843.315 6.8063 -1.47363 0
M  V30 8663 H 840.942 7.35383 -1.92653 0
M  V30 8664 N 842.517 -0.29412 1.54831 0
M  V30 8665 C 843.48 -1.3461 1.85507 0
M  V30 8666 C 844.48 -1.43359 0.728343 0
M  V30 8667 O 845.67 -1.42875 0.996609 0
M  V30 8668 C 842.802 -2.73012 2.0415 0
M  V30 8669 H 843.995 -1.08651 2.79526 0
M  V30 8670 H 841.548 -0.531138 1.46999 0
M  V30 8671 H 842.283 -3.04183 1.12441 0
M  V30 8672 H 842.068 -2.68051 2.86166 0
M  V30 8673 H 843.558 -3.49061 2.29229 0
M  V30 8674 N 843.995 -1.47404 -0.557645 0
M  V30 8675 C 844.925 -1.62736 -1.67449 0
M  V30 8676 C 845.906 -0.476824 -1.6328 0
M  V30 8677 O 847.091 -0.706108 -1.80908 0
M  V30 8678 C 844.221 -1.641 -3.06086 0
M  V30 8679 C 843.175 -2.78377 -3.25101 0
M  V30 8680 C 842.501 -2.64812 -4.6452 0
M  V30 8681 C 843.801 -4.19971 -3.10518 0
M  V30 8682 H 845.495 -2.56232 -1.54873 0
M  V30 8683 H 843.041 -1.23312 -0.743649 0
M  V30 8684 H 844.994 -1.73417 -3.84063 0
M  V30 8685 H 843.718 -0.671652 -3.19619 0
M  V30 8686 H 842.377 -2.6857 -2.49531 0
M  V30 8687 H 842.025 -1.65906 -4.74852 0
M  V30 8688 H 841.725 -3.41477 -4.78191 0
M  V30 8689 H 843.249 -2.76057 -5.44633 0
M  V30 8690 H 844.663 -4.30757 -3.78313 0
M  V30 8691 H 843.06 -4.97419 -3.35699 0
M  V30 8692 H 844.13 -4.38369 -2.0727 0
M  V30 8693 N 845.473 0.80434 -1.35529 0
M  V30 8694 C 846.75 1.5486 -1.1949 0
M  V30 8695 C 847.13 2.09897 0.22506 0
M  V30 8696 O 846.478 1.92643 1.22886 0
M  V30 8697 C 846.688 2.65535 -2.26478 0
M  V30 8698 C 848.036 3.33814 -2.62399 0
M  V30 8699 O 849.06 2.75807 -2.25409 0
M  V30 8700 O 847.919 4.38612 -3.26009 0
M  V30 8701 H 845.013 0.68433 -0.464351 0
M  V30 8702 H 847.559 0.844107 -1.47217 0
M  V30 8703 H 846.331 2.22754 -3.21709 0
M  V30 8704 H 845.954 3.43617 -2.00033 0
M  V30 8705 N 846.951 1.19563 1.02676 0
M  V30 8706 C 848.199 0.997593 1.75763 0
M  V30 8707 C 848.52 -0.47253 1.89188 0
M  V30 8708 O 847.79 -1.34214 1.42701 0
M  V30 8709 H 846.37 0.366128 0.651122 0
M  V30 8710 H 849.032 1.50495 1.23844 0
M  V30 8711 H 848.128 1.44741 2.76508 0
M  V30 8712 N 848.429 -1.21819 0.999893 0
M  V30 8713 C 849.376 -2.24003 0.556005 0
M  V30 8714 C 850.346 -1.60825 -0.415287 0
M  V30 8715 O 851.531 -1.88123 -0.318481 0
M  V30 8716 C 848.671 -3.44904 -0.116289 0
M  V30 8717 C 847.784 -4.22573 0.897574 0
M  V30 8718 C 846.919 -5.30831 0.198073 0
M  V30 8719 C 845.958 -6.00225 1.19983 0
M  V30 8720 N 845.095 -7.00111 0.528157 0
M  V30 8721 H 849.935 -2.61334 1.43208 0
M  V30 8722 H 847.472 -1.28431 0.717205 0
M  V30 8723 H 849.43 -4.13908 -0.523055 0
M  V30 8724 H 848.06 -3.08315 -0.956108 0
M  V30 8725 H 847.112 -3.52797 1.42262 0
M  V30 8726 H 848.424 -4.70363 1.66013 0
M  V30 8727 H 847.578 -6.06121 -0.265065 0
M  V30 8728 H 846.317 -4.84033 -0.596924 0
M  V30 8729 H 845.322 -5.23711 1.67353 0
M  V30 8730 H 846.547 -6.4911 1.99582 0
M  V30 8731 H 844.493 -6.55534 -0.247276 0
M  V30 8732 H 844.41 -7.45943 1.22904 0
M  V30 8733 H 845.678 -7.7945 0.0880543 0
M  V30 8734 N 849.908 -0.773975 -1.37286 0
M  V30 8735 C 850.871 -0.167974 -2.28584 0
M  V30 8736 C 851.871 0.625662 -1.48129 0
M  V30 8737 O 853.061 0.448924 -1.68316 0
M  V30 8738 C 850.193 0.769364 -3.32105 0
M  V30 8739 H 851.386 -0.972806 -2.83684 0
M  V30 8740 H 848.939 -0.542335 -1.46589 0
M  V30 8741 H 849.674 1.59912 -2.82132 0
M  V30 8742 H 849.459 0.202419 -3.91577 0
M  V30 8743 H 850.949 1.18872 -4.00324 0
M  V30 8744 N 851.386 1.48609 -0.524698 0
M  V30 8745 C 852.318 2.27508 0.278 0
M  V30 8746 C 853.331 1.35042 0.909258 0
M  V30 8747 O 854.52 1.60136 0.788592 0
M  V30 8748 C 851.62 3.08247 1.40843 0
M  V30 8749 C 850.793 4.28455 0.880083 0
M  V30 8750 C 849.852 4.91048 1.891 0
M  V30 8751 O 848.878 5.5042 1.45005 0
M  V30 8752 N 850.08 4.82816 3.22288 0
M  V30 8753 H 852.845 2.97037 -0.398642 0
M  V30 8754 H 850.406 1.57876 -0.358698 0
M  V30 8755 H 852.398 3.46992 2.08276 0
M  V30 8756 H 850.968 2.41173 1.98883 0
M  V30 8757 H 850.188 3.94189 0.0299228 0
M  V30 8758 H 851.476 5.06279 0.505881 0
M  V30 8759 H 850.874 4.3572 3.60783 0
M  V30 8760 H 849.431 5.25676 3.85368 0
M  V30 8761 N 852.864 0.259585 1.55447 0
M  V30 8762 C 853.794 -0.62852 2.24882 0
M  V30 8763 C 854.775 -1.17128 1.23349 0
M  V30 8764 O 855.96 -1.20829 1.52033 0
M  V30 8765 C 853.09 -1.81983 2.95803 0
M  V30 8766 C 852.044 -1.40929 4.04132 0
M  V30 8767 C 851.37 -2.68246 4.62545 0
M  V30 8768 C 852.67 -0.570956 5.1917 0
M  V30 8769 H 854.364 -0.0495021 2.99359 0
M  V30 8770 H 851.91 -0.0223688 1.43983 0
M  V30 8771 H 853.863 -2.44689 3.43082 0
M  V30 8772 H 852.587 -2.42444 2.18835 0
M  V30 8773 H 851.246 -0.805519 3.57641 0
M  V30 8774 H 850.894 -3.26931 3.82263 0
M  V30 8775 H 850.594 -2.41495 5.35681 0
M  V30 8776 H 852.118 -3.31827 5.12565 0
M  V30 8777 H 853.532 -1.10262 5.62597 0
M  V30 8778 H 851.929 -0.398979 5.98772 0
M  V30 8779 H 852.999 0.413918 4.8313 0
M  V30 8780 N 854.342 -1.57594 -0.0133615 0
M  V30 8781 C 855.753 -1.78168 -0.557937 0
M  V30 8782 C 856.104 -0.892616 -1.74719 0
M  V30 8783 O 855.229 -0.0915491 -2.16206 0
M  V30 8784 C 855.824 -3.23115 -1.01894 0
M  V30 8785 C 854.383 -3.44831 -1.50892 0
M  V30 8786 C 853.53 -2.73558 -0.454044 0
M  V30 8787 H 856.481 -1.57266 0.212843 0
M  V30 8788 H 856.502 -3.30493 -1.8856 0
M  V30 8789 H 856.014 -3.87798 -0.153175 0
M  V30 8790 H 854.115 -2.85345 -2.39602 0
M  V30 8791 H 854.228 -4.53485 -1.54559 0
M  V30 8792 H 852.592 -2.37787 -0.912666 0
M  V30 8793 H 853.375 -3.40932 0.402524 0
M  V30 8794 N 855.82 0.285905 -1.54985 0
M  V30 8795 C 857.231 0.857869 -1.65824 0
M  V30 8796 C 857.582 1.87531 -0.576763 0
M  V30 8797 O 856.707 2.14528 0.284016 0
M  V30 8798 C 857.302 1.56277 -3.00604 0
M  V30 8799 C 855.861 2.08294 -3.13513 0
M  V30 8800 C 855.008 0.920633 -2.61571 0
M  V30 8801 H 857.959 0.0625463 -1.58577 0
M  V30 8802 H 857.98 2.42912 -2.92872 0
M  V30 8803 H 857.492 0.822017 -3.79295 0
M  V30 8804 H 855.593 2.8537 -2.39572 0
M  V30 8805 H 855.706 2.3071 -4.19892 0
M  V30 8806 H 854.07 1.31043 -2.18403 0
M  V30 8807 H 854.853 0.193594 -3.42754 0
M  V30 8808 N 857.298 1.47698 0.54982 0
M  V30 8809 C 858.709 1.48474 1.13191 0
M  V30 8810 C 859.06 0.243504 1.94683 0
M  V30 8811 O 858.185 -0.651009 2.06375 0
M  V30 8812 C 858.78 2.69022 2.05944 0
M  V30 8813 C 857.339 2.72733 2.5941 0
M  V30 8814 C 856.486 2.41691 1.35944 0
M  V30 8815 H 859.437 1.55101 0.336048 0
M  V30 8816 H 859.458 2.46412 2.89934 0
M  V30 8817 H 858.97 3.59345 1.46605 0
M  V30 8818 H 857.071 1.86568 3.22526 0
M  V30 8819 H 857.184 3.73628 2.99899 0
M  V30 8820 H 855.548 1.92428 1.66864 0
M  V30 8821 H 856.331 3.34231 0.783869 0
M  V30 8822 N 858.776 -0.797141 1.35954 0
M  V30 8823 C 859.739 -1.89104 1.29508 0
M  V30 8824 C 860.739 -1.59495 0.204444 0
M  V30 8825 O 861.929 -1.68051 0.458746 0
M  V30 8826 C 859.061 -3.25726 1.00576 0
M  V30 8827 H 860.254 -1.96237 2.26785 0
M  V30 8828 H 857.807 -0.994075 1.20614 0
M  V30 8829 H 858.542 -3.24279 0.0372519 0
M  V30 8830 H 858.327 -3.48604 1.79492 0
M  V30 8831 H 859.817 -4.0578 0.986508 0
M  V30 8832 N 860.254 -1.20106 -1.0204 0
M  V30 8833 C 861.665 -1.00992 -1.57027 0
M  V30 8834 C 862.016 0.434782 -1.91322 0
M  V30 8835 O 861.141 1.31557 -1.71819 0
M  V30 8836 C 861.736 -1.82697 -2.85319 0
M  V30 8837 C 860.295 -1.67959 -3.36848 0
M  V30 8838 C 859.442 -1.80868 -2.10195 0
M  V30 8839 H 862.393 -1.34354 -0.844676 0
M  V30 8840 H 862.414 -1.32809 -3.5657 0
M  V30 8841 H 861.926 -2.87839 -2.60328 0
M  V30 8842 H 860.027 -0.654389 -3.66809 0
M  V30 8843 H 860.14 -2.49006 -4.09308 0
M  V30 8844 H 858.504 -1.24015 -2.22469 0
M  V30 8845 H 859.287 -2.87486 -1.87635 0
M  V30 8846 N 861.732 1.21287 -1.00634 0
M  V30 8847 C 862.695 2.21927 -0.572821 0
M  V30 8848 C 863.695 1.5691 0.351541 0
M  V30 8849 O 864.885 1.73623 0.141643 0
M  V30 8850 C 862.017 3.40501 0.164932 0
M  V30 8851 H 863.21 2.61795 -1.463 0
M  V30 8852 H 860.763 1.34571 -0.794998 0
M  V30 8853 H 861.498 3.06123 1.07049 0
M  V30 8854 H 861.283 3.88912 -0.498962 0
M  V30 8855 H 862.773 4.15103 0.455945 0
M  V30 8856 N 863.21 0.781244 1.36873 0
M  V30 8857 C 864.621 0.414093 1.8205 0
M  V30 8858 C 864.972 -1.06098 1.65039 0
M  V30 8859 O 864.097 -1.82251 1.16677 0
M  V30 8860 C 864.692 0.744837 3.30511 0
M  V30 8861 C 863.251 0.430621 3.73929 0
M  V30 8862 C 862.398 0.983746 2.59264 0
M  V30 8863 H 865.349 0.975091 1.2521 0
M  V30 8864 H 865.37 0.032936 3.80486 0
M  V30 8865 H 864.882 1.81847 3.42861 0
M  V30 8866 H 862.983 -0.635308 3.67144 0
M  V30 8867 H 863.096 0.945514 4.69677 0
M  V30 8868 H 861.46 0.407433 2.5142 0
M  V30 8869 H 862.243 2.06297 2.74402 0
M  V30 8870 N 864.689 -1.48329 0.532571 0
M  V30 8871 C 865.652 -2.2816 -0.218069 0
M  V30 8872 C 866.652 -1.35526 -0.865409 0
M  V30 8873 O 867.842 -1.58394 -0.725061 0
M  V30 8874 C 864.974 -3.1448 -1.31586 0
M  V30 8875 H 866.167 -2.95987 0.482865 0
M  V30 8876 H 863.72 -1.53612 0.288603 0
M  V30 8877 H 864.455 -2.5129 -2.04997 0
M  V30 8878 H 864.24 -3.82625 -0.856779 0
M  V30 8879 H 865.73 -3.74693 -1.84377 0
M  V30 8880 N 866.167 -0.267825 -1.55308 0
M  V30 8881 C 867.114 0.6228 -2.22238 0
M  V30 8882 C 868.084 1.15536 -1.19334 0
M  V30 8883 O 869.269 1.206 -1.47852 0
M  V30 8884 C 866.409 1.80447 -2.94164 0
M  V30 8885 C 865.522 1.30646 -4.11771 0
M  V30 8886 C 864.657 2.44935 -4.7136 0
M  V30 8887 C 863.696 1.92099 -5.81175 0
M  V30 8888 N 862.833 2.99834 -6.34857 0
M  V30 8889 H 867.673 0.0453874 -2.97965 0
M  V30 8890 H 865.21 0.0106371 -1.47096 0
M  V30 8891 H 867.168 2.49896 -3.34078 0
M  V30 8892 H 865.798 2.35403 -2.20874 0
M  V30 8893 H 864.85 0.505314 -3.77029 0
M  V30 8894 H 866.162 0.879409 -4.90987 0
M  V30 8895 H 865.316 3.2239 -5.13955 0
M  V30 8896 H 864.055 2.90951 -3.91406 0
M  V30 8897 H 863.06 1.13122 -5.38037 0
M  V30 8898 H 864.285 1.47027 -6.62993 0
M  V30 8899 H 862.231 3.45246 -5.578 0
M  V30 8900 H 862.148 2.61524 -7.09324 0
M  V30 8901 H 863.416 3.77286 -6.82111 0
M  V30 8902 N 867.645 1.57599 0.00500368 0
M  V30 8903 C 868.891 1.90631 0.691919 0
M  V30 8904 C 869.224 0.868443 1.737 0
M  V30 8905 O 868.499 -0.113482 1.94169 0
M  V30 8906 C 868.782 3.34255 1.33961 0
M  V30 8907 C 868.635 4.48755 0.306413 0
M  V30 8908 C 869.954 3.77211 2.26715 0
M  V30 8909 H 867.073 0.693279 0.250066 0
M  V30 8910 H 869.715 1.89946 -0.0452634 0
M  V30 8911 H 867.865 3.3497 1.96793 0
M  V30 8912 H 869.537 4.60176 -0.321841 0
M  V30 8913 H 867.78 4.32203 -0.371852 0
M  V30 8914 H 868.451 5.46193 0.798554 0
M  V30 8915 H 870.927 3.78017 1.73904 0
M  V30 8916 H 869.803 4.78466 2.69002 0
M  V30 8917 H 870.064 3.10801 3.14413 0
M  V30 8918 N 869.123 -0.277682 1.55134 0
M  V30 8919 C 870.033 -1.36524 1.90783 0
M  V30 8920 C 871.049 -1.54283 0.804542 0
M  V30 8921 O 872.225 -1.68499 1.10318 0
M  V30 8922 C 869.29 -2.70524 2.16835 0
M  V30 8923 C 868.351 -2.61552 3.40424 0
M  V30 8924 C 867.584 -3.89162 3.65224 0
M  V30 8925 O 867.807 -4.89624 2.92616 0
M  V30 8926 O 866.741 -3.89647 4.58758 0
M  V30 8927 H 870.567 -1.0929 2.83354 0
M  V30 8928 H 868.152 -0.475799 1.41621 0
M  V30 8929 H 870.034 -3.49765 2.35038 0
M  V30 8930 H 868.709 -2.97555 1.27448 0
M  V30 8931 H 867.616 -1.80704 3.27562 0
M  V30 8932 H 868.949 -2.39472 4.30016 0
M  V30 8933 N 870.601 -1.47988 -0.541979 0
M  V30 8934 C 872.017 -1.33843 -0.869383 0
M  V30 8935 C 872.217 -0.340374 -1.98604 0
M  V30 8936 O 871.273 0.242696 -2.51331 0
M  V30 8937 C 872.586 -2.73568 -1.24823 0
M  V30 8938 C 874.134 -2.81967 -1.3588 0
M  V30 8939 C 874.609 -4.22368 -1.77114 0
M  V30 8940 N 876.1 -4.24983 -1.84237 0
M  V30 8941 C 876.835 -5.30547 -2.17503 0
M  V30 8942 N 876.331 -6.46401 -2.49275 0
M  V30 8943 N 878.124 -5.17933 -2.18406 0
M  V30 8944 H 870.275 -2.11503 0.195001 0
M  V30 8945 H 872.538 -0.947681 0.0245862 0
M  V30 8946 H 872.244 -3.48107 -0.501435 0
M  V30 8947 H 872.118 -3.06322 -2.20106 0
M  V30 8948 H 874.505 -2.07692 -2.09638 0
M  V30 8949 H 874.586 -2.52848 -0.387478 0
M  V30 8950 H 874.23 -4.97155 -1.0392 0
M  V30 8951 H 874.16 -4.48922 -2.75275 0
M  V30 8952 H 876.651 -3.41411 -1.62009 0
M  V30 8953 H 876.964 -7.22698 -2.73729 0
M  V30 8954 H 875.309 -6.49696 -2.46821 0
M  V30 8955 H 878.5 -4.26445 -1.93034 0
M  V30 8956 H 878.673 -6.00307 -2.44 0
M  V30 8957 N 872.079 0.78992 -1.36375 0
M  V30 8958 C 873.325 1.55007 -1.3077 0
M  V30 8959 C 873.658 1.93871 0.112979 0
M  V30 8960 O 872.933 1.6267 1.06625 0
M  V30 8961 C 873.216 2.82748 -2.22993 0
M  V30 8962 C 873.069 2.50253 -3.73756 0
M  V30 8963 C 874.388 3.84569 -2.13998 0
M  V30 8964 H 871.507 0.562362 -0.476359 0
M  V30 8965 H 874.149 0.907582 -1.66922 0
M  V30 8966 H 872.299 3.37573 -1.92292 0
M  V30 8967 H 873.971 2.01482 -4.14973 0
M  V30 8968 H 872.214 1.83203 -3.93216 0
M  V30 8969 H 872.885 3.41487 -4.33694 0
M  V30 8970 H 875.361 3.39188 -2.4102 0
M  V30 8971 H 874.237 4.717 -2.80697 0
M  V30 8972 H 874.498 4.27491 -1.12711 0
M  V30 8973 N 873.557 1.20646 1.01402 0
M  V30 8974 C 874.968 1.01823 1.56489 0
M  V30 8975 C 875.319 -0.42463 1.9155 0
M  V30 8976 O 874.444 -1.30644 1.72514 0
M  V30 8977 C 875.039 1.84208 2.84347 0
M  V30 8978 C 873.598 1.69743 3.35953 0
M  V30 8979 C 872.745 1.8198 2.09233 0
M  V30 8980 H 875.696 1.348 0.837539 0
M  V30 8981 H 875.717 1.34698 3.55861 0
M  V30 8982 H 875.229 2.89215 2.58798 0
M  V30 8983 H 873.33 0.673833 3.66456 0
M  V30 8984 H 873.443 2.51173 4.07981 0
M  V30 8985 H 871.807 1.25193 2.21808 0
M  V30 8986 H 872.59 2.88477 1.86107 0
M  V30 8987 N 875.035 -1.20752 1.01276 0
M  V30 8988 C 875.967 -2.22798 0.537917 0
M  V30 8989 C 876.98 -1.5836 -0.377638 0
M  V30 8990 O 878.169 -1.77624 -0.176599 0
M  V30 8991 C 875.269 -3.38068 -0.237364 0
M  V30 8992 C 874.442 -4.32095 0.679161 0
M  V30 8993 C 873.501 -5.26178 -0.0478676 0
M  V30 8994 O 872.527 -5.66305 0.573366 0
M  V30 8995 N 873.729 -5.65201 -1.32396 0
M  V30 8996 H 876.494 -2.64166 1.4155 0
M  V30 8997 H 874.055 -1.35254 0.889826 0
M  V30 8998 H 876.047 -3.98009 -0.73288 0
M  V30 8999 H 874.617 -2.95622 -1.0162 0
M  V30 9000 H 873.837 -3.70179 1.35505 0
M  V30 9001 H 875.125 -4.91842 1.30263 0
M  V30 9002 H 874.523 -5.34606 -1.84968 0
M  V30 9003 H 873.08 -6.27468 -1.76428 0
M  V30 9004 N 876.513 -0.788492 -1.36457 0
M  V30 9005 C 877.924 -0.423742 -1.81828 0
M  V30 9006 C 878.275 1.05221 -1.65599 0
M  V30 9007 O 877.4 1.8163 -1.17641 0
M  V30 9008 C 877.995 -0.762354 -3.30112 0
M  V30 9009 C 876.554 -0.450445 -3.73695 0
M  V30 9010 C 875.701 -0.997482 -2.58738 0
M  V30 9011 H 878.652 -0.981718 -1.24692 0
M  V30 9012 H 878.673 -0.0531136 -3.80463 0
M  V30 9013 H 878.185 -1.83662 -3.41891 0
M  V30 9014 H 876.286 0.615829 -3.67476 0
M  V30 9015 H 876.399 -0.970408 -4.69169 0
M  V30 9016 H 874.763 -0.420761 -2.51201 0
M  V30 9017 H 875.546 -2.07749 -2.73304 0
M  V30 9018 N 877.991 1.48044 -0.54043 0
M  V30 9019 C 879.237 2.02797 -0.0101718 0
M  V30 9020 C 879.57 1.41565 1.32939 0
M  V30 9021 O 878.845 0.565139 1.86109 0
M  V30 9022 C 879.128 3.59959 0.100758 0
M  V30 9023 C 878.981 4.31654 -1.26471 0
M  V30 9024 C 880.3 4.32347 0.822455 0
M  V30 9025 H 877.419 0.736982 -0.00517052 0
M  V30 9026 H 880.061 1.76656 -0.69948 0
M  V30 9027 H 878.211 3.82363 0.687824 0
M  V30 9028 H 879.883 4.20639 -1.89369 0
M  V30 9029 H 878.126 3.92663 -1.84386 0
M  V30 9030 H 878.797 5.401 -1.13998 0
M  V30 9031 H 881.273 4.14835 0.324164 0
M  V30 9032 H 880.149 5.41978 0.868993 0
M  V30 9033 H 880.41 4.00369 1.87501 0
M  V30 9034 N 879.47 0.276058 1.55163 0
M  V30 9035 C 880.698 -0.343772 2.04024 0
M  V30 9036 C 881.113 -1.49397 1.15438 0
M  V30 9037 O 880.47 -1.81662 0.174692 0
M  V30 9038 C 880.521 -0.823885 3.51986 0
M  V30 9039 O 880.242 0.280507 4.37201 0
M  V30 9040 C 881.743 -1.51143 4.16738 0
M  V30 9041 H 878.963 -0.07828 0.666418 0
M  V30 9042 H 881.507 0.408427 2.0038 0
M  V30 9043 H 879.662 -1.52617 3.56071 0
M  V30 9044 H 880.076 -0.0887831 5.24425 0
M  V30 9045 H 881.55 -1.79878 5.2187 0
M  V30 9046 H 882.027 -2.44327 3.64967 0
M  V30 9047 H 882.633 -0.852975 4.16659 0
M  V30 9048 N 880.948 -1.576 0.00335426 0
M  V30 9049 C 881.911 -2.07576 -0.971838 0
M  V30 9050 C 882.911 -0.985796 -1.27038 0
M  V30 9051 O 884.101 -1.24833 -1.21501 0
M  V30 9052 C 881.233 -2.52003 -2.29581 0
M  V30 9053 H 882.426 -2.95008 -0.539481 0
M  V30 9054 H 879.979 -1.54381 -0.244186 0
M  V30 9055 H 880.714 -1.67825 -2.77498 0
M  V30 9056 H 880.499 -3.31609 -2.09231 0
M  V30 9057 H 881.989 -2.90983 -2.99531 0
M  V30 9058 N 882.426 0.269451 -1.5528 0
M  V30 9059 C 883.389 1.31642 -1.87625 0
M  V30 9060 C 884.389 1.42182 -0.751058 0
M  V30 9061 O 885.579 1.41272 -1.01921 0
M  V30 9062 C 882.711 2.6973 -2.08467 0
M  V30 9063 H 883.904 1.0419 -2.81219 0
M  V30 9064 H 881.457 0.507685 -1.47825 0
M  V30 9065 H 882.192 3.02356 -1.17266 0
M  V30 9066 H 881.977 2.63465 -2.90394 0
M  V30 9067 H 883.467 3.4537 -2.34753 0
M  V30 9068 N 883.904 1.48273 0.534124 0
M  V30 9069 C 885.315 1.49667 1.1161 0
M  V30 9070 C 885.666 0.264139 1.94414 0
M  V30 9071 O 884.791 -0.629084 2.07054 0
M  V30 9072 C 885.386 2.71191 2.03079 0
M  V30 9073 C 883.945 2.7547 2.56502 0
M  V30 9074 C 883.092 2.43119 1.33373 0
M  V30 9075 H 886.043 1.55449 0.319578 0
M  V30 9076 H 886.064 2.49473 2.87304 0
M  V30 9077 H 885.576 3.60879 1.42785 0
M  V30 9078 H 883.677 1.89979 3.20529 0
M  V30 9079 H 883.79 3.76787 2.95919 0
M  V30 9080 H 882.154 1.94187 1.64813 0
M  V30 9081 H 882.937 3.35044 0.748375 0
M  V30 9082 N 885.382 -0.782676 1.36792 0
M  V30 9083 C 886.292 -1.92679 1.33835 0
M  V30 9084 C 887.308 -1.72344 0.23952 0
M  V30 9085 O 888.484 -1.95766 0.473045 0
M  V30 9086 C 885.549 -3.27644 1.1336 0
M  V30 9087 C 884.61 -3.6071 2.32781 0
M  V30 9088 C 883.843 -4.89234 2.13273 0
M  V30 9089 O 884.066 -5.59468 1.11136 0
M  V30 9090 O 883 -5.21112 3.01208 0
M  V30 9091 H 886.826 -1.98124 2.30175 0
M  V30 9092 H 884.411 -0.923887 1.17408 0
M  V30 9093 H 886.293 -4.08394 1.03886 0
M  V30 9094 H 884.968 -3.23076 0.200868 0
M  V30 9095 H 883.875 -2.80238 2.47825 0
M  V30 9096 H 885.208 -3.70008 3.24584 0
M  V30 9097 N 886.86 -1.21182 -1.00761 0
M  V30 9098 C 887.792 -0.926523 -2.09638 0
M  V30 9099 C 888.805 0.0892511 -1.62555 0
M  V30 9100 O 889.994 -0.142915 -1.77927 0
M  V30 9101 C 887.094 -0.369175 -3.36883 0
M  V30 9102 C 886.267 -1.43866 -4.13063 0
M  V30 9103 C 885.326 -0.891015 -5.18601 0
M  V30 9104 O 884.352 -1.57384 -5.47009 0
M  V30 9105 N 885.554 0.295057 -5.7975 0
M  V30 9106 H 888.319 -1.8638 -2.34697 0
M  V30 9107 H 885.88 -1.11671 -1.17223 0
M  V30 9108 H 887.872 0.011534 -4.04698 0
M  V30 9109 H 886.442 0.472861 -3.09003 0
M  V30 9110 H 885.662 -1.99332 -3.40089 0
M  V30 9111 H 886.95 -2.15866 -4.60738 0
M  V30 9112 H 886.348 0.8669 -5.59018 0
M  V30 9113 H 884.905 0.617306 -6.4887 0
M  V30 9114 N 888.338 1.20213 -1.01915 0
M  V30 9115 C 889.584 1.89928 -0.711007 0
M  V30 9116 C 889.917 1.7881 0.75767 0
M  V30 9117 O 889.192 1.17399 1.55073 0
M  V30 9118 C 889.475 3.41225 -1.15053 0
M  V30 9119 C 889.328 3.61264 -2.67971 0
M  V30 9120 C 890.647 4.34108 -0.72377 0
M  V30 9121 H 887.766 0.689702 -0.259768 0
M  V30 9122 H 890.408 1.41557 -1.26734 0
M  V30 9123 H 888.558 3.82552 -0.677199 0
M  V30 9124 H 890.23 3.29173 -3.23176 0
M  V30 9125 H 888.473 3.04647 -3.08824 0
M  V30 9126 H 889.144 4.67331 -2.93779 0
M  V30 9127 H 891.62 4.00442 -1.13073 0
M  V30 9128 H 890.496 5.38581 -1.05931 0
M  V30 9129 H 890.757 4.40512 0.374424 0
M  V30 9130 N 889.816 0.795718 1.36037 0
M  V30 9131 C 890.748 0.156336 2.28666 0
M  V30 9132 C 891.761 -0.638075 1.49775 0
M  V30 9133 O 892.95 -0.472222 1.7214 0
M  V30 9134 C 890.05 -0.801417 3.29288 0
M  V30 9135 C 889.223 -0.0557118 4.37365 0
M  V30 9136 C 888.282 -0.930338 5.1791 0
M  V30 9137 O 887.308 -0.385266 5.67895 0
M  V30 9138 N 888.51 -2.25382 5.34961 0
M  V30 9139 H 891.275 0.952033 2.84177 0
M  V30 9140 H 888.836 0.650189 1.48271 0
M  V30 9141 H 890.828 -1.39051 3.80062 0
M  V30 9142 H 889.398 -1.49796 2.74372 0
M  V30 9143 H 888.618 0.714508 3.87671 0
M  V30 9144 H 889.906 0.458633 5.06729 0
M  V30 9145 H 889.304 -2.72073 4.95977 0
M  V30 9146 H 887.861 -2.79241 5.88955 0
M  V30 9147 N 891.294 -1.47756 0.548274 0
M  V30 9148 C 892.257 -2.28379 -0.193857 0
M  V30 9149 C 893.257 -1.36436 -0.850986 0
M  V30 9150 O 894.447 -1.59154 -0.70822 0
M  V30 9151 C 891.579 -3.15858 -1.28243 0
M  V30 9152 H 892.772 -2.95458 0.514231 0
M  V30 9153 H 890.325 -1.53298 0.304879 0
M  V30 9154 H 891.06 -2.5345 -2.0232 0
M  V30 9155 H 890.845 -3.83512 -0.816148 0
M  V30 9156 H 892.335 -3.76627 -1.80393 0
M  V30 9157 N 892.772 -0.284283 -1.55015 0
M  V30 9158 C 894.02 0.329212 -1.99401 0
M  V30 9159 C 894.341 1.55687 -1.17416 0
M  V30 9160 O 893.611 1.94087 -0.265937 0
M  V30 9161 H 892.191 0.12463 -0.73653 0
M  V30 9162 H 894.853 -0.391743 -1.90922 0
M  V30 9163 H 893.949 0.61278 -3.06025 0
M  V30 9164 N 894.251 1.57596 -0.0117121 0
M  V30 9165 C 895.198 2.09153 0.975897 0
M  V30 9166 C 896.168 0.989579 1.33404 0
M  V30 9167 O 897.353 1.26273 1.43038 0
M  V30 9168 C 894.493 2.60906 2.2588 0
M  V30 9169 C 893.606 3.85046 1.95866 0
M  V30 9170 C 892.741 4.25257 3.18323 0
M  V30 9171 C 891.78 5.42202 2.84049 0
M  V30 9172 N 890.917 5.77651 3.99079 0
M  V30 9173 H 895.757 2.93261 0.52931 0
M  V30 9174 H 893.294 1.44965 0.249691 0
M  V30 9175 H 895.252 2.88995 3.00895 0
M  V30 9176 H 893.882 1.79654 2.68187 0
M  V30 9177 H 892.934 3.63794 1.11168 0
M  V30 9178 H 894.246 4.70151 1.66611 0
M  V30 9179 H 893.4 4.5469 4.01674 0
M  V30 9180 H 892.139 3.38884 3.50726 0
M  V30 9181 H 891.144 5.1248 1.99107 0
M  V30 9182 H 892.369 6.3026 2.52881 0
M  V30 9183 H 890.315 4.94235 4.31356 0
M  V30 9184 H 890.232 6.57356 3.73388 0
M  V30 9185 H 891.5 6.11681 4.83183 0
M  V30 9186 N 895.729 -0.261212 1.5542 0
M  V30 9187 C 896.661 -1.34571 1.85535 0
M  V30 9188 C 897.674 -1.44979 0.740612 0
M  V30 9189 O 898.863 -1.46584 1.01859 0
M  V30 9190 C 895.963 -2.7258 2.01378 0
M  V30 9191 C 895.136 -2.84618 3.32131 0
M  V30 9192 C 894.195 -4.03379 3.37893 0
M  V30 9193 O 893.221 -3.93581 4.11197 0
M  V30 9194 N 894.423 -5.15893 2.66148 0
M  V30 9195 H 897.188 -1.09078 2.79145 0
M  V30 9196 H 894.749 -0.451327 1.55482 0
M  V30 9197 H 896.741 -3.50342 2.0259 0
M  V30 9198 H 895.311 -2.90844 1.14579 0
M  V30 9199 H 894.531 -1.93647 3.43358 0
M  V30 9200 H 895.819 -2.896 4.18341 0
M  V30 9201 H 895.217 -5.26743 2.06297 0
M  V30 9202 H 893.774 -5.91842 2.73069 0
M  V30 9203 N 897.207 -1.48554 -0.526253 0
M  V30 9204 C 898.137 -1.66252 -1.63959 0
M  V30 9205 C 899.118 -0.511351 -1.62232 0
M  V30 9206 O 900.303 -0.744322 -1.7937 0
M  V30 9207 C 897.433 -1.70556 -3.02536 0
M  V30 9208 C 896.387 -2.8521 -3.19123 0
M  V30 9209 C 895.713 -2.74606 -4.58798 0
M  V30 9210 C 897.013 -4.26463 -3.0154 0
M  V30 9211 H 898.707 -2.59459 -1.49404 0
M  V30 9212 H 896.253 -1.24862 -0.717326 0
M  V30 9213 H 898.206 -1.81524 -3.80298 0
M  V30 9214 H 896.93 -0.739297 -3.18123 0
M  V30 9215 H 895.589 -2.73802 -2.43779 0
M  V30 9216 H 895.237 -1.75941 -4.71226 0
M  V30 9217 H 894.937 -3.51544 -4.70841 0
M  V30 9218 H 896.461 -2.87548 -5.38655 0
M  V30 9219 H 897.875 -4.38685 -3.69091 0
M  V30 9220 H 896.272 -5.04428 -3.25073 0
M  V30 9221 H 897.342 -4.42667 -1.97925 0
M  V30 9222 N 898.685 0.775411 -1.37205 0
M  V30 9223 C 899.915 1.56219 -1.352 0
M  V30 9224 C 900.323 1.89087 0.065456 0
M  V30 9225 O 899.666 1.51655 1.03665 0
M  V30 9226 C 899.728 2.9019 -2.12203 0
M  V30 9227 C 899.392 2.79978 -3.61195 0
M  V30 9228 C 900.389 2.51258 -4.55154 0
M  V30 9229 C 898.074 2.98115 -4.04268 0
M  V30 9230 C 900.068 2.40798 -5.90165 0
M  V30 9231 C 897.755 2.87276 -5.39366 0
M  V30 9232 C 898.753 2.58657 -6.32128 0
M  V30 9233 O 898.441 2.47838 -7.64743 0
M  V30 9234 H 898.173 0.490735 -0.464925 0
M  V30 9235 H 900.727 0.969201 -1.81096 0
M  V30 9236 H 898.957 3.51594 -1.60992 0
M  V30 9237 H 900.646 3.51561 -2.02879 0
M  V30 9238 H 901.412 2.36935 -4.23186 0
M  V30 9239 H 897.291 3.19392 -3.3243 0
M  V30 9240 H 900.835 2.18381 -6.62537 0
M  V30 9241 H 896.732 3.01166 -5.70937 0
M  V30 9242 H 897.5 2.63215 -7.75023 0
M  V30 9243 N 900.163 1.21714 1.00117 0
M  V30 9244 C 901.411 1.03465 1.73607 0
M  V30 9245 C 901.732 -0.432295 1.90148 0
M  V30 9246 O 901.002 -1.31157 1.45515 0
M  V30 9247 H 899.582 0.379857 0.643209 0
M  V30 9248 H 902.244 1.53088 1.20624 0
M  V30 9249 H 901.34 1.50574 2.73375 0
M  V30 9250 N 901.641 -1.19671 1.02551 0
M  V30 9251 C 902.573 -2.22215 0.561517 0
M  V30 9252 C 903.586 -1.58751 -0.360821 0
M  V30 9253 O 904.775 -1.77802 -0.157749 0
M  V30 9254 C 901.875 -3.383 -0.201494 0
M  V30 9255 C 901.048 -4.3135 0.724952 0
M  V30 9256 C 900.107 -5.26199 0.00794334 0
M  V30 9257 O 899.133 -5.65665 0.633398 0
M  V30 9258 N 900.335 -5.66573 -1.26394 0
M  V30 9259 H 903.1 -2.6265 1.44343 0
M  V30 9260 H 900.661 -1.34303 0.904122 0
M  V30 9261 H 902.653 -3.98764 -0.690625 0
M  V30 9262 H 901.223 -2.96683 -0.98479 0
M  V30 9263 H 900.443 -3.6872 1.39423 0
M  V30 9264 H 901.731 -4.90433 1.35472 0
M  V30 9265 H 901.129 -5.36538 -1.79287 0
M  V30 9266 H 899.686 -6.29304 -1.69763 0
M  V30 9267 N 903.119 -0.802921 -1.35613 0
M  V30 9268 C 904.366 -0.381576 -1.98872 0
M  V30 9269 C 904.694 1.0503 -1.63704 0
M  V30 9270 O 903.949 1.7427 -0.890418 0
M  V30 9271 C 904.248 -0.507806 -3.53774 0
M  V30 9272 C 903.914 -1.90245 -4.088 0
M  V30 9273 C 902.576 -2.28401 -4.2354 0
M  V30 9274 C 904.928 -2.81504 -4.3864 0
M  V30 9275 C 902.256 -3.57192 -4.65436 0
M  V30 9276 C 904.608 -4.09737 -4.81973 0
M  V30 9277 C 903.272 -4.47897 -4.94919 0
M  V30 9278 H 902.542 -0.139629 -0.727726 0
M  V30 9279 H 905.189 -1.023 -1.61886 0
M  V30 9280 H 903.494 0.21708 -3.91198 0
M  V30 9281 H 905.191 -0.162625 -4.0067 0
M  V30 9282 H 901.781 -1.596 -3.97776 0
M  V30 9283 H 905.965 -2.53276 -4.26808 0
M  V30 9284 H 901.221 -3.86611 -4.73648 0
M  V30 9285 H 905.395 -4.80555 -5.04024 0
M  V30 9286 H 903.022 -5.47747 -5.27141 0
M  V30 9287 N 904.597 1.47463 -0.556102 0
M  V30 9288 C 905.837 2.04372 -0.0339743 0
M  V30 9289 C 906.201 1.42125 1.29091 0
M  V30 9290 O 907.402 1.90074 1.90066 0
M  V30 9291 C 905.673 3.57352 0.0585316 0
M  V30 9292 S 907.232 4.35625 0.526943 0
M  V30 9293 H 904.05 0.710574 -0.0246115 0
M  V30 9294 H 906.652 1.80848 -0.742585 0
M  V30 9295 H 905.356 4.00181 -0.910116 0
M  V30 9296 H 904.887 3.85371 0.790731 0
M  V30 9297 H 906.902 4.62911 1.78683 0
M  V30 9298 N 906.075 0.2925 1.54862 0
M  V30 9299 C 907.3 -0.32494 2.04839 0
M  V30 9300 C 907.725 -1.47381 1.16877 0
M  V30 9301 O 907.083 -1.80492 0.171028 0
M  V30 9302 C 907.131 -0.76694 3.5235 0
M  V30 9303 O 906.235 -1.87256 3.67436 0
M  V30 9304 H 905.576 -0.0645195 0.660858 0
M  V30 9305 H 908.106 0.431867 1.9999 0
M  V30 9306 H 908.116 -1.05804 3.94043 0
M  V30 9307 H 906.791 0.0735212 4.15835 0
M  V30 9308 H 905.368 -1.58266 3.37648 0
M  V30 9309 N 907.553 -1.57587 0.0200696 0
M  V30 9310 C 908.799 -1.91708 -0.661503 0
M  V30 9311 C 909.132 -0.895968 -1.72296 0
M  V30 9312 O 908.407 0.082577 -1.94325 0
M  V30 9313 C 908.69 -3.36344 -1.28627 0
M  V30 9314 C 908.543 -4.49186 -0.234982 0
M  V30 9315 C 909.862 -3.80771 -2.20685 0
M  V30 9316 H 906.981 -0.69717 -0.239005 0
M  V30 9317 H 909.623 -1.8985 0.0754764 0
M  V30 9318 H 907.773 -3.38058 -1.91439 0
M  V30 9319 H 909.445 -4.59606 0.395011 0
M  V30 9320 H 907.688 -4.31557 0.440565 0
M  V30 9321 H 908.359 -5.47395 -0.711558 0
M  V30 9322 H 910.835 -3.80735 -1.67868 0
M  V30 9323 H 909.711 -4.82685 -2.61356 0
M  V30 9324 H 909.972 -3.15764 -3.09428 0
M  V30 9325 N 909.032 0.252966 -1.55557 0
M  V30 9326 C 910.272 0.989276 -1.78865 0
M  V30 9327 C 910.636 1.82755 -0.588615 0
M  V30 9328 O 911.837 2.59516 -0.700347 0
M  V30 9329 C 910.108 1.83203 -3.06874 0
M  V30 9330 S 911.667 2.62826 -3.5138 0
M  V30 9331 H 908.485 0.332863 -0.62827 0
M  V30 9332 H 911.087 0.257716 -1.93794 0
M  V30 9333 H 909.791 1.20579 -3.92287 0
M  V30 9334 H 909.322 2.60644 -2.94666 0
M  V30 9335 H 911.337 3.85648 -3.12234 0
M  V30 9336 N 910.51 1.48831 0.518367 0
M  V30 9337 C 911.46 1.60614 1.61824 0
M  V30 9338 C 912.444 0.462631 1.54106 0
M  V30 9339 O 913.636 0.714689 1.6193 0
M  V30 9340 C 910.765 1.65984 3.00507 0
M  V30 9341 C 909.851 2.85854 3.13286 0
M  V30 9342 N 910.242 4.1014 2.96005 0
M  V30 9343 C 908.54 2.83429 3.4436 0
M  V30 9344 C 909.241 4.90626 3.12508 0
M  V30 9345 N 908.217 4.2366 3.40607 0
M  V30 9346 H 912.019 2.54443 1.47091 0
M  V30 9347 H 909.533 1.45363 0.724102 0
M  V30 9348 H 911.53 1.72521 3.79529 0
M  V30 9349 H 910.19 0.732792 3.16323 0
M  V30 9350 H 911.201 4.40395 2.72531 0
M  V30 9351 H 907.878 2.0003 3.66462 0
M  V30 9352 H 909.268 5.99302 3.03786 0
M  V30 9353 N 911.988 -0.768124 1.37614 0
M  V30 9354 C 913.236 -1.52379 1.3276 0
M  V30 9355 C 913.557 -1.94809 -0.0863564 0
M  V30 9356 O 912.827 -1.66568 -1.03112 0
M  V30 9357 H 911.407 -0.565179 0.488448 0
M  V30 9358 H 914.069 -0.913974 1.72141 0
M  V30 9359 H 913.165 -2.4215 1.96901 0
M  V30 9360 N 913.466 -1.22244 -0.994698 0
M  V30 9361 C 914.399 -0.934168 -2.08203 0
M  V30 9362 C 915.377 0.122231 -1.6214 0
M  V30 9363 O 916.561 -0.00896598 -1.88498 0
M  V30 9364 C 913.688 -0.404646 -3.36274 0
M  V30 9365 C 912.734 -1.44544 -4.01259 0
M  V30 9366 S 913.567 -3.01816 -4.42343 0
M  V30 9367 C 914.723 -2.50497 -5.73587 0
M  V30 9368 H 914.956 -1.85493 -2.32335 0
M  V30 9369 H 912.489 -1.0533 -1.12893 0
M  V30 9370 H 914.447 -0.105719 -4.10364 0
M  V30 9371 H 913.108 0.494971 -3.10176 0
M  V30 9372 H 912.301 -1.02478 -4.93472 0
M  V30 9373 H 911.903 -1.69298 -3.33488 0
M  V30 9374 H 914.195 -1.91626 -6.49835 0
M  V30 9375 H 915.138 -3.41193 -6.20478 0
M  V30 9376 H 915.546 -1.91845 -5.30901 0
M  V30 9377 N 914.944 1.19125 -1.03184 0
M  V30 9378 C 916.192 1.8851 -0.728587 0
M  V30 9379 C 916.513 1.80195 0.74531 0
M  V30 9380 O 915.783 1.21437 1.5372 0
M  V30 9381 H 914.363 0.69784 -0.266511 0
M  V30 9382 H 917.025 1.44607 -1.3067 0
M  V30 9383 H 916.121 2.9477 -1.02554 0
M  V30 9384 N 916.422 0.810101 1.35185 0
M  V30 9385 C 917.65 0.404696 2.02903 0
M  V30 9386 C 918.065 -0.985434 1.61042 0
M  V30 9387 O 917.422 -1.63557 0.809658 0
M  V30 9388 C 917.473 0.482493 3.58266 0
M  V30 9389 O 917.194 1.81782 3.98606 0
M  V30 9390 C 918.695 0.070345 4.43244 0
M  V30 9391 H 915.915 0.163972 0.650657 0
M  V30 9392 H 918.459 1.0947 1.72733 0
M  V30 9393 H 916.614 -0.159296 3.87072 0
M  V30 9394 H 917.028 1.78306 4.93262 0
M  V30 9395 H 918.502 0.175888 5.5172 0
M  V30 9396 H 918.979 -0.984724 4.28018 0
M  V30 9397 H 919.585 0.685427 4.1974 0
M  V30 9398 N 917.9 -1.47166 0.563914 0
M  V30 9399 C 919.149 -2.0166 0.0401871 0
M  V30 9400 C 919.462 -1.44303 -1.32046 0
M  V30 9401 O 920.668 -1.905 -1.93448 0
M  V30 9402 C 919.124 -3.59894 0.0213257 0
M  V30 9403 C 918.732 -4.26244 1.37914 0
M  V30 9404 C 920.476 -4.22114 -0.449442 0
M  V30 9405 C 918.383 -5.76503 1.31902 0
M  V30 9406 H 917.313 -0.753916 0.0112534 0
M  V30 9407 H 919.964 -1.69091 0.712766 0
M  V30 9408 H 918.346 -3.89454 -0.717038 0
M  V30 9409 H 919.52 -4.08317 2.13574 0
M  V30 9410 H 917.835 -3.76039 1.78839 0
M  V30 9411 H 920.432 -5.32234 -0.51292 0
M  V30 9412 H 920.775 -3.89749 -1.46291 0
M  V30 9413 H 921.308 -3.9711 0.23427 0
M  V30 9414 H 918.047 -6.13498 2.3087 0
M  V30 9415 H 917.567 -5.96748 0.604324 0
M  V30 9416 H 919.246 -6.38846 1.02392 0
M  V30 9417 N 919.378 -0.300708 -1.54705 0
M  V30 9418 C 920.603 0.314073 -2.05008 0
M  V30 9419 C 921.028 1.46759 -1.17657 0
M  V30 9420 O 920.386 1.80398 -0.180598 0
M  V30 9421 C 920.434 0.748243 -3.52752 0
M  V30 9422 O 919.538 1.85305 -3.68424 0
M  V30 9423 H 918.879 0.0610139 -0.661191 0
M  V30 9424 H 921.409 -0.442467 -1.99758 0
M  V30 9425 H 921.419 1.03713 -3.94598 0
M  V30 9426 H 920.094 -0.095573 -4.1579 0
M  V30 9427 H 918.671 1.56473 -3.38483 0
M  V30 9428 N 920.856 1.57574 -0.0284266 0
M  V30 9429 C 922.104 1.91393 0.649079 0
M  V30 9430 C 922.425 0.905368 1.72708 0
M  V30 9431 O 921.695 -0.0532107 1.95828 0
M  V30 9432 H 920.275 0.70646 0.24274 0
M  V30 9433 H 922.937 1.94752 -0.076066 0
M  V30 9434 H 922.033 2.91988 1.10226 0
M  V30 9435 N 922.334 -0.244713 1.55689 0
M  V30 9436 C 923.582 -0.970525 1.77272 0
M  V30 9437 C 923.903 -1.85771 0.592804 0
M  V30 9438 O 923.173 -1.91952 -0.391323 0
M  V30 9439 H 921.753 -0.361342 0.653789 0
M  V30 9440 H 924.415 -0.262134 1.93129 0
M  V30 9441 H 923.511 -1.59096 2.68505 0
M  V30 9442 N 923.813 -1.49104 -0.510467 0
M  V30 9443 C 924.743 -1.67981 -1.62187 0
M  V30 9444 C 925.724 -0.528529 -1.6168 0
M  V30 9445 O 926.909 -0.763305 -1.7857 0
M  V30 9446 C 924.039 -1.73755 -3.0071 0
M  V30 9447 C 922.993 -2.88579 -3.1608 0
M  V30 9448 C 922.319 -2.79457 -4.5586 0
M  V30 9449 C 923.619 -4.29638 -2.97 0
M  V30 9450 H 925.313 -2.61029 -1.46643 0
M  V30 9451 H 922.859 -1.25615 -0.704042 0
M  V30 9452 H 924.812 -1.85548 -3.78352 0
M  V30 9453 H 923.536 -0.772996 -3.17321 0
M  V30 9454 H 922.195 -2.76372 -2.40861 0
M  V30 9455 H 921.843 -1.80929 -4.69333 0
M  V30 9456 H 921.543 -3.56518 -4.67086 0
M  V30 9457 H 923.067 -2.93245 -5.35574 0
M  V30 9458 H 924.481 -4.42575 -3.64418 0
M  V30 9459 H 922.878 -5.07847 -3.19704 0
M  V30 9460 H 923.948 -4.44741 -1.93219 0
M  V30 9461 N 925.291 0.760815 -1.38019 0
M  V30 9462 C 926.54 1.51506 -1.3315 0
M  V30 9463 C 926.853 1.95444 0.0782124 0
M  V30 9464 O 928.059 2.70352 0.249418 0
M  V30 9465 C 926.515 2.73636 -2.33776 0
M  V30 9466 C 926.123 2.36753 -3.80332 0
M  V30 9467 C 927.867 3.51548 -2.37937 0
M  V30 9468 C 925.774 3.55451 -4.72661 0
M  V30 9469 H 924.704 0.568844 -0.494907 0
M  V30 9470 H 927.355 0.832343 -1.63537 0
M  V30 9471 H 925.737 3.43852 -1.96422 0
M  V30 9472 H 926.911 1.7425 -4.26584 0
M  V30 9473 H 925.226 1.71991 -3.7922 0
M  V30 9474 H 927.823 4.39791 -3.04119 0
M  V30 9475 H 928.166 3.9219 -1.39617 0
M  V30 9476 H 928.699 2.88339 -2.74054 0
M  V30 9477 H 925.438 3.19882 -5.7215 0
M  V30 9478 H 924.958 4.17022 -4.31107 0
M  V30 9479 H 926.637 4.22125 -4.90326 0
M  V30 9480 N 926.769 1.22769 0.988202 0
M  V30 9481 C 928.18 1.0512 1.54294 0
M  V30 9482 C 928.531 -0.383904 1.92407 0
M  V30 9483 O 927.656 -1.26955 1.75246 0
M  V30 9484 C 928.251 1.90198 2.80375 0
M  V30 9485 C 926.81 1.76831 3.32276 0
M  V30 9486 C 925.957 1.86377 2.05326 0
M  V30 9487 H 928.908 1.36546 0.808758 0
M  V30 9488 H 928.929 1.42216 3.52923 0
M  V30 9489 H 928.441 2.9464 2.52605 0
M  V30 9490 H 926.542 0.751412 3.64945 0
M  V30 9491 H 926.655 2.59771 4.02562 0
M  V30 9492 H 925.019 1.2987 2.19103 0
M  V30 9493 H 925.802 2.9236 1.79946 0
M  V30 9494 N 928.247 -1.18576 1.03814 0
M  V30 9495 C 929.524 -1.8433 0.654358 0
M  V30 9496 C 929.904 -1.92504 -0.866338 0
M  V30 9497 O 929.252 -1.44904 -1.76678 0
M  V30 9498 C 929.462 -3.22778 1.32723 0
M  V30 9499 C 930.81 -3.98841 1.45641 0
M  V30 9500 O 931.834 -3.32209 1.28514 0
M  V30 9501 O 930.693 -5.18219 1.73526 0
M  V30 9502 H 927.787 -0.794766 0.228638 0
M  V30 9503 H 930.333 -1.25989 1.13687 0
M  V30 9504 H 929.105 -3.11717 2.36534 0
M  V30 9505 H 928.728 -3.88772 0.833176 0
M  V30 9506 N 929.725 -0.817259 -1.34754 0
M  V30 9507 C 930.655 -0.249769 -2.3216 0
M  V30 9508 C 931.636 0.630663 -1.57977 0
M  V30 9509 O 932.821 0.558719 -1.85989 0
M  V30 9510 C 929.951 0.593825 -3.42186 0
M  V30 9511 C 928.905 -0.188997 -4.27583 0
M  V30 9512 C 928.231 0.776979 -5.29025 0
M  V30 9513 C 929.531 -1.39401 -5.03354 0
M  V30 9514 H 931.225 -1.06359 -2.79872 0
M  V30 9515 H 928.771 -0.512894 -1.34556 0
M  V30 9516 H 930.724 1.00097 -4.09339 0
M  V30 9517 H 929.448 1.44064 -2.93109 0
M  V30 9518 H 928.107 -0.577445 -3.62024 0
M  V30 9519 H 927.755 1.61959 -4.76212 0
M  V30 9520 H 927.455 0.257448 -5.87036 0
M  V30 9521 H 928.979 1.18211 -5.99048 0
M  V30 9522 H 930.393 -1.06117 -5.63393 0
M  V30 9523 H 928.79 -1.84878 -5.70912 0
M  V30 9524 H 929.86 -2.17515 -4.33377 0
M  V30 9525 N 931.203 1.46865 -0.571711 0
M  V30 9526 C 932.619 1.57897 -0.23255 0
M  V30 9527 C 932.819 1.56836 1.26509 0
M  V30 9528 O 931.875 1.47947 2.04617 0
M  V30 9529 C 933.188 2.87778 -0.872036 0
M  V30 9530 C 934.736 3.01389 -0.844605 0
M  V30 9531 C 935.211 4.33991 -1.46343 0
M  V30 9532 N 936.702 4.40662 -1.42727 0
M  V30 9533 C 937.437 5.41858 -1.87557 0
M  V30 9534 N 936.933 6.49787 -2.4031 0
M  V30 9535 N 938.726 5.32992 -1.7854 0
M  V30 9536 H 930.877 1.45798 -1.54457 0
M  V30 9537 H 933.14 0.694785 -0.644964 0
M  V30 9538 H 932.846 2.94332 -1.92513 0
M  V30 9539 H 932.72 3.75345 -0.373677 0
M  V30 9540 H 935.107 2.94423 0.19984 0
M  V30 9541 H 935.188 2.15327 -1.38087 0
M  V30 9542 H 934.832 4.41714 -2.50701 0
M  V30 9543 H 934.762 5.18809 -0.902479 0
M  V30 9544 H 937.253 3.63263 -1.04155 0
M  V30 9545 H 937.566 7.23199 -2.72403 0
M  V30 9546 H 935.911 6.50637 -2.44329 0
M  V30 9547 H 939.102 4.47575 -1.37093 0
M  V30 9548 H 939.275 6.11716 -2.13794 0
M  V30 9549 N 932.681 0.308908 1.54543 0
M  V30 9550 C 933.613 -0.597453 2.21276 0
M  V30 9551 C 934.626 -1.09137 1.20801 0
M  V30 9552 O 935.815 -1.00747 1.47351 0
M  V30 9553 C 932.915 -1.83085 2.85189 0
M  V30 9554 C 932.088 -1.4781 4.11669 0
M  V30 9555 C 931.147 -2.56748 4.59311 0
M  V30 9556 O 930.173 -2.21507 5.24331 0
M  V30 9557 N 931.375 -3.87427 4.32297 0
M  V30 9558 H 934.14 -0.0261183 2.99689 0
M  V30 9559 H 931.701 0.131456 1.61365 0
M  V30 9560 H 933.693 -2.55326 3.13992 0
M  V30 9561 H 932.263 -2.31039 2.1057 0
M  V30 9562 H 931.483 -0.587974 3.8979 0
M  V30 9563 H 932.771 -1.2179 4.94009 0
M  V30 9564 H 932.169 -4.18863 3.80224 0
M  V30 9565 H 930.726 -4.55942 4.6579 0
M  V30 9566 N 934.159 -1.57557 0.0367827 0
M  V30 9567 C 935.384 -1.96828 -0.653707 0
M  V30 9568 C 935.809 -0.913559 -1.64425 0
M  V30 9569 O 935.167 0.124749 -1.8087 0
M  V30 9570 C 935.215 -3.35189 -1.32969 0
M  V30 9571 O 934.319 -3.32095 -2.44513 0
M  V30 9572 H 933.66 -0.64157 -0.171124 0
M  V30 9573 H 936.19 -2.04351 0.100912 0
M  V30 9574 H 936.2 -3.71593 -1.68472 0
M  V30 9575 H 934.875 -4.11496 -0.603654 0
M  V30 9576 H 933.452 -3.07418 -2.11065 0
M  V30 9577 N 935.637 0.236453 -1.55816 0
M  V30 9578 C 936.862 0.98449 -1.82545 0
M  V30 9579 C 937.287 1.77755 -0.615206 0
M  V30 9580 O 936.645 1.75982 0.435895 0
M  V30 9581 C 936.693 1.88973 -3.07118 0
M  V30 9582 O 935.797 2.98298 -2.84766 0
M  V30 9583 H 935.138 0.279577 -0.602273 0
M  V30 9584 H 937.668 0.254277 -2.03014 0
M  V30 9585 H 937.678 2.3024 -3.36829 0
M  V30 9586 H 936.353 1.30671 -3.94839 0
M  V30 9587 H 934.93 2.61085 -2.6625 0
M  V30 9588 N 937.115 1.49373 0.502552 0
M  V30 9589 C 938.392 1.49282 1.26389 0
M  V30 9590 C 938.772 0.219674 2.09954 0
M  V30 9591 O 938.12 -0.797991 2.14113 0
M  V30 9592 C 938.33 2.77083 2.12194 0
M  V30 9593 C 939.678 3.26511 2.71433 0
M  V30 9594 O 940.702 2.78189 2.22462 0
M  V30 9595 O 939.561 4.10665 3.60578 0
M  V30 9596 H 936.655 0.597415 0.57186 0
M  V30 9597 H 939.201 1.61634 0.516951 0
M  V30 9598 H 937.973 3.61237 1.50411 0
M  V30 9599 H 937.596 2.67583 2.94084 0
M  V30 9600 N 938.594 -0.753485 1.38421 0
M  V30 9601 C 939.557 -1.84888 1.35459 0
M  V30 9602 C 940.557 -1.58764 0.255083 0
M  V30 9603 O 941.747 -1.66507 0.511978 0
M  V30 9604 C 938.879 -3.22361 1.10888 0
M  V30 9605 H 940.072 -1.88922 2.32913 0
M  V30 9606 H 937.625 -0.955199 1.23716 0
M  V30 9607 H 938.36 -3.23996 0.1404 0
M  V30 9608 H 938.145 -3.42717 1.90492 0
M  V30 9609 H 939.635 -4.02437 1.1151 0
M  V30 9610 N 940.072 -1.23292 -0.981677 0
M  V30 9611 C 941.3 -1.09088 -1.75805 0
M  V30 9612 C 941.715 0.357746 -1.8538 0
M  V30 9613 O 941.072 1.24751 -1.33205 0
M  V30 9614 C 941.123 -1.70885 -3.1856 0
M  V30 9615 O 940.844 -3.10082 -3.09484 0
M  V30 9616 C 942.345 -1.62106 -4.12597 0
M  V30 9617 H 939.565 -0.38184 -0.55176 0
M  V30 9618 H 942.109 -1.63116 -1.23342 0
M  V30 9619 H 940.264 -1.20893 -3.68054 0
M  V30 9620 H 940.678 -3.40039 -3.99342 0
M  V30 9621 H 942.152 -2.10049 -5.10474 0
M  V30 9622 H 942.629 -0.579642 -4.35358 0
M  V30 9623 H 943.235 -2.11457 -3.69007 0
M  V30 9624 N 941.55 1.18024 -1.04442 0
M  V30 9625 C 942.966 1.40107 -0.76435 0
M  V30 9626 C 943.166 1.90914 0.644516 0
M  V30 9627 O 942.222 2.0959 1.40813 0
M  V30 9628 C 943.535 2.39851 -1.81361 0
M  V30 9629 C 945.083 2.53571 -1.83496 0
M  V30 9630 C 945.558 3.56583 -2.87424 0
M  V30 9631 N 947.049 3.64094 -2.86339 0
M  V30 9632 C 947.784 4.43537 -3.63405 0
M  V30 9633 N 947.28 5.26557 -4.50233 0
M  V30 9634 N 949.073 4.38336 -3.51877 0
M  V30 9635 H 941.224 0.833726 -1.95353 0
M  V30 9636 H 943.487 0.42881 -0.845474 0
M  V30 9637 H 943.193 2.09576 -2.82438 0
M  V30 9638 H 943.067 3.39251 -1.6489 0
M  V30 9639 H 945.454 2.83161 -0.830883 0
M  V30 9640 H 945.535 1.54272 -2.04044 0
M  V30 9641 H 945.179 3.27733 -3.88012 0
M  V30 9642 H 945.109 4.55569 -2.6413 0
M  V30 9643 H 947.6 3.04814 -2.23376 0
M  V30 9644 H 947.913 5.84336 -5.05738 0
M  V30 9645 H 946.258 5.25964 -4.54298 0
M  V30 9646 H 949.449 3.72528 -2.83444 0
M  V30 9647 H 949.622 5.00007 -4.12186 0
M  V30 9648 N 943.028 0.824394 1.34319 0
M  V30 9649 C 943.938 0.24932 2.33271 0
M  V30 9650 C 944.954 -0.617066 1.62691 0
M  V30 9651 O 946.13 -0.524616 1.94447 0
M  V30 9652 C 943.195 -0.578094 3.41846 0
M  V30 9653 C 942.256 0.310866 4.28173 0
M  V30 9654 C 941.489 -0.477153 5.31563 0
M  V30 9655 O 941.712 -1.71028 5.44156 0
M  V30 9656 O 940.646 0.141287 6.01734 0
M  V30 9657 H 944.472 1.06837 2.84288 0
M  V30 9658 H 942.057 0.58657 1.37403 0
M  V30 9659 H 943.939 -1.04878 4.0814 0
M  V30 9660 H 942.614 -1.37444 2.93071 0
M  V30 9661 H 941.521 0.829081 3.64797 0
M  V30 9662 H 942.854 1.07161 4.80393 0
M  V30 9663 N 944.506 -1.46559 0.579492 0
M  V30 9664 C 945.456 -2.27316 -0.17645 0
M  V30 9665 C 946.44 -1.35681 -0.864835 0
M  V30 9666 O 947.632 -1.59879 -0.759462 0
M  V30 9667 C 944.761 -3.21957 -1.19157 0
M  V30 9668 C 943.847 -4.21077 -0.505459 0
M  V30 9669 N 944.238 -5.03908 0.437133 0
M  V30 9670 C 942.536 -4.39535 -0.75661 0
M  V30 9671 C 943.237 -5.75635 0.837819 0
M  V30 9672 N 942.213 -5.43276 0.187679 0
M  V30 9673 H 946.015 -2.88747 0.547932 0
M  V30 9674 H 943.529 -1.5737 0.401048 0
M  V30 9675 H 945.526 -3.78518 -1.74728 0
M  V30 9676 H 944.186 -2.62085 -1.9168 0
M  V30 9677 H 945.197 -5.11487 0.812488 0
M  V30 9678 H 941.874 -3.90815 -1.46867 0
M  V30 9679 H 943.264 -6.52235 1.61364 0
M  V30 9680 N 945.984 -0.3171 -1.54377 0
M  V30 9681 C 947.231 0.28741 -2.0045 0
M  V30 9682 C 947.559 1.52648 -1.20535 0
M  V30 9683 O 946.814 1.93775 -0.273831 0
M  V30 9684 C 947.113 0.672917 -3.51008 0
M  V30 9685 C 946.779 -0.466245 -4.48483 0
M  V30 9686 C 945.441 -0.778933 -4.74854 0
M  V30 9687 C 947.793 -1.23176 -5.06436 0
M  V30 9688 C 945.121 -1.85997 -5.56437 0
M  V30 9689 C 947.473 -2.30284 -5.89196 0
M  V30 9690 C 946.137 -2.62141 -6.13872 0
M  V30 9691 H 945.407 0.105171 -0.733499 0
M  V30 9692 H 948.054 -0.439538 -1.86388 0
M  V30 9693 H 946.359 1.48019 -3.62764 0
M  V30 9694 H 948.056 1.15209 -3.84094 0
M  V30 9695 H 944.646 -0.212449 -4.28073 0
M  V30 9696 H 948.83 -1.00344 -4.8605 0
M  V30 9697 H 944.086 -2.11134 -5.73788 0
M  V30 9698 H 948.26 -2.90048 -6.33123 0
M  V30 9699 H 945.887 -3.46037 -6.76877 0
M  V30 9700 N 947.462 1.57535 -0.0451378 0
M  V30 9701 C 948.394 2.08109 0.960372 0
M  V30 9702 C 949.407 1.0077 1.27864 0
M  V30 9703 O 950.596 1.28351 1.24049 0
M  V30 9704 C 947.696 2.50414 2.28355 0
M  V30 9705 C 946.869 3.8102 2.14808 0
M  V30 9706 C 945.928 4.09702 3.30198 0
M  V30 9707 O 944.954 4.79715 3.0637 0
M  V30 9708 N 946.156 3.61138 4.54489 0
M  V30 9709 H 948.921 2.94999 0.528752 0
M  V30 9710 H 946.482 1.61283 0.141248 0
M  V30 9711 H 948.474 2.66683 3.04405 0
M  V30 9712 H 947.044 1.68805 2.63104 0
M  V30 9713 H 946.264 3.74392 1.23387 0
M  V30 9714 H 947.552 4.66559 2.02978 0
M  V30 9715 H 946.95 3.04527 4.76739 0
M  V30 9716 H 945.507 3.82656 5.27653 0
M  V30 9717 N 948.94 -0.228186 1.55939 0
M  V30 9718 C 949.872 -1.30605 1.88348 0
M  V30 9719 C 950.885 -1.43375 0.771198 0
M  V30 9720 O 952.074 -1.44391 1.04945 0
M  V30 9721 C 949.174 -2.68248 2.07115 0
M  V30 9722 C 948.347 -2.77509 3.38094 0
M  V30 9723 C 947.406 -3.96121 3.46373 0
M  V30 9724 O 946.432 -3.8477 4.19453 0
M  V30 9725 N 947.634 -5.10132 2.77031 0
M  V30 9726 H 950.399 -1.03132 2.81396 0
M  V30 9727 H 947.96 -0.418245 1.56404 0
M  V30 9728 H 949.952 -3.45966 2.09976 0
M  V30 9729 H 948.522 -2.88348 1.20723 0
M  V30 9730 H 947.742 -1.8632 3.47388 0
M  V30 9731 H 949.03 -2.80662 4.2439 0
M  V30 9732 H 948.428 -5.22249 2.17424 0
M  V30 9733 H 946.985 -5.85916 2.85561 0
M  V30 9734 N 950.418 -1.49637 -0.494624 0
M  V30 9735 C 951.667 -1.58691 -1.24499 0
M  V30 9736 C 951.98 -0.281763 -1.9356 0
M  V30 9737 O 953.186 -0.250925 -2.70338 0
M  V30 9738 C 951.642 -2.8002 -2.26091 0
M  V30 9739 C 951.25 -4.17318 -1.6294 0
M  V30 9740 C 952.994 -2.98407 -3.01916 0
M  V30 9741 C 950.901 -5.29862 -2.62679 0
M  V30 9742 H 949.831 -0.590888 -0.468367 0
M  V30 9743 H 952.482 -1.76034 -0.518112 0
M  V30 9744 H 950.864 -2.56185 -3.01969 0
M  V30 9745 H 952.038 -4.51315 -0.930108 0
M  V30 9746 H 950.353 -4.04342 -0.994819 0
M  V30 9747 H 952.95 -3.79658 -3.76516 0
M  V30 9748 H 953.293 -2.09214 -3.5991 0
M  V30 9749 H 953.826 -3.22312 -2.33152 0
M  V30 9750 H 950.565 -6.21134 -2.09458 0
M  V30 9751 H 950.085 -5.00311 -3.3083 0
M  V30 9752 H 951.764 -5.59461 -3.2498 0
M  V30 9753 N 951.896 0.746133 -1.38819 0
M  V30 9754 C 953.142 1.50768 -1.35635 0
M  V30 9755 C 953.475 1.94132 0.0512435 0
M  V30 9756 O 952.75 1.65979 1.01396 0
M  V30 9757 C 953.033 2.7551 -2.31875 0
M  V30 9758 C 952.886 2.38236 -3.81528 0
M  V30 9759 C 954.205 3.77566 -2.26124 0
M  V30 9760 H 951.324 0.546922 -0.494009 0
M  V30 9761 H 953.966 0.854017 -1.69725 0
M  V30 9762 H 952.116 3.31285 -2.02935 0
M  V30 9763 H 953.788 1.88178 -4.21173 0
M  V30 9764 H 952.031 1.70601 -3.98846 0
M  V30 9765 H 952.702 3.27517 -4.44339 0
M  V30 9766 H 955.178 3.31349 -2.51689 0
M  V30 9767 H 954.054 4.62531 -2.95561 0
M  V30 9768 H 954.315 4.23689 -1.26254 0
M  V30 9769 N 953.375 1.23811 0.975125 0
M  V30 9770 C 954.305 1.04846 2.08638 0
M  V30 9771 C 955.286 -0.0362859 1.70061 0
M  V30 9772 O 956.471 0.12937 1.93769 0
M  V30 9773 C 953.601 0.644534 3.41267 0
M  V30 9774 C 952.555 1.67722 3.93768 0
M  V30 9775 C 951.881 1.12857 5.22654 0
M  V30 9776 C 953.181 3.07147 4.22443 0
M  V30 9777 H 954.875 1.97795 2.24761 0
M  V30 9778 H 952.421 0.952397 1.08006 0
M  V30 9779 H 954.374 0.498887 4.18436 0
M  V30 9780 H 953.098 -0.320641 3.25022 0
M  V30 9781 H 951.757 1.81095 3.18748 0
M  V30 9782 H 951.405 0.154227 5.02764 0
M  V30 9783 H 951.105 1.81862 5.58749 0
M  V30 9784 H 952.629 0.994891 6.0244 0
M  V30 9785 H 954.043 2.97045 4.90344 0
M  V30 9786 H 952.44 3.73437 4.6975 0
M  V30 9787 H 953.51 3.55743 3.29507 0
M  V30 9788 N 954.853 -1.17469 1.05066 0
M  V30 9789 C 955.785 -2.20974 0.608526 0
M  V30 9790 C 956.798 -1.59481 -0.327066 0
M  V30 9791 O 957.987 -1.78096 -0.12 0
M  V30 9792 C 955.087 -3.38652 -0.12969 0
M  V30 9793 C 954.26 -4.29716 0.816285 0
M  V30 9794 C 953.319 -5.26064 0.119556 0
M  V30 9795 O 952.345 -5.64194 0.753241 0
M  V30 9796 N 953.547 -5.69126 -1.14347 0
M  V30 9797 H 956.312 -2.59529 1.49882 0
M  V30 9798 H 953.873 -1.32355 0.932406 0
M  V30 9799 H 955.865 -4.00139 -0.605886 0
M  V30 9800 H 954.435 -2.98705 -0.921638 0
M  V30 9801 H 953.655 -3.6568 1.47213 0
M  V30 9802 H 954.943 -4.87449 1.45845 0
M  V30 9803 H 954.341 -5.4022 -1.67866 0
M  V30 9804 H 952.898 -6.32764 -1.56376 0
M  V30 9805 N 956.331 -0.831506 -1.3388 0
M  V30 9806 C 957.579 -0.422837 -1.97627 0
M  V30 9807 C 957.9 1.01961 -1.6622 0
M  V30 9808 O 957.17 1.70916 -0.957323 0
M  V30 9809 H 955.75 -0.153365 -0.731087 0
M  V30 9810 H 958.412 -1.06284 -1.6337 0
M  V30 9811 H 957.508 -0.548858 -3.07236 0
M  V30 9812 N 957.809 1.4625 -0.587256 0
M  V30 9813 C 958.772 2.28812 0.133238 0
M  V30 9814 C 959.772 1.38645 0.814513 0
M  V30 9815 O 960.962 1.60975 0.665774 0
M  V30 9816 C 958.094 3.19147 1.19824 0
M  V30 9817 H 959.287 2.93991 -0.592386 0
M  V30 9818 H 956.84 1.52435 -0.345416 0
M  V30 9819 H 957.575 2.58725 1.95529 0
M  V30 9820 H 957.36 3.85541 0.71418 0
M  V30 9821 H 958.85 3.81278 1.70344 0
M  V30 9822 N 959.287 0.325282 1.54207 0
M  V30 9823 C 960.217 -0.532574 2.27345 0
M  V30 9824 C 961.198 -1.11791 1.28206 0
M  V30 9825 O 962.383 -1.14272 1.57021 0
M  V30 9826 C 959.513 -1.69274 3.03255 0
M  V30 9827 C 958.467 -1.23662 4.09746 0
M  V30 9828 C 957.793 -2.48386 4.73506 0
M  V30 9829 C 959.093 -0.350244 5.21124 0
M  V30 9830 H 960.787 0.0775108 2.993 0
M  V30 9831 H 958.333 0.0387193 1.43948 0
M  V30 9832 H 960.286 -2.29917 3.53152 0
M  V30 9833 H 959.01 -2.32944 2.28921 0
M  V30 9834 H 957.669 -0.653106 3.60735 0
M  V30 9835 H 957.317 -3.10424 3.95786 0
M  V30 9836 H 957.017 -2.18558 5.45441 0
M  V30 9837 H 958.541 -3.09789 5.26178 0
M  V30 9838 H 959.955 -0.863011 5.66767 0
M  V30 9839 H 958.352 -0.14466 5.99926 0
M  V30 9840 H 959.422 0.618457 4.8094 0
M  V30 9841 N 960.765 -1.57509 0.0534917 0
M  V30 9842 C 961.712 -2.11667 -0.920101 0
M  V30 9843 C 962.682 -1.0246 -1.30733 0
M  V30 9844 O 963.867 -1.30021 -1.39639 0
M  V30 9845 C 961.007 -2.66803 -2.18883 0
M  V30 9846 C 960.12 -3.90104 -1.85588 0
M  V30 9847 C 959.255 -4.33547 -3.06937 0
M  V30 9848 C 958.294 -5.49542 -2.69573 0
M  V30 9849 N 957.431 -5.88029 -3.83623 0
M  V30 9850 H 962.271 -2.94562 -0.451371 0
M  V30 9851 H 959.808 -1.45576 -0.211168 0
M  V30 9852 H 961.766 -2.96871 -2.93127 0
M  V30 9853 H 960.396 -1.86702 -2.63329 0
M  V30 9854 H 959.448 -3.66613 -1.01484 0
M  V30 9855 H 960.76 -4.74404 -1.54087 0
M  V30 9856 H 959.914 -4.6518 -3.89477 0
M  V30 9857 H 958.653 -3.48064 -3.41618 0
M  V30 9858 H 957.658 -5.17579 -1.8545 0
M  V30 9859 H 958.883 -6.36743 -2.36082 0
M  V30 9860 H 956.829 -5.05498 -4.181 0
M  V30 9861 H 956.746 -6.67025 -3.55828 0
M  V30 9862 H 958.014 -6.24277 -4.66796 0
M  V30 9863 N 962.243 0.219913 -1.56058 0
M  V30 9864 C 963.654 0.786766 -1.69313 0
M  V30 9865 C 964.005 1.84916 -0.655782 0
M  V30 9866 O 963.13 2.1554 0.192772 0
M  V30 9867 C 963.725 1.43387 -3.06962 0
M  V30 9868 C 962.284 1.94809 -3.22066 0
M  V30 9869 C 961.431 0.808863 -2.65241 0
M  V30 9870 H 964.382 -0.00476777 -1.58699 0
M  V30 9871 H 964.403 2.30272 -3.02911 0
M  V30 9872 H 963.915 0.660405 -3.8244 0
M  V30 9873 H 962.016 2.74952 -2.5146 0
M  V30 9874 H 962.129 2.12694 -4.293 0
M  V30 9875 H 960.493 1.21661 -2.23765 0
M  V30 9876 H 961.276 0.0480458 -3.43266 0
M  V30 9877 N 963.721 1.49897 0.486681 0
M  V30 9878 C 964.651 1.7054 1.59494 0
M  V30 9879 C 965.632 0.554184 1.60819 0
M  V30 9880 O 966.817 0.791617 1.77333 0
M  V30 9881 C 963.947 1.78517 2.97908 0
M  V30 9882 C 962.901 2.93571 3.11449 0
M  V30 9883 C 962.227 2.86674 4.51356 0
M  V30 9884 C 963.527 4.34308 2.90127 0
M  V30 9885 H 965.221 2.63329 1.42472 0
M  V30 9886 H 962.767 1.2672 0.683969 0
M  V30 9887 H 964.72 1.91544 3.75352 0
M  V30 9888 H 963.444 0.823381 3.16051 0
M  V30 9889 H 962.103 2.80169 2.36433 0
M  V30 9890 H 961.751 1.88373 4.66395 0
M  V30 9891 H 961.451 3.63903 4.61355 0
M  V30 9892 H 962.975 3.01728 5.30841 0
M  V30 9893 H 964.389 4.48317 3.57331 0
M  V30 9894 H 962.786 5.12869 3.11585 0
M  V30 9895 H 963.856 4.47759 1.86119 0
M  V30 9896 N 965.199 -0.738761 1.39212 0
M  V30 9897 C 966.447 -1.49529 1.35962 0
M  V30 9898 C 966.768 -1.94948 -0.0450152 0
M  V30 9899 O 966.038 -1.68717 -0.995552 0
M  V30 9900 H 964.618 -0.554692 0.500326 0
M  V30 9901 H 967.28 -0.877255 1.74041 0
M  V30 9902 H 966.376 -2.37919 2.01993 0
M  V30 9903 N 966.677 -1.24326 -0.968545 0
M  V30 9904 C 967.61 -0.978121 -2.06175 0
M  V30 9905 C 968.588 0.0878107 -1.62363 0
M  V30 9906 O 969.772 -0.0489472 -1.88436 0
M  V30 9907 C 966.899 -0.475884 -3.3534 0
M  V30 9908 C 965.945 -1.53023 -3.98103 0
M  V30 9909 S 966.778 -3.11131 -4.35841 0
M  V30 9910 C 967.934 -2.62608 -5.68144 0
M  V30 9911 H 968.167 -1.9038 -2.28348 0
M  V30 9912 H 965.7 -1.07701 -1.10633 0
M  V30 9913 H 967.658 -0.192739 -4.10047 0
M  V30 9914 H 966.319 0.429067 -3.11156 0
M  V30 9915 H 965.512 -1.12922 -4.91187 0
M  V30 9916 H 965.114 -1.76334 -3.29822 0
M  V30 9917 H 967.406 -2.05367 -6.45624 0
M  V30 9918 H 968.349 -3.54277 -6.13101 0
M  V30 9919 H 968.757 -2.03063 -5.26712 0
M  V30 9920 N 968.156 1.1691 -1.05688 0
M  V30 9921 C 969.567 1.68915 -0.795273 0
M  V30 9922 C 969.918 1.83968 0.681925 0
M  V30 9923 O 969.043 1.53083 1.52953 0
M  V30 9924 C 969.638 3.06814 -1.43703 0
M  V30 9925 C 968.197 3.55965 -1.22335 0
M  V30 9926 C 967.344 2.32099 -1.51741 0
M  V30 9927 H 970.295 1.01357 -1.22116 0
M  V30 9928 H 970.316 3.70907 -0.849016 0
M  V30 9929 H 969.828 2.95826 -2.51214 0
M  V30 9930 H 967.929 3.72222 -0.16771 0
M  V30 9931 H 968.042 4.38427 -1.9318 0
M  V30 9932 H 966.406 2.36811 -0.937696 0
M  V30 9933 H 967.189 2.23715 -2.60397 0
M  V30 9934 N 969.634 0.838594 1.33437 0
M  V30 9935 C 970.859 0.446701 2.02532 0
M  V30 9936 C 971.284 -0.944275 1.62681 0
M  V30 9937 O 970.642 -1.61733 0.81927 0
M  V30 9938 C 970.69 0.574794 3.55989 0
M  V30 9939 O 969.794 -0.399063 4.10465 0
M  V30 9940 H 969.135 0.181637 0.638674 0
M  V30 9941 H 971.665 1.13335 1.70342 0
M  V30 9942 H 971.675 0.456339 4.0544 0
M  V30 9943 H 970.35 1.58921 3.8434 0
M  V30 9944 H 968.927 -0.238187 3.72139 0
M  V30 9945 N 971.112 -1.45937 0.595003 0
M  V30 9946 C 972.359 -2.0232 0.0853053 0
M  V30 9947 C 972.687 -1.465 -1.27937 0
M  V30 9948 O 971.942 -0.624767 -1.85459 0
M  V30 9949 C 972.241 -3.57396 -0.0173747 0
M  V30 9950 C 971.907 -4.32311 1.28131 0
M  V30 9951 C 970.569 -4.52496 1.63708 0
M  V30 9952 C 972.921 -4.75233 2.14017 0
M  V30 9953 C 970.249 -5.12857 2.84947 0
M  V30 9954 C 972.601 -5.36933 3.34493 0
M  V30 9955 C 971.265 -5.55343 3.70338 0
M  V30 9956 H 970.535 -0.740342 0.0312154 0
M  V30 9957 H 973.182 -1.75157 0.774103 0
M  V30 9958 H 971.487 -3.83766 -0.789371 0
M  V30 9959 H 973.184 -3.98713 -0.427699 0
M  V30 9960 H 969.774 -4.16905 0.994374 0
M  V30 9961 H 973.958 -4.59383 1.87833 0
M  V30 9962 H 969.214 -5.253 3.12841 0
M  V30 9963 H 973.388 -5.69147 4.01304 0
M  V30 9964 H 971.015 -6.01883 4.64371 0
M  V30 9965 N 972.59 -0.333456 -1.54032 0
M  V30 9966 C 973.867 0.320902 -1.9295 0
M  V30 9967 C 974.247 1.69071 -1.26405 0
M  V30 9968 O 973.595 2.24768 -0.411311 0
M  V30 9969 C 973.805 0.403257 -3.46662 0
M  V30 9970 C 975.153 0.658875 -4.19457 0
M  V30 9971 O 976.177 0.485781 -3.52872 0
M  V30 9972 O 975.036 0.993475 -5.37394 0
M  V30 9973 H 972.13 0.185158 -0.806006 0
M  V30 9974 H 974.676 -0.383895 -1.65301 0
M  V30 9975 H 973.448 -0.558409 -3.87295 0
M  V30 9976 H 973.071 1.15524 -3.80447 0
M  V30 9977 N 974.068 1.57479 -0.061844 0
M  V30 9978 C 975.345 1.84484 0.649993 0
M  V30 9979 C 975.725 0.952366 1.88396 0
M  V30 9980 O 975.073 0.0161035 2.28494 0
M  V30 9981 C 975.283 3.34452 0.997133 0
M  V30 9982 C 976.631 4.01724 1.37488 0
M  V30 9983 O 977.655 3.3914 1.08916 0
M  V30 9984 O 976.514 5.12091 1.90854 0
M  V30 9985 H 973.608 0.761798 0.321858 0
M  V30 9986 H 976.154 1.6945 -0.0920192 0
M  V30 9987 H 974.926 3.91115 0.120301 0
M  V30 9988 H 974.549 3.54713 1.79624 0
M  V30 9989 N 975.546 -0.211634 1.56173 0
M  V30 9990 C 976.771 -0.955324 1.84088 0
M  V30 9991 C 977.196 -1.76754 0.643407 0
M  V30 9992 O 976.554 -1.76653 -0.407842 0
M  V30 9993 C 976.602 -1.84063 3.10085 0
M  V30 9994 O 975.706 -2.9373 2.89476 0
M  V30 9995 H 975.047 -0.26996 0.606645 0
M  V30 9996 H 977.577 -0.221947 2.03393 0
M  V30 9997 H 977.587 -2.24852 3.40449 0
M  V30 9998 H 976.262 -1.24373 3.96868 0
M  V30 9999 H 974.839 -2.56816 2.7037 0
M  V30 10000 N 977.024 -1.50153 -0.478725 0
M  V30 10001 C 977.954 -1.71384 -1.58587 0
M  V30 10002 C 978.935 -0.562705 -1.60523 0
M  V30 10003 O 980.12 -0.80101 -1.76911 0
M  V30 10004 C 977.25 -1.80094 -2.96957 0
M  V30 10005 C 976.204 -2.95218 -3.09888 0
M  V30 10006 C 975.53 -2.89063 -4.49829 0
M  V30 10007 C 976.83 -4.35841 -2.8782 0
M  V30 10008 H 978.524 -2.64081 -1.41073 0
M  V30 10009 H 976.07 -1.27081 -0.677239 0
M  V30 10010 H 978.023 -1.93531 -3.74331 0
M  V30 10011 H 976.747 -0.840131 -3.1561 0
M  V30 10012 H 975.406 -2.81419 -2.34944 0
M  V30 10013 H 975.054 -1.90844 -4.6539 0
M  V30 10014 H 974.754 -3.66345 -4.59418 0
M  V30 10015 H 976.278 -3.04539 -5.29234 0
M  V30 10016 H 977.692 -4.50205 -3.54948 0
M  V30 10017 H 976.089 -5.14515 -3.0886 0
M  V30 10018 H 977.159 -4.48739 -1.83742 0
M  V30 10019 N 978.502 0.731368 -1.39602 0
M  V30 10020 C 979.449 1.84541 -1.38612 0
M  V30 10021 C 980.419 1.64279 -0.245287 0
M  V30 10022 O 981.604 1.85635 -0.440954 0
M  V30 10023 C 978.744 3.22092 -1.23897 0
M  V30 10024 C 977.857 3.54034 -2.47555 0
M  V30 10025 C 976.992 4.81007 -2.25402 0
M  V30 10026 C 976.031 5.05804 -3.44716 0
M  V30 10027 N 975.168 6.23981 -3.21857 0
M  V30 10028 H 980.008 1.84722 -2.33841 0
M  V30 10029 H 977.545 0.902569 -1.16156 0
M  V30 10030 H 979.503 4.01499 -1.13376 0
M  V30 10031 H 978.133 3.2118 -0.322958 0
M  V30 10032 H 977.185 2.69301 -2.68665 0
M  V30 10033 H 978.497 3.68275 -3.36415 0
M  V30 10034 H 977.651 5.68401 -2.12143 0
M  V30 10035 H 976.39 4.68946 -1.33943 0
M  V30 10036 H 975.395 4.1687 -3.58468 0
M  V30 10037 H 976.62 5.19747 -4.37081 0
M  V30 10038 H 974.566 6.13202 -2.33065 0
M  V30 10039 H 974.483 6.38826 -4.04274 0
M  V30 10040 H 975.751 7.14205 -3.123 0
M  V30 10041 N 979.98 1.24838 0.961938 0
M  V30 10042 C 981.391 1.08369 1.5203 0
M  V30 10043 C 981.742 -0.343005 1.93178 0
M  V30 10044 O 980.867 -1.2321 1.779 0
M  V30 10045 C 981.462 1.96102 2.76278 0
M  V30 10046 C 980.021 1.8384 3.28451 0
M  V30 10047 C 979.168 1.9069 2.01327 0
M  V30 10048 H 982.119 1.38231 0.779613 0
M  V30 10049 H 982.14 1.4967 3.49827 0
M  V30 10050 H 981.652 2.99931 2.46298 0
M  V30 10051 H 979.753 0.828653 3.63269 0
M  V30 10052 H 979.866 2.68251 3.96961 0
M  V30 10053 H 978.23 1.34488 2.16299 0
M  V30 10054 H 979.013 2.96111 1.73705 0
M  V30 10055 N 981.458 -1.16348 1.06306 0
M  V30 10056 C 982.368 -2.24375 0.685059 0
M  V30 10057 C 983.384 -1.71413 -0.298956 0
M  V30 10058 O 984.56 -2.00854 -0.148239 0
M  V30 10059 C 981.625 -3.46614 0.0774088 0
M  V30 10060 C 980.686 -4.14613 1.11331 0
M  V30 10061 C 979.919 -5.31016 0.534559 0
M  V30 10062 O 980.142 -5.66654 -0.65265 0
M  V30 10063 O 979.076 -5.88256 1.27431 0
M  V30 10064 H 982.902 -2.59018 1.58566 0
M  V30 10065 H 980.487 -1.23865 0.835332 0
M  V30 10066 H 982.369 -4.20599 -0.259716 0
M  V30 10067 H 981.044 -3.13743 -0.796677 0
M  V30 10068 H 979.951 -3.42597 1.50261 0
M  V30 10069 H 981.284 -4.51538 1.95893 0
M  V30 10070 N 982.937 -0.845659 -1.3299 0
M  V30 10071 C 983.847 -0.2864 -2.32845 0
M  V30 10072 C 984.863 0.591105 -1.63652 0
M  V30 10073 O 986.039 0.493615 -1.95257 0
M  V30 10074 C 983.104 0.523636 -3.42723 0
M  V30 10075 C 982.165 -0.378945 -4.27624 0
M  V30 10076 C 981.398 0.392526 -5.32255 0
M  V30 10077 O 981.621 1.6235 -5.46808 0
M  V30 10078 O 980.555 -0.237 -6.01433 0
M  V30 10079 H 984.381 -1.11346 -2.82552 0
M  V30 10080 H 981.966 -0.608356 -1.36453 0
M  V30 10081 H 983.848 0.983718 -4.09757 0
M  V30 10082 H 982.523 1.32764 -2.95221 0
M  V30 10083 H 981.43 -0.887012 -3.63432 0
M  V30 10084 H 982.763 -1.1479 -4.78627 0
M  V30 10085 N 984.415 1.45619 -0.602734 0
M  V30 10086 C 985.661 2.02572 -0.0961759 0
M  V30 10087 C 985.994 1.47076 1.26815 0
M  V30 10088 O 985.269 0.643566 1.83544 0
M  V30 10089 C 985.552 3.60062 -0.0520032 0
M  V30 10090 C 985.405 4.25901 -1.44665 0
M  V30 10091 C 986.724 4.35446 0.638342 0
M  V30 10092 H 983.843 0.736099 -0.0364238 0
M  V30 10093 H 986.485 1.7353 -0.773776 0
M  V30 10094 H 984.635 3.84936 0.525032 0
M  V30 10095 H 986.307 4.12228 -2.0704 0
M  V30 10096 H 984.55 3.84489 -2.00874 0
M  V30 10097 H 985.221 5.34779 -1.36803 0
M  V30 10098 H 987.697 4.15837 0.147926 0
M  V30 10099 H 986.573 5.45176 0.63834 0
M  V30 10100 H 986.834 4.07962 1.70351 0
M  V30 10101 N 985.893 0.34162 1.53853 0
M  V30 10102 C 986.803 -0.524555 2.2866 0
M  V30 10103 C 987.819 -1.1136 1.33697 0
M  V30 10104 O 988.995 -1.1297 1.66732 0
M  V30 10105 C 986.06 -1.66065 3.04341 0
M  V30 10106 C 985.121 -1.10158 4.14926 0
M  V30 10107 C 984.354 -2.18353 4.86988 0
M  V30 10108 O 984.577 -3.39038 4.58704 0
M  V30 10109 O 983.511 -1.82756 5.73484 0
M  V30 10110 H 987.337 0.0835014 3.03585 0
M  V30 10111 H 984.922 0.106727 1.49018 0
M  V30 10112 H 986.804 -2.3217 3.51674 0
M  V30 10113 H 985.479 -2.25456 2.32275 0
M  V30 10114 H 984.386 -0.405109 3.719 0
M  V30 10115 H 985.719 -0.552567 4.89088 0
M  V30 10116 N 987.371 -1.57444 0.0701946 0
M  V30 10117 C 988.303 -2.09611 -0.927142 0
M  V30 10118 C 989.316 -1.02791 -1.26245 0
M  V30 10119 O 990.505 -1.30309 -1.21992 0
M  V30 10120 C 987.605 -2.54015 -2.24342 0
M  V30 10121 C 986.778 -3.84389 -2.08719 0
M  V30 10122 C 985.837 -4.14904 -3.23638 0
M  V30 10123 O 984.863 -4.84528 -2.98699 0
M  V30 10124 N 986.065 -3.68322 -4.48686 0
M  V30 10125 H 988.83 -2.95803 -0.481753 0
M  V30 10126 H 986.391 -1.61487 -0.115572 0
M  V30 10127 H 988.383 -2.71492 -3.00124 0
M  V30 10128 H 986.953 -1.72969 -2.60385 0
M  V30 10129 H 986.173 -3.76308 -1.17415 0
M  V30 10130 H 987.461 -4.69729 -1.9553 0
M  V30 10131 H 986.859 -3.12073 -4.71834 0
M  V30 10132 H 985.416 -3.91002 -5.21499 0
M  V30 10133 N 988.849 0.203349 -1.56283 0
M  V30 10134 C 990.098 0.92315 -1.79334 0
M  V30 10135 C 990.411 1.84765 -0.641977 0
M  V30 10136 O 991.617 2.60745 -0.756584 0
M  V30 10137 C 990.073 1.69184 -3.17655 0
M  V30 10138 C 989.681 0.812581 -4.40569 0
M  V30 10139 C 991.425 2.40177 -3.50022 0
M  V30 10140 C 989.332 1.57967 -5.69913 0
M  V30 10141 H 988.262 0.348442 -0.668659 0
M  V30 10142 H 990.913 0.1766 -1.82648 0
M  V30 10143 H 989.295 2.48197 -3.08568 0
M  V30 10144 H 990.469 0.0616956 -4.60759 0
M  V30 10145 H 988.784 0.21389 -4.1585 0
M  V30 10146 H 991.381 2.98103 -4.4389 0
M  V30 10147 H 991.724 3.13961 -2.73376 0
M  V30 10148 H 992.257 1.68138 -3.6052 0
M  V30 10149 H 988.996 0.884767 -6.49501 0
M  V30 10150 H 988.516 2.3047 -5.53754 0
M  V30 10151 H 990.195 2.13562 -6.10737 0
M  V30 10152 N 990.327 1.50405 0.470755 0
M  V30 10153 C 991.274 1.69293 1.56871 0
M  V30 10154 C 992.244 0.534248 1.57274 0
M  V30 10155 O 993.429 0.764855 1.74799 0
M  V30 10156 C 990.569 1.79338 2.94842 0
M  V30 10157 C 989.682 3.06709 3.04226 0
M  V30 10158 C 988.817 3.07548 4.33114 0
M  V30 10159 C 987.856 4.29372 4.36241 0
M  V30 10160 N 986.993 4.27949 5.56601 0
M  V30 10161 H 991.833 2.63029 1.40071 0
M  V30 10162 H 989.37 1.30386 0.681016 0
M  V30 10163 H 991.328 1.83143 3.74853 0
M  V30 10164 H 989.958 0.890411 3.10277 0
M  V30 10165 H 989.01 3.12374 2.17086 0
M  V30 10166 H 990.322 3.96684 3.02396 0
M  V30 10167 H 989.476 3.10084 5.21472 0
M  V30 10168 H 988.215 2.15404 4.37553 0
M  V30 10169 H 987.22 4.27048 3.4628 0
M  V30 10170 H 988.445 5.22743 4.33493 0
M  V30 10171 H 986.391 3.38658 5.61824 0
M  V30 10172 H 986.308 5.11692 5.56513 0
M  V30 10173 H 987.576 4.34631 6.47083 0
M  V30 10174 N 991.805 -0.723954 1.39988 0
M  V30 10175 C 992.735 -1.85103 1.42335 0
M  V30 10176 C 993.716 -1.6769 0.285297 0
M  V30 10177 O 994.901 -1.87846 0.492716 0
M  V30 10178 C 992.031 -3.22972 1.27697 0
M  V30 10179 C 990.985 -3.55041 2.39018 0
M  V30 10180 C 990.311 -4.91965 2.09462 0
M  V30 10181 C 991.611 -3.56889 3.8135 0
M  V30 10182 H 993.305 -1.83396 2.36656 0
M  V30 10183 H 990.851 -0.880926 1.13911 0
M  V30 10184 H 992.804 -4.01503 1.27958 0
M  V30 10185 H 991.528 -3.25233 0.298487 0
M  V30 10186 H 990.187 -2.78845 2.37993 0
M  V30 10187 H 989.835 -4.90819 1.10025 0
M  V30 10188 H 989.535 -5.14389 2.84038 0
M  V30 10189 H 991.059 -5.7284 2.11391 0
M  V30 10190 H 992.473 -4.25476 3.84243 0
M  V30 10191 H 990.87 -3.90836 4.55376 0
M  V30 10192 H 991.94 -2.56452 4.11534 0
M  V30 10193 N 993.283 -1.25346 -0.955304 0
M  V30 10194 C 994.513 -1.12629 -1.732 0
M  V30 10195 C 994.921 0.322748 -1.86427 0
M  V30 10196 O 994.264 1.23381 -1.36099 0
M  V30 10197 C 994.326 -1.7064 -3.16421 0
M  V30 10198 C 993.99 -3.19632 -3.26626 0
M  V30 10199 C 994.987 -4.1663 -3.10991 0
M  V30 10200 C 992.672 -3.59829 -3.50468 0
M  V30 10201 C 994.666 -5.51806 -3.19043 0
M  V30 10202 C 992.353 -4.95143 -3.58157 0
M  V30 10203 C 993.351 -5.90941 -3.42459 0
M  V30 10204 O 993.039 -7.23792 -3.49828 0
M  V30 10205 H 992.771 -0.393646 -0.549562 0
M  V30 10206 H 995.325 -1.66184 -1.20715 0
M  V30 10207 H 993.555 -1.11532 -3.70267 0
M  V30 10208 H 995.244 -1.53032 -3.75947 0
M  V30 10209 H 996.01 -3.86915 -2.92441 0
M  V30 10210 H 991.889 -2.8576 -3.61749 0
M  V30 10211 H 995.433 -6.26559 -3.06707 0
M  V30 10212 H 991.33 -5.24525 -3.76224 0
M  V30 10213 H 992.098 -7.31879 -3.66463 0
M  V30 10214 N 994.761 1.15782 -1.06922 0
M  V30 10215 C 996.007 1.86741 -0.790922 0
M  V30 10216 C 996.34 1.81863 0.681149 0
M  V30 10217 O 995.615 1.23871 1.49954 0
M  V30 10218 C 995.898 3.36038 -1.29422 0
M  V30 10219 C 995.751 3.49573 -2.83052 0
M  V30 10220 C 997.07 4.30647 -0.907239 0
M  V30 10221 H 994.189 0.678064 -0.288787 0
M  V30 10222 H 996.831 1.36054 -1.32624 0
M  V30 10223 H 994.981 3.79336 -0.838843 0
M  V30 10224 H 996.653 3.1517 -3.36847 0
M  V30 10225 H 994.896 2.91275 -3.21467 0
M  V30 10226 H 995.567 4.5445 -3.13335 0
M  V30 10227 H 998.043 3.95286 -1.29956 0
M  V30 10228 H 996.919 5.33604 -1.28679 0
M  V30 10229 H 997.18 4.41703 0.187251 0
M  V30 10230 N 996.239 0.8527 1.3254 0
M  V30 10231 C 997.172 0.240733 2.26927 0
M  V30 10232 C 998.15 -0.620158 1.50309 0
M  V30 10233 O 999.334 -0.577389 1.79439 0
M  V30 10234 C 996.461 -0.660644 3.32195 0
M  V30 10235 C 995.507 0.126604 4.26312 0
M  V30 10236 S 996.34 1.49372 5.14245 0
M  V30 10237 C 997.496 0.598002 6.23037 0
M  V30 10238 H 997.729 1.04088 2.78483 0
M  V30 10239 H 995.262 0.650222 1.40041 0
M  V30 10240 H 997.22 -1.17506 3.93323 0
M  V30 10241 H 995.881 -1.43458 2.79426 0
M  V30 10242 H 995.074 -0.559851 5.00881 0
M  V30 10243 H 994.676 0.572536 3.69592 0
M  V30 10244 H 996.968 -0.198555 6.77209 0
M  V30 10245 H 997.911 1.31428 6.95796 0
M  V30 10246 H 998.319 0.173211 5.64234 0
M  V30 10247 N 997.718 -1.45297 0.610449 0
M  V30 10248 C 998.943 -2.07101 0.111414 0
M  V30 10249 C 999.368 -1.45161 -1.19625 0
M  V30 10250 O 998.726 -0.545368 -1.72903 0
M  V30 10251 C 998.774 -3.60598 -0.0117372 0
M  V30 10252 O 997.878 -3.98512 -1.06122 0
M  V30 10253 H 997.219 -0.659709 0.075364 0
M  V30 10254 H 999.749 -1.86504 0.841269 0
M  V30 10255 H 999.759 -4.07464 -0.209028 0
M  V30 10256 H 998.434 -4.05067 0.943076 0
M  V30 10257 H 997.011 -3.63312 -0.840158 0
M  V30 10258 N 999.196 -0.349774 -1.5367 0
M  V30 10259 C 1000.61 0.00191293 -1.596 0
M  V30 10260 C 1000.81 1.48175 -1.36552 0
M  V30 10261 O 999.868 2.24129 -1.16285 0
M  V30 10262 C 1001.18 -0.439848 -2.97466 0
M  V30 10263 C 1002.73 -0.392721 -3.10526 0
M  V30 10264 C 1003.2 -0.810047 -4.5078 0
M  V30 10265 N 1004.69 -0.764478 -4.56848 0
M  V30 10266 C 1005.43 -1.05927 -5.63531 0
M  V30 10267 N 1004.93 -1.42253 -6.78038 0
M  V30 10268 N 1006.72 -0.983098 -5.53436 0
M  V30 10269 H 998.87 -1.31364 -1.66905 0
M  V30 10270 H 1001.13 -0.535908 -0.781989 0
M  V30 10271 H 1000.84 -1.47189 -3.19419 0
M  V30 10272 H 1000.71 0.181735 -3.76762 0
M  V30 10273 H 1003.1 0.630161 -2.88293 0
M  V30 10274 H 1003.18 -1.04959 -2.33275 0
M  V30 10275 H 1002.82 -1.83097 -4.73749 0
M  V30 10276 H 1002.75 -0.130591 -5.26438 0
M  V30 10277 H 1005.25 -0.496637 -3.74622 0
M  V30 10278 H 1005.56 -1.63215 -7.55368 0
M  V30 10279 H 1003.9 -1.46104 -6.79469 0
M  V30 10280 H 1007.09 -0.698601 -4.62858 0
M  V30 10281 H 1007.27 -1.21618 -6.36485 0
M  V30 10282 N 1000.67 1.57404 -0.0785433 0
M  V30 10283 C 1001.58 2.16612 0.900902 0
M  V30 10284 C 1002.6 1.13109 1.32221 0
M  V30 10285 O 1003.78 1.45406 1.39352 0
M  V30 10286 C 1000.84 2.7215 2.14791 0
M  V30 10287 C 999.902 3.90551 1.78237 0
M  V30 10288 C 999.135 4.43431 2.96993 0
M  V30 10289 O 999.358 3.95292 4.11218 0
M  V30 10290 O 998.292 5.34674 2.76418 0
M  V30 10291 H 1002.12 3.0068 0.427227 0
M  V30 10292 H 999.703 1.48696 0.144902 0
M  V30 10293 H 1001.58 3.07718 2.87902 0
M  V30 10294 H 1000.26 1.91139 2.61243 0
M  V30 10295 H 999.167 3.59825 1.02357 0
M  V30 10296 H 1000.5 4.72876 1.36562 0
M  V30 10297 N 1002.15 -0.195058 1.56388 0
M  V30 10298 C 1003.38 -0.930291 1.8447 0
M  V30 10299 C 1003.79 -1.77356 0.658901 0
M  V30 10300 O 1003.13 -1.79691 -0.381664 0
M  V30 10301 C 1003.19 -1.87626 3.06654 0
M  V30 10302 C 1002.86 -1.21494 4.40555 0
M  V30 10303 C 1003.86 -0.591847 5.1652 0
M  V30 10304 C 1001.54 -1.21878 4.8729 0
M  V30 10305 C 1003.53 0.0185743 6.37397 0
M  V30 10306 C 1001.22 -0.604524 6.08103 0
M  V30 10307 C 1002.22 0.0130731 6.82999 0
M  V30 10308 O 1001.91 0.617703 8.01523 0
M  V30 10309 H 1001.64 -0.276933 0.616672 0
M  V30 10310 H 1004.19 -0.207277 2.04351 0
M  V30 10311 H 1002.42 -2.63897 2.82658 0
M  V30 10312 H 1004.11 -2.47929 3.21382 0
M  V30 10313 H 1004.88 -0.581018 4.81507 0
M  V30 10314 H 1000.76 -1.68888 4.2895 0
M  V30 10315 H 1004.3 0.50124 6.95797 0
M  V30 10316 H 1000.2 -0.612855 6.42584 0
M  V30 10317 H 1000.97 0.514612 8.16881 0
M  V30 10318 N 1003.63 -1.50653 -0.462772 0
M  V30 10319 C 1004.54 -1.72923 -1.58539 0
M  V30 10320 C 1005.56 -0.612577 -1.6286 0
M  V30 10321 O 1006.73 -0.891885 -1.80575 0
M  V30 10322 C 1003.8 -1.82623 -2.94703 0
M  V30 10323 C 1002.86 -3.06392 -3.00704 0
M  V30 10324 C 1002.09 -3.15618 -4.30373 0
M  V30 10325 O 1002.31 -2.31423 -5.21344 0
M  V30 10326 O 1001.25 -4.0841 -4.42136 0
M  V30 10327 H 1005.07 -2.68103 -1.42669 0
M  V30 10328 H 1002.66 -1.34848 -0.643144 0
M  V30 10329 H 1004.54 -1.91134 -3.7556 0
M  V30 10330 H 1003.22 -0.906275 -3.10754 0
M  V30 10331 H 1002.12 -3.03375 -2.18894 0
M  V30 10332 H 1003.46 -3.97992 -2.89591 0
M  V30 10333 N 1005.11 0.71652 -1.4037 0
M  V30 10334 C 1006.39 1.46947 -1.29097 0
M  V30 10335 C 1006.77 2.10903 0.0911182 0
M  V30 10336 O 1006.11 2.00068 1.10385 0
M  V30 10337 C 1006.32 2.50594 -2.42907 0
M  V30 10338 C 1007.67 3.16451 -2.83097 0
M  V30 10339 O 1008.7 2.60913 -2.42493 0
M  V30 10340 O 1007.55 4.16991 -3.53244 0
M  V30 10341 H 1004.65 0.653413 -0.506932 0
M  V30 10342 H 1007.19 0.748774 -1.52287 0
M  V30 10343 H 1005.97 2.01843 -3.35224 0
M  V30 10344 H 1005.59 3.302 -2.21481 0
M  V30 10345 N 1006.59 1.25851 0.948643 0
M  V30 10346 C 1007.82 1.13546 1.726 0
M  V30 10347 C 1008.22 -0.312857 1.86595 0
M  V30 10348 O 1007.57 -1.22657 1.36751 0
M  V30 10349 C 1007.63 1.72315 3.15512 0
M  V30 10350 C 1007.29 3.2136 3.24926 0
M  V30 10351 C 1008.29 4.18274 3.08777 0
M  V30 10352 C 1005.98 3.61683 3.48555 0
M  V30 10353 C 1007.97 5.53491 3.16112 0
M  V30 10354 C 1005.66 4.97035 3.55526 0
M  V30 10355 C 1006.65 5.92749 3.3932 0
M  V30 10356 O 1006.34 7.25637 3.45985 0
M  V30 10357 H 1006.07 0.396555 0.547467 0
M  V30 10358 H 1008.63 1.66822 1.19832 0
M  V30 10359 H 1006.86 1.13494 3.6967 0
M  V30 10360 H 1008.55 1.55024 3.7513 0
M  V30 10361 H 1009.31 3.88461 2.90385 0
M  V30 10362 H 1005.19 2.87674 3.60229 0
M  V30 10363 H 1008.74 6.28177 3.0338 0
M  V30 10364 H 1004.63 5.26512 3.73437 0
M  V30 10365 H 1005.4 7.33812 3.62577 0
M  V30 10366 N 1008.06 -1.15214 1.07534 0
M  V30 10367 C 1009 -2.18999 0.641461 0
M  V30 10368 C 1009.98 -1.58958 -0.342238 0
M  V30 10369 O 1011.16 -1.86859 -0.248218 0
M  V30 10370 C 1008.29 -3.38651 -0.0577939 0
M  V30 10371 C 1007.33 -4.17225 0.884641 0
M  V30 10372 S 1008.17 -4.79375 2.38663 0
M  V30 10373 C 1009.32 -6.02393 1.69923 0
M  V30 10374 H 1009.55 -2.55464 1.52071 0
M  V30 10375 H 1007.09 -1.26205 0.889481 0
M  V30 10376 H 1009.05 -4.07971 -0.454982 0
M  V30 10377 H 1007.71 -3.00526 -0.913407 0
M  V30 10378 H 1006.9 -5.02837 0.342133 0
M  V30 10379 H 1006.5 -3.53463 1.2223 0
M  V30 10380 H 1008.79 -6.69899 1.01201 0
M  V30 10381 H 1009.74 -6.61216 2.53375 0
M  V30 10382 H 1010.14 -5.52106 1.1764 0
M  V30 10383 N 1009.54 -0.859717 -1.32086 0
M  V30 10384 C 1010.51 -0.313005 -2.27053 0
M  V30 10385 C 1011.51 0.530191 -1.51808 0
M  V30 10386 O 1012.7 0.340972 -1.7083 0
M  V30 10387 C 1009.83 0.5566 -3.36325 0
M  V30 10388 H 1011.02 -1.15125 -2.76923 0
M  V30 10389 H 1008.57 -0.634463 -1.42843 0
M  V30 10390 H 1009.31 1.41645 -2.91731 0
M  V30 10391 H 1009.09 -0.0470197 -3.92072 0
M  V30 10392 H 1010.58 0.931725 -4.07073 0
M  V30 10393 N 1011.02 1.44971 -0.618145 0
M  V30 10394 C 1012.44 1.57077 -0.282666 0
M  V30 10395 C 1012.64 1.60782 1.21456 0
M  V30 10396 O 1011.69 1.54382 1.99806 0
M  V30 10397 C 1013.01 2.84858 -0.963148 0
M  V30 10398 C 1014.55 2.9855 -0.940062 0
M  V30 10399 C 1015.03 4.29115 -1.60076 0
M  V30 10400 N 1016.52 4.35899 -1.56674 0
M  V30 10401 C 1017.25 5.35617 -2.04701 0
M  V30 10402 N 1016.75 6.41813 -2.6086 0
M  V30 10403 N 1018.54 5.27042 -1.95406 0
M  V30 10404 H 1010.69 1.4081 -1.59017 0
M  V30 10405 H 1012.96 0.673914 -0.666741 0
M  V30 10406 H 1012.66 2.88059 -2.0178 0
M  V30 10407 H 1012.54 3.73966 -0.492901 0
M  V30 10408 H 1014.92 2.94909 0.10607 0
M  V30 10409 H 1015.01 2.10825 -1.44868 0
M  V30 10410 H 1014.65 4.33514 -2.64627 0
M  V30 10411 H 1014.58 5.15675 -1.06708 0
M  V30 10412 H 1017.07 3.59766 -1.15659 0
M  V30 10413 H 1017.38 7.14166 -2.95273 0
M  V30 10414 H 1015.73 6.42534 -2.64905 0
M  V30 10415 H 1018.92 4.42987 -1.51263 0
M  V30 10416 H 1019.09 6.04604 -2.33147 0
M  V30 10417 N 1012.5 0.357919 1.53482 0
M  V30 10418 C 1013.45 -0.50845 2.22258 0
M  V30 10419 C 1014.43 -1.05476 1.21506 0
M  V30 10420 O 1015.62 -0.986075 1.46988 0
M  V30 10421 C 1012.75 -1.65157 3.00962 0
M  V30 10422 C 1011.84 -1.11851 4.09084 0
M  V30 10423 N 1012.23 -0.307818 5.04862 0
M  V30 10424 C 1010.53 -1.39405 4.23653 0
M  V30 10425 C 1011.23 -0.016842 5.81698 0
M  V30 10426 N 1010.21 -0.612396 5.40139 0
M  V30 10427 H 1014.01 0.117836 2.93664 0
M  V30 10428 H 1011.52 0.16553 1.61554 0
M  V30 10429 H 1013.52 -2.28435 3.48745 0
M  V30 10430 H 1012.18 -2.281 2.31086 0
M  V30 10431 H 1013.19 0.0523313 5.17874 0
M  V30 10432 H 1009.87 -2.02682 3.65002 0
M  V30 10433 H 1011.26 0.638046 6.68864 0
M  V30 10434 N 1013.98 -1.5736 0.0868897 0
M  V30 10435 C 1014.92 -2.13571 -0.874996 0
M  V30 10436 C 1015.89 -1.0521 -1.2853 0
M  V30 10437 O 1017.08 -1.32954 -1.3685 0
M  V30 10438 C 1014.22 -2.71386 -2.13175 0
M  V30 10439 C 1013.33 -3.93953 -1.77272 0
M  V30 10440 C 1012.47 -4.3996 -2.97671 0
M  V30 10441 C 1011.51 -5.55137 -2.57856 0
M  V30 10442 N 1010.64 -5.96034 -3.71064 0
M  V30 10443 H 1015.48 -2.95453 -0.388789 0
M  V30 10444 H 1013.02 -1.45992 -0.180242 0
M  V30 10445 H 1014.98 -3.03022 -2.86764 0
M  V30 10446 H 1013.61 -1.92245 -2.5931 0
M  V30 10447 H 1012.66 -3.68683 -0.936845 0
M  V30 10448 H 1013.97 -4.77565 -1.43989 0
M  V30 10449 H 1013.13 -4.73337 -3.79522 0
M  V30 10450 H 1011.86 -3.55232 -3.34158 0
M  V30 10451 H 1010.87 -5.21397 -1.7443 0
M  V30 10452 H 1012.09 -6.41608 -2.22522 0
M  V30 10453 H 1010.04 -5.14253 -4.07284 0
M  V30 10454 H 1009.96 -6.74423 -3.41599 0
M  V30 10455 H 1011.23 -6.34038 -4.53449 0
M  V30 10456 N 1015.45 0.186762 -1.56489 0
M  V30 10457 C 1016.42 1.21511 -1.94339 0
M  V30 10458 C 1017.42 1.38001 -0.82537 0
M  V30 10459 O 1018.61 1.3567 -1.09266 0
M  V30 10460 C 1015.74 2.583 -2.22472 0
M  V30 10461 H 1016.93 0.891371 -2.86347 0
M  V30 10462 H 1014.49 0.428612 -1.50308 0
M  V30 10463 H 1015.22 2.95715 -1.33129 0
M  V30 10464 H 1015.01 2.47701 -3.03951 0
M  V30 10465 H 1016.5 3.32441 -2.5273 0
M  V30 10466 N 1016.93 1.50896 0.454776 0
M  V30 10467 C 1017.9 1.70377 1.53312 0
M  V30 10468 C 1018.9 0.57408 1.50203 0
M  V30 10469 O 1020.09 0.841374 1.52534 0
M  V30 10470 C 1017.22 1.74411 2.92905 0
M  V30 10471 H 1018.41 2.66599 1.37349 0
M  V30 10472 H 1015.96 1.40622 0.68228 0
M  V30 10473 H 1016.7 0.799408 3.14293 0
M  V30 10474 H 1016.48 2.56496 2.96568 0
M  V30 10475 H 1017.97 1.91382 3.71164 0
M  V30 10476 N 1018.41 -0.709066 1.40748 0
M  V30 10477 C 1019.82 -1.28847 1.35112 0
M  V30 10478 C 1020.17 -1.9618 0.0277149 0
M  V30 10479 O 1019.3 -1.97955 -0.874233 0
M  V30 10480 C 1019.89 -2.34306 2.44716 0
M  V30 10481 C 1018.45 -2.87856 2.4252 0
M  V30 10482 C 1017.6 -1.61723 2.25257 0
M  V30 10483 H 1020.55 -0.504742 1.50459 0
M  V30 10484 H 1020.57 -3.15297 2.12998 0
M  V30 10485 H 1020.08 -1.85271 3.41022 0
M  V30 10486 H 1018.18 -3.41103 1.49931 0
M  V30 10487 H 1018.3 -3.39205 3.38344 0
M  V30 10488 H 1016.66 -1.87032 1.7289 0
M  V30 10489 H 1017.44 -1.14703 3.23571 0
M  V30 10490 O 1019.93 -1.3727 -0.85084 0
M  V30 10491 H 1020.62 -1.23584 -1.49153 0
M  V30 END ATOM
M  V30 BEGIN BOND
M  V30 END BOND
M  V30 END CTAB
M  END
$$$$
