drugbank_target|Q8I372 Peptide deformylase (DB02625; DB03648)
 OpenBabel12092120253D

  0  0  0     0  0            999 V3000
M  V30 BEGIN CTAB
M  V30 COUNTS 4076 4115 0 0 0
M  V30 BEGIN ATOM
M  V30 1 H -0.908 1.98254 -0.117106 0
M  V30 2 N 0 1.576 0 0
M  V30 3 C 0.933 2.03868 1.02534 0
M  V30 4 C 1.911 0.928543 1.3348 0
M  V30 5 O 3.095 1.19667 1.45644 0
M  V30 6 C 0.222 2.43627 2.35294 0
M  V30 7 C -0.732 3.65373 2.2001 0
M  V30 8 S 0.101 5.13292 1.52614 0
M  V30 9 C 1.257 5.56322 2.86805 0
M  V30 10 H 1.49 2.90518 0.631377 0
M  V30 11 H -0.977 1.52953 0.210867 0
M  V30 12 H 0.981 2.67203 3.11629 0
M  V30 13 H -0.358 1.57376 2.7183 0
M  V30 14 H -1.165 3.90944 3.18086 0
M  V30 15 H -1.563 3.418 1.51819 0
M  V30 16 H 0.729 5.58782 3.83104 0
M  V30 17 H 1.672 6.56266 2.65933 0
M  V30 18 H 2.08 4.83886 2.90714 0
M  V30 19 N 1.4781 -0.272755 1.55222 0
M  V30 20 C 2.4081 -1.34136 1.91127 0
M  V30 21 C 3.3891 -1.51513 0.773168 0
M  V30 22 O 4.5741 -1.64552 1.03132 0
M  V30 23 C 1.7041 -2.70083 2.1834 0
M  V30 24 C 0.6581 -2.67437 3.34158 0
M  V30 25 C -0.0159 -4.06938 3.46851 0
M  V30 26 C 1.2841 -2.26686 4.70543 0
M  V30 27 H 2.9781 -1.04333 2.80633 0
M  V30 28 H 0.5241 -0.500454 1.35024 0
M  V30 29 H 2.4771 -3.44952 2.42046 0
M  V30 30 H 1.2011 -3.01469 1.25634 0
M  V30 31 H -0.1399 -1.95026 3.1042 0
M  V30 32 H -0.4919 -4.35547 2.51611 0
M  V30 33 H -0.7919 -4.06062 4.2472 0
M  V30 34 H 0.7321 -4.83545 3.72849 0
M  V30 35 H 2.1461 -2.91277 4.93792 0
M  V30 36 H 0.5431 -2.36971 5.5133 0
M  V30 37 H 1.6131 -1.21818 4.69349 0
M  V30 38 N 2.9562 -1.48159 -0.537278 0
M  V30 39 C 3.8892 -1.567 -1.65893 0
M  V30 40 C 4.8672 -0.41787 -1.57139 0
M  V30 41 O 6.0512 -0.628461 -1.77715 0
M  V30 42 C 3.1782 -1.48818 -3.04255 0
M  V30 43 C 2.2242 -2.68482 -3.31391 0
M  V30 44 S 3.0572 -4.30516 -3.1846 0
M  V30 45 C 4.2132 -4.2522 -4.59281 0
M  V30 46 H 4.4462 -2.5159 -1.58397 0
M  V30 47 H 1.9792 -1.36602 -0.719672 0
M  V30 48 H 3.9372 -1.44958 -3.84054 0
M  V30 49 H 2.5982 -0.552777 -3.09198 0
M  V30 50 H 1.7912 -2.59085 -4.32309 0
M  V30 51 H 1.3932 -2.69567 -2.59248 0
M  V30 52 H 3.6852 -3.94703 -5.5065 0
M  V30 53 H 4.6282 -5.26292 -4.73732 0
M  V30 54 H 5.0362 -3.55791 -4.38261 0
M  V30 55 N 4.4343 0.785586 -1.36625 0
M  V30 56 C 5.6643 1.5722 -1.34036 0
M  V30 57 C 6.0723 1.89033 0.0795062 0
M  V30 58 O 5.4153 1.50881 1.04789 0
M  V30 59 C 5.4773 2.91759 -2.10041 0
M  V30 60 C 5.1413 2.82654 -3.59104 0
M  V30 61 C 6.1383 2.54634 -4.53274 0
M  V30 62 C 3.8233 3.01111 -4.02042 0
M  V30 63 C 5.8173 2.45177 -5.88359 0
M  V30 64 C 3.5043 2.91276 -5.37216 0
M  V30 65 C 4.5023 2.63348 -6.30188 0
M  V30 66 O 4.1903 2.53514 -7.6288 0
M  V30 67 H 3.9223 0.494177 -0.461265 0
M  V30 68 H 6.4763 0.982632 -1.8037 0
M  V30 69 H 4.7063 3.52781 -1.58375 0
M  V30 70 H 6.3953 3.53059 -2.00261 0
M  V30 71 H 7.1613 2.40073 -4.21414 0
M  V30 72 H 3.0403 3.21854 -3.30047 0
M  V30 73 H 6.5843 2.23299 -6.60896 0
M  V30 74 H 2.4813 3.054 -5.68684 0
M  V30 75 H 3.2493 2.68967 -7.73045 0
M  V30 76 N 5.9124 1.20967 1.01018 0
M  V30 77 C 7.1424 1.04803 1.78044 0
M  V30 78 C 7.5504 -0.405462 1.84804 0
M  V30 79 O 6.8934 -1.2932 1.30468 0
M  V30 80 C 6.9554 1.56377 3.23707 0
M  V30 81 C 6.6194 3.04767 3.40538 0
M  V30 82 C 7.6164 4.02366 3.29239 0
M  V30 83 C 5.3014 3.43862 3.66147 0
M  V30 84 C 7.2954 5.37049 3.43304 0
M  V30 85 C 4.9824 4.78699 3.79855 0
M  V30 86 C 5.9804 5.75101 3.68439 0
M  V30 87 O 5.6684 7.07493 3.81719 0
M  V30 88 H 5.4004 0.368778 0.56655 0
M  V30 89 H 7.9544 1.60642 1.27997 0
M  V30 90 H 6.1844 0.949297 3.74867 0
M  V30 91 H 7.8734 1.36136 3.8239 0
M  V30 92 H 8.6394 3.73506 3.09384 0
M  V30 93 H 4.5184 2.69364 3.74118 0
M  V30 94 H 8.0624 6.12277 3.34309 0
M  V30 95 H 3.9594 5.07247 3.99213 0
M  V30 96 H 4.7274 7.1483 3.98697 0
M  V30 97 N 7.3905 -1.2043 1.01659 0
M  V30 98 C 8.6155 -1.94318 0.724942 0
M  V30 99 C 9.0405 -1.74266 -0.708034 0
M  V30 100 O 8.3985 -1.03694 -1.48719 0
M  V30 101 C 8.4465 -3.44486 1.06591 0
M  V30 102 O 7.5505 -4.12017 0.177599 0
M  V30 103 H 6.8915 -0.60708 0.26898 0
M  V30 104 H 9.4215 -1.52861 1.35995 0
M  V30 105 H 9.4315 -3.95106 1.01762 0
M  V30 106 H 8.1065 -3.58404 2.10997 0
M  V30 107 H 6.6835 -3.71821 0.283421 0
M  V30 108 N 8.8686 -0.792821 -1.36206 0
M  V30 109 C 9.7986 -0.207853 -2.32573 0
M  V30 110 C 10.7796 0.659055 -1.56813 0
M  V30 111 O 11.9646 0.592176 -1.84951 0
M  V30 112 C 9.0946 0.655449 -3.41059 0
M  V30 113 C 8.0486 -0.111842 -4.27854 0
M  V30 114 C 7.3746 0.872274 -5.27537 0
M  V30 115 C 8.6746 -1.30299 -5.05786 0
M  V30 116 H 10.3686 -1.01294 -2.81744 0
M  V30 117 H 7.9146 -0.48854 -1.3546 0
M  V30 118 H 9.8676 1.07464 -4.07467 0
M  V30 119 H 8.5916 1.49328 -2.90463 0
M  V30 120 H 7.2506 -0.512053 -3.63006 0
M  V30 121 H 6.8986 1.70523 -4.73214 0
M  V30 122 H 6.5986 0.363291 -5.86476 0
M  V30 123 H 8.1226 1.28996 -5.96818 0
M  V30 124 H 9.5366 -0.959379 -5.65216 0
M  V30 125 H 7.9336 -1.7455 -5.74154 0
M  V30 126 H 9.0036 -2.09663 -4.37229 0
M  V30 127 N 10.3467 1.47872 -0.545128 0
M  V30 128 C 11.5937 2.02493 -0.0165858 0
M  V30 129 C 11.9217 1.42073 1.32836 0
M  V30 130 O 11.1767 0.561459 1.87473 0
M  V30 131 C 11.4757 3.57131 0.13867 0
M  V30 132 C 11.1417 4.36411 -1.13384 0
M  V30 133 C 9.8037 4.57792 -1.48256 0
M  V30 134 C 12.1557 4.82223 -1.97764 0
M  V30 135 C 9.4837 5.22233 -2.67376 0
M  V30 136 C 11.8357 5.47977 -3.16076 0
M  V30 137 C 10.4997 5.67593 -3.51275 0
M  V30 138 H 9.7697 0.740975 -0.00606918 0
M  V30 139 H 12.4167 1.77683 -0.714207 0
M  V30 140 H 10.7217 3.80865 0.919172 0
M  V30 141 H 12.4187 3.97031 0.562782 0
M  V30 142 H 9.0087 4.2004 -0.852297 0
M  V30 143 H 13.1927 4.65493 -1.72132 0
M  V30 144 H 8.4487 5.35616 -2.94831 0
M  V30 145 H 12.6227 5.8244 -3.81755 0
M  V30 146 H 10.2497 6.17298 -4.43675 0
M  V30 147 N 11.8248 0.280983 1.55075 0
M  V30 148 C 12.7548 -0.597469 2.25727 0
M  V30 149 C 13.7358 -1.15417 1.24952 0
M  V30 150 O 14.9208 -1.18722 1.53684 0
M  V30 151 C 12.0508 -1.7789 2.98283 0
M  V30 152 C 11.0048 -1.35347 4.06036 0
M  V30 153 C 10.3308 -2.61846 4.66198 0
M  V30 154 C 11.6308 -0.499354 5.19907 0
M  V30 155 H 13.3248 -0.00824265 2.99399 0
M  V30 156 H 10.8708 -0.0025244 1.44 0
M  V30 157 H 12.8238 -2.39937 3.46422 0
M  V30 158 H 11.5478 -2.39405 2.22155 0
M  V30 159 H 10.2068 -0.756156 3.58717 0
M  V30 160 H 9.8548 -3.21632 3.86732 0
M  V30 161 H 9.5548 -2.3409 5.38958 0
M  V30 162 H 11.0788 -3.24732 5.1709 0
M  V30 163 H 12.4928 -1.02498 5.64063 0
M  V30 164 H 10.8898 -0.316424 5.99265 0
M  V30 165 H 11.9598 0.480459 4.82514 0
M  V30 166 N 13.3029 -1.57598 0.00835791 0
M  V30 167 C 14.5499 -1.90928 -0.674732 0
M  V30 168 C 14.8779 -0.88277 -1.73313 0
M  V30 169 O 14.1329 0.111294 -1.95383 0
M  V30 170 C 14.4319 -3.3101 -1.34787 0
M  V30 171 C 14.0979 -4.48922 -0.421861 0
M  V30 172 C 12.7599 -4.8091 -0.166927 0
M  V30 173 C 15.1119 -5.20755 0.215211 0
M  V30 174 C 12.4399 -5.821 0.733232 0
M  V30 175 C 14.7919 -6.22905 1.1033 0
M  V30 176 C 13.4559 -6.53346 1.36733 0
M  V30 177 H 12.7259 -0.698656 -0.246902 0
M  V30 178 H 15.3729 -1.91387 0.0656779 0
M  V30 179 H 13.6779 -3.26714 -2.16253 0
M  V30 180 H 15.3749 -3.54061 -1.8826 0
M  V30 181 H 11.9649 -4.23934 -0.630729 0
M  V30 182 H 16.1489 -4.9629 0.0312829 0
M  V30 183 H 11.4049 -6.04042 0.945712 0
M  V30 184 H 15.5789 -6.77694 1.60325 0
M  V30 185 H 13.2059 -7.31573 2.06652 0
M  V30 186 N 14.781 0.264519 -1.55364 0
M  V30 187 C 15.729 1.34702 -1.89626 0
M  V30 188 C 16.723 1.50712 -0.773459 0
M  V30 189 O 17.929 1.52395 -0.957897 0
M  V30 190 H 14.304 0.450682 -0.601988 0
M  V30 191 H 16.275 1.0306 -2.80038 0
M  V30 192 C 15.024 2.6989 -2.19214 0
M  V30 193 H 14.347 2.58365 -3.05103 0
M  V30 194 H 15.787 3.44553 -2.47102 0
M  V30 195 C 14.246 3.21637 -1.00254 0
M  V30 196 O 14.776 4.00973 -0.241501 0
M  V30 197 N 12.982 2.7943 -0.797938 0
M  V30 198 H 12.529 2.15026 -1.4185 0
M  V30 199 H 12.487 3.144 -0.00363422 0
M  V30 200 N 16.2591 1.48442 0.529413 0
M  V30 201 C 17.1891 1.65902 1.64313 0
M  V30 202 C 18.1701 0.507897 1.6234 0
M  V30 203 O 19.3551 0.740503 1.79528 0
M  V30 204 C 16.4851 1.69911 3.02898 0
M  V30 205 C 15.4391 2.8453 3.19729 0
M  V30 206 C 14.7651 2.73629 4.59381 0
M  V30 207 C 16.0651 4.25821 3.02447 0
M  V30 208 H 17.7591 2.5914 1.49955 0
M  V30 209 H 15.3051 1.24709 0.719982 0
M  V30 210 H 17.2581 1.80715 3.80684 0
M  V30 211 H 15.9821 0.732524 3.18279 0
M  V30 212 H 14.6411 2.73283 2.44361 0
M  V30 213 H 14.2891 1.74938 4.71599 0
M  V30 214 H 13.9891 3.50541 4.71588 0
M  V30 215 H 15.5131 2.86401 5.39265 0
M  V30 216 H 16.9271 4.37898 3.70024 0
M  V30 217 H 15.3241 5.03735 3.26146 0
M  V30 218 H 16.3941 4.42244 1.98867 0
M  V30 219 N 17.7372 -0.778329 1.37039 0
M  V30 220 C 18.9862 -1.53189 1.3121 0
M  V30 221 C 19.2992 -1.95328 -0.103095 0
M  V30 222 O 20.5052 -2.70012 -0.283826 0
M  V30 223 C 18.9612 -2.76591 2.30272 0
M  V30 224 C 18.5692 -2.41577 3.77286 0
M  V30 225 C 20.3132 -3.5455 2.33441 0
M  V30 226 C 18.2202 -3.61441 4.68096 0
M  V30 227 H 17.1502 -0.5751 0.487622 0
M  V30 228 H 19.8012 -0.853101 1.62464 0
M  V30 229 H 18.1832 -3.46326 1.92027 0
M  V30 230 H 19.3572 -1.79668 4.2433 0
M  V30 231 H 17.6722 -1.76806 3.76999 0
M  V30 232 H 20.2692 -4.43628 2.98493 0
M  V30 233 H 20.6122 -3.93936 1.34611 0
M  V30 234 H 21.1452 -2.91805 2.7036 0
M  V30 235 H 17.8842 -3.27142 5.6803 0
M  V30 236 H 17.4042 -4.22478 4.25761 0
M  V30 237 H 19.0832 -4.28335 4.8491 0
M  V30 238 N 19.2153 -1.21501 -1.00376 0
M  V30 239 C 20.4643 -1.02718 -1.73586 0
M  V30 240 C 20.7773 0.439589 -1.90596 0
M  V30 241 O 21.9833 0.746848 -2.61026 0
M  V30 242 C 20.4393 -1.78929 -3.1227 0
M  V30 243 C 20.0473 -3.29783 -3.03228 0
M  V30 244 C 21.7913 -1.68557 -3.89601 0
M  V30 245 C 19.6983 -3.98479 -4.36999 0
M  V30 246 H 18.6283 -0.380733 -0.650814 0
M  V30 247 H 21.2793 -1.45248 -1.1214 0
M  V30 248 H 19.6613 -1.29192 -3.74333 0
M  V30 249 H 20.8353 -3.86832 -2.50395 0
M  V30 250 H 19.1503 -3.40711 -2.39385 0
M  V30 251 H 21.7473 -2.17211 -4.88593 0
M  V30 252 H 22.0903 -0.644021 -4.11288 0
M  V30 253 H 22.6233 -2.15778 -3.34193 0
M  V30 254 H 19.3623 -5.02841 -4.20513 0
M  V30 255 H 18.8823 -3.46219 -4.89788 0
M  V30 256 H 20.5613 -4.03462 -5.05794 0
M  V30 257 N 20.6934 1.19889 -1.02296 0
M  V30 258 C 21.9334 1.91125 -0.724602 0
M  V30 259 C 22.2974 1.77464 0.732835 0
M  V30 260 O 23.4984 2.43241 1.144 0
M  V30 261 C 21.7694 3.38187 -1.15604 0
M  V30 262 S 23.3284 4.27702 -0.980621 0
M  V30 263 H 20.1464 0.66018 -0.263976 0
M  V30 264 H 22.7484 1.44978 -1.31155 0
M  V30 265 H 21.4524 3.45653 -2.21251 0
M  V30 266 H 20.9834 3.89363 -0.562131 0
M  V30 267 H 22.9984 4.96073 0.112225 0
M  V30 268 N 22.1715 0.800033 1.35784 0
M  V30 269 C 23.4115 0.382891 2.00782 0
M  V30 270 C 23.7755 -1.02891 1.62103 0
M  V30 271 O 24.9765 -1.54771 2.19771 0
M  V30 272 C 23.2475 0.553299 3.53091 0
M  V30 273 S 24.8065 0.225608 4.3822 0
M  V30 274 H 21.6245 0.145737 0.695904 0
M  V30 275 H 24.2265 1.04085 1.65489 0
M  V30 276 H 22.9305 1.58091 3.78729 0
M  V30 277 H 22.4615 -0.120214 3.93216 0
M  V30 278 H 24.4765 -0.969074 4.86645 0
M  V30 279 N 23.6496 -1.47581 0.552962 0
M  V30 280 C 24.5976 -2.31648 -0.21023 0
M  V30 281 C 25.5916 -1.42663 -0.913432 0
M  V30 282 O 26.7976 -1.5945 -0.835201 0
M  V30 283 H 23.1726 -0.746989 -0.0866676 0
M  V30 284 H 25.1436 -2.93869 0.518051 0
M  V30 285 C 23.8926 -3.25226 -1.22976 0
M  V30 286 H 23.2156 -3.93658 -0.698077 0
M  V30 287 H 24.6556 -3.86889 -1.73473 0
M  V30 288 C 23.1146 -2.48448 -2.27542 0
M  V30 289 O 23.6446 -2.22585 -3.34393 0
M  V30 290 N 21.8506 -2.09532 -2.01357 0
M  V30 291 H 21.3976 -2.30765 -1.14478 0
M  V30 292 H 21.3556 -1.58476 -2.71538 0
M  V30 293 N 25.1277 -0.289203 -1.54924 0
M  V30 294 C 26.3737 0.323998 -2.00195 0
M  V30 295 C 26.7067 1.54441 -1.17735 0
M  V30 296 O 25.9817 1.92875 -0.250878 0
M  V30 297 C 26.2647 0.692276 -3.53383 0
M  V30 298 C 26.1177 -0.536457 -4.46589 0
M  V30 299 C 27.4367 1.52335 -4.12895 0
M  V30 300 H 24.5557 0.116289 -0.727768 0
M  V30 301 H 27.1977 -0.398954 -1.85764 0
M  V30 302 H 25.3477 1.30822 -3.65811 0
M  V30 303 H 27.0197 -1.17499 -4.46085 0
M  V30 304 H 25.2627 -1.17192 -4.1767 0
M  V30 305 H 25.9337 -0.234806 -5.515 0
M  V30 306 H 28.4097 1.00302 -4.0383 0
M  V30 307 H 27.2857 1.74982 -5.20262 0
M  V30 308 H 27.5467 2.50886 -3.64018 0
M  V30 309 N 26.6058 1.57591 -0.0167156 0
M  V30 310 C 27.8338 1.95575 0.675128 0
M  V30 311 C 28.2488 0.892542 1.6637 0
M  V30 312 O 27.6058 -0.126912 1.82058 0
M  V30 313 C 27.6568 3.33608 1.39239 0
M  V30 314 O 27.3778 4.3585 0.443444 0
M  V30 315 C 28.8788 3.86151 2.17721 0
M  V30 316 H 26.0988 0.644423 0.186978 0
M  V30 317 H 28.6428 2.0437 -0.0728 0
M  V30 318 H 26.7978 3.2607 2.09182 0
M  V30 319 H 27.2118 5.158 0.951358 0
M  V30 320 H 28.6858 4.85114 2.63379 0
M  V30 321 H 29.1628 3.19738 3.01105 0
M  V30 322 H 29.7688 3.96918 1.52761 0
M  V30 323 N 28.0839 -0.256276 1.55502 0
M  V30 324 C 29.3089 -1.00766 1.81276 0
M  V30 325 C 29.7339 -1.78524 0.59252 0
M  V30 326 O 29.0919 -1.75413 -0.45827 0
M  V30 327 C 29.1399 -1.92869 3.04687 0
M  V30 328 O 28.2439 -3.019 2.80945 0
M  V30 329 H 27.5849 -0.287224 0.598664 0
M  V30 330 H 30.1149 -0.280109 2.02674 0
M  V30 331 H 30.1249 -2.34511 3.33869 0
M  V30 332 H 28.7999 -1.35689 3.93143 0
M  V30 333 H 27.3769 -2.64454 2.62904 0
M  V30 334 N 29.562 -1.4872 -0.521534 0
M  V30 335 C 30.811 -1.56419 -1.27341 0
M  V30 336 C 31.124 -0.246805 -1.94037 0
M  V30 337 O 32.33 -0.202122 -2.70747 0
M  V30 338 C 30.786 -2.75896 -2.31105 0
M  V30 339 C 30.394 -4.14311 -1.70441 0
M  V30 340 C 32.138 -2.92913 -3.07249 0
M  V30 341 C 30.045 -5.25038 -2.72194 0
M  V30 342 H 28.975 -0.582344 -0.478949 0
M  V30 343 H 31.626 -1.75071 -0.549779 0
M  V30 344 H 30.008 -2.50697 -3.06541 0
M  V30 345 H 31.182 -4.49564 -1.01136 0
M  V30 346 H 29.497 -4.02482 -1.06759 0
M  V30 347 H 32.094 -3.72805 -3.83302 0
M  V30 348 H 32.437 -2.02689 -3.63625 0
M  V30 349 H 32.97 -3.18054 -2.38928 0
M  V30 350 H 29.709 -6.17255 -2.20627 0
M  V30 351 H 29.229 -4.94263 -3.39801 0
M  V30 352 H 30.908 -5.53508 -3.35019 0
M  V30 353 N 31.0401 0.771051 -1.3745 0
M  V30 354 C 32.2701 1.55789 -1.35696 0
M  V30 355 C 32.6781 1.89107 0.0594523 0
M  V30 356 O 32.0211 1.51984 1.03183 0
M  V30 357 C 32.0831 2.89515 -2.13123 0
M  V30 358 C 31.7471 2.78829 -3.62082 0
M  V30 359 C 32.7441 2.49812 -4.5595 0
M  V30 360 C 30.4291 2.9683 -4.05213 0
M  V30 361 C 32.4231 2.38923 -5.90927 0
M  V30 362 C 30.1101 2.85562 -5.40276 0
M  V30 363 C 31.1081 2.56649 -6.32946 0
M  V30 364 O 30.7961 2.45408 -7.65526 0
M  V30 365 H 30.5281 0.489257 -0.466481 0
M  V30 366 H 33.0821 0.963446 -1.81403 0
M  V30 367 H 31.3121 3.51081 -1.62107 0
M  V30 368 H 33.0011 3.50915 -2.03994 0
M  V30 369 H 33.7671 2.3559 -4.23937 0
M  V30 370 H 29.6461 3.18335 -3.33442 0
M  V30 371 H 33.1901 2.16277 -6.63227 0
M  V30 372 H 29.0871 2.99351 -5.71891 0
M  V30 373 H 29.8551 2.60753 -7.75855 0
M  V30 374 N 32.5182 1.22032 0.997298 0
M  V30 375 C 33.7662 1.04016 1.73278 0
M  V30 376 C 34.0872 -0.426255 1.90284 0
M  V30 377 O 33.3572 -1.30694 1.45931 0
M  V30 378 H 31.9372 0.381897 0.642 0
M  V30 379 H 34.5992 1.5347 1.20137 0
M  V30 380 H 33.6952 1.51441 2.72896 0
M  V30 381 N 33.9963 -1.19345 1.0293 0
M  V30 382 C 35.2263 -1.92717 0.744563 0
M  V30 383 C 35.6343 -1.75751 -0.700579 0
M  V30 384 O 34.9773 -1.07703 -1.48815 0
M  V30 385 C 35.0393 -3.44828 1.01657 0
M  V30 386 C 34.7033 -3.85564 2.45335 0
M  V30 387 C 35.7003 -3.90286 3.43472 0
M  V30 388 C 33.3853 -4.1719 2.79746 0
M  V30 389 C 35.3793 -4.26065 4.74075 0
M  V30 390 C 33.0663 -4.52642 4.10559 0
M  V30 391 C 34.0643 -4.57054 5.07534 0
M  V30 392 O 33.7523 -4.91685 6.36004 0
M  V30 393 H 33.4843 -0.618977 0.271742 0
M  V30 394 H 36.0383 -1.52415 1.37691 0
M  V30 395 H 34.2683 -3.85314 0.327084 0
M  V30 396 H 35.9573 -3.99437 0.721427 0
M  V30 397 H 36.7233 -3.66002 3.18225 0
M  V30 398 H 32.6023 -4.1294 2.04943 0
M  V30 399 H 36.1463 -4.29423 5.49765 0
M  V30 400 H 32.0433 -4.76383 4.35579 0
M  V30 401 H 32.8113 -5.09631 6.40483 0
M  V30 402 N 35.4744 -0.807222 -1.35358 0
M  V30 403 C 36.7234 -0.384376 -1.98004 0
M  V30 404 C 37.0364 1.0543 -1.64754 0
M  V30 405 O 38.2424 1.58029 -2.20769 0
M  V30 406 C 36.6984 -0.636326 -3.5423 0
M  V30 407 C 36.3064 -2.08759 -3.96388 0
M  V30 408 C 38.0504 -0.278869 -4.23583 0
M  V30 409 C 35.9574 -2.28525 -5.45463 0
M  V30 410 H 34.8874 -0.139986 -0.740891 0
M  V30 411 H 37.5384 -0.991369 -1.54415 0
M  V30 412 H 35.9204 0.0406256 -3.95979 0
M  V30 413 H 37.0944 -2.8024 -3.6579 0
M  V30 414 H 35.4094 -2.40497 -3.39926 0
M  V30 415 H 38.0064 -0.404599 -5.33167 0
M  V30 416 H 38.3494 0.775012 -4.09022 0
M  V30 417 H 38.8824 -0.909764 -3.87257 0
M  V30 418 H 35.6214 -3.32361 -5.64992 0
M  V30 419 H 35.1414 -1.61569 -5.77629 0
M  V30 420 H 36.8204 -2.10109 -6.11934 0
M  V30 421 N 36.9525 1.47285 -0.560781 0
M  V30 422 C 37.9025 2.27073 0.205384 0
M  V30 423 C 38.8865 1.34569 0.882044 0
M  V30 424 O 40.0785 1.58899 0.77976 0
M  V30 425 C 37.2075 3.20414 1.23247 0
M  V30 426 C 36.2935 4.20399 0.559041 0
M  V30 427 N 36.6845 5.04423 -0.372927 0
M  V30 428 C 34.9825 4.38536 0.812522 0
M  V30 429 C 35.6835 5.76655 -0.764446 0
M  V30 430 N 34.6595 5.43471 -0.11848 0
M  V30 431 H 38.4615 2.89422 -0.511117 0
M  V30 432 H 35.9755 1.57868 -0.380975 0
M  V30 433 H 37.9725 3.76262 1.79534 0
M  V30 434 H 36.6325 2.59623 1.95002 0
M  V30 435 H 37.6435 5.1248 -0.747287 0
M  V30 436 H 34.3205 3.88913 1.51832 0
M  V30 437 H 35.7105 6.54238 -1.53045 0
M  V30 438 N 38.4306 0.297415 1.54768 0
M  V30 439 C 39.3786 -0.596051 2.24833 0
M  V30 440 C 40.3726 -1.13992 1.25308 0
M  V30 441 O 41.5786 -1.09098 1.4317 0
M  V30 442 H 37.9536 -0.210814 0.721846 0
M  V30 443 H 39.9246 0.0174667 2.98395 0
M  V30 444 C 38.6736 -1.75818 2.99972 0
M  V30 445 H 37.9966 -1.3489 3.76357 0
M  V30 446 H 39.4366 -2.35949 3.52284 0
M  V30 447 C 37.8956 -2.66014 2.06732 0
M  V30 448 O 38.4256 -3.67009 1.63302 0
M  V30 449 N 36.6316 -2.33669 1.72763 0
M  V30 450 H 36.1786 -1.51586 2.08277 0
M  V30 451 H 36.1366 -2.94285 1.10652 0
M  V30 452 N 39.9087 -1.5758 0.0250728 0
M  V30 453 C 41.1547 -1.91917 -0.655413 0
M  V30 454 C 41.4877 -0.901433 -1.72011 0
M  V30 455 O 40.7627 0.0764069 -1.9435 0
M  V30 456 C 41.0457 -3.36751 -1.27558 0
M  V30 457 C 40.8987 -4.49258 -0.220719 0
M  V30 458 C 42.2177 -3.81469 -2.19475 0
M  V30 459 H 39.3367 -0.697925 -0.23679 0
M  V30 460 H 41.9787 -1.89825 0.0815036 0
M  V30 461 H 40.1287 -3.38664 -1.90365 0
M  V30 462 H 41.8007 -4.59478 0.409601 0
M  V30 463 H 40.0437 -4.31415 0.454264 0
M  V30 464 H 40.7147 -5.47618 -0.694175 0
M  V30 465 H 43.1907 -3.81266 -1.66659 0
M  V30 466 H 42.0667 -4.83512 -2.59822 0
M  V30 467 H 42.3277 -3.16744 -3.08424 0
M  V30 468 N 41.3868 0.248026 -1.55636 0
M  V30 469 C 42.8028 0.596483 -1.48035 0
M  V30 470 C 43.0028 1.88386 -0.715039 0
M  V30 471 O 42.0588 2.51319 -0.243944 0
M  V30 472 C 43.3718 0.700258 -2.92433 0
M  V30 473 C 44.9198 0.792659 -3.02797 0
M  V30 474 C 45.3948 0.928005 -4.485 0
M  V30 475 N 46.8858 0.992903 -4.52433 0
M  V30 476 C 47.6208 1.11687 -5.62418 0
M  V30 477 N 47.1168 1.20645 -6.82214 0
M  V30 478 N 48.9098 1.14994 -5.50212 0
M  V30 479 H 41.0608 -0.597109 -2.03834 0
M  V30 480 H 43.3238 -0.205925 -0.925364 0
M  V30 481 H 43.0298 -0.175658 -3.51261 0
M  V30 482 H 42.9038 1.57255 -3.42857 0
M  V30 483 H 45.2908 1.65903 -2.4405 0
M  V30 484 H 45.3718 -0.104762 -2.55585 0
M  V30 485 H 45.0158 0.0661971 -5.07857 0
M  V30 486 H 44.9458 1.84045 -4.93391 0
M  V30 487 H 47.4368 0.935064 -3.66149 0
M  V30 488 H 47.7498 1.30008 -7.61786 0
M  V30 489 H 46.0948 1.17605 -6.84977 0
M  V30 490 H 49.2858 1.07643 -4.55555 0
M  V30 491 H 49.4588 1.24311 -6.35965 0
M  V30 492 N 42.8649 1.48995 0.513639 0
M  V30 493 C 44.0899 1.61792 1.29762 0
M  V30 494 C 44.5149 0.284475 1.85936 0
M  V30 495 O 43.8729 -0.746185 1.65232 0
M  V30 496 C 43.9209 2.67993 2.41272 0
M  V30 497 O 43.0249 2.26287 3.44772 0
M  V30 498 H 42.3659 0.541963 0.38363 0
M  V30 499 H 44.8959 1.95097 0.616307 0
M  V30 500 H 44.9059 2.89772 2.87221 0
M  V30 501 H 43.5809 3.64791 1.9975 0
M  V30 502 H 42.1579 2.14788 3.04829 0
M  V30 503 N 44.343 -0.763751 1.37857 0
M  V30 504 C 45.273 -1.89103 1.36975 0
M  V30 505 C 46.254 -1.68439 0.237152 0
M  V30 506 O 47.439 -1.8918 0.438713 0
M  V30 507 C 44.569 -3.26496 1.18395 0
M  V30 508 C 43.523 -3.61741 2.28751 0
M  V30 509 C 42.849 -4.97762 1.95286 0
M  V30 510 C 44.149 -3.67665 3.70972 0
M  V30 511 H 45.843 -1.90099 2.31307 0
M  V30 512 H 43.389 -0.91319 1.11341 0
M  V30 513 H 45.342 -4.05003 1.16406 0
M  V30 514 H 44.066 -3.25955 0.205215 0
M  V30 515 H 42.725 -2.85547 2.29909 0
M  V30 516 H 42.373 -4.93769 0.959221 0
M  V30 517 H 42.073 -5.22313 2.69189 0
M  V30 518 H 43.597 -5.7866 1.94898 0
M  V30 519 H 45.011 -4.36307 3.719 0
M  V30 520 H 43.408 -4.03718 4.43995 0
M  V30 521 H 44.478 -2.68134 4.0402 0
M  V30 522 N 45.8211 -1.22559 -0.990812 0
M  V30 523 C 46.7311 -1.01394 -2.11557 0
M  V30 524 C 47.7471 0.0383962 -1.73958 0
M  V30 525 O 48.9231 -0.154787 -2.00804 0
M  V30 526 C 45.9881 -0.596569 -3.41529 0
M  V30 527 C 45.0491 -1.72276 -3.93217 0
M  V30 528 C 44.2821 -1.32521 -5.16985 0
M  V30 529 O 44.5051 -0.204909 -5.70032 0
M  V30 530 O 43.4391 -2.14247 -5.62478 0
M  V30 531 H 47.2651 -1.95633 -2.32296 0
M  V30 532 H 44.8501 -1.01172 -1.0993 0
M  V30 533 H 46.7321 -0.374263 -4.19735 0
M  V30 534 H 45.4071 0.316939 -3.22145 0
M  V30 535 H 44.3141 -1.99961 -3.16174 0
M  V30 536 H 45.6471 -2.61421 -4.17037 0
M  V30 537 N 47.2992 1.18797 -1.03562 0
M  V30 538 C 48.7102 1.70322 -0.764676 0
M  V30 539 C 49.0612 1.82708 0.714996 0
M  V30 540 O 48.1862 1.50299 1.55689 0
M  V30 541 C 48.7812 3.09356 -1.38145 0
M  V30 542 C 47.3402 3.58114 -1.15895 0
M  V30 543 C 46.4872 2.34798 -1.4753 0
M  V30 544 H 49.4382 1.03543 -1.20268 0
M  V30 545 H 49.4592 3.72378 -0.781977 0
M  V30 546 H 48.9712 3.00309 -2.45837 0
M  V30 547 H 47.0722 3.72464 -0.100544 0
M  V30 548 H 47.1852 4.4184 -1.8524 0
M  V30 549 H 45.5492 2.38464 -0.894829 0
M  V30 550 H 46.3322 2.28375 -2.56319 0
M  V30 551 N 48.7773 0.814389 1.34928 0
M  V30 552 C 50.0073 0.41054 2.0248 0
M  V30 553 C 50.4153 -0.985625 1.61499 0
M  V30 554 O 49.7583 -1.64781 0.811976 0
M  V30 555 C 49.8203 0.423384 3.56998 0
M  V30 556 C 49.4843 1.77141 4.21272 0
M  V30 557 C 50.4813 2.73093 4.42398 0
M  V30 558 C 48.1663 2.05755 4.58225 0
M  V30 559 C 50.1603 3.95838 4.9959 0
M  V30 560 C 47.8473 3.28762 5.1513 0
M  V30 561 C 48.8453 4.23621 5.35755 0
M  V30 562 O 48.5333 5.44456 5.91458 0
M  V30 563 H 48.2653 0.163997 0.655806 0
M  V30 564 H 50.8193 1.10155 1.73364 0
M  V30 565 H 49.0493 -0.324276 3.85338 0
M  V30 566 H 50.7383 0.0407683 4.0588 0
M  V30 567 H 51.5043 2.5228 4.14222 0
M  V30 568 H 47.3833 1.32727 4.4148 0
M  V30 569 H 50.9273 4.69891 5.15605 0
M  V30 570 H 46.8243 3.49443 5.42734 0
M  V30 571 H 47.5923 5.4586 6.09901 0
M  V30 572 N 50.2554 -1.46986 0.568584 0
M  V30 573 C 51.5044 -2.01646 0.0465894 0
M  V30 574 C 51.8174 -1.44721 -1.31587 0
M  V30 575 O 53.0234 -1.91113 -1.92842 0
M  V30 576 C 51.4794 -3.59885 0.032752 0
M  V30 577 C 51.0874 -4.25804 1.39266 0
M  V30 578 C 52.8314 -4.22255 -0.436038 0
M  V30 579 C 50.7384 -5.76081 1.33732 0
M  V30 580 H 49.6684 -0.753876 0.013647 0
M  V30 581 H 52.3194 -1.68864 0.718131 0
M  V30 582 H 50.7014 -3.8968 -0.704669 0
M  V30 583 H 51.8754 -4.07637 2.1487 0
M  V30 584 H 50.1904 -3.7547 1.80032 0
M  V30 585 H 52.7874 -5.32394 -0.49602 0
M  V30 586 H 53.1304 -3.90212 -1.45053 0
M  V30 587 H 53.6634 -3.97033 0.246877 0
M  V30 588 H 50.4024 -6.12761 2.32817 0
M  V30 589 H 49.9224 -5.96553 0.623267 0
M  V30 590 H 51.6014 -6.38518 1.0442 0
M  V30 591 N 51.7335 -0.305618 -1.54608 0
M  V30 592 C 52.6805 0.568421 -2.23691 0
M  V30 593 C 53.6505 1.12592 -1.22116 0
M  V30 594 O 54.8355 1.16959 -1.50749 0
M  V30 595 C 51.9755 1.7322 -2.98477 0
M  V30 596 C 51.0885 1.20566 -4.14835 0
M  V30 597 C 50.2235 2.33368 -4.77193 0
M  V30 598 C 49.2625 1.7787 -5.85686 0
M  V30 599 N 48.3995 2.84263 -6.4198 0
M  V30 600 H 53.2395 -0.0272867 -2.97988 0
M  V30 601 H 50.7765 -0.0252363 -1.47078 0
M  V30 602 H 52.7345 2.41675 -3.40072 0
M  V30 603 H 51.3645 2.29947 -2.26548 0
M  V30 604 H 50.4165 0.413223 -3.78149 0
M  V30 605 H 51.7285 0.759417 -4.92985 0
M  V30 606 H 50.8825 3.09761 -5.21664 0
M  V30 607 H 49.6215 2.8132 -3.98385 0
M  V30 608 H 48.6265 0.99968 -5.40635 0
M  V30 609 H 49.8515 1.30816 -6.66381 0
M  V30 610 H 47.7975 3.31541 -5.66053 0
M  V30 611 H 47.7145 2.44149 -7.15491 0
M  V30 612 H 48.9825 3.6054 -6.91109 0
M  V30 613 N 53.2116 1.57565 -0.0334293 0
M  V30 614 C 54.1596 2.1164 0.96496 0
M  V30 615 C 55.1536 1.04398 1.33407 0
M  V30 616 O 56.3596 1.22828 1.3158 0
M  V30 617 H 52.7346 0.676222 0.32898 0
M  V30 618 H 54.7056 2.94455 0.483614 0
M  V30 619 C 53.4546 2.66207 2.23672 0
M  V30 620 H 52.7776 3.48378 1.96145 0
M  V30 621 H 54.2176 3.07685 2.9173 0
M  V30 622 C 52.6766 1.59151 2.96939 0
M  V30 623 O 53.2066 0.993858 3.89211 0
M  V30 624 N 51.4126 1.31093 2.59351 0
M  V30 625 H 50.9596 1.7988 1.84393 0
M  V30 626 H 50.9176 0.596889 3.08682 0
M  V30 627 N 54.6897 -0.239769 1.55765 0
M  V30 628 C 55.9667 -0.990056 1.68693 0
M  V30 629 C 56.3467 -2.03107 0.5754 0
M  V30 630 O 55.6947 -2.24604 -0.42017 0
M  V30 631 C 55.9047 -1.61696 3.09282 0
M  V30 632 C 57.2527 -2.11613 3.6811 0
M  V30 633 O 58.2767 -1.71624 3.12127 0
M  V30 634 O 57.1357 -2.85057 4.66267 0
M  V30 635 H 54.2297 -0.461299 0.686391 0
M  V30 636 H 56.7757 -0.232991 1.68093 0
M  V30 637 H 55.5477 -0.864357 3.81634 0
M  V30 638 H 55.1707 -2.44005 3.13923 0
M  V30 639 N 56.1678 -1.49265 -0.50573 0
M  V30 640 C 57.0998 -1.617 -1.62437 0
M  V30 641 C 58.1128 -0.499924 -1.54934 0
M  V30 642 O 59.3018 -0.771785 -1.60953 0
M  V30 643 C 56.4018 -1.5533 -3.01207 0
M  V30 644 C 55.5748 -2.8249 -3.33943 0
M  V30 645 C 54.6338 -2.69238 -4.52103 0
M  V30 646 O 53.6598 -3.43167 -4.5412 0
M  V30 647 N 54.8618 -1.80468 -5.51735 0
M  V30 648 H 57.6268 -2.58177 -1.52199 0
M  V30 649 H 55.1878 -1.46294 -0.693511 0
M  V30 650 H 57.1798 -1.44125 -3.78167 0
M  V30 651 H 55.7498 -0.667297 -3.05395 0
M  V30 652 H 54.9698 -3.08081 -2.45926 0
M  V30 653 H 56.2578 -3.66802 -3.5261 0
M  V30 654 H 55.6558 -1.19653 -5.52901 0
M  V30 655 H 54.2128 -1.75188 -6.27816 0
M  V30 656 N 57.6459 0.756429 -1.3826 0
M  V30 657 C 58.8949 1.51082 -1.3363 0
M  V30 658 C 59.2079 1.95467 0.0720068 0
M  V30 659 O 60.4139 2.7043 0.240834 0
M  V30 660 C 58.8699 2.72893 -2.34644 0
M  V30 661 C 58.4779 2.35544 -3.81081 0
M  V30 662 C 60.2219 3.50791 -2.39052 0
M  V30 663 C 58.1289 3.53948 -4.73787 0
M  V30 664 H 57.0589 0.56727 -0.49671 0
M  V30 665 H 59.7099 0.827147 -1.638 0
M  V30 666 H 58.0919 3.43227 -1.97513 0
M  V30 667 H 59.2659 1.72894 -4.27135 0
M  V30 668 H 57.5809 1.70786 -3.79764 0
M  V30 669 H 60.1779 4.38823 -3.05513 0
M  V30 670 H 60.5209 3.91745 -1.40861 0
M  V30 671 H 61.0539 2.87467 -2.74968 0
M  V30 672 H 57.7929 3.18064 -5.73163 0
M  V30 673 H 57.3129 4.15651 -4.32428 0
M  V30 674 H 58.9919 4.20566 -4.91663 0
M  V30 675 N 59.124 1.23083 0.984299 0
M  V30 676 C 60.071 1.00854 2.07598 0
M  V30 677 C 61.041 -0.0726709 1.65941 0
M  V30 678 O 62.226 0.0786535 1.90638 0
M  V30 679 C 59.366 0.601645 3.39815 0
M  V30 680 C 58.479 1.75456 3.94765 0
M  V30 681 C 57.614 1.29482 5.15177 0
M  V30 682 C 56.653 2.41873 5.62284 0
M  V30 683 N 55.79 1.96885 6.73929 0
M  V30 684 H 60.63 1.943 2.25946 0
M  V30 685 H 58.167 0.968001 1.10762 0
M  V30 686 H 60.125 0.346854 4.15756 0
M  V30 687 H 58.755 -0.295803 3.21442 0
M  V30 688 H 57.807 2.12346 3.15616 0
M  V30 689 H 59.119 2.59965 4.25699 0
M  V30 690 H 58.273 0.997923 5.98437 0
M  V30 691 H 57.012 0.420046 4.85888 0
M  V30 692 H 56.017 2.72342 4.77608 0
M  V30 693 H 57.242 3.29881 5.93595 0
M  V30 694 H 55.188 1.11782 6.46406 0
M  V30 695 H 55.105 2.74956 7.04227 0
M  V30 696 H 56.373 1.70289 7.60672 0
M  V30 697 N 60.6021 -1.18246 1.0419 0
M  V30 698 C 61.5501 -2.23968 0.627792 0
M  V30 699 C 62.5441 -1.65828 -0.346019 0
M  V30 700 O 63.7501 -1.78733 -0.213175 0
M  V30 701 H 60.1251 -0.728939 0.184802 0
M  V30 702 H 62.0961 -2.56202 1.52981 0
M  V30 703 C 60.8451 -3.47699 0.00796591 0
M  V30 704 H 60.1681 -3.92734 0.748347 0
M  V30 705 H 61.6081 -4.23294 -0.24455 0
M  V30 706 C 60.0671 -3.13153 -1.24246 0
M  V30 707 O 60.5971 -3.27003 -2.33307 0
M  V30 708 N 58.8031 -2.67467 -1.13622 0
M  V30 709 H 58.3501 -2.56396 -0.248734 0
M  V30 710 H 58.3081 -2.44724 -1.97377 0
M  V30 711 N 62.0802 -0.821533 -1.34494 0
M  V30 712 C 63.3102 -0.421272 -2.02259 0
M  V30 713 C 63.7182 0.977047 -1.6202 0
M  V30 714 O 63.0612 1.64348 -0.820703 0
M  V30 715 C 63.1232 -0.44231 -3.56769 0
M  V30 716 C 62.7872 -1.79372 -4.20327 0
M  V30 717 C 63.7842 -2.75435 -4.40944 0
M  V30 718 C 61.4692 -2.08182 -4.57127 0
M  V30 719 C 63.4632 -3.98482 -4.97484 0
M  V30 720 C 61.1502 -3.31489 -5.13379 0
M  V30 721 C 62.1482 -4.26457 -5.33501 0
M  V30 722 O 61.8362 -5.47585 -5.88562 0
M  V30 723 H 61.5682 -0.167473 -0.654927 0
M  V30 724 H 64.1222 -1.11073 -1.72777 0
M  V30 725 H 62.3522 0.303836 -3.85505 0
M  V30 726 H 64.0412 -0.0622925 -4.05852 0
M  V30 727 H 64.8072 -2.54473 -4.12878 0
M  V30 728 H 60.6862 -1.35066 -4.4077 0
M  V30 729 H 64.2302 -4.72618 -5.13106 0
M  V30 730 H 60.1272 -3.52316 -5.40873 0
M  V30 731 H 60.8952 -5.49086 -6.06998 0
M  V30 732 N 63.5583 1.46682 -0.576371 0
M  V30 733 C 64.7833 2.07304 -0.0630475 0
M  V30 734 C 65.2083 1.42329 1.2298 0
M  V30 735 O 64.5663 0.504865 1.74129 0
M  V30 736 C 64.6143 3.60472 0.095895 0
M  V30 737 O 63.7183 3.95927 1.15394 0
M  V30 738 H 63.0593 0.661288 -0.0599463 0
M  V30 739 H 65.5893 1.88417 -0.797511 0
M  V30 740 H 65.5993 4.06865 0.304071 0
M  V30 741 H 64.2743 4.07157 -0.84828 0
M  V30 742 H 62.8513 3.61252 0.924724 0
M  V30 743 N 65.0364 0.313813 1.54444 0
M  V30 744 C 66.2614 -0.296681 2.05267 0
M  V30 745 C 66.6864 -1.45757 1.18897 0
M  V30 746 O 66.0444 -1.80239 0.195886 0
M  V30 747 C 66.0924 -0.71831 3.53373 0
M  V30 748 O 65.1964 -1.82175 3.69981 0
M  V30 749 H 64.5374 -0.0554061 0.661684 0
M  V30 750 H 67.0674 0.459387 1.99376 0
M  V30 751 H 67.0774 -1.00364 3.95463 0
M  V30 752 H 65.7524 0.130821 4.15694 0
M  V30 753 H 64.3294 -1.53598 3.39797 0
M  V30 754 N 66.5145 -1.57545 0.0417849 0
M  V30 755 C 67.4625 -2.12148 -0.953723 0
M  V30 756 C 68.4565 -1.05104 -1.32852 0
M  V30 757 O 69.6625 -1.23524 -1.30927 0
M  V30 758 H 66.0375 -0.677957 -0.325389 0
M  V30 759 H 68.0085 -2.94707 -0.467991 0
M  V30 760 C 66.7575 -2.6739 -2.22257 0
M  V30 761 H 66.0805 -3.49413 -1.94295 0
M  V30 762 H 67.5205 -3.09227 -2.90094 0
M  V30 763 C 65.9795 -1.60723 -2.96091 0
M  V30 764 O 66.5095 -1.01449 -3.88679 0
M  V30 765 N 64.7155 -1.32466 -2.58652 0
M  V30 766 H 64.2625 -1.80856 -1.83437 0
M  V30 767 H 64.2205 -0.61325 -3.08361 0
M  V30 768 N 67.9926 0.231505 -1.5589 0
M  V30 769 C 69.2416 0.955346 -1.7764 0
M  V30 770 C 69.5546 1.85893 -0.608546 0
M  V30 771 O 70.7606 2.62067 -0.70943 0
M  V30 772 C 69.2166 1.74886 -3.14552 0
M  V30 773 C 68.8246 0.891915 -4.39032 0
M  V30 774 C 70.5686 2.46452 -3.45633 0
M  V30 775 C 68.4756 1.68221 -5.66971 0
M  V30 776 H 67.4056 0.360446 -0.662265 0
M  V30 777 H 70.0566 0.209516 -1.823 0
M  V30 778 H 68.4386 2.53723 -3.04041 0
M  V30 779 H 69.6126 0.144793 -4.60572 0
M  V30 780 H 67.9276 0.288863 -4.15397 0
M  V30 781 H 70.5246 3.06061 -4.38441 0
M  V30 782 H 70.8676 3.18841 -2.67668 0
M  V30 783 H 71.4006 1.74613 -3.57428 0
M  V30 784 H 68.1396 1.00178 -6.478 0
M  V30 785 H 67.6596 2.4042 -5.49507 0
M  V30 786 H 69.3386 2.24544 -6.06786 0
M  V30 787 N 69.4707 1.49531 0.497807 0
M  V30 788 C 70.4177 1.66436 1.59899 0
M  V30 789 C 71.3877 0.505793 1.58212 0
M  V30 790 O 72.5727 0.733202 1.7615 0
M  V30 791 C 69.7127 1.7399 2.98029 0
M  V30 792 C 68.8257 3.01172 3.09708 0
M  V30 793 C 67.9607 2.99686 4.38591 0
M  V30 794 C 66.9997 4.21434 4.43914 0
M  V30 795 N 66.1367 4.1784 5.64229 0
M  V30 796 H 70.9767 2.60459 1.44793 0
M  V30 797 H 68.5137 1.29137 0.704423 0
M  V30 798 H 70.4717 1.76352 3.78095 0
M  V30 799 H 69.1017 0.834301 3.11832 0
M  V30 800 H 68.1537 3.08408 2.22685 0
M  V30 801 H 69.4657 3.91165 3.09502 0
M  V30 802 H 68.6197 3.00628 5.2698 0
M  V30 803 H 67.3587 2.07477 4.41367 0
M  V30 804 H 66.3637 4.20733 3.53926 0
M  V30 805 H 67.5887 5.14839 4.42851 0
M  V30 806 H 65.5347 3.28469 5.67841 0
M  V30 807 H 65.4517 5.01571 5.65652 0
M  V30 808 H 66.7197 4.22889 6.54817 0
M  V30 809 N 70.9488 -0.749086 1.3866 0
M  V30 810 C 71.8808 -1.87273 1.32142 0
M  V30 811 C 72.8938 -1.61127 0.232787 0
M  V30 812 O 74.0828 -1.71623 0.49069 0
M  V30 813 C 71.1828 -3.23005 1.02571 0
M  V30 814 C 70.3558 -3.7662 2.22433 0
M  V30 815 C 69.4148 -4.90879 1.89537 0
M  V30 816 O 68.4408 -5.05276 2.62078 0
M  V30 817 N 69.6428 -5.74198 0.853031 0
M  V30 818 H 72.4078 -1.93373 2.28969 0
M  V30 819 H 69.9688 -0.929216 1.32579 0
M  V30 820 H 71.9608 -3.96992 0.786085 0
M  V30 821 H 70.5308 -3.12262 0.145249 0
M  V30 822 H 69.7508 -2.94147 2.62434 0
M  V30 823 H 71.0388 -4.09173 3.02415 0
M  V30 824 H 70.4368 -5.6514 0.25155 0
M  V30 825 H 68.9938 -6.48313 0.67329 0
M  V30 826 N 72.4269 -1.23603 -0.977757 0
M  V30 827 C 73.3739 -1.01954 -2.07061 0
M  V30 828 C 74.3439 0.0638697 -1.65977 0
M  V30 829 O 75.5289 -0.0887624 -1.90593 0
M  V30 830 C 72.6689 -0.619658 -3.39491 0
M  V30 831 C 71.7819 -1.77547 -3.93829 0
M  V30 832 C 70.9169 -1.32212 -5.14484 0
M  V30 833 C 69.9559 -2.44852 -5.60994 0
M  V30 834 N 69.0929 -2.00456 -6.72876 0
M  V30 835 H 73.9329 -1.95495 -2.24913 0
M  V30 836 H 71.4699 -0.973861 -1.10247 0
M  V30 837 H 73.4279 -0.368898 -4.15566 0
M  V30 838 H 72.0579 0.278752 -3.21594 0
M  V30 839 H 71.1099 -2.14016 -3.14486 0
M  V30 840 H 72.4219 -2.62219 -4.24314 0
M  V30 841 H 71.5759 -1.02965 -5.97899 0
M  V30 842 H 70.3149 -0.445808 -4.85658 0
M  V30 843 H 69.3199 -2.74871 -4.76157 0
M  V30 844 H 70.5449 -3.33024 -5.91837 0
M  V30 845 H 68.4909 -1.15208 -6.45804 0
M  V30 846 H 68.4079 -2.78687 -7.02759 0
M  V30 847 H 69.6759 -1.7432 -7.59758 0
M  V30 848 N 73.905 1.17692 -1.04816 0
M  V30 849 C 75.321 1.39863 -0.768794 0
M  V30 850 C 75.521 1.91118 0.638451 0
M  V30 851 O 74.577 2.10036 1.40146 0
M  V30 852 C 75.89 2.39274 -1.82122 0
M  V30 853 C 77.438 2.52987 -1.843 0
M  V30 854 C 77.913 3.55669 -2.88555 0
M  V30 855 N 79.404 3.63183 -2.87493 0
M  V30 856 C 80.139 4.42381 -3.64811 0
M  V30 857 N 79.635 5.25125 -4.51903 0
M  V30 858 N 81.428 4.37217 -3.53267 0
M  V30 859 H 73.579 0.82752 -1.95617 0
M  V30 860 H 75.842 0.426123 -0.846831 0
M  V30 861 H 75.548 2.08678 -2.83102 0
M  V30 862 H 75.422 3.38725 -1.65967 0
M  V30 863 H 77.809 2.82896 -0.839869 0
M  V30 864 H 77.89 1.53623 -2.04532 0
M  V30 865 H 77.534 3.26499 -3.89051 0
M  V30 866 H 77.464 4.54728 -2.65575 0
M  V30 867 H 79.955 3.04103 -2.24343 0
M  V30 868 H 80.268 5.82728 -5.07591 0
M  V30 869 H 78.613 5.24519 -4.55966 0
M  V30 870 H 81.804 3.71626 -2.84625 0
M  V30 871 H 81.977 4.98696 -4.13771 0
M  V30 872 N 75.3831 0.828654 1.34056 0
M  V30 873 C 76.3301 0.252567 2.29414 0
M  V30 874 C 77.3001 -0.62588 1.53857 0
M  V30 875 O 78.4851 -0.566312 1.82202 0
M  V30 876 C 75.6251 -0.574831 3.40279 0
M  V30 877 C 74.7381 0.326499 4.30764 0
M  V30 878 C 73.8731 -0.511016 5.28736 0
M  V30 879 C 72.9121 0.389342 6.1086 0
M  V30 880 N 72.0491 -0.409439 7.00905 0
M  V30 881 H 76.8891 1.07108 2.78086 0
M  V30 882 H 74.4261 0.539677 1.36843 0
M  V30 883 H 76.3841 -1.06992 4.03248 0
M  V30 884 H 75.0141 -1.35841 2.92826 0
M  V30 885 H 74.0661 0.939837 3.68607 0
M  V30 886 H 75.3781 1.01857 4.88289 0
M  V30 887 H 74.5321 -1.07035 5.97184 0
M  V30 888 H 73.2711 -1.23657 4.71763 0
M  V30 889 H 72.2761 0.960769 5.4134 0
M  V30 890 H 73.5011 1.1131 6.69916 0
M  V30 891 H 71.4471 -1.11856 6.46393 0
M  V30 892 H 71.3641 0.224126 7.55668 0
M  V30 893 H 72.6321 -0.951336 7.73673 0
M  V30 894 N 76.8612 -1.46375 0.584142 0
M  V30 895 C 78.1092 -2.01978 0.0701287 0
M  V30 896 C 78.4302 -1.4579 -1.295 0
M  V30 897 O 77.7002 -0.64314 -1.85042 0
M  V30 898 H 76.2802 -0.746648 0.0229345 0
M  V30 899 H 78.9422 -1.79461 0.760245 0
M  V30 900 H 78.0382 -3.121 0.0022064 0
M  V30 901 N 78.3393 -0.321999 -1.54275 0
M  V30 902 C 79.5643 0.285791 -2.05422 0
M  V30 903 C 79.9893 1.45124 -1.19669 0
M  V30 904 O 79.3473 1.80132 -0.205441 0
M  V30 905 C 79.3953 0.69956 -3.53749 0
M  V30 906 O 78.4993 1.8021 -3.70942 0
M  V30 907 H 77.8403 0.0518962 -0.661969 0
M  V30 908 H 80.3703 -0.469954 -1.9913 0
M  V30 909 H 80.3803 0.982649 -3.9599 0
M  V30 910 H 79.0553 -0.152864 -4.15619 0
M  V30 911 H 77.6323 1.51794 -3.40607 0
M  V30 912 N 79.8174 1.5752 -0.0501392 0
M  V30 913 C 80.7474 2.14502 0.922566 0
M  V30 914 C 81.7284 1.06642 1.3252 0
M  V30 915 O 82.9134 1.34577 1.4001 0
M  V30 916 C 80.0434 2.68916 2.19776 0
M  V30 917 C 78.9974 3.8175 1.93523 0
M  V30 918 C 78.3234 4.22677 3.27487 0
M  V30 919 C 79.6234 5.06932 1.25765 0
M  V30 920 H 81.3174 2.9603 0.447952 0
M  V30 921 H 78.8634 1.42401 0.214024 0
M  V30 922 H 80.8164 3.07419 2.88222 0
M  V30 923 H 79.5404 1.84578 2.69441 0
M  V30 924 H 78.1994 3.43718 1.27489 0
M  V30 925 H 77.8474 3.35291 3.74952 0
M  V30 926 H 77.5474 4.98725 3.1072 0
M  V30 927 H 79.0714 4.63779 3.97166 0
M  V30 928 H 80.4854 5.42888 1.84244 0
M  V30 929 H 78.8824 5.88116 1.19328 0
M  V30 930 H 79.9524 4.84337 0.233536 0
M  V30 931 N 81.2955 -0.223234 1.56011 0
M  V30 932 C 82.5255 -0.963413 1.82762 0
M  V30 933 C 82.9335 -1.78516 0.626804 0
M  V30 934 O 82.2765 -1.78974 -0.414014 0
M  V30 935 C 82.3385 -1.93126 3.0322 0
M  V30 936 C 82.0025 -1.2942 4.38291 0
M  V30 937 C 82.9995 -0.684916 5.15369 0
M  V30 938 C 80.6845 -1.30647 4.85012 0
M  V30 939 C 82.6785 -0.0963971 6.37327 0
M  V30 940 C 80.3655 -0.71411 6.06913 0
M  V30 941 C 81.3635 -0.110123 6.82911 0
M  V30 942 O 81.0515 0.47303 8.02507 0
M  V30 943 H 80.7835 -0.288011 0.611576 0
M  V30 944 H 83.3375 -0.244103 2.03944 0
M  V30 945 H 81.5675 -2.68952 2.77852 0
M  V30 946 H 83.2565 -2.53685 3.16857 0
M  V30 947 H 84.0225 -0.667774 4.80381 0
M  V30 948 H 79.9015 -1.76598 4.25833 0
M  V30 949 H 83.4455 0.375657 6.96588 0
M  V30 950 H 79.3425 -0.728659 6.41374 0
M  V30 951 H 80.1105 0.367186 8.17676 0
M  V30 952 N 82.7736 -1.49793 -0.48987 0
M  V30 953 C 83.7036 -1.70201 -1.59856 0
M  V30 954 C 84.6846 -0.55076 -1.60937 0
M  V30 955 O 85.8696 -0.787841 -1.77501 0
M  V30 956 C 82.9996 -1.77882 -2.98287 0
M  V30 957 C 81.9536 -2.92907 -3.12073 0
M  V30 958 C 81.2796 -2.85712 -4.51965 0
M  V30 959 C 82.5796 -4.3369 -2.91051 0
M  V30 960 H 84.2736 -2.63025 -1.43032 0
M  V30 961 H 81.8196 -1.26574 -0.686664 0
M  V30 962 H 83.7726 -1.90744 -3.75759 0
M  V30 963 H 82.4966 -0.816653 -3.16225 0
M  V30 964 H 81.1556 -2.79665 -2.37029 0
M  V30 965 H 80.8036 -1.8738 -4.66795 0
M  V30 966 H 80.5036 -3.62921 -4.62128 0
M  V30 967 H 82.0276 -3.00598 -5.31482 0
M  V30 968 H 83.4416 -4.47555 -3.58284 0
M  V30 969 H 81.8386 -5.12205 -3.12675 0
M  V30 970 H 82.9086 -4.47362 -1.87071 0
M  V30 971 N 84.2517 0.741722 -1.39055 0
M  V30 972 C 85.1817 1.869 -1.39966 0
M  V30 973 C 86.1627 1.6804 -0.26392 0
M  V30 974 O 87.3477 1.88458 -0.468755 0
M  V30 975 C 84.4777 3.24572 -1.23574 0
M  V30 976 C 83.4317 3.58056 -2.34477 0
M  V30 977 C 82.7577 4.94593 -2.0318 0
M  V30 978 C 84.0577 3.61716 -3.76774 0
M  V30 979 H 85.7517 1.86395 -2.34302 0
M  V30 980 H 83.2977 0.895361 -1.1278 0
M  V30 981 H 85.2507 4.031 -1.22834 0
M  V30 982 H 83.9747 3.25587 -0.257045 0
M  V30 983 H 82.6337 2.81854 -2.34423 0
M  V30 984 H 82.2817 4.92181 -1.03765 0
M  V30 985 H 81.9817 5.17964 -2.77465 0
M  V30 986 H 83.5057 5.75486 -2.04079 0
M  V30 987 H 84.9197 4.30335 -3.78794 0
M  V30 988 H 83.3167 3.96603 -4.50362 0
M  V30 989 H 84.3867 2.61672 -4.08235 0
M  V30 990 N 85.7298 1.2412 0.971189 0
M  V30 991 C 86.6768 1.0305 2.06517 0
M  V30 992 C 87.6468 -0.0550666 1.66009 0
M  V30 993 O 88.8318 0.0988688 1.90544 0
M  V30 994 C 85.9718 0.637653 3.39158 0
M  V30 995 C 85.0848 1.79633 3.92882 0
M  V30 996 C 84.2198 1.34939 5.13775 0
M  V30 997 C 83.2588 2.47823 5.59687 0
M  V30 998 N 82.3958 2.04022 6.71803 0
M  V30 999 H 87.2358 1.96685 2.23873 0
M  V30 1000 H 84.7728 0.979694 1.09729 0
M  V30 1001 H 86.7308 0.390931 4.15364 0
M  V30 1002 H 85.3608 -0.261693 3.21737 0
M  V30 1003 H 84.4128 2.15681 3.13346 0
M  V30 1004 H 85.7248 2.64466 4.22918 0
M  V30 1005 H 84.8788 1.06134 5.97345 0
M  V30 1006 H 83.6178 0.471557 4.85415 0
M  V30 1007 H 82.6228 2.77392 4.74693 0
M  V30 1008 H 83.8478 3.36158 5.90063 0
M  V30 1009 H 81.7938 1.18632 6.45184 0
M  V30 1010 H 81.7108 2.82409 7.01271 0
M  V30 1011 H 82.9788 1.78347 7.58823 0
M  V30 1012 N 87.2079 -1.17134 1.05439 0
M  V30 1013 C 88.1559 -2.23289 0.651511 0
M  V30 1014 C 89.1499 -1.66186 -0.328411 0
M  V30 1015 O 90.3559 -1.78949 -0.194206 0
M  V30 1016 H 86.7309 -0.726938 0.192523 0
M  V30 1017 H 88.7019 -2.54565 1.55689 0
M  V30 1018 C 87.4509 -3.47671 0.0448436 0
M  V30 1019 H 86.7739 -3.91918 0.78996 0
M  V30 1020 H 88.2139 -4.2353 -0.19964 0
M  V30 1021 C 86.6729 -3.14453 -1.20918 0
M  V30 1022 O 87.2029 -3.29459 -2.29825 0
M  V30 1023 N 85.4089 -2.68657 -1.10779 0
M  V30 1024 H 84.9559 -2.56646 -0.221526 0
M  V30 1025 H 84.9139 -2.46804 -1.9477 0
M  V30 1026 N 88.686 -0.835752 -1.33615 0
M  V30 1027 C 89.596 -0.269088 -2.33052 0
M  V30 1028 C 90.612 0.603251 -1.63208 0
M  V30 1029 O 91.788 0.508112 -1.94885 0
M  V30 1030 C 88.853 0.549091 -3.42324 0
M  V30 1031 C 87.914 -0.347156 -4.27894 0
M  V30 1032 C 87.147 0.43207 -5.31948 0
M  V30 1033 O 87.37 1.66409 -5.45586 0
M  V30 1034 O 86.304 -0.192298 -6.01593 0
M  V30 1035 H 90.13 -1.09243 -2.83372 0
M  V30 1036 H 87.715 -0.598198 -1.36901 0
M  V30 1037 H 89.597 1.01414 -4.09015 0
M  V30 1038 H 88.272 1.34955 -2.94226 0
M  V30 1039 H 87.179 -0.859979 -3.64081 0
M  V30 1040 H 88.512 -1.1123 -4.79467 0
M  V30 1041 N 90.1641 1.46063 -0.591896 0
M  V30 1042 C 91.1111 2.30399 0.136069 0
M  V30 1043 C 92.0811 1.41169 0.875238 0
M  V30 1044 O 93.2661 1.70112 0.86409 0
M  V30 1045 C 90.4061 3.25804 1.13781 0
M  V30 1046 C 89.5191 4.30134 0.401137 0
M  V30 1047 C 88.6541 5.12659 1.39121 0
M  V30 1048 C 87.6931 6.0873 0.641462 0
M  V30 1049 N 86.8301 6.8409 1.58004 0
M  V30 1050 H 91.6701 2.92118 -0.589144 0
M  V30 1051 H 89.2071 1.43959 -0.302342 0
M  V30 1052 H 91.1651 3.79569 1.73156 0
M  V30 1053 H 89.7951 2.65872 1.83062 0
M  V30 1054 H 88.8471 3.79152 -0.307826 0
M  V30 1055 H 90.1591 4.98458 -0.184565 0
M  V30 1056 H 89.3131 5.70747 2.05749 0
M  V30 1057 H 88.0521 4.44316 2.01084 0
M  V30 1058 H 87.0571 5.49786 -0.0385419 0
M  V30 1059 H 88.2821 6.79095 0.0270945 0
M  V30 1060 H 86.2281 6.18449 2.18761 0
M  V30 1061 H 86.1451 7.48709 1.04738 0
M  V30 1062 H 87.4131 7.4673 2.23639 0
M  V30 1063 N 91.6422 0.330177 1.54103 0
M  V30 1064 C 92.9192 -0.325007 1.92881 0
M  V30 1065 C 93.2992 -1.6934 1.26045 0
M  V30 1066 O 92.6472 -2.24855 0.406526 0
M  V30 1067 C 92.8572 -0.410634 3.46576 0
M  V30 1068 C 94.2052 -0.667801 4.19316 0
M  V30 1069 O 95.2292 -0.49329 3.52768 0
M  V30 1070 O 94.0882 -1.00491 5.37181 0
M  V30 1071 H 91.1822 -0.186873 0.80561 0
M  V30 1072 H 93.7282 0.380376 1.65382 0
M  V30 1073 H 92.5002 0.550164 3.87413 0
M  V30 1074 H 92.1232 -1.16333 3.802 0
M  V30 1075 N 93.1203 -1.57491 0.0584922 0
M  V30 1076 C 94.0303 -2.15448 -0.928414 0
M  V30 1077 C 95.0463 -1.11416 -1.3365 0
M  V30 1078 O 96.2223 -1.4362 -1.41193 0
M  V30 1079 C 93.2873 -2.69393 -2.18239 0
M  V30 1080 C 92.3483 -3.88249 -1.83196 0
M  V30 1081 C 91.5813 -4.39613 -3.02616 0
M  V30 1082 O 91.8043 -3.90023 -4.16219 0
M  V30 1083 O 90.7383 -5.31111 -2.83204 0
M  V30 1084 H 94.5643 -3.00112 -0.465483 0
M  V30 1085 H 92.1493 -1.48499 -0.163826 0
M  V30 1086 H 94.0313 -3.04026 -2.91798 0
M  V30 1087 H 92.7063 -1.87796 -2.63656 0
M  V30 1088 H 91.6133 -3.58492 -1.06931 0
M  V30 1089 H 92.9463 -4.71098 -1.42573 0
M  V30 1090 N 94.5984 0.214957 -1.56127 0
M  V30 1091 C 95.8474 0.936451 -1.78643 0
M  V30 1092 C 96.1604 1.85237 -0.628229 0
M  V30 1093 O 97.3664 2.613 -0.737186 0
M  V30 1094 C 95.8224 1.7154 -3.16389 0
M  V30 1095 C 95.4304 0.845299 -4.39953 0
M  V30 1096 C 97.1744 2.42772 -3.48227 0
M  V30 1097 C 95.0814 1.62198 -5.68723 0
M  V30 1098 H 94.0114 0.353401 -0.666051 0
M  V30 1099 H 96.6624 0.190169 -1.82512 0
M  V30 1100 H 95.0444 2.50484 -3.06715 0
M  V30 1101 H 96.2184 0.0959353 -4.607 0
M  V30 1102 H 94.5334 0.244789 -4.1568 0
M  V30 1103 H 97.1304 3.01394 -4.41663 0
M  V30 1104 H 97.4734 3.15984 -2.71035 0
M  V30 1105 H 98.0064 1.70813 -3.5926 0
M  V30 1106 H 94.7454 0.933011 -6.48826 0
M  V30 1107 H 94.2654 2.34579 -5.52026 0
M  V30 1108 H 95.9444 2.18095 -6.09133 0
M  V30 1109 N 96.0765 1.50051 0.48192 0
M  V30 1110 C 97.0235 1.68122 1.58125 0
M  V30 1111 C 97.9935 0.522545 1.57666 0
M  V30 1112 O 99.1785 0.751844 1.75362 0
M  V30 1113 C 96.3185 1.77142 2.96167 0
M  V30 1114 C 95.4315 3.0444 3.06497 0
M  V30 1115 C 94.5665 3.04321 4.35387 0
M  V30 1116 C 93.6055 4.26118 4.3942 0
M  V30 1117 N 92.7425 4.238 5.59766 0
M  V30 1118 H 97.5825 2.6198 1.42022 0
M  V30 1119 H 95.1195 1.29877 0.690687 0
M  V30 1120 H 97.0775 1.80352 3.76203 0
M  V30 1121 H 95.7075 0.867329 3.1093 0
M  V30 1122 H 94.7595 3.10752 2.19402 0
M  V30 1123 H 96.0715 3.94426 3.05336 0
M  V30 1124 H 95.2255 3.062 5.23762 0
M  V30 1125 H 93.9645 2.12147 4.39141 0
M  V30 1126 H 92.9695 4.24463 3.49444 0
M  V30 1127 H 94.1945 5.19507 4.37366 0
M  V30 1128 H 92.1405 3.34474 5.64326 0
M  V30 1129 H 92.0575 5.07542 5.60301 0
M  V30 1130 H 93.3255 4.2981 6.50295 0
M  V30 1131 N 97.5546 -0.734337 1.39446 0
M  V30 1132 C 98.8036 -1.48937 1.36017 0
M  V30 1133 C 99.1166 -1.95557 -0.0409005 0
M  V30 1134 O 100.323 -2.70779 -0.19778 0
M  V30 1135 C 98.7786 -2.69125 2.38955 0
M  V30 1136 C 98.3866 -2.29452 3.8478 0
M  V30 1137 C 100.131 -3.46944 2.44603 0
M  V30 1138 C 98.0376 -3.46366 4.79358 0
M  V30 1139 H 96.9676 -0.559296 0.505672 0
M  V30 1140 H 99.6186 -0.800983 1.65095 0
M  V30 1141 H 98.0006 -3.40041 2.02948 0
M  V30 1142 H 99.1746 -1.66077 4.29831 0
M  V30 1143 H 97.4896 -1.64723 3.82433 0
M  V30 1144 H 100.087 -4.33907 3.12456 0
M  V30 1145 H 100.43 -3.89454 1.47076 0
M  V30 1146 H 100.963 -2.83056 2.79507 0
M  V30 1147 H 97.7016 -3.08905 5.78151 0
M  V30 1148 H 97.2216 -4.08719 4.38986 0
M  V30 1149 H 98.9006 -4.12691 4.98292 0
M  V30 1150 N 99.0327 -1.24633 -0.964593 0
M  V30 1151 C 100.279 -1.08949 -1.71049 0
M  V30 1152 C 100.612 0.370302 -1.90637 0
M  V30 1153 O 99.8867 1.27349 -1.47011 0
M  V30 1154 C 100.17 -1.83329 -3.0994 0
M  V30 1155 C 100.023 -3.37077 -2.97824 0
M  V30 1156 C 101.342 -1.60846 -4.09654 0
M  V30 1157 H 98.4607 -0.397178 -0.620821 0
M  V30 1158 H 101.103 -1.5334 -1.12191 0
M  V30 1159 H 99.2527 -1.45597 -3.60186 0
M  V30 1160 H 100.925 -3.84425 -2.5498 0
M  V30 1161 H 99.1677 -3.65298 -2.33965 0
M  V30 1162 H 99.8387 -3.84324 -3.96231 0
M  V30 1163 H 102.315 -1.93674 -3.68279 0
M  V30 1164 H 101.191 -2.1534 -5.04896 0
M  V30 1165 H 101.452 -0.547434 -4.38698 0
M  V30 1166 N 100.511 1.16574 -1.06058 0
M  V30 1167 C 101.458 2.20883 -0.669263 0
M  V30 1168 C 102.428 1.62729 0.332918 0
M  V30 1169 O 103.613 1.895 0.222346 0
M  V30 1170 C 100.753 3.45049 -0.0593572 0
M  V30 1171 C 99.8658 4.17458 -1.11143 0
M  V30 1172 C 99.0008 5.29135 -0.467916 0
M  V30 1173 C 98.0398 5.93343 -1.50369 0
M  V30 1174 N 97.1768 6.96516 -0.883706 0
M  V30 1175 H 102.017 2.53709 -1.5632 0
M  V30 1176 H 99.5538 1.24616 -0.781625 0
M  V30 1177 H 101.512 4.16033 0.311771 0
M  V30 1178 H 100.142 3.12781 0.797992 0
M  V30 1179 H 99.1938 3.45101 -1.60029 0
M  V30 1180 H 100.506 4.61307 -1.89731 0
M  V30 1181 H 99.6598 6.06684 -0.0436871 0
M  V30 1182 H 98.3988 4.86443 0.349864 0
M  V30 1183 H 97.4038 5.14517 -1.93784 0
M  V30 1184 H 98.6288 6.38114 -2.32352 0
M  V30 1185 H 96.5748 6.55943 -0.086595 0
M  V30 1186 H 96.4918 7.38723 -1.607 0
M  V30 1187 H 97.7598 7.77993 -0.484543 0
M  V30 1188 N 101.989 0.842826 1.3317 0
M  V30 1189 C 103.219 0.453397 2.01564 0
M  V30 1190 C 103.627 -0.951147 1.63554 0
M  V30 1191 O 102.97 -1.63021 0.846746 0
M  V30 1192 C 103.032 0.499013 3.5602 0
M  V30 1193 C 102.696 1.86037 4.1742 0
M  V30 1194 C 103.693 2.82416 4.36506 0
M  V30 1195 C 101.378 2.15428 4.53757 0
M  V30 1196 C 103.372 4.06346 4.91082 0
M  V30 1197 C 101.059 3.39615 5.0804 0
M  V30 1198 C 102.057 4.3489 5.26649 0
M  V30 1199 O 101.745 5.5688 5.79776 0
M  V30 1200 H 101.477 0.177871 0.652179 0
M  V30 1201 H 104.031 1.13808 1.70988 0
M  V30 1202 H 102.261 -0.242467 3.85939 0
M  V30 1203 H 103.95 0.126852 4.05702 0
M  V30 1204 H 104.716 2.6101 4.08777 0
M  V30 1205 H 100.595 1.42061 4.38565 0
M  V30 1206 H 104.139 4.80722 5.05522 0
M  V30 1207 H 100.036 3.60876 5.352 0
M  V30 1208 H 100.804 5.58674 5.98185 0
M  V30 1209 N 103.467 -1.45747 0.599634 0
M  V30 1210 C 104.878 -1.85853 0.177681 0
M  V30 1211 C 105.229 -1.50102 -1.26348 0
M  V30 1212 O 104.354 -0.923905 -1.95686 0
M  V30 1213 C 104.949 -3.37326 0.315688 0
M  V30 1214 C 103.508 -3.76365 -0.0515144 0
M  V30 1215 C 102.655 -2.69722 0.643822 0
M  V30 1216 H 105.606 -1.36661 0.806814 0
M  V30 1217 H 105.627 -3.77778 -0.454321 0
M  V30 1218 H 105.139 -3.63315 1.36468 0
M  V30 1219 H 103.24 -3.55993 -1.09999 0
M  V30 1220 H 103.353 -4.77916 0.336594 0
M  V30 1221 H 101.717 -2.54567 0.0822881 0
M  V30 1222 H 102.5 -2.98549 1.6948 0
M  V30 1223 N 104.945 -0.338344 -1.53925 0
M  V30 1224 C 106.222 0.314774 -1.93051 0
M  V30 1225 C 106.602 1.68669 -1.26941 0
M  V30 1226 O 105.95 2.24636 -0.418445 0
M  V30 1227 C 106.16 0.392249 -3.46789 0
M  V30 1228 C 107.508 0.645554 -4.19664 0
M  V30 1229 O 108.532 0.474575 -3.53024 0
M  V30 1230 O 107.391 0.976408 -5.37707 0
M  V30 1231 H 104.485 0.182598 -0.80659 0
M  V30 1232 H 107.031 -0.389141 -1.65178 0
M  V30 1233 H 105.803 -0.570702 -3.87116 0
M  V30 1234 H 105.426 1.14316 -3.80812 0
M  V30 1235 N 106.423 1.57458 -0.0668435 0
M  V30 1236 C 107.834 1.80776 0.466558 0
M  V30 1237 C 108.185 0.980361 1.69951 0
M  V30 1238 O 107.31 0.201441 2.1546 0
M  V30 1239 C 107.905 3.27881 0.85321 0
M  V30 1240 C 106.464 3.52062 1.3315 0
M  V30 1241 C 105.611 2.75513 0.314264 0
M  V30 1242 H 108.562 1.5598 -0.292588 0
M  V30 1243 H 108.583 3.39659 1.715 0
M  V30 1244 H 108.095 3.88075 -0.0443439 0
M  V30 1245 H 106.196 2.97167 2.24772 0
M  V30 1246 H 106.309 4.60762 1.31285 0
M  V30 1247 H 104.673 2.42123 0.790492 0
M  V30 1248 H 105.456 3.38442 -0.575477 0
M  V30 1249 N 107.901 -0.206675 1.56239 0
M  V30 1250 C 109.15 -0.926964 1.79138 0
M  V30 1251 C 109.463 -1.84901 0.638043 0
M  V30 1252 O 110.669 -2.60906 0.751033 0
M  V30 1253 C 109.125 -1.6986 3.17294 0
M  V30 1254 C 108.733 -0.821956 4.40395 0
M  V30 1255 C 110.477 -2.40922 3.4951 0
M  V30 1256 C 108.384 -1.59179 5.69575 0
M  V30 1257 H 107.314 -0.349864 0.667915 0
M  V30 1258 H 109.965 -0.180487 1.8261 0
M  V30 1259 H 108.347 -2.48853 3.08039 0
M  V30 1260 H 109.521 -0.0715019 4.60745 0
M  V30 1261 H 107.836 -0.222741 4.15804 0
M  V30 1262 H 110.433 -2.99047 4.43255 0
M  V30 1263 H 110.776 -3.14542 2.72707 0
M  V30 1264 H 111.309 -1.68905 3.60161 0
M  V30 1265 H 108.048 -0.898589 6.49312 0
M  V30 1266 H 107.568 -2.31648 5.53262 0
M  V30 1267 H 109.247 -2.14862 6.10281 0
M  V30 1268 N 109.379 -1.50304 -0.473955 0
M  V30 1269 C 110.309 -1.71886 -1.58042 0
M  V30 1270 C 111.29 -0.567799 -1.60344 0
M  V30 1271 O 112.475 -0.806623 -1.76656 0
M  V30 1272 C 109.605 -1.81036 -2.96384 0
M  V30 1273 C 108.559 -2.962 -3.08949 0
M  V30 1274 C 107.885 -2.9049 -4.48909 0
M  V30 1275 C 109.185 -4.36752 -2.86434 0
M  V30 1276 H 110.879 -2.64527 -1.40234 0
M  V30 1277 H 108.425 -1.27295 -0.673201 0
M  V30 1278 H 110.378 -1.94719 -3.73714 0
M  V30 1279 H 109.102 -0.850147 -3.15341 0
M  V30 1280 H 107.761 -2.82164 -2.3405 0
M  V30 1281 H 107.409 -1.92321 -4.64781 0
M  V30 1282 H 107.109 -3.67802 -4.58253 0
M  V30 1283 H 108.633 -3.06218 -5.28264 0
M  V30 1284 H 110.047 -4.5133 -3.53517 0
M  V30 1285 H 108.444 -5.15493 -3.07225 0
M  V30 1286 H 109.514 -4.49321 -1.82316 0
M  V30 1287 N 110.857 0.726932 -1.39834 0
M  V30 1288 C 112.273 1.03354 -1.21615 0
M  V30 1289 C 112.473 2.01327 -0.08338 0
M  V30 1290 O 111.529 2.46158 0.56238 0
M  V30 1291 C 112.842 1.58811 -2.55342 0
M  V30 1292 C 114.39 1.70851 -2.62257 0
M  V30 1293 C 114.865 2.29716 -3.96225 0
M  V30 1294 N 116.356 2.37116 -3.97907 0
M  V30 1295 C 117.091 2.83619 -4.98345 0
M  V30 1296 N 116.587 3.29958 -6.09179 0
M  V30 1297 N 118.38 2.82901 -4.8572 0
M  V30 1298 H 110.531 0.0773069 -2.12259 0
M  V30 1299 H 112.794 0.0969102 -0.943034 0
M  V30 1300 H 112.5 0.942855 -3.38826 0
M  V30 1301 H 112.374 2.57502 -2.75632 0
M  V30 1302 H 114.761 2.34497 -1.79152 0
M  V30 1303 H 114.842 0.707913 -2.45809 0
M  V30 1304 H 114.486 1.66696 -4.79765 0
M  V30 1305 H 114.416 3.30469 -4.09997 0
M  V30 1306 H 116.907 2.04374 -3.17868 0
M  V30 1307 H 117.22 3.63976 -6.8172 0
M  V30 1308 H 115.565 3.27946 -6.12761 0
M  V30 1309 H 118.756 2.46027 -3.98231 0
M  V30 1310 H 118.929 3.18827 -5.6414 0
M  V30 1311 N 112.336 1.25143 0.95797 0
M  V30 1312 C 113.752 1.01892 1.22842 0
M  V30 1313 C 113.952 -0.266311 1.99732 0
M  V30 1314 O 113.008 -0.979913 2.3271 0
M  V30 1315 C 114.321 2.24004 2.00606 0
M  V30 1316 C 115.869 2.28731 2.13662 0
M  V30 1317 C 116.344 3.5049 2.94823 0
M  V30 1318 N 117.835 3.50866 3.02403 0
M  V30 1319 C 118.57 4.4174 3.65586 0
M  V30 1320 N 118.066 5.42882 4.30408 0
M  V30 1321 N 119.859 4.29429 3.62694 0
M  V30 1322 H 112.01 2.07718 0.443493 0
M  V30 1323 H 114.273 0.912031 0.258657 0
M  V30 1324 H 113.979 3.17395 1.51503 0
M  V30 1325 H 113.853 2.26907 3.01319 0
M  V30 1326 H 116.24 1.35865 2.61963 0
M  V30 1327 H 116.321 2.29848 1.12265 0
M  V30 1328 H 115.965 4.43676 2.47213 0
M  V30 1329 H 115.895 3.46617 3.96439 0
M  V30 1330 H 118.386 2.777 2.56302 0
M  V30 1331 H 118.699 6.0844 4.76467 0
M  V30 1332 H 117.044 5.46758 4.29047 0
M  V30 1333 H 120.235 3.49643 3.11236 0
M  V30 1334 H 120.408 5.00448 4.1165 0
M  V30 1335 N 113.814 -1.1601 1.06675 0
M  V30 1336 C 115.23 -1.38622 0.790948 0
M  V30 1337 C 115.43 -1.92109 -0.607965 0
M  V30 1338 O 114.486 -2.12239 -1.36787 0
M  V30 1339 C 115.799 -2.36347 1.85905 0
M  V30 1340 C 117.347 -2.50023 1.88301 0
M  V30 1341 C 117.822 -3.51033 2.94176 0
M  V30 1342 N 119.313 -3.58563 2.93235 0
M  V30 1343 C 120.048 -4.36521 3.71803 0
M  V30 1344 N 119.544 -5.17869 4.602 0
M  V30 1345 N 121.337 -4.31541 3.60178 0
M  V30 1346 H 113.488 -0.796294 1.96908 0
M  V30 1347 H 115.751 -0.412597 0.853503 0
M  V30 1348 H 115.457 -2.04147 2.86386 0
M  V30 1349 H 115.331 -3.36042 1.71334 0
M  V30 1350 H 117.718 -2.81524 0.884769 0
M  V30 1351 H 117.799 -1.5035 2.06951 0
M  V30 1352 H 117.443 -3.20268 3.94196 0
M  V30 1353 H 117.373 -4.50445 2.72776 0
M  V30 1354 H 119.864 -3.00496 2.29152 0
M  V30 1355 H 120.177 -5.74578 5.16797 0
M  V30 1356 H 118.522 -5.17199 4.64253 0
M  V30 1357 H 121.713 -3.67051 2.90502 0
M  V30 1358 H 121.886 -4.9205 4.21653 0
M  V30 1359 N 115.292 -0.849877 -1.32721 0
M  V30 1360 C 116.517 -0.463856 -2.02146 0
M  V30 1361 C 116.942 0.930449 -1.63476 0
M  V30 1362 O 116.3 1.61033 -0.832952 0
M  V30 1363 C 116.348 -0.604955 -3.55489 0
M  V30 1364 O 115.452 0.36425 -4.10788 0
M  V30 1365 H 114.793 -0.187046 -0.637111 0
M  V30 1366 H 117.323 -1.14775 -1.69375 0
M  V30 1367 H 117.333 -0.490696 -4.05038 0
M  V30 1368 H 116.008 -1.62174 -3.82978 0
M  V30 1369 H 114.585 0.206628 -3.72327 0
M  V30 1370 N 116.77 1.45427 -0.607355 0
M  V30 1371 C 117.68 2.34325 0.113463 0
M  V30 1372 C 118.696 1.51226 0.860617 0
M  V30 1373 O 119.872 1.84029 0.818255 0
M  V30 1374 C 116.937 3.28839 1.09844 0
M  V30 1375 C 115.998 4.27844 0.353271 0
M  V30 1376 C 115.231 5.17842 1.29133 0
M  V30 1377 O 115.454 5.11264 2.52913 0
M  V30 1378 O 114.388 5.96713 0.788523 0
M  V30 1379 H 118.214 2.97364 -0.617094 0
M  V30 1380 H 115.799 1.44807 -0.367619 0
M  V30 1381 H 117.681 3.8708 1.66575 0
M  V30 1382 H 116.356 2.68365 1.81003 0
M  V30 1383 H 115.263 3.7322 -0.256494 0
M  V30 1384 H 116.596 4.91173 -0.317822 0
M  V30 1385 N 118.248 0.346503 1.53744 0
M  V30 1386 C 119.158 -0.517293 2.28826 0
M  V30 1387 C 120.174 -1.10935 1.3405 0
M  V30 1388 O 121.35 -1.1244 1.6709 0
M  V30 1389 C 118.415 -1.65098 3.04866 0
M  V30 1390 C 117.476 -1.0884 4.15274 0
M  V30 1391 C 116.709 -2.16806 4.87679 0
M  V30 1392 O 116.932 -3.3758 4.59778 0
M  V30 1393 O 115.866 -1.80934 5.74061 0
M  V30 1394 H 119.692 0.0931396 3.03557 0
M  V30 1395 H 117.277 0.111458 1.48984 0
M  V30 1396 H 119.159 -2.31053 3.5241 0
M  V30 1397 H 117.834 -2.24717 2.32989 0
M  V30 1398 H 116.741 -0.3933 3.72027 0
M  V30 1399 H 118.074 -0.537036 4.89261 0
M  V30 1400 N 119.726 -1.57421 0.075193 0
M  V30 1401 C 120.972 -1.93905 -0.594025 0
M  V30 1402 C 121.305 -0.955701 -1.69056 0
M  V30 1403 O 120.58 0.0145373 -1.94495 0
M  V30 1404 C 120.863 -3.40638 -1.1678 0
M  V30 1405 C 120.716 -4.49733 -0.0776792 0
M  V30 1406 C 122.035 -3.88259 -2.07228 0
M  V30 1407 H 119.154 -0.705105 -0.214466 0
M  V30 1408 H 121.796 -1.8947 0.141854 0
M  V30 1409 H 119.946 -3.44549 -1.79494 0
M  V30 1410 H 121.618 -4.57942 0.555573 0
M  V30 1411 H 119.861 -4.29751 0.591286 0
M  V30 1412 H 120.532 -5.49549 -0.519603 0
M  V30 1413 H 123.008 -3.86376 -1.54445 0
M  V30 1414 H 121.884 -4.91533 -2.44308 0
M  V30 1415 H 122.145 -3.26396 -2.98191 0
M  V30 1416 N 121.204 0.198386 -1.56346 0
M  V30 1417 C 122.432 0.935572 -1.84539 0
M  V30 1418 C 122.847 1.76989 -0.657281 0
M  V30 1419 O 122.204 1.78626 0.374043 0
M  V30 1420 C 122.255 1.8344 -3.11499 0
M  V30 1421 O 121.976 1.03377 -4.25728 0
M  V30 1422 C 123.477 2.68355 -3.52846 0
M  V30 1423 H 120.697 0.273126 -0.612897 0
M  V30 1424 H 123.241 0.20663 -2.03453 0
M  V30 1425 H 121.396 2.51701 -2.94492 0
M  V30 1426 H 121.81 1.64599 -4.98003 0
M  V30 1427 H 123.284 3.27085 -4.44657 0
M  V30 1428 H 123.761 3.41901 -2.75681 0
M  V30 1429 H 124.367 2.05471 -3.72373 0
M  V30 1430 N 122.682 1.50554 0.465978 0
M  V30 1431 C 123.63 1.70324 1.58406 0
M  V30 1432 C 124.624 0.569139 1.59553 0
M  V30 1433 O 125.83 0.749776 1.63641 0
M  V30 1434 H 122.205 0.537688 0.525734 0
M  V30 1435 H 124.176 2.64104 1.38894 0
M  V30 1436 C 122.925 1.81928 2.96307 0
M  V30 1437 H 122.248 2.68586 2.96144 0
M  V30 1438 H 123.688 1.99784 3.73982 0
M  V30 1439 C 122.147 0.572095 3.32007 0
M  V30 1440 O 122.677 -0.286416 4.00678 0
M  V30 1441 N 120.883 0.424606 2.87481 0
M  V30 1442 H 120.43 1.12427 2.31771 0
M  V30 1443 H 120.388 -0.408697 3.11732 0
M  V30 1444 N 124.16 -0.719506 1.40217 0
M  V30 1445 C 125.407 -1.47933 1.38283 0
M  V30 1446 C 125.735 -1.94493 -0.0161536 0
M  V30 1447 O 124.99 -1.68224 -0.999956 0
M  V30 1448 C 125.289 -2.72271 2.31524 0
M  V30 1449 C 124.955 -2.44496 3.78857 0
M  V30 1450 C 123.617 -2.36631 4.18998 0
M  V30 1451 C 125.969 -2.21104 4.71977 0
M  V30 1452 C 123.297 -2.03437 5.503 0
M  V30 1453 C 125.649 -1.89423 6.03574 0
M  V30 1454 C 124.313 -1.80038 6.42762 0
M  V30 1455 H 123.583 -0.541325 0.506012 0
M  V30 1456 H 126.23 -0.824502 1.72842 0
M  V30 1457 H 124.535 -3.42572 1.90137 0
M  V30 1458 H 126.232 -3.30348 2.27313 0
M  V30 1459 H 122.822 -2.51503 3.47051 0
M  V30 1460 H 127.006 -2.26139 4.41786 0
M  V30 1461 H 122.262 -1.94705 5.79569 0
M  V30 1462 H 126.436 -1.70336 6.75247 0
M  V30 1463 H 124.063 -1.54083 7.44421 0
M  V30 1464 N 125.638 -1.25649 -0.95132 0
M  V30 1465 C 126.915 -1.01361 -1.67288 0
M  V30 1466 C 127.295 0.459135 -2.06046 0
M  V30 1467 O 126.643 1.43723 -1.7764 0
M  V30 1468 C 126.853 -1.95256 -2.89268 0
M  V30 1469 C 128.201 -2.23289 -3.61147 0
M  V30 1470 O 129.225 -1.93041 -2.99355 0
M  V30 1471 O 128.084 -2.74741 -4.72419 0
M  V30 1472 H 125.178 -0.38464 -0.732107 0
M  V30 1473 H 127.724 -1.36817 -1.00395 0
M  V30 1474 H 126.496 -2.94685 -2.57442 0
M  V30 1475 H 126.119 -1.60218 -3.6389 0
M  V30 1476 N 127.117 1.15442 -1.07289 0
M  V30 1477 C 128.394 1.82306 -0.708792 0
M  V30 1478 C 128.774 1.94991 0.808807 0
M  V30 1479 O 128.122 1.50085 1.72298 0
M  V30 1480 C 128.332 3.18695 -1.42247 0
M  V30 1481 C 129.68 3.94341 -1.57417 0
M  V30 1482 O 130.704 3.28247 -1.38319 0
M  V30 1483 O 129.563 5.12839 -1.88834 0
M  V30 1484 H 126.657 0.787628 -0.252132 0
M  V30 1485 H 129.203 1.22559 -1.17377 0
M  V30 1486 H 127.975 3.04557 -2.45684 0
M  V30 1487 H 127.598 3.86128 -0.948223 0
M  V30 1488 N 128.595 0.856903 1.32268 0
M  V30 1489 C 129.543 0.291987 2.3076 0
M  V30 1490 C 130.537 -0.585857 1.58947 0
M  V30 1491 O 131.743 -0.47341 1.73663 0
M  V30 1492 H 128.118 0.075721 0.748178 0
M  V30 1493 H 130.089 1.13687 2.75895 0
M  V30 1494 C 128.838 -0.502869 3.44044 0
M  V30 1495 H 128.161 0.163328 3.99466 0
M  V30 1496 H 129.601 -0.863691 4.1511 0
M  V30 1497 C 128.06 -1.68898 2.91505 0
M  V30 1498 O 128.59 -2.78811 2.89184 0
M  V30 1499 N 126.796 -1.51679 2.47875 0
M  V30 1500 H 126.343 -0.622666 2.49961 0
M  V30 1501 H 126.301 -2.31184 2.13076 0
M  V30 1502 N 130.073 -1.45103 0.615059 0
M  V30 1503 C 131.003 -2.33339 -0.0865619 0
M  V30 1504 C 131.984 -1.4727 -0.851209 0
M  V30 1505 O 133.169 -1.76026 -0.820281 0
M  V30 1506 C 130.299 -3.30095 -1.07956 0
M  V30 1507 C 129.253 -4.25858 -0.427628 0
M  V30 1508 C 128.579 -5.12361 -1.5294 0
M  V30 1509 C 129.879 -5.18165 0.655944 0
M  V30 1510 H 131.573 -2.92254 0.650224 0
M  V30 1511 H 129.119 -1.40532 0.314138 0
M  V30 1512 H 131.072 -3.90698 -1.57901 0
M  V30 1513 H 129.796 -2.69355 -1.84703 0
M  V30 1514 H 128.455 -3.66564 0.0510292 0
M  V30 1515 H 128.103 -4.47984 -2.28734 0
M  V30 1516 H 127.803 -5.77238 -1.09865 0
M  V30 1517 H 129.327 -5.75833 -2.03098 0
M  V30 1518 H 130.741 -5.72796 0.240257 0
M  V30 1519 H 129.138 -5.91559 1.00888 0
M  V30 1520 H 130.208 -4.60144 1.52957 0
M  V30 1521 N 131.551 -0.354651 -1.53558 0
M  V30 1522 C 132.498 0.496968 -2.25386 0
M  V30 1523 C 133.468 1.0865 -1.25636 0
M  V30 1524 O 134.653 1.12104 -1.54394 0
M  V30 1525 C 131.793 1.63637 -3.03837 0
M  V30 1526 C 130.906 1.07307 -4.18461 0
M  V30 1527 C 130.041 2.18068 -4.84376 0
M  V30 1528 C 129.08 1.59147 -5.91049 0
M  V30 1529 N 128.217 2.63695 -6.50699 0
M  V30 1530 H 133.057 -0.122075 -2.9775 0
M  V30 1531 H 130.594 -0.0720154 -1.46924 0
M  V30 1532 H 132.552 2.30734 -3.47589 0
M  V30 1533 H 131.182 2.22623 -2.33749 0
M  V30 1534 H 130.234 0.292708 -3.79272 0
M  V30 1535 H 131.546 0.602193 -4.95152 0
M  V30 1536 H 130.7 2.93007 -5.31255 0
M  V30 1537 H 129.439 2.68504 -4.07133 0
M  V30 1538 H 128.444 0.827175 -5.43542 0
M  V30 1539 H 129.669 1.09549 -6.70206 0
M  V30 1540 H 127.615 3.13365 -5.76315 0
M  V30 1541 H 127.532 2.21263 -7.22896 0
M  V30 1542 H 128.8 3.3837 -7.02229 0
M  V30 1543 N 133.029 1.57378 -0.0835403 0
M  V30 1544 C 134.445 1.57246 0.273109 0
M  V30 1545 C 134.645 1.09385 1.69225 0
M  V30 1546 O 133.701 0.765051 2.40631 0
M  V30 1547 C 135.014 3.00614 0.0720628 0
M  V30 1548 C 136.562 3.12684 0.1407 0
M  V30 1549 C 137.037 4.57989 -0.0322094 0
M  V30 1550 N 138.528 4.63194 0.0230085 0
M  V30 1551 C 139.263 5.73335 -0.0861941 0
M  V30 1552 N 138.759 6.9235 -0.24958 0
M  V30 1553 N 140.552 5.62093 -0.0282886 0
M  V30 1554 H 132.703 1.86801 -1.0109 0
M  V30 1555 H 134.966 0.861687 -0.395222 0
M  V30 1556 H 134.672 3.39786 -0.907662 0
M  V30 1557 H 134.546 3.68193 0.81936 0
M  V30 1558 H 136.933 2.73391 1.11092 0
M  V30 1559 H 137.014 2.47719 -0.637896 0
M  V30 1560 H 136.658 4.97973 -0.999247 0
M  V30 1561 H 136.588 5.21 0.765937 0
M  V30 1562 H 139.079 3.77613 0.14722 0
M  V30 1563 H 139.392 7.72117 -0.324733 0
M  V30 1564 H 137.737 6.94415 -0.285097 0
M  V30 1565 H 140.928 4.67997 0.0981408 0
M  V30 1566 H 141.101 6.47895 -0.116845 0
M  V30 1567 N 134.507 -0.190092 1.56449 0
M  V30 1568 C 135.753 -0.911052 1.81184 0
M  V30 1569 C 136.086 -1.82699 0.658396 0
M  V30 1570 O 135.361 -1.91491 -0.340775 0
M  V30 1571 C 135.644 -1.72297 3.16205 0
M  V30 1572 C 135.497 -0.831419 4.42049 0
M  V30 1573 C 136.816 -2.69454 3.47969 0
M  V30 1574 H 133.935 -0.32977 0.659106 0
M  V30 1575 H 136.577 -0.178169 1.89163 0
M  V30 1576 H 134.727 -2.34778 3.09534 0
M  V30 1577 H 136.399 -0.220929 4.60771 0
M  V30 1578 H 134.642 -0.138406 4.33579 0
M  V30 1579 H 135.313 -1.43461 5.33032 0
M  V30 1580 H 137.789 -2.17104 3.54972 0
M  V30 1581 H 136.665 -3.23342 4.43555 0
M  V30 1582 H 136.926 -3.48744 2.71717 0
M  V30 1583 N 135.985 -1.50799 -0.457987 0
M  V30 1584 C 137.231 -1.62683 -1.21088 0
M  V30 1585 C 137.564 -0.332268 -1.91336 0
M  V30 1586 O 136.839 0.667043 -1.82704 0
M  V30 1587 C 137.122 -2.81615 -2.24422 0
M  V30 1588 C 136.975 -4.20989 -1.58392 0
M  V30 1589 C 138.294 -2.96085 -3.2561 0
M  V30 1590 H 135.413 -0.592087 -0.438864 0
M  V30 1591 H 138.055 -1.83225 -0.50286 0
M  V30 1592 H 136.205 -2.64231 -2.84806 0
M  V30 1593 H 137.877 -4.49994 -1.01504 0
M  V30 1594 H 136.12 -4.24641 -0.886704 0
M  V30 1595 H 136.791 -5.0016 -2.33547 0
M  V30 1596 H 139.267 -3.12042 -2.75262 0
M  V30 1597 H 138.143 -3.80902 -3.95228 0
M  V30 1598 H 138.404 -2.0726 -3.90507 0
M  V30 1599 N 137.463 0.71206 -1.40597 0
M  V30 1600 C 138.879 1.02058 -1.22704 0
M  V30 1601 C 139.079 2.01228 -0.104729 0
M  V30 1602 O 138.135 2.4674 0.53624 0
M  V30 1603 C 139.448 1.56094 -2.57012 0
M  V30 1604 C 140.996 1.6806 -2.64054 0
M  V30 1605 C 141.471 2.25501 -3.9864 0
M  V30 1606 N 142.962 2.32882 -4.004 0
M  V30 1607 C 143.697 2.78317 -5.01325 0
M  V30 1608 N 143.193 3.23478 -6.12645 0
M  V30 1609 N 144.986 2.77733 -4.88693 0
M  V30 1610 H 137.137 0.0547896 -2.12329 0
M  V30 1611 H 139.4 0.0869027 -0.944008 0
M  V30 1612 H 139.106 0.906865 -3.39807 0
M  V30 1613 H 138.98 2.54564 -2.78347 0
M  V30 1614 H 141.367 2.32583 -1.81629 0
M  V30 1615 H 141.448 0.681802 -2.46546 0
M  V30 1616 H 141.092 1.61598 -4.81506 0
M  V30 1617 H 141.022 3.26102 -4.13479 0
M  V30 1618 H 143.513 2.00991 -3.20017 0
M  V30 1619 H 143.826 3.56725 -6.85542 0
M  V30 1620 H 142.171 3.21429 -6.16205 0
M  V30 1621 H 145.362 2.4179 -4.00818 0
M  V30 1622 H 145.535 3.12826 -5.67489 0
M  V30 1623 N 138.941 1.26152 0.944643 0
M  V30 1624 C 139.888 1.07408 2.04285 0
M  V30 1625 C 140.858 -0.0198413 1.66088 0
M  V30 1626 O 142.043 0.139264 1.90291 0
M  V30 1627 C 139.183 0.70945 3.37729 0
M  V30 1628 C 138.296 1.87926 3.88983 0
M  V30 1629 C 137.431 1.45807 5.10797 0
M  V30 1630 C 136.47 2.5964 5.54305 0
M  V30 1631 N 135.607 2.18226 6.67324 0
M  V30 1632 H 140.447 2.01389 2.1965 0
M  V30 1633 H 137.984 1.00275 1.07626 0
M  V30 1634 H 139.942 0.478948 4.14442 0
M  V30 1635 H 138.572 -0.193389 3.2222 0
M  V30 1636 H 137.624 2.22279 3.08701 0
M  V30 1637 H 138.936 2.73377 4.17213 0
M  V30 1638 H 138.09 1.18781 5.94959 0
M  V30 1639 H 136.829 0.574414 4.84305 0
M  V30 1640 H 135.834 2.87399 4.68702 0
M  V30 1641 H 137.059 3.48599 5.828 0
M  V30 1642 H 135.005 1.3229 6.42523 0
M  V30 1643 H 134.922 2.97221 6.95123 0
M  V30 1644 H 136.19 1.94403 7.54869 0
M  V30 1645 N 140.419 -1.14872 1.07899 0
M  V30 1646 C 141.352 -2.18794 0.64841 0
M  V30 1647 C 142.33 -1.59065 -0.337189 0
M  V30 1648 O 143.514 -1.86936 -0.242284 0
M  V30 1649 C 140.641 -3.38667 -0.0470417 0
M  V30 1650 C 139.687 -4.16942 0.897884 0
M  V30 1651 S 140.52 -4.78615 2.40183 0
M  V30 1652 C 141.676 -6.0185 1.71834 0
M  V30 1653 H 141.909 -2.5498 1.52881 0
M  V30 1654 H 139.442 -1.25922 0.893484 0
M  V30 1655 H 141.4 -4.08113 -0.442027 0
M  V30 1656 H 140.061 -3.00814 -0.903861 0
M  V30 1657 H 139.254 -5.02726 0.358096 0
M  V30 1658 H 138.856 -3.53073 1.23352 0
M  V30 1659 H 141.148 -6.69574 1.03328 0
M  V30 1660 H 142.091 -6.60408 2.55473 0
M  V30 1661 H 142.499 -5.5173 1.19392 0
M  V30 1662 N 141.898 -0.863906 -1.31812 0
M  V30 1663 C 143.145 -0.471836 -1.96926 0
M  V30 1664 C 143.473 0.974578 -1.68322 0
M  V30 1665 O 142.728 1.7003 -0.968933 0
M  V30 1666 C 143.027 -0.668547 -3.51091 0
M  V30 1667 C 142.693 -2.08683 -3.99703 0
M  V30 1668 C 141.355 -2.47471 -4.12688 0
M  V30 1669 C 143.707 -3.01207 -4.25351 0
M  V30 1670 C 141.035 -3.78037 -4.4867 0
M  V30 1671 C 143.387 -4.31282 -4.62794 0
M  V30 1672 C 142.051 -4.69992 -4.73987 0
M  V30 1673 H 141.321 -0.172657 -0.720604 0
M  V30 1674 H 143.968 -1.09573 -1.57054 0
M  V30 1675 H 142.273 0.0385252 -3.91781 0
M  V30 1676 H 143.97 -0.345102 -3.99512 0
M  V30 1677 H 140.56 -1.77566 -3.90087 0
M  V30 1678 H 144.744 -2.72469 -4.14819 0
M  V30 1679 H 140 -4.078 -4.55532 0
M  V30 1680 H 144.174 -5.03031 -4.81594 0
M  V30 1681 H 141.801 -5.71207 -5.01624 0
M  V30 1682 N 143.376 1.44774 -0.622745 0
M  V30 1683 C 144.653 1.95522 -0.0551974 0
M  V30 1684 C 145.033 1.5649 1.41683 0
M  V30 1685 O 144.381 0.834848 2.12703 0
M  V30 1686 C 144.591 3.4796 -0.269242 0
M  V30 1687 C 145.939 4.24306 -0.158014 0
M  V30 1688 O 146.963 3.55637 -0.200162 0
M  V30 1689 O 145.822 5.46471 -0.0558693 0
M  V30 1690 H 142.916 0.826556 0.0271015 0
M  V30 1691 H 145.462 1.54866 -0.693864 0
M  V30 1692 H 144.234 3.6939 -1.29099 0
M  V30 1693 H 143.857 3.95543 0.403966 0
M  V30 1694 N 144.854 0.36279 1.53368 0
M  V30 1695 C 146.103 -0.22888 2.00397 0
M  V30 1696 C 146.416 -1.50096 1.25421 0
M  V30 1697 O 147.622 -2.17106 1.63025 0
M  V30 1698 C 146.078 -0.458417 3.56969 0
M  V30 1699 C 145.686 0.798877 4.4082 0
M  V30 1700 C 147.43 -1.00789 4.12361 0
M  V30 1701 C 145.337 0.539078 5.88938 0
M  V30 1702 H 144.267 -0.089305 0.748693 0
M  V30 1703 H 146.918 0.481099 1.77081 0
M  V30 1704 H 145.3 -1.22959 3.76427 0
M  V30 1705 H 146.474 1.57262 4.33134 0
M  V30 1706 H 144.789 1.27137 3.96516 0
M  V30 1707 H 147.386 -1.21754 5.20653 0
M  V30 1708 H 147.729 -1.9692 3.66781 0
M  V30 1709 H 148.262 -0.296961 3.9669 0
M  V30 1710 H 145.001 1.47064 6.3879 0
M  V30 1711 H 144.521 -0.196222 5.99479 0
M  V30 1712 H 146.2 0.163542 6.46793 0
M  V30 1713 N 146.332 -1.57332 0.0918853 0
M  V30 1714 C 147.265 -2.09499 -0.904735 0
M  V30 1715 C 148.243 -1.00479 -1.27839 0
M  V30 1716 O 149.427 -1.27954 -1.38419 0
M  V30 1717 C 146.554 -2.56931 -2.2069 0
M  V30 1718 C 145.6 -3.77579 -1.98334 0
M  V30 1719 S 146.433 -5.21317 -1.22428 0
M  V30 1720 C 147.589 -5.72097 -2.53882 0
M  V30 1721 H 147.822 -2.93705 -0.460922 0
M  V30 1722 H 145.355 -1.53923 -0.121332 0
M  V30 1723 H 147.313 -2.84917 -2.95521 0
M  V30 1724 H 145.974 -1.72956 -2.62192 0
M  V30 1725 H 145.167 -4.08824 -2.94752 0
M  V30 1726 H 144.769 -3.5007 -1.31633 0
M  V30 1727 H 147.061 -5.80168 -3.49874 0
M  V30 1728 H 148.004 -6.70654 -2.27219 0
M  V30 1729 H 148.412 -5.00012 -2.62007 0
M  V30 1730 N 147.81 0.181792 -1.56548 0
M  V30 1731 C 149.04 0.914618 -1.85252 0
M  V30 1732 C 149.448 1.76791 -0.673914 0
M  V30 1733 O 148.791 1.80009 0.366416 0
M  V30 1734 C 148.853 1.85019 -3.08234 0
M  V30 1735 C 148.517 1.17754 -4.41569 0
M  V30 1736 C 149.514 0.548035 -5.17003 0
M  V30 1737 C 147.199 1.17742 -4.88305 0
M  V30 1738 C 149.193 -0.0726128 -6.37359 0
M  V30 1739 C 146.88 0.552946 -6.08593 0
M  V30 1740 C 147.878 -0.070978 -6.82963 0
M  V30 1741 O 147.566 -0.685635 -8.00971 0
M  V30 1742 H 147.298 0.271695 -0.618998 0
M  V30 1743 H 149.852 0.189944 -2.0452 0
M  V30 1744 H 148.082 2.61491 -2.84885 0
M  V30 1745 H 149.771 2.45195 -3.23472 0
M  V30 1746 H 150.537 0.540174 -4.81982 0
M  V30 1747 H 146.416 1.65246 -4.30366 0
M  V30 1748 H 149.96 -0.560213 -6.95347 0
M  V30 1749 H 145.857 0.558354 -6.43081 0
M  V30 1750 H 146.625 -0.58385 -8.16415 0
M  V30 1751 N 149.288 1.51039 0.449983 0
M  V30 1752 C 150.198 1.74261 1.57067 0
M  V30 1753 C 151.214 0.626363 1.62335 0
M  V30 1754 O 152.39 0.907162 1.79812 0
M  V30 1755 C 149.455 1.85114 2.93144 0
M  V30 1756 C 148.516 3.0893 2.98095 0
M  V30 1757 C 147.749 3.19256 4.27681 0
M  V30 1758 O 147.972 2.35835 5.19363 0
M  V30 1759 O 146.906 4.12144 4.38658 0
M  V30 1760 H 150.732 2.69303 1.40391 0
M  V30 1761 H 148.317 1.35389 0.631688 0
M  V30 1762 H 150.199 1.94311 3.73926 0
M  V30 1763 H 148.874 0.932588 3.09975 0
M  V30 1764 H 147.781 3.0522 2.16314 0
M  V30 1765 H 149.114 4.00433 2.86206 0
M  V30 1766 N 150.766 -0.704594 1.40972 0
M  V30 1767 C 151.991 -1.49858 1.43378 0
M  V30 1768 C 152.416 -1.88061 0.038184 0
M  V30 1769 O 151.774 -1.5402 -0.956425 0
M  V30 1770 C 151.822 -2.74333 2.34038 0
M  V30 1771 O 150.926 -3.7147 1.7912 0
M  V30 1772 H 150.267 -0.45139 0.486974 0
M  V30 1773 H 152.797 -0.866832 1.8533 0
M  V30 1774 H 152.807 -3.22741 2.49604 0
M  V30 1775 H 151.482 -2.45863 3.35446 0
M  V30 1776 H 150.059 -3.30363 1.72958 0
M  V30 1777 N 152.244 -1.26651 -0.937939 0
M  V30 1778 C 153.191 -1.0849 -2.03712 0
M  V30 1779 C 154.161 0.011033 -1.66096 0
M  V30 1780 O 155.346 -0.149353 -1.90215 0
M  V30 1781 C 152.486 -0.72735 -3.37348 0
M  V30 1782 C 151.599 -1.89986 -3.87981 0
M  V30 1783 C 150.734 -1.48513 -5.10017 0
M  V30 1784 C 149.773 -2.62575 -5.5292 0
M  V30 1785 N 148.91 -2.21762 -6.66158 0
M  V30 1786 H 153.75 -2.02551 -2.18579 0
M  V30 1787 H 151.287 -1.00844 -1.07093 0
M  V30 1788 H 153.245 -0.50092 -4.14182 0
M  V30 1789 H 151.875 0.176298 -3.22318 0
M  V30 1790 H 150.927 -2.23913 -3.07518 0
M  V30 1791 H 152.239 -2.75586 -4.15757 0
M  V30 1792 H 151.393 -1.21934 -5.94321 0
M  V30 1793 H 150.132 -0.60009 -4.83994 0
M  V30 1794 H 149.137 -2.8988 -4.67172 0
M  V30 1795 H 150.362 -3.51685 -5.80943 0
M  V30 1796 H 148.308 -1.35696 -6.41812 0
M  V30 1797 H 148.225 -3.00903 -6.93537 0
M  V30 1798 H 149.493 -1.98403 -7.53828 0
M  V30 1799 N 153.722 1.14298 -1.08507 0
M  V30 1800 C 154.97 1.84993 -0.813763 0
M  V30 1801 C 155.291 1.83405 0.662393 0
M  V30 1802 O 154.561 1.28319 1.48024 0
M  V30 1803 H 153.141 0.684966 -0.298045 0
M  V30 1804 H 155.803 1.385 -1.37126 0
M  V30 1805 H 154.899 2.89788 -1.15884 0
M  V30 1806 N 155.201 0.870884 1.31352 0
M  V30 1807 C 156.45 0.478408 1.95944 0
M  V30 1808 C 156.763 -0.974493 1.69597 0
M  V30 1809 O 157.969 -1.47316 2.28058 0
M  V30 1810 C 156.425 0.804609 3.50791 0
M  V30 1811 C 156.033 2.27433 3.85977 0
M  V30 1812 C 157.777 0.480648 4.2177 0
M  V30 1813 C 155.684 2.5429 5.33939 0
M  V30 1814 H 154.614 0.175175 0.733369 0
M  V30 1815 H 157.265 1.06391 1.4951 0
M  V30 1816 H 155.647 0.148347 3.95722 0
M  V30 1817 H 156.821 2.97373 3.52002 0
M  V30 1818 H 155.136 2.56442 3.28065 0
M  V30 1819 H 157.733 0.658519 5.30629 0
M  V30 1820 H 158.076 -0.578979 4.12254 0
M  V30 1821 H 158.609 1.09349 3.82476 0
M  V30 1822 H 155.348 3.58939 5.48491 0
M  V30 1823 H 154.868 1.88945 5.69263 0
M  V30 1824 H 156.547 2.39066 6.01212 0
M  V30 1825 N 156.679 -1.44442 0.630414 0
M  V30 1826 C 157.927 -2.01653 0.134351 0
M  V30 1827 C 158.248 -1.49836 -1.24796 0
M  V30 1828 O 157.518 -0.701684 -1.82902 0
M  V30 1829 H 156.098 -0.74554 0.0466769 0
M  V30 1830 H 158.76 -1.76952 0.816955 0
M  V30 1831 H 157.856 -3.11935 0.101498 0
M  V30 1832 N 158.157 -0.370918 -1.53173 0
M  V30 1833 C 159.087 0.464847 -2.28826 0
M  V30 1834 C 160.068 1.07936 -1.31468 0
M  V30 1835 O 161.253 1.0956 -1.60344 0
M  V30 1836 C 158.383 1.60196 -3.08147 0
M  V30 1837 C 157.337 1.11443 -4.13237 0
M  V30 1838 C 156.663 2.3422 -4.80672 0
M  V30 1839 C 157.963 0.195384 -5.21934 0
M  V30 1840 H 159.657 -0.166329 -2.98938 0
M  V30 1841 H 157.203 -0.0814359 -1.4377 0
M  V30 1842 H 159.156 2.19332 -3.59822 0
M  V30 1843 H 157.88 2.26045 -2.35735 0
M  V30 1844 H 156.539 0.545727 -3.62515 0
M  V30 1845 H 156.187 2.98537 -4.04827 0
M  V30 1846 H 155.887 2.02269 -5.51689 0
M  V30 1847 H 157.411 2.94032 -5.35143 0
M  V30 1848 H 158.825 0.694375 -5.69079 0
M  V30 1849 H 157.222 -0.0335027 -6.00091 0
M  V30 1850 H 158.292 -0.760961 -4.78892 0
M  V30 1851 N 159.635 1.57281 -0.100228 0
M  V30 1852 C 160.86 1.99302 0.573881 0
M  V30 1853 C 161.285 0.979059 1.60611 0
M  V30 1854 O 160.643 -0.0517803 1.81226 0
M  V30 1855 C 160.691 3.40274 1.19358 0
M  V30 1856 O 159.795 3.41676 2.30935 0
M  V30 1857 H 159.136 0.647944 0.145138 0
M  V30 1858 H 161.666 2.03779 -0.183156 0
M  V30 1859 H 161.676 3.78078 1.53365 0
M  V30 1860 H 160.351 4.13594 0.437385 0
M  V30 1861 H 158.928 3.15672 1.98509 0
M  V30 1862 N 161.113 -0.173488 1.56642 0
M  V30 1863 C 162.076 -1.19859 1.95362 0
M  V30 1864 C 163.076 -1.37296 0.83704 0
M  V30 1865 O 164.266 -1.34739 1.10413 0
M  V30 1866 C 161.398 -2.56405 2.24654 0
M  V30 1867 H 162.591 -0.867062 2.87092 0
M  V30 1868 H 160.144 -0.415853 1.50666 0
M  V30 1869 H 160.879 -2.94576 1.35631 0
M  V30 1870 H 160.664 -2.45115 3.06041 0
M  V30 1871 H 162.154 -3.30287 2.5554 0
M  V30 1872 N 162.591 -1.51276 -0.441967 0
M  V30 1873 C 164.002 -1.56244 -1.02199 0
M  V30 1874 C 164.353 -0.383149 -1.92422 0
M  V30 1875 O 163.478 0.500613 -2.1053 0
M  V30 1876 C 164.073 -2.83162 -1.86024 0
M  V30 1877 C 162.632 -2.90716 -2.39084 0
M  V30 1878 C 161.779 -2.50858 -1.18175 0
M  V30 1879 H 164.73 -1.5712 -0.223416 0
M  V30 1880 H 164.751 -2.66663 -2.71425 0
M  V30 1881 H 164.263 -3.68974 -1.20331 0
M  V30 1882 H 162.364 -2.09323 -3.08244 0
M  V30 1883 H 162.477 -3.94266 -2.72198 0
M  V30 1884 H 160.841 -2.03951 -1.52565 0
M  V30 1885 H 161.624 -3.3901 -0.541001 0
M  V30 1886 N 164.069 0.697108 -1.41344 0
M  V30 1887 C 165.001 1.8224 -1.39001 0
M  V30 1888 C 166.014 1.60152 -0.292428 0
M  V30 1889 O 167.203 1.69684 -0.554048 0
M  V30 1890 C 164.303 3.18976 -1.14489 0
M  V30 1891 C 163.476 3.68105 -2.36258 0
M  V30 1892 C 162.535 4.83506 -2.07625 0
M  V30 1893 O 161.561 4.95201 -2.8065 0
M  V30 1894 N 162.763 5.70637 -1.06555 0
M  V30 1895 H 165.528 1.84742 -2.35988 0
M  V30 1896 H 163.089 0.87937 -1.35936 0
M  V30 1897 H 165.081 3.93801 -0.932885 0
M  V30 1898 H 163.651 3.11508 -0.261043 0
M  V30 1899 H 162.871 2.84204 -2.7317 0
M  V30 1900 H 164.159 3.97667 -3.17393 0
M  V30 1901 H 163.557 5.63817 -0.461125 0
M  V30 1902 H 162.114 6.45368 -0.913444 0
M  V30 1903 N 165.547 1.27147 0.931209 0
M  V30 1904 C 166.793 1.13446 1.68101 0
M  V30 1905 C 167.126 -0.319628 1.91552 0
M  V30 1906 O 166.401 -1.23407 1.50336 0
M  V30 1907 C 166.684 1.91482 3.0497 0
M  V30 1908 C 166.537 3.44855 2.88782 0
M  V30 1909 C 167.856 1.71651 4.05246 0
M  V30 1910 H 164.975 0.413498 0.610072 0
M  V30 1911 H 167.617 1.56261 1.08086 0
M  V30 1912 H 165.767 1.55095 3.56199 0
M  V30 1913 H 167.439 3.9105 2.44698 0
M  V30 1914 H 165.682 3.71373 2.24198 0
M  V30 1915 H 166.353 3.94694 3.85902 0
M  V30 1916 H 168.829 2.0337 3.63015 0
M  V30 1917 H 167.705 2.28651 4.99009 0
M  V30 1918 H 167.966 0.663555 4.37092 0
M  V30 1919 N 167.025 -1.13721 1.09112 0
M  V30 1920 C 167.973 -2.21103 0.722219 0
M  V30 1921 C 168.967 -1.67147 -0.275374 0
M  V30 1922 O 170.173 -1.79477 -0.137176 0
M  V30 1923 H 166.548 -0.720445 0.215553 0
M  V30 1924 H 168.519 -2.49483 1.63709 0
M  V30 1925 C 167.268 -3.47352 0.15543 0
M  V30 1926 H 166.591 -3.89206 0.914246 0
M  V30 1927 H 168.031 -4.2395 -0.0647967 0
M  V30 1928 C 166.49 -3.1814 -1.10852 0
M  V30 1929 O 167.02 -3.36604 -2.19227 0
M  V30 1930 N 165.226 -2.72045 -1.02176 0
M  V30 1931 H 164.773 -2.57221 -0.139764 0
M  V30 1932 H 164.731 -2.52875 -1.8682 0
M  V30 1933 N 168.503 -0.877838 -1.30888 0
M  V30 1934 C 169.752 -0.488793 -1.95688 0
M  V30 1935 C 170.065 0.965485 -1.70111 0
M  V30 1936 O 171.271 1.46104 -2.28836 0
M  V30 1937 C 169.727 -0.823201 -3.50359 0
M  V30 1938 C 169.335 -2.29477 -3.84765 0
M  V30 1939 C 171.079 -0.503009 -4.21509 0
M  V30 1940 C 168.986 -2.57118 -5.32583 0
M  V30 1941 H 167.916 -0.179062 -0.732429 0
M  V30 1942 H 170.567 -1.07183 -1.48943 0
M  V30 1943 H 168.949 -0.169331 -3.95638 0
M  V30 1944 H 170.123 -2.99236 -3.5042 0
M  V30 1945 H 168.438 -2.58178 -3.267 0
M  V30 1946 H 171.035 -0.68665 -5.30273 0
M  V30 1947 H 171.378 0.557109 -4.12555 0
M  V30 1948 H 171.911 -1.11376 -3.8189 0
M  V30 1949 H 168.65 -3.61843 -5.4658 0
M  V30 1950 H 168.17 -1.91961 -5.68253 0
M  V30 1951 H 169.849 -2.42251 -5.99936 0
M  V30 1952 N 169.982 1.44106 -0.638065 0
M  V30 1953 C 171.207 2.0685 -0.150916 0
M  V30 1954 C 171.632 1.47417 1.16833 0
M  V30 1955 O 170.99 0.578264 1.71831 0
M  V30 1956 C 171.038 3.60555 -0.05708 0
M  V30 1957 O 170.142 4.00465 0.984972 0
M  V30 1958 H 169.483 0.658151 -0.0879399 0
M  V30 1959 H 172.013 1.84865 -0.876707 0
M  V30 1960 H 172.023 4.07789 0.131232 0
M  V30 1961 H 170.698 4.03193 -1.02021 0
M  V30 1962 H 169.275 3.64849 0.770672 0
M  V30 1963 N 171.46 0.379036 1.52974 0
M  V30 1964 C 172.407 -0.461048 2.26148 0
M  V30 1965 C 173.377 -1.06637 1.27349 0
M  V30 1966 O 174.562 -1.09633 1.56157 0
M  V30 1967 C 171.702 -1.58782 3.06402 0
M  V30 1968 C 170.815 -1.00636 4.20115 0
M  V30 1969 C 169.95 -2.10334 4.87784 0
M  V30 1970 C 168.989 -1.49724 5.93506 0
M  V30 1971 N 168.126 -2.5331 6.54812 0
M  V30 1972 H 172.966 0.169429 2.97518 0
M  V30 1973 H 170.503 0.0953806 1.4679 0
M  V30 1974 H 172.461 -2.25174 3.51215 0
M  V30 1975 H 171.091 -2.18876 2.37261 0
M  V30 1976 H 170.143 -0.232332 3.7969 0
M  V30 1977 H 171.455 -0.523343 4.96047 0
M  V30 1978 H 170.609 -2.84519 5.35849 0
M  V30 1979 H 169.348 -2.61992 4.11353 0
M  V30 1980 H 168.353 -0.740598 5.44789 0
M  V30 1981 H 169.578 -0.988732 6.71864 0
M  V30 1982 H 167.524 -3.04156 5.81227 0
M  V30 1983 H 167.441 -2.09734 7.26325 0
M  V30 1984 H 168.709 -3.27155 7.07524 0
M  V30 1985 N 172.938 -1.57226 0.108567 0
M  V30 1986 C 174.354 -1.5766 -0.248058 0
M  V30 1987 C 174.554 -1.12063 -1.67464 0
M  V30 1988 O 173.61 -0.803236 -2.39383 0
M  V30 1989 C 174.923 -3.0069 -0.0242287 0
M  V30 1990 C 176.471 -3.12868 -0.0909372 0
M  V30 1991 C 176.946 -4.57879 0.105067 0
M  V30 1992 N 178.437 -4.63172 0.0506846 0
M  V30 1993 C 179.172 -5.73126 0.177396 0
M  V30 1994 N 178.668 -6.91866 0.359696 0
M  V30 1995 N 180.461 -5.61977 0.117709 0
M  V30 1996 H 172.612 -1.85169 1.04049 0
M  V30 1997 H 174.875 -0.85529 0.40888 0
M  V30 1998 H 174.581 -3.38299 0.961604 0
M  V30 1999 H 174.455 -3.6945 -0.76068 0
M  V30 2000 H 176.842 -2.75124 -1.06729 0
M  V30 2001 H 176.923 -2.46672 0.677225 0
M  V30 2002 H 176.567 -4.96321 1.07834 0
M  V30 2003 H 176.497 -5.22153 -0.682954 0
M  V30 2004 H 178.988 -3.778 -0.0871266 0
M  V30 2005 H 179.301 -7.71503 0.447529 0
M  V30 2006 H 177.646 -6.93874 0.395536 0
M  V30 2007 H 180.837 -4.68094 -0.0236741 0
M  V30 2008 H 181.01 -6.47627 0.219905 0
M  V30 2009 N 174.416 0.165178 -1.56732 0
M  V30 2010 C 175.665 0.879143 -1.81532 0
M  V30 2011 C 175.978 1.83144 -0.686842 0
M  V30 2012 O 177.184 2.58823 -0.819944 0
M  V30 2013 C 175.64 1.61388 -3.21686 0
M  V30 2014 C 175.248 0.704904 -4.4242 0
M  V30 2015 C 176.992 2.3157 -3.55774 0
M  V30 2016 C 174.899 1.44022 -5.73595 0
M  V30 2017 H 173.829 0.332033 -0.676957 0
M  V30 2018 H 176.48 0.132008 -1.83025 0
M  V30 2019 H 174.862 2.40599 -3.14529 0
M  V30 2020 H 176.036 -0.0506815 -4.60772 0
M  V30 2021 H 174.351 0.112419 -4.16248 0
M  V30 2022 H 176.948 2.8719 -4.51028 0
M  V30 2023 H 177.291 3.07201 -2.8095 0
M  V30 2024 H 177.824 1.59297 -3.64513 0
M  V30 2025 H 174.563 0.72612 -6.51466 0
M  V30 2026 H 174.083 2.16898 -5.5921 0
M  V30 2027 H 175.762 1.98606 -6.15764 0
M  V30 2028 N 175.894 1.51508 0.433938 0
M  V30 2029 C 177.143 1.63578 1.18005 0
M  V30 2030 C 177.456 0.359514 1.92268 0
M  V30 2031 O 178.662 0.359632 2.69108 0
M  V30 2032 C 177.118 2.88901 2.14626 0
M  V30 2033 C 176.726 4.23544 1.45995 0
M  V30 2034 C 178.47 3.10328 2.89649 0
M  V30 2035 C 176.377 5.40014 2.4112 0
M  V30 2036 H 175.307 0.609277 0.444182 0
M  V30 2037 H 177.958 1.77978 0.446773 0
M  V30 2038 H 176.34 2.68142 2.91403 0
M  V30 2039 H 177.514 4.54696 0.747532 0
M  V30 2040 H 175.829 4.08021 0.831115 0
M  V30 2041 H 178.426 3.94518 3.60915 0
M  V30 2042 H 178.769 2.23544 3.51189 0
M  V30 2043 H 179.302 3.31443 2.19978 0
M  V30 2044 H 176.041 6.29068 1.84264 0
M  V30 2045 H 175.561 5.13233 3.10406 0
M  V30 2046 H 177.24 5.72099 3.02177 0
M  V30 2047 N 177.372 -0.689602 1.41712 0
M  V30 2048 C 178.618 -1.45181 1.41599 0
M  V30 2049 C 178.951 -1.94181 0.0270081 0
M  V30 2050 O 178.226 -1.6993 -0.946265 0
M  V30 2051 C 178.509 -2.65945 2.42787 0
M  V30 2052 C 178.362 -2.22672 3.90816 0
M  V30 2053 C 179.681 -3.68149 2.41151 0
M  V30 2054 H 176.8 -0.526576 0.515642 0
M  V30 2055 H 179.442 -0.784947 1.73028 0
M  V30 2056 H 177.592 -3.2284 2.16116 0
M  V30 2057 H 179.264 -1.71058 4.28412 0
M  V30 2058 H 177.507 -1.54394 4.05395 0
M  V30 2059 H 178.178 -3.0935 4.57172 0
M  V30 2060 H 180.654 -3.2094 2.64834 0
M  V30 2061 H 179.53 -4.50248 3.13955 0
M  V30 2062 H 179.791 -4.18259 1.43221 0
M  V30 2063 N 178.85 -1.27639 -0.924453 0
M  V30 2064 C 180.096 -1.15345 -1.67532 0
M  V30 2065 C 180.451 0.297096 -1.90092 0
M  V30 2066 O 179.744 1.21374 -1.48253 0
M  V30 2067 C 179.938 -1.87407 -3.04325 0
M  V30 2068 C 179.767 -3.3932 -2.95114 0
M  V30 2069 C 178.537 -4.08644 -2.97218 0
M  V30 2070 C 180.735 -4.35242 -2.73987 0
M  V30 2071 N 178.717 -5.47102 -2.78482 0
M  V30 2072 C 180.088 -5.6099 -2.63988 0
M  V30 2073 C 182.143 -4.25294 -2.589 0
M  V30 2074 C 180.846 -6.77924 -2.40442 0
M  V30 2075 C 182.872 -5.41952 -2.36731 0
M  V30 2076 C 182.234 -6.66658 -2.27478 0
M  V30 2077 H 178.333 -0.47696 -0.619704 0
M  V30 2078 H 180.917 -1.6115 -1.09265 0
M  V30 2079 H 179.088 -1.44053 -3.60699 0
M  V30 2080 H 180.82 -1.6759 -3.68369 0
M  V30 2081 H 177.575 -3.60136 -3.07569 0
M  V30 2082 H 177.999 -6.19852 -2.72236 0
M  V30 2083 H 182.641 -3.29598 -2.64811 0
M  V30 2084 H 180.359 -7.73699 -2.3327 0
M  V30 2085 H 183.945 -5.36137 -2.25938 0
M  V30 2086 H 182.825 -7.55405 -2.10555 0
M  V30 2087 N 180.328 1.1314 -1.09713 0
M  V30 2088 C 181.276 2.20717 -0.733934 0
M  V30 2089 C 182.27 1.6729 0.266506 0
M  V30 2090 O 183.476 1.79547 0.127656 0
M  V30 2091 H 179.851 0.719292 -0.21937 0
M  V30 2092 H 181.822 2.48611 -1.6503 0
M  V30 2093 C 180.571 3.47265 -0.173849 0
M  V30 2094 H 179.894 3.88716 -0.934873 0
M  V30 2095 H 181.334 4.23979 0.0423126 0
M  V30 2096 C 179.793 3.18724 1.09164 0
M  V30 2097 O 180.323 3.37762 2.17439 0
M  V30 2098 N 178.529 2.72583 1.00732 0
M  V30 2099 H 178.076 2.57291 0.126121 0
M  V30 2100 H 178.034 2.53862 1.85476 0
M  V30 2101 N 181.806 0.884767 1.30421 0
M  V30 2102 C 182.769 0.356277 2.26414 0
M  V30 2103 C 183.769 -0.501124 1.52792 0
M  V30 2104 O 184.959 -0.30831 1.7145 0
M  V30 2105 C 182.091 -0.492316 3.37326 0
M  V30 2106 H 183.284 1.20389 2.74675 0
M  V30 2107 H 180.837 0.661607 1.41607 0
M  V30 2108 H 181.572 -1.36052 2.94381 0
M  V30 2109 H 181.357 0.121832 3.91911 0
M  V30 2110 H 182.847 -0.853871 4.08777 0
M  V30 2111 N 183.284 -1.43765 0.645699 0
M  V30 2112 C 184.214 -2.33471 -0.0370477 0
M  V30 2113 C 185.195 -1.49042 -0.819779 0
M  V30 2114 O 186.38 -1.77726 -0.782758 0
M  V30 2115 C 183.51 -3.32311 -1.0093 0
M  V30 2116 C 182.464 -4.2667 -0.337201 0
M  V30 2117 C 181.79 -5.1549 -1.42037 0
M  V30 2118 C 183.09 -5.16657 0.765706 0
M  V30 2119 H 184.784 -2.90809 0.712069 0
M  V30 2120 H 182.33 -1.39834 0.343876 0
M  V30 2121 H 184.283 -3.9396 -1.49578 0
M  V30 2122 H 183.007 -2.73213 -1.78948 0
M  V30 2123 H 181.666 -3.66374 0.128771 0
M  V30 2124 H 181.314 -4.52735 -2.1918 0
M  V30 2125 H 181.014 -5.79438 -0.975966 0
M  V30 2126 H 182.538 -5.80012 -1.90838 0
M  V30 2127 H 183.952 -5.72158 0.361702 0
M  V30 2128 H 182.349 -5.89286 1.13413 0
M  V30 2129 H 183.419 -4.56796 1.62683 0
M  V30 2130 N 184.763 -0.387143 -1.52771 0
M  V30 2131 C 185.993 0.195585 -2.05672 0
M  V30 2132 C 186.401 1.41241 -1.25887 0
M  V30 2133 O 185.744 1.81265 -0.298081 0
M  V30 2134 C 185.806 0.632327 -3.53895 0
M  V30 2135 C 185.47 -0.470739 -4.54569 0
M  V30 2136 C 186.467 -1.32746 -5.02667 0
M  V30 2137 C 184.152 -0.637151 -4.98243 0
M  V30 2138 C 186.146 -2.33574 -5.93061 0
M  V30 2139 C 183.833 -1.64877 -5.88438 0
M  V30 2140 C 184.831 -2.49649 -6.35739 0
M  V30 2141 O 184.519 -3.49082 -7.24153 0
M  V30 2142 H 184.251 0.033658 -0.675162 0
M  V30 2143 H 186.805 -0.550221 -1.97893 0
M  V30 2144 H 185.035 1.43008 -3.59285 0
M  V30 2145 H 186.724 1.14048 -3.89548 0
M  V30 2146 H 187.49 -1.21019 -4.69659 0
M  V30 2147 H 183.369 0.0129567 -4.60998 0
M  V30 2148 H 186.913 -2.99777 -6.29904 0
M  V30 2149 H 182.81 -1.76643 -6.2086 0
M  V30 2150 H 183.578 -3.45065 -7.42208 0
M  V30 2151 N 186.241 1.57166 -0.116904 0
M  V30 2152 C 187.151 2.18745 0.847812 0
M  V30 2153 C 188.167 1.163 1.29423 0
M  V30 2154 O 189.343 1.48761 1.35765 0
M  V30 2155 C 186.408 2.77307 2.0809 0
M  V30 2156 C 185.469 3.94781 1.68661 0
M  V30 2157 C 184.702 4.50541 2.86091 0
M  V30 2158 O 184.925 4.05202 4.01456 0
M  V30 2159 O 183.859 5.41256 2.63298 0
M  V30 2160 H 187.685 3.01632 0.353778 0
M  V30 2161 H 185.27 1.49005 0.108599 0
M  V30 2162 H 187.152 3.14647 2.80313 0
M  V30 2163 H 185.827 1.97452 2.56504 0
M  V30 2164 H 184.734 3.62214 0.935518 0
M  V30 2165 H 186.067 4.76065 1.24991 0
M  V30 2166 N 187.719 -0.156864 1.56817 0
M  V30 2167 C 188.666 -1.19394 1.97519 0
M  V30 2168 C 189.636 -1.4322 0.841265 0
M  V30 2169 O 190.821 -1.55719 1.10255 0
M  V30 2170 C 187.961 -2.52483 2.35258 0
M  V30 2171 C 187.074 -2.35914 3.61896 0
M  V30 2172 C 186.209 -3.61969 3.88782 0
M  V30 2173 C 185.248 -3.40395 5.08722 0
M  V30 2174 N 184.385 -4.58556 5.31668 0
M  V30 2175 H 189.225 -0.839845 2.85921 0
M  V30 2176 H 186.762 -0.403264 1.41464 0
M  V30 2177 H 188.72 -3.30071 2.55165 0
M  V30 2178 H 187.35 -2.85859 1.49949 0
M  V30 2179 H 186.402 -1.49429 3.49821 0
M  V30 2180 H 187.714 -2.15926 4.49641 0
M  V30 2181 H 186.868 -4.47989 4.09135 0
M  V30 2182 H 185.607 -3.84951 2.9944 0
M  V30 2183 H 184.612 -2.52763 4.88253 0
M  V30 2184 H 185.837 -3.18822 5.99608 0
M  V30 2185 H 183.783 -4.81729 4.45279 0
M  V30 2186 H 183.7 -4.41535 6.13664 0
M  V30 2187 H 184.968 -5.45817 5.5651 0
M  V30 2188 N 189.197 -1.51736 -0.425897 0
M  V30 2189 C 190.613 -1.40166 -0.76326 0
M  V30 2190 C 190.813 -0.492962 -1.95377 0
M  V30 2191 O 189.869 0.0475815 -2.52455 0
M  V30 2192 C 191.182 -2.82403 -1.03291 0
M  V30 2193 C 192.73 -2.91632 -1.13665 0
M  V30 2194 C 193.205 -4.34801 -1.43916 0
M  V30 2195 N 194.696 -4.3796 -1.50816 0
M  V30 2196 C 195.431 -5.4578 -1.75817 0
M  V30 2197 N 194.927 -6.63744 -1.98534 0
M  V30 2198 N 196.72 -5.33274 -1.77694 0
M  V30 2199 H 188.871 -2.09361 0.358 0
M  V30 2200 H 191.134 -0.942941 0.0978094 0
M  V30 2201 H 190.84 -3.50943 -0.230696 0
M  V30 2202 H 190.714 -3.22428 -1.95754 0
M  V30 2203 H 193.101 -2.23284 -1.92947 0
M  V30 2204 H 193.182 -2.55088 -0.190756 0
M  V30 2205 H 192.826 -5.03703 -0.65157 0
M  V30 2206 H 192.756 -4.68868 -2.39729 0
M  V30 2207 H 195.247 -3.52919 -1.35118 0
M  V30 2208 H 195.56 -7.41704 -2.17013 0
M  V30 2209 H 193.905 -6.66839 -1.95832 0
M  V30 2210 H 197.096 -4.40098 -1.59473 0
M  V30 2211 H 197.269 -6.1738 -1.9684 0
M  V30 2212 N 190.675 0.682077 -1.42076 0
M  V30 2213 C 191.622 1.79578 -1.44984 0
M  V30 2214 C 192.592 1.6332 -0.302614 0
M  V30 2215 O 193.777 1.83978 -0.505633 0
M  V30 2216 C 190.917 3.1756 -1.35091 0
M  V30 2217 C 190.03 3.45156 -2.59791 0
M  V30 2218 C 189.165 4.72826 -2.42093 0
M  V30 2219 C 188.204 4.93433 -3.62202 0
M  V30 2220 N 187.341 6.12338 -3.43491 0
M  V30 2221 H 192.181 1.76427 -2.40161 0
M  V30 2222 H 189.718 0.861376 -1.19242 0
M  V30 2223 H 191.676 3.97287 -1.27354 0
M  V30 2224 H 190.306 3.19854 -0.435133 0
M  V30 2225 H 189.358 2.59736 -2.77923 0
M  V30 2226 H 190.67 3.5628 -3.49094 0
M  V30 2227 H 189.824 5.60631 -2.319 0
M  V30 2228 H 188.563 4.63973 -1.50268 0
M  V30 2229 H 187.568 4.04073 -3.72834 0
M  V30 2230 H 188.793 5.04136 -4.54998 0
M  V30 2231 H 186.739 6.04672 -2.54377 0
M  V30 2232 H 186.656 6.2429 -4.26377 0
M  V30 2233 H 187.924 7.02841 -3.37097 0
M  V30 2234 N 192.153 1.28127 0.917671 0
M  V30 2235 C 193.063 1.13556 2.05286 0
M  V30 2236 C 194.079 0.0630914 1.73886 0
M  V30 2237 O 195.255 0.271598 1.9956 0
M  V30 2238 C 192.32 0.794676 3.3747 0
M  V30 2239 C 191.381 1.94909 3.82504 0
M  V30 2240 C 190.614 1.62437 5.0838 0
M  V30 2241 O 190.837 0.536905 5.67867 0
M  V30 2242 O 189.771 2.46677 5.4903 0
M  V30 2243 H 193.597 2.08844 2.20495 0
M  V30 2244 H 191.182 1.07409 1.03845 0
M  V30 2245 H 193.064 0.618344 4.16839 0
M  V30 2246 H 191.739 -0.128581 3.23445 0
M  V30 2247 H 190.646 2.18055 3.03978 0
M  V30 2248 H 191.979 2.85291 4.01086 0
M  V30 2249 N 193.631 -1.12557 1.10312 0
M  V30 2250 C 194.541 -2.21841 0.763142 0
M  V30 2251 C 195.557 -1.72354 -0.238801 0
M  V30 2252 O 196.733 -2.01249 -0.0778746 0
M  V30 2253 C 193.798 -3.46131 0.198632 0
M  V30 2254 C 192.859 -4.10464 1.25769 0
M  V30 2255 C 192.092 -5.28821 0.72002 0
M  V30 2256 O 192.315 -5.6859 -0.453993 0
M  V30 2257 O 191.249 -5.83437 1.47935 0
M  V30 2258 H 195.075 -2.53312 1.67532 0
M  V30 2259 H 192.66 -1.20867 0.878157 0
M  V30 2260 H 194.542 -4.2125 -0.112401 0
M  V30 2261 H 193.217 -3.16338 -0.686419 0
M  V30 2262 H 192.124 -3.3713 1.62156 0
M  V30 2263 H 193.457 -4.44408 2.11571 0
M  V30 2264 N 195.109 -0.891671 -1.2995 0
M  V30 2265 C 196.057 -0.353066 -2.29905 0
M  V30 2266 C 197.051 0.543509 -1.60444 0
M  V30 2267 O 198.257 0.4272 -1.74857 0
M  V30 2268 H 194.632 -0.095531 -0.745907 0
M  V30 2269 H 196.603 -1.20961 -2.72784 0
M  V30 2270 C 195.352 0.411475 -3.45257 0
M  V30 2271 H 194.675 -0.269182 -3.98893 0
M  V30 2272 H 196.115 0.753328 -4.17254 0
M  V30 2273 C 194.574 1.6111 -2.9588 0
M  V30 2274 O 195.104 2.71045 -2.96475 0
M  V30 2275 N 193.31 1.45054 -2.51809 0
M  V30 2276 H 192.857 0.556175 -2.51524 0
M  V30 2277 H 192.815 2.25453 -2.1913 0
M  V30 2278 N 196.587 1.43421 -0.653314 0
M  V30 2279 C 197.497 2.34568 0.0388565 0
M  V30 2280 C 198.513 1.53888 0.81207 0
M  V30 2281 O 199.689 1.86539 0.759294 0
M  V30 2282 C 196.754 3.32167 0.993269 0
M  V30 2283 C 195.815 4.28751 0.216977 0
M  V30 2284 C 195.048 5.21688 1.12593 0
M  V30 2285 O 195.271 5.19052 2.36519 0
M  V30 2286 O 194.205 5.98919 0.598284 0
M  V30 2287 H 198.031 2.95251 -0.711386 0
M  V30 2288 H 195.616 1.43564 -0.413502 0
M  V30 2289 H 197.498 3.92183 1.54176 0
M  V30 2290 H 196.173 2.73987 1.72374 0
M  V30 2291 H 195.08 3.72215 -0.375101 0
M  V30 2292 H 196.413 4.89913 -0.473924 0
M  V30 2293 N 198.065 0.39524 1.52563 0
M  V30 2294 C 199.481 0.0454682 1.59535 0
M  V30 2295 C 199.681 -1.44056 1.4089 0
M  V30 2296 O 198.737 -2.20579 1.22888 0
M  V30 2297 C 200.05 0.527963 2.96029 0
M  V30 2298 C 201.598 0.484733 3.09224 0
M  V30 2299 C 202.073 0.943512 4.48176 0
M  V30 2300 N 203.564 0.899765 4.54377 0
M  V30 2301 C 204.299 1.22609 5.60138 0
M  V30 2302 N 203.795 1.62319 6.73516 0
M  V30 2303 N 205.588 1.14696 5.50274 0
M  V30 2304 H 197.739 1.36261 1.62931 0
M  V30 2305 H 200.002 0.558887 0.765735 0
M  V30 2306 H 199.708 1.56607 3.14908 0
M  V30 2307 H 199.582 -0.0698056 3.77135 0
M  V30 2308 H 201.969 -0.544298 2.90037 0
M  V30 2309 H 202.05 1.11838 2.30056 0
M  V30 2310 H 201.694 1.9708 4.68104 0
M  V30 2311 H 201.624 0.286817 5.25818 0
M  V30 2312 H 204.115 0.607632 3.72983 0
M  V30 2313 H 204.428 1.85567 7.5019 0
M  V30 2314 H 202.773 1.66211 6.74833 0
M  V30 2315 H 205.964 0.835701 4.6058 0
M  V30 2316 H 206.137 1.40459 6.32594 0
M  V30 2317 N 199.544 -1.57102 0.125237 0
M  V30 2318 C 200.793 -1.94582 -0.531095 0
M  V30 2319 C 201.106 -1.01126 -1.6743 0
M  V30 2320 O 202.312 -1.28097 -2.39381 0
M  V30 2321 C 200.768 -3.45839 -0.996164 0
M  V30 2322 C 200.376 -4.47842 0.118926 0
M  V30 2323 C 202.12 -3.92227 -1.62352 0
M  V30 2324 C 200.027 -5.90284 -0.363192 0
M  V30 2325 H 198.957 -0.726391 -0.20217 0
M  V30 2326 H 201.608 -1.82339 0.206092 0
M  V30 2327 H 199.99 -3.53338 -1.78796 0
M  V30 2328 H 201.164 -4.52018 0.895358 0
M  V30 2329 H 199.479 -4.11243 0.653324 0
M  V30 2330 H 202.076 -4.96069 -1.99548 0
M  V30 2331 H 202.419 -3.32552 -2.50429 0
M  V30 2332 H 202.952 -3.87554 -0.897019 0
M  V30 2333 H 199.691 -6.53728 0.481679 0
M  V30 2334 H 199.211 -5.89515 -1.10597 0
M  V30 2335 H 200.89 -6.41752 -0.822377 0
M  V30 2336 N 201.022 0.148545 -1.56898 0
M  V30 2337 C 202.269 0.861418 -1.83264 0
M  V30 2338 C 202.597 1.81239 -0.705883 0
M  V30 2339 O 201.852 1.93305 0.305212 0
M  V30 2340 C 202.151 1.67064 -3.1595 0
M  V30 2341 C 201.817 0.866591 -4.42494 0
M  V30 2342 C 200.479 0.644762 -4.76861 0
M  V30 2343 C 202.831 0.30418 -5.20312 0
M  V30 2344 C 200.159 -0.15021 -5.86508 0
M  V30 2345 C 202.511 -0.477824 -6.30793 0
M  V30 2346 C 201.175 -0.710244 -6.63711 0
M  V30 2347 H 200.445 0.315215 -0.670612 0
M  V30 2348 H 203.092 0.125142 -1.91091 0
M  V30 2349 H 201.397 2.47698 -3.03567 0
M  V30 2350 H 203.094 2.22566 -3.33565 0
M  V30 2351 H 199.684 1.04955 -4.15551 0
M  V30 2352 H 203.868 0.462844 -4.94137 0
M  V30 2353 H 199.124 -0.339796 -6.10455 0
M  V30 2354 H 203.298 -0.92076 -6.90286 0
M  V30 2355 H 200.925 -1.3281 -7.48509 0
M  V30 2356 N 202.5 1.5196 0.417844 0
M  V30 2357 C 203.749 1.6482 1.16264 0
M  V30 2358 C 204.062 0.379886 1.91876 0
M  V30 2359 O 205.268 0.388154 2.68711 0
M  V30 2360 C 203.724 2.91161 2.1155 0
M  V30 2361 C 203.332 4.25068 1.41495 0
M  V30 2362 C 205.076 3.13383 2.86341 0
M  V30 2363 C 202.983 5.42541 2.35379 0
M  V30 2364 H 201.913 0.613954 0.437694 0
M  V30 2365 H 204.564 1.78442 0.427871 0
M  V30 2366 H 202.946 2.71218 2.88543 0
M  V30 2367 H 204.12 4.55463 0.699263 0
M  V30 2368 H 202.435 4.0888 0.787792 0
M  V30 2369 H 205.032 3.98324 3.5671 0
M  V30 2370 H 205.375 2.27256 3.48798 0
M  V30 2371 H 205.908 3.33757 2.1645 0
M  V30 2372 H 202.647 6.30987 1.77582 0
M  V30 2373 H 202.167 5.16497 3.04945 0
M  V30 2374 H 203.846 5.75272 2.96093 0
M  V30 2375 N 203.978 -0.674533 1.42435 0
M  V30 2376 C 204.926 -1.80934 1.46169 0
M  V30 2377 C 205.92 -1.66006 0.3374 0
M  V30 2378 O 207.126 -1.72611 0.510425 0
M  V30 2379 H 203.501 -0.596594 0.457798 0
M  V30 2380 H 205.472 -1.74903 2.41767 0
M  V30 2381 C 204.221 -3.19088 1.38123 0
M  V30 2382 H 203.544 -3.31203 2.23931 0
M  V30 2383 H 204.984 -3.9851 1.44797 0
M  V30 2384 C 203.443 -3.36763 0.0960517 0
M  V30 2385 O 203.973 -3.92581 -0.851073 0
M  V30 2386 N 202.179 -2.90597 0.0131186 0
M  V30 2387 H 201.726 -2.45359 0.784639 0
M  V30 2388 H 201.684 -3.028 -0.846133 0
M  V30 2389 N 205.456 -1.28612 -0.910864 0
M  V30 2390 C 206.867 -1.14406 -1.47541 0
M  V30 2391 C 207.218 0.264901 -1.94403 0
M  V30 2392 O 206.343 1.15942 -1.82719 0
M  V30 2393 C 206.938 -2.07073 -2.68153 0
M  V30 2394 C 205.497 -1.96923 -3.20778 0
M  V30 2395 C 204.644 -1.98646 -1.93481 0
M  V30 2396 H 207.595 -1.41259 -0.723291 0
M  V30 2397 H 207.616 -1.63642 -3.43514 0
M  V30 2398 H 207.128 -3.09611 -2.34015 0
M  V30 2399 H 205.229 -0.97433 -3.59635 0
M  V30 2400 H 205.342 -2.84026 -3.85832 0
M  V30 2401 H 203.706 -1.43093 -2.10705 0
M  V30 2402 H 204.489 -3.02868 -1.61634 0
M  V30 2403 N 206.934 1.1197 -1.10907 0
M  V30 2404 C 208.159 1.87942 -0.877064 0
M  V30 2405 C 208.584 1.79341 0.567314 0
M  V30 2406 O 207.942 1.15184 1.40009 0
M  V30 2407 C 207.99 3.34926 -1.33629 0
M  V30 2408 O 207.094 4.09303 -0.504447 0
M  V30 2409 H 206.435 0.583785 -0.316371 0
M  V30 2410 H 208.965 1.4157 -1.47712 0
M  V30 2411 H 208.975 3.8577 -1.32837 0
M  V30 2412 H 207.65 3.40504 -2.3881 0
M  V30 2413 H 206.227 3.68393 -0.577993 0
M  V30 2414 N 208.412 0.89855 1.29475 0
M  V30 2415 C 209.661 0.519863 1.94885 0
M  V30 2416 C 209.974 -0.9383 1.71625 0
M  V30 2417 O 211.18 -1.42445 2.31131 0
M  V30 2418 C 209.636 0.878836 3.49005 0
M  V30 2419 C 209.244 2.35569 3.81066 0
M  V30 2420 C 210.988 0.570004 4.20656 0
M  V30 2421 C 208.895 2.65558 5.28425 0
M  V30 2422 H 207.825 0.190692 0.729488 0
M  V30 2423 H 210.476 1.09539 1.47219 0
M  V30 2424 H 208.858 0.232253 3.95318 0
M  V30 2425 H 210.032 3.04773 3.45616 0
M  V30 2426 H 208.347 2.63343 3.22552 0
M  V30 2427 H 210.944 0.770925 5.29113 0
M  V30 2428 H 211.287 -0.491404 4.1339 0
M  V30 2429 H 211.82 1.17438 3.8007 0
M  V30 2430 H 208.559 3.70493 5.40754 0
M  V30 2431 H 208.079 2.00977 5.65127 0
M  V30 2432 H 209.758 2.51765 5.96006 0
M  V30 2433 N 209.89 -1.43072 0.660911 0
M  V30 2434 C 211.136 -2.0202 0.177708 0
M  V30 2435 C 211.469 -1.52066 -1.20787 0
M  V30 2436 O 210.744 -0.716987 -1.80802 0
M  V30 2437 C 211.027 -3.59561 0.197019 0
M  V30 2438 C 210.88 -4.19727 1.61706 0
M  V30 2439 C 212.199 -4.37664 -0.462396 0
M  V30 2440 H 209.318 -0.734034 0.0660494 0
M  V30 2441 H 211.96 -1.70272 0.843058 0
M  V30 2442 H 210.11 -3.86739 -0.369527 0
M  V30 2443 H 211.782 -4.03553 2.23479 0
M  V30 2444 H 210.025 -3.76084 2.16201 0
M  V30 2445 H 210.696 -5.28834 1.58237 0
M  V30 2446 H 213.172 -4.16095 0.0197215 0
M  V30 2447 H 212.048 -5.47305 -0.418188 0
M  V30 2448 H 212.309 -4.14493 -1.53778 0
M  V30 2449 N 211.368 -0.403325 -1.52352 0
M  V30 2450 C 212.278 0.432009 -2.30588 0
M  V30 2451 C 213.294 1.05884 -1.38075 0
M  V30 2452 O 214.47 1.06161 -1.71148 0
M  V30 2453 C 211.535 1.53669 -3.10784 0
M  V30 2454 C 210.596 0.933525 -4.19027 0
M  V30 2455 C 209.829 1.98557 -4.9539 0
M  V30 2456 O 210.052 3.20283 -4.71991 0
M  V30 2457 O 208.986 1.59504 -5.80381 0
M  V30 2458 H 212.812 -0.205739 -3.03002 0
M  V30 2459 H 210.397 -0.166675 -1.48467 0
M  V30 2460 H 212.279 2.17814 -3.60742 0
M  V30 2461 H 210.954 2.15915 -2.41169 0
M  V30 2462 H 209.861 0.254954 -3.7323 0
M  V30 2463 H 211.194 0.35508 -4.90918 0
M  V30 2464 N 212.846 1.57033 -0.133567 0
M  V30 2465 C 213.778 2.13176 0.841944 0
M  V30 2466 C 214.791 1.07794 1.22001 0
M  V30 2467 O 215.98 1.35117 1.16643 0
M  V30 2468 C 213.08 2.62847 2.13926 0
M  V30 2469 C 212.253 3.92486 1.93064 0
M  V30 2470 C 211.312 4.27605 3.0666 0
M  V30 2471 O 210.338 4.96168 2.78937 0
M  V30 2472 N 211.54 3.861 4.33483 0
M  V30 2473 H 214.305 2.97503 0.362192 0
M  V30 2474 H 211.866 1.61821 0.05042 0
M  V30 2475 H 213.858 2.83363 2.88942 0
M  V30 2476 H 212.428 1.83319 2.53205 0
M  V30 2477 H 211.648 3.80732 1.02159 0
M  V30 2478 H 212.936 4.77225 1.76447 0
M  V30 2479 H 212.334 3.30828 4.58878 0
M  V30 2480 H 210.891 4.11694 5.05323 0
M  V30 2481 N 214.325 -0.140222 1.56975 0
M  V30 2482 C 215.55 -0.870414 1.88251 0
M  V30 2483 C 215.975 -1.73637 0.723312 0
M  V30 2484 O 215.333 -1.78329 -0.32689 0
M  V30 2485 C 215.381 -1.69737 3.18154 0
M  V30 2486 O 214.485 -2.80229 3.02565 0
M  V30 2487 H 213.826 -0.242025 0.61832 0
M  V30 2488 H 216.356 -0.128999 2.04193 0
M  V30 2489 H 216.366 -2.09099 3.50345 0
M  V30 2490 H 215.041 -1.06152 4.02125 0
M  V30 2491 H 213.618 -2.44224 2.81796 0
M  V30 2492 N 215.803 -1.52179 -0.40978 0
M  V30 2493 C 216.733 -1.78435 -1.5061 0
M  V30 2494 C 217.714 -0.635295 -1.57791 0
M  V30 2495 O 218.899 -0.880823 -1.73076 0
M  V30 2496 C 216.029 -1.93444 -2.88439 0
M  V30 2497 C 214.983 -3.09038 -2.96108 0
M  V30 2498 C 214.309 -3.09268 -4.36185 0
M  V30 2499 C 215.609 -4.48508 -2.67652 0
M  V30 2500 H 217.303 -2.70237 -1.28889 0
M  V30 2501 H 214.849 -1.30036 -0.618605 0
M  V30 2502 H 216.802 -2.10394 -3.65119 0
M  V30 2503 H 215.526 -0.983129 -3.11452 0
M  V30 2504 H 214.185 -2.91837 -2.21872 0
M  V30 2505 H 213.833 -2.11861 -4.56206 0
M  V30 2506 H 213.533 -3.86907 -4.42241 0
M  V30 2507 H 215.057 -3.28348 -5.14801 0
M  V30 2508 H 216.471 -4.65918 -3.34056 0
M  V30 2509 H 214.868 -5.28059 -2.85085 0
M  V30 2510 H 215.938 -4.56649 -1.63095 0
M  V30 2511 N 217.281 0.66697 -1.42791 0
M  V30 2512 C 218.527 1.4291 -1.43891 0
M  V30 2513 C 218.86 1.94114 -0.0578972 0
M  V30 2514 O 218.135 1.71414 0.91911 0
M  V30 2515 C 218.418 2.62049 -2.46987 0
M  V30 2516 C 218.271 2.16426 -3.94309 0
M  V30 2517 C 219.59 3.64266 -2.46978 0
M  V30 2518 H 216.709 0.518306 -0.523954 0
M  V30 2519 H 219.351 0.757321 -1.74255 0
M  V30 2520 H 217.501 3.19361 -2.21225 0
M  V30 2521 H 219.173 1.64221 -4.31079 0
M  V30 2522 H 217.416 1.47925 -4.078 0
M  V30 2523 H 218.087 3.02038 -4.62036 0
M  V30 2524 H 220.563 3.16686 -2.69906 0
M  V30 2525 H 219.439 4.45196 -3.21079 0
M  V30 2526 H 219.7 4.15927 -1.49857 0
M  V30 2527 N 218.759 1.29093 0.90403 0
M  V30 2528 C 219.706 1.13853 2.00764 0
M  V30 2529 C 220.676 0.0330084 1.66067 0
M  V30 2530 O 221.861 0.199733 1.89752 0
M  V30 2531 C 219.001 0.816537 3.35301 0
M  V30 2532 C 218.114 2.00206 3.82807 0
M  V30 2533 C 217.249 1.61983 5.059 0
M  V30 2534 C 216.288 2.77143 5.45764 0
M  V30 2535 N 215.425 2.39346 6.60044 0
M  V30 2536 H 220.265 2.08276 2.13132 0
M  V30 2537 H 217.802 1.03648 1.04381 0
M  V30 2538 H 219.76 0.610557 4.12708 0
M  V30 2539 H 218.39 -0.090779 3.22672 0
M  V30 2540 H 217.442 2.31988 3.01473 0
M  V30 2541 H 218.754 2.86512 4.08304 0
M  V30 2542 H 217.908 1.37649 5.90879 0
M  V30 2543 H 216.647 0.728202 4.82233 0
M  V30 2544 H 215.652 3.02165 4.59322 0
M  V30 2545 H 216.877 3.66964 5.71414 0
M  V30 2546 H 214.823 1.52665 6.37989 0
M  V30 2547 H 214.74 3.19185 6.85315 0
M  V30 2548 H 216.008 2.1832 7.48303 0
M  V30 2549 N 220.237 -1.11381 1.11499 0
M  V30 2550 C 221.167 -2.19509 0.796125 0
M  V30 2551 C 222.148 -1.68458 -0.235796 0
M  V30 2552 O 223.333 -1.93947 -0.0991344 0
M  V30 2553 C 220.463 -3.46475 0.239205 0
M  V30 2554 C 219.417 -4.10744 1.20307 0
M  V30 2555 C 218.743 -5.32293 0.50683 0
M  V30 2556 C 220.043 -4.55597 2.55399 0
M  V30 2557 H 221.737 -2.46439 1.70024 0
M  V30 2558 H 219.283 -1.18446 0.818935 0
M  V30 2559 H 221.236 -4.214 0.00392006 0
M  V30 2560 H 219.96 -3.19006 -0.700206 0
M  V30 2561 H 218.619 -3.37813 1.42399 0
M  V30 2562 H 218.267 -5.01095 -0.437408 0
M  V30 2563 H 217.967 -5.76243 1.1497 0
M  V30 2564 H 219.491 -6.09956 0.280351 0
M  V30 2565 H 220.905 -5.21841 2.37391 0
M  V30 2566 H 219.302 -5.10363 3.15673 0
M  V30 2567 H 220.372 -3.69013 3.14575 0
M  V30 2568 N 221.715 -0.905404 -1.28997 0
M  V30 2569 C 222.662 -0.385892 -2.27551 0
M  V30 2570 C 223.632 0.535113 -1.57244 0
M  V30 2571 O 224.817 0.459119 -1.85194 0
M  V30 2572 C 221.957 0.375461 -3.43051 0
M  V30 2573 C 221.07 -0.577092 -4.28128 0
M  V30 2574 C 220.205 0.201879 -5.30816 0
M  V30 2575 C 219.244 -0.744829 -6.07551 0
M  V30 2576 N 218.381 9.42587e-05 -7.021 0
M  V30 2577 H 223.221 -1.23139 -2.71368 0
M  V30 2578 H 220.758 -0.618542 -1.33463 0
M  V30 2579 H 222.716 0.832992 -4.088 0
M  V30 2580 H 221.346 1.18537 -3.00248 0
M  V30 2581 H 220.398 -1.15315 -3.62501 0
M  V30 2582 H 221.71 -1.30152 -4.8152 0
M  V30 2583 H 220.864 0.720351 -6.02408 0
M  V30 2584 H 219.603 0.959413 -4.7817 0
M  V30 2585 H 218.608 -1.27475 -5.34818 0
M  V30 2586 H 219.833 -1.50178 -6.62286 0
M  V30 2587 H 217.779 0.739791 -6.51815 0
M  V30 2588 H 217.696 -0.664321 -7.53076 0
M  V30 2589 H 218.964 0.498644 -7.77903 0
M  V30 2590 N 223.193 1.4272 -0.668489 0
M  V30 2591 C 224.123 2.335 -0.000100175 0
M  V30 2592 C 225.104 1.50328 0.795964 0
M  V30 2593 O 226.289 1.78949 0.754385 0
M  V30 2594 C 223.419 3.33874 0.956302 0
M  V30 2595 C 222.373 4.27152 0.269278 0
M  V30 2596 C 221.699 5.17684 1.33818 0
M  V30 2597 C 222.999 5.15373 -0.847805 0
M  V30 2598 H 224.693 2.89639 -0.758244 0
M  V30 2599 H 222.239 1.39269 -0.366079 0
M  V30 2600 H 224.192 3.9629 1.43292 0
M  V30 2601 H 222.916 2.76025 1.74579 0
M  V30 2602 H 221.575 3.66123 -0.187042 0
M  V30 2603 H 221.223 4.56165 2.1195 0
M  V30 2604 H 220.923 5.80918 0.883659 0
M  V30 2605 H 222.447 5.82974 1.81586 0
M  V30 2606 H 223.861 5.7151 -0.452681 0
M  V30 2607 H 222.258 5.87407 -1.22773 0
M  V30 2608 H 223.328 4.5415 -1.69929 0
M  V30 2609 N 224.671 0.411399 1.52136 0
M  V30 2610 C 225.92 -0.165009 2.01024 0
M  V30 2611 C 226.233 -1.4603 1.30133 0
M  V30 2612 O 227.439 -2.1181 1.69849 0
M  V30 2613 C 225.895 -0.344618 3.58246 0
M  V30 2614 C 225.503 0.938716 4.38055 0
M  V30 2615 C 227.247 -0.876195 4.15359 0
M  V30 2616 C 225.154 0.726172 5.86925 0
M  V30 2617 H 224.084 -0.0654407 0.751155 0
M  V30 2618 H 226.735 0.537192 1.75461 0
M  V30 2619 H 225.117 -1.10921 3.80148 0
M  V30 2620 H 226.291 1.70963 4.27912 0
M  V30 2621 H 224.606 1.39688 3.92271 0
M  V30 2622 H 227.203 -1.05128 5.24263 0
M  V30 2623 H 227.546 -1.85152 3.7286 0
M  V30 2624 H 228.079 -0.170607 3.97434 0
M  V30 2625 H 224.818 1.67312 6.33788 0
M  V30 2626 H 224.338 -0.00540283 5.998 0
M  V30 2627 H 226.017 0.369231 6.45946 0
M  V30 2628 N 226.149 -1.5696 0.141893 0
M  V30 2629 C 227.059 -2.20066 -0.812905 0
M  V30 2630 C 228.075 -1.18344 -1.27557 0
M  V30 2631 O 229.251 -1.50902 -1.33381 0
M  V30 2632 C 226.316 -2.80583 -2.03652 0
M  V30 2633 C 225.377 -3.97414 -1.62359 0
M  V30 2634 C 224.61 -4.55036 -2.78887 0
M  V30 2635 O 224.833 -4.11538 -3.94959 0
M  V30 2636 O 223.767 -5.45376 -2.54653 0
M  V30 2637 H 227.593 -3.02157 -0.305746 0
M  V30 2638 H 225.178 -1.49159 -0.0848799 0
M  V30 2639 H 227.06 -3.19067 -2.75272 0
M  V30 2640 H 225.735 -2.01508 -2.5333 0
M  V30 2641 H 224.642 -3.63656 -0.877775 0
M  V30 2642 H 225.975 -4.77994 -1.17401 0
M  V30 2643 N 227.627 0.131896 -1.57047 0
M  V30 2644 C 228.875 0.840269 -1.83804 0
M  V30 2645 C 229.196 1.81017 -0.72512 0
M  V30 2646 O 228.466 1.94272 0.251995 0
M  V30 2647 H 227.046 0.313294 -0.678127 0
M  V30 2648 H 229.708 0.122294 -1.94516 0
M  V30 2649 H 228.804 1.39335 -2.79271 0
M  V30 2650 N 229.106 1.52395 0.401703 0
M  V30 2651 C 230.346 1.68498 1.15705 0
M  V30 2652 C 230.71 0.409748 1.87577 0
M  V30 2653 O 231.911 0.446983 2.65058 0
M  V30 2654 C 230.182 2.87789 2.11924 0
M  V30 2655 S 231.741 3.24415 2.95466 0
M  V30 2656 H 228.559 0.593267 0.391862 0
M  V30 2657 H 231.161 1.90408 0.443282 0
M  V30 2658 H 229.865 3.7884 1.57824 0
M  V30 2659 H 229.396 2.68175 2.87829 0
M  V30 2660 H 231.411 2.73614 4.13944 0
M  V30 2661 N 230.584 -0.659388 1.43143 0
M  V30 2662 C 231.514 -1.78422 1.50625 0
M  V30 2663 C 232.495 -1.66216 0.361443 0
M  V30 2664 O 233.68 -1.85404 0.577834 0
M  V30 2665 C 230.81 -3.16815 1.42287 0
M  V30 2666 C 229.764 -3.43777 2.54954 0
M  V30 2667 C 229.09 -4.81905 2.31671 0
M  V30 2668 C 230.39 -3.39134 3.97222 0
M  V30 2669 H 232.084 -1.72417 2.44771 0
M  V30 2670 H 229.63 -0.828084 1.17808 0
M  V30 2671 H 231.583 -3.95253 1.46127 0
M  V30 2672 H 230.307 -3.23534 0.446435 0
M  V30 2673 H 228.966 -2.67707 2.50457 0
M  V30 2674 H 228.614 -4.85294 1.32284 0
M  V30 2675 H 228.314 -5.00906 3.07192 0
M  V30 2676 H 229.838 -5.62609 2.37284 0
M  V30 2677 H 231.252 -4.07518 4.03239 0
M  V30 2678 H 229.649 -3.69671 4.72719 0
M  V30 2679 H 230.719 -2.37426 4.22797 0
M  V30 2680 N 232.062 -1.29571 -0.897171 0
M  V30 2681 C 233.287 -1.20705 -1.68656 0
M  V30 2682 C 233.712 0.228582 -1.86706 0
M  V30 2683 O 233.07 1.16494 -1.3892 0
M  V30 2684 C 233.118 -1.9282 -3.04717 0
M  V30 2685 O 232.222 -1.24697 -3.93096 0
M  V30 2686 H 231.563 -0.418126 -0.515816 0
M  V30 2687 H 234.093 -1.71183 -1.12061 0
M  V30 2688 H 234.103 -2.01372 -3.54843 0
M  V30 2689 H 232.778 -2.97239 -2.90899 0
M  V30 2690 H 231.355 -1.2442 -3.51531 0
M  V30 2691 N 233.54 1.10788 -1.12088 0
M  V30 2692 C 234.787 1.82671 -0.873931 0
M  V30 2693 C 235.115 1.85004 0.600311 0
M  V30 2694 O 234.37 1.30365 1.45957 0
M  V30 2695 C 234.669 3.29294 -1.38926 0
M  V30 2696 C 234.335 3.47113 -2.87791 0
M  V30 2697 C 232.997 3.51684 -3.28439 0
M  V30 2698 C 235.349 3.52808 -3.83635 0
M  V30 2699 C 232.677 3.59513 -4.63646 0
M  V30 2700 C 235.029 3.62169 -5.18668 0
M  V30 2701 C 233.693 3.65003 -5.58864 0
M  V30 2702 H 232.963 0.668441 -0.319794 0
M  V30 2703 H 235.61 1.30613 -1.40045 0
M  V30 2704 H 233.915 3.83894 -0.783122 0
M  V30 2705 H 235.612 3.83416 -1.17443 0
M  V30 2706 H 232.202 3.4423 -2.5535 0
M  V30 2707 H 236.386 3.4853 -3.53328 0
M  V30 2708 H 231.642 3.59987 -4.94185 0
M  V30 2709 H 235.816 3.6552 -5.92763 0
M  V30 2710 H 233.443 3.70822 -6.63623 0
M  V30 2711 N 235.018 0.912232 1.28515 0
M  V30 2712 C 236.429 0.591352 1.77087 0
M  V30 2713 C 236.78 -0.8933 1.74684 0
M  V30 2714 O 235.905 -1.69876 1.34056 0
M  V30 2715 C 236.5 1.06668 3.2157 0
M  V30 2716 C 235.059 0.79675 3.67871 0
M  V30 2717 C 234.206 1.23427 2.48316 0
M  V30 2718 H 237.157 1.09365 1.15 0
M  V30 2719 H 237.178 0.407455 3.78312 0
M  V30 2720 H 236.69 2.14726 3.23287 0
M  V30 2721 H 234.791 -0.270679 3.71616 0
M  V30 2722 H 234.904 1.40343 4.58084 0
M  V30 2723 H 233.268 0.653036 2.46186 0
M  V30 2724 H 234.051 2.32316 2.52753 0
M  V30 2725 N 236.496 -1.42363 0.676048 0
M  V30 2726 C 237.744 -2.01123 0.198437 0
M  V30 2727 C 238.065 -1.53731 -1.19966 0
M  V30 2728 O 237.335 -0.759518 -1.80577 0
M  V30 2729 H 235.915 -0.743678 0.0703721 0
M  V30 2730 H 238.577 -1.74263 0.872837 0
M  V30 2731 H 237.673 -3.11454 0.200686 0
M  V30 2732 N 237.974 -0.419461 -1.51915 0
M  V30 2733 C 239.223 0.154346 -2.01109 0
M  V30 2734 C 239.536 1.45338 -1.30905 0
M  V30 2735 O 240.742 2.10906 -1.7097 0
M  V30 2736 C 239.198 0.325615 -3.58424 0
M  V30 2737 C 238.806 -0.961934 -4.37551 0
M  V30 2738 C 240.55 0.854155 -4.15818 0
M  V30 2739 C 238.457 -0.757287 -5.86531 0
M  V30 2740 H 237.387 0.0614563 -0.751491 0
M  V30 2741 H 240.038 -0.54649 -1.75173 0
M  V30 2742 H 238.42 1.08903 -3.80731 0
M  V30 2743 H 239.594 -1.7323 -4.26999 0
M  V30 2744 H 237.909 -1.41766 -3.91524 0
M  V30 2745 H 240.506 1.02346 -5.24814 0
M  V30 2746 H 240.849 1.83172 -3.73837 0
M  V30 2747 H 241.382 0.149528 -3.97519 0
M  V30 2748 H 238.121 -1.70671 -6.32892 0
M  V30 2749 H 237.641 -0.0264061 -5.99794 0
M  V30 2750 H 239.32 -0.403482 -6.45741 0
M  V30 2751 N 239.452 1.56882 -0.150215 0
M  V30 2752 C 240.362 2.20494 0.801222 0
M  V30 2753 C 241.378 1.19019 1.26927 0
M  V30 2754 O 242.554 1.51607 1.32579 0
M  V30 2755 C 239.619 2.81659 2.02161 0
M  V30 2756 C 238.68 3.9827 1.60249 0
M  V30 2757 C 237.913 4.56508 2.7647 0
M  V30 2758 O 238.136 4.13627 3.92771 0
M  V30 2759 O 237.07 5.46719 2.51757 0
M  V30 2760 H 240.896 3.02315 0.289717 0
M  V30 2761 H 238.481 1.49202 0.0769684 0
M  V30 2762 H 240.363 3.20522 2.73576 0
M  V30 2763 H 239.038 2.02849 2.52258 0
M  V30 2764 H 237.945 3.64117 0.858477 0
M  V30 2765 H 239.278 4.78609 1.14864 0
M  V30 2766 N 240.93 -0.123565 1.57115 0
M  V30 2767 C 242.178 -0.83051 1.84247 0
M  V30 2768 C 242.499 -1.80629 0.73471 0
M  V30 2769 O 241.769 -1.94403 -0.241688 0
M  V30 2770 H 240.349 -0.309694 0.679778 0
M  V30 2771 H 243.011 -0.111976 1.94578 0
M  V30 2772 H 242.107 -1.37852 2.80006 0
M  V30 2773 N 242.408 -1.52605 -0.393616 0
M  V30 2774 C 243.355 -1.77055 -1.48054 0
M  V30 2775 C 244.325 -0.61358 -1.54352 0
M  V30 2776 O 245.51 -0.852806 -1.70681 0
M  V30 2777 C 242.65 -1.94108 -2.85335 0
M  V30 2778 C 241.763 -3.21792 -2.88226 0
M  V30 2779 C 240.898 -3.29188 -4.16904 0
M  V30 2780 C 239.937 -4.51013 -4.13828 0
M  V30 2781 N 239.074 -4.55716 -5.34105 0
M  V30 2782 H 243.914 -2.69815 -1.26506 0
M  V30 2783 H 241.451 -1.33683 -0.61379 0
M  V30 2784 H 243.409 -2.01979 -3.65049 0
M  V30 2785 H 242.039 -1.04713 -3.05344 0
M  V30 2786 H 241.091 -3.23015 -2.00911 0
M  V30 2787 H 242.403 -4.11557 -2.8182 0
M  V30 2788 H 241.557 -3.36216 -5.05018 0
M  V30 2789 H 240.296 -2.37389 -4.26026 0
M  V30 2790 H 239.301 -4.44115 -3.24102 0
M  V30 2791 H 240.526 -5.44123 -4.06333 0
M  V30 2792 H 238.472 -3.66807 -5.43865 0
M  V30 2793 H 238.389 -5.39346 -5.29756 0
M  V30 2794 H 239.657 -4.66993 -6.2413 0
M  V30 2795 N 243.887 0.651787 -1.4349 0
M  V30 2796 C 245.133 1.41376 -1.45398 0
M  V30 2797 C 245.466 1.94041 -0.0784823 0
M  V30 2798 O 244.741 1.72379 0.900878 0
M  V30 2799 C 245.024 2.59414 -2.49752 0
M  V30 2800 C 244.877 2.12232 -3.96582 0
M  V30 2801 C 246.196 3.61626 -2.50827 0
M  V30 2802 H 243.315 0.512719 -0.529422 0
M  V30 2803 H 245.957 0.738796 -1.75048 0
M  V30 2804 H 244.107 3.16997 -2.246 0
M  V30 2805 H 245.779 1.59639 -4.32797 0
M  V30 2806 H 244.022 1.43592 -4.09346 0
M  V30 2807 H 244.693 2.9712 -4.65214 0
M  V30 2808 H 247.169 3.13805 -2.7325 0
M  V30 2809 H 246.045 4.41766 -3.25783 0
M  V30 2810 H 246.306 4.14314 -1.5426 0
M  V30 2811 N 245.365 1.30045 0.890287 0
M  V30 2812 C 246.275 1.17885 2.02831 0
M  V30 2813 C 247.291 0.0999609 1.73713 0
M  V30 2814 O 248.467 0.313867 1.98939 0
M  V30 2815 C 245.532 0.866079 3.35708 0
M  V30 2816 C 244.593 2.02979 3.78283 0
M  V30 2817 C 243.826 1.73184 5.0482 0
M  V30 2818 O 244.049 0.657237 5.66601 0
M  V30 2819 O 242.983 2.58267 5.43674 0
M  V30 2820 H 246.809 2.13474 2.16015 0
M  V30 2821 H 244.394 1.09587 1.01543 0
M  V30 2822 H 246.276 0.706623 4.15433 0
M  V30 2823 H 244.951 -0.0599443 3.23644 0
M  V30 2824 H 243.858 2.24454 2.99285 0
M  V30 2825 H 245.191 2.93734 3.94944 0
M  V30 2826 N 246.843 -1.10192 1.12674 0
M  V30 2827 C 248.259 -1.34235 0.863317 0
M  V30 2828 C 248.459 -1.95062 -0.505277 0
M  V30 2829 O 247.515 -2.19192 -1.25345 0
M  V30 2830 C 248.828 -2.2616 1.98172 0
M  V30 2831 C 250.376 -2.3969 2.0129 0
M  V30 2832 C 250.851 -3.34946 3.1237 0
M  V30 2833 N 252.342 -3.42515 3.11829 0
M  V30 2834 C 253.077 -4.16199 3.94419 0
M  V30 2835 N 252.573 -4.92747 4.87004 0
M  V30 2836 N 254.366 -4.11843 3.82547 0
M  V30 2837 H 246.517 -0.690798 2.00853 0
M  V30 2838 H 248.78 -0.366774 0.874174 0
M  V30 2839 H 248.486 -1.8868 2.96804 0
M  V30 2840 H 248.36 -3.26488 1.88906 0
M  V30 2841 H 250.747 -2.76438 1.03276 0
M  V30 2842 H 250.828 -1.39169 2.14629 0
M  V30 2843 H 250.472 -2.98923 4.10619 0
M  V30 2844 H 250.402 -4.35353 2.96269 0
M  V30 2845 H 252.893 -2.87926 2.44759 0
M  V30 2846 H 253.206 -5.46376 5.46528 0
M  V30 2847 H 251.551 -4.91862 4.91016 0
M  V30 2848 H 254.742 -3.51136 3.0955 0
M  V30 2849 H 254.915 -4.69007 4.47142 0
M  V30 2850 N 248.321 -0.919034 -1.28029 0
M  V30 2851 C 249.732 -0.600735 -1.76771 0
M  V30 2852 C 250.083 0.884024 -1.75156 0
M  V30 2853 O 249.208 1.69163 -1.34956 0
M  V30 2854 C 249.803 -1.08372 -3.21 0
M  V30 2855 C 248.362 -0.816248 -3.67443 0
M  V30 2856 C 247.509 -1.24742 -2.47658 0
M  V30 2857 H 250.46 -1.09974 -1.14418 0
M  V30 2858 H 250.481 -0.427512 -3.78091 0
M  V30 2859 H 249.993 -2.16437 -3.22144 0
M  V30 2860 H 248.094 0.250968 -3.71754 0
M  V30 2861 H 248.207 -1.4277 -4.57333 0
M  V30 2862 H 246.571 -0.666083 -2.45836 0
M  V30 2863 H 247.354 -2.33653 -2.51518 0
M  V30 2864 N 249.799 1.42003 -0.683588 0
M  V30 2865 C 251.024 2.06265 -0.216647 0
M  V30 2866 C 251.449 1.51059 1.12083 0
M  V30 2867 O 250.807 0.632638 1.69904 0
M  V30 2868 C 250.855 3.60191 -0.171759 0
M  V30 2869 O 249.959 4.03396 0.857069 0
M  V30 2870 H 249.3 0.65502 -0.108834 0
M  V30 2871 H 251.83 1.81982 -0.935077 0
M  V30 2872 H 251.84 4.08 0.0014303 0
M  V30 2873 H 250.515 3.99743 -1.14796 0
M  V30 2874 H 249.092 3.67117 0.654208 0
M  V30 2875 N 251.277 0.427512 1.51691 0
M  V30 2876 C 252.526 -0.143679 2.01188 0
M  V30 2877 C 252.839 -1.44642 1.31674 0
M  V30 2878 O 254.045 -2.09997 1.72086 0
M  V30 2879 C 252.501 -0.306602 3.58592 0
M  V30 2880 C 252.109 0.985125 4.37035 0
M  V30 2881 C 253.853 -0.832091 4.16265 0
M  V30 2882 C 251.76 0.788382 5.86122 0
M  V30 2883 H 250.69 -0.0574701 0.751807 0
M  V30 2884 H 253.341 0.555772 1.74881 0
M  V30 2885 H 251.723 -1.06882 3.81303 0
M  V30 2886 H 252.897 1.75492 4.26074 0
M  V30 2887 H 251.212 1.4384 3.90767 0
M  V30 2888 H 253.809 -0.995617 5.25349 0
M  V30 2889 H 254.152 -1.81186 3.74803 0
M  V30 2890 H 254.685 -0.128444 3.97593 0
M  V30 2891 H 251.424 1.74025 6.31978 0
M  V30 2892 H 250.944 0.0582143 5.99772 0
M  V30 2893 H 252.623 0.437722 6.45518 0
M  V30 2894 N 252.755 -1.56801 0.158532 0
M  V30 2895 C 254.001 -1.96781 -0.490405 0
M  V30 2896 C 254.334 -1.04397 -1.63753 0
M  V30 2897 O 253.609 -0.0885805 -1.94298 0
M  V30 2898 C 253.892 -3.4635 -0.985594 0
M  V30 2899 C 253.745 -4.49512 0.160824 0
M  V30 2900 C 255.064 -3.98697 -1.86355 0
M  V30 2901 H 252.183 -0.715482 -0.176788 0
M  V30 2902 H 254.825 -1.88451 0.242088 0
M  V30 2903 H 252.975 -3.53579 -1.60978 0
M  V30 2904 H 254.647 -4.54353 0.797537 0
M  V30 2905 H 252.89 -4.26013 0.818256 0
M  V30 2906 H 253.561 -5.51531 -0.227569 0
M  V30 2907 H 256.037 -3.94019 -1.33746 0
M  V30 2908 H 254.913 -5.03792 -2.17909 0
M  V30 2909 H 255.174 -3.41744 -2.8047 0
M  V30 2910 N 254.233 0.115231 -1.57178 0
M  V30 2911 C 255.458 0.840354 -1.89612 0
M  V30 2912 C 255.883 1.72464 -0.750845 0
M  V30 2913 O 255.241 1.78826 0.298478 0
M  V30 2914 C 255.289 1.64654 -3.20814 0
M  V30 2915 O 254.393 2.7538 -3.06985 0
M  V30 2916 H 253.734 0.232158 -0.622092 0
M  V30 2917 H 256.264 0.0964977 -2.04372 0
M  V30 2918 H 256.274 2.03499 -3.53627 0
M  V30 2919 H 254.949 0.997416 -4.03763 0
M  V30 2920 H 253.526 2.3971 -2.85646 0
M  V30 2921 N 255.711 1.52812 0.385517 0
M  V30 2922 C 256.96 1.67249 1.12741 0
M  V30 2923 C 257.273 0.4205 1.91027 0
M  V30 2924 O 258.479 0.445064 2.67827 0
M  V30 2925 C 256.935 2.95583 2.05326 0
M  V30 2926 C 256.543 4.27974 1.32447 0
M  V30 2927 C 258.287 3.19386 2.7963 0
M  V30 2928 C 256.194 5.47412 2.23818 0
M  V30 2929 H 255.124 0.6231 0.424573 0
M  V30 2930 H 257.775 1.79309 0.389924 0
M  V30 2931 H 256.157 2.77277 2.82725 0
M  V30 2932 H 257.331 4.56844 0.602495 0
M  V30 2933 H 255.646 4.10459 0.700885 0
M  V30 2934 H 258.243 4.05801 3.48181 0
M  V30 2935 H 258.586 2.34604 3.43899 0
M  V30 2936 H 259.119 3.38274 2.09322 0
M  V30 2937 H 255.858 6.34612 1.64157 0
M  V30 2938 H 255.378 5.22849 2.93921 0
M  V30 2939 H 257.057 5.81423 2.83824 0
M  V30 2940 N 257.189 -0.644168 1.43834 0
M  V30 2941 C 258.414 -1.43642 1.49605 0
M  V30 2942 C 258.839 -1.8773 0.117913 0
M  V30 2943 O 258.197 -1.57938 -0.890239 0
M  V30 2944 C 258.245 -2.6416 2.45463 0
M  V30 2945 O 257.349 -3.63538 1.94714 0
M  V30 2946 H 256.69 -0.430329 0.50568 0
M  V30 2947 H 259.22 -0.787448 1.8884 0
M  V30 2948 H 259.23 -3.11864 2.63068 0
M  V30 2949 H 257.905 -2.31414 3.45572 0
M  V30 2950 H 256.482 -3.2273 1.86814 0
M  V30 2951 N 258.668 -1.30515 -0.883378 0
M  V30 2952 C 259.898 -1.22182 -1.66599 0
M  V30 2953 C 260.306 0.217507 -1.87946 0
M  V30 2954 O 259.649 1.1554 -1.42815 0
M  V30 2955 C 259.711 -1.88146 -3.06335 0
M  V30 2956 C 259.375 -3.37476 -3.08154 0
M  V30 2957 C 260.372 -4.33443 -2.87094 0
M  V30 2958 C 258.057 -3.7895 -3.29701 0
M  V30 2959 C 260.051 -5.68858 -2.8754 0
M  V30 2960 C 257.738 -5.14482 -3.29776 0
M  V30 2961 C 258.736 -6.09246 -3.0872 0
M  V30 2962 O 258.424 -7.42302 -3.08615 0
M  V30 2963 H 258.156 -0.423898 -0.52658 0
M  V30 2964 H 260.71 -1.72703 -1.11188 0
M  V30 2965 H 258.94 -1.32157 -3.63416 0
M  V30 2966 H 260.629 -1.7391 -3.66756 0
M  V30 2967 H 261.395 -4.02733 -2.70243 0
M  V30 2968 H 257.274 -3.05631 -3.45124 0
M  V30 2969 H 260.818 -6.428 -2.71024 0
M  V30 2970 H 256.715 -5.44832 -3.46163 0
M  V30 2971 H 257.483 -7.5131 -3.24769 0
M  V30 2972 N 260.146 1.09593 -1.13257 0
M  V30 2973 C 261.376 1.85231 -0.915049 0
M  V30 2974 C 261.784 1.81345 0.539498 0
M  V30 2975 O 261.127 1.20664 1.38513 0
M  V30 2976 C 261.189 3.34275 -1.3229 0
M  V30 2977 C 260.853 3.6191 -2.79052 0
M  V30 2978 C 261.85 3.57777 -3.77216 0
M  V30 2979 C 259.535 3.90309 -3.16171 0
M  V30 2980 C 261.529 3.81652 -5.1051 0
M  V30 2981 C 259.216 4.13839 -4.49644 0
M  V30 2982 C 260.214 4.09502 -5.46623 0
M  V30 2983 O 259.902 4.32426 -6.77689 0
M  V30 2984 H 259.634 0.591997 -0.326367 0
M  V30 2985 H 262.188 1.394 -1.50854 0
M  V30 2986 H 260.418 3.80805 -0.672667 0
M  V30 2987 H 262.107 3.9132 -1.07812 0
M  V30 2988 H 262.873 3.35865 -3.49885 0
M  V30 2989 H 258.752 3.92811 -2.41289 0
M  V30 2990 H 262.296 3.78182 -5.86195 0
M  V30 2991 H 258.193 4.35232 -4.767 0
M  V30 2992 H 258.961 4.49896 -6.83766 0
M  V30 2993 N 261.624 0.925811 1.2754 0
M  V30 2994 C 262.901 0.483726 1.89524 0
M  V30 2995 C 263.281 -1.03809 1.83812 0
M  V30 2996 O 262.629 -1.89143 1.28207 0
M  V30 2997 C 262.839 1.02769 3.33526 0
M  V30 2998 C 264.187 1.08703 4.10449 0
M  V30 2999 O 265.211 0.977175 3.42534 0
M  V30 3000 O 264.07 1.25599 5.31871 0
M  V30 3001 H 261.164 0.15529 0.812289 0
M  V30 3002 H 263.71 1.01738 1.35822 0
M  V30 3003 H 262.482 2.07155 3.31967 0
M  V30 3004 H 262.105 0.475567 3.94746 0
M  V30 3005 N 263.102 -1.41638 0.69111 0
M  V30 3006 C 264.351 -2.00526 0.217318 0
M  V30 3007 C 264.664 -1.55353 -1.18848 0
M  V30 3008 O 265.87 -2.06769 -1.75951 0
M  V30 3009 C 264.326 -3.58313 0.337639 0
M  V30 3010 C 263.934 -4.12469 1.74852 0
M  V30 3011 C 265.678 -4.24431 -0.0766066 0
M  V30 3012 C 263.585 -5.62675 1.82074 0
M  V30 3013 H 262.515 -0.750008 0.0774893 0
M  V30 3014 H 265.166 -1.6217 0.858661 0
M  V30 3015 H 263.548 -3.9425 -0.371879 0
M  V30 3016 H 264.722 -3.8796 2.48644 0
M  V30 3017 H 263.037 -3.58861 2.11205 0
M  V30 3018 H 265.634 -5.34683 -0.0430284 0
M  V30 3019 H 265.977 -4.01101 -1.1146 0
M  V30 3020 H 266.51 -3.93512 0.582476 0
M  V30 3021 H 263.249 -5.90826 2.83911 0
M  V30 3022 H 262.769 -5.89124 1.12661 0
M  V30 3023 H 264.448 -6.27371 1.58159 0
M  V30 3024 N 264.58 -0.43555 -1.51462 0
M  V30 3025 C 265.528 0.391205 -2.29287 0
M  V30 3026 C 266.522 1.02247 -1.35062 0
M  V30 3027 O 267.728 0.957646 -1.52411 0
M  V30 3028 H 264.103 0.144968 -0.737895 0
M  V30 3029 H 266.074 -0.286051 -2.97026 0
M  V30 3030 C 264.823 1.48096 -3.14583 0
M  V30 3031 H 264.146 1.00457 -3.86973 0
M  V30 3032 H 265.586 2.03273 -3.72097 0
M  V30 3033 C 264.045 2.46321 -2.29843 0
M  V30 3034 O 264.575 3.50815 -1.95682 0
M  V30 3035 N 262.781 2.17166 -1.931 0
M  V30 3036 H 262.328 1.32218 -2.21079 0
M  V30 3037 H 262.286 2.83127 -1.36698 0
M  V30 3038 N 266.058 1.56714 -0.166846 0
M  V30 3039 C 267.306 1.96358 0.478305 0
M  V30 3040 C 267.627 1.0537 1.6408 0
M  V30 3041 O 266.897 0.119154 1.95537 0
M  V30 3042 H 265.477 0.725065 0.179692 0
M  V30 3043 H 268.139 1.93329 -0.246985 0
M  V30 3044 H 267.235 3.00547 0.841292 0
M  V30 3045 N 267.536 -0.106894 1.57237 0
M  V30 3046 C 268.766 -0.825191 1.89405 0
M  V30 3047 C 269.174 -1.73374 0.757496 0
M  V30 3048 O 268.517 -1.81552 -0.280115 0
M  V30 3049 C 268.579 -1.70102 3.1671 0
M  V30 3050 C 268.243 -0.965523 4.46684 0
M  V30 3051 C 269.24 -0.300741 5.19029 0
M  V30 3052 C 266.925 -0.943105 4.93367 0
M  V30 3053 C 268.919 0.376622 6.36286 0
M  V30 3054 C 266.606 -0.261949 6.10538 0
M  V30 3055 C 267.604 0.396748 6.81847 0
M  V30 3056 O 267.292 1.06701 7.96787 0
M  V30 3057 H 267.024 -0.241852 0.631255 0
M  V30 3058 H 269.578 -0.0921491 2.05193 0
M  V30 3059 H 267.808 -2.47601 2.97036 0
M  V30 3060 H 269.497 -2.29483 3.34802 0
M  V30 3061 H 270.263 -0.309599 4.84011 0
M  V30 3062 H 266.142 -1.44524 4.3776 0
M  V30 3063 H 269.686 0.891334 6.91882 0
M  V30 3064 H 265.583 -0.250896 6.45012 0
M  V30 3065 H 266.351 0.972707 8.127 0
M  V30 3066 N 269.014 -1.53014 -0.377408 0
M  V30 3067 C 269.961 -1.78616 -1.46168 0
M  V30 3068 C 270.931 -0.629917 -1.53692 0
M  V30 3069 O 272.116 -0.870861 -1.69766 0
M  V30 3070 C 269.256 -1.97123 -2.8326 0
M  V30 3071 C 268.369 -3.24831 -2.84796 0
M  V30 3072 C 267.504 -3.33591 -4.13389 0
M  V30 3073 C 266.543 -4.55377 -4.09021 0
M  V30 3074 N 265.68 -4.61355 -5.29241 0
M  V30 3075 H 270.52 -2.71142 -1.23637 0
M  V30 3076 H 268.057 -1.34326 -0.599577 0
M  V30 3077 H 270.015 -2.05839 -3.62886 0
M  V30 3078 H 268.645 -1.07946 -3.04216 0
M  V30 3079 H 267.697 -3.25128 -1.97474 0
M  V30 3080 H 269.009 -4.14523 -2.77439 0
M  V30 3081 H 268.163 -3.41554 -5.01424 0
M  V30 3082 H 266.902 -2.41894 -4.23484 0
M  V30 3083 H 265.907 -4.47527 -3.19373 0
M  V30 3084 H 267.132 -5.48402 -4.00539 0
M  V30 3085 H 265.078 -3.72554 -5.39944 0
M  V30 3086 H 264.995 -5.44935 -5.24006 0
M  V30 3087 H 266.263 -4.73586 -6.19141 0
M  V30 3088 N 270.492 0.636531 -1.44174 0
M  V30 3089 C 271.442 1.74233 -1.47061 0
M  V30 3090 C 272.426 1.57331 -0.337034 0
M  V30 3091 O 273.618 1.67159 -0.581973 0
M  V30 3092 C 270.747 3.12897 -1.41246 0
M  V30 3093 C 269.833 3.35288 -2.59698 0
M  V30 3094 N 270.224 3.2807 -3.84972 0
M  V30 3095 C 268.522 3.66065 -2.54778 0
M  V30 3096 C 269.223 3.51001 -4.63867 0
M  V30 3097 N 268.199 3.73616 -3.94857 0
M  V30 3098 H 272.001 1.67103 -2.41773 0
M  V30 3099 H 269.515 0.838806 -1.3906 0
M  V30 3100 H 271.512 3.92189 -1.41398 0
M  V30 3101 H 270.172 3.21197 -0.47569 0
M  V30 3102 H 271.183 3.07109 -4.17019 0
M  V30 3103 H 267.86 3.81379 -1.6987 0
M  V30 3104 H 269.25 3.51059 -5.72894 0
M  V30 3105 N 271.97 1.30982 0.876444 0
M  V30 3106 C 272.9 1.20668 1.99903 0
M  V30 3107 C 273.881 0.095354 1.69833 0
M  V30 3108 O 275.066 0.27885 1.92188 0
M  V30 3109 C 272.196 0.90655 3.3526 0
M  V30 3110 C 271.15 1.97675 3.79617 0
M  V30 3111 C 270.476 1.52943 5.1236 0
M  V30 3112 C 271.776 3.389 3.97422 0
M  V30 3113 H 273.47 2.14586 2.0879 0
M  V30 3114 H 271.016 1.03308 1.00317 0
M  V30 3115 H 272.969 0.821025 4.13324 0
M  V30 3116 H 271.693 -0.0682969 3.26529 0
M  V30 3117 H 270.352 2.05205 3.03787 0
M  V30 3118 H 270 0.54262 5.00065 0
M  V30 3119 H 269.7 2.24532 5.43009 0
M  V30 3120 H 271.224 1.45786 5.92941 0
M  V30 3121 H 272.638 3.34081 4.659 0
M  V30 3122 H 271.035 4.0865 4.3946 0
M  V30 3123 H 272.105 3.80163 3.01006 0
M  V30 3124 N 273.449 -1.08991 1.13837 0
M  V30 3125 C 274.396 -2.15748 0.819835 0
M  V30 3126 C 275.366 -1.64636 -0.220026 0
M  V30 3127 O 276.551 -1.90582 -0.0912757 0
M  V30 3128 C 273.691 -3.4382 0.296913 0
M  V30 3129 C 272.804 -4.0881 1.39636 0
M  V30 3130 C 271.939 -5.24655 0.831314 0
M  V30 3131 C 270.978 -5.81575 1.90886 0
M  V30 3132 N 270.115 -6.88774 1.36142 0
M  V30 3133 H 274.955 -2.42338 1.73426 0
M  V30 3134 H 272.492 -1.18935 0.865613 0
M  V30 3135 H 274.45 -4.17193 -0.0244339 0
M  V30 3136 H 273.08 -3.17535 -0.580628 0
M  V30 3137 H 272.132 -3.33258 1.83422 0
M  V30 3138 H 273.444 -4.47141 2.21058 0
M  V30 3139 H 272.598 -6.04942 0.461515 0
M  V30 3140 H 271.337 -4.87698 -0.013932 0
M  V30 3141 H 270.342 -4.99946 2.28767 0
M  V30 3142 H 271.567 -6.20592 2.75758 0
M  V30 3143 H 269.513 -6.53788 0.538254 0
M  V30 3144 H 269.43 -7.25898 2.11208 0
M  V30 3145 H 270.698 -7.72806 1.01933 0
M  V30 3146 N 274.927 -0.932562 -1.27047 0
M  V30 3147 C 276.176 -0.571351 -1.93439 0
M  V30 3148 C 276.489 0.892467 -1.74053 0
M  V30 3149 O 277.695 1.36267 -2.34826 0
M  V30 3150 C 276.151 -0.97106 -3.46552 0
M  V30 3151 C 275.759 -2.4559 -3.74686 0
M  V30 3152 C 277.503 -0.681333 -4.18997 0
M  V30 3153 C 275.41 -2.79475 -5.21198 0
M  V30 3154 H 274.34 -0.209966 -0.724176 0
M  V30 3155 H 276.991 -1.13403 -1.44263 0
M  V30 3156 H 275.373 -0.336983 -3.94564 0
M  V30 3157 H 276.547 -3.13829 -3.37414 0
M  V30 3158 H 274.862 -2.71802 -3.15456 0
M  V30 3159 H 277.459 -0.910939 -5.26883 0
M  V30 3160 H 277.802 0.381628 -4.14547 0
M  V30 3161 H 278.335 -1.27473 -3.76823 0
M  V30 3162 H 275.074 -3.847 -5.30741 0
M  V30 3163 H 274.594 -2.1589 -5.596 0
M  V30 3164 H 276.273 -2.67478 -5.89122 0
M  V30 3165 N 276.405 1.4127 -0.698611 0
M  V30 3166 C 277.335 2.33447 -0.049629 0
M  V30 3167 C 278.316 1.51982 0.763898 0
M  V30 3168 O 279.501 1.80509 0.716257 0
M  V30 3169 C 276.631 3.35828 0.885267 0
M  V30 3170 C 275.585 4.27627 0.178613 0
M  V30 3171 C 274.911 5.20406 1.22807 0
M  V30 3172 C 276.211 5.13459 -0.956933 0
M  V30 3173 H 277.905 2.87966 -0.81951 0
M  V30 3174 H 275.451 1.38461 -0.395538 0
M  V30 3175 H 277.404 3.9924 1.34854 0
M  V30 3176 H 276.128 2.79666 1.68685 0
M  V30 3177 H 274.787 3.65643 -0.26466 0
M  V30 3178 H 274.435 4.60558 2.02226 0
M  V30 3179 H 274.135 5.82661 0.760239 0
M  V30 3180 H 275.659 5.86695 1.69179 0
M  V30 3181 H 277.073 5.70421 -0.573805 0
M  V30 3182 H 275.47 5.8467 -1.35205 0
M  V30 3183 H 276.54 4.50443 -1.79524 0
M  V30 3184 N 277.883 0.443576 1.51229 0
M  V30 3185 C 278.83 -0.364716 2.279 0
M  V30 3186 C 279.8 -1.0114 1.31757 0
M  V30 3187 O 280.985 -1.02912 1.60667 0
M  V30 3188 C 278.125 -1.45644 3.12861 0
M  V30 3189 C 277.238 -0.827269 4.24005 0
M  V30 3190 C 276.373 -1.89456 4.96266 0
M  V30 3191 C 275.412 -1.24416 5.99322 0
M  V30 3192 N 274.549 -2.25309 6.64966 0
M  V30 3193 H 279.389 0.295464 2.96532 0
M  V30 3194 H 276.926 0.157554 1.46254 0
M  V30 3195 H 278.884 -2.10076 3.6045 0
M  V30 3196 H 277.514 -2.08616 2.46331 0
M  V30 3197 H 276.566 -0.0710839 3.80334 0
M  V30 3198 H 277.878 -0.312481 4.9782 0
M  V30 3199 H 277.032 -2.61535 5.47434 0
M  V30 3200 H 275.771 -2.4431 4.22095 0
M  V30 3201 H 274.776 -0.508868 5.4744 0
M  V30 3202 H 276.001 -0.702882 6.75453 0
M  V30 3203 H 273.947 -2.79231 5.93604 0
M  V30 3204 H 273.864 -1.78739 7.34567 0
M  V30 3205 H 275.132 -2.96853 7.20763 0
M  V30 3206 N 279.361 -1.56624 0.175154 0
M  V30 3207 C 280.609 -1.96609 -0.467885 0
M  V30 3208 C 280.93 -1.06238 -1.63519 0
M  V30 3209 O 280.2 -0.129523 -1.95471 0
M  V30 3210 H 278.78 -0.726008 -0.175845 0
M  V30 3211 H 281.442 -1.93195 0.257234 0
M  V30 3212 H 280.538 -3.00989 -0.825342 0
M  V30 3213 N 280.839 0.0985539 -1.57292 0
M  V30 3214 C 282.088 0.801358 -1.85098 0
M  V30 3215 C 282.401 1.80066 -0.763902 0
M  V30 3216 O 283.607 2.55112 -0.928981 0
M  V30 3217 C 282.063 1.47599 -3.28242 0
M  V30 3218 C 281.671 0.516624 -4.45011 0
M  V30 3219 C 283.415 2.16272 -3.65276 0
M  V30 3220 C 281.322 1.19564 -5.79188 0
M  V30 3221 H 280.252 0.303022 -0.69043 0
M  V30 3222 H 282.903 0.0542623 -1.8342 0
M  V30 3223 H 281.285 2.27042 -3.2445 0
M  V30 3224 H 282.459 -0.246065 -4.60143 0
M  V30 3225 H 280.774 -0.064227 -4.1635 0
M  V30 3226 H 283.371 2.67802 -4.62803 0
M  V30 3227 H 283.714 2.95009 -2.93727 0
M  V30 3228 H 284.247 1.43693 -3.70941 0
M  V30 3229 H 280.986 0.449157 -6.53959 0
M  V30 3230 H 280.506 1.92984 -5.67906 0
M  V30 3231 H 282.185 1.7231 -6.23633 0
M  V30 3232 N 282.317 1.53212 0.369288 0
M  V30 3233 C 283.267 1.75769 1.45222 0
M  V30 3234 C 284.251 0.612136 1.48801 0
M  V30 3235 O 285.443 0.870674 1.54105 0
M  V30 3236 C 282.572 1.94769 2.82701 0
M  V30 3237 C 281.658 3.15315 2.83615 0
M  V30 3238 N 282.049 4.37295 2.54178 0
M  V30 3239 C 280.347 3.15962 3.14776 0
M  V30 3240 C 281.048 5.19015 2.62675 0
M  V30 3241 N 280.024 4.55142 2.97232 0
M  V30 3242 H 283.826 2.67691 1.2132 0
M  V30 3243 H 281.34 1.51787 0.577438 0
M  V30 3244 H 283.337 2.09056 3.60696 0
M  V30 3245 H 281.997 1.04073 3.07569 0
M  V30 3246 H 283.008 4.65091 2.27839 0
M  V30 3247 H 279.685 2.35144 3.44983 0
M  V30 3248 H 281.075 6.26305 2.43294 0
M  V30 3249 N 283.795 -0.628877 1.44509 0
M  V30 3250 C 285.02 -1.42048 1.5112 0
M  V30 3251 C 285.445 -1.87594 0.137818 0
M  V30 3252 O 284.803 -1.58873 -0.873437 0
M  V30 3253 C 284.851 -2.61541 2.48251 0
M  V30 3254 O 283.955 -3.61453 1.98559 0
M  V30 3255 H 283.296 -0.424942 0.510216 0
M  V30 3256 H 285.826 -0.767374 1.89664 0
M  V30 3257 H 285.836 -3.09057 2.66361 0
M  V30 3258 H 284.511 -2.27736 3.48007 0
M  V30 3259 H 283.088 -3.20731 1.90227 0
M  V30 3260 N 285.273 -1.31445 -0.869486 0
M  V30 3261 C 286.689 -1.10113 -1.15531 0
M  V30 3262 C 286.889 0.128087 -2.01092 0
M  V30 3263 O 285.945 0.817276 -2.38908 0
M  V30 3264 C 287.258 -2.37291 -1.84698 0
M  V30 3265 C 288.806 -2.42906 -1.97397 0
M  V30 3266 C 289.281 -3.69967 -2.69979 0
M  V30 3267 N 290.772 -3.70864 -2.77514 0
M  V30 3268 C 291.507 -4.65875 -3.34287 0
M  V30 3269 N 291.003 -5.71242 -3.91988 0
M  V30 3270 N 292.796 -4.53394 -3.3225 0
M  V30 3271 H 284.947 -2.1028 -0.299347 0
M  V30 3272 H 287.21 -0.927683 -0.195214 0
M  V30 3273 H 286.916 -3.27078 -1.29278 0
M  V30 3274 H 286.79 -2.47125 -2.84972 0
M  V30 3275 H 289.177 -1.53588 -2.51982 0
M  V30 3276 H 289.258 -2.37036 -0.961643 0
M  V30 3277 H 288.902 -4.59652 -2.16062 0
M  V30 3278 H 288.832 -3.73103 -3.7162 0
M  V30 3279 H 291.323 -2.94697 -2.36563 0
M  V30 3280 H 291.636 -6.39817 -4.33421 0
M  V30 3281 H 289.981 -5.75015 -3.90362 0
M  V30 3282 H 293.172 -3.70252 -2.8641 0
M  V30 3283 H 293.345 -5.27617 -3.76197 0
M  V30 3284 N 286.751 1.08385 -1.14413 0
M  V30 3285 C 288 1.80153 -0.907076 0
M  V30 3286 C 288.313 1.87176 0.567851 0
M  V30 3287 O 289.519 2.55359 0.922172 0
M  V30 3288 C 287.975 3.23687 -1.57336 0
M  V30 3289 C 287.583 3.24897 -3.08457 0
M  V30 3290 C 289.327 4.00136 -1.41744 0
M  V30 3291 C 287.234 4.6302 -3.67921 0
M  V30 3292 H 286.164 0.675139 -0.335714 0
M  V30 3293 H 288.815 1.21733 -1.37307 0
M  V30 3294 H 287.197 3.82234 -1.03505 0
M  V30 3295 H 288.371 2.76055 -3.68958 0
M  V30 3296 H 286.686 2.61943 -3.2369 0
M  V30 3297 H 289.283 5.02201 -1.83572 0
M  V30 3298 H 289.626 4.14709 -0.363576 0
M  V30 3299 H 290.159 3.48058 -1.92614 0
M  V30 3300 H 286.898 4.5365 -4.73161 0
M  V30 3301 H 286.418 5.12143 -3.12201 0
M  V30 3302 H 288.097 5.31994 -3.68227 0
M  V30 3303 N 288.23 0.939286 1.26551 0
M  V30 3304 C 289.477 0.585847 1.9384 0
M  V30 3305 C 289.805 -0.874784 1.73718 0
M  V30 3306 O 289.06 -1.64092 1.06642 0
M  V30 3307 C 289.359 0.872106 3.46596 0
M  V30 3308 C 289.025 2.31632 3.86856 0
M  V30 3309 C 287.687 2.71111 3.97558 0
M  V30 3310 C 290.039 3.25494 4.07066 0
M  V30 3311 C 287.367 4.03553 4.25866 0
M  V30 3312 C 289.719 4.57531 4.36862 0
M  V30 3313 C 288.383 4.96828 4.45778 0
M  V30 3314 H 287.653 0.214377 0.709312 0
M  V30 3315 H 290.3 1.18544 1.50398 0
M  V30 3316 H 288.605 0.18996 3.91339 0
M  V30 3317 H 290.302 0.577442 3.96821 0
M  V30 3318 H 286.892 2.00008 3.79071 0
M  V30 3319 H 291.076 2.9619 3.98227 0
M  V30 3320 H 286.332 4.33665 4.30981 0
M  V30 3321 H 290.506 5.30254 4.51446 0
M  V30 3322 H 288.133 5.99482 4.67468 0
M  V30 3323 N 289.708 -1.40897 0.706093 0
M  V30 3324 C 290.64 -2.29199 0.00815776 0
M  V30 3325 C 291.653 -1.45336 -0.733582 0
M  V30 3326 O 292.842 -1.68727 -0.582537 0
M  V30 3327 C 289.942 -3.23417 -1.01265 0
M  V30 3328 C 289.115 -4.36089 -0.338387 0
M  V30 3329 C 288.174 -5.10811 -1.26326 0
M  V30 3330 O 287.2 -5.64215 -0.751651 0
M  V30 3331 N 288.402 -5.19269 -2.595 0
M  V30 3332 H 291.167 -2.89738 0.766297 0
M  V30 3333 H 288.728 -1.52164 0.55296 0
M  V30 3334 H 290.72 -3.70276 -1.63334 0
M  V30 3335 H 289.29 -2.64112 -1.67223 0
M  V30 3336 H 288.51 -3.91479 0.462352 0
M  V30 3337 H 289.798 -5.08634 0.130031 0
M  V30 3338 H 289.196 -4.77347 -3.03573 0
M  V30 3339 H 287.753 -5.69667 -3.16737 0
M  V30 3340 N 291.186 -0.45159 -1.50991 0
M  V30 3341 C 292.136 0.370861 -2.24964 0
M  V30 3342 C 293.12 0.978074 -1.2776 0
M  V30 3343 O 294.312 0.893854 -1.52772 0
M  V30 3344 C 291.441 1.46344 -3.10545 0
M  V30 3345 C 290.527 0.864924 -4.15187 0
M  V30 3346 N 290.918 -0.00311354 -5.058 0
M  V30 3347 C 289.216 1.13099 -4.31422 0
M  V30 3348 C 289.917 -0.340772 -5.80701 0
M  V30 3349 N 288.893 0.279203 -5.42883 0
M  V30 3350 H 292.695 -0.298134 -2.92384 0
M  V30 3351 H 290.209 -0.264528 -1.60231 0
M  V30 3352 H 292.206 2.06565 -3.62128 0
M  V30 3353 H 290.866 2.13463 -2.4467 0
M  V30 3354 H 291.877 -0.37058 -5.16572 0
M  V30 3355 H 288.554 1.79861 -3.76771 0
M  V30 3356 H 289.944 -1.048 -6.63677 0
M  V30 3357 N 292.664 1.56529 -0.183458 0
M  V30 3358 C 293.574 2.22144 0.754272 0
M  V30 3359 C 294.59 1.21684 1.24374 0
M  V30 3360 O 295.766 1.54385 1.29333 0
M  V30 3361 C 292.831 2.85884 1.96141 0
M  V30 3362 C 291.892 4.01579 1.51765 0
M  V30 3363 C 291.125 4.6227 2.66725 0
M  V30 3364 O 291.348 4.21865 3.83909 0
M  V30 3365 O 290.282 5.51936 2.40104 0
M  V30 3366 H 294.108 3.02861 0.225527 0
M  V30 3367 H 291.693 1.49331 0.0453032 0
M  V30 3368 H 293.575 3.26253 2.66715 0
M  V30 3369 H 292.25 2.08154 2.47899 0
M  V30 3370 H 291.157 3.65856 0.781049 0
M  V30 3371 H 292.49 4.80938 1.04686 0
M  V30 3372 N 294.142 -0.090211 1.57342 0
M  V30 3373 C 295.389 -0.792807 1.86335 0
M  V30 3374 C 295.717 -1.78494 0.772662 0
M  V30 3375 O 294.972 -1.94305 -0.233258 0
M  V30 3376 C 295.271 -1.55222 3.21933 0
M  V30 3377 C 294.937 -0.701765 4.45406 0
M  V30 3378 C 293.599 -0.467334 4.78925 0
M  V30 3379 C 295.951 -0.11086 5.21082 0
M  V30 3380 C 293.279 0.367785 5.85546 0
M  V30 3381 C 295.631 0.711609 6.28585 0
M  V30 3382 C 294.295 0.956086 6.60617 0
M  V30 3383 H 293.565 -0.290109 0.681849 0
M  V30 3384 H 296.212 -0.0541332 1.91423 0
M  V30 3385 H 294.517 -2.3626 3.12551 0
M  V30 3386 H 296.214 -2.10032 3.41595 0
M  V30 3387 H 292.804 -0.894598 4.1916 0
M  V30 3388 H 296.988 -0.279129 4.95514 0
M  V30 3389 H 292.244 0.566128 6.08773 0
M  V30 3390 H 296.418 1.17632 6.86393 0
M  V30 3391 H 294.045 1.60499 7.43064 0
M  V30 3392 N 295.62 -1.53406 -0.361157 0
M  V30 3393 C 296.897 -1.60411 -1.11927 0
M  V30 3394 C 297.277 -0.414385 -2.06993 0
M  V30 3395 O 296.625 0.594976 -2.20618 0
M  V30 3396 C 296.835 -2.95652 -1.85448 0
M  V30 3397 C 298.183 -3.50386 -2.39823 0
M  V30 3398 O 299.207 -2.97711 -1.95568 0
M  V30 3399 O 298.066 -4.42482 -3.20737 0
M  V30 3400 H 295.16 -0.64811 -0.513695 0
M  V30 3401 H 297.706 -1.65749 -0.364065 0
M  V30 3402 H 296.478 -3.73682 -1.16091 0
M  V30 3403 H 296.101 -2.93825 -2.67866 0
M  V30 3404 N 297.098 0.621204 -1.44841 0
M  V30 3405 C 298.048 1.72663 -1.48901 0
M  V30 3406 C 299.032 1.56964 -0.353702 0
M  V30 3407 O 300.224 1.66532 -0.599669 0
M  V30 3408 C 297.353 3.11381 -1.44557 0
M  V30 3409 C 296.439 3.32514 -2.6324 0
M  V30 3410 N 296.83 3.23969 -3.8843 0
M  V30 3411 C 295.128 3.63343 -2.58647 0
M  V30 3412 C 295.829 3.46062 -4.67564 0
M  V30 3413 N 294.805 3.69407 -3.98797 0
M  V30 3414 H 298.607 1.64529 -2.43531 0
M  V30 3415 H 296.121 0.82401 -1.39942 0
M  V30 3416 H 298.118 3.90667 -1.4555 0
M  V30 3417 H 296.778 3.20674 -0.509731 0
M  V30 3418 H 297.789 3.02669 -4.20252 0
M  V30 3419 H 294.466 3.79556 -1.73906 0
M  V30 3420 H 295.856 3.44963 -5.76585 0
M  V30 3421 N 298.576 1.31904 0.862503 0
M  V30 3422 C 299.506 1.22782 1.98612 0
M  V30 3423 C 300.487 0.113362 1.69722 0
M  V30 3424 O 301.672 0.299218 1.91881 0
M  V30 3425 C 298.802 0.942058 3.34279 0
M  V30 3426 C 297.756 2.0169 3.77499 0
M  V30 3427 C 297.082 1.58369 5.10709 0
M  V30 3428 C 298.382 3.43096 3.93805 0
M  V30 3429 H 300.076 2.16788 2.06502 0
M  V30 3430 H 297.622 1.04366 0.992154 0
M  V30 3431 H 299.575 0.864818 4.1243 0
M  V30 3432 H 298.299 -0.0336603 3.26583 0
M  V30 3433 H 296.958 2.08416 3.01593 0
M  V30 3434 H 296.606 0.595628 4.99461 0
M  V30 3435 H 296.306 2.30279 5.40597 0
M  V30 3436 H 297.83 1.52067 5.91361 0
M  V30 3437 H 299.244 3.39003 4.62331 0
M  V30 3438 H 297.641 4.13288 4.35101 0
M  V30 3439 H 298.711 3.83334 2.96957 0
M  V30 3440 N 300.054 -1.07777 1.14986 0
M  V30 3441 C 301.002 -2.16964 0.838406 0
M  V30 3442 C 301.996 -1.68372 -0.186386 0
M  V30 3443 O 303.202 -1.79951 -0.0418465 0
M  V30 3444 H 299.577 -0.708006 0.253439 0
M  V30 3445 H 301.548 -2.40454 1.76704 0
M  V30 3446 C 300.297 -3.4604 0.339335 0
M  V30 3447 H 299.62 -3.83813 1.11927 0
M  V30 3448 H 301.06 -4.23698 0.160021 0
M  V30 3449 C 299.519 -3.23569 -0.938325 0
M  V30 3450 O 300.049 -3.47752 -2.01077 0
M  V30 3451 N 298.255 -2.77079 -0.876117 0
M  V30 3452 H 297.802 -2.576 -0.00322037 0
M  V30 3453 H 297.76 -2.62422 -1.73153 0
M  V30 3454 N 301.532 -0.945985 -1.26051 0
M  V30 3455 C 302.78 -0.594941 -1.93145 0
M  V30 3456 C 303.101 0.86953 -1.7454 0
M  V30 3457 O 302.371 1.61838 -1.10387 0
M  V30 3458 H 300.951 -0.217044 -0.714773 0
M  V30 3459 H 303.613 -1.20235 -1.53393 0
M  V30 3460 H 302.709 -0.816835 -3.01221 0
M  V30 3461 N 303.011 1.40521 -0.713556 0
M  V30 3462 C 304.239 2.05237 -0.261775 0
M  V30 3463 C 304.654 1.53755 1.09567 0
M  V30 3464 O 304.011 0.693268 1.6882 0
M  V30 3465 C 304.062 3.60763 -0.230706 0
M  V30 3466 O 303.783 4.10345 -1.53455 0
M  V30 3467 C 305.284 4.42651 0.239874 0
M  V30 3468 H 302.504 0.660533 -0.118057 0
M  V30 3469 H 305.048 1.79967 -0.971192 0
M  V30 3470 H 303.203 3.8501 0.429661 0
M  V30 3471 H 303.617 5.04526 -1.43366 0
M  V30 3472 H 305.091 5.51599 0.210468 0
M  V30 3473 H 305.568 4.20082 1.28171 0
M  V30 3474 H 306.174 4.23507 -0.390142 0
M  V30 3475 N 304.489 0.459591 1.5075 0
M  V30 3476 C 305.419 -0.330644 2.31147 0
M  V30 3477 C 306.4 -1.00087 1.37538 0
M  V30 3478 O 307.585 -1.00025 1.66459 0
M  V30 3479 C 304.715 -1.41958 3.16962 0
M  V30 3480 C 303.669 -0.871608 4.19031 0
M  V30 3481 C 302.995 -2.05797 4.9351 0
M  V30 3482 C 304.295 0.109251 5.22186 0
M  V30 3483 H 305.989 0.340336 2.97459 0
M  V30 3484 H 303.535 0.165119 1.4305 0
M  V30 3485 H 305.488 -1.9798 3.71997 0
M  V30 3486 H 304.212 -2.11917 2.48513 0
M  V30 3487 H 302.871 -0.333442 3.6508 0
M  V30 3488 H 302.519 -2.74427 4.21544 0
M  V30 3489 H 302.219 -1.6976 5.62544 0
M  V30 3490 H 303.743 -2.62331 5.51375 0
M  V30 3491 H 305.157 -0.361405 5.7216 0
M  V30 3492 H 303.554 0.383316 5.98875 0
M  V30 3493 H 304.624 1.03887 4.73641 0
M  V30 3494 N 305.967 -1.56429 0.191757 0
M  V30 3495 C 307.214 -1.97485 -0.447891 0
M  V30 3496 C 307.542 -1.07852 -1.61859 0
M  V30 3497 O 306.797 -0.116903 -1.95351 0
M  V30 3498 C 307.096 -3.44449 -0.953384 0
M  V30 3499 C 306.762 -4.50781 0.103586 0
M  V30 3500 C 305.424 -4.79584 0.394023 0
M  V30 3501 C 307.776 -5.1471 0.819946 0
M  V30 3502 C 305.104 -5.69607 1.40585 0
M  V30 3503 C 307.456 -6.05827 1.8209 0
M  V30 3504 C 306.12 -6.32987 2.11857 0
M  V30 3505 H 305.39 -0.722648 -0.163895 0
M  V30 3506 H 308.037 -1.89322 0.28802 0
M  V30 3507 H 306.342 -3.49666 -1.76751 0
M  V30 3508 H 308.039 -3.73569 -1.45765 0
M  V30 3509 H 304.629 -4.28394 -0.132951 0
M  V30 3510 H 308.813 -4.92552 0.608789 0
M  V30 3511 H 304.069 -5.88926 1.64243 0
M  V30 3512 H 308.243 -6.54424 2.38123 0
M  V30 3513 H 305.87 -7.02544 2.90407 0
M  V30 3514 N 307.445 0.0818655 -1.57387 0
M  V30 3515 C 308.694 0.781681 -1.85937 0
M  V30 3516 C 309.007 1.79246 -0.782957 0
M  V30 3517 O 310.213 2.54112 -0.955987 0
M  V30 3518 C 308.669 1.44109 -3.29789 0
M  V30 3519 C 308.277 0.469396 -4.45534 0
M  V30 3520 C 310.021 2.12386 -3.67549 0
M  V30 3521 C 307.928 1.13415 -5.80423 0
M  V30 3522 H 306.858 0.295682 -0.693605 0
M  V30 3523 H 309.509 0.0348051 -1.83467 0
M  V30 3524 H 307.891 2.23588 -3.2684 0
M  V30 3525 H 309.065 -0.294856 -4.59856 0
M  V30 3526 H 307.38 -0.108383 -4.16259 0
M  V30 3527 H 309.977 2.62878 -4.65617 0
M  V30 3528 H 310.32 2.91877 -2.96839 0
M  V30 3529 H 310.853 1.39751 -3.72444 0
M  V30 3530 H 307.592 0.379771 -6.54399 0
M  V30 3531 H 307.112 1.8695 -5.69921 0
M  V30 3532 H 308.791 1.65686 -6.25426 0
M  V30 3533 N 308.923 1.53595 0.353017 0
M  V30 3534 C 310.2 1.61002 1.11075 0
M  V30 3535 C 310.58 0.425356 2.0677 0
M  V30 3536 O 309.928 -0.583267 2.2093 0
M  V30 3537 C 310.138 2.96631 1.83877 0
M  V30 3538 C 311.486 3.51653 2.37961 0
M  V30 3539 O 312.51 2.98743 1.93987 0
M  V30 3540 O 311.369 4.44177 3.18386 0
M  V30 3541 H 308.463 0.650825 0.510251 0
M  V30 3542 H 311.009 1.6594 0.35527 0
M  V30 3543 H 309.781 3.74293 1.14108 0
M  V30 3544 H 309.404 2.95242 2.66304 0
M  V30 3545 N 310.401 -0.613514 1.45168 0
M  V30 3546 C 311.348 -1.72456 1.53387 0
M  V30 3547 C 312.318 -1.6169 0.380191 0
M  V30 3548 O 313.503 -1.81356 0.592836 0
M  V30 3549 C 310.643 -3.10753 1.50088 0
M  V30 3550 C 309.756 -3.32368 2.75963 0
M  V30 3551 C 308.891 -4.60737 2.64376 0
M  V30 3552 C 307.93 -4.7559 3.85332 0
M  V30 3553 N 307.067 -5.95253 3.72315 0
M  V30 3554 H 311.907 -1.64768 2.48305 0
M  V30 3555 H 309.444 -0.803503 1.23216 0
M  V30 3556 H 311.402 -3.90758 1.46164 0
M  V30 3557 H 310.032 -3.17413 0.587243 0
M  V30 3558 H 309.084 -2.4618 2.89999 0
M  V30 3559 H 310.396 -3.39218 3.65695 0
M  V30 3560 H 309.55 -5.48928 2.58385 0
M  V30 3561 H 308.289 -4.56275 1.72233 0
M  V30 3562 H 307.294 -3.85824 3.91688 0
M  V30 3563 H 308.519 -4.81854 4.78533 0
M  V30 3564 H 306.465 -5.91847 2.82937 0
M  V30 3565 H 306.382 -6.03236 4.55677 0
M  V30 3566 H 307.65 -6.85958 3.70246 0
M  V30 3567 N 311.879 -1.3236 -0.855495 0
M  V30 3568 C 312.812 -1.15559 -1.96777 0
M  V30 3569 C 313.79 -0.0552681 -1.62506 0
M  V30 3570 O 314.974 -0.214419 -1.87277 0
M  V30 3571 C 312.101 -0.768851 -3.29858 0
M  V30 3572 C 311.147 -1.87429 -3.83109 0
M  V30 3573 S 311.98 -3.48243 -4.06801 0
M  V30 3574 C 313.136 -3.11539 -5.42858 0
M  V30 3575 H 313.369 -2.09717 -2.10727 0
M  V30 3576 H 310.902 -1.17011 -1.00737 0
M  V30 3577 H 312.86 -0.55248 -4.06765 0
M  V30 3578 H 311.521 0.153857 -3.13723 0
M  V30 3579 H 310.714 -1.55667 -4.79358 0
M  V30 3580 H 310.316 -2.04647 -3.13042 0
M  V30 3581 H 312.608 -2.61331 -6.2507 0
M  V30 3582 H 313.551 -4.06806 -5.79582 0
M  V30 3583 H 313.959 -2.48582 -5.06821 0
M  V30 3584 N 313.357 1.07166 -1.15556 0
M  V30 3585 C 314.585 1.83514 -0.955519 0
M  V30 3586 C 315 1.82163 0.49621 0
M  V30 3587 O 314.357 1.23441 1.34419 0
M  V30 3588 C 314.408 3.30515 -1.46432 0
M  V30 3589 O 314.129 3.31937 -2.85918 0
M  V30 3590 C 315.63 4.23625 -1.30603 0
M  V30 3591 H 312.85 0.578926 -0.339244 0
M  V30 3592 H 315.394 1.35265 -1.53374 0
M  V30 3593 H 313.549 3.76106 -0.928584 0
M  V30 3594 H 313.963 4.23794 -3.09029 0
M  V30 3595 H 315.437 5.24831 -1.71047 0
M  V30 3596 H 315.914 4.38485 -0.250441 0
M  V30 3597 H 316.52 3.83871 -1.83094 0
M  V30 3598 N 314.835 0.952656 1.25548 0
M  V30 3599 C 315.767 0.428609 2.25157 0
M  V30 3600 C 316.78 -0.454428 1.56329 0
M  V30 3601 O 317.969 -0.263023 1.76552 0
M  V30 3602 C 315.069 -0.401972 3.36508 0
M  V30 3603 C 314.242 0.467601 4.34893 0
M  V30 3604 C 313.301 -0.30445 5.25319 0
M  V30 3605 O 312.327 0.296473 5.68427 0
M  V30 3606 N 313.529 -1.59805 5.5807 0
M  V30 3607 H 316.294 1.28497 2.70756 0
M  V30 3608 H 313.855 0.822798 1.39433 0
M  V30 3609 H 315.847 -0.926134 3.9396 0
M  V30 3610 H 314.417 -1.15918 2.90313 0
M  V30 3611 H 313.637 1.17288 3.76347 0
M  V30 3612 H 314.925 1.06119 4.97611 0
M  V30 3613 H 314.323 -2.10823 5.24948 0
M  V30 3614 H 312.88 -2.06822 6.18116 0
M  V30 3615 N 316.313 -1.40141 0.720998 0
M  V30 3616 C 317.559 -2.01084 0.263231 0
M  V30 3617 C 317.892 -1.57052 -1.14229 0
M  V30 3618 O 317.167 -0.793027 -1.77599 0
M  V30 3619 C 317.45 -3.58401 0.349344 0
M  V30 3620 C 317.303 -4.12491 1.79363 0
M  V30 3621 C 318.622 -4.39231 -0.276351 0
M  V30 3622 H 315.741 -0.730572 0.0971228 0
M  V30 3623 H 318.383 -1.66543 0.914518 0
M  V30 3624 H 316.533 -3.87958 -0.205165 0
M  V30 3625 H 318.205 -3.93711 2.40394 0
M  V30 3626 H 316.448 -3.66576 2.31958 0
M  V30 3627 H 317.119 -5.21646 1.80524 0
M  V30 3628 H 319.595 -4.15637 0.196184 0
M  V30 3629 H 318.471 -5.48586 -0.185681 0
M  V30 3630 H 318.732 -4.20643 -1.36059 0
M  V30 3631 N 317.792 -0.46758 -1.50504 0
M  V30 3632 C 319.069 0.15003 -1.95024 0
M  V30 3633 C 319.449 1.57304 -1.40779 0
M  V30 3634 O 318.797 2.20281 -0.607319 0
M  V30 3635 C 319.007 0.0969324 -3.48865 0
M  V30 3636 C 320.355 0.287565 -4.23625 0
M  V30 3637 O 321.379 0.173678 -3.55776 0
M  V30 3638 O 320.238 0.517186 -5.44047 0
M  V30 3639 H 317.332 0.113582 -0.819163 0
M  V30 3640 H 319.878 -0.52773 -1.61286 0
M  V30 3641 H 318.65 -0.896732 -3.80886 0
M  V30 3642 H 318.273 0.816303 -3.8913 0
M  V30 3643 N 319.27 1.56325 -0.20005 0
M  V30 3644 C 320.217 2.1932 0.718833 0
M  V30 3645 C 321.187 1.14198 1.20615 0
M  V30 3646 O 322.372 1.42469 1.26914 0
M  V30 3647 C 319.512 2.86041 1.93066 0
M  V30 3648 C 318.625 4.05702 1.48425 0
M  V30 3649 C 317.76 4.60266 2.65196 0
M  V30 3650 C 316.799 5.72273 2.17185 0
M  V30 3651 N 315.936 6.21221 3.27152 0
M  V30 3652 H 320.776 2.97486 0.17489 0
M  V30 3653 H 318.313 1.46911 0.0745794 0
M  V30 3654 H 320.271 3.22897 2.64184 0
M  V30 3655 H 318.901 2.1043 2.44783 0
M  V30 3656 H 317.953 3.74475 0.668755 0
M  V30 3657 H 319.265 4.86699 1.09204 0
M  V30 3658 H 318.419 4.99453 3.4443 0
M  V30 3659 H 317.158 3.78386 3.07693 0
M  V30 3660 H 316.163 5.3261 1.36407 0
M  V30 3661 H 317.388 6.55974 1.75713 0
M  V30 3662 H 315.334 5.42263 3.69171 0
M  V30 3663 H 315.251 6.97284 2.92116 0
M  V30 3664 H 316.519 6.65063 4.06585 0
M  V30 3665 N 320.748 -0.0735177 1.57428 0
M  V30 3666 C 321.695 -1.08756 2.0357 0
M  V30 3667 C 322.665 -1.38559 0.916 0
M  V30 3668 O 323.85 -1.49656 1.18354 0
M  V30 3669 C 320.99 -2.39657 2.48311 0
M  V30 3670 C 320.103 -2.16399 3.73892 0
M  V30 3671 C 319.238 -3.40852 4.07423 0
M  V30 3672 C 318.277 -3.1295 5.2605 0
M  V30 3673 N 317.414 -4.29729 5.55228 0
M  V30 3674 H 322.254 -0.687104 2.8997 0
M  V30 3675 H 319.791 -0.327709 1.43403 0
M  V30 3676 H 321.749 -3.16081 2.72303 0
M  V30 3677 H 320.379 -2.77508 1.64891 0
M  V30 3678 H 319.431 -1.30676 3.57251 0
M  V30 3679 H 320.743 -1.91788 4.60455 0
M  V30 3680 H 319.897 -4.25671 4.32306 0
M  V30 3681 H 318.636 -3.68537 3.19425 0
M  V30 3682 H 317.641 -2.26526 5.00965 0
M  V30 3683 H 318.866 -2.86589 6.15665 0
M  V30 3684 H 316.812 -4.57448 4.70188 0
M  V30 3685 H 316.729 -4.08385 6.36206 0
M  V30 3686 H 317.997 -5.1555 5.84661 0
M  V30 3687 N 322.226 -1.5378 -0.344866 0
M  V30 3688 C 323.173 -1.81676 -1.42346 0
M  V30 3689 C 324.143 -0.662376 -1.52321 0
M  V30 3690 O 325.328 -0.906675 -1.67881 0
M  V30 3691 C 322.468 -2.03087 -2.79015 0
M  V30 3692 C 321.581 -3.30799 -2.77842 0
M  V30 3693 C 320.716 -3.42285 -4.0622 0
M  V30 3694 C 319.755 -4.6395 -3.9927 0
M  V30 3695 N 318.892 -4.72477 -5.19336 0
M  V30 3696 H 323.732 -2.73703 -1.17858 0
M  V30 3697 H 321.269 -1.35568 -0.570949 0
M  V30 3698 H 323.227 -2.1349 -3.58438 0
M  V30 3699 H 321.857 -1.14375 -3.01858 0
M  V30 3700 H 320.909 -3.29244 -1.90533 0
M  V30 3701 H 322.221 -4.20314 -2.68584 0
M  V30 3702 H 321.375 -3.52113 -4.94066 0
M  V30 3703 H 320.114 -2.50823 -4.18258 0
M  V30 3704 H 319.119 -4.54201 -3.09809 0
M  V30 3705 H 320.344 -5.56775 -3.88817 0
M  V30 3706 H 318.29 -3.83924 -5.3192 0
M  V30 3707 H 318.207 -5.55927 -5.12329 0
M  V30 3708 H 319.475 -4.86613 -6.08957 0
M  V30 3709 N 323.704 0.605807 -1.45491 0
M  V30 3710 C 324.95 1.36679 -1.49823 0
M  V30 3711 C 325.283 1.93693 -0.140175 0
M  V30 3712 O 324.558 1.75158 0.845581 0
M  V30 3713 C 324.841 2.51337 -2.57879 0
M  V30 3714 C 324.694 1.99508 -4.03134 0
M  V30 3715 C 326.013 3.53463 -2.62205 0
M  V30 3716 H 323.132 0.495617 -0.545466 0
M  V30 3717 H 325.774 0.682732 -1.7731 0
M  V30 3718 H 323.924 3.09691 -2.34571 0
M  V30 3719 H 325.596 1.45789 -4.37656 0
M  V30 3720 H 323.839 1.30496 -4.13707 0
M  V30 3721 H 324.51 2.82169 -4.74431 0
M  V30 3722 H 326.986 3.04953 -2.83095 0
M  V30 3723 H 325.862 4.31178 -3.39672 0
M  V30 3724 H 326.123 4.09197 -1.67363 0
M  V30 3725 N 325.182 1.32811 0.848464 0
M  V30 3726 C 326.598 1.11937 1.13764 0
M  V30 3727 C 326.798 -0.0960789 2.01271 0
M  V30 3728 O 325.854 -0.779165 2.40178 0
M  V30 3729 C 327.167 2.402 1.809 0
M  V30 3730 C 328.715 2.46016 1.93508 0
M  V30 3731 C 329.19 3.74215 2.64059 0
M  V30 3732 N 330.681 3.75232 2.71579 0
M  V30 3733 C 331.416 4.71134 3.26833 0
M  V30 3734 N 330.912 5.77406 3.8285 0
M  V30 3735 N 332.705 4.58623 3.24995 0
M  V30 3736 H 324.856 2.1073 0.265855 0
M  V30 3737 H 327.119 0.930671 0.180431 0
M  V30 3738 H 326.825 3.29093 1.24058 0
M  V30 3739 H 326.699 2.51628 2.81004 0
M  V30 3740 H 329.086 1.57577 2.49506 0
M  V30 3741 H 329.167 2.38536 0.923811 0
M  V30 3742 H 328.811 4.63031 2.08722 0
M  V30 3743 H 328.741 3.78968 3.65637 0
M  V30 3744 H 331.232 2.98423 2.31845 0
M  V30 3745 H 331.545 6.46632 4.23187 0
M  V30 3746 H 329.89 5.81152 3.81165 0
M  V30 3747 H 333.081 3.74762 2.80484 0
M  V30 3748 H 333.254 5.33535 3.67756 0
M  V30 3749 N 326.66 -1.06551 1.16123 0
M  V30 3750 C 328.071 -1.60768 0.949232 0
M  V30 3751 C 328.422 -1.89523 -0.507508 0
M  V30 3752 O 327.547 -1.66671 -1.38021 0
M  V30 3753 C 328.142 -2.92086 1.71671 0
M  V30 3754 C 326.701 -3.43015 1.54977 0
M  V30 3755 C 325.848 -2.16947 1.72711 0
M  V30 3756 H 328.799 -0.895354 1.31031 0
M  V30 3757 H 328.82 -3.6138 1.19099 0
M  V30 3758 H 328.332 -2.71127 2.7769 0
M  V30 3759 H 326.433 -3.69039 0.513873 0
M  V30 3760 H 326.546 -4.18516 2.33198 0
M  V30 3761 H 324.91 -2.27041 1.15431 0
M  V30 3762 H 325.693 -1.98473 2.80113 0
M  V30 3763 N 328.138 -0.959301 -1.25041 0
M  V30 3764 C 329.085 -0.482057 -2.2571 0
M  V30 3765 C 330.055 0.467939 -1.59372 0
M  V30 3766 O 331.24 0.380159 -1.86974 0
M  V30 3767 C 328.38 0.229623 -3.44335 0
M  V30 3768 C 327.493 -0.758156 -4.25295 0
M  V30 3769 C 326.628 -0.0234403 -5.31195 0
M  V30 3770 C 325.667 -1.00184 -6.03846 0
M  V30 3771 N 324.804 -0.29769 -7.01469 0
M  V30 3772 H 329.644 -1.34538 -2.65901 0
M  V30 3773 H 327.181 -0.674592 -1.3072 0
M  V30 3774 H 329.139 0.658856 -4.11965 0
M  V30 3775 H 327.769 1.05696 -3.05005 0
M  V30 3776 H 326.821 -1.30586 -3.57284 0
M  V30 3777 H 328.133 -1.50458 -4.75567 0
M  V30 3778 H 327.287 0.464201 -6.04922 0
M  V30 3779 H 326.026 0.755741 -4.81809 0
M  V30 3780 H 325.031 -1.50044 -5.2893 0
M  V30 3781 H 326.256 -1.78133 -6.55321 0
M  V30 3782 H 324.202 0.462668 -6.54366 0
M  V30 3783 H 324.119 -0.983128 -7.4958 0
M  V30 3784 H 325.387 0.16826 -7.79318 0
M  V30 3785 N 329.616 1.39756 -0.72842 0
M  V30 3786 C 330.546 2.33289 -0.0991354 0
M  V30 3787 C 331.527 1.53568 0.731489 0
M  V30 3788 O 332.712 1.81987 0.677807 0
M  V30 3789 C 329.842 3.3763 0.813834 0
M  V30 3790 C 328.796 4.2791 0.0878663 0
M  V30 3791 C 328.122 5.22894 1.11741 0
M  V30 3792 C 329.422 5.11314 -1.06563 0
M  V30 3793 H 331.116 2.86163 -0.880408 0
M  V30 3794 H 328.662 1.37591 -0.424819 0
M  V30 3795 H 330.615 4.0201 1.26355 0
M  V30 3796 H 329.339 2.83181 1.62715 0
M  V30 3797 H 327.998 3.65 -0.342159 0
M  V30 3798 H 327.646 4.64744 1.92412 0
M  V30 3799 H 327.346 5.84143 0.636477 0
M  V30 3800 H 328.87 5.90151 1.56697 0
M  V30 3801 H 330.284 5.69076 -0.694671 0
M  V30 3802 H 328.681 5.81671 -1.47577 0
M  V30 3803 H 329.751 4.46534 -1.89038 0
M  V30 3804 N 331.094 0.475555 1.50254 0
M  V30 3805 C 332.042 -0.330276 2.30243 0
M  V30 3806 C 333.036 -0.986306 1.37726 0
M  V30 3807 O 334.242 -0.9169 1.54897 0
M  V30 3808 H 330.617 -0.125353 0.741479 0
M  V30 3809 H 332.588 0.364702 2.96163 0
M  V30 3810 C 331.337 -1.39704 3.18399 0
M  V30 3811 H 330.66 -0.901621 3.89501 0
M  V30 3812 H 332.1 -1.93336 3.77355 0
M  V30 3813 C 330.559 -2.4014 2.36293 0
M  V30 3814 O 331.089 -3.45504 2.04914 0
M  V30 3815 N 329.295 -2.1197 1.98789 0
M  V30 3816 H 328.842 -1.2631 2.24507 0
M  V30 3817 H 328.8 -2.79403 1.44157 0
M  V30 3818 N 332.573 -1.56217 0.208337 0
M  V30 3819 C 333.483 -2.23316 -0.718836 0
M  V30 3820 C 334.499 -1.23648 -1.22422 0
M  V30 3821 O 335.675 -1.56423 -1.26861 0
M  V30 3822 C 332.74 -2.88968 -1.91568 0
M  V30 3823 C 331.801 -4.03943 -1.45357 0
M  V30 3824 C 331.034 -4.66455 -2.59337 0
M  V30 3825 O 331.257 -4.27919 -3.77149 0
M  V30 3826 O 330.191 -5.55686 -2.31293 0
M  V30 3827 H 334.017 -3.03182 -0.177315 0
M  V30 3828 H 331.602 -1.49384 -0.0215402 0
M  V30 3829 H 333.484 -3.30455 -2.61491 0
M  V30 3830 H 332.159 -2.12071 -2.44556 0
M  V30 3831 H 331.066 -3.67052 -0.722746 0
M  V30 3832 H 332.399 -4.82543 -0.970219 0
M  V30 3833 N 334.051 0.0651679 -1.57465 0
M  V30 3834 C 334.981 1.07693 -2.07182 0
M  V30 3835 C 335.962 1.39962 -0.966673 0
M  V30 3836 O 337.147 1.49475 -1.2398 0
M  V30 3837 C 334.277 2.3885 -2.52127 0
M  V30 3838 C 333.231 2.20917 -3.66579 0
M  V30 3839 C 332.557 3.57515 -3.97601 0
M  V30 3840 C 333.857 1.62493 -4.9638 0
M  V30 3841 H 335.551 0.663199 -2.91962 0
M  V30 3842 H 333.097 0.317569 -1.40455 0
M  V30 3843 H 335.05 3.09928 -2.85522 0
M  V30 3844 H 333.774 2.82215 -1.64384 0
M  V30 3845 H 332.433 1.52279 -3.33477 0
M  V30 3846 H 332.081 3.98463 -3.06979 0
M  V30 3847 H 331.781 3.46353 -4.74672 0
M  V30 3848 H 333.305 4.30013 -4.33499 0
M  V30 3849 H 334.719 2.23445 -5.27963 0
M  V30 3850 H 333.116 1.62009 -5.77818 0
M  V30 3851 H 334.186 0.587041 -4.81333 0
M  V30 3852 N 335.529 1.53961 0.336706 0
M  V30 3853 C 336.778 1.70751 1.07363 0
M  V30 3854 C 337.091 0.481061 1.89592 0
M  V30 3855 O 338.297 0.530046 2.66276 0
M  V30 3856 C 336.753 3.01965 1.95818 0
M  V30 3857 C 336.361 4.31971 1.18764 0
M  V30 3858 C 338.105 3.28121 2.69327 0
M  V30 3859 C 336.012 5.54255 2.06289 0
M  V30 3860 H 334.942 0.636292 0.404535 0
M  V30 3861 H 337.593 1.80459 0.332681 0
M  V30 3862 H 335.975 2.86132 2.7376 0
M  V30 3863 H 337.149 4.5853 0.456849 0
M  V30 3864 H 335.464 4.12481 0.569946 0
M  V30 3865 H 338.061 4.16673 3.35094 0
M  V30 3866 H 338.404 2.45426 3.36261 0
M  V30 3867 H 338.937 3.44762 1.98454 0
M  V30 3868 H 335.676 6.39513 1.43885 0
M  V30 3869 H 335.196 5.31935 2.77138 0
M  V30 3870 H 336.875 5.90159 2.65182 0
M  V30 3871 N 337.007 -0.598083 1.45811 0
M  V30 3872 C 338.423 -0.919847 1.30426 0
M  V30 3873 C 338.623 -1.99759 0.264303 0
M  V30 3874 O 337.679 -2.50221 -0.338472 0
M  V30 3875 C 338.992 -1.35176 2.68603 0
M  V30 3876 C 340.54 -1.46546 2.76574 0
M  V30 3877 C 341.015 -1.9311 4.15298 0
M  V30 3878 N 342.506 -2.00328 4.1764 0
M  V30 3879 C 343.241 -2.37599 5.21856 0
M  V30 3880 N 342.737 -2.73771 6.36413 0
M  V30 3881 N 344.53 -2.38021 5.09218 0
M  V30 3882 H 336.681 0.114111 2.12093 0
M  V30 3883 H 338.944 -0.0116121 0.947929 0
M  V30 3884 H 338.65 -0.633969 3.45939 0
M  V30 3885 H 338.524 -2.3164 2.97696 0
M  V30 3886 H 340.911 -2.17415 1.99537 0
M  V30 3887 H 340.992 -0.483727 2.51185 0
M  V30 3888 H 340.636 -1.22824 4.92825 0
M  V30 3889 H 340.566 -2.92213 4.38086 0
M  V30 3890 H 343.057 -1.74925 3.34977 0
M  V30 3891 H 343.37 -3.0112 7.11721 0
M  V30 3892 H 341.715 -2.71445 6.39799 0
M  V30 3893 H 344.906 -2.09174 4.18765 0
M  V30 3894 H 345.079 -2.66741 5.90554 0
M  V30 3895 N 338.485 -1.33259 -0.841409 0
M  V30 3896 C 339.762 -1.15174 -1.58096 0
M  V30 3897 C 340.142 0.282858 -2.09196 0
M  V30 3898 O 339.49 1.28151 -1.89181 0
M  V30 3899 C 339.7 -2.1907 -2.71679 0
M  V30 3900 C 341.048 -2.53093 -3.40924 0
M  V30 3901 O 342.072 -2.17717 -2.81918 0
M  V30 3902 O 340.931 -3.1379 -4.47435 0
M  V30 3903 H 338.025 -0.445303 -0.696875 0
M  V30 3904 H 340.571 -1.44833 -0.884385 0
M  V30 3905 H 339.343 -3.15443 -2.31541 0
M  V30 3906 H 338.966 -1.90481 -3.49002 0
M  V30 3907 N 339.963 1.05934 -1.16686 0
M  V30 3908 C 341.193 1.82226 -0.973515 0
M  V30 3909 C 341.601 1.8297 0.481532 0
M  V30 3910 O 340.944 1.25009 1.34604 0
M  V30 3911 C 341.006 3.29897 -1.42858 0
M  V30 3912 C 340.67 3.52849 -2.90425 0
M  V30 3913 C 341.667 3.45595 -3.88407 0
M  V30 3914 C 339.352 3.80053 -3.28428 0
M  V30 3915 C 341.346 3.65217 -5.22394 0
M  V30 3916 C 339.033 3.99325 -4.62583 0
M  V30 3917 C 340.031 3.91905 -5.59374 0
M  V30 3918 O 339.719 4.10647 -6.91104 0
M  V30 3919 H 339.451 0.581314 -0.345036 0
M  V30 3920 H 342.005 1.3453 -1.55212 0
M  V30 3921 H 340.235 3.78472 -0.793477 0
M  V30 3922 H 341.924 3.87692 -1.20207 0
M  V30 3923 H 342.69 3.24564 -3.60393 0
M  V30 3924 H 338.569 3.84936 -2.53664 0
M  V30 3925 H 342.113 3.59341 -5.9793 0
M  V30 3926 H 338.01 4.19846 -4.90306 0
M  V30 3927 H 338.778 4.27915 -6.97733 0
M  V30 3928 N 341.441 0.965919 1.2453 0
M  V30 3929 C 342.388 0.49402 2.25451 0
M  V30 3930 C 343.358 -0.45948 1.59618 0
M  V30 3931 O 344.543 -0.370238 1.87173 0
M  V30 3932 C 341.683 -0.211359 3.44452 0
M  V30 3933 C 340.796 0.7807 4.24887 0
M  V30 3934 C 339.931 0.0516105 5.31175 0
M  V30 3935 C 338.97 1.03385 6.03306 0
M  V30 3936 N 338.107 0.334887 7.01301 0
M  V30 3937 H 342.947 1.35946 2.65184 0
M  V30 3938 H 340.484 0.681515 1.3036 0
M  V30 3939 H 342.442 -0.637 4.12308 0
M  V30 3940 H 341.072 -1.04077 3.05562 0
M  V30 3941 H 340.124 1.32479 3.56586 0
M  V30 3942 H 341.436 1.52978 4.74762 0
M  V30 3943 H 340.59 -0.432114 6.05159 0
M  V30 3944 H 339.329 -0.730179 4.82203 0
M  V30 3945 H 338.334 1.52847 5.28127 0
M  V30 3946 H 339.559 1.81606 6.54367 0
M  V30 3947 H 337.505 -0.427959 6.54603 0
M  V30 3948 H 337.422 1.02287 7.49048 0
M  V30 3949 H 338.69 -0.126928 7.79397 0
M  V30 3950 N 342.919 -1.39368 0.735821 0
M  V30 3951 C 343.882 -2.2896 0.104874 0
M  V30 3952 C 344.882 -1.46347 -0.666274 0
M  V30 3953 O 346.072 -1.67014 -0.49517 0
M  V30 3954 C 343.204 -3.29857 -0.860656 0
M  V30 3955 H 344.397 -2.86259 0.894205 0
M  V30 3956 H 341.95 -1.48029 0.501704 0
M  V30 3957 H 342.685 -2.77615 -1.67631 0
M  V30 3958 H 342.47 -3.9087 -0.310327 0
M  V30 3959 H 343.96 -3.96893 -1.29867 0
M  V30 3960 N 344.397 -0.483516 -1.5 0
M  V30 3961 C 345.625 0.0644831 -2.06799 0
M  V30 3962 C 346.04 1.32399 -1.34596 0
M  V30 3963 O 345.397 1.77626 -0.418946 0
M  V30 3964 C 345.448 0.339927 -3.59898 0
M  V30 3965 O 345.169 -0.869635 -4.29382 0
M  V30 3966 C 346.67 0.933515 -4.33359 0
M  V30 3967 H 343.89 -0.0126333 -0.670881 0
M  V30 3968 H 346.434 -0.675864 -1.93009 0
M  V30 3969 H 344.589 1.03022 -3.7345 0
M  V30 3970 H 345.003 -0.62179 -5.20801 0
M  V30 3971 H 346.477 1.07593 -5.41413 0
M  V30 3972 H 346.954 1.92685 -3.94676 0
M  V30 3973 H 347.56 0.281221 -4.24369 0
M  V30 3974 N 345.875 1.56104 -0.216619 0
M  V30 3975 C 346.825 2.16703 0.708798 0
M  V30 3976 C 347.809 1.11392 1.16106 0
M  V30 3977 O 349.001 1.37395 1.11587 0
M  V30 3978 C 346.13 2.84666 1.91886 0
M  V30 3979 C 345.216 3.97195 1.48651 0
M  V30 3980 N 345.607 4.99959 0.766434 0
M  V30 3981 C 343.905 4.09193 1.77418 0
M  V30 3982 C 344.606 5.79126 0.546659 0
M  V30 3983 N 343.582 5.32315 1.10188 0
M  V30 3984 H 347.384 2.93516 0.150162 0
M  V30 3985 H 344.898 1.6239 -0.0176768 0
M  V30 3986 H 346.895 3.26486 2.59253 0
M  V30 3987 H 345.555 2.09347 2.48202 0
M  V30 3988 H 346.566 5.16197 0.419634 0
M  V30 3989 H 343.243 3.45021 2.35088 0
M  V30 3990 H 344.633 6.71895 -0.026103 0
M  V30 3991 N 347.353 -0.0568162 1.57498 0
M  V30 3992 C 348.578 -0.769402 1.92601 0
M  V30 3993 C 349.003 -1.69559 0.814336 0
M  V30 3994 O 348.361 -1.79811 -0.231903 0
M  V30 3995 C 348.409 -1.52634 3.26704 0
M  V30 3996 O 347.513 -2.63797 3.16994 0
M  V30 3997 H 346.854 -0.208909 0.63028 0
M  V30 3998 H 349.384 -0.0205798 2.0459 0
M  V30 3999 H 349.394 -1.90234 3.60936 0
M  V30 4000 H 348.069 -0.846875 4.07186 0
M  V30 4001 H 346.646 -2.28943 2.94346 0
M  V30 4002 N 348.832 -1.54138 -0.328536 0
M  V30 4003 C 349.742 -1.86192 -1.42723 0
M  V30 4004 C 350.758 -0.753382 -1.56844 0
M  V30 4005 O 351.934 -1.04718 -1.72035 0
M  V30 4006 C 348.999 -2.07824 -2.77507 0
M  V30 4007 C 348.06 -3.31641 -2.72603 0
M  V30 4008 C 347.293 -3.52232 -4.00959 0
M  V30 4009 O 347.516 -2.7636 -4.9898 0
M  V30 4010 O 346.45 -4.45699 -4.0452 0
M  V30 4011 H 350.276 -2.79608 -1.18547 0
M  V30 4012 H 347.861 -1.3998 -0.522104 0
M  V30 4013 H 349.743 -2.23411 -3.57303 0
M  V30 4014 H 348.418 -1.17596 -3.01584 0
M  V30 4015 H 347.325 -3.21444 -1.91376 0
M  V30 4016 H 348.658 -4.2191 -2.53481 0
M  V30 4017 N 350.31 0.590341 -1.46126 0
M  V30 4018 C 351.22 1.72793 -1.58681 0
M  V30 4019 C 352.236 1.67516 -0.470566 0
M  V30 4020 O 353.412 1.87562 -0.733642 0
M  V30 4021 C 350.477 3.09287 -1.5666 0
M  V30 4022 C 349.538 3.25886 -2.79458 0
M  V30 4023 C 348.771 4.55869 -2.77524 0
M  V30 4024 O 348.994 5.3928 -1.85832 0
M  V30 4025 O 347.928 4.75552 -3.68964 0
M  V30 4026 H 351.754 1.65149 -2.54872 0
M  V30 4027 H 349.339 0.756486 -1.28832 0
M  V30 4028 H 351.221 3.90577 -1.58202 0
M  V30 4029 H 349.896 3.17385 -0.636271 0
M  V30 4030 H 348.803 2.44119 -2.83472 0
M  V30 4031 H 350.136 3.22675 -3.71674 0
M  V30 4032 N 351.788 1.33704 0.83433 0
M  V30 4033 C 353.199 1.22813 1.4062 0
M  V30 4034 C 353.55 -0.151107 1.95617 0
M  V30 4035 O 352.675 -1.05092 1.89168 0
M  V30 4036 C 353.27 2.22355 2.55624 0
M  V30 4037 C 351.829 2.1529 3.08751 0
M  V30 4038 C 350.976 2.09589 1.8157 0
M  V30 4039 H 353.927 1.45236 0.639702 0
M  V30 4040 H 353.948 1.83391 3.33389 0
M  V30 4041 H 353.46 3.22728 2.15566 0
M  V30 4042 H 351.561 1.18235 3.53343 0
M  V30 4043 H 351.674 3.06038 3.68616 0
M  V30 4044 H 350.038 1.55134 2.02004 0
M  V30 4045 H 350.821 3.11777 1.43701 0
M  V30 4046 N 353.266 -1.05314 1.17247 0
M  V30 4047 C 354.229 -2.112 0.890357 0
M  V30 4048 C 355.229 -1.60359 -0.118943 0
M  V30 4049 O 356.419 -1.73833 0.113086 0
M  V30 4050 C 353.551 -3.39266 0.333422 0
M  V30 4051 H 354.744 -2.37659 1.82916 0
M  V30 4052 H 352.297 -1.21538 0.982758 0
M  V30 4053 H 353.032 -3.18462 -0.612587 0
M  V30 4054 H 352.817 -3.77477 1.06082 0
M  V30 4055 H 354.307 -4.17315 0.154322 0
M  V30 4056 N 354.744 -0.972509 -1.24016 0
M  V30 4057 C 355.674 -0.525548 -2.27509 0
M  V30 4058 C 356.655 0.437262 -1.64384 0
M  V30 4059 O 357.84 0.332343 -1.91335 0
M  V30 4060 C 354.97 0.180448 -3.46831 0
M  V30 4061 C 353.924 -0.698859 -4.22256 0
M  V30 4062 C 353.25 0.138903 -5.3452 0
M  V30 4063 C 354.55 -1.98582 -4.83076 0
M  V30 4064 H 356.244 -1.39058 -2.65148 0
M  V30 4065 H 353.79 -0.67009 -1.27459 0
M  V30 4066 H 355.743 0.504387 -4.18371 0
M  V30 4067 H 354.467 1.07987 -3.08231 0
M  V30 4068 H 353.126 -1.00614 -3.52523 0
M  V30 4069 H 352.774 1.03862 -4.9216 0
M  V30 4070 H 352.474 -0.446259 -5.85903 0
M  V30 4071 H 353.998 0.457404 -6.08884 0
M  V30 4072 H 355.412 -1.72715 -5.46665 0
M  V30 4073 H 353.809 -2.5181 -5.44713 0
M  V30 4074 H 354.879 -2.67769 -4.04262 0
M  V30 4075 O 356.261 1.3537 -0.880752 0
M  V30 4076 H 356.952 1.87543 -0.484504 0
M  V30 END ATOM
M  V30 BEGIN BOND
M  V30 END BOND
M  V30 END CTAB
M  END
$$$$
