drugbank_target|Q8I3Z5 Translationally-controlled tumor protein homolog (DB11638)
 OpenBabel12092121093D

  0  0  0     0  0            999 V3000
M  V30 BEGIN CTAB
M  V30 COUNTS 2755 2787 0 0 0
M  V30 BEGIN ATOM
M  V30 1 H -0.908 1.98254 -0.117106 0
M  V30 2 N 0 1.576 0 0
M  V30 3 C 0.933 2.03868 1.02534 0
M  V30 4 C 1.911 0.928543 1.3348 0
M  V30 5 O 3.095 1.19667 1.45644 0
M  V30 6 C 0.222 2.43627 2.35294 0
M  V30 7 C -0.732 3.65373 2.2001 0
M  V30 8 S 0.101 5.13292 1.52614 0
M  V30 9 C 1.257 5.56322 2.86805 0
M  V30 10 H 1.49 2.90518 0.631377 0
M  V30 11 H -0.977 1.52953 0.210867 0
M  V30 12 H 0.981 2.67203 3.11629 0
M  V30 13 H -0.358 1.57376 2.7183 0
M  V30 14 H -1.165 3.90944 3.18086 0
M  V30 15 H -1.563 3.418 1.51819 0
M  V30 16 H 0.729 5.58782 3.83104 0
M  V30 17 H 1.672 6.56266 2.65933 0
M  V30 18 H 2.08 4.83886 2.90714 0
M  V30 19 N 1.4781 -0.272755 1.55222 0
M  V30 20 C 2.4251 -1.33716 1.88119 0
M  V30 21 C 3.3951 -1.49066 0.73271 0
M  V30 22 O 4.5801 -1.63469 0.984002 0
M  V30 23 C 1.7201 -2.69238 2.15882 0
M  V30 24 C 0.8331 -2.62108 3.43399 0
M  V30 25 C -0.0319 -3.89811 3.60861 0
M  V30 26 C -0.9929 -3.77193 4.8207 0
M  V30 27 N -1.8559 -4.9673 4.96189 0
M  V30 28 H 2.9841 -1.04962 2.78903 0
M  V30 29 H 0.5211 -0.507088 1.38083 0
M  V30 30 H 2.4791 -3.48089 2.29978 0
M  V30 31 H 1.1091 -2.96194 1.28331 0
M  V30 32 H 0.1611 -1.74967 3.37773 0
M  V30 33 H 1.4731 -2.48685 4.32386 0
M  V30 34 H 0.6271 -4.77103 3.74777 0
M  V30 35 H -0.6339 -4.06102 2.7006 0
M  V30 36 H -1.6289 -2.88284 4.68159 0
M  V30 37 H -0.4039 -3.62421 5.74307 0
M  V30 38 H -2.4579 -5.13431 4.08319 0
M  V30 39 H -2.5409 -4.85839 5.79221 0
M  V30 40 H -1.2729 -5.85594 5.1449 0
M  V30 41 N 2.9562 -1.48159 -0.537278 0
M  V30 42 C 4.2022 -1.56035 -1.29541 0
M  V30 43 C 4.5352 -0.230377 -1.92829 0
M  V30 44 O 3.8102 0.762952 -1.78911 0
M  V30 45 C 4.0932 -2.69323 -2.39034 0
M  V30 46 C 3.9462 -4.12002 -1.80485 0
M  V30 47 C 5.2652 -2.78408 -3.40847 0
M  V30 48 H 2.3842 -0.567992 -0.469632 0
M  V30 49 H 5.0262 -1.80302 -0.599277 0
M  V30 50 H 3.1762 -2.48763 -2.98412 0
M  V30 51 H 4.8482 -4.43981 -1.25215 0
M  V30 52 H 3.0912 -4.19344 -1.11055 0
M  V30 53 H 3.7622 -4.87077 -2.59731 0
M  V30 54 H 6.2382 -2.97012 -2.91416 0
M  V30 55 H 5.1142 -3.59416 -4.14863 0
M  V30 56 H 5.3752 -1.86269 -4.00944 0
M  V30 57 N 4.4343 0.785586 -1.36625 0
M  V30 58 C 5.6813 1.54362 -1.31067 0
M  V30 59 C 6.0093 1.94195 0.10893 0
M  V30 60 O 5.2643 1.63262 1.07908 0
M  V30 61 C 5.5633 2.83007 -2.1827 0
M  V30 62 C 5.2293 2.62294 -3.6676 0
M  V30 63 C 3.8913 2.56353 -4.0723 0
M  V30 64 C 6.2433 2.43371 -4.6089 0
M  V30 65 C 3.5713 2.29461 -5.39967 0
M  V30 66 C 5.9233 2.18005 -5.93849 0
M  V30 67 C 4.5873 2.105 -6.3344 0
M  V30 68 H 3.8573 0.564851 -0.479609 0
M  V30 69 H 6.5043 0.906028 -1.68711 0
M  V30 70 H 4.8093 3.51253 -1.73576 0
M  V30 71 H 6.5063 3.40817 -2.11292 0
M  V30 72 H 3.0963 2.67774 -3.34656 0
M  V30 73 H 7.2803 2.46959 -4.30494 0
M  V30 74 H 2.5363 2.22135 -5.69619 0
M  V30 75 H 6.7103 2.02359 -6.66351 0
M  V30 76 H 4.3373 1.89425 -7.36222 0
M  V30 77 N 5.9124 1.20967 1.01018 0
M  V30 78 C 6.8594 0.964281 2.09691 0
M  V30 79 C 7.8294 -0.107853 1.65749 0
M  V30 80 O 9.0144 0.0381987 1.90762 0
M  V30 81 C 6.1544 0.52943 3.41015 0
M  V30 82 C 5.2674 1.67043 3.98398 0
M  V30 83 C 4.4024 1.18525 5.17808 0
M  V30 84 C 3.4414 2.29892 5.67288 0
M  V30 85 N 2.5784 1.82546 6.77954 0
M  V30 86 H 7.4184 1.89463 2.30017 0
M  V30 87 H 4.9554 0.944289 1.1279 0
M  V30 88 H 6.9134 0.258588 4.16398 0
M  V30 89 H 5.5434 -0.363919 3.20742 0
M  V30 90 H 4.5954 2.05603 3.20049 0
M  V30 91 H 5.9074 2.50877 4.31117 0
M  V30 92 H 5.0614 0.870762 6.00419 0
M  V30 93 H 3.8004 0.316887 4.86669 0
M  V30 94 H 2.8054 2.6215 4.83278 0
M  V30 95 H 4.0304 3.17216 6.00459 0
M  V30 96 H 1.9764 0.980454 6.48632 0
M  V30 97 H 1.8934 2.59956 7.09901 0
M  V30 98 H 3.1614 1.54115 7.64113 0
M  V30 99 N 7.3905 -1.2043 1.01659 0
M  V30 100 C 8.6675 -1.8548 0.621004 0
M  V30 101 C 9.0475 -1.9091 -0.900919 0
M  V30 102 O 8.3955 -1.41694 -1.79263 0
M  V30 103 C 8.6055 -3.25119 1.2688 0
M  V30 104 C 9.9535 -4.01403 1.38423 0
M  V30 105 O 10.9775 -3.34473 1.22501 0
M  V30 106 O 9.8365 -5.21265 1.64151 0
M  V30 107 H 6.9305 -0.798761 0.214266 0
M  V30 108 H 9.4765 -1.28019 1.11396 0
M  V30 109 H 8.2485 -3.15932 2.30873 0
M  V30 110 H 7.8715 -3.90212 0.762917 0
M  V30 111 N 8.8686 -0.792821 -1.36206 0
M  V30 112 C 10.1146 -0.36733 -1.99446 0
M  V30 113 C 10.4476 1.05917 -1.62774 0
M  V30 114 O 9.7226 1.7324 -0.88421 0
M  V30 115 C 10.0056 -0.535044 -3.56103 0
M  V30 116 C 9.8586 -2.00548 -4.02617 0
M  V30 117 C 11.1776 0.0478191 -4.40074 0
M  V30 118 H 8.2966 -0.134941 -0.724541 0
M  V30 119 H 10.9386 -0.999794 -1.61568 0
M  V30 120 H 9.0886 0.00336329 -3.885 0
M  V30 121 H 10.7606 -2.60521 -3.80692 0
M  V30 122 H 9.0036 -2.50686 -3.54032 0
M  V30 123 H 9.6746 -2.07377 -5.11565 0
M  V30 124 H 12.1506 -0.411822 -4.14057 0
M  V30 125 H 11.0266 -0.0995336 -5.4881 0
M  V30 126 H 11.2876 1.14025 -4.27142 0
M  V30 127 N 10.3467 1.47872 -0.545128 0
M  V30 128 C 11.5937 2.02493 -0.0165858 0
M  V30 129 C 11.9217 1.42073 1.32836 0
M  V30 130 O 11.1767 0.561459 1.87473 0
M  V30 131 C 11.4757 3.57131 0.13867 0
M  V30 132 C 11.1417 4.36411 -1.13384 0
M  V30 133 C 9.8037 4.57792 -1.48256 0
M  V30 134 C 12.1557 4.82223 -1.97764 0
M  V30 135 C 9.4837 5.22233 -2.67376 0
M  V30 136 C 11.8357 5.47977 -3.16076 0
M  V30 137 C 10.4997 5.67593 -3.51275 0
M  V30 138 H 9.7697 0.740975 -0.00606918 0
M  V30 139 H 12.4167 1.77683 -0.714207 0
M  V30 140 H 10.7217 3.80865 0.919172 0
M  V30 141 H 12.4187 3.97031 0.562782 0
M  V30 142 H 9.0087 4.2004 -0.852297 0
M  V30 143 H 13.1927 4.65493 -1.72132 0
M  V30 144 H 8.4487 5.35616 -2.94831 0
M  V30 145 H 12.6227 5.8244 -3.81755 0
M  V30 146 H 10.2497 6.17298 -4.43675 0
M  V30 147 N 11.8248 0.280983 1.55075 0
M  V30 148 C 13.0528 -0.337293 2.04132 0
M  V30 149 C 13.4678 -1.4903 1.15912 0
M  V30 150 O 12.8248 -1.81606 0.180459 0
M  V30 151 C 12.8758 -0.812706 3.52246 0
M  V30 152 O 12.5968 0.294387 4.3711 0
M  V30 153 C 14.0978 -1.4982 4.17216 0
M  V30 154 H 11.3178 -0.0761638 0.666663 0
M  V30 155 H 13.8618 0.414787 2.00249 0
M  V30 156 H 12.0168 -1.51486 3.56554 0
M  V30 157 H 12.4308 -0.0721325 5.2445 0
M  V30 158 H 13.9048 -1.7822 5.22438 0
M  V30 159 H 14.3818 -2.43168 3.65741 0
M  V30 160 H 14.9878 -0.839742 4.16927 0
M  V30 161 N 13.3029 -1.57598 0.00835791 0
M  V30 162 C 14.2509 -2.10078 -0.998508 0
M  V30 163 C 15.2449 -1.02262 -1.35051 0
M  V30 164 O 16.4509 -1.20719 -1.33518 0
M  V30 165 H 12.8259 -0.670903 -0.339696 0
M  V30 166 H 14.7969 -2.93648 -0.530398 0
M  V30 167 C 13.5459 -2.62615 -2.27879 0
M  V30 168 H 12.8689 -3.45213 -2.01662 0
M  V30 169 H 14.3089 -3.03004 -2.96588 0
M  V30 170 C 12.7679 -1.54407 -2.99433 0
M  V30 171 O 13.2979 -0.931812 -3.90743 0
M  V30 172 N 11.5039 -1.2695 -2.61404 0
M  V30 173 H 11.0509 -1.76924 -1.87232 0
M  V30 174 H 11.0089 -0.547704 -3.09593 0
M  V30 175 N 14.781 0.264519 -1.55364 0
M  V30 176 C 16.058 1.01677 -1.67096 0
M  V30 177 C 16.438 2.03996 -0.543015 0
M  V30 178 O 15.786 2.23907 0.45585 0
M  V30 179 C 15.996 1.66596 -3.0667 0
M  V30 180 C 17.344 2.17442 -3.64697 0
M  V30 181 O 18.368 1.76568 -3.09358 0
M  V30 182 O 17.227 2.92439 -4.61673 0
M  V30 183 H 14.321 0.472161 -0.678965 0
M  V30 184 H 16.867 0.259703 -1.67701 0
M  V30 185 H 15.639 0.924962 -3.80211 0
M  V30 186 H 15.262 2.48968 -3.10001 0
M  V30 187 N 16.2591 1.48442 0.529413 0
M  V30 188 C 17.1691 1.6569 1.66084 0
M  V30 189 C 18.1851 0.539432 1.65427 0
M  V30 190 O 19.3611 0.810572 1.84368 0
M  V30 191 C 16.4261 1.69315 3.02545 0
M  V30 192 C 15.4871 2.92694 3.14052 0
M  V30 193 C 14.7201 2.96137 4.44003 0
M  V30 194 O 14.9431 2.07973 5.31134 0
M  V30 195 O 13.8771 3.88312 4.59888 0
M  V30 196 H 17.7031 2.61483 1.54469 0
M  V30 197 H 15.2881 1.3185 0.702567 0
M  V30 198 H 17.1701 1.74217 3.83701 0
M  V30 199 H 15.8451 0.766966 3.14483 0
M  V30 200 H 14.7521 2.93324 2.32189 0
M  V30 201 H 16.0851 3.84699 3.0703 0
M  V30 202 N 17.7372 -0.778329 1.37039 0
M  V30 203 C 18.9832 -1.53892 1.32079 0
M  V30 204 C 19.3162 -1.9396 -0.0965386 0
M  V30 205 O 18.5912 -1.63568 -1.05242 0
M  V30 206 C 18.8742 -2.80847 2.25382 0
M  V30 207 C 18.7272 -2.47076 3.75864 0
M  V30 208 C 20.0462 -3.82741 2.1725 0
M  V30 209 H 17.1652 -0.558303 0.48111 0
M  V30 210 H 19.8072 -0.893397 1.67685 0
M  V30 211 H 17.9572 -3.35931 1.95148 0
M  V30 212 H 19.6292 -1.97957 4.16666 0
M  V30 213 H 17.8722 -1.79863 3.94755 0
M  V30 214 H 18.5432 -3.37798 4.36574 0
M  V30 215 H 21.0192 -3.37133 2.43887 0
M  V30 216 H 19.8952 -4.69303 2.84686 0
M  V30 217 H 20.1562 -4.2652 1.16331 0
M  V30 218 N 19.2153 -1.21501 -1.00376 0
M  V30 219 C 20.4553 -1.04444 -1.75701 0
M  V30 220 C 20.8193 0.414644 -1.87469 0
M  V30 221 O 22.0203 0.705763 -2.59369 0
M  V30 222 C 20.2913 -1.72389 -3.13077 0
M  V30 223 S 21.8503 -1.70604 -4.04277 0
M  V30 224 H 18.6683 -0.374249 -0.604532 0
M  V30 225 H 21.2703 -1.54267 -1.20091 0
M  V30 226 H 19.9743 -2.77734 -3.02146 0
M  V30 227 H 19.5053 -1.22751 -3.73759 0
M  V30 228 H 21.5203 -0.748012 -4.9053 0
M  V30 229 N 20.6934 1.19889 -1.02296 0
M  V30 230 C 21.9184 1.9393 -0.735237 0
M  V30 231 C 22.3434 1.74639 0.698782 0
M  V30 232 O 21.7014 1.04481 1.48167 0
M  V30 233 C 21.7494 3.43916 -1.08417 0
M  V30 234 O 20.8534 4.11917 -0.199446 0
M  V30 235 H 20.1944 0.605645 -0.272196 0
M  V30 236 H 22.7244 1.52137 -1.36804 0
M  V30 237 H 22.7344 3.9456 -1.03856 0
M  V30 238 H 21.4094 3.5728 -2.12894 0
M  V30 239 H 19.9864 3.71666 -0.303136 0
M  V30 240 N 22.1715 0.800033 1.35784 0
M  V30 241 C 23.4485 0.30088 1.93272 0
M  V30 242 C 23.8285 -1.20857 1.73081 0
M  V30 243 O 23.1765 -2.00502 1.09596 0
M  V30 244 C 23.3865 0.70511 3.41803 0
M  V30 245 C 24.7345 0.690871 4.18942 0
M  V30 246 O 25.7585 0.646244 3.50289 0
M  V30 247 O 24.6175 0.74332 5.41421 0
M  V30 248 H 21.7115 0.0771605 0.823393 0
M  V30 249 H 24.2575 0.88329 1.449 0
M  V30 250 H 23.0295 1.74571 3.50201 0
M  V30 251 H 22.6525 0.0971541 3.97481 0
M  V30 252 N 23.6496 -1.47581 0.552962 0
M  V30 253 C 24.8746 -2.07378 0.0300593 0
M  V30 254 C 25.2996 -1.40355 -1.25229 0
M  V30 255 O 24.6576 -0.477099 -1.7491 0
M  V30 256 C 24.7056 -3.60274 -0.153231 0
M  V30 257 O 23.8096 -3.94041 -1.21678 0
M  V30 258 H 23.1506 -0.662158 0.0494182 0
M  V30 259 H 25.6806 -1.89662 0.767434 0
M  V30 260 H 25.6906 -4.0633 -0.368761 0
M  V30 261 H 24.3656 -4.08455 0.783397 0
M  V30 262 H 22.9426 -3.59735 -0.982079 0
M  V30 263 N 25.1277 -0.289203 -1.54924 0
M  V30 264 C 26.3577 0.325989 -2.04012 0
M  V30 265 C 26.7657 1.48961 -1.1665 0
M  V30 266 O 26.1087 1.82794 -0.1822 0
M  V30 267 C 26.1707 0.856112 -3.49158 0
M  V30 268 C 25.8347 -0.180697 -4.56643 0
M  V30 269 C 26.8317 -1.0051 -5.10092 0
M  V30 270 C 24.5167 -0.318998 -5.01286 0
M  V30 271 C 26.5107 -1.95385 -6.06715 0
M  V30 272 C 24.1977 -1.27121 -5.97732 0
M  V30 273 C 25.1957 -2.08713 -6.50329 0
M  V30 274 O 24.8837 -3.02322 -7.44887 0
M  V30 275 H 24.6157 0.0765276 -0.671654 0
M  V30 276 H 27.1697 -0.423254 -2.00992 0
M  V30 277 H 25.3997 1.65567 -3.49463 0
M  V30 278 H 27.0887 1.38591 -3.81507 0
M  V30 279 H 27.8547 -0.90906 -4.76404 0
M  V30 280 H 23.7337 0.306108 -4.59983 0
M  V30 281 H 27.2777 -2.59111 -6.47694 0
M  V30 282 H 23.1747 -1.36801 -6.30837 0
M  V30 283 H 23.9427 -2.97165 -7.6265 0
M  V30 284 N 26.6058 1.57591 -0.0167156 0
M  V30 285 C 27.8518 1.91567 0.665582 0
M  V30 286 C 28.1848 0.892298 1.72487 0
M  V30 287 O 27.4598 -0.0867127 1.94307 0
M  V30 288 C 27.7428 3.36069 1.29342 0
M  V30 289 C 27.5958 4.49135 0.244541 0
M  V30 290 C 28.9148 3.803 2.21495 0
M  V30 291 H 26.0338 0.69666 0.240488 0
M  V30 292 H 28.6758 1.89866 -0.0714356 0
M  V30 293 H 26.8258 3.3765 1.92158 0
M  V30 294 H 28.4978 4.59689 -0.385228 0
M  V30 295 H 26.7408 4.3165 -0.431379 0
M  V30 296 H 27.4118 5.47242 0.723207 0
M  V30 297 H 29.8878 3.80377 1.68678 0
M  V30 298 H 28.7638 4.82127 2.62382 0
M  V30 299 H 29.0248 3.15104 3.101 0
M  V30 300 N 28.0839 -0.256276 1.55502 0
M  V30 301 C 29.0159 -1.33981 1.85962 0
M  V30 302 C 30.0289 -1.44743 0.745212 0
M  V30 303 O 31.2179 -1.4626 1.02324 0
M  V30 304 C 28.3179 -2.7194 2.02242 0
M  V30 305 C 27.4909 -2.83562 3.33033 0
M  V30 306 C 26.5499 -4.02304 3.39172 0
M  V30 307 O 25.5759 -3.92273 4.12444 0
M  V30 308 N 26.7779 -5.15045 2.67784 0
M  V30 309 H 29.5429 -1.08191 2.7949 0
M  V30 310 H 27.1039 -0.446388 1.55624 0
M  V30 311 H 29.0959 -3.49697 2.03701 0
M  V30 312 H 27.6659 -2.90479 1.15502 0
M  V30 313 H 26.8859 -1.92555 3.43971 0
M  V30 314 H 28.1739 -2.88271 4.19258 0
M  V30 315 H 27.5719 -5.26085 2.07968 0
M  V30 316 H 26.1289 -5.90972 2.74947 0
M  V30 317 N 29.562 -1.4872 -0.521534 0
M  V30 318 C 30.494 -1.59968 -1.64143 0
M  V30 319 C 31.507 -0.483463 -1.55456 0
M  V30 320 O 32.696 -0.75467 -1.61762 0
M  V30 321 C 29.796 -1.52127 -3.02838 0
M  V30 322 C 28.969 -2.78932 -3.36921 0
M  V30 323 C 28.028 -2.64428 -4.54933 0
M  V30 324 O 27.054 -3.38331 -4.57735 0
M  V30 325 N 28.256 -1.74606 -5.53618 0
M  V30 326 H 31.021 -2.56548 -1.54929 0
M  V30 327 H 28.582 -1.45551 -0.708988 0
M  V30 328 H 30.574 -1.40106 -3.79674 0
M  V30 329 H 29.144 -0.634868 -3.06085 0
M  V30 330 H 28.364 -3.05455 -2.4918 0
M  V30 331 H 29.652 -3.63041 -3.56481 0
M  V30 332 H 29.05 -1.13782 -5.54139 0
M  V30 333 H 27.607 -1.6852 -6.29638 0
M  V30 334 N 31.0401 0.771051 -1.3745 0
M  V30 335 C 32.3171 1.519 -1.23231 0
M  V30 336 C 32.6971 2.10383 0.173809 0
M  V30 337 O 32.0451 1.95583 1.18151 0
M  V30 338 C 32.2551 2.59933 -2.32886 0
M  V30 339 C 33.6031 3.27316 -2.70461 0
M  V30 340 O 34.6271 2.70228 -2.32068 0
M  V30 341 O 33.4861 4.30531 -3.36608 0
M  V30 342 H 30.5801 0.672803 -0.480901 0
M  V30 343 H 33.1261 0.807957 -1.49232 0
M  V30 344 H 31.8981 2.14842 -3.27045 0
M  V30 345 H 31.5211 3.38637 -2.08353 0
M  V30 346 N 32.5182 1.22032 0.997298 0
M  V30 347 C 33.9292 1.0397 1.55071 0
M  V30 348 C 34.2802 -0.398192 1.92117 0
M  V30 349 O 33.4052 -1.28254 1.74298 0
M  V30 350 C 34.0002 1.88109 2.81781 0
M  V30 351 C 32.5592 1.74357 3.33581 0
M  V30 352 C 31.7062 1.84846 2.06706 0
M  V30 353 H 34.6572 1.35941 0.818883 0
M  V30 354 H 34.6782 1.39589 3.53971 0
M  V30 355 H 34.1902 2.92754 2.54787 0
M  V30 356 H 32.2912 0.72427 3.65493 0
M  V30 357 H 32.4042 2.56772 4.04481 0
M  V30 358 H 30.7682 1.28238 2.20062 0
M  V30 359 H 31.5512 2.91014 1.82114 0
M  V30 360 N 33.9963 -1.19345 1.0293 0
M  V30 361 C 35.2433 -1.89038 0.726008 0
M  V30 362 C 35.5713 -1.79649 -0.745427 0
M  V30 363 O 34.8263 -1.18354 -1.55855 0
M  V30 364 C 35.1253 -3.39292 1.12319 0
M  V30 365 C 34.7913 -3.68885 2.59297 0
M  V30 366 C 33.4533 -3.76671 2.99453 0
M  V30 367 C 35.8053 -3.82178 3.54386 0
M  V30 368 C 33.1333 -3.9522 4.33611 0
M  V30 369 C 35.4853 -4.0224 4.88248 0
M  V30 370 C 34.1493 -4.08259 5.28092 0
M  V30 371 H 33.4193 -0.691739 0.265665 0
M  V30 372 H 36.0663 -1.41328 1.29223 0
M  V30 373 H 34.3713 -3.88903 0.475584 0
M  V30 374 H 36.0683 -3.91536 0.866037 0
M  V30 375 H 32.6583 -3.63433 2.27189 0
M  V30 376 H 36.8423 -3.75505 3.24514 0
M  V30 377 H 32.0983 -3.98119 4.64016 0
M  V30 378 H 36.2723 -4.11468 5.61843 0
M  V30 379 H 33.8993 -4.22384 6.32057 0
M  V30 380 N 35.4744 -0.807222 -1.35358 0
M  V30 381 C 36.3844 -0.219594 -2.3357 0
M  V30 382 C 37.4004 0.637734 -1.61892 0
M  V30 383 O 38.5764 0.549336 -1.93763 0
M  V30 384 C 35.6414 0.62158 -3.41083 0
M  V30 385 C 34.7024 -0.256315 -4.28534 0
M  V30 386 C 33.9354 0.544807 -5.30912 0
M  V30 387 O 34.1584 1.77944 -5.41934 0
M  V30 388 O 33.0924 -0.0646478 -6.01865 0
M  V30 389 H 36.9184 -1.03208 -2.85625 0
M  V30 390 H 34.5034 -0.569025 -1.38139 0
M  V30 391 H 36.3854 1.10067 -4.06772 0
M  V30 392 H 35.0604 1.41165 -2.91297 0
M  V30 393 H 33.9674 -0.782559 -3.65823 0
M  V30 394 H 35.3004 -1.01034 -4.81719 0
M  V30 395 N 36.9525 1.47285 -0.560781 0
M  V30 396 C 38.1985 2.02764 -0.0381184 0
M  V30 397 C 38.5315 1.43384 1.30976 0
M  V30 398 O 37.8065 0.590733 1.85312 0
M  V30 399 C 38.0895 3.60064 0.0511427 0
M  V30 400 C 37.9425 4.2987 -1.32408 0
M  V30 401 C 39.2615 4.33439 0.762795 0
M  V30 402 H 36.3805 0.736841 -0.0153264 0
M  V30 403 H 39.0225 1.75675 -0.723759 0
M  V30 404 H 37.1725 3.83274 0.635065 0
M  V30 405 H 38.8445 4.17989 -1.95148 0
M  V30 406 H 37.0875 3.90085 -1.8978 0
M  V30 407 H 37.7585 5.38478 -1.21431 0
M  V30 408 H 40.2345 4.15243 0.266965 0
M  V30 409 H 39.1105 5.43124 0.794221 0
M  V30 410 H 39.3715 4.02915 1.81966 0
M  V30 411 N 38.4306 0.297415 1.54768 0
M  V30 412 C 39.8416 -0.195947 1.85669 0
M  V30 413 C 40.1926 -1.53707 1.21937 0
M  V30 414 O 39.3176 -2.10164 0.515754 0
M  V30 415 C 39.9126 -0.362318 3.36857 0
M  V30 416 C 38.4716 -0.799901 3.67802 0
M  V30 417 C 37.6186 0.0938578 2.77141 0
M  V30 418 H 40.5696 0.518538 1.4999 0
M  V30 419 H 40.5906 -1.19745 3.61167 0
M  V30 420 H 40.1026 0.613921 3.83214 0
M  V30 421 H 38.2036 -1.78682 3.26961 0
M  V30 422 H 38.3166 -0.621773 4.75048 0
M  V30 423 H 36.6806 -0.426254 2.51108 0
M  V30 424 H 37.4636 1.06639 3.26318 0
M  V30 425 N 39.9087 -1.5758 0.0250728 0
M  V30 426 C 40.8187 -2.1343 -0.973905 0
M  V30 427 C 41.8347 -1.08556 -1.35984 0
M  V30 428 O 43.0107 -1.40592 -1.44207 0
M  V30 429 C 40.0757 -2.64703 -2.23904 0
M  V30 430 C 39.1367 -3.84276 -1.91391 0
M  V30 431 C 38.3697 -4.33095 -3.11873 0
M  V30 432 O 38.5927 -3.81107 -4.24398 0
M  V30 433 O 37.5267 -5.24984 -2.94406 0
M  V30 434 H 41.3527 -2.99057 -0.529036 0
M  V30 435 H 38.9377 -1.48118 -0.195288 0
M  V30 436 H 40.8197 -2.97769 -2.98181 0
M  V30 437 H 39.4947 -1.82161 -2.6758 0
M  V30 438 H 38.4017 -3.56143 -1.14511 0
M  V30 439 H 39.7347 -4.67968 -1.52534 0
M  V30 440 N 41.3868 0.248026 -1.55636 0
M  V30 441 C 42.6338 0.976224 -1.77415 0
M  V30 442 C 42.9618 1.85361 -0.589193 0
M  V30 443 O 42.2168 1.90973 0.427529 0
M  V30 444 C 42.5158 1.86819 -3.04686 0
M  V30 445 C 42.1818 1.14625 -4.36087 0
M  V30 446 C 40.8438 0.946723 -4.71795 0
M  V30 447 C 43.1958 0.634463 -5.17324 0
M  V30 448 C 40.5238 0.223091 -5.86276 0
M  V30 449 C 42.8758 -0.0756959 -6.32555 0
M  V30 450 C 41.5398 -0.286711 -6.66884 0
M  V30 451 H 40.8098 0.357226 -0.649208 0
M  V30 452 H 43.4568 0.246415 -1.89908 0
M  V30 453 H 41.7618 2.66502 -2.872 0
M  V30 454 H 43.4588 2.43329 -3.18735 0
M  V30 455 H 40.0488 1.3117 -4.08035 0
M  V30 456 H 44.2328 0.77616 -4.90193 0
M  V30 457 H 39.4888 0.0491185 -6.1138 0
M  V30 458 H 43.6628 -0.479899 -6.94745 0
M  V30 459 H 41.2898 -0.849389 -7.5544 0
M  V30 460 N 42.8649 1.48995 0.513639 0
M  V30 461 C 44.2809 1.35478 0.843682 0
M  V30 462 C 44.4809 0.378213 1.97919 0
M  V30 463 O 43.5369 -0.194689 2.51748 0
M  V30 464 C 44.8499 2.75901 1.1958 0
M  V30 465 C 46.3979 2.84509 1.30474 0
M  V30 466 C 46.8729 4.25671 1.69021 0
M  V30 467 N 48.3639 4.28422 1.76094 0
M  V30 468 C 49.0989 5.34601 2.07338 0
M  V30 469 N 48.5949 6.5104 2.36894 0
M  V30 470 N 50.3879 5.22007 2.08483 0
M  V30 471 H 42.5389 2.11092 -0.235328 0
M  V30 472 H 44.8019 0.947039 -0.0426669 0
M  V30 473 H 44.5079 3.49001 0.434913 0
M  V30 474 H 44.3819 3.10467 2.1422 0
M  V30 475 H 46.7689 2.11655 2.05637 0
M  V30 476 H 46.8499 2.53542 0.339155 0
M  V30 477 H 46.4939 4.99048 0.944135 0
M  V30 478 H 46.4239 4.54094 2.66658 0
M  V30 479 H 48.9149 3.44441 1.55464 0
M  V30 480 H 49.2279 7.2779 2.59887 0
M  V30 481 H 47.5729 6.54287 2.34378 0
M  V30 482 H 50.7639 4.30051 1.84861 0
M  V30 483 H 50.9369 6.04854 2.325 0
M  V30 484 N 44.343 -0.763751 1.37857 0
M  V30 485 C 45.253 -1.90817 1.36478 0
M  V30 486 C 46.269 -1.71997 0.263248 0
M  V30 487 O 47.445 -1.95095 0.499979 0
M  V30 488 C 44.51 -3.2605 1.17864 0
M  V30 489 C 43.571 -3.57467 2.3773 0
M  V30 490 C 42.804 -4.86249 2.19995 0
M  V30 491 O 43.027 -5.57884 1.18836 0
M  V30 492 O 41.961 -5.16911 3.08361 0
M  V30 493 H 45.787 -1.94933 2.32884 0
M  V30 494 H 43.372 -0.907619 1.1867 0
M  V30 495 H 45.254 -4.06924 1.09504 0
M  V30 496 H 43.929 -3.22769 0.245372 0
M  V30 497 H 42.836 -2.76796 2.51664 0
M  V30 498 H 44.169 -3.655 3.29652 0
M  V30 499 N 45.8211 -1.22559 -0.990812 0
M  V30 500 C 47.0701 -1.04553 -1.72486 0
M  V30 501 C 47.3831 0.419349 -1.91052 0
M  V30 502 O 48.5891 0.719121 -2.61803 0
M  V30 503 C 47.0451 -1.82231 -3.10355 0
M  V30 504 C 46.6531 -3.32981 -2.99713 0
M  V30 505 C 48.3971 -1.7268 -3.87791 0
M  V30 506 C 46.3041 -4.03091 -4.32748 0
M  V30 507 H 45.2341 -0.387614 -0.646739 0
M  V30 508 H 47.8851 -1.46429 -1.10593 0
M  V30 509 H 46.2671 -1.33155 -3.72942 0
M  V30 510 H 47.4411 -3.89466 -2.46278 0
M  V30 511 H 45.7561 -3.43231 -2.35758 0
M  V30 512 H 48.3531 -2.22381 -4.86262 0
M  V30 513 H 48.6961 -0.687607 -4.10582 0
M  V30 514 H 49.2291 -2.1931 -3.31885 0
M  V30 515 H 45.9681 -5.07273 -4.15156 0
M  V30 516 H 45.4881 -3.51394 -4.86089 0
M  V30 517 H 47.1671 -4.08804 -5.01486 0
M  V30 518 N 47.2992 1.18797 -1.03562 0
M  V30 519 C 48.2622 2.20464 -0.626769 0
M  V30 520 C 49.2622 1.57721 0.313173 0
M  V30 521 O 50.4522 1.73917 0.0992615 0
M  V30 522 C 47.5842 3.40802 0.0818498 0
M  V30 523 H 48.7772 2.58149 -1.5264 0
M  V30 524 H 46.3302 1.32593 -0.827578 0
M  V30 525 H 47.0652 3.08642 0.995518 0
M  V30 526 H 46.8502 3.8758 -0.593652 0
M  V30 527 H 48.3402 4.16092 0.354584 0
M  V30 528 N 48.7773 0.814389 1.34928 0
M  V30 529 C 50.0243 0.398423 1.98542 0
M  V30 530 C 50.3523 -1.03638 1.64589 0
M  V30 531 O 49.6073 -1.73509 0.90516 0
M  V30 532 C 49.9063 0.537781 3.53331 0
M  V30 533 C 49.5723 1.93704 4.07172 0
M  V30 534 C 48.2343 2.31984 4.21589 0
M  V30 535 C 50.5863 2.85213 4.36237 0
M  V30 536 C 47.9143 3.61125 4.62391 0
M  V30 537 C 50.2663 4.13809 4.78482 0
M  V30 538 C 48.9303 4.52077 4.91104 0
M  V30 539 H 48.2003 0.145793 0.726516 0
M  V30 540 H 50.8473 1.03669 1.61012 0
M  V30 541 H 49.1523 -0.183906 3.91368 0
M  V30 542 H 50.8493 0.196588 4.00518 0
M  V30 543 H 47.4393 1.62966 3.96409 0
M  V30 544 H 51.6233 2.56885 4.24645 0
M  V30 545 H 46.8793 3.90612 4.70353 0
M  V30 546 H 51.0533 4.84811 4.99932 0
M  V30 547 H 48.6803 5.52196 5.22478 0
M  V30 548 N 50.2554 -1.46986 0.568584 0
M  V30 549 C 51.1654 -2.33942 -0.17555 0
M  V30 550 C 52.1814 -1.48891 -0.90041 0
M  V30 551 O 53.3574 -1.81794 -0.86676 0
M  V30 552 C 50.4224 -3.25811 -1.18524 0
M  V30 553 C 49.4834 -4.26757 -0.466582 0
M  V30 554 C 48.7164 -5.14236 -1.42817 0
M  V30 555 O 48.9394 -5.04379 -2.66379 0
M  V30 556 O 47.8734 -5.94412 -0.946453 0
M  V30 557 H 51.6994 -2.98896 0.538036 0
M  V30 558 H 49.2844 -1.4573 0.329097 0
M  V30 559 H 51.1664 -3.82527 -1.76779 0
M  V30 560 H 49.8414 -2.63471 -1.88055 0
M  V30 561 H 48.7484 -3.73769 0.157451 0
M  V30 562 H 50.0814 -4.91843 0.187485 0
M  V30 563 N 51.7335 -0.305618 -1.54608 0
M  V30 564 C 52.9795 0.302746 -2.00528 0
M  V30 565 C 53.3125 1.53184 -1.19367 0
M  V30 566 O 52.5875 1.92598 -0.271321 0
M  V30 567 C 52.8705 0.654756 -3.54097 0
M  V30 568 C 52.7235 -0.583793 -4.45995 0
M  V30 569 C 54.0425 1.47947 -4.14487 0
M  V30 570 H 51.1615 0.108564 -0.72896 0
M  V30 571 H 53.8035 -0.418634 -1.85331 0
M  V30 572 H 51.9535 1.26935 -3.67178 0
M  V30 573 H 53.6255 -1.22224 -4.44814 0
M  V30 574 H 51.8685 -1.21615 -4.16404 0
M  V30 575 H 52.5395 -0.293287 -5.5122 0
M  V30 576 H 55.0155 0.96013 -4.04871 0
M  V30 577 H 53.8915 1.69454 -5.22088 0
M  V30 578 H 54.1525 2.47011 -3.66658 0
M  V30 579 N 53.2116 1.57565 -0.0334293 0
M  V30 580 C 54.1586 2.10478 0.946981 0
M  V30 581 C 55.1286 1.00787 1.32027 0
M  V30 582 O 56.3136 1.28232 1.41284 0
M  V30 583 C 53.4536 2.63994 2.22263 0
M  V30 584 C 52.5666 3.87709 1.90541 0
M  V30 585 C 51.7016 4.29604 3.12433 0
M  V30 586 C 50.7406 5.46065 2.76549 0
M  V30 587 N 49.8776 5.83096 3.9108 0
M  V30 588 H 54.7176 2.93963 0.488846 0
M  V30 589 H 52.2546 1.45296 0.22969 0
M  V30 590 H 54.2126 2.93114 2.96884 0
M  V30 591 H 52.8426 1.83333 2.65685 0
M  V30 592 H 51.8946 3.65291 1.06144 0
M  V30 593 H 53.2066 4.72403 1.60116 0
M  V30 594 H 52.3606 4.60182 3.9537 0
M  V30 595 H 51.0996 3.43685 3.46023 0
M  V30 596 H 50.1046 5.15176 1.92026 0
M  V30 597 H 51.3296 6.33685 2.44171 0
M  V30 598 H 49.2756 5.00132 4.24504 0
M  V30 599 H 49.1926 6.6244 3.64293 0
M  V30 600 H 50.4606 6.18282 4.74708 0
M  V30 601 N 54.6897 -0.239769 1.55765 0
M  V30 602 C 55.9147 -0.988373 1.82335 0
M  V30 603 C 56.3397 -1.77886 0.611421 0
M  V30 604 O 55.6977 -1.75889 -0.439639 0
M  V30 605 C 55.7457 -1.89627 3.06715 0
M  V30 606 O 54.8497 -2.98904 2.84131 0
M  V30 607 H 54.1907 -0.280858 0.601677 0
M  V30 608 H 56.7207 -0.258597 2.02959 0
M  V30 609 H 56.7307 -2.30957 3.36338 0
M  V30 610 H 55.4057 -1.31511 3.9456 0
M  V30 611 H 53.9827 -2.61651 2.65694 0
M  V30 612 N 56.1678 -1.49265 -0.50573 0
M  V30 613 C 57.1158 -1.66065 -1.62866 0
M  V30 614 C 58.1098 -0.526636 -1.61006 0
M  V30 615 O 59.3158 -0.706126 -1.65571 0
M  V30 616 H 55.6908 -0.52356 -0.539805 0
M  V30 617 H 57.6618 -2.60329 -1.45848 0
M  V30 618 C 56.4108 -1.74008 -3.01026 0
M  V30 619 H 55.7338 -2.6064 -3.03161 0
M  V30 620 H 57.1738 -1.89798 -3.79147 0
M  V30 621 C 55.6328 -0.483868 -3.33407 0
M  V30 622 O 56.1628 0.392548 -3.99777 0
M  V30 623 N 54.3688 -0.348236 -2.88506 0
M  V30 624 H 53.9158 -1.06242 -2.34671 0
M  V30 625 H 53.8738 0.491204 -3.10539 0
M  V30 626 N 57.6459 0.756429 -1.3826 0
M  V30 627 C 58.5929 1.87011 -1.35261 0
M  V30 628 C 59.5629 1.64695 -0.215616 0
M  V30 629 O 60.7479 1.864 -0.407399 0
M  V30 630 C 57.8879 3.24275 -1.18068 0
M  V30 631 C 57.0009 3.58442 -2.41129 0
M  V30 632 C 56.1359 4.84994 -2.16689 0
M  V30 633 C 55.1749 5.11939 -3.35537 0
M  V30 634 N 54.3119 6.29685 -3.10549 0
M  V30 635 H 59.1519 1.8891 -2.30472 0
M  V30 636 H 56.6889 0.923373 -1.14509 0
M  V30 637 H 58.6469 4.03479 -1.06116 0
M  V30 638 H 57.2769 3.21711 -0.264973 0
M  V30 639 H 56.3289 2.74103 -2.63764 0
M  V30 640 H 57.6409 3.74283 -3.29717 0
M  V30 641 H 56.7949 5.72135 -2.01857 0
M  V30 642 H 55.5339 4.71286 -1.25462 0
M  V30 643 H 54.5389 4.23268 -3.50891 0
M  V30 644 H 55.7639 5.27546 -4.27635 0
M  V30 645 H 53.7099 6.17306 -2.21967 0
M  V30 646 H 53.6269 6.46014 -3.92686 0
M  V30 647 H 54.8949 7.19722 -2.99367 0
M  V30 648 N 59.124 1.23083 0.984299 0
M  V30 649 C 60.54 0.992637 1.24975 0
M  V30 650 C 60.74 -0.308618 1.99123 0
M  V30 651 O 59.796 -1.02905 2.30579 0
M  V30 652 C 61.109 2.19698 2.05312 0
M  V30 653 C 62.657 2.24147 2.18465 0
M  V30 654 C 63.132 3.44157 3.02192 0
M  V30 655 N 64.623 3.44372 3.09777 0
M  V30 656 C 65.358 4.33886 3.74874 0
M  V30 657 N 64.854 5.3363 4.41827 0
M  V30 658 N 66.647 4.21639 3.71721 0
M  V30 659 H 58.798 2.06731 0.487453 0
M  V30 660 H 61.061 0.906339 0.277944 0
M  V30 661 H 60.767 3.1411 1.58201 0
M  V30 662 H 60.641 2.20465 3.06064 0
M  V30 663 H 63.028 1.30277 2.64786 0
M  V30 664 H 63.109 2.27415 1.17115 0
M  V30 665 H 62.753 4.38332 2.56568 0
M  V30 666 H 62.683 3.3813 4.03702 0
M  V30 667 H 65.174 2.72201 2.62135 0
M  V30 668 H 65.487 5.98196 4.89266 0
M  V30 669 H 63.832 5.37534 4.40548 0
M  V30 670 H 67.023 3.42962 3.18582 0
M  V30 671 H 67.196 4.91604 4.22173 0
M  V30 672 N 60.6021 -1.18246 1.0419 0
M  V30 673 C 61.8511 -1.87588 0.741194 0
M  V30 674 C 62.1641 -1.81303 -0.734066 0
M  V30 675 O 63.3701 -2.46019 -1.14834 0
M  V30 676 C 61.8261 -3.36538 1.27555 0
M  V30 677 C 61.4341 -3.51349 2.77953 0
M  V30 678 C 63.1781 -4.11273 1.05143 0
M  V30 679 C 61.0851 -4.94265 3.2474 0
M  V30 680 H 60.0151 -0.702622 0.273565 0
M  V30 681 H 62.6661 -1.33601 1.25789 0
M  V30 682 H 61.0481 -3.9 0.686703 0
M  V30 683 H 62.2221 -3.08153 3.42605 0
M  V30 684 H 60.5371 -2.90022 2.98791 0
M  V30 685 H 63.1341 -5.16689 1.37611 0
M  V30 686 H 63.4771 -4.16298 -0.0112774 0
M  V30 687 H 64.0101 -3.63987 1.60495 0
M  V30 688 H 60.7491 -4.94408 4.30396 0
M  V30 689 H 60.2691 -5.38172 2.64823 0
M  V30 690 H 61.9481 -5.62987 3.18834 0
M  V30 691 N 62.0802 -0.821533 -1.34494 0
M  V30 692 C 63.0272 -0.240397 -2.29545 0
M  V30 693 C 63.9972 0.634031 -1.53523 0
M  V30 694 O 65.1822 0.575966 -1.81899 0
M  V30 695 C 62.3222 0.592869 -3.39969 0
M  V30 696 C 61.4352 -0.30365 -4.30932 0
M  V30 697 C 60.5702 0.539049 -5.28458 0
M  V30 698 C 59.6092 -0.356942 -6.11058 0
M  V30 699 N 58.7462 0.446603 -7.00678 0
M  V30 700 H 63.5862 -1.05632 -2.7865 0
M  V30 701 H 61.1232 -0.532413 -1.37127 0
M  V30 702 H 63.0812 1.09129 -4.02675 0
M  V30 703 H 61.7112 1.37392 -2.92102 0
M  V30 704 H 60.7632 -0.920276 -3.691 0
M  V30 705 H 62.0752 -0.992661 -4.88823 0
M  V30 706 H 61.2292 1.102 -5.96608 0
M  V30 707 H 59.9682 1.26157 -4.71101 0
M  V30 708 H 58.9732 -0.932047 -5.41842 0
M  V30 709 H 60.1982 -1.07755 -6.70497 0
M  V30 710 H 58.1442 1.15282 -6.45791 0
M  V30 711 H 58.0612 -0.184048 -7.55776 0
M  V30 712 H 59.3292 0.992352 -7.73158 0
M  V30 713 N 63.5583 1.46682 -0.576371 0
M  V30 714 C 64.8063 2.02013 -0.0594163 0
M  V30 715 C 65.1273 1.45101 1.30271 0
M  V30 716 O 64.3973 0.633317 1.8538 0
M  V30 717 H 62.9773 0.746759 -0.0189745 0
M  V30 718 H 65.6393 1.79862 -0.750717 0
M  V30 719 H 64.7353 3.12097 0.014345 0
M  V30 720 N 65.0364 0.313813 1.54444 0
M  V30 721 C 65.9844 -0.572171 2.25453 0
M  V30 722 C 66.9784 -1.12657 1.2651 0
M  V30 723 O 68.1844 -1.07573 1.44319 0
M  V30 724 H 64.5594 -0.203146 0.724041 0
M  V30 725 H 66.5304 0.0491145 2.9836 0
M  V30 726 C 65.2794 -1.72626 3.0182 0
M  V30 727 H 64.6024 -1.30891 3.77767 0
M  V30 728 H 66.0424 -2.32199 3.54767 0
M  V30 729 C 64.5014 -2.63806 2.09542 0
M  V30 730 O 65.0314 -3.65256 1.67185 0
M  V30 731 N 63.2374 -2.31824 1.75232 0
M  V30 732 H 62.7844 -1.49368 2.09873 0
M  V30 733 H 62.7424 -2.93095 1.13767 0
M  V30 734 N 66.5145 -1.57545 0.0417849 0
M  V30 735 C 67.4245 -2.14451 -0.951213 0
M  V30 736 C 68.4405 -1.09992 -1.34825 0
M  V30 737 O 69.6165 -1.42114 -1.42708 0
M  V30 738 C 66.6815 -2.67063 -2.21084 0
M  V30 739 C 65.7425 -3.86284 -1.87304 0
M  V30 740 C 64.9755 -4.36378 -3.07261 0
M  V30 741 O 65.1985 -3.85587 -4.20332 0
M  V30 742 O 64.1325 -5.28077 -2.88822 0
M  V30 743 H 67.9585 -2.99601 -0.497287 0
M  V30 744 H 65.5435 -1.48317 -0.179567 0
M  V30 745 H 67.4255 -3.00914 -2.95006 0
M  V30 746 H 66.1005 -1.84989 -2.65633 0
M  V30 747 H 65.0075 -3.57338 -1.10727 0
M  V30 748 H 66.3405 -4.6956 -1.47562 0
M  V30 749 N 67.9926 0.231505 -1.5589 0
M  V30 750 C 69.2696 0.981096 -1.69215 0
M  V30 751 C 69.6496 2.02799 -0.586164 0
M  V30 752 O 68.9976 2.24823 0.408253 0
M  V30 753 C 69.2076 1.60054 -3.10135 0
M  V30 754 C 70.5556 2.09658 -3.69227 0
M  V30 755 O 71.5796 1.69967 -3.13033 0
M  V30 756 O 70.4386 2.8258 -4.67772 0
M  V30 757 H 67.5326 0.457653 -0.688827 0
M  V30 758 H 70.0786 0.224073 -1.68214 0
M  V30 759 H 68.8506 0.844105 -3.82087 0
M  V30 760 H 68.4736 2.42336 -3.15212 0
M  V30 761 N 69.4707 1.49531 0.497807 0
M  V30 762 C 70.7007 1.62657 1.27382 0
M  V30 763 C 71.1087 0.298488 1.86831 0
M  V30 764 O 70.4517 -0.72647 1.68725 0
M  V30 765 C 70.5137 2.6393 2.44093 0
M  V30 766 C 70.1777 4.08195 2.05489 0
M  V30 767 C 71.1747 4.949 1.59279 0
M  V30 768 C 68.8597 4.53948 2.15026 0
M  V30 769 C 70.8537 6.25397 1.23113 0
M  V30 770 C 68.5407 5.84458 1.78473 0
M  V30 771 C 69.5387 6.70006 1.32591 0
M  V30 772 O 69.2267 7.98083 0.965327 0
M  V30 773 H 68.9587 0.550429 0.392434 0
M  V30 774 H 71.5127 1.96325 0.603801 0
M  V30 775 H 69.7427 2.25449 3.14181 0
M  V30 776 H 71.4317 2.66552 3.06113 0
M  V30 777 H 72.1977 4.60779 1.51354 0
M  V30 778 H 68.0767 3.87525 2.4969 0
M  V30 779 H 71.6207 6.92125 0.872299 0
M  V30 780 H 67.5177 6.18107 1.86048 0
M  V30 781 H 68.2857 8.11122 1.09652 0
M  V30 782 N 70.9488 -0.749086 1.3866 0
M  V30 783 C 72.1968 -1.50535 1.34847 0
M  V30 784 C 72.5178 -1.94909 -0.0595016 0
M  V30 785 O 71.7878 -1.67973 -1.00806 0
M  V30 786 H 70.3678 -0.558395 0.49619 0
M  V30 787 H 73.0298 -0.890165 1.73384 0
M  V30 788 H 72.1258 -2.39413 2.00219 0
M  V30 789 N 72.4269 -1.23603 -0.977757 0
M  V30 790 C 73.6759 -1.06377 -1.71368 0
M  V30 791 C 73.9889 0.399062 -1.91486 0
M  V30 792 O 75.1949 0.691312 -2.62551 0
M  V30 793 C 73.6509 -1.85512 -3.08404 0
M  V30 794 C 73.2589 -3.36141 -2.96164 0
M  V30 795 C 75.0029 -1.76783 -3.85938 0
M  V30 796 C 72.9099 -4.07659 -4.28449 0
M  V30 797 H 71.8399 -0.394452 -0.642591 0
M  V30 798 H 74.4909 -1.47594 -1.09034 0
M  V30 799 H 72.8729 -1.37103 -3.71509 0
M  V30 800 H 74.0469 -3.92056 -2.42133 0
M  V30 801 H 72.3619 -3.45712 -2.32104 0
M  V30 802 H 74.9589 -2.27526 -4.83876 0
M  V30 803 H 75.3019 -0.731116 -4.0983 0
M  V30 804 H 75.8349 -2.22818 -3.2954 0
M  V30 805 H 72.5739 -5.11648 -4.09752 0
M  V30 806 H 72.0939 -3.5653 -4.82334 0
M  V30 807 H 73.7729 -4.141 -4.97122 0
M  V30 808 N 73.905 1.17692 -1.04816 0
M  V30 809 C 74.868 2.19787 -0.650117 0
M  V30 810 C 75.868 1.58044 0.296427 0
M  V30 811 O 77.058 1.74012 0.0808097 0
M  V30 812 C 74.19 3.40869 0.0456987 0
M  V30 813 H 75.383 2.56516 -1.5537 0
M  V30 814 H 72.936 1.31708 -0.841594 0
M  V30 815 H 73.671 3.09681 0.962726 0
M  V30 816 H 73.456 3.86928 -0.634727 0
M  V30 817 H 74.946 4.16445 0.310432 0
M  V30 818 N 75.3831 0.828654 1.34056 0
M  V30 819 C 76.6601 0.341809 1.9259 0
M  V30 820 C 77.0401 -1.17158 1.75605 0
M  V30 821 O 76.3881 -1.98132 1.13824 0
M  V30 822 C 76.5981 0.777453 3.4023 0
M  V30 823 C 77.9461 0.779579 4.17382 0
M  V30 824 O 78.9701 0.7204 3.48839 0
M  V30 825 O 77.8291 0.857996 5.39723 0
M  V30 826 H 74.9231 0.0946085 0.821571 0
M  V30 827 H 77.4691 0.913827 1.42994 0
M  V30 828 H 76.2411 1.8196 3.46419 0
M  V30 829 H 75.8641 0.181444 3.97186 0
M  V30 830 N 76.8612 -1.46375 0.584142 0
M  V30 831 C 77.8092 -2.32042 -0.161047 0
M  V30 832 C 78.8032 -1.44569 -0.882966 0
M  V30 833 O 80.0092 -1.61186 -0.801191 0
M  V30 834 H 76.3842 -0.748659 -0.0708033 0
M  V30 835 H 78.3552 -2.92704 0.580269 0
M  V30 836 C 77.1042 -3.27762 -1.1605 0
M  V30 837 H 76.4272 -3.95051 -0.614419 0
M  V30 838 H 77.8672 -3.90481 -1.65228 0
M  V30 839 C 76.3262 -2.53218 -2.22221 0
M  V30 840 O 76.8562 -2.29628 -3.29597 0
M  V30 841 N 75.0622 -2.13756 -1.96868 0
M  V30 842 H 74.6092 -2.33142 -1.09557 0
M  V30 843 H 74.5672 -1.642 -2.68115 0
M  V30 844 N 78.3393 -0.321999 -1.54275 0
M  V30 845 C 79.5643 0.285791 -2.05422 0
M  V30 846 C 79.9893 1.45124 -1.19669 0
M  V30 847 O 79.3473 1.80132 -0.205441 0
M  V30 848 C 79.3953 0.69956 -3.53749 0
M  V30 849 O 78.4993 1.8021 -3.70942 0
M  V30 850 H 77.8403 0.0518962 -0.661969 0
M  V30 851 H 80.3703 -0.469954 -1.9913 0
M  V30 852 H 80.3803 0.982649 -3.9599 0
M  V30 853 H 79.0553 -0.152864 -4.15619 0
M  V30 854 H 77.6323 1.51794 -3.40607 0
M  V30 855 N 79.8174 1.5752 -0.0501392 0
M  V30 856 C 80.7274 2.14952 0.939827 0
M  V30 857 C 81.7434 1.10706 1.34239 0
M  V30 858 O 82.9194 1.42869 1.41952 0
M  V30 859 C 79.9844 2.68232 2.19665 0
M  V30 860 C 79.0454 3.87272 1.85253 0
M  V30 861 C 78.2784 4.38002 3.04943 0
M  V30 862 O 78.5014 3.87811 4.18281 0
M  V30 863 O 77.4354 5.29602 2.86017 0
M  V30 864 H 81.2614 2.9986 0.481392 0
M  V30 865 H 78.8464 1.4841 0.171699 0
M  V30 866 H 80.7284 3.02475 2.93406 0
M  V30 867 H 79.4034 1.86395 2.64648 0
M  V30 868 H 78.3104 3.5792 1.0883 0
M  V30 869 H 79.6434 4.70336 1.4507 0
M  V30 870 N 81.2955 -0.223234 1.56011 0
M  V30 871 C 82.5725 -0.972108 1.69733 0
M  V30 872 C 82.9525 -2.02485 0.59691 0
M  V30 873 O 82.3005 -2.25037 -0.396324 0
M  V30 874 C 82.5105 -1.58407 3.10979 0
M  V30 875 C 83.8585 -2.07696 3.70334 0
M  V30 876 O 84.8825 -1.68304 3.1393 0
M  V30 877 O 83.7415 -2.80096 4.69264 0
M  V30 878 H 80.8355 -0.453993 0.691245 0
M  V30 879 H 83.3815 -0.215149 1.68331 0
M  V30 880 H 82.1535 -0.823831 3.82529 0
M  V30 881 H 81.7765 -2.40661 3.16493 0
M  V30 882 N 82.7736 -1.49793 -0.48987 0
M  V30 883 C 83.7366 -1.66752 -1.57246 0
M  V30 884 C 84.7366 -0.538867 -1.51502 0
M  V30 885 O 85.9266 -0.805545 -1.54456 0
M  V30 886 C 83.0586 -1.67528 -2.96896 0
M  V30 887 H 84.2516 -2.63321 -1.43534 0
M  V30 888 H 81.8046 -1.38992 -0.714914 0
M  V30 889 H 82.5396 -0.725837 -3.16073 0
M  V30 890 H 82.3246 -2.49504 -3.02473 0
M  V30 891 H 83.8146 -1.82667 -3.7553 0
M  V30 892 N 84.2517 0.741722 -1.39055 0
M  V30 893 C 85.4977 1.50336 -1.36113 0
M  V30 894 C 85.8307 1.94148 0.0450796 0
M  V30 895 O 85.1057 1.66301 1.00868 0
M  V30 896 C 85.3887 2.74773 -2.32749 0
M  V30 897 C 85.2417 2.37023 -3.82283 0
M  V30 898 C 86.5607 3.76846 -2.27322 0
M  V30 899 H 83.6797 0.545351 -0.495743 0
M  V30 900 H 86.3217 0.848624 -1.69995 0
M  V30 901 H 84.4717 3.30639 -2.03986 0
M  V30 902 H 86.1437 1.8684 -4.21768 0
M  V30 903 H 84.3867 1.69334 -3.99385 0
M  V30 904 H 85.0577 3.26104 -4.45376 0
M  V30 905 H 87.5337 3.30548 -2.5274 0
M  V30 906 H 86.4097 4.6159 -2.97028 0
M  V30 907 H 86.6707 4.23286 -1.27599 0
M  V30 908 N 85.7298 1.2412 0.971189 0
M  V30 909 C 86.6398 1.04747 2.09917 0
M  V30 910 C 87.6558 -0.0107162 1.73997 0
M  V30 911 O 88.8318 0.186714 2.00533 0
M  V30 912 C 85.8968 0.650828 3.40537 0
M  V30 913 C 84.9578 1.7851 3.90426 0
M  V30 914 C 84.1908 1.40729 5.14812 0
M  V30 915 O 84.4138 0.29557 5.69634 0
M  V30 916 O 83.3478 2.23168 5.58999 0
M  V30 917 H 87.1738 1.99304 2.29154 0
M  V30 918 H 84.7588 1.02908 1.08307 0
M  V30 919 H 86.6408 0.440992 4.19086 0
M  V30 920 H 85.3158 -0.265649 3.22608 0
M  V30 921 H 84.2228 2.04966 3.12953 0
M  V30 922 H 85.5558 2.68023 4.12825 0
M  V30 923 N 87.2079 -1.17134 1.05439 0
M  V30 924 C 88.4559 -1.87085 0.764429 0
M  V30 925 C 88.7769 -1.81584 -0.710787 0
M  V30 926 O 88.0469 -1.24349 -1.51374 0
M  V30 927 H 86.6269 -0.692627 0.279779 0
M  V30 928 H 89.2889 -1.42087 1.33406 0
M  V30 929 H 88.3849 -2.92759 1.0816 0
M  V30 930 N 88.686 -0.835752 -1.33615 0
M  V30 931 C 89.619 -0.211815 -2.27215 0
M  V30 932 C 90.597 0.639249 -1.49507 0
M  V30 933 O 91.781 0.600193 -1.78689 0
M  V30 934 C 88.908 0.702893 -3.31326 0
M  V30 935 C 87.954 -0.0723049 -4.26439 0
M  V30 936 S 88.787 -1.42811 -5.16106 0
M  V30 937 C 89.943 -0.518613 -6.23748 0
M  V30 938 H 90.176 -1.00533 -2.79786 0
M  V30 939 H 87.709 -0.632336 -1.40858 0
M  V30 940 H 89.667 1.22505 -3.91794 0
M  V30 941 H 88.328 1.47004 -2.77576 0
M  V30 942 H 87.521 0.62359 -5.00127 0
M  V30 943 H 87.123 -0.525424 -3.70291 0
M  V30 944 H 89.415 0.284778 -6.76901 0
M  V30 945 H 90.358 -1.22556 -6.97413 0
M  V30 946 H 90.766 -0.101344 -5.64409 0
M  V30 947 N 90.1641 1.46063 -0.591896 0
M  V30 948 C 91.4121 2.01938 -0.0808391 0
M  V30 949 C 91.7331 1.46475 1.28725 0
M  V30 950 O 91.0031 0.652944 1.84698 0
M  V30 951 H 89.5831 0.746516 -0.0268938 0
M  V30 952 H 92.2451 1.79055 -0.769752 0
M  V30 953 H 91.3411 3.12094 -0.0187578 0
M  V30 954 N 91.6422 0.330177 1.54103 0
M  V30 955 C 92.6052 -0.520144 2.2322 0
M  V30 956 C 93.6052 -1.03828 1.22786 0
M  V30 957 O 94.7952 -0.929652 1.4732 0
M  V30 958 C 91.9272 -1.72317 2.94142 0
M  V30 959 H 93.1202 0.0841605 2.99782 0
M  V30 960 H 90.6732 0.0813433 1.56088 0
M  V30 961 H 91.4082 -2.36653 2.21734 0
M  V30 962 H 91.1932 -1.35898 3.67796 0
M  V30 963 H 92.6832 -2.3266 3.46784 0
M  V30 964 N 93.1203 -1.57491 0.0584922 0
M  V30 965 C 94.3973 -1.84346 -0.653918 0
M  V30 966 C 94.7773 -0.948355 -1.88599 0
M  V30 967 O 94.1253 -0.0112403 -2.28497 0
M  V30 968 C 94.3353 -3.34239 -1.00425 0
M  V30 969 C 95.6833 -4.01431 -1.38342 0
M  V30 970 O 96.7073 -3.38907 -1.09637 0
M  V30 971 O 95.5663 -5.11683 -1.91943 0
M  V30 972 H 92.6603 -0.761112 -0.323478 0
M  V30 973 H 95.2063 -1.6947 0.0884125 0
M  V30 974 H 93.9783 -3.91089 -0.128625 0
M  V30 975 H 93.6013 -3.54329 -1.80378 0
M  V30 976 N 94.5984 0.214957 -1.56127 0
M  V30 977 C 95.8444 0.939762 -1.79712 0
M  V30 978 C 96.1774 1.83723 -0.629247 0
M  V30 979 O 95.4524 1.90925 0.371197 0
M  V30 980 C 95.7354 1.77306 -3.13424 0
M  V30 981 C 95.5884 0.90164 -4.40671 0
M  V30 982 C 96.9074 2.74956 -3.43638 0
M  V30 983 H 94.0264 0.340214 -0.653776 0
M  V30 984 H 96.6684 0.20824 -1.88855 0
M  V30 985 H 94.8184 2.39673 -3.0576 0
M  V30 986 H 96.4904 0.294206 -4.60361 0
M  V30 987 H 94.7334 0.207368 -4.33304 0
M  V30 988 H 95.4044 1.51923 -5.30682 0
M  V30 989 H 97.8804 2.22724 -3.51473 0
M  V30 990 H 96.7564 3.30358 -4.38355 0
M  V30 991 H 97.0174 3.53023 -2.66134 0
M  V30 992 N 96.0765 1.50051 0.48192 0
M  V30 993 C 96.9865 1.7089 1.60728 0
M  V30 994 C 98.0025 0.591788 1.63627 0
M  V30 995 O 99.1785 0.868817 1.81696 0
M  V30 996 C 96.2435 1.78855 2.97005 0
M  V30 997 C 95.3045 3.02537 3.04581 0
M  V30 998 C 94.5375 3.10112 4.34357 0
M  V30 999 O 94.7605 2.24765 5.24249 0
M  V30 1000 O 93.6945 4.02747 4.47301 0
M  V30 1001 H 97.5205 2.66264 1.46072 0
M  V30 1002 H 95.1055 1.34018 0.660264 0
M  V30 1003 H 96.9875 1.86336 3.77964 0
M  V30 1004 H 95.6625 0.866628 3.11883 0
M  V30 1005 H 94.5695 3.00563 2.22739 0
M  V30 1006 H 95.9025 3.94272 2.94636 0
M  V30 1007 N 97.5546 -0.734337 1.39446 0
M  V30 1008 C 98.5046 -1.83949 1.34709 0
M  V30 1009 C 99.4886 -1.59279 0.227851 0
M  V30 1010 O 100.681 -1.70771 0.465438 0
M  V30 1011 C 97.8096 -3.21884 1.19356 0
M  V30 1012 C 96.8956 -3.52381 2.35984 0
M  V30 1013 N 97.2866 -3.53811 3.61457 0
M  V30 1014 C 95.5846 -3.82747 2.28956 0
M  V30 1015 C 96.2856 -3.82122 4.38586 0
M  V30 1016 N 95.2616 -3.9993 3.68181 0
M  V30 1017 H 99.0636 -1.83361 2.29687 0
M  V30 1018 H 96.5776 -0.932609 1.32952 0
M  V30 1019 H 98.5746 -4.00998 1.14046 0
M  V30 1020 H 97.2346 -3.23711 0.253295 0
M  V30 1021 H 98.2456 -3.35107 3.94872 0
M  V30 1022 H 94.9226 -3.92175 1.43194 0
M  V30 1023 H 96.3126 -3.89691 5.47349 0
M  V30 1024 N 99.0327 -1.24633 -0.964593 0
M  V30 1025 C 100.279 -1.08949 -1.71049 0
M  V30 1026 C 100.612 0.370302 -1.90637 0
M  V30 1027 O 99.8867 1.27349 -1.47011 0
M  V30 1028 C 100.17 -1.83329 -3.0994 0
M  V30 1029 C 100.023 -3.37077 -2.97824 0
M  V30 1030 C 101.342 -1.60846 -4.09654 0
M  V30 1031 H 98.4607 -0.397178 -0.620821 0
M  V30 1032 H 101.103 -1.5334 -1.12191 0
M  V30 1033 H 99.2527 -1.45597 -3.60186 0
M  V30 1034 H 100.925 -3.84425 -2.5498 0
M  V30 1035 H 99.1677 -3.65298 -2.33965 0
M  V30 1036 H 99.8387 -3.84324 -3.96231 0
M  V30 1037 H 102.315 -1.93674 -3.68279 0
M  V30 1038 H 101.191 -2.1534 -5.04896 0
M  V30 1039 H 101.452 -0.547434 -4.38698 0
M  V30 1040 N 100.511 1.16574 -1.06058 0
M  V30 1041 C 101.76 1.86385 -0.770944 0
M  V30 1042 C 102.073 1.82448 0.705129 0
M  V30 1043 O 103.279 2.47815 1.10905 0
M  V30 1044 C 101.735 3.34466 -1.32893 0
M  V30 1045 C 101.343 3.46883 -2.83507 0
M  V30 1046 C 103.087 4.09548 -1.11672 0
M  V30 1047 C 100.994 4.89036 -3.32562 0
M  V30 1048 H 99.9238 0.698181 -0.284709 0
M  V30 1049 H 102.575 1.31583 -1.27899 0
M  V30 1050 H 100.957 3.88859 -0.748662 0
M  V30 1051 H 102.131 3.02663 -3.47465 0
M  V30 1052 H 100.446 2.85232 -3.03368 0
M  V30 1053 H 103.043 5.14434 -1.45814 0
M  V30 1054 H 103.386 4.16264 -0.0549535 0
M  V30 1055 H 103.919 3.61387 -1.66265 0
M  V30 1056 H 100.658 4.87499 -4.38207 0
M  V30 1057 H 100.178 5.3389 -2.73351 0
M  V30 1058 H 101.857 5.57843 -3.2775 0
M  V30 1059 N 101.989 0.842826 1.3317 0
M  V30 1060 C 103.266 0.362216 1.92217 0
M  V30 1061 C 103.646 -1.15289 1.76838 0
M  V30 1062 O 102.994 -1.96914 1.15919 0
M  V30 1063 C 103.204 0.813495 3.39387 0
M  V30 1064 C 104.552 0.823804 4.16532 0
M  V30 1065 O 105.576 0.757358 3.48055 0
M  V30 1066 O 104.435 0.915193 5.38782 0
M  V30 1067 H 101.529 0.103317 0.820521 0
M  V30 1068 H 104.075 0.928942 1.42017 0
M  V30 1069 H 102.847 1.85624 3.4447 0
M  V30 1070 H 102.47 0.223561 3.96971 0
M  V30 1071 N 103.467 -1.45747 0.599634 0
M  V30 1072 C 104.716 -2.01502 0.0893511 0
M  V30 1073 C 105.029 -1.4748 -1.28488 0
M  V30 1074 O 106.235 -1.95161 -1.88745 0
M  V30 1075 C 104.691 -3.59735 0.109082 0
M  V30 1076 C 104.299 -4.22754 1.48267 0
M  V30 1077 C 106.043 -4.23085 -0.346374 0
M  V30 1078 C 103.95 -5.73115 1.45921 0
M  V30 1079 H 102.88 -0.753417 0.0296347 0
M  V30 1080 H 105.531 -1.67303 0.753788 0
M  V30 1081 H 103.913 -3.91087 -0.621854 0
M  V30 1082 H 105.087 -4.02987 2.23468 0
M  V30 1083 H 103.402 -3.71567 1.87955 0
M  V30 1084 H 105.999 -5.33327 -0.38298 0
M  V30 1085 H 106.342 -3.93201 -1.36743 0
M  V30 1086 H 106.875 -3.9642 0.331038 0
M  V30 1087 H 103.614 -6.07685 2.45762 0
M  V30 1088 H 103.134 -5.95097 0.749665 0
M  V30 1089 H 104.813 -6.3616 1.17941 0
M  V30 1090 N 104.945 -0.338344 -1.53925 0
M  V30 1091 C 106.191 0.260143 -2.01125 0
M  V30 1092 C 106.524 1.50617 -1.22589 0
M  V30 1093 O 105.799 1.91979 -0.312113 0
M  V30 1094 C 106.082 0.579499 -3.55407 0
M  V30 1095 C 105.935 -0.678264 -4.44657 0
M  V30 1096 C 107.254 1.39122 -4.17532 0
M  V30 1097 H 104.373 0.0930772 -0.731099 0
M  V30 1098 H 107.015 -0.457852 -1.84401 0
M  V30 1099 H 105.165 1.19118 -3.69788 0
M  V30 1100 H 106.837 -1.31631 -4.42121 0
M  V30 1101 H 105.08 -1.3042 -4.13731 0
M  V30 1102 H 105.751 -0.410143 -5.50474 0
M  V30 1103 H 108.227 0.874035 -4.06817 0
M  V30 1104 H 107.103 1.58342 -5.25565 0
M  V30 1105 H 107.364 2.39178 -3.71815 0
M  V30 1106 N 106.423 1.57458 -0.0668435 0
M  V30 1107 C 107.7 1.8469 0.644132 0
M  V30 1108 C 108.08 0.958343 1.88093 0
M  V30 1109 O 107.428 0.0233579 2.28488 0
M  V30 1110 C 107.638 3.34767 0.986509 0
M  V30 1111 C 108.986 4.02159 1.36212 0
M  V30 1112 O 110.01 3.39484 1.07839 0
M  V30 1113 O 108.869 5.12694 1.89227 0
M  V30 1114 H 105.963 0.762816 0.319437 0
M  V30 1115 H 108.509 1.6942 -0.0973986 0
M  V30 1116 H 107.281 3.91151 0.107883 0
M  V30 1117 H 106.904 3.55281 1.78497 0
M  V30 1118 N 107.901 -0.206675 1.56239 0
M  V30 1119 C 109.126 -0.949474 1.8439 0
M  V30 1120 C 109.551 -1.76549 0.649016 0
M  V30 1121 O 108.909 -1.76782 -0.402231 0
M  V30 1122 C 108.957 -1.83078 3.10668 0
M  V30 1123 O 108.061 -2.9281 2.90407 0
M  V30 1124 H 107.402 -0.268033 0.607499 0
M  V30 1125 H 109.932 -0.215488 2.03462 0
M  V30 1126 H 109.942 -2.2377 3.41161 0
M  V30 1127 H 108.617 -1.23112 3.97261 0
M  V30 1128 H 107.194 -2.55956 2.71184 0
M  V30 1129 N 109.379 -1.50304 -0.473955 0
M  V30 1130 C 110.626 -1.6115 -1.22625 0
M  V30 1131 C 110.954 -0.310517 -1.92005 0
M  V30 1132 O 110.209 0.703419 -1.82621 0
M  V30 1133 C 110.508 -2.73938 -2.29549 0
M  V30 1134 C 110.174 -4.14519 -1.7744 0
M  V30 1135 C 108.836 -4.5277 -1.62949 0
M  V30 1136 C 111.188 -5.02392 -1.3875 0
M  V30 1137 C 108.516 -5.76639 -1.08187 0
M  V30 1138 C 110.868 -6.26805 -0.854309 0
M  V30 1139 C 109.532 -6.63861 -0.696011 0
M  V30 1140 H 108.802 -0.589691 -0.448715 0
M  V30 1141 H 111.449 -1.84228 -0.522705 0
M  V30 1142 H 109.754 -2.44937 -3.05799 0
M  V30 1143 H 111.451 -2.79534 -2.87509 0
M  V30 1144 H 108.041 -3.8434 -1.89685 0
M  V30 1145 H 112.225 -4.73474 -1.4878 0
M  V30 1146 H 107.481 -6.04027 -0.946666 0
M  V30 1147 H 111.655 -6.94258 -0.545843 0
M  V30 1148 H 109.282 -7.59722 -0.26952 0
M  V30 1149 N 110.857 0.726932 -1.39834 0
M  V30 1150 C 111.789 1.85147 -1.35104 0
M  V30 1151 C 112.802 1.60736 -0.258392 0
M  V30 1152 O 113.991 1.70821 -0.517931 0
M  V30 1153 C 111.091 3.21332 -1.07697 0
M  V30 1154 C 110.264 3.73033 -2.28396 0
M  V30 1155 C 109.323 4.87802 -1.97322 0
M  V30 1156 O 108.349 5.01043 -2.70083 0
M  V30 1157 N 109.551 5.72768 -0.944273 0
M  V30 1158 H 112.316 1.89706 -2.32017 0
M  V30 1159 H 109.877 0.908006 -1.3404 0
M  V30 1160 H 111.869 3.95691 -0.849144 0
M  V30 1161 H 110.439 3.11992 -0.194909 0
M  V30 1162 H 109.659 2.89934 -2.6708 0
M  V30 1163 H 110.947 4.0431 -3.08887 0
M  V30 1164 H 110.345 5.64669 -0.341427 0
M  V30 1165 H 108.902 6.4716 -0.776346 0
M  V30 1166 N 112.336 1.25143 0.95797 0
M  V30 1167 C 113.266 1.07711 2.07173 0
M  V30 1168 C 114.247 -0.0128462 1.70095 0
M  V30 1169 O 115.432 0.156061 1.93572 0
M  V30 1170 C 112.562 0.691503 3.40346 0
M  V30 1171 C 111.516 1.73132 3.9142 0
M  V30 1172 C 110.842 1.20049 5.21049 0
M  V30 1173 C 112.142 3.1294 4.1817 0
M  V30 1174 H 113.836 2.00873 2.22014 0
M  V30 1175 H 111.382 0.967191 1.06684 0
M  V30 1176 H 113.335 0.556505 4.17709 0
M  V30 1177 H 112.059 -0.275819 3.25433 0
M  V30 1178 H 110.718 1.8547 3.16222 0
M  V30 1179 H 110.366 0.223499 5.02503 0
M  V30 1180 H 110.066 1.89545 5.56189 0
M  V30 1181 H 111.59 1.07782 6.01012 0
M  V30 1182 H 113.004 3.03775 4.86203 0
M  V30 1183 H 111.401 3.79875 4.64559 0
M  V30 1184 H 112.471 3.6025 3.24573 0
M  V30 1185 N 113.814 -1.1601 1.06675 0
M  V30 1186 C 115.042 -1.90527 0.806667 0
M  V30 1187 C 115.457 -1.77643 -0.639396 0
M  V30 1188 O 114.814 -1.12369 -1.43803 0
M  V30 1189 C 114.865 -3.41106 1.19705 0
M  V30 1190 O 114.586 -3.53608 2.58636 0
M  V30 1191 C 116.087 -4.32663 0.965266 0
M  V30 1192 H 113.307 -0.604053 0.292166 0
M  V30 1193 H 115.851 -1.47026 1.4214 0
M  V30 1194 H 114.006 -3.82296 0.626774 0
M  V30 1195 H 114.42 -4.47011 2.74375 0
M  V30 1196 H 115.894 -5.36763 1.288 0
M  V30 1197 H 116.371 -4.39089 -0.0987936 0
M  V30 1198 H 116.977 -3.97206 1.52011 0
M  V30 1199 N 115.292 -0.849877 -1.32721 0
M  V30 1200 C 116.517 -0.463856 -2.02146 0
M  V30 1201 C 116.942 0.930449 -1.63476 0
M  V30 1202 O 116.3 1.61033 -0.832952 0
M  V30 1203 C 116.348 -0.604955 -3.55489 0
M  V30 1204 O 115.452 0.36425 -4.10788 0
M  V30 1205 H 114.793 -0.187046 -0.637111 0
M  V30 1206 H 117.323 -1.14775 -1.69375 0
M  V30 1207 H 117.333 -0.490696 -4.05038 0
M  V30 1208 H 116.008 -1.62174 -3.82978 0
M  V30 1209 H 114.585 0.206628 -3.72327 0
M  V30 1210 N 116.77 1.45427 -0.607355 0
M  V30 1211 C 117.998 2.06614 -0.108814 0
M  V30 1212 C 118.413 1.45204 1.2067 0
M  V30 1213 O 117.77 0.566132 1.73497 0
M  V30 1214 C 117.821 3.61481 0.0375347 0
M  V30 1215 O 117.542 4.20598 -1.22593 0
M  V30 1216 C 119.043 4.39652 0.567561 0
M  V30 1217 H 116.263 0.66747 -0.0687351 0
M  V30 1218 H 118.807 1.86675 -0.835022 0
M  V30 1219 H 116.962 3.80762 0.714068 0
M  V30 1220 H 117.376 5.1377 -1.05547 0
M  V30 1221 H 118.85 5.48518 0.61905 0
M  V30 1222 H 119.327 4.09417 1.58978 0
M  V30 1223 H 119.933 4.25234 -0.0749202 0
M  V30 1224 N 118.248 0.346503 1.53744 0
M  V30 1225 C 119.211 -0.496439 2.23759 0
M  V30 1226 C 120.211 -1.0252 1.2388 0
M  V30 1227 O 121.401 -0.913974 1.48297 0
M  V30 1228 C 118.533 -1.69187 2.95954 0
M  V30 1229 H 119.726 0.115952 2.99676 0
M  V30 1230 H 117.279 0.0978939 1.55993 0
M  V30 1231 H 118.014 -2.34288 2.24231 0
M  V30 1232 H 117.799 -1.31989 3.69217 0
M  V30 1233 H 119.289 -2.28969 3.49232 0
M  V30 1234 N 119.726 -1.57421 0.075193 0
M  V30 1235 C 120.973 -1.93618 -0.593146 0
M  V30 1236 C 121.301 -0.955484 -1.69413 0
M  V30 1237 O 120.556 0.0283251 -1.9568 0
M  V30 1238 C 120.855 -3.36428 -1.20626 0
M  V30 1239 C 120.521 -4.50307 -0.231078 0
M  V30 1240 C 119.183 -4.81186 0.0371936 0
M  V30 1241 C 121.535 -5.19374 0.435888 0
M  V30 1242 C 118.863 -5.78466 0.979461 0
M  V30 1243 C 121.215 -6.17665 1.3665 0
M  V30 1244 C 119.879 -6.46958 1.6432 0
M  V30 1245 H 119.149 -0.708499 -0.217047 0
M  V30 1246 H 121.796 -1.90937 0.146793 0
M  V30 1247 H 120.101 -3.35592 -2.02201 0
M  V30 1248 H 121.798 -3.61727 -1.73073 0
M  V30 1249 H 118.388 -4.26227 -0.450357 0
M  V30 1250 H 122.572 -4.95711 0.241748 0
M  V30 1251 H 117.828 -5.99487 1.20106 0
M  V30 1252 H 122.002 -6.70284 1.88924 0
M  V30 1253 H 119.629 -7.2215 2.37494 0
M  V30 1254 N 121.204 0.198386 -1.56346 0
M  V30 1255 C 122.429 0.939682 -1.84891 0
M  V30 1256 C 122.854 1.76202 -0.658369 0
M  V30 1257 O 122.212 1.76993 0.392851 0
M  V30 1258 C 122.26 1.81428 -3.11635 0
M  V30 1259 O 121.364 2.91265 -2.91956 0
M  V30 1260 H 120.705 0.264807 -0.608912 0
M  V30 1261 H 123.235 0.204695 -2.03573 0
M  V30 1262 H 123.245 2.21958 -3.42343 0
M  V30 1263 H 121.92 1.21004 -3.97908 0
M  V30 1264 H 120.497 2.54514 -2.72538 0
M  V30 1265 N 122.682 1.50554 0.465978 0
M  V30 1266 C 123.629 1.6979 1.56333 0
M  V30 1267 C 124.599 0.539239 1.57103 0
M  V30 1268 O 125.784 0.770401 1.74555 0
M  V30 1269 C 122.924 1.80273 2.94271 0
M  V30 1270 C 122.037 3.07674 3.0325 0
M  V30 1271 C 121.172 3.08922 4.32135 0
M  V30 1272 C 120.211 4.30755 4.34875 0
M  V30 1273 N 119.348 4.29714 5.55239 0
M  V30 1274 H 124.188 2.63472 1.39235 0
M  V30 1275 H 121.725 1.30602 0.676873 0
M  V30 1276 H 123.683 1.84332 3.74269 0
M  V30 1277 H 122.313 0.900258 3.09992 0
M  V30 1278 H 121.365 3.13062 2.16094 0
M  V30 1279 H 122.677 3.97642 3.01135 0
M  V30 1280 H 121.831 3.11738 5.20485 0
M  V30 1281 H 120.57 2.16792 4.36866 0
M  V30 1282 H 119.575 4.28146 3.44922 0
M  V30 1283 H 120.8 5.24117 4.31831 0
M  V30 1284 H 118.746 3.4044 5.60746 0
M  V30 1285 H 118.663 5.13456 5.54886 0
M  V30 1286 H 119.931 4.36683 6.457 0
M  V30 1287 N 124.16 -0.719506 1.40217 0
M  V30 1288 C 125.107 -1.83359 1.40172 0
M  V30 1289 C 126.077 -1.64065 0.259206 0
M  V30 1290 O 127.262 -1.85254 0.456677 0
M  V30 1291 C 124.402 -3.2103 1.26624 0
M  V30 1292 C 123.515 -3.51923 2.50548 0
M  V30 1293 C 122.65 -4.79079 2.29471 0
M  V30 1294 C 121.689 -5.02863 3.48992 0
M  V30 1295 N 120.826 -6.2123 3.27135 0
M  V30 1296 H 125.666 -1.82733 2.35399 0
M  V30 1297 H 123.203 -0.892688 1.16917 0
M  V30 1298 H 125.161 -4.00524 1.16776 0
M  V30 1299 H 123.791 -3.20895 0.350176 0
M  V30 1300 H 122.843 -2.67014 2.70939 0
M  V30 1301 H 124.155 -3.6541 3.39525 0
M  V30 1302 H 123.309 -5.66582 2.16955 0
M  V30 1303 H 122.048 -4.67794 1.37913 0
M  V30 1304 H 121.053 -4.13816 3.6199 0
M  V30 1305 H 122.278 -5.16023 4.41472 0
M  V30 1306 H 120.224 -6.11204 2.38256 0
M  V30 1307 H 120.141 -6.35375 4.09675 0
M  V30 1308 H 121.409 -7.11532 3.18344 0
M  V30 1309 N 125.638 -1.25649 -0.95132 0
M  V30 1310 C 126.548 -1.08073 -2.08224 0
M  V30 1311 C 127.564 -0.0169666 -1.73992 0
M  V30 1312 O 128.74 -0.218593 -2.0021 0
M  V30 1313 C 125.805 -0.704922 -3.39458 0
M  V30 1314 C 124.866 -1.84699 -3.87537 0
M  V30 1315 C 124.099 -1.48902 -5.12508 0
M  V30 1316 O 124.322 -0.386156 -5.69091 0
M  V30 1317 O 123.256 -2.32033 -5.55378 0
M  V30 1318 H 127.082 -2.02924 -2.25954 0
M  V30 1319 H 124.667 -1.04618 -1.06656 0
M  V30 1320 H 126.549 -0.507609 -4.18332 0
M  V30 1321 H 125.224 0.214291 -3.2299 0
M  V30 1322 H 124.131 -2.09919 -3.09653 0
M  V30 1323 H 125.464 -2.74557 -4.08509 0
M  V30 1324 N 127.117 1.15442 -1.07289 0
M  V30 1325 C 128.347 1.89821 -0.815576 0
M  V30 1326 C 128.755 1.7823 0.634867 0
M  V30 1327 O 128.098 1.13152 1.44715 0
M  V30 1328 C 128.16 3.40817 -1.14385 0
M  V30 1329 C 127.824 3.76193 -2.59476 0
M  V30 1330 C 128.821 3.77269 -3.57721 0
M  V30 1331 C 126.506 4.0652 -2.95037 0
M  V30 1332 C 128.5 4.08176 -4.89562 0
M  V30 1333 C 126.187 4.37092 -4.27076 0
M  V30 1334 C 127.185 4.37902 -5.24148 0
M  V30 1335 O 126.873 4.67741 -6.53815 0
M  V30 1336 H 126.605 0.608465 -0.294528 0
M  V30 1337 H 129.159 1.472 -1.43252 0
M  V30 1338 H 127.389 3.83835 -0.469865 0
M  V30 1339 H 129.078 3.96485 -0.869179 0
M  V30 1340 H 129.844 3.5394 -3.3159 0
M  V30 1341 H 125.723 4.05049 -2.20128 0
M  V30 1342 H 129.267 4.08723 -5.65324 0
M  V30 1343 H 125.164 4.59889 -4.5296 0
M  V30 1344 H 125.932 4.85509 -6.58957 0
M  V30 1345 N 128.595 0.856903 1.32268 0
M  V30 1346 C 129.82 0.474569 2.01897 0
M  V30 1347 C 130.245 -0.921766 1.63967 0
M  V30 1348 O 129.603 -1.60589 0.84148 0
M  V30 1349 C 129.651 0.623799 3.55164 0
M  V30 1350 O 128.755 -0.342459 4.10976 0
M  V30 1351 H 128.096 0.190422 0.63611 0
M  V30 1352 H 130.626 1.15672 1.68764 0
M  V30 1353 H 130.636 0.512169 4.04773 0
M  V30 1354 H 129.311 1.64202 3.82113 0
M  V30 1355 H 127.888 -0.18688 3.72431 0
M  V30 1356 N 130.073 -1.45103 0.615059 0
M  V30 1357 C 131.036 -2.29025 -0.0895485 0
M  V30 1358 C 132.036 -1.40174 -0.787906 0
M  V30 1359 O 133.226 -1.62217 -0.634933 0
M  V30 1360 C 130.358 -3.21376 -1.13711 0
M  V30 1361 H 131.551 -2.92807 0.648382 0
M  V30 1362 H 129.104 -1.51749 0.374444 0
M  V30 1363 H 129.839 -2.6241 -1.90556 0
M  V30 1364 H 129.624 -3.86834 -0.640475 0
M  V30 1365 H 131.114 -3.84459 -1.63036 0
M  V30 1366 N 131.551 -0.354651 -1.53558 0
M  V30 1367 C 132.781 0.239167 -2.05211 0
M  V30 1368 C 133.189 1.43879 -1.22863 0
M  V30 1369 O 132.532 1.81857 -0.259565 0
M  V30 1370 C 132.594 0.707251 -3.52474 0
M  V30 1371 C 132.258 -0.374212 -4.55465 0
M  V30 1372 C 133.255 -1.22054 -5.0537 0
M  V30 1373 C 130.94 -0.531323 -4.99482 0
M  V30 1374 C 132.934 -2.20942 -5.97882 0
M  V30 1375 C 130.621 -1.52358 -5.91802 0
M  V30 1376 C 131.619 -2.36108 -6.40892 0
M  V30 1377 O 131.307 -3.33643 -7.31394 0
M  V30 1378 H 131.039 0.0479716 -0.674296 0
M  V30 1379 H 133.593 -0.508121 -1.99016 0
M  V30 1380 H 131.823 1.50596 -3.56171 0
M  V30 1381 H 133.512 1.22285 -3.87042 0
M  V30 1382 H 134.278 -1.1103 -4.7212 0
M  V30 1383 H 130.157 0.110738 -4.60867 0
M  V30 1384 H 133.701 -2.86348 -6.36121 0
M  V30 1385 H 129.598 -1.63434 -6.24467 0
M  V30 1386 H 130.366 -3.29244 -7.4936 0
M  V30 1387 N 133.029 1.57378 -0.0835403 0
M  V30 1388 C 134.278 1.93106 0.582498 0
M  V30 1389 C 134.591 0.96651 1.70053 0
M  V30 1390 O 135.797 1.21705 2.42693 0
M  V30 1391 C 134.253 3.43076 1.08751 0
M  V30 1392 C 133.861 4.48 -0.000146404 0
M  V30 1393 C 135.605 3.87785 1.72694 0
M  V30 1394 C 133.512 5.89113 0.519568 0
M  V30 1395 H 132.442 0.720775 0.221358 0
M  V30 1396 H 135.093 1.82821 -0.157675 0
M  V30 1397 H 133.475 3.48474 1.88101 0
M  V30 1398 H 134.649 4.54233 -0.775199 0
M  V30 1399 H 132.964 4.1283 -0.54406 0
M  V30 1400 H 135.561 4.90604 2.1263 0
M  V30 1401 H 135.904 3.25796 2.59158 0
M  V30 1402 H 136.437 3.8504 0.999457 0
M  V30 1403 H 133.176 6.54775 -0.308186 0
M  V30 1404 H 132.696 5.86376 1.26188 0
M  V30 1405 H 134.375 6.39346 0.992237 0
M  V30 1406 N 134.507 -0.190092 1.56449 0
M  V30 1407 C 135.454 -1.23557 1.94942 0
M  V30 1408 C 136.424 -1.44972 0.810696 0
M  V30 1409 O 137.609 -1.58023 1.06927 0
M  V30 1410 C 134.749 -2.57416 2.2985 0
M  V30 1411 C 133.862 -2.43537 3.5681 0
M  V30 1412 C 132.997 -3.70134 3.81017 0
M  V30 1413 C 132.036 -3.51109 5.01387 0
M  V30 1414 N 131.173 -4.6973 5.21822 0
M  V30 1415 H 136.013 -0.900304 2.84075 0
M  V30 1416 H 133.55 -0.43318 1.40577 0
M  V30 1417 H 135.508 -3.35409 2.48106 0
M  V30 1418 H 134.138 -2.88975 1.43852 0
M  V30 1419 H 133.19 -1.56816 3.46573 0
M  V30 1420 H 134.502 -2.25415 4.4496 0
M  V30 1421 H 133.656 -4.56566 3.9954 0
M  V30 1422 H 132.395 -3.91215 2.91207 0
M  V30 1423 H 131.4 -2.63063 4.82782 0
M  V30 1424 H 132.625 -3.31468 5.9271 0
M  V30 1425 H 130.571 -4.91065 4.34961 0
M  V30 1426 H 130.488 -4.54452 6.0416 0
M  V30 1427 H 131.756 -5.57499 5.44808 0
M  V30 1428 N 135.985 -1.50799 -0.457987 0
M  V30 1429 C 136.933 -1.71162 -1.575 0
M  V30 1430 C 137.927 -0.577592 -1.59249 0
M  V30 1431 O 139.133 -0.758443 -1.63241 0
M  V30 1432 H 135.508 -0.540468 -0.522875 0
M  V30 1433 H 137.479 -2.64837 -1.37492 0
M  V30 1434 C 136.228 -1.83496 -2.95338 0
M  V30 1435 H 135.551 -2.70153 -2.94716 0
M  V30 1436 H 136.991 -2.01765 -3.72917 0
M  V30 1437 C 135.45 -0.589694 -3.31699 0
M  V30 1438 O 135.98 0.265163 -4.00824 0
M  V30 1439 N 134.186 -0.439845 -2.87252 0
M  V30 1440 H 133.733 -1.13655 -2.31172 0
M  V30 1441 H 133.691 0.392159 -3.11945 0
M  V30 1442 N 137.463 0.71206 -1.40597 0
M  V30 1443 C 138.693 1.49894 -1.42181 0
M  V30 1444 C 139.101 1.89189 -0.0208078 0
M  V30 1445 O 138.444 1.56223 0.966436 0
M  V30 1446 C 138.506 2.80215 -2.25211 0
M  V30 1447 C 138.17 2.63221 -3.73582 0
M  V30 1448 C 139.167 2.30249 -4.66135 0
M  V30 1449 C 136.852 2.79376 -4.17438 0
M  V30 1450 C 138.846 2.13645 -6.00529 0
M  V30 1451 C 136.533 2.6239 -5.51901 0
M  V30 1452 C 137.531 2.29573 -6.43262 0
M  V30 1453 O 137.219 2.12719 -7.75246 0
M  V30 1454 H 136.951 0.469031 -0.486812 0
M  V30 1455 H 139.505 0.88564 -1.85326 0
M  V30 1456 H 137.735 3.4389 -1.76852 0
M  V30 1457 H 139.424 3.41947 -2.18694 0
M  V30 1458 H 140.19 2.17398 -4.33547 0
M  V30 1459 H 136.069 3.03906 -3.46644 0
M  V30 1460 H 139.613 1.87953 -6.71803 0
M  V30 1461 H 135.51 2.74826 -5.84073 0
M  V30 1462 H 136.278 2.27611 -7.86216 0
M  V30 1463 N 138.941 1.26152 0.944643 0
M  V30 1464 C 139.874 1.01729 2.04271 0
M  V30 1465 C 140.852 -0.0568101 1.62501 0
M  V30 1466 O 142.036 0.0848987 1.88309 0
M  V30 1467 C 139.163 0.539792 3.34371 0
M  V30 1468 C 138.209 1.60593 3.9511 0
M  V30 1469 S 139.042 3.19392 4.29825 0
M  V30 1470 C 140.198 2.73402 5.63029 0
M  V30 1471 H 140.431 1.94703 2.24673 0
M  V30 1472 H 137.964 1.09793 1.08558 0
M  V30 1473 H 139.922 0.270956 4.09605 0
M  V30 1474 H 138.583 -0.369609 3.11918 0
M  V30 1475 H 137.776 1.22275 4.88943 0
M  V30 1476 H 137.378 1.82596 3.26397 0
M  V30 1477 H 139.67 2.1765 6.41588 0
M  V30 1478 H 140.613 3.65913 6.06229 0
M  V30 1479 H 141.021 2.13077 5.22741 0
M  V30 1480 N 140.419 -1.14872 1.07899 0
M  V30 1481 C 141.351 -2.19425 0.662231 0
M  V30 1482 C 142.364 -1.60231 -0.288079 0
M  V30 1483 O 143.553 -1.78336 -0.076534 0
M  V30 1484 C 140.653 -3.38867 -0.0470695 0
M  V30 1485 C 139.826 -4.27597 0.920831 0
M  V30 1486 C 138.885 -5.25616 0.247805 0
M  V30 1487 O 137.911 -5.62189 0.890599 0
M  V30 1488 N 139.113 -5.71746 -1.00435 0
M  V30 1489 H 141.878 -2.55797 1.56166 0
M  V30 1490 H 139.439 -1.30042 0.964404 0
M  V30 1491 H 141.431 -4.01497 -0.50813 0
M  V30 1492 H 140.001 -3.00864 -0.848523 0
M  V30 1493 H 139.221 -3.61982 1.56087 0
M  V30 1494 H 140.509 -4.83748 1.57688 0
M  V30 1495 H 139.907 -5.44153 -1.54642 0
M  V30 1496 H 138.464 -6.36389 -1.40899 0
M  V30 1497 N 141.898 -0.863906 -1.31812 0
M  V30 1498 C 142.845 -0.313303 -2.28664 0
M  V30 1499 C 143.815 0.584868 -1.55462 0
M  V30 1500 O 145 0.517805 -1.83639 0
M  V30 1501 C 142.14 0.48441 -3.41683 0
M  V30 1502 C 141.253 -0.440594 -4.29747 0
M  V30 1503 C 140.388 0.370652 -5.29905 0
M  V30 1504 C 139.427 -0.551164 -6.09613 0
M  V30 1505 N 138.564 0.223462 -7.01744 0
M  V30 1506 H 143.404 -1.14444 -2.75148 0
M  V30 1507 H 140.941 -0.575769 -1.35364 0
M  V30 1508 H 142.899 0.962627 -4.05943 0
M  V30 1509 H 141.529 1.28029 -2.96325 0
M  V30 1510 H 140.581 -1.03724 -3.65986 0
M  V30 1511 H 141.893 -1.14767 -4.85417 0
M  V30 1512 H 141.047 0.911638 -5.99812 0
M  V30 1513 H 139.786 1.11105 -4.74876 0
M  V30 1514 H 138.791 -1.10396 -5.38603 0
M  V30 1515 H 140.016 -1.29032 -6.66729 0
M  V30 1516 H 137.962 0.946787 -6.49132 0
M  V30 1517 H 137.879 -0.424399 -7.54808 0
M  V30 1518 H 139.147 0.745876 -7.75923 0
M  V30 1519 N 143.376 1.44774 -0.622745 0
M  V30 1520 C 144.622 2.0242 -0.124083 0
M  V30 1521 C 144.955 1.4881 1.24777 0
M  V30 1522 O 144.23 0.668799 1.8264 0
M  V30 1523 C 144.513 3.59957 -0.101619 0
M  V30 1524 C 144.366 4.23867 -1.50521 0
M  V30 1525 C 145.685 4.36284 0.578272 0
M  V30 1526 H 142.804 0.735528 -0.0465645 0
M  V30 1527 H 145.446 1.72447 -0.797617 0
M  V30 1528 H 143.596 3.85623 0.471934 0
M  V30 1529 H 145.268 4.09336 -2.12701 0
M  V30 1530 H 143.511 3.81684 -2.06154 0
M  V30 1531 H 144.182 5.32843 -1.4416 0
M  V30 1532 H 146.658 4.16001 0.0906057 0
M  V30 1533 H 145.534 5.46004 0.563149 0
M  V30 1534 H 145.795 4.10271 1.64713 0
M  V30 1535 N 144.854 0.36279 1.53368 0
M  V30 1536 C 145.817 -0.472679 2.24273 0
M  V30 1537 C 146.817 -1.012 1.24961 0
M  V30 1538 O 148.007 -0.898194 1.49259 0
M  V30 1539 C 145.139 -1.66039 2.97731 0
M  V30 1540 H 146.332 0.14773 2.99536 0
M  V30 1541 H 143.885 0.114434 1.55881 0
M  V30 1542 H 144.62 -2.31896 2.26704 0
M  V30 1543 H 144.405 -1.28066 3.70596 0
M  V30 1544 H 145.895 -2.25252 3.51641 0
M  V30 1545 N 146.332 -1.57332 0.0918853 0
M  V30 1546 C 147.279 -2.13847 -0.868211 0
M  V30 1547 C 148.249 -1.05618 -1.28196 0
M  V30 1548 O 149.434 -1.33387 -1.36427 0
M  V30 1549 C 146.574 -2.72062 -2.12312 0
M  V30 1550 C 145.687 -3.94514 -1.7602 0
M  V30 1551 C 144.822 -4.40903 -2.96273 0
M  V30 1552 C 143.861 -5.55953 -2.56092 0
M  V30 1553 N 142.998 -5.97209 -3.69169 0
M  V30 1554 H 147.838 -2.95575 -0.379406 0
M  V30 1555 H 145.375 -1.46048 -0.175606 0
M  V30 1556 H 147.333 -3.03931 -2.858 0
M  V30 1557 H 145.963 -1.93068 -2.58698 0
M  V30 1558 H 145.015 -3.68979 -0.925135 0
M  V30 1559 H 146.327 -4.7802 -1.42472 0
M  V30 1560 H 145.481 -4.74539 -3.78018 0
M  V30 1561 H 144.22 -3.56291 -3.33029 0
M  V30 1562 H 143.225 -5.21948 -1.72773 0
M  V30 1563 H 144.45 -6.42311 -2.20484 0
M  V30 1564 H 142.396 -5.15543 -4.05649 0
M  V30 1565 H 142.313 -6.75504 -3.39456 0
M  V30 1566 H 143.581 -6.35475 -4.51434 0
M  V30 1567 N 147.81 0.181792 -1.56548 0
M  V30 1568 C 149.04 0.914618 -1.85252 0
M  V30 1569 C 149.448 1.76791 -0.673914 0
M  V30 1570 O 148.791 1.80009 0.366416 0
M  V30 1571 C 148.853 1.85019 -3.08234 0
M  V30 1572 C 148.517 1.17754 -4.41569 0
M  V30 1573 C 149.514 0.548035 -5.17003 0
M  V30 1574 C 147.199 1.17742 -4.88305 0
M  V30 1575 C 149.193 -0.0726128 -6.37359 0
M  V30 1576 C 146.88 0.552946 -6.08593 0
M  V30 1577 C 147.878 -0.070978 -6.82963 0
M  V30 1578 O 147.566 -0.685635 -8.00971 0
M  V30 1579 H 147.298 0.271695 -0.618998 0
M  V30 1580 H 149.852 0.189944 -2.0452 0
M  V30 1581 H 148.082 2.61491 -2.84885 0
M  V30 1582 H 149.771 2.45195 -3.23472 0
M  V30 1583 H 150.537 0.540174 -4.81982 0
M  V30 1584 H 146.416 1.65246 -4.30366 0
M  V30 1585 H 149.96 -0.560213 -6.95347 0
M  V30 1586 H 145.857 0.558354 -6.43081 0
M  V30 1587 H 146.625 -0.58385 -8.16415 0
M  V30 1588 N 149.288 1.51039 0.449983 0
M  V30 1589 C 150.218 1.74379 1.55288 0
M  V30 1590 C 151.199 0.593236 1.5942 0
M  V30 1591 O 152.384 0.834625 1.7535 0
M  V30 1592 C 149.514 1.85728 2.93466 0
M  V30 1593 C 148.468 3.01078 3.04197 0
M  V30 1594 C 147.794 2.97595 4.44231 0
M  V30 1595 C 149.094 4.41254 2.7945 0
M  V30 1596 H 150.788 2.66725 1.36008 0
M  V30 1597 H 148.334 1.2835 0.652864 0
M  V30 1598 H 150.287 2.0064 3.70569 0
M  V30 1599 H 149.011 0.900207 3.13949 0
M  V30 1600 H 147.67 2.85851 2.29531 0
M  V30 1601 H 147.318 1.99691 4.61663 0
M  V30 1602 H 147.018 3.75046 4.52343 0
M  V30 1603 H 148.542 3.14583 5.23326 0
M  V30 1604 H 149.956 4.56897 3.46292 0
M  V30 1605 H 148.353 5.20315 2.98985 0
M  V30 1606 H 149.423 4.52164 1.75144 0
M  V30 1607 N 150.766 -0.704594 1.40972 0
M  V30 1608 C 151.676 -1.84856 1.44448 0
M  V30 1609 C 152.692 -1.70726 0.335961 0
M  V30 1610 O 153.868 -1.92799 0.582276 0
M  V30 1611 C 150.933 -3.20758 1.31587 0
M  V30 1612 C 149.994 -3.47063 2.52677 0
M  V30 1613 C 149.227 -4.76481 2.4042 0
M  V30 1614 O 149.45 -5.52341 1.42391 0
M  V30 1615 O 148.384 -5.03367 3.30007 0
M  V30 1616 H 152.21 -1.8488 2.40942 0
M  V30 1617 H 149.795 -0.85647 1.22413 0
M  V30 1618 H 151.677 -4.01913 1.26665 0
M  V30 1619 H 150.352 -3.21438 0.382049 0
M  V30 1620 H 149.259 -2.65873 2.63177 0
M  V30 1621 H 150.592 -3.5119 3.44858 0
M  V30 1622 N 152.244 -1.26651 -0.937939 0
M  V30 1623 C 153.154 -1.10276 -2.07066 0
M  V30 1624 C 154.17 -0.0354197 -1.73964 0
M  V30 1625 O 155.346 -0.239816 -1.99967 0
M  V30 1626 C 152.411 -0.740887 -3.38691 0
M  V30 1627 C 151.472 -1.88799 -3.85556 0
M  V30 1628 C 150.705 -1.54329 -5.10899 0
M  V30 1629 O 150.928 -0.446494 -5.6865 0
M  V30 1630 O 149.862 -2.37911 -5.52885 0
M  V30 1631 H 153.688 -2.05309 -2.23789 0
M  V30 1632 H 151.273 -1.05743 -1.0554 0
M  V30 1633 H 153.155 -0.55195 -4.1777 0
M  V30 1634 H 151.83 0.180022 -3.23199 0
M  V30 1635 H 150.737 -2.13191 -3.07409 0
M  V30 1636 H 152.07 -2.78874 -4.05574 0
M  V30 1637 N 153.722 1.14298 -1.08507 0
M  V30 1638 C 154.669 2.19414 -0.715965 0
M  V30 1639 C 155.639 1.63399 0.298326 0
M  V30 1640 O 156.824 1.89929 0.182101 0
M  V30 1641 C 153.964 3.44845 -0.132534 0
M  V30 1642 C 153.077 4.15007 -1.19973 0
M  V30 1643 C 152.212 5.28024 -0.580048 0
M  V30 1644 C 151.251 5.9002 -1.62921 0
M  V30 1645 N 150.388 6.94485 -1.03125 0
M  V30 1646 H 155.228 2.50336 -1.61666 0
M  V30 1647 H 152.765 1.2293 -0.807882 0
M  V30 1648 H 154.723 4.16601 0.223454 0
M  V30 1649 H 153.353 3.14403 0.731467 0
M  V30 1650 H 152.405 3.41629 -1.67313 0
M  V30 1651 H 153.717 4.57178 -1.99473 0
M  V30 1652 H 152.871 6.06455 -0.172364 0
M  V30 1653 H 151.61 4.87076 0.246603 0
M  V30 1654 H 150.615 5.10291 -2.04654 0
M  V30 1655 H 151.84 6.33042 -2.45835 0
M  V30 1656 H 149.786 6.55612 -0.225711 0
M  V30 1657 H 149.703 7.35148 -1.76334 0
M  V30 1658 H 150.971 7.7679 -0.649458 0
M  V30 1659 N 155.201 0.870884 1.31352 0
M  V30 1660 C 156.148 0.325425 2.28494 0
M  V30 1661 C 157.118 -0.576615 1.5577 0
M  V30 1662 O 158.303 -0.508059 1.83911 0
M  V30 1663 C 155.443 -0.466283 3.41935 0
M  V30 1664 C 154.556 0.463378 4.29508 0
M  V30 1665 C 153.691 -0.342544 5.30094 0
M  V30 1666 C 152.73 0.583486 6.09313 0
M  V30 1667 N 151.867 -0.186244 7.01853 0
M  V30 1668 H 156.707 1.15901 2.74538 0
M  V30 1669 H 154.244 0.58294 1.35056 0
M  V30 1670 H 156.202 -0.941085 4.06447 0
M  V30 1671 H 154.832 -1.26456 2.97 0
M  V30 1672 H 153.884 1.05663 3.65431 0
M  V30 1673 H 155.196 1.1734 4.84802 0
M  V30 1674 H 154.35 -0.879816 6.00287 0
M  V30 1675 H 153.089 -1.08585 4.75458 0
M  V30 1676 H 152.094 1.13251 5.3801 0
M  V30 1677 H 153.319 1.32566 6.66035 0
M  V30 1678 H 151.265 -0.912348 6.49625 0
M  V30 1679 H 151.182 0.464422 7.54572 0
M  V30 1680 H 152.45 -0.704716 7.76308 0
M  V30 1681 N 156.679 -1.44442 0.630414 0
M  V30 1682 C 158.09 -1.85434 0.217063 0
M  V30 1683 C 158.441 -1.52748 -1.23136 0
M  V30 1684 O 157.566 -0.965205 -1.93682 0
M  V30 1685 C 158.161 -3.36581 0.387168 0
M  V30 1686 C 156.72 -3.76389 0.0283297 0
M  V30 1687 C 155.867 -2.68296 0.700889 0
M  V30 1688 H 158.818 -1.34919 0.83562 0
M  V30 1689 H 158.839 -3.78657 -0.374086 0
M  V30 1690 H 158.351 -3.60339 1.44144 0
M  V30 1691 H 156.452 -3.58246 -1.02423 0
M  V30 1692 H 156.565 -4.77095 0.437892 0
M  V30 1693 H 154.929 -2.54335 0.136267 0
M  V30 1694 H 155.712 -2.94887 1.75774 0
M  V30 1695 N 158.157 -0.370918 -1.53173 0
M  V30 1696 C 159.434 0.273754 -1.93675 0
M  V30 1697 C 159.814 1.65938 -1.3049 0
M  V30 1698 O 159.162 2.23698 -0.465999 0
M  V30 1699 C 159.372 0.318602 -3.47543 0
M  V30 1700 C 160.72 0.556392 -4.20939 0
M  V30 1701 O 161.744 0.399587 -3.53952 0
M  V30 1702 O 160.603 0.862133 -5.39657 0
M  V30 1703 H 157.697 0.165448 -0.810281 0
M  V30 1704 H 160.243 -0.42409 -1.64315 0
M  V30 1705 H 159.015 -0.652687 -3.85818 0
M  V30 1706 H 158.638 1.06212 -3.83151 0
M  V30 1707 N 159.635 1.57281 -0.100228 0
M  V30 1708 C 161.051 1.57527 0.256416 0
M  V30 1709 C 161.251 1.11173 1.68056 0
M  V30 1710 O 160.307 0.79053 2.39806 0
M  V30 1711 C 161.62 3.00673 0.0401747 0
M  V30 1712 C 163.168 3.12815 0.107528 0
M  V30 1713 C 163.643 4.57929 -0.0807834 0
M  V30 1714 N 165.134 4.63193 -0.0261207 0
M  V30 1715 C 165.869 5.73212 -0.146999 0
M  V30 1716 N 165.365 6.92047 -0.322999 0
M  V30 1717 N 167.158 5.62031 -0.0879044 0
M  V30 1718 H 159.309 1.85718 -1.03065 0
M  V30 1719 H 161.572 0.857446 -0.404339 0
M  V30 1720 H 161.278 3.38804 -0.943649 0
M  V30 1721 H 161.152 3.69042 0.780262 0
M  V30 1722 H 163.539 2.74554 1.08186 0
M  V30 1723 H 163.62 2.47028 -0.664134 0
M  V30 1724 H 163.264 4.96886 -1.05201 0
M  V30 1725 H 163.194 5.21783 0.710635 0
M  V30 1726 H 165.685 3.77748 0.107161 0
M  V30 1727 H 165.998 7.7173 -0.406608 0
M  V30 1728 H 164.343 6.94074 -0.358733 0
M  V30 1729 H 167.534 4.68075 0.048498 0
M  V30 1730 H 167.707 6.47734 -0.185557 0
M  V30 1731 N 161.113 -0.173488 1.56642 0
M  V30 1732 C 162.359 -0.891784 1.8214 0
M  V30 1733 C 162.692 -1.8199 0.677736 0
M  V30 1734 O 161.967 -1.91842 -0.320446 0
M  V30 1735 C 162.25 -1.68933 3.18015 0
M  V30 1736 C 162.103 -0.784487 4.42906 0
M  V30 1737 C 163.422 -2.65748 3.50808 0
M  V30 1738 H 160.541 -0.322761 0.662567 0
M  V30 1739 H 163.183 -0.158095 1.89341 0
M  V30 1740 H 161.333 -2.31482 3.12007 0
M  V30 1741 H 163.005 -0.172046 4.60979 0
M  V30 1742 H 161.248 -0.0924117 4.33702 0
M  V30 1743 H 161.919 -1.37799 5.34524 0
M  V30 1744 H 164.395 -2.13327 3.57255 0
M  V30 1745 H 163.271 -3.18619 4.4696 0
M  V30 1746 H 163.532 -3.45842 2.75401 0
M  V30 1747 N 162.591 -1.51276 -0.441967 0
M  V30 1748 C 163.501 -1.75092 -1.56141 0
M  V30 1749 C 164.517 -0.634963 -1.62001 0
M  V30 1750 O 165.693 -0.916686 -1.79329 0
M  V30 1751 C 162.758 -1.86666 -2.92158 0
M  V30 1752 C 161.819 -3.10506 -2.96453 0
M  V30 1753 C 161.052 -3.21519 -4.25982 0
M  V30 1754 O 161.275 -2.38586 -5.18105 0
M  V30 1755 O 160.209 -4.14465 -4.36466 0
M  V30 1756 H 164.035 -2.70044 -1.38961 0
M  V30 1757 H 161.62 -1.35722 -0.624499 0
M  V30 1758 H 163.502 -1.96292 -3.72891 0
M  V30 1759 H 162.177 -0.949014 -3.09476 0
M  V30 1760 H 161.084 -3.06363 -2.14692 0
M  V30 1761 H 162.417 -4.01945 -2.84079 0
M  V30 1762 N 164.069 0.697108 -1.41344 0
M  V30 1763 C 165.318 1.45279 -1.39918 0
M  V30 1764 C 165.631 1.95597 -0.0109624 0
M  V30 1765 O 166.837 2.71208 0.125919 0
M  V30 1766 C 165.293 2.62695 -2.46007 0
M  V30 1767 C 164.901 2.19169 -3.90729 0
M  V30 1768 C 166.645 3.40336 -2.53715 0
M  V30 1769 C 164.552 3.33535 -4.88373 0
M  V30 1770 H 163.482 0.545692 -0.520323 0
M  V30 1771 H 166.133 0.756929 -1.67161 0
M  V30 1772 H 164.515 3.34541 -2.11892 0
M  V30 1773 H 165.689 1.54623 -4.34083 0
M  V30 1774 H 164.004 1.54525 -3.86666 0
M  V30 1775 H 166.601 4.2547 -3.2385 0
M  V30 1776 H 166.944 3.85418 -1.5735 0
M  V30 1777 H 167.477 2.75546 -2.86913 0
M  V30 1778 H 164.216 2.93468 -5.86137 0
M  V30 1779 H 163.736 3.96936 -4.49668 0
M  V30 1780 H 165.415 3.99335 -5.09059 0
M  V30 1781 N 165.547 1.27147 0.931209 0
M  V30 1782 C 166.794 1.13278 1.67852 0
M  V30 1783 C 167.122 -0.32204 1.91815 0
M  V30 1784 O 166.377 -1.25224 1.50391 0
M  V30 1785 C 166.676 1.8579 3.05314 0
M  V30 1786 C 166.342 3.35657 3.01073 0
M  V30 1787 C 165.004 3.76536 2.99623 0
M  V30 1788 C 167.356 4.31299 2.92627 0
M  V30 1789 C 164.684 5.11426 2.87506 0
M  V30 1790 C 167.036 5.66242 2.82051 0
M  V30 1791 C 165.7 6.06418 2.7895 0
M  V30 1792 H 164.97 0.414515 0.614214 0
M  V30 1793 H 167.617 1.57712 1.08624 0
M  V30 1794 H 165.922 1.33854 3.68226 0
M  V30 1795 H 167.619 1.72491 3.62005 0
M  V30 1796 H 164.209 3.03146 3.02986 0
M  V30 1797 H 168.393 4.00692 2.92848 0
M  V30 1798 H 163.649 5.41705 2.83489 0
M  V30 1799 H 167.823 6.40026 2.74481 0
M  V30 1800 H 165.45 7.10895 2.69318 0
M  V30 1801 N 167.025 -1.13721 1.09112 0
M  V30 1802 C 167.972 -2.19031 0.727591 0
M  V30 1803 C 168.942 -1.63555 -0.289656 0
M  V30 1804 O 170.127 -1.90023 -0.172026 0
M  V30 1805 C 167.267 -3.4477 0.15082 0
M  V30 1806 C 166.38 -4.14365 1.22172 0
M  V30 1807 C 165.515 -5.27709 0.608042 0
M  V30 1808 C 164.554 -5.89147 1.66047 0
M  V30 1809 N 163.691 -6.93929 1.06806 0
M  V30 1810 H 168.531 -2.49475 1.62991 0
M  V30 1811 H 166.068 -1.22499 0.81439 0
M  V30 1812 H 168.026 -4.16714 -0.201358 0
M  V30 1813 H 166.656 -3.14787 -0.714783 0
M  V30 1814 H 165.708 -3.40737 1.69122 0
M  V30 1815 H 167.02 -4.56114 2.01895 0
M  V30 1816 H 166.174 -6.06355 0.204523 0
M  V30 1817 H 164.913 -4.872 -0.220769 0
M  V30 1818 H 163.918 -5.09198 2.07357 0
M  V30 1819 H 165.143 -6.31729 2.49189 0
M  V30 1820 H 163.089 -6.55483 0.260476 0
M  V30 1821 H 163.006 -7.34202 1.8023 0
M  V30 1822 H 164.274 -7.76434 0.690644 0
M  V30 1823 N 168.503 -0.877838 -1.30888 0
M  V30 1824 C 169.731 -0.507414 -2.00581 0
M  V30 1825 C 170.146 0.902216 -1.65848 0
M  V30 1826 O 169.503 1.59225 -0.891831 0
M  V30 1827 C 169.554 -0.664162 -3.55347 0
M  V30 1828 O 169.275 -2.01829 -3.8884 0
M  V30 1829 C 170.776 -0.295787 -4.42312 0
M  V30 1830 H 167.996 -0.196866 -0.641471 0
M  V30 1831 H 170.54 -1.18117 -1.66939 0
M  V30 1832 H 168.695 -0.0378619 -3.87381 0
M  V30 1833 H 169.109 -2.03174 -4.8355 0
M  V30 1834 H 170.583 -0.456388 -5.5011 0
M  V30 1835 H 171.06 0.765663 -4.32475 0
M  V30 1836 H 171.666 -0.898113 -4.15709 0
M  V30 1837 N 169.982 1.44106 -0.638065 0
M  V30 1838 C 170.929 2.30715 0.062701 0
M  V30 1839 C 171.899 1.43882 0.829883 0
M  V30 1840 O 173.084 1.72775 0.809532 0
M  V30 1841 C 170.224 3.29258 1.03358 0
M  V30 1842 C 169.337 4.31192 0.26409 0
M  V30 1843 C 168.472 5.16825 1.22741 0
M  V30 1844 C 167.511 6.10462 0.447475 0
M  V30 1845 N 166.648 6.8877 1.36161 0
M  V30 1846 H 171.488 2.90096 -0.681781 0
M  V30 1847 H 169.025 1.42925 -0.347988 0
M  V30 1848 H 170.983 3.84886 1.60992 0
M  V30 1849 H 169.613 2.71562 1.74511 0
M  V30 1850 H 168.665 3.77981 -0.428295 0
M  V30 1851 H 169.977 4.97619 -0.343052 0
M  V30 1852 H 169.131 5.77004 1.87487 0
M  V30 1853 H 167.87 4.50488 1.86847 0
M  V30 1854 H 166.875 5.49386 -0.213433 0
M  V30 1855 H 168.1 6.78837 -0.188968 0
M  V30 1856 H 166.046 6.25096 1.98975 0
M  V30 1857 H 165.963 7.51663 0.808656 0
M  V30 1858 H 167.231 7.53467 1.99769 0
M  V30 1859 N 171.46 0.379036 1.52974 0
M  V30 1860 C 172.423 -0.448865 2.24762 0
M  V30 1861 C 173.423 -0.998689 1.26027 0
M  V30 1862 O 174.613 -0.882313 1.50203 0
M  V30 1863 C 171.745 -1.62872 2.99476 0
M  V30 1864 H 172.938 0.179491 2.99362 0
M  V30 1865 H 170.491 0.13096 1.5575 0
M  V30 1866 H 171.226 -2.29479 2.29151 0
M  V30 1867 H 171.011 -1.24128 3.71934 0
M  V30 1868 H 172.501 -2.2151 3.5401 0
M  V30 1869 N 172.938 -1.57226 0.108567 0
M  V30 1870 C 173.87 -2.11809 -0.875752 0
M  V30 1871 C 174.883 -1.05839 -1.23701 0
M  V30 1872 O 176.072 -1.33245 -1.18778 0
M  V30 1873 C 173.172 -2.59411 -2.18081 0
M  V30 1874 C 172.345 -3.89364 -1.99284 0
M  V30 1875 C 171.404 -4.22672 -3.13424 0
M  V30 1876 O 170.43 -4.91668 -2.86795 0
M  V30 1877 N 171.632 -3.79154 -4.3957 0
M  V30 1878 H 174.397 -2.9689 -0.409477 0
M  V30 1879 H 171.958 -1.61721 -0.076158 0
M  V30 1880 H 173.95 -2.7873 -2.93414 0
M  V30 1881 H 172.52 -1.79268 -2.5609 0
M  V30 1882 H 171.74 -3.79059 -1.08203 0
M  V30 1883 H 173.028 -4.74358 -1.84017 0
M  V30 1884 H 172.426 -3.23486 -4.64083 0
M  V30 1885 H 170.983 -4.03602 -5.11809 0
M  V30 1886 N 174.416 0.165178 -1.56732 0
M  V30 1887 C 175.827 0.727046 -1.71962 0
M  V30 1888 C 176.178 1.82508 -0.720078 0
M  V30 1889 O 175.303 2.16082 0.117242 0
M  V30 1890 C 175.898 1.32559 -3.11791 0
M  V30 1891 C 174.457 1.83422 -3.28684 0
M  V30 1892 C 173.604 0.715567 -2.67908 0
M  V30 1893 H 176.555 -0.0602896 -1.58585 0
M  V30 1894 H 176.576 2.19533 -3.10782 0
M  V30 1895 H 176.088 0.526195 -3.84516 0
M  V30 1896 H 174.189 2.65986 -2.60926 0
M  V30 1897 H 174.302 1.97543 -4.36478 0
M  V30 1898 H 172.666 1.13758 -2.27884 0
M  V30 1899 H 173.449 -0.0720836 -3.43224 0
M  V30 1900 N 175.894 1.51508 0.433938 0
M  V30 1901 C 177.141 1.64345 1.18309 0
M  V30 1902 C 177.469 0.361315 1.91115 0
M  V30 1903 O 176.724 -0.654753 1.84422 0
M  V30 1904 C 177.023 2.79928 2.22205 0
M  V30 1905 C 176.689 4.19078 1.66387 0
M  V30 1906 C 175.351 4.56932 1.50887 0
M  V30 1907 C 177.703 5.05894 1.25381 0
M  V30 1908 C 175.031 5.79305 0.928608 0
M  V30 1909 C 177.383 6.2885 0.687823 0
M  V30 1910 C 176.047 6.65473 0.519755 0
M  V30 1911 H 175.317 0.601381 0.432923 0
M  V30 1912 H 177.964 1.85549 0.473676 0
M  V30 1913 H 176.269 2.52959 2.99197 0
M  V30 1914 H 177.966 2.87059 2.79997 0
M  V30 1915 H 174.556 3.89234 1.79428 0
M  V30 1916 H 178.74 4.77253 1.36175 0
M  V30 1917 H 173.996 6.06324 0.786186 0
M  V30 1918 H 178.17 6.95461 0.361581 0
M  V30 1919 H 175.797 7.6017 0.0679979 0
M  V30 1920 N 177.372 -0.689602 1.41712 0
M  V30 1921 C 178.621 -1.44534 1.40686 0
M  V30 1922 C 178.934 -1.95588 0.0213352 0
M  V30 1923 O 180.14 -2.71271 -0.111534 0
M  V30 1924 C 178.596 -2.61387 2.47396 0
M  V30 1925 C 178.204 -2.17094 3.91885 0
M  V30 1926 C 179.948 -3.38986 2.55517 0
M  V30 1927 C 177.855 -3.3094 4.90135 0
M  V30 1928 H 176.785 -0.542925 0.52321 0
M  V30 1929 H 179.436 -0.748054 1.6756 0
M  V30 1930 H 177.818 -3.33412 2.13664 0
M  V30 1931 H 178.992 -1.52318 4.34897 0
M  V30 1932 H 177.307 -1.52473 3.8748 0
M  V30 1933 H 179.904 -4.23747 3.26102 0
M  V30 1934 H 180.247 -3.84578 1.59391 0
M  V30 1935 H 180.78 -2.74021 2.8837 0
M  V30 1936 H 177.519 -2.90355 5.87685 0
M  V30 1937 H 177.039 -3.94546 4.51767 0
M  V30 1938 H 178.718 -3.9663 5.11169 0
M  V30 1939 N 178.85 -1.27639 -0.924453 0
M  V30 1940 C 179.797 -1.10644 -2.0255 0
M  V30 1941 C 180.767 -0.00658438 -1.66099 0
M  V30 1942 O 181.952 -0.16952 -1.90045 0
M  V30 1943 C 179.092 -0.76309 -3.36557 0
M  V30 1944 C 178.205 -1.94091 -3.85944 0
M  V30 1945 C 177.34 -1.53914 -5.08413 0
M  V30 1946 C 176.379 -2.68425 -5.50104 0
M  V30 1947 N 175.516 -2.28815 -6.63768 0
M  V30 1948 H 180.356 -2.04858 -2.16419 0
M  V30 1949 H 177.893 -1.01974 -1.06017 0
M  V30 1950 H 179.851 -0.544822 -4.13627 0
M  V30 1951 H 178.481 0.142102 -3.22487 0
M  V30 1952 H 177.533 -2.27162 -3.05125 0
M  V30 1953 H 178.845 -2.7998 -4.12811 0
M  V30 1954 H 177.999 -1.28231 -5.92994 0
M  V30 1955 H 176.738 -0.651391 -4.8333 0
M  V30 1956 H 175.743 -2.94819 -4.64071 0
M  V30 1957 H 176.968 -3.57826 -5.7718 0
M  V30 1958 H 174.914 -1.42495 -6.40337 0
M  V30 1959 H 174.831 -3.08242 -6.90306 0
M  V30 1960 H 176.099 -2.06387 -7.51681 0
M  V30 1961 N 180.328 1.1314 -1.09713 0
M  V30 1962 C 181.278 2.16709 -0.708593 0
M  V30 1963 C 182.262 1.58471 0.278523 0
M  V30 1964 O 183.454 1.76779 0.088427 0
M  V30 1965 C 180.583 3.43039 -0.133923 0
M  V30 1966 C 179.669 4.08277 -1.14763 0
M  V30 1967 N 180.06 4.48637 -2.33577 0
M  V30 1968 C 178.358 4.34954 -0.986446 0
M  V30 1969 C 179.059 4.9952 -2.98085 0
M  V30 1970 N 178.035 4.94561 -2.25632 0
M  V30 1971 H 181.837 2.45672 -1.61315 0
M  V30 1972 H 179.351 1.29967 -0.973775 0
M  V30 1973 H 181.348 4.16583 0.162465 0
M  V30 1974 H 180.008 3.15549 0.765447 0
M  V30 1975 H 181.019 4.41246 -2.7115 0
M  V30 1976 H 177.696 4.17258 -0.142008 0
M  V30 1977 H 179.086 5.40521 -3.99108 0
M  V30 1978 N 181.806 0.884767 1.30421 0
M  V30 1979 C 183.055 0.499164 1.95426 0
M  V30 1980 C 183.368 -0.95645 1.70621 0
M  V30 1981 O 184.574 -1.44889 2.29607 0
M  V30 1982 C 183.03 0.84177 3.49917 0
M  V30 1983 C 182.638 2.31514 3.83543 0
M  V30 1984 C 184.382 0.525355 4.21237 0
M  V30 1985 C 182.289 2.59939 5.31212 0
M  V30 1986 H 181.219 0.182944 0.73147 0
M  V30 1987 H 183.87 1.07971 1.48373 0
M  V30 1988 H 182.252 0.190311 3.95542 0
M  V30 1989 H 183.426 3.0109 3.48829 0
M  V30 1990 H 181.741 2.59907 3.25326 0
M  V30 1991 H 184.338 0.714762 5.29901 0
M  V30 1992 H 184.681 -0.535222 4.12845 0
M  V30 1993 H 185.214 1.134 3.81294 0
M  V30 1994 H 181.953 3.64736 5.44654 0
M  V30 1995 H 181.473 1.94972 5.67227 0
M  V30 1996 H 183.152 2.45429 5.98643 0
M  V30 1997 N 183.284 -1.43765 0.645699 0
M  V30 1998 C 184.214 -2.33471 -0.0370477 0
M  V30 1999 C 185.195 -1.49042 -0.819779 0
M  V30 2000 O 186.38 -1.77726 -0.782758 0
M  V30 2001 C 183.51 -3.32311 -1.0093 0
M  V30 2002 C 182.464 -4.2667 -0.337201 0
M  V30 2003 C 181.79 -5.1549 -1.42037 0
M  V30 2004 C 183.09 -5.16657 0.765706 0
M  V30 2005 H 184.784 -2.90809 0.712069 0
M  V30 2006 H 182.33 -1.39834 0.343876 0
M  V30 2007 H 184.283 -3.9396 -1.49578 0
M  V30 2008 H 183.007 -2.73213 -1.78948 0
M  V30 2009 H 181.666 -3.66374 0.128771 0
M  V30 2010 H 181.314 -4.52735 -2.1918 0
M  V30 2011 H 181.014 -5.79438 -0.975966 0
M  V30 2012 H 182.538 -5.80012 -1.90838 0
M  V30 2013 H 183.952 -5.72158 0.361702 0
M  V30 2014 H 182.349 -5.89286 1.13413 0
M  V30 2015 H 183.419 -4.56796 1.62683 0
M  V30 2016 N 184.763 -0.387143 -1.52771 0
M  V30 2017 C 185.991 0.195869 -2.05971 0
M  V30 2018 C 186.406 1.40691 -1.25903 0
M  V30 2019 O 185.763 1.79931 -0.305134 0
M  V30 2020 C 185.814 0.56812 -3.57008 0
M  V30 2021 O 185.535 -0.594803 -4.34043 0
M  V30 2022 C 187.036 1.20723 -4.26545 0
M  V30 2023 H 184.256 0.0300578 -0.670326 0
M  V30 2024 H 186.8 -0.551749 -1.96916 0
M  V30 2025 H 184.955 1.26564 -3.66143 0
M  V30 2026 H 185.369 -0.289322 -5.23701 0
M  V30 2027 H 186.843 1.41807 -5.33474 0
M  V30 2028 H 187.32 2.17395 -3.81623 0
M  V30 2029 H 187.926 0.550535 -4.21722 0
M  V30 2030 N 186.241 1.57166 -0.116904 0
M  V30 2031 C 187.189 2.16457 0.851418 0
M  V30 2032 C 188.183 1.11323 1.27686 0
M  V30 2033 O 189.389 1.2963 1.24884 0
M  V30 2034 H 185.764 0.69271 0.292672 0
M  V30 2035 H 187.735 2.96605 0.32685 0
M  V30 2036 C 186.484 2.77689 2.09246 0
M  V30 2037 H 185.807 3.58285 1.77402 0
M  V30 2038 H 187.247 3.22716 2.7501 0
M  V30 2039 C 185.706 1.74667 2.88085 0
M  V30 2040 O 186.236 1.19877 3.83396 0
M  V30 2041 N 184.442 1.44656 2.52038 0
M  V30 2042 H 183.989 1.89402 1.74599 0
M  V30 2043 H 183.947 0.759675 3.05084 0
M  V30 2044 N 187.719 -0.156864 1.56817 0
M  V30 2045 C 188.966 -0.871125 1.82805 0
M  V30 2046 C 189.294 -1.81611 0.696262 0
M  V30 2047 O 188.549 -1.93141 -0.315459 0
M  V30 2048 C 188.848 -1.68737 3.1506 0
M  V30 2049 C 188.514 -0.890045 4.42028 0
M  V30 2050 C 187.176 -0.670042 4.76512 0
M  V30 2051 C 189.528 -0.331769 5.20143 0
M  V30 2052 C 186.856 0.119104 5.86579 0
M  V30 2053 C 189.208 0.444365 6.31037 0
M  V30 2054 C 187.872 0.675035 6.64078 0
M  V30 2055 H 187.142 -0.318767 0.668931 0
M  V30 2056 H 189.789 -0.135274 1.91022 0
M  V30 2057 H 188.094 -2.49304 3.0225 0
M  V30 2058 H 189.791 -2.24331 3.3238 0
M  V30 2059 H 186.381 -1.07157 4.14988 0
M  V30 2060 H 190.565 -0.489043 4.93885 0
M  V30 2061 H 185.821 0.307417 6.10627 0
M  V30 2062 H 189.995 0.884139 6.90765 0
M  V30 2063 H 187.622 1.28839 7.49203 0
M  V30 2064 N 189.197 -1.51736 -0.425897 0
M  V30 2065 C 190.474 -1.55519 -1.1863 0
M  V30 2066 C 190.854 -0.326219 -2.08564 0
M  V30 2067 O 190.202 0.688012 -2.17896 0
M  V30 2068 C 190.412 -2.87521 -1.9782 0
M  V30 2069 C 191.76 -3.39899 -2.54468 0
M  V30 2070 O 192.784 -2.89148 -2.08019 0
M  V30 2071 O 191.643 -4.2848 -3.39215 0
M  V30 2072 H 188.737 -0.625739 -0.540721 0
M  V30 2073 H 191.283 -1.64055 -0.434038 0
M  V30 2074 H 190.055 -3.68422 -1.31836 0
M  V30 2075 H 189.678 -2.822 -2.80088 0
M  V30 2076 N 190.675 0.682077 -1.42076 0
M  V30 2077 C 191.952 1.43755 -1.32642 0
M  V30 2078 C 192.332 2.11063 0.0396611 0
M  V30 2079 O 191.68 2.02701 1.05474 0
M  V30 2080 C 191.89 2.44596 -2.48946 0
M  V30 2081 C 193.238 3.09454 -2.9073 0
M  V30 2082 O 194.262 2.54922 -2.48783 0
M  V30 2083 O 193.121 4.08253 -3.63307 0
M  V30 2084 H 190.215 0.640857 -0.522715 0
M  V30 2085 H 192.761 0.711415 -1.54068 0
M  V30 2086 H 191.533 1.93609 -3.40046 0
M  V30 2087 H 191.156 3.24701 -2.29467 0
M  V30 2088 N 192.153 1.28127 0.917671 0
M  V30 2089 C 193.4 1.15052 1.66641 0
M  V30 2090 C 193.728 -0.301677 1.92146 0
M  V30 2091 O 192.983 -1.23622 1.51711 0
M  V30 2092 C 193.282 1.89018 3.03327 0
M  V30 2093 C 192.948 3.38832 2.97496 0
M  V30 2094 C 191.61 3.79693 2.95613 0
M  V30 2095 C 193.962 4.34378 2.88036 0
M  V30 2096 C 191.29 5.14447 2.82066 0
M  V30 2097 C 193.642 5.69201 2.7603 0
M  V30 2098 C 192.306 6.09343 2.72502 0
M  V30 2099 H 191.576 0.421006 0.609783 0
M  V30 2100 H 194.223 1.58855 1.06945 0
M  V30 2101 H 192.528 1.37752 3.66785 0
M  V30 2102 H 194.225 1.76321 3.60156 0
M  V30 2103 H 190.815 3.06342 2.99754 0
M  V30 2104 H 194.999 4.03775 2.88581 0
M  V30 2105 H 190.255 5.44681 2.77728 0
M  V30 2106 H 194.429 6.42901 2.67678 0
M  V30 2107 H 192.056 7.13712 2.61762 0
M  V30 2108 N 193.631 -1.12557 1.10312 0
M  V30 2109 C 194.541 -2.21841 0.763142 0
M  V30 2110 C 195.557 -1.72354 -0.238801 0
M  V30 2111 O 196.733 -2.01249 -0.0778746 0
M  V30 2112 C 193.798 -3.46131 0.198632 0
M  V30 2113 C 192.859 -4.10464 1.25769 0
M  V30 2114 C 192.092 -5.28821 0.72002 0
M  V30 2115 O 192.315 -5.6859 -0.453993 0
M  V30 2116 O 191.249 -5.83437 1.47935 0
M  V30 2117 H 195.075 -2.53312 1.67532 0
M  V30 2118 H 192.66 -1.20867 0.878157 0
M  V30 2119 H 194.542 -4.2125 -0.112401 0
M  V30 2120 H 193.217 -3.16338 -0.686419 0
M  V30 2121 H 192.124 -3.3713 1.62156 0
M  V30 2122 H 193.457 -4.44408 2.11571 0
M  V30 2123 N 195.109 -0.891671 -1.2995 0
M  V30 2124 C 196.356 -0.513501 -1.95881 0
M  V30 2125 C 196.684 0.938655 -1.70351 0
M  V30 2126 O 195.939 1.67936 -1.00478 0
M  V30 2127 C 196.238 -0.742868 -3.49594 0
M  V30 2128 C 195.904 -2.17114 -3.95186 0
M  V30 2129 C 194.566 -2.56169 -4.07346 0
M  V30 2130 C 196.918 -3.10162 -4.18866 0
M  V30 2131 C 194.246 -3.87469 -4.4055 0
M  V30 2132 C 196.598 -4.41001 -4.53542 0
M  V30 2133 C 195.262 -4.79941 -4.63911 0
M  V30 2134 H 194.532 -0.187903 -0.71678 0
M  V30 2135 H 197.179 -1.1288 -1.54694 0
M  V30 2136 H 195.484 -0.044586 -3.91775 0
M  V30 2137 H 197.181 -0.429767 -3.9869 0
M  V30 2138 H 193.771 -1.85801 -3.86233 0
M  V30 2139 H 197.955 -2.81206 -4.08946 0
M  V30 2140 H 193.211 -4.17371 -4.46779 0
M  V30 2141 H 197.385 -5.13133 -4.70815 0
M  V30 2142 H 195.012 -5.81719 -4.89395 0
M  V30 2143 N 196.587 1.43421 -0.653314 0
M  V30 2144 C 197.817 2.05864 -0.174238 0
M  V30 2145 C 198.225 1.49052 1.16534 0
M  V30 2146 O 197.568 0.616481 1.73047 0
M  V30 2147 C 197.63 3.59499 -0.00875873 0
M  V30 2148 C 197.294 4.38893 -1.27364 0
M  V30 2149 C 198.291 4.70947 -2.20239 0
M  V30 2150 C 195.976 4.789 -1.51525 0
M  V30 2151 C 197.97 5.41916 -3.35568 0
M  V30 2152 C 195.657 5.49614 -2.67147 0
M  V30 2153 C 196.655 5.81044 -3.58994 0
M  V30 2154 O 196.343 6.50313 -4.72597 0
M  V30 2155 H 196.075 0.670345 -0.0872549 0
M  V30 2156 H 198.629 1.84913 -0.894226 0
M  V30 2157 H 196.859 3.79025 0.7666 0
M  V30 2158 H 198.548 4.0364 0.427687 0
M  V30 2159 H 199.314 4.40558 -2.02815 0
M  V30 2160 H 195.193 4.53843 -0.809158 0
M  V30 2161 H 198.737 5.66365 -4.07279 0
M  V30 2162 H 194.634 5.79419 -2.84505 0
M  V30 2163 H 195.402 6.68795 -4.71864 0
M  V30 2164 N 198.065 0.39524 1.52563 0
M  V30 2165 C 198.998 -0.4813 2.23067 0
M  V30 2166 C 199.976 -1.05927 1.23362 0
M  V30 2167 O 201.16 -1.10979 1.52368 0
M  V30 2168 C 198.287 -1.66676 2.9485 0
M  V30 2169 C 197.333 -1.21348 4.08873 0
M  V30 2170 S 198.166 -0.190102 5.35162 0
M  V30 2171 C 199.322 -1.38121 6.1047 0
M  V30 2172 H 199.555 0.117381 2.97068 0
M  V30 2173 H 197.088 0.179458 1.53354 0
M  V30 2174 H 199.046 -2.3466 3.36816 0
M  V30 2175 H 197.707 -2.23676 2.20518 0
M  V30 2176 H 196.9 -2.09877 4.58222 0
M  V30 2177 H 196.502 -0.612486 3.68951 0
M  V30 2178 H 198.794 -2.30726 6.37002 0
M  V30 2179 H 199.737 -0.928521 7.01986 0
M  V30 2180 H 200.145 -1.60071 5.41329 0
M  V30 2181 N 199.544 -1.57102 0.125237 0
M  V30 2182 C 200.792 -1.95021 -0.530198 0
M  V30 2183 C 201.113 -1.00982 -1.66816 0
M  V30 2184 O 200.383 -0.0672693 -1.95784 0
M  V30 2185 H 198.963 -0.720046 -0.198853 0
M  V30 2186 H 201.625 -1.93916 0.19564 0
M  V30 2187 H 200.721 -2.98211 -0.920681 0
M  V30 2188 N 201.022 0.148545 -1.56898 0
M  V30 2189 C 201.932 1.20293 -2.01412 0
M  V30 2190 C 202.948 1.47107 -0.929273 0
M  V30 2191 O 204.124 1.58807 -1.23863 0
M  V30 2192 C 201.189 2.51682 -2.38447 0
M  V30 2193 C 200.25 2.32529 -3.60872 0
M  V30 2194 C 199.483 3.57653 -3.96132 0
M  V30 2195 O 199.706 4.63771 -3.32073 0
M  V30 2196 O 198.64 3.50408 -4.89385 0
M  V30 2197 H 202.466 0.855025 -2.91416 0
M  V30 2198 H 200.051 0.357151 -1.45068 0
M  V30 2199 H 201.933 3.29147 -2.63135 0
M  V30 2200 H 200.608 2.86006 -1.51599 0
M  V30 2201 H 199.515 1.53019 -3.41373 0
M  V30 2202 H 200.848 2.03121 -4.48333 0
M  V30 2203 N 202.5 1.5196 0.417844 0
M  V30 2204 C 203.725 1.69717 1.1921 0
M  V30 2205 C 204.15 0.402148 1.83751 0
M  V30 2206 O 203.508 -0.639593 1.69643 0
M  V30 2207 C 203.556 2.82794 2.2374 0
M  V30 2208 O 202.66 2.47756 3.29683 0
M  V30 2209 H 202.001 0.565263 0.348387 0
M  V30 2210 H 204.531 1.98621 0.490985 0
M  V30 2211 H 204.541 3.07452 2.68212 0
M  V30 2212 H 203.216 3.76756 1.76146 0
M  V30 2213 H 201.793 2.33739 2.90552 0
M  V30 2214 N 203.978 -0.674533 1.42435 0
M  V30 2215 C 204.908 -1.80009 1.48724 0
M  V30 2216 C 205.889 -1.6659 0.343793 0
M  V30 2217 O 207.074 -1.86007 0.558137 0
M  V30 2218 C 204.204 -3.18306 1.38919 0
M  V30 2219 C 203.158 -3.46461 2.51294 0
M  V30 2220 C 202.484 -4.84335 2.26547 0
M  V30 2221 C 203.784 -3.43328 3.93603 0
M  V30 2222 H 205.478 -1.75004 2.42928 0
M  V30 2223 H 203.024 -0.840533 1.16923 0
M  V30 2224 H 204.977 -3.9678 1.41927 0
M  V30 2225 H 203.701 -3.2399 0.412094 0
M  V30 2226 H 202.36 -2.70348 2.47604 0
M  V30 2227 H 202.008 -4.86669 1.2713 0
M  V30 2228 H 201.708 -5.04136 3.01861 0
M  V30 2229 H 203.232 -5.65094 2.31304 0
M  V30 2230 H 204.646 -4.11772 3.98894 0
M  V30 2231 H 203.043 -3.74664 4.68771 0
M  V30 2232 H 204.113 -2.41897 4.20255 0
M  V30 2233 N 205.456 -1.28612 -0.910864 0
M  V30 2234 C 206.733 -1.06632 -1.63979 0
M  V30 2235 C 207.113 0.393351 -2.07403 0
M  V30 2236 O 206.461 1.37999 -1.82122 0
M  V30 2237 C 206.671 -2.0436 -2.8291 0
M  V30 2238 C 208.019 -2.34666 -3.5386 0
M  V30 2239 O 209.043 -2.02467 -2.93062 0
M  V30 2240 O 207.902 -2.89631 -4.63439 0
M  V30 2241 H 204.996 -0.407737 -0.7195 0
M  V30 2242 H 207.542 -1.39942 -0.959914 0
M  V30 2243 H 206.314 -3.02727 -2.47936 0
M  V30 2244 H 205.937 -1.71714 -3.58609 0
M  V30 2245 N 206.934 1.1197 -1.10907 0
M  V30 2246 C 207.867 2.16998 -0.706192 0
M  V30 2247 C 208.845 1.59903 0.294897 0
M  V30 2248 O 210.029 1.87513 0.192636 0
M  V30 2249 C 207.156 3.38673 -0.0427664 0
M  V30 2250 C 206.202 4.14414 -1.00811 0
M  V30 2251 S 207.035 4.72079 -2.52789 0
M  V30 2252 C 208.191 5.97083 -1.87731 0
M  V30 2253 H 208.424 2.50837 -1.59587 0
M  V30 2254 H 205.957 1.23508 -0.926555 0
M  V30 2255 H 207.915 4.09142 0.333668 0
M  V30 2256 H 206.576 3.03105 0.823788 0
M  V30 2257 H 205.769 5.016 -0.491259 0
M  V30 2258 H 205.371 3.49678 -1.3267 0
M  V30 2259 H 207.663 6.66599 -1.21044 0
M  V30 2260 H 208.606 6.53403 -2.72892 0
M  V30 2261 H 209.014 5.4837 -1.33979 0
M  V30 2262 N 208.412 0.89855 1.29475 0
M  V30 2263 C 209.322 0.379974 2.31502 0
M  V30 2264 C 210.338 -0.524695 1.659 0
M  V30 2265 O 211.514 -0.414551 1.97087 0
M  V30 2266 C 208.579 -0.385138 3.44554 0
M  V30 2267 C 207.64 0.550914 4.2575 0
M  V30 2268 C 206.873 -0.177778 5.33404 0
M  V30 2269 O 207.096 -1.40189 5.52904 0
M  V30 2270 O 206.03 0.479106 5.9999 0
M  V30 2271 H 209.856 1.22639 2.77837 0
M  V30 2272 H 207.441 0.662834 1.33891 0
M  V30 2273 H 209.323 -0.817841 4.13388 0
M  V30 2274 H 207.998 -1.20763 3.0033 0
M  V30 2275 H 206.905 1.03271 3.59564 0
M  V30 2276 H 208.238 1.33979 4.73614 0
M  V30 2277 N 209.89 -1.43072 0.660911 0
M  V30 2278 C 210.853 -2.29194 -0.0166406 0
M  V30 2279 C 211.853 -1.42609 -0.742912 0
M  V30 2280 O 213.043 -1.64155 -0.583004 0
M  V30 2281 C 210.175 -3.24831 -1.0343 0
M  V30 2282 H 211.368 -2.90596 0.741208 0
M  V30 2283 H 208.921 -1.5048 0.422532 0
M  V30 2284 H 209.656 -2.68339 -1.82111 0
M  V30 2285 H 209.441 -3.88676 -0.517082 0
M  V30 2286 H 210.931 -3.89451 -1.50723 0
M  V30 2287 N 211.368 -0.403325 -1.52352 0
M  V30 2288 C 212.616 0.174003 -2.0135 0
M  V30 2289 C 212.937 1.46139 -1.29106 0
M  V30 2290 O 212.207 1.91448 -0.415253 0
M  V30 2291 H 210.787 0.0672911 -0.743963 0
M  V30 2292 H 213.449 -0.538235 -1.87321 0
M  V30 2293 H 212.545 0.374254 -3.09848 0
M  V30 2294 N 212.846 1.57033 -0.133567 0
M  V30 2295 C 214.095 1.94861 0.520768 0
M  V30 2296 C 214.408 1.02012 1.66892 0
M  V30 2297 O 215.614 1.29365 2.38699 0
M  V30 2298 C 214.07 3.46362 0.977809 0
M  V30 2299 C 213.678 4.47773 -0.142674 0
M  V30 2300 C 215.422 3.93083 1.60269 0
M  V30 2301 C 213.329 5.90468 0.331883 0
M  V30 2302 H 212.259 0.727453 0.198315 0
M  V30 2303 H 214.91 1.82227 -0.215759 0
M  V30 2304 H 213.292 3.54282 1.7692 0
M  V30 2305 H 214.466 4.51536 -0.919317 0
M  V30 2306 H 212.781 4.10891 -0.675124 0
M  V30 2307 H 215.378 4.97121 1.96914 0
M  V30 2308 H 215.721 3.33876 2.48662 0
M  V30 2309 H 216.254 3.88025 0.876453 0
M  V30 2310 H 212.993 6.53463 -0.516341 0
M  V30 2311 H 212.513 5.90094 1.07469 0
M  V30 2312 H 214.192 6.42179 0.788332 0
M  V30 2313 N 214.325 -0.140222 1.56975 0
M  V30 2314 C 215.574 -0.850152 1.82908 0
M  V30 2315 C 215.887 -1.82028 0.715892 0
M  V30 2316 O 217.093 -2.57485 0.861016 0
M  V30 2317 C 215.549 -1.5625 3.24213 0
M  V30 2318 C 215.157 -0.63443 4.43485 0
M  V30 2319 C 216.901 -2.25881 3.59413 0
M  V30 2320 C 214.808 -1.34879 5.75814 0
M  V30 2321 H 213.738 -0.321221 0.682153 0
M  V30 2322 H 216.389 -0.102874 1.83211 0
M  V30 2323 H 214.771 -2.35565 3.18316 0
M  V30 2324 H 215.945 0.12398 4.60633 0
M  V30 2325 H 214.26 -0.0461836 4.16374 0
M  V30 2326 H 216.857 -2.79978 4.5554 0
M  V30 2327 H 217.2 -3.02693 2.85802 0
M  V30 2328 H 217.733 -1.53477 3.67001 0
M  V30 2329 H 214.472 -0.622385 6.52539 0
M  V30 2330 H 213.992 -2.07974 5.6259 0
M  V30 2331 H 215.671 -1.88784 6.18845 0
M  V30 2332 N 215.803 -1.52179 -0.40978 0
M  V30 2333 C 217.033 -1.69807 -1.17682 0
M  V30 2334 C 217.441 -0.406908 -1.84773 0
M  V30 2335 O 216.784 0.626863 -1.72673 0
M  V30 2336 C 216.846 -2.77712 -2.2829 0
M  V30 2337 C 216.51 -4.19481 -1.81341 0
M  V30 2338 C 217.507 -5.03345 -1.30154 0
M  V30 2339 C 215.192 -4.65713 -1.88194 0
M  V30 2340 C 217.186 -6.31511 -0.864416 0
M  V30 2341 C 214.873 -5.93869 -1.44093 0
M  V30 2342 C 215.871 -6.76597 -0.933023 0
M  V30 2343 O 215.559 -8.02354 -0.49838 0
M  V30 2344 H 215.291 -0.572372 -0.359675 0
M  V30 2345 H 217.845 -1.99511 -0.488311 0
M  V30 2346 H 216.075 -2.43383 -3.00502 0
M  V30 2347 H 217.764 -2.83946 -2.90051 0
M  V30 2348 H 218.53 -4.68819 -1.24232 0
M  V30 2349 H 214.409 -4.01424 -2.26671 0
M  V30 2350 H 217.953 -6.96033 -0.467286 0
M  V30 2351 H 213.85 -6.27903 -1.49694 0
M  V30 2352 H 214.618 -8.16135 -0.621747 0
M  V30 2353 N 217.281 0.66697 -1.42791 0
M  V30 2354 C 218.506 1.46004 -1.47301 0
M  V30 2355 C 218.931 1.87894 -0.0880317 0
M  V30 2356 O 218.289 1.56502 0.915253 0
M  V30 2357 C 218.337 2.68031 -2.41229 0
M  V30 2358 O 217.441 3.6659 -1.88906 0
M  V30 2359 H 216.782 0.43832 -0.49877 0
M  V30 2360 H 219.312 0.817391 -1.87563 0
M  V30 2361 H 219.322 3.1601 -2.58073 0
M  V30 2362 H 217.997 2.36883 -3.41847 0
M  V30 2363 H 216.574 3.25661 -1.81656 0
M  V30 2364 N 218.759 1.29093 0.90403 0
M  V30 2365 C 219.989 1.19516 1.68522 0
M  V30 2366 C 220.397 -0.24738 1.87576 0
M  V30 2367 O 219.74 -1.17798 1.40959 0
M  V30 2368 C 219.802 1.83249 3.0929 0
M  V30 2369 C 219.466 3.32531 3.13484 0
M  V30 2370 C 220.463 4.28821 2.93953 0
M  V30 2371 C 218.148 3.73656 3.35688 0
M  V30 2372 C 220.142 5.64212 2.96553 0
M  V30 2373 C 217.829 5.0917 3.37919 0
M  V30 2374 C 218.827 6.04258 3.18373 0
M  V30 2375 O 218.515 7.37298 3.20385 0
M  V30 2376 H 218.247 0.415467 0.533257 0
M  V30 2377 H 220.801 1.70912 1.13922 0
M  V30 2378 H 219.031 1.26358 3.65473 0
M  V30 2379 H 220.72 1.68054 3.69476 0
M  V30 2380 H 221.486 3.98382 2.76616 0
M  V30 2381 H 217.365 3.00101 3.49943 0
M  V30 2382 H 220.909 6.38407 2.81216 0
M  V30 2383 H 216.806 5.39256 3.54787 0
M  V30 2384 H 217.574 7.46048 3.36681 0
M  V30 2385 N 220.237 -1.11381 1.11499 0
M  V30 2386 C 221.467 -1.86663 0.885464 0
M  V30 2387 C 221.875 -1.80464 -0.568281 0
M  V30 2388 O 221.218 -1.18445 -1.40415 0
M  V30 2389 C 221.28 -3.36337 1.26956 0
M  V30 2390 C 220.944 -3.66304 2.73259 0
M  V30 2391 C 221.941 -3.63733 3.71476 0
M  V30 2392 C 219.626 -3.9529 3.09921 0
M  V30 2393 C 221.62 -3.89725 5.04374 0
M  V30 2394 C 219.307 -4.20941 4.43004 0
M  V30 2395 C 220.305 -4.18147 5.40039 0
M  V30 2396 O 219.993 -4.43153 6.70724 0
M  V30 2397 H 219.725 -0.597114 0.316908 0
M  V30 2398 H 222.279 -1.41782 1.48617 0
M  V30 2399 H 220.509 -3.81826 0.611999 0
M  V30 2400 H 222.198 -3.92986 1.01573 0
M  V30 2401 H 222.964 -3.41389 3.44498 0
M  V30 2402 H 218.843 -3.966 2.35009 0
M  V30 2403 H 222.387 -3.8746 5.80104 0
M  V30 2404 H 218.284 -4.42761 4.69716 0
M  V30 2405 H 219.052 -4.60717 6.76522 0
M  V30 2406 N 221.715 -0.905404 -1.28997 0
M  V30 2407 C 222.662 -0.385892 -2.27551 0
M  V30 2408 C 223.632 0.535113 -1.57244 0
M  V30 2409 O 224.817 0.459119 -1.85194 0
M  V30 2410 C 221.957 0.375461 -3.43051 0
M  V30 2411 C 221.07 -0.577092 -4.28128 0
M  V30 2412 C 220.205 0.201879 -5.30816 0
M  V30 2413 C 219.244 -0.744829 -6.07551 0
M  V30 2414 N 218.381 9.42587e-05 -7.021 0
M  V30 2415 H 223.221 -1.23139 -2.71368 0
M  V30 2416 H 220.758 -0.618542 -1.33463 0
M  V30 2417 H 222.716 0.832992 -4.088 0
M  V30 2418 H 221.346 1.18537 -3.00248 0
M  V30 2419 H 220.398 -1.15315 -3.62501 0
M  V30 2420 H 221.71 -1.30152 -4.8152 0
M  V30 2421 H 220.864 0.720351 -6.02408 0
M  V30 2422 H 219.603 0.959413 -4.7817 0
M  V30 2423 H 218.608 -1.27475 -5.34818 0
M  V30 2424 H 219.833 -1.50178 -6.62286 0
M  V30 2425 H 217.779 0.739791 -6.51815 0
M  V30 2426 H 217.696 -0.664321 -7.53076 0
M  V30 2427 H 218.964 0.498644 -7.77903 0
M  V30 2428 N 223.193 1.4272 -0.668489 0
M  V30 2429 C 224.441 2.01226 -0.187769 0
M  V30 2430 C 224.762 1.53092 1.2078 0
M  V30 2431 O 224.032 0.74993 1.80977 0
M  V30 2432 H 222.612 0.744041 -0.0664272 0
M  V30 2433 H 225.274 1.74723 -0.863583 0
M  V30 2434 H 224.37 3.11556 -0.184166 0
M  V30 2435 N 224.671 0.411399 1.52136 0
M  V30 2436 C 225.581 -0.419774 2.30814 0
M  V30 2437 C 226.597 -1.0515 1.38634 0
M  V30 2438 O 227.773 -1.05252 1.71709 0
M  V30 2439 C 224.838 -1.52019 3.11594 0
M  V30 2440 C 223.899 -0.91129 4.19516 0
M  V30 2441 C 223.132 -1.95927 4.96436 0
M  V30 2442 O 223.355 -3.17775 4.73683 0
M  V30 2443 O 222.289 -1.56423 5.81219 0
M  V30 2444 H 226.115 0.221805 3.02889 0
M  V30 2445 H 223.7 0.174547 1.48377 0
M  V30 2446 H 225.582 -2.15898 3.61892 0
M  V30 2447 H 224.257 -2.14633 2.42311 0
M  V30 2448 H 223.164 -0.235157 3.7336 0
M  V30 2449 H 224.497 -0.32904 4.91099 0
M  V30 2450 N 226.149 -1.5696 0.141893 0
M  V30 2451 C 227.059 -2.20066 -0.812905 0
M  V30 2452 C 228.075 -1.18344 -1.27557 0
M  V30 2453 O 229.251 -1.50902 -1.33381 0
M  V30 2454 C 226.316 -2.80583 -2.03652 0
M  V30 2455 C 225.377 -3.97414 -1.62359 0
M  V30 2456 C 224.61 -4.55036 -2.78887 0
M  V30 2457 O 224.833 -4.11538 -3.94959 0
M  V30 2458 O 223.767 -5.45376 -2.54653 0
M  V30 2459 H 227.593 -3.02157 -0.305746 0
M  V30 2460 H 225.178 -1.49159 -0.0848799 0
M  V30 2461 H 227.06 -3.19067 -2.75272 0
M  V30 2462 H 225.735 -2.01508 -2.5333 0
M  V30 2463 H 224.642 -3.63656 -0.877775 0
M  V30 2464 H 225.975 -4.77994 -1.17401 0
M  V30 2465 N 227.627 0.131896 -1.57047 0
M  V30 2466 C 228.876 0.84044 -1.83356 0
M  V30 2467 C 229.189 1.81646 -0.725535 0
M  V30 2468 O 230.395 2.57025 -0.874659 0
M  V30 2469 C 228.851 1.54528 -3.25037 0
M  V30 2470 C 228.459 0.610902 -4.43815 0
M  V30 2471 C 230.203 2.23972 -3.60606 0
M  V30 2472 C 228.11 1.31823 -5.76521 0
M  V30 2473 H 227.04 0.317599 -0.683847 0
M  V30 2474 H 229.691 0.0931561 -1.83263 0
M  V30 2475 H 228.073 2.33873 -3.19561 0
M  V30 2476 H 229.247 -0.148407 -4.60561 0
M  V30 2477 H 227.562 0.0241016 -4.16393 0
M  V30 2478 H 230.159 2.77558 -4.57018 0
M  V30 2479 H 230.502 3.01173 -2.87403 0
M  V30 2480 H 231.035 1.51529 -3.6781 0
M  V30 2481 H 227.774 0.587771 -6.52859 0
M  V30 2482 H 227.294 2.04987 -5.63685 0
M  V30 2483 H 228.973 1.855 -6.19838 0
M  V30 2484 N 229.106 1.52395 0.401703 0
M  V30 2485 C 230.334 1.70676 1.16949 0
M  V30 2486 C 230.749 0.419503 1.8408 0
M  V30 2487 O 230.106 -0.605061 1.72178 0
M  V30 2488 C 230.157 2.84753 2.22706 0
M  V30 2489 O 229.878 4.08495 1.58314 0
M  V30 2490 C 231.379 3.14608 3.12309 0
M  V30 2491 H 228.599 0.571787 0.351142 0
M  V30 2492 H 231.143 1.98987 0.471652 0
M  V30 2493 H 229.298 2.58941 2.88147 0
M  V30 2494 H 229.712 4.72117 2.28485 0
M  V30 2495 H 231.186 3.97923 3.82572 0
M  V30 2496 H 231.663 2.28464 3.75101 0
M  V30 2497 H 232.269 3.42212 2.52529 0
M  V30 2498 N 230.584 -0.659388 1.43143 0
M  V30 2499 C 231.995 -1.24041 1.39537 0
M  V30 2500 C 232.346 -1.95963 0.0963364 0
M  V30 2501 O 231.471 -2.00892 -0.804438 0
M  V30 2502 C 232.066 -2.25601 2.52764 0
M  V30 2503 C 230.625 -2.79195 2.52443 0
M  V30 2504 C 229.772 -1.53743 2.30778 0
M  V30 2505 H 232.723 -0.451792 1.52133 0
M  V30 2506 H 232.744 -3.07651 2.23899 0
M  V30 2507 H 232.256 -1.73226 3.47296 0
M  V30 2508 H 230.357 -3.35649 1.61773 0
M  V30 2509 H 230.47 -3.2716 3.50004 0
M  V30 2510 H 228.834 -1.80869 1.79328 0
M  V30 2511 H 229.617 -1.03312 3.27386 0
M  V30 2512 N 232.062 -1.29571 -0.897171 0
M  V30 2513 C 233.478 -1.07637 -1.17841 0
M  V30 2514 C 233.678 0.170713 -2.00776 0
M  V30 2515 O 232.734 0.867768 -2.3712 0
M  V30 2516 C 234.047 -2.3332 -1.8969 0
M  V30 2517 C 235.595 -2.38664 -2.02505 0
M  V30 2518 C 236.07 -3.64157 -2.77765 0
M  V30 2519 N 237.561 -3.64894 -2.85318 0
M  V30 2520 C 238.296 -4.58679 -3.44094 0
M  V30 2521 N 237.792 -5.62799 -4.04017 0
M  V30 2522 N 239.585 -4.46245 -3.41793 0
M  V30 2523 H 231.736 -2.09598 -0.343883 0
M  V30 2524 H 233.999 -0.923333 -0.214848 0
M  V30 2525 H 233.705 -3.24262 -1.36187 0
M  V30 2526 H 233.579 -2.41025 -2.9015 0
M  V30 2527 H 235.966 -1.48208 -2.55183 0
M  V30 2528 H 236.047 -2.34943 -1.01171 0
M  V30 2529 H 235.691 -4.54965 -2.25763 0
M  V30 2530 H 235.621 -3.65137 -3.7945 0
M  V30 2531 H 238.112 -2.89613 -2.42761 0
M  V30 2532 H 238.425 -6.3048 -4.46895 0
M  V30 2533 H 236.77 -5.66605 -4.02472 0
M  V30 2534 H 239.961 -3.64094 -2.94199 0
M  V30 2535 H 240.134 -5.19518 -3.87304 0
M  V30 2536 N 233.54 1.10788 -1.12088 0
M  V30 2537 C 234.787 1.82671 -0.873931 0
M  V30 2538 C 235.115 1.85004 0.600311 0
M  V30 2539 O 234.37 1.30365 1.45957 0
M  V30 2540 C 234.669 3.29294 -1.38926 0
M  V30 2541 C 234.335 3.47113 -2.87791 0
M  V30 2542 C 232.997 3.51684 -3.28439 0
M  V30 2543 C 235.349 3.52808 -3.83635 0
M  V30 2544 C 232.677 3.59513 -4.63646 0
M  V30 2545 C 235.029 3.62169 -5.18668 0
M  V30 2546 C 233.693 3.65003 -5.58864 0
M  V30 2547 H 232.963 0.668441 -0.319794 0
M  V30 2548 H 235.61 1.30613 -1.40045 0
M  V30 2549 H 233.915 3.83894 -0.783122 0
M  V30 2550 H 235.612 3.83416 -1.17443 0
M  V30 2551 H 232.202 3.4423 -2.5535 0
M  V30 2552 H 236.386 3.4853 -3.53328 0
M  V30 2553 H 231.642 3.59987 -4.94185 0
M  V30 2554 H 235.816 3.6552 -5.92763 0
M  V30 2555 H 233.443 3.70822 -6.63623 0
M  V30 2556 N 235.018 0.912232 1.28515 0
M  V30 2557 C 236.264 0.545405 1.95328 0
M  V30 2558 C 236.597 -0.908313 1.71649 0
M  V30 2559 O 235.872 -1.64575 1.03659 0
M  V30 2560 C 236.155 0.853483 3.4984 0
M  V30 2561 C 236.008 2.35982 3.82926 0
M  V30 2562 C 237.327 0.348589 4.38717 0
M  V30 2563 H 234.446 0.199626 0.709449 0
M  V30 2564 H 237.088 1.1412 1.5191 0
M  V30 2565 H 235.238 0.34643 3.86952 0
M  V30 2566 H 236.91 2.93738 3.55691 0
M  V30 2567 H 235.153 2.81543 3.30024 0
M  V30 2568 H 235.824 2.52593 4.90816 0
M  V30 2569 H 238.3 0.78294 4.08668 0
M  V30 2570 H 237.176 0.593242 5.45685 0
M  V30 2571 H 237.437 -0.751049 4.35674 0
M  V30 2572 N 236.496 -1.42363 0.676048 0
M  V30 2573 C 237.726 -2.05561 0.206967 0
M  V30 2574 C 238.134 -1.50887 -1.14148 0
M  V30 2575 O 237.477 -0.643933 -1.72044 0
M  V30 2576 C 237.539 -3.5944 0.0659508 0
M  V30 2577 C 237.203 -4.36812 1.34331 0
M  V30 2578 C 238.2 -4.67383 2.27704 0
M  V30 2579 C 235.885 -4.76429 1.59125 0
M  V30 2580 C 237.879 -5.36509 3.44147 0
M  V30 2581 C 235.566 -5.45294 2.75857 0
M  V30 2582 C 236.564 -5.75259 3.68193 0
M  V30 2583 O 236.252 -6.42712 4.82883 0
M  V30 2584 H 235.984 -0.668872 0.0979084 0
M  V30 2585 H 238.538 -1.83467 0.923531 0
M  V30 2586 H 236.768 -3.80197 -0.706204 0
M  V30 2587 H 238.457 -4.0427 -0.363418 0
M  V30 2588 H 239.223 -4.37275 2.09799 0
M  V30 2589 H 235.102 -4.52498 0.881258 0
M  V30 2590 H 238.646 -5.59814 4.16238 0
M  V30 2591 H 234.543 -5.7482 2.93688 0
M  V30 2592 H 235.311 -6.61204 4.82444 0
M  V30 2593 N 237.974 -0.419461 -1.51915 0
M  V30 2594 C 239.223 0.154346 -2.01109 0
M  V30 2595 C 239.536 1.45338 -1.30905 0
M  V30 2596 O 240.742 2.10906 -1.7097 0
M  V30 2597 C 239.198 0.325615 -3.58424 0
M  V30 2598 C 238.806 -0.961934 -4.37551 0
M  V30 2599 C 240.55 0.854155 -4.15818 0
M  V30 2600 C 238.457 -0.757287 -5.86531 0
M  V30 2601 H 237.387 0.0614563 -0.751491 0
M  V30 2602 H 240.038 -0.54649 -1.75173 0
M  V30 2603 H 238.42 1.08903 -3.80731 0
M  V30 2604 H 239.594 -1.7323 -4.26999 0
M  V30 2605 H 237.909 -1.41766 -3.91524 0
M  V30 2606 H 240.506 1.02346 -5.24814 0
M  V30 2607 H 240.849 1.83172 -3.73837 0
M  V30 2608 H 241.382 0.149528 -3.97519 0
M  V30 2609 H 238.121 -1.70671 -6.32892 0
M  V30 2610 H 237.641 -0.0264061 -5.99794 0
M  V30 2611 H 239.32 -0.403482 -6.45741 0
M  V30 2612 N 239.452 1.56882 -0.150215 0
M  V30 2613 C 240.677 2.01027 0.510184 0
M  V30 2614 C 241.102 1.02966 1.57415 0
M  V30 2615 O 240.46 0.00590158 1.81299 0
M  V30 2616 C 240.508 3.43899 1.08472 0
M  V30 2617 O 239.612 3.4885 2.19948 0
M  V30 2618 H 238.953 0.652233 0.124451 0
M  V30 2619 H 241.483 2.03093 -0.247894 0
M  V30 2620 H 241.493 3.82766 1.41259 0
M  V30 2621 H 240.168 4.14776 0.305582 0
M  V30 2622 H 238.745 3.21827 1.88366 0
M  V30 2623 N 240.93 -0.123565 1.57115 0
M  V30 2624 C 242.207 -0.862196 1.75572 0
M  V30 2625 C 242.587 -1.98279 0.724475 0
M  V30 2626 O 241.935 -2.27102 -0.252407 0
M  V30 2627 C 242.145 -1.38309 3.20424 0
M  V30 2628 C 243.493 -1.83724 3.82793 0
M  V30 2629 O 244.517 -1.47999 3.23998 0
M  V30 2630 O 243.376 -2.49685 4.86127 0
M  V30 2631 H 240.47 -0.409113 0.718718 0
M  V30 2632 H 243.016 -0.107661 1.69358 0
M  V30 2633 H 241.788 -0.578889 3.86994 0
M  V30 2634 H 241.411 -2.20046 3.31158 0
M  V30 2635 N 242.408 -1.52605 -0.393616 0
M  V30 2636 C 243.656 -1.67093 -1.13685 0
M  V30 2637 C 243.977 -0.411011 -1.90619 0
M  V30 2638 O 243.247 0.574491 -1.87287 0
M  V30 2639 H 241.827 -0.615923 -0.422668 0
M  V30 2640 H 244.489 -1.89704 -0.447039 0
M  V30 2641 H 243.585 -2.51922 -1.84232 0
M  V30 2642 N 243.887 0.651787 -1.4349 0
M  V30 2643 C 244.817 1.77621 -1.51569 0
M  V30 2644 C 245.798 1.66022 -0.370253 0
M  V30 2645 O 246.983 1.85095 -0.587658 0
M  V30 2646 C 244.113 3.16056 -1.43966 0
M  V30 2647 C 243.067 3.4242 -2.56774 0
M  V30 2648 C 242.393 4.8067 -2.34223 0
M  V30 2649 C 243.693 3.37023 -3.99015 0
M  V30 2650 H 245.387 1.71117 -2.45681 0
M  V30 2651 H 242.933 0.821825 -1.18246 0
M  V30 2652 H 244.886 3.94472 -1.48221 0
M  V30 2653 H 243.61 3.23293 -0.463586 0
M  V30 2654 H 242.269 2.66375 -2.51873 0
M  V30 2655 H 241.917 4.84585 -1.34856 0
M  V30 2656 H 241.617 4.9927 -3.09844 0
M  V30 2657 H 243.141 5.61342 -2.40265 0
M  V30 2658 H 244.555 4.05374 -4.05395 0
M  V30 2659 H 242.952 3.67159 -4.74673 0
M  V30 2660 H 244.022 2.3518 -4.2405 0
M  V30 2661 N 245.365 1.30045 0.890287 0
M  V30 2662 C 246.612 1.18561 1.64163 0
M  V30 2663 C 246.94 -0.260852 1.92743 0
M  V30 2664 O 246.195 -1.20376 1.54299 0
M  V30 2665 C 246.494 1.95409 2.99249 0
M  V30 2666 C 246.16 3.45066 2.90242 0
M  V30 2667 C 244.822 3.85878 2.87492 0
M  V30 2668 C 247.174 4.4039 2.78758 0
M  V30 2669 C 244.502 5.20314 2.7109 0
M  V30 2670 C 246.854 5.74928 2.63894 0
M  V30 2671 C 245.518 6.14986 2.59516 0
M  V30 2672 H 244.788 0.433846 0.600715 0
M  V30 2673 H 247.435 1.61088 1.03552 0
M  V30 2674 H 245.74 1.45501 3.63781 0
M  V30 2675 H 247.437 1.8392 3.56334 0
M  V30 2676 H 244.027 3.12631 2.93189 0
M  V30 2677 H 248.211 4.09806 2.79952 0
M  V30 2678 H 243.467 5.50449 2.66112 0
M  V30 2679 H 247.641 6.48434 2.53981 0
M  V30 2680 H 245.268 7.19104 2.46565 0
M  V30 2681 N 246.843 -1.10192 1.12674 0
M  V30 2682 C 247.753 -2.20172 0.810026 0
M  V30 2683 C 248.769 -1.72821 -0.202188 0
M  V30 2684 O 249.945 -2.01369 -0.0351691 0
M  V30 2685 C 247.01 -3.45631 0.272007 0
M  V30 2686 C 246.071 -4.07704 1.34447 0
M  V30 2687 C 245.304 -5.27175 0.832029 0
M  V30 2688 O 245.527 -5.69425 -0.333284 0
M  V30 2689 O 244.461 -5.80168 1.60277 0
M  V30 2690 H 248.287 -2.49701 1.72867 0
M  V30 2691 H 245.872 -1.18977 0.903597 0
M  V30 2692 H 247.754 -4.21394 -0.0230219 0
M  V30 2693 H 246.429 -3.17723 -0.619164 0
M  V30 2694 H 245.336 -3.33614 1.6927 0
M  V30 2695 H 246.669 -4.3982 2.2095 0
M  V30 2696 N 248.321 -0.919034 -1.28029 0
M  V30 2697 C 249.231 -0.416756 -2.30869 0
M  V30 2698 C 250.247 0.498235 -1.66714 0
M  V30 2699 O 251.423 0.383144 -1.97722 0
M  V30 2700 C 248.488 0.330274 -3.45123 0
M  V30 2701 C 247.549 -0.618578 -4.2482 0
M  V30 2702 C 246.782 0.0928959 -5.33619 0
M  V30 2703 O 247.005 1.31375 -5.55065 0
M  V30 2704 O 245.939 -0.574499 -5.99152 0
M  V30 2705 H 249.765 -1.27043 -2.75851 0
M  V30 2706 H 247.35 -0.684052 -1.3282 0
M  V30 2707 H 249.232 0.751972 -4.14636 0
M  V30 2708 H 247.907 1.1597 -3.02213 0
M  V30 2709 H 246.814 -1.08978 -3.57875 0
M  V30 2710 H 248.147 -1.41497 -4.71423 0
M  V30 2711 N 249.799 1.42003 -0.683588 0
M  V30 2712 C 250.746 2.30798 -0.0107309 0
M  V30 2713 C 251.716 1.4645 0.783688 0
M  V30 2714 O 252.901 1.75263 0.754156 0
M  V30 2715 C 250.041 3.3238 0.928306 0
M  V30 2716 C 249.154 4.31814 0.126776 0
M  V30 2717 C 248.289 5.20468 1.06236 0
M  V30 2718 C 247.328 6.11577 0.253035 0
M  V30 2719 N 246.465 6.92754 1.14179 0
M  V30 2720 H 251.305 2.8778 -0.773727 0
M  V30 2721 H 248.842 1.41745 -0.393283 0
M  V30 2722 H 250.8 3.89813 1.48666 0
M  V30 2723 H 249.43 2.76976 1.65783 0
M  V30 2724 H 248.482 3.76427 -0.54833 0
M  V30 2725 H 249.794 4.96276 -0.501192 0
M  V30 2726 H 248.948 5.82677 1.69035 0
M  V30 2727 H 247.687 4.56204 1.7242 0
M  V30 2728 H 246.692 5.48428 -0.388108 0
M  V30 2729 H 247.917 6.77892 -0.404839 0
M  V30 2730 H 245.863 6.3111 1.78987 0
M  V30 2731 H 245.78 7.53855 0.569111 0
M  V30 2732 H 247.048 7.59441 1.75697 0
M  V30 2733 N 251.277 0.427512 1.51691 0
M  V30 2734 C 252.507 -0.140986 2.06118 0
M  V30 2735 C 252.915 -1.37854 1.29588 0
M  V30 2736 O 252.258 -1.80411 0.346036 0
M  V30 2737 C 252.32 -0.538276 3.55447 0
M  V30 2738 C 251.984 0.591095 4.53161 0
M  V30 2739 C 252.981 1.46027 4.98971 0
M  V30 2740 C 250.666 0.769028 4.96378 0
M  V30 2741 C 252.66 2.49216 5.8666 0
M  V30 2742 C 250.347 1.80421 5.83859 0
M  V30 2743 C 251.345 2.66417 6.28897 0
M  V30 2744 O 251.033 3.68159 7.14643 0
M  V30 2745 H 250.765 -0.0157455 0.675817 0
M  V30 2746 H 253.319 0.602495 1.96365 0
M  V30 2747 H 251.549 -1.33432 3.6295 0
M  V30 2748 H 253.238 -1.0368 3.92435 0
M  V30 2749 H 254.004 1.33429 4.66285 0
M  V30 2750 H 249.883 0.109273 4.6087 0
M  V30 2751 H 253.427 3.16372 6.21735 0
M  V30 2752 H 249.324 1.93042 6.15959 0
M  V30 2753 H 250.092 3.64622 7.32798 0
M  V30 2754 O 252.794 -1.58699 0.299458 0
M  V30 2755 H 253.485 -1.91872 -0.265495 0
M  V30 END ATOM
M  V30 BEGIN BOND
M  V30 END BOND
M  V30 END CTAB
M  END
$$$$
