drugbank_target|Q8I3T9 60S ribosomal protein L2 (DB11638)
 OpenBabel12092121103D

  0  0  0     0  0            999 V3000
M  V30 BEGIN CTAB
M  V30 COUNTS 4046 4081 0 0 0
M  V30 BEGIN ATOM
M  V30 1 H -0.908 1.98254 -0.117106 0
M  V30 2 N 0 1.576 0 0
M  V30 3 C 0.933 2.03868 1.02534 0
M  V30 4 C 1.911 0.928543 1.3348 0
M  V30 5 O 3.095 1.19667 1.45644 0
M  V30 6 C 0.222 2.43627 2.35294 0
M  V30 7 C -0.732 3.65373 2.2001 0
M  V30 8 S 0.101 5.13292 1.52614 0
M  V30 9 C 1.257 5.56322 2.86805 0
M  V30 10 H 1.49 2.90518 0.631377 0
M  V30 11 H -0.977 1.52953 0.210867 0
M  V30 12 H 0.981 2.67203 3.11629 0
M  V30 13 H -0.358 1.57376 2.7183 0
M  V30 14 H -1.165 3.90944 3.18086 0
M  V30 15 H -1.563 3.418 1.51819 0
M  V30 16 H 0.729 5.58782 3.83104 0
M  V30 17 H 1.672 6.56266 2.65933 0
M  V30 18 H 2.08 4.83886 2.90714 0
M  V30 19 N 1.4781 -0.272755 1.55222 0
M  V30 20 C 2.7261 -1.00234 1.75492 0
M  V30 21 C 3.0471 -1.8681 0.5592 0
M  V30 22 O 2.3171 -1.91215 -0.425882 0
M  V30 23 H 0.8971 -0.373076 0.647166 0
M  V30 24 H 3.5591 -0.296926 1.92625 0
M  V30 25 H 2.6551 -1.63913 2.65592 0
M  V30 26 N 2.9562 -1.48159 -0.537278 0
M  V30 27 C 4.3722 -1.34118 -0.865129 0
M  V30 28 C 4.5722 -0.346678 -1.98495 0
M  V30 29 O 3.6282 0.234715 -2.51407 0
M  V30 30 C 4.9412 -2.73963 -1.23954 0
M  V30 31 C 6.4892 -2.82397 -1.34984 0
M  V30 32 C 6.9642 -4.22928 -1.75772 0
M  V30 33 N 8.4552 -4.25566 -1.82887 0
M  V30 34 C 9.1902 -5.31235 -2.15817 0
M  V30 35 N 8.6862 -6.47189 -2.47222 0
M  V30 36 N 10.4792 -5.18624 -2.16761 0
M  V30 37 H 2.6302 -2.1144 0.201715 0
M  V30 38 H 4.8932 -0.947598 0.0275949 0
M  V30 39 H 4.5992 -3.48264 -0.490381 0
M  V30 40 H 4.4732 -3.0702 -2.19132 0
M  V30 41 H 6.8602 -2.08356 -2.08978 0
M  V30 42 H 6.9412 -2.5297 -0.379448 0
M  V30 43 H 6.5852 -4.97482 -1.02341 0
M  V30 44 H 6.5152 -4.49794 -2.73848 0
M  V30 45 H 9.0062 -3.41924 -1.60924 0
M  V30 46 H 9.3192 -7.23564 -2.71433 0
M  V30 47 H 7.6642 -6.50476 -2.44757 0
M  V30 48 H 10.8552 -4.27056 -1.91679 0
M  V30 49 H 11.0282 -6.01078 -2.42093 0
M  V30 50 N 4.4343 0.785586 -1.36625 0
M  V30 51 C 5.6803 1.54591 -1.31261 0
M  V30 52 C 6.0133 1.93906 0.106823 0
M  V30 53 O 5.2883 1.63007 1.06108 0
M  V30 54 C 5.5713 2.82038 -2.23889 0
M  V30 55 C 5.4243 2.49066 -3.74548 0
M  V30 56 C 6.7433 3.83887 -2.15217 0
M  V30 57 H 3.8623 0.560846 -0.478143 0
M  V30 58 H 6.5043 0.902278 -1.67209 0
M  V30 59 H 4.6543 3.36961 -1.93363 0
M  V30 60 H 6.3263 2.00164 -4.15611 0
M  V30 61 H 4.5693 1.81954 -3.93796 0
M  V30 62 H 5.2403 3.40109 -4.34776 0
M  V30 63 H 7.7163 3.38421 -2.42096 0
M  V30 64 H 6.5923 4.70806 -2.82193 0
M  V30 65 H 6.8533 4.27131 -1.14068 0
M  V30 66 N 5.9124 1.20967 1.01018 0
M  V30 67 C 7.1614 1.01796 1.74128 0
M  V30 68 C 7.4744 -0.449691 1.90361 0
M  V30 69 O 8.6804 -0.76068 2.60626 0
M  V30 70 C 7.1364 1.7727 3.13215 0
M  V30 71 C 6.7444 3.28171 3.04972 0
M  V30 72 C 8.4884 1.66489 3.90489 0
M  V30 73 C 6.3954 3.96156 4.39107 0
M  V30 74 H 5.3254 0.377276 0.652824 0
M  V30 75 H 7.9764 1.44651 1.12909 0
M  V30 76 H 6.3584 1.27205 3.75013 0
M  V30 77 H 7.5324 3.85499 2.52443 0
M  V30 78 H 5.8474 3.39437 2.41188 0
M  V30 79 H 8.4444 2.14617 4.89738 0
M  V30 80 H 8.7874 0.6222 4.11624 0
M  V30 81 H 9.3204 2.14003 3.35332 0
M  V30 82 H 6.0594 5.00604 4.23174 0
M  V30 83 H 5.5794 3.43617 4.91617 0
M  V30 84 H 7.2584 4.00774 5.07926 0
M  V30 85 N 7.3905 -1.2043 1.01659 0
M  V30 86 C 8.8065 -1.41852 0.731442 0
M  V30 87 C 9.0065 -1.89358 -0.688898 0
M  V30 88 O 8.0625 -2.06247 -1.45666 0
M  V30 89 C 9.3755 -2.44019 1.75714 0
M  V30 90 C 10.9235 -2.57785 1.77527 0
M  V30 91 C 11.3985 -3.63194 2.79023 0
M  V30 92 N 12.8895 -3.70678 2.77763 0
M  V30 93 C 13.6245 -4.51897 3.52954 0
M  V30 94 N 13.1205 -5.36921 4.37821 0
M  V30 95 N 14.9135 -4.4643 3.41551 0
M  V30 96 H 7.0645 -0.879093 1.93354 0
M  V30 97 H 9.3275 -0.448425 0.835236 0
M  V30 98 H 9.0335 -2.1611 2.77469 0
M  V30 99 H 8.9075 -3.43007 1.56927 0
M  V30 100 H 11.2945 -2.85023 0.764569 0
M  V30 101 H 11.3755 -1.58992 2.00387 0
M  V30 102 H 11.0195 -3.36699 3.80258 0
M  V30 103 H 10.9495 -4.61609 2.53425 0
M  V30 104 H 13.4405 -3.09944 2.16201 0
M  V30 105 H 13.7535 -5.95981 4.91962 0
M  V30 106 H 12.0985 -5.36424 4.41899 0
M  V30 107 H 15.2895 -3.79042 2.74672 0
M  V30 108 H 15.4625 -5.09491 4.00404 0
M  V30 109 N 8.8686 -0.792821 -1.36206 0
M  V30 110 C 10.1166 -0.366062 -1.98757 0
M  V30 111 C 10.4376 1.0668 -1.63231 0
M  V30 112 O 9.7076 1.73587 -0.907978 0
M  V30 113 H 8.2876 -0.132364 -0.735179 0
M  V30 114 H 10.9496 -1.01562 -1.66347 0
M  V30 115 H 10.0456 -0.460638 -3.08682 0
M  V30 116 N 10.3467 1.47872 -0.545128 0
M  V30 117 C 11.2787 2.27869 0.246621 0
M  V30 118 C 12.2917 1.36282 0.890561 0
M  V30 119 O 13.4807 1.61207 0.766449 0
M  V30 120 C 10.5807 3.10159 1.36582 0
M  V30 121 C 9.7537 4.29627 0.820954 0
M  V30 122 C 8.8127 4.93607 1.82314 0
M  V30 123 O 7.8387 5.52366 1.37406 0
M  V30 124 N 9.0407 4.87211 3.15603 0
M  V30 125 H 11.8057 2.96459 -0.439539 0
M  V30 126 H 9.3667 1.57367 -0.380421 0
M  V30 127 H 11.3587 3.49829 2.03474 0
M  V30 128 H 9.9287 2.43891 1.9554 0
M  V30 129 H 9.1487 3.94192 -0.0244032 0
M  V30 130 H 10.4367 5.06928 0.436063 0
M  V30 131 H 9.8347 4.40651 3.54744 0
M  V30 132 H 8.3917 5.30937 3.78087 0
M  V30 133 N 11.8248 0.280983 1.55075 0
M  V30 134 C 13.2408 -0.0729964 1.59433 0
M  V30 135 C 13.4408 -1.5411 1.29817 0
M  V30 136 O 12.4968 -2.29086 1.06187 0
M  V30 137 C 13.8098 0.306921 2.9913 0
M  V30 138 C 15.3578 0.254023 3.11968 0
M  V30 139 C 15.8328 0.608467 4.5394 0
M  V30 140 N 17.3238 0.560241 4.59799 0
M  V30 141 C 18.0588 0.80722 5.6769 0
M  V30 142 N 17.5548 1.11912 6.83701 0
M  V30 143 N 19.3478 0.735623 5.57266 0
M  V30 144 H 11.4988 1.238 1.7259 0
M  V30 145 H 13.7618 0.500547 0.805082 0
M  V30 146 H 13.4678 1.32816 3.25657 0
M  V30 147 H 13.3418 -0.349363 3.75579 0
M  V30 148 H 15.7288 -0.75794 2.852 0
M  V30 149 H 15.8098 0.944649 2.37718 0
M  V30 150 H 15.4538 1.61814 4.81434 0
M  V30 151 H 15.3838 -0.104013 5.26497 0
M  V30 152 H 17.8748 0.329288 3.76463 0
M  V30 153 H 18.1878 1.29409 7.61888 0
M  V30 154 H 16.5328 1.15695 6.85303 0
M  V30 155 H 19.7238 0.491752 4.6551 0
M  V30 156 H 19.8968 0.931482 6.4127 0
M  V30 157 N 13.3029 -1.57598 0.00835791 0
M  V30 158 C 14.2499 -2.08945 -0.980346 0
M  V30 159 C 15.2199 -0.986738 -1.33614 0
M  V30 160 O 16.4049 -1.25968 -1.43306 0
M  V30 161 C 13.5449 -2.60425 -2.26435 0
M  V30 162 C 12.6579 -3.84628 -1.96685 0
M  V30 163 C 11.7929 -4.24579 -3.19228 0
M  V30 164 C 10.8319 -5.41596 -2.85202 0
M  V30 165 N 9.9689 -5.768 -4.00307 0
M  V30 166 H 14.8089 -2.93148 -0.535551 0
M  V30 167 H 12.3459 -1.44912 -0.252776 0
M  V30 168 H 14.3039 -2.88354 -3.01509 0
M  V30 169 H 12.9339 -1.79083 -2.68568 0
M  V30 170 H 11.9859 -3.63556 -1.11942 0
M  V30 171 H 13.2979 -4.69796 -1.67611 0
M  V30 172 H 12.4519 -4.53834 -4.02641 0
M  V30 173 H 11.1909 -3.38137 -3.51447 0
M  V30 174 H 10.1959 -5.12056 -2.00198 0
M  V30 175 H 11.4209 -6.29721 -2.54222 0
M  V30 176 H 9.3669 -4.93316 -4.32407 0
M  V30 177 H 9.2839 -6.5656 -3.74786 0
M  V30 178 H 10.5519 -6.10652 -4.84484 0
M  V30 179 N 14.781 0.264519 -1.55364 0
M  V30 180 C 16.029 0.993021 -1.76021 0
M  V30 181 C 16.35 1.86511 -0.569099 0
M  V30 182 O 15.62 1.91438 0.415735 0
M  V30 183 H 14.2 0.369639 -0.649135 0
M  V30 184 H 16.862 0.286707 -1.9278 0
M  V30 185 H 15.958 1.62502 -2.66457 0
M  V30 186 N 16.2591 1.48442 0.529413 0
M  V30 187 C 17.6751 1.34575 0.858004 0
M  V30 188 C 17.8751 0.3572 1.98309 0
M  V30 189 O 16.9311 -0.221379 2.51528 0
M  V30 190 C 18.2441 2.74617 1.22499 0
M  V30 191 C 19.7921 2.83109 1.33484 0
M  V30 192 C 20.2671 4.23854 1.73526 0
M  V30 193 N 21.7581 4.2653 1.80628 0
M  V30 194 C 22.4931 5.32372 2.12997 0
M  V30 195 N 21.9891 6.48491 2.43786 0
M  V30 196 N 23.7821 5.19766 2.14008 0
M  V30 197 H 15.9331 2.1133 -0.212925 0
M  V30 198 H 18.1961 0.947439 -0.0326199 0
M  V30 199 H 17.9021 3.4852 0.471905 0
M  V30 200 H 17.7761 3.08177 2.17501 0
M  V30 201 H 20.1631 2.09462 2.0787 0
M  V30 202 H 20.2441 2.53168 0.366027 0
M  V30 203 H 19.8881 4.98018 0.997013 0
M  V30 204 H 19.8181 4.5124 2.71459 0
M  V30 205 H 22.3091 3.42772 1.59108 0
M  V30 206 H 22.6221 7.24993 2.67592 0
M  V30 207 H 20.9671 6.51765 2.41304 0
M  V30 208 H 24.1581 4.28066 1.89412 0
M  V30 209 H 24.3311 6.02354 2.38902 0
M  V30 210 N 17.7372 -0.778329 1.37039 0
M  V30 211 C 18.9852 -1.53361 1.31623 0
M  V30 212 C 19.3062 -1.94739 -0.100831 0
M  V30 213 O 18.5762 -1.65797 -1.04347 0
M  V30 214 H 17.1562 -0.568794 0.484234 0
M  V30 215 H 19.8182 -0.926742 1.71457 0
M  V30 216 H 18.9142 -2.43606 1.95096 0
M  V30 217 N 19.2153 -1.21501 -1.00376 0
M  V30 218 C 20.4403 -1.05977 -1.78279 0
M  V30 219 C 20.8653 0.385994 -1.84097 0
M  V30 220 O 20.2233 1.27849 -1.28547 0
M  V30 221 C 20.2713 -1.66302 -3.19963 0
M  V30 222 O 19.3753 -0.909333 -4.0225 0
M  V30 223 H 18.7163 -0.372906 -0.549397 0
M  V30 224 H 21.2463 -1.6107 -1.26165 0
M  V30 225 H 21.2563 -1.70574 -3.70632 0
M  V30 226 H 19.9313 -2.71515 -3.15043 0
M  V30 227 H 18.5083 -0.941795 -3.60811 0
M  V30 228 N 20.6934 1.19889 -1.02296 0
M  V30 229 C 21.9424 1.88743 -0.711257 0
M  V30 230 C 22.2554 1.80112 0.762817 0
M  V30 231 O 23.4614 2.44161 1.18733 0
M  V30 232 C 21.9174 3.38525 -1.22185 0
M  V30 233 C 21.5254 3.55727 -2.72328 0
M  V30 234 C 23.2694 4.12893 -0.985864 0
M  V30 235 C 21.1764 4.99369 -3.16835 0
M  V30 236 H 20.1064 0.706885 -0.262353 0
M  V30 237 H 22.7574 1.35586 -1.23648 0
M  V30 238 H 21.1394 3.91044 -0.624571 0
M  V30 239 H 22.3134 3.13564 -3.3766 0
M  V30 240 H 20.6284 2.94739 -2.9414 0
M  V30 241 H 23.2254 5.18813 -1.29374 0
M  V30 242 H 23.5684 4.16228 0.0775055 0
M  V30 243 H 24.1014 3.66494 -1.54684 0
M  V30 244 H 20.8404 5.01193 -4.22476 0
M  V30 245 H 20.3604 5.42317 -2.56228 0
M  V30 246 H 22.0394 5.67988 -3.09837 0
M  V30 247 N 22.1715 0.800033 1.35784 0
M  V30 248 C 23.4185 0.377342 1.98953 0
M  V30 249 C 23.7465 -1.05378 1.6348 0
M  V30 250 O 23.0015 -1.74459 0.886707 0
M  V30 251 C 23.3005 0.500276 3.53881 0
M  V30 252 C 22.9665 1.89375 4.09204 0
M  V30 253 C 21.6285 2.27499 4.24025 0
M  V30 254 C 23.9805 2.8057 4.39238 0
M  V30 255 C 21.3085 3.562 4.66195 0
M  V30 256 C 23.6605 4.0871 4.82844 0
M  V30 257 C 22.3245 4.46843 4.95871 0
M  V30 258 H 21.5945 0.138079 0.728021 0
M  V30 259 H 24.2415 1.01955 1.62103 0
M  V30 260 H 22.5465 -0.225405 3.91151 0
M  V30 261 H 24.2435 0.154097 4.00704 0
M  V30 262 H 20.8335 1.58753 3.98115 0
M  V30 263 H 25.0175 2.52367 4.27346 0
M  V30 264 H 20.2735 3.85602 4.74469 0
M  V30 265 H 24.4475 4.79481 5.05046 0
M  V30 266 H 22.0745 5.46623 5.28306 0
M  V30 267 N 23.6496 -1.47581 0.552962 0
M  V30 268 C 24.5966 -2.29957 -0.197108 0
M  V30 269 C 25.5666 -1.38799 -0.912359 0
M  V30 270 O 26.7516 -1.67761 -0.908888 0
M  V30 271 C 23.8916 -3.22672 -1.22379 0
M  V30 272 C 23.0046 -4.28919 -0.515038 0
M  V30 273 C 22.1396 -5.0879 -1.52664 0
M  V30 274 C 21.1786 -6.06815 -0.802631 0
M  V30 275 N 20.3156 -6.7966 -1.76086 0
M  V30 276 H 25.1556 -2.93578 0.511486 0
M  V30 277 H 22.6926 -1.4471 0.264067 0
M  V30 278 H 24.6506 -3.74845 -1.83159 0
M  V30 279 H 23.2806 -2.60925 -1.90047 0
M  V30 280 H 22.3326 -3.79835 0.207192 0
M  V30 281 H 23.6446 -4.98773 0.0523425 0
M  V30 282 H 22.7986 -5.65091 -2.20809 0
M  V30 283 H 21.5376 -4.38828 -2.12794 0
M  V30 284 H 20.5426 -5.49695 -0.107238 0
M  V30 285 H 21.7676 -6.78784 -0.207135 0
M  V30 286 H 19.7136 -6.12432 -2.35081 0
M  V30 287 H 19.6306 -7.45669 -1.24552 0
M  V30 288 H 20.8986 -7.40538 -2.43359 0
M  V30 289 N 25.1277 -0.289203 -1.54924 0
M  V30 290 C 26.3527 0.329299 -2.04769 0
M  V30 291 C 26.7777 1.4763 -1.16564 0
M  V30 292 O 26.1357 1.80527 -0.167186 0
M  V30 293 C 26.1837 0.774438 -3.52186 0
M  V30 294 O 25.2877 1.88038 -3.67036 0
M  V30 295 H 24.6287 0.0659259 -0.660719 0
M  V30 296 H 27.1587 -0.42761 -2.00082 0
M  V30 297 H 27.1687 1.06642 -3.93816 0
M  V30 298 H 25.8437 -0.0646707 -4.1585 0
M  V30 299 H 24.4207 1.58985 -3.3731 0
M  V30 300 N 26.6058 1.57591 -0.0167156 0
M  V30 301 C 27.5558 2.05953 0.978137 0
M  V30 302 C 28.5398 0.957532 1.29306 0
M  V30 303 O 29.7318 1.22119 1.28125 0
M  V30 304 C 26.8608 2.58006 2.26468 0
M  V30 305 C 25.9468 3.75113 1.97867 0
M  V30 306 N 26.3378 4.86187 1.39486 0
M  V30 307 C 24.6358 3.83363 2.27924 0
M  V30 308 C 25.3368 5.67502 1.27735 0
M  V30 309 N 24.3128 5.14023 1.76866 0
M  V30 310 H 28.1148 2.89236 0.521522 0
M  V30 311 H 25.6288 1.61301 0.188596 0
M  V30 312 H 27.6258 2.90937 2.98599 0
M  V30 313 H 26.2858 1.76148 2.72767 0
M  V30 314 H 27.2968 5.06695 1.07147 0
M  V30 315 H 23.9738 3.1239 2.76982 0
M  V30 316 H 25.3638 6.66791 0.826978 0
M  V30 317 N 28.0839 -0.256276 1.55502 0
M  V30 318 C 29.0319 -1.33694 1.90338 0
M  V30 319 C 30.0259 -1.50299 0.781441 0
M  V30 320 O 31.2319 -1.51885 0.965966 0
M  V30 321 H 27.6069 -0.447483 0.60437 0
M  V30 322 H 29.5779 -1.01574 2.8058 0
M  V30 323 C 28.3269 -2.68724 2.20642 0
M  V30 324 H 27.6499 -2.56743 3.06469 0
M  V30 325 H 29.0899 -3.43237 2.48926 0
M  V30 326 C 27.5489 -3.21101 1.01959 0
M  V30 327 O 28.0789 -4.0084 0.262762 0
M  V30 328 N 26.2849 -2.79003 0.812746 0
M  V30 329 H 25.8319 -2.14271 1.42989 0
M  V30 330 H 25.7899 -3.14393 0.0203076 0
M  V30 331 N 29.562 -1.4872 -0.521534 0
M  V30 332 C 30.512 -1.60269 -1.62166 0
M  V30 333 C 31.496 -0.45935 -1.54204 0
M  V30 334 O 32.688 -0.711241 -1.62081 0
M  V30 335 C 29.817 -1.65344 -3.00859 0
M  V30 336 C 28.903 -2.85187 -3.13894 0
M  V30 337 N 29.294 -4.09509 -2.96877 0
M  V30 338 C 27.592 -2.82695 -3.44963 0
M  V30 339 C 28.293 -4.89959 -3.13552 0
M  V30 340 N 27.269 -4.22934 -3.41508 0
M  V30 341 H 31.071 -2.5413 -1.47632 0
M  V30 342 H 28.585 -1.45209 -0.727194 0
M  V30 343 H 30.582 -1.71713 -3.79895 0
M  V30 344 H 29.242 -0.726058 -3.16478 0
M  V30 345 H 30.253 -4.39814 -2.73467 0
M  V30 346 H 26.93 -1.99249 -3.66887 0
M  V30 347 H 28.32 -5.98654 -3.05061 0
M  V30 348 N 31.0401 0.771051 -1.3745 0
M  V30 349 C 31.9901 1.87456 -1.29785 0
M  V30 350 C 32.9741 1.59827 -0.185541 0
M  V30 351 O 34.1661 1.71945 -0.419997 0
M  V30 352 C 31.2951 3.24935 -1.1078 0
M  V30 353 C 30.3811 3.58514 -2.26558 0
M  V30 354 N 30.7721 3.6327 -3.5195 0
M  V30 355 C 29.0701 3.88683 -2.18727 0
M  V30 356 C 29.7711 3.93616 -4.283 0
M  V30 357 N 28.7471 4.09551 -3.57448 0
M  V30 358 H 32.5491 1.89386 -2.24745 0
M  V30 359 H 30.0631 0.967531 -1.30432 0
M  V30 360 H 32.0601 4.03881 -1.03374 0
M  V30 361 H 30.7201 3.24268 -0.16738 0
M  V30 362 H 31.7311 3.45458 -3.85848 0
M  V30 363 H 28.4081 3.95834 -1.32746 0
M  V30 364 H 29.7981 4.04066 -5.36824 0
M  V30 365 N 32.5182 1.22032 0.997298 0
M  V30 366 C 33.9342 0.979326 1.26021 0
M  V30 367 C 34.1342 -0.32972 1.98784 0
M  V30 368 O 33.1902 -1.05345 2.29475 0
M  V30 369 C 34.5032 2.17509 2.07631 0
M  V30 370 C 36.0512 2.21817 2.2083 0
M  V30 371 C 36.5262 3.40933 3.05825 0
M  V30 372 N 38.0172 3.41067 3.13412 0
M  V30 373 C 38.7522 4.29885 3.79455 0
M  V30 374 N 38.2482 5.28914 4.47462 0
M  V30 375 N 40.0412 4.17673 3.76173 0
M  V30 376 H 32.1922 2.06202 0.509352 0
M  V30 377 H 34.4552 0.90334 0.287541 0
M  V30 378 H 34.1612 3.12415 1.61524 0
M  V30 379 H 34.0352 2.17206 3.08385 0
M  V30 380 H 36.4222 1.27462 2.66153 0
M  V30 381 H 36.5032 2.2616 1.1952 0
M  V30 382 H 36.1472 4.35586 2.61203 0
M  V30 383 H 36.0772 3.33829 4.07266 0
M  V30 384 H 38.5682 2.69406 2.65007 0
M  V30 385 H 38.8812 5.92973 4.95583 0
M  V30 386 H 37.2262 5.32831 4.46224 0
M  V30 387 H 40.4172 3.39564 3.22202 0
M  V30 388 H 40.5902 4.87098 4.27363 0
M  V30 389 N 33.9963 -1.19345 1.0293 0
M  V30 390 C 34.9433 -2.2258 0.610464 0
M  V30 391 C 35.9133 -1.6179 -0.375946 0
M  V30 392 O 37.0983 -1.88844 -0.272511 0
M  V30 393 C 34.2383 -3.45085 -0.0321473 0
M  V30 394 C 33.3513 -4.20258 1.00035 0
M  V30 395 C 32.4863 -5.3019 0.32746 0
M  V30 396 C 31.5253 -5.97121 1.34584 0
M  V30 397 N 30.6623 -6.98615 0.698726 0
M  V30 398 H 35.5023 -2.57764 1.49538 0
M  V30 399 H 33.0393 -1.26644 0.748311 0
M  V30 400 H 34.9973 -4.15061 -0.421966 0
M  V30 401 H 33.6273 -3.10555 -0.88064 0
M  V30 402 H 32.6793 -3.49223 1.50823 0
M  V30 403 H 33.9913 -4.66175 1.77433 0
M  V30 404 H 33.1453 -6.06587 -0.11718 0
M  V30 405 H 31.8843 -4.85345 -0.478713 0
M  V30 406 H 30.8893 -5.19474 1.80074 0
M  V30 407 H 32.1143 -6.4405 2.15352 0
M  V30 408 H 30.0603 -6.55942 -0.0873471 0
M  V30 409 H 29.9773 -7.42724 1.41058 0
M  V30 410 H 31.2453 -7.79004 0.278102 0
M  V30 411 N 35.4744 -0.807222 -1.35358 0
M  V30 412 C 36.7224 -0.387122 -1.98358 0
M  V30 413 C 37.0434 1.04942 -1.64354 0
M  V30 414 O 36.3134 1.72615 -0.926339 0
M  V30 415 H 34.8934 -0.140154 -0.733734 0
M  V30 416 H 37.5554 -1.0332 -1.6526 0
M  V30 417 H 36.6514 -0.493352 -3.08176 0
M  V30 418 N 36.9525 1.47285 -0.560781 0
M  V30 419 C 37.9155 2.28535 0.174488 0
M  V30 420 C 38.9155 1.37153 0.839388 0
M  V30 421 O 40.1055 1.59748 0.694702 0
M  V30 422 C 37.2375 3.16934 1.25561 0
M  V30 423 H 38.4305 2.95012 -0.539262 0
M  V30 424 H 35.9835 1.53034 -0.317865 0
M  V30 425 H 36.7185 2.55157 2.00164 0
M  V30 426 H 36.5035 3.8419 0.783604 0
M  V30 427 H 37.9935 3.78143 1.77193 0
M  V30 428 N 38.4306 0.297415 1.54768 0
M  V30 429 C 39.3936 -0.567375 2.22066 0
M  V30 430 C 40.3936 -1.06409 1.20556 0
M  V30 431 O 41.5836 -0.960691 1.45315 0
M  V30 432 C 38.7156 -1.78517 2.90421 0
M  V30 433 H 39.9086 0.0205534 2.99893 0
M  V30 434 H 37.4616 0.0482163 1.56226 0
M  V30 435 H 38.1966 -2.41303 2.16664 0
M  V30 436 H 37.9816 -1.43669 3.64831 0
M  V30 437 H 39.4716 -2.39964 3.41771 0
M  V30 438 N 39.9087 -1.5758 0.0250728 0
M  V30 439 C 40.8557 -2.09973 -0.958129 0
M  V30 440 C 41.8257 -1.00085 -1.3256 0
M  V30 441 O 43.0107 -1.27481 -1.41962 0
M  V30 442 C 40.1507 -2.62812 -2.2366 0
M  V30 443 C 39.2637 -3.86693 -1.92594 0
M  V30 444 C 38.3987 -4.27941 -3.14707 0
M  V30 445 C 37.4377 -5.44591 -2.79442 0
M  V30 446 N 36.5747 -5.81014 -3.94167 0
M  V30 447 H 41.4147 -2.937 -0.504428 0
M  V30 448 H 38.9517 -1.45172 -0.237392 0
M  V30 449 H 40.9097 -2.91536 -2.98434 0
M  V30 450 H 39.5397 -1.81922 -2.66654 0
M  V30 451 H 38.5917 -3.64723 -1.0808 0
M  V30 452 H 39.9037 -4.71547 -1.62619 0
M  V30 453 H 39.0577 -4.58079 -3.97804 0
M  V30 454 H 37.7967 -3.41845 -3.4784 0
M  V30 455 H 36.8017 -5.1415 -1.94755 0
M  V30 456 H 38.0267 -6.32382 -2.47528 0
M  V30 457 H 35.9727 -4.97874 -4.2715 0
M  V30 458 H 35.8897 -6.60498 -3.67801 0
M  V30 459 H 37.1577 -6.15756 -4.7798 0
M  V30 460 N 41.3868 0.248026 -1.55636 0
M  V30 461 C 42.3168 1.31079 -1.93237 0
M  V30 462 C 43.2978 1.50264 -0.797174 0
M  V30 463 O 44.4828 1.62891 -1.05737 0
M  V30 464 C 41.6128 2.66575 -2.22609 0
M  V30 465 C 40.5668 2.62087 -3.3837 0
M  V30 466 C 39.8928 4.01369 -3.53281 0
M  V30 467 C 41.1928 2.19171 -4.7409 0
M  V30 468 H 42.8868 0.998556 -2.82257 0
M  V30 469 H 40.4328 0.47891 -1.35803 0
M  V30 470 H 42.3858 3.41057 -2.47503 0
M  V30 471 H 41.1098 2.99432 -1.30414 0
M  V30 472 H 39.7688 1.90063 -3.13483 0
M  V30 473 H 39.4168 4.31489 -2.58508 0
M  V30 474 H 39.1168 3.99254 -4.31127 0
M  V30 475 H 40.6408 4.77552 -3.80495 0
M  V30 476 H 42.0548 2.83384 -4.98363 0
M  V30 477 H 40.4518 2.2817 -5.5503 0
M  V30 478 H 41.5218 1.14336 -4.71227 0
M  V30 479 N 42.8649 1.48995 0.513639 0
M  V30 480 C 44.2809 1.35478 0.843682 0
M  V30 481 C 44.4809 0.378213 1.97919 0
M  V30 482 O 43.5369 -0.194689 2.51748 0
M  V30 483 C 44.8499 2.75901 1.1958 0
M  V30 484 C 46.3979 2.84509 1.30474 0
M  V30 485 C 46.8729 4.25671 1.69021 0
M  V30 486 N 48.3639 4.28422 1.76094 0
M  V30 487 C 49.0989 5.34601 2.07338 0
M  V30 488 N 48.5949 6.5104 2.36894 0
M  V30 489 N 50.3879 5.22007 2.08483 0
M  V30 490 H 42.5389 2.11092 -0.235328 0
M  V30 491 H 44.8019 0.947039 -0.0426669 0
M  V30 492 H 44.5079 3.49001 0.434913 0
M  V30 493 H 44.3819 3.10467 2.1422 0
M  V30 494 H 46.7689 2.11655 2.05637 0
M  V30 495 H 46.8499 2.53542 0.339155 0
M  V30 496 H 46.4939 4.99048 0.944135 0
M  V30 497 H 46.4239 4.54094 2.66658 0
M  V30 498 H 48.9149 3.44441 1.55464 0
M  V30 499 H 49.2279 7.2779 2.59887 0
M  V30 500 H 47.5729 6.54287 2.34378 0
M  V30 501 H 50.7639 4.30051 1.84861 0
M  V30 502 H 50.9369 6.04854 2.325 0
M  V30 503 N 44.343 -0.763751 1.37857 0
M  V30 504 C 45.293 -1.86765 1.30777 0
M  V30 505 C 46.277 -1.59726 0.194015 0
M  V30 506 O 47.469 -1.7172 0.42911 0
M  V30 507 C 44.598 -3.24343 1.12502 0
M  V30 508 C 43.684 -3.57307 2.28456 0
M  V30 509 N 44.075 -3.61398 3.53871 0
M  V30 510 C 42.373 -3.87517 2.20786 0
M  V30 511 C 43.074 -3.91339 4.30382 0
M  V30 512 N 42.05 -4.07649 3.59615 0
M  V30 513 H 45.852 -1.88191 2.25746 0
M  V30 514 H 43.366 -0.9606 1.30944 0
M  V30 515 H 45.363 -4.03327 1.05514 0
M  V30 516 H 44.023 -3.24175 0.184574 0
M  V30 517 H 45.034 -3.43407 3.87675 0
M  V30 518 H 41.711 -3.95125 1.34844 0
M  V30 519 H 43.101 -4.01213 5.3896 0
M  V30 520 N 45.8211 -1.22559 -0.990812 0
M  V30 521 C 46.7511 -1.0218 -2.09956 0
M  V30 522 C 47.7321 0.0579394 -1.70001 0
M  V30 523 O 48.9171 -0.104684 -1.93918 0
M  V30 524 C 46.0471 -0.601023 -3.4206 0
M  V30 525 C 45.0011 -1.62694 -3.95872 0
M  V30 526 C 44.3271 -1.06193 -5.24049 0
M  V30 527 C 45.6271 -3.01743 -4.2632 0
M  V30 528 H 47.3211 -1.94916 -2.27262 0
M  V30 529 H 44.8671 -0.938566 -1.09211 0
M  V30 530 H 46.8201 -0.445561 -4.19038 0
M  V30 531 H 45.5441 0.362005 -3.24588 0
M  V30 532 H 44.2031 -1.77021 -3.21028 0
M  V30 533 H 43.8511 -0.0901903 -5.02919 0
M  V30 534 H 43.5511 -1.74732 -5.61019 0
M  V30 535 H 45.0751 -0.918092 -6.03658 0
M  V30 536 H 46.4891 -2.90777 -4.94087 0
M  V30 537 H 44.8861 -3.67425 -4.74467 0
M  V30 538 H 45.9561 -3.51518 -3.34011 0
M  V30 539 N 47.2992 1.18797 -1.03562 0
M  V30 540 C 48.5762 1.84469 -0.650434 0
M  V30 541 C 48.9562 1.92319 0.870433 0
M  V30 542 O 48.3042 1.44528 1.76986 0
M  V30 543 C 48.5142 3.2306 -1.32036 0
M  V30 544 C 49.8622 3.9915 -1.44792 0
M  V30 545 O 50.8862 3.32481 -1.27806 0
M  V30 546 O 49.7452 5.18587 -1.72423 0
M  V30 547 H 46.8392 0.795251 -0.226946 0
M  V30 548 H 49.3852 1.26231 -1.13419 0
M  V30 549 H 48.1572 3.1222 -2.3587 0
M  V30 550 H 47.7802 3.88949 -0.8249 0
M  V30 551 N 48.7773 0.814389 1.34928 0
M  V30 552 C 50.0073 0.41054 2.0248 0
M  V30 553 C 50.4153 -0.985625 1.61499 0
M  V30 554 O 49.7583 -1.64781 0.811976 0
M  V30 555 C 49.8203 0.423384 3.56998 0
M  V30 556 C 49.4843 1.77141 4.21272 0
M  V30 557 C 50.4813 2.73093 4.42398 0
M  V30 558 C 48.1663 2.05755 4.58225 0
M  V30 559 C 50.1603 3.95838 4.9959 0
M  V30 560 C 47.8473 3.28762 5.1513 0
M  V30 561 C 48.8453 4.23621 5.35755 0
M  V30 562 O 48.5333 5.44456 5.91458 0
M  V30 563 H 48.2653 0.163997 0.655806 0
M  V30 564 H 50.8193 1.10155 1.73364 0
M  V30 565 H 49.0493 -0.324276 3.85338 0
M  V30 566 H 50.7383 0.0407683 4.0588 0
M  V30 567 H 51.5043 2.5228 4.14222 0
M  V30 568 H 47.3833 1.32727 4.4148 0
M  V30 569 H 50.9273 4.69891 5.15605 0
M  V30 570 H 46.8243 3.49443 5.42734 0
M  V30 571 H 47.5923 5.4586 6.09901 0
M  V30 572 N 50.2554 -1.46986 0.568584 0
M  V30 573 C 51.4954 -2.04336 0.0512999 0
M  V30 574 C 51.8594 -1.43214 -1.27881 0
M  V30 575 O 53.0604 -1.91679 -1.88448 0
M  V30 576 C 51.3314 -3.57389 -0.0282328 0
M  V30 577 S 52.8904 -4.36056 -0.489991 0
M  V30 578 H 49.7084 -0.71034 0.0306349 0
M  V30 579 H 52.3104 -1.80212 0.757891 0
M  V30 580 H 51.0144 -3.99395 0.944011 0
M  V30 581 H 50.5454 -3.86028 -0.75803 0
M  V30 582 H 52.5604 -4.6441 -1.74752 0
M  V30 583 N 51.7335 -0.305618 -1.54608 0
M  V30 584 C 52.6435 0.57778 -2.27374 0
M  V30 585 C 53.6595 1.14451 -1.31061 0
M  V30 586 O 54.8355 1.16831 -1.6405 0
M  V30 587 C 51.9005 1.73123 -3.00382 0
M  V30 588 C 50.9615 1.19812 -4.12242 0
M  V30 589 C 50.1945 2.2966 -4.81759 0
M  V30 590 O 50.4175 3.49651 -4.50666 0
M  V30 591 O 49.3515 1.96091 -5.69062 0
M  V30 592 H 53.1775 -0.012624 -3.03697 0
M  V30 593 H 50.7625 -0.0719184 -1.49227 0
M  V30 594 H 52.6445 2.40315 -3.4616 0
M  V30 595 H 51.3195 2.30815 -2.26949 0
M  V30 596 H 50.2265 0.491798 -3.70853 0
M  V30 597 H 51.5595 0.666566 -4.87666 0
M  V30 598 N 53.2116 1.57565 -0.0334293 0
M  V30 599 C 54.1586 2.10478 0.946981 0
M  V30 600 C 55.1286 1.00787 1.32027 0
M  V30 601 O 56.3136 1.28232 1.41284 0
M  V30 602 C 53.4536 2.63994 2.22263 0
M  V30 603 C 52.5666 3.87709 1.90541 0
M  V30 604 C 51.7016 4.29604 3.12433 0
M  V30 605 C 50.7406 5.46065 2.76549 0
M  V30 606 N 49.8776 5.83096 3.9108 0
M  V30 607 H 54.7176 2.93963 0.488846 0
M  V30 608 H 52.2546 1.45296 0.22969 0
M  V30 609 H 54.2126 2.93114 2.96884 0
M  V30 610 H 52.8426 1.83333 2.65685 0
M  V30 611 H 51.8946 3.65291 1.06144 0
M  V30 612 H 53.2066 4.72403 1.60116 0
M  V30 613 H 52.3606 4.60182 3.9537 0
M  V30 614 H 51.0996 3.43685 3.46023 0
M  V30 615 H 50.1046 5.15176 1.92026 0
M  V30 616 H 51.3296 6.33685 2.44171 0
M  V30 617 H 49.2756 5.00132 4.24504 0
M  V30 618 H 49.1926 6.6244 3.64293 0
M  V30 619 H 50.4606 6.18282 4.74708 0
M  V30 620 N 54.6897 -0.239769 1.55765 0
M  V30 621 C 55.6367 -1.29696 1.90913 0
M  V30 622 C 56.6067 -1.47478 0.764164 0
M  V30 623 O 57.7917 -1.61345 1.01845 0
M  V30 624 C 54.9317 -2.64598 2.21544 0
M  V30 625 C 54.0447 -2.54765 3.48882 0
M  V30 626 C 53.1797 -3.82069 3.69049 0
M  V30 627 C 52.2187 -3.66883 4.89963 0
M  V30 628 N 51.3557 -4.86094 5.06614 0
M  V30 629 H 56.1957 -0.990224 2.81067 0
M  V30 630 H 53.7327 -0.477684 1.39128 0
M  V30 631 H 55.6907 -3.43132 2.3731 0
M  V30 632 H 54.3207 -2.93405 1.34585 0
M  V30 633 H 53.3727 -1.67763 3.41409 0
M  V30 634 H 54.6847 -2.39457 4.37563 0
M  V30 635 H 53.8387 -4.69046 3.84812 0
M  V30 636 H 52.5777 -4.00282 2.78614 0
M  V30 637 H 51.5827 -2.78289 4.74168 0
M  V30 638 H 52.8077 -3.50157 5.81865 0
M  V30 639 H 50.7537 -5.04655 4.19117 0
M  V30 640 H 50.6707 -4.73443 5.89396 0
M  V30 641 H 51.9387 -5.74549 5.26795 0
M  V30 642 N 56.1678 -1.49265 -0.50573 0
M  V30 643 C 57.4158 -1.582 -1.25766 0
M  V30 644 C 57.7368 -0.268482 -1.93143 0
M  V30 645 O 57.0068 0.711833 -1.8251 0
M  V30 646 H 55.5868 -0.582873 -0.467191 0
M  V30 647 H 58.2488 -1.85865 -0.586525 0
M  V30 648 H 57.3448 -2.37563 -2.02412 0
M  V30 649 N 57.6459 0.756429 -1.3826 0
M  V30 650 C 58.8759 1.54341 -1.3734 0
M  V30 651 C 59.2839 1.89159 0.0393917 0
M  V30 652 O 58.6269 1.5307 1.01565 0
M  V30 653 C 58.6889 2.87238 -2.16182 0
M  V30 654 C 58.3529 2.74973 -3.65019 0
M  V30 655 C 59.3499 2.44962 -4.58574 0
M  V30 656 C 57.0349 2.92515 -4.08338 0
M  V30 657 C 59.0289 2.32642 -5.93428 0
M  V30 658 C 56.7159 2.79815 -5.43274 0
M  V30 659 C 57.7139 2.49921 -6.35632 0
M  V30 660 O 57.4019 2.37275 -7.68086 0
M  V30 661 H 57.1339 0.484281 -0.471643 0
M  V30 662 H 59.6879 0.944152 -1.82414 0
M  V30 663 H 57.9179 3.49342 -1.65822 0
M  V30 664 H 59.6069 3.48731 -2.07705 0
M  V30 665 H 60.3729 2.31081 -4.26412 0
M  V30 666 H 56.2519 3.14781 -3.368 0
M  V30 667 H 59.7959 2.0923 -6.65484 0
M  V30 668 H 55.6929 2.93269 -5.75034 0
M  V30 669 H 56.4609 2.52509 -7.78577 0
M  V30 670 N 59.124 1.23083 0.984299 0
M  V30 671 C 60.373 1.05466 1.71929 0
M  V30 672 C 60.686 -0.409211 1.91272 0
M  V30 673 O 61.892 -0.705226 2.62181 0
M  V30 674 C 60.348 1.83874 3.09384 0
M  V30 675 C 59.956 3.34566 2.97943 0
M  V30 676 C 61.7 1.74734 3.8687 0
M  V30 677 C 59.607 4.05381 4.30605 0
M  V30 678 H 58.537 0.391039 0.644674 0
M  V30 679 H 61.188 1.47013 1.09815 0
M  V30 680 H 59.57 1.35131 3.72231 0
M  V30 681 H 60.744 3.90767 2.44209 0
M  V30 682 H 59.059 3.44476 2.33934 0
M  V30 683 H 61.656 2.24957 4.85076 0
M  V30 684 H 61.999 0.709372 4.10212 0
M  V30 685 H 62.532 2.21067 3.30717 0
M  V30 686 H 59.271 5.09467 4.1246 0
M  V30 687 H 58.791 3.53967 4.84218 0
M  V30 688 H 60.47 4.11458 4.99311 0
M  V30 689 N 60.6021 -1.18246 1.0419 0
M  V30 690 C 61.5491 -2.2192 0.634037 0
M  V30 691 C 62.5191 -1.62179 -0.358765 0
M  V30 692 O 63.7041 -1.89122 -0.252466 0
M  V30 693 C 60.8441 -3.451 0.00445535 0
M  V30 694 C 59.9571 -4.19174 1.04487 0
M  V30 695 C 59.0921 -5.29813 0.383676 0
M  V30 696 C 58.1311 -5.9566 1.4091 0
M  V30 697 N 57.2681 -6.97834 0.772784 0
M  V30 698 H 62.1081 -2.56164 1.52263 0
M  V30 699 H 59.6451 -1.25843 0.761701 0
M  V30 700 H 61.6031 -4.15485 -0.377919 0
M  V30 701 H 60.2331 -3.11472 -0.847652 0
M  V30 702 H 59.2851 -3.47604 1.54518 0
M  V30 703 H 60.5971 -4.64267 1.82368 0
M  V30 704 H 59.7511 -6.06677 -0.0528366 0
M  V30 705 H 58.4901 -4.85825 -0.427208 0
M  V30 706 H 57.4951 -5.17535 1.85574 0
M  V30 707 H 58.7201 -6.4173 2.22171 0
M  V30 708 H 56.6661 -6.55998 -0.0177708 0
M  V30 709 H 56.5831 -7.41186 1.48928 0
M  V30 710 H 57.8511 -7.78665 0.36071 0
M  V30 711 N 62.0802 -0.821533 -1.34494 0
M  V30 712 C 63.3282 -0.408139 -1.97936 0
M  V30 713 C 63.6492 1.03193 -1.65457 0
M  V30 714 O 62.9192 1.71622 -0.944595 0
M  V30 715 H 61.4992 -0.147928 -0.732206 0
M  V30 716 H 64.1612 -1.05067 -1.64155 0
M  V30 717 H 63.2572 -0.52601 -3.07635 0
M  V30 718 N 63.5583 1.46682 -0.576371 0
M  V30 719 C 64.4883 2.33028 0.148397 0
M  V30 720 C 65.4693 1.44961 0.889956 0
M  V30 721 O 66.6543 1.73789 0.866662 0
M  V30 722 C 63.7843 3.27117 1.1667 0
M  V30 723 C 62.7383 4.24575 0.540386 0
M  V30 724 C 62.0643 5.08126 1.6647 0
M  V30 725 C 63.3643 5.19722 -0.518331 0
M  V30 726 H 65.0583 2.93875 -0.572509 0
M  V30 727 H 62.6043 1.41315 -0.276768 0
M  V30 728 H 64.5573 3.86374 1.68204 0
M  V30 729 H 63.2813 2.64364 1.9178 0
M  V30 730 H 61.9403 3.66571 0.0461769 0
M  V30 731 H 61.5883 4.41762 2.40531 0
M  V30 732 H 61.2883 5.74122 1.25131 0
M  V30 733 H 62.8123 5.70246 2.18293 0
M  V30 734 H 64.2263 5.73232 -0.0883058 0
M  V30 735 H 62.6233 5.94026 -0.851679 0
M  V30 736 H 63.6933 4.64037 -1.40703 0
M  V30 737 N 65.0364 0.313813 1.54444 0
M  V30 738 C 66.2824 -0.292108 2.00685 0
M  V30 739 C 66.6154 -1.52548 1.20177 0
M  V30 740 O 65.8904 -1.92452 0.281531 0
M  V30 741 C 66.1734 -0.635968 3.5444 0
M  V30 742 C 66.0264 0.607437 4.4568 0
M  V30 743 C 67.3454 -1.45747 4.15266 0
M  V30 744 H 64.4644 -0.104697 0.729526 0
M  V30 745 H 67.1064 0.428457 1.85106 0
M  V30 746 H 65.2564 -1.24986 3.67846 0
M  V30 747 H 66.9284 1.24581 4.44159 0
M  V30 748 H 65.1714 1.23822 4.15753 0
M  V30 749 H 65.8424 0.322515 5.51057 0
M  V30 750 H 68.3184 -0.938645 4.05375 0
M  V30 751 H 67.1944 -1.66683 5.2298 0
M  V30 752 H 67.4554 -2.45063 3.67963 0
M  V30 753 N 66.5145 -1.57545 0.0417849 0
M  V30 754 C 67.4615 -2.10977 -0.935805 0
M  V30 755 C 68.4315 -1.01486 -1.31491 0
M  V30 756 O 69.6165 -1.2898 -1.40602 0
M  V30 757 C 66.7565 -2.65169 -2.2086 0
M  V30 758 C 65.8695 -3.88714 -1.88482 0
M  V30 759 C 65.0045 -4.31254 -3.1015 0
M  V30 760 C 64.0435 -5.47524 -2.7365 0
M  V30 761 N 63.1805 -5.85162 -3.87982 0
M  V30 762 H 68.0205 -2.94218 -0.473249 0
M  V30 763 H 65.5575 -1.45415 -0.221981 0
M  V30 764 H 67.5155 -2.94685 -2.95325 0
M  V30 765 H 66.1455 -1.8474 -2.64709 0
M  V30 766 H 65.1975 -3.65849 -1.04205 0
M  V30 767 H 66.5095 -4.73245 -1.57608 0
M  V30 768 H 65.6635 -4.62273 -3.92923 0
M  V30 769 H 64.4025 -3.45516 -3.44195 0
M  V30 770 H 63.4075 -5.16187 -1.89291 0
M  V30 771 H 64.6325 -6.34971 -2.40807 0
M  V30 772 H 62.5785 -5.02377 -4.21846 0
M  V30 773 H 62.4955 -6.64362 -3.60775 0
M  V30 774 H 63.7635 -6.20791 -4.71422 0
M  V30 775 N 67.9926 0.231505 -1.5589 0
M  V30 776 C 69.2696 0.981096 -1.69215 0
M  V30 777 C 69.6496 2.02799 -0.586164 0
M  V30 778 O 68.9976 2.24823 0.408253 0
M  V30 779 C 69.2076 1.60054 -3.10135 0
M  V30 780 C 70.5556 2.09658 -3.69227 0
M  V30 781 O 71.5796 1.69967 -3.13033 0
M  V30 782 O 70.4386 2.8258 -4.67772 0
M  V30 783 H 67.5326 0.457653 -0.688827 0
M  V30 784 H 70.0786 0.224073 -1.68214 0
M  V30 785 H 68.8506 0.844105 -3.82087 0
M  V30 786 H 68.4736 2.42336 -3.15212 0
M  V30 787 N 69.4707 1.49531 0.497807 0
M  V30 788 C 70.7197 1.58426 1.24837 0
M  V30 789 C 71.0327 0.277643 1.93619 0
M  V30 790 O 72.2387 0.24517 2.70391 0
M  V30 791 C 70.6947 2.79538 2.26686 0
M  V30 792 C 70.3027 4.16971 1.63828 0
M  V30 793 C 72.0467 2.97764 3.0255 0
M  V30 794 C 69.9537 5.29301 2.63807 0
M  V30 795 H 68.8837 0.58989 0.469623 0
M  V30 796 H 71.5347 1.75923 0.521857 0
M  V30 797 H 69.9167 2.55542 3.02514 0
M  V30 798 H 71.0907 4.51116 0.939711 0
M  V30 799 H 69.4057 4.04129 1.00342 0
M  V30 800 H 72.0027 3.78856 3.77323 0
M  V30 801 H 72.3457 2.08448 3.60354 0
M  V30 802 H 72.8787 3.21815 2.33838 0
M  V30 803 H 69.6177 6.20687 2.10779 0
M  V30 804 H 69.1377 4.99606 3.31894 0
M  V30 805 H 70.8167 5.58768 3.2617 0
M  V30 806 N 70.9488 -0.749086 1.3866 0
M  V30 807 C 72.1978 -1.50371 1.3443 0
M  V30 808 C 72.5108 -1.95503 -0.0616397 0
M  V30 809 O 73.7168 -2.70554 -0.226489 0
M  V30 810 C 72.1728 -2.71644 2.36088 0
M  V30 811 C 71.7808 -2.3352 3.82325 0
M  V30 812 C 73.5248 -3.49518 2.40909 0
M  V30 813 C 71.4318 -3.51431 4.75658 0
M  V30 814 H 70.3618 -0.564628 0.499712 0
M  V30 815 H 73.0128 -0.818449 1.64237 0
M  V30 816 H 71.3948 -3.42175 1.9933 0
M  V30 817 H 72.5688 -1.70627 4.28046 0
M  V30 818 H 70.8838 -1.6877 3.80665 0
M  V30 819 H 73.4808 -4.37197 3.07836 0
M  V30 820 H 73.8238 -3.90992 1.42937 0
M  V30 821 H 74.3568 -2.86005 2.76489 0
M  V30 822 H 71.0958 -3.15019 5.74842 0
M  V30 823 H 70.6158 -4.13352 4.34627 0
M  V30 824 H 72.2948 -4.17953 4.93887 0
M  V30 825 N 72.4269 -1.23603 -0.977757 0
M  V30 826 C 73.3769 -0.986664 -2.05545 0
M  V30 827 C 74.3609 0.0683009 -1.60755 0
M  V30 828 O 75.5529 -0.144162 -1.76412 0
M  V30 829 C 72.6819 -0.582623 -3.3832 0
M  V30 830 C 71.7679 -1.67313 -3.89701 0
M  V30 831 N 72.1589 -2.90394 -4.14132 0
M  V30 832 C 70.4569 -1.54832 -4.18262 0
M  V30 833 C 71.1579 -3.61017 -4.56116 0
M  V30 834 N 70.1339 -2.8854 -4.60701 0
M  V30 835 H 73.9359 -1.92139 -2.22396 0
M  V30 836 H 71.4499 -1.1358 -1.16074 0
M  V30 837 H 73.4469 -0.38524 -4.15116 0
M  V30 838 H 72.1069 0.34503 -3.22862 0
M  V30 839 H 73.1179 -3.26673 -4.01877 0
M  V30 840 H 69.7949 -0.687969 -4.11793 0
M  V30 841 H 71.1849 -4.66544 -4.83514 0
M  V30 842 N 73.905 1.17692 -1.04816 0
M  V30 843 C 75.182 1.83768 -0.669963 0
M  V30 844 C 75.562 1.93232 0.849986 0
M  V30 845 O 74.91 1.46397 1.75443 0
M  V30 846 C 75.12 3.21641 -1.35455 0
M  V30 847 C 76.468 3.97592 -1.49017 0
M  V30 848 O 77.492 3.31107 -1.31326 0
M  V30 849 O 76.351 5.16729 -1.77914 0
M  V30 850 H 73.445 0.792799 -0.235368 0
M  V30 851 H 75.991 1.25021 -1.14751 0
M  V30 852 H 74.763 3.097 -2.39168 0
M  V30 853 H 74.386 3.88052 -0.866107 0
M  V30 854 N 75.3831 0.828654 1.34056 0
M  V30 855 C 76.7941 0.477534 1.8049 0
M  V30 856 C 77.1451 -1.00258 1.6865 0
M  V30 857 O 76.2701 -1.78057 1.22982 0
M  V30 858 C 76.8651 0.860018 3.27703 0
M  V30 859 C 75.4241 0.561185 3.72193 0
M  V30 860 C 74.5711 1.07385 2.55663 0
M  V30 861 H 77.5221 1.0183 1.21722 0
M  V30 862 H 77.5431 0.166038 3.80138 0
M  V30 863 H 77.0551 1.93731 3.36288 0
M  V30 864 H 75.1561 -0.506465 3.69142 0
M  V30 865 H 75.2691 1.10926 4.66082 0
M  V30 866 H 73.6331 0.495149 2.49841 0
M  V30 867 H 74.4161 2.15771 2.67016 0
M  V30 868 N 76.8612 -1.46375 0.584142 0
M  V30 869 C 78.1092 -2.01978 0.0701287 0
M  V30 870 C 78.4302 -1.4579 -1.295 0
M  V30 871 O 77.7002 -0.64314 -1.85042 0
M  V30 872 H 76.2802 -0.746648 0.0229345 0
M  V30 873 H 78.9422 -1.79461 0.760245 0
M  V30 874 H 78.0382 -3.121 0.0022064 0
M  V30 875 N 78.3393 -0.321999 -1.54275 0
M  V30 876 C 79.7553 0.0306999 -1.5957 0
M  V30 877 C 79.9553 1.50614 -1.33857 0
M  V30 878 O 79.0113 2.2619 -1.12223 0
M  V30 879 C 80.3243 -0.386122 -2.98211 0
M  V30 880 C 81.8723 -0.336647 -3.11184 0
M  V30 881 C 82.3473 -0.728607 -4.52167 0
M  V30 882 N 83.8383 -0.681952 -4.58152 0
M  V30 883 C 84.5733 -0.957449 -5.6535 0
M  V30 884 N 84.0693 -1.3 -6.80494 0
M  V30 885 N 85.8623 -0.883113 -5.55119 0
M  V30 886 H 78.0133 -1.28332 -1.69247 0
M  V30 887 H 80.2763 -0.521716 -0.791528 0
M  V30 888 H 79.9823 -1.41404 -3.22022 0
M  V30 889 H 79.8563 0.249662 -3.76373 0
M  V30 890 H 82.2433 0.682058 -2.8711 0
M  V30 891 H 82.3243 -1.00734 -2.3513 0
M  V30 892 H 81.9683 -1.74522 -4.76974 0
M  V30 893 H 81.8983 -0.0356152 -5.26588 0
M  V30 894 H 84.3893 -0.428985 -3.75457 0
M  V30 895 H 84.7023 -1.49563 -7.58189 0
M  V30 896 H 83.0473 -1.33824 -6.81994 0
M  V30 897 H 86.2383 -0.615001 -4.64042 0
M  V30 898 H 86.4113 -1.10118 -6.38575 0
M  V30 899 N 79.8174 1.5752 -0.0501392 0
M  V30 900 C 81.0654 1.9227 0.622642 0
M  V30 901 C 81.3864 0.929083 1.71444 0
M  V30 902 O 80.6564 -0.0262186 1.95882 0
M  V30 903 H 79.2364 0.709739 0.232981 0
M  V30 904 H 81.8984 1.94628 -0.102898 0
M  V30 905 H 80.9944 2.93479 1.06191 0
M  V30 906 N 81.2955 -0.223234 1.56011 0
M  V30 907 C 82.2585 -1.26014 1.9145 0
M  V30 908 C 83.2585 -1.3989 0.792937 0
M  V30 909 O 84.4485 -1.38184 1.0607 0
M  V30 910 C 81.5805 -2.63422 2.16383 0
M  V30 911 H 82.7735 -0.95796 2.84189 0
M  V30 912 H 80.3265 -0.463576 1.49267 0
M  V30 913 H 81.0615 -2.98741 1.2619 0
M  V30 914 H 80.8465 -2.54728 2.98088 0
M  V30 915 H 82.3365 -3.38249 2.44903 0
M  V30 916 N 82.7736 -1.49793 -0.48987 0
M  V30 917 C 84.1846 -1.52914 -1.07118 0
M  V30 918 C 84.5356 -0.321738 -1.93544 0
M  V30 919 O 83.6606 0.567338 -2.08831 0
M  V30 920 C 84.2556 -2.771 -1.94938 0
M  V30 921 C 82.8146 -2.82963 -2.48212 0
M  V30 922 C 81.9616 -2.46972 -1.26096 0
M  V30 923 H 84.9126 -1.56329 -0.273289 0
M  V30 924 H 84.9336 -2.57892 -2.79771 0
M  V30 925 H 84.4456 -3.64959 -1.32009 0
M  V30 926 H 82.5466 -1.99411 -3.14748 0
M  V30 927 H 82.6596 -3.85406 -2.84603 0
M  V30 928 H 81.0236 -1.98994 -1.58976 0
M  V30 929 H 81.8066 -3.37118 -0.648581 0
M  V30 930 N 84.2517 0.741722 -1.39055 0
M  V30 931 C 85.1817 1.869 -1.39966 0
M  V30 932 C 86.1627 1.6804 -0.26392 0
M  V30 933 O 87.3477 1.88458 -0.468755 0
M  V30 934 C 84.4777 3.24572 -1.23574 0
M  V30 935 C 83.4317 3.58056 -2.34477 0
M  V30 936 C 82.7577 4.94593 -2.0318 0
M  V30 937 C 84.0577 3.61716 -3.76774 0
M  V30 938 H 85.7517 1.86395 -2.34302 0
M  V30 939 H 83.2977 0.895361 -1.1278 0
M  V30 940 H 85.2507 4.031 -1.22834 0
M  V30 941 H 83.9747 3.25587 -0.257045 0
M  V30 942 H 82.6337 2.81854 -2.34423 0
M  V30 943 H 82.2817 4.92181 -1.03765 0
M  V30 944 H 81.9817 5.17964 -2.77465 0
M  V30 945 H 83.5057 5.75486 -2.04079 0
M  V30 946 H 84.9197 4.30335 -3.78794 0
M  V30 947 H 83.3167 3.96603 -4.50362 0
M  V30 948 H 84.3867 2.61672 -4.08235 0
M  V30 949 N 85.7298 1.2412 0.971189 0
M  V30 950 C 86.6928 1.03156 2.04674 0
M  V30 951 C 87.6928 -0.00990322 1.60797 0
M  V30 952 O 88.8828 0.230729 1.72665 0
M  V30 953 C 86.0148 0.562765 3.36223 0
M  V30 954 H 87.2078 1.98614 2.24705 0
M  V30 955 H 84.7608 1.06293 1.14593 0
M  V30 956 H 85.4958 -0.395176 3.21883 0
M  V30 957 H 85.2808 1.31441 3.69413 0
M  V30 958 H 86.7708 0.437015 4.15307 0
M  V30 959 N 87.2079 -1.17134 1.05439 0
M  V30 960 C 88.1549 -2.21235 0.657539 0
M  V30 961 C 89.1249 -1.62551 -0.341543 0
M  V30 962 O 90.3099 -1.89379 -0.232393 0
M  V30 963 C 87.4499 -3.45076 0.0410575 0
M  V30 964 C 86.5629 -4.18042 1.08927 0
M  V30 965 C 85.6979 -5.29376 0.439848 0
M  V30 966 C 84.7369 -5.94132 1.4722 0
M  V30 967 N 83.8739 -6.96975 0.846756 0
M  V30 968 H 88.7139 -2.54534 1.54972 0
M  V30 969 H 86.2509 -1.25028 0.775006 0
M  V30 970 H 88.2089 -4.15862 -0.33383 0
M  V30 971 H 86.8389 -3.12353 -0.814568 0
M  V30 972 H 85.8909 -3.45945 1.58196 0
M  V30 973 H 87.2029 -4.62306 1.87282 0
M  V30 974 H 86.3569 -6.06699 0.0115125 0
M  V30 975 H 85.0959 -4.86251 -0.375656 0
M  V30 976 H 84.1009 -5.15538 1.91052 0
M  V30 977 H 85.3259 -6.39337 2.28965 0
M  V30 978 H 83.2719 -6.5598 0.0518075 0
M  V30 979 H 83.1889 -7.39565 1.5678 0
M  V30 980 H 84.4569 -7.78239 0.443277 0
M  V30 981 N 88.686 -0.835752 -1.33615 0
M  V30 982 C 89.932 -0.430596 -1.98176 0
M  V30 983 C 90.265 1.00684 -1.66061 0
M  V30 984 O 89.54 1.70339 -0.938877 0
M  V30 985 C 89.823 -0.648065 -3.5422 0
M  V30 986 C 89.676 -2.13255 -3.96033 0
M  V30 987 C 90.995 -0.0922113 -4.40003 0
M  V30 988 H 88.114 -0.157924 -0.719881 0
M  V30 989 H 90.756 -1.05069 -1.58305 0
M  V30 990 H 88.906 -0.120237 -3.88314 0
M  V30 991 H 90.578 -2.725 -3.72211 0
M  V30 992 H 88.821 -2.61823 -3.45878 0
M  V30 993 H 89.492 -2.23547 -5.04708 0
M  V30 994 H 91.968 -0.543343 -4.12537 0
M  V30 995 H 90.844 -0.274083 -5.48215 0
M  V30 996 H 91.105 1.00378 -4.30554 0
M  V30 997 N 90.1641 1.46063 -0.591896 0
M  V30 998 C 91.4131 2.01547 -0.0786637 0
M  V30 999 C 91.7261 1.46796 1.29268 0
M  V30 1000 O 92.9321 1.94157 1.89777 0
M  V30 1001 C 91.3881 3.59787 -0.0900024 0
M  V30 1002 C 90.9961 4.23534 -1.46023 0
M  V30 1003 C 92.7401 4.22895 0.368806 0
M  V30 1004 C 90.6471 5.73881 -1.4288 0
M  V30 1005 H 89.5771 0.753564 -0.0256388 0
M  V30 1006 H 92.2281 1.677 -0.744905 0
M  V30 1007 H 90.6101 3.90752 0.642586 0
M  V30 1008 H 91.7841 4.04167 -2.21328 0
M  V30 1009 H 90.0991 3.72558 -1.85982 0
M  V30 1010 H 92.6961 5.33116 0.411258 0
M  V30 1011 H 93.0391 3.9247 1.38827 0
M  V30 1012 H 93.5721 3.9659 -0.31001 0
M  V30 1013 H 90.3111 6.0898 -2.42536 0
M  V30 1014 H 89.8311 5.95486 -0.718095 0
M  V30 1015 H 91.5101 6.36776 -1.14565 0
M  V30 1016 N 91.6422 0.330177 1.54103 0
M  V30 1017 C 92.8892 -0.270405 2.00686 0
M  V30 1018 C 93.2172 -1.51621 1.21825 0
M  V30 1019 O 92.4722 -1.93536 0.29025 0
M  V30 1020 C 92.7712 -0.643134 3.51566 0
M  V30 1021 C 92.4372 0.504251 4.48072 0
M  V30 1022 C 91.0992 0.819163 4.74176 0
M  V30 1023 C 93.4512 1.27465 5.05373 0
M  V30 1024 C 90.7792 1.90708 5.5484 0
M  V30 1025 C 93.1312 2.35271 5.87223 0
M  V30 1026 C 91.7952 2.67336 6.11627 0
M  V30 1027 H 91.0652 -0.0989482 0.734364 0
M  V30 1028 H 93.7122 0.455324 1.86008 0
M  V30 1029 H 92.0172 -1.44938 3.64006 0
M  V30 1030 H 93.7142 -1.11949 3.85056 0
M  V30 1031 H 90.3042 0.248733 4.27878 0
M  V30 1032 H 94.4882 1.04462 4.85182 0
M  V30 1033 H 89.7442 2.15991 5.71977 0
M  V30 1034 H 93.9182 2.95405 6.30641 0
M  V30 1035 H 91.5452 3.51763 6.73919 0
M  V30 1036 N 93.1203 -1.57491 0.0584922 0
M  V30 1037 C 94.0673 -2.11958 -0.913376 0
M  V30 1038 C 95.0373 -1.02875 -1.30407 0
M  V30 1039 O 96.2223 -1.30464 -1.39226 0
M  V30 1040 C 93.3623 -2.67497 -2.18035 0
M  V30 1041 C 92.4753 -3.90691 -1.84349 0
M  V30 1042 C 91.6103 -4.3452 -3.05559 0
M  V30 1043 C 90.6493 -5.50395 -2.67827 0
M  V30 1044 N 89.7863 -5.89244 -3.81754 0
M  V30 1045 H 94.6263 -2.94704 -0.442017 0
M  V30 1046 H 92.1633 -1.45643 -0.206545 0
M  V30 1047 H 94.1213 -2.978 -2.92183 0
M  V30 1048 H 92.7513 -1.87537 -2.62735 0
M  V30 1049 H 91.8033 -3.66934 -1.00319 0
M  V30 1050 H 93.1153 -4.7489 -1.5258 0
M  V30 1051 H 92.2693 -4.66414 -3.87998 0
M  V30 1052 H 91.0083 -3.49147 -3.40511 0
M  V30 1053 H 90.0133 -5.18165 -1.83806 0
M  V30 1054 H 91.2383 -6.3749 -2.34059 0
M  V30 1055 H 89.1843 -5.06823 -4.16493 0
M  V30 1056 H 89.1013 -6.68151 -3.53708 0
M  V30 1057 H 90.3693 -6.25756 -4.64811 0
M  V30 1058 N 94.5984 0.214957 -1.56127 0
M  V30 1059 C 96.0144 0.564948 -1.49267 0
M  V30 1060 C 96.2144 1.86827 -0.754838 0
M  V30 1061 O 95.2704 2.50745 -0.297198 0
M  V30 1062 C 96.5834 0.638071 -2.93852 0
M  V30 1063 C 98.1314 0.728253 -3.0441 0
M  V30 1064 C 98.6064 0.832663 -4.50367 0
M  V30 1065 N 100.097 0.896712 -4.54437 0
M  V30 1066 C 100.832 0.997324 -5.6466 0
M  V30 1067 N 100.328 1.06147 -6.8462 0
M  V30 1068 N 102.121 1.03297 -5.52527 0
M  V30 1069 H 94.2724 -0.640211 -2.02522 0
M  V30 1070 H 96.5354 -0.225507 -0.920788 0
M  V30 1071 H 96.2414 -0.250126 -3.50809 0
M  V30 1072 H 96.1154 1.49947 -3.46115 0
M  V30 1073 H 98.5024 1.60689 -2.47514 0
M  V30 1074 H 98.5834 -0.158952 -2.55306 0
M  V30 1075 H 98.2274 -0.0415417 -5.07883 0
M  V30 1076 H 98.1574 1.73538 -4.97184 0
M  V30 1077 H 100.648 0.857188 -3.6805 0
M  V30 1078 H 100.961 1.1382 -7.64372 0
M  V30 1079 H 99.3064 1.03049 -6.87318 0
M  V30 1080 H 102.497 0.979558 -4.57736 0
M  V30 1081 H 102.67 1.10793 -6.38458 0
M  V30 1082 N 96.0765 1.50051 0.48192 0
M  V30 1083 C 97.3045 1.64237 1.25832 0
M  V30 1084 C 97.7195 0.321336 1.86045 0
M  V30 1085 O 97.0765 -0.695478 1.68729 0
M  V30 1086 C 97.1275 2.72548 2.37487 0
M  V30 1087 O 96.8485 3.99529 1.79745 0
M  V30 1088 C 98.3495 2.9761 3.28547 0
M  V30 1089 H 95.5695 0.55237 0.380957 0
M  V30 1090 H 98.1135 1.96207 0.576467 0
M  V30 1091 H 96.2685 2.43303 3.01467 0
M  V30 1092 H 96.6825 4.59342 2.5319 0
M  V30 1093 H 98.1565 3.77084 4.03127 0
M  V30 1094 H 98.6335 2.0826 3.86684 0
M  V30 1095 H 99.2395 3.28345 2.70314 0
M  V30 1096 N 97.5546 -0.734337 1.39446 0
M  V30 1097 C 98.4646 -1.87879 1.40495 0
M  V30 1098 C 99.4806 -1.714 0.299672 0
M  V30 1099 O 100.657 -1.93991 0.541249 0
M  V30 1100 C 97.7216 -3.23477 1.24754 0
M  V30 1101 C 96.7826 -3.52344 2.45259 0
M  V30 1102 C 96.0156 -4.81473 2.30259 0
M  V30 1103 O 96.2386 -5.55237 1.30643 0
M  V30 1104 O 95.1726 -5.10254 3.19256 0
M  V30 1105 H 98.9986 -1.89949 2.36966 0
M  V30 1106 H 96.5836 -0.882243 1.20569 0
M  V30 1107 H 98.4656 -4.04509 1.18111 0
M  V30 1108 H 97.1406 -3.22176 0.313781 0
M  V30 1109 H 96.0476 -2.71396 2.57478 0
M  V30 1110 H 97.3806 -3.58426 3.37331 0
M  V30 1111 N 99.0327 -1.24633 -0.964593 0
M  V30 1112 C 99.9797 -1.04144 -2.05968 0
M  V30 1113 C 100.95 0.046262 -1.66036 0
M  V30 1114 O 102.135 -0.108972 -1.90489 0
M  V30 1115 C 99.2747 -0.65563 -3.38815 0
M  V30 1116 C 98.3877 -1.81714 -3.91923 0
M  V30 1117 C 97.5227 -1.37662 -5.13052 0
M  V30 1118 C 96.5617 -2.50788 -5.58365 0
M  V30 1119 N 95.6987 -2.07582 -6.70712 0
M  V30 1120 H 100.539 -1.9787 -2.22827 0
M  V30 1121 H 98.0757 -0.9855 -1.09208 0
M  V30 1122 H 100.034 -0.412954 -4.15151 0
M  V30 1123 H 98.6637 0.244627 -3.21872 0
M  V30 1124 H 97.7157 -2.1734 -3.12198 0
M  V30 1125 H 99.0277 -2.66705 -4.21509 0
M  V30 1126 H 98.1817 -1.093 -5.96773 0
M  V30 1127 H 96.9207 -0.497293 -4.85158 0
M  V30 1128 H 95.9257 -2.79906 -4.73215 0
M  V30 1129 H 97.1507 -3.39283 -5.88272 0
M  V30 1130 H 95.0967 -1.22051 -6.44546 0
M  V30 1131 H 95.0137 -2.86125 -6.99763 0
M  V30 1132 H 96.2817 -1.82369 -7.57867 0
M  V30 1133 N 100.511 1.16574 -1.06058 0
M  V30 1134 C 101.741 1.90675 -0.795397 0
M  V30 1135 C 102.149 1.77547 0.653735 0
M  V30 1136 O 101.492 1.11611 1.45907 0
M  V30 1137 C 101.554 3.42011 -1.10764 0
M  V30 1138 C 101.218 3.78924 -2.55471 0
M  V30 1139 C 102.215 3.81042 -3.53699 0
M  V30 1140 C 99.8998 4.09626 -2.90708 0
M  V30 1141 C 101.894 4.13346 -4.85205 0
M  V30 1142 C 99.5808 4.41597 -4.22416 0
M  V30 1143 C 100.579 4.43436 -5.19474 0
M  V30 1144 O 100.267 4.74649 -6.48817 0
M  V30 1145 H 99.9988 0.611554 -0.288058 0
M  V30 1146 H 102.553 1.48711 -1.41683 0
M  V30 1147 H 100.783 3.84312 -0.429128 0
M  V30 1148 H 102.472 3.97384 -0.827077 0
M  V30 1149 H 103.238 3.57437 -3.27817 0
M  V30 1150 H 99.1168 4.07361 -2.15819 0
M  V30 1151 H 102.661 4.14696 -5.60957 0
M  V30 1152 H 98.5578 4.64667 -4.48056 0
M  V30 1153 H 99.3258 4.9247 -6.5377 0
M  V30 1154 N 101.989 0.842826 1.3317 0
M  V30 1155 C 103.237 0.439577 1.97262 0
M  V30 1156 C 103.558 -1.00548 1.67078 0
M  V30 1157 O 102.828 -1.70098 0.971779 0
M  V30 1158 H 101.408 0.159558 0.72976 0
M  V30 1159 H 104.07 1.07665 1.62463 0
M  V30 1160 H 103.166 0.574886 3.0676 0
M  V30 1161 N 103.467 -1.45747 0.599634 0
M  V30 1162 C 104.414 -2.30467 -0.123849 0
M  V30 1163 C 105.384 -1.41632 -0.86774 0
M  V30 1164 O 106.569 -1.70568 -0.855056 0
M  V30 1165 C 103.709 -3.26402 -1.12051 0
M  V30 1166 C 102.822 -4.3034 -0.37832 0
M  V30 1167 C 101.957 -5.13389 -1.364 0
M  V30 1168 C 100.996 -6.09061 -0.609171 0
M  V30 1169 N 100.133 -6.84918 -1.54374 0
M  V30 1170 H 104.973 -2.91802 0.604627 0
M  V30 1171 H 102.51 -1.43797 0.309972 0
M  V30 1172 H 104.468 -3.80482 -1.7114 0
M  V30 1173 H 103.098 -2.66839 -1.8165 0
M  V30 1174 H 102.15 -3.78984 0.327929 0
M  V30 1175 H 103.462 -4.98354 0.210997 0
M  V30 1176 H 102.616 -5.7183 -2.02719 0
M  V30 1177 H 101.355 -4.45376 -1.98725 0
M  V30 1178 H 100.36 -5.49758 0.0676979 0
M  V30 1179 H 101.585 -6.79099 0.00891991 0
M  V30 1180 H 99.531 -6.19601 -2.15478 0
M  V30 1181 H 99.448 -7.49254 -1.00766 0
M  V30 1182 H 100.716 -7.47906 -2.19676 0
M  V30 1183 N 104.945 -0.338344 -1.53925 0
M  V30 1184 C 105.892 0.520845 -2.24846 0
M  V30 1185 C 106.862 1.09976 -1.24477 0
M  V30 1186 O 108.047 1.13735 -1.53196 0
M  V30 1187 C 105.187 1.6685 -3.02084 0
M  V30 1188 C 104.3 1.11739 -4.17299 0
M  V30 1189 C 103.435 2.23193 -4.82036 0
M  V30 1190 C 102.474 1.65407 -5.89328 0
M  V30 1191 N 101.611 2.70582 -6.47866 0
M  V30 1192 H 106.451 -0.0904881 -2.97863 0
M  V30 1193 H 103.988 -0.0564282 -1.46992 0
M  V30 1194 H 105.946 2.34407 -3.45122 0
M  V30 1195 H 104.576 2.2509 -2.31375 0
M  V30 1196 H 103.628 0.332919 -3.7894 0
M  V30 1197 H 104.94 0.654677 -4.94485 0
M  V30 1198 H 104.094 2.98626 -5.28117 0
M  V30 1199 H 102.833 2.72807 -4.04262 0
M  V30 1200 H 101.838 0.884779 -5.42634 0
M  V30 1201 H 103.063 1.16652 -6.69006 0
M  V30 1202 H 101.009 3.1946 -5.72959 0
M  V30 1203 H 100.926 2.28917 -7.20509 0
M  V30 1204 H 102.194 3.45799 -6.98601 0
M  V30 1205 N 106.423 1.57458 -0.0668435 0
M  V30 1206 C 107.333 2.15937 0.916975 0
M  V30 1207 C 108.349 1.12123 1.33058 0
M  V30 1208 O 109.525 1.44366 1.40429 0
M  V30 1209 C 106.59 2.70547 2.16807 0
M  V30 1210 C 105.651 3.89215 1.81135 0
M  V30 1211 C 104.884 4.41211 3.0028 0
M  V30 1212 O 105.107 3.92225 4.14144 0
M  V30 1213 O 104.041 5.32605 2.80384 0
M  V30 1214 H 107.867 3.00354 0.449561 0
M  V30 1215 H 105.452 1.48584 0.155949 0
M  V30 1216 H 107.334 3.0557 2.90181 0
M  V30 1217 H 106.009 1.89192 2.62656 0
M  V30 1218 H 104.916 3.59054 1.05028 0
M  V30 1219 H 106.249 4.71848 1.40073 0
M  V30 1220 N 107.901 -0.206675 1.56239 0
M  V30 1221 C 108.811 -1.27686 1.96808 0
M  V30 1222 C 109.827 -1.50455 0.874035 0
M  V30 1223 O 111.003 -1.63295 1.17884 0
M  V30 1224 C 108.068 -2.60358 2.28942 0
M  V30 1225 C 107.129 -2.45762 3.51994 0
M  V30 1226 C 106.362 -3.72108 3.82585 0
M  V30 1227 O 106.585 -4.75776 3.14631 0
M  V30 1228 O 105.519 -3.6833 4.76043 0
M  V30 1229 H 109.345 -0.962593 2.88041 0
M  V30 1230 H 106.93 -0.410746 1.43643 0
M  V30 1231 H 108.812 -3.38687 2.50737 0
M  V30 1232 H 107.487 -2.91435 1.4088 0
M  V30 1233 H 106.394 -1.65584 3.35459 0
M  V30 1234 H 107.727 -2.19621 4.40486 0
M  V30 1235 N 109.379 -1.50304 -0.473955 0
M  V30 1236 C 110.309 -1.71886 -1.58042 0
M  V30 1237 C 111.29 -0.567799 -1.60344 0
M  V30 1238 O 112.475 -0.806623 -1.76656 0
M  V30 1239 C 109.605 -1.81036 -2.96384 0
M  V30 1240 C 108.559 -2.962 -3.08949 0
M  V30 1241 C 107.885 -2.9049 -4.48909 0
M  V30 1242 C 109.185 -4.36752 -2.86434 0
M  V30 1243 H 110.879 -2.64527 -1.40234 0
M  V30 1244 H 108.425 -1.27295 -0.673201 0
M  V30 1245 H 110.378 -1.94719 -3.73714 0
M  V30 1246 H 109.102 -0.850147 -3.15341 0
M  V30 1247 H 107.761 -2.82164 -2.3405 0
M  V30 1248 H 107.409 -1.92321 -4.64781 0
M  V30 1249 H 107.109 -3.67802 -4.58253 0
M  V30 1250 H 108.633 -3.06218 -5.28264 0
M  V30 1251 H 110.047 -4.5133 -3.53517 0
M  V30 1252 H 108.444 -5.15493 -3.07225 0
M  V30 1253 H 109.514 -4.49321 -1.82316 0
M  V30 1254 N 110.857 0.726932 -1.39834 0
M  V30 1255 C 112.106 1.48214 -1.36805 0
M  V30 1256 C 112.419 1.95576 0.0305291 0
M  V30 1257 O 113.625 2.7088 0.183417 0
M  V30 1258 C 112.081 2.67854 -2.40379 0
M  V30 1259 C 111.689 2.27408 -3.85992 0
M  V30 1260 C 113.433 3.45641 -2.46439 0
M  V30 1261 C 111.34 3.43819 -4.81189 0
M  V30 1262 H 110.27 0.556606 -0.508631 0
M  V30 1263 H 112.921 0.792216 -1.65518 0
M  V30 1264 H 111.303 3.3896 -2.04749 0
M  V30 1265 H 112.477 1.63795 -4.30706 0
M  V30 1266 H 110.792 1.62692 -3.83302 0
M  V30 1267 H 113.389 4.32244 -3.14753 0
M  V30 1268 H 113.732 3.88669 -1.49139 0
M  V30 1269 H 114.265 2.8157 -2.81004 0
M  V30 1270 H 111.004 3.05834 -5.79781 0
M  V30 1271 H 110.524 4.06385 -4.41148 0
M  V30 1272 H 112.203 4.10043 -5.00474 0
M  V30 1273 N 112.336 1.25143 0.95797 0
M  V30 1274 C 113.585 1.0909 1.69654 0
M  V30 1275 C 113.898 -0.368548 1.92097 0
M  V30 1276 O 115.104 -0.649455 2.63618 0
M  V30 1277 C 113.56 1.90395 3.05414 0
M  V30 1278 C 113.168 3.4081 2.90779 0
M  V30 1279 C 114.912 1.82901 3.83076 0
M  V30 1280 C 112.819 4.14423 4.21909 0
M  V30 1281 H 111.749 0.404625 0.636235 0
M  V30 1282 H 114.4 1.4931 1.06672 0
M  V30 1283 H 112.782 1.42996 3.69281 0
M  V30 1284 H 113.956 3.95859 2.35865 0
M  V30 1285 H 112.271 3.49361 2.26575 0
M  V30 1286 H 114.868 2.35196 4.80195 0
M  V30 1287 H 115.211 0.796224 4.08615 0
M  V30 1288 H 115.744 2.28033 3.25954 0
M  V30 1289 H 112.483 5.18102 4.01561 0
M  V30 1290 H 112.003 3.64159 4.76601 0
M  V30 1291 H 113.682 4.21956 4.90471 0
M  V30 1292 N 113.814 -1.1601 1.06675 0
M  V30 1293 C 114.777 -2.18724 0.685001 0
M  V30 1294 C 115.777 -1.58496 -0.271246 0
M  V30 1295 O 116.967 -1.74119 -0.0531156 0
M  V30 1296 C 114.099 -3.40899 0.00853648 0
M  V30 1297 H 115.292 -2.54011 1.59431 0
M  V30 1298 H 112.845 -1.30352 0.862441 0
M  V30 1299 H 113.58 -3.11173 -0.913337 0
M  V30 1300 H 113.365 -3.8587 0.696204 0
M  V30 1301 H 114.855 -4.16886 -0.24414 0
M  V30 1302 N 115.292 -0.849877 -1.32721 0
M  V30 1303 C 116.517 -0.463856 -2.02146 0
M  V30 1304 C 116.942 0.930449 -1.63476 0
M  V30 1305 O 116.3 1.61033 -0.832952 0
M  V30 1306 C 116.348 -0.604955 -3.55489 0
M  V30 1307 O 115.452 0.36425 -4.10788 0
M  V30 1308 H 114.793 -0.187046 -0.637111 0
M  V30 1309 H 117.323 -1.14775 -1.69375 0
M  V30 1310 H 117.333 -0.490696 -4.05038 0
M  V30 1311 H 116.008 -1.62174 -3.82978 0
M  V30 1312 H 114.585 0.206628 -3.72327 0
M  V30 1313 N 116.77 1.45427 -0.607355 0
M  V30 1314 C 117.68 2.34325 0.113463 0
M  V30 1315 C 118.696 1.51226 0.860617 0
M  V30 1316 O 119.872 1.84029 0.818255 0
M  V30 1317 C 116.937 3.28839 1.09844 0
M  V30 1318 C 115.998 4.27844 0.353271 0
M  V30 1319 C 115.231 5.17842 1.29133 0
M  V30 1320 O 115.454 5.11264 2.52913 0
M  V30 1321 O 114.388 5.96713 0.788523 0
M  V30 1322 H 118.214 2.97364 -0.617094 0
M  V30 1323 H 115.799 1.44807 -0.367619 0
M  V30 1324 H 117.681 3.8708 1.66575 0
M  V30 1325 H 116.356 2.68365 1.81003 0
M  V30 1326 H 115.263 3.7322 -0.256494 0
M  V30 1327 H 116.596 4.91173 -0.317822 0
M  V30 1328 N 118.248 0.346503 1.53744 0
M  V30 1329 C 119.496 -0.248612 2.00565 0
M  V30 1330 C 119.817 -1.5083 1.23593 0
M  V30 1331 O 119.087 -1.92858 0.343912 0
M  V30 1332 H 117.667 -0.0948564 0.740953 0
M  V30 1333 H 120.329 0.468341 1.89189 0
M  V30 1334 H 119.425 -0.488994 3.08245 0
M  V30 1335 N 119.726 -1.57421 0.075193 0
M  V30 1336 C 120.659 -2.08528 -0.926904 0
M  V30 1337 C 121.637 -0.991171 -1.28898 0
M  V30 1338 O 122.821 -1.26479 -1.39769 0
M  V30 1339 C 119.948 -2.54576 -2.23402 0
M  V30 1340 C 118.994 -3.75454 -2.02327 0
M  V30 1341 S 119.827 -5.19989 -1.27951 0
M  V30 1342 C 120.983 -5.69372 -2.59935 0
M  V30 1343 H 121.216 -2.932 -0.492048 0
M  V30 1344 H 118.749 -1.53785 -0.137651 0
M  V30 1345 H 120.707 -2.81767 -2.98526 0
M  V30 1346 H 119.368 -1.70166 -2.64012 0
M  V30 1347 H 118.561 -4.05675 -2.99071 0
M  V30 1348 H 118.163 -3.48654 -1.35339 0
M  V30 1349 H 120.455 -5.76424 -3.56008 0
M  V30 1350 H 121.398 -6.68207 -2.34319 0
M  V30 1351 H 121.806 -4.97205 -2.67296 0
M  V30 1352 N 121.204 0.198386 -1.56346 0
M  V30 1353 C 122.451 0.919286 -1.80431 0
M  V30 1354 C 122.779 1.83393 -0.647866 0
M  V30 1355 O 122.034 1.92236 0.366556 0
M  V30 1356 C 122.333 1.77031 -3.10475 0
M  V30 1357 C 121.999 1.00693 -4.39513 0
M  V30 1358 C 120.661 0.796145 -4.74568 0
M  V30 1359 C 123.013 0.469559 -5.19081 0
M  V30 1360 C 120.341 0.0364588 -5.86689 0
M  V30 1361 C 122.693 -0.2769 -6.31994 0
M  V30 1362 C 121.357 -0.49873 -6.65634 0
M  V30 1363 H 120.627 0.336391 -0.660244 0
M  V30 1364 H 123.274 0.185872 -1.90596 0
M  V30 1365 H 121.579 2.5723 -2.95533 0
M  V30 1366 H 123.276 2.33065 -3.26315 0
M  V30 1367 H 119.866 1.18122 -4.12001 0
M  V30 1368 H 124.05 0.619816 -4.92414 0
M  V30 1369 H 119.306 -0.145412 -6.11227 0
M  V30 1370 H 123.48 -0.700684 -6.92866 0
M  V30 1371 H 121.107 -1.0893 -7.52355 0
M  V30 1372 N 122.682 1.50554 0.465978 0
M  V30 1373 C 123.91 1.65563 1.24083 0
M  V30 1374 C 124.325 0.341051 1.85694 0
M  V30 1375 O 123.682 -0.677543 1.69457 0
M  V30 1376 C 123.733 2.75051 2.34583 0
M  V30 1377 O 123.454 4.01413 1.75497 0
M  V30 1378 C 124.955 3.01078 3.25372 0
M  V30 1379 H 122.175 0.55638 0.375077 0
M  V30 1380 H 124.719 1.96807 0.555624 0
M  V30 1381 H 122.874 2.46486 2.9887 0
M  V30 1382 H 123.288 4.62002 2.48303 0
M  V30 1383 H 124.762 3.81339 3.99105 0
M  V30 1384 H 125.239 2.12349 3.84453 0
M  V30 1385 H 125.845 3.31194 2.66816 0
M  V30 1386 N 124.16 -0.719506 1.40217 0
M  V30 1387 C 125.408 -1.47641 1.3801 0
M  V30 1388 C 125.729 -1.94992 -0.018145 0
M  V30 1389 O 124.999 -1.70073 -0.972207 0
M  V30 1390 H 123.579 -0.547744 0.507923 0
M  V30 1391 H 126.241 -0.853187 1.75233 0
M  V30 1392 H 125.337 -2.35112 2.05253 0
M  V30 1393 N 125.638 -1.25649 -0.95132 0
M  V30 1394 C 126.57 -1.02112 -2.05197 0
M  V30 1395 C 127.583 0.0150571 -1.62793 0
M  V30 1396 O 128.772 -0.223874 -1.77091 0
M  V30 1397 C 125.872 -0.522361 -3.3485 0
M  V30 1398 C 125.045 -1.62546 -4.06076 0
M  V30 1399 C 124.104 -1.12649 -5.14001 0
M  V30 1400 O 123.13 -1.82156 -5.39266 0
M  V30 1401 N 124.332 0.03047 -5.80492 0
M  V30 1402 H 127.097 -1.96885 -2.25957 0
M  V30 1403 H 124.658 -1.16899 -1.1201 0
M  V30 1404 H 126.65 -0.172961 -4.0433 0
M  V30 1405 H 125.22 0.33151 -3.10837 0
M  V30 1406 H 124.44 -2.14628 -3.30649 0
M  V30 1407 H 125.728 -2.36644 -4.50419 0
M  V30 1408 H 125.126 0.611169 -5.62389 0
M  V30 1409 H 123.683 0.320875 -6.5101 0
M  V30 1410 N 127.117 1.15442 -1.07289 0
M  V30 1411 C 128.347 1.89821 -0.815576 0
M  V30 1412 C 128.755 1.7823 0.634867 0
M  V30 1413 O 128.098 1.13152 1.44715 0
M  V30 1414 C 128.16 3.40817 -1.14385 0
M  V30 1415 C 127.824 3.76193 -2.59476 0
M  V30 1416 C 128.821 3.77269 -3.57721 0
M  V30 1417 C 126.506 4.0652 -2.95037 0
M  V30 1418 C 128.5 4.08176 -4.89562 0
M  V30 1419 C 126.187 4.37092 -4.27076 0
M  V30 1420 C 127.185 4.37902 -5.24148 0
M  V30 1421 O 126.873 4.67741 -6.53815 0
M  V30 1422 H 126.605 0.608465 -0.294528 0
M  V30 1423 H 129.159 1.472 -1.43252 0
M  V30 1424 H 127.389 3.83835 -0.469865 0
M  V30 1425 H 129.078 3.96485 -0.869179 0
M  V30 1426 H 129.844 3.5394 -3.3159 0
M  V30 1427 H 125.723 4.05049 -2.20128 0
M  V30 1428 H 129.267 4.08723 -5.65324 0
M  V30 1429 H 125.164 4.59889 -4.5296 0
M  V30 1430 H 125.932 4.85509 -6.58957 0
M  V30 1431 N 128.595 0.856903 1.32268 0
M  V30 1432 C 129.844 0.457599 1.96441 0
M  V30 1433 C 130.157 -0.992426 1.68553 0
M  V30 1434 O 131.363 -1.49727 2.26482 0
M  V30 1435 C 129.819 0.767358 3.51624 0
M  V30 1436 C 129.427 2.23326 3.88367 0
M  V30 1437 C 131.171 0.435887 4.22256 0
M  V30 1438 C 129.078 2.48613 5.36606 0
M  V30 1439 H 128.008 0.167387 0.735185 0
M  V30 1440 H 130.659 1.048 1.5063 0
M  V30 1441 H 129.041 0.106367 3.95857 0
M  V30 1442 H 130.215 2.93623 3.55137 0
M  V30 1443 H 128.53 2.52948 3.30766 0
M  V30 1444 H 131.127 0.602202 5.31298 0
M  V30 1445 H 131.47 -0.622672 4.11617 0
M  V30 1446 H 132.003 1.05286 3.83614 0
M  V30 1447 H 128.742 3.53101 5.52268 0
M  V30 1448 H 128.262 1.82896 5.71235 0
M  V30 1449 H 129.941 2.32676 6.03714 0
M  V30 1450 N 130.073 -1.45103 0.615059 0
M  V30 1451 C 131.298 -2.07064 0.117988 0
M  V30 1452 C 131.723 -1.4554 -1.19163 0
M  V30 1453 O 131.081 -0.550855 -1.72729 0
M  V30 1454 C 131.129 -3.606 -0.000288387 0
M  V30 1455 O 130.233 -3.98847 -1.04856 0
M  V30 1456 H 129.574 -0.659467 0.0774581 0
M  V30 1457 H 132.104 -1.86236 0.847186 0
M  V30 1458 H 132.114 -4.07529 -0.196091 0
M  V30 1459 H 130.789 -4.04765 0.955932 0
M  V30 1460 H 129.366 -3.63577 -0.828619 0
M  V30 1461 N 131.551 -0.354651 -1.53558 0
M  V30 1462 C 132.791 0.238651 -2.03002 0
M  V30 1463 C 133.155 1.46878 -1.23656 0
M  V30 1464 O 134.356 2.13699 -1.63053 0
M  V30 1465 C 132.627 0.534175 -3.53386 0
M  V30 1466 S 134.186 1.10271 -4.24719 0
M  V30 1467 H 131.004 0.0702908 -0.707517 0
M  V30 1468 H 133.606 -0.494987 -1.8913 0
M  V30 1469 H 132.31 -0.368765 -4.0874 0
M  V30 1470 H 131.841 1.29718 -3.71398 0
M  V30 1471 H 133.856 2.38772 -4.34974 0
M  V30 1472 N 133.029 1.57378 -0.0835403 0
M  V30 1473 C 134.277 1.93547 0.581718 0
M  V30 1474 C 134.598 0.96524 1.69435 0
M  V30 1475 O 133.868 0.0153369 1.95894 0
M  V30 1476 H 132.448 0.714521 0.217874 0
M  V30 1477 H 135.11 1.94366 -0.144158 0
M  V30 1478 H 134.206 2.95665 0.999423 0
M  V30 1479 N 134.507 -0.190092 1.56449 0
M  V30 1480 C 135.735 -0.925772 1.85033 0
M  V30 1481 C 136.15 -1.76638 0.666658 0
M  V30 1482 O 135.507 -1.78822 -0.364565 0
M  V30 1483 C 135.558 -1.81786 3.12468 0
M  V30 1484 O 135.279 -1.01118 4.26271 0
M  V30 1485 C 136.78 -2.6648 3.54265 0
M  V30 1486 H 134 -0.269872 0.614337 0
M  V30 1487 H 136.544 -0.195837 2.0356 0
M  V30 1488 H 134.699 -2.50136 2.95822 0
M  V30 1489 H 135.113 -1.61956 4.98869 0
M  V30 1490 H 136.587 -3.24722 4.46385 0
M  V30 1491 H 137.064 -3.40434 2.77491 0
M  V30 1492 H 137.67 -2.03493 3.73458 0
M  V30 1493 N 135.985 -1.50799 -0.457987 0
M  V30 1494 C 136.932 -1.70617 -1.5543 0
M  V30 1495 C 137.902 -0.547562 -1.56815 0
M  V30 1496 O 139.087 -0.779647 -1.74144 0
M  V30 1497 C 136.227 -1.81831 -2.93311 0
M  V30 1498 C 135.34 -3.09278 -3.01615 0
M  V30 1499 C 134.475 -3.11209 -4.30491 0
M  V30 1500 C 133.514 -4.33055 -4.32585 0
M  V30 1501 N 132.651 -4.32652 -5.52952 0
M  V30 1502 H 137.491 -2.64207 -1.37836 0
M  V30 1503 H 135.028 -1.30959 -0.669937 0
M  V30 1504 H 136.986 -1.86314 -3.73287 0
M  V30 1505 H 135.616 -0.916685 -3.0951 0
M  V30 1506 H 134.668 -3.14203 -2.1443 0
M  V30 1507 H 135.98 -3.99233 -2.99022 0
M  V30 1508 H 135.134 -3.14494 -5.18824 0
M  V30 1509 H 133.873 -2.19106 -4.35711 0
M  V30 1510 H 132.878 -4.29969 -3.42647 0
M  V30 1511 H 134.103 -5.264 -4.29046 0
M  V30 1512 H 132.049 -3.43409 -5.58933 0
M  V30 1513 H 131.966 -5.16392 -5.52155 0
M  V30 1514 H 133.234 -4.40101 -6.43375 0
M  V30 1515 N 137.463 0.71206 -1.40597 0
M  V30 1516 C 138.426 1.80785 -1.40888 0
M  V30 1517 C 139.426 1.57937 -0.302103 0
M  V30 1518 O 140.616 1.64913 -0.561182 0
M  V30 1519 C 137.748 3.18927 -1.20409 0
M  V30 1520 H 138.941 1.81924 -2.38419 0
M  V30 1521 H 136.494 0.91805 -1.26497 0
M  V30 1522 H 137.229 3.23436 -0.236522 0
M  V30 1523 H 137.014 3.36911 -2.00582 0
M  V30 1524 H 138.504 3.98949 -1.23408 0
M  V30 1525 N 138.941 1.26152 0.944643 0
M  V30 1526 C 140.352 1.10454 1.50522 0
M  V30 1527 C 140.703 -0.31635 1.93633 0
M  V30 1528 O 139.828 -1.20746 1.79581 0
M  V30 1529 C 140.423 1.99891 2.73549 0
M  V30 1530 C 138.982 1.88348 3.25886 0
M  V30 1531 C 138.129 1.93447 1.9868 0
M  V30 1532 H 141.08 1.39292 0.760489 0
M  V30 1533 H 141.101 1.54477 3.47732 0
M  V30 1534 H 140.613 3.03297 2.42141 0
M  V30 1535 H 138.714 0.878636 3.62092 0
M  V30 1536 H 138.827 2.73696 3.93227 0
M  V30 1537 H 137.191 1.37456 2.14425 0
M  V30 1538 H 137.974 2.98476 1.69607 0
M  V30 1539 N 140.419 -1.14872 1.07899 0
M  V30 1540 C 141.349 -2.2193 0.725887 0
M  V30 1541 C 142.33 -1.67622 -0.28927 0
M  V30 1542 O 143.515 -1.93533 -0.160787 0
M  V30 1543 C 140.645 -3.47061 0.128856 0
M  V30 1544 C 139.599 -4.14363 1.07178 0
M  V30 1545 C 138.925 -5.33636 0.337229 0
M  V30 1546 C 140.225 -4.63492 2.40775 0
M  V30 1547 H 141.919 -2.51724 1.62097 0
M  V30 1548 H 139.465 -1.20991 0.780838 0
M  V30 1549 H 141.418 -4.21199 -0.130147 0
M  V30 1550 H 140.142 -3.16617 -0.80134 0
M  V30 1551 H 138.801 -3.42173 1.3158 0
M  V30 1552 H 138.449 -4.99449 -0.596606 0
M  V30 1553 H 138.149 -5.79609 0.965788 0
M  V30 1554 H 139.673 -6.10539 0.0861567 0
M  V30 1555 H 141.087 -5.2913 2.20669 0
M  V30 1556 H 139.484 -5.20148 2.99276 0
M  V30 1557 H 140.554 -3.78834 3.02676 0
M  V30 1558 N 141.898 -0.863906 -1.31812 0
M  V30 1559 C 143.123 -0.48527 -2.01643 0
M  V30 1560 C 143.548 0.913058 -1.64453 0
M  V30 1561 O 142.906 1.6014 -0.849985 0
M  V30 1562 C 142.954 -0.642625 -3.54828 0
M  V30 1563 O 142.058 0.320659 -4.11151 0
M  V30 1564 H 141.399 -0.193793 -0.635091 0
M  V30 1565 H 143.929 -1.16565 -1.68148 0
M  V30 1566 H 143.939 -0.533628 -4.04495 0
M  V30 1567 H 142.614 -1.66227 -3.81237 0
M  V30 1568 H 141.191 0.167126 -3.72525 0
M  V30 1569 N 143.376 1.44774 -0.622745 0
M  V30 1570 C 144.622 2.0242 -0.124083 0
M  V30 1571 C 144.955 1.4881 1.24777 0
M  V30 1572 O 144.23 0.668799 1.8264 0
M  V30 1573 C 144.513 3.59957 -0.101619 0
M  V30 1574 C 144.366 4.23867 -1.50521 0
M  V30 1575 C 145.685 4.36284 0.578272 0
M  V30 1576 H 142.804 0.735528 -0.0465645 0
M  V30 1577 H 145.446 1.72447 -0.797617 0
M  V30 1578 H 143.596 3.85623 0.471934 0
M  V30 1579 H 145.268 4.09336 -2.12701 0
M  V30 1580 H 143.511 3.81684 -2.06154 0
M  V30 1581 H 144.182 5.32843 -1.4416 0
M  V30 1582 H 146.658 4.16001 0.0906057 0
M  V30 1583 H 145.534 5.46004 0.563149 0
M  V30 1584 H 145.795 4.10271 1.64713 0
M  V30 1585 N 144.854 0.36279 1.53368 0
M  V30 1586 C 146.102 -0.227326 2.00817 0
M  V30 1587 C 146.423 -1.49511 1.25186 0
M  V30 1588 O 145.693 -1.92482 0.364348 0
M  V30 1589 H 144.273 -0.0869923 0.741917 0
M  V30 1590 H 146.935 0.488381 1.88682 0
M  V30 1591 H 146.031 -0.456273 3.08747 0
M  V30 1592 N 146.332 -1.57332 0.0918853 0
M  V30 1593 C 147.28 -2.15075 -0.885747 0
M  V30 1594 C 148.274 -1.09277 -1.29441 0
M  V30 1595 O 149.48 -1.27627 -1.26931 0
M  V30 1596 H 145.855 -0.687966 -0.303656 0
M  V30 1597 H 147.826 -2.96047 -0.373995 0
M  V30 1598 C 146.575 -2.74325 -2.13638 0
M  V30 1599 H 145.898 -3.55418 -1.8308 0
M  V30 1600 H 147.338 -3.183 -2.80109 0
M  V30 1601 C 145.797 -1.70062 -2.90827 0
M  V30 1602 O 146.327 -1.13763 -3.85254 0
M  V30 1603 N 144.533 -1.40628 -2.54307 0
M  V30 1604 H 144.08 -1.866 -1.7759 0
M  V30 1605 H 144.038 -0.711043 -3.06254 0
M  V30 1606 N 147.81 0.181792 -1.56548 0
M  V30 1607 C 149.059 0.898348 -1.8059 0
M  V30 1608 C 149.372 1.83862 -0.667379 0
M  V30 1609 O 150.578 2.59678 -0.792446 0
M  V30 1610 C 149.034 1.64791 -3.19956 0
M  V30 1611 C 148.642 0.751789 -4.41647 0
M  V30 1612 C 150.386 2.35331 -3.53298 0
M  V30 1613 C 148.293 1.50098 -5.72035 0
M  V30 1614 H 147.223 0.339194 -0.673397 0
M  V30 1615 H 149.874 0.151413 -1.82874 0
M  V30 1616 H 148.256 2.43921 -3.11959 0
M  V30 1617 H 149.43 -0.0018076 -4.608 0
M  V30 1618 H 147.745 0.156562 -4.16106 0
M  V30 1619 H 150.342 2.91958 -4.47956 0
M  V30 1620 H 150.685 3.10164 -2.77676 0
M  V30 1621 H 151.218 1.63154 -3.62803 0
M  V30 1622 H 147.957 0.795175 -6.50659 0
M  V30 1623 H 147.477 2.22817 -5.56878 0
M  V30 1624 H 149.156 2.05125 -6.13622 0
M  V30 1625 N 149.288 1.51039 0.449983 0
M  V30 1626 C 150.218 1.74379 1.55288 0
M  V30 1627 C 151.199 0.593236 1.5942 0
M  V30 1628 O 152.384 0.834625 1.7535 0
M  V30 1629 C 149.514 1.85728 2.93466 0
M  V30 1630 C 148.468 3.01078 3.04197 0
M  V30 1631 C 147.794 2.97595 4.44231 0
M  V30 1632 C 149.094 4.41254 2.7945 0
M  V30 1633 H 150.788 2.66725 1.36008 0
M  V30 1634 H 148.334 1.2835 0.652864 0
M  V30 1635 H 150.287 2.0064 3.70569 0
M  V30 1636 H 149.011 0.900207 3.13949 0
M  V30 1637 H 147.67 2.85851 2.29531 0
M  V30 1638 H 147.318 1.99691 4.61663 0
M  V30 1639 H 147.018 3.75046 4.52343 0
M  V30 1640 H 148.542 3.14583 5.23326 0
M  V30 1641 H 149.956 4.56897 3.46292 0
M  V30 1642 H 148.353 5.20315 2.98985 0
M  V30 1643 H 149.423 4.52164 1.75144 0
M  V30 1644 N 150.766 -0.704594 1.40972 0
M  V30 1645 C 152.177 -1.28418 1.3552 0
M  V30 1646 C 152.528 -1.96171 0.0339434 0
M  V30 1647 O 151.653 -1.98231 -0.867944 0
M  V30 1648 C 152.248 -2.33528 2.45459 0
M  V30 1649 C 150.807 -2.87085 2.43433 0
M  V30 1650 C 149.954 -1.61007 2.2577 0
M  V30 1651 H 152.905 -0.499963 1.50619 0
M  V30 1652 H 152.926 -3.14619 2.13998 0
M  V30 1653 H 152.438 -1.84187 3.41609 0
M  V30 1654 H 150.539 -3.40626 1.51013 0
M  V30 1655 H 150.652 -3.3813 3.39419 0
M  V30 1656 H 149.016 -1.86482 1.73483 0
M  V30 1657 H 149.799 -1.13675 3.23933 0
M  V30 1658 N 152.244 -1.26651 -0.937939 0
M  V30 1659 C 153.493 -1.11775 -1.67897 0
M  V30 1660 C 153.806 0.33794 -1.92659 0
M  V30 1661 O 155.012 0.607434 -2.64618 0
M  V30 1662 C 153.468 -1.9523 -3.02346 0
M  V30 1663 C 153.076 -3.45393 -2.8532 0
M  V30 1664 C 154.82 -1.88972 -3.80118 0
M  V30 1665 C 152.727 -4.21083 -4.15263 0
M  V30 1666 H 151.657 -0.414696 -0.629717 0
M  V30 1667 H 154.308 -1.50988 -1.04283 0
M  V30 1668 H 152.69 -1.48853 -3.66959 0
M  V30 1669 H 153.864 -3.99561 -2.29537 0
M  V30 1670 H 152.179 -3.52921 -2.20988 0
M  V30 1671 H 154.776 -2.42805 -4.76392 0
M  V30 1672 H 155.119 -0.86113 -4.07296 0
M  V30 1673 H 155.652 -2.33189 -3.22285 0
M  V30 1674 H 152.391 -5.24425 -3.93267 0
M  V30 1675 H 151.911 -3.71695 -4.70747 0
M  V30 1676 H 153.59 -4.29706 -4.83696 0
M  V30 1677 N 153.722 1.14298 -1.08507 0
M  V30 1678 C 154.97 1.84993 -0.813763 0
M  V30 1679 C 155.291 1.83405 0.662393 0
M  V30 1680 O 154.561 1.28319 1.48024 0
M  V30 1681 H 153.141 0.684966 -0.298045 0
M  V30 1682 H 155.803 1.385 -1.37126 0
M  V30 1683 H 154.899 2.89788 -1.15884 0
M  V30 1684 N 155.201 0.870884 1.31352 0
M  V30 1685 C 156.148 0.325425 2.28494 0
M  V30 1686 C 157.118 -0.576615 1.5577 0
M  V30 1687 O 158.303 -0.508059 1.83911 0
M  V30 1688 C 155.443 -0.466283 3.41935 0
M  V30 1689 C 154.556 0.463378 4.29508 0
M  V30 1690 C 153.691 -0.342544 5.30094 0
M  V30 1691 C 152.73 0.583486 6.09313 0
M  V30 1692 N 151.867 -0.186244 7.01853 0
M  V30 1693 H 156.707 1.15901 2.74538 0
M  V30 1694 H 154.244 0.58294 1.35056 0
M  V30 1695 H 156.202 -0.941085 4.06447 0
M  V30 1696 H 154.832 -1.26456 2.97 0
M  V30 1697 H 153.884 1.05663 3.65431 0
M  V30 1698 H 155.196 1.1734 4.84802 0
M  V30 1699 H 154.35 -0.879816 6.00287 0
M  V30 1700 H 153.089 -1.08585 4.75458 0
M  V30 1701 H 152.094 1.13251 5.3801 0
M  V30 1702 H 153.319 1.32566 6.66035 0
M  V30 1703 H 151.265 -0.912348 6.49625 0
M  V30 1704 H 151.182 0.464422 7.54572 0
M  V30 1705 H 152.45 -0.704716 7.76308 0
M  V30 1706 N 156.679 -1.44442 0.630414 0
M  V30 1707 C 157.612 -2.27862 -0.124247 0
M  V30 1708 C 158.59 -1.38495 -0.851931 0
M  V30 1709 O 159.774 -1.67935 -0.856166 0
M  V30 1710 C 156.901 -3.17407 -1.18197 0
M  V30 1711 C 155.947 -4.22875 -0.554892 0
M  V30 1712 S 156.78 -5.31485 0.654489 0
M  V30 1713 C 157.936 -6.246 -0.40326 0
M  V30 1714 H 158.169 -2.91519 0.583435 0
M  V30 1715 H 155.702 -1.48618 0.418565 0
M  V30 1716 H 157.66 -3.69549 -1.78728 0
M  V30 1717 H 156.321 -2.52971 -1.86184 0
M  V30 1718 H 155.514 -4.85542 -1.35148 0
M  V30 1719 H 155.116 -3.73992 -0.0242105 0
M  V30 1720 H 157.408 -6.65375 -1.27602 0
M  V30 1721 H 158.351 -7.07851 0.187813 0
M  V30 1722 H 158.759 -5.59775 -0.728837 0
M  V30 1723 N 158.157 -0.370918 -1.53173 0
M  V30 1724 C 159.568 0.107139 -1.86392 0
M  V30 1725 C 159.919 1.47714 -1.29132 0
M  V30 1726 O 159.044 2.07464 -0.615439 0
M  V30 1727 C 159.639 0.201187 -3.38202 0
M  V30 1728 C 158.198 0.623507 -3.712 0
M  V30 1729 C 157.345 -0.225978 -2.76378 0
M  V30 1730 H 160.296 -0.58951 -1.47345 0
M  V30 1731 H 160.317 1.02377 -3.66468 0
M  V30 1732 H 159.829 -0.796058 -3.79848 0
M  V30 1733 H 157.93 1.62879 -3.35114 0
M  V30 1734 H 158.043 0.394414 -4.77474 0
M  V30 1735 H 156.407 0.305962 -2.52856 0
M  V30 1736 H 157.19 -1.22086 -3.20858 0
M  V30 1737 N 159.635 1.57281 -0.100228 0
M  V30 1738 C 160.545 2.17833 0.870965 0
M  V30 1739 C 161.561 1.14921 1.30649 0
M  V30 1740 O 162.737 1.47313 1.37335 0
M  V30 1741 C 159.802 2.75085 2.1102 0
M  V30 1742 C 158.863 3.9297 1.72838 0
M  V30 1743 C 158.096 4.47482 2.90854 0
M  V30 1744 O 158.319 4.00922 4.05731 0
M  V30 1745 O 157.253 5.38433 2.69023 0
M  V30 1746 H 161.079 3.0124 0.38575 0
M  V30 1747 H 158.664 1.48881 0.124397 0
M  V30 1748 H 160.546 3.11656 2.83634 0
M  V30 1749 H 159.221 1.94721 2.58584 0
M  V30 1750 H 158.128 3.61201 0.973883 0
M  V30 1751 H 159.461 4.74713 1.30033 0
M  V30 1752 N 161.113 -0.173488 1.56642 0
M  V30 1753 C 162.361 -0.888706 1.81512 0
M  V30 1754 C 162.682 -1.82875 0.676872 0
M  V30 1755 O 161.952 -1.93536 -0.303414 0
M  V30 1756 H 160.532 -0.331164 0.669582 0
M  V30 1757 H 163.194 -0.173823 1.94123 0
M  V30 1758 H 162.29 -1.46691 2.75478 0
M  V30 1759 N 162.591 -1.51276 -0.441967 0
M  V30 1760 C 163.819 -1.67516 -1.21434 0
M  V30 1761 C 164.234 -0.37055 -1.85128 0
M  V30 1762 O 163.591 0.650498 -1.70513 0
M  V30 1763 C 163.642 -2.78748 -2.30177 0
M  V30 1764 O 163.363 -4.04154 -1.69089 0
M  V30 1765 C 164.864 -3.06217 -3.20541 0
M  V30 1766 H 162.084 -0.562276 -0.366178 0
M  V30 1767 H 164.628 -1.97666 -0.524244 0
M  V30 1768 H 162.783 -2.5121 -2.94911 0
M  V30 1769 H 163.197 -4.65894 -2.40922 0
M  V30 1770 H 164.671 -3.8764 -3.92987 0
M  V30 1771 H 165.148 -2.18439 -3.81026 0
M  V30 1772 H 165.754 -3.35397 -2.61513 0
M  V30 1773 N 164.069 0.697108 -1.41344 0
M  V30 1774 C 164.999 1.82353 -1.45841 0
M  V30 1775 C 165.98 1.67115 -0.317247 0
M  V30 1776 O 167.165 1.86871 -0.528474 0
M  V30 1777 C 164.295 3.20476 -1.33838 0
M  V30 1778 C 163.249 3.50415 -2.4575 0
M  V30 1779 C 162.575 4.87878 -2.18813 0
M  V30 1780 C 163.875 3.49546 -3.88091 0
M  V30 1781 H 165.569 1.78846 -2.40113 0
M  V30 1782 H 163.115 0.859028 -1.15571 0
M  V30 1783 H 165.068 3.98988 -1.35596 0
M  V30 1784 H 163.792 3.24604 -0.360498 0
M  V30 1785 H 162.451 2.74253 -2.43271 0
M  V30 1786 H 162.099 4.8863 -1.19371 0
M  V30 1787 H 161.799 5.08875 -2.93803 0
M  V30 1788 H 163.323 5.68702 -2.22284 0
M  V30 1789 H 164.737 4.18066 -3.92293 0
M  V30 1790 H 163.134 3.82075 -4.62751 0
M  V30 1791 H 164.204 2.48552 -4.16353 0
M  V30 1792 N 165.547 1.27147 0.931209 0
M  V30 1793 C 166.796 1.12664 1.67302 0
M  V30 1794 C 167.109 -0.327718 1.92835 0
M  V30 1795 O 168.315 -0.593392 2.64936 0
M  V30 1796 C 166.771 1.9683 3.01307 0
M  V30 1797 C 166.379 3.46901 2.83485 0
M  V30 1798 C 168.123 1.90985 3.79111 0
M  V30 1799 C 166.03 4.23279 4.13024 0
M  V30 1800 H 164.96 0.41803 0.627509 0
M  V30 1801 H 167.611 1.51539 1.03481 0
M  V30 1802 H 165.993 1.50797 3.66164 0
M  V30 1803 H 167.167 4.00773 2.27415 0
M  V30 1804 H 165.482 3.54088 2.19113 0
M  V30 1805 H 168.079 2.45328 4.75098 0
M  V30 1806 H 168.422 0.882718 4.06834 0
M  V30 1807 H 168.955 2.34895 3.21044 0
M  V30 1808 H 165.694 5.26503 3.90481 0
M  V30 1809 H 165.214 3.74186 4.6877 0
M  V30 1810 H 166.893 4.32265 4.81411 0
M  V30 1811 N 167.025 -1.13721 1.09112 0
M  V30 1812 C 168.265 -1.86576 0.834801 0
M  V30 1813 C 168.629 -1.81435 -0.628122 0
M  V30 1814 O 169.83 -2.49497 -1.00024 0
M  V30 1815 C 168.101 -3.30872 1.35124 0
M  V30 1816 S 169.66 -4.21257 1.22832 0
M  V30 1817 H 166.478 -0.643666 0.302017 0
M  V30 1818 H 169.08 -1.37085 1.39385 0
M  V30 1819 H 167.784 -3.32166 2.41027 0
M  V30 1820 H 167.315 -3.85423 0.788185 0
M  V30 1821 H 169.33 -4.95884 0.177191 0
M  V30 1822 N 168.503 -0.877838 -1.30888 0
M  V30 1823 C 169.451 -0.328662 -2.30266 0
M  V30 1824 C 170.445 0.560496 -1.59859 0
M  V30 1825 O 171.651 0.445722 -1.74394 0
M  V30 1826 H 168.026 -0.0876142 -0.746879 0
M  V30 1827 H 169.997 -1.18061 -2.74051 0
M  V30 1828 C 168.746 0.448071 -3.44801 0
M  V30 1829 H 168.069 -0.226859 -3.99156 0
M  V30 1830 H 169.509 0.797541 -4.16432 0
M  V30 1831 C 167.968 1.64239 -2.94155 0
M  V30 1832 O 168.498 2.74175 -2.93583 0
M  V30 1833 N 166.704 1.47716 -2.50256 0
M  V30 1834 H 166.251 0.582821 -2.5092 0
M  V30 1835 H 166.209 2.27765 -2.16727 0
M  V30 1836 N 169.982 1.44106 -0.638065 0
M  V30 1837 C 170.912 2.33448 0.0494287 0
M  V30 1838 C 171.893 1.48606 0.827672 0
M  V30 1839 O 173.078 1.77308 0.792173 0
M  V30 1840 C 170.208 3.31771 1.02691 0
M  V30 1841 C 169.162 4.26485 0.359823 0
M  V30 1842 C 168.488 5.14729 1.44769 0
M  V30 1843 C 169.788 5.17056 -0.738296 0
M  V30 1844 H 171.482 2.91183 -0.696636 0
M  V30 1845 H 169.028 1.40014 -0.336456 0
M  V30 1846 H 170.981 3.93161 1.51666 0
M  V30 1847 H 169.705 2.7226 1.80395 0
M  V30 1848 H 168.364 3.66437 -0.10934 0
M  V30 1849 H 168.012 4.51566 2.21578 0
M  V30 1850 H 167.712 5.78913 1.00668 0
M  V30 1851 H 169.236 5.78991 1.93911 0
M  V30 1852 H 170.65 5.72342 -0.331354 0
M  V30 1853 H 169.047 5.89879 -1.10286 0
M  V30 1854 H 170.117 4.57652 -1.60258 0
M  V30 1855 N 171.46 0.379036 1.52974 0
M  V30 1856 C 172.37 -0.468639 2.29872 0
M  V30 1857 C 173.386 -1.08067 1.36373 0
M  V30 1858 O 174.562 -1.08871 1.69438 0
M  V30 1859 C 171.627 -1.58594 3.083 0
M  V30 1860 C 170.688 -1.00007 4.17489 0
M  V30 1861 C 169.921 -2.06413 4.92168 0
M  V30 1862 O 170.144 -3.27751 4.66835 0
M  V30 1863 O 169.078 -1.68717 5.7777 0
M  V30 1864 H 172.904 0.157508 3.03291 0
M  V30 1865 H 170.489 0.143035 1.48714 0
M  V30 1866 H 172.371 -2.23525 3.57232 0
M  V30 1867 H 171.046 -2.19724 2.37703 0
M  V30 1868 H 169.953 -0.314299 3.72777 0
M  V30 1869 H 171.286 -0.433135 4.90291 0
M  V30 1870 N 172.938 -1.57226 0.108567 0
M  V30 1871 C 173.888 -2.11305 -0.856396 0
M  V30 1872 C 174.872 -1.03129 -1.23504 0
M  V30 1873 O 176.064 -1.29381 -1.20787 0
M  V30 1874 C 173.193 -2.70771 -2.11041 0
M  V30 1875 C 172.279 -3.86011 -1.7566 0
M  V30 1876 N 172.67 -4.93492 -1.10902 0
M  V30 1877 C 170.968 -3.95999 -2.05185 0
M  V30 1878 C 171.669 -5.73984 -0.944308 0
M  V30 1879 N 170.645 -5.2346 -1.46596 0
M  V30 1880 H 174.447 -2.91784 -0.352002 0
M  V30 1881 H 171.961 -1.62126 -0.0942324 0
M  V30 1882 H 173.958 -3.07851 -2.81128 0
M  V30 1883 H 172.618 -1.91751 -2.62034 0
M  V30 1884 H 173.629 -5.1208 -0.774235 0
M  V30 1885 H 170.306 -3.28007 -2.58298 0
M  V30 1886 H 171.696 -6.70479 -0.436813 0
M  V30 1887 N 174.416 0.165178 -1.56732 0
M  V30 1888 C 175.832 0.517174 -1.50988 0
M  V30 1889 C 176.032 1.84331 -0.813894 0
M  V30 1890 O 175.088 2.49672 -0.37682 0
M  V30 1891 C 176.401 0.544261 -2.95733 0
M  V30 1892 C 177.949 0.631039 -3.06573 0
M  V30 1893 C 178.424 0.68896 -4.52788 0
M  V30 1894 N 179.915 0.751683 -4.5706 0
M  V30 1895 C 180.65 0.817177 -5.67547 0
M  V30 1896 N 180.146 0.843129 -6.8765 0
M  V30 1897 N 181.939 0.856668 -5.55534 0
M  V30 1898 H 174.09 -0.704318 -2.00382 0
M  V30 1899 H 176.353 -0.254687 -0.913148 0
M  V30 1900 H 176.059 -0.361607 -3.49836 0
M  V30 1901 H 175.933 1.3886 -3.5071 0
M  V30 1902 H 178.32 1.52733 -2.52501 0
M  V30 1903 H 178.401 -0.240095 -2.54671 0
M  V30 1904 H 178.045 -0.2031 -5.07494 0
M  V30 1905 H 177.975 1.57633 -5.02454 0
M  V30 1906 H 180.466 0.739661 -3.70591 0
M  V30 1907 H 180.779 0.894448 -7.67606 0
M  V30 1908 H 179.124 0.811304 -6.90248 0
M  V30 1909 H 182.315 0.833437 -4.60621 0
M  V30 1910 H 182.488 0.904247 -6.4166 0
M  V30 1911 N 175.894 1.51508 0.433938 0
M  V30 1912 C 177.122 1.68157 1.20543 0
M  V30 1913 C 177.537 0.380362 1.84929 0
M  V30 1914 O 176.894 -0.641446 1.70856 0
M  V30 1915 C 176.945 2.79965 2.28696 0
M  V30 1916 O 176.666 4.05045 1.66943 0
M  V30 1917 C 178.167 3.07912 3.18912 0
M  V30 1918 H 175.387 0.56421 0.363191 0
M  V30 1919 H 177.931 1.97941 0.513754 0
M  V30 1920 H 176.086 2.5277 2.93574 0
M  V30 1921 H 176.5 4.67165 2.38448 0
M  V30 1922 H 177.974 3.89719 3.90926 0
M  V30 1923 H 178.451 2.20456 3.79863 0
M  V30 1924 H 179.057 3.36779 2.59731 0
M  V30 1925 N 177.372 -0.689602 1.41712 0
M  V30 1926 C 178.62 -1.4468 1.4111 0
M  V30 1927 C 178.941 -1.94986 0.0232196 0
M  V30 1928 O 178.211 -1.72097 -0.935913 0
M  V30 1929 H 176.791 -0.536847 0.519427 0
M  V30 1930 H 179.453 -0.815825 1.77004 0
M  V30 1931 H 178.549 -2.30706 2.10193 0
M  V30 1932 N 178.85 -1.27639 -0.924453 0
M  V30 1933 C 179.798 -1.10485 -2.04685 0
M  V30 1934 C 180.792 -0.0270421 -1.69378 0
M  V30 1935 O 181.998 -0.185008 -1.79047 0
M  V30 1936 H 178.373 -0.340546 -0.670472 0
M  V30 1937 H 180.344 -2.05566 -2.16298 0
M  V30 1938 C 179.093 -0.772229 -3.39016 0
M  V30 1939 H 178.416 -1.59351 -3.66671 0
M  V30 1940 H 179.856 -0.692097 -4.18313 0
M  V30 1941 C 178.315 0.523554 -3.32807 0
M  V30 1942 O 178.845 1.55702 -3.70297 0
M  V30 1943 N 177.051 0.520363 -2.85903 0
M  V30 1944 H 176.598 -0.32107 -2.55591 0
M  V30 1945 H 176.556 1.38742 -2.82131 0
M  V30 1946 N 180.328 1.1314 -1.09713 0
M  V30 1947 C 181.744 1.36477 -0.827423 0
M  V30 1948 C 181.944 1.93654 0.556817 0
M  V30 1949 O 181 2.15791 1.31112 0
M  V30 1950 C 182.313 2.31334 -1.92106 0
M  V30 1951 C 183.861 2.44943 -1.94864 0
M  V30 1952 C 184.336 3.4311 -3.0338 0
M  V30 1953 N 185.827 3.50662 -3.02639 0
M  V30 1954 C 186.562 4.2651 -3.83246 0
M  V30 1955 N 186.058 5.05485 -4.73768 0
M  V30 1956 N 187.851 4.2184 -3.71493 0
M  V30 1957 H 180.002 0.743807 -1.9895 0
M  V30 1958 H 182.265 0.389823 -0.864143 0
M  V30 1959 H 181.971 1.96483 -2.91698 0
M  V30 1960 H 181.845 3.31381 -1.80184 0
M  V30 1961 H 184.232 2.79079 -0.959099 0
M  V30 1962 H 184.313 1.4481 -2.10864 0
M  V30 1963 H 183.957 3.09704 -4.02549 0
M  V30 1964 H 183.887 4.43055 -2.84622 0
M  V30 1965 H 186.378 2.94315 -2.37039 0
M  V30 1966 H 186.691 5.60675 -5.3185 0
M  V30 1967 H 185.036 5.04708 -4.77802 0
M  V30 1968 H 188.227 3.5922 -3.00131 0
M  V30 1969 H 188.4 4.80697 -4.3455 0
M  V30 1970 N 181.806 0.884767 1.30421 0
M  V30 1971 C 183.054 0.502112 1.95763 0
M  V30 1972 C 183.375 -0.951815 1.70192 0
M  V30 1973 O 182.645 -1.6692 1.0254 0
M  V30 1974 H 181.225 0.182694 0.724315 0
M  V30 1975 H 183.887 1.1278 1.58955 0
M  V30 1976 H 182.983 0.672188 3.04775 0
M  V30 1977 N 183.284 -1.43765 0.645699 0
M  V30 1978 C 184.512 -2.06253 0.163556 0
M  V30 1979 C 184.927 -1.48352 -1.16778 0
M  V30 1980 O 184.284 -0.611932 -1.71935 0
M  V30 1981 C 184.335 -3.61453 0.0583186 0
M  V30 1982 O 184.056 -4.172 1.33702 0
M  V30 1983 C 185.557 -4.41002 -0.450795 0
M  V30 1984 H 182.777 -0.665413 0.0864077 0
M  V30 1985 H 185.321 -1.84396 0.884222 0
M  V30 1986 H 183.476 -3.82522 -0.612865 0
M  V30 1987 H 183.89 -5.10791 1.19131 0
M  V30 1988 H 185.364 -5.49966 -0.473403 0
M  V30 1989 H 185.841 -4.13488 -1.48068 0
M  V30 1990 H 186.447 -4.24886 0.187637 0
M  V30 1991 N 184.763 -0.387143 -1.52771 0
M  V30 1992 C 185.693 0.440551 -2.29306 0
M  V30 1993 C 186.674 1.06535 -1.32606 0
M  V30 1994 O 187.859 1.07853 -1.61497 0
M  V30 1995 C 184.989 1.56919 -3.09829 0
M  V30 1996 C 183.943 1.07054 -4.14395 0
M  V30 1997 C 183.269 2.29109 -4.83129 0
M  V30 1998 C 184.569 0.140015 -5.22112 0
M  V30 1999 H 186.263 -0.198026 -2.98744 0
M  V30 2000 H 183.809 -0.09668 -1.43675 0
M  V30 2001 H 185.762 2.15503 -3.62128 0
M  V30 2002 H 184.486 2.23532 -2.3812 0
M  V30 2003 H 183.145 0.507247 -3.63074 0
M  V30 2004 H 182.793 2.94227 -4.0797 0
M  V30 2005 H 182.493 1.96406 -5.53804 0
M  V30 2006 H 184.017 2.88339 -5.38231 0
M  V30 2007 H 185.431 0.633978 -5.69784 0
M  V30 2008 H 183.828 -0.0971485 -6.00021 0
M  V30 2009 H 184.898 -0.811711 -4.78058 0
M  V30 2010 N 186.241 1.57166 -0.116904 0
M  V30 2011 C 187.487 1.95412 0.542405 0
M  V30 2012 C 187.82 1.00019 1.66463 0
M  V30 2013 O 187.095 0.0370346 1.94465 0
M  V30 2014 C 187.378 3.43615 1.07708 0
M  V30 2015 C 187.231 4.49781 -0.0415868 0
M  V30 2016 C 188.55 3.93616 1.96861 0
M  V30 2017 H 185.669 0.710543 0.195696 0
M  V30 2018 H 188.311 1.89027 -0.192038 0
M  V30 2019 H 186.461 3.49187 1.70296 0
M  V30 2020 H 188.133 4.56308 -0.676793 0
M  V30 2021 H 186.376 4.28033 -0.705019 0
M  V30 2022 H 187.047 5.50733 0.373717 0
M  V30 2023 H 189.523 3.90335 1.44146 0
M  V30 2024 H 188.399 4.97838 2.3119 0
M  V30 2025 H 188.66 3.34188 2.89432 0
M  V30 2026 N 187.719 -0.156864 1.56817 0
M  V30 2027 C 188.666 -1.19394 1.97519 0
M  V30 2028 C 189.636 -1.4322 0.841265 0
M  V30 2029 O 190.821 -1.55719 1.10255 0
M  V30 2030 C 187.961 -2.52483 2.35258 0
M  V30 2031 C 187.074 -2.35914 3.61896 0
M  V30 2032 C 186.209 -3.61969 3.88782 0
M  V30 2033 C 185.248 -3.40395 5.08722 0
M  V30 2034 N 184.385 -4.58556 5.31668 0
M  V30 2035 H 189.225 -0.839845 2.85921 0
M  V30 2036 H 186.762 -0.403264 1.41464 0
M  V30 2037 H 188.72 -3.30071 2.55165 0
M  V30 2038 H 187.35 -2.85859 1.49949 0
M  V30 2039 H 186.402 -1.49429 3.49821 0
M  V30 2040 H 187.714 -2.15926 4.49641 0
M  V30 2041 H 186.868 -4.47989 4.09135 0
M  V30 2042 H 185.607 -3.84951 2.9944 0
M  V30 2043 H 184.612 -2.52763 4.88253 0
M  V30 2044 H 185.837 -3.18822 5.99608 0
M  V30 2045 H 183.783 -4.81729 4.45279 0
M  V30 2046 H 183.7 -4.41535 6.13664 0
M  V30 2047 H 184.968 -5.45817 5.5651 0
M  V30 2048 N 189.197 -1.51736 -0.425897 0
M  V30 2049 C 190.16 -1.73271 -1.50032 0
M  V30 2050 C 191.16 -0.602639 -1.4908 0
M  V30 2051 O 192.35 -0.87033 -1.509 0
M  V30 2052 C 189.482 -1.79969 -2.89523 0
M  V30 2053 H 190.675 -2.69172 -1.32237 0
M  V30 2054 H 188.228 -1.41899 -0.65532 0
M  V30 2055 H 188.963 -0.859241 -3.1271 0
M  V30 2056 H 188.748 -2.62109 -2.91619 0
M  V30 2057 H 190.238 -1.9843 -3.67444 0
M  V30 2058 N 190.675 0.682077 -1.42076 0
M  V30 2059 C 191.9 1.47558 -1.45744 0
M  V30 2060 C 192.325 1.87977 -0.0680981 0
M  V30 2061 O 191.683 1.55522 0.9318 0
M  V30 2062 C 191.731 2.70575 -2.38373 0
M  V30 2063 O 190.835 3.68573 -1.85007 0
M  V30 2064 H 190.176 0.443585 -0.494093 0
M  V30 2065 H 192.706 0.837238 -1.86686 0
M  V30 2066 H 192.716 3.18729 -2.54707 0
M  V30 2067 H 191.391 2.40495 -3.39315 0
M  V30 2068 H 189.968 3.2757 -1.78192 0
M  V30 2069 N 192.153 1.28127 0.917671 0
M  V30 2070 C 193.401 1.14825 1.66312 0
M  V30 2071 C 193.722 -0.304379 1.9261 0
M  V30 2072 O 192.992 -1.21149 1.53947 0
M  V30 2073 H 191.572 0.421953 0.616413 0
M  V30 2074 H 194.234 1.608 1.10134 0
M  V30 2075 H 193.33 1.68489 2.62712 0
M  V30 2076 N 193.631 -1.12557 1.10312 0
M  V30 2077 C 194.871 -1.8568 0.854543 0
M  V30 2078 C 195.235 -1.82091 -0.608843 0
M  V30 2079 O 196.436 -2.50544 -0.973717 0
M  V30 2080 C 194.707 -3.2942 1.38626 0
M  V30 2081 S 196.266 -4.19931 1.27293 0
M  V30 2082 H 193.084 -0.640427 0.308827 0
M  V30 2083 H 195.686 -1.35599 1.40831 0
M  V30 2084 H 194.39 -3.2959 2.44537 0
M  V30 2085 H 193.921 -3.84566 0.82902 0
M  V30 2086 H 195.936 -4.95668 0.229776 0
M  V30 2087 N 195.109 -0.891671 -1.2995 0
M  V30 2088 C 196.339 -0.527893 -1.99742 0
M  V30 2089 C 196.747 0.88979 -1.66971 0
M  V30 2090 O 196.09 1.59766 -0.906667 0
M  V30 2091 C 196.152 -0.630804 -3.53922 0
M  V30 2092 C 195.816 -2.01401 -4.10228 0
M  V30 2093 C 196.813 -2.98422 -4.25724 0
M  V30 2094 C 194.498 -2.32121 -4.45449 0
M  V30 2095 C 196.492 -4.24293 -4.75662 0
M  V30 2096 C 194.179 -3.58237 -4.95086 0
M  V30 2097 C 195.177 -4.54137 -5.10146 0
M  V30 2098 O 194.865 -5.78014 -5.58708 0
M  V30 2099 H 194.597 -0.201953 -0.645129 0
M  V30 2100 H 197.151 -1.20076 -1.66646 0
M  V30 2101 H 195.381 0.0990616 -3.86573 0
M  V30 2102 H 197.07 -0.277338 -4.04951 0
M  V30 2103 H 197.836 -2.76001 -3.98809 0
M  V30 2104 H 193.715 -1.5824 -4.32991 0
M  V30 2105 H 197.259 -4.99153 -4.87332 0
M  V30 2106 H 193.156 -3.80491 -5.21437 0
M  V30 2107 H 193.924 -5.8049 -5.77039 0
M  V30 2108 N 196.587 1.43421 -0.653314 0
M  V30 2109 C 197.55 2.29182 0.0287951 0
M  V30 2110 C 198.55 1.42213 0.750465 0
M  V30 2111 O 199.74 1.63843 0.591701 0
M  V30 2112 C 196.872 3.24278 1.05151 0
M  V30 2113 H 198.065 2.90985 -0.725786 0
M  V30 2114 H 195.618 1.50702 -0.414545 0
M  V30 2115 H 196.353 2.6737 1.83532 0
M  V30 2116 H 196.138 3.88396 0.537687 0
M  V30 2117 H 197.628 3.88647 1.52786 0
M  V30 2118 N 198.065 0.39524 1.52563 0
M  V30 2119 C 199.293 -0.184943 2.06072 0
M  V30 2120 C 199.708 -1.40021 1.26647 0
M  V30 2121 O 199.065 -1.79767 0.314672 0
M  V30 2122 C 199.116 -0.549179 3.57304 0
M  V30 2123 O 198.837 0.617813 4.33722 0
M  V30 2124 C 200.338 -1.18459 4.2718 0
M  V30 2125 H 197.558 -0.0265025 0.670476 0
M  V30 2126 H 200.102 0.562184 1.96621 0
M  V30 2127 H 198.257 -1.2462 3.66809 0
M  V30 2128 H 198.671 0.317091 5.23541 0
M  V30 2129 H 200.145 -1.38976 5.34219 0
M  V30 2130 H 200.622 -2.15368 3.82771 0
M  V30 2131 H 201.228 -0.528163 4.22008 0
M  V30 2132 N 199.544 -1.57102 0.125237 0
M  V30 2133 C 200.79 -1.95697 -0.532035 0
M  V30 2134 C 201.123 -1.009 -1.6593 0
M  V30 2135 O 200.398 -0.047347 -1.94442 0
M  V30 2136 C 200.681 -3.44181 -1.05884 0
M  V30 2137 C 200.534 -4.49752 0.0654392 0
M  V30 2138 C 201.853 -3.94655 -1.9477 0
M  V30 2139 H 198.972 -0.711571 -0.191925 0
M  V30 2140 H 201.614 -1.88923 0.20206 0
M  V30 2141 H 199.764 -3.50085 -1.68442 0
M  V30 2142 H 201.436 -4.55943 0.700982 0
M  V30 2143 H 199.679 -4.27653 0.727709 0
M  V30 2144 H 200.35 -5.50924 -0.344505 0
M  V30 2145 H 202.826 -3.91094 -1.42074 0
M  V30 2146 H 201.702 -4.99057 -2.28546 0
M  V30 2147 H 201.963 -3.35718 -2.87656 0
M  V30 2148 N 201.022 0.148545 -1.56898 0
M  V30 2149 C 202.268 0.862694 -1.83536 0
M  V30 2150 C 202.601 1.80889 -0.706604 0
M  V30 2151 O 201.876 1.92328 0.289885 0
M  V30 2152 C 202.159 1.63853 -3.20662 0
M  V30 2153 C 202.012 0.713925 -4.44098 0
M  V30 2154 C 203.331 2.60133 -3.54991 0
M  V30 2155 H 200.45 0.312179 -0.667618 0
M  V30 2156 H 203.092 0.127953 -1.89569 0
M  V30 2157 H 201.242 2.26489 -3.1565 0
M  V30 2158 H 202.914 0.098686 -4.61194 0
M  V30 2159 H 201.157 0.0234019 -4.33794 0
M  V30 2160 H 201.828 1.29278 -5.36648 0
M  V30 2161 H 204.304 2.07616 -3.60603 0
M  V30 2162 H 203.18 3.11468 -4.51972 0
M  V30 2163 H 203.441 3.41417 -2.80868 0
M  V30 2164 N 202.5 1.5196 0.417844 0
M  V30 2165 C 203.748 1.65263 1.16329 0
M  V30 2166 C 204.069 0.380634 1.91249 0
M  V30 2167 O 203.339 -0.604214 1.86349 0
M  V30 2168 H 201.919 0.60912 0.432414 0
M  V30 2169 H 204.581 1.88969 0.477162 0
M  V30 2170 H 203.677 2.4896 1.88217 0
M  V30 2171 N 203.978 -0.674533 1.42435 0
M  V30 2172 C 204.91 -1.80005 1.41883 0
M  V30 2173 C 205.923 -1.59667 0.31787 0
M  V30 2174 O 207.112 -1.68781 0.580973 0
M  V30 2175 C 204.212 -3.17114 1.19549 0
M  V30 2176 C 203.385 -3.64299 2.42084 0
M  V30 2177 C 202.444 -4.80142 2.15291 0
M  V30 2178 O 201.47 -4.90673 2.88493 0
M  V30 2179 N 202.672 -5.68869 1.1562 0
M  V30 2180 H 205.437 -1.80964 2.38898 0
M  V30 2181 H 202.998 -0.857633 1.37318 0
M  V30 2182 H 204.99 -3.92267 0.995417 0
M  V30 2183 H 203.56 -3.11053 0.310569 0
M  V30 2184 H 202.78 -2.79822 2.77657 0
M  V30 2185 H 204.068 -3.92567 3.23679 0
M  V30 2186 H 203.466 -5.63012 0.550765 0
M  V30 2187 H 202.023 -6.43833 1.016 0
M  V30 2188 N 205.456 -1.28612 -0.910864 0
M  V30 2189 C 206.681 -1.1891 -1.69927 0
M  V30 2190 C 207.106 0.248372 -1.86453 0
M  V30 2191 O 206.464 1.17961 -1.37676 0
M  V30 2192 C 206.512 -1.89578 -3.06745 0
M  V30 2193 O 205.616 -1.20521 -3.94396 0
M  V30 2194 H 204.957 -0.412632 -0.520222 0
M  V30 2195 H 207.487 -1.69985 -1.1387 0
M  V30 2196 H 207.497 -1.97597 -3.56958 0
M  V30 2197 H 206.172 -2.94136 -2.94035 0
M  V30 2198 H 204.749 -1.20684 -3.52831 0
M  V30 2199 N 206.934 1.1197 -1.10907 0
M  V30 2200 C 207.844 2.21433 -0.774896 0
M  V30 2201 C 208.86 1.72478 0.229657 0
M  V30 2202 O 210.036 2.01288 0.0672008 0
M  V30 2203 C 207.101 3.4602 -0.216986 0
M  V30 2204 C 206.162 4.09791 -1.27944 0
M  V30 2205 C 205.395 5.28431 -0.748055 0
M  V30 2206 O 205.618 5.68823 0.423833 0
M  V30 2207 O 204.552 5.82644 -1.51027 0
M  V30 2208 H 208.378 2.5242 -1.68873 0
M  V30 2209 H 205.963 1.20399 -0.884555 0
M  V30 2210 H 207.845 4.21304 0.090059 0
M  V30 2211 H 206.52 3.16698 0.669633 0
M  V30 2212 H 205.427 3.36265 -1.63941 0
M  V30 2213 H 206.76 4.4328 -2.13925 0
M  V30 2214 N 208.412 0.89855 1.29475 0
M  V30 2215 C 209.689 0.443416 1.90508 0
M  V30 2216 C 210.069 -1.07685 1.81569 0
M  V30 2217 O 209.417 -1.9182 1.24166 0
M  V30 2218 C 209.627 0.956708 3.35631 0
M  V30 2219 C 210.975 0.999728 4.12663 0
M  V30 2220 O 211.999 0.904299 3.4453 0
M  V30 2221 O 210.858 1.14289 5.34416 0
M  V30 2222 H 207.952 0.138025 0.815401 0
M  V30 2223 H 210.498 0.98834 1.37949 0
M  V30 2224 H 209.27 2.00067 3.36287 0
M  V30 2225 H 208.893 0.391728 3.95666 0
M  V30 2226 N 209.89 -1.43072 0.660911 0
M  V30 2227 C 211.138 -2.01323 0.177094 0
M  V30 2228 C 211.459 -1.5245 -1.2159 0
M  V30 2229 O 210.729 -0.740322 -1.81373 0
M  V30 2230 H 209.309 -0.744382 0.0624804 0
M  V30 2231 H 211.971 -1.75179 0.854305 0
M  V30 2232 H 211.067 -3.11649 0.167641 0
M  V30 2233 N 211.368 -0.403325 -1.52352 0
M  V30 2234 C 212.315 0.425011 -2.26853 0
M  V30 2235 C 213.285 1.04598 -1.29029 0
M  V30 2236 O 214.47 1.07135 -1.57882 0
M  V30 2237 C 211.61 1.53888 -3.08889 0
M  V30 2238 C 210.723 0.939396 -4.21663 0
M  V30 2239 C 209.858 2.02547 -4.91068 0
M  V30 2240 C 208.897 1.40263 -5.95813 0
M  V30 2241 N 208.034 2.4286 -6.58759 0
M  V30 2242 H 212.874 -0.21674 -2.97211 0
M  V30 2243 H 210.411 -0.118722 -1.4662 0
M  V30 2244 H 212.369 2.19558 -3.54753 0
M  V30 2245 H 210.999 2.15074 -2.40714 0
M  V30 2246 H 210.051 0.171898 -3.80011 0
M  V30 2247 H 211.363 0.44436 -4.96817 0
M  V30 2248 H 210.517 2.75958 -5.40308 0
M  V30 2249 H 209.256 2.55415 -4.15469 0
M  V30 2250 H 208.261 0.653833 -5.45898 0
M  V30 2251 H 209.486 0.881719 -6.73352 0
M  V30 2252 H 207.432 2.94871 -5.85992 0
M  V30 2253 H 207.349 1.98152 -7.2957 0
M  V30 2254 H 208.617 3.15858 -7.12639 0
M  V30 2255 N 212.846 1.57033 -0.133567 0
M  V30 2256 C 213.793 2.16074 0.811208 0
M  V30 2257 C 214.763 1.08979 1.2535 0
M  V30 2258 O 215.948 1.36958 1.32843 0
M  V30 2259 C 213.088 2.77595 2.05024 0
M  V30 2260 C 212.201 3.99042 1.65498 0
M  V30 2261 C 211.336 4.48603 2.84479 0
M  V30 2262 C 210.375 5.62547 2.41262 0
M  V30 2263 N 209.512 6.06787 3.53206 0
M  V30 2264 H 214.352 2.96477 0.300906 0
M  V30 2265 H 211.889 1.46462 0.136822 0
M  V30 2266 H 213.847 3.11402 2.77642 0
M  V30 2267 H 212.477 1.99859 2.53488 0
M  V30 2268 H 211.529 3.71302 0.826981 0
M  V30 2269 H 212.841 4.81629 1.29748 0
M  V30 2270 H 211.995 4.84395 3.65303 0
M  V30 2271 H 210.734 3.64995 3.23465 0
M  V30 2272 H 209.739 5.26345 1.58874 0
M  V30 2273 H 210.964 6.47931 2.03377 0
M  V30 2274 H 208.91 5.26117 3.91838 0
M  V30 2275 H 208.827 6.84266 3.21427 0
M  V30 2276 H 210.095 6.4722 4.34427 0
M  V30 2277 N 214.325 -0.140222 1.56975 0
M  V30 2278 C 215.553 -0.866437 1.87884 0
M  V30 2279 C 215.968 -1.74428 0.722517 0
M  V30 2280 O 215.325 -1.79891 -0.30749 0
M  V30 2281 C 215.376 -1.71753 3.18093 0
M  V30 2282 O 215.097 -0.875056 4.29272 0
M  V30 2283 C 216.598 -2.55074 3.62563 0
M  V30 2284 H 213.818 -0.25019 0.622612 0
M  V30 2285 H 216.362 -0.130977 2.0408 0
M  V30 2286 H 214.517 -2.40598 3.03631 0
M  V30 2287 H 214.931 -1.46002 5.03769 0
M  V30 2288 H 216.405 -3.10356 4.5649 0
M  V30 2289 H 216.882 -3.31434 2.88181 0
M  V30 2290 H 217.488 -1.91509 3.79743 0
M  V30 2291 N 215.803 -1.52179 -0.40978 0
M  V30 2292 C 216.75 -1.75475 -1.49924 0
M  V30 2293 C 217.72 -0.597175 -1.54994 0
M  V30 2294 O 218.905 -0.834655 -1.71575 0
M  V30 2295 C 216.045 -1.9107 -2.87378 0
M  V30 2296 C 215.158 -3.18717 -2.91622 0
M  V30 2297 C 214.293 -3.24747 -4.20372 0
M  V30 2298 C 213.332 -4.46598 -4.18588 0
M  V30 2299 N 212.469 -4.50025 -5.38908 0
M  V30 2300 H 217.309 -2.68458 -1.29361 0
M  V30 2301 H 214.846 -1.33024 -0.627934 0
M  V30 2302 H 216.804 -1.98096 -3.6717 0
M  V30 2303 H 215.434 -1.01469 -3.06437 0
M  V30 2304 H 214.486 -3.20866 -2.04326 0
M  V30 2305 H 215.798 -4.08544 -2.86169 0
M  V30 2306 H 214.952 -3.30841 -5.08556 0
M  V30 2307 H 213.691 -2.32857 -4.28519 0
M  V30 2308 H 212.696 -4.40652 -3.28794 0
M  V30 2309 H 213.921 -5.39783 -4.12081 0
M  V30 2310 H 211.867 -3.61017 -5.47725 0
M  V30 2311 H 211.784 -5.33697 -5.35447 0
M  V30 2312 H 213.052 -4.60347 -6.29048 0
M  V30 2313 N 217.281 0.66697 -1.42791 0
M  V30 2314 C 218.527 1.4291 -1.43891 0
M  V30 2315 C 218.86 1.94114 -0.0578972 0
M  V30 2316 O 218.135 1.71414 0.91911 0
M  V30 2317 C 218.418 2.62049 -2.46987 0
M  V30 2318 C 218.271 2.16426 -3.94309 0
M  V30 2319 C 219.59 3.64266 -2.46978 0
M  V30 2320 H 216.709 0.518306 -0.523954 0
M  V30 2321 H 219.351 0.757321 -1.74255 0
M  V30 2322 H 217.501 3.19361 -2.21225 0
M  V30 2323 H 219.173 1.64221 -4.31079 0
M  V30 2324 H 217.416 1.47925 -4.078 0
M  V30 2325 H 218.087 3.02038 -4.62036 0
M  V30 2326 H 220.563 3.16686 -2.69906 0
M  V30 2327 H 219.439 4.45196 -3.21079 0
M  V30 2328 H 219.7 4.15927 -1.49857 0
M  V30 2329 N 218.759 1.29093 0.90403 0
M  V30 2330 C 220.175 1.07011 1.1841 0
M  V30 2331 C 220.375 -0.181358 2.00682 0
M  V30 2332 O 219.431 -0.880331 2.36657 0
M  V30 2333 C 220.744 2.32311 1.90924 0
M  V30 2334 C 222.292 2.37587 2.03768 0
M  V30 2335 C 222.767 3.62679 2.79693 0
M  V30 2336 N 224.258 3.63376 2.87249 0
M  V30 2337 C 224.993 4.56848 3.46522 0
M  V30 2338 N 224.489 5.60648 4.06996 0
M  V30 2339 N 226.282 4.44426 3.44154 0
M  V30 2340 H 218.433 2.09412 0.354993 0
M  V30 2341 H 220.696 0.922181 0.219742 0
M  V30 2342 H 220.402 3.23536 1.37905 0
M  V30 2343 H 220.276 2.39483 2.91424 0
M  V30 2344 H 222.663 1.46853 2.55965 0
M  V30 2345 H 222.744 2.34403 1.02415 0
M  V30 2346 H 222.388 4.53762 2.28173 0
M  V30 2347 H 222.318 3.63119 3.81381 0
M  V30 2348 H 224.809 2.88321 2.44293 0
M  V30 2349 H 225.122 6.28101 4.50232 0
M  V30 2350 H 223.467 5.64463 4.05471 0
M  V30 2351 H 226.658 3.62529 2.96126 0
M  V30 2352 H 226.831 5.17457 3.90054 0
M  V30 2353 N 220.237 -1.11381 1.11499 0
M  V30 2354 C 221.167 -2.19509 0.796125 0
M  V30 2355 C 222.148 -1.68458 -0.235796 0
M  V30 2356 O 223.333 -1.93947 -0.0991344 0
M  V30 2357 C 220.463 -3.46475 0.239205 0
M  V30 2358 C 219.417 -4.10744 1.20307 0
M  V30 2359 C 218.743 -5.32293 0.50683 0
M  V30 2360 C 220.043 -4.55597 2.55399 0
M  V30 2361 H 221.737 -2.46439 1.70024 0
M  V30 2362 H 219.283 -1.18446 0.818935 0
M  V30 2363 H 221.236 -4.214 0.00392006 0
M  V30 2364 H 219.96 -3.19006 -0.700206 0
M  V30 2365 H 218.619 -3.37813 1.42399 0
M  V30 2366 H 218.267 -5.01095 -0.437408 0
M  V30 2367 H 217.967 -5.76243 1.1497 0
M  V30 2368 H 219.491 -6.09956 0.280351 0
M  V30 2369 H 220.905 -5.21841 2.37391 0
M  V30 2370 H 219.302 -5.10363 3.15673 0
M  V30 2371 H 220.372 -3.69013 3.14575 0
M  V30 2372 N 221.715 -0.905404 -1.28997 0
M  V30 2373 C 223.126 -0.581953 -1.77398 0
M  V30 2374 C 223.477 0.902552 -1.74208 0
M  V30 2375 O 222.602 1.70584 -1.33154 0
M  V30 2376 C 223.197 -1.04961 -3.22131 0
M  V30 2377 C 221.756 -0.777229 -3.68288 0
M  V30 2378 C 220.903 -1.22109 -2.48967 0
M  V30 2379 H 223.854 -1.08754 -1.15578 0
M  V30 2380 H 223.875 -0.387387 -3.78523 0
M  V30 2381 H 223.387 -2.13008 -3.24421 0
M  V30 2382 H 221.488 0.290383 -3.71467 0
M  V30 2383 H 221.601 -1.37911 -4.58822 0
M  V30 2384 H 219.965 -0.639971 -2.46529 0
M  V30 2385 H 220.748 -2.30972 -2.53982 0
M  V30 2386 N 223.193 1.4272 -0.668489 0
M  V30 2387 C 224.418 2.06484 -0.194758 0
M  V30 2388 C 224.843 1.49862 1.13679 0
M  V30 2389 O 224.201 0.614582 1.70565 0
M  V30 2390 C 224.249 3.60353 -0.133546 0
M  V30 2391 O 223.353 4.02464 0.899806 0
M  V30 2392 H 222.694 0.656137 -0.10188 0
M  V30 2393 H 225.224 1.82964 -0.915722 0
M  V30 2394 H 225.234 4.07976 0.0447041 0
M  V30 2395 H 223.909 4.00938 -1.1055 0
M  V30 2396 H 222.486 3.66402 0.693109 0
M  V30 2397 N 224.671 0.411399 1.52136 0
M  V30 2398 C 225.919 -0.163322 2.01439 0
M  V30 2399 C 226.24 -1.45453 1.29879 0
M  V30 2400 O 225.51 -1.91225 0.4254 0
M  V30 2401 H 224.09 -0.0633447 0.744309 0
M  V30 2402 H 226.752 0.548161 1.87033 0
M  V30 2403 H 225.848 -0.357817 3.10042 0
M  V30 2404 N 226.149 -1.5696 0.141893 0
M  V30 2405 C 227.112 -2.15316 -0.785587 0
M  V30 2406 C 228.112 -1.09366 -1.1788 0
M  V30 2407 O 229.302 -1.35031 -1.10056 0
M  V30 2408 C 226.434 -2.71211 -2.06537 0
M  V30 2409 H 227.627 -2.98608 -0.278041 0
M  V30 2410 H 225.18 -1.5593 -0.107519 0
M  V30 2411 H 225.915 -1.91571 -2.6167 0
M  V30 2412 H 225.7 -3.4872 -1.79268 0
M  V30 2413 H 227.19 -3.16189 -2.72789 0
M  V30 2414 N 227.627 0.131896 -1.57047 0
M  V30 2415 C 228.574 1.16236 -1.99393 0
M  V30 2416 C 229.544 1.41863 -0.863943 0
M  V30 2417 O 230.729 1.53946 -1.12718 0
M  V30 2418 C 227.869 2.48708 -2.39245 0
M  V30 2419 C 226.982 2.30127 -3.65603 0
M  V30 2420 C 226.117 3.55738 -3.94492 0
M  V30 2421 C 225.156 3.32259 -5.14073 0
M  V30 2422 N 224.293 4.50039 -5.38896 0
M  V30 2423 H 229.133 0.794251 -2.87221 0
M  V30 2424 H 226.67 0.380707 -1.42088 0
M  V30 2425 H 228.628 3.25969 -2.60384 0
M  V30 2426 H 227.258 2.83437 -1.54478 0
M  V30 2427 H 226.31 1.43845 -3.52154 0
M  V30 2428 H 227.622 2.08746 -4.5302 0
M  V30 2429 H 226.776 4.41423 -4.1621 0
M  V30 2430 H 225.515 3.80138 -3.05526 0
M  V30 2431 H 224.52 2.44963 -4.92212 0
M  V30 2432 H 225.745 3.09242 -6.04604 0
M  V30 2433 H 223.691 4.74584 -4.52886 0
M  V30 2434 H 223.608 4.31716 -6.2061 0
M  V30 2435 H 224.876 5.36895 -5.65123 0
M  V30 2436 N 229.106 1.52395 0.401703 0
M  V30 2437 C 230.053 1.76268 1.48991 0
M  V30 2438 C 231.023 0.605386 1.54675 0
M  V30 2439 O 232.208 0.843742 1.7113 0
M  V30 2440 C 229.348 1.92592 2.86361 0
M  V30 2441 C 228.461 3.20259 2.89928 0
M  V30 2442 C 227.596 3.26972 4.18644 0
M  V30 2443 C 226.635 4.48812 4.16214 0
M  V30 2444 N 225.772 4.52877 5.36514 0
M  V30 2445 H 230.612 2.6914 1.27935 0
M  V30 2446 H 228.149 1.33355 0.620871 0
M  V30 2447 H 230.107 2.0004 3.66115 0
M  V30 2448 H 228.737 1.03093 3.05895 0
M  V30 2449 H 227.789 3.21945 2.02621 0
M  V30 2450 H 229.101 4.10056 2.83999 0
M  V30 2451 H 228.255 3.33533 5.06794 0
M  V30 2452 H 226.994 2.35126 4.27278 0
M  V30 2453 H 225.999 4.4239 3.26453 0
M  V30 2454 H 227.224 5.41961 4.09213 0
M  V30 2455 H 225.17 3.63917 5.45802 0
M  V30 2456 H 225.087 5.36529 5.32609 0
M  V30 2457 H 226.355 4.63676 6.26597 0
M  V30 2458 N 230.584 -0.659388 1.43143 0
M  V30 2459 C 231.812 -1.44723 1.47861 0
M  V30 2460 C 232.227 -1.88563 0.0945886 0
M  V30 2461 O 231.584 -1.59108 -0.893915 0
M  V30 2462 C 231.635 -2.68627 2.41913 0
M  V30 2463 O 231.356 -2.26623 3.74932 0
M  V30 2464 C 232.857 -3.62045 2.55809 0
M  V30 2465 H 230.077 -0.444801 0.502387 0
M  V30 2466 H 232.621 -0.808916 1.87821 0
M  V30 2467 H 230.776 -3.28613 2.05164 0
M  V30 2468 H 231.19 -3.06745 4.2545 0
M  V30 2469 H 232.664 -4.45666 3.25708 0
M  V30 2470 H 233.141 -4.08981 1.60099 0
M  V30 2471 H 233.747 -3.07944 2.93344 0
M  V30 2472 N 232.062 -1.29571 -0.897171 0
M  V30 2473 C 233.311 -1.1706 -1.64256 0
M  V30 2474 C 233.624 0.276476 -1.93636 0
M  V30 2475 O 234.83 0.52294 -2.66416 0
M  V30 2476 C 233.286 -2.0475 -2.95982 0
M  V30 2477 C 232.894 -3.54295 -2.74187 0
M  V30 2478 C 234.638 -2.0097 -3.73914 0
M  V30 2479 C 232.545 -4.34081 -4.01656 0
M  V30 2480 H 231.475 -0.43452 -0.616205 0
M  V30 2481 H 234.126 -1.54229 -0.994268 0
M  V30 2482 H 232.508 -1.60452 -3.62038 0
M  V30 2483 H 233.682 -4.06662 -2.1671 0
M  V30 2484 H 231.997 -3.59773 -2.09648 0
M  V30 2485 H 234.594 -2.57838 -4.68427 0
M  V30 2486 H 234.937 -0.990273 -4.0435 0
M  V30 2487 H 235.47 -2.43325 -3.14703 0
M  V30 2488 H 232.209 -5.36671 -3.76384 0
M  V30 2489 H 231.729 -3.86483 -4.58684 0
M  V30 2490 H 233.408 -4.44877 -4.69781 0
M  V30 2491 N 233.54 1.10788 -1.12088 0
M  V30 2492 C 234.817 1.79136 -0.785476 0
M  V30 2493 C 235.197 1.98246 0.725377 0
M  V30 2494 O 234.545 1.57258 1.65778 0
M  V30 2495 C 234.755 3.12375 -1.55636 0
M  V30 2496 C 236.103 3.8731 -1.74001 0
M  V30 2497 O 237.127 3.22085 -1.52117 0
M  V30 2498 O 235.986 5.04369 -2.10415 0
M  V30 2499 H 233.08 0.776226 -0.285311 0
M  V30 2500 H 235.626 1.1747 -1.2247 0
M  V30 2501 H 234.398 2.93863 -2.5838 0
M  V30 2502 H 234.021 3.81758 -1.11114 0
M  V30 2503 N 235.018 0.912232 1.28515 0
M  V30 2504 C 235.981 0.404223 2.25607 0
M  V30 2505 C 236.981 -0.468602 1.53821 0
M  V30 2506 O 238.171 -0.271873 1.72065 0
M  V30 2507 C 235.303 -0.420653 3.38295 0
M  V30 2508 H 236.496 1.26188 2.7206 0
M  V30 2509 H 234.049 0.691495 1.40171 0
M  V30 2510 H 234.784 -1.29777 2.97201 0
M  V30 2511 H 234.569 0.204935 3.91564 0
M  V30 2512 H 236.059 -0.766971 4.10496 0
M  V30 2513 N 236.496 -1.42363 0.676048 0
M  V30 2514 C 237.443 -2.308 -0.00150904 0
M  V30 2515 C 238.413 -1.46032 -0.791444 0
M  V30 2516 O 239.598 -1.74861 -0.76344 0
M  V30 2517 C 236.738 -3.31883 -0.945919 0
M  V30 2518 C 235.851 -4.31741 -0.149675 0
M  V30 2519 C 234.986 -5.19898 -1.08995 0
M  V30 2520 C 234.025 -6.11434 -0.285465 0
M  V30 2521 N 233.162 -6.92138 -1.17851 0
M  V30 2522 H 238.002 -2.88187 0.758455 0
M  V30 2523 H 235.539 -1.41952 0.38576 0
M  V30 2524 H 237.497 -3.89019 -1.50731 0
M  V30 2525 H 236.127 -2.76093 -1.6725 0
M  V30 2526 H 235.179 -3.76713 0.528359 0
M  V30 2527 H 236.491 -4.96534 0.474866 0
M  V30 2528 H 235.645 -5.81772 -1.72123 0
M  V30 2529 H 234.384 -4.55284 -1.74837 0
M  V30 2530 H 233.389 -5.48627 0.359018 0
M  V30 2531 H 234.614 -6.78097 0.368883 0
M  V30 2532 H 232.56 -6.30152 -1.82332 0
M  V30 2533 H 232.477 -7.53542 -0.609082 0
M  V30 2534 H 233.745 -7.58499 -1.79722 0
M  V30 2535 N 237.974 -0.419461 -1.51915 0
M  V30 2536 C 238.937 0.389116 -2.25873 0
M  V30 2537 C 239.937 0.964924 -1.28631 0
M  V30 2538 O 241.127 0.842179 -1.52489 0
M  V30 2539 C 238.259 1.54874 -3.03689 0
M  V30 2540 H 239.452 -0.258799 -2.98781 0
M  V30 2541 H 237.005 -0.172209 -1.55348 0
M  V30 2542 H 237.74 2.23323 -2.35154 0
M  V30 2543 H 237.525 1.14223 -3.75094 0
M  V30 2544 H 239.015 2.12046 -3.59759 0
M  V30 2545 N 239.452 1.56882 -0.150215 0
M  V30 2546 C 240.868 1.58263 0.20617 0
M  V30 2547 C 241.068 1.16464 1.64434 0
M  V30 2548 O 240.124 0.866422 2.3717 0
M  V30 2549 C 241.437 3.00649 -0.0555025 0
M  V30 2550 C 242.985 3.12999 0.00795388 0
M  V30 2551 C 243.46 4.5744 -0.226429 0
M  V30 2552 N 244.951 4.62875 -0.173469 0
M  V30 2553 C 245.686 5.72454 -0.329288 0
M  V30 2554 N 245.182 6.90669 -0.543005 0
M  V30 2555 N 246.975 5.61467 -0.266666 0
M  V30 2556 H 239.126 1.82345 -1.08922 0
M  V30 2557 H 241.389 0.844149 -0.431413 0
M  V30 2558 H 241.095 3.3563 -1.05096 0
M  V30 2559 H 240.969 3.71337 0.66246 0
M  V30 2560 H 243.356 2.77857 0.993966 0
M  V30 2561 H 243.437 2.4479 -0.742388 0
M  V30 2562 H 243.081 4.93287 -1.20956 0
M  V30 2563 H 243.011 5.2378 0.544274 0
M  V30 2564 H 245.502 3.77898 -0.0130709 0
M  V30 2565 H 245.815 7.70045 -0.651922 0
M  V30 2566 H 244.16 6.92581 -0.579366 0
M  V30 2567 H 247.351 4.67992 -0.100441 0
M  V30 2568 H 247.524 6.46816 -0.391535 0
M  V30 2569 N 240.93 -0.123565 1.57115 0
M  V30 2570 C 241.893 -1.13583 1.99076 0
M  V30 2571 C 242.893 -1.34564 0.880296 0
M  V30 2572 O 244.083 -1.31158 1.14644 0
M  V30 2573 C 241.215 -2.49128 2.32698 0
M  V30 2574 H 242.408 -0.775287 2.89706 0
M  V30 2575 H 239.961 -0.36771 1.51913 0
M  V30 2576 H 240.696 -2.90111 1.44934 0
M  V30 2577 H 240.481 -2.35255 3.13684 0
M  V30 2578 H 241.971 -3.2199 2.65918 0
M  V30 2579 N 242.408 -1.52605 -0.393616 0
M  V30 2580 C 243.341 -1.71798 -1.50202 0
M  V30 2581 C 244.319 -0.565743 -1.52441 0
M  V30 2582 O 245.503 -0.794987 -1.70916 0
M  V30 2583 C 242.63 -1.7714 -2.88685 0
M  V30 2584 C 241.676 -2.98845 -3.04292 0
M  V30 2585 S 242.509 -4.58909 -2.75976 0
M  V30 2586 C 243.665 -4.6706 -4.1666 0
M  V30 2587 H 243.898 -2.65542 -1.33696 0
M  V30 2588 H 241.431 -1.42839 -0.586195 0
M  V30 2589 H 243.389 -1.80903 -3.68489 0
M  V30 2590 H 242.05 -0.844969 -3.02521 0
M  V30 2591 H 241.243 -2.99111 -4.05646 0
M  V30 2592 H 240.845 -2.9305 -2.32374 0
M  V30 2593 H 243.137 -4.45391 -5.10523 0
M  V30 2594 H 244.08 -5.6905 -4.21412 0
M  V30 2595 H 244.488 -3.95944 -4.02354 0
M  V30 2596 N 243.887 0.651787 -1.4349 0
M  V30 2597 C 245.133 1.41376 -1.45398 0
M  V30 2598 C 245.466 1.94041 -0.0784823 0
M  V30 2599 O 244.741 1.72379 0.900878 0
M  V30 2600 C 245.024 2.59414 -2.49752 0
M  V30 2601 C 244.877 2.12232 -3.96582 0
M  V30 2602 C 246.196 3.61626 -2.50827 0
M  V30 2603 H 243.315 0.512719 -0.529422 0
M  V30 2604 H 245.957 0.738796 -1.75048 0
M  V30 2605 H 244.107 3.16997 -2.246 0
M  V30 2606 H 245.779 1.59639 -4.32797 0
M  V30 2607 H 244.022 1.43592 -4.09346 0
M  V30 2608 H 244.693 2.9712 -4.65214 0
M  V30 2609 H 247.169 3.13805 -2.7325 0
M  V30 2610 H 246.045 4.41766 -3.25783 0
M  V30 2611 H 246.306 4.14314 -1.5426 0
M  V30 2612 N 245.365 1.30045 0.890287 0
M  V30 2613 C 246.613 1.18327 1.63839 0
M  V30 2614 C 246.934 -0.263455 1.93212 0
M  V30 2615 O 246.204 -1.17856 1.56482 0
M  V30 2616 H 244.784 0.434933 0.607324 0
M  V30 2617 H 247.446 1.631 1.06698 0
M  V30 2618 H 246.542 1.74024 2.59079 0
M  V30 2619 N 246.843 -1.10192 1.12674 0
M  V30 2620 C 248.089 -1.82475 0.884915 0
M  V30 2621 C 248.422 -1.85093 -0.58773 0
M  V30 2622 O 247.697 -1.3134 -1.43457 0
M  V30 2623 C 247.98 -3.29018 1.46353 0
M  V30 2624 C 247.833 -3.34718 3.00473 0
M  V30 2625 C 249.152 -4.25473 1.12519 0
M  V30 2626 H 246.271 -0.662492 0.322915 0
M  V30 2627 H 248.913 -1.2913 1.39375 0
M  V30 2628 H 247.063 -3.74576 1.03077 0
M  V30 2629 H 248.735 -2.97622 3.52447 0
M  V30 2630 H 246.978 -2.74541 3.35872 0
M  V30 2631 H 247.649 -4.37918 3.36053 0
M  V30 2632 H 250.125 -3.88161 1.499 0
M  V30 2633 H 249.001 -5.26365 1.55663 0
M  V30 2634 H 249.262 -4.42084 0.0377407 0
M  V30 2635 N 248.321 -0.919034 -1.28029 0
M  V30 2636 C 249.567 -0.555757 -1.95036 0
M  V30 2637 C 249.9 0.899198 -1.72128 0
M  V30 2638 O 249.175 1.64023 -1.04531 0
M  V30 2639 C 249.458 -0.872024 -3.49382 0
M  V30 2640 C 249.311 -2.3801 -3.81669 0
M  V30 2641 C 250.63 -0.37185 -4.38526 0
M  V30 2642 H 247.749 -0.203386 -0.708381 0
M  V30 2643 H 250.391 -1.14924 -1.51303 0
M  V30 2644 H 248.541 -0.366946 -3.86763 0
M  V30 2645 H 250.213 -2.9562 -3.54128 0
M  V30 2646 H 248.456 -2.83289 -3.28526 0
M  V30 2647 H 249.127 -2.55192 -4.8947 0
M  V30 2648 H 251.603 -0.804602 -4.08247 0
M  V30 2649 H 250.479 -0.622173 -5.45362 0
M  V30 2650 H 250.74 0.727934 -4.36066 0
M  V30 2651 N 249.799 1.42003 -0.683588 0
M  V30 2652 C 251.047 2.01015 -0.209101 0
M  V30 2653 C 251.368 1.54365 1.19149 0
M  V30 2654 O 250.638 0.769083 1.80172 0
M  V30 2655 H 249.218 0.743294 -0.074315 0
M  V30 2656 H 251.88 1.73798 -0.882066 0
M  V30 2657 H 250.976 3.11343 -0.2172 0
M  V30 2658 N 251.277 0.427512 1.51691 0
M  V30 2659 C 252.24 -0.377132 2.26076 0
M  V30 2660 C 253.24 -0.958089 1.29141 0
M  V30 2661 O 254.43 -0.83408 1.52934 0
M  V30 2662 C 251.562 -1.53262 3.04506 0
M  V30 2663 H 252.755 0.27464 2.9864 0
M  V30 2664 H 250.308 0.180445 1.55255 0
M  V30 2665 H 251.043 -2.22072 2.36335 0
M  V30 2666 H 250.828 -1.12232 3.75694 0
M  V30 2667 H 252.318 -2.10135 3.60878 0
M  V30 2668 N 252.755 -1.56801 0.158532 0
M  V30 2669 C 254.003 -1.96102 -0.488712 0
M  V30 2670 C 254.324 -1.04498 -1.64636 0
M  V30 2671 O 253.594 -0.108783 -1.95598 0
M  V30 2672 H 252.174 -0.724102 -0.183535 0
M  V30 2673 H 254.836 -1.93457 0.236728 0
M  V30 2674 H 253.932 -3.00097 -0.857219 0
M  V30 2675 N 254.233 0.115231 -1.57178 0
M  V30 2676 C 255.481 0.820727 -1.84685 0
M  V30 2677 C 255.802 1.80237 -0.744279 0
M  V30 2678 O 255.072 1.94529 0.231375 0
M  V30 2679 H 253.652 0.306084 -0.681411 0
M  V30 2680 H 256.314 0.101656 -1.94635 0
M  V30 2681 H 255.41 1.36366 -2.80733 0
M  V30 2682 N 255.711 1.52812 0.385517 0
M  V30 2683 C 257.127 1.4214 0.725829 0
M  V30 2684 C 257.327 0.544589 1.94001 0
M  V30 2685 O 256.383 0.0193693 2.52493 0
M  V30 2686 C 257.696 2.85042 0.957668 0
M  V30 2687 C 259.244 2.94543 1.05892 0
M  V30 2688 C 259.719 4.38464 1.32337 0
M  V30 2689 N 261.21 4.41804 1.39151 0
M  V30 2690 C 261.945 5.5025 1.61285 0
M  V30 2691 N 261.441 6.68775 1.80866 0
M  V30 2692 N 263.234 5.37798 1.63492 0
M  V30 2693 H 255.385 2.08338 -0.413383 0
M  V30 2694 H 257.648 0.940016 -0.122775 0
M  V30 2695 H 257.354 3.51431 0.137568 0
M  V30 2696 H 257.228 3.27505 1.87137 0
M  V30 2697 H 259.615 2.28321 1.86959 0
M  V30 2698 H 259.696 2.55504 0.123057 0
M  V30 2699 H 259.34 5.05254 0.517793 0
M  V30 2700 H 259.27 4.75059 2.27214 0
M  V30 2701 H 261.761 3.56377 1.25713 0
M  V30 2702 H 262.074 7.47197 1.97271 0
M  V30 2703 H 260.419 6.71797 1.78083 0
M  V30 2704 H 263.61 4.44171 1.47749 0
M  V30 2705 H 263.783 6.22382 1.80402 0
M  V30 2706 N 257.189 -0.644168 1.43834 0
M  V30 2707 C 258.438 -1.39985 1.45214 0
M  V30 2708 C 258.751 -1.95421 0.0835494 0
M  V30 2709 O 259.957 -2.71488 -0.0251748 0
M  V30 2710 C 258.413 -2.53384 2.55587 0
M  V30 2711 C 258.021 -2.04517 3.98594 0
M  V30 2712 C 259.765 -3.30685 2.66172 0
M  V30 2713 C 257.672 -3.1518 5.00416 0
M  V30 2714 H 256.602 -0.526005 0.540218 0
M  V30 2715 H 259.253 -0.694367 1.69855 0
M  V30 2716 H 257.635 -3.26446 2.24163 0
M  V30 2717 H 258.809 -1.38405 4.39523 0
M  V30 2718 H 257.124 -1.40068 3.92135 0
M  V30 2719 H 259.721 -4.13158 3.39418 0
M  V30 2720 H 260.064 -3.79312 1.71546 0
M  V30 2721 H 260.597 -2.64708 2.96942 0
M  V30 2722 H 257.336 -2.71511 5.96625 0
M  V30 2723 H 256.856 -3.79974 4.64091 0
M  V30 2724 H 258.535 -3.80166 5.23529 0
M  V30 2725 N 258.668 -1.30515 -0.883378 0
M  V30 2726 C 259.945 -1.10086 -1.6168 0
M  V30 2727 C 260.325 0.349269 -2.08191 0
M  V30 2728 O 259.673 1.34105 -1.85008 0
M  V30 2729 C 259.883 -2.10315 -2.78511 0
M  V30 2730 C 261.231 -2.42119 -3.48803 0
M  V30 2731 O 262.255 -2.08638 -2.88702 0
M  V30 2732 O 261.114 -2.99396 -4.57192 0
M  V30 2733 H 258.208 -0.422907 -0.710689 0
M  V30 2734 H 260.754 -1.41947 -0.930015 0
M  V30 2735 H 259.526 -3.07917 -2.41459 0
M  V30 2736 H 259.149 -1.79282 -3.54886 0
M  V30 2737 N 260.146 1.09593 -1.13257 0
M  V30 2738 C 261.093 2.1618 -0.808381 0
M  V30 2739 C 262.063 1.64517 0.228754 0
M  V30 2740 O 263.248 1.9053 0.101381 0
M  V30 2741 C 260.388 3.43973 -0.278675 0
M  V30 2742 C 259.501 4.09545 -1.37466 0
M  V30 2743 C 258.636 5.25088 -0.803479 0
M  V30 2744 C 257.675 5.82579 -1.87799 0
M  V30 2745 N 256.812 6.89486 -1.32488 0
M  V30 2746 H 261.652 2.43254 -1.72138 0
M  V30 2747 H 259.189 1.19392 -0.859294 0
M  V30 2748 H 261.147 4.17174 0.0465583 0
M  V30 2749 H 259.777 3.17223 0.597459 0
M  V30 2750 H 258.829 3.34226 -1.81652 0
M  V30 2751 H 260.141 4.48307 -2.18684 0
M  V30 2752 H 259.295 6.05178 -0.429427 0
M  V30 2753 H 258.034 4.87684 0.0397956 0
M  V30 2754 H 257.039 5.01152 -2.26113 0
M  V30 2755 H 258.264 6.22045 -2.72463 0
M  V30 2756 H 256.21 6.54064 -0.503575 0
M  V30 2757 H 256.127 7.27007 -2.07355 0
M  V30 2758 H 257.395 7.73336 -0.978336 0
M  V30 2759 N 261.624 0.925811 1.2754 0
M  V30 2760 C 263.035 0.610102 1.7645 0
M  V30 2761 C 263.386 -0.874723 1.75622 0
M  V30 2762 O 262.511 -1.68444 1.35851 0
M  V30 2763 C 263.106 1.10073 3.20421 0
M  V30 2764 C 261.665 0.835723 3.67005 0
M  V30 2765 C 260.812 1.26054 2.46993 0
M  V30 2766 H 263.763 1.10579 1.13833 0
M  V30 2767 H 263.784 0.447557 3.77859 0
M  V30 2768 H 263.296 2.18143 3.20991 0
M  V30 2769 H 261.397 -0.231249 3.71882 0
M  V30 2770 H 261.51 1.45193 4.56569 0
M  V30 2771 H 259.874 0.679111 2.45479 0
M  V30 2772 H 260.657 2.34984 2.50275 0
M  V30 2773 N 263.102 -1.41638 0.69111 0
M  V30 2774 C 264.351 -2.00526 0.217318 0
M  V30 2775 C 264.664 -1.55353 -1.18848 0
M  V30 2776 O 265.87 -2.06769 -1.75951 0
M  V30 2777 C 264.326 -3.58313 0.337639 0
M  V30 2778 C 263.934 -4.12469 1.74852 0
M  V30 2779 C 265.678 -4.24431 -0.0766066 0
M  V30 2780 C 263.585 -5.62675 1.82074 0
M  V30 2781 H 262.515 -0.750008 0.0774893 0
M  V30 2782 H 265.166 -1.6217 0.858661 0
M  V30 2783 H 263.548 -3.9425 -0.371879 0
M  V30 2784 H 264.722 -3.8796 2.48644 0
M  V30 2785 H 263.037 -3.58861 2.11205 0
M  V30 2786 H 265.634 -5.34683 -0.0430284 0
M  V30 2787 H 265.977 -4.01101 -1.1146 0
M  V30 2788 H 266.51 -3.93512 0.582476 0
M  V30 2789 H 263.249 -5.90826 2.83911 0
M  V30 2790 H 262.769 -5.89124 1.12661 0
M  V30 2791 H 264.448 -6.27371 1.58159 0
M  V30 2792 N 264.58 -0.43555 -1.51462 0
M  V30 2793 C 265.51 0.367376 -2.30592 0
M  V30 2794 C 266.491 1.02263 -1.35928 0
M  V30 2795 O 267.676 1.02661 -1.64847 0
M  V30 2796 C 264.806 1.46983 -3.14664 0
M  V30 2797 C 263.76 0.938161 -4.17591 0
M  V30 2798 C 263.086 2.13622 -4.90173 0
M  V30 2799 C 264.386 -0.0261621 -5.22293 0
M  V30 2800 H 266.08 -0.292969 -2.97963 0
M  V30 2801 H 263.626 -0.14234 -1.43295 0
M  V30 2802 H 265.579 2.03873 -3.688 0
M  V30 2803 H 264.303 2.15843 -2.4511 0
M  V30 2804 H 262.962 0.391481 -3.64504 0
M  V30 2805 H 262.61 2.81098 -4.17124 0
M  V30 2806 H 262.31 1.78688 -5.59772 0
M  V30 2807 H 263.834 2.7107 -5.47132 0
M  V30 2808 H 265.248 0.452384 -5.71512 0
M  V30 2809 H 263.645 -0.287992 -5.99409 0
M  V30 2810 H 264.715 -0.963391 -4.75233 0
M  V30 2811 N 266.058 1.56714 -0.166846 0
M  V30 2812 C 267.005 2.17746 0.765193 0
M  V30 2813 C 267.975 1.11614 1.23011 0
M  V30 2814 O 269.16 1.39745 1.29908 0
M  V30 2815 C 266.3 2.81882 1.9909 0
M  V30 2816 C 265.413 4.02462 1.56997 0
M  V30 2817 C 264.548 4.54537 2.749 0
M  V30 2818 C 263.587 5.67538 2.29275 0
M  V30 2819 N 262.724 6.14142 3.40255 0
M  V30 2820 H 267.564 2.97048 0.237952 0
M  V30 2821 H 265.101 1.4672 0.105725 0
M  V30 2822 H 267.059 3.17221 2.70974 0
M  V30 2823 H 265.689 2.05191 2.49192 0
M  V30 2824 H 264.741 3.72973 0.748037 0
M  V30 2825 H 266.053 4.84273 1.19503 0
M  V30 2826 H 265.207 4.92035 3.54946 0
M  V30 2827 H 263.946 3.71774 3.1565 0
M  V30 2828 H 262.951 5.29597 1.47674 0
M  V30 2829 H 264.176 6.52099 1.89588 0
M  V30 2830 H 262.122 5.3431 3.8059 0
M  V30 2831 H 262.039 6.9093 3.06841 0
M  V30 2832 H 263.307 6.56289 4.206 0
M  V30 2833 N 267.536 -0.106894 1.57237 0
M  V30 2834 C 268.499 -1.11466 2.0027 0
M  V30 2835 C 269.499 -1.33623 0.894519 0
M  V30 2836 O 270.689 -1.29935 1.16028 0
M  V30 2837 C 267.821 -2.46646 2.35327 0
M  V30 2838 H 269.014 -0.744516 2.90512 0
M  V30 2839 H 266.567 -0.351576 1.52295 0
M  V30 2840 H 267.302 -2.88558 1.48003 0
M  V30 2841 H 267.087 -2.31915 3.16161 0
M  V30 2842 H 268.577 -3.19151 2.69318 0
M  V30 2843 N 269.014 -1.53014 -0.377408 0
M  V30 2844 C 270.262 -1.6829 -1.11906 0
M  V30 2845 C 270.583 -0.431206 -1.90173 0
M  V30 2846 O 269.853 0.554595 -1.87886 0
M  V30 2847 H 268.433 -0.620371 -0.416112 0
M  V30 2848 H 271.095 -1.90167 -0.426893 0
M  V30 2849 H 270.191 -2.53862 -1.8155 0
M  V30 2850 N 270.492 0.636531 -1.44174 0
M  V30 2851 C 271.738 1.39826 -1.4689 0
M  V30 2852 C 272.071 1.93947 -0.0990585 0
M  V30 2853 O 271.346 1.73325 0.882544 0
M  V30 2854 C 271.629 2.56751 -2.5249 0
M  V30 2855 C 271.482 2.08014 -3.98811 0
M  V30 2856 C 272.801 3.58946 -2.54649 0
M  V30 2857 H 269.92 0.507075 -0.53483 0
M  V30 2858 H 272.562 0.720188 -1.75822 0
M  V30 2859 H 270.712 3.14597 -2.2795 0
M  V30 2860 H 272.384 1.5504 -4.34466 0
M  V30 2861 H 270.627 1.39242 -4.10846 0
M  V30 2862 H 271.298 2.92169 -4.68339 0
M  V30 2863 H 273.774 3.1089 -2.76563 0
M  V30 2864 H 272.65 4.38286 -3.3045 0
M  V30 2865 H 272.911 4.12655 -1.58646 0
M  V30 2866 N 271.97 1.30982 0.876444 0
M  V30 2867 C 272.933 1.18054 1.96459 0
M  V30 2868 C 273.933 0.109399 1.60427 0
M  V30 2869 O 275.123 0.358173 1.70478 0
M  V30 2870 C 272.255 0.810616 3.31122 0
M  V30 2871 H 273.448 2.14735 2.09354 0
M  V30 2872 H 271.001 1.145 1.06392 0
M  V30 2873 H 271.736 -0.155322 3.23928 0
M  V30 2874 H 271.521 1.58481 3.58645 0
M  V30 2875 H 273.011 0.743876 4.10921 0
M  V30 2876 N 273.449 -1.08991 1.13837 0
M  V30 2877 C 274.399 -2.1393 0.788535 0
M  V30 2878 C 275.383 -1.59396 -0.219516 0
M  V30 2879 O 276.575 -1.76985 -0.0227557 0
M  V30 2880 C 273.704 -3.42305 0.261147 0
M  V30 2881 C 272.79 -4.03736 1.29837 0
M  V30 2882 N 273.181 -4.39659 2.50067 0
M  V30 2883 C 271.479 -4.30993 1.1472 0
M  V30 2884 C 272.18 -4.88113 3.16419 0
M  V30 2885 N 271.156 -4.85846 2.43832 0
M  V30 2886 H 274.958 -2.39516 1.70322 0
M  V30 2887 H 272.472 -1.26263 1.02134 0
M  V30 2888 H 274.469 -4.16899 -0.0077405 0
M  V30 2889 H 273.129 -3.18172 -0.647805 0
M  V30 2890 H 274.14 -4.30878 2.8734 0
M  V30 2891 H 270.817 -4.16444 0.296773 0
M  V30 2892 H 272.207 -5.25336 4.18894 0
M  V30 2893 N 274.927 -0.932562 -1.27047 0
M  V30 2894 C 275.877 -0.406392 -2.24349 0
M  V30 2895 C 276.861 0.492066 -1.53191 0
M  V30 2896 O 278.053 0.328717 -1.73921 0
M  V30 2897 C 275.182 0.335214 -3.41659 0
M  V30 2898 C 274.268 -0.58004 -4.20115 0
M  V30 2899 N 274.659 -1.70203 -4.76303 0
M  V30 2900 C 272.957 -0.383974 -4.44344 0
M  V30 2901 C 273.658 -2.27167 -5.35509 0
M  V30 2902 N 272.634 -1.56068 -5.20715 0
M  V30 2903 H 276.436 -1.26299 -2.65378 0
M  V30 2904 H 273.95 -0.787408 -1.42034 0
M  V30 2905 H 275.947 0.729142 -4.10474 0
M  V30 2906 H 274.607 1.18868 -3.0216 0
M  V30 2907 H 275.618 -2.08433 -4.74106 0
M  V30 2908 H 272.295 0.428436 -4.15296 0
M  V30 2909 H 273.685 -3.21654 -5.89905 0
M  V30 2910 N 276.405 1.4127 -0.698611 0
M  V30 2911 C 277.352 2.30773 -0.0352094 0
M  V30 2912 C 278.322 1.47273 0.768111 0
M  V30 2913 O 279.507 1.76053 0.735524 0
M  V30 2914 C 276.647 3.33346 0.893 0
M  V30 2915 C 275.76 4.31924 0.0809695 0
M  V30 2916 C 274.895 5.21566 1.0071 0
M  V30 2917 C 273.934 6.11811 0.188155 0
M  V30 2918 N 273.071 6.93926 1.06825 0
M  V30 2919 H 277.911 2.86943 -0.804207 0
M  V30 2920 H 275.448 1.4132 -0.408294 0
M  V30 2921 H 277.406 3.91368 1.44523 0
M  V30 2922 H 276.036 2.78719 1.62836 0
M  V30 2923 H 275.088 3.75825 -0.588224 0
M  V30 2924 H 276.4 4.95716 -0.553801 0
M  V30 2925 H 275.554 5.84437 1.62845 0
M  V30 2926 H 274.293 4.58008 1.67572 0
M  V30 2927 H 273.298 5.47986 -0.446254 0
M  V30 2928 H 274.523 6.77425 -0.476716 0
M  V30 2929 H 272.469 6.32973 1.72283 0
M  V30 2930 H 272.386 7.54416 0.489123 0
M  V30 2931 H 273.654 7.61262 1.67632 0
M  V30 2932 N 277.883 0.443576 1.51229 0
M  V30 2933 C 279.113 -0.119117 2.06256 0
M  V30 2934 C 279.521 -1.36471 1.31043 0
M  V30 2935 O 278.864 -1.80034 0.365151 0
M  V30 2936 C 278.926 -0.500546 3.55998 0
M  V30 2937 C 278.59 0.639125 4.52509 0
M  V30 2938 C 279.587 1.51311 4.97394 0
M  V30 2939 C 277.272 0.821632 4.95535 0
M  V30 2940 C 279.266 2.55425 5.83984 0
M  V30 2941 C 276.953 1.86603 5.81913 0
M  V30 2942 C 277.951 2.73072 6.26036 0
M  V30 2943 O 277.639 3.75718 7.10698 0
M  V30 2944 H 277.371 -0.00857665 0.675946 0
M  V30 2945 H 279.925 0.623288 1.95715 0
M  V30 2946 H 278.155 -1.29575 3.64345 0
M  V30 2947 H 279.844 -0.995116 3.93513 0
M  V30 2948 H 280.61 1.38367 4.64844 0
M  V30 2949 H 276.489 0.158149 4.60729 0
M  V30 2950 H 280.033 3.22949 6.18344 0
M  V30 2951 H 275.93 1.99564 6.13876 0
M  V30 2952 H 276.698 3.72374 7.2889 0
M  V30 2953 N 279.361 -1.56624 0.175154 0
M  V30 2954 C 280.777 -1.58571 -0.180966 0
M  V30 2955 C 280.977 -1.19065 -1.6256 0
M  V30 2956 O 280.033 -0.904044 -2.35761 0
M  V30 2957 C 281.346 -3.00522 0.103326 0
M  V30 2958 C 282.894 -3.12972 0.0418426 0
M  V30 2959 C 283.369 -4.57022 0.299175 0
M  V30 2960 N 284.86 -4.62541 0.247086 0
M  V30 2961 C 285.595 -5.71857 0.420318 0
M  V30 2962 N 285.091 -6.89717 0.652816 0
M  V30 2963 N 286.884 -5.60972 0.355957 0
M  V30 2964 H 279.035 -1.80589 1.11809 0
M  V30 2965 H 281.298 -0.837178 0.444788 0
M  V30 2966 H 281.004 -3.33916 1.10422 0
M  V30 2967 H 280.878 -3.72344 -0.603299 0
M  V30 2968 H 283.265 -2.79403 -0.949636 0
M  V30 2969 H 283.346 -2.43578 0.781238 0
M  V30 2970 H 282.99 -4.913 1.28788 0
M  V30 2971 H 282.92 -5.24579 -0.460876 0
M  V30 2972 H 285.411 -3.77829 0.0731895 0
M  V30 2973 H 285.724 -7.68911 0.774347 0
M  V30 2974 H 284.069 -6.91572 0.689476 0
M  V30 2975 H 287.26 -4.67773 0.174882 0
M  V30 2976 H 287.433 -6.46111 0.494388 0
M  V30 2977 N 280.839 0.0985539 -1.57292 0
M  V30 2978 C 282.085 0.803867 -1.86188 0
M  V30 2979 C 282.418 1.78549 -0.763794 0
M  V30 2980 O 281.693 1.93153 0.22855 0
M  V30 2981 C 281.976 1.53568 -3.25713 0
M  V30 2982 C 281.829 0.572277 -4.46145 0
M  V30 2983 C 283.148 2.48708 -3.63087 0
M  V30 2984 H 280.267 0.290781 -0.677211 0
M  V30 2985 H 282.909 0.0675783 -1.8988 0
M  V30 2986 H 281.059 2.16332 -3.22696 0
M  V30 2987 H 282.731 -0.0480894 -4.61275 0
M  V30 2988 H 280.974 -0.114618 -4.33649 0
M  V30 2989 H 281.645 1.12139 -5.40489 0
M  V30 2990 H 284.121 1.96039 -3.67026 0
M  V30 2991 H 282.997 2.96932 -4.61652 0
M  V30 2992 H 283.258 3.32309 -2.91588 0
M  V30 2993 N 282.317 1.53212 0.369288 0
M  V30 2994 C 283.264 1.79388 1.45219 0
M  V30 2995 C 284.234 0.638059 1.53356 0
M  V30 2996 O 285.419 0.879852 1.69302 0
M  V30 2997 C 282.559 1.98623 2.82211 0
M  V30 2998 C 281.672 3.26337 2.8307 0
M  V30 2999 C 280.807 3.35779 4.11614 0
M  V30 3000 C 279.846 4.5754 4.06601 0
M  V30 3001 N 278.983 4.64155 5.26787 0
M  V30 3002 H 283.823 2.71794 1.22198 0
M  V30 3003 H 281.36 1.34642 0.592444 0
M  V30 3004 H 283.318 2.07761 3.61789 0
M  V30 3005 H 281.948 1.09558 3.03639 0
M  V30 3006 H 281 3.26171 1.95747 0
M  V30 3007 H 282.312 4.15988 2.75237 0
M  V30 3008 H 281.466 3.44208 4.99606 0
M  V30 3009 H 280.205 2.44137 4.22195 0
M  V30 3010 H 279.21 4.49215 3.16996 0
M  V30 3011 H 280.435 5.50519 3.97625 0
M  V30 3012 H 278.381 3.75413 5.3796 0
M  V30 3013 H 278.298 5.47706 5.21109 0
M  V30 3014 H 279.566 4.76863 6.16621 0
M  V30 3015 N 283.795 -0.628877 1.44509 0
M  V30 3016 C 285.211 -0.947305 1.28446 0
M  V30 3017 C 285.411 -2.00275 0.221872 0
M  V30 3018 O 284.467 -2.49447 -0.391471 0
M  V30 3019 C 285.78 -1.40843 2.65676 0
M  V30 3020 C 287.328 -1.52379 2.73404 0
M  V30 3021 C 287.803 -2.01875 4.11109 0
M  V30 3022 N 289.294 -2.09142 4.13296 0
M  V30 3023 C 290.029 -2.48615 5.16699 0
M  V30 3024 N 289.525 -2.87209 6.30462 0
M  V30 3025 N 291.318 -2.48768 5.04054 0
M  V30 3026 H 283.469 0.0690977 2.12288 0
M  V30 3027 H 285.732 -0.0317164 0.947469 0
M  V30 3028 H 285.438 -0.707206 3.44516 0
M  V30 3029 H 285.312 -2.37902 2.92716 0
M  V30 3030 H 287.699 -2.21598 1.9488 0
M  V30 3031 H 287.78 -0.536898 2.50102 0
M  V30 3032 H 287.424 -1.3325 4.90109 0
M  V30 3033 H 287.354 -3.0144 4.31789 0
M  V30 3034 H 289.845 -1.81991 3.31191 0
M  V30 3035 H 290.158 -3.16149 7.05174 0
M  V30 3036 H 288.503 -2.84955 6.33897 0
M  V30 3037 H 291.694 -2.18009 4.14234 0
M  V30 3038 H 291.867 -2.79207 5.84763 0
M  V30 3039 N 285.273 -1.31445 -0.869486 0
M  V30 3040 C 286.221 -1.19067 -1.99814 0
M  V30 3041 C 287.215 -0.0988569 -1.69111 0
M  V30 3042 O 288.421 -0.260781 -1.78101 0
M  V30 3043 H 284.796 -0.368677 -0.655425 0
M  V30 3044 H 286.767 -2.14555 -2.07385 0
M  V30 3045 C 285.516 -0.915323 -3.35436 0
M  V30 3046 H 284.839 -1.74759 -3.59582 0
M  V30 3047 H 286.279 -0.868895 -4.15001 0
M  V30 3048 C 284.738 0.381928 -3.34728 0
M  V30 3049 O 285.268 1.39857 -3.76567 0
M  V30 3050 N 283.474 0.398633 -2.87853 0
M  V30 3051 H 283.021 -0.429186 -2.54 0
M  V30 3052 H 282.979 1.26651 -2.87762 0
M  V30 3053 N 286.751 1.08385 -1.14413 0
M  V30 3054 C 287.991 1.8238 -0.922868 0
M  V30 3055 C 288.355 1.84225 0.540842 0
M  V30 3056 O 289.556 2.53985 0.880058 0
M  V30 3057 C 287.827 3.24048 -1.50757 0
M  V30 3058 S 289.386 4.14917 -1.4279 0
M  V30 3059 H 286.204 0.628524 -0.332384 0
M  V30 3060 H 288.806 1.30278 -1.45766 0
M  V30 3061 H 287.51 3.20288 -2.56601 0
M  V30 3062 H 287.041 3.81224 -0.971178 0
M  V30 3063 H 289.056 4.94473 -0.413582 0
M  V30 3064 N 288.23 0.939286 1.26551 0
M  V30 3065 C 289.476 0.596234 1.94465 0
M  V30 3066 C 289.831 -0.855013 1.72358 0
M  V30 3067 O 289.124 -1.6034 1.04889 0
M  V30 3068 C 289.318 0.872106 3.46596 0
M  V30 3069 C 289.147 2.34862 3.83497 0
M  V30 3070 C 287.917 3.00344 4.06352 0
M  V30 3071 C 290.115 3.32697 3.92195 0
M  V30 3072 N 288.097 4.38027 4.30123 0
M  V30 3073 C 289.468 4.55631 4.20476 0
M  V30 3074 C 291.523 3.27747 3.74815 0
M  V30 3075 C 290.226 5.74233 4.33185 0
M  V30 3076 C 292.252 4.45672 3.88755 0
M  V30 3077 C 291.614 5.67388 4.17433 0
M  V30 3078 H 287.713 0.268515 0.734455 0
M  V30 3079 H 290.297 1.2083 1.5267 0
M  V30 3080 H 288.468 0.289102 3.87323 0
M  V30 3081 H 290.2 0.490513 4.01716 0
M  V30 3082 H 286.955 2.50969 4.01636 0
M  V30 3083 H 287.379 5.09288 4.46044 0
M  V30 3084 H 292.021 2.34703 3.51673 0
M  V30 3085 H 289.739 6.67731 4.55149 0
M  V30 3086 H 293.325 4.43372 3.76713 0
M  V30 3087 H 292.205 6.57115 4.27983 0
M  V30 3088 N 289.708 -1.40897 0.706093 0
M  V30 3089 C 291.119 -1.84023 0.315052 0
M  V30 3090 C 291.47 -1.5906 -1.14866 0
M  V30 3091 O 290.595 -1.06651 -1.88293 0
M  V30 3092 C 291.19 -3.34055 0.565038 0
M  V30 3093 C 289.749 -3.7571 0.227806 0
M  V30 3094 C 288.896 -2.64204 0.842122 0
M  V30 3095 H 291.847 -1.303 0.905963 0
M  V30 3096 H 291.868 -3.80107 -0.172843 0
M  V30 3097 H 291.38 -3.52192 1.63042 0
M  V30 3098 H 289.481 -3.63172 -0.832895 0
M  V30 3099 H 289.594 -4.74103 0.690174 0
M  V30 3100 H 287.958 -2.53255 0.270893 0
M  V30 3101 H 288.741 -2.85155 1.91158 0
M  V30 3102 N 291.186 -0.45159 -1.50991 0
M  V30 3103 C 292.133 0.352625 -2.2809 0
M  V30 3104 C 293.103 1.0044 -1.32291 0
M  V30 3105 O 294.288 1.02058 -1.6121 0
M  V30 3106 C 291.428 1.43983 -3.13629 0
M  V30 3107 C 290.541 0.804772 -4.24438 0
M  V30 3108 C 289.676 1.86822 -4.97263 0
M  V30 3109 C 288.715 1.21236 -5.99973 0
M  V30 3110 N 287.852 2.2178 -6.66152 0
M  V30 3111 H 292.692 -0.311186 -2.96371 0
M  V30 3112 H 290.229 -0.165308 -1.46168 0
M  V30 3113 H 292.187 2.08161 -3.61559 0
M  V30 3114 H 290.817 2.07307 -2.47434 0
M  V30 3115 H 289.869 0.0509129 -3.80366 0
M  V30 3116 H 291.181 0.286076 -4.97979 0
M  V30 3117 H 290.335 2.58628 -5.48813 0
M  V30 3118 H 289.074 2.42068 -4.23385 0
M  V30 3119 H 288.079 0.479828 -5.47702 0
M  V30 3120 H 289.304 0.667051 -6.75816 0
M  V30 3121 H 287.25 2.76079 -5.95077 0
M  V30 3122 H 287.167 1.74841 -7.35504 0
M  V30 3123 H 288.435 2.93026 -7.22327 0
M  V30 3124 N 292.664 1.56529 -0.183458 0
M  V30 3125 C 293.91 1.97537 0.459036 0
M  V30 3126 C 294.243 1.06989 1.62071 0
M  V30 3127 O 293.518 0.11948 1.94133 0
M  V30 3128 C 293.801 3.47874 0.930368 0
M  V30 3129 C 293.654 4.492 -0.232317 0
M  V30 3130 C 294.973 4.01612 1.79989 0
M  V30 3131 H 292.092 0.718204 0.165383 0
M  V30 3132 H 294.734 1.88042 -0.272038 0
M  V30 3133 H 292.884 3.56095 1.55333 0
M  V30 3134 H 294.556 4.53027 -0.86972 0
M  V30 3135 H 292.799 4.24657 -0.885928 0
M  V30 3136 H 293.47 5.51823 0.139796 0
M  V30 3137 H 295.946 3.96097 1.27461 0
M  V30 3138 H 294.822 5.07195 2.09867 0
M  V30 3139 H 295.083 3.46163 2.74998 0
M  V30 3140 N 294.142 -0.090211 1.57342 0
M  V30 3141 C 295.558 -0.444547 1.53284 0
M  V30 3142 C 295.758 -1.80238 0.900914 0
M  V30 3143 O 294.814 -2.4759 0.495513 0
M  V30 3144 C 296.127 -0.402543 2.97993 0
M  V30 3145 C 297.675 -0.48405 3.09234 0
M  V30 3146 C 298.15 -0.472144 4.5556 0
M  V30 3147 N 299.641 -0.532757 4.60126 0
M  V30 3148 C 300.376 -0.545462 5.708 0
M  V30 3149 N 299.872 -0.514082 6.9089 0
M  V30 3150 N 301.665 -0.59064 5.58988 0
M  V30 3151 H 293.816 0.799121 1.96794 0
M  V30 3152 H 296.079 0.297965 0.899956 0
M  V30 3153 H 295.785 0.528106 3.47712 0
M  V30 3154 H 295.659 -1.21969 3.56936 0
M  V30 3155 H 298.046 -1.40512 2.595 0
M  V30 3156 H 298.127 0.361328 2.53235 0
M  V30 3157 H 297.771 0.445 5.05947 0
M  V30 3158 H 297.701 -1.3348 5.09402 0
M  V30 3159 H 300.192 -0.562006 3.73698 0
M  V30 3160 H 300.505 -0.527195 7.71 0
M  V30 3161 H 298.85 -0.481054 6.93333 0
M  V30 3162 H 302.041 -0.61272 4.64073 0
M  V30 3163 H 302.214 -0.597073 6.45243 0
M  V30 3164 N 295.62 -1.53406 -0.361157 0
M  V30 3165 C 296.868 -1.69467 -1.10115 0
M  V30 3166 C 297.189 -0.451352 -1.89705 0
M  V30 3167 O 296.459 0.534636 -1.88463 0
M  V30 3168 H 295.039 -0.624749 -0.409508 0
M  V30 3169 H 297.701 -1.90609 -0.406699 0
M  V30 3170 H 296.797 -2.55774 -1.78847 0
M  V30 3171 N 297.098 0.621204 -1.44841 0
M  V30 3172 C 298.344 1.3826 -1.48365 0
M  V30 3173 C 298.677 1.93831 -0.119624 0
M  V30 3174 O 297.952 1.74251 0.864111 0
M  V30 3175 C 298.235 2.54058 -2.55199 0
M  V30 3176 C 298.088 2.03772 -4.00995 0
M  V30 3177 C 299.407 3.56225 -2.58442 0
M  V30 3178 H 296.526 0.501374 -0.540179 0
M  V30 3179 H 299.168 0.7015 -1.76576 0
M  V30 3180 H 297.318 3.12162 -2.31274 0
M  V30 3181 H 298.99 1.50423 -4.36086 0
M  V30 3182 H 297.233 1.34876 -4.12299 0
M  V30 3183 H 297.904 2.87185 -4.71411 0
M  V30 3184 H 300.38 3.07939 -2.79844 0
M  V30 3185 H 299.256 4.34756 -3.3508 0
M  V30 3186 H 299.517 4.10949 -1.63013 0
M  V30 3187 N 298.576 1.31904 0.862503 0
M  V30 3188 C 299.539 1.20131 1.95195 0
M  V30 3189 C 300.539 0.126409 1.60302 0
M  V30 3190 O 301.729 0.376234 1.70089 0
M  V30 3191 C 298.861 0.845691 3.30244 0
M  V30 3192 H 300.054 2.16943 2.07064 0
M  V30 3193 H 297.607 1.15622 1.05172 0
M  V30 3194 H 298.342 -0.120957 3.24074 0
M  V30 3195 H 298.127 1.62276 3.56944 0
M  V30 3196 H 299.617 0.787418 4.10109 0
M  V30 3197 N 300.054 -1.07777 1.14986 0
M  V30 3198 C 300.987 -2.14228 0.786243 0
M  V30 3199 C 301.965 -1.60888 -0.235347 0
M  V30 3200 O 303.149 -1.88099 -0.122909 0
M  V30 3201 C 300.276 -3.38281 0.168433 0
M  V30 3202 C 299.322 -4.10387 1.16123 0
M  V30 3203 S 300.155 -4.62371 2.70135 0
M  V30 3204 C 301.311 -5.89704 2.09762 0
M  V30 3205 H 301.544 -2.44741 1.68787 0
M  V30 3206 H 299.077 -1.19984 0.971756 0
M  V30 3207 H 301.035 -4.10098 -0.181588 0
M  V30 3208 H 299.696 -3.05953 -0.710725 0
M  V30 3209 H 298.889 -4.99431 0.677086 0
M  V30 3210 H 298.491 -3.44513 1.45556 0
M  V30 3211 H 300.783 -6.61648 1.45701 0
M  V30 3212 H 301.726 -6.42824 2.96955 0
M  V30 3213 H 302.134 -5.4302 1.54239 0
M  V30 3214 N 301.532 -0.945985 -1.26051 0
M  V30 3215 C 302.48 -0.450259 -2.282 0
M  V30 3216 C 303.474 0.47497 -1.62605 0
M  V30 3217 O 304.68 0.352653 -1.76512 0
M  V30 3218 H 301.055 -0.127081 -0.741184 0
M  V30 3219 H 303.026 -1.32422 -2.67408 0
M  V30 3220 C 301.775 0.26467 -3.46691 0
M  V30 3221 H 301.098 -0.438123 -3.97392 0
M  V30 3222 H 302.538 0.575678 -4.20074 0
M  V30 3223 C 300.997 1.48416 -3.02447 0
M  V30 3224 O 301.527 2.58227 -3.07704 0
M  V30 3225 N 299.733 1.34243 -2.57735 0
M  V30 3226 H 299.28 0.448994 -2.53657 0
M  V30 3227 H 299.238 2.15957 -2.28495 0
M  V30 3228 N 303.011 1.40521 -0.713556 0
M  V30 3229 C 304.422 1.83853 -0.324807 0
M  V30 3230 C 304.773 1.59667 1.14021 0
M  V30 3231 O 303.898 1.07649 1.87725 0
M  V30 3232 C 304.493 3.33751 -0.582746 0
M  V30 3233 C 303.052 3.75584 -0.247727 0
M  V30 3234 C 302.199 2.63753 -0.856121 0
M  V30 3235 H 305.15 1.29817 -0.91286 0
M  V30 3236 H 305.171 3.80194 0.152682 0
M  V30 3237 H 304.683 3.51322 -1.64908 0
M  V30 3238 H 302.784 3.63608 0.813624 0
M  V30 3239 H 302.897 4.7373 -0.715307 0
M  V30 3240 H 301.261 2.53108 -0.28432 0
M  V30 3241 H 302.044 2.84137 -1.92668 0
M  V30 3242 N 304.489 0.459591 1.5075 0
M  V30 3243 C 305.735 -0.0994966 2.02556 0
M  V30 3244 C 306.068 -1.40399 1.3417 0
M  V30 3245 O 305.343 -1.88892 0.463683 0
M  V30 3246 C 305.626 -0.295242 3.58888 0
M  V30 3247 C 305.479 1.02947 4.37861 0
M  V30 3248 C 306.798 -1.05502 4.27267 0
M  V30 3249 H 303.917 -0.034686 0.736183 0
M  V30 3250 H 306.559 0.602938 1.8018 0
M  V30 3251 H 304.709 -0.893563 3.78084 0
M  V30 3252 H 306.381 1.66348 4.30263 0
M  V30 3253 H 304.624 1.62885 4.02058 0
M  V30 3254 H 305.295 0.846281 5.45474 0
M  V30 3255 H 307.771 -0.547993 4.12476 0
M  V30 3256 H 306.647 -1.16077 5.36486 0
M  V30 3257 H 306.908 -2.08875 3.89645 0
M  V30 3258 N 305.967 -1.56429 0.191757 0
M  V30 3259 C 306.877 -2.22541 -0.742481 0
M  V30 3260 C 307.893 -1.22342 -1.23727 0
M  V30 3261 O 309.069 -1.55069 -1.28513 0
M  V30 3262 C 306.134 -2.8692 -1.94623 0
M  V30 3263 C 305.195 -4.02378 -1.49633 0
M  V30 3264 C 304.428 -4.63678 -2.6427 0
M  V30 3265 O 304.651 -4.23895 -3.81666 0
M  V30 3266 O 303.585 -5.53202 -2.37174 0
M  V30 3267 H 307.411 -3.02977 -0.209462 0
M  V30 3268 H 304.996 -1.49353 -0.0373832 0
M  V30 3269 H 306.878 -3.27663 -2.64982 0
M  V30 3270 H 305.553 -2.09466 -2.46791 0
M  V30 3271 H 304.46 -3.66265 -0.761636 0
M  V30 3272 H 305.793 -4.81487 -1.02134 0
M  V30 3273 N 307.445 0.0818655 -1.57387 0
M  V30 3274 C 308.395 1.10501 -1.99433 0
M  V30 3275 C 309.379 1.35041 -0.874798 0
M  V30 3276 O 310.571 1.35511 -1.13868 0
M  V30 3277 C 307.7 2.42159 -2.43339 0
M  V30 3278 C 306.786 2.20937 -3.62005 0
M  V30 3279 N 307.177 1.69616 -4.76512 0
M  V30 3280 C 305.475 2.51451 -3.68359 0
M  V30 3281 C 306.176 1.62973 -5.58404 0
M  V30 3282 N 305.152 2.08664 -5.01956 0
M  V30 3283 H 308.954 0.701373 -2.85408 0
M  V30 3284 H 306.468 0.289096 -1.59806 0
M  V30 3285 H 308.465 3.16208 -2.71695 0
M  V30 3286 H 307.125 2.83249 -1.58746 0
M  V30 3287 H 308.136 1.38624 -4.99003 0
M  V30 3288 H 304.813 2.95975 -2.94457 0
M  V30 3289 H 306.203 1.24233 -6.60315 0
M  V30 3290 N 308.923 1.53595 0.353017 0
M  V30 3291 C 310.334 1.61937 0.929153 0
M  V30 3292 C 310.685 0.494686 1.89861 0
M  V30 3293 O 309.81 -0.377017 2.1309 0
M  V30 3294 C 310.405 2.93526 1.69199 0
M  V30 3295 C 308.964 3.04161 2.21727 0
M  V30 3296 C 308.111 2.57322 1.03348 0
M  V30 3297 H 311.062 1.58155 0.131431 0
M  V30 3298 H 311.083 2.82034 2.55416 0
M  V30 3299 H 310.595 3.75362 0.986144 0
M  V30 3300 H 308.696 2.26938 2.95516 0
M  V30 3301 H 308.809 4.09465 2.48748 0
M  V30 3302 H 307.173 2.12499 1.40414 0
M  V30 3303 H 307.956 3.41588 0.342428 0
M  V30 3304 N 310.401 -0.613514 1.45168 0
M  V30 3305 C 311.351 -1.71871 1.49815 0
M  V30 3306 C 312.335 -1.56774 0.362021 0
M  V30 3307 O 313.527 -1.66212 0.608493 0
M  V30 3308 C 310.656 -3.1061 1.46207 0
M  V30 3309 C 309.742 -3.31114 2.64999 0
M  V30 3310 N 310.133 -3.21904 3.90143 0
M  V30 3311 C 308.431 -3.61966 2.6057 0
M  V30 3312 C 309.132 -3.43577 4.69393 0
M  V30 3313 N 308.108 -3.67287 4.00751 0
M  V30 3314 H 311.91 -1.63235 2.444 0
M  V30 3315 H 309.424 -0.816577 1.40377 0
M  V30 3316 H 311.421 -3.8989 1.4762 0
M  V30 3317 H 310.081 -3.20399 0.52673 0
M  V30 3318 H 311.092 -3.00436 4.21852 0
M  V30 3319 H 307.769 -3.78629 1.75916 0
M  V30 3320 H 309.159 -3.41901 5.78406 0
M  V30 3321 N 311.879 -1.3236 -0.855495 0
M  V30 3322 C 313.127 -1.22629 -1.60644 0
M  V30 3323 C 313.448 0.212136 -1.93843 0
M  V30 3324 O 312.718 1.13666 -1.59552 0
M  V30 3325 H 311.298 -0.450882 -0.595579 0
M  V30 3326 H 313.96 -1.65871 -1.02337 0
M  V30 3327 H 313.056 -1.80832 -2.54374 0
M  V30 3328 N 313.357 1.07166 -1.15556 0
M  V30 3329 C 314.605 1.79443 -0.929764 0
M  V30 3330 C 314.926 1.87246 0.544414 0
M  V30 3331 O 314.196 1.37473 1.39564 0
M  V30 3332 H 312.776 0.664625 -0.341003 0
M  V30 3333 H 315.438 1.29499 -1.45657 0
M  V30 3334 H 314.534 2.81832 -1.34079 0
M  V30 3335 N 314.835 0.952656 1.25548 0
M  V30 3336 C 316.083 0.605176 1.92826 0
M  V30 3337 C 316.404 -0.860261 1.74999 0
M  V30 3338 O 315.674 -1.6125 1.11244 0
M  V30 3339 H 314.254 0.220832 0.713612 0
M  V30 3340 H 316.916 1.21047 1.52754 0
M  V30 3341 H 316.012 0.832798 3.00784 0
M  V30 3342 N 316.313 -1.40141 0.720998 0
M  V30 3343 C 317.261 -2.3252 0.0608547 0
M  V30 3344 C 318.255 -1.52326 -0.741152 0
M  V30 3345 O 319.461 -1.68089 -0.643911 0
M  V30 3346 H 315.836 -0.751999 0.000876664 0
M  V30 3347 H 317.807 -2.8584 0.856614 0
M  V30 3348 C 316.556 -3.37331 -0.842809 0
M  V30 3349 H 315.879 -3.99108 -0.235084 0
M  V30 3350 H 317.319 -4.04452 -1.27257 0
M  V30 3351 C 315.778 -2.73246 -1.97074 0
M  V30 3352 O 316.308 -2.59998 -3.06209 0
M  V30 3353 N 314.514 -2.31547 -1.75597 0
M  V30 3354 H 314.061 -2.42522 -0.868368 0
M  V30 3355 H 314.019 -1.89007 -2.51244 0
M  V30 3356 N 317.792 -0.46758 -1.50504 0
M  V30 3357 C 318.742 0.34698 -2.25344 0
M  V30 3358 C 319.726 0.964469 -1.2879 0
M  V30 3359 O 320.918 0.8776 -1.53711 0
M  V30 3360 C 318.047 1.43042 -3.1208 0
M  V30 3361 C 317.133 0.82084 -4.16081 0
M  V30 3362 N 317.524 -0.0567602 -5.05768 0
M  V30 3363 C 315.822 1.08517 -4.32597 0
M  V30 3364 C 316.523 -0.402343 -5.80307 0
M  V30 3365 N 315.499 0.221607 -5.43148 0
M  V30 3366 H 319.301 -0.329129 -2.92051 0
M  V30 3367 H 316.815 -0.281508 -1.59942 0
M  V30 3368 H 318.812 2.02712 -3.64299 0
M  V30 3369 H 317.472 2.10856 -2.46921 0
M  V30 3370 H 318.483 -0.425349 -5.1615 0
M  V30 3371 H 315.16 1.75855 -3.78657 0
M  V30 3372 H 316.55 -1.11834 -6.62528 0
M  V30 3373 N 319.27 1.56325 -0.20005 0
M  V30 3374 C 320.202 2.16555 0.750771 0
M  V30 3375 C 321.215 1.12871 1.1732 0
M  V30 3376 O 322.404 1.39943 1.10807 0
M  V30 3377 C 319.504 2.71684 2.02586 0
M  V30 3378 C 318.677 4.00321 1.76244 0
M  V30 3379 C 317.736 4.40227 2.88248 0
M  V30 3380 O 316.762 5.07552 2.57642 0
M  V30 3381 N 317.964 4.04138 4.16717 0
M  V30 3382 H 320.729 2.98772 0.235685 0
M  V30 3383 H 318.29 1.6189 -0.0182594 0
M  V30 3384 H 320.282 2.95363 2.76664 0
M  V30 3385 H 318.852 1.93893 2.45202 0
M  V30 3386 H 318.072 3.84723 0.85919 0
M  V30 3387 H 319.36 4.84279 1.56048 0
M  V30 3388 H 318.758 3.49993 4.44434 0
M  V30 3389 H 317.315 4.32756 4.87407 0
M  V30 3390 N 320.748 -0.0735177 1.57428 0
M  V30 3391 C 321.698 -1.09442 2.00016 0
M  V30 3392 C 322.682 -1.34575 0.881947 0
M  V30 3393 O 323.874 -1.34905 1.14585 0
M  V30 3394 C 321.003 -2.40865 2.4462 0
M  V30 3395 C 320.089 -2.19014 3.63172 0
M  V30 3396 N 320.48 -1.67087 4.77405 0
M  V30 3397 C 318.778 -2.49494 3.69688 0
M  V30 3398 C 319.479 -1.6001 5.5926 0
M  V30 3399 N 318.455 -2.05999 5.03056 0
M  V30 3400 H 322.257 -0.686227 2.85776 0
M  V30 3401 H 319.771 -0.280617 1.59957 0
M  V30 3402 H 321.768 -3.14763 2.73368 0
M  V30 3403 H 320.428 -2.82403 1.60246 0
M  V30 3404 H 321.439 -1.35975 4.99731 0
M  V30 3405 H 318.116 -2.94409 2.96023 0
M  V30 3406 H 319.506 -1.2073 6.60964 0
M  V30 3407 N 322.226 -1.5378 -0.344866 0
M  V30 3408 C 323.475 -1.7018 -1.08267 0
M  V30 3409 C 323.788 -0.471 -1.89845 0
M  V30 3410 O 324.994 -0.515917 -2.66553 0
M  V30 3411 C 323.45 -3.00923 -1.97417 0
M  V30 3412 C 323.058 -4.31335 -1.21053 0
M  V30 3413 C 324.802 -3.26688 -2.71063 0
M  V30 3414 C 322.709 -5.53153 -2.09225 0
M  V30 3415 H 321.639 -0.634138 -0.407903 0
M  V30 3416 H 324.29 -1.8028 -0.342246 0
M  V30 3417 H 322.672 -2.84676 -2.75274 0
M  V30 3418 H 323.846 -4.58281 -0.481159 0
M  V30 3419 H 322.161 -4.12173 -0.591813 0
M  V30 3420 H 324.758 -4.1489 -3.37299 0
M  V30 3421 H 325.101 -2.43639 -3.37558 0
M  V30 3422 H 325.634 -3.43705 -2.0028 0
M  V30 3423 H 322.373 -6.38741 -1.47274 0
M  V30 3424 H 321.893 -5.30458 -2.79955 0
M  V30 3425 H 323.572 -5.88744 -2.68308 0
M  V30 3426 N 323.704 0.605807 -1.45491 0
M  V30 3427 C 324.952 1.36207 -1.49305 0
M  V30 3428 C 325.273 1.94519 -0.136863 0
M  V30 3429 O 324.543 1.77261 0.833983 0
M  V30 3430 H 323.123 0.50565 -0.549843 0
M  V30 3431 H 325.785 0.711239 -1.81459 0
M  V30 3432 H 324.881 2.18058 -2.23287 0
M  V30 3433 N 325.182 1.32811 0.848464 0
M  V30 3434 C 326.132 1.18842 1.94578 0
M  V30 3435 C 327.116 0.0937517 1.60627 0
M  V30 3436 O 328.308 0.320887 1.74067 0
M  V30 3437 C 325.437 0.91999 3.30743 0
M  V30 3438 C 324.523 2.05665 3.70894 0
M  V30 3439 N 324.914 3.30579 3.8282 0
M  V30 3440 C 323.212 1.9612 4.00566 0
M  V30 3441 C 323.913 4.05067 4.17487 0
M  V30 3442 N 322.889 3.33419 4.2934 0
M  V30 3443 H 326.691 2.13536 2.0194 0
M  V30 3444 H 324.205 1.2468 1.0406 0
M  V30 3445 H 326.202 0.800859 4.09136 0
M  V30 3446 H 324.862 -0.0185076 3.24695 0
M  V30 3447 H 325.873 3.65441 3.66978 0
M  V30 3448 H 322.55 1.09871 4.02784 0
M  V30 3449 H 323.94 5.12815 4.34131 0
M  V30 3450 N 326.66 -1.06551 1.16123 0
M  V30 3451 C 328.071 -1.60768 0.949232 0
M  V30 3452 C 328.422 -1.89523 -0.507508 0
M  V30 3453 O 327.547 -1.66671 -1.38021 0
M  V30 3454 C 328.142 -2.92086 1.71671 0
M  V30 3455 C 326.701 -3.43015 1.54977 0
M  V30 3456 C 325.848 -2.16947 1.72711 0
M  V30 3457 H 328.799 -0.895354 1.31031 0
M  V30 3458 H 328.82 -3.6138 1.19099 0
M  V30 3459 H 328.332 -2.71127 2.7769 0
M  V30 3460 H 326.433 -3.69039 0.513873 0
M  V30 3461 H 326.546 -4.18516 2.33198 0
M  V30 3462 H 324.91 -2.27041 1.15431 0
M  V30 3463 H 325.693 -1.98473 2.80113 0
M  V30 3464 N 328.138 -0.959301 -1.25041 0
M  V30 3465 C 329.363 -0.633507 -1.97488 0
M  V30 3466 C 329.788 0.788555 -1.70773 0
M  V30 3467 O 329.146 1.53394 -0.966431 0
M  V30 3468 C 329.194 -0.904057 -3.49083 0
M  V30 3469 O 328.298 0.0147939 -4.12397 0
M  V30 3470 H 327.639 -0.240368 -0.618966 0
M  V30 3471 H 330.169 -1.28717 -1.59038 0
M  V30 3472 H 330.179 -0.832203 -3.99423 0
M  V30 3473 H 328.854 -1.94048 -3.67856 0
M  V30 3474 H 327.431 -0.109664 -3.72739 0
M  V30 3475 N 329.616 1.39756 -0.72842 0
M  V30 3476 C 330.844 2.04948 -0.283528 0
M  V30 3477 C 331.259 1.54908 1.0793 0
M  V30 3478 O 330.616 0.711135 1.68075 0
M  V30 3479 C 330.667 3.60498 -0.268957 0
M  V30 3480 O 330.388 4.08695 -1.57798 0
M  V30 3481 C 331.889 4.4288 0.192912 0
M  V30 3482 H 329.109 0.659243 -0.125056 0
M  V30 3483 H 331.653 1.78927 -0.990226 0
M  V30 3484 H 329.808 3.85444 0.388801 0
M  V30 3485 H 330.222 5.02977 -1.48709 0
M  V30 3486 H 331.696 5.51791 0.151952 0
M  V30 3487 H 332.173 4.21418 1.23708 0
M  V30 3488 H 332.779 4.23069 -0.435039 0
M  V30 3489 N 331.094 0.475555 1.50254 0
M  V30 3490 C 332.34 -0.0780073 2.0265 0
M  V30 3491 C 332.673 -1.38968 1.35652 0
M  V30 3492 O 331.948 -1.8839 0.483691 0
M  V30 3493 C 332.231 -0.257161 3.59181 0
M  V30 3494 C 332.084 1.07585 4.36744 0
M  V30 3495 C 333.403 -1.00965 4.28362 0
M  V30 3496 H 330.522 -0.0268758 0.73651 0
M  V30 3497 H 333.164 0.622015 1.7953 0
M  V30 3498 H 331.314 -0.853412 3.79011 0
M  V30 3499 H 332.986 1.70902 4.28474 0
M  V30 3500 H 331.229 1.6714 4.00308 0
M  V30 3501 H 331.9 0.904088 5.44546 0
M  V30 3502 H 334.376 -0.504214 4.13034 0
M  V30 3503 H 333.252 -1.10381 5.37687 0
M  V30 3504 H 333.513 -2.04731 3.91839 0
M  V30 3505 N 332.573 -1.56217 0.208337 0
M  V30 3506 C 333.798 -2.02782 -0.435222 0
M  V30 3507 C 334.223 -1.08738 -1.53485 0
M  V30 3508 O 333.581 -0.0731855 -1.81152 0
M  V30 3509 C 333.629 -3.47687 -0.956335 0
M  V30 3510 O 332.733 -3.56773 -2.06849 0
M  V30 3511 H 332.074 -0.656403 -0.100158 0
M  V30 3512 H 334.604 -2.02033 0.3231 0
M  V30 3513 H 334.614 -3.87745 -1.26955 0
M  V30 3514 H 333.289 -4.15624 -0.15143 0
M  V30 3515 H 331.866 -3.28597 -1.76292 0
M  V30 3516 N 334.051 0.0651679 -1.57465 0
M  V30 3517 C 335.467 0.420105 -1.53972 0
M  V30 3518 C 335.667 1.78782 -0.929474 0
M  V30 3519 O 334.723 2.46771 -0.534839 0
M  V30 3520 C 336.036 0.355084 -2.98596 0
M  V30 3521 C 337.584 0.434792 -3.09965 0
M  V30 3522 C 338.059 0.399609 -4.56253 0
M  V30 3523 N 339.55 0.459488 -4.60915 0
M  V30 3524 C 340.285 0.454584 -5.71595 0
M  V30 3525 N 339.781 0.404102 -6.9162 0
M  V30 3526 N 341.574 0.501635 -5.59857 0
M  V30 3527 H 333.725 -0.830328 -1.95498 0
M  V30 3528 H 335.988 -0.312244 -0.895102 0
M  V30 3529 H 335.694 -0.583357 -3.46828 0
M  V30 3530 H 335.568 1.16275 -3.58831 0
M  V30 3531 H 337.955 1.36366 -2.61703 0
M  V30 3532 H 338.036 -0.40157 -2.52628 0
M  V30 3533 H 337.68 -0.525436 -5.05175 0
M  V30 3534 H 337.61 1.25359 -5.11461 0
M  V30 3535 H 340.101 0.502482 -3.74544 0
M  V30 3536 H 340.414 0.404468 -7.71741 0
M  V30 3537 H 338.759 0.37069 -6.94011 0
M  V30 3538 H 341.95 0.538812 -4.64989 0
M  V30 3539 H 342.123 0.494345 -6.46112 0
M  V30 3540 N 335.529 1.53961 0.336706 0
M  V30 3541 C 336.754 1.75797 1.10046 0
M  V30 3542 C 337.179 0.498985 1.81361 0
M  V30 3543 O 336.537 -0.548769 1.72795 0
M  V30 3544 C 336.585 2.94257 2.08436 0
M  V30 3545 O 335.689 2.64883 3.16087 0
M  V30 3546 H 335.03 0.582936 0.317934 0
M  V30 3547 H 337.56 2.00945 0.38501 0
M  V30 3548 H 337.57 3.21237 2.51537 0
M  V30 3549 H 336.245 3.85564 1.55927 0
M  V30 3550 H 334.822 2.48812 2.77753 0
M  V30 3551 N 337.007 -0.598083 1.45811 0
M  V30 3552 C 337.97 -1.69018 1.54808 0
M  V30 3553 C 338.97 -1.55037 0.426652 0
M  V30 3554 O 340.16 -1.59932 0.690456 0
M  V30 3555 C 337.292 -3.0835 1.45371 0
M  V30 3556 H 338.485 -1.62403 2.52121 0
M  V30 3557 H 336.038 -0.814626 1.33392 0
M  V30 3558 H 336.773 -3.20534 0.492793 0
M  V30 3559 H 336.558 -3.19907 2.26721 0
M  V30 3560 H 338.048 -3.8788 1.54721 0
M  V30 3561 N 338.485 -1.33259 -0.841409 0
M  V30 3562 C 339.896 -1.22066 -1.41269 0
M  V30 3563 C 340.247 0.161479 -1.95534 0
M  V30 3564 O 339.372 1.06094 -1.88608 0
M  V30 3565 C 339.967 -2.20996 -2.568 0
M  V30 3566 C 338.526 -2.13649 -3.09888 0
M  V30 3567 C 337.673 -2.08623 -1.82679 0
M  V30 3568 H 340.624 -1.44895 -0.647395 0
M  V30 3569 H 340.645 -1.81621 -3.34356 0
M  V30 3570 H 340.157 -3.2158 -2.17274 0
M  V30 3571 H 338.258 -1.16359 -3.53965 0
M  V30 3572 H 338.371 -3.04079 -3.70234 0
M  V30 3573 H 336.735 -1.54061 -2.02824 0
M  V30 3574 H 337.518 -3.1101 -1.45353 0
M  V30 3575 N 339.963 1.05934 -1.16686 0
M  V30 3576 C 340.926 2.11669 -0.879144 0
M  V30 3577 C 341.926 1.60294 0.127445 0
M  V30 3578 O 343.116 1.7389 -0.103865 0
M  V30 3579 C 340.248 3.39438 -0.315425 0
M  V30 3580 H 341.441 2.38626 -1.81653 0
M  V30 3581 H 338.994 1.22058 -0.976299 0
M  V30 3582 H 339.729 3.18132 0.629468 0
M  V30 3583 H 339.514 3.78034 -1.04079 0
M  V30 3584 H 341.004 4.17391 -0.132189 0
M  V30 3585 N 341.441 0.965919 1.2453 0
M  V30 3586 C 342.689 0.625593 1.92174 0
M  V30 3587 C 343.01 -0.841652 1.75901 0
M  V30 3588 O 342.28 -1.60061 1.12948 0
M  V30 3589 H 340.86 0.228388 0.71123 0
M  V30 3590 H 343.522 1.2266 1.51461 0
M  V30 3591 H 342.618 0.864653 2.99884 0
M  V30 3592 N 342.919 -1.39368 0.735821 0
M  V30 3593 C 343.851 -2.2913 0.0567723 0
M  V30 3594 C 344.864 -1.46859 -0.702589 0
M  V30 3595 O 346.053 -1.69925 -0.546616 0
M  V30 3596 C 343.153 -3.25492 -0.943823 0
M  V30 3597 C 342.326 -4.36709 -0.24581 0
M  V30 3598 C 341.385 -5.13376 -1.15463 0
M  V30 3599 O 340.411 -5.65683 -0.631803 0
M  V30 3600 N 341.613 -5.24656 -2.48427 0
M  V30 3601 H 344.378 -2.88047 0.827582 0
M  V30 3602 H 341.939 -1.50957 0.585112 0
M  V30 3603 H 343.931 -3.73657 -1.55443 0
M  V30 3604 H 342.501 -2.676 -1.61583 0
M  V30 3605 H 341.721 -3.9041 0.545286 0
M  V30 3606 H 343.009 -5.08244 0.237891 0
M  V30 3607 H 342.407 -4.83679 -2.93379 0
M  V30 3608 H 340.964 -5.76258 -3.04582 0
M  V30 3609 N 344.397 -0.483516 -1.5 0
M  V30 3610 C 345.344 0.304164 -2.28787 0
M  V30 3611 C 346.314 0.976114 -1.34392 0
M  V30 3612 O 347.499 0.986156 -1.63339 0
M  V30 3613 C 344.639 1.37298 -3.16612 0
M  V30 3614 C 343.752 0.714561 -4.26049 0
M  V30 3615 C 342.887 1.76232 -5.01114 0
M  V30 3616 C 341.926 1.08483 -6.0241 0
M  V30 3617 N 341.063 2.076 -6.70706 0
M  V30 3618 H 345.903 -0.373981 -2.95644 0
M  V30 3619 H 343.44 -0.196275 -1.45785 0
M  V30 3620 H 345.398 2.00445 -3.65893 0
M  V30 3621 H 344.028 2.02012 -2.51776 0
M  V30 3622 H 343.08 -0.0297798 -3.80388 0
M  V30 3623 H 344.392 0.180383 -4.98474 0
M  V30 3624 H 343.546 2.46929 -5.54176 0
M  V30 3625 H 342.285 2.33033 -4.28424 0
M  V30 3626 H 341.29 0.363545 -5.48597 0
M  V30 3627 H 342.515 0.523551 -6.77079 0
M  V30 3628 H 340.461 2.63394 -6.00799 0
M  V30 3629 H 340.378 1.59201 -7.39047 0
M  V30 3630 H 341.646 2.77639 -7.2838 0
M  V30 3631 N 345.875 1.56104 -0.216619 0
M  V30 3632 C 347.121 1.98466 0.417033 0
M  V30 3633 C 347.454 1.10403 1.59765 0
M  V30 3634 O 346.729 0.160632 1.93836 0
M  V30 3635 C 347.012 3.49769 0.85637 0
M  V30 3636 C 346.865 4.48606 -0.327546 0
M  V30 3637 C 348.184 4.05339 1.7143 0
M  V30 3638 H 345.303 0.721551 0.150112 0
M  V30 3639 H 347.945 1.87423 -0.311864 0
M  V30 3640 H 346.095 3.5931 1.47745 0
M  V30 3641 H 347.767 4.5108 -0.965618 0
M  V30 3642 H 346.01 4.22682 -0.975805 0
M  V30 3643 H 346.681 5.51995 0.0227149 0
M  V30 3644 H 349.157 3.98712 1.19031 0
M  V30 3645 H 348.033 5.11533 1.99061 0
M  V30 3646 H 348.294 3.51918 2.67593 0
M  V30 3647 N 347.353 -0.0568162 1.57498 0
M  V30 3648 C 348.601 -0.751617 1.87604 0
M  V30 3649 C 348.922 -1.77351 0.81066 0
M  V30 3650 O 348.192 -1.95254 -0.159018 0
M  V30 3651 H 346.772 -0.280583 0.692302 0
M  V30 3652 H 349.434 -0.0293483 1.94878 0
M  V30 3653 H 348.53 -1.25852 2.856 0
M  V30 3654 N 348.832 -1.54138 -0.328536 0
M  V30 3655 C 349.762 -1.86167 -1.40939 0
M  V30 3656 C 350.743 -0.718044 -1.54202 0
M  V30 3657 O 351.928 -0.971328 -1.68163 0
M  V30 3658 C 349.058 -2.08461 -2.77779 0
M  V30 3659 C 348.012 -3.24299 -2.7931 0
M  V30 3660 C 347.338 -3.31955 -4.19178 0
M  V30 3661 C 348.638 -4.62065 -2.43502 0
M  V30 3662 H 350.332 -2.76689 -1.14383 0
M  V30 3663 H 347.878 -1.33132 -0.548806 0
M  V30 3664 H 349.831 -2.29453 -3.53454 0
M  V30 3665 H 348.555 -1.14684 -3.05802 0
M  V30 3666 H 347.214 -3.03187 -2.0609 0
M  V30 3667 H 346.862 -2.35745 -4.44335 0
M  V30 3668 H 346.562 -4.09805 -4.2111 0
M  V30 3669 H 348.086 -3.55175 -4.96672 0
M  V30 3670 H 349.5 -4.8297 -3.08889 0
M  V30 3671 H 347.897 -5.42429 -2.56693 0
M  V30 3672 H 348.967 -4.64652 -1.38659 0
M  V30 3673 N 350.31 0.590341 -1.46126 0
M  V30 3674 C 351.559 1.34499 -1.50309 0
M  V30 3675 C 351.872 1.94977 -0.156021 0
M  V30 3676 O 353.078 2.71395 -0.0756037 0
M  V30 3677 C 351.534 2.43723 -2.64815 0
M  V30 3678 C 351.142 1.89582 -4.0591 0
M  V30 3679 C 352.886 3.20579 -2.78262 0
M  V30 3680 C 350.793 2.9639 -5.11769 0
M  V30 3681 H 349.723 0.505593 -0.559368 0
M  V30 3682 H 352.374 0.630848 -1.72315 0
M  V30 3683 H 350.756 3.17902 -2.36124 0
M  V30 3684 H 351.93 1.21997 -4.44357 0
M  V30 3685 H 350.245 1.25418 -3.97063 0
M  V30 3686 H 352.842 4.00276 -3.54519 0
M  V30 3687 H 353.185 3.72684 -1.85505 0
M  V30 3688 H 353.718 2.53505 -3.06562 0
M  V30 3689 H 350.457 2.49181 -6.06291 0
M  V30 3690 H 349.977 3.62487 -4.77873 0
M  V30 3691 H 351.656 3.60474 -5.37278 0
M  V30 3692 N 351.788 1.33704 0.83433 0
M  V30 3693 C 352.751 1.24244 1.92603 0
M  V30 3694 C 353.751 0.160383 1.59998 0
M  V30 3695 O 354.941 0.412228 1.69252 0
M  V30 3696 C 352.073 0.91555 3.28376 0
M  V30 3697 H 353.266 2.21287 2.02416 0
M  V30 3698 H 350.819 1.17827 1.02696 0
M  V30 3699 H 351.554 -0.0521886 3.24258 0
M  V30 3700 H 351.339 1.69811 3.53422 0
M  V30 3701 H 352.829 0.874231 4.08347 0
M  V30 3702 N 353.266 -1.05314 1.17247 0
M  V30 3703 C 354.229 -2.112 0.890357 0
M  V30 3704 C 355.229 -1.60359 -0.118943 0
M  V30 3705 O 356.419 -1.73833 0.113086 0
M  V30 3706 C 353.551 -3.39266 0.333422 0
M  V30 3707 H 354.744 -2.37659 1.82916 0
M  V30 3708 H 352.297 -1.21538 0.982758 0
M  V30 3709 H 353.032 -3.18462 -0.612587 0
M  V30 3710 H 352.817 -3.77477 1.06082 0
M  V30 3711 H 354.307 -4.17315 0.154322 0
M  V30 3712 N 354.744 -0.972509 -1.24016 0
M  V30 3713 C 356.16 -0.679827 -1.44397 0
M  V30 3714 C 356.36 0.756716 -1.86751 0
M  V30 3715 O 355.416 1.53007 -2.00861 0
M  V30 3716 C 356.729 -1.66803 -2.50195 0
M  V30 3717 C 358.277 -1.68119 -2.64017 0
M  V30 3718 C 358.752 -2.65748 -3.73017 0
M  V30 3719 N 360.243 -2.64219 -3.8045 0
M  V30 3720 C 360.978 -3.36433 -4.64328 0
M  V30 3721 N 360.474 -4.1818 -5.52356 0
M  V30 3722 N 362.267 -3.25235 -4.58453 0
M  V30 3723 H 354.418 -1.90059 -0.948228 0
M  V30 3724 H 356.681 -0.818527 -0.478245 0
M  V30 3725 H 356.387 -2.69498 -2.25973 0
M  V30 3726 H 356.261 -1.4446 -3.48441 0
M  V30 3727 H 358.648 -0.661319 -2.87594 0
M  V30 3728 H 358.729 -1.94525 -1.66113 0
M  V30 3729 H 358.373 -3.67872 -3.50189 0
M  V30 3730 H 358.303 -2.36619 -4.70446 0
M  V30 3731 H 360.794 -2.04887 -3.17537 0
M  V30 3732 H 361.107 -4.70157 -6.13329 0
M  V30 3733 H 359.452 -4.22273 -5.52006 0
M  V30 3734 H 362.643 -2.60829 -3.88698 0
M  V30 3735 H 362.816 -3.81776 -5.23594 0
M  V30 3736 N 356.222 1.38976 -0.743202 0
M  V30 3737 C 357.638 1.53984 -0.419664 0
M  V30 3738 C 357.838 1.70837 1.0685 0
M  V30 3739 O 356.894 1.7135 1.8546 0
M  V30 3740 C 358.207 2.75287 -1.20985 0
M  V30 3741 C 359.755 2.89129 -1.19889 0
M  V30 3742 C 360.23 4.13381 -1.97181 0
M  V30 3743 N 361.721 4.20437 -1.94389 0
M  V30 3744 C 362.456 5.15547 -2.50996 0
M  V30 3745 N 361.952 6.16395 -3.16274 0
M  V30 3746 N 363.745 5.07822 -2.40984 0
M  V30 3747 H 355.896 1.26285 -1.7078 0
M  V30 3748 H 358.159 0.612689 -0.723406 0
M  V30 3749 H 357.865 2.69204 -2.26323 0
M  V30 3750 H 357.739 3.68184 -0.819759 0
M  V30 3751 H 360.126 2.947 -0.153606 0
M  V30 3752 H 360.207 1.97272 -1.62841 0
M  V30 3753 H 359.851 4.08572 -3.01714 0
M  V30 3754 H 359.781 5.04298 -1.51629 0
M  V30 3755 H 362.272 3.48205 -1.46839 0
M  V30 3756 H 362.585 6.85443 -3.56915 0
M  V30 3757 H 360.93 6.16758 -3.20367 0
M  V30 3758 H 364.121 4.27973 -1.89622 0
M  V30 3759 H 364.294 5.81767 -2.85397 0
M  V30 3760 N 357.7 0.491464 1.49741 0
M  V30 3761 C 358.928 -0.0535151 2.06831 0
M  V30 3762 C 359.343 -1.31683 1.35296 0
M  V30 3763 O 358.7 -1.77402 0.42836 0
M  V30 3764 C 358.751 -0.320835 3.60073 0
M  V30 3765 O 358.472 0.892394 4.28915 0
M  V30 3766 C 359.973 -0.910519 4.33848 0
M  V30 3767 H 357.193 0.0161909 0.670805 0
M  V30 3768 H 359.737 0.68609 1.92647 0
M  V30 3769 H 357.892 -1.0104 3.73991 0
M  V30 3770 H 358.306 0.649401 5.20464 0
M  V30 3771 H 359.78 -1.04721 5.41976 0
M  V30 3772 H 360.257 -1.90589 3.95692 0
M  V30 3773 H 360.863 -0.258712 4.24512 0
M  V30 3774 N 359.178 -1.55987 0.224894 0
M  V30 3775 C 360.426 -1.97998 -0.405099 0
M  V30 3776 C 360.747 -1.11387 -1.60056 0
M  V30 3777 O 360.017 -0.191645 -1.9496 0
M  V30 3778 H 358.597 -0.731235 -0.152658 0
M  V30 3779 H 361.259 -1.92279 0.318567 0
M  V30 3780 H 360.355 -3.03463 -0.729167 0
M  V30 3781 N 360.656 0.0484629 -1.57525 0
M  V30 3782 C 361.586 1.0549 -2.08313 0
M  V30 3783 C 362.567 1.38929 -0.981463 0
M  V30 3784 O 363.752 1.48151 -1.25558 0
M  V30 3785 C 360.882 2.36162 -2.54646 0
M  V30 3786 C 359.836 2.17016 -3.68901 0
M  V30 3787 C 359.162 3.53278 -4.01371 0
M  V30 3788 C 360.462 1.57219 -4.98076 0
M  V30 3789 H 362.156 0.632195 -2.92649 0
M  V30 3790 H 359.702 0.302654 -1.40784 0
M  V30 3791 H 361.655 3.06882 -2.88793 0
M  V30 3792 H 360.379 2.80456 -1.67368 0
M  V30 3793 H 359.038 1.48733 -3.35073 0
M  V30 3794 H 358.686 3.95185 -3.11188 0
M  V30 3795 H 358.386 3.41299 -4.78318 0
M  V30 3796 H 359.91 4.25391 -4.38035 0
M  V30 3797 H 361.324 2.17832 -5.30304 0
M  V30 3798 H 359.721 1.55871 -5.79503 0
M  V30 3799 H 360.791 0.535956 -4.81929 0
M  V30 3800 N 362.134 1.5431 0.320358 0
M  V30 3801 C 363.064 1.86912 1.3995 0
M  V30 3802 C 364.045 0.726211 1.53819 0
M  V30 3803 O 365.23 0.980233 1.67646 0
M  V30 3804 C 362.36 2.09932 2.7667 0
M  V30 3805 C 361.314 3.25776 2.77586 0
M  V30 3806 C 360.64 3.34173 4.17412 0
M  V30 3807 C 361.94 4.6335 2.41048 0
M  V30 3808 H 363.634 2.77292 1.12914 0
M  V30 3809 H 361.18 1.33421 0.541738 0
M  V30 3810 H 363.133 2.31324 3.52232 0
M  V30 3811 H 361.857 1.16304 3.0519 0
M  V30 3812 H 360.516 3.04276 2.04479 0
M  V30 3813 H 360.164 2.38098 4.43078 0
M  V30 3814 H 359.864 4.12033 4.18931 0
M  V30 3815 H 361.388 3.57803 4.94782 0
M  V30 3816 H 362.802 4.84602 3.06324 0
M  V30 3817 H 361.199 5.43782 2.53813 0
M  V30 3818 H 362.269 4.65381 1.36193 0
M  V30 3819 N 363.613 -0.582584 1.46437 0
M  V30 3820 C 365.029 -0.905962 1.31394 0
M  V30 3821 C 365.229 -1.99468 0.285476 0
M  V30 3822 O 364.285 -2.50566 -0.311914 0
M  V30 3823 C 365.598 -1.3232 2.70022 0
M  V30 3824 C 367.146 -1.43604 2.78113 0
M  V30 3825 C 367.621 -1.88694 4.17323 0
M  V30 3826 N 369.112 -1.95887 4.19741 0
M  V30 3827 C 369.847 -2.32051 5.24347 0
M  V30 3828 N 369.343 -2.67006 6.39281 0
M  V30 3829 N 371.136 -2.32606 5.11713 0
M  V30 3830 H 363.287 0.1366 2.1196 0
M  V30 3831 H 365.55 -0.00155736 0.947999 0
M  V30 3832 H 365.256 -0.597242 3.46592 0
M  V30 3833 H 365.13 -2.28469 3.00136 0
M  V30 3834 H 367.517 -2.15286 2.01832 0
M  V30 3835 H 367.598 -0.457059 2.51684 0
M  V30 3836 H 367.242 -1.1759 4.941 0
M  V30 3837 H 367.172 -2.8755 4.4116 0
M  V30 3838 H 369.663 -1.71362 3.36814 0
M  V30 3839 H 369.976 -2.93554 7.14875 0
M  V30 3840 H 368.321 -2.64644 6.42642 0
M  V30 3841 H 371.512 -2.04721 4.2096 0
M  V30 3842 H 371.685 -2.60462 5.93349 0
M  V30 3843 N 365.091 -1.34144 -0.827227 0
M  V30 3844 C 366.339 -1.26009 -1.58007 0
M  V30 3845 C 366.66 0.170971 -1.94249 0
M  V30 3846 O 365.93 1.10256 -1.61927 0
M  V30 3847 H 364.51 -0.463414 -0.585881 0
M  V30 3848 H 367.172 -1.68005 -0.987951 0
M  V30 3849 H 366.268 -1.86187 -2.50481 0
M  V30 3850 N 366.569 1.04691 -1.17803 0
M  V30 3851 C 367.532 2.10724 -0.901545 0
M  V30 3852 C 368.532 1.6042 0.110437 0
M  V30 3853 O 369.722 1.7377 -0.122303 0
M  V30 3854 C 366.854 3.39084 -0.351409 0
M  V30 3855 H 368.047 2.36686 -1.84174 0
M  V30 3856 H 365.6 1.21015 -0.98919 0
M  V30 3857 H 366.335 3.18782 0.59569 0
M  V30 3858 H 366.12 3.76909 -1.08083 0
M  V30 3859 H 367.61 4.17227 -0.176451 0
M  V30 3860 N 368.047 0.979072 1.23499 0
M  V30 3861 C 368.994 0.517904 2.24914 0
M  V30 3862 C 369.964 -0.442525 1.60097 0
M  V30 3863 O 371.149 -0.350365 1.87556 0
M  V30 3864 C 368.289 -0.174813 3.44657 0
M  V30 3865 C 367.402 0.825721 4.24035 0
M  V30 3866 C 366.537 0.107946 5.3109 0
M  V30 3867 C 365.576 1.09778 6.02175 0
M  V30 3868 N 364.713 0.40925 7.00906 0
M  V30 3869 H 369.553 1.38751 2.63727 0
M  V30 3870 H 367.09 0.695303 1.2963 0
M  V30 3871 H 369.048 -0.593233 4.12961 0
M  V30 3872 H 367.678 -1.0083 3.06648 0
M  V30 3873 H 366.73 1.36253 3.55161 0
M  V30 3874 H 368.042 1.58005 4.73113 0
M  V30 3875 H 367.196 -0.367904 6.05583 0
M  V30 3876 H 365.935 -0.678994 4.8295 0
M  V30 3877 H 364.94 1.5844 5.26476 0
M  V30 3878 H 366.165 1.88536 6.52404 0
M  V30 3879 H 364.111 -0.358506 6.5502 0
M  V30 3880 H 364.028 1.10226 7.47921 0
M  V30 3881 H 365.296 -0.0442557 7.79487 0
M  V30 3882 N 369.525 -1.3858 0.750561 0
M  V30 3883 C 370.472 -2.30483 0.120835 0
M  V30 3884 C 371.442 -1.50022 -0.712923 0
M  V30 3885 O 372.627 -1.78662 -0.669676 0
M  V30 3886 C 369.767 -3.36431 -0.768666 0
M  V30 3887 C 368.88 -4.31927 0.0793922 0
M  V30 3888 C 368.015 -5.24944 -0.81283 0
M  V30 3889 C 367.054 -6.12088 0.0390447 0
M  V30 3890 N 366.191 -6.97412 -0.809969 0
M  V30 3891 H 371.031 -2.83761 0.91015 0
M  V30 3892 H 368.568 -1.39707 0.460463 0
M  V30 3893 H 370.526 -3.96462 -1.29898 0
M  V30 3894 H 369.156 -2.8457 -1.5238 0
M  V30 3895 H 368.208 -3.73382 0.727303 0
M  V30 3896 H 369.52 -4.93319 0.737401 0
M  V30 3897 H 368.674 -5.90078 -1.41042 0
M  V30 3898 H 367.413 -4.63911 -1.50458 0
M  V30 3899 H 366.418 -5.45952 0.649328 0
M  V30 3900 H 367.643 -6.75189 0.727809 0
M  V30 3901 H 365.589 -6.38931 -1.48672 0
M  V30 3902 H 365.506 -7.55712 -0.208789 0
M  V30 3903 H 366.774 -7.66959 -1.39263 0
M  V30 3904 N 371.003 -0.499398 -1.49478 0
M  V30 3905 C 372.231 0.0425456 -2.06856 0
M  V30 3906 C 372.646 1.30964 -1.35992 0
M  V30 3907 O 372.003 1.77172 -0.437762 0
M  V30 3908 C 372.054 0.301735 -3.60239 0
M  V30 3909 O 371.775 -0.915127 -4.28436 0
M  V30 3910 C 373.276 0.887499 -4.34325 0
M  V30 3911 H 370.496 -0.0197482 -0.670709 0
M  V30 3912 H 373.04 -0.696297 -1.92281 0
M  V30 3913 H 371.195 0.990556 -3.74522 0
M  V30 3914 H 371.609 -0.676993 -5.20113 0
M  V30 3915 H 373.083 1.01845 -5.42523 0
M  V30 3916 H 373.56 1.88488 -3.96698 0
M  V30 3917 H 374.166 0.236196 -4.24644 0
M  V30 3918 N 372.481 1.55866 -0.233164 0
M  V30 3919 C 373.428 2.20796 0.67215 0
M  V30 3920 C 374.398 1.16731 1.18166 0
M  V30 3921 O 375.583 1.45129 1.23864 0
M  V30 3922 C 372.723 2.90072 1.86955 0
M  V30 3923 C 371.836 4.08759 1.39786 0
M  V30 3924 C 370.971 4.65787 2.55374 0
M  V30 3925 C 370.01 5.76752 2.04998 0
M  V30 3926 N 369.147 6.28021 3.13901 0
M  V30 3927 H 373.987 2.9779 0.111749 0
M  V30 3928 H 371.524 1.47036 0.0434007 0
M  V30 3929 H 373.482 3.28428 2.57276 0
M  V30 3930 H 372.112 2.15575 2.40265 0
M  V30 3931 H 371.164 3.7581 0.589173 0
M  V30 3932 H 372.476 4.88906 0.98856 0
M  V30 3933 H 371.63 5.06646 3.33758 0
M  V30 3934 H 370.369 3.84828 2.99598 0
M  V30 3935 H 369.374 5.35383 1.25079 0
M  V30 3936 H 370.599 6.59553 1.61759 0
M  V30 3937 H 368.545 5.49971 3.57586 0
M  V30 3938 H 368.462 7.03323 2.7726 0
M  V30 3939 H 369.73 6.73538 3.92386 0
M  V30 3940 N 373.959 -0.0401083 1.57549 0
M  V30 3941 C 374.889 -1.04384 2.08869 0
M  V30 3942 C 375.87 -1.38407 0.988817 0
M  V30 3943 O 377.055 -1.47483 1.26342 0
M  V30 3944 C 374.185 -2.34808 2.55895 0
M  V30 3945 C 373.139 -2.15057 3.70047 0
M  V30 3946 C 372.465 -3.51145 4.03239 0
M  V30 3947 C 373.765 -1.54576 4.98902 0
M  V30 3948 H 375.459 -0.616666 2.92981 0
M  V30 3949 H 373.005 -0.295184 1.40942 0
M  V30 3950 H 374.958 -3.05346 2.90417 0
M  V30 3951 H 373.682 -2.79565 1.68853 0
M  V30 3952 H 372.341 -1.46954 3.35857 0
M  V30 3953 H 371.989 -3.93529 3.13279 0
M  V30 3954 H 371.689 -3.38758 4.80122 0
M  V30 3955 H 373.213 -4.23062 4.40285 0
M  V30 3956 H 374.627 -2.15017 5.31451 0
M  V30 3957 H 373.024 -1.52796 5.80322 0
M  V30 3958 H 374.094 -0.51039 4.82206 0
M  V30 3959 N 375.437 -1.54477 -0.31217 0
M  V30 3960 C 376.683 -1.73483 -1.0503 0
M  V30 3961 C 377.016 -0.513125 -1.87298 0
M  V30 3962 O 376.291 0.489864 -1.8823 0
M  V30 3963 C 376.574 -3.01723 -1.96558 0
M  V30 3964 C 376.427 -4.3417 -1.17545 0
M  V30 3965 C 377.746 -3.25772 -2.95907 0
M  V30 3966 H 374.865 -0.631222 -0.380432 0
M  V30 3967 H 377.507 -1.87184 -0.325932 0
M  V30 3968 H 375.657 -2.90174 -2.58324 0
M  V30 3969 H 377.329 -4.5762 -0.581513 0
M  V30 3970 H 375.572 -4.31159 -0.477925 0
M  V30 3971 H 376.243 -5.20143 -1.84811 0
M  V30 3972 H 378.719 -3.36857 -2.44267 0
M  V30 3973 H 377.595 -4.16838 -3.57123 0
M  V30 3974 H 377.856 -2.43537 -3.68974 0
M  V30 3975 N 376.915 0.57481 -1.46744 0
M  V30 3976 C 378.163 1.33009 -1.52161 0
M  V30 3977 C 378.484 1.94185 -0.178092 0
M  V30 3978 O 377.754 1.7899 0.796196 0
M  V30 3979 H 376.334 0.493873 -0.560445 0
M  V30 3980 H 378.996 0.672589 -1.82927 0
M  V30 3981 H 378.092 2.13273 -2.27862 0
M  V30 3982 N 378.394 1.34581 0.820102 0
M  V30 3983 C 379.341 1.2639 1.93117 0
M  V30 3984 C 380.311 0.138554 1.65521 0
M  V30 3985 O 381.496 0.320004 1.88097 0
M  V30 3986 C 378.636 1.02812 3.29429 0
M  V30 3987 C 377.749 2.24146 3.693 0
M  V30 3988 C 376.884 1.93829 4.94574 0
M  V30 3989 C 375.923 3.1129 5.27034 0
M  V30 3990 N 375.06 2.80838 6.43486 0
M  V30 3991 H 379.9 2.21408 1.99455 0
M  V30 3992 H 377.437 1.10077 0.975784 0
M  V30 3993 H 379.395 0.871788 4.0799 0
M  V30 3994 H 378.025 0.114612 3.22596 0
M  V30 3995 H 377.077 2.50691 2.86109 0
M  V30 3996 H 378.389 3.11899 3.89257 0
M  V30 3997 H 377.543 1.74948 5.80929 0
M  V30 3998 H 376.282 1.03341 4.76626 0
M  V30 3999 H 375.287 3.30764 4.39175 0
M  V30 4000 H 376.512 4.02561 5.4692 0
M  V30 4001 H 374.458 1.92929 6.26988 0
M  V30 4002 H 374.375 3.62123 6.63629 0
M  V30 4003 H 375.643 2.65467 7.32903 0
M  V30 4004 N 379.872 -1.04064 1.18357 0
M  V30 4005 C 381.097 -1.81454 1.00445 0
M  V30 4006 C 381.522 -1.82823 -0.442423 0
M  V30 4007 O 380.88 -1.24555 -1.31741 0
M  V30 4008 C 380.928 -3.24925 1.56384 0
M  V30 4009 O 380.032 -4.04856 0.785209 0
M  V30 4010 H 379.373 -0.560604 0.355835 0
M  V30 4011 H 381.903 -1.31059 1.57114 0
M  V30 4012 H 381.913 -3.75702 1.59097 0
M  V30 4013 H 380.588 -3.23244 2.61699 0
M  V30 4014 H 379.165 -3.63537 0.830399 0
M  V30 4015 N 381.35 -0.985608 -1.22978 0
M  V30 4016 C 382.26 -0.538548 -2.28335 0
M  V30 4017 C 383.276 0.409163 -1.69121 0
M  V30 4018 O 384.452 0.277797 -1.99475 0
M  V30 4019 C 381.517 0.146867 -3.46389 0
M  V30 4020 C 380.578 -0.842896 -4.20944 0
M  V30 4021 C 379.811 -0.190095 -5.33361 0
M  V30 4022 O 380.034 1.01767 -5.61248 0
M  V30 4023 O 378.968 -0.891289 -5.95264 0
M  V30 4024 H 382.794 -1.41487 -2.68729 0
M  V30 4025 H 380.379 -0.753495 -1.29007 0
M  V30 4026 H 382.261 0.531125 -4.1804 0
M  V30 4027 H 380.936 0.997871 -3.07935 0
M  V30 4028 H 379.843 -1.27795 -3.51595 0
M  V30 4029 H 381.176 -1.66287 -4.6326 0
M  V30 4030 N 382.828 1.3818 -0.7579 0
M  V30 4031 C 383.738 2.3421 -0.135247 0
M  V30 4032 C 384.754 1.59487 0.695683 0
M  V30 4033 O 385.93 1.91657 0.618832 0
M  V30 4034 C 382.995 3.3862 0.744139 0
M  V30 4035 C 382.056 4.2918 -0.101658 0
M  V30 4036 C 381.289 5.28603 0.735851 0
M  V30 4037 O 381.512 5.35166 1.97366 0
M  V30 4038 O 380.446 6.01707 0.152372 0
M  V30 4039 H 384.272 2.8916 -0.928436 0
M  V30 4040 H 381.857 1.40101 -0.518855 0
M  V30 4041 H 383.739 4.02539 1.2466 0
M  V30 4042 H 382.414 2.86019 1.51575 0
M  V30 4043 H 381.321 3.68407 -0.650167 0
M  V30 4044 H 382.654 4.85048 -0.836024 0
M  V30 4045 O 384.345 0.648902 1.4789 0
M  V30 4046 H 385.036 0.173089 1.92925 0
M  V30 END ATOM
M  V30 BEGIN BOND
M  V30 END BOND
M  V30 END CTAB
M  END
$$$$
