drugbank_target|Q8I492 Mature parasite-infected erythrocyte surface antigen (DB11638)
 OpenBabel12092121103D

  0  0  0     0  0            999 V3000
M  V30 BEGIN CTAB
M  V30 COUNTS 23365 23437 0 0 0
M  V30 BEGIN ATOM
M  V30 1 H -0.908 1.98254 -0.117106 0
M  V30 2 N 0 1.576 0 0
M  V30 3 C 0.933 2.03868 1.02534 0
M  V30 4 C 1.911 0.928543 1.3348 0
M  V30 5 O 3.095 1.19667 1.45644 0
M  V30 6 C 0.222 2.43627 2.35294 0
M  V30 7 C -0.732 3.65373 2.2001 0
M  V30 8 S 0.101 5.13292 1.52614 0
M  V30 9 C 1.257 5.56322 2.86805 0
M  V30 10 H 1.49 2.90518 0.631377 0
M  V30 11 H -0.977 1.52953 0.210867 0
M  V30 12 H 0.981 2.67203 3.11629 0
M  V30 13 H -0.358 1.57376 2.7183 0
M  V30 14 H -1.165 3.90944 3.18086 0
M  V30 15 H -1.563 3.418 1.51819 0
M  V30 16 H 0.729 5.58782 3.83104 0
M  V30 17 H 1.672 6.56266 2.65933 0
M  V30 18 H 2.08 4.83886 2.90714 0
M  V30 19 N 1.4781 -0.272755 1.55222 0
M  V30 20 C 2.3881 -1.35918 1.91216 0
M  V30 21 C 3.4041 -1.54026 0.809436 0
M  V30 22 O 4.5801 -1.68148 1.10852 0
M  V30 23 C 1.6451 -2.69834 2.17693 0
M  V30 24 C 0.7061 -2.6047 3.41253 0
M  V30 25 C -0.0609 -3.88 3.66458 0
M  V30 26 O 0.1621 -4.88693 2.94169 0
M  V30 27 O -0.9039 -3.88189 4.59992 0
M  V30 28 H 2.9221 -1.0839 2.83699 0
M  V30 29 H 0.5071 -0.471301 1.41771 0
M  V30 30 H 2.3891 -3.49017 2.36147 0
M  V30 31 H 1.0641 -2.97148 1.28392 0
M  V30 32 H -0.0289 -1.79663 3.28134 0
M  V30 33 H 1.3041 -2.38106 4.30774 0
M  V30 34 N 2.9562 -1.48159 -0.537278 0
M  V30 35 C 4.2022 -1.56035 -1.29541 0
M  V30 36 C 4.5352 -0.230377 -1.92829 0
M  V30 37 O 3.8102 0.762952 -1.78911 0
M  V30 38 C 4.0932 -2.69323 -2.39034 0
M  V30 39 C 3.9462 -4.12002 -1.80485 0
M  V30 40 C 5.2652 -2.78408 -3.40847 0
M  V30 41 H 2.3842 -0.567992 -0.469632 0
M  V30 42 H 5.0262 -1.80302 -0.599277 0
M  V30 43 H 3.1762 -2.48763 -2.98412 0
M  V30 44 H 4.8482 -4.43981 -1.25215 0
M  V30 45 H 3.0912 -4.19344 -1.11055 0
M  V30 46 H 3.7622 -4.87077 -2.59731 0
M  V30 47 H 6.2382 -2.97012 -2.91416 0
M  V30 48 H 5.1142 -3.59416 -4.14863 0
M  V30 49 H 5.3752 -1.86269 -4.00944 0
M  V30 50 N 4.4343 0.785586 -1.36625 0
M  V30 51 C 5.6833 1.53883 -1.30396 0
M  V30 52 C 5.9963 1.95271 0.113452 0
M  V30 53 O 7.2023 2.69858 0.298142 0
M  V30 54 C 5.6583 2.77808 -2.28802 0
M  V30 55 C 5.2663 2.43574 -3.75999 0
M  V30 56 C 7.0103 3.55783 -2.31558 0
M  V30 57 C 4.9173 3.63919 -4.66173 0
M  V30 58 H 3.8473 0.577678 -0.484566 0
M  V30 59 H 6.4983 0.861705 -1.62009 0
M  V30 60 H 4.8803 3.47339 -1.90188 0
M  V30 61 H 6.0543 1.81916 -4.23371 0
M  V30 62 H 4.3693 1.78803 -3.76056 0
M  V30 63 H 6.9663 4.45205 -2.96137 0
M  V30 64 H 7.3093 3.94644 -1.3252 0
M  V30 65 H 7.8423 2.93235 -2.68809 0
M  V30 66 H 4.5813 3.3015 -5.66287 0
M  V30 67 H 4.1013 4.2473 -4.23515 0
M  V30 68 H 5.7803 4.30901 -4.82632 0
M  V30 69 N 5.9124 1.20967 1.01018 0
M  V30 70 C 7.1524 1.03511 1.76252 0
M  V30 71 C 7.5164 -0.42458 1.87247 0
M  V30 72 O 8.7174 -0.719508 2.58991 0
M  V30 73 C 6.9884 1.70726 3.13986 0
M  V30 74 S 8.5474 1.68458 4.05176 0
M  V30 75 H 5.3654 0.371037 0.606508 0
M  V30 76 H 7.9674 1.53628 1.20908 0
M  V30 77 H 6.6714 2.76128 3.03614 0
M  V30 78 H 6.2024 1.20767 3.74405 0
M  V30 79 H 8.2174 0.721987 4.90919 0
M  V30 80 N 7.3905 -1.2043 1.01659 0
M  V30 81 C 8.8065 -1.41852 0.731442 0
M  V30 82 C 9.0065 -1.89358 -0.688898 0
M  V30 83 O 8.0625 -2.06247 -1.45666 0
M  V30 84 C 9.3755 -2.44019 1.75714 0
M  V30 85 C 10.9235 -2.57785 1.77527 0
M  V30 86 C 11.3985 -3.63194 2.79023 0
M  V30 87 N 12.8895 -3.70678 2.77763 0
M  V30 88 C 13.6245 -4.51897 3.52954 0
M  V30 89 N 13.1205 -5.36921 4.37821 0
M  V30 90 N 14.9135 -4.4643 3.41551 0
M  V30 91 H 7.0645 -0.879093 1.93354 0
M  V30 92 H 9.3275 -0.448425 0.835236 0
M  V30 93 H 9.0335 -2.1611 2.77469 0
M  V30 94 H 8.9075 -3.43007 1.56927 0
M  V30 95 H 11.2945 -2.85023 0.764569 0
M  V30 96 H 11.3755 -1.58992 2.00387 0
M  V30 97 H 11.0195 -3.36699 3.80258 0
M  V30 98 H 10.9495 -4.61609 2.53425 0
M  V30 99 H 13.4405 -3.09944 2.16201 0
M  V30 100 H 13.7535 -5.95981 4.91962 0
M  V30 101 H 12.0985 -5.36424 4.41899 0
M  V30 102 H 15.2895 -3.79042 2.74672 0
M  V30 103 H 15.4625 -5.09491 4.00404 0
M  V30 104 N 8.8686 -0.792821 -1.36206 0
M  V30 105 C 9.8166 -0.181555 -2.3189 0
M  V30 106 C 10.8106 0.661025 -1.55971 0
M  V30 107 O 12.0166 0.555728 -1.71206 0
M  V30 108 H 8.3916 -0.0399382 -0.750939 0
M  V30 109 H 10.3626 -1.00394 -2.81005 0
M  V30 110 C 9.1116 0.666444 -3.41253 0
M  V30 111 H 8.4346 0.0274489 -3.99791 0
M  V30 112 H 9.8746 1.06076 -4.10517 0
M  V30 113 C 8.3336 1.82614 -2.83114 0
M  V30 114 O 8.8636 2.9229 -2.75553 0
M  V30 115 N 7.0696 1.63333 -2.40356 0
M  V30 116 H 6.6166 0.741217 -2.46706 0
M  V30 117 H 6.5746 2.41087 -2.01803 0
M  V30 118 N 10.3467 1.47872 -0.545128 0
M  V30 119 C 11.2767 2.32661 0.197793 0
M  V30 120 C 12.2577 1.43041 0.920504 0
M  V30 121 O 13.4427 1.71912 0.90333 0
M  V30 122 C 10.5727 3.24569 1.23582 0
M  V30 123 C 9.5267 4.23333 0.630323 0
M  V30 124 C 8.8527 5.0448 1.77211 0
M  V30 125 C 10.1527 5.20704 -0.407974 0
M  V30 126 H 11.8467 2.95024 -0.510045 0
M  V30 127 H 9.3927 1.4187 -0.246731 0
M  V30 128 H 11.3457 3.8272 1.76362 0
M  V30 129 H 10.0697 2.60236 1.97344 0
M  V30 130 H 8.7287 3.6639 0.123922 0
M  V30 131 H 8.3767 4.36561 2.49847 0
M  V30 132 H 8.0767 5.71339 1.37281 0
M  V30 133 H 9.6007 5.65487 2.3034 0
M  V30 134 H 11.0147 5.7329 0.033305 0
M  V30 135 H 9.4117 5.95699 -0.725486 0
M  V30 136 H 10.4817 4.66917 -1.30828 0
M  V30 137 N 11.8248 0.280983 1.55075 0
M  V30 138 C 13.0648 -0.335234 2.01632 0
M  V30 139 C 13.4288 -1.5261 1.16508 0
M  V30 140 O 14.6298 -2.21235 1.52672 0
M  V30 141 C 12.9008 -0.702172 3.50434 0
M  V30 142 S 14.4598 -1.30409 4.18974 0
M  V30 143 H 11.2778 -0.103967 0.703358 0
M  V30 144 H 13.8798 0.404187 1.91276 0
M  V30 145 H 12.5838 0.17333 4.10034 0
M  V30 146 H 12.1148 -1.4729 3.64786 0
M  V30 147 H 14.1298 -2.59253 4.23087 0
M  V30 148 N 13.3029 -1.57598 0.00835791 0
M  V30 149 C 14.5329 -1.94931 -0.684496 0
M  V30 150 C 14.9409 -0.882233 -1.67372 0
M  V30 151 O 14.2839 0.146621 -1.83114 0
M  V30 152 C 14.3459 -3.283 -1.4649 0
M  V30 153 C 14.0099 -4.52548 -0.63634 0
M  V30 154 C 15.0069 -5.19839 0.0795586 0
M  V30 155 C 12.6919 -4.98942 -0.579849 0
M  V30 156 C 14.6859 -6.3183 0.840843 0
M  V30 157 C 12.3729 -6.10819 0.185155 0
M  V30 158 C 13.3709 -6.77121 0.894227 0
M  V30 159 O 13.0589 -7.86853 1.64673 0
M  V30 160 H 12.7909 -0.647249 -0.19505 0
M  V30 161 H 15.3449 -2.05318 0.0581272 0
M  V30 162 H 13.5749 -3.14345 -2.2522 0
M  V30 163 H 15.2639 -3.50685 -2.04389 0
M  V30 164 H 16.0299 -4.84979 0.0451202 0
M  V30 165 H 11.9089 -4.47155 -1.1213 0
M  V30 166 H 15.4529 -6.83513 1.39483 0
M  V30 167 H 11.3499 -6.4512 0.221384 0
M  V30 168 H 12.1179 -8.03412 1.56432 0
M  V30 169 N 14.781 0.264519 -1.55364 0
M  V30 170 C 16.058 1.01677 -1.67096 0
M  V30 171 C 16.438 2.03996 -0.543015 0
M  V30 172 O 15.786 2.23907 0.45585 0
M  V30 173 C 15.996 1.66596 -3.0667 0
M  V30 174 C 17.344 2.17442 -3.64697 0
M  V30 175 O 18.368 1.76568 -3.09358 0
M  V30 176 O 17.227 2.92439 -4.61673 0
M  V30 177 H 14.321 0.472161 -0.678965 0
M  V30 178 H 16.867 0.259703 -1.67701 0
M  V30 179 H 15.639 0.924962 -3.80211 0
M  V30 180 H 15.262 2.48968 -3.10001 0
M  V30 181 N 16.2591 1.48442 0.529413 0
M  V30 182 C 17.2061 1.63007 1.63394 0
M  V30 183 C 18.1761 0.47212 1.59249 0
M  V30 184 O 19.3611 0.695673 1.77666 0
M  V30 185 C 16.5011 1.6763 3.01653 0
M  V30 186 C 15.6141 2.94535 3.16027 0
M  V30 187 C 14.7491 2.90316 4.44849 0
M  V30 188 C 13.7881 4.11923 4.52754 0
M  V30 189 N 12.9251 4.05777 5.72965 0
M  V30 190 H 17.7651 2.5733 1.50285 0
M  V30 191 H 15.3021 1.27613 0.731656 0
M  V30 192 H 17.2601 1.68292 3.81751 0
M  V30 193 H 15.8901 0.76797 3.13532 0
M  V30 194 H 14.9421 3.03615 2.29177 0
M  V30 195 H 16.2541 3.84512 3.17729 0
M  V30 196 H 15.4081 2.89382 5.33238 0
M  V30 197 H 14.1471 1.98068 4.45668 0
M  V30 198 H 13.1521 4.13131 3.62771 0
M  V30 199 H 14.3771 5.0533 4.53672 0
M  V30 200 H 12.3231 3.16351 5.74681 0
M  V30 201 H 12.2401 4.8946 5.76164 0
M  V30 202 H 13.5081 4.08904 6.6364 0
M  V30 203 N 17.7372 -0.778329 1.37039 0
M  V30 204 C 18.6842 -1.89139 1.32269 0
M  V30 205 C 19.6542 -1.65017 0.189387 0
M  V30 206 O 20.8392 -1.87024 0.377693 0
M  V30 207 C 17.9792 -3.26112 1.12894 0
M  V30 208 C 17.0922 -3.62233 2.35396 0
M  V30 209 C 16.2272 -4.8838 2.08946 0
M  V30 210 C 15.2662 -5.17212 3.2735 0
M  V30 211 N 14.4032 -6.34546 3.00492 0
M  V30 212 H 19.2432 -1.92552 2.27437 0
M  V30 213 H 16.7802 -0.941473 1.13025 0
M  V30 214 H 18.7382 -4.05116 0.996835 0
M  V30 215 H 17.3682 -3.22091 0.213758 0
M  V30 216 H 16.4202 -2.78265 2.5937 0
M  V30 217 H 17.7322 -3.79481 3.23721 0
M  V30 218 H 16.8862 -5.75274 1.92729 0
M  V30 219 H 15.6252 -4.73222 1.17949 0
M  V30 220 H 14.6302 -4.28796 3.44113 0
M  V30 221 H 15.8552 -5.34283 4.19188 0
M  V30 222 H 13.8012 -6.20759 2.12118 0
M  V30 223 H 13.7182 -6.52179 3.82358 0
M  V30 224 H 14.9862 -7.24394 2.87879 0
M  V30 225 N 19.2153 -1.21501 -1.00376 0
M  V30 226 C 20.1633 -0.972442 -2.11297 0
M  V30 227 C 21.1573 0.080731 -1.69208 0
M  V30 228 O 22.3633 -0.0707666 -1.79861 0
M  V30 229 H 18.7383 -0.297218 -0.690772 0
M  V30 230 H 20.7093 -1.91394 -2.28934 0
M  V30 231 C 19.4583 -0.555065 -3.43241 0
M  V30 232 H 18.7813 -1.35709 -3.76062 0
M  V30 233 H 20.2213 -0.424664 -4.21868 0
M  V30 234 C 18.6803 0.734147 -3.28804 0
M  V30 235 O 19.2103 1.78937 -3.59645 0
M  V30 236 N 17.4163 0.701133 -2.82015 0
M  V30 237 H 16.9633 -0.157874 -2.57116 0
M  V30 238 H 16.9213 1.56403 -2.72737 0
M  V30 239 N 20.6934 1.19889 -1.02296 0
M  V30 240 C 21.6414 2.24938 -0.592081 0
M  V30 241 C 22.6354 1.65257 0.372357 0
M  V30 242 O 23.8414 1.78371 0.241583 0
M  V30 243 H 20.2164 0.731787 -0.173182 0
M  V30 244 H 22.1874 2.58603 -1.48885 0
M  V30 245 C 20.9364 3.47668 0.047351 0
M  V30 246 H 20.2594 3.93875 -0.685772 0
M  V30 247 H 21.6994 4.22852 0.311862 0
M  V30 248 C 20.1584 3.11136 1.29212 0
M  V30 249 O 20.6884 3.2325 2.38479 0
M  V30 250 N 18.8944 2.65625 1.17863 0
M  V30 251 H 18.4414 2.55968 0.289493 0
M  V30 252 H 18.3994 2.41553 2.01245 0
M  V30 253 N 22.1715 0.800033 1.35784 0
M  V30 254 C 23.1045 0.151499 2.27697 0
M  V30 255 C 24.0825 -0.678663 1.4776 0
M  V30 256 O 25.2665 -0.647358 1.77035 0
M  V30 257 C 22.3935 -0.790492 3.29346 0
M  V30 258 C 21.4395 -0.0407832 4.26481 0
M  V30 259 S 22.2725 1.29077 5.19711 0
M  V30 260 C 23.4285 0.353055 6.24903 0
M  V30 261 H 23.6615 0.930796 2.82353 0
M  V30 262 H 21.1945 0.594767 1.42485 0
M  V30 263 H 23.1525 -1.3285 3.88409 0
M  V30 264 H 21.8135 -1.54312 2.73581 0
M  V30 265 H 21.0065 -0.755971 4.98298 0
M  V30 266 H 20.6085 0.427063 3.71554 0
M  V30 267 H 22.9005 -0.464147 6.75908 0
M  V30 268 H 23.8435 1.04023 7.00418 0
M  V30 269 H 24.2515 -0.0483344 5.64479 0
M  V30 270 N 23.6496 -1.47581 0.552962 0
M  V30 271 C 24.5826 -2.26883 -0.244857 0
M  V30 272 C 25.5606 -1.33784 -0.924147 0
M  V30 273 O 26.7446 -1.6316 -0.943981 0
M  V30 274 C 23.8716 -3.10695 -1.34856 0
M  V30 275 C 22.9176 -4.19339 -0.778268 0
M  V30 276 S 23.7506 -5.34207 0.37184 0
M  V30 277 C 24.9066 -6.21584 -0.733779 0
M  V30 278 H 25.1396 -2.94202 0.428087 0
M  V30 279 H 22.6726 -1.50628 0.339197 0
M  V30 280 H 24.6306 -3.59555 -1.98066 0
M  V30 281 H 23.2916 -2.42746 -1.99332 0
M  V30 282 H 22.4846 -4.77695 -1.60696 0
M  V30 283 H 22.0866 -3.73338 -0.222422 0
M  V30 284 H 24.3786 -6.57676 -1.62692 0
M  V30 285 H 25.3216 -7.07851 -0.187668 0
M  V30 286 H 25.7296 -5.55125 -1.02454 0
M  V30 287 N 25.1277 -0.289203 -1.54924 0
M  V30 288 C 26.0377 0.601863 -2.26748 0
M  V30 289 C 27.0537 1.15834 -1.2984 0
M  V30 290 O 28.2297 1.18564 -1.62802 0
M  V30 291 C 25.2947 1.76299 -2.98529 0
M  V30 292 C 24.3557 1.24178 -4.10948 0
M  V30 293 C 23.5887 2.34757 -4.79296 0
M  V30 294 O 23.8117 3.54411 -4.46933 0
M  V30 295 O 22.7457 2.02115 -5.66951 0
M  V30 296 H 26.5717 0.0195879 -3.03694 0
M  V30 297 H 24.1567 -0.0560868 -1.49295 0
M  V30 298 H 26.0387 2.43973 -3.43592 0
M  V30 299 H 24.7137 2.33209 -2.24488 0
M  V30 300 H 23.6207 0.531104 -3.70311 0
M  V30 301 H 24.9537 0.718252 -4.86931 0
M  V30 302 N 26.6058 1.57591 -0.0167156 0
M  V30 303 C 27.5538 2.10604 0.987353 0
M  V30 304 C 28.5478 1.02977 1.34507 0
M  V30 305 O 29.7538 1.21425 1.32875 0
M  V30 306 H 26.1288 0.672695 0.336134 0
M  V30 307 H 28.0998 2.93925 0.514817 0
M  V30 308 C 26.8488 2.6382 2.26483 0
M  V30 309 H 26.1718 3.46278 1.99829 0
M  V30 310 H 27.6118 3.04573 2.94977 0
M  V30 311 C 26.0708 1.55992 2.9861 0
M  V30 312 O 26.6008 0.952521 3.90243 0
M  V30 313 N 24.8068 1.28335 2.60727 0
M  V30 314 H 24.3538 1.77914 1.86291 0
M  V30 315 H 24.3118 0.564115 3.09298 0
M  V30 316 N 28.0839 -0.256276 1.55502 0
M  V30 317 C 28.9939 -1.33882 1.92647 0
M  V30 318 C 30.0099 -1.53159 0.825727 0
M  V30 319 O 31.1859 -1.66963 1.12629 0
M  V30 320 C 28.2509 -2.6751 2.20543 0
M  V30 321 C 27.3119 -2.56836 3.43997 0
M  V30 322 C 26.5449 -3.84092 3.70553 0
M  V30 323 O 26.7679 -4.85545 2.99336 0
M  V30 324 O 25.7019 -3.83288 4.64084 0
M  V30 325 H 29.5279 -1.05374 2.84833 0
M  V30 326 H 27.1129 -0.456237 1.42263 0
M  V30 327 H 28.9949 -3.46492 2.39835 0
M  V30 328 H 27.6699 -2.9577 1.31536 0
M  V30 329 H 26.5769 -1.76172 3.30021 0
M  V30 330 H 27.9099 -2.33523 4.33275 0
M  V30 331 N 29.562 -1.4872 -0.521534 0
M  V30 332 C 30.81 -1.56857 -1.27437 0
M  V30 333 C 31.131 -0.247982 -1.93417 0
M  V30 334 O 30.401 0.731151 -1.81744 0
M  V30 335 H 28.981 -0.577885 -0.473347 0
M  V30 336 H 31.643 -1.85233 -0.606205 0
M  V30 337 H 30.739 -2.35402 -2.0492 0
M  V30 338 N 31.0401 0.771051 -1.3745 0
M  V30 339 C 31.9881 1.90574 -1.33358 0
M  V30 340 C 32.9821 1.67936 -0.22224 0
M  V30 341 O 34.1881 1.75717 -0.390304 0
M  V30 342 H 30.5631 0.626714 -0.415612 0
M  V30 343 H 32.5341 1.91142 -2.29144 0
M  V30 344 C 31.2831 3.27845 -1.15813 0
M  V30 345 H 30.6061 3.45842 -2.00583 0
M  V30 346 H 32.0461 4.07538 -1.17 0
M  V30 347 C 30.5051 3.36625 0.136165 0
M  V30 348 O 31.0351 3.85785 1.11949 0
M  V30 349 N 29.2411 2.89997 0.187099 0
M  V30 350 H 28.7881 2.50182 -0.613753 0
M  V30 351 H 28.7461 2.96252 1.05272 0
M  V30 352 N 32.5182 1.22032 0.997298 0
M  V30 353 C 33.4652 0.986467 2.08656 0
M  V30 354 C 34.4352 -0.0902671 1.65855 0
M  V30 355 O 35.6202 0.0584294 1.90711 0
M  V30 356 C 32.7602 0.565569 3.40434 0
M  V30 357 C 31.8732 1.71259 3.96604 0
M  V30 358 C 31.0082 1.24011 5.16522 0
M  V30 359 C 30.0472 2.35896 5.64818 0
M  V30 360 N 29.1842 1.89726 6.7598 0
M  V30 361 H 34.0242 1.91892 2.27994 0
M  V30 362 H 31.5612 0.956199 1.11782 0
M  V30 363 H 33.5192 0.302738 4.161 0
M  V30 364 H 32.1492 -0.329879 3.2111 0
M  V30 365 H 31.2012 2.08986 3.17851 0
M  V30 366 H 32.5132 2.55436 4.28432 0
M  V30 367 H 31.6672 0.934395 5.99461 0
M  V30 368 H 30.4062 0.368487 4.86306 0
M  V30 369 H 29.4112 2.67261 4.8047 0
M  V30 370 H 30.6362 3.23567 5.97061 0
M  V30 371 H 28.5822 1.0492 6.47555 0
M  V30 372 H 28.4992 2.67471 7.07103 0
M  V30 373 H 29.7672 1.62211 7.62435 0
M  V30 374 N 33.9963 -1.19345 1.0293 0
M  V30 375 C 35.2423 -1.89318 0.727083 0
M  V30 376 C 35.5753 -1.79446 -0.742483 0
M  V30 377 O 34.8503 -1.1871 -1.54072 0
M  V30 378 C 35.1333 -3.40238 1.17942 0
M  V30 379 C 34.9863 -3.58979 2.71024 0
M  V30 380 C 36.3053 -4.33479 0.760548 0
M  V30 381 H 33.4243 -0.687475 0.265606 0
M  V30 382 H 36.0663 -1.40477 1.2793 0
M  V30 383 H 34.2163 -3.81964 0.709608 0
M  V30 384 H 35.8883 -3.26421 3.25955 0
M  V30 385 H 34.1313 -3.02018 3.11396 0
M  V30 386 H 34.8023 -4.64823 2.9773 0
M  V30 387 H 37.2783 -3.99469 1.16464 0
M  V30 388 H 36.1543 -5.37664 1.10493 0
M  V30 389 H 36.4153 -4.40813 -0.337063 0
M  V30 390 N 35.4744 -0.807222 -1.35358 0
M  V30 391 C 36.4214 -0.216037 -2.29787 0
M  V30 392 C 37.3914 0.650278 -1.52842 0
M  V30 393 O 38.5764 0.595227 -1.81278 0
M  V30 394 C 35.7164 0.628893 -3.39321 0
M  V30 395 C 34.8294 -0.257927 -4.31229 0
M  V30 396 C 33.9644 0.595069 -5.27856 0
M  V30 397 C 33.0034 -0.292111 -6.11403 0
M  V30 398 N 32.1404 0.520895 -7.00165 0
M  V30 399 H 36.9804 -1.02671 -2.79755 0
M  V30 400 H 34.5174 -0.517839 -1.37684 0
M  V30 401 H 36.4754 1.13393 -4.01494 0
M  V30 402 H 35.1054 1.40482 -2.90628 0
M  V30 403 H 34.1574 -0.881076 -3.70056 0
M  V30 404 H 35.4694 -0.940759 -4.89848 0
M  V30 405 H 34.6234 1.16522 -5.95405 0
M  V30 406 H 33.3624 1.31146 -4.69736 0
M  V30 407 H 32.3674 -0.874525 -5.428 0
M  V30 408 H 33.5924 -1.00638 -6.71602 0
M  V30 409 H 31.5384 1.22125 -6.44532 0
M  V30 410 H 31.4554 -0.103877 -7.55929 0
M  V30 411 H 32.7234 1.0743 -7.72062 0
M  V30 412 N 36.9525 1.47285 -0.560781 0
M  V30 413 C 37.8995 2.30058 0.18491 0
M  V30 414 C 38.8695 1.39281 0.904986 0
M  V30 415 O 40.0545 1.68241 0.899979 0
M  V30 416 C 37.1945 3.23317 1.20666 0
M  V30 417 C 36.3075 4.29186 0.492285 0
M  V30 418 C 35.4425 5.09592 1.49964 0
M  V30 419 C 34.4815 6.07232 0.770439 0
M  V30 420 N 33.6185 6.80584 1.72479 0
M  V30 421 H 38.4585 2.93302 -0.527048 0
M  V30 422 H 35.9955 1.44568 -0.271738 0
M  V30 423 H 37.9535 3.75811 1.81168 0
M  V30 424 H 36.5835 2.61929 1.88661 0
M  V30 425 H 35.6355 3.7972 -0.227333 0
M  V30 426 H 36.9475 4.98738 -0.0787929 0
M  V30 427 H 36.1015 5.66254 2.17809 0
M  V30 428 H 34.8405 4.3995 2.10464 0
M  V30 429 H 33.8455 5.49745 0.0780846 0
M  V30 430 H 35.0705 6.78884 0.171134 0
M  V30 431 H 33.0165 6.1367 2.3183 0
M  V30 432 H 32.9335 7.46319 1.20596 0
M  V30 433 H 34.2015 7.41818 2.39428 0
M  V30 434 N 38.4306 0.297415 1.54768 0
M  V30 435 C 39.6766 -0.313376 2.00364 0
M  V30 436 C 40.0096 -1.53815 1.18553 0
M  V30 437 O 39.2846 -1.92739 0.261103 0
M  V30 438 C 39.5676 -0.673525 3.53745 0
M  V30 439 C 39.4206 0.560133 4.46299 0
M  V30 440 C 40.7396 -1.50143 4.13697 0
M  V30 441 H 37.8586 -0.112428 0.728374 0
M  V30 442 H 40.5006 0.4088 1.8555 0
M  V30 443 H 38.6506 -1.28881 3.665 0
M  V30 444 H 40.3226 1.19863 4.45455 0
M  V30 445 H 38.5656 1.19405 4.17043 0
M  V30 446 H 39.2366 0.26405 5.51368 0
M  V30 447 H 41.7126 -0.981588 4.04356 0
M  V30 448 H 40.5886 -1.72221 5.21182 0
M  V30 449 H 40.8496 -2.48952 3.65343 0
M  V30 450 N 39.9087 -1.5758 0.0250728 0
M  V30 451 C 41.1387 -1.95646 -0.663783 0
M  V30 452 C 41.5467 -0.899935 -1.66427 0
M  V30 453 O 40.8897 0.127191 -1.83259 0
M  V30 454 C 40.9517 -3.29835 -1.43 0
M  V30 455 C 40.6157 -4.53197 -0.588305 0
M  V30 456 C 41.6127 -5.19726 0.13469 0
M  V30 457 C 39.2977 -4.99529 -0.526897 0
M  V30 458 C 41.2917 -6.30902 0.90781 0
M  V30 459 C 38.9787 -6.10589 0.24993 0
M  V30 460 C 39.9767 -6.76134 0.965994 0
M  V30 461 O 39.6647 -7.85062 1.7301 0
M  V30 462 H 39.3967 -0.649282 -0.188174 0
M  V30 463 H 41.9507 -2.05245 0.0799006 0
M  V30 464 H 40.1807 -3.16716 -2.21873 0
M  V30 465 H 41.8697 -3.52833 -2.00658 0
M  V30 466 H 42.6357 -4.84904 0.0965562 0
M  V30 467 H 38.5147 -4.48319 -1.07381 0
M  V30 468 H 42.0587 -6.81995 1.46724 0
M  V30 469 H 37.9557 -6.44849 0.289795 0
M  V30 470 H 38.7237 -8.01708 1.64944 0
M  V30 471 N 41.3868 0.248026 -1.55636 0
M  V30 472 C 42.3348 1.32683 -1.91045 0
M  V30 473 C 43.3288 1.49883 -0.789401 0
M  V30 474 O 44.5348 1.51371 -0.974007 0
M  V30 475 H 40.9098 0.444272 -0.606734 0
M  V30 476 H 42.8808 1.00085 -2.81115 0
M  V30 477 C 41.6298 2.6755 -2.22064 0
M  V30 478 H 40.9528 2.55114 -3.07826 0
M  V30 479 H 42.3928 3.41912 -2.50743 0
M  V30 480 C 40.8518 3.20556 -1.0366 0
M  V30 481 O 41.3818 4.00695 -0.284016 0
M  V30 482 N 39.5878 2.78568 -0.82753 0
M  V30 483 H 39.1348 2.1351 -1.44123 0
M  V30 484 H 39.0928 3.14378 -0.0369803 0
M  V30 485 N 42.8649 1.48995 0.513639 0
M  V30 486 C 43.8129 1.65199 1.63744 0
M  V30 487 C 44.8069 0.51809 1.61283 0
M  V30 488 O 46.0129 0.697335 1.65943 0
M  V30 489 H 42.3879 0.52069 0.542574 0
M  V30 490 H 44.3589 2.59552 1.47226 0
M  V30 491 C 43.1079 1.72409 3.01945 0
M  V30 492 H 42.4309 2.59029 3.04539 0
M  V30 493 H 43.8709 1.87785 3.80148 0
M  V30 494 C 42.3299 0.46618 3.33659 0
M  V30 495 O 42.8599 -0.413744 3.99564 0
M  V30 496 N 41.0659 0.332931 2.88687 0
M  V30 497 H 40.6129 1.04996 2.35231 0
M  V30 498 H 40.5709 -0.507665 3.10274 0
M  V30 499 N 44.343 -0.763751 1.37857 0
M  V30 500 C 45.568 -1.55805 1.36893 0
M  V30 501 C 45.993 -1.88054 -0.0416135 0
M  V30 502 O 45.351 -1.49825 -1.02089 0
M  V30 503 C 45.399 -2.84012 2.22192 0
M  V30 504 O 44.503 -3.78732 1.63204 0
M  V30 505 H 43.844 -0.471638 0.46739 0
M  V30 506 H 46.374 -0.944657 1.81487 0
M  V30 507 H 46.384 -3.33037 2.35691 0
M  V30 508 H 45.059 -2.59869 3.24716 0
M  V30 509 H 43.636 -3.37402 1.58791 0
M  V30 510 N 45.8211 -1.22559 -0.990812 0
M  V30 511 C 47.0461 -1.07862 -1.77145 0
M  V30 512 C 47.4711 0.366447 -1.84496 0
M  V30 513 O 46.8291 1.26478 -1.29896 0
M  V30 514 C 46.8771 -1.69686 -3.18181 0
M  V30 515 O 45.9811 -0.951946 -4.01263 0
M  V30 516 H 45.3221 -0.378712 -0.545411 0
M  V30 517 H 47.8521 -1.62399 -1.2445 0
M  V30 518 H 47.8621 -1.74496 -3.68802 0
M  V30 519 H 46.5371 -2.74841 -3.12146 0
M  V30 520 H 45.1141 -0.980011 -3.59792 0
M  V30 521 N 47.2992 1.18797 -1.03562 0
M  V30 522 C 48.2292 2.24472 -0.643019 0
M  V30 523 C 49.2102 1.66433 0.351283 0
M  V30 524 O 50.3952 1.92803 0.232505 0
M  V30 525 C 47.5252 3.473 4.24935e-05 0
M  V30 526 C 46.4792 4.18055 -0.917257 0
M  V30 527 C 45.8052 5.34519 -0.138941 0
M  V30 528 C 47.1052 4.72109 -2.23407 0
M  V30 529 H 48.7992 2.57566 -1.52643 0
M  V30 530 H 46.3452 1.23806 -0.735394 0
M  V30 531 H 48.2982 4.20426 0.286383 0
M  V30 532 H 47.0222 3.13424 0.918299 0
M  V30 533 H 45.6812 3.46821 -1.1879 0
M  V30 534 H 45.3292 4.96891 0.781562 0
M  V30 535 H 45.0292 5.82794 -0.750005 0
M  V30 536 H 46.5532 6.10438 0.1405 0
M  V30 537 H 47.9672 5.36955 -2.00879 0
M  V30 538 H 46.3642 5.30897 -2.79765 0
M  V30 539 H 47.4342 3.89807 -2.88407 0
M  V30 540 N 48.7773 0.814389 1.34928 0
M  V30 541 C 49.7243 0.22822 2.29669 0
M  V30 542 C 50.6943 -0.642164 1.53184 0
M  V30 543 O 51.8793 -0.585605 1.81591 0
M  V30 544 C 49.0193 -0.61089 3.3965 0
M  V30 545 C 48.1323 0.280792 4.31086 0
M  V30 546 C 47.2673 -0.567067 5.28165 0
M  V30 547 C 46.3063 0.324531 6.11239 0
M  V30 548 N 45.4433 -0.483756 7.00431 0
M  V30 549 H 50.2833 1.04153 2.79206 0
M  V30 550 H 47.8203 0.525133 1.37407 0
M  V30 551 H 49.7783 -1.11263 4.0209 0
M  V30 552 H 48.4083 -1.38939 2.91369 0
M  V30 553 H 47.4603 0.900688 3.69583 0
M  V30 554 H 48.7723 0.966723 4.89342 0
M  V30 555 H 47.9263 -1.13363 5.96015 0
M  V30 556 H 46.6653 -1.28654 4.70425 0
M  V30 557 H 45.6703 0.903298 5.42329 0
M  V30 558 H 46.8953 1.04198 6.71059 0
M  V30 559 H 44.8413 -1.18706 6.45171 0
M  V30 560 H 44.7583 0.143965 7.55863 0
M  V30 561 H 46.0263 -1.03334 7.7262 0
M  V30 562 N 50.2554 -1.46986 0.568584 0
M  V30 563 C 51.2024 -2.30153 -0.172707 0
M  V30 564 C 52.1724 -1.39759 -0.897586 0
M  V30 565 O 53.3574 -1.68716 -0.891044 0
M  V30 566 C 50.4974 -3.23952 -1.1895 0
M  V30 567 C 49.6104 -4.29441 -0.469517 0
M  V30 568 C 48.7454 -5.1038 -1.47259 0
M  V30 569 C 47.7844 -6.07632 -0.738225 0
M  V30 570 N 46.9214 -6.8149 -1.68868 0
M  V30 571 H 51.7614 -2.93019 0.542596 0
M  V30 572 H 49.2984 -1.44422 0.279401 0
M  V30 573 H 51.2564 -3.76767 -1.79173 0
M  V30 574 H 49.8864 -2.62926 -1.87269 0
M  V30 575 H 48.9384 -3.79594 0.247467 0
M  V30 576 H 50.2504 -4.98689 0.105241 0
M  V30 577 H 49.4044 -5.67402 -2.14803 0
M  V30 578 H 48.1434 -4.4106 -2.08128 0
M  V30 579 H 47.1484 -5.49778 -0.0489293 0
M  V30 580 H 48.3734 -6.78966 -0.135129 0
M  V30 581 H 46.3194 -6.14891 -2.28573 0
M  V30 582 H 46.2364 -7.46948 -1.16636 0
M  V30 583 H 47.5044 -7.43078 -2.3549 0
M  V30 584 N 51.7335 -0.305618 -1.54608 0
M  V30 585 C 52.9635 0.304333 -2.04346 0
M  V30 586 C 53.3715 1.47715 -1.18224 0
M  V30 587 O 52.7145 1.82591 -0.201577 0
M  V30 588 C 52.7765 0.819031 -3.50046 0
M  V30 589 C 52.4405 -0.22912 -4.56425 0
M  V30 590 C 53.4375 -1.05914 -5.08997 0
M  V30 591 C 51.1225 -0.372148 -5.0092 0
M  V30 592 C 53.1165 -2.01809 -6.04609 0
M  V30 593 C 50.8035 -1.33454 -5.9635 0
M  V30 594 C 51.8015 -2.15599 -6.48079 0
M  V30 595 O 51.4895 -3.10205 -7.41639 0
M  V30 596 H 51.2215 0.0693996 -0.672428 0
M  V30 597 H 53.7755 -0.444548 -2.00532 0
M  V30 598 H 52.0055 1.61852 -3.51199 0
M  V30 599 H 53.6945 1.34537 -3.82955 0
M  V30 600 H 54.4605 -0.959538 -4.75413 0
M  V30 601 H 50.3395 0.257304 -4.60281 0
M  V30 602 H 53.8835 -2.65966 -6.44909 0
M  V30 603 H 49.7805 -1.43485 -6.29351 0
M  V30 604 H 50.5485 -3.05237 -7.59455 0
M  V30 605 N 53.2116 1.57565 -0.0334293 0
M  V30 606 C 54.1446 2.05997 0.981866 0
M  V30 607 C 55.1226 0.956647 1.3148 0
M  V30 608 O 56.3066 1.22729 1.43073 0
M  V30 609 C 53.4336 2.48564 2.30074 0
M  V30 610 C 52.4796 3.69958 2.12211 0
M  V30 611 S 53.3126 5.16414 1.41692 0
M  V30 612 C 54.4686 5.6228 2.7494 0
M  V30 613 H 54.7016 2.91792 0.569612 0
M  V30 614 H 52.2346 1.53366 0.178376 0
M  V30 615 H 54.1926 2.73753 3.05892 0
M  V30 616 H 52.8536 1.63106 2.68431 0
M  V30 617 H 52.0466 3.97603 3.09722 0
M  V30 618 H 51.6486 3.44943 1.44535 0
M  V30 619 H 53.9406 5.66783 3.71165 0
M  V30 620 H 54.8836 6.61759 2.51953 0
M  V30 621 H 55.2916 4.89944 2.80384 0
M  V30 622 N 54.6897 -0.239769 1.55765 0
M  V30 623 C 55.6367 -1.29696 1.90913 0
M  V30 624 C 56.6067 -1.47478 0.764164 0
M  V30 625 O 57.7917 -1.61345 1.01845 0
M  V30 626 C 54.9317 -2.64598 2.21544 0
M  V30 627 C 54.0447 -2.54765 3.48882 0
M  V30 628 C 53.1797 -3.82069 3.69049 0
M  V30 629 C 52.2187 -3.66883 4.89963 0
M  V30 630 N 51.3557 -4.86094 5.06614 0
M  V30 631 H 56.1957 -0.990224 2.81067 0
M  V30 632 H 53.7327 -0.477684 1.39128 0
M  V30 633 H 55.6907 -3.43132 2.3731 0
M  V30 634 H 54.3207 -2.93405 1.34585 0
M  V30 635 H 53.3727 -1.67763 3.41409 0
M  V30 636 H 54.6847 -2.39457 4.37563 0
M  V30 637 H 53.8387 -4.69046 3.84812 0
M  V30 638 H 52.5777 -4.00282 2.78614 0
M  V30 639 H 51.5827 -2.78289 4.74168 0
M  V30 640 H 52.8077 -3.50157 5.81865 0
M  V30 641 H 50.7537 -5.04655 4.19117 0
M  V30 642 H 50.6707 -4.73443 5.89396 0
M  V30 643 H 51.9387 -5.74549 5.26795 0
M  V30 644 N 56.1678 -1.49265 -0.50573 0
M  V30 645 C 57.4148 -1.58513 -1.26015 0
M  V30 646 C 57.7428 -0.26972 -1.92621 0
M  V30 647 O 56.9978 0.741997 -1.81088 0
M  V30 648 C 57.2968 -2.69008 -2.35308 0
M  V30 649 C 56.9628 -4.10662 -1.86192 0
M  V30 650 C 55.6248 -4.49212 -1.72516 0
M  V30 651 C 57.9768 -4.99336 -1.49375 0
M  V30 652 C 55.3048 -5.74214 -1.20394 0
M  V30 653 C 57.6568 -6.24852 -0.987072 0
M  V30 654 C 56.3208 -6.62236 -0.836669 0
M  V30 655 H 55.5908 -0.580041 -0.461122 0
M  V30 656 H 58.2378 -1.83078 -0.561665 0
M  V30 657 H 56.5428 -2.38396 -3.10926 0
M  V30 658 H 58.2398 -2.73373 -2.93374 0
M  V30 659 H 54.8298 -3.8023 -1.97795 0
M  V30 660 H 59.0138 -4.70212 -1.5879 0
M  V30 661 H 54.2698 -6.01883 -1.07458 0
M  V30 662 H 58.4438 -6.92944 -0.692983 0
M  V30 663 H 56.0708 -7.58979 -0.430607 0
M  V30 664 N 57.6459 0.756429 -1.3826 0
M  V30 665 C 58.8859 1.52833 -1.35725 0
M  V30 666 C 59.2499 1.91926 0.0534106 0
M  V30 667 O 60.4509 2.68028 0.203613 0
M  V30 668 C 58.7219 2.74919 -2.28373 0
M  V30 669 S 60.2809 3.64817 -2.43832 0
M  V30 670 H 57.0989 0.523043 -0.481608 0
M  V30 671 H 59.7009 0.888212 -1.74158 0
M  V30 672 H 58.4049 2.44304 -3.29763 0
M  V30 673 H 57.9359 3.43878 -1.91079 0
M  V30 674 H 59.9509 4.676 -1.66027 0
M  V30 675 N 59.124 1.23083 0.984299 0
M  V30 676 C 60.054 1.03292 2.09411 0
M  V30 677 C 61.035 -0.048923 1.7003 0
M  V30 678 O 62.22 0.114967 1.93859 0
M  V30 679 C 59.35 0.619155 3.41736 0
M  V30 680 C 58.304 1.64791 3.95004 0
M  V30 681 C 57.63 1.0897 5.23478 0
M  V30 682 C 58.93 3.03999 4.24714 0
M  V30 683 H 60.624 1.96119 2.26225 0
M  V30 684 H 58.17 0.944344 1.08711 0
M  V30 685 H 60.123 0.467777 4.18796 0
M  V30 686 H 58.847 -0.344786 3.24775 0
M  V30 687 H 57.506 1.78721 3.20085 0
M  V30 688 H 57.154 0.11686 5.02864 0
M  V30 689 H 56.854 1.77704 5.60085 0
M  V30 690 H 58.378 0.950093 6.03163 0
M  V30 691 H 59.792 2.93393 4.92538 0
M  V30 692 H 58.189 3.69936 4.72512 0
M  V30 693 H 59.259 3.53285 3.32142 0
M  V30 694 N 60.6021 -1.18246 1.0419 0
M  V30 695 C 61.8421 -1.89948 0.754916 0
M  V30 696 C 62.2061 -1.78608 -0.70451 0
M  V30 697 O 63.4071 -2.4503 -1.10516 0
M  V30 698 C 61.6781 -3.36305 1.20969 0
M  V30 699 S 63.2371 -4.26088 1.04854 0
M  V30 700 H 60.0551 -0.655897 0.274446 0
M  V30 701 H 62.6571 -1.42873 1.33445 0
M  V30 702 H 61.3611 -3.42089 2.26722 0
M  V30 703 H 60.8921 -3.8842 0.624004 0
M  V30 704 H 62.9071 -4.96189 -0.0332896 0
M  V30 705 N 62.0802 -0.821533 -1.34494 0
M  V30 706 C 63.3082 -0.421884 -2.02553 0
M  V30 707 C 63.7232 0.971745 -1.61872 0
M  V30 708 O 63.0802 1.62864 -0.823496 0
M  V30 709 C 63.1312 -0.51285 -3.57844 0
M  V30 710 O 62.8522 -1.85155 -3.97051 0
M  V30 711 C 64.3532 -0.107921 -4.43169 0
M  V30 712 H 61.5732 -0.169482 -0.649243 0
M  V30 713 H 64.1172 -1.1093 -1.71798 0
M  V30 714 H 62.2722 0.126474 -3.87193 0
M  V30 715 H 62.6862 -1.82482 -4.91732 0
M  V30 716 H 64.1602 -0.222657 -5.51551 0
M  V30 717 H 64.6372 0.948401 -4.28838 0
M  V30 718 H 65.2432 -0.720989 -4.19144 0
M  V30 719 N 63.5583 1.46682 -0.576371 0
M  V30 720 C 64.8073 2.01619 -0.0572825 0
M  V30 721 C 65.1203 1.45417 1.30818 0
M  V30 722 O 66.3263 1.92133 1.91825 0
M  V30 723 C 64.7823 3.59863 -0.0518371 0
M  V30 724 C 64.3903 4.25059 -1.41523 0
M  V30 725 C 66.1343 4.2248 0.413639 0
M  V30 726 C 64.0413 5.75364 -1.36785 0
M  V30 727 H 62.9713 0.753794 -0.0176448 0
M  V30 728 H 65.6223 1.68481 -0.727076 0
M  V30 729 H 64.0043 3.90048 0.683994 0
M  V30 730 H 65.1783 4.06491 -2.17029 0
M  V30 731 H 63.4933 3.7451 -1.8202 0
M  V30 732 H 66.0903 5.3265 0.467779 0
M  V30 733 H 66.4333 3.90976 1.42982 0
M  V30 734 H 66.9663 3.96897 -0.267929 0
M  V30 735 H 63.7053 6.11518 -2.36063 0
M  V30 736 H 63.2253 5.96214 -0.654895 0
M  V30 737 H 64.9043 6.37955 -1.07805 0
M  V30 738 N 65.0364 0.313813 1.54444 0
M  V30 739 C 66.2854 -0.292519 1.99568 0
M  V30 740 C 66.5984 -1.54011 1.20582 0
M  V30 741 O 67.8044 -2.22183 1.56035 0
M  V30 742 C 66.2604 -0.571752 3.55329 0
M  V30 743 C 65.8684 0.658229 4.43138 0
M  V30 744 C 67.6124 -1.13857 4.08946 0
M  V30 745 C 65.5194 0.351439 5.90355 0
M  V30 746 H 64.4494 -0.113079 0.745472 0
M  V30 747 H 67.1004 0.424518 1.78522 0
M  V30 748 H 65.4824 -1.34872 3.72325 0
M  V30 749 H 66.6564 1.43403 4.37918 0
M  V30 750 H 64.9714 1.14458 4.0036 0
M  V30 751 H 67.5684 -1.38257 5.16516 0
M  V30 752 H 67.9114 -2.08489 3.6033 0
M  V30 753 H 68.4444 -0.423015 3.95544 0
M  V30 754 H 65.1834 1.26667 6.43145 0
M  V30 755 H 64.7034 -0.386842 5.98551 0
M  V30 756 H 66.3824 -0.0423134 6.46986 0
M  V30 757 N 66.5145 -1.57545 0.0417849 0
M  V30 758 C 67.7545 -1.94185 -0.63809 0
M  V30 759 C 68.1185 -0.919339 -1.68559 0
M  V30 760 O 69.3195 -1.17236 -2.41886 0
M  V30 761 C 67.5905 -3.35672 -1.22714 0
M  V30 762 S 69.1495 -3.94256 -1.92633 0
M  V30 763 H 65.9675 -0.679353 -0.209764 0
M  V30 764 H 68.5695 -1.95199 0.108479 0
M  V30 765 H 67.2735 -4.07898 -0.452503 0
M  V30 766 H 66.8045 -3.38132 -2.01073 0
M  V30 767 H 68.8195 -3.7872 -3.20602 0
M  V30 768 N 67.9926 0.231505 -1.5589 0
M  V30 769 C 69.2386 0.95877 -1.78705 0
M  V30 770 C 69.5716 1.8438 -0.609725 0
M  V30 771 O 68.8466 1.90521 0.391426 0
M  V30 772 C 69.1296 1.8062 -3.11526 0
M  V30 773 C 68.9826 0.948328 -4.39689 0
M  V30 774 C 70.3016 2.78585 -3.40703 0
M  V30 775 H 67.4206 0.347129 -0.650131 0
M  V30 776 H 70.0626 0.228259 -1.88624 0
M  V30 777 H 68.2126 2.42902 -3.03201 0
M  V30 778 H 69.8846 0.343016 -4.60023 0
M  V30 779 H 68.1276 0.253314 -4.3306 0
M  V30 780 H 68.7986 1.57543 -5.29041 0
M  V30 781 H 71.2746 2.26439 -3.49091 0
M  V30 782 H 70.1506 3.34988 -4.34826 0
M  V30 783 H 70.4116 3.55825 -2.62375 0
M  V30 784 N 69.4707 1.49531 0.497807 0
M  V30 785 C 70.7177 1.59179 1.25173 0
M  V30 786 C 71.0457 0.279932 1.92475 0
M  V30 787 O 70.3007 -0.732383 1.81479 0
M  V30 788 C 70.5997 2.70252 2.33878 0
M  V30 789 C 70.2657 4.11644 1.84012 0
M  V30 790 C 68.9277 4.50121 1.70132 0
M  V30 791 C 71.2797 5.00121 1.46725 0
M  V30 792 C 68.6077 5.74845 1.17348 0
M  V30 793 C 70.9597 6.25366 0.95392 0
M  V30 794 C 69.6237 6.6267 0.801538 0
M  V30 795 H 68.8937 0.582478 0.45804 0
M  V30 796 H 71.5407 1.83373 0.551948 0
M  V30 797 H 69.8457 2.40041 3.09657 0
M  V30 798 H 71.5427 2.74925 2.9192 0
M  V30 799 H 68.1327 3.81274 1.95775 0
M  V30 800 H 72.3167 4.71048 1.56294 0
M  V30 801 H 67.5727 6.02444 1.04264 0
M  V30 802 H 71.7467 6.93301 0.656225 0
M  V30 803 H 69.3737 7.59197 0.390351 0
M  V30 804 N 70.9488 -0.749086 1.3866 0
M  V30 805 C 71.8788 -1.8764 1.38973 0
M  V30 806 C 72.8598 -1.68178 0.255004 0
M  V30 807 O 74.0448 -1.88704 0.458754 0
M  V30 808 C 71.1748 -3.25222 1.21851 0
M  V30 809 C 70.1288 -3.59295 2.32575 0
M  V30 810 C 69.4548 -4.95663 2.00555 0
M  V30 811 C 70.7548 -3.63709 3.7485 0
M  V30 812 H 72.4488 -1.87635 2.3331 0
M  V30 813 H 69.9948 -0.901329 1.12303 0
M  V30 814 H 71.9478 -4.03746 1.20695 0
M  V30 815 H 70.6718 -3.25719 0.239775 0
M  V30 816 H 69.3308 -2.83093 2.32925 0
M  V30 817 H 68.9788 -4.92724 1.01154 0
M  V30 818 H 68.6788 -5.19429 2.74714 0
M  V30 819 H 70.2028 -5.7656 2.01024 0
M  V30 820 H 71.6168 -4.32338 3.76506 0
M  V30 821 H 70.0138 -3.98986 4.48252 0
M  V30 822 H 71.0838 -2.63834 4.06841 0
M  V30 823 N 72.4269 -1.23603 -0.977757 0
M  V30 824 C 73.3569 -1.04401 -2.0886 0
M  V30 825 C 74.3379 0.0399052 -1.70053 0
M  V30 826 O 75.5229 -0.125246 -1.93796 0
M  V30 827 C 72.6529 -0.637269 -3.41403 0
M  V30 828 C 71.6069 -1.66883 -3.94124 0
M  V30 829 C 70.9329 -1.11745 -5.22893 0
M  V30 830 C 72.2329 -3.06247 -4.23096 0
M  V30 831 H 73.9269 -1.97316 -2.25182 0
M  V30 832 H 71.4729 -0.950096 -1.08209 0
M  V30 833 H 73.4259 -0.48998 -4.18542 0
M  V30 834 H 72.1499 0.327557 -3.24953 0
M  V30 835 H 70.8089 -1.80416 -3.19133 0
M  V30 836 H 70.4569 -0.143527 -5.02795 0
M  V30 837 H 70.1569 -1.80672 -5.59134 0
M  V30 838 H 71.6809 -0.982067 -6.02651 0
M  V30 839 H 73.0949 -2.96001 -4.90975 0
M  V30 840 H 71.4919 -3.72436 -4.70544 0
M  V30 841 H 72.5619 -3.55041 -3.30263 0
M  V30 842 N 73.905 1.17692 -1.04816 0
M  V30 843 C 75.182 1.83768 -0.669963 0
M  V30 844 C 75.562 1.93232 0.849986 0
M  V30 845 O 74.91 1.46397 1.75443 0
M  V30 846 C 75.12 3.21641 -1.35455 0
M  V30 847 C 76.468 3.97592 -1.49017 0
M  V30 848 O 77.492 3.31107 -1.31326 0
M  V30 849 O 76.351 5.16729 -1.77914 0
M  V30 850 H 73.445 0.792799 -0.235368 0
M  V30 851 H 75.991 1.25021 -1.14751 0
M  V30 852 H 74.763 3.097 -2.39168 0
M  V30 853 H 74.386 3.88052 -0.866107 0
M  V30 854 N 75.3831 0.828654 1.34056 0
M  V30 855 C 76.6321 0.415828 1.97367 0
M  V30 856 C 76.9451 -1.02796 1.6641 0
M  V30 857 O 78.1511 -1.54497 2.23255 0
M  V30 858 C 76.6071 0.692601 3.53173 0
M  V30 859 C 76.2151 2.15038 3.93017 0
M  V30 860 C 77.9591 0.346222 4.23086 0
M  V30 861 C 75.8661 2.37174 5.41758 0
M  V30 862 H 74.7961 0.151755 0.738571 0
M  V30 863 H 77.4471 1.01581 1.52819 0
M  V30 864 H 75.8291 0.0223764 3.95994 0
M  V30 865 H 77.0031 2.86024 3.61285 0
M  V30 866 H 75.3181 2.45875 3.36057 0
M  V30 867 H 77.9151 0.48937 5.32456 0
M  V30 868 H 78.2581 -0.709842 4.10204 0
M  V30 869 H 78.7911 0.971258 3.85761 0
M  V30 870 H 75.5301 3.41308 5.59633 0
M  V30 871 H 75.0501 1.70738 5.74986 0
M  V30 872 H 76.7291 2.19818 6.08514 0
M  V30 873 N 76.8612 -1.46375 0.584142 0
M  V30 874 C 78.0912 -2.06461 0.0758195 0
M  V30 875 C 78.4992 -1.43322 -1.23512 0
M  V30 876 O 77.8422 -0.533216 -1.75791 0
M  V30 877 C 77.9042 -3.59131 -0.162773 0
M  V30 878 C 77.5682 -4.4447 1.06279 0
M  V30 879 C 78.5652 -4.80918 1.97519 0
M  V30 880 C 76.2502 -4.85584 1.28504 0
M  V30 881 C 78.2442 -5.57309 3.09331 0
M  V30 882 C 75.9312 -5.61734 2.4062 0
M  V30 883 C 76.9292 -5.9751 3.30863 0
M  V30 884 O 76.6172 -6.72121 4.41032 0
M  V30 885 H 76.3492 -0.673745 0.0551725 0
M  V30 886 H 78.9032 -1.88969 0.804984 0
M  V30 887 H 77.1332 -3.74936 -0.946565 0
M  V30 888 H 78.8222 -4.0114 -0.619782 0
M  V30 889 H 79.5882 -4.49732 1.81565 0
M  V30 890 H 75.4672 -4.57187 0.591702 0
M  V30 891 H 79.0112 -5.85152 3.79793 0
M  V30 892 H 74.9082 -5.92334 2.56537 0
M  V30 893 H 75.6762 -6.90547 4.39417 0
M  V30 894 N 78.3393 -0.321999 -1.54275 0
M  V30 895 C 79.5673 0.283052 -2.04955 0
M  V30 896 C 79.9823 1.45904 -1.19823 0
M  V30 897 O 79.3393 1.81063 -0.228545 0
M  V30 898 C 79.3903 0.719028 -3.54277 0
M  V30 899 O 79.1113 -0.410175 -4.36176 0
M  V30 900 C 80.6123 1.38705 -4.21041 0
M  V30 901 H 77.8323 0.0584616 -0.668448 0
M  V30 902 H 80.3763 -0.467734 -1.99079 0
M  V30 903 H 78.5313 1.41979 -3.60445 0
M  V30 904 H 78.9453 -0.0669416 -5.24457 0
M  V30 905 H 80.4193 1.64306 -5.2698 0
M  V30 906 H 80.8963 2.33385 -3.72059 0
M  V30 907 H 81.5023 0.728906 -4.19007 0
M  V30 908 N 79.8174 1.5752 -0.0501392 0
M  V30 909 C 80.7654 2.12651 0.942459 0
M  V30 910 C 81.7594 1.05807 1.32292 0
M  V30 911 O 82.9654 1.24217 1.3027 0
M  V30 912 H 79.3404 0.679673 0.321789 0
M  V30 913 H 81.3114 2.94951 0.452356 0
M  V30 914 C 80.0604 2.68565 2.20836 0
M  V30 915 H 79.3834 3.50439 1.92439 0
M  V30 916 H 80.8234 3.10761 2.8845 0
M  V30 917 C 79.2824 1.62291 2.95234 0
M  V30 918 O 79.8124 1.03508 3.88135 0
M  V30 919 N 78.0184 1.33836 2.57946 0
M  V30 920 H 77.5654 1.81826 1.82475 0
M  V30 921 H 77.5234 0.629595 3.08032 0
M  V30 922 N 81.2955 -0.223234 1.56011 0
M  V30 923 C 82.5355 -0.954962 1.8072 0
M  V30 924 C 82.8995 -1.81598 0.623384 0
M  V30 925 O 84.1005 -2.58132 0.749745 0
M  V30 926 C 82.3715 -1.77313 3.10314 0
M  V30 927 S 83.9305 -2.56073 3.56332 0
M  V30 928 H 80.7485 -0.320812 0.634508 0
M  V30 929 H 83.3505 -0.220686 1.9425 0
M  V30 930 H 82.0545 -1.13071 3.94516 0
M  V30 931 H 81.5855 -2.54974 2.99586 0
M  V30 932 H 83.6005 -3.79619 3.19536 0
M  V30 933 N 82.7736 -1.49793 -0.48987 0
M  V30 934 C 83.6836 -1.70036 -1.61632 0
M  V30 935 C 84.6996 -0.583102 -1.63939 0
M  V30 936 O 85.8756 -0.859169 -1.82154 0
M  V30 937 C 82.9406 -1.77277 -2.97949 0
M  V30 938 C 82.0016 -3.00918 -3.06181 0
M  V30 939 C 81.2346 -3.07804 -4.35996 0
M  V30 940 O 81.4576 -2.21982 -5.25433 0
M  V30 941 O 80.3916 -4.00369 -4.49431 0
M  V30 942 H 84.2176 -2.65486 -1.47482 0
M  V30 943 H 81.8026 -1.33666 -0.667362 0
M  V30 944 H 83.6846 -1.84329 -3.78947 0
M  V30 945 H 82.3596 -0.850076 -3.12339 0
M  V30 946 H 81.2666 -2.99377 -2.2433 0
M  V30 947 H 82.5996 -3.92704 -2.96723 0
M  V30 948 N 84.2517 0.741722 -1.39055 0
M  V30 949 C 85.4767 1.53607 -1.39354 0
M  V30 950 C 85.9017 1.88096 0.0116905 0
M  V30 951 O 85.2597 1.5143 0.996924 0
M  V30 952 C 85.3077 2.80441 -2.26682 0
M  V30 953 O 84.4117 3.76088 -1.69208 0
M  V30 954 H 83.7527 0.464142 -0.474835 0
M  V30 955 H 86.2827 0.915665 -1.82967 0
M  V30 956 H 86.2927 3.29246 -2.40959 0
M  V30 957 H 84.9677 2.5467 -3.2881 0
M  V30 958 H 83.5447 3.34833 -1.64138 0
M  V30 959 N 85.7298 1.2412 0.971189 0
M  V30 960 C 87.1408 1.07236 1.52831 0
M  V30 961 C 87.4918 -0.357352 1.92918 0
M  V30 962 O 86.6168 -1.24528 1.76979 0
M  V30 963 C 87.2118 1.94043 2.77728 0
M  V30 964 C 85.7708 1.81394 3.29808 0
M  V30 965 C 84.9178 1.89189 2.02738 0
M  V30 966 H 87.8688 1.37648 0.789864 0
M  V30 967 H 87.8898 1.47066 3.5093 0
M  V30 968 H 87.4018 2.98093 2.4852 0
M  V30 969 H 85.5028 0.801634 3.63874 0
M  V30 970 H 85.6158 2.65294 3.98944 0
M  V30 971 H 83.9798 1.32877 2.17292 0
M  V30 972 H 84.7628 2.94812 1.759 0
M  V30 973 N 87.2079 -1.17134 1.05439 0
M  V30 974 C 88.4359 -1.91372 0.786414 0
M  V30 975 C 88.8509 -1.76955 -0.658202 0
M  V30 976 O 88.2079 -1.10838 -1.44987 0
M  V30 977 C 88.2589 -3.42356 1.1608 0
M  V30 978 O 87.9799 -3.56332 2.54871 0
M  V30 979 C 89.4809 -4.33663 0.919322 0
M  V30 980 H 86.7009 -0.607118 0.285743 0
M  V30 981 H 89.2449 -1.48525 1.40572 0
M  V30 982 H 87.3999 -3.82939 0.586191 0
M  V30 983 H 87.8139 -4.49896 2.69618 0
M  V30 984 H 89.2879 -5.38099 1.231 0
M  V30 985 H 89.7649 -4.38959 -0.145359 0
M  V30 986 H 90.3709 -3.98796 1.47789 0
M  V30 987 N 88.686 -0.835752 -1.33615 0
M  V30 988 C 89.916 -0.442701 -2.01801 0
M  V30 989 C 90.324 0.959807 -1.63047 0
M  V30 990 O 89.667 1.63468 -0.838088 0
M  V30 991 C 89.729 -0.480125 -3.56279 0
M  V30 992 C 89.393 -1.8382 -4.18401 0
M  V30 993 C 90.39 -2.80097 -4.37998 0
M  V30 994 C 88.075 -2.13019 -4.54894 0
M  V30 995 C 90.069 -4.03736 -4.9323 0
M  V30 996 C 87.756 -3.36916 -5.09834 0
M  V30 997 C 88.754 -4.32091 -5.28948 0
M  V30 998 O 88.442 -5.53797 -5.82721 0
M  V30 999 H 88.174 -0.17441 -0.653114 0
M  V30 1000 H 90.728 -1.129 -1.71589 0
M  V30 1001 H 88.958 0.262931 -3.85805 0
M  V30 1002 H 90.647 -0.105335 -4.05763 0
M  V30 1003 H 91.413 -2.58838 -4.10156 0
M  V30 1004 H 87.292 -1.39733 -4.39313 0
M  V30 1005 H 90.836 -4.78034 -5.08064 0
M  V30 1006 H 86.733 -3.58033 -5.37106 0
M  V30 1007 H 87.501 -5.55494 -6.0114 0
M  V30 1008 N 90.1641 1.46063 -0.591896 0
M  V30 1009 C 91.3891 2.07226 -0.0850314 0
M  V30 1010 C 91.8141 1.43625 1.21463 0
M  V30 1011 O 91.1721 0.523305 1.73583 0
M  V30 1012 C 91.2201 3.60554 0.0576567 0
M  V30 1013 O 90.3241 3.97128 1.11188 0
M  V30 1014 H 89.6651 0.660615 -0.0669568 0
M  V30 1015 H 92.1951 1.8756 -0.81745 0
M  V30 1016 H 92.2051 4.07165 0.2609 0
M  V30 1017 H 90.8801 4.06235 -0.891416 0
M  V30 1018 H 89.4571 3.62213 0.886356 0
M  V30 1019 N 91.6422 0.330177 1.54103 0
M  V30 1020 C 92.8722 -0.271784 2.04805 0
M  V30 1021 C 93.2802 -1.45816 1.20559 0
M  V30 1022 O 92.6232 -1.82247 0.2306 0
M  V30 1023 C 92.6852 -0.763238 3.51305 0
M  V30 1024 C 92.3492 0.301705 4.56003 0
M  V30 1025 C 93.3462 1.13999 5.07248 0
M  V30 1026 C 91.0312 0.451793 5.00264 0
M  V30 1027 C 93.0252 2.11402 6.01322 0
M  V30 1028 C 90.7122 1.42924 5.94151 0
M  V30 1029 C 91.7102 2.25882 6.44567 0
M  V30 1030 O 91.3982 3.21965 7.3661 0
M  V30 1031 H 91.1302 -0.058693 0.673447 0
M  V30 1032 H 93.6842 0.476395 1.99799 0
M  V30 1033 H 91.9142 -1.56244 3.5373 0
M  V30 1034 H 93.6032 -1.28427 3.85047 0
M  V30 1035 H 94.3692 1.03505 4.73827 0
M  V30 1036 H 90.2482 -0.184044 4.60632 0
M  V30 1037 H 93.7922 2.76192 6.40596 0
M  V30 1038 H 89.6892 1.53479 6.26988 0
M  V30 1039 H 90.4572 3.17281 7.54503 0
M  V30 1040 N 93.1203 -1.57491 0.0584922 0
M  V30 1041 C 94.3453 -1.97711 -0.62652 0
M  V30 1042 C 94.7703 -0.936132 -1.63151 0
M  V30 1043 O 94.1283 0.099811 -1.81025 0
M  V30 1044 C 94.1763 -3.36989 -1.28338 0
M  V30 1045 O 93.2803 -3.35433 -2.39913 0
M  V30 1046 H 92.6213 -0.643868 -0.162266 0
M  V30 1047 H 95.1513 -2.04193 0.129064 0
M  V30 1048 H 95.1613 -3.73879 -1.63335 0
M  V30 1049 H 93.8363 -4.12289 -0.546889 0
M  V30 1050 H 92.4133 -3.10298 -2.06809 0
M  V30 1051 N 94.5984 0.214957 -1.56127 0
M  V30 1052 C 95.8234 0.95924 -1.83884 0
M  V30 1053 C 96.2484 1.7689 -0.639644 0
M  V30 1054 O 95.6064 1.76566 0.411601 0
M  V30 1055 C 95.6544 1.84723 -3.09693 0
M  V30 1056 O 94.7584 2.94346 -2.8885 0
M  V30 1057 H 94.0994 0.27125 -0.606069 0
M  V30 1058 H 96.6294 0.226276 -2.03345 0
M  V30 1059 H 96.6394 2.25576 -3.39969 0
M  V30 1060 H 95.3144 1.25218 -3.96602 0
M  V30 1061 H 93.8914 2.57391 -2.69823 0
M  V30 1062 N 96.0765 1.50051 0.48192 0
M  V30 1063 C 97.3255 1.59741 1.23149 0
M  V30 1064 C 97.6385 0.298163 1.93314 0
M  V30 1065 O 98.8445 0.273835 2.70116 0
M  V30 1066 C 97.3005 2.81926 2.23708 0
M  V30 1067 C 96.9085 4.18685 1.59396 0
M  V30 1068 C 98.6525 3.00956 2.99375 0
M  V30 1069 C 96.5595 5.3207 2.58178 0
M  V30 1070 H 95.4895 0.594838 0.46334 0
M  V30 1071 H 98.1405 1.76467 0.503169 0
M  V30 1072 H 96.5225 2.58736 2.99786 0
M  V30 1073 H 97.6965 4.52088 0.891811 0
M  V30 1074 H 96.0115 4.05171 0.960503 0
M  V30 1075 H 98.6085 3.82836 3.73283 0
M  V30 1076 H 98.9515 2.12258 3.58123 0
M  V30 1077 H 99.4845 3.24277 2.30411 0
M  V30 1078 H 96.2235 6.22888 2.04184 0
M  V30 1079 H 95.7435 5.03098 3.26577 0
M  V30 1080 H 97.4225 5.62196 3.20225 0
M  V30 1081 N 97.5546 -0.734337 1.39446 0
M  V30 1082 C 98.5016 -1.84835 1.38219 0
M  V30 1083 C 99.4716 -1.64331 0.24179 0
M  V30 1084 O 100.657 -1.85728 0.437002 0
M  V30 1085 C 97.7966 -3.22355 1.23212 0
M  V30 1086 C 96.9096 -3.5456 2.46801 0
M  V30 1087 C 96.0446 -4.81485 2.24377 0
M  V30 1088 C 95.0836 -5.06536 3.43639 0
M  V30 1089 N 94.2206 -6.24665 3.20528 0
M  V30 1090 H 99.0606 -1.85219 2.33448 0
M  V30 1091 H 96.5976 -0.905039 1.15963 0
M  V30 1092 H 98.5556 -4.0174 1.12522 0
M  V30 1093 H 97.1856 -3.21248 0.316121 0
M  V30 1094 H 96.2376 -2.69872 2.68092 0
M  V30 1095 H 97.5496 -3.6899 3.3563 0
M  V30 1096 H 96.7036 -5.68852 2.10933 0
M  V30 1097 H 95.4426 -4.6923 1.32944 0
M  V30 1098 H 94.4476 -4.17632 3.5758 0
M  V30 1099 H 95.6726 -5.20676 4.35974 0
M  V30 1100 H 93.6186 -6.13696 2.3176 0
M  V30 1101 H 93.5356 -6.39685 4.02913 0
M  V30 1102 H 94.8036 -7.14868 3.10779 0
M  V30 1103 N 99.0327 -1.24633 -0.964593 0
M  V30 1104 C 99.9807 -1.03917 -2.08096 0
M  V30 1105 C 100.975 0.0268581 -1.69379 0
M  V30 1106 O 102.181 -0.127952 -1.79545 0
M  V30 1107 H 98.5557 -0.319044 -0.680966 0
M  V30 1108 H 100.527 -1.98581 -2.22729 0
M  V30 1109 C 99.2757 -0.663983 -3.41301 0
M  V30 1110 H 98.5987 -1.47605 -3.71555 0
M  V30 1111 H 100.039 -0.558663 -4.20303 0
M  V30 1112 C 98.4977 0.629169 -3.30973 0
M  V30 1113 O 99.0277 1.67404 -3.65156 0
M  V30 1114 N 97.2337 0.611057 -2.84103 0
M  V30 1115 H 96.7807 -0.239593 -2.56483 0
M  V30 1116 H 96.7387 1.47647 -2.77575 0
M  V30 1117 N 100.511 1.16574 -1.06058 0
M  V30 1118 C 101.459 2.22941 -0.663343 0
M  V30 1119 C 102.453 1.66358 0.319593 0
M  V30 1120 O 103.659 1.7905 0.184713 0
M  V30 1121 H 100.034 0.725907 -0.196376 0
M  V30 1122 H 102.005 2.53736 -1.57037 0
M  V30 1123 C 100.754 3.47642 -0.0632808 0
M  V30 1124 H 100.077 3.91493 -0.810733 0
M  V30 1125 H 101.517 4.2363 0.177177 0
M  V30 1126 C 99.9758 3.1509 1.19248 0
M  V30 1127 O 100.506 3.30673 2.28075 0
M  V30 1128 N 98.7118 2.6924 1.09353 0
M  V30 1129 H 98.2588 2.5676 0.207912 0
M  V30 1130 H 98.2168 2.47833 1.93458 0
M  V30 1131 N 101.989 0.842826 1.3317 0
M  V30 1132 C 102.937 0.267495 2.31057 0
M  V30 1133 C 103.931 -0.602682 1.58316 0
M  V30 1134 O 105.137 -0.491803 1.73151 0
M  V30 1135 H 101.512 0.0677813 0.748939 0
M  V30 1136 H 103.483 1.10754 2.77085 0
M  V30 1137 C 102.232 -0.539331 3.43492 0
M  V30 1138 H 101.555 0.12095 3.99617 0
M  V30 1139 H 102.995 -0.90767 4.14171 0
M  V30 1140 C 101.454 -1.71981 2.89697 0
M  V30 1141 O 101.984 -2.81862 2.86211 0
M  V30 1142 N 100.19 -1.54299 2.46252 0
M  V30 1143 H 99.7369 -0.649143 2.49287 0
M  V30 1144 H 99.6949 -2.33431 2.10612 0
M  V30 1145 N 103.467 -1.45747 0.599634 0
M  V30 1146 C 104.744 -1.95585 0.0240846 0
M  V30 1147 C 105.124 -1.54217 -1.44154 0
M  V30 1148 O 104.472 -0.800903 -2.14004 0
M  V30 1149 C 104.682 -3.48344 0.21385 0
M  V30 1150 C 106.03 -4.24504 0.0904902 0
M  V30 1151 O 107.054 -3.55911 0.143558 0
M  V30 1152 O 105.913 -5.46491 -0.0310766 0
M  V30 1153 H 103.007 -0.82602 -0.0402478 0
M  V30 1154 H 105.553 -1.55951 0.669139 0
M  V30 1155 H 104.325 -3.71397 1.23206 0
M  V30 1156 H 103.948 -3.9485 -0.466842 0
M  V30 1157 N 104.945 -0.338344 -1.53925 0
M  V30 1158 C 106.361 0.0137736 -1.59594 0
M  V30 1159 C 106.561 1.49186 -1.35447 0
M  V30 1160 O 105.617 2.24987 -1.14616 0
M  V30 1161 C 106.93 -0.41773 -2.97784 0
M  V30 1162 C 108.478 -0.369633 -3.1081 0
M  V30 1163 C 108.953 -0.776524 -4.51369 0
M  V30 1164 N 110.444 -0.730506 -4.57403 0
M  V30 1165 C 111.179 -1.01736 -5.64303 0
M  V30 1166 N 110.675 -1.3721 -6.79077 0
M  V30 1167 N 112.468 -0.941942 -5.54151 0
M  V30 1168 H 104.619 -1.3012 -1.67876 0
M  V30 1169 H 106.882 -0.530082 -0.78595 0
M  V30 1170 H 106.588 -1.44811 -3.20504 0
M  V30 1171 H 106.462 0.209729 -3.76616 0
M  V30 1172 H 108.849 0.651568 -2.87817 0
M  V30 1173 H 108.93 -1.03223 -2.34049 0
M  V30 1174 H 108.574 -1.79571 -4.75096 0
M  V30 1175 H 108.504 -0.0914649 -5.26521 0
M  V30 1176 H 110.995 -0.468783 -3.74981 0
M  V30 1177 H 111.308 -1.57597 -7.5656 0
M  V30 1178 H 109.653 -1.4105 -6.80536 0
M  V30 1179 H 112.844 -0.664184 -4.63364 0
M  V30 1180 H 113.017 -1.16884 -6.37371 0
M  V30 1181 N 106.423 1.57458 -0.0668435 0
M  V30 1182 C 107.653 1.97337 0.611677 0
M  V30 1183 C 108.061 0.943744 1.63982 0
M  V30 1184 O 107.404 -0.0785584 1.83532 0
M  V30 1185 C 107.466 3.33511 1.34205 0
M  V30 1186 C 107.13 4.54598 0.467941 0
M  V30 1187 C 108.127 5.19186 -0.272439 0
M  V30 1188 C 105.812 5.0075 0.39427 0
M  V30 1189 C 107.806 6.28274 -1.07476 0
M  V30 1190 C 105.493 6.09711 -0.411729 0
M  V30 1191 C 106.491 6.73335 -1.14492 0
M  V30 1192 O 106.179 7.80199 -1.93763 0
M  V30 1193 H 105.911 0.654042 0.170893 0
M  V30 1194 H 108.465 2.04961 -0.134289 0
M  V30 1195 H 106.695 3.22487 2.13398 0
M  V30 1196 H 108.384 3.58029 1.91233 0
M  V30 1197 H 109.15 4.84477 -0.225086 0
M  V30 1198 H 105.029 4.51009 0.954569 0
M  V30 1199 H 108.573 6.77866 -1.64755 0
M  V30 1200 H 104.47 6.43854 -0.460664 0
M  V30 1201 H 105.238 7.97053 -1.86142 0
M  V30 1202 N 107.901 -0.206675 1.56239 0
M  V30 1203 C 109.147 -0.930218 1.80208 0
M  V30 1204 C 109.48 -1.83387 0.638981 0
M  V30 1205 O 108.755 -1.91119 -0.361066 0
M  V30 1206 C 109.038 -1.75641 3.1436 0
M  V30 1207 C 108.891 -0.878257 4.41142 0
M  V30 1208 C 110.21 -2.73129 3.45092 0
M  V30 1209 H 107.329 -0.336742 0.655571 0
M  V30 1210 H 109.971 -0.198222 1.88963 0
M  V30 1211 H 108.121 -2.38048 3.07027 0
M  V30 1212 H 109.793 -0.269787 4.6051 0
M  V30 1213 H 108.036 -0.184385 4.33408 0
M  V30 1214 H 108.707 -1.49106 5.3148 0
M  V30 1215 H 111.183 -2.20856 3.52649 0
M  V30 1216 H 110.059 -3.28028 4.40101 0
M  V30 1217 H 110.32 -3.51606 2.68003 0
M  V30 1218 N 109.379 -1.50304 -0.473955 0
M  V30 1219 C 110.795 -1.37667 -0.807466 0
M  V30 1220 C 110.995 -0.430555 -1.96846 0
M  V30 1221 O 110.051 0.127874 -2.52176 0
M  V30 1222 C 111.364 -2.78974 -1.12223 0
M  V30 1223 C 112.912 -2.87868 -1.22885 0
M  V30 1224 C 113.387 -4.30003 -1.57676 0
M  V30 1225 N 114.878 -4.3294 -1.64673 0
M  V30 1226 C 115.613 -5.3991 -1.93091 0
M  V30 1227 N 115.109 -6.57092 -2.1955 0
M  V30 1228 N 116.902 -5.27351 -1.94569 0
M  V30 1229 H 109.053 -2.10394 0.291212 0
M  V30 1230 H 111.316 -0.945575 0.0677609 0
M  V30 1231 H 111.022 -3.50031 -0.342229 0
M  V30 1232 H 110.896 -3.16038 -2.05913 0
M  V30 1233 H 113.283 -2.17032 -1.99953 0
M  V30 1234 H 113.364 -2.54352 -0.271814 0
M  V30 1235 H 113.008 -5.01375 -0.81149 0
M  V30 1236 H 112.938 -4.61004 -2.54525 0
M  V30 1237 H 115.429 -3.48441 -1.46277 0
M  V30 1238 H 115.742 -7.34425 -2.405 0
M  V30 1239 H 114.087 -6.60272 -2.16948 0
M  V30 1240 H 117.278 -4.34801 -1.73394 0
M  V30 1241 H 117.451 -6.10805 -2.16381 0
M  V30 1242 N 110.857 0.726932 -1.39834 0
M  V30 1243 C 112.106 1.48214 -1.36805 0
M  V30 1244 C 112.419 1.95576 0.0305291 0
M  V30 1245 O 113.625 2.7088 0.183417 0
M  V30 1246 C 112.081 2.67854 -2.40379 0
M  V30 1247 C 111.689 2.27408 -3.85992 0
M  V30 1248 C 113.433 3.45641 -2.46439 0
M  V30 1249 C 111.34 3.43819 -4.81189 0
M  V30 1250 H 110.27 0.556606 -0.508631 0
M  V30 1251 H 112.921 0.792216 -1.65518 0
M  V30 1252 H 111.303 3.3896 -2.04749 0
M  V30 1253 H 112.477 1.63795 -4.30706 0
M  V30 1254 H 110.792 1.62692 -3.83302 0
M  V30 1255 H 113.389 4.32244 -3.14753 0
M  V30 1256 H 113.732 3.88669 -1.49139 0
M  V30 1257 H 114.265 2.8157 -2.81004 0
M  V30 1258 H 111.004 3.05834 -5.79781 0
M  V30 1259 H 110.524 4.06385 -4.41148 0
M  V30 1260 H 112.203 4.10043 -5.00474 0
M  V30 1261 N 112.336 1.25143 0.95797 0
M  V30 1262 C 113.266 1.07711 2.07173 0
M  V30 1263 C 114.247 -0.0128462 1.70095 0
M  V30 1264 O 115.432 0.156061 1.93572 0
M  V30 1265 C 112.562 0.691503 3.40346 0
M  V30 1266 C 111.516 1.73132 3.9142 0
M  V30 1267 C 110.842 1.20049 5.21049 0
M  V30 1268 C 112.142 3.1294 4.1817 0
M  V30 1269 H 113.836 2.00873 2.22014 0
M  V30 1270 H 111.382 0.967191 1.06684 0
M  V30 1271 H 113.335 0.556505 4.17709 0
M  V30 1272 H 112.059 -0.275819 3.25433 0
M  V30 1273 H 110.718 1.8547 3.16222 0
M  V30 1274 H 110.366 0.223499 5.02503 0
M  V30 1275 H 110.066 1.89545 5.56189 0
M  V30 1276 H 111.59 1.07782 6.01012 0
M  V30 1277 H 113.004 3.03775 4.86203 0
M  V30 1278 H 111.401 3.79875 4.64559 0
M  V30 1279 H 112.471 3.6025 3.24573 0
M  V30 1280 N 113.814 -1.1601 1.06675 0
M  V30 1281 C 115.039 -1.91068 0.806706 0
M  V30 1282 C 115.464 -1.77112 -0.633485 0
M  V30 1283 O 114.822 -1.09908 -1.44187 0
M  V30 1284 C 114.87 -3.39655 1.21106 0
M  V30 1285 O 113.974 -4.10893 0.352189 0
M  V30 1286 H 113.315 -0.595125 0.294486 0
M  V30 1287 H 115.845 -1.46955 1.42356 0
M  V30 1288 H 115.855 -3.90434 1.18428 0
M  V30 1289 H 114.53 -3.49132 2.26008 0
M  V30 1290 H 113.107 -3.70285 0.440868 0
M  V30 1291 N 115.292 -0.849877 -1.32721 0
M  V30 1292 C 116.202 -0.293791 -2.32753 0
M  V30 1293 C 117.218 0.585906 -1.63839 0
M  V30 1294 O 118.394 0.487413 -1.95413 0
M  V30 1295 C 115.459 0.512752 -3.42887 0
M  V30 1296 C 114.52 -0.39252 -4.27502 0
M  V30 1297 C 113.753 0.375625 -5.32377 0
M  V30 1298 O 113.976 1.60613 -5.4732 0
M  V30 1299 O 112.91 -0.256094 -6.01355 0
M  V30 1300 H 116.736 -1.12242 -2.82197 0
M  V30 1301 H 114.321 -0.612685 -1.36259 0
M  V30 1302 H 116.203 0.970704 -4.10067 0
M  V30 1303 H 114.878 1.31826 -2.95641 0
M  V30 1304 H 113.785 -0.898547 -3.63149 0
M  V30 1305 H 115.118 -1.16309 -4.7826 0
M  V30 1306 N 116.77 1.45427 -0.607355 0
M  V30 1307 C 117.998 2.06614 -0.108814 0
M  V30 1308 C 118.413 1.45204 1.2067 0
M  V30 1309 O 117.77 0.566132 1.73497 0
M  V30 1310 C 117.821 3.61481 0.0375347 0
M  V30 1311 O 117.542 4.20598 -1.22593 0
M  V30 1312 C 119.043 4.39652 0.567561 0
M  V30 1313 H 116.263 0.66747 -0.0687351 0
M  V30 1314 H 118.807 1.86675 -0.835022 0
M  V30 1315 H 116.962 3.80762 0.714068 0
M  V30 1316 H 117.376 5.1377 -1.05547 0
M  V30 1317 H 118.85 5.48518 0.61905 0
M  V30 1318 H 119.327 4.09417 1.58978 0
M  V30 1319 H 119.933 4.25234 -0.0749202 0
M  V30 1320 N 118.248 0.346503 1.53744 0
M  V30 1321 C 119.158 -0.517293 2.28826 0
M  V30 1322 C 120.174 -1.10935 1.3405 0
M  V30 1323 O 121.35 -1.1244 1.6709 0
M  V30 1324 C 118.415 -1.65098 3.04866 0
M  V30 1325 C 117.476 -1.0884 4.15274 0
M  V30 1326 C 116.709 -2.16806 4.87679 0
M  V30 1327 O 116.932 -3.3758 4.59778 0
M  V30 1328 O 115.866 -1.80934 5.74061 0
M  V30 1329 H 119.692 0.0931396 3.03557 0
M  V30 1330 H 117.277 0.111458 1.48984 0
M  V30 1331 H 119.159 -2.31053 3.5241 0
M  V30 1332 H 117.834 -2.24717 2.32989 0
M  V30 1333 H 116.741 -0.3933 3.72027 0
M  V30 1334 H 118.074 -0.537036 4.89261 0
M  V30 1335 N 119.726 -1.57421 0.075193 0
M  V30 1336 C 121.137 -1.81021 -0.456964 0
M  V30 1337 C 121.488 -0.98936 -1.69429 0
M  V30 1338 O 120.613 -0.212865 -2.15351 0
M  V30 1339 C 121.208 -3.28329 -0.83581 0
M  V30 1340 C 119.767 -3.52764 -1.31281 0
M  V30 1341 C 118.914 -2.75676 -0.299648 0
M  V30 1342 H 121.865 -1.55822 0.300856 0
M  V30 1343 H 121.886 -3.40564 -1.69696 0
M  V30 1344 H 121.398 -3.88046 0.0649238 0
M  V30 1345 H 119.499 -2.98355 -2.23193 0
M  V30 1346 H 119.612 -4.61451 -1.28839 0
M  V30 1347 H 117.976 -2.42538 -0.777641 0
M  V30 1348 H 118.759 -3.38132 0.593417 0
M  V30 1349 N 121.204 0.198386 -1.56346 0
M  V30 1350 C 122.615 0.763358 -1.70381 0
M  V30 1351 C 122.966 1.83995 -0.681203 0
M  V30 1352 O 122.091 2.15785 0.16305 0
M  V30 1353 C 122.686 1.39143 -3.08909 0
M  V30 1354 C 121.245 1.90352 -3.2472 0
M  V30 1355 C 120.392 0.772233 -2.6633 0
M  V30 1356 H 123.343 -0.0266377 -1.58678 0
M  V30 1357 H 123.364 2.26076 -3.06055 0
M  V30 1358 H 122.876 0.607638 -3.83314 0
M  V30 1359 H 120.977 2.71461 -2.55225 0
M  V30 1360 H 121.09 2.06757 -4.3219 0
M  V30 1361 H 119.454 1.18566 -2.2542 0
M  V30 1362 H 120.237 0.00073556 -3.433 0
M  V30 1363 N 122.682 1.50554 0.465978 0
M  V30 1364 C 123.615 1.64436 1.58227 0
M  V30 1365 C 124.593 0.492367 1.54966 0
M  V30 1366 O 125.777 0.712536 1.74514 0
M  V30 1367 C 122.904 1.63165 2.96808 0
M  V30 1368 C 121.95 2.83987 3.18204 0
M  V30 1369 S 122.783 4.45219 2.97557 0
M  V30 1370 C 123.939 4.46649 4.3847 0
M  V30 1371 H 124.172 2.58861 1.46213 0
M  V30 1372 H 121.705 1.3988 0.653678 0
M  V30 1373 H 123.663 1.63116 3.76701 0
M  V30 1374 H 122.324 0.69967 3.06208 0
M  V30 1375 H 121.517 2.79416 4.19455 0
M  V30 1376 H 121.119 2.81629 2.46092 0
M  V30 1377 H 123.411 4.20526 5.31191 0
M  V30 1378 H 124.354 5.48295 4.48082 0
M  V30 1379 H 124.762 3.76296 4.20787 0
M  V30 1380 N 124.16 -0.719506 1.40217 0
M  V30 1381 C 125.385 -1.51371 1.4178 0
M  V30 1382 C 125.81 -1.88091 0.0182355 0
M  V30 1383 O 125.168 -1.52997 -0.972707 0
M  V30 1384 C 125.216 -2.768 2.31115 0
M  V30 1385 O 124.32 -3.73349 1.7517 0
M  V30 1386 H 123.661 -0.456529 0.482159 0
M  V30 1387 H 126.191 -0.88644 1.844 0
M  V30 1388 H 126.201 -3.25371 2.46167 0
M  V30 1389 H 124.876 -2.49407 3.3282 0
M  V30 1390 H 123.453 -3.32179 1.69444 0
M  V30 1391 N 125.638 -1.25649 -0.95132 0
M  V30 1392 C 126.568 -1.08808 -2.06599 0
M  V30 1393 C 127.549 0.00382547 -1.701 0
M  V30 1394 O 128.734 -0.166325 -1.93486 0
M  V30 1395 C 125.864 -0.709542 -3.39975 0
M  V30 1396 C 124.818 -1.75206 -3.90496 0
M  V30 1397 C 124.144 -1.22811 -5.20405 0
M  V30 1398 C 125.444 -3.15153 -4.16504 0
M  V30 1399 H 127.138 -2.02048 -2.20946 0
M  V30 1400 H 124.684 -0.972835 -1.06169 0
M  V30 1401 H 126.637 -0.578649 -4.17408 0
M  V30 1402 H 125.361 0.258556 -3.25575 0
M  V30 1403 H 124.02 -1.87145 -3.15234 0
M  V30 1404 H 123.668 -0.250145 -5.02378 0
M  V30 1405 H 123.368 -1.92492 -5.55176 0
M  V30 1406 H 124.892 -1.10968 -6.00432 0
M  V30 1407 H 126.306 -3.06349 -4.84586 0
M  V30 1408 H 124.703 -3.82333 -4.62538 0
M  V30 1409 H 125.773 -3.61966 -3.22658 0
M  V30 1410 N 127.117 1.15442 -1.07289 0
M  V30 1411 C 128.027 2.23786 -0.704057 0
M  V30 1412 C 129.043 1.7166 0.284413 0
M  V30 1413 O 130.219 2.00972 0.131205 0
M  V30 1414 C 127.284 3.46535 -0.106792 0
M  V30 1415 C 126.345 4.13654 -1.14842 0
M  V30 1416 C 125.578 5.30544 -0.57956 0
M  V30 1417 O 125.801 5.67187 0.604585 0
M  V30 1418 O 124.735 5.87154 -1.32414 0
M  V30 1419 H 128.561 2.57664 -1.60757 0
M  V30 1420 H 126.146 1.23152 -0.845803 0
M  V30 1421 H 128.028 4.20804 0.224048 0
M  V30 1422 H 126.703 3.14407 0.770049 0
M  V30 1423 H 125.61 3.4131 -1.5316 0
M  V30 1424 H 126.943 4.49861 -1.99714 0
M  V30 1425 N 128.595 0.856903 1.32268 0
M  V30 1426 C 129.505 0.306131 2.32594 0
M  V30 1427 C 130.521 -0.577209 1.64147 0
M  V30 1428 O 131.697 -0.477043 1.95669 0
M  V30 1429 C 128.762 -0.494561 3.43154 0
M  V30 1430 C 127.823 0.415186 4.27288 0
M  V30 1431 C 127.056 -0.347387 5.32568 0
M  V30 1432 O 127.279 -1.57708 5.48165 0
M  V30 1433 O 126.213 0.287982 6.01211 0
M  V30 1434 H 130.039 1.13737 2.81598 0
M  V30 1435 H 127.624 0.619902 1.35932 0
M  V30 1436 H 129.506 -0.948944 4.10576 0
M  V30 1437 H 128.181 -1.30257 2.96336 0
M  V30 1438 H 127.088 0.917793 3.62667 0
M  V30 1439 H 128.421 1.18844 4.77637 0
M  V30 1440 N 130.073 -1.45103 0.615059 0
M  V30 1441 C 131.322 -2.01396 0.110718 0
M  V30 1442 C 131.635 -1.48834 -1.26916 0
M  V30 1443 O 132.841 -1.97152 -1.86664 0
M  V30 1444 C 131.297 -3.59599 0.14723 0
M  V30 1445 C 130.905 -4.21158 1.52743 0
M  V30 1446 C 132.649 -4.23428 -0.30148 0
M  V30 1447 C 130.556 -5.71535 1.51992 0
M  V30 1448 H 129.486 -0.753061 0.0376241 0
M  V30 1449 H 132.137 -1.66494 0.77149 0
M  V30 1450 H 130.519 -3.91724 -0.580339 0
M  V30 1451 H 131.693 -4.00594 2.2773 0
M  V30 1452 H 130.008 -3.69552 1.91886 0
M  V30 1453 H 132.605 -5.33703 -0.326392 0
M  V30 1454 H 132.948 -3.94629 -1.32565 0
M  V30 1455 H 133.481 -3.96047 0.373065 0
M  V30 1456 H 130.22 -6.05044 2.52193 0
M  V30 1457 H 129.74 -5.94268 0.81274 0
M  V30 1458 H 131.419 -6.34873 1.24681 0
M  V30 1459 N 131.551 -0.354651 -1.53558 0
M  V30 1460 C 132.484 0.540273 -2.21712 0
M  V30 1461 C 133.462 1.09161 -1.2051 0
M  V30 1462 O 134.646 1.14979 -1.49372 0
M  V30 1463 C 131.773 1.74435 -2.90328 0
M  V30 1464 C 130.819 1.32146 -4.05512 0
M  V30 1465 S 131.652 0.331924 -5.3447 0
M  V30 1466 C 132.808 1.54258 -6.06593 0
M  V30 1467 H 133.041 -0.0385776 -2.97275 0
M  V30 1468 H 130.574 -0.138736 -1.53775 0
M  V30 1469 H 132.532 2.43507 -3.30476 0
M  V30 1470 H 131.193 2.29444 -2.1451 0
M  V30 1471 H 130.386 2.21952 -4.52497 0
M  V30 1472 H 129.988 0.710091 -3.67197 0
M  V30 1473 H 132.28 2.47534 -6.30661 0
M  V30 1474 H 133.223 1.11431 -6.99277 0
M  V30 1475 H 133.631 1.74367 -5.36895 0
M  V30 1476 N 133.029 1.57378 -0.0835403 0
M  V30 1477 C 134.445 1.57246 0.273109 0
M  V30 1478 C 134.645 1.09385 1.69225 0
M  V30 1479 O 133.701 0.765051 2.40631 0
M  V30 1480 C 135.014 3.00614 0.0720628 0
M  V30 1481 C 136.562 3.12684 0.1407 0
M  V30 1482 C 137.037 4.57989 -0.0322094 0
M  V30 1483 N 138.528 4.63194 0.0230085 0
M  V30 1484 C 139.263 5.73335 -0.0861941 0
M  V30 1485 N 138.759 6.9235 -0.24958 0
M  V30 1486 N 140.552 5.62093 -0.0282886 0
M  V30 1487 H 132.703 1.86801 -1.0109 0
M  V30 1488 H 134.966 0.861687 -0.395222 0
M  V30 1489 H 134.672 3.39786 -0.907662 0
M  V30 1490 H 134.546 3.68193 0.81936 0
M  V30 1491 H 136.933 2.73391 1.11092 0
M  V30 1492 H 137.014 2.47719 -0.637896 0
M  V30 1493 H 136.658 4.97973 -0.999247 0
M  V30 1494 H 136.588 5.21 0.765937 0
M  V30 1495 H 139.079 3.77613 0.14722 0
M  V30 1496 H 139.392 7.72117 -0.324733 0
M  V30 1497 H 137.737 6.94415 -0.285097 0
M  V30 1498 H 140.928 4.67997 0.0981408 0
M  V30 1499 H 141.101 6.47895 -0.116845 0
M  V30 1500 N 134.507 -0.190092 1.56449 0
M  V30 1501 C 135.735 -0.925772 1.85033 0
M  V30 1502 C 136.15 -1.76638 0.666658 0
M  V30 1503 O 135.507 -1.78822 -0.364565 0
M  V30 1504 C 135.558 -1.81786 3.12468 0
M  V30 1505 O 135.279 -1.01118 4.26271 0
M  V30 1506 C 136.78 -2.6648 3.54265 0
M  V30 1507 H 134 -0.269872 0.614337 0
M  V30 1508 H 136.544 -0.195837 2.0356 0
M  V30 1509 H 134.699 -2.50136 2.95822 0
M  V30 1510 H 135.113 -1.61956 4.98869 0
M  V30 1511 H 136.587 -3.24722 4.46385 0
M  V30 1512 H 137.064 -3.40434 2.77491 0
M  V30 1513 H 137.67 -2.03493 3.73458 0
M  V30 1514 N 135.985 -1.50799 -0.457987 0
M  V30 1515 C 137.232 -1.62442 -1.20908 0
M  V30 1516 C 137.56 -0.330865 -1.91665 0
M  V30 1517 O 136.815 0.68401 -1.83357 0
M  V30 1518 C 137.114 -2.76358 -2.2663 0
M  V30 1519 C 136.78 -4.16378 -1.73033 0
M  V30 1520 C 135.442 -4.54473 -1.58138 0
M  V30 1521 C 137.794 -5.03836 -1.33413 0
M  V30 1522 C 135.122 -5.77754 -1.02065 0
M  V30 1523 C 137.474 -6.27676 -0.78778 0
M  V30 1524 C 136.138 -6.64562 -0.625561 0
M  V30 1525 H 135.408 -0.594417 -0.442435 0
M  V30 1526 H 138.055 -1.84772 -0.503136 0
M  V30 1527 H 136.36 -2.48167 -3.03184 0
M  V30 1528 H 138.057 -2.82568 -2.84528 0
M  V30 1529 H 134.647 -3.86331 -1.85598 0
M  V30 1530 H 138.831 -4.75026 -1.4375 0
M  V30 1531 H 134.087 -6.04997 -0.882547 0
M  V30 1532 H 138.261 -6.94797 -0.472177 0
M  V30 1533 H 135.888 -7.59965 -0.188926 0
M  V30 1534 N 137.463 0.71206 -1.40597 0
M  V30 1535 C 138.74 1.46536 -1.29563 0
M  V30 1536 C 139.12 2.10931 0.0844217 0
M  V30 1537 O 138.468 2.00418 1.0975 0
M  V30 1538 C 138.678 2.49821 -2.43701 0
M  V30 1539 C 140.026 3.15551 -2.841 0
M  V30 1540 O 141.05 2.60142 -2.4332 0
M  V30 1541 O 139.909 4.15867 -3.54566 0
M  V30 1542 H 137.003 0.651801 -0.509004 0
M  V30 1543 H 139.549 0.743935 -1.52524 0
M  V30 1544 H 138.321 2.00778 -3.35863 0
M  V30 1545 H 137.944 3.29495 -2.22528 0
M  V30 1546 N 138.941 1.26152 0.944643 0
M  V30 1547 C 139.851 1.09176 2.07648 0
M  V30 1548 C 140.867 0.0261935 1.7398 0
M  V30 1549 O 142.043 0.229208 2.00091 0
M  V30 1550 C 139.108 0.722915 3.39079 0
M  V30 1551 C 138.169 1.86752 3.86552 0
M  V30 1552 C 137.402 1.51617 5.11711 0
M  V30 1553 O 137.625 0.416331 5.68879 0
M  V30 1554 O 136.559 2.34975 5.54139 0
M  V30 1555 H 140.385 2.0412 2.24875 0
M  V30 1556 H 137.97 1.05182 1.061 0
M  V30 1557 H 139.852 0.529787 4.18056 0
M  V30 1558 H 138.527 -0.197159 3.23099 0
M  V30 1559 H 137.434 2.11558 3.08535 0
M  V30 1560 H 138.767 2.76719 4.07047 0
M  V30 1561 N 140.419 -1.14872 1.07899 0
M  V30 1562 C 141.696 -1.81928 0.71845 0
M  V30 1563 C 142.076 -1.95417 -0.798455 0
M  V30 1564 O 141.424 -1.50997 -1.715 0
M  V30 1565 C 141.634 -3.17937 1.43935 0
M  V30 1566 C 142.982 -3.93501 1.59506 0
M  V30 1567 O 144.006 -3.27509 1.40058 0
M  V30 1568 O 142.865 -5.1183 1.91551 0
M  V30 1569 H 139.959 -0.78628 0.256305 0
M  V30 1570 H 142.505 -1.21934 1.18026 0
M  V30 1571 H 141.277 -3.0325 2.47295 0
M  V30 1572 H 140.9 -3.85619 0.968687 0
M  V30 1573 N 141.898 -0.863906 -1.31812 0
M  V30 1574 C 142.848 -0.286898 -2.26188 0
M  V30 1575 C 143.832 0.572577 -1.50367 0
M  V30 1576 O 145.024 0.420447 -1.71934 0
M  V30 1577 C 142.153 0.515849 -3.39402 0
M  V30 1578 C 141.239 -0.356531 -4.22599 0
M  V30 1579 N 141.63 -1.44716 -4.84656 0
M  V30 1580 C 139.928 -0.147898 -4.45755 0
M  V30 1581 C 140.629 -1.98462 -5.46798 0
M  V30 1582 N 139.605 -1.28247 -5.28255 0
M  V30 1583 H 143.407 -1.12055 -2.717 0
M  V30 1584 H 140.921 -0.711012 -1.46008 0
M  V30 1585 H 142.918 0.945701 -4.06032 0
M  V30 1586 H 141.578 1.34718 -2.95434 0
M  V30 1587 H 142.589 -1.83008 -4.84488 0
M  V30 1588 H 139.266 0.647973 -4.12441 0
M  V30 1589 H 140.656 -2.89932 -6.06126 0
M  V30 1590 N 143.376 1.44774 -0.622745 0
M  V30 1591 C 144.306 2.33382 0.0741861 0
M  V30 1592 C 145.287 1.47719 0.843387 0
M  V30 1593 O 146.472 1.76458 0.810934 0
M  V30 1594 C 143.602 3.30663 1.06204 0
M  V30 1595 C 142.556 4.26079 0.405037 0
M  V30 1596 C 141.882 5.13165 1.5022 0
M  V30 1597 C 143.182 5.1781 -0.683414 0
M  V30 1598 H 144.876 2.91905 -0.665713 0
M  V30 1599 H 142.422 1.40363 -0.321587 0
M  V30 1600 H 144.375 3.9153 1.55827 0
M  V30 1601 H 143.099 2.70331 1.83272 0
M  V30 1602 H 141.758 3.66532 -0.0704683 0
M  V30 1603 H 141.406 4.49191 2.26355 0
M  V30 1604 H 141.106 5.77812 1.06803 0
M  V30 1605 H 142.63 5.76902 2.00041 0
M  V30 1606 H 144.044 5.72661 -0.270631 0
M  V30 1607 H 142.441 5.91015 -1.04023 0
M  V30 1608 H 143.511 4.59326 -1.55395 0
M  V30 1609 N 144.854 0.36279 1.53368 0
M  V30 1610 C 146.084 -0.228281 2.05335 0
M  V30 1611 C 146.492 -1.43226 1.23625 0
M  V30 1612 O 145.835 -1.81717 0.269206 0
M  V30 1613 C 145.897 -0.688549 3.52845 0
M  V30 1614 C 145.561 0.398362 4.5526 0
M  V30 1615 C 146.558 1.24732 5.04716 0
M  V30 1616 C 144.243 0.557805 4.99193 0
M  V30 1617 C 146.237 2.2411 5.96702 0
M  V30 1618 C 143.924 1.55495 5.90986 0
M  V30 1619 C 144.922 2.39503 6.39631 0
M  V30 1620 O 144.61 3.37517 7.29615 0
M  V30 1621 H 144.342 -0.044395 0.674541 0
M  V30 1622 H 146.896 0.518668 1.98744 0
M  V30 1623 H 145.126 -1.48706 3.56964 0
M  V30 1624 H 146.815 -1.20231 3.87685 0
M  V30 1625 H 147.581 1.13532 4.71525 0
M  V30 1626 H 143.46 -0.0862959 4.60919 0
M  V30 1627 H 147.004 2.89718 6.34594 0
M  V30 1628 H 142.901 1.66744 6.23592 0
M  V30 1629 H 143.669 3.33213 7.47604 0
M  V30 1630 N 146.332 -1.57332 0.0918853 0
M  V30 1631 C 147.557 -1.98995 -0.584442 0
M  V30 1632 C 147.982 -0.970528 -1.61128 0
M  V30 1633 O 147.34 0.0613904 -1.81196 0
M  V30 1634 C 147.388 -3.39636 -1.21161 0
M  V30 1635 O 146.492 -3.40447 -2.32744 0
M  V30 1636 H 145.833 -0.647165 -0.148572 0
M  V30 1637 H 148.363 -2.03873 0.172347 0
M  V30 1638 H 148.373 -3.7726 -1.55367 0
M  V30 1639 H 147.048 -4.13356 -0.459313 0
M  V30 1640 H 145.625 -3.14614 -2.0018 0
M  V30 1641 N 147.81 0.181792 -1.56548 0
M  V30 1642 C 149.059 0.898348 -1.8059 0
M  V30 1643 C 149.372 1.83862 -0.667379 0
M  V30 1644 O 150.578 2.59678 -0.792446 0
M  V30 1645 C 149.034 1.64791 -3.19956 0
M  V30 1646 C 148.642 0.751789 -4.41647 0
M  V30 1647 C 150.386 2.35331 -3.53298 0
M  V30 1648 C 148.293 1.50098 -5.72035 0
M  V30 1649 H 147.223 0.339194 -0.673397 0
M  V30 1650 H 149.874 0.151413 -1.82874 0
M  V30 1651 H 148.256 2.43921 -3.11959 0
M  V30 1652 H 149.43 -0.0018076 -4.608 0
M  V30 1653 H 147.745 0.156562 -4.16106 0
M  V30 1654 H 150.342 2.91958 -4.47956 0
M  V30 1655 H 150.685 3.10164 -2.77676 0
M  V30 1656 H 151.218 1.63154 -3.62803 0
M  V30 1657 H 147.957 0.795175 -6.50659 0
M  V30 1658 H 147.477 2.22817 -5.56878 0
M  V30 1659 H 149.156 2.05125 -6.13622 0
M  V30 1660 N 149.288 1.51039 0.449983 0
M  V30 1661 C 150.704 1.38934 0.785462 0
M  V30 1662 C 150.904 0.461817 1.96136 0
M  V30 1663 O 149.96 -0.0877389 2.52348 0
M  V30 1664 C 151.273 2.80724 1.0777 0
M  V30 1665 C 152.821 2.89787 1.1829 0
M  V30 1666 C 153.296 4.32457 1.50815 0
M  V30 1667 N 154.787 4.35505 1.57764 0
M  V30 1668 C 155.522 5.42914 1.84477 0
M  V30 1669 N 155.018 6.60502 2.09068 0
M  V30 1670 N 156.811 5.3038 1.86155 0
M  V30 1671 H 148.962 2.09904 -0.324647 0
M  V30 1672 H 151.225 0.944378 -0.0827957 0
M  V30 1673 H 150.931 3.50531 0.286498 0
M  V30 1674 H 150.805 3.19273 2.00859 0
M  V30 1675 H 153.192 2.20186 1.96474 0
M  V30 1676 H 153.273 2.54752 0.231314 0
M  V30 1677 H 152.917 5.02603 0.731622 0
M  V30 1678 H 152.847 4.64995 2.47158 0
M  V30 1679 H 155.338 3.50724 1.40715 0
M  V30 1680 H 155.651 7.38158 2.28785 0
M  V30 1681 H 153.996 6.63639 2.06416 0
M  V30 1682 H 157.187 4.37505 1.66454 0
M  V30 1683 H 157.36 6.1417 2.06637 0
M  V30 1684 N 150.766 -0.704594 1.40972 0
M  V30 1685 C 151.714 -1.83994 1.42299 0
M  V30 1686 C 152.708 -1.66684 0.302111 0
M  V30 1687 O 153.914 -1.73655 0.473697 0
M  V30 1688 H 150.289 -0.606171 0.44504 0
M  V30 1689 H 152.26 -1.79992 2.38003 0
M  V30 1690 C 151.009 -3.21946 1.31323 0
M  V30 1691 H 150.332 -3.35878 2.16855 0
M  V30 1692 H 151.772 -4.01491 1.36311 0
M  V30 1693 C 150.231 -3.36891 0.0245977 0
M  V30 1694 O 150.761 -3.90687 -0.934153 0
M  V30 1695 N 148.967 -2.90559 -0.0485243 0
M  V30 1696 H 148.514 -2.46968 0.732419 0
M  V30 1697 H 148.472 -3.00937 -0.910171 0
M  V30 1698 N 152.244 -1.26651 -0.937939 0
M  V30 1699 C 153.474 -1.15006 -1.71631 0
M  V30 1700 C 153.882 0.297026 -1.86854 0
M  V30 1701 O 153.225 1.21493 -1.37786 0
M  V30 1702 C 153.287 -1.74984 -3.14039 0
M  V30 1703 C 152.951 -3.24103 -3.2219 0
M  V30 1704 C 153.948 -4.20877 -3.05219 0
M  V30 1705 C 151.633 -3.64625 -3.45476 0
M  V30 1706 C 153.627 -5.56151 -3.11408 0
M  V30 1707 C 151.314 -5.00032 -3.513 0
M  V30 1708 C 152.312 -5.95604 -3.34282 0
M  V30 1709 O 152 -7.28545 -3.3982 0
M  V30 1710 H 151.732 -0.401183 -0.544085 0
M  V30 1711 H 154.286 -1.67832 -1.18413 0
M  V30 1712 H 152.516 -1.16624 -3.68695 0
M  V30 1713 H 154.205 -1.58199 -3.73802 0
M  V30 1714 H 154.971 -3.90908 -2.87081 0
M  V30 1715 H 150.85 -2.90718 -3.57777 0
M  V30 1716 H 154.394 -6.30727 -2.98043 0
M  V30 1717 H 150.291 -5.29659 -3.68959 0
M  V30 1718 H 151.059 -7.3686 -3.56343 0
M  V30 1719 N 153.722 1.14298 -1.08507 0
M  V30 1720 C 154.971 1.84708 -0.810305 0
M  V30 1721 C 155.284 1.83903 0.666271 0
M  V30 1722 O 156.49 2.50112 1.05624 0
M  V30 1723 C 154.946 3.31572 -1.39957 0
M  V30 1724 C 154.554 3.40791 -2.90801 0
M  V30 1725 C 156.298 4.07087 -1.20334 0
M  V30 1726 C 154.205 4.81872 -3.4286 0
M  V30 1727 H 153.135 0.691985 -0.299454 0
M  V30 1728 H 155.786 1.28841 -1.30661 0
M  V30 1729 H 154.168 3.87183 -0.830976 0
M  V30 1730 H 155.342 2.95225 -3.53806 0
M  V30 1731 H 153.657 2.78732 -3.0935 0
M  V30 1732 H 156.254 5.11225 -1.56693 0
M  V30 1733 H 156.597 4.16054 -0.143237 0
M  V30 1734 H 157.13 3.57779 -1.73893 0
M  V30 1735 H 153.869 4.78094 -4.48449 0
M  V30 1736 H 153.389 5.27972 -2.84615 0
M  V30 1737 H 155.068 5.50765 -3.39509 0
M  V30 1738 N 155.201 0.870884 1.31352 0
M  V30 1739 C 156.111 0.330783 2.32256 0
M  V30 1740 C 157.127 -0.559767 1.6475 0
M  V30 1741 O 158.303 -0.456263 1.96164 0
M  V30 1742 C 155.368 -0.458137 3.4366 0
M  V30 1743 C 154.429 0.460482 4.26823 0
M  V30 1744 C 153.662 -0.290881 5.32907 0
M  V30 1745 O 153.885 -1.51885 5.49806 0
M  V30 1746 O 152.819 0.351732 6.00871 0
M  V30 1747 H 156.645 1.16718 2.80376 0
M  V30 1748 H 154.23 0.634285 1.35267 0
M  V30 1749 H 156.112 -0.905343 4.1156 0
M  V30 1750 H 154.787 -1.27106 2.97701 0
M  V30 1751 H 153.694 0.956207 3.61673 0
M  V30 1752 H 155.027 1.23903 4.7635 0
M  V30 1753 N 156.679 -1.44442 0.630414 0
M  V30 1754 C 157.919 -2.03934 0.137919 0
M  V30 1755 C 158.283 -1.48509 -1.21692 0
M  V30 1756 O 159.484 -1.99499 -1.80149 0
M  V30 1757 C 157.755 -3.57187 0.123373 0
M  V30 1758 S 159.314 -4.37741 -0.304604 0
M  V30 1759 H 156.132 -0.708401 0.0607353 0
M  V30 1760 H 158.734 -1.76835 0.833643 0
M  V30 1761 H 157.438 -3.95032 1.11256 0
M  V30 1762 H 156.969 -3.88895 -0.59362 0
M  V30 1763 H 158.984 -4.71403 -1.54897 0
M  V30 1764 N 158.157 -0.370918 -1.53173 0
M  V30 1765 C 159.087 0.464847 -2.28826 0
M  V30 1766 C 160.068 1.07936 -1.31468 0
M  V30 1767 O 161.253 1.0956 -1.60344 0
M  V30 1768 C 158.383 1.60196 -3.08147 0
M  V30 1769 C 157.337 1.11443 -4.13237 0
M  V30 1770 C 156.663 2.3422 -4.80672 0
M  V30 1771 C 157.963 0.195384 -5.21934 0
M  V30 1772 H 159.657 -0.166329 -2.98938 0
M  V30 1773 H 157.203 -0.0814359 -1.4377 0
M  V30 1774 H 159.156 2.19332 -3.59822 0
M  V30 1775 H 157.88 2.26045 -2.35735 0
M  V30 1776 H 156.539 0.545727 -3.62515 0
M  V30 1777 H 156.187 2.98537 -4.04827 0
M  V30 1778 H 155.887 2.02269 -5.51689 0
M  V30 1779 H 157.411 2.94032 -5.35143 0
M  V30 1780 H 158.825 0.694375 -5.69079 0
M  V30 1781 H 157.222 -0.0335027 -6.00091 0
M  V30 1782 H 158.292 -0.760961 -4.78892 0
M  V30 1783 N 159.635 1.57281 -0.100228 0
M  V30 1784 C 161.051 1.57527 0.256416 0
M  V30 1785 C 161.251 1.11173 1.68056 0
M  V30 1786 O 160.307 0.79053 2.39806 0
M  V30 1787 C 161.62 3.00673 0.0401747 0
M  V30 1788 C 163.168 3.12815 0.107528 0
M  V30 1789 C 163.643 4.57929 -0.0807834 0
M  V30 1790 N 165.134 4.63193 -0.0261207 0
M  V30 1791 C 165.869 5.73212 -0.146999 0
M  V30 1792 N 165.365 6.92047 -0.322999 0
M  V30 1793 N 167.158 5.62031 -0.0879044 0
M  V30 1794 H 159.309 1.85718 -1.03065 0
M  V30 1795 H 161.572 0.857446 -0.404339 0
M  V30 1796 H 161.278 3.38804 -0.943649 0
M  V30 1797 H 161.152 3.69042 0.780262 0
M  V30 1798 H 163.539 2.74554 1.08186 0
M  V30 1799 H 163.62 2.47028 -0.664134 0
M  V30 1800 H 163.264 4.96886 -1.05201 0
M  V30 1801 H 163.194 5.21783 0.710635 0
M  V30 1802 H 165.685 3.77748 0.107161 0
M  V30 1803 H 165.998 7.7173 -0.406608 0
M  V30 1804 H 164.343 6.94074 -0.358733 0
M  V30 1805 H 167.534 4.68075 0.048498 0
M  V30 1806 H 167.707 6.47734 -0.185557 0
M  V30 1807 N 161.113 -0.173488 1.56642 0
M  V30 1808 C 162.061 -1.23417 1.97157 0
M  V30 1809 C 163.055 -1.45946 0.860013 0
M  V30 1810 O 164.261 -1.46551 1.04512 0
M  V30 1811 H 160.636 -0.414818 0.62724 0
M  V30 1812 H 162.607 -0.865582 2.8557 0
M  V30 1813 C 161.356 -2.5665 2.34576 0
M  V30 1814 H 160.679 -2.40137 3.19647 0
M  V30 1815 H 162.119 -3.2956 2.6677 0
M  V30 1816 C 160.578 -3.15245 1.18836 0
M  V30 1817 O 161.108 -3.98883 0.474869 0
M  V30 1818 N 159.314 -2.74303 0.959497 0
M  V30 1819 H 158.861 -2.0639 1.54146 0
M  V30 1820 H 158.819 -3.13844 0.186932 0
M  V30 1821 N 162.591 -1.51276 -0.441967 0
M  V30 1822 C 163.554 -1.7167 -1.51862 0
M  V30 1823 C 164.554 -0.586793 -1.49711 0
M  V30 1824 O 165.744 -0.854276 -1.51815 0
M  V30 1825 C 162.876 -1.76889 -2.91416 0
M  V30 1826 H 164.069 -2.67754 -1.35084 0
M  V30 1827 H 161.622 -1.41196 -0.670333 0
M  V30 1828 H 162.357 -0.826026 -3.13604 0
M  V30 1829 H 162.142 -2.59001 -2.94382 0
M  V30 1830 H 163.632 -1.94522 -3.69528 0
M  V30 1831 N 164.069 0.697108 -1.41344 0
M  V30 1832 C 165.48 1.27697 -1.36199 0
M  V30 1833 C 165.831 1.9615 -0.0443463 0
M  V30 1834 O 164.956 1.98689 0.857419 0
M  V30 1835 C 165.551 2.32223 -2.46694 0
M  V30 1836 C 164.11 2.8579 -2.44952 0
M  V30 1837 C 163.257 1.59807 -2.26621 0
M  V30 1838 H 166.208 0.491968 -1.50882 0
M  V30 1839 H 166.229 3.1348 -2.15664 0
M  V30 1840 H 165.741 1.82373 -3.42581 0
M  V30 1841 H 163.842 3.3982 -1.52817 0
M  V30 1842 H 163.955 3.36325 -3.41207 0
M  V30 1843 H 162.319 1.8556 -1.7447 0
M  V30 1844 H 163.102 1.11956 -3.24532 0
M  V30 1845 N 165.547 1.27147 0.931209 0
M  V30 1846 C 166.777 1.15914 1.71019 0
M  V30 1847 C 167.185 -0.287112 1.87009 0
M  V30 1848 O 166.528 -1.20761 1.38429 0
M  V30 1849 C 166.59 1.76647 3.13107 0
M  V30 1850 C 166.254 3.25807 3.20467 0
M  V30 1851 C 167.251 4.22489 3.02983 0
M  V30 1852 C 164.936 3.66452 3.43538 0
M  V30 1853 C 166.93 5.57794 3.08454 0
M  V30 1854 C 164.617 5.01888 3.48643 0
M  V30 1855 C 165.615 5.97369 3.31119 0
M  V30 1856 O 165.303 7.30337 3.35952 0
M  V30 1857 H 165.035 0.404062 0.54195 0
M  V30 1858 H 167.589 1.68457 1.17521 0
M  V30 1859 H 165.819 1.18578 3.68071 0
M  V30 1860 H 167.508 1.60179 3.72958 0
M  V30 1861 H 168.274 3.92425 2.85004 0
M  V30 1862 H 164.153 2.92611 3.5623 0
M  V30 1863 H 167.697 6.32298 2.94694 0
M  V30 1864 H 163.594 5.31609 3.66145 0
M  V30 1865 H 164.362 7.38739 3.5243 0
M  V30 1866 N 167.025 -1.13721 1.09112 0
M  V30 1867 C 168.274 -1.84275 0.82009 0
M  V30 1868 C 168.587 -1.84253 -0.656509 0
M  V30 1869 O 169.793 -2.50668 -1.04296 0
M  V30 1870 C 168.249 -3.30825 1.41714 0
M  V30 1871 C 167.857 -3.39244 2.92605 0
M  V30 1872 C 169.601 -4.06443 1.22492 0
M  V30 1873 C 167.508 -4.80047 3.45411 0
M  V30 1874 H 166.438 -0.690387 0.30312 0
M  V30 1875 H 169.089 -1.28146 1.31343 0
M  V30 1876 H 167.471 -3.86737 0.851498 0
M  V30 1877 H 168.645 -2.93344 3.55367 0
M  V30 1878 H 166.96 -2.77088 3.10823 0
M  V30 1879 H 169.557 -5.10387 1.59402 0
M  V30 1880 H 169.9 -4.15972 0.165299 0
M  V30 1881 H 170.433 -3.56852 1.75788 0
M  V30 1882 H 167.172 -4.75709 4.50978 0
M  V30 1883 H 166.692 -5.26455 2.87411 0
M  V30 1884 H 168.371 -5.48957 3.42425 0
M  V30 1885 N 168.503 -0.877838 -1.30888 0
M  V30 1886 C 169.78 -0.413052 -1.91189 0
M  V30 1887 C 170.16 1.1056 -1.79832 0
M  V30 1888 O 169.508 1.93771 -1.21099 0
M  V30 1889 C 169.718 -0.903191 -3.3711 0
M  V30 1890 C 171.066 -0.93395 -4.14201 0
M  V30 1891 O 172.09 -0.849373 -3.45925 0
M  V30 1892 O 170.949 -1.05772 -5.36167 0
M  V30 1893 H 168.043 -0.125035 -0.817493 0
M  V30 1894 H 170.589 -0.966269 -1.39504 0
M  V30 1895 H 169.361 -1.94692 -3.39427 0
M  V30 1896 H 168.984 -0.328732 -3.96239 0
M  V30 1897 N 169.982 1.44106 -0.638065 0
M  V30 1898 C 171.259 1.95453 -0.0759321 0
M  V30 1899 C 171.639 1.57984 1.40015 0
M  V30 1900 O 170.987 0.857361 2.11806 0
M  V30 1901 C 171.197 3.47655 -0.306132 0
M  V30 1902 C 172.545 4.24114 -0.203008 0
M  V30 1903 O 173.569 3.55405 -0.237871 0
M  V30 1904 O 172.428 5.46381 -0.113827 0
M  V30 1905 H 169.522 0.826797 0.0183332 0
M  V30 1906 H 172.068 1.54122 -0.710251 0
M  V30 1907 H 170.84 3.68 -1.3301 0
M  V30 1908 H 170.463 3.95949 0.361991 0
M  V30 1909 N 171.46 0.379036 1.52974 0
M  V30 1910 C 172.871 -0.0972525 1.86447 0
M  V30 1911 C 173.222 -1.47027 1.29914 0
M  V30 1912 O 172.347 -2.07135 0.626433 0
M  V30 1913 C 172.942 -0.183248 3.38304 0
M  V30 1914 C 171.501 -0.603812 3.71525 0
M  V30 1915 C 170.648 0.240632 2.76254 0
M  V30 1916 H 173.599 0.597316 1.4703 0
M  V30 1917 H 173.62 -1.00432 3.67006 0
M  V30 1918 H 173.132 0.816191 3.79421 0
M  V30 1919 H 171.233 -1.61099 3.35973 0
M  V30 1920 H 171.346 -0.369086 4.77676 0
M  V30 1921 H 169.71 -0.292548 2.53014 0
M  V30 1922 H 170.493 1.23786 3.20206 0
M  V30 1923 N 172.938 -1.57226 0.108567 0
M  V30 1924 C 173.868 -2.17778 -0.84232 0
M  V30 1925 C 174.849 -1.11487 -1.2847 0
M  V30 1926 O 176.034 -1.39681 -1.34918 0
M  V30 1927 C 173.164 -2.76888 -2.09644 0
M  V30 1928 C 172.118 -3.88669 -1.79221 0
M  V30 1929 C 171.444 -4.34541 -3.11574 0
M  V30 1930 C 172.744 -5.11251 -1.06864 0
M  V30 1931 H 174.438 -2.97489 -0.337774 0
M  V30 1932 H 171.984 -1.43097 -0.161025 0
M  V30 1933 H 173.937 -3.17904 -2.76614 0
M  V30 1934 H 172.661 -1.94451 -2.62405 0
M  V30 1935 H 171.32 -3.48213 -1.14644 0
M  V30 1936 H 170.968 -3.48977 -3.62249 0
M  V30 1937 H 170.668 -5.09914 -2.91996 0
M  V30 1938 H 172.192 -4.782 -3.7968 0
M  V30 1939 H 173.606 -5.49352 -1.63968 0
M  V30 1940 H 172.003 -5.9214 -0.974178 0
M  V30 1941 H 173.073 -4.8487 -0.0536168 0
M  V30 1942 N 174.416 0.165178 -1.56732 0
M  V30 1943 C 175.662 0.877389 -1.83503 0
M  V30 1944 C 176.017 1.79602 -0.689996 0
M  V30 1945 O 175.31 1.89023 0.313205 0
M  V30 1946 C 175.504 1.70405 -3.1416 0
M  V30 1947 C 175.333 0.866961 -4.41264 0
M  V30 1948 C 174.103 0.539646 -5.0241 0
M  V30 1949 C 176.301 0.205671 -5.13889 0
M  V30 1950 N 174.283 -0.312946 -6.13102 0
M  V30 1951 C 175.654 -0.507823 -6.17917 0
M  V30 1952 C 177.709 0.124468 -4.97744 0
M  V30 1953 C 176.412 -1.29483 -7.0755 0
M  V30 1954 C 178.438 -0.649222 -5.87826 0
M  V30 1955 C 177.8 -1.35106 -6.91322 0
M  V30 1956 H 173.899 0.299477 -0.722383 0
M  V30 1957 H 176.483 0.143949 -1.94167 0
M  V30 1958 H 174.654 2.40887 -3.04677 0
M  V30 1959 H 176.386 2.35804 -3.28905 0
M  V30 1960 H 173.141 0.871176 -4.65519 0
M  V30 1961 H 173.565 -0.729731 -6.73056 0
M  V30 1962 H 178.207 0.652724 -4.17731 0
M  V30 1963 H 175.925 -1.83441 -7.87004 0
M  V30 1964 H 179.511 -0.713804 -5.77405 0
M  V30 1965 H 178.391 -1.94013 -7.59821 0
M  V30 1966 N 175.894 1.51508 0.433938 0
M  V30 1967 C 177.142 1.6402 1.18075 0
M  V30 1968 C 177.463 0.360328 1.91642 0
M  V30 1969 O 176.733 -0.623945 1.85698 0
M  V30 1970 H 175.313 0.6045 0.43885 0
M  V30 1971 H 177.975 1.88452 0.497178 0
M  V30 1972 H 177.071 2.46949 1.90847 0
M  V30 1973 N 177.372 -0.689602 1.41712 0
M  V30 1974 C 178.597 -1.48329 1.44959 0
M  V30 1975 C 179.022 -1.8801 0.0581283 0
M  V30 1976 O 178.38 -1.55026 -0.940035 0
M  V30 1977 C 178.428 -2.71835 2.36935 0
M  V30 1978 O 177.532 -3.69549 1.8305 0
M  V30 1979 H 176.873 -0.446199 0.491734 0
M  V30 1980 H 179.403 -0.847127 1.86239 0
M  V30 1981 H 179.413 -3.20076 2.53013 0
M  V30 1982 H 178.088 -2.42291 3.38035 0
M  V30 1983 H 176.665 -3.2851 1.76452 0
M  V30 1984 N 178.85 -1.27639 -0.924453 0
M  V30 1985 C 180.096 -1.14336 -1.67497 0
M  V30 1986 C 180.429 0.309465 -1.91718 0
M  V30 1987 O 179.704 1.22608 -1.50989 0
M  V30 1988 C 179.987 -1.93096 -3.0395 0
M  V30 1989 C 179.84 -3.46381 -2.8695 0
M  V30 1990 C 181.159 -1.73798 -4.0433 0
M  V30 1991 H 178.278 -0.416728 -0.607871 0
M  V30 1992 H 180.92 -1.56832 -1.07256 0
M  V30 1993 H 179.07 -1.56982 -3.55372 0
M  V30 1994 H 180.742 -3.92343 -2.42621 0
M  V30 1995 H 178.985 -3.72557 -2.22225 0
M  V30 1996 H 179.656 -3.96735 -3.83804 0
M  V30 1997 H 182.132 -2.05293 -3.61931 0
M  V30 1998 H 181.008 -2.31294 -4.97789 0
M  V30 1999 H 181.269 -0.686725 -4.36734 0
M  V30 2000 N 180.328 1.1314 -1.09713 0
M  V30 2001 C 181.574 1.84757 -0.836224 0
M  V30 2002 C 181.907 1.8347 0.636598 0
M  V30 2003 O 181.182 1.27491 1.46889 0
M  V30 2004 C 181.465 3.32782 -1.37578 0
M  V30 2005 C 181.318 3.42567 -2.91493 0
M  V30 2006 C 182.637 4.28307 -1.01198 0
M  V30 2007 H 179.756 0.67082 -0.305236 0
M  V30 2008 H 182.398 1.3278 -1.35903 0
M  V30 2009 H 180.548 3.77177 -0.931097 0
M  V30 2010 H 182.22 3.06862 -3.44432 0
M  V30 2011 H 180.463 2.83349 -3.28475 0
M  V30 2012 H 181.134 4.46674 -3.24324 0
M  V30 2013 H 183.61 3.91999 -1.39556 0
M  V30 2014 H 182.486 5.30307 -1.41653 0
M  V30 2015 H 182.747 4.42029 0.0794833 0
M  V30 2016 N 181.806 0.884767 1.30421 0
M  V30 2017 C 183.034 0.518044 2.0031 0
M  V30 2018 C 183.449 -0.893408 1.66324 0
M  V30 2019 O 182.806 -1.5875 0.900262 0
M  V30 2020 C 182.857 0.682997 3.54989 0
M  V30 2021 O 182.578 2.03888 3.87764 0
M  V30 2022 C 184.079 0.31924 4.42149 0
M  V30 2023 H 181.299 0.200265 0.640418 0
M  V30 2024 H 183.843 1.19001 1.6631 0
M  V30 2025 H 181.998 0.0584052 3.87356 0
M  V30 2026 H 182.412 2.05735 4.82466 0
M  V30 2027 H 183.886 0.485555 5.4986 0
M  V30 2028 H 184.363 -0.742717 4.32875 0
M  V30 2029 H 184.969 0.920147 4.15227 0
M  V30 2030 N 183.284 -1.43765 0.645699 0
M  V30 2031 C 184.561 -1.9541 0.0862963 0
M  V30 2032 C 184.941 -1.58725 -1.39175 0
M  V30 2033 O 184.289 -0.868581 -2.11348 0
M  V30 2034 C 184.499 -3.47488 0.324565 0
M  V30 2035 C 185.847 -4.24001 0.225497 0
M  V30 2036 O 186.871 -3.55274 0.256715 0
M  V30 2037 O 185.73 -5.46313 0.142801 0
M  V30 2038 H 182.824 -0.826882 -0.0139483 0
M  V30 2039 H 185.37 -1.53743 0.718415 0
M  V30 2040 H 184.142 -3.67289 1.3496 0
M  V30 2041 H 183.765 -3.96135 -0.340987 0
M  V30 2042 N 184.763 -0.387143 -1.52771 0
M  V30 2043 C 185.71 0.449048 -2.26389 0
M  V30 2044 C 186.68 1.05961 -1.27912 0
M  V30 2045 O 187.865 1.08804 -1.56737 0
M  V30 2046 C 185.005 1.57155 -3.0724 0
M  V30 2047 C 184.118 0.984066 -4.20643 0
M  V30 2048 C 183.253 2.07745 -4.88892 0
M  V30 2049 C 182.292 1.46574 -5.94292 0
M  V30 2050 N 181.429 2.49834 -6.56146 0
M  V30 2051 H 186.269 -0.185205 -2.97424 0
M  V30 2052 H 183.806 -0.103164 -1.46738 0
M  V30 2053 H 185.764 2.23309 -3.52405 0
M  V30 2054 H 184.394 2.17615 -2.38419 0
M  V30 2055 H 183.446 0.212193 -3.79808 0
M  V30 2056 H 184.758 0.497029 -4.96318 0
M  V30 2057 H 183.912 2.81673 -5.3735 0
M  V30 2058 H 182.651 2.59807 -4.12737 0
M  V30 2059 H 181.656 0.711696 -5.45174 0
M  V30 2060 H 182.881 0.953088 -6.72379 0
M  V30 2061 H 180.827 3.0107 -5.82832 0
M  V30 2062 H 180.744 2.05879 -7.27427 0
M  V30 2063 H 182.012 3.23399 -7.09249 0
M  V30 2064 N 186.241 1.57166 -0.116904 0
M  V30 2065 C 187.657 1.5779 0.239693 0
M  V30 2066 C 187.857 1.1295 1.66867 0
M  V30 2067 O 186.913 0.81592 2.38954 0
M  V30 2068 C 188.226 3.00699 0.00828202 0
M  V30 2069 C 189.774 3.12912 0.0743438 0
M  V30 2070 C 190.249 4.57817 -0.129348 0
M  V30 2071 N 191.74 4.63139 -0.075247 0
M  V30 2072 C 192.475 5.73023 -0.207788 0
M  V30 2073 N 191.971 6.91665 -0.396382 0
M  V30 2074 N 193.764 5.61906 -0.14751 0
M  V30 2075 H 185.915 1.84615 -1.05029 0
M  V30 2076 H 188.178 0.85311 -0.41341 0
M  V30 2077 H 187.884 3.37784 -0.979531 0
M  V30 2078 H 187.758 3.69848 0.741077 0
M  V30 2079 H 190.145 2.75686 1.05268 0
M  V30 2080 H 190.226 2.4631 -0.690297 0
M  V30 2081 H 189.87 4.95742 -1.10465 0
M  V30 2082 H 189.8 5.22507 0.655253 0
M  V30 2083 H 192.291 3.7784 0.0670898 0
M  V30 2084 H 192.604 7.71255 -0.488437 0
M  V30 2085 H 190.949 6.93654 -0.432329 0
M  V30 2086 H 194.14 4.681 -0.00115036 0
M  V30 2087 H 194.313 6.47501 -0.254247 0
M  V30 2088 N 187.719 -0.156864 1.56817 0
M  V30 2089 C 188.667 -1.21319 1.98455 0
M  V30 2090 C 189.661 -1.45025 0.875444 0
M  V30 2091 O 190.867 -1.45435 1.0606 0
M  V30 2092 H 187.242 -0.408142 0.631605 0
M  V30 2093 H 189.213 -0.835244 2.86472 0
M  V30 2094 C 187.962 -2.54148 2.37285 0
M  V30 2095 H 187.285 -2.36733 3.22176 0
M  V30 2096 H 188.725 -3.26712 2.70251 0
M  V30 2097 C 187.184 -3.13967 1.22173 0
M  V30 2098 O 187.714 -3.98357 0.517149 0
M  V30 2099 N 185.92 -2.7327 0.988536 0
M  V30 2100 H 185.467 -2.04744 1.56326 0
M  V30 2101 H 185.425 -3.13628 0.220209 0
M  V30 2102 N 189.197 -1.51736 -0.425897 0
M  V30 2103 C 190.145 -1.74464 -1.53834 0
M  V30 2104 C 191.139 -0.611241 -1.57988 0
M  V30 2105 O 192.345 -0.792899 -1.61596 0
M  V30 2106 H 188.72 -0.551437 -0.511293 0
M  V30 2107 H 190.691 -2.67694 -1.31843 0
M  V30 2108 C 189.44 -1.8972 -2.91379 0
M  V30 2109 H 188.763 -2.76344 -2.88919 0
M  V30 2110 H 190.203 -2.09629 -3.68553 0
M  V30 2111 C 188.662 -0.65992 -3.30374 0
M  V30 2112 O 189.192 0.180083 -4.01296 0
M  V30 2113 N 187.398 -0.500677 -2.86254 0
M  V30 2114 H 186.945 -1.18532 -2.28709 0
M  V30 2115 H 186.903 0.325903 -3.12706 0
M  V30 2116 N 190.675 0.682077 -1.42076 0
M  V30 2117 C 191.915 1.45424 -1.43636 0
M  V30 2118 C 192.279 1.91939 -0.0484001 0
M  V30 2119 O 193.48 2.6873 0.0612514 0
M  V30 2120 C 191.751 2.62427 -2.42625 0
M  V30 2121 S 193.31 3.51379 -2.62827 0
M  V30 2122 H 190.128 0.496779 -0.508657 0
M  V30 2123 H 192.73 0.794645 -1.78621 0
M  V30 2124 H 191.434 2.26481 -3.42249 0
M  V30 2125 H 190.965 3.33266 -2.09039 0
M  V30 2126 H 192.98 4.58141 -1.9058 0
M  V30 2127 N 192.153 1.28127 0.917671 0
M  V30 2128 C 193.083 1.14248 2.03641 0
M  V30 2129 C 194.064 0.0412748 1.7005 0
M  V30 2130 O 195.249 0.217566 1.92977 0
M  V30 2131 C 192.379 0.799431 3.37974 0
M  V30 2132 C 191.333 1.85497 3.85713 0
M  V30 2133 C 190.659 1.36565 5.16966 0
M  V30 2134 C 191.959 3.26085 4.08002 0
M  V30 2135 H 193.653 2.07835 2.15511 0
M  V30 2136 H 191.199 1.00064 1.03553 0
M  V30 2137 H 193.152 0.689114 4.15727 0
M  V30 2138 H 191.876 -0.172145 3.26146 0
M  V30 2139 H 190.535 1.95437 3.10161 0
M  V30 2140 H 190.183 0.383253 5.01538 0
M  V30 2141 H 189.883 2.07143 5.49878 0
M  V30 2142 H 191.407 1.26848 5.97279 0
M  V30 2143 H 192.821 3.19089 4.76293 0
M  V30 2144 H 191.218 3.94462 4.52238 0
M  V30 2145 H 192.288 3.70394 3.12948 0
M  V30 2146 N 193.631 -1.12557 1.10312 0
M  V30 2147 C 194.563 -2.17971 0.708625 0
M  V30 2148 C 195.576 -1.60806 -0.254027 0
M  V30 2149 O 196.765 -1.78458 -0.0386891 0
M  V30 2150 C 193.865 -3.38891 0.0248198 0
M  V30 2151 C 193.038 -4.25548 1.01132 0
M  V30 2152 C 192.097 -5.24972 0.35924 0
M  V30 2153 O 191.123 -5.60174 1.00965 0
M  V30 2154 N 192.325 -5.73747 -0.882847 0
M  V30 2155 H 195.09 -2.52427 1.61557 0
M  V30 2156 H 192.651 -1.27967 0.991771 0
M  V30 2157 H 194.643 -4.02485 -0.422852 0
M  V30 2158 H 193.213 -3.02596 -0.784514 0
M  V30 2159 H 192.433 -3.58589 1.6373 0
M  V30 2160 H 193.721 -4.80294 1.67914 0
M  V30 2161 H 193.119 -5.4731 -1.43065 0
M  V30 2162 H 191.676 -6.39234 -1.27369 0
M  V30 2163 N 195.109 -0.891671 -1.2995 0
M  V30 2164 C 196.059 -0.334811 -2.25528 0
M  V30 2165 C 197.043 0.540553 -1.51548 0
M  V30 2166 O 198.235 0.383882 -1.72787 0
M  V30 2167 C 195.364 0.44374 -3.4042 0
M  V30 2168 C 194.45 -0.44609 -4.21747 0
M  V30 2169 N 194.841 -1.54963 -4.81477 0
M  V30 2170 C 193.139 -0.242415 -4.45341 0
M  V30 2171 C 193.84 -2.10015 -5.42465 0
M  V30 2172 N 192.816 -1.39423 -5.25416 0
M  V30 2173 H 196.618 -1.17792 -2.69262 0
M  V30 2174 H 194.132 -0.741822 -1.44467 0
M  V30 2175 H 196.129 0.859362 -4.07947 0
M  V30 2176 H 194.789 1.28421 -2.98225 0
M  V30 2177 H 195.8 -1.93244 -4.80497 0
M  V30 2178 H 192.477 0.560342 -4.13723 0
M  V30 2179 H 193.867 -3.02724 -5.9984 0
M  V30 2180 N 196.587 1.43421 -0.653314 0
M  V30 2181 C 197.836 2.01032 -0.164076 0
M  V30 2182 C 198.149 1.52147 1.22926 0
M  V30 2183 O 199.355 2.02031 1.81371 0
M  V30 2184 C 197.811 3.59082 -0.24252 0
M  V30 2185 C 197.419 4.1696 -1.63855 0
M  V30 2186 C 199.163 4.24079 0.18911 0
M  V30 2187 C 197.07 5.67304 -1.67092 0
M  V30 2188 H 196 0.751798 -0.0575769 0
M  V30 2189 H 198.651 1.6439 -0.815362 0
M  V30 2190 H 197.033 3.93125 0.476276 0
M  V30 2191 H 198.207 3.94416 -2.38271 0
M  V30 2192 H 196.522 3.64335 -2.01616 0
M  V30 2193 H 199.119 5.34381 0.184775 0
M  V30 2194 H 199.462 3.98005 1.22056 0
M  V30 2195 H 199.995 3.94918 -0.477938 0
M  V30 2196 H 196.734 5.98145 -2.68146 0
M  V30 2197 H 196.254 5.91904 -0.970014 0
M  V30 2198 H 197.933 6.31344 -1.4147 0
M  V30 2199 N 198.065 0.39524 1.52563 0
M  V30 2200 C 199.012 -0.437036 2.26624 0
M  V30 2201 C 199.982 -1.05281 1.28472 0
M  V30 2202 O 201.167 -1.07971 1.57311 0
M  V30 2203 C 198.307 -1.55524 3.08069 0
M  V30 2204 C 197.42 -0.961745 4.21158 0
M  V30 2205 C 196.555 -2.05149 4.89987 0
M  V30 2206 C 195.594 -1.4342 5.95061 0
M  V30 2207 N 194.731 -2.46351 6.57462 0
M  V30 2208 H 199.571 0.200976 2.97322 0
M  V30 2209 H 197.108 0.110944 1.46681 0
M  V30 2210 H 199.066 -2.21437 3.53584 0
M  V30 2211 H 197.696 -2.16348 2.3957 0
M  V30 2212 H 196.748 -0.192048 3.79915 0
M  V30 2213 H 198.06 -0.470701 4.96574 0
M  V30 2214 H 197.214 -2.78819 5.38837 0
M  V30 2215 H 195.953 -2.57615 4.14109 0
M  V30 2216 H 194.958 -0.682774 5.45544 0
M  V30 2217 H 196.183 -0.917416 6.72875 0
M  V30 2218 H 194.129 -2.97975 5.8442 0
M  V30 2219 H 194.046 -2.02019 7.28508 0
M  V30 2220 H 195.314 -3.19633 7.10954 0
M  V30 2221 N 199.544 -1.57102 0.125237 0
M  V30 2222 C 200.474 -2.18659 -0.819174 0
M  V30 2223 C 201.455 -1.12843 -1.27281 0
M  V30 2224 O 202.64 -1.41104 -1.33429 0
M  V30 2225 C 199.77 -2.79096 -2.06695 0
M  V30 2226 C 198.724 -3.90548 -1.75088 0
M  V30 2227 C 198.05 -4.37821 -3.06948 0
M  V30 2228 C 199.35 -5.12356 -1.01435 0
M  V30 2229 H 201.044 -2.9783 -0.306202 0
M  V30 2230 H 198.59 -1.4326 -0.145839 0
M  V30 2231 H 200.543 -3.2082 -2.73226 0
M  V30 2232 H 199.267 -1.97223 -2.60328 0
M  V30 2233 H 197.926 -3.49409 -1.10944 0
M  V30 2234 H 197.574 -3.52799 -3.58527 0
M  V30 2235 H 197.274 -5.12982 -2.86571 0
M  V30 2236 H 198.798 -4.822 -3.74587 0
M  V30 2237 H 200.212 -5.5106 -1.58132 0
M  V30 2238 H 198.609 -5.9314 -0.911319 0
M  V30 2239 H 199.679 -4.849 -0.00218681 0
M  V30 2240 N 201.022 0.148545 -1.56898 0
M  V30 2241 C 201.952 1.18524 -2.01182 0
M  V30 2242 C 202.933 1.4489 -0.891123 0
M  V30 2243 O 204.118 1.55836 -1.15882 0
M  V30 2244 C 201.248 2.51879 -2.39112 0
M  V30 2245 C 200.202 2.40038 -3.54353 0
M  V30 2246 C 199.528 3.78089 -3.78091 0
M  V30 2247 C 200.828 1.88577 -4.87069 0
M  V30 2248 H 202.522 0.817029 -2.88036 0
M  V30 2249 H 200.068 0.391575 -1.38574 0
M  V30 2250 H 202.021 3.24627 -2.68692 0
M  V30 2251 H 200.745 2.90532 -1.49193 0
M  V30 2252 H 199.404 1.69742 -3.24936 0
M  V30 2253 H 199.052 4.14175 -2.85426 0
M  V30 2254 H 198.752 3.71028 -4.55645 0
M  V30 2255 H 200.276 4.52387 -4.10095 0
M  V30 2256 H 201.69 2.51117 -5.15377 0
M  V30 2257 H 200.087 1.9241 -5.68417 0
M  V30 2258 H 201.157 0.84136 -4.77545 0
M  V30 2259 N 202.5 1.5196 0.417844 0
M  V30 2260 C 203.41 1.77554 1.53336 0
M  V30 2261 C 204.426 0.660655 1.6097 0
M  V30 2262 O 205.602 0.945099 1.77848 0
M  V30 2263 C 202.667 1.91291 2.89152 0
M  V30 2264 C 201.728 3.15183 2.91475 0
M  V30 2265 C 200.961 3.28256 4.20813 0
M  V30 2266 O 201.184 2.46798 5.14244 0
M  V30 2267 O 200.118 4.21356 4.29817 0
M  V30 2268 H 203.944 2.7222 1.34647 0
M  V30 2269 H 201.529 1.36698 0.602828 0
M  V30 2270 H 203.411 2.02199 3.69721 0
M  V30 2271 H 202.086 0.998129 3.07927 0
M  V30 2272 H 200.993 3.09739 2.09791 0
M  V30 2273 H 202.326 4.06414 2.77648 0
M  V30 2274 N 203.978 -0.674533 1.42435 0
M  V30 2275 C 204.911 -1.79924 1.40366 0
M  V30 2276 C 205.889 -1.60378 0.267899 0
M  V30 2277 O 207.073 -1.82847 0.458159 0
M  V30 2278 C 204.2 -3.16927 1.19478 0
M  V30 2279 C 203.246 -3.55221 2.36051 0
M  V30 2280 S 204.079 -3.5762 3.98583 0
M  V30 2281 C 205.235 -4.97315 3.80038 0
M  V30 2282 H 205.468 -1.81405 2.35541 0
M  V30 2283 H 203.001 -0.845221 1.29211 0
M  V30 2284 H 204.959 -3.96007 1.08114 0
M  V30 2285 H 203.62 -3.13031 0.258883 0
M  V30 2286 H 202.813 -4.54804 2.17185 0
M  V30 2287 H 202.415 -2.83502 2.43932 0
M  V30 2288 H 204.707 -5.85401 3.41045 0
M  V30 2289 H 205.65 -5.21228 4.79298 0
M  V30 2290 H 206.058 -4.69845 3.12899 0
M  V30 2291 N 205.456 -1.28612 -0.910864 0
M  V30 2292 C 206.388 -1.08589 -2.01844 0
M  V30 2293 C 207.401 -0.0367419 -1.62759 0
M  V30 2294 O 208.59 -0.280101 -1.76289 0
M  V30 2295 C 205.69 -0.628626 -3.33019 0
M  V30 2296 C 204.863 -1.75382 -4.00699 0
M  V30 2297 C 203.922 -1.28945 -5.10156 0
M  V30 2298 O 202.948 -1.9922 -5.33198 0
M  V30 2299 N 204.15 -0.154224 -5.80295 0
M  V30 2300 H 206.915 -2.03973 -2.19579 0
M  V30 2301 H 204.476 -1.20403 -1.08234 0
M  V30 2302 H 206.468 -0.301508 -4.03575 0
M  V30 2303 H 205.038 0.232451 -3.11735 0
M  V30 2304 H 204.258 -2.25039 -3.23653 0
M  V30 2305 H 205.546 -2.50854 -4.42662 0
M  V30 2306 H 204.944 0.43194 -5.64049 0
M  V30 2307 H 203.501 0.113599 -6.51701 0
M  V30 2308 N 206.934 1.1197 -1.10907 0
M  V30 2309 C 207.844 2.21433 -0.774896 0
M  V30 2310 C 208.86 1.72478 0.229657 0
M  V30 2311 O 210.036 2.01288 0.0672008 0
M  V30 2312 C 207.101 3.4602 -0.216986 0
M  V30 2313 C 206.162 4.09791 -1.27944 0
M  V30 2314 C 205.395 5.28431 -0.748055 0
M  V30 2315 O 205.618 5.68823 0.423833 0
M  V30 2316 O 204.552 5.82644 -1.51027 0
M  V30 2317 H 208.378 2.5242 -1.68873 0
M  V30 2318 H 205.963 1.20399 -0.884555 0
M  V30 2319 H 207.845 4.21304 0.090059 0
M  V30 2320 H 206.52 3.16698 0.669633 0
M  V30 2321 H 205.427 3.36265 -1.63941 0
M  V30 2322 H 206.76 4.4328 -2.13925 0
M  V30 2323 N 208.412 0.89855 1.29475 0
M  V30 2324 C 209.637 0.538561 2.00285 0
M  V30 2325 C 210.062 -0.869135 1.66816 0
M  V30 2326 O 209.42 -1.57831 0.892145 0
M  V30 2327 C 209.468 0.736475 3.52999 0
M  V30 2328 O 208.572 -0.211537 4.11857 0
M  V30 2329 H 207.913 0.210563 0.62973 0
M  V30 2330 H 210.443 1.20982 1.64998 0
M  V30 2331 H 210.453 0.640685 4.02938 0
M  V30 2332 H 209.128 1.76276 3.76696 0
M  V30 2333 H 207.705 -0.0682991 3.72837 0
M  V30 2334 N 209.89 -1.43072 0.660911 0
M  V30 2335 C 210.8 -2.34585 -0.0264163 0
M  V30 2336 C 211.816 -1.54316 -0.803898 0
M  V30 2337 O 212.992 -1.86939 -0.749391 0
M  V30 2338 C 210.057 -3.32689 -0.975639 0
M  V30 2339 C 209.118 -4.2886 -0.194236 0
M  V30 2340 C 208.351 -5.22278 -1.09825 0
M  V30 2341 O 208.574 -5.20299 -2.33763 0
M  V30 2342 O 207.508 -5.99228 -0.566513 0
M  V30 2343 H 211.334 -2.94869 0.727034 0
M  V30 2344 H 208.919 -1.43342 0.42111 0
M  V30 2345 H 210.801 -3.92995 -1.52094 0
M  V30 2346 H 209.476 -2.74898 -1.70918 0
M  V30 2347 H 208.383 -3.72011 0.394835 0
M  V30 2348 H 209.716 -4.89655 0.499899 0
M  V30 2349 N 211.368 -0.403325 -1.52352 0
M  V30 2350 C 212.784 -0.0539281 -1.59509 0
M  V30 2351 C 212.984 1.43307 -1.41652 0
M  V30 2352 O 212.04 2.19924 -1.24056 0
M  V30 2353 C 213.353 -0.543654 -2.95745 0
M  V30 2354 C 214.901 -0.501125 -3.08962 0
M  V30 2355 C 215.376 -0.967267 -4.47669 0
M  V30 2356 N 216.867 -0.923849 -4.53893 0
M  V30 2357 C 217.602 -1.25578 -5.5948 0
M  V30 2358 N 217.098 -1.65889 -6.72646 0
M  V30 2359 N 218.891 -1.17613 -5.49658 0
M  V30 2360 H 211.042 -1.37123 -1.62206 0
M  V30 2361 H 213.305 -0.56294 -0.76276 0
M  V30 2362 H 213.011 -1.58275 -3.14073 0
M  V30 2363 H 212.885 0.0498042 -3.77167 0
M  V30 2364 H 215.272 0.528909 -2.90321 0
M  V30 2365 H 215.353 -1.13056 -2.2946 0
M  V30 2366 H 214.997 -1.9956 -4.67053 0
M  V30 2367 H 214.927 -0.314698 -5.25659 0
M  V30 2368 H 217.418 -0.627403 -3.72655 0
M  V30 2369 H 217.731 -1.89543 -7.49195 0
M  V30 2370 H 216.076 -1.69787 -6.73942 0
M  V30 2371 H 219.267 -0.860115 -4.6013 0
M  V30 2372 H 219.44 -1.43812 -6.3184 0
M  V30 2373 N 212.846 1.57033 -0.133567 0
M  V30 2374 C 214.262 1.58035 0.222944 0
M  V30 2375 C 214.462 1.14713 1.6566 0
M  V30 2376 O 213.518 0.841218 2.38075 0
M  V30 2377 C 214.831 3.00691 -0.0236116 0
M  V30 2378 C 216.379 3.12973 0.0411512 0
M  V30 2379 C 216.854 4.57654 -0.177899 0
M  V30 2380 N 218.345 4.63033 -0.124365 0
M  V30 2381 C 219.08 5.72771 -0.268553 0
M  V30 2382 N 218.576 6.91206 -0.46972 0
M  V30 2383 N 220.369 5.61718 -0.2071 0
M  V30 2384 H 212.52 1.8349 -1.06981 0
M  V30 2385 H 214.783 0.848677 -0.422436 0
M  V30 2386 H 214.489 3.36726 -1.0153 0
M  V30 2387 H 214.363 3.70614 0.701808 0
M  V30 2388 H 216.75 2.76787 1.02338 0
M  V30 2389 H 216.831 2.45564 -0.716383 0
M  V30 2390 H 216.475 4.94542 -1.15717 0
M  V30 2391 H 216.405 5.23173 0.599797 0
M  V30 2392 H 218.896 3.7789 0.027011 0
M  V30 2393 H 219.209 7.70693 -0.570212 0
M  V30 2394 H 217.554 6.93156 -0.505876 0
M  V30 2395 H 220.745 4.68072 -0.0507986 0
M  V30 2396 H 220.918 6.47195 -0.322909 0
M  V30 2397 N 214.325 -0.140222 1.56975 0
M  V30 2398 C 215.272 -1.17292 1.98774 0
M  V30 2399 C 216.242 -1.4232 0.856408 0
M  V30 2400 O 217.427 -1.54541 1.119 0
M  V30 2401 C 214.567 -2.49973 2.37923 0
M  V30 2402 C 213.68 -2.32062 3.64378 0
M  V30 2403 C 212.815 -3.57825 3.926 0
M  V30 2404 C 211.854 -3.3498 5.12303 0
M  V30 2405 N 210.991 -4.52891 5.36502 0
M  V30 2406 H 215.831 -0.809472 2.86795 0
M  V30 2407 H 213.368 -0.388237 1.41884 0
M  V30 2408 H 215.326 -3.27346 2.58652 0
M  V30 2409 H 213.956 -2.84252 1.52972 0
M  V30 2410 H 213.008 -1.45711 3.51387 0
M  V30 2411 H 214.32 -2.11145 4.51906 0
M  V30 2412 H 213.474 -4.43624 4.13863 0
M  V30 2413 H 212.213 -3.81753 3.03506 0
M  V30 2414 H 211.218 -2.4757 4.90906 0
M  V30 2415 H 212.443 -3.12444 6.02956 0
M  V30 2416 H 210.389 -4.76979 4.50363 0
M  V30 2417 H 210.306 -4.35001 6.18312 0
M  V30 2418 H 211.574 -5.39884 5.62268 0
M  V30 2419 N 215.803 -1.52179 -0.40978 0
M  V30 2420 C 216.735 -1.71703 -1.51825 0
M  V30 2421 C 217.748 -0.597445 -1.51441 0
M  V30 2422 O 218.937 -0.872582 -1.55719 0
M  V30 2423 C 216.037 -1.74171 -2.90719 0
M  V30 2424 C 215.21 -3.03156 -3.15302 0
M  V30 2425 C 214.269 -2.97445 -4.34065 0
M  V30 2426 O 213.295 -3.71352 -4.31377 0
M  V30 2427 N 214.497 -2.15191 -5.39141 0
M  V30 2428 H 217.262 -2.67334 -1.35472 0
M  V30 2429 H 214.823 -1.50409 -0.599069 0
M  V30 2430 H 216.815 -1.67884 -3.68235 0
M  V30 2431 H 215.385 -0.860166 -3.00533 0
M  V30 2432 H 214.605 -3.23097 -2.25836 0
M  V30 2433 H 215.893 -3.88484 -3.28569 0
M  V30 2434 H 215.291 -1.54573 -5.44173 0
M  V30 2435 H 213.848 -2.1476 -6.15403 0
M  V30 2436 N 217.281 0.66697 -1.42791 0
M  V30 2437 C 218.213 1.7925 -1.42836 0
M  V30 2438 C 219.226 1.59496 -0.326333 0
M  V30 2439 O 220.415 1.6847 -0.589916 0
M  V30 2440 C 217.515 3.16476 -1.21229 0
M  V30 2441 C 216.688 3.63011 -2.44013 0
M  V30 2442 C 215.747 4.78993 -2.17834 0
M  V30 2443 O 214.773 4.89137 -2.91091 0
M  V30 2444 N 215.975 5.68248 -1.18635 0
M  V30 2445 H 218.74 1.79695 -2.39854 0
M  V30 2446 H 216.301 0.850338 -1.37771 0
M  V30 2447 H 218.293 3.91734 -1.01621 0
M  V30 2448 H 216.863 3.10884 -0.32706 0
M  V30 2449 H 216.083 2.78346 -2.79137 0
M  V30 2450 H 217.371 3.90845 -3.25757 0
M  V30 2451 H 216.769 5.62712 -0.580615 0
M  V30 2452 H 215.326 6.43285 -1.05013 0
M  V30 2453 N 218.759 1.29093 0.90403 0
M  V30 2454 C 219.669 1.15727 2.0407 0
M  V30 2455 C 220.685 0.0815308 1.73809 0
M  V30 2456 O 221.861 0.292749 1.99261 0
M  V30 2457 C 218.926 0.830424 3.36608 0
M  V30 2458 C 217.987 1.98955 3.80415 0
M  V30 2459 C 217.22 1.6782 5.06628 0
M  V30 2460 O 217.443 0.597105 5.67266 0
M  V30 2461 O 216.377 2.52486 5.46383 0
M  V30 2462 H 220.203 2.11171 2.18267 0
M  V30 2463 H 217.788 1.08504 1.027 0
M  V30 2464 H 219.67 0.662521 4.16159 0
M  V30 2465 H 218.345 -0.0942678 3.23563 0
M  V30 2466 H 217.252 2.21267 3.01648 0
M  V30 2467 H 218.585 2.89529 3.98037 0
M  V30 2468 N 220.237 -1.11381 1.11499 0
M  V30 2469 C 221.147 -2.21019 0.786628 0
M  V30 2470 C 222.163 -1.72597 -0.220507 0
M  V30 2471 O 223.339 -2.01321 -0.0565251 0
M  V30 2472 C 220.404 -3.459 0.235333 0
M  V30 2473 C 219.465 -4.09107 1.30115 0
M  V30 2474 C 218.698 -5.28027 0.776068 0
M  V30 2475 O 218.921 -5.6904 -0.393661 0
M  V30 2476 O 217.855 -5.81835 1.54114 0
M  V30 2477 H 221.681 -2.51521 1.70209 0
M  V30 2478 H 219.266 -1.19928 0.890928 0
M  V30 2479 H 221.148 -4.21346 -0.067715 0
M  V30 2480 H 219.823 -3.17049 -0.652828 0
M  V30 2481 H 218.73 -3.35391 1.65722 0
M  V30 2482 H 220.063 -4.42139 2.16273 0
M  V30 2483 N 221.715 -0.905404 -1.28997 0
M  V30 2484 C 222.625 -0.392246 -2.31298 0
M  V30 2485 C 223.641 0.515889 -1.66176 0
M  V30 2486 O 224.817 0.404093 -1.97304 0
M  V30 2487 C 221.882 0.36686 -3.44754 0
M  V30 2488 C 220.943 -0.573485 -4.25452 0
M  V30 2489 C 220.176 0.149488 -5.33491 0
M  V30 2490 O 220.399 1.37255 -5.5364 0
M  V30 2491 O 219.333 -0.510919 -5.99728 0
M  V30 2492 H 223.159 -1.2411 -2.77183 0
M  V30 2493 H 220.744 -0.669926 -1.33538 0
M  V30 2494 H 222.626 0.795907 -4.13816 0
M  V30 2495 H 221.301 1.19169 -3.00966 0
M  V30 2496 H 220.208 -1.05176 -3.59011 0
M  V30 2497 H 221.541 -1.36489 -4.72897 0
M  V30 2498 N 223.193 1.4272 -0.668489 0
M  V30 2499 C 224.141 2.32586 0.0254857 0
M  V30 2500 C 225.135 1.49471 0.797176 0
M  V30 2501 O 226.341 1.65583 0.705853 0
M  V30 2502 H 222.716 0.751514 0.0270339 0
M  V30 2503 H 224.687 2.88823 -0.749936 0
M  V30 2504 C 223.436 3.3397 0.967427 0
M  V30 2505 H 222.759 3.97961 0.383048 0
M  V30 2506 H 224.199 3.9945 1.42181 0
M  V30 2507 C 222.658 2.65744 2.0708 0
M  V30 2508 O 223.188 2.48454 3.15648 0
M  V30 2509 N 221.394 2.2487 1.8407 0
M  V30 2510 H 220.941 2.39132 0.95778 0
M  V30 2511 H 220.899 1.79552 2.58086 0
M  V30 2512 N 224.671 0.411399 1.52136 0
M  V30 2513 C 225.634 -0.401089 2.25663 0
M  V30 2514 C 226.634 -0.971732 1.28117 0
M  V30 2515 O 227.824 -0.850254 1.52041 0
M  V30 2516 C 224.956 -1.56483 3.02863 0
M  V30 2517 H 226.149 0.24295 2.98914 0
M  V30 2518 H 223.702 0.163968 1.55438 0
M  V30 2519 H 224.437 -2.24567 2.33967 0
M  V30 2520 H 224.222 -1.16211 3.74483 0
M  V30 2521 H 225.712 -2.13951 3.58629 0
M  V30 2522 N 226.149 -1.5696 0.141893 0
M  V30 2523 C 227.096 -2.16501 -0.799737 0
M  V30 2524 C 228.066 -1.09643 -1.24771 0
M  V30 2525 O 229.251 -1.3766 -1.32115 0
M  V30 2526 C 226.391 -2.78679 -2.03549 0
M  V30 2527 C 225.504 -3.99914 -1.6338 0
M  V30 2528 C 224.639 -4.50106 -2.82096 0
M  V30 2529 C 223.678 -5.63819 -2.38275 0
M  V30 2530 N 222.815 -6.08651 -3.49983 0
M  V30 2531 H 227.655 -2.96632 -0.285179 0
M  V30 2532 H 225.192 -1.46533 -0.129053 0
M  V30 2533 H 227.15 -3.1287 -2.75986 0
M  V30 2534 H 225.78 -2.012 -2.52425 0
M  V30 2535 H 224.832 -3.71735 -0.807279 0
M  V30 2536 H 226.144 -4.82311 -1.27192 0
M  V30 2537 H 225.298 -4.86325 -3.62729 0
M  V30 2538 H 224.037 -3.66706 -3.21525 0
M  V30 2539 H 223.042 -5.2718 -1.56081 0
M  V30 2540 H 224.267 -6.49 -1.99938 0
M  V30 2541 H 222.213 -5.28188 -3.89042 0
M  V30 2542 H 222.13 -6.85961 -3.17794 0
M  V30 2543 H 223.398 -6.49515 -4.30988 0
M  V30 2544 N 227.627 0.131896 -1.57047 0
M  V30 2545 C 228.904 0.871495 -1.75112 0
M  V30 2546 C 229.284 1.9866 -0.713949 0
M  V30 2547 O 228.632 2.26965 0.264447 0
M  V30 2548 C 228.842 1.40007 -3.19686 0
M  V30 2549 C 230.19 1.85752 -3.81813 0
M  V30 2550 O 231.214 1.49715 -3.23209 0
M  V30 2551 O 230.073 2.5226 -4.84796 0
M  V30 2552 H 227.167 0.412919 -0.716538 0
M  V30 2553 H 229.713 0.116641 -1.69299 0
M  V30 2554 H 228.485 0.599404 -3.86682 0
M  V30 2555 H 228.108 2.218 -3.29986 0
M  V30 2556 N 229.106 1.52395 0.401703 0
M  V30 2557 C 230.355 1.66044 1.14509 0
M  V30 2558 C 230.668 0.400216 1.91462 0
M  V30 2559 O 231.874 0.416632 2.68284 0
M  V30 2560 C 230.33 2.93388 2.0845 0
M  V30 2561 C 229.938 4.26545 1.36978 0
M  V30 2562 C 231.682 3.16402 2.83001 0
M  V30 2563 C 229.589 5.45007 2.29611 0
M  V30 2564 H 228.519 0.618562 0.431158 0
M  V30 2565 H 231.17 1.78886 0.40892 0
M  V30 2566 H 229.552 2.74263 2.8565 0
M  V30 2567 H 230.726 4.56179 0.650916 0
M  V30 2568 H 229.041 4.09692 0.74438 0
M  V30 2569 H 231.638 4.02085 3.52465 0
M  V30 2570 H 231.981 2.30943 3.46368 0
M  V30 2571 H 232.514 3.36034 2.12898 0
M  V30 2572 H 229.253 6.32835 1.70879 0
M  V30 2573 H 228.773 5.19702 2.9945 0
M  V30 2574 H 230.452 5.7838 2.89974 0
M  V30 2575 N 230.584 -0.659388 1.43143 0
M  V30 2576 C 231.494 -1.80167 1.50256 0
M  V30 2577 C 232.51 -1.69571 0.390106 0
M  V30 2578 O 233.686 -1.90849 0.643319 0
M  V30 2579 C 230.751 -3.16409 1.41725 0
M  V30 2580 C 229.812 -3.38848 2.63591 0
M  V30 2581 C 229.045 -4.68591 2.55458 0
M  V30 2582 O 229.268 -5.47532 1.59891 0
M  V30 2583 O 228.202 -4.92614 3.45854 0
M  V30 2584 H 232.028 -1.77121 2.46702 0
M  V30 2585 H 229.613 -0.817092 1.25076 0
M  V30 2586 H 231.495 -3.9768 1.39387 0
M  V30 2587 H 230.17 -3.20059 0.484118 0
M  V30 2588 H 229.077 -2.57366 2.71502 0
M  V30 2589 H 230.41 -3.4004 3.55856 0
M  V30 2590 N 232.062 -1.29571 -0.897171 0
M  V30 2591 C 232.972 -1.16808 -2.03453 0
M  V30 2592 C 233.988 -0.0907471 -1.73763 0
M  V30 2593 O 235.164 -0.303312 -1.99103 0
M  V30 2594 C 232.229 -0.848264 -3.36163 0
M  V30 2595 C 231.29 -2.0097 -3.79354 0
M  V30 2596 C 230.523 -1.70505 -5.05731 0
M  V30 2597 O 230.746 -0.62718 -5.66941 0
M  V30 2598 O 229.68 -2.5538 -5.45036 0
M  V30 2599 H 233.506 -2.12325 -2.17144 0
M  V30 2600 H 231.091 -1.09047 -1.02123 0
M  V30 2601 H 232.973 -0.684581 -4.15802 0
M  V30 2602 H 231.648 0.0771071 -3.23608 0
M  V30 2603 H 230.555 -2.22863 -3.00471 0
M  V30 2604 H 231.888 -2.91636 -3.96496 0
M  V30 2605 N 233.54 1.10788 -1.12088 0
M  V30 2606 C 234.789 1.82036 -0.868659 0
M  V30 2607 C 235.102 1.85929 0.607426 0
M  V30 2608 O 236.308 2.53346 0.97613 0
M  V30 2609 C 234.764 3.26951 -1.50435 0
M  V30 2610 C 234.372 3.31367 -3.01496 0
M  V30 2611 C 236.116 4.03053 -1.33225 0
M  V30 2612 C 234.023 4.7072 -3.58017 0
M  V30 2613 H 232.953 0.682108 -0.321318 0
M  V30 2614 H 235.604 1.24618 -1.34694 0
M  V30 2615 H 233.986 3.84343 -0.953735 0
M  V30 2616 H 235.16 2.83819 -3.6302 0
M  V30 2617 H 233.475 2.6875 -3.18061 0
M  V30 2618 H 236.072 5.05981 -1.72878 0
M  V30 2619 H 236.415 4.15387 -0.275529 0
M  V30 2620 H 236.948 3.52066 -1.85188 0
M  V30 2621 H 233.687 4.63585 -4.63432 0
M  V30 2622 H 233.207 5.1865 -3.01268 0
M  V30 2623 H 234.886 5.39685 -3.56859 0
M  V30 2624 N 235.018 0.912232 1.28515 0
M  V30 2625 C 236.434 0.610159 1.47476 0
M  V30 2626 C 236.634 -0.844955 1.82928 0
M  V30 2627 O 235.69 -1.62416 1.93332 0
M  V30 2628 C 237.003 1.54675 2.57868 0
M  V30 2629 C 238.551 1.55331 2.71738 0
M  V30 2630 C 239.026 2.47649 3.85272 0
M  V30 2631 N 240.517 2.45767 3.92623 0
M  V30 2632 C 241.252 3.13896 4.79851 0
M  V30 2633 N 240.748 3.9135 5.71679 0
M  V30 2634 N 242.541 3.02991 4.73448 0
M  V30 2635 H 234.692 1.85318 1.03783 0
M  V30 2636 H 236.955 0.794777 0.516753 0
M  V30 2637 H 236.661 2.5841 2.38574 0
M  V30 2638 H 236.535 1.27671 3.54937 0
M  V30 2639 H 238.922 0.52335 2.90422 0
M  V30 2640 H 239.003 1.86378 1.75205 0
M  V30 2641 H 238.647 3.50745 3.67342 0
M  V30 2642 H 238.577 2.13904 4.81199 0
M  V30 2643 H 241.068 1.89503 3.26951 0
M  V30 2644 H 241.381 4.40359 6.35062 0
M  V30 2645 H 239.726 3.95455 5.71524 0
M  V30 2646 H 242.917 2.41987 4.007 0
M  V30 2647 H 243.09 3.5636 5.41213 0
M  V30 2648 N 236.496 -1.42363 0.676048 0
M  V30 2649 C 237.443 -2.308 -0.00150904 0
M  V30 2650 C 238.413 -1.46032 -0.791444 0
M  V30 2651 O 239.598 -1.74861 -0.76344 0
M  V30 2652 C 236.738 -3.31883 -0.945919 0
M  V30 2653 C 235.851 -4.31741 -0.149675 0
M  V30 2654 C 234.986 -5.19898 -1.08995 0
M  V30 2655 C 234.025 -6.11434 -0.285465 0
M  V30 2656 N 233.162 -6.92138 -1.17851 0
M  V30 2657 H 238.002 -2.88187 0.758455 0
M  V30 2658 H 235.539 -1.41952 0.38576 0
M  V30 2659 H 237.497 -3.89019 -1.50731 0
M  V30 2660 H 236.127 -2.76093 -1.6725 0
M  V30 2661 H 235.179 -3.76713 0.528359 0
M  V30 2662 H 236.491 -4.96534 0.474866 0
M  V30 2663 H 235.645 -5.81772 -1.72123 0
M  V30 2664 H 234.384 -4.55284 -1.74837 0
M  V30 2665 H 233.389 -5.48627 0.359018 0
M  V30 2666 H 234.614 -6.78097 0.368883 0
M  V30 2667 H 232.56 -6.30152 -1.82332 0
M  V30 2668 H 232.477 -7.53542 -0.609082 0
M  V30 2669 H 233.745 -7.58499 -1.79722 0
M  V30 2670 N 237.974 -0.419461 -1.51915 0
M  V30 2671 C 238.921 0.400927 -2.27291 0
M  V30 2672 C 239.891 1.03224 -1.30131 0
M  V30 2673 O 241.076 1.05455 -1.59009 0
M  V30 2674 C 238.216 1.50603 -3.10504 0
M  V30 2675 C 237.329 0.89462 -4.22635 0
M  V30 2676 C 236.464 1.97328 -4.93189 0
M  V30 2677 C 235.503 1.33935 -5.97267 0
M  V30 2678 N 234.64 2.3586 -6.61298 0
M  V30 2679 H 239.48 -0.248251 -2.96964 0
M  V30 2680 H 237.017 -0.134266 -1.46486 0
M  V30 2681 H 238.975 2.15783 -3.57062 0
M  V30 2682 H 237.605 2.12509 -2.42981 0
M  V30 2683 H 236.657 0.131583 -3.80172 0
M  V30 2684 H 237.969 0.391641 -4.9726 0
M  V30 2685 H 237.123 2.70211 -5.43204 0
M  V30 2686 H 235.862 2.50994 -4.18155 0
M  V30 2687 H 234.867 0.595896 -5.46561 0
M  V30 2688 H 236.092 0.810252 -6.74249 0
M  V30 2689 H 234.038 2.88639 -5.89087 0
M  V30 2690 H 233.955 1.90403 -7.3163 0
M  V30 2691 H 235.223 3.08282 -7.15949 0
M  V30 2692 N 239.452 1.56882 -0.150215 0
M  V30 2693 C 240.362 2.20494 0.801222 0
M  V30 2694 C 241.378 1.19019 1.26927 0
M  V30 2695 O 242.554 1.51607 1.32579 0
M  V30 2696 C 239.619 2.81659 2.02161 0
M  V30 2697 C 238.68 3.9827 1.60249 0
M  V30 2698 C 237.913 4.56508 2.7647 0
M  V30 2699 O 238.136 4.13627 3.92771 0
M  V30 2700 O 237.07 5.46719 2.51757 0
M  V30 2701 H 240.896 3.02315 0.289717 0
M  V30 2702 H 238.481 1.49202 0.0769684 0
M  V30 2703 H 240.363 3.20522 2.73576 0
M  V30 2704 H 239.038 2.02849 2.52258 0
M  V30 2705 H 237.945 3.64117 0.858477 0
M  V30 2706 H 239.278 4.78609 1.14864 0
M  V30 2707 N 240.93 -0.123565 1.57115 0
M  V30 2708 C 241.877 -1.15177 2.00007 0
M  V30 2709 C 242.847 -1.41403 0.871454 0
M  V30 2710 O 244.032 -1.53346 1.13533 0
M  V30 2711 C 241.172 -2.47436 2.40561 0
M  V30 2712 C 240.285 -2.28184 3.66819 0
M  V30 2713 C 239.42 -3.53641 3.96373 0
M  V30 2714 C 238.459 -3.29528 5.15827 0
M  V30 2715 N 237.596 -4.47175 5.41275 0
M  V30 2716 H 242.436 -0.779008 2.87638 0
M  V30 2717 H 239.973 -0.373166 1.42288 0
M  V30 2718 H 241.931 -3.24584 2.62109 0
M  V30 2719 H 240.561 -2.82614 1.55978 0
M  V30 2720 H 239.613 -1.41976 3.52912 0
M  V30 2721 H 240.925 -2.0634 4.5412 0
M  V30 2722 H 240.079 -4.39209 4.18545 0
M  V30 2723 H 238.818 -3.78512 3.07538 0
M  V30 2724 H 237.823 -2.42349 4.93505 0
M  V30 2725 H 239.048 -3.06031 6.06236 0
M  V30 2726 H 236.994 -4.72175 4.55397 0
M  V30 2727 H 236.911 -4.28419 6.22891 0
M  V30 2728 H 238.179 -5.3389 5.67963 0
M  V30 2729 N 242.408 -1.52605 -0.393616 0
M  V30 2730 C 243.318 -1.79971 -1.50492 0
M  V30 2731 C 244.334 -0.686181 -1.59899 0
M  V30 2732 O 245.51 -0.973274 -1.76322 0
M  V30 2733 C 242.575 -1.95867 -2.86072 0
M  V30 2734 C 241.636 -3.19781 -2.86424 0
M  V30 2735 C 240.869 -3.34909 -4.15538 0
M  V30 2736 O 241.092 -2.54948 -5.10253 0
M  V30 2737 O 240.026 -4.28141 -4.23059 0
M  V30 2738 H 243.852 -2.74328 -1.30299 0
M  V30 2739 H 241.437 -1.3764 -0.581005 0
M  V30 2740 H 243.319 -2.08056 -3.66457 0
M  V30 2741 H 241.994 -1.04699 -3.063 0
M  V30 2742 H 240.901 -3.13038 -2.04837 0
M  V30 2743 H 242.234 -4.1078 -2.71147 0
M  V30 2744 N 243.887 0.651787 -1.4349 0
M  V30 2745 C 245.117 1.43728 -1.48411 0
M  V30 2746 C 245.525 1.8893 -0.10103 0
M  V30 2747 O 244.868 1.60182 0.899307 0
M  V30 2748 C 244.93 2.70411 -2.36893 0
M  V30 2749 C 244.594 2.4714 -3.8441 0
M  V30 2750 C 245.591 2.10271 -4.75481 0
M  V30 2751 C 243.276 2.6142 -4.28912 0
M  V30 2752 C 245.27 1.87982 -6.0905 0
M  V30 2753 C 242.957 2.38746 -5.62533 0
M  V30 2754 C 243.955 2.02083 -6.5242 0
M  V30 2755 O 243.643 1.79647 -7.8357 0
M  V30 2756 H 243.375 0.447962 -0.506267 0
M  V30 2757 H 245.929 0.80624 -1.88915 0
M  V30 2758 H 244.159 3.36079 -1.91278 0
M  V30 2759 H 245.848 3.32364 -2.33 0
M  V30 2760 H 246.614 1.98814 -4.42378 0
M  V30 2761 H 242.493 2.88931 -3.59222 0
M  V30 2762 H 246.037 1.5929 -6.7917 0
M  V30 2763 H 241.934 2.49806 -5.95203 0
M  V30 2764 H 242.702 1.9406 -7.95162 0
M  V30 2765 N 245.365 1.30045 0.890287 0
M  V30 2766 C 246.295 1.18541 2.01172 0
M  V30 2767 C 247.276 0.0773356 1.69924 0
M  V30 2768 O 248.461 0.25845 1.92473 0
M  V30 2769 C 245.591 0.870941 3.36202 0
M  V30 2770 C 244.545 1.93637 3.81692 0
M  V30 2771 C 243.871 1.475 5.13953 0
M  V30 2772 C 245.171 3.34666 4.00994 0
M  V30 2773 H 246.865 2.12359 2.11054 0
M  V30 2774 H 244.411 1.02238 1.01407 0
M  V30 2775 H 246.364 0.777141 4.14172 0
M  V30 2776 H 245.088 -0.102926 3.26438 0
M  V30 2777 H 243.747 2.01972 3.05946 0
M  V30 2778 H 243.395 0.489551 5.00612 0
M  V30 2779 H 243.095 2.1876 5.4536 0
M  V30 2780 H 244.619 1.39489 5.94454 0
M  V30 2781 H 246.033 3.2912 4.69417 0
M  V30 2782 H 244.43 4.03966 4.43769 0
M  V30 2783 H 245.5 3.76949 3.05021 0
M  V30 2784 N 246.843 -1.10192 1.12674 0
M  V30 2785 C 247.776 -2.15847 0.740625 0
M  V30 2786 C 248.754 -1.60352 -0.269421 0
M  V30 2787 O 249.938 -1.87796 -0.16278 0
M  V30 2788 C 247.065 -3.38562 0.096641 0
M  V30 2789 C 246.111 -4.12758 1.07391 0
M  V30 2790 S 246.944 -4.67997 2.60267 0
M  V30 2791 C 248.1 -5.94021 1.97206 0
M  V30 2792 H 248.333 -2.48266 1.63558 0
M  V30 2793 H 245.866 -1.22019 0.946087 0
M  V30 2794 H 247.824 -4.09621 -0.268535 0
M  V30 2795 H 246.485 -3.04377 -0.775462 0
M  V30 2796 H 245.678 -5.00755 0.570997 0
M  V30 2797 H 245.28 -3.47523 1.38216 0
M  V30 2798 H 247.572 -6.64589 1.31634 0
M  V30 2799 H 248.515 -6.48979 2.83253 0
M  V30 2800 H 248.923 -5.46169 1.42686 0
M  V30 2801 N 248.321 -0.919034 -1.28029 0
M  V30 2802 C 249.268 -0.410005 -2.27129 0
M  V30 2803 C 250.238 0.518405 -1.57803 0
M  V30 2804 O 251.423 0.439451 -1.8567 0
M  V30 2805 C 248.563 0.339054 -3.4343 0
M  V30 2806 C 247.676 -0.622468 -4.27492 0
M  V30 2807 C 246.811 0.145567 -5.31001 0
M  V30 2808 C 245.85 -0.809226 -6.06727 0
M  V30 2809 N 244.987 -0.0743728 -7.02061 0
M  V30 2810 H 249.827 -1.26011 -2.70047 0
M  V30 2811 H 247.364 -0.632663 -1.328 0
M  V30 2812 H 249.322 0.789586 -4.0966 0
M  V30 2813 H 247.952 1.15346 -3.01488 0
M  V30 2814 H 247.004 -1.19153 -3.61257 0
M  V30 2815 H 248.316 -1.35252 -4.80113 0
M  V30 2816 H 247.47 0.656417 -6.03139 0
M  V30 2817 H 246.209 0.908643 -4.79161 0
M  V30 2818 H 245.214 -1.3314 -5.33436 0
M  V30 2819 H 246.439 -1.57194 -6.60656 0
M  V30 2820 H 244.385 0.670616 -6.52563 0
M  V30 2821 H 244.302 -0.744157 -7.52329 0
M  V30 2822 H 245.57 0.416109 -7.78389 0
M  V30 2823 N 249.799 1.42003 -0.683588 0
M  V30 2824 C 250.709 2.34597 -0.0109075 0
M  V30 2825 C 251.725 1.55576 0.779245 0
M  V30 2826 O 252.901 1.88107 0.719555 0
M  V30 2827 C 249.966 3.34199 0.922588 0
M  V30 2828 C 249.027 4.29115 0.125984 0
M  V30 2829 C 248.26 5.23959 1.01502 0
M  V30 2830 O 248.483 5.23952 2.25456 0
M  V30 2831 O 247.417 6.00053 0.47111 0
M  V30 2832 H 251.243 2.93675 -0.773853 0
M  V30 2833 H 248.828 1.42654 -0.443861 0
M  V30 2834 H 250.71 3.95365 1.45823 0
M  V30 2835 H 249.385 2.77582 1.66523 0
M  V30 2836 H 248.292 3.71335 -0.453969 0
M  V30 2837 H 249.625 4.88798 -0.577736 0
M  V30 2838 N 251.277 0.427512 1.51691 0
M  V30 2839 C 252.207 -0.3796 2.30394 0
M  V30 2840 C 253.188 -1.02982 1.35384 0
M  V30 2841 O 254.373 -1.03534 1.643 0
M  V30 2842 C 251.503 -1.48649 3.1388 0
M  V30 2843 C 250.457 -0.960294 4.17088 0
M  V30 2844 C 249.783 -2.16219 4.89033 0
M  V30 2845 C 251.083 -0.00153679 5.223 0
M  V30 2846 H 252.777 0.277164 2.98114 0
M  V30 2847 H 250.323 0.134739 1.43368 0
M  V30 2848 H 252.276 -2.05826 3.67714 0
M  V30 2849 H 251 -2.1714 2.43962 0
M  V30 2850 H 249.659 -0.410806 3.64291 0
M  V30 2851 H 249.307 -2.83307 4.15628 0
M  V30 2852 H 249.007 -1.81654 5.58816 0
M  V30 2853 H 250.531 -2.73968 5.45687 0
M  V30 2854 H 251.945 -0.482687 5.71264 0
M  V30 2855 H 250.342 0.256199 5.99553 0
M  V30 2856 H 251.412 0.938174 4.75738 0
M  V30 2857 N 252.755 -1.56801 0.158532 0
M  V30 2858 C 253.665 -2.20916 -0.789518 0
M  V30 2859 C 254.681 -1.1969 -1.26294 0
M  V30 2860 O 255.857 -1.52308 -1.31773 0
M  V30 2861 C 252.922 -2.82727 -2.00665 0
M  V30 2862 C 251.983 -3.99114 -1.58134 0
M  V30 2863 C 251.216 -4.57968 -2.74045 0
M  V30 2864 O 251.439 -4.15704 -3.90572 0
M  V30 2865 O 250.373 -5.48047 -2.48855 0
M  V30 2866 H 254.199 -3.02464 -0.273681 0
M  V30 2867 H 251.784 -1.4924 -0.0690548 0
M  V30 2868 H 253.666 -3.21968 -2.71872 0
M  V30 2869 H 252.341 -2.04184 -2.51179 0
M  V30 2870 H 251.248 -3.64567 -0.839155 0
M  V30 2871 H 252.581 -4.79212 -1.12325 0
M  V30 2872 N 254.233 0.115231 -1.57178 0
M  V30 2873 C 255.143 1.15994 -2.03918 0
M  V30 2874 C 256.159 1.45103 -0.960268 0
M  V30 2875 O 257.335 1.56144 -1.27204 0
M  V30 2876 C 254.4 2.46568 -2.43732 0
M  V30 2877 C 253.461 2.24822 -3.65723 0
M  V30 2878 C 252.694 3.4917 -4.03629 0
M  V30 2879 O 252.917 4.56623 -3.41835 0
M  V30 2880 O 251.851 3.39949 -4.96708 0
M  V30 2881 H 255.677 0.793019 -2.93164 0
M  V30 2882 H 253.262 0.3263 -1.45793 0
M  V30 2883 H 255.144 3.23492 -2.70057 0
M  V30 2884 H 253.819 2.82726 -1.57631 0
M  V30 2885 H 252.726 1.45744 -3.44542 0
M  V30 2886 H 254.059 1.93566 -4.52541 0
M  V30 2887 N 255.711 1.52812 0.385517 0
M  V30 2888 C 256.644 1.72592 1.49289 0
M  V30 2889 C 257.622 0.573819 1.52138 0
M  V30 2890 O 258.806 0.80404 1.70492 0
M  V30 2891 C 255.933 1.78669 2.87741 0
M  V30 2892 C 254.979 3.00455 3.02703 0
M  V30 2893 S 255.812 4.60366 2.73538 0
M  V30 2894 C 256.968 4.69263 4.14177 0
M  V30 2895 H 257.201 2.66248 1.32285 0
M  V30 2896 H 254.734 1.43148 0.578611 0
M  V30 2897 H 256.692 1.82855 3.67524 0
M  V30 2898 H 255.353 0.861 3.02069 0
M  V30 2899 H 254.546 3.01258 4.04054 0
M  V30 2900 H 254.148 2.94278 2.30817 0
M  V30 2901 H 256.44 4.48092 5.08153 0
M  V30 2902 H 257.383 5.71276 4.18388 0
M  V30 2903 H 257.791 3.98072 4.00249 0
M  V30 2904 N 257.189 -0.644168 1.43834 0
M  V30 2905 C 258.466 -1.40188 1.36406 0
M  V30 2906 C 258.846 -2.11094 0.0163124 0
M  V30 2907 O 258.194 -2.05426 -1.00062 0
M  V30 2908 C 258.404 -2.3791 2.55343 0
M  V30 2909 C 259.752 -3.01637 2.98832 0
M  V30 2910 O 260.776 -2.48237 2.55455 0
M  V30 2911 O 259.635 -3.98477 3.74003 0
M  V30 2912 H 256.729 -0.626773 0.539523 0
M  V30 2913 H 259.275 -0.670317 1.559 0
M  V30 2914 H 258.047 -1.84525 3.4506 0
M  V30 2915 H 257.67 -3.18503 2.37995 0
M  V30 2916 N 258.668 -1.30515 -0.883378 0
M  V30 2917 C 259.578 -1.18959 -2.02203 0
M  V30 2918 C 260.594 -0.109172 -1.73657 0
M  V30 2919 O 261.77 -0.324413 -1.9877 0
M  V30 2920 C 258.835 -0.883871 -3.35244 0
M  V30 2921 C 257.896 -2.04982 -3.77201 0
M  V30 2922 C 257.129 -1.75859 -5.03894 0
M  V30 2923 O 257.352 -0.687276 -5.66244 0
M  V30 2924 O 256.286 -2.61146 -5.42297 0
M  V30 2925 H 260.112 -2.14616 -2.1488 0
M  V30 2926 H 257.697 -1.10124 -1.0096 0
M  V30 2927 H 259.579 -0.728644 -4.15053 0
M  V30 2928 H 258.254 0.0427798 -3.23672 0
M  V30 2929 H 257.161 -2.26038 -2.9809 0
M  V30 2930 H 258.494 -2.95825 -3.93381 0
M  V30 2931 N 260.146 1.09593 -1.13257 0
M  V30 2932 C 261.371 1.8604 -0.916732 0
M  V30 2933 C 261.796 1.80504 0.529146 0
M  V30 2934 O 261.154 1.18127 1.37534 0
M  V30 2935 C 261.202 3.32017 -1.40703 0
M  V30 2936 O 260.306 4.08141 -0.591153 0
M  V30 2937 H 259.647 0.576943 -0.328683 0
M  V30 2938 H 262.177 1.38405 -1.50682 0
M  V30 2939 H 262.187 3.82865 -1.4099 0
M  V30 2940 H 260.862 3.35361 -2.45979 0
M  V30 2941 H 259.439 3.67084 -0.656005 0
M  V30 2942 N 261.624 0.925811 1.2754 0
M  V30 2943 C 262.901 0.483726 1.89524 0
M  V30 2944 C 263.281 -1.03809 1.83812 0
M  V30 2945 O 262.629 -1.89143 1.28207 0
M  V30 2946 C 262.839 1.02769 3.33526 0
M  V30 2947 C 264.187 1.08703 4.10449 0
M  V30 2948 O 265.211 0.977175 3.42534 0
M  V30 2949 O 264.07 1.25599 5.31871 0
M  V30 2950 H 261.164 0.15529 0.812289 0
M  V30 2951 H 263.71 1.01738 1.35822 0
M  V30 2952 H 262.482 2.07155 3.31967 0
M  V30 2953 H 262.105 0.475567 3.94746 0
M  V30 2954 N 263.102 -1.41638 0.69111 0
M  V30 2955 C 264.348 -2.01598 0.220519 0
M  V30 2956 C 264.681 -1.54594 -1.17535 0
M  V30 2957 O 263.956 -0.755177 -1.79241 0
M  V30 2958 C 264.239 -3.59062 0.273243 0
M  V30 2959 C 264.092 -4.16203 1.70573 0
M  V30 2960 C 265.411 -4.38546 -0.369457 0
M  V30 2961 H 262.53 -0.732468 0.0816045 0
M  V30 2962 H 265.172 -1.68445 0.878986 0
M  V30 2963 H 263.322 -3.87435 -0.287411 0
M  V30 2964 H 264.994 -3.98722 2.31989 0
M  V30 2965 H 263.237 -3.71414 2.2413 0
M  V30 2966 H 263.908 -5.25358 1.69419 0
M  V30 2967 H 266.384 -4.1596 0.107977 0
M  V30 2968 H 265.26 -5.48069 -0.302002 0
M  V30 2969 H 265.521 -4.17662 -1.44951 0
M  V30 2970 N 264.58 -0.43555 -1.51462 0
M  V30 2971 C 265.49 0.383001 -2.31453 0
M  V30 2972 C 266.506 1.02931 -1.4029 0
M  V30 2973 O 267.682 1.02507 -1.73362 0
M  V30 2974 C 264.747 1.47043 -3.13973 0
M  V30 2975 C 263.808 0.844433 -4.20913 0
M  V30 2976 C 263.041 1.88004 -4.9949 0
M  V30 2977 O 263.264 3.10199 -4.78678 0
M  V30 2978 O 262.198 1.47157 -5.83634 0
M  V30 2979 H 266.024 -0.269964 -3.02498 0
M  V30 2980 H 263.609 -0.19813 -1.4808 0
M  V30 2981 H 265.491 2.10113 -3.65281 0
M  V30 2982 H 264.166 2.10751 -2.45695 0
M  V30 2983 H 263.073 0.175729 -3.73687 0
M  V30 2984 H 264.406 0.250869 -4.9156 0
M  V30 2985 N 266.058 1.56714 -0.166846 0
M  V30 2986 C 267.005 2.17746 0.765193 0
M  V30 2987 C 267.975 1.11614 1.23011 0
M  V30 2988 O 269.16 1.39745 1.29908 0
M  V30 2989 C 266.3 2.81882 1.9909 0
M  V30 2990 C 265.413 4.02462 1.56997 0
M  V30 2991 C 264.548 4.54537 2.749 0
M  V30 2992 C 263.587 5.67538 2.29275 0
M  V30 2993 N 262.724 6.14142 3.40255 0
M  V30 2994 H 267.564 2.97048 0.237952 0
M  V30 2995 H 265.101 1.4672 0.105725 0
M  V30 2996 H 267.059 3.17221 2.70974 0
M  V30 2997 H 265.689 2.05191 2.49192 0
M  V30 2998 H 264.741 3.72973 0.748037 0
M  V30 2999 H 266.053 4.84273 1.19503 0
M  V30 3000 H 265.207 4.92035 3.54946 0
M  V30 3001 H 263.946 3.71774 3.1565 0
M  V30 3002 H 262.951 5.29597 1.47674 0
M  V30 3003 H 264.176 6.52099 1.89588 0
M  V30 3004 H 262.122 5.3431 3.8059 0
M  V30 3005 H 262.039 6.9093 3.06841 0
M  V30 3006 H 263.307 6.56289 4.206 0
M  V30 3007 N 267.536 -0.106894 1.57237 0
M  V30 3008 C 268.499 -1.11466 2.0027 0
M  V30 3009 C 269.499 -1.33623 0.894519 0
M  V30 3010 O 270.689 -1.29935 1.16028 0
M  V30 3011 C 267.821 -2.46646 2.35327 0
M  V30 3012 H 269.014 -0.744516 2.90512 0
M  V30 3013 H 266.567 -0.351576 1.52295 0
M  V30 3014 H 267.302 -2.88558 1.48003 0
M  V30 3015 H 267.087 -2.31915 3.16161 0
M  V30 3016 H 268.577 -3.19151 2.69318 0
M  V30 3017 N 269.014 -1.53014 -0.377408 0
M  V30 3018 C 270.261 -1.68623 -1.12128 0
M  V30 3019 C 270.589 -0.431997 -1.89642 0
M  V30 3020 O 269.844 0.585855 -1.86725 0
M  V30 3021 C 270.143 -2.87982 -2.11663 0
M  V30 3022 C 269.809 -4.24964 -1.50719 0
M  V30 3023 C 268.471 -4.62217 -1.33825 0
M  V30 3024 C 270.823 -5.10199 -1.06519 0
M  V30 3025 C 268.151 -5.82352 -0.712963 0
M  V30 3026 C 270.503 -6.30969 -0.453955 0
M  V30 3027 C 269.167 -6.66944 -0.272411 0
M  V30 3028 H 268.437 -0.617034 -0.410305 0
M  V30 3029 H 271.084 -1.8718 -0.404484 0
M  V30 3030 H 269.389 -2.63889 -2.89603 0
M  V30 3031 H 271.086 -2.97253 -2.6915 0
M  V30 3032 H 267.676 -3.95626 -1.64858 0
M  V30 3033 H 271.86 -4.81978 -1.18368 0
M  V30 3034 H 267.116 -6.08824 -0.560611 0
M  V30 3035 H 271.29 -6.96324 -0.103217 0
M  V30 3036 H 268.917 -7.59898 0.214181 0
M  V30 3037 N 270.492 0.636531 -1.44174 0
M  V30 3038 C 271.908 0.954104 -1.27941 0
M  V30 3039 C 272.108 2.0039 -0.211248 0
M  V30 3040 O 271.164 2.49236 0.404695 0
M  V30 3041 C 272.477 1.4225 -2.64925 0
M  V30 3042 C 274.025 1.53827 -2.72592 0
M  V30 3043 C 274.5 2.04053 -4.10032 0
M  V30 3044 N 275.991 2.11331 -4.12182 0
M  V30 3045 C 276.726 2.51352 -5.15374 0
M  V30 3046 N 276.222 2.90549 -6.2893 0
M  V30 3047 N 278.015 2.51438 -5.02728 0
M  V30 3048 H 270.166 -0.0578386 -2.12321 0
M  V30 3049 H 272.429 0.0367406 -0.947288 0
M  V30 3050 H 272.135 0.725466 -3.44136 0
M  V30 3051 H 272.009 2.39451 -2.9145 0
M  V30 3052 H 274.396 2.22628 -1.93702 0
M  V30 3053 H 274.477 0.550154 -2.49814 0
M  V30 3054 H 274.121 1.35848 -4.89395 0
M  V30 3055 H 274.051 3.03726 -4.30184 0
M  V30 3056 H 276.542 1.83745 -3.30222 0
M  V30 3057 H 276.855 3.19884 -7.03487 0
M  V30 3058 H 275.2 2.88313 -6.32377 0
M  V30 3059 H 278.391 2.20203 -4.13072 0
M  V30 3060 H 278.564 2.82304 -5.83274 0
M  V30 3061 N 271.97 1.30982 0.876444 0
M  V30 3062 C 272.88 1.2003 2.01569 0
M  V30 3063 C 273.896 0.11838 1.73597 0
M  V30 3064 O 275.072 0.33495 1.98595 0
M  V30 3065 C 272.137 0.901637 3.34771 0
M  V30 3066 C 271.198 2.06979 3.76109 0
M  V30 3067 C 270.431 1.78529 5.02954 0
M  V30 3068 O 270.654 0.717296 5.65872 0
M  V30 3069 O 269.588 2.64019 5.40905 0
M  V30 3070 H 273.414 2.15753 2.13739 0
M  V30 3071 H 270.999 1.10658 1.00375 0
M  V30 3072 H 272.881 0.750645 4.1466 0
M  V30 3073 H 271.556 -0.0256141 3.2369 0
M  V30 3074 H 270.463 2.27616 2.96887 0
M  V30 3075 H 271.796 2.97907 3.91807 0
M  V30 3076 N 273.449 -1.08991 1.13837 0
M  V30 3077 C 274.379 -2.17771 0.842507 0
M  V30 3078 C 275.36 -1.6892 -0.20001 0
M  V30 3079 O 276.545 -1.94113 -0.0579731 0
M  V30 3080 C 273.675 -3.4589 0.312644 0
M  V30 3081 C 272.629 -4.08099 1.28992 0
M  V30 3082 C 271.955 -5.31098 0.619623 0
M  V30 3083 C 273.255 -4.50077 2.65005 0
M  V30 3084 H 274.949 -2.42777 1.75213 0
M  V30 3085 H 272.495 -1.16682 0.843875 0
M  V30 3086 H 274.448 -4.21297 0.0933043 0
M  V30 3087 H 273.172 -3.20419 -0.632382 0
M  V30 3088 H 271.831 -3.34717 1.49533 0
M  V30 3089 H 271.479 -5.0191 -0.33102 0
M  V30 3090 H 271.179 -5.73674 1.27167 0
M  V30 3091 H 272.703 -6.09224 0.409669 0
M  V30 3092 H 274.117 -5.16688 2.48407 0
M  V30 3093 H 272.514 -5.03553 3.26427 0
M  V30 3094 H 273.584 -3.62257 3.22332 0
M  V30 3095 N 274.927 -0.932562 -1.27047 0
M  V30 3096 C 275.859 -0.392734 -2.2581 0
M  V30 3097 C 276.872 0.479241 -1.55586 0
M  V30 3098 O 278.061 0.291078 -1.76111 0
M  V30 3099 C 275.161 0.455456 -3.35826 0
M  V30 3100 C 274.334 -0.398355 -4.35582 0
M  V30 3101 C 273.393 0.387985 -5.24768 0
M  V30 3102 O 272.419 -0.206003 -5.68827 0
M  V30 3103 N 273.621 1.68664 -5.55457 0
M  V30 3104 H 276.386 -1.24173 -2.72766 0
M  V30 3105 H 273.947 -0.800511 -1.40725 0
M  V30 3106 H 275.939 0.988692 -3.92437 0
M  V30 3107 H 274.509 1.20522 -2.88432 0
M  V30 3108 H 273.729 -1.11286 -3.78165 0
M  V30 3109 H 275.017 -0.981889 -4.99236 0
M  V30 3110 H 274.415 2.19147 -5.21528 0
M  V30 3111 H 272.972 2.1663 -6.14748 0
M  V30 3112 N 276.405 1.4127 -0.698611 0
M  V30 3113 C 277.652 2.0118 -0.230865 0
M  V30 3114 C 277.98 1.55338 1.17049 0
M  V30 3115 O 277.235 0.756775 1.80475 0
M  V30 3116 C 277.534 3.56592 -0.240192 0
M  V30 3117 C 277.2 4.21955 -1.58948 0
M  V30 3118 C 275.862 4.39524 -1.95887 0
M  V30 3119 C 278.214 4.58576 -2.47704 0
M  V30 3120 C 275.542 4.90992 -3.2116 0
M  V30 3121 C 277.894 5.11435 -3.72313 0
M  V30 3122 C 276.558 5.27215 -4.0939 0
M  V30 3123 H 275.828 0.736169 -0.0844796 0
M  V30 3124 H 278.475 1.69124 -0.8983 0
M  V30 3125 H 276.78 3.88456 0.510797 0
M  V30 3126 H 278.477 4.00758 0.139296 0
M  V30 3127 H 275.067 4.08657 -1.29219 0
M  V30 3128 H 279.251 4.44654 -2.20445 0
M  V30 3129 H 274.507 5.01393 -3.49878 0
M  V30 3130 H 278.681 5.38752 -4.4127 0
M  V30 3131 H 276.308 5.66859 -5.06533 0
M  V30 3132 N 277.883 0.443576 1.51229 0
M  V30 3133 C 279.132 -0.122332 2.01329 0
M  V30 3134 C 279.445 -1.43237 1.33201 0
M  V30 3135 O 280.651 -2.0816 1.74304 0
M  V30 3136 C 279.107 -0.268551 3.58897 0
M  V30 3137 C 278.715 1.03142 4.35965 0
M  V30 3138 C 280.459 -0.787894 4.17124 0
M  V30 3139 C 278.366 0.850504 5.85252 0
M  V30 3140 H 277.296 -0.0494929 0.752374 0
M  V30 3141 H 279.947 0.574289 1.74282 0
M  V30 3142 H 278.329 -1.02832 3.82415 0
M  V30 3143 H 279.503 1.80001 4.24189 0
M  V30 3144 H 277.818 1.47977 3.89219 0
M  V30 3145 H 280.415 -0.939841 5.26375 0
M  V30 3146 H 280.758 -1.77201 3.76703 0
M  V30 3147 H 281.291 -0.0862669 3.97706 0
M  V30 3148 H 278.03 1.80718 6.30096 0
M  V30 3149 H 277.55 0.121825 5.99676 0
M  V30 3150 H 279.229 0.506163 6.45017 0
M  V30 3151 N 279.361 -1.56624 0.175154 0
M  V30 3152 C 280.308 -2.18149 -0.753634 0
M  V30 3153 C 281.278 -1.12265 -1.22417 0
M  V30 3154 O 282.463 -1.40432 -1.29165 0
M  V30 3155 C 279.603 -2.82933 -1.97592 0
M  V30 3156 C 278.716 -4.03289 -1.5486 0
M  V30 3157 C 277.851 -4.55988 -2.72485 0
M  V30 3158 C 276.89 -5.68746 -2.26262 0
M  V30 3159 N 276.027 -6.15938 -3.36994 0
M  V30 3160 H 280.867 -2.9717 -0.222195 0
M  V30 3161 H 278.404 -1.46774 -0.0979422 0
M  V30 3162 H 280.362 -3.18653 -2.69288 0
M  V30 3163 H 278.992 -2.06509 -2.481 0
M  V30 3164 H 278.044 -3.73364 -0.728246 0
M  V30 3165 H 279.356 -4.849 -1.16933 0
M  V30 3166 H 278.51 -4.9391 -3.52332 0
M  V30 3167 H 277.249 -3.73443 -3.13674 0
M  V30 3168 H 276.254 -5.30372 -1.44863 0
M  V30 3169 H 277.479 -6.53095 -1.86127 0
M  V30 3170 H 275.425 -5.36321 -3.77751 0
M  V30 3171 H 275.342 -6.92548 -3.03172 0
M  V30 3172 H 276.61 -6.58511 -4.17114 0
M  V30 3173 N 280.839 0.0985539 -1.57292 0
M  V30 3174 C 281.769 1.12064 -2.04851 0
M  V30 3175 C 282.75 1.41981 -0.936767 0
M  V30 3176 O 283.935 1.52071 -1.20781 0
M  V30 3177 C 281.065 2.44144 -2.47004 0
M  V30 3178 C 280.019 2.28643 -3.6181 0
M  V30 3179 C 279.345 3.65869 -3.89929 0
M  V30 3180 C 280.645 1.72986 -4.92822 0
M  V30 3181 H 282.339 0.724979 -2.9049 0
M  V30 3182 H 279.885 0.34729 -1.39749 0
M  V30 3183 H 281.838 3.15914 -2.78884 0
M  V30 3184 H 280.562 2.85639 -1.5836 0
M  V30 3185 H 279.221 1.59318 -3.30172 0
M  V30 3186 H 278.869 4.04885 -2.98458 0
M  V30 3187 H 278.569 3.56344 -4.67218 0
M  V30 3188 H 280.093 4.39112 -4.2428 0
M  V30 3189 H 281.507 2.34593 -5.23105 0
M  V30 3190 H 279.904 1.74229 -5.74251 0
M  V30 3191 H 280.974 0.689007 -4.7998 0
M  V30 3192 N 282.317 1.53212 0.369288 0
M  V30 3193 C 283.733 1.42902 0.710712 0
M  V30 3194 C 283.933 0.565135 1.93413 0
M  V30 3195 O 282.989 0.0461484 2.52458 0
M  V30 3196 C 284.302 2.86042 0.927382 0
M  V30 3197 C 285.85 2.9565 1.02762 0
M  V30 3198 C 286.325 4.39843 1.27679 0
M  V30 3199 N 287.816 4.43256 1.34457 0
M  V30 3200 C 288.551 5.51929 1.55439 0
M  V30 3201 N 288.047 6.70655 1.73762 0
M  V30 3202 N 289.84 5.39502 1.57779 0
M  V30 3203 H 281.991 2.07888 -0.435457 0
M  V30 3204 H 284.254 0.938661 -0.132739 0
M  V30 3205 H 283.96 3.51557 0.100287 0
M  V30 3206 H 283.834 3.29472 1.83653 0
M  V30 3207 H 286.221 2.30291 1.84527 0
M  V30 3208 H 286.302 2.5562 0.0959504 0
M  V30 3209 H 285.946 5.05774 0.464175 0
M  V30 3210 H 285.876 4.77443 2.22162 0
M  V30 3211 H 288.367 3.5769 1.21926 0
M  V30 3212 H 288.68 7.49248 1.89335 0
M  V30 3213 H 287.025 6.73648 1.70948 0
M  V30 3214 H 290.216 4.45713 1.43029 0
M  V30 3215 H 290.389 6.2426 1.7379 0
M  V30 3216 N 283.795 -0.628877 1.44509 0
M  V30 3217 C 285.072 -1.38733 1.37886 0
M  V30 3218 C 285.452 -2.11065 0.0387008 0
M  V30 3219 O 284.8 -2.06476 -0.97878 0
M  V30 3220 C 285.01 -2.35188 2.57852 0
M  V30 3221 C 286.358 -2.9845 3.02014 0
M  V30 3222 O 287.382 -2.45513 2.58073 0
M  V30 3223 O 286.241 -3.94487 3.78209 0
M  V30 3224 H 283.335 -0.621015 0.54614 0
M  V30 3225 H 285.881 -0.653744 1.56602 0
M  V30 3226 H 284.653 -1.80855 3.46998 0
M  V30 3227 H 284.276 -3.1596 2.4136 0
M  V30 3228 N 285.273 -1.31445 -0.869486 0
M  V30 3229 C 286.689 -1.10113 -1.15531 0
M  V30 3230 C 286.889 0.128087 -2.01092 0
M  V30 3231 O 285.945 0.817276 -2.38908 0
M  V30 3232 C 287.258 -2.37291 -1.84698 0
M  V30 3233 C 288.806 -2.42906 -1.97397 0
M  V30 3234 C 289.281 -3.69967 -2.69979 0
M  V30 3235 N 290.772 -3.70864 -2.77514 0
M  V30 3236 C 291.507 -4.65875 -3.34287 0
M  V30 3237 N 291.003 -5.71242 -3.91988 0
M  V30 3238 N 292.796 -4.53394 -3.3225 0
M  V30 3239 H 284.947 -2.1028 -0.299347 0
M  V30 3240 H 287.21 -0.927683 -0.195214 0
M  V30 3241 H 286.916 -3.27078 -1.29278 0
M  V30 3242 H 286.79 -2.47125 -2.84972 0
M  V30 3243 H 289.177 -1.53588 -2.51982 0
M  V30 3244 H 289.258 -2.37036 -0.961643 0
M  V30 3245 H 288.902 -4.59652 -2.16062 0
M  V30 3246 H 288.832 -3.73103 -3.7162 0
M  V30 3247 H 291.323 -2.94697 -2.36563 0
M  V30 3248 H 291.636 -6.39817 -4.33421 0
M  V30 3249 H 289.981 -5.75015 -3.90362 0
M  V30 3250 H 293.172 -3.70252 -2.8641 0
M  V30 3251 H 293.345 -5.27617 -3.76197 0
M  V30 3252 N 286.751 1.08385 -1.14413 0
M  V30 3253 C 287.979 1.84517 -0.936001 0
M  V30 3254 C 288.394 1.81626 0.515503 0
M  V30 3255 O 287.751 1.22008 1.35721 0
M  V30 3256 C 287.802 3.32049 -1.42918 0
M  V30 3257 O 287.523 3.34951 -2.82381 0
M  V30 3258 C 289.024 4.24986 -1.26103 0
M  V30 3259 H 286.244 0.582491 -0.333084 0
M  V30 3260 H 288.788 1.36885 -1.5193 0
M  V30 3261 H 286.943 3.7707 -0.888641 0
M  V30 3262 H 287.357 4.27048 -3.04517 0
M  V30 3263 H 288.831 5.26615 -1.6547 0
M  V30 3264 H 289.308 4.38726 -0.20392 0
M  V30 3265 H 289.914 3.85791 -1.79012 0
M  V30 3266 N 288.23 0.939286 1.26551 0
M  V30 3267 C 289.646 0.641304 1.46149 0
M  V30 3268 C 289.846 -0.805964 1.84679 0
M  V30 3269 O 288.902 -1.58278 1.96734 0
M  V30 3270 C 290.215 1.6011 2.54529 0
M  V30 3271 C 291.763 1.6106 2.68382 0
M  V30 3272 C 292.238 2.55765 3.79932 0
M  V30 3273 N 293.729 2.5404 3.87322 0
M  V30 3274 C 294.464 3.24004 4.73085 0
M  V30 3275 N 293.96 4.03388 5.63249 0
M  V30 3276 N 295.753 3.12965 4.66914 0
M  V30 3277 H 287.904 1.87478 0.998285 0
M  V30 3278 H 290.167 0.805559 0.499779 0
M  V30 3279 H 289.873 2.63412 2.33039 0
M  V30 3280 H 289.747 1.35171 3.52149 0
M  V30 3281 H 292.134 0.584835 2.89247 0
M  V30 3282 H 292.215 1.90053 1.71212 0
M  V30 3283 H 291.859 3.58458 3.5982 0
M  V30 3284 H 291.789 2.24063 4.76554 0
M  V30 3285 H 294.28 1.96396 3.22858 0
M  V30 3286 H 294.593 4.5373 6.25579 0
M  V30 3287 H 292.938 4.07489 5.63008 0
M  V30 3288 H 296.129 2.50432 3.95476 0
M  V30 3289 H 296.302 3.67759 5.33533 0
M  V30 3290 N 289.708 -1.40897 0.706093 0
M  V30 3291 C 291.119 -1.84023 0.315052 0
M  V30 3292 C 291.47 -1.5906 -1.14866 0
M  V30 3293 O 290.595 -1.06651 -1.88293 0
M  V30 3294 C 291.19 -3.34055 0.565038 0
M  V30 3295 C 289.749 -3.7571 0.227806 0
M  V30 3296 C 288.896 -2.64204 0.842122 0
M  V30 3297 H 291.847 -1.303 0.905963 0
M  V30 3298 H 291.868 -3.80107 -0.172843 0
M  V30 3299 H 291.38 -3.52192 1.63042 0
M  V30 3300 H 289.481 -3.63172 -0.832895 0
M  V30 3301 H 289.594 -4.74103 0.690174 0
M  V30 3302 H 287.958 -2.53255 0.270893 0
M  V30 3303 H 288.741 -2.85155 1.91158 0
M  V30 3304 N 291.186 -0.45159 -1.50991 0
M  V30 3305 C 292.602 -0.104647 -1.59257 0
M  V30 3306 C 292.802 1.38728 -1.4614 0
M  V30 3307 O 291.858 2.15866 -1.30989 0
M  V30 3308 C 293.171 -0.637468 -2.93865 0
M  V30 3309 C 294.719 -0.599166 -3.07212 0
M  V30 3310 C 295.194 -1.1092 -4.44366 0
M  V30 3311 N 296.685 -1.06778 -4.50725 0
M  V30 3312 C 297.42 -1.43314 -5.55201 0
M  V30 3313 N 296.916 -1.87204 -6.67028 0
M  V30 3314 N 298.709 -1.3504 -5.45638 0
M  V30 3315 H 290.86 -1.42214 -1.57762 0
M  V30 3316 H 293.123 -0.586921 -0.744465 0
M  V30 3317 H 292.829 -1.68187 -3.08879 0
M  V30 3318 H 292.703 -0.0702139 -3.77135 0
M  V30 3319 H 295.09 0.436277 -2.91857 0
M  V30 3320 H 295.171 -1.20299 -2.25747 0
M  V30 3321 H 294.815 -2.14318 -4.60467 0
M  V30 3322 H 294.745 -0.481773 -5.24392 0
M  V30 3323 H 297.236 -0.745643 -3.70471 0
M  V30 3324 H 297.549 -2.13282 -7.42786 0
M  V30 3325 H 295.894 -1.91142 -6.68199 0
M  V30 3326 H 299.085 -1.00607 -4.57161 0
M  V30 3327 H 299.258 -1.63841 -6.26945 0
M  V30 3328 N 292.664 1.56529 -0.183458 0
M  V30 3329 C 293.611 2.18546 0.742055 0
M  V30 3330 C 294.581 1.12912 1.2182 0
M  V30 3331 O 295.766 1.41115 1.28418 0
M  V30 3332 C 292.906 2.83977 1.96089 0
M  V30 3333 C 292.019 4.04105 1.52719 0
M  V30 3334 C 291.154 4.57427 2.70063 0
M  V30 3335 C 290.193 5.69938 2.23243 0
M  V30 3336 N 289.33 6.17717 3.33722 0
M  V30 3337 H 294.17 2.97284 0.206432 0
M  V30 3338 H 291.707 1.46823 0.0901571 0
M  V30 3339 H 293.665 3.20077 2.67594 0
M  V30 3340 H 292.295 2.07822 2.47002 0
M  V30 3341 H 291.347 3.73745 0.708436 0
M  V30 3342 H 292.659 4.85513 1.1436 0
M  V30 3343 H 291.813 4.95772 3.49708 0
M  V30 3344 H 290.552 3.75101 3.11689 0
M  V30 3345 H 289.557 5.31133 1.42048 0
M  V30 3346 H 290.782 6.54073 1.82661 0
M  V30 3347 H 288.728 5.38317 3.74902 0
M  V30 3348 H 288.645 6.94146 2.99495 0
M  V30 3349 H 289.913 6.60713 4.13616 0
M  V30 3350 N 294.142 -0.090211 1.57342 0
M  V30 3351 C 295.092 -1.11557 1.98844 0
M  V30 3352 C 296.076 -1.35503 0.867624 0
M  V30 3353 O 297.268 -1.36113 1.13148 0
M  V30 3354 C 294.397 -2.43446 2.42051 0
M  V30 3355 C 293.483 -2.22853 3.60828 0
M  V30 3356 N 293.874 -1.72141 4.75606 0
M  V30 3357 C 292.172 -2.53401 3.67021 0
M  V30 3358 C 292.873 -1.65932 5.57531 0
M  V30 3359 N 291.849 -2.11323 5.00843 0
M  V30 3360 H 295.651 -0.716499 2.85032 0
M  V30 3361 H 293.165 -0.297567 1.59651 0
M  V30 3362 H 295.162 -3.17644 2.70014 0
M  V30 3363 H 293.822 -2.84087 1.57241 0
M  V30 3364 H 294.833 -1.41268 4.98261 0
M  V30 3365 H 291.51 -2.97532 2.92884 0
M  V30 3366 H 292.9 -1.27733 6.59647 0
M  V30 3367 N 295.62 -1.53406 -0.361157 0
M  V30 3368 C 296.866 -1.70054 -1.10496 0
M  V30 3369 C 297.199 -0.453278 -1.88836 0
M  V30 3370 O 296.474 0.5495 -1.86576 0
M  V30 3371 C 296.757 -2.95317 -2.06058 0
M  V30 3372 C 296.61 -4.3021 -1.31298 0
M  V30 3373 C 297.929 -3.16193 -3.06121 0
M  V30 3374 H 295.048 -0.618799 -0.400321 0
M  V30 3375 H 297.69 -1.86052 -0.385318 0
M  V30 3376 H 295.84 -2.81809 -2.67425 0
M  V30 3377 H 297.512 -4.55538 -0.726807 0
M  V30 3378 H 295.755 -4.29421 -0.614853 0
M  V30 3379 H 296.426 -5.14 -2.01265 0
M  V30 3380 H 298.902 -3.28916 -2.5486 0
M  V30 3381 H 297.778 -4.05266 -3.70204 0
M  V30 3382 H 298.039 -2.31676 -3.76535 0
M  V30 3383 N 297.098 0.621204 -1.44841 0
M  V30 3384 C 298.046 1.75385 -1.52784 0
M  V30 3385 C 299.04 1.64639 -0.398779 0
M  V30 3386 O 300.246 1.70598 -0.574137 0
M  V30 3387 H 296.621 0.579193 -0.479625 0
M  V30 3388 H 298.592 1.6581 -2.48092 0
M  V30 3389 C 297.341 3.13742 -1.4987 0
M  V30 3390 H 296.664 3.22663 -2.36069 0
M  V30 3391 H 298.104 3.92861 -1.59487 0
M  V30 3392 C 296.563 3.36175 -0.220973 0
M  V30 3393 O 297.093 3.95469 0.704782 0
M  V30 3394 N 295.299 2.90348 -0.120963 0
M  V30 3395 H 294.846 2.42278 -0.875162 0
M  V30 3396 H 294.804 3.05732 0.733168 0
M  V30 3397 N 298.576 1.31904 0.862503 0
M  V30 3398 C 299.822 1.22197 1.61851 0
M  V30 3399 C 300.155 -0.217641 1.92977 0
M  V30 3400 O 299.43 -1.15264 1.56666 0
M  V30 3401 C 299.713 2.07378 2.94391 0
M  V30 3402 C 299.566 3.59678 2.70096 0
M  V30 3403 C 300.885 1.92891 3.95577 0
M  V30 3404 H 298.004 0.445255 0.587296 0
M  V30 3405 H 300.646 1.6177 0.99651 0
M  V30 3406 H 298.796 1.73758 3.47477 0
M  V30 3407 H 300.468 4.03472 2.23625 0
M  V30 3408 H 298.711 3.82735 2.04197 0
M  V30 3409 H 299.382 4.14595 3.64438 0
M  V30 3410 H 301.858 2.22327 3.51724 0
M  V30 3411 H 300.734 2.54781 4.86187 0
M  V30 3412 H 300.995 0.894315 4.3296 0
M  V30 3413 N 300.054 -1.07777 1.14986 0
M  V30 3414 C 300.987 -2.14228 0.786243 0
M  V30 3415 C 301.965 -1.60888 -0.235347 0
M  V30 3416 O 303.149 -1.88099 -0.122909 0
M  V30 3417 C 300.276 -3.38281 0.168433 0
M  V30 3418 C 299.322 -4.10387 1.16123 0
M  V30 3419 S 300.155 -4.62371 2.70135 0
M  V30 3420 C 301.311 -5.89704 2.09762 0
M  V30 3421 H 301.544 -2.44741 1.68787 0
M  V30 3422 H 299.077 -1.19984 0.971756 0
M  V30 3423 H 301.035 -4.10098 -0.181588 0
M  V30 3424 H 299.696 -3.05953 -0.710725 0
M  V30 3425 H 298.889 -4.99431 0.677086 0
M  V30 3426 H 298.491 -3.44513 1.45556 0
M  V30 3427 H 300.783 -6.61648 1.45701 0
M  V30 3428 H 301.726 -6.42824 2.96955 0
M  V30 3429 H 302.134 -5.4302 1.54239 0
M  V30 3430 N 301.532 -0.945985 -1.26051 0
M  V30 3431 C 302.78 -0.594941 -1.93145 0
M  V30 3432 C 303.101 0.86953 -1.7454 0
M  V30 3433 O 302.371 1.61838 -1.10387 0
M  V30 3434 H 300.951 -0.217044 -0.714773 0
M  V30 3435 H 303.613 -1.20235 -1.53393 0
M  V30 3436 H 302.709 -0.816835 -3.01221 0
M  V30 3437 N 303.011 1.40521 -0.713556 0
M  V30 3438 C 303.921 2.34522 -0.0606667 0
M  V30 3439 C 304.937 1.57193 0.74607 0
M  V30 3440 O 306.113 1.89591 0.679493 0
M  V30 3441 C 303.178 3.36081 0.851491 0
M  V30 3442 C 302.239 4.29286 0.0349339 0
M  V30 3443 C 301.472 5.25994 0.903649 0
M  V30 3444 O 301.695 5.28616 2.14292 0
M  V30 3445 O 300.629 6.00918 0.343723 0
M  V30 3446 H 304.455 2.91968 -0.835972 0
M  V30 3447 H 302.04 1.41681 -0.47402 0
M  V30 3448 H 303.922 3.98369 1.37404 0
M  V30 3449 H 302.597 2.81052 1.60598 0
M  V30 3450 H 301.504 3.70289 -0.532633 0
M  V30 3451 H 302.837 4.87462 -0.681287 0
M  V30 3452 N 304.489 0.459591 1.5075 0
M  V30 3453 C 305.714 -0.0996819 2.0716 0
M  V30 3454 C 306.139 -1.33761 1.32249 0
M  V30 3455 O 305.497 -1.77551 0.366786 0
M  V30 3456 C 305.545 -0.378226 3.58611 0
M  V30 3457 O 304.649 -1.46081 3.85661 0
M  V30 3458 H 303.99 0.00791392 0.663953 0
M  V30 3459 H 306.52 0.647329 1.9409 0
M  V30 3460 H 306.53 -0.622135 4.03229 0
M  V30 3461 H 305.205 0.526439 4.12555 0
M  V30 3462 H 303.782 -1.20511 3.5289 0
M  V30 3463 N 305.967 -1.56429 0.191757 0
M  V30 3464 C 306.914 -2.18936 -0.730454 0
M  V30 3465 C 307.884 -1.13557 -1.21219 0
M  V30 3466 O 309.069 -1.41794 -1.27668 0
M  V30 3467 C 306.209 -2.85013 -1.9458 0
M  V30 3468 C 305.322 -4.04909 -1.50574 0
M  V30 3469 C 304.457 -4.58853 -2.67634 0
M  V30 3470 C 303.496 -5.71114 -2.20217 0
M  V30 3471 N 302.633 -6.19478 -3.30442 0
M  V30 3472 H 307.473 -2.97389 -0.190664 0
M  V30 3473 H 305.01 -1.46869 -0.0823694 0
M  V30 3474 H 306.968 -3.21492 -2.65893 0
M  V30 3475 H 305.598 -2.09129 -2.45896 0
M  V30 3476 H 304.65 -3.74115 -0.688605 0
M  V30 3477 H 305.962 -4.86113 -1.11784 0
M  V30 3478 H 305.116 -4.97619 -3.47074 0
M  V30 3479 H 303.855 -3.76749 -3.09696 0
M  V30 3480 H 302.86 -5.31879 -1.3923 0
M  V30 3481 H 304.085 -6.55033 -1.79189 0
M  V30 3482 H 302.031 -5.40297 -3.72041 0
M  V30 3483 H 301.948 -6.95725 -2.9581 0
M  V30 3484 H 303.216 -6.62898 -4.10106 0
M  V30 3485 N 307.445 0.0818655 -1.57387 0
M  V30 3486 C 308.355 1.11642 -2.06333 0
M  V30 3487 C 309.371 1.43033 -0.99083 0
M  V30 3488 O 310.547 1.53411 -1.30488 0
M  V30 3489 C 307.612 2.41342 -2.48907 0
M  V30 3490 C 306.673 2.17014 -3.7041 0
M  V30 3491 C 305.906 3.4053 -4.10944 0
M  V30 3492 O 306.129 4.4927 -3.51444 0
M  V30 3493 O 305.063 3.29336 -5.03807 0
M  V30 3494 H 308.889 0.730657 -2.9478 0
M  V30 3495 H 306.474 0.295301 -1.46452 0
M  V30 3496 H 308.356 3.17691 -2.76858 0
M  V30 3497 H 307.031 2.79319 -1.63593 0
M  V30 3498 H 305.938 1.38403 -3.47556 0
M  V30 3499 H 307.271 1.83923 -4.56545 0
M  V30 3500 N 308.923 1.53595 0.353017 0
M  V30 3501 C 310.151 1.74311 1.1146 0
M  V30 3502 C 310.566 0.477854 1.82653 0
M  V30 3503 O 309.923 -0.549977 1.74016 0
M  V30 3504 C 309.974 2.91694 2.13534 0
M  V30 3505 O 309.695 4.13325 1.45238 0
M  V30 3506 C 311.196 3.24384 3.02142 0
M  V30 3507 H 308.416 0.582669 0.332773 0
M  V30 3508 H 310.96 2.00386 0.408107 0
M  V30 3509 H 309.115 2.67977 2.79763 0
M  V30 3510 H 309.529 4.79148 2.13349 0
M  V30 3511 H 311.003 4.09893 3.69718 0
M  V30 3512 H 311.48 2.40282 3.67643 0
M  V30 3513 H 312.086 3.50073 2.41514 0
M  V30 3514 N 310.401 -0.613514 1.45168 0
M  V30 3515 C 311.678 -1.37263 1.39349 0
M  V30 3516 C 312.058 -2.11012 0.0610848 0
M  V30 3517 O 311.406 -2.07502 -0.956825 0
M  V30 3518 C 311.616 -2.3244 2.60332 0
M  V30 3519 C 312.964 -2.9523 3.05163 0
M  V30 3520 O 313.988 -2.42762 2.60663 0
M  V30 3521 O 312.847 -3.90454 3.82372 0
M  V30 3522 H 309.941 -0.615188 0.552696 0
M  V30 3523 H 312.487 -0.637097 1.57287 0
M  V30 3524 H 311.259 -1.77164 3.48896 0
M  V30 3525 H 310.882 -3.13383 2.44698 0
M  V30 3526 N 311.879 -1.3236 -0.855495 0
M  V30 3527 C 312.789 -1.23221 -1.99634 0
M  V30 3528 C 313.805 -0.145983 -1.73387 0
M  V30 3529 O 314.981 -0.366502 -1.98037 0
M  V30 3530 C 312.046 -0.954782 -3.33294 0
M  V30 3531 C 311.107 -2.12937 -3.72769 0
M  V30 3532 C 310.34 -1.86508 -5.00051 0
M  V30 3533 O 310.563 -0.807231 -5.64659 0
M  V30 3534 O 309.497 -2.72591 -5.36636 0
M  V30 3535 H 313.323 -2.19126 -2.1028 0
M  V30 3536 H 310.908 -1.12241 -0.986018 0
M  V30 3537 H 312.79 -0.816519 -4.13414 0
M  V30 3538 H 311.465 -0.0258854 -3.2369 0
M  V30 3539 H 310.372 -2.3231 -2.93228 0
M  V30 3540 H 311.705 -3.04102 -3.87018 0
M  V30 3541 N 313.357 1.07166 -1.15556 0
M  V30 3542 C 314.582 1.84053 -0.955988 0
M  V30 3543 C 315.007 1.81586 0.490739 0
M  V30 3544 O 314.365 1.21018 1.34997 0
M  V30 3545 C 314.413 3.28957 -1.47714 0
M  V30 3546 O 313.517 4.06795 -0.677593 0
M  V30 3547 H 312.858 0.569842 -0.340847 0
M  V30 3548 H 315.388 1.35178 -1.53584 0
M  V30 3549 H 315.398 3.79788 -1.4908 0
M  V30 3550 H 314.073 3.30068 -2.53037 0
M  V30 3551 H 312.65 3.6561 -0.733721 0
M  V30 3552 N 314.835 0.952656 1.25548 0
M  V30 3553 C 315.782 0.47008 2.25962 0
M  V30 3554 C 316.752 -0.476384 1.59122 0
M  V30 3555 O 317.937 -0.39007 1.8677 0
M  V30 3556 C 315.077 -0.247881 3.44209 0
M  V30 3557 C 314.19 0.735591 4.25691 0
M  V30 3558 C 313.325 -0.0047306 5.312 0
M  V30 3559 C 312.364 0.969805 6.04368 0
M  V30 3560 N 311.501 0.260486 7.01617 0
M  V30 3561 H 316.341 1.33126 2.66611 0
M  V30 3562 H 313.878 0.66765 1.31076 0
M  V30 3563 H 315.836 -0.680695 4.1161 0
M  V30 3564 H 314.466 -1.07312 3.0444 0
M  V30 3565 H 313.518 1.28689 3.57971 0
M  V30 3566 H 314.83 1.47934 4.76358 0
M  V30 3567 H 313.984 -0.496275 6.04667 0
M  V30 3568 H 312.723 -0.781282 4.81401 0
M  V30 3569 H 311.728 1.47237 5.29718 0
M  V30 3570 H 312.953 1.74655 6.56256 0
M  V30 3571 H 310.899 -0.497364 6.54112 0
M  V30 3572 H 310.816 0.943362 7.50091 0
M  V30 3573 H 312.084 -0.209587 7.79218 0
M  V30 3574 N 316.313 -1.40141 0.720998 0
M  V30 3575 C 317.223 -2.34486 0.0731031 0
M  V30 3576 C 318.239 -1.57587 -0.737723 0
M  V30 3577 O 319.415 -1.89949 -0.669429 0
M  V30 3578 C 316.48 -3.36528 -0.833656 0
M  V30 3579 C 315.541 -4.29298 -0.0121673 0
M  V30 3580 C 314.774 -5.26466 -0.875742 0
M  V30 3581 O 314.997 -5.29745 -2.11485 0
M  V30 3582 O 313.931 -6.01092 -0.31185 0
M  V30 3583 H 317.757 -2.9152 0.851444 0
M  V30 3584 H 315.342 -1.41427 0.481527 0
M  V30 3585 H 317.224 -3.99093 -1.35289 0
M  V30 3586 H 315.899 -2.81899 -1.59105 0
M  V30 3587 H 314.806 -3.70001 0.552262 0
M  V30 3588 H 316.139 -4.87094 0.707129 0
M  V30 3589 N 317.792 -0.46758 -1.50504 0
M  V30 3590 C 319.02 0.0864133 -2.06719 0
M  V30 3591 C 319.435 1.33819 -1.33184 0
M  V30 3592 O 318.792 1.78061 -0.400083 0
M  V30 3593 C 318.843 0.378079 -3.59517 0
M  V30 3594 O 318.564 -0.824044 -4.3028 0
M  V30 3595 C 320.065 0.979426 -4.32345 0
M  V30 3596 H 317.285 -0.00551697 -0.670977 0
M  V30 3597 H 319.829 -0.655354 -1.93715 0
M  V30 3598 H 317.984 1.06977 -3.72337 0
M  V30 3599 H 318.398 -0.566518 -5.21432 0
M  V30 3600 H 319.872 1.1333 -5.40241 0
M  V30 3601 H 320.349 1.9686 -3.9261 0
M  V30 3602 H 320.955 0.326216 -4.24047 0
M  V30 3603 N 319.27 1.56325 -0.20005 0
M  V30 3604 C 320.547 1.89484 0.48529 0
M  V30 3605 C 320.927 1.1143 1.79294 0
M  V30 3606 O 320.275 0.216919 2.27468 0
M  V30 3607 C 320.485 3.41923 0.699243 0
M  V30 3608 C 321.833 4.12256 1.01638 0
M  V30 3609 O 322.857 3.47402 0.786792 0
M  V30 3610 O 321.716 5.26887 1.45095 0
M  V30 3611 H 318.81 0.787144 0.253639 0
M  V30 3612 H 321.356 1.67985 -0.240633 0
M  V30 3613 H 320.128 3.90658 -0.224008 0
M  V30 3614 H 319.751 3.69131 1.47744 0
M  V30 3615 N 320.748 -0.0735177 1.57428 0
M  V30 3616 C 321.658 -1.10547 2.06922 0
M  V30 3617 C 322.674 -1.42506 0.998402 0
M  V30 3618 O 323.85 -1.52717 1.31299 0
M  V30 3619 C 320.915 -2.40019 2.50184 0
M  V30 3620 C 319.976 -2.15046 3.71556 0
M  V30 3621 C 319.209 -3.38345 4.12745 0
M  V30 3622 O 319.432 -4.47399 3.53822 0
M  V30 3623 O 318.366 -3.2666 5.05546 0
M  V30 3624 H 322.192 -0.715013 2.95163 0
M  V30 3625 H 319.777 -0.287531 1.46607 0
M  V30 3626 H 321.659 -3.16218 2.78539 0
M  V30 3627 H 320.334 -2.78447 1.65072 0
M  V30 3628 H 319.241 -1.36558 3.48285 0
M  V30 3629 H 320.574 -1.81499 4.57514 0
M  V30 3630 N 322.226 -1.5378 -0.344866 0
M  V30 3631 C 323.451 -1.75211 -1.10977 0
M  V30 3632 C 323.876 -0.48936 -1.81623 0
M  V30 3633 O 323.234 0.557925 -1.72502 0
M  V30 3634 C 323.282 -2.93147 -2.09993 0
M  V30 3635 O 322.386 -2.63203 -3.17487 0
M  V30 3636 H 321.727 -0.581241 -0.321021 0
M  V30 3637 H 324.257 -2.00738 -0.395661 0
M  V30 3638 H 324.267 -3.19898 -2.53237 0
M  V30 3639 H 322.942 -3.84731 -1.5797 0
M  V30 3640 H 321.519 -2.47336 -2.79069 0
M  V30 3641 N 323.704 0.605807 -1.45491 0
M  V30 3642 C 324.651 1.7164 -1.54299 0
M  V30 3643 C 325.621 1.61486 -0.388761 0
M  V30 3644 O 326.806 1.81039 -0.602445 0
M  V30 3645 C 323.946 3.09953 -1.51734 0
M  V30 3646 C 323.059 3.309 -2.77721 0
M  V30 3647 C 322.194 4.59329 -2.66816 0
M  V30 3648 C 321.233 4.7354 -3.87848 0
M  V30 3649 N 320.37 5.9327 -3.75467 0
M  V30 3650 H 325.21 1.63449 -2.49176 0
M  V30 3651 H 322.747 0.796957 -1.23641 0
M  V30 3652 H 324.705 3.89977 -1.48235 0
M  V30 3653 H 323.335 3.17098 -0.604068 0
M  V30 3654 H 322.387 2.44639 -2.913 0
M  V30 3655 H 323.699 3.37274 -3.67488 0
M  V30 3656 H 322.853 5.4755 -2.61292 0
M  V30 3657 H 321.592 4.55355 -1.74651 0
M  V30 3658 H 320.597 3.83741 -3.93729 0
M  V30 3659 H 321.822 4.79309 -4.81082 0
M  V30 3660 H 319.768 5.90338 -2.86072 0
M  V30 3661 H 319.685 6.00811 -4.5887 0
M  V30 3662 H 320.953 6.83984 -3.73879 0
M  V30 3663 N 325.182 1.32811 0.848464 0
M  V30 3664 C 326.092 1.24278 1.98978 0
M  V30 3665 C 327.108 0.155176 1.73307 0
M  V30 3666 O 328.284 0.376999 1.9784 0
M  V30 3667 C 325.349 0.972444 3.32783 0
M  V30 3668 C 324.41 2.14911 3.71634 0
M  V30 3669 C 323.643 1.89157 4.99054 0
M  V30 3670 O 323.866 0.837165 5.64223 0
M  V30 3671 O 322.8 2.75433 5.35183 0
M  V30 3672 H 326.626 2.20238 2.09115 0
M  V30 3673 H 324.211 1.12762 0.980052 0
M  V30 3674 H 326.093 0.838432 4.12975 0
M  V30 3675 H 324.768 0.043051 3.23671 0
M  V30 3676 H 323.675 2.33862 2.91992 0
M  V30 3677 H 325.008 3.06151 3.85399 0
M  V30 3678 N 326.66 -1.06551 1.16123 0
M  V30 3679 C 327.888 -1.83005 0.965237 0
M  V30 3680 C 328.303 -1.82423 -0.486542 0
M  V30 3681 O 327.66 -1.24152 -1.33763 0
M  V30 3682 C 327.711 -3.29733 1.48183 0
M  V30 3683 O 327.432 -3.30416 2.87674 0
M  V30 3684 C 328.933 -4.22926 1.32848 0
M  V30 3685 H 326.153 -0.577118 0.342309 0
M  V30 3686 H 328.697 -1.3445 1.54089 0
M  V30 3687 H 326.852 -3.75609 0.948517 0
M  V30 3688 H 327.266 -4.22149 3.11272 0
M  V30 3689 H 328.74 -5.23916 1.73827 0
M  V30 3690 H 329.217 -4.38346 0.273692 0
M  V30 3691 H 329.823 -3.82894 1.85127 0
M  V30 3692 N 328.138 -0.959301 -1.25041 0
M  V30 3693 C 329.386 -0.615393 -1.92503 0
M  V30 3694 C 329.707 0.850969 -1.75452 0
M  V30 3695 O 328.977 1.60658 -1.12098 0
M  V30 3696 H 327.557 -0.224613 -0.712431 0
M  V30 3697 H 330.219 -1.21855 -1.5211 0
M  V30 3698 H 329.315 -0.848738 -3.00338 0
M  V30 3699 N 329.616 1.39756 -0.72842 0
M  V30 3700 C 330.526 2.34444 -0.0855374 0
M  V30 3701 C 331.542 1.57976 0.729356 0
M  V30 3702 O 332.718 1.90301 0.659346 0
M  V30 3703 C 329.783 3.36965 0.815798 0
M  V30 3704 C 328.844 4.29299 -0.0105996 0
M  V30 3705 C 328.077 5.26923 0.84781 0
M  V30 3706 O 328.3 5.30859 2.08673 0
M  V30 3707 O 327.234 6.01249 0.279969 0
M  V30 3708 H 331.06 2.91065 -0.866892 0
M  V30 3709 H 328.645 1.4117 -0.48902 0
M  V30 3710 H 330.527 3.99804 1.33171 0
M  V30 3711 H 329.202 2.82739 1.57608 0
M  V30 3712 H 328.109 3.69703 -0.571877 0
M  V30 3713 H 329.442 4.86712 -0.73295 0
M  V30 3714 N 331.094 0.475555 1.50254 0
M  V30 3715 C 332.319 -0.0777042 2.07254 0
M  V30 3716 C 332.744 -1.3235 1.3366 0
M  V30 3717 O 332.102 -1.77152 0.385597 0
M  V30 3718 C 332.15 -0.340169 3.58992 0
M  V30 3719 O 331.254 -1.41982 3.87188 0
M  V30 3720 H 330.595 0.0149556 0.663832 0
M  V30 3721 H 333.125 0.667878 1.93392 0
M  V30 3722 H 333.135 -0.579332 4.03866 0
M  V30 3723 H 331.81 0.570167 4.11973 0
M  V30 3724 H 330.387 -1.16762 3.54148 0
M  V30 3725 N 332.573 -1.56217 0.208337 0
M  V30 3726 C 333.52 -2.19699 -0.707192 0
M  V30 3727 C 334.49 -1.14836 -1.20008 0
M  V30 3728 O 335.675 -1.4314 -1.26157 0
M  V30 3729 C 332.815 -2.87061 -1.91546 0
M  V30 3730 C 331.928 -4.06483 -1.46271 0
M  V30 3731 C 331.063 -4.61665 -2.62752 0
M  V30 3732 C 330.102 -5.73417 -2.14147 0
M  V30 3733 N 329.239 -6.22948 -3.23853 0
M  V30 3734 H 334.079 -2.97575 -0.159111 0
M  V30 3735 H 331.616 -1.46948 -0.0667874 0
M  V30 3736 H 333.574 -3.24294 -2.62468 0
M  V30 3737 H 332.204 -2.11725 -2.43664 0
M  V30 3738 H 331.256 -3.74825 -0.648886 0
M  V30 3739 H 332.568 -4.87271 -1.06622 0
M  V30 3740 H 331.722 -5.01272 -3.41776 0
M  V30 3741 H 330.461 -3.80013 -3.05682 0
M  V30 3742 H 329.466 -5.33326 -1.33581 0
M  V30 3743 H 330.691 -6.56897 -1.72232 0
M  V30 3744 H 328.637 -5.44213 -3.6629 0
M  V30 3745 H 328.554 -6.98823 -2.88414 0
M  V30 3746 H 329.822 -6.6721 -4.03052 0
M  V30 3747 N 334.051 0.0651679 -1.57465 0
M  V30 3748 C 334.961 1.09448 -2.07505 0
M  V30 3749 C 335.977 1.41974 -1.00595 0
M  V30 3750 O 337.153 1.52018 -1.32107 0
M  V30 3751 C 334.218 2.38689 -2.51453 0
M  V30 3752 C 333.279 2.13073 -3.72691 0
M  V30 3753 C 332.512 3.36152 -4.14533 0
M  V30 3754 O 332.735 4.45517 -3.56189 0
M  V30 3755 O 331.669 3.23974 -5.07272 0
M  V30 3756 H 335.495 0.69935 -2.95538 0
M  V30 3757 H 333.08 0.279752 -1.46757 0
M  V30 3758 H 334.962 3.14736 -2.80212 0
M  V30 3759 H 333.637 2.77568 -1.66546 0
M  V30 3760 H 332.544 1.34709 -3.49005 0
M  V30 3761 H 333.877 1.79071 -4.5847 0
M  V30 3762 N 335.529 1.53961 0.336706 0
M  V30 3763 C 336.757 1.75483 1.09605 0
M  V30 3764 C 337.172 0.4972 1.82136 0
M  V30 3765 O 336.529 -0.53149 1.74589 0
M  V30 3766 C 336.58 2.93943 2.10428 0
M  V30 3767 O 336.301 4.14842 1.40846 0
M  V30 3768 C 337.802 3.27571 2.98684 0
M  V30 3769 H 335.022 0.586166 0.326574 0
M  V30 3770 H 337.566 2.00808 0.38683 0
M  V30 3771 H 335.721 2.70929 2.76905 0
M  V30 3772 H 336.135 4.81383 2.08255 0
M  V30 3773 H 337.609 4.13791 3.6535 0
M  V30 3774 H 338.086 2.44168 3.65074 0
M  V30 3775 H 338.692 3.52615 2.37787 0
M  V30 3776 N 337.007 -0.598083 1.45811 0
M  V30 3777 C 338.255 -1.35413 1.50026 0
M  V30 3778 C 338.576 -1.94444 0.147177 0
M  V30 3779 O 337.846 -1.77701 -0.824571 0
M  V30 3780 H 336.426 -0.502727 0.552517 0
M  V30 3781 H 339.088 -0.701606 1.81834 0
M  V30 3782 H 338.184 -2.16871 2.2444 0
M  V30 3783 N 338.485 -1.33259 -0.841409 0
M  V30 3784 C 339.395 -1.25332 -1.98316 0
M  V30 3785 C 340.411 -0.164364 -1.73222 0
M  V30 3786 O 341.587 -0.387486 -1.97637 0
M  V30 3787 C 338.652 -0.990078 -3.32262 0
M  V30 3788 C 337.713 -2.16879 -3.70489 0
M  V30 3789 C 336.946 -1.91801 -4.98044 0
M  V30 3790 O 337.169 -0.867075 -5.63771 0
M  V30 3791 O 336.103 -2.78267 -5.33714 0
M  V30 3792 H 339.929 -2.21344 -2.07944 0
M  V30 3793 H 337.514 -1.1328 -0.974058 0
M  V30 3794 H 339.396 -0.860321 -4.12524 0
M  V30 3795 H 338.071 -0.0602155 -3.23644 0
M  V30 3796 H 336.978 -2.35407 -2.90748 0
M  V30 3797 H 338.311 -3.0819 -3.8377 0
M  V30 3798 N 339.963 1.05934 -1.16686 0
M  V30 3799 C 341.188 1.83029 -0.975455 0
M  V30 3800 C 341.613 1.82096 0.471452 0
M  V30 3801 O 340.971 1.22443 1.33706 0
M  V30 3802 C 341.019 3.27372 -1.51195 0
M  V30 3803 O 340.123 4.06054 -0.720701 0
M  V30 3804 H 339.464 0.566194 -0.346872 0
M  V30 3805 H 341.994 1.33541 -1.55009 0
M  V30 3806 H 342.004 3.78186 -1.53099 0
M  V30 3807 H 340.679 3.27366 -2.56523 0
M  V30 3808 H 339.256 3.64812 -0.772458 0
M  V30 3809 N 341.441 0.965919 1.2453 0
M  V30 3810 C 342.388 0.49402 2.25451 0
M  V30 3811 C 343.358 -0.45948 1.59618 0
M  V30 3812 O 344.543 -0.370238 1.87173 0
M  V30 3813 C 341.683 -0.211359 3.44452 0
M  V30 3814 C 340.796 0.7807 4.24887 0
M  V30 3815 C 339.931 0.0516105 5.31175 0
M  V30 3816 C 338.97 1.03385 6.03306 0
M  V30 3817 N 338.107 0.334887 7.01301 0
M  V30 3818 H 342.947 1.35946 2.65184 0
M  V30 3819 H 340.484 0.681515 1.3036 0
M  V30 3820 H 342.442 -0.637 4.12308 0
M  V30 3821 H 341.072 -1.04077 3.05562 0
M  V30 3822 H 340.124 1.32479 3.56586 0
M  V30 3823 H 341.436 1.52978 4.74762 0
M  V30 3824 H 340.59 -0.432114 6.05159 0
M  V30 3825 H 339.329 -0.730179 4.82203 0
M  V30 3826 H 338.334 1.52847 5.28127 0
M  V30 3827 H 339.559 1.81606 6.54367 0
M  V30 3828 H 337.505 -0.427959 6.54603 0
M  V30 3829 H 337.422 1.02287 7.49048 0
M  V30 3830 H 338.69 -0.126928 7.79397 0
M  V30 3831 N 342.919 -1.39368 0.735821 0
M  V30 3832 C 343.829 -2.34395 0.0979693 0
M  V30 3833 C 344.845 -1.58361 -0.720968 0
M  V30 3834 O 346.021 -1.90648 -0.649245 0
M  V30 3835 C 343.086 -3.37393 -0.797916 0
M  V30 3836 C 342.147 -4.29287 0.0333662 0
M  V30 3837 C 341.38 -5.27365 -0.819854 0
M  V30 3838 O 341.603 -5.31959 -2.05855 0
M  V30 3839 O 340.537 -6.01389 -0.248079 0
M  V30 3840 H 344.363 -2.90601 0.882315 0
M  V30 3841 H 341.948 -1.40909 0.4965 0
M  V30 3842 H 343.83 -4.00505 -1.31048 0
M  V30 3843 H 342.505 -2.83571 -1.56106 0
M  V30 3844 H 341.412 -3.69395 0.591475 0
M  V30 3845 H 342.745 -4.86317 0.758752 0
M  V30 3846 N 344.397 -0.483516 -1.5 0
M  V30 3847 C 345.625 0.0644831 -2.06799 0
M  V30 3848 C 346.04 1.32399 -1.34596 0
M  V30 3849 O 345.397 1.77626 -0.418946 0
M  V30 3850 C 345.448 0.339927 -3.59898 0
M  V30 3851 O 345.169 -0.869635 -4.29382 0
M  V30 3852 C 346.67 0.933515 -4.33359 0
M  V30 3853 H 343.89 -0.0126333 -0.670881 0
M  V30 3854 H 346.434 -0.675864 -1.93009 0
M  V30 3855 H 344.589 1.03022 -3.7345 0
M  V30 3856 H 345.003 -0.62179 -5.20801 0
M  V30 3857 H 346.477 1.07593 -5.41413 0
M  V30 3858 H 346.954 1.92685 -3.94676 0
M  V30 3859 H 347.56 0.281221 -4.24369 0
M  V30 3860 N 345.875 1.56104 -0.216619 0
M  V30 3861 C 347.123 1.97781 0.415593 0
M  V30 3862 C 347.444 1.10536 1.60645 0
M  V30 3863 O 346.714 0.181303 1.95059 0
M  V30 3864 H 345.294 0.730415 0.156534 0
M  V30 3865 H 347.956 1.92445 -0.308366 0
M  V30 3866 H 347.052 3.03072 0.74525 0
M  V30 3867 N 347.353 -0.0568162 1.57498 0
M  V30 3868 C 348.263 -1.08346 2.08083 0
M  V30 3869 C 349.279 -1.41439 1.01346 0
M  V30 3870 O 350.455 -1.51316 1.32912 0
M  V30 3871 C 347.52 -2.37352 2.52715 0
M  V30 3872 C 346.581 -2.11093 3.73816 0
M  V30 3873 C 345.814 -3.33949 4.1631 0
M  V30 3874 O 346.037 -4.43622 3.58547 0
M  V30 3875 O 344.971 -3.21279 5.08983 0
M  V30 3876 H 348.797 -0.683667 2.95905 0
M  V30 3877 H 346.382 -0.271965 1.46904 0
M  V30 3878 H 348.264 -3.13246 2.81877 0
M  V30 3879 H 346.939 -2.76681 1.68016 0
M  V30 3880 H 345.846 -1.32856 3.49714 0
M  V30 3881 H 347.179 -1.76637 4.59413 0
M  V30 3882 N 348.832 -1.54138 -0.328536 0
M  V30 3883 C 350.057 -1.76378 -1.09112 0
M  V30 3884 C 350.482 -0.508596 -1.81094 0
M  V30 3885 O 349.84 0.539598 -1.73084 0
M  V30 3886 C 349.888 -2.95358 -2.06872 0
M  V30 3887 O 348.992 -2.66556 -3.14677 0
M  V30 3888 H 348.333 -0.584614 -0.314838 0
M  V30 3889 H 350.863 -2.01146 -0.374348 0
M  V30 3890 H 350.873 -3.22566 -2.4983 0
M  V30 3891 H 349.548 -3.86385 -1.5388 0
M  V30 3892 H 348.125 -2.50282 -2.7643 0
M  V30 3893 N 350.31 0.590341 -1.46126 0
M  V30 3894 C 351.257 1.69994 -1.56111 0
M  V30 3895 C 352.227 1.61065 -0.405867 0
M  V30 3896 O 353.412 1.8039 -0.621613 0
M  V30 3897 C 350.552 3.08326 -1.55013 0
M  V30 3898 C 349.665 3.27936 -2.81215 0
M  V30 3899 C 348.8 4.56473 -2.71673 0
M  V30 3900 C 347.839 4.694 -3.92849 0
M  V30 3901 N 346.976 5.89254 -3.81738 0
M  V30 3902 H 351.816 1.60797 -2.50895 0
M  V30 3903 H 349.353 0.783799 -1.24479 0
M  V30 3904 H 351.311 3.88383 -1.52362 0
M  V30 3905 H 349.941 3.16439 -0.637667 0
M  V30 3906 H 348.993 2.41536 -2.93879 0
M  V30 3907 H 350.305 3.33357 -3.71045 0
M  V30 3908 H 349.459 5.44748 -2.67085 0
M  V30 3909 H 348.198 4.53477 -1.7947 0
M  V30 3910 H 347.203 3.79544 -3.97777 0
M  V30 3911 H 348.428 4.7418 -4.86138 0
M  V30 3912 H 346.374 5.87271 -2.92317 0
M  V30 3913 H 346.291 5.95911 -4.65217 0
M  V30 3914 H 347.559 6.79981 -3.81112 0
M  V30 3915 N 351.788 1.33704 0.83433 0
M  V30 3916 C 352.698 1.26382 1.97648 0
M  V30 3917 C 353.714 0.173548 1.73132 0
M  V30 3918 O 354.89 0.397962 1.97429 0
M  V30 3919 C 351.955 1.00769 3.31733 0
M  V30 3920 C 351.016 2.1884 3.69334 0
M  V30 3921 C 350.249 1.9444 4.9702 0
M  V30 3922 O 350.472 0.896961 5.63303 0
M  V30 3923 O 349.406 2.81093 5.32231 0
M  V30 3924 H 353.232 2.22444 2.06767 0
M  V30 3925 H 350.817 1.13795 0.968037 0
M  V30 3926 H 352.699 0.882186 4.12062 0
M  V30 3927 H 351.374 0.0773783 3.23608 0
M  V30 3928 H 350.281 2.36946 2.89495 0
M  V30 3929 H 351.614 3.10221 3.82131 0
M  V30 3930 N 353.266 -1.05314 1.17247 0
M  V30 3931 C 354.494 -1.81971 0.984593 0
M  V30 3932 C 354.909 -1.82929 -0.467166 0
M  V30 3933 O 354.266 -1.25564 -1.32438 0
M  V30 3934 C 354.317 -3.28143 1.51672 0
M  V30 3935 O 354.038 -3.27347 2.91163 0
M  V30 3936 C 355.539 -4.21493 1.37326 0
M  V30 3937 H 352.759 -0.573455 0.348411 0
M  V30 3938 H 355.303 -1.32808 1.55506 0
M  V30 3939 H 353.458 -3.74582 0.988302 0
M  V30 3940 H 353.872 -4.18824 3.15732 0
M  V30 3941 H 355.346 -5.22043 1.79375 0
M  V30 3942 H 355.823 -4.38031 0.320169 0
M  V30 3943 H 356.429 -3.80909 1.89178 0
M  V30 3944 N 354.744 -0.972509 -1.24016 0
M  V30 3945 C 355.992 -0.635776 -1.91839 0
M  V30 3946 C 356.313 0.832312 -1.76345 0
M  V30 3947 O 355.583 1.5946 -1.13795 0
M  V30 3948 H 354.163 -0.232157 -0.710009 0
M  V30 3949 H 356.825 -1.23462 -1.50809 0
M  V30 3950 H 355.921 -0.880545 -2.99421 0
M  V30 3951 N 356.222 1.38976 -0.743202 0
M  V30 3952 C 357.132 2.3434 -0.110399 0
M  V30 3953 C 358.148 1.58741 0.712559 0
M  V30 3954 O 359.324 1.9099 0.639125 0
M  V30 3955 C 356.389 3.37812 0.780012 0
M  V30 3956 C 355.45 4.29263 -0.0561319 0
M  V30 3957 C 354.683 5.27793 0.791875 0
M  V30 3958 O 354.906 5.33043 2.03031 0
M  V30 3959 O 353.84 6.01512 0.216183 0
M  V30 3960 H 357.666 2.90129 -0.897714 0
M  V30 3961 H 355.251 1.40643 -0.503966 0
M  V30 3962 H 357.133 4.01194 1.28923 0
M  V30 3963 H 355.808 2.84395 1.546 0
M  V30 3964 H 354.715 3.69076 -0.611056 0
M  V30 3965 H 356.048 4.85907 -0.784531 0
M  V30 3966 N 357.7 0.491464 1.49741 0
M  V30 3967 C 358.925 -0.0557177 2.07325 0
M  V30 3968 C 359.35 -1.30925 1.35056 0
M  V30 3969 O 358.708 -1.76733 0.404365 0
M  V30 3970 C 358.756 -0.302074 3.59333 0
M  V30 3971 O 357.86 -1.37868 3.88672 0
M  V30 3972 H 357.201 0.0219956 0.663636 0
M  V30 3973 H 359.731 0.688352 1.92673 0
M  V30 3974 H 359.741 -0.536464 4.04458 0
M  V30 3975 H 358.416 0.61383 4.11345 0
M  V30 3976 H 356.993 -1.12999 3.55367 0
M  V30 3977 N 359.178 -1.55987 0.224894 0
M  V30 3978 C 360.125 -2.20436 -0.68385 0
M  V30 3979 C 361.095 -1.16102 -1.18783 0
M  V30 3980 O 362.28 -1.4447 -1.24632 0
M  V30 3981 C 359.42 -2.89076 -1.88491 0
M  V30 3982 C 358.533 -4.08012 -1.41951 0
M  V30 3983 C 357.668 -4.64426 -2.5784 0
M  V30 3984 C 356.707 -5.75656 -2.08053 0
M  V30 3985 N 355.844 -6.26347 -3.17227 0
M  V30 3986 H 360.684 -2.97727 -0.12754 0
M  V30 3987 H 358.221 -1.47011 -0.0511978 0
M  V30 3988 H 360.179 -3.27059 -2.59014 0
M  V30 3989 H 358.809 -2.14298 -2.41405 0
M  V30 3990 H 357.861 -3.75492 -0.609095 0
M  V30 3991 H 359.173 -4.88375 -1.01447 0
M  V30 3992 H 358.327 -5.04869 -3.3644 0
M  V30 3993 H 357.066 -3.83233 -3.01635 0
M  V30 3994 H 356.071 -5.34712 -1.27916 0
M  V30 3995 H 357.296 -6.58686 -1.65255 0
M  V30 3996 H 355.242 -5.48067 -3.60497 0
M  V30 3997 H 355.159 -7.01843 -2.80986 0
M  V30 3998 H 356.427 -6.71447 -3.95953 0
M  V30 3999 N 360.656 0.0484629 -1.57525 0
M  V30 4000 C 361.566 1.07241 -2.08654 0
M  V30 4001 C 362.582 1.409 -1.02095 0
M  V30 4002 O 363.758 1.50609 -1.33712 0
M  V30 4003 C 360.823 2.36008 -2.5397 0
M  V30 4004 C 359.884 2.09108 -3.7493 0
M  V30 4005 C 359.117 3.31736 -4.18075 0
M  V30 4006 O 359.34 4.41714 -3.60895 0
M  V30 4007 O 358.274 3.18576 -5.10679 0
M  V30 4008 H 362.1 0.667965 -2.96263 0
M  V30 4009 H 359.685 0.26417 -1.47046 0
M  V30 4010 H 361.567 3.11747 -2.83535 0
M  V30 4011 H 360.242 2.75786 -1.69481 0
M  V30 4012 H 359.149 1.31 -3.50414 0
M  V30 4013 H 360.482 1.74198 -4.60343 0
M  V30 4014 N 362.134 1.5431 0.320358 0
M  V30 4015 C 363.362 1.76636 1.07738 0
M  V30 4016 C 363.777 0.51649 1.81598 0
M  V30 4017 O 363.134 -0.512942 1.75143 0
M  V30 4018 C 363.185 2.96158 2.07299 0
M  V30 4019 O 362.906 4.16313 1.36438 0
M  V30 4020 C 364.407 3.3072 2.95193 0
M  V30 4021 H 361.627 0.589597 0.320339 0
M  V30 4022 H 364.171 2.01207 0.36551 0
M  V30 4023 H 362.326 2.73851 2.74016 0
M  V30 4024 H 362.74 4.83565 2.03138 0
M  V30 4025 H 364.214 4.17643 3.60941 0
M  V30 4026 H 364.691 2.48026 3.62463 0
M  V30 4027 H 365.297 3.55117 2.34034 0
M  V30 4028 N 363.613 -0.582584 1.46437 0
M  V30 4029 C 364.861 -1.33814 1.51453 0
M  V30 4030 C 365.182 -1.94277 0.167792 0
M  V30 4031 O 364.452 -1.78566 -0.805677 0
M  V30 4032 H 363.032 -0.496838 0.557818 0
M  V30 4033 H 365.694 -0.682281 1.82568 0
M  V30 4034 H 364.79 -2.14479 2.26728 0
M  V30 4035 N 365.091 -1.34144 -0.827227 0
M  V30 4036 C 366.001 -1.27428 -1.96975 0
M  V30 4037 C 367.017 -0.182728 -1.73038 0
M  V30 4038 O 368.193 -0.408426 -1.97215 0
M  V30 4039 C 365.258 -1.02526 -3.31194 0
M  V30 4040 C 364.319 -2.20796 -3.68168 0
M  V30 4041 C 363.552 -1.97073 -4.95982 0
M  V30 4042 O 363.775 -0.926822 -5.6282 0
M  V30 4043 O 362.709 -2.83912 -5.30733 0
M  V30 4044 H 366.535 -2.23537 -2.05584 0
M  V30 4045 H 364.12 -1.14307 -0.961989 0
M  V30 4046 H 366.002 -0.904026 -4.11589 0
M  V30 4047 H 364.677 -0.0945389 -3.23562 0
M  V30 4048 H 363.584 -2.38477 -2.88235 0
M  V30 4049 H 364.917 -3.12243 -3.8048 0
M  V30 4050 N 366.569 1.04691 -1.17803 0
M  V30 4051 C 367.794 1.81984 -0.994813 0
M  V30 4052 C 368.219 1.82586 0.452112 0
M  V30 4053 O 367.577 1.23854 1.324 0
M  V30 4054 C 367.625 3.2575 -1.54659 0
M  V30 4055 O 366.729 4.05267 -0.763728 0
M  V30 4056 H 366.07 0.562483 -0.352857 0
M  V30 4057 H 368.6 1.3189 -1.56417 0
M  V30 4058 H 368.61 3.76541 -1.57102 0
M  V30 4059 H 367.285 3.24627 -2.59981 0
M  V30 4060 H 365.862 3.63972 -0.811108 0
M  V30 4061 N 368.047 0.979072 1.23499 0
M  V30 4062 C 368.994 0.517904 2.24914 0
M  V30 4063 C 369.964 -0.442525 1.60097 0
M  V30 4064 O 371.149 -0.350365 1.87556 0
M  V30 4065 C 368.289 -0.174813 3.44657 0
M  V30 4066 C 367.402 0.825721 4.24035 0
M  V30 4067 C 366.537 0.107946 5.3109 0
M  V30 4068 C 365.576 1.09778 6.02175 0
M  V30 4069 N 364.713 0.40925 7.00906 0
M  V30 4070 H 369.553 1.38751 2.63727 0
M  V30 4071 H 367.09 0.695303 1.2963 0
M  V30 4072 H 369.048 -0.593233 4.12961 0
M  V30 4073 H 367.678 -1.0083 3.06648 0
M  V30 4074 H 366.73 1.36253 3.55161 0
M  V30 4075 H 368.042 1.58005 4.73113 0
M  V30 4076 H 367.196 -0.367904 6.05583 0
M  V30 4077 H 365.935 -0.678994 4.8295 0
M  V30 4078 H 364.94 1.5844 5.26476 0
M  V30 4079 H 366.165 1.88536 6.52404 0
M  V30 4080 H 364.111 -0.358506 6.5502 0
M  V30 4081 H 364.028 1.10226 7.47921 0
M  V30 4082 H 365.296 -0.0442557 7.79487 0
M  V30 4083 N 369.525 -1.3858 0.750561 0
M  V30 4084 C 370.435 -2.34278 0.122825 0
M  V30 4085 C 371.451 -1.59116 -0.704131 0
M  V30 4086 O 372.627 -1.91326 -0.628987 0
M  V30 4087 C 369.692 -3.38221 -0.762086 0
M  V30 4088 C 368.753 -4.29227 0.078896 0
M  V30 4089 C 367.986 -5.28205 -0.763874 0
M  V30 4090 O 368.209 -5.34112 -2.00201 0
M  V30 4091 O 367.143 -6.01618 -0.18428 0
M  V30 4092 H 370.969 -2.89649 0.913088 0
M  V30 4093 H 368.554 -1.40374 0.511417 0
M  V30 4094 H 370.436 -4.01872 -1.26793 0
M  V30 4095 H 369.111 -2.85211 -1.5309 0
M  V30 4096 H 368.018 -3.68747 0.630621 0
M  V30 4097 H 369.351 -4.85484 0.810289 0
M  V30 4098 N 371.003 -0.499398 -1.49478 0
M  V30 4099 C 372.231 0.0425456 -2.06856 0
M  V30 4100 C 372.646 1.30964 -1.35992 0
M  V30 4101 O 372.003 1.77172 -0.437762 0
M  V30 4102 C 372.054 0.301735 -3.60239 0
M  V30 4103 O 371.775 -0.915127 -4.28436 0
M  V30 4104 C 373.276 0.887499 -4.34325 0
M  V30 4105 H 370.496 -0.0197482 -0.670709 0
M  V30 4106 H 373.04 -0.696297 -1.92281 0
M  V30 4107 H 371.195 0.990556 -3.74522 0
M  V30 4108 H 371.609 -0.676993 -5.20113 0
M  V30 4109 H 373.083 1.01845 -5.42523 0
M  V30 4110 H 373.56 1.88488 -3.96698 0
M  V30 4111 H 374.166 0.236196 -4.24644 0
M  V30 4112 N 372.481 1.55866 -0.233164 0
M  V30 4113 C 373.729 1.9821 0.394593 0
M  V30 4114 C 374.05 1.12234 1.59463 0
M  V30 4115 O 373.32 0.201981 1.94856 0
M  V30 4116 H 371.9 0.732034 0.148778 0
M  V30 4117 H 374.562 1.92107 -0.32876 0
M  V30 4118 H 373.658 3.03845 0.713063 0
M  V30 4119 N 373.959 -0.0401083 1.57549 0
M  V30 4120 C 374.869 -1.06133 2.0922 0
M  V30 4121 C 375.885 -1.40356 1.0284 0
M  V30 4122 O 377.061 -1.49897 1.34509 0
M  V30 4123 C 374.126 -2.34658 2.55218 0
M  V30 4124 C 373.187 -2.07117 3.76033 0
M  V30 4125 C 372.42 -3.29514 4.19829 0
M  V30 4126 O 372.643 -4.39794 3.63232 0
M  V30 4127 O 371.577 -3.15863 5.12362 0
M  V30 4128 H 375.403 -0.652244 2.96613 0
M  V30 4129 H 372.988 -0.256368 1.47184 0
M  V30 4130 H 374.87 -3.10239 2.85184 0
M  V30 4131 H 373.545 -2.74883 1.70941 0
M  V30 4132 H 372.452 -1.29139 3.51104 0
M  V30 4133 H 373.785 -1.71754 4.61261 0
M  V30 4134 N 375.437 -1.54477 -0.31217 0
M  V30 4135 C 376.662 -1.77526 -1.07235 0
M  V30 4136 C 377.087 -0.527775 -1.80544 0
M  V30 4137 O 376.445 0.52121 -1.73646 0
M  V30 4138 C 376.493 -2.97535 -2.03728 0
M  V30 4139 O 375.597 -2.69878 -3.11833 0
M  V30 4140 H 374.938 -0.58792 -0.30862 0
M  V30 4141 H 377.468 -2.01532 -0.352993 0
M  V30 4142 H 377.478 -3.25198 -2.46395 0
M  V30 4143 H 376.153 -3.87996 -1.49774 0
M  V30 4144 H 374.73 -2.53199 -2.7376 0
M  V30 4145 N 376.915 0.57481 -1.46744 0
M  V30 4146 C 377.862 1.68329 -1.57905 0
M  V30 4147 C 378.832 1.60625 -0.422927 0
M  V30 4148 O 380.017 1.79721 -0.640711 0
M  V30 4149 C 377.157 3.06665 -1.58274 0
M  V30 4150 C 376.27 3.24935 -2.84678 0
M  V30 4151 C 375.405 4.53566 -2.76499 0
M  V30 4152 C 374.444 4.65207 -3.97806 0
M  V30 4153 N 373.581 5.85172 -3.87967 0
M  V30 4154 H 378.421 1.58127 -2.52587 0
M  V30 4155 H 375.958 0.770552 -1.25303 0
M  V30 4156 H 377.916 3.86745 -1.56473 0
M  V30 4157 H 376.546 3.15745 -0.671194 0
M  V30 4158 H 375.598 2.38405 -2.96424 0
M  V30 4159 H 376.91 3.29403 -3.7456 0
M  V30 4160 H 376.064 5.41885 -2.72848 0
M  V30 4161 H 374.803 4.51548 -1.8427 0
M  V30 4162 H 373.808 3.75304 -4.0178 0
M  V30 4163 H 375.033 4.68997 -4.9114 0
M  V30 4164 H 372.979 5.84137 -2.98529 0
M  V30 4165 H 372.896 5.90943 -4.71511 0
M  V30 4166 H 374.164 6.759 -3.88303 0
M  V30 4167 N 378.394 1.34581 0.820102 0
M  V30 4168 C 379.304 1.28471 1.96297 0
M  V30 4169 C 380.32 0.191902 1.72939 0
M  V30 4170 O 381.496 0.418879 1.96996 0
M  V30 4171 C 378.561 1.04281 3.30645 0
M  V30 4172 C 377.622 2.22745 3.66992 0
M  V30 4173 C 376.855 1.997 4.9493 0
M  V30 4174 O 377.078 0.956656 5.6232 0
M  V30 4175 O 376.012 2.86723 5.2922 0
M  V30 4176 H 379.838 2.24624 2.04396 0
M  V30 4177 H 377.423 1.14816 0.955913 0
M  V30 4178 H 379.305 0.925841 4.11104 0
M  V30 4179 H 377.98 0.111697 3.23507 0
M  V30 4180 H 376.887 2.40003 2.86966 0
M  V30 4181 H 378.22 3.14257 3.78819 0
M  V30 4182 N 379.872 -1.04064 1.18357 0
M  V30 4183 C 381.1 -1.80916 1.00384 0
M  V30 4184 C 381.515 -1.83414 -0.447738 0
M  V30 4185 O 380.872 -1.26962 -1.31099 0
M  V30 4186 C 380.923 -3.26516 1.55144 0
M  V30 4187 O 380.644 -3.2424 2.94618 0
M  V30 4188 C 382.145 -4.20013 1.41789 0
M  V30 4189 H 379.365 -0.569728 0.354474 0
M  V30 4190 H 381.909 -1.31151 1.56906 0
M  V30 4191 H 380.064 -3.73512 1.02798 0
M  V30 4192 H 380.478 -4.15452 3.20156 0
M  V30 4193 H 381.952 -5.20111 1.84901 0
M  V30 4194 H 382.429 -4.37667 0.36661 0
M  V30 4195 H 383.035 -3.78881 1.93207 0
M  V30 4196 N 381.35 -0.985608 -1.22978 0
M  V30 4197 C 382.598 -0.656087 -1.91154 0
M  V30 4198 C 382.919 0.813561 -1.77218 0
M  V30 4199 O 382.189 1.58244 -1.1548 0
M  V30 4200 H 380.769 -0.239674 -0.707506 0
M  V30 4201 H 383.431 -1.25054 -1.49491 0
M  V30 4202 H 382.527 -0.912253 -2.9847 0
M  V30 4203 N 382.828 1.3818 -0.7579 0
M  V30 4204 C 383.738 2.3421 -0.135247 0
M  V30 4205 C 384.754 1.59487 0.695683 0
M  V30 4206 O 385.93 1.91657 0.618832 0
M  V30 4207 C 382.995 3.3862 0.744139 0
M  V30 4208 C 382.056 4.2918 -0.101658 0
M  V30 4209 C 381.289 5.28603 0.735851 0
M  V30 4210 O 381.512 5.35166 1.97366 0
M  V30 4211 O 380.446 6.01707 0.152372 0
M  V30 4212 H 384.272 2.8916 -0.928436 0
M  V30 4213 H 381.857 1.40101 -0.518855 0
M  V30 4214 H 383.739 4.02539 1.2466 0
M  V30 4215 H 382.414 2.86019 1.51575 0
M  V30 4216 H 381.321 3.68407 -0.650167 0
M  V30 4217 H 382.654 4.85048 -0.836024 0
M  V30 4218 N 384.306 0.507319 1.49211 0
M  V30 4219 C 385.531 -0.033725 2.07373 0
M  V30 4220 C 385.956 -1.29485 1.36437 0
M  V30 4221 O 385.314 -1.76294 0.423087 0
M  V30 4222 C 385.362 -0.263945 3.59633 0
M  V30 4223 O 384.466 -1.33737 3.90113 0
M  V30 4224 H 383.807 0.0290331 0.663365 0
M  V30 4225 H 386.337 0.708749 1.91932 0
M  V30 4226 H 386.347 -0.493536 4.05004 0
M  V30 4227 H 385.022 0.657424 4.10671 0
M  V30 4228 H 383.599 -1.09224 3.56545 0
M  V30 4229 N 385.784 -1.5574 0.241426 0
M  V30 4230 C 386.731 -2.21149 -0.660432 0
M  V30 4231 C 387.701 -1.17356 -1.17545 0
M  V30 4232 O 388.886 -1.45784 -1.23093 0
M  V30 4233 C 386.026 -2.91059 -1.85414 0
M  V30 4234 C 385.139 -4.09495 -1.37616 0
M  V30 4235 C 384.274 -4.67135 -2.529 0
M  V30 4236 C 383.313 -5.77831 -2.01936 0
M  V30 4237 N 382.45 -6.29677 -3.10566 0
M  V30 4238 H 387.29 -2.97845 -0.095955 0
M  V30 4239 H 384.827 -1.47057 -0.0356024 0
M  V30 4240 H 386.785 -3.29788 -2.5553 0
M  V30 4241 H 385.415 -2.16846 -2.39118 0
M  V30 4242 H 384.467 -3.76117 -0.569235 0
M  V30 4243 H 385.779 -4.89423 -0.962618 0
M  V30 4244 H 384.933 -5.08409 -3.31067 0
M  V30 4245 H 383.672 -3.86411 -2.97553 0
M  V30 4246 H 382.677 -5.36039 -1.22238 0
M  V30 4247 H 383.902 -6.60402 -1.58259 0
M  V30 4248 H 381.848 -5.5186 -3.54664 0
M  V30 4249 H 381.765 -7.04783 -2.73526 0
M  V30 4250 H 383.033 -6.75609 -3.88809 0
M  V30 4251 N 387.262 0.0317525 -1.57568 0
M  V30 4252 C 388.172 1.05021 -2.0978 0
M  V30 4253 C 389.188 1.39809 -1.03583 0
M  V30 4254 O 390.364 1.49182 -1.35302 0
M  V30 4255 C 387.429 2.33301 -2.56459 0
M  V30 4256 C 386.49 2.0512 -3.77127 0
M  V30 4257 C 385.723 3.27283 -4.2157 0
M  V30 4258 O 385.946 4.37861 -3.65559 0
M  V30 4259 O 384.88 3.13141 -5.14029 0
M  V30 4260 H 388.706 0.636505 -2.96955 0
M  V30 4261 H 386.291 0.248559 -1.47318 0
M  V30 4262 H 388.173 3.08722 -2.86825 0
M  V30 4263 H 386.848 2.73973 -1.72397 0
M  V30 4264 H 385.755 1.27276 -3.51784 0
M  V30 4265 H 387.088 1.69305 -4.62165 0
M  V30 4266 N 388.74 1.54641 0.303973 0
M  V30 4267 C 389.968 1.77768 1.05858 0
M  V30 4268 C 390.383 0.535722 1.8104 0
M  V30 4269 O 389.74 -0.494337 1.75677 0
M  V30 4270 C 389.791 2.9834 2.04146 0
M  V30 4271 O 389.512 4.17736 1.32015 0
M  V30 4272 C 391.013 3.33832 2.91669 0
M  V30 4273 H 388.233 0.592961 0.314067 0
M  V30 4274 H 390.777 2.01583 0.344149 0
M  V30 4275 H 388.932 2.76742 2.71096 0
M  V30 4276 H 389.346 4.85693 1.97998 0
M  V30 4277 H 390.82 4.21448 3.56491 0
M  V30 4278 H 391.297 2.51857 3.59812 0
M  V30 4279 H 391.903 3.57579 2.30254 0
M  V30 4280 N 390.218 -0.567019 1.47046 0
M  V30 4281 C 391.466 -1.322 1.52864 0
M  V30 4282 C 391.787 -1.94088 0.188388 0
M  V30 4283 O 391.057 -1.7941 -0.786693 0
M  V30 4284 H 389.637 -0.490894 0.563056 0
M  V30 4285 H 392.299 -0.662879 1.83281 0
M  V30 4286 H 391.395 -2.12062 2.2899 0
M  V30 4287 N 391.696 -1.35014 -0.812953 0
M  V30 4288 C 392.606 -1.2951 -1.95613 0
M  V30 4289 C 393.622 -0.20107 -1.72834 0
M  V30 4290 O 394.798 -0.42932 -1.96771 0
M  V30 4291 C 391.863 -1.06033 -3.30088 0
M  V30 4292 C 390.924 -2.24688 -3.65805 0
M  V30 4293 C 390.157 -2.02322 -4.93864 0
M  V30 4294 O 390.38 -0.986464 -5.61805 0
M  V30 4295 O 389.314 -2.89525 -5.27692 0
M  V30 4296 H 393.14 -2.25705 -2.03202 0
M  V30 4297 H 390.725 -1.15321 -0.949811 0
M  V30 4298 H 392.607 -0.94763 -4.10607 0
M  V30 4299 H 391.282 -0.128852 -3.23443 0
M  V30 4300 H 390.189 -2.41521 -2.85689 0
M  V30 4301 H 391.522 -3.16261 -3.77147 0
M  V30 4302 N 393.175 1.03435 -1.18907 0
M  V30 4303 C 394.4 1.80919 -1.01406 0
M  V30 4304 C 394.825 1.83055 0.432721 0
M  V30 4305 O 394.183 1.25252 1.31079 0
M  V30 4306 C 394.231 3.24091 -1.58105 0
M  V30 4307 O 393.335 4.04434 -0.806669 0
M  V30 4308 H 392.676 0.558709 -0.358803 0
M  V30 4309 H 395.206 1.30223 -1.57807 0
M  V30 4310 H 395.216 3.74853 -1.61087 0
M  V30 4311 H 393.891 3.21851 -2.6341 0
M  V30 4312 H 392.468 3.63091 -0.849666 0
M  V30 4313 N 394.653 0.992116 1.22453 0
M  V30 4314 C 395.6 0.541731 2.24352 0
M  V30 4315 C 396.57 -0.425519 1.60557 0
M  V30 4316 O 397.755 -0.330453 1.87917 0
M  V30 4317 C 394.895 -0.138248 3.44823 0
M  V30 4318 C 394.008 0.870649 4.23136 0
M  V30 4319 C 393.143 0.164269 5.30946 0
M  V30 4320 C 392.182 1.16159 6.00977 0
M  V30 4321 N 391.319 0.483568 7.00433 0
M  V30 4322 H 396.159 1.41541 2.62241 0
M  V30 4323 H 393.696 0.709013 1.28885 0
M  V30 4324 H 395.654 -0.5494 4.13567 0
M  V30 4325 H 394.284 -0.975721 3.077 0
M  V30 4326 H 393.336 1.40013 3.53696 0
M  V30 4327 H 394.648 1.63014 4.7141 0
M  V30 4328 H 393.802 -0.303653 6.0594 0
M  V30 4329 H 392.541 -0.627733 4.83643 0
M  V30 4330 H 391.546 1.64015 5.24766 0
M  V30 4331 H 392.771 1.95445 6.50368 0
M  V30 4332 H 390.717 -0.289012 6.55363 0
M  V30 4333 H 390.634 1.18152 7.4671 0
M  V30 4334 H 391.902 0.0384219 7.79491 0
M  V30 4335 N 396.131 -1.37776 0.765217 0
M  V30 4336 C 397.041 -2.34135 0.147666 0
M  V30 4337 C 398.057 -1.59854 -0.687215 0
M  V30 4338 O 399.233 -1.91983 -0.608659 0
M  V30 4339 C 396.298 -3.3901 -0.72617 0
M  V30 4340 C 395.359 -4.2912 0.124417 0
M  V30 4341 C 394.592 -5.28986 -0.707807 0
M  V30 4342 O 394.815 -5.36205 -1.94525 0
M  V30 4343 O 393.749 -6.01779 -0.12046 0
M  V30 4344 H 397.575 -2.88664 0.943758 0
M  V30 4345 H 395.16 -1.39824 0.526277 0
M  V30 4346 H 397.042 -4.03195 -1.22524 0
M  V30 4347 H 395.717 -2.86819 -1.50056 0
M  V30 4348 H 394.624 -3.68057 0.669696 0
M  V30 4349 H 395.957 -4.84598 0.861736 0
M  V30 4350 N 397.609 -0.515225 -1.4894 0
M  V30 4351 C 398.837 0.0206034 -2.0689 0
M  V30 4352 C 399.252 1.29514 -1.37374 0
M  V30 4353 O 398.609 1.76698 -0.456529 0
M  V30 4354 C 398.66 0.26351 -3.60538 0
M  V30 4355 O 398.381 -0.960517 -4.27441 0
M  V30 4356 C 399.882 0.841383 -4.35242 0
M  V30 4357 H 397.102 -0.0268608 -0.670462 0
M  V30 4358 H 399.646 -0.716651 -1.91532 0
M  V30 4359 H 397.801 0.950777 -3.75552 0
M  V30 4360 H 398.215 -0.73212 -5.19365 0
M  V30 4361 H 399.689 0.96085 -5.43573 0
M  V30 4362 H 400.166 1.8427 -3.98674 0
M  V30 4363 H 400.772 0.191143 -4.2487 0
M  V30 4364 N 399.087 1.5561 -0.249682 0
M  V30 4365 C 400.335 1.98618 0.373548 0
M  V30 4366 C 400.656 1.13919 1.58264 0
M  V30 4367 O 399.926 0.222637 1.94631 0
M  V30 4368 H 398.506 0.733571 0.141006 0
M  V30 4369 H 401.168 1.91748 -0.349117 0
M  V30 4370 H 400.264 3.04584 0.680796 0
M  V30 4371 N 400.565 -0.0233959 1.57583 0
M  V30 4372 C 401.475 -1.03907 2.10334 0
M  V30 4373 C 402.491 -1.39257 1.04323 0
M  V30 4374 O 403.667 -1.48462 1.36091 0
M  V30 4375 C 400.732 -2.31938 2.57693 0
M  V30 4376 C 399.793 -2.03117 3.78209 0
M  V30 4377 C 399.026 -3.25043 4.233 0
M  V30 4378 O 399.249 -4.35916 3.67876 0
M  V30 4379 O 398.183 -3.10411 5.15683 0
M  V30 4380 H 402.009 -0.620748 2.97288 0
M  V30 4381 H 399.594 -0.240743 1.47448 0
M  V30 4382 H 401.476 -3.07196 2.88458 0
M  V30 4383 H 400.151 -2.73055 1.73847 0
M  V30 4384 H 399.058 -1.25408 3.52454 0
M  V30 4385 H 400.391 -1.66852 4.63056 0
M  V30 4386 N 402.043 -1.548 -0.295768 0
M  V30 4387 C 403.268 -1.78653 -1.05346 0
M  V30 4388 C 403.693 -0.546894 -1.79974 0
M  V30 4389 O 403.051 0.502763 -1.7419 0
M  V30 4390 C 403.099 -2.99679 -2.00561 0
M  V30 4391 O 402.203 -2.7317 -3.08953 0
M  V30 4392 H 401.544 -0.59116 -0.302367 0
M  V30 4393 H 404.074 -2.01895 -0.331598 0
M  V30 4394 H 404.084 -3.27793 -2.42932 0
M  V30 4395 H 402.759 -3.89562 -1.4565 0
M  V30 4396 H 401.336 -2.56089 -2.71059 0
M  V30 4397 N 403.521 0.559213 -1.47345 0
M  V30 4398 C 404.468 1.66645 -1.59682 0
M  V30 4399 C 405.438 1.60168 -0.43994 0
M  V30 4400 O 406.623 1.79031 -0.659736 0
M  V30 4401 C 403.763 3.04969 -1.61518 0
M  V30 4402 C 402.876 3.21897 -2.88108 0
M  V30 4403 C 402.011 4.50608 -2.81294 0
M  V30 4404 C 401.05 4.60961 -4.02717 0
M  V30 4405 N 400.187 5.81024 -3.94151 0
M  V30 4406 H 405.027 1.55439 -2.54249 0
M  V30 4407 H 402.564 0.757219 -1.26113 0
M  V30 4408 H 404.522 3.85064 -1.60566 0
M  V30 4409 H 403.152 3.15015 -0.704645 0
M  V30 4410 H 402.204 2.35248 -2.98936 0
M  V30 4411 H 403.516 3.25412 -3.78032 0
M  V30 4412 H 402.67 5.3896 -2.7858 0
M  V30 4413 H 401.409 4.49568 -1.89049 0
M  V30 4414 H 400.414 3.71021 -4.05738 0
M  V30 4415 H 401.639 4.63761 -4.96087 0
M  V30 4416 H 399.585 5.80938 -3.04708 0
M  V30 4417 H 399.502 5.85909 -4.77752 0
M  V30 4418 H 400.77 6.71744 -3.9545 0
M  V30 4419 N 404.999 1.35443 0.805782 0
M  V30 4420 C 405.909 1.30546 1.94923 0
M  V30 4421 C 406.925 0.210233 1.72725 0
M  V30 4422 O 408.101 0.43975 1.9654 0
M  V30 4423 C 405.166 1.07782 3.29521 0
M  V30 4424 C 404.227 2.26625 3.64609 0
M  V30 4425 C 403.46 2.04938 4.92784 0
M  V30 4426 O 403.683 1.01624 5.61274 0
M  V30 4427 O 402.617 2.9232 5.26149 0
M  V30 4428 H 406.443 2.26779 2.02002 0
M  V30 4429 H 404.028 1.15823 0.943682 0
M  V30 4430 H 405.91 0.969392 4.10098 0
M  V30 4431 H 404.585 0.146003 3.23371 0
M  V30 4432 H 403.492 2.43033 2.84404 0
M  V30 4433 H 404.825 3.18257 3.75464 0
M  V30 4434 N 406.477 -1.02803 1.19454 0
M  V30 4435 C 407.705 -1.79841 1.02297 0
M  V30 4436 C 408.12 -1.83879 -0.428259 0
M  V30 4437 O 407.477 -1.28345 -1.29745 0
M  V30 4438 C 407.528 -3.24852 1.58598 0
M  V30 4439 O 407.249 -3.21097 2.98041 0
M  V30 4440 C 408.75 -4.18485 1.46236 0
M  V30 4441 H 405.97 -0.565936 0.360496 0
M  V30 4442 H 408.514 -1.2948 1.58288 0
M  V30 4443 H 406.669 -3.72401 1.06753 0
M  V30 4444 H 407.083 -4.12033 3.24545 0
M  V30 4445 H 408.557 -5.18121 1.90407 0
M  V30 4446 H 409.034 -4.37254 0.41301 0
M  V30 4447 H 409.64 -3.76811 1.97215 0
M  V30 4448 N 407.956 -0.998596 -1.21925 0
M  V30 4449 C 409.204 -0.676325 -1.90448 0
M  V30 4450 C 409.525 0.794719 -1.78071 0
M  V30 4451 O 408.795 1.5701 -1.17152 0
M  V30 4452 H 407.375 -0.247165 -0.704925 0
M  V30 4453 H 410.037 -1.26633 -1.48156 0
M  V30 4454 H 409.133 -0.943858 -2.97486 0
M  V30 4455 N 409.434 1.37368 -0.772513 0
M  V30 4456 C 410.344 2.34053 -0.160081 0
M  V30 4457 C 411.36 1.60216 0.678728 0
M  V30 4458 O 412.536 1.92303 0.59847 0
M  V30 4459 C 409.601 3.3939 0.708182 0
M  V30 4460 C 408.662 4.29048 -0.147172 0
M  V30 4461 C 407.895 5.29354 0.679744 0
M  V30 4462 O 408.118 5.3723 1.91678 0
M  V30 4463 O 407.052 6.01835 0.0885444 0
M  V30 4464 H 410.878 2.88159 -0.959053 0
M  V30 4465 H 408.463 1.39543 -0.533685 0
M  V30 4466 H 410.345 4.03839 1.20384 0
M  V30 4467 H 409.02 2.8761 1.48533 0
M  V30 4468 H 407.927 3.67697 -0.689205 0
M  V30 4469 H 409.26 4.84134 -0.887423 0
M  V30 4470 N 410.912 0.523116 1.48665 0
M  V30 4471 C 412.137 -0.0117284 2.07397 0
M  V30 4472 C 412.562 -1.28031 1.37803 0
M  V30 4473 O 411.92 -1.75836 0.441762 0
M  V30 4474 C 411.968 -0.225786 3.59892 0
M  V30 4475 O 411.072 -1.29592 3.91509 0
M  V30 4476 H 410.413 0.0360673 0.66302 0
M  V30 4477 H 412.943 0.729066 1.9117 0
M  V30 4478 H 412.953 -0.450552 4.05505 0
M  V30 4479 H 411.628 0.700944 4.09951 0
M  V30 4480 H 410.205 -1.05436 3.57684 0
M  V30 4481 N 412.39 -1.55475 0.257931 0
M  V30 4482 C 413.337 -2.21837 -0.636939 0
M  V30 4483 C 414.307 -1.18596 -1.16294 0
M  V30 4484 O 415.492 -1.47081 -1.21539 0
M  V30 4485 C 412.632 -2.9301 -1.82317 0
M  V30 4486 C 411.745 -4.10931 -1.33265 0
M  V30 4487 C 410.88 -4.69791 -2.47931 0
M  V30 4488 C 409.919 -5.7994 -1.95796 0
M  V30 4489 N 409.056 -6.32935 -3.0387 0
M  V30 4490 H 413.896 -2.9793 -0.0643591 0
M  V30 4491 H 411.433 -1.47086 -0.0200031 0
M  V30 4492 H 413.391 -3.3248 -2.52018 0
M  V30 4493 H 412.021 -2.1937 -2.36805 0
M  V30 4494 H 411.073 -3.76699 -0.52931 0
M  V30 4495 H 412.385 -4.90417 -0.910654 0
M  V30 4496 H 411.539 -5.11892 -3.25656 0
M  V30 4497 H 410.278 -3.89545 -2.93438 0
M  V30 4498 H 409.283 -5.37305 -1.16546 0
M  V30 4499 H 410.508 -6.62043 -1.51246 0
M  V30 4500 H 408.454 -5.55591 -3.48791 0
M  V30 4501 H 408.371 -7.07645 -2.66035 0
M  V30 4502 H 409.639 -6.79695 -3.81621 0
M  V30 4503 N 413.868 0.0150385 -1.57593 0
M  V30 4504 C 414.778 1.02791 -2.10882 0
M  V30 4505 C 415.794 1.38702 -1.0506 0
M  V30 4506 O 416.97 1.47739 -1.36877 0
M  V30 4507 C 414.035 2.30568 -2.58919 0
M  V30 4508 C 413.096 2.01108 -3.79281 0
M  V30 4509 C 412.329 3.22794 -4.25018 0
M  V30 4510 O 412.552 4.33959 -3.70183 0
M  V30 4511 O 411.486 3.07672 -5.17322 0
M  V30 4512 H 415.312 0.604973 -2.97613 0
M  V30 4513 H 412.897 0.23292 -1.47573 0
M  V30 4514 H 414.779 3.05662 -2.90084 0
M  V30 4515 H 413.454 2.72129 -1.75293 0
M  V30 4516 H 412.361 1.23537 -3.53114 0
M  V30 4517 H 413.694 1.64394 -4.63935 0
M  V30 4518 N 415.346 1.54954 0.287554 0
M  V30 4519 C 416.574 1.78881 1.03967 0
M  V30 4520 C 416.989 0.554894 1.80462 0
M  V30 4521 O 416.346 -0.475676 1.76192 0
M  V30 4522 C 416.397 3.00488 2.0097 0
M  V30 4523 O 416.118 4.19113 1.27577 0
M  V30 4524 C 417.619 3.36907 2.88112 0
M  V30 4525 H 414.839 0.596259 0.307761 0
M  V30 4526 H 417.383 2.01937 0.322749 0
M  V30 4527 H 415.538 2.79601 2.68145 0
M  V30 4528 H 415.952 4.87765 1.92835 0
M  V30 4529 H 417.426 4.25205 3.52001 0
M  V30 4530 H 417.903 2.55659 3.57121 0
M  V30 4531 H 418.509 3.60001 2.26449 0
M  V30 4532 N 416.824 -0.551391 1.4764 0
M  V30 4533 C 418.072 -1.30572 1.54258 0
M  V30 4534 C 418.393 -1.93877 0.208963 0
M  V30 4535 O 417.663 -1.80234 -0.767619 0
M  V30 4536 H 416.243 -0.484894 0.568231 0
M  V30 4537 H 418.905 -0.643402 1.83974 0
M  V30 4538 H 418.001 -2.09621 2.31226 0
M  V30 4539 N 418.302 -1.35869 -0.798587 0
M  V30 4540 C 419.212 -1.31578 -1.94228 0
M  V30 4541 C 420.228 -0.21939 -1.72611 0
M  V30 4542 O 421.404 -0.450167 -1.96305 0
M  V30 4543 C 418.469 -1.09528 -3.28944 0
M  V30 4544 C 417.53 -2.28556 -3.63402 0
M  V30 4545 C 416.763 -2.07549 -4.9169 0
M  V30 4546 O 416.986 -1.046 -5.60727 0
M  V30 4547 O 415.92 -2.95106 -5.24591 0
M  V30 4548 H 419.746 -2.27847 -2.00796 0
M  V30 4549 H 417.331 -1.16322 -0.937526 0
M  V30 4550 H 419.213 -0.991127 -4.09579 0
M  V30 4551 H 417.888 -0.16315 -3.23289 0
M  V30 4552 H 416.795 -2.44538 -2.83112 0
M  V30 4553 H 418.128 -3.20244 -3.73771 0
M  V30 4554 N 419.78 1.02168 -1.19998 0
M  V30 4555 C 421.005 1.79833 -1.03319 0
M  V30 4556 C 421.43 1.83504 0.413281 0
M  V30 4557 O 420.788 1.26635 1.29743 0
M  V30 4558 C 420.836 3.22396 -1.61533 0
M  V30 4559 O 419.94 4.03555 -0.849519 0
M  V30 4560 H 419.281 0.554872 -0.364709 0
M  V30 4561 H 421.811 1.28542 -1.59179 0
M  V30 4562 H 421.821 3.73124 -1.65054 0
M  V30 4563 H 420.496 3.19039 -2.66809 0
M  V30 4564 H 419.073 3.62169 -0.888129 0
M  V30 4565 N 421.258 1.00505 1.21394 0
M  V30 4566 C 422.205 0.565496 2.23765 0
M  V30 4567 C 423.175 -0.408466 1.60999 0
M  V30 4568 O 424.36 -0.310503 1.88257 0
M  V30 4569 C 421.5 -0.101667 3.4495 0
M  V30 4570 C 420.613 0.915479 4.22188 0
M  V30 4571 C 419.748 0.220574 5.30742 0
M  V30 4572 C 418.787 1.22527 5.99711 0
M  V30 4573 N 417.924 0.557831 6.9988 0
M  V30 4574 H 422.764 1.44314 2.60725 0
M  V30 4575 H 420.301 0.722643 1.28126 0
M  V30 4576 H 422.259 -0.505504 4.14126 0
M  V30 4577 H 420.889 -0.94303 3.08718 0
M  V30 4578 H 419.941 1.43756 3.52191 0
M  V30 4579 H 421.253 1.68005 4.69655 0
M  V30 4580 H 420.407 -0.239368 6.06228 0
M  V30 4581 H 419.146 -0.576401 4.84282 0
M  V30 4582 H 418.151 1.69571 5.22997 0
M  V30 4583 H 419.376 2.02332 6.48258 0
M  V30 4584 H 417.322 -0.219486 6.55633 0
M  V30 4585 H 417.239 1.26065 7.45415 0
M  V30 4586 H 418.507 0.121095 7.79406 0
M  V30 4587 N 422.737 -1.36956 0.779787 0
M  V30 4588 C 423.647 -2.33965 0.172491 0
M  V30 4589 C 424.663 -1.60574 -0.670222 0
M  V30 4590 O 425.839 -1.92617 -0.588263 0
M  V30 4591 C 422.904 -3.39761 -0.690173 0
M  V30 4592 C 421.965 -4.28964 0.169924 0
M  V30 4593 C 421.198 -5.29707 -0.651662 0
M  V30 4594 O 421.421 -5.38238 -1.88827 0
M  V30 4595 O 420.355 -6.01873 -0.0566264 0
M  V30 4596 H 424.181 -2.87647 0.974321 0
M  V30 4597 H 421.766 -1.39258 0.541078 0
M  V30 4598 H 423.648 -4.04471 -1.1824 0
M  V30 4599 H 422.323 -2.88394 -1.47006 0
M  V30 4600 H 421.23 -3.67326 0.708696 0
M  V30 4601 H 422.563 -4.83656 0.913085 0
M  V30 4602 N 424.215 -0.530993 -1.48385 0
M  V30 4603 C 425.443 -0.00134122 -2.069 0
M  V30 4604 C 425.858 1.2805 -1.3874 0
M  V30 4605 O 425.215 1.76204 -0.475244 0
M  V30 4606 C 425.266 0.225256 -3.60798 0
M  V30 4607 O 424.987 -1.0058 -4.26398 0
M  V30 4608 C 426.488 0.795172 -4.3611 0
M  V30 4609 H 423.708 -0.0339704 -0.67014 0
M  V30 4610 H 426.252 -0.736926 -1.90761 0
M  V30 4611 H 424.407 0.910891 -3.76539 0
M  V30 4612 H 424.821 -0.787165 -5.1856 0
M  V30 4613 H 426.295 0.903143 -5.44562 0
M  V30 4614 H 426.772 1.80031 -4.00606 0
M  V30 4615 H 427.378 0.146069 -4.25049 0
M  V30 4616 N 425.693 1.55336 -0.266172 0
M  V30 4617 C 426.941 1.99003 0.35246 0
M  V30 4618 C 427.262 1.15591 1.57047 0
M  V30 4619 O 426.532 0.243268 1.94384 0
M  V30 4620 H 425.112 0.735025 0.133217 0
M  V30 4621 H 427.774 1.91367 -0.369434 0
M  V30 4622 H 426.87 3.05289 0.648453 0
M  V30 4623 N 427.171 -0.0066808 1.57599 0
M  V30 4624 C 428.081 -1.01671 2.11424 0
M  V30 4625 C 429.097 -1.38143 1.05795 0
M  V30 4626 O 430.273 -1.47011 1.37658 0
M  V30 4627 C 427.338 -2.29192 2.60139 0
M  V30 4628 C 426.399 -1.99094 3.80342 0
M  V30 4629 C 425.632 -3.20535 4.26724 0
M  V30 4630 O 425.855 -4.3199 3.72479 0
M  V30 4631 O 424.789 -3.04924 5.18946 0
M  V30 4632 H 428.615 -0.589181 2.9793 0
M  V30 4633 H 426.2 -0.225091 1.47695 0
M  V30 4634 H 428.082 -3.0412 2.917 0
M  V30 4635 H 426.757 -2.71195 1.76733 0
M  V30 4636 H 425.664 -1.21663 3.53764 0
M  V30 4637 H 426.997 -1.61931 4.648 0
M  V30 4638 N 428.649 -1.55105 -0.279332 0
M  V30 4639 C 429.874 -1.7976 -1.03446 0
M  V30 4640 C 430.299 -0.565952 -1.79384 0
M  V30 4641 O 429.657 0.484259 -1.74713 0
M  V30 4642 C 429.705 -3.0179 -1.97371 0
M  V30 4643 O 428.809 -2.76432 -3.06038 0
M  V30 4644 H 428.15 -0.594334 -0.29608 0
M  V30 4645 H 430.68 -2.02235 -0.310165 0
M  V30 4646 H 430.69 -3.30351 -2.39441 0
M  V30 4647 H 429.365 -3.91085 -1.4151 0
M  V30 4648 H 427.942 -2.58949 -2.68328 0
M  V30 4649 N 430.127 0.543554 -1.4793 0
M  V30 4650 C 431.074 1.64942 -1.6144 0
M  V30 4651 C 432.044 1.59692 -0.456903 0
M  V30 4652 O 433.229 1.78321 -0.678688 0
M  V30 4653 C 430.369 3.03238 -1.64744 0
M  V30 4654 C 429.482 3.18823 -2.91506 0
M  V30 4655 C 428.617 4.47599 -2.86057 0
M  V30 4656 C 427.656 4.56664 -4.07584 0
M  V30 4657 N 426.793 5.76811 -4.00292 0
M  V30 4658 H 431.633 1.52733 -2.55884 0
M  V30 4659 H 429.17 0.7438 -1.2691 0
M  V30 4660 H 431.128 3.83339 -1.64641 0
M  V30 4661 H 429.758 3.1425 -0.738017 0
M  V30 4662 H 428.81 2.32064 -3.01414 0
M  V30 4663 H 430.122 3.21384 -3.81463 0
M  V30 4664 H 429.276 5.35975 -2.84281 0
M  V30 4665 H 428.015 4.47538 -1.93807 0
M  V30 4666 H 427.02 3.66697 -4.09651 0
M  V30 4667 H 428.245 4.58474 -5.00978 0
M  V30 4668 H 426.191 5.77673 -3.10853 0
M  V30 4669 H 426.108 5.80808 -4.8394 0
M  V30 4670 H 427.376 6.67512 -4.02553 0
M  V30 4671 N 431.605 1.3629 0.791371 0
M  V30 4672 C 432.515 1.32606 1.93527 0
M  V30 4673 C 433.531 0.228541 1.72493 0
M  V30 4674 O 434.707 0.460571 1.96063 0
M  V30 4675 C 431.772 1.11271 3.28359 0
M  V30 4676 C 430.833 2.3048 3.62185 0
M  V30 4677 C 430.066 2.10154 4.90583 0
M  V30 4678 O 430.289 1.07572 5.60165 0
M  V30 4679 O 429.223 2.97884 5.23019 0
M  V30 4680 H 433.049 2.28909 1.99585 0
M  V30 4681 H 430.634 1.16818 0.931344 0
M  V30 4682 H 432.516 1.01283 4.09047 0
M  V30 4683 H 431.191 0.180292 3.23198 0
M  V30 4684 H 430.098 2.46036 2.81811 0
M  V30 4685 H 431.431 3.22221 3.72068 0
M  V30 4686 N 433.083 -1.0153 1.20538 0
M  V30 4687 C 434.311 -1.78746 1.04199 0
M  V30 4688 C 434.726 -1.84323 -0.408733 0
M  V30 4689 O 434.083 -1.29714 -1.28377 0
M  V30 4690 C 434.134 -3.23152 1.62035 0
M  V30 4691 O 433.855 -3.17918 3.0143 0
M  V30 4692 C 435.356 -4.16911 1.50666 0
M  V30 4693 H 432.576 -0.56208 0.366479 0
M  V30 4694 H 435.12 -1.27794 1.59653 0
M  V30 4695 H 433.275 -3.71248 1.10697 0
M  V30 4696 H 433.689 -4.08567 3.28897 0
M  V30 4697 H 435.163 -5.16072 1.95892 0
M  V30 4698 H 435.64 -4.36791 0.459363 0
M  V30 4699 H 436.246 -3.74698 2.01201 0
M  V30 4700 N 434.561 -1.01147 -1.20859 0
M  V30 4701 C 435.809 -0.696486 -1.89719 0
M  V30 4702 C 436.13 0.775788 -1.78904 0
M  V30 4703 O 435.4 1.55759 -1.18811 0
M  V30 4704 H 433.98 -0.254628 -0.702263 0
M  V30 4705 H 436.642 -1.28197 -1.46804 0
M  V30 4706 H 435.738 -0.975357 -2.96468 0
M  V30 4707 N 436.039 1.36541 -0.78704 0
M  V30 4708 C 436.949 2.3387 -0.184896 0
M  V30 4709 C 437.965 1.60927 0.661697 0
M  V30 4710 O 439.141 1.92927 0.57804 0
M  V30 4711 C 436.206 3.40122 0.672145 0
M  V30 4712 C 435.267 4.28867 -0.19267 0
M  V30 4713 C 434.5 5.30045 0.623561 0
M  V30 4714 O 434.723 5.39232 1.8597 0
M  V30 4715 O 433.657 6.01895 0.0247068 0
M  V30 4716 H 437.483 2.87126 -0.989562 0
M  V30 4717 H 435.068 1.38969 -0.548455 0
M  V30 4718 H 436.95 4.05093 1.16094 0
M  V30 4719 H 435.625 2.89169 1.45474 0
M  V30 4720 H 434.532 3.66945 -0.728166 0
M  V30 4721 H 435.865 4.83165 -0.938722 0
M  V30 4722 N 437.518 0.538854 1.48102 0
M  V30 4723 C 438.743 0.0102694 2.07397 0
M  V30 4724 C 439.168 -1.26562 1.39153 0
M  V30 4725 O 438.526 -1.75357 0.460387 0
M  V30 4726 C 438.574 -0.187602 3.60112 0
M  V30 4727 O 437.678 -1.25432 3.92862 0
M  V30 4728 H 437.019 0.0430975 0.6626 0
M  V30 4729 H 439.549 0.749301 1.90385 0
M  V30 4730 H 439.559 -0.407517 4.0596 0
M  V30 4731 H 438.234 0.744386 4.09184 0
M  V30 4732 H 436.811 -1.01636 3.58782 0
M  V30 4733 N 438.996 -1.55193 0.274407 0
M  V30 4734 C 439.943 -2.225 -0.613374 0
M  V30 4735 C 440.913 -1.19823 -1.15029 0
M  V30 4736 O 442.098 -1.48362 -1.19973 0
M  V30 4737 C 439.238 -2.94927 -1.79199 0
M  V30 4738 C 438.351 -4.12322 -1.28899 0
M  V30 4739 C 437.486 -4.72394 -2.42934 0
M  V30 4740 C 436.525 -5.81984 -1.89634 0
M  V30 4741 N 435.662 -6.36123 -2.9714 0
M  V30 4742 H 440.502 -2.97982 -0.032756 0
M  V30 4743 H 438.039 -1.47099 -0.00440146 0
M  V30 4744 H 439.997 -3.35134 -2.48478 0
M  V30 4745 H 438.627 -2.2187 -2.34465 0
M  V30 4746 H 437.679 -3.7724 -0.489327 0
M  V30 4747 H 438.991 -4.91355 -0.858587 0
M  V30 4748 H 438.145 -5.15317 -3.20208 0
M  V30 4749 H 436.884 -3.92636 -2.8929 0
M  V30 4750 H 435.889 -5.38511 -1.1084 0
M  V30 4751 H 437.114 -6.6361 -1.44215 0
M  V30 4752 H 435.06 -5.59259 -3.42878 0
M  V30 4753 H 434.977 -7.10427 -2.58515 0
M  V30 4754 H 436.245 -6.83704 -3.74391 0
M  V30 4755 N 440.474 -0.00167713 -1.576 0
M  V30 4756 C 441.384 1.00548 -2.1196 0
M  V30 4757 C 442.4 1.3758 -1.06526 0
M  V30 4758 O 443.576 1.46278 -1.38436 0
M  V30 4759 C 440.641 2.27809 -2.6135 0
M  V30 4760 C 439.702 1.97074 -3.81393 0
M  V30 4761 C 438.935 3.18267 -4.28417 0
M  V30 4762 O 439.158 4.30009 -3.74765 0
M  V30 4763 O 438.092 3.02167 -5.20556 0
M  V30 4764 H 441.918 0.573373 -2.98238 0
M  V30 4765 H 439.503 0.217255 -1.47812 0
M  V30 4766 H 441.385 3.02568 -2.93309 0
M  V30 4767 H 440.06 2.70254 -1.78169 0
M  V30 4768 H 438.967 1.19785 -3.54404 0
M  V30 4769 H 440.3 1.59464 -4.65652 0
M  V30 4770 N 441.952 1.55251 0.271103 0
M  V30 4771 C 443.18 1.79974 1.02064 0
M  V30 4772 C 443.595 0.574003 1.79863 0
M  V30 4773 O 442.952 -0.456962 1.76686 0
M  V30 4774 C 443.003 3.02603 1.97772 0
M  V30 4775 O 442.724 4.20443 1.23124 0
M  V30 4776 C 444.225 3.39944 2.84522 0
M  V30 4777 H 441.445 0.599489 0.301419 0
M  V30 4778 H 443.989 2.02268 0.301313 0
M  V30 4779 H 442.144 2.8243 2.65165 0
M  V30 4780 H 442.558 4.89783 1.87651 0
M  V30 4781 H 444.032 4.28915 3.47471 0
M  V30 4782 H 444.509 2.59432 3.54389 0
M  V30 4783 H 445.115 3.62383 2.22618 0
M  V30 4784 N 443.43 -0.535701 1.48216 0
M  V30 4785 C 444.678 -1.28928 1.55634 0
M  V30 4786 C 444.999 -1.93645 0.229514 0
M  V30 4787 O 444.269 -1.81038 -0.74846 0
M  V30 4788 H 442.849 -0.47884 0.573342 0
M  V30 4789 H 445.511 -0.623853 1.84646 0
M  V30 4790 H 444.607 -2.07157 2.33436 0
M  V30 4791 N 444.908 -1.36708 -0.784132 0
M  V30 4792 C 445.818 -1.3363 -1.92822 0
M  V30 4793 C 446.834 -0.237686 -1.72369 0
M  V30 4794 O 448.01 -0.470962 -1.95816 0
M  V30 4795 C 445.075 -1.13011 -3.27764 0
M  V30 4796 C 444.136 -2.32397 -3.60957 0
M  V30 4797 C 443.369 -2.12752 -4.89461 0
M  V30 4798 O 443.592 -1.10541 -5.59586 0
M  V30 4799 O 442.526 -3.00653 -5.21432 0
M  V30 4800 H 446.352 -2.29964 -1.98369 0
M  V30 4801 H 443.937 -1.1731 -0.925136 0
M  V30 4802 H 445.819 -1.03451 -4.08504 0
M  V30 4803 H 444.494 -0.19743 -3.23097 0
M  V30 4804 H 443.401 -2.47527 -2.80502 0
M  V30 4805 H 444.734 -3.2419 -3.70354 0
M  V30 4806 N 446.386 1.0089 -1.21074 0
M  V30 4807 C 447.611 1.78727 -1.05221 0
M  V30 4808 C 448.036 1.83932 0.393795 0
M  V30 4809 O 447.394 1.28004 1.28393 0
M  V30 4810 C 447.442 3.20665 -1.64944 0
M  V30 4811 O 446.546 4.02632 -0.892273 0
M  V30 4812 H 445.887 0.550973 -0.370574 0
M  V30 4813 H 448.417 1.26847 -1.60534 0
M  V30 4814 H 448.427 3.71352 -1.69002 0
M  V30 4815 H 447.102 3.16191 -2.70177 0
M  V30 4816 H 445.679 3.61207 -0.926492 0
M  V30 4817 N 447.864 1.01787 1.20321 0
M  V30 4818 C 448.811 0.589197 2.23153 0
M  V30 4819 C 449.781 -0.391367 1.61423 0
M  V30 4820 O 450.966 -0.290518 1.88575 0
M  V30 4821 C 448.106 -0.0650747 3.45039 0
M  V30 4822 C 447.219 0.960207 4.21194 0
M  V30 4823 C 446.354 0.276854 5.30478 0
M  V30 4824 C 445.393 1.2888 5.98378 0
M  V30 4825 N 444.53 0.632031 6.99249 0
M  V30 4826 H 449.37 1.47071 2.59179 0
M  V30 4827 H 446.907 0.736192 1.27352 0
M  V30 4828 H 448.865 -0.461552 4.14639 0
M  V30 4829 H 447.495 -0.910233 3.09701 0
M  V30 4830 H 446.547 1.47484 3.50646 0
M  V30 4831 H 447.859 1.72977 4.67847 0
M  V30 4832 H 447.013 -0.175056 6.06447 0
M  V30 4833 H 445.752 -0.525004 4.84866 0
M  V30 4834 H 444.757 1.75109 5.21169 0
M  V30 4835 H 445.982 2.09196 6.46076 0
M  V30 4836 H 443.928 -0.149935 6.55829 0
M  V30 4837 H 443.845 1.33964 7.44036 0
M  V30 4838 H 445.113 0.203755 7.79234 0
M  V30 4839 N 449.342 -1.36122 0.79427 0
M  V30 4840 C 450.252 -2.33769 0.197296 0
M  V30 4841 C 451.268 -1.61276 -0.653153 0
M  V30 4842 O 452.444 -1.9323 -0.5678 0
M  V30 4843 C 449.509 -3.40474 -0.654098 0
M  V30 4844 C 448.57 -4.28759 0.215411 0
M  V30 4845 C 447.803 -5.30368 -0.595443 0
M  V30 4846 O 448.026 -5.40211 -1.83107 0
M  V30 4847 O 446.96 -6.019 0.00721351 0
M  V30 4848 H 450.786 -2.86597 1.00478 0
M  V30 4849 H 448.371 -1.38676 0.555818 0
M  V30 4850 H 450.253 -4.05703 -1.13944 0
M  V30 4851 H 448.928 -2.89937 -1.43938 0
M  V30 4852 H 447.835 -3.66554 0.747615 0
M  V30 4853 H 449.168 -4.82661 0.964332 0
M  V30 4854 N 450.82 -0.546701 -1.47814 0
M  V30 4855 C 452.048 -0.0232857 -2.06887 0
M  V30 4856 C 452.463 1.26571 -1.4009 0
M  V30 4857 O 451.82 1.7569 -0.493906 0
M  V30 4858 C 451.871 0.186975 -3.61016 0
M  V30 4859 O 451.592 -1.05097 -4.25307 0
M  V30 4860 C 453.093 0.748872 -4.36929 0
M  V30 4861 H 450.313 -0.0410763 -0.669742 0
M  V30 4862 H 452.857 -0.757117 -1.89968 0
M  V30 4863 H 451.012 0.870903 -3.77484 0
M  V30 4864 H 451.426 -0.842121 -5.17695 0
M  V30 4865 H 452.9 0.845334 -5.45489 0
M  V30 4866 H 453.377 1.75772 -4.02493 0
M  V30 4867 H 453.983 0.100979 -4.2518 0
M  V30 4868 N 452.299 1.55045 -0.282633 0
M  V30 4869 C 453.715 1.59441 0.0712997 0
M  V30 4870 C 453.915 1.2998 1.53972 0
M  V30 4871 O 452.971 1.06431 2.28973 0
M  V30 4872 C 454.284 2.99097 -0.310104 0
M  V30 4873 C 455.832 3.1194 -0.257343 0
M  V30 4874 C 456.307 4.53875 -0.613297 0
M  V30 4875 N 457.798 4.5974 -0.565134 0
M  V30 4876 C 458.533 5.67603 -0.81326 0
M  V30 4877 N 458.029 6.83582 -1.1264 0
M  V30 4878 N 459.822 5.57187 -0.741553 0
M  V30 4879 H 451.973 1.72458 -1.23984 0
M  V30 4880 H 454.236 0.804549 -0.501403 0
M  V30 4881 H 453.942 3.25516 -1.33163 0
M  V30 4882 H 453.816 3.75616 0.345366 0
M  V30 4883 H 456.203 2.85281 0.754905 0
M  V30 4884 H 456.284 2.37618 -0.947178 0
M  V30 4885 H 455.928 4.81261 -1.62327 0
M  V30 4886 H 455.858 5.26508 0.09841 0
M  V30 4887 H 458.349 3.76427 -0.333294 0
M  V30 4888 H 458.662 7.6175 -1.30219 0
M  V30 4889 H 457.007 6.85179 -1.16425 0
M  V30 4890 H 460.198 4.65457 -0.496705 0
M  V30 4891 H 460.371 6.41171 -0.938306 0
M  V30 4892 N 453.777 0.010035 1.57597 0
M  V30 4893 C 455.026 -0.671945 1.90178 0
M  V30 4894 C 455.339 -1.74376 0.886131 0
M  V30 4895 O 456.545 -2.48107 1.10252 0
M  V30 4896 C 455.001 -1.24636 3.3763 0
M  V30 4897 C 454.609 -0.208838 4.47513 0
M  V30 4898 C 456.353 -1.90595 3.79307 0
M  V30 4899 C 454.26 -0.793814 5.86048 0
M  V30 4900 H 453.19 -0.25474 0.709665 0
M  V30 4901 H 455.841 0.0722206 1.83358 0
M  V30 4902 H 454.223 -2.04152 3.3932 0
M  V30 4903 H 455.397 0.562463 4.57354 0
M  V30 4904 H 453.712 0.350889 4.14919 0
M  V30 4905 H 456.309 -2.35284 4.80151 0
M  V30 4906 H 456.652 -2.74074 3.13352 0
M  V30 4907 H 457.185 -1.17798 3.79958 0
M  V30 4908 H 453.924 0.00240855 6.555 0
M  V30 4909 H 453.444 -1.53404 5.79851 0
M  V30 4910 H 455.123 -1.2894 6.34022 0
M  V30 4911 N 455.255 -1.55392 -0.262866 0
M  V30 4912 C 456.485 -1.80251 -1.00961 0
M  V30 4913 C 456.893 -0.58117 -1.80053 0
M  V30 4914 O 456.236 0.459427 -1.77862 0
M  V30 4915 C 456.298 -2.98207 -2.00781 0
M  V30 4916 C 455.962 -4.34856 -1.40533 0
M  V30 4917 C 456.959 -5.13459 -0.815853 0
M  V30 4918 C 454.644 -4.8153 -1.42948 0
M  V30 4919 C 456.638 -6.36875 -0.258562 0
M  V30 4920 C 454.325 -6.04899 -0.868334 0
M  V30 4921 C 455.323 -6.8241 -0.283884 0
M  V30 4922 O 455.011 -8.03451 0.268644 0
M  V30 4923 H 454.743 -0.604049 -0.303482 0
M  V30 4924 H 457.297 -2.03257 -0.295926 0
M  V30 4925 H 455.527 -2.70917 -2.75936 0
M  V30 4926 H 457.216 -3.10299 -2.61667 0
M  V30 4927 H 457.982 -4.78526 -0.789812 0
M  V30 4928 H 453.861 -4.21201 -1.87378 0
M  V30 4929 H 457.405 -6.97318 0.198257 0
M  V30 4930 H 453.302 -6.39312 -0.891649 0
M  V30 4931 H 454.07 -8.18346 0.158974 0
M  V30 4932 N 456.733 0.527833 -1.48498 0
M  V30 4933 C 457.643 1.65907 -1.65867 0
M  V30 4934 C 458.659 1.6537 -0.541192 0
M  V30 4935 O 459.835 1.84282 -0.812534 0
M  V30 4936 C 456.9 3.02364 -1.69637 0
M  V30 4937 C 455.961 3.1374 -2.93028 0
M  V30 4938 C 455.194 4.43688 -2.96609 0
M  V30 4939 O 455.417 5.30913 -2.08538 0
M  V30 4940 O 454.351 4.59475 -3.88802 0
M  V30 4941 H 458.177 1.5419 -2.61647 0
M  V30 4942 H 455.762 0.701163 -1.31924 0
M  V30 4943 H 457.644 3.83515 -1.74625 0
M  V30 4944 H 456.319 3.14401 -0.770312 0
M  V30 4945 H 455.226 2.31877 -2.93571 0
M  V30 4946 H 456.559 3.06621 -3.85026 0
M  V30 4947 N 458.211 1.37122 0.776871 0
M  V30 4948 C 459.121 1.34651 1.9211 0
M  V30 4949 C 460.137 0.246824 1.7224 0
M  V30 4950 O 461.313 0.48134 1.95563 0
M  V30 4951 C 458.378 1.14748 3.2716 0
M  V30 4952 C 457.439 2.34308 3.5972 0
M  V30 4953 C 456.672 2.15345 4.88326 0
M  V30 4954 O 456.895 1.13507 5.58992 0
M  V30 4955 O 455.829 3.03414 5.1983 0
M  V30 4956 H 459.655 2.31013 1.97146 0
M  V30 4957 H 457.24 1.17799 0.918901 0
M  V30 4958 H 459.122 1.05616 4.0795 0
M  V30 4959 H 457.797 0.214562 3.22988 0
M  V30 4960 H 456.704 2.49011 2.79185 0
M  V30 4961 H 458.037 3.26149 3.68629 0
M  V30 4962 N 459.689 -1.00246 1.21608 0
M  V30 4963 C 460.917 -1.77631 1.06089 0
M  V30 4964 C 461.332 -1.84746 -0.38916 0
M  V30 4965 O 460.689 -1.31068 -1.26994 0
M  V30 4966 C 460.74 -3.21415 1.65453 0
M  V30 4967 O 460.461 -3.14703 3.04785 0
M  V30 4968 C 461.962 -4.15289 1.55079 0
M  V30 4969 H 459.182 -0.558162 0.37242 0
M  V30 4970 H 461.726 -1.26093 1.60999 0
M  V30 4971 H 459.881 -3.70053 1.14629 0
M  V30 4972 H 460.295 -4.05056 3.33212 0
M  V30 4973 H 461.769 -5.13965 2.01355 0
M  V30 4974 H 462.246 -4.36279 0.505665 0
M  V30 4975 H 462.852 -3.72543 2.05163 0
M  V30 4976 N 461.167 -1.02423 -1.1978 0
M  V30 4977 C 462.114 -0.601023 -2.22837 0
M  V30 4978 C 463.084 0.382801 -1.61629 0
M  V30 4979 O 464.269 0.280514 -1.88727 0
M  V30 4980 C 461.409 0.0467755 -3.45068 0
M  V30 4981 C 460.522 -0.98253 -4.20678 0
M  V30 4982 C 459.657 -0.304982 -5.30324 0
M  V30 4983 C 458.696 -1.32052 -5.97686 0
M  V30 4984 N 457.833 -0.669105 -6.98904 0
M  V30 4985 H 462.673 -1.48444 -2.58396 0
M  V30 4986 H 460.21 -0.742936 -1.2696 0
M  V30 4987 H 462.168 0.439556 -4.14878 0
M  V30 4988 H 460.798 0.893796 -3.10179 0
M  V30 4989 H 459.85 -1.49341 -3.49859 0
M  V30 4990 H 461.162 -1.75455 -4.66923 0
M  V30 4991 H 460.316 0.142893 -6.06532 0
M  V30 4992 H 459.055 0.499283 -4.85138 0
M  V30 4993 H 458.06 -1.7787 -5.20233 0
M  V30 4994 H 459.285 -2.1262 -6.44957 0
M  V30 4995 H 457.231 0.115152 -6.55899 0
M  V30 4996 H 457.148 -1.37908 -7.43315 0
M  V30 4997 H 458.416 -0.245076 -7.79115 0
M  V30 4998 N 462.645 1.35699 -0.801477 0
M  V30 4999 C 463.875 2.02862 -0.3912 0
M  V30 5000 C 464.283 1.60552 1.00099 0
M  V30 5001 O 463.626 0.796215 1.65548 0
M  V30 5002 C 463.688 3.57386 -0.389299 0
M  V30 5003 C 463.352 4.22943 -1.73113 0
M  V30 5004 C 464.349 4.44984 -2.68859 0
M  V30 5005 C 462.034 4.60167 -2.01373 0
M  V30 5006 C 464.028 5.03345 -3.91053 0
M  V30 5007 C 461.715 5.18243 -3.23832 0
M  V30 5008 C 462.713 5.39773 -4.1849 0
M  V30 5009 O 462.401 5.96626 -5.38788 0
M  V30 5010 H 462.133 0.657341 -0.157732 0
M  V30 5011 H 464.687 1.74407 -1.08496 0
M  V30 5012 H 462.917 3.85011 0.361031 0
M  V30 5013 H 464.606 4.059 -0.0020365 0
M  V30 5014 H 465.372 4.1661 -2.48316 0
M  V30 5015 H 461.251 4.42726 -1.28508 0
M  V30 5016 H 464.795 5.20065 -4.64949 0
M  V30 5017 H 460.692 5.46044 -3.44248 0
M  V30 5018 H 461.46 6.15082 -5.40015 0
M  V30 5019 N 464.123 0.554532 1.47522 0
M  V30 5020 C 465.071 -0.207765 2.3167 0
M  V30 5021 C 466.065 -0.911914 1.4276 0
M  V30 5022 O 467.271 -0.833504 1.59539 0
M  V30 5023 H 463.646 -0.0858726 0.747081 0
M  V30 5024 H 465.617 0.521178 2.93813 0
M  V30 5025 C 464.366 -1.2263 3.25357 0
M  V30 5026 H 463.689 -0.693887 3.93732 0
M  V30 5027 H 465.129 -1.73062 3.87073 0
M  V30 5028 C 463.588 -2.27278 2.4869 0
M  V30 5029 O 464.118 -3.34156 2.22941 0
M  V30 5030 N 462.324 -2.01134 2.09746 0
M  V30 5031 H 461.871 -1.14232 2.30887 0
M  V30 5032 H 461.829 -2.71369 1.58765 0
M  V30 5033 N 465.601 -1.54893 0.290851 0
M  V30 5034 C 466.548 -2.23138 -0.58974 0
M  V30 5035 C 467.518 -1.21036 -1.13752 0
M  V30 5036 O 468.703 -1.49626 -1.18392 0
M  V30 5037 C 465.843 -2.96811 -1.76061 0
M  V30 5038 C 464.956 -4.13665 -1.24519 0
M  V30 5039 C 464.091 -4.74944 -2.3791 0
M  V30 5040 C 463.13 -5.83963 -1.83451 0
M  V30 5041 N 462.267 -6.39239 -2.90376 0
M  V30 5042 H 467.107 -2.98 -0.00114915 0
M  V30 5043 H 464.644 -1.47096 0.0112006 0
M  V30 5044 H 466.602 -3.37751 -2.44909 0
M  V30 5045 H 465.232 -2.24344 -2.32098 0
M  V30 5046 H 464.284 -3.77737 -0.449288 0
M  V30 5047 H 465.596 -4.92238 -0.806424 0
M  V30 5048 H 464.75 -5.18684 -3.14724 0
M  V30 5049 H 463.489 -3.95682 -2.85109 0
M  V30 5050 H 462.494 -5.39657 -1.05122 0
M  V30 5051 H 463.719 -6.65103 -1.37169 0
M  V30 5052 H 461.665 -5.62864 -3.36927 0
M  V30 5053 H 461.582 -7.13129 -2.50965 0
M  V30 5054 H 462.85 -6.87637 -3.67118 0
M  V30 5055 N 467.08 -0.0183926 -1.57589 0
M  V30 5056 C 468.329 0.66185 -1.90532 0
M  V30 5057 C 468.642 1.73904 -0.895366 0
M  V30 5058 O 469.848 2.47518 -1.11566 0
M  V30 5059 C 468.304 1.22844 -3.38286 0
M  V30 5060 C 467.912 0.185103 -4.47617 0
M  V30 5061 C 469.656 1.88581 -3.80312 0
M  V30 5062 C 467.563 0.762723 -5.86461 0
M  V30 5063 H 466.493 0.250972 -0.711006 0
M  V30 5064 H 469.144 -0.0819435 -1.83317 0
M  V30 5065 H 467.526 2.0235 -3.40398 0
M  V30 5066 H 468.7 -0.58671 -4.5705 0
M  V30 5067 H 467.015 -0.372889 -4.14727 0
M  V30 5068 H 469.612 2.32735 -4.81392 0
M  V30 5069 H 469.955 2.72408 -3.14801 0
M  V30 5070 H 470.488 1.15782 -3.80578 0
M  V30 5071 H 467.227 -0.0371713 -6.55489 0
M  V30 5072 H 466.747 1.50327 -5.80656 0
M  V30 5073 H 468.426 1.25576 -6.34697 0
M  V30 5074 N 468.558 1.5553 0.254621 0
M  V30 5075 C 469.786 1.81046 1.00149 0
M  V30 5076 C 470.201 0.593047 1.79244 0
M  V30 5077 O 469.558 -0.438196 1.77161 0
M  V30 5078 C 469.609 3.04684 1.94551 0
M  V30 5079 O 469.33 4.21725 1.18658 0
M  V30 5080 C 470.831 3.42943 2.80901 0
M  V30 5081 H 468.051 0.602653 0.295044 0
M  V30 5082 H 470.595 2.02576 0.279842 0
M  V30 5083 H 468.75 2.85226 2.62154 0
M  V30 5084 H 469.164 4.91746 1.82445 0
M  V30 5085 H 470.638 4.32576 3.42902 0
M  V30 5086 H 471.115 2.63176 3.51617 0
M  V30 5087 H 471.721 3.64724 2.18762 0
M  V30 5088 N 470.036 -0.519951 1.48776 0
M  V30 5089 C 471.261 -1.30447 1.6124 0
M  V30 5090 C 471.686 -1.86055 0.276591 0
M  V30 5091 O 471.044 -1.64915 -0.753183 0
M  V30 5092 C 471.092 -2.42406 2.66967 0
M  V30 5093 O 470.196 -3.45728 2.24824 0
M  V30 5094 H 469.537 -0.385924 0.540332 0
M  V30 5095 H 472.067 -0.624572 1.94834 0
M  V30 5096 H 472.077 -2.88447 2.88552 0
M  V30 5097 H 470.752 -2.01294 3.63941 0
M  V30 5098 H 469.329 -3.05737 2.13494 0
M  V30 5099 N 471.514 -1.37532 -0.769588 0
M  V30 5100 C 472.424 -1.35668 -1.91393 0
M  V30 5101 C 473.44 -0.255954 -1.72107 0
M  V30 5102 O 474.616 -0.491704 -1.95305 0
M  V30 5103 C 471.681 -1.16481 -3.26547 0
M  V30 5104 C 470.742 -2.36212 -3.58472 0
M  V30 5105 C 469.975 -2.17932 -4.87177 0
M  V30 5106 O 470.198 -1.1647 -5.58382 0
M  V30 5107 O 469.132 -3.06167 -5.18214 0
M  V30 5108 H 472.958 -2.32055 -1.95918 0
M  V30 5109 H 470.543 -1.18284 -0.912641 0
M  V30 5110 H 472.425 -1.07778 -4.07384 0
M  V30 5111 H 471.1 -0.231687 -3.2287 0
M  V30 5112 H 470.007 -2.50488 -2.77861 0
M  V30 5113 H 471.34 -3.281 -3.66894 0
M  V30 5114 N 472.992 0.995999 -1.22138 0
M  V30 5115 C 474.239 1.7351 -1.04406 0
M  V30 5116 C 474.567 1.89884 0.421244 0
M  V30 5117 O 473.822 1.43683 1.32867 0
M  V30 5118 C 474.121 3.14553 -1.6968 0
M  V30 5119 C 473.787 3.18102 -3.19565 0
M  V30 5120 C 472.449 3.18778 -3.60464 0
M  V30 5121 C 474.801 3.14636 -4.15516 0
M  V30 5122 C 472.129 3.13684 -4.95801 0
M  V30 5123 C 474.481 3.11084 -5.50826 0
M  V30 5124 C 473.145 3.10074 -5.91109 0
M  V30 5125 H 472.415 0.634916 -0.38205 0
M  V30 5126 H 475.062 1.1667 -1.51857 0
M  V30 5127 H 473.367 3.74682 -1.14546 0
M  V30 5128 H 475.064 3.70477 -1.53454 0
M  V30 5129 H 471.654 3.18324 -2.86998 0
M  V30 5130 H 475.838 3.13266 -3.84939 0
M  V30 5131 H 471.094 3.11245 -5.26247 0
M  V30 5132 H 475.268 3.07357 -6.24904 0
M  V30 5133 H 472.895 3.05882 -6.95946 0
M  V30 5134 N 474.47 1.03057 1.19235 0
M  V30 5135 C 475.886 0.747947 1.40989 0
M  V30 5136 C 476.086 -0.666752 1.90149 0
M  V30 5137 O 475.142 -1.43249 2.07933 0
M  V30 5138 C 476.455 1.7855 2.41951 0
M  V30 5139 C 478.003 1.80524 2.55695 0
M  V30 5140 C 478.478 2.83243 3.59913 0
M  V30 5141 N 479.969 2.8207 3.67411 0
M  V30 5142 C 480.704 3.58204 4.47747 0
M  V30 5143 N 480.2 4.44057 5.31775 0
M  V30 5144 N 481.993 3.46738 4.42413 0
M  V30 5145 H 474.144 1.94367 0.856468 0
M  V30 5146 H 476.407 0.840412 0.438647 0
M  V30 5147 H 476.113 2.79973 2.12857 0
M  V30 5148 H 475.987 1.6092 3.41152 0
M  V30 5149 H 478.374 0.79778 2.84112 0
M  V30 5150 H 478.455 2.02229 1.56643 0
M  V30 5151 H 478.099 3.84161 3.32239 0
M  V30 5152 H 478.029 2.58795 4.5862 0
M  V30 5153 H 480.52 2.19803 3.074 0
M  V30 5154 H 480.833 4.98884 5.90199 0
M  V30 5155 H 479.178 4.48129 5.3123 0
M  V30 5156 H 482.369 2.79077 3.75811 0
M  V30 5157 H 482.542 4.06322 5.04783 0
M  V30 5158 N 475.948 -1.35272 0.808662 0
M  V30 5159 C 476.858 -2.33546 0.222079 0
M  V30 5160 C 477.874 -1.6196 -0.636011 0
M  V30 5161 O 479.05 -1.93822 -0.547274 0
M  V30 5162 C 476.115 -3.41148 -0.61795 0
M  V30 5163 C 475.176 -4.28507 0.260875 0
M  V30 5164 C 474.409 -5.3097 -0.539156 0
M  V30 5165 O 474.632 -5.42123 -1.77367 0
M  V30 5166 O 473.566 -6.01858 0.0710526 0
M  V30 5167 H 477.392 -2.85515 1.03512 0
M  V30 5168 H 474.977 -1.38079 0.570495 0
M  V30 5169 H 476.859 -4.06889 -1.09634 0
M  V30 5170 H 475.534 -2.91447 -1.40855 0
M  V30 5171 H 474.441 -3.6574 0.786451 0
M  V30 5172 H 475.774 -4.81611 1.01547 0
M  V30 5173 N 477.426 -0.562348 -1.47226 0
M  V30 5174 C 478.654 -0.0452275 -2.06851 0
M  V30 5175 C 479.069 1.25078 -1.41424 0
M  V30 5176 O 478.426 1.75156 -0.512513 0
M  V30 5177 C 478.477 0.148674 -3.61194 0
M  V30 5178 O 478.198 -1.09602 -4.24169 0
M  V30 5179 C 479.699 0.702488 -4.37699 0
M  V30 5180 H 476.919 -0.0481775 -0.669268 0
M  V30 5181 H 479.463 -0.777223 -1.89155 0
M  V30 5182 H 477.618 0.830817 -3.78386 0
M  V30 5183 H 478.032 -0.896982 -5.16773 0
M  V30 5184 H 479.506 0.78743 -5.46355 0
M  V30 5185 H 479.983 1.71493 -4.04335 0
M  V30 5186 H 480.589 0.0558772 -4.25263 0
M  V30 5187 N 478.904 1.54736 -0.299062 0
M  V30 5188 C 479.814 2.27127 0.587413 0
M  V30 5189 C 480.83 1.30575 1.15005 0
M  V30 5190 O 482.006 1.63554 1.17525 0
M  V30 5191 C 479.071 2.99645 1.74395 0
M  V30 5192 C 478.132 4.11731 1.21559 0
M  V30 5193 C 477.365 4.80781 2.317 0
M  V30 5194 O 477.588 4.4918 3.51558 0
M  V30 5195 O 476.522 5.68226 1.98501 0
M  V30 5196 H 480.348 3.037 0.000250109 0
M  V30 5197 H 477.933 1.49256 -0.0655919 0
M  V30 5198 H 479.815 3.45138 2.4178 0
M  V30 5199 H 478.49 2.25969 2.31775 0
M  V30 5200 H 477.397 3.70641 0.507514 0
M  V30 5201 H 478.73 4.87379 0.687233 0
M  V30 5202 N 480.382 0.0267497 1.57577 0
M  V30 5203 C 481.33 -0.973923 2.11229 0
M  V30 5204 C 482.324 -1.33849 1.03831 0
M  V30 5205 O 483.53 -1.321 1.22269 0
M  V30 5206 H 479.905 -0.331844 0.674821 0
M  V30 5207 H 481.876 -0.496092 2.94247 0
M  V30 5208 C 480.625 -2.24798 2.65257 0
M  V30 5209 H 479.948 -1.9762 3.47543 0
M  V30 5210 H 481.388 -2.93031 3.06445 0
M  V30 5211 C 479.847 -2.97611 1.57891 0
M  V30 5212 O 480.377 -3.89629 0.97735 0
M  V30 5213 N 478.583 -2.59905 1.29992 0
M  V30 5214 H 478.13 -1.85154 1.79097 0
M  V30 5215 H 478.088 -3.08932 0.583798 0
M  V30 5216 N 481.861 -1.55662 -0.24637 0
M  V30 5217 C 483.107 -1.77782 -0.975779 0
M  V30 5218 C 483.44 -0.592103 -1.84953 0
M  V30 5219 O 482.715 0.409588 -1.90138 0
M  V30 5220 C 482.998 -3.09788 -1.83584 0
M  V30 5221 C 482.851 -4.38764 -0.990241 0
M  V30 5222 C 484.17 -3.38029 -2.81823 0
M  V30 5223 H 481.289 -0.646789 -0.353317 0
M  V30 5224 H 483.931 -1.88398 -0.246248 0
M  V30 5225 H 482.081 -3.00869 -2.45784 0
M  V30 5226 H 483.753 -4.59675 -0.386897 0
M  V30 5227 H 481.996 -4.32798 -0.294626 0
M  V30 5228 H 482.667 -5.27514 -1.62584 0
M  V30 5229 H 485.143 -3.46915 -2.2976 0
M  V30 5230 H 484.019 -4.3161 -3.39122 0
M  V30 5231 H 484.28 -2.58968 -3.58313 0
M  V30 5232 N 483.339 0.512053 -1.4905 0
M  V30 5233 C 484.286 1.6148 -1.64902 0
M  V30 5234 C 485.256 1.58687 -0.490673 0
M  V30 5235 O 486.441 1.76842 -0.71636 0
M  V30 5236 C 483.581 2.99676 -1.71139 0
M  V30 5237 C 482.694 3.12568 -2.98203 0
M  V30 5238 C 481.829 4.4143 -2.95487 0
M  V30 5239 C 480.868 4.47916 -4.17179 0
M  V30 5240 N 480.005 5.68191 -4.12437 0
M  V30 5241 H 484.845 1.47271 -2.59066 0
M  V30 5242 H 482.382 0.716713 -1.28459 0
M  V30 5243 H 484.34 3.79761 -1.72736 0
M  V30 5244 H 482.97 3.12614 -0.804508 0
M  V30 5245 H 482.022 2.25618 -3.06269 0
M  V30 5246 H 483.334 3.1322 -3.88194 0
M  V30 5247 H 482.488 5.29825 -2.95585 0
M  V30 5248 H 481.227 4.43326 -2.03256 0
M  V30 5249 H 480.232 3.57925 -4.17337 0
M  V30 5250 H 481.457 4.47744 -5.1059 0
M  V30 5251 H 479.403 5.7095 -3.23036 0
M  V30 5252 H 479.32 5.70413 -4.96151 0
M  V30 5253 H 480.588 6.58823 -4.16621 0
M  V30 5254 N 484.817 1.37938 0.762283 0
M  V30 5255 C 486.066 1.32989 1.51647 0
M  V30 5256 C 486.379 -0.0802922 1.95435 0
M  V30 5257 O 487.585 -0.252295 2.70325 0
M  V30 5258 C 486.041 2.33485 2.73885 0
M  V30 5259 C 485.649 3.80079 2.37157 0
M  V30 5260 C 487.393 2.37563 3.51801 0
M  V30 5261 C 485.3 4.72283 3.55954 0
M  V30 5262 H 484.23 0.494301 0.56937 0
M  V30 5263 H 486.881 1.63448 0.834083 0
M  V30 5264 H 485.263 1.96056 3.44061 0
M  V30 5265 H 486.437 4.26398 1.74704 0
M  V30 5266 H 484.752 3.79037 1.72395 0
M  V30 5267 H 487.349 3.0365 4.40114 0
M  V30 5268 H 487.692 1.39199 3.92338 0
M  V30 5269 H 488.225 2.73747 2.8863 0
M  V30 5270 H 484.964 5.7181 3.2049 0
M  V30 5271 H 484.484 4.30663 4.1748 0
M  V30 5272 H 486.163 4.89876 4.22647 0
M  V30 5273 N 486.295 -0.989507 1.22664 0
M  V30 5274 C 487.523 -1.76496 1.07967 0
M  V30 5275 C 487.938 -1.85148 -0.369543 0
M  V30 5276 O 487.295 -1.32408 -1.25596 0
M  V30 5277 C 487.346 -3.19642 1.68853 0
M  V30 5278 O 487.067 -3.11453 3.08105 0
M  V30 5279 C 488.568 -4.13621 1.59475 0
M  V30 5280 H 485.788 -0.55418 0.378319 0
M  V30 5281 H 488.332 -1.24378 1.62328 0
M  V30 5282 H 486.487 -3.68816 1.18547 0
M  V30 5283 H 486.901 -4.01499 3.37489 0
M  V30 5284 H 488.375 -5.11801 2.06795 0
M  V30 5285 H 488.852 -4.35718 0.55191 0
M  V30 5286 H 489.458 -3.70346 2.09103 0
M  V30 5287 N 487.773 -1.03688 -1.18687 0
M  V30 5288 C 488.683 -0.634908 -2.25845 0
M  V30 5289 C 489.699 0.337065 -1.70704 0
M  V30 5290 O 490.875 0.192943 -2.00474 0
M  V30 5291 C 487.94 -0.000180054 -3.467 0
M  V30 5292 C 487.001 -1.02067 -4.1699 0
M  V30 5293 C 486.234 -0.41614 -5.32075 0
M  V30 5294 O 486.457 0.778712 -5.65059 0
M  V30 5295 O 485.391 -1.14296 -5.90948 0
M  V30 5296 H 489.217 -1.52757 -2.62486 0
M  V30 5297 H 486.802 -0.807533 -1.25695 0
M  V30 5298 H 488.684 0.353342 -4.19916 0
M  V30 5299 H 487.359 0.866367 -3.11891 0
M  V30 5300 H 486.266 -1.42592 -3.45859 0
M  V30 5301 H 487.599 -1.85786 -4.5579 0
M  V30 5302 N 489.251 1.34841 -0.815825 0
M  V30 5303 C 490.161 2.33425 -0.234462 0
M  V30 5304 C 491.177 1.62295 0.627413 0
M  V30 5305 O 492.353 1.94109 0.536987 0
M  V30 5306 C 489.418 3.41471 0.599849 0
M  V30 5307 C 488.479 4.28362 -0.283596 0
M  V30 5308 C 487.712 5.31248 0.51099 0
M  V30 5309 O 487.935 5.43056 1.7449 0
M  V30 5310 O 486.869 6.01812 -0.10297 0
M  V30 5311 H 490.695 2.84962 -1.05024 0
M  V30 5312 H 488.28 1.37774 -0.577809 0
M  V30 5313 H 490.162 4.07464 1.07475 0
M  V30 5314 H 488.837 2.9219 1.39308 0
M  V30 5315 H 487.744 3.65318 -0.805836 0
M  V30 5316 H 489.077 4.81066 -1.041 0
M  V30 5317 N 490.729 0.570148 1.46925 0
M  V30 5318 C 491.954 0.0542592 2.07329 0
M  V30 5319 C 492.379 -1.23582 1.41806 0
M  V30 5320 O 491.737 -1.74341 0.497479 0
M  V30 5321 C 491.785 -0.111175 3.60429 0
M  V30 5322 O 490.889 -1.17071 3.95434 0
M  V30 5323 H 490.23 0.0571425 0.661537 0
M  V30 5324 H 492.76 0.789516 1.88753 0
M  V30 5325 H 492.77 -0.321315 4.06733 0
M  V30 5326 H 491.445 0.831012 4.07513 0
M  V30 5327 H 490.022 -0.940029 3.60857 0
M  V30 5328 N 492.207 -1.54576 0.307264 0
M  V30 5329 C 493.154 -2.23751 -0.56604 0
M  V30 5330 C 494.124 -1.22235 -1.12462 0
M  V30 5331 O 495.309 -1.50873 -1.16799 0
M  V30 5332 C 492.449 -2.98661 -1.72903 0
M  V30 5333 C 491.562 -4.14963 -1.20124 0
M  V30 5334 C 490.697 -4.77441 -2.3286 0
M  V30 5335 C 489.736 -5.85875 -1.77247 0
M  V30 5336 N 488.873 -6.42282 -2.8358 0
M  V30 5337 H 493.713 -2.97984 0.0304578 0
M  V30 5338 H 491.25 -1.47076 0.0268015 0
M  V30 5339 H 493.208 -3.40329 -2.41313 0
M  V30 5340 H 491.838 -2.26793 -2.29706 0
M  V30 5341 H 490.89 -3.78193 -0.409198 0
M  V30 5342 H 492.202 -4.93066 -0.754171 0
M  V30 5343 H 491.356 -5.21993 -3.09205 0
M  V30 5344 H 490.095 -3.98684 -2.80896 0
M  V30 5345 H 489.1 -5.40741 -0.993926 0
M  V30 5346 H 490.325 -6.6652 -1.30107 0
M  V30 5347 H 488.271 -5.66406 -3.30939 0
M  V30 5348 H 488.188 -7.1575 -2.43388 0
M  V30 5349 H 489.456 -6.91492 -3.59804 0
M  V30 5350 N 493.685 -0.035106 -1.57561 0
M  V30 5351 C 494.962 0.681212 -1.83354 0
M  V30 5352 C 495.342 1.89986 -0.920252 0
M  V30 5353 O 494.69 2.28489 0.0226815 0
M  V30 5354 C 494.9 1.05376 -3.32712 0
M  V30 5355 C 496.248 1.44286 -3.99333 0
M  V30 5356 O 497.272 1.14656 -3.37242 0
M  V30 5357 O 496.131 1.99518 -5.08778 0
M  V30 5358 H 493.225 0.334741 -0.756226 0
M  V30 5359 H 495.771 -0.0632448 -1.69582 0
M  V30 5360 H 494.543 0.186668 -3.90854 0
M  V30 5361 H 494.166 1.85619 -3.51613 0
M  V30 5362 N 495.163 1.55791 0.238111 0
M  V30 5363 C 496.579 1.48411 0.587045 0
M  V30 5364 C 496.779 0.72702 1.87927 0
M  V30 5365 O 495.835 0.259942 2.51158 0
M  V30 5366 C 497.148 2.92873 0.681623 0
M  V30 5367 C 498.696 3.03295 0.773363 0
M  V30 5368 C 499.171 4.49082 0.899428 0
M  V30 5369 N 500.662 4.53056 0.964075 0
M  V30 5370 C 501.397 5.63117 1.08104 0
M  V30 5371 N 500.893 6.82969 1.16299 0
M  V30 5372 N 502.686 5.50933 1.11488 0
M  V30 5373 H 494.837 2.0345 -0.610076 0
M  V30 5374 H 497.1 0.924034 -0.211813 0
M  V30 5375 H 496.806 3.51142 -0.19802 0
M  V30 5376 H 496.68 3.43851 1.55069 0
M  V30 5377 H 499.067 2.45101 1.64346 0
M  V30 5378 H 499.148 2.55513 -0.121034 0
M  V30 5379 H 498.792 5.07889 0.0338586 0
M  V30 5380 H 498.722 4.94553 1.809 0
M  V30 5381 H 501.213 3.66737 0.91173 0
M  V30 5382 H 501.526 7.62598 1.25155 0
M  V30 5383 H 499.871 6.85712 1.13241 0
M  V30 5384 H 503.062 4.56231 1.0474 0
M  V30 5385 H 503.235 6.36743 1.20259 0
M  V30 5386 N 496.642 -0.504142 1.49319 0
M  V30 5387 C 497.552 -1.63248 1.68486 0
M  V30 5388 C 498.568 -1.64488 0.567432 0
M  V30 5389 O 499.744 -1.82966 0.841749 0
M  V30 5390 C 496.809 -2.99627 1.74426 0
M  V30 5391 C 495.87 -3.09039 2.97982 0
M  V30 5392 C 495.103 -4.38913 3.0363 0
M  V30 5393 O 495.326 -5.27528 2.16958 0
M  V30 5394 O 494.26 -4.53231 3.96062 0
M  V30 5395 H 498.086 -1.50008 2.64067 0
M  V30 5396 H 495.671 -0.680086 1.33023 0
M  V30 5397 H 497.553 -3.80689 1.80705 0
M  V30 5398 H 496.228 -3.13136 0.820233 0
M  V30 5399 H 495.135 -2.27177 2.97223 0
M  V30 5400 H 496.468 -3.00456 3.89855 0
M  V30 5401 N 498.12 -1.38341 -0.754957 0
M  V30 5402 C 499.368 -1.34208 -1.51105 0
M  V30 5403 C 499.689 0.0677634 -1.94882 0
M  V30 5404 O 498.959 1.01517 -1.67544 0
M  V30 5405 H 497.539 -0.493819 -0.560493 0
M  V30 5406 H 500.201 -1.73005 -0.897507 0
M  V30 5407 H 499.297 -1.99203 -2.4026 0
M  V30 5408 N 499.598 0.982988 -1.23187 0
M  V30 5409 C 500.546 2.09616 -1.00817 0
M  V30 5410 C 501.54 1.6932 0.0519995 0
M  V30 5411 O 502.746 1.79715 -0.101284 0
M  V30 5412 H 499.121 0.685628 -0.308899 0
M  V30 5413 H 501.092 2.25652 -1.95253 0
M  V30 5414 C 499.841 3.42249 -0.613243 0
M  V30 5415 H 499.164 3.73705 -1.42073 0
M  V30 5416 H 500.604 4.21086 -0.496208 0
M  V30 5417 C 499.063 3.30002 0.678233 0
M  V30 5418 O 499.593 3.6263 1.72807 0
M  V30 5419 N 497.799 2.83164 0.653165 0
M  V30 5420 H 497.346 2.56811 -0.201492 0
M  V30 5421 H 497.304 2.75352 1.51752 0
M  V30 5422 N 501.076 1.04316 1.18135 0
M  V30 5423 C 502.023 0.636398 2.21853 0
M  V30 5424 C 502.993 -0.357039 1.62217 0
M  V30 5425 O 504.178 -0.250453 1.89149 0
M  V30 5426 C 501.318 0.00812779 3.45099 0
M  V30 5427 C 500.431 1.04933 4.19062 0
M  V30 5428 C 499.566 0.389313 5.29771 0
M  V30 5429 C 498.605 1.41544 5.9551 0
M  V30 5430 N 497.742 0.78021 6.97751 0
M  V30 5431 H 502.582 1.52536 2.56002 0
M  V30 5432 H 500.119 0.76304 1.25762 0
M  V30 5433 H 502.077 -0.373497 4.15525 0
M  V30 5434 H 500.707 -0.844336 3.11562 0
M  V30 5435 H 499.759 1.54888 3.47439 0
M  V30 5436 H 501.071 1.82862 4.64072 0
M  V30 5437 H 500.225 -0.0463805 6.06682 0
M  V30 5438 H 498.964 -0.422038 4.8587 0
M  V30 5439 H 497.969 1.86124 5.17337 0
M  V30 5440 H 499.194 2.22854 6.41493 0
M  V30 5441 H 497.14 -0.0107899 6.55999 0
M  V30 5442 H 497.057 1.49716 7.41027 0
M  V30 5443 H 498.325 0.368996 7.78626 0
M  V30 5444 N 502.554 -1.34406 0.822964 0
M  V30 5445 C 503.8 -1.98578 0.411666 0
M  V30 5446 C 504.133 -1.65093 -1.02264 0
M  V30 5447 O 503.408 -0.92258 -1.71227 0
M  V30 5448 C 503.691 -3.54823 0.614235 0
M  V30 5449 C 503.544 -3.9805 2.09466 0
M  V30 5450 C 504.863 -4.40071 0.050221 0
M  V30 5451 H 501.982 -0.721355 0.151047 0
M  V30 5452 H 504.624 -1.59301 1.03554 0
M  V30 5453 H 502.774 -3.88411 0.0831774 0
M  V30 5454 H 504.446 -3.74795 2.68936 0
M  V30 5455 H 502.689 -3.4836 2.5851 0
M  V30 5456 H 503.36 -5.06819 2.18721 0
M  V30 5457 H 505.836 -4.13037 0.503953 0
M  V30 5458 H 504.712 -5.48452 0.221759 0
M  V30 5459 H 504.973 -4.29576 -1.04482 0
M  V30 5460 N 504.032 -0.577932 -1.46621 0
M  V30 5461 C 505.257 -0.0652536 -2.07297 0
M  V30 5462 C 505.682 1.22828 -1.4246 0
M  V30 5463 O 505.04 1.74075 -0.506718 0
M  V30 5464 C 505.088 0.0920589 -3.60482 0
M  V30 5465 O 504.192 1.14972 -3.96049 0
M  V30 5466 H 503.533 -0.06065 -0.661224 0
M  V30 5467 H 506.063 -0.799515 -1.88332 0
M  V30 5468 H 506.073 0.299741 -4.06897 0
M  V30 5469 H 504.748 -0.852612 -4.07067 0
M  V30 5470 H 503.325 0.920879 -3.61351 0
M  V30 5471 N 505.51 1.54411 -0.315457 0
M  V30 5472 C 506.758 2.00023 0.288971 0
M  V30 5473 C 507.079 1.20529 1.5329 0
M  V30 5474 O 506.349 0.304986 1.93511 0
M  V30 5475 H 504.929 0.738891 0.109766 0
M  V30 5476 H 507.591 1.90094 -0.430129 0
M  V30 5477 H 506.687 3.07198 0.550999 0
M  V30 5478 N 506.988 0.0434614 1.5754 0
M  V30 5479 C 508.399 -0.493343 1.80064 0
M  V30 5480 C 508.75 -1.71388 0.955023 0
M  V30 5481 O 507.875 -2.15736 0.169434 0
M  V30 5482 C 508.47 -0.90179 3.26578 0
M  V30 5483 C 507.029 -1.38362 3.50047 0
M  V30 5484 C 506.176 -0.355129 2.75017 0
M  V30 5485 H 509.127 0.2694 1.56397 0
M  V30 5486 H 509.148 -1.76523 3.37075 0
M  V30 5487 H 508.66 -0.013271 3.88098 0
M  V30 5488 H 506.761 -2.29159 2.93798 0
M  V30 5489 H 506.874 -1.3811 4.58762 0
M  V30 5490 H 505.238 -0.826348 2.40922 0
M  V30 5491 H 506.021 0.525172 3.39259 0
M  V30 5492 N 508.466 -1.55915 -0.229846 0
M  V30 5493 C 509.696 -1.82352 -0.971152 0
M  V30 5494 C 510.104 -0.619231 -1.7878 0
M  V30 5495 O 509.447 0.421597 -1.78797 0
M  V30 5496 C 509.509 -3.02399 -1.9441 0
M  V30 5497 C 509.173 -4.37739 -1.31277 0
M  V30 5498 C 510.17 -5.15074 -0.706757 0
M  V30 5499 C 507.855 -4.84454 -1.32702 0
M  V30 5500 C 509.849 -6.37281 -0.123413 0
M  V30 5501 C 507.536 -6.06605 -0.739831 0
M  V30 5502 C 508.534 -6.82858 -0.139071 0
M  V30 5503 O 508.222 -8.027 0.439007 0
M  V30 5504 H 507.954 -0.61035 -0.290601 0
M  V30 5505 H 510.508 -2.03839 -0.252746 0
M  V30 5506 H 508.738 -2.76709 -2.70128 0
M  V30 5507 H 510.427 -3.15779 -2.55026 0
M  V30 5508 H 511.193 -4.80093 -0.688131 0
M  V30 5509 H 507.072 -4.25081 -1.78402 0
M  V30 5510 H 510.616 -6.96741 0.346124 0
M  V30 5511 H 506.513 -6.4106 -0.755841 0
M  V30 5512 H 507.281 -8.17824 0.332521 0
M  V30 5513 N 509.944 0.496216 -1.49584 0
M  V30 5514 C 510.854 1.62352 -1.69349 0
M  V30 5515 C 511.87 1.64184 -0.576147 0
M  V30 5516 O 513.046 1.82517 -0.85144 0
M  V30 5517 C 510.111 2.98698 -1.76013 0
M  V30 5518 C 509.172 3.07454 -2.99617 0
M  V30 5519 C 508.405 4.37296 -3.05953 0
M  V30 5520 O 508.628 5.2637 -2.19752 0
M  V30 5521 O 507.562 4.51124 -3.9846 0
M  V30 5522 H 511.388 1.48606 -2.64859 0
M  V30 5523 H 508.973 0.673022 -1.33382 0
M  V30 5524 H 510.855 3.79725 -1.82721 0
M  V30 5525 H 509.53 3.12696 -0.836828 0
M  V30 5526 H 508.437 2.25597 -2.98424 0
M  V30 5527 H 509.77 2.98385 -3.91443 0
M  V30 5528 N 511.423 1.38739 0.74761 0
M  V30 5529 C 512.371 1.36573 1.88283 0
M  V30 5530 C 513.365 0.250712 1.67534 0
M  V30 5531 O 514.571 0.420073 1.7503 0
M  V30 5532 H 510.946 0.42619 0.619569 0
M  V30 5533 H 512.917 2.32356 1.87226 0
M  V30 5534 C 511.666 1.21361 3.25832 0
M  V30 5535 H 510.989 2.06424 3.42388 0
M  V30 5536 H 512.429 1.23901 4.05493 0
M  V30 5537 C 510.888 -0.0790099 3.36807 0
M  V30 5538 O 511.418 -1.05385 3.8763 0
M  V30 5539 N 509.624 -0.13785 2.90273 0
M  V30 5540 H 509.171 0.656128 2.49104 0
M  V30 5541 H 509.129 -1.00228 2.97996 0
M  V30 5542 N 512.901 -0.976442 1.23707 0
M  V30 5543 C 514.126 -1.75875 1.09922 0
M  V30 5544 C 514.551 -1.84911 -0.34489 0
M  V30 5545 O 513.909 -1.31363 -1.24954 0
M  V30 5546 C 513.957 -3.16179 1.73388 0
M  V30 5547 O 513.061 -4.00124 0.99871 0
M  V30 5548 H 512.402 -0.540954 0.385052 0
M  V30 5549 H 514.932 -1.22546 1.6384 0
M  V30 5550 H 514.942 -3.66741 1.78788 0
M  V30 5551 H 513.617 -3.08917 2.78466 0
M  V30 5552 H 512.194 -3.58624 1.02193 0
M  V30 5553 N 514.379 -1.04941 -1.1758 0
M  V30 5554 C 515.289 -0.658826 -2.25159 0
M  V30 5555 C 516.305 0.318941 -1.71052 0
M  V30 5556 O 517.481 0.171669 -2.00667 0
M  V30 5557 C 514.546 -0.0369522 -3.4668 0
M  V30 5558 C 513.607 -1.06484 -4.15884 0
M  V30 5559 C 512.84 -0.472551 -5.31604 0
M  V30 5560 O 513.063 0.718736 -5.65854 0
M  V30 5561 O 511.997 -1.20557 -5.89703 0
M  V30 5562 H 515.823 -1.55533 -2.60851 0
M  V30 5563 H 513.408 -0.820819 -1.24832 0
M  V30 5564 H 515.29 0.308784 -4.20267 0
M  V30 5565 H 513.965 0.833238 -3.12792 0
M  V30 5566 H 512.872 -1.46253 -3.44327 0
M  V30 5567 H 514.205 -1.9061 -4.53794 0
M  V30 5568 N 515.857 1.33968 -0.830081 0
M  V30 5569 C 516.805 2.31301 -0.245435 0
M  V30 5570 C 517.799 1.57734 0.617762 0
M  V30 5571 O 519.005 1.72674 0.508303 0
M  V30 5572 H 515.38 0.749552 -0.0606316 0
M  V30 5573 H 517.351 2.78129 -1.08105 0
M  V30 5574 C 516.1 3.42961 0.572084 0
M  V30 5575 H 515.423 3.99714 -0.0828118 0
M  V30 5576 H 516.863 4.13286 0.94715 0
M  V30 5577 C 515.322 2.88043 1.74737 0
M  V30 5578 O 515.852 2.83508 2.8458 0
M  V30 5579 N 514.058 2.44768 1.56642 0
M  V30 5580 H 513.605 2.48656 0.672901 0
M  V30 5581 H 513.563 2.08375 2.3543 0
M  V30 5582 N 517.335 0.585699 1.46312 0
M  V30 5583 C 518.56 0.0762461 2.0726 0
M  V30 5584 C 518.985 -1.22071 1.43109 0
M  V30 5585 O 518.343 -1.73804 0.515942 0
M  V30 5586 C 518.391 -0.0729404 3.60526 0
M  V30 5587 O 517.495 -1.1287 3.96654 0
M  V30 5588 H 516.836 0.0641558 0.660893 0
M  V30 5589 H 519.366 0.809492 1.87905 0
M  V30 5590 H 519.376 -0.278158 4.07051 0
M  V30 5591 H 518.051 0.874188 4.06609 0
M  V30 5592 H 516.628 -0.901703 3.61834 0
M  V30 5593 N 518.813 -1.54241 0.323641 0
M  V30 5594 C 519.761 -2.25813 -0.557804 0
M  V30 5595 C 520.755 -1.27225 -1.11849 0
M  V30 5596 O 521.961 -1.45001 -1.06652 0
M  V30 5597 H 518.336 -0.72532 -0.198532 0
M  V30 5598 H 520.307 -2.98322 0.0681112 0
M  V30 5599 C 519.056 -3.02913 -1.70701 0
M  V30 5600 H 518.379 -3.78593 -1.28482 0
M  V30 5601 H 519.819 -3.56238 -2.29935 0
M  V30 5602 C 518.278 -2.11217 -2.62467 0
M  V30 5603 O 518.808 -1.69508 -3.64184 0
M  V30 5604 N 517.014 -1.76704 -2.30703 0
M  V30 5605 H 516.561 -2.1082 -1.48029 0
M  V30 5606 H 516.519 -1.15631 -2.92364 0
M  V30 5607 N 520.291 -0.0518155 -1.57515 0
M  V30 5608 C 521.537 0.622745 -1.93002 0
M  V30 5609 C 521.87 1.70456 -0.930499 0
M  V30 5610 O 521.145 1.94452 0.0434086 0
M  V30 5611 C 521.428 1.21824 -3.38867 0
M  V30 5612 C 521.281 0.144434 -4.49568 0
M  V30 5613 C 522.6 2.12968 -3.8514 0
M  V30 5614 H 519.719 0.22491 -0.701844 0
M  V30 5615 H 522.361 -0.113711 -1.89659 0
M  V30 5616 H 520.511 1.8459 -3.41846 0
M  V30 5617 H 522.183 -0.48753 -4.58717 0
M  V30 5618 H 520.426 -0.527424 -4.30582 0
M  V30 5619 H 521.097 0.601127 -5.48717 0
M  V30 5620 H 523.573 1.60163 -3.8404 0
M  V30 5621 H 522.449 2.51578 -4.87852 0
M  V30 5622 H 522.71 3.03004 -3.21934 0
M  V30 5623 N 521.769 1.56035 0.221574 0
M  V30 5624 C 522.997 1.8313 0.962864 0
M  V30 5625 C 523.412 0.630934 1.77946 0
M  V30 5626 O 522.769 -0.400519 1.78051 0
M  V30 5627 C 522.82 3.08742 1.88045 0
M  V30 5628 O 522.541 4.24147 1.09686 0
M  V30 5629 C 524.042 3.48824 2.73563 0
M  V30 5630 H 521.262 0.608775 0.282194 0
M  V30 5631 H 523.806 2.03124 0.23681 0
M  V30 5632 H 521.961 2.90723 2.56045 0
M  V30 5633 H 522.375 4.95505 1.71974 0
M  V30 5634 H 523.849 4.39752 3.3365 0
M  V30 5635 H 524.326 2.70575 3.45956 0
M  V30 5636 H 524.932 3.69282 2.10976 0
M  V30 5637 N 523.247 -0.488276 1.49845 0
M  V30 5638 C 524.472 -1.26997 1.63971 0
M  V30 5639 C 524.897 -1.85427 0.315994 0
M  V30 5640 O 524.255 -1.66475 -0.718032 0
M  V30 5641 C 524.303 -2.36689 2.72049 0
M  V30 5642 O 523.407 -3.40882 2.32107 0
M  V30 5643 H 522.748 -0.374376 0.548396 0
M  V30 5644 H 525.278 -0.583104 1.96115 0
M  V30 5645 H 525.288 -2.82262 2.94605 0
M  V30 5646 H 523.963 -1.93529 3.68129 0
M  V30 5647 H 522.54 -3.01139 2.19931 0
M  V30 5648 N 524.725 -1.39134 -0.740242 0
M  V30 5649 C 525.635 -1.39697 -1.88473 0
M  V30 5650 C 526.651 -0.292403 -1.71526 0
M  V30 5651 O 527.827 -0.533021 -1.94219 0
M  V30 5652 C 524.892 -1.23382 -3.24003 0
M  V30 5653 C 523.953 -2.43763 -3.53381 0
M  V30 5654 C 523.186 -2.28216 -4.82445 0
M  V30 5655 O 523.409 -1.28288 -5.55786 0
M  V30 5656 O 522.343 -3.1709 -5.11603 0
M  V30 5657 H 526.169 -2.36159 -1.90952 0
M  V30 5658 H 523.754 -1.20194 -0.887346 0
M  V30 5659 H 525.636 -1.16395 -4.05006 0
M  V30 5660 H 524.311 -0.300121 -3.22306 0
M  V30 5661 H 523.218 -2.56325 -2.72485 0
M  V30 5662 H 524.551 -3.35808 -3.59852 0
M  V30 5663 N 526.204 0.969867 -1.24223 0
M  V30 5664 C 527.429 1.75289 -1.10853 0
M  V30 5665 C 527.854 1.85091 0.335079 0
M  V30 5666 O 527.212 1.32024 1.24255 0
M  V30 5667 C 527.26 3.15255 -1.75062 0
M  V30 5668 O 526.364 3.99589 -1.01992 0
M  V30 5669 H 525.705 0.538904 -0.387915 0
M  V30 5670 H 528.235 1.21675 -1.64488 0
M  V30 5671 H 528.245 3.65787 -1.80731 0
M  V30 5672 H 526.92 3.07436 -2.801 0
M  V30 5673 H 525.497 3.58077 -1.04094 0
M  V30 5674 N 527.682 1.05563 1.17022 0
M  V30 5675 C 528.592 0.670758 2.24807 0
M  V30 5676 C 529.608 -0.309865 1.71219 0
M  V30 5677 O 530.784 -0.161025 2.00755 0
M  V30 5678 C 527.849 0.055337 3.46656 0
M  V30 5679 C 526.91 1.08688 4.15314 0
M  V30 5680 C 526.143 0.500736 5.31346 0
M  V30 5681 O 526.366 -0.688718 5.66227 0
M  V30 5682 O 525.3 1.23683 5.89055 0
M  V30 5683 H 529.126 1.56914 2.60023 0
M  V30 5684 H 526.711 0.827428 1.24395 0
M  V30 5685 H 528.593 -0.286492 4.20425 0
M  V30 5686 H 527.268 -0.816638 3.13229 0
M  V30 5687 H 526.175 1.48077 3.43546 0
M  V30 5688 H 527.508 1.93014 4.52777 0
M  V30 5689 N 529.16 -1.33526 0.837174 0
M  V30 5690 C 530.07 -2.33023 0.271568 0
M  V30 5691 C 531.086 -1.63272 -0.601514 0
M  V30 5692 O 532.262 -1.94939 -0.506038 0
M  V30 5693 C 529.327 -3.42382 -0.545448 0
M  V30 5694 C 528.388 -4.27857 0.351709 0
M  V30 5695 C 527.621 -5.31994 -0.426409 0
M  V30 5696 O 527.844 -5.45763 -1.65828 0
M  V30 5697 O 526.778 -6.01572 0.1987 0
M  V30 5698 H 530.604 -2.83256 1.09545 0
M  V30 5699 H 528.189 -1.36837 0.599655 0
M  V30 5700 H 530.071 -4.09122 -1.00979 0
M  V30 5701 H 528.746 -2.94369 -1.34641 0
M  V30 5702 H 527.653 -3.6399 0.863853 0
M  V30 5703 H 528.986 -4.79349 1.1174 0
M  V30 5704 N 530.638 -0.59345 -1.46 0
M  V30 5705 C 531.866 -0.0890934 -2.06708 0
M  V30 5706 C 532.281 1.2205 -1.44046 0
M  V30 5707 O 531.638 1.74029 -0.549551 0
M  V30 5708 C 531.689 0.0720263 -3.61428 0
M  V30 5709 O 531.41 -1.18574 -4.21748 0
M  V30 5710 C 532.911 0.609487 -4.3909 0
M  V30 5711 H 530.131 -0.0623628 -0.668096 0
M  V30 5712 H 532.675 -0.817171 -1.87464 0
M  V30 5713 H 530.83 0.750369 -3.80063 0
M  V30 5714 H 531.244 -1.0064 -5.14754 0
M  V30 5715 H 532.718 0.671363 -5.47902 0
M  V30 5716 H 533.195 1.62878 -4.07882 0
M  V30 5717 H 533.801 -0.03434 -4.25286 0
M  V30 5718 N 532.116 1.54067 -0.331816 0
M  V30 5719 C 533.063 2.24623 0.530372 0
M  V30 5720 C 534.033 1.24009 1.10503 0
M  V30 5721 O 535.218 1.52712 1.14384 0
M  V30 5722 C 532.358 3.01374 1.68129 0
M  V30 5723 C 531.471 4.16821 1.13507 0
M  V30 5724 C 530.606 4.81085 2.25234 0
M  V30 5725 C 529.645 5.88621 1.67903 0
M  V30 5726 N 528.782 6.46713 2.73326 0
M  V30 5727 H 533.622 2.97898 -0.0778607 0
M  V30 5728 H 531.159 1.47014 -0.0501965 0
M  V30 5729 H 533.117 3.44125 2.35868 0
M  V30 5730 H 531.747 2.30419 2.26069 0
M  V30 5731 H 530.799 3.78796 0.348979 0
M  V30 5732 H 532.111 4.94203 0.675633 0
M  V30 5733 H 531.265 5.26846 3.00862 0
M  V30 5734 H 530.004 4.03102 2.74518 0
M  V30 5735 H 529.009 5.42254 0.907773 0
M  V30 5736 H 530.234 6.68506 1.19487 0
M  V30 5737 H 528.18 5.71599 3.21886 0
M  V30 5738 H 528.097 7.19532 2.3197 0
M  V30 5739 H 529.365 6.97129 3.48758 0
M  V30 5740 N 533.594 0.0601682 1.57485 0
M  V30 5741 C 534.541 -0.91112 2.12055 0
M  V30 5742 C 535.511 -1.30298 1.03013 0
M  V30 5743 O 536.696 -1.39087 1.30612 0
M  V30 5744 C 533.836 -2.1775 2.67729 0
M  V30 5745 C 532.949 -1.83933 3.90887 0
M  V30 5746 C 532.084 -3.05096 4.34845 0
M  V30 5747 C 531.123 -2.67241 5.5068 0
M  V30 5748 N 530.26 -3.81127 5.8965 0
M  V30 5749 H 535.1 -0.43888 2.9475 0
M  V30 5750 H 532.637 -0.204995 1.45665 0
M  V30 5751 H 534.595 -2.91866 2.98111 0
M  V30 5752 H 533.225 -2.62535 1.87816 0
M  V30 5753 H 532.277 -0.999287 3.6704 0
M  V30 5754 H 533.589 -1.52074 4.75052 0
M  V30 5755 H 532.743 -3.87502 4.66827 0
M  V30 5756 H 531.482 -3.40139 3.49509 0
M  V30 5757 H 530.487 -1.83254 5.18361 0
M  V30 5758 H 531.712 -2.3338 6.37738 0
M  V30 5759 H 529.658 -4.15954 5.07266 0
M  V30 5760 H 529.575 -3.52997 6.68528 0
M  V30 5761 H 530.843 -4.64145 6.2625 0
M  V30 5762 N 535.072 -1.5615 -0.213296 0
M  V30 5763 C 536.002 -1.96109 -1.26742 0
M  V30 5764 C 536.983 -0.830448 -1.48451 0
M  V30 5765 O 538.168 -1.09339 -1.60495 0
M  V30 5766 C 535.298 -2.28492 -2.61551 0
M  V30 5767 C 534.252 -3.44124 -2.54485 0
M  V30 5768 C 533.578 -3.62134 -3.93399 0
M  V30 5769 C 534.878 -4.78855 -2.08556 0
M  V30 5770 H 536.572 -2.84412 -0.935434 0
M  V30 5771 H 534.118 -1.36836 -0.44854 0
M  V30 5772 H 536.071 -2.55039 -3.3546 0
M  V30 5773 H 534.795 -1.37052 -2.96453 0
M  V30 5774 H 533.454 -3.17639 -1.83033 0
M  V30 5775 H 533.102 -2.68055 -4.25623 0
M  V30 5776 H 532.802 -4.39913 -3.89551 0
M  V30 5777 H 534.326 -3.91038 -4.68958 0
M  V30 5778 H 535.74 -5.04552 -2.72213 0
M  V30 5779 H 534.137 -5.59975 -2.1575 0
M  V30 5780 H 535.207 -4.73657 -1.03811 0
M  V30 5781 N 536.55 0.480323 -1.50102 0
M  V30 5782 C 537.513 1.56181 -1.6775 0
M  V30 5783 C 538.513 1.51156 -0.548503 0
M  V30 5784 O 539.703 1.5394 -0.815363 0
M  V30 5785 C 536.835 2.95823 -1.69415 0
M  V30 5786 H 538.028 1.41855 -2.6423 0
M  V30 5787 H 535.581 0.70605 -1.39444 0
M  V30 5788 H 536.316 3.15604 -0.745948 0
M  V30 5789 H 536.101 3.00878 -2.51425 0
M  V30 5790 H 537.591 3.74359 -1.85054 0
M  V30 5791 N 538.028 1.39524 0.732853 0
M  V30 5792 C 538.938 1.40695 1.87729 0
M  V30 5793 C 539.954 0.301496 1.71368 0
M  V30 5794 O 541.13 0.543313 1.93933 0
M  V30 5795 C 538.195 1.25098 3.23344 0
M  V30 5796 C 537.256 2.45634 3.52083 0
M  V30 5797 C 536.489 2.30772 4.81228 0
M  V30 5798 O 536.712 1.31233 5.55098 0
M  V30 5799 O 535.646 3.19799 5.09914 0
M  V30 5800 H 539.472 2.37168 1.89697 0
M  V30 5801 H 537.057 1.20663 0.880959 0
M  V30 5802 H 538.939 1.18541 4.04383 0
M  V30 5803 H 537.614 0.317209 3.22142 0
M  V30 5804 H 536.521 2.57767 2.71122 0
M  V30 5805 H 537.854 3.37712 3.58066 0
M  V30 5806 N 539.506 -0.963266 1.24736 0
M  V30 5807 C 540.453 -2.05857 1.04363 0
M  V30 5808 C 541.423 -1.6604 -0.0444951 0
M  V30 5809 O 542.608 -1.90477 0.110999 0
M  V30 5810 C 539.748 -3.38745 0.659235 0
M  V30 5811 C 538.861 -3.9173 1.82131 0
M  V30 5812 C 537.996 -5.12906 1.38208 0
M  V30 5813 C 537.035 -5.58098 2.51382 0
M  V30 5814 N 536.172 -6.7049 2.08295 0
M  V30 5815 H 541.012 -2.22616 1.98107 0
M  V30 5816 H 538.549 -1.09103 0.986661 0
M  V30 5817 H 540.507 -4.15107 0.417371 0
M  V30 5818 H 539.137 -3.21898 -0.241201 0
M  V30 5819 H 538.189 -3.11966 2.17672 0
M  V30 5820 H 539.501 -4.21225 2.67153 0
M  V30 5821 H 538.655 -5.96657 1.09935 0
M  V30 5822 H 537.394 -4.85105 0.502456 0
M  V30 5823 H 536.399 -4.72917 2.80409 0
M  V30 5824 H 537.624 -5.87911 3.39909 0
M  V30 5825 H 535.57 -6.44416 1.22737 0
M  V30 5826 H 535.487 -6.99458 2.86869 0
M  V30 5827 H 536.755 -7.57672 1.83175 0
M  V30 5828 N 540.985 -1.06182 -1.16461 0
M  V30 5829 C 541.895 -0.682671 -2.24448 0
M  V30 5830 C 542.911 0.30078 -1.71381 0
M  V30 5831 O 544.087 0.150376 -2.00838 0
M  V30 5832 C 541.152 -0.0737202 -3.46622 0
M  V30 5833 C 540.213 -1.10889 -4.14731 0
M  V30 5834 C 539.446 -0.528908 -5.31073 0
M  V30 5835 O 539.669 0.65868 -5.66584 0
M  V30 5836 O 538.603 -1.26805 -5.88391 0
M  V30 5837 H 542.429 -1.58291 -2.59187 0
M  V30 5838 H 540.014 -0.834013 -1.23954 0
M  V30 5839 H 541.896 0.264192 -4.20571 0
M  V30 5840 H 540.571 0.800015 -3.13658 0
M  V30 5841 H 539.478 -1.49896 -3.42756 0
M  V30 5842 H 540.811 -1.95412 -4.51747 0
M  V30 5843 N 542.463 1.3308 -0.844243 0
M  V30 5844 C 543.373 2.32876 -0.283922 0
M  V30 5845 C 544.389 1.63589 0.592846 0
M  V30 5846 O 545.565 1.95205 0.495693 0
M  V30 5847 C 542.63 3.42667 0.527283 0
M  V30 5848 C 541.691 4.27664 -0.374394 0
M  V30 5849 C 540.924 5.32212 0.39819 0
M  V30 5850 O 541.147 5.46635 1.62932 0
M  V30 5851 O 540.081 6.01458 -0.2306 0
M  V30 5852 H 543.907 2.82671 -1.11045 0
M  V30 5853 H 541.492 1.36518 -0.606903 0
M  V30 5854 H 543.374 4.09652 0.988078 0
M  V30 5855 H 542.049 2.95079 1.33078 0
M  V30 5856 H 540.956 3.63526 -0.883144 0
M  V30 5857 H 542.289 4.78749 -1.1428 0
M  V30 5858 N 543.941 0.601185 1.45683 0
M  V30 5859 C 544.889 -0.133955 2.32214 0
M  V30 5860 C 545.883 -0.866034 1.45589 0
M  V30 5861 O 547.089 -0.782326 1.6211 0
M  V30 5862 H 543.464 -0.0620613 0.749435 0
M  V30 5863 H 545.435 0.614389 2.92007 0
M  V30 5864 C 544.184 -1.12216 3.29094 0
M  V30 5865 H 543.507 -0.568273 3.95741 0
M  V30 5866 H 544.947 -1.60659 3.92383 0
M  V30 5867 C 543.406 -2.19251 2.55794 0
M  V30 5868 O 543.936 -3.26894 2.33459 0
M  V30 5869 N 542.142 -1.9436 2.16039 0
M  V30 5870 H 541.689 -1.06829 2.34404 0
M  V30 5871 H 541.647 -2.66181 1.67318 0
M  V30 5872 N 545.419 -1.53889 0.339982 0
M  V30 5873 C 546.329 -2.28604 -0.526988 0
M  V30 5874 C 547.345 -1.33578 -1.11503 0
M  V30 5875 O 548.521 -1.66612 -1.13148 0
M  V30 5876 C 545.586 -3.04164 -1.66389 0
M  V30 5877 C 544.647 -4.14809 -1.10599 0
M  V30 5878 C 543.88 -4.86756 -2.18871 0
M  V30 5879 O 544.103 -4.58343 -3.39526 0
M  V30 5880 O 543.037 -5.73289 -1.83366 0
M  V30 5881 H 546.863 -3.03594 0.0802707 0
M  V30 5882 H 544.448 -1.4903 0.105141 0
M  V30 5883 H 546.33 -3.51427 -2.32544 0
M  V30 5884 H 545.005 -2.32035 -2.25703 0
M  V30 5885 H 543.912 -3.71857 -0.409067 0
M  V30 5886 H 545.245 -4.89029 -0.557771 0
M  V30 5887 N 546.897 -0.0685191 -1.57451 0
M  V30 5888 C 548.145 0.60016 -1.92983 0
M  V30 5889 C 548.466 1.70348 -0.949028 0
M  V30 5890 O 547.736 1.959 0.00335647 0
M  V30 5891 H 546.316 0.224682 -0.712409 0
M  V30 5892 H 548.978 -0.125605 -1.94495 0
M  V30 5893 H 548.074 1.02759 -2.94698 0
M  V30 5894 N 548.375 1.56261 0.205012 0
M  V30 5895 C 549.285 1.96944 1.27476 0
M  V30 5896 C 550.301 0.875636 1.50362 0
M  V30 5897 O 551.477 1.18058 1.6317 0
M  V30 5898 C 548.542 2.29219 2.60115 0
M  V30 5899 C 547.603 3.52255 2.45387 0
M  V30 5900 C 546.836 3.8298 3.71701 0
M  V30 5901 O 547.059 3.15138 4.75441 0
M  V30 5902 O 545.993 4.76435 3.67823 0
M  V30 5903 H 549.819 2.88144 0.959527 0
M  V30 5904 H 547.404 1.43686 0.409217 0
M  V30 5905 H 549.286 2.51098 3.3842 0
M  V30 5906 H 547.961 1.4119 2.91285 0
M  V30 5907 H 546.868 3.35635 1.65227 0
M  V30 5908 H 548.201 4.40719 2.19152 0
M  V30 5909 N 549.853 -0.472356 1.50355 0
M  V30 5910 C 550.8 -1.57051 1.69126 0
M  V30 5911 C 551.77 -1.5733 0.532574 0
M  V30 5912 O 552.955 -1.7488 0.762994 0
M  V30 5913 C 550.095 -2.95033 1.79024 0
M  V30 5914 C 549.208 -3.04552 3.06386 0
M  V30 5915 C 548.343 -4.33441 3.07087 0
M  V30 5916 C 547.382 -4.36697 4.28908 0
M  V30 5917 N 546.519 -5.57056 4.27356 0
M  V30 5918 H 551.359 -1.40351 2.62879 0
M  V30 5919 H 548.896 -0.682403 1.30314 0
M  V30 5920 H 550.854 -3.75048 1.82744 0
M  V30 5921 H 549.484 -3.10371 0.887109 0
M  V30 5922 H 548.536 -2.17419 3.12143 0
M  V30 5923 H 549.848 -3.02818 3.96362 0
M  V30 5924 H 549.002 -5.21801 3.09529 0
M  V30 5925 H 547.741 -4.37782 2.14939 0
M  V30 5926 H 546.746 -3.46734 4.2668 0
M  V30 5927 H 547.971 -4.34049 5.22282 0
M  V30 5928 H 545.917 -5.62184 3.3806 0
M  V30 5929 H 545.834 -5.57058 5.111 0
M  V30 5930 H 547.102 -6.47545 4.33942 0
M  V30 5931 N 551.331 -1.39911 -0.725443 0
M  V30 5932 C 552.261 -1.42138 -1.85254 0
M  V30 5933 C 553.242 -0.283513 -1.67721 0
M  V30 5934 O 554.427 -0.490717 -1.87898 0
M  V30 5935 C 551.557 -1.27354 -3.23107 0
M  V30 5936 C 550.511 -2.3864 -3.55296 0
M  V30 5937 C 549.837 -2.08939 -4.92188 0
M  V30 5938 C 551.137 -3.8097 -3.57295 0
M  V30 5939 H 552.831 -2.36461 -1.83648 0
M  V30 5940 H 550.377 -1.13817 -0.882138 0
M  V30 5941 H 552.33 -1.2753 -4.01639 0
M  V30 5942 H 551.054 -0.295025 -3.25265 0
M  V30 5943 H 549.713 -2.37696 -2.79099 0
M  V30 5944 H 549.361 -1.09502 -4.90936 0
M  V30 5945 H 549.061 -2.83491 -5.14691 0
M  V30 5946 H 550.585 -2.10781 -5.73065 0
M  V30 5947 H 551.999 -3.8379 -4.25885 0
M  V30 5948 H 550.396 -4.5496 -3.9132 0
M  V30 5949 H 551.466 -4.11261 -2.5689 0
M  V30 5950 N 552.809 0.956637 -1.25245 0
M  V30 5951 C 554.057 1.69764 -1.09657 0
M  V30 5952 C 554.378 1.91583 0.363464 0
M  V30 5953 O 553.648 1.50149 1.25825 0
M  V30 5954 H 552.228 0.629097 -0.402798 0
M  V30 5955 H 554.89 1.15026 -1.57337 0
M  V30 5956 H 553.986 2.67769 -1.60331 0
M  V30 5957 N 554.287 1.06798 1.15896 0
M  V30 5958 C 555.197 0.694564 2.24083 0
M  V30 5959 C 556.213 -0.291687 1.71538 0
M  V30 5960 O 557.389 -0.139723 2.00915 0
M  V30 5961 C 554.454 0.0921014 3.46578 0
M  V30 5962 C 553.515 1.13087 4.14137 0
M  V30 5963 C 552.748 0.557064 5.30785 0
M  V30 5964 O 552.971 -0.628623 5.66925 0
M  V30 5965 O 551.905 1.29924 5.8771 0
M  V30 5966 H 555.731 1.59663 2.58344 0
M  V30 5967 H 553.316 0.840575 1.2351 0
M  V30 5968 H 555.198 -0.241884 4.20705 0
M  V30 5969 H 553.873 -0.78337 3.14078 0
M  V30 5970 H 552.78 1.51712 3.41957 0
M  V30 5971 H 554.113 1.97805 4.50704 0
M  V30 5972 N 555.766 -1.3263 0.851289 0
M  V30 5973 C 556.714 -2.30882 0.282202 0
M  V30 5974 C 557.708 -1.58697 -0.592589 0
M  V30 5975 O 558.914 -1.73461 -0.480768 0
M  V30 5976 H 555.289 -0.748492 0.0725487 0
M  V30 5977 H 557.26 -2.76374 1.12516 0
M  V30 5978 C 556.009 -3.43828 -0.517449 0
M  V30 5979 H 555.332 -3.99532 0.146392 0
M  V30 5980 H 556.772 -4.1474 -0.88128 0
M  V30 5981 C 555.231 -2.90786 -1.70133 0
M  V30 5982 O 555.761 -2.88 -2.80034 0
M  V30 5983 N 553.967 -2.4723 -1.52728 0
M  V30 5984 H 553.514 -2.49695 -0.633257 0
M  V30 5985 H 553.472 -2.12094 -2.32085 0
M  V30 5986 N 557.244 -0.608902 -1.45362 0
M  V30 5987 C 558.49 -0.104762 -2.02529 0
M  V30 5988 C 558.823 1.26191 -1.47613 0
M  V30 5989 O 558.098 1.8327 -0.65134 0
M  V30 5990 C 558.381 -0.0672661 -3.60037 0
M  V30 5991 C 558.234 -1.4647 -4.25284 0
M  V30 5992 C 559.553 0.619877 -4.35713 0
M  V30 5993 H 556.672 -0.0395438 -0.735938 0
M  V30 5994 H 559.314 -0.781126 -1.73201 0
M  V30 5995 H 557.464 0.50871 -3.85155 0
M  V30 5996 H 559.136 -2.08785 -4.11347 0
M  V30 5997 H 557.379 -2.02502 -3.83634 0
M  V30 5998 H 558.05 -1.39069 -5.34195 0
M  V30 5999 H 560.526 0.130297 -4.15896 0
M  V30 6000 H 559.402 0.615224 -5.45441 0
M  V30 6001 H 559.663 1.68621 -4.0868 0
M  V30 6002 N 558.722 1.53707 -0.348139 0
M  V30 6003 C 559.67 2.26671 0.521808 0
M  V30 6004 C 560.664 1.28988 1.09811 0
M  V30 6005 O 561.87 1.4668 1.04332 0
M  V30 6006 H 558.245 0.728387 0.186968 0
M  V30 6007 H 560.216 2.98176 -0.115563 0
M  V30 6008 C 558.965 3.05591 1.6586 0
M  V30 6009 H 558.288 3.80589 1.22443 0
M  V30 6010 H 559.728 3.59851 2.24239 0
M  V30 6011 C 558.187 2.15366 2.59073 0
M  V30 6012 O 558.717 1.7528 3.61441 0
M  V30 6013 N 556.923 1.80352 2.27863 0
M  V30 6014 H 556.47 2.13149 1.44656 0
M  V30 6015 H 556.428 1.20268 2.90488 0
M  V30 6016 N 560.2 0.0768682 1.57412 0
M  V30 6017 C 561.477 -0.632359 1.85096 0
M  V30 6018 C 561.857 -1.87479 0.9703 0
M  V30 6019 O 561.205 -2.28469 0.0379062 0
M  V30 6020 C 561.415 -0.965174 3.35388 0
M  V30 6021 C 562.763 -1.33648 4.03018 0
M  V30 6022 O 563.787 -1.05675 3.40164 0
M  V30 6023 O 562.646 -1.85959 5.13889 0
M  V30 6024 H 559.74 -0.314574 0.764835 0
M  V30 6025 H 562.286 0.108184 1.69355 0
M  V30 6026 H 561.058 -0.0829745 3.91212 0
M  V30 6027 H 560.681 -1.76231 3.5641 0
M  V30 6028 N 561.678 -1.56367 -0.196722 0
M  V30 6029 C 562.926 -1.80172 -0.915554 0
M  V30 6030 C 563.247 -0.649649 -1.8386 0
M  V30 6031 O 562.517 0.332111 -1.93064 0
M  V30 6032 H 561.097 -0.664592 -0.341067 0
M  V30 6033 H 563.759 -1.93844 -0.202622 0
M  V30 6034 H 562.855 -2.7327 -1.50764 0
M  V30 6035 N 563.156 0.464375 -1.50603 0
M  V30 6036 C 564.119 1.54393 -1.69397 0
M  V30 6037 C 565.119 1.50566 -0.564504 0
M  V30 6038 O 566.309 1.53066 -0.831645 0
M  V30 6039 C 563.441 2.9401 -1.72543 0
M  V30 6040 H 564.634 1.39044 -2.65719 0
M  V30 6041 H 562.187 0.69122 -1.40185 0
M  V30 6042 H 562.922 3.14795 -0.77938 0
M  V30 6043 H 562.707 2.98195 -2.54602 0
M  V30 6044 H 564.197 3.72375 -1.89015 0
M  V30 6045 N 564.634 1.40294 0.718013 0
M  V30 6046 C 565.859 1.41941 1.5122 0
M  V30 6047 C 566.284 0.0202371 1.88089 0
M  V30 6048 O 565.642 -0.971078 1.53101 0
M  V30 6049 C 565.69 2.3141 2.76554 0
M  V30 6050 O 564.794 1.75567 3.73162 0
M  V30 6051 H 564.135 0.482644 0.456016 0
M  V30 6052 H 566.665 1.84494 0.884478 0
M  V30 6053 H 566.675 2.46513 3.25108 0
M  V30 6054 H 565.35 3.33085 2.49053 0
M  V30 6055 H 563.927 1.69798 3.31999 0
M  V30 6056 N 566.112 -0.949982 1.2575 0
M  V30 6057 C 567.022 -2.08109 1.08295 0
M  V30 6058 C 568.038 -1.7399 0.0188181 0
M  V30 6059 O 569.214 -2.00187 0.220724 0
M  V30 6060 C 566.279 -3.39383 0.708534 0
M  V30 6061 C 565.34 -3.8734 1.85111 0
M  V30 6062 C 564.573 -5.12349 1.49447 0
M  V30 6063 O 564.796 -5.6905 0.392212 0
M  V30 6064 O 563.73 -5.5513 2.32624 0
M  V30 6065 H 567.556 -2.25738 2.03165 0
M  V30 6066 H 565.141 -1.06545 1.04731 0
M  V30 6067 H 567.023 -4.18277 0.512061 0
M  V30 6068 H 565.698 -3.23013 -0.210854 0
M  V30 6069 H 564.605 -3.09429 2.10248 0
M  V30 6070 H 565.938 -4.08216 2.74991 0
M  V30 6071 N 567.59 -1.07411 -1.15328 0
M  V30 6072 C 568.538 -0.689316 -2.22151 0
M  V30 6073 C 569.532 0.300156 -1.6672 0
M  V30 6074 O 570.738 0.163804 -1.79253 0
M  V30 6075 H 567.113 -0.204834 -0.723566 0
M  V30 6076 H 569.084 -1.59988 -2.51886 0
M  V30 6077 C 567.833 -0.103848 -3.47545 0
M  V30 6078 H 567.156 -0.856367 -3.90521 0
M  V30 6079 H 568.596 0.127725 -4.23808 0
M  V30 6080 C 567.055 1.15563 -3.1646 0
M  V30 6081 O 567.585 2.242 -3.33312 0
M  V30 6082 N 565.791 1.06203 -2.70498 0
M  V30 6083 H 565.338 0.177933 -2.56985 0
M  V30 6084 H 565.296 1.90553 -2.50074 0
M  V30 6085 N 569.068 1.32177 -0.85831 0
M  V30 6086 C 570.293 2.01847 -0.476718 0
M  V30 6087 C 570.718 1.64065 0.920021 0
M  V30 6088 O 570.076 0.843189 1.60499 0
M  V30 6089 C 570.124 3.55097 -0.627578 0
M  V30 6090 O 569.228 4.11012 0.338086 0
M  V30 6091 H 568.569 0.635907 -0.191099 0
M  V30 6092 H 571.099 1.68641 -1.15851 0
M  V30 6093 H 571.109 4.04718 -0.516476 0
M  V30 6094 H 569.784 3.81938 -1.64609 0
M  V30 6095 H 568.361 3.72451 0.182917 0
M  V30 6096 N 570.547 0.616602 1.45037 0
M  V30 6097 C 571.457 -0.0985401 2.34393 0
M  V30 6098 C 572.473 -0.850971 1.51771 0
M  V30 6099 O 573.649 -0.806521 1.84546 0
M  V30 6100 C 570.714 -1.07748 3.29532 0
M  V30 6101 C 569.775 -0.326022 4.2806 0
M  V30 6102 C 569.008 -1.25833 5.18654 0
M  V30 6103 O 569.231 -2.49652 5.12864 0
M  V30 6104 O 568.165 -0.750512 5.97203 0
M  V30 6105 H 571.991 0.636016 2.96966 0
M  V30 6106 H 569.576 0.376832 1.44569 0
M  V30 6107 H 571.458 -1.64107 3.88133 0
M  V30 6108 H 570.133 -1.79291 2.69512 0
M  V30 6109 H 569.04 0.280253 3.73049 0
M  V30 6110 H 570.373 0.349091 4.9096 0
M  V30 6111 N 572.025 -1.5352 0.356285 0
M  V30 6112 C 573.302 -1.93405 -0.292223 0
M  V30 6113 C 573.682 -1.28901 -1.67176 0
M  V30 6114 O 573.03 -0.444632 -2.24132 0
M  V30 6115 C 573.24 -3.47223 -0.35175 0
M  V30 6116 C 574.588 -4.20389 -0.596534 0
M  V30 6117 O 575.612 -3.53554 -0.433344 0
M  V30 6118 O 574.471 -5.3881 -0.913589 0
M  V30 6119 H 571.565 -0.808666 -0.173172 0
M  V30 6120 H 574.111 -1.64713 0.408391 0
M  V30 6121 H 572.883 -3.86423 0.615841 0
M  V30 6122 H 572.506 -3.8212 -1.09864 0
M  V30 6123 N 573.503 -0.0852151 -1.57369 0
M  V30 6124 C 574.914 0.445428 -1.81309 0
M  V30 6125 C 575.265 1.68795 -1.00013 0
M  V30 6126 O 574.39 2.15211 -0.226573 0
M  V30 6127 C 574.985 0.814887 -3.28854 0
M  V30 6128 C 573.544 1.29032 -3.53592 0
M  V30 6129 C 572.691 0.282089 -2.75861 0
M  V30 6130 H 575.642 -0.310771 -1.55627 0
M  V30 6131 H 575.663 1.67524 -3.41637 0
M  V30 6132 H 575.175 -0.0896309 -3.87996 0
M  V30 6133 H 573.276 2.21289 -2.9977 0
M  V30 6134 H 573.389 1.25898 -4.62262 0
M  V30 6135 H 571.753 0.762182 -2.43029 0
M  V30 6136 H 572.536 -0.614936 -3.37748 0
M  V30 6137 N 574.981 1.5647 0.188427 0
M  V30 6138 C 575.928 1.95073 1.23349 0
M  V30 6139 C 576.898 0.812238 1.44886 0
M  V30 6140 O 578.083 1.07095 1.57909 0
M  V30 6141 C 575.223 2.30124 2.57171 0
M  V30 6142 C 574.336 3.57069 2.43157 0
M  V30 6143 C 573.471 3.81411 3.69729 0
M  V30 6144 C 572.51 5.0176 3.50575 0
M  V30 6145 N 571.647 5.22321 4.69175 0
M  V30 6146 H 576.487 2.84171 0.89728 0
M  V30 6147 H 574.024 1.40623 0.431683 0
M  V30 6148 H 575.982 2.48463 3.35145 0
M  V30 6149 H 574.612 1.44159 2.88822 0
M  V30 6150 H 573.664 3.4674 1.56447 0
M  V30 6151 H 574.976 4.452 2.24942 0
M  V30 6152 H 574.13 4.00026 4.56141 0
M  V30 6153 H 572.869 2.91624 3.90905 0
M  V30 6154 H 571.874 4.83061 2.62549 0
M  V30 6155 H 573.099 5.93063 3.30837 0
M  V30 6156 H 571.045 4.35483 4.90602 0
M  V30 6157 H 570.962 6.04643 4.53809 0
M  V30 6158 H 572.23 5.45401 5.56919 0
M  V30 6159 N 576.459 -0.456382 1.50847 0
M  V30 6160 C 577.406 -1.55249 1.70782 0
M  V30 6161 C 578.376 -1.56757 0.549231 0
M  V30 6162 O 579.561 -1.74061 0.7815 0
M  V30 6163 C 576.701 -2.93118 1.82143 0
M  V30 6164 C 575.814 -3.01285 3.09598 0
M  V30 6165 C 574.949 -4.30159 3.11667 0
M  V30 6166 C 573.988 -4.32124 4.33515 0
M  V30 6167 N 573.125 -5.52492 4.3324 0
M  V30 6168 H 577.965 -1.37555 2.64353 0
M  V30 6169 H 575.502 -0.668543 1.3103 0
M  V30 6170 H 577.46 -3.73088 1.86711 0
M  V30 6171 H 576.09 -3.09413 0.919978 0
M  V30 6172 H 575.142 -2.14096 3.14431 0
M  V30 6173 H 576.454 -2.98597 3.99551 0
M  V30 6174 H 575.608 -5.18489 3.15046 0
M  V30 6175 H 574.347 -4.35477 2.1957 0
M  V30 6176 H 573.352 -3.42189 4.30333 0
M  V30 6177 H 574.577 -4.28485 5.26856 0
M  V30 6178 H 572.523 -5.58567 3.44004 0
M  V30 6179 H 572.44 -5.51605 5.16979 0
M  V30 6180 H 573.708 -6.42906 4.40786 0
M  V30 6181 N 577.937 -1.40673 -0.710563 0
M  V30 6182 C 578.867 -1.44095 -1.83736 0
M  V30 6183 C 579.848 -0.301286 -1.67411 0
M  V30 6184 O 581.033 -0.510618 -1.87367 0
M  V30 6185 C 578.163 -1.30773 -3.21738 0
M  V30 6186 C 577.117 -2.42395 -3.52745 0
M  V30 6187 C 576.443 -2.14147 -4.89944 0
M  V30 6188 C 577.743 -3.84738 -3.53234 0
M  V30 6189 H 579.437 -2.38396 -1.81129 0
M  V30 6190 H 576.983 -1.14746 -0.870017 0
M  V30 6191 H 578.936 -1.31783 -4.00264 0
M  V30 6192 H 577.66 -0.329507 -3.24934 0
M  V30 6193 H 576.319 -2.40643 -2.76562 0
M  V30 6194 H 575.967 -1.14703 -4.89747 0
M  V30 6195 H 575.667 -2.88934 -5.11655 0
M  V30 6196 H 577.191 -2.16848 -5.70797 0
M  V30 6197 H 578.605 -3.88286 -4.2179 0
M  V30 6198 H 577.002 -4.59085 -3.86473 0
M  V30 6199 H 578.072 -4.13962 -2.52514 0
M  V30 6200 N 579.415 0.9433 -1.26252 0
M  V30 6201 C 580.643 1.72367 -1.14443 0
M  V30 6202 C 581.058 1.86392 0.300572 0
M  V30 6203 O 580.415 1.36978 1.20596 0
M  V30 6204 C 580.466 3.13155 -1.806 0
M  V30 6205 O 580.187 2.99803 -3.19452 0
M  V30 6206 C 581.688 4.07417 -1.74717 0
M  V30 6207 H 578.908 0.539758 -0.398626 0
M  V30 6208 H 581.452 1.18268 -1.66832 0
M  V30 6209 H 579.607 3.64162 -1.32154 0
M  V30 6210 H 580.021 3.88697 -3.52158 0
M  V30 6211 H 581.495 5.03773 -2.25647 0
M  V30 6212 H 581.972 4.3337 -0.713244 0
M  V30 6213 H 582.578 3.6233 -2.22704 0
M  V30 6214 N 580.893 1.08022 1.14757 0
M  V30 6215 C 581.803 0.718292 2.23333 0
M  V30 6216 C 582.819 -0.273477 1.71837 0
M  V30 6217 O 583.995 -0.118406 2.01052 0
M  V30 6218 C 581.06 0.128855 3.4646 0
M  V30 6219 C 580.121 1.17473 4.12915 0
M  V30 6220 C 579.354 0.61333 5.30164 0
M  V30 6221 O 579.577 -0.568458 5.6756 0
M  V30 6222 O 578.511 1.3615 5.86299 0
M  V30 6223 H 582.337 1.62394 2.56636 0
M  V30 6224 H 579.922 0.853628 1.22611 0
M  V30 6225 H 581.804 -0.197249 4.20938 0
M  V30 6226 H 580.479 -0.750014 3.14891 0
M  V30 6227 H 579.386 1.5533 3.40328 0
M  V30 6228 H 580.719 2.02574 4.48581 0
M  V30 6229 N 582.371 -1.3172 0.865308 0
M  V30 6230 C 583.303 -2.27545 0.274906 0
M  V30 6231 C 584.316 -1.52887 -0.559413 0
M  V30 6232 O 585.505 -1.74361 -0.382166 0
M  V30 6233 C 582.605 -3.33006 -0.629286 0
M  V30 6234 C 581.778 -4.37063 0.171553 0
M  V30 6235 C 580.837 -5.22044 -0.660052 0
M  V30 6236 O 579.863 -5.69129 -0.0897527 0
M  V30 6237 N 581.065 -5.45946 -1.97289 0
M  V30 6238 H 583.83 -2.78848 1.09836 0
M  V30 6239 H 581.391 -1.44693 0.726331 0
M  V30 6240 H 583.383 -3.86772 -1.19121 0
M  V30 6241 H 581.953 -2.81782 -1.35342 0
M  V30 6242 H 581.173 -3.83436 0.914919 0
M  V30 6243 H 582.461 -5.03662 0.721235 0
M  V30 6244 H 581.859 -5.0944 -2.45942 0
M  V30 6245 H 580.416 -6.02665 -2.4827 0
M  V30 6246 N 583.85 -0.624285 -1.44708 0
M  V30 6247 C 584.76 0.0861083 -2.34442 0
M  V30 6248 C 585.776 0.84291 -1.5222 0
M  V30 6249 O 586.952 0.796723 -1.84971 0
M  V30 6250 C 584.017 1.05999 -3.30099 0
M  V30 6251 C 583.077 0.303316 -4.28227 0
M  V30 6252 C 582.311 1.23081 -5.19314 0
M  V30 6253 O 582.534 2.46929 -5.14181 0
M  V30 6254 O 581.468 0.71883 -5.97592 0
M  V30 6255 H 585.293 -0.651756 -2.96624 0
M  V30 6256 H 582.879 -0.384493 -1.44368 0
M  V30 6257 H 584.76 1.62046 -3.88997 0
M  V30 6258 H 583.436 1.77859 -2.70459 0
M  V30 6259 H 582.343 -0.300033 -3.72895 0
M  V30 6260 H 583.676 -0.375123 -4.90768 0
M  V30 6261 N 585.328 1.53329 -0.364422 0
M  V30 6262 C 586.238 2.29414 0.490552 0
M  V30 6263 C 587.254 1.35335 1.09363 0
M  V30 6264 O 588.43 1.68391 1.10483 0
M  V30 6265 C 585.495 3.06772 1.61529 0
M  V30 6266 C 584.556 4.16516 1.03986 0
M  V30 6267 C 583.789 4.90176 2.111 0
M  V30 6268 O 584.012 4.63687 3.32191 0
M  V30 6269 O 582.946 5.76134 1.74222 0
M  V30 6270 H 586.772 3.03428 -0.12856 0
M  V30 6271 H 584.357 1.48843 -0.128837 0
M  V30 6272 H 586.239 3.55082 2.26924 0
M  V30 6273 H 584.914 2.35596 2.21983 0
M  V30 6274 H 583.821 3.7246 0.349856 0
M  V30 6275 H 585.154 4.89855 0.4799 0
M  V30 6276 N 586.806 0.0935595 1.57322 0
M  V30 6277 C 587.754 -0.883457 2.15169 0
M  V30 6278 C 588.748 -1.29324 1.09415 0
M  V30 6279 O 589.954 -1.26795 1.27762 0
M  V30 6280 H 586.329 -0.302923 0.688289 0
M  V30 6281 H 588.3 -0.370845 2.96087 0
M  V30 6282 C 587.049 -2.13345 2.74552 0
M  V30 6283 H 586.372 -1.82702 3.55612 0
M  V30 6284 H 587.812 -2.7977 3.18598 0
M  V30 6285 C 586.271 -2.90646 1.70371 0
M  V30 6286 O 586.801 -3.85133 1.14173 0
M  V30 6287 N 585.007 -2.54157 1.40899 0
M  V30 6288 H 584.554 -1.77391 1.86789 0
M  V30 6289 H 584.512 -3.06178 0.714301 0
M  V30 6290 N 588.284 -1.56567 -0.180126 0
M  V30 6291 C 589.532 -1.81133 -0.896392 0
M  V30 6292 C 589.853 -0.669114 -1.83161 0
M  V30 6293 O 589.123 0.311616 -1.93406 0
M  V30 6294 H 587.703 -0.668172 -0.333999 0
M  V30 6295 H 590.365 -1.94048 -0.182051 0
M  V30 6296 H 589.461 -2.74854 -1.47857 0
M  V30 6297 N 589.762 0.448376 -1.51087 0
M  V30 6298 C 590.99 1.22143 -1.66999 0
M  V30 6299 C 591.405 1.85283 -0.362699 0
M  V30 6300 O 590.762 1.70236 0.65772 0
M  V30 6301 C 590.813 2.31357 -2.7777 0
M  V30 6302 O 590.534 1.70801 -4.03434 0
M  V30 6303 C 592.035 3.21836 -3.04855 0
M  V30 6304 H 589.255 0.368558 -0.560719 0
M  V30 6305 H 591.799 0.532618 -1.97442 0
M  V30 6306 H 589.954 2.95973 -2.49958 0
M  V30 6307 H 590.368 2.42895 -4.64868 0
M  V30 6308 H 591.842 3.94627 -3.85971 0
M  V30 6309 H 592.319 3.81949 -2.16821 0
M  V30 6310 H 592.925 2.62933 -3.34285 0
M  V30 6311 N 591.24 1.41047 0.703093 0
M  V30 6312 C 592.187 1.42302 1.81711 0
M  V30 6313 C 593.157 0.278336 1.63751 0
M  V30 6314 O 594.342 0.478266 1.84709 0
M  V30 6315 C 591.482 1.30362 3.19531 0
M  V30 6316 C 590.595 2.54638 3.48975 0
M  V30 6317 C 589.73 2.35047 4.76368 0
M  V30 6318 C 588.769 3.54837 4.98756 0
M  V30 6319 N 587.906 3.34363 6.1737 0
M  V30 6320 H 592.746 2.37516 1.79973 0
M  V30 6321 H 590.283 1.1795 0.878983 0
M  V30 6322 H 592.241 1.21443 3.99134 0
M  V30 6323 H 590.871 0.387602 3.20464 0
M  V30 6324 H 589.923 2.74037 2.63833 0
M  V30 6325 H 591.235 3.43766 3.61423 0
M  V30 6326 H 590.389 2.23552 5.64012 0
M  V30 6327 H 589.128 1.43363 4.66153 0
M  V30 6328 H 588.133 3.66795 4.09563 0
M  V30 6329 H 589.358 4.47464 5.10835 0
M  V30 6330 H 587.304 2.45373 6.08382 0
M  V30 6331 H 587.221 4.17063 6.30551 0
M  V30 6332 H 588.489 3.26626 7.07768 0
M  V30 6333 N 592.718 -0.936591 1.26751 0
M  V30 6334 C 593.628 -2.06949 1.10496 0
M  V30 6335 C 594.644 -1.7396 0.037271 0
M  V30 6336 O 595.82 -1.99941 0.241944 0
M  V30 6337 C 592.885 -3.38612 0.744491 0
M  V30 6338 C 591.946 -3.85355 1.89209 0
M  V30 6339 C 591.179 -5.10735 1.54873 0
M  V30 6340 O 591.402 -5.68602 0.452546 0
M  V30 6341 O 590.336 -5.52632 2.38499 0
M  V30 6342 H 594.162 -2.23571 2.05547 0
M  V30 6343 H 591.747 -1.05428 1.05855 0
M  V30 6344 H 593.629 -4.17711 0.556396 0
M  V30 6345 H 592.304 -3.23218 -0.176582 0
M  V30 6346 H 591.211 -3.07182 2.13518 0
M  V30 6347 H 592.544 -4.05277 2.79305 0
M  V30 6348 N 594.196 -1.08629 -1.14182 0
M  V30 6349 C 595.421 -0.83902 -1.89671 0
M  V30 6350 C 595.846 0.603332 -1.78161 0
M  V30 6351 O 595.204 1.42301 -1.12339 0
M  V30 6352 C 595.252 -1.26854 -3.37551 0
M  V30 6353 O 594.356 -0.42188 -4.10236 0
M  V30 6354 H 593.697 -0.304545 -0.590041 0
M  V30 6355 H 596.227 -1.4483 -1.44518 0
M  V30 6356 H 596.237 -1.25038 -3.88368 0
M  V30 6357 H 594.912 -2.31901 -3.45246 0
M  V30 6358 H 593.489 -0.503654 -3.69483 0
M  V30 6359 N 595.674 1.31259 -0.872281 0
M  V30 6360 C 596.899 2.0133 -0.498099 0
M  V30 6361 C 597.324 1.65031 0.902568 0
M  V30 6362 O 596.682 0.860164 1.59596 0
M  V30 6363 C 596.73 3.54411 -0.665205 0
M  V30 6364 O 595.834 4.11347 0.294473 0
M  V30 6365 H 595.175 0.633844 -0.197832 0
M  V30 6366 H 597.705 1.67402 -1.17633 0
M  V30 6367 H 597.715 4.04147 -0.559373 0
M  V30 6368 H 596.39 3.80171 -1.68651 0
M  V30 6369 H 594.967 3.72624 0.143403 0
M  V30 6370 N 597.152 0.631951 1.44375 0
M  V30 6371 C 598.062 -0.073674 2.34484 0
M  V30 6372 C 599.078 -0.834825 1.52665 0
M  V30 6373 O 600.254 -0.786902 1.85391 0
M  V30 6374 C 597.319 -1.04247 3.30656 0
M  V30 6375 C 596.38 -0.280602 4.28382 0
M  V30 6376 C 595.613 -1.20325 5.19959 0
M  V30 6377 O 595.836 -2.44199 5.15484 0
M  V30 6378 O 594.77 -0.687128 5.97965 0
M  V30 6379 H 598.596 0.667477 2.96274 0
M  V30 6380 H 596.181 0.392144 1.44162 0
M  V30 6381 H 598.063 -1.59981 3.89851 0
M  V30 6382 H 596.738 -1.76422 2.71398 0
M  V30 6383 H 595.645 0.319804 3.72731 0
M  V30 6384 H 596.978 0.401144 4.90563 0
M  V30 6385 N 598.631 -1.53133 0.372548 0
M  V30 6386 C 599.541 -2.29671 -0.478379 0
M  V30 6387 C 600.557 -1.35913 -1.08644 0
M  V30 6388 O 601.733 -1.68975 -1.09588 0
M  V30 6389 C 598.798 -3.07625 -1.599 0
M  V30 6390 C 597.859 -4.17061 -1.01776 0
M  V30 6391 C 597.092 -4.91289 -2.08497 0
M  V30 6392 O 597.315 -4.65442 -3.29727 0
M  V30 6393 O 596.249 -5.7705 -1.71164 0
M  V30 6394 H 600.075 -3.03355 0.144649 0
M  V30 6395 H 597.66 -1.48773 0.136729 0
M  V30 6396 H 599.542 -3.56281 -2.25038 0
M  V30 6397 H 598.217 -2.3677 -2.2073 0
M  V30 6398 H 597.124 -3.72641 -0.330098 0
M  V30 6399 H 598.457 -4.90102 -0.453915 0
M  V30 6400 N 600.109 -0.101901 -1.5727 0
M  V30 6401 C 601.337 0.568392 -1.98939 0
M  V30 6402 C 601.752 1.61301 -0.981194 0
M  V30 6403 O 601.109 1.82478 0.0282869 0
M  V30 6404 C 601.16 1.20997 -3.40649 0
M  V30 6405 O 600.881 0.207129 -4.3761 0
M  V30 6406 C 602.382 1.96523 -3.97358 0
M  V30 6407 H 599.602 0.15186 -0.65359 0
M  V30 6408 H 602.146 -0.183198 -2.03678 0
M  V30 6409 H 600.301 1.91245 -3.36904 0
M  V30 6410 H 600.715 0.671071 -5.20189 0
M  V30 6411 H 602.189 2.36764 -4.98645 0
M  V30 6412 H 602.666 2.83376 -3.35552 0
M  V30 6413 H 603.272 1.31076 -4.04598 0
M  V30 6414 N 601.587 1.56661 0.17182 0
M  V30 6415 C 602.534 1.96371 1.21273 0
M  V30 6416 C 603.504 0.82756 1.44016 0
M  V30 6417 O 604.689 1.08764 1.56764 0
M  V30 6418 C 601.829 2.32838 2.54716 0
M  V30 6419 C 600.942 3.59628 2.39356 0
M  V30 6420 C 600.077 3.85311 3.65662 0
M  V30 6421 C 599.116 5.0545 3.45234 0
M  V30 6422 N 598.253 5.27268 4.63608 0
M  V30 6423 H 603.093 2.85106 0.86709 0
M  V30 6424 H 600.63 1.41073 0.416744 0
M  V30 6425 H 602.588 2.52004 3.3249 0
M  V30 6426 H 601.218 1.47214 2.87277 0
M  V30 6427 H 600.27 3.4838 1.52761 0
M  V30 6428 H 601.582 4.4756 2.20207 0
M  V30 6429 H 600.736 4.04841 4.51872 0
M  V30 6430 H 599.475 2.95753 3.8779 0
M  V30 6431 H 598.48 4.85819 2.5741 0
M  V30 6432 H 599.705 5.96538 3.24529 0
M  V30 6433 H 597.651 4.40662 4.85956 0
M  V30 6434 H 597.568 6.09422 4.4737 0
M  V30 6435 H 598.836 5.51277 5.51103 0
M  V30 6436 N 603.065 -0.440357 1.51323 0
M  V30 6437 C 604.342 -1.20109 1.5438 0
M  V30 6438 C 604.722 -2.08866 0.306303 0
M  V30 6439 O 604.07 -2.1723 -0.708773 0
M  V30 6440 C 604.28 -2.00555 2.8562 0
M  V30 6441 C 605.628 -2.577 3.37455 0
M  V30 6442 O 606.652 -2.10769 2.8715 0
M  V30 6443 O 605.511 -3.43289 4.25224 0
M  V30 6444 H 602.605 -0.546668 0.620551 0
M  V30 6445 H 605.151 -0.449672 1.63634 0
M  V30 6446 H 603.923 -1.35346 3.67147 0
M  V30 6447 H 603.546 -2.82768 2.79514 0
M  V30 6448 N 604.543 -1.41418 -0.695603 0
M  V30 6449 C 605.82 -1.31264 -1.45014 0
M  V30 6450 C 606.2 0.0597994 -2.11015 0
M  V30 6451 O 605.548 1.07403 -2.01685 0
M  V30 6452 C 605.758 -2.466 -2.4696 0
M  V30 6453 C 607.106 -2.87763 -3.12214 0
M  V30 6454 O 608.13 -2.46339 -2.57285 0
M  V30 6455 O 606.989 -3.59395 -4.11701 0
M  V30 6456 H 604.083 -0.516576 -0.645816 0
M  V30 6457 H 606.629 -1.53382 -0.726084 0
M  V30 6458 H 605.401 -3.38183 -1.96845 0
M  V30 6459 H 605.024 -2.26358 -3.26876 0
M  V30 6460 N 606.021 0.929856 -1.27246 0
M  V30 6461 C 606.968 2.03017 -1.09785 0
M  V30 6462 C 607.938 1.661 0.000456744 0
M  V30 6463 O 609.123 1.90116 -0.161462 0
M  V30 6464 C 606.263 3.36878 -0.748816 0
M  V30 6465 C 605.376 3.86763 -1.92453 0
M  V30 6466 C 604.511 5.09061 -1.51758 0
M  V30 6467 C 603.55 5.51237 -2.66091 0
M  V30 6468 N 602.687 6.64732 -2.25999 0
M  V30 6469 H 607.527 2.17285 -2.03939 0
M  V30 6470 H 605.064 1.06448 -1.01524 0
M  V30 6471 H 607.022 4.13855 -0.527283 0
M  V30 6472 H 605.652 3.22424 0.155771 0
M  V30 6473 H 604.704 3.06086 -2.25867 0
M  V30 6474 H 606.016 4.13994 -2.78227 0
M  V30 6475 H 605.17 5.93532 -1.25716 0
M  V30 6476 H 603.909 4.83602 -0.630896 0
M  V30 6477 H 602.914 4.65316 -2.92849 0
M  V30 6478 H 604.139 5.78692 -3.55377 0
M  V30 6479 H 602.085 6.40935 -1.3978 0
M  V30 6480 H 602.002 6.91607 -3.05313 0
M  V30 6481 H 603.27 7.52549 -2.03199 0
M  V30 6482 N 607.499 1.09233 1.13605 0
M  V30 6483 C 608.91 0.846839 1.6639 0
M  V30 6484 C 609.261 -0.625031 1.85978 0
M  V30 6485 O 608.386 -1.48173 1.57714 0
M  V30 6486 C 608.981 1.5307 3.0225 0
M  V30 6487 C 607.54 1.33223 3.52035 0
M  V30 6488 C 606.687 1.58806 2.27323 0
M  V30 6489 H 609.638 1.25175 0.975541 0
M  V30 6490 H 609.659 0.96267 3.68121 0
M  V30 6491 H 609.171 2.60192 2.87961 0
M  V30 6492 H 607.272 0.282091 3.71531 0
M  V30 6493 H 607.385 2.0657 4.32279 0
M  V30 6494 H 605.749 1.01007 2.33815 0
M  V30 6495 H 606.532 2.67153 2.15602 0
M  V30 6496 N 608.977 -1.30795 0.87923 0
M  V30 6497 C 609.887 -2.32041 0.345565 0
M  V30 6498 C 610.903 -1.65103 -0.549265 0
M  V30 6499 O 612.079 -1.9645 -0.443763 0
M  V30 6500 C 609.144 -3.43944 -0.436245 0
M  V30 6501 C 608.205 -4.26521 0.48765 0
M  V30 6502 C 607.438 -5.33081 -0.256943 0
M  V30 6503 O 607.661 -5.50762 -1.48381 0
M  V30 6504 O 606.595 -6.00635 0.389985 0
M  V30 6505 H 610.421 -2.79627 1.18501 0
M  V30 6506 H 608.006 -1.3486 0.642885 0
M  V30 6507 H 609.888 -4.12128 -0.879119 0
M  V30 6508 H 608.563 -2.98504 -1.25208 0
M  V30 6509 H 607.47 -3.61057 0.979216 0
M  V30 6510 H 608.803 -4.75551 1.26933 0
M  V30 6511 N 610.455 -0.639598 -1.44038 0
M  V30 6512 C 611.365 0.0612377 -2.3452 0
M  V30 6513 C 612.381 0.826717 -1.53106 0
M  V30 6514 O 613.557 0.777059 -1.85806 0
M  V30 6515 C 610.622 1.02492 -3.31204 0
M  V30 6516 C 609.683 0.25788 -4.28525 0
M  V30 6517 C 608.916 1.17566 -5.2059 0
M  V30 6518 O 609.139 2.41461 -5.16771 0
M  V30 6519 O 608.073 0.655407 -5.98321 0
M  V30 6520 H 611.899 -0.68318 -2.95916 0
M  V30 6521 H 609.484 -0.399784 -1.43952 0
M  V30 6522 H 611.366 1.57911 -3.90694 0
M  V30 6523 H 610.041 1.7498 -2.7233 0
M  V30 6524 H 608.948 -0.339566 -3.72556 0
M  V30 6525 H 610.281 -0.427154 -4.90343 0
M  V30 6526 N 611.933 1.52934 -0.380664 0
M  V30 6527 C 612.881 2.27727 0.47361 0
M  V30 6528 C 613.875 1.31288 1.0705 0
M  V30 6529 O 615.081 1.4886 1.01197 0
M  V30 6530 H 611.456 0.732189 0.171475 0
M  V30 6531 H 613.427 2.97864 -0.178785 0
M  V30 6532 C 612.176 3.0904 1.59341 0
M  V30 6533 H 611.499 3.831 1.14343 0
M  V30 6534 H 612.939 3.64527 2.16555 0
M  V30 6535 C 611.398 2.20813 2.54447 0
M  V30 6536 O 611.928 1.82907 3.57642 0
M  V30 6537 N 610.134 1.85145 2.23986 0
M  V30 6538 H 609.681 2.16169 1.40103 0
M  V30 6539 H 609.639 1.26402 2.87871 0
M  V30 6540 N 613.412 0.11024 1.57214 0
M  V30 6541 C 614.322 -0.857077 2.18383 0
M  V30 6542 C 615.338 -1.29915 1.1575 0
M  V30 6543 O 616.514 -1.36394 1.48184 0
M  V30 6544 C 613.579 -2.09264 2.76423 0
M  V30 6545 C 612.64 -1.70333 3.94063 0
M  V30 6546 C 611.873 -2.87999 4.49324 0
M  V30 6547 O 612.096 -4.0317 4.03497 0
M  V30 6548 O 611.03 -2.6559 5.40135 0
M  V30 6549 H 614.856 -0.366561 3.0148 0
M  V30 6550 H 612.441 -0.114914 1.48957 0
M  V30 6551 H 614.323 -2.81644 3.13456 0
M  V30 6552 H 612.998 -2.57339 1.96363 0
M  V30 6553 H 611.905 -0.950864 3.61814 0
M  V30 6554 H 613.238 -1.27007 4.75531 0
M  V30 6555 N 614.89 -1.56749 -0.16351 0
M  V30 6556 C 615.837 -1.97011 -1.2023 0
M  V30 6557 C 616.807 -0.835186 -1.43575 0
M  V30 6558 O 617.992 -1.09594 -1.56185 0
M  V30 6559 C 615.132 -2.34186 -2.53478 0
M  V30 6560 C 614.245 -3.60893 -2.37446 0
M  V30 6561 C 613.38 -3.87245 -3.63614 0
M  V30 6562 C 612.419 -5.07274 -3.42548 0
M  V30 6563 N 611.556 -5.29719 -4.60806 0
M  V30 6564 H 616.396 -2.85562 -0.851958 0
M  V30 6565 H 613.933 -1.41292 -0.409257 0
M  V30 6566 H 615.891 -2.53764 -3.31149 0
M  V30 6567 H 614.521 -1.48736 -2.86492 0
M  V30 6568 H 613.573 -3.49185 -1.50911 0
M  V30 6569 H 614.885 -4.48722 -2.1783 0
M  V30 6570 H 614.039 -4.07232 -4.49719 0
M  V30 6571 H 612.778 -2.97806 -3.86216 0
M  V30 6572 H 611.783 -4.87177 -2.5483 0
M  V30 6573 H 613.008 -5.98251 -3.2136 0
M  V30 6574 H 610.954 -4.43233 -4.83612 0
M  V30 6575 H 610.871 -6.11786 -4.44132 0
M  V30 6576 H 612.139 -5.54192 -5.48171 0
M  V30 6577 N 616.368 0.432326 -1.51554 0
M  V30 6578 C 617.315 1.52512 -1.7323 0
M  V30 6579 C 618.285 1.55863 -0.5741 0
M  V30 6580 O 619.47 1.72796 -0.809093 0
M  V30 6581 C 616.61 2.90183 -1.86783 0
M  V30 6582 C 615.723 2.96322 -3.14352 0
M  V30 6583 C 614.858 4.25147 -3.18471 0
M  V30 6584 C 613.897 4.25172 -4.40335 0
M  V30 6585 N 613.034 5.45529 -4.41975 0
M  V30 6586 H 617.874 1.33332 -2.66508 0
M  V30 6587 H 615.411 0.647613 -1.32077 0
M  V30 6588 H 617.369 3.70071 -1.92623 0
M  V30 6589 H 615.999 3.0791 -0.969087 0
M  V30 6590 H 615.051 2.09066 -3.17798 0
M  V30 6591 H 616.363 2.92203 -4.04251 0
M  V30 6592 H 615.517 5.13411 -3.23255 0
M  V30 6593 H 614.256 4.31929 -2.2647 0
M  V30 6594 H 613.261 3.353 -4.35723 0
M  V30 6595 H 614.486 4.20049 -5.33606 0
M  V30 6596 H 612.432 5.53024 -3.52847 0
M  V30 6597 H 612.349 5.43311 -5.25689 0
M  V30 6598 H 613.617 6.35812 -4.50958 0
M  V30 6599 N 617.846 1.41785 0.688094 0
M  V30 6600 C 618.809 1.43936 1.78368 0
M  V30 6601 C 619.809 0.328866 1.57401 0
M  V30 6602 O 620.999 0.589093 1.63937 0
M  V30 6603 C 618.131 1.25804 3.16838 0
M  V30 6604 H 619.324 2.41472 1.77852 0
M  V30 6605 H 616.877 1.28037 0.896448 0
M  V30 6606 H 617.612 0.291386 3.22988 0
M  V30 6607 H 617.397 2.06272 3.33458 0
M  V30 6608 H 618.887 1.30162 3.96797 0
M  V30 6609 N 619.324 -0.923095 1.27737 0
M  V30 6610 C 620.601 -1.64989 1.05062 0
M  V30 6611 C 620.981 -2.07018 -0.413124 0
M  V30 6612 O 620.329 -1.80797 -1.39731 0
M  V30 6613 C 620.539 -2.84847 2.01652 0
M  V30 6614 C 621.887 -3.56083 2.31279 0
M  V30 6615 O 622.911 -2.94981 1.99662 0
M  V30 6616 O 621.77 -4.66182 2.85196 0
M  V30 6617 H 618.864 -0.723357 0.400853 0
M  V30 6618 H 621.41 -0.973224 1.3902 0
M  V30 6619 H 620.182 -2.50814 3.00347 0
M  V30 6620 H 619.805 -3.60231 1.68284 0
M  V30 6621 N 620.802 -1.09834 -1.13024 0
M  V30 6622 C 621.75 -0.736283 -2.20639 0
M  V30 6623 C 622.744 0.264725 -1.67319 0
M  V30 6624 O 623.95 0.125745 -1.7956 0
M  V30 6625 H 620.325 -0.220136 -0.719058 0
M  V30 6626 H 622.296 -1.65295 -2.48436 0
M  V30 6627 C 621.045 -0.177544 -3.47246 0
M  V30 6628 H 620.368 -0.939009 -3.88616 0
M  V30 6629 H 621.808 0.0378007 -4.23983 0
M  V30 6630 C 620.267 1.08824 -3.1884 0
M  V30 6631 O 620.797 2.1708 -3.37993 0
M  V30 6632 N 619.003 1.00442 -2.7269 0
M  V30 6633 H 618.55 0.123383 -2.57304 0
M  V30 6634 H 618.508 1.85206 -2.5406 0
M  V30 6635 N 622.28 1.30327 -0.886154 0
M  V30 6636 C 623.227 2.28099 -0.352069 0
M  V30 6637 C 624.197 1.56433 0.558397 0
M  V30 6638 O 625.382 1.84492 0.486561 0
M  V30 6639 C 622.522 3.42456 0.426346 0
M  V30 6640 C 621.635 4.28938 -0.513472 0
M  V30 6641 C 620.77 5.30458 0.280657 0
M  V30 6642 C 619.809 6.0859 -0.654556 0
M  V30 6643 N 618.946 7.02022 0.104322 0
M  V30 6644 H 623.786 2.73166 -1.19097 0
M  V30 6645 H 621.323 1.34367 -0.598662 0
M  V30 6646 H 623.281 4.07518 0.893587 0
M  V30 6647 H 621.911 2.98455 1.22981 0
M  V30 6648 H 620.963 3.64173 -1.09921 0
M  V30 6649 H 622.275 4.83399 -1.2299 0
M  V30 6650 H 621.429 6.01273 0.8097 0
M  V30 6651 H 620.168 4.76693 1.03029 0
M  V30 6652 H 619.173 5.36651 -1.19522 0
M  V30 6653 H 620.398 6.64443 -1.4033 0
M  V30 6654 H 618.344 6.50645 0.836472 0
M  V30 6655 H 618.261 7.53979 -0.552453 0
M  V30 6656 H 619.529 7.77077 0.614069 0
M  V30 6657 N 623.758 0.647228 1.43697 0
M  V30 6658 C 624.705 -0.0480092 2.3075 0
M  V30 6659 C 625.675 -0.820705 1.44408 0
M  V30 6660 O 626.86 -0.798515 1.73287 0
M  V30 6661 C 624 -1.01259 3.2991 0
M  V30 6662 C 623.113 -0.236629 4.31351 0
M  V30 6663 C 622.248 -1.19447 5.17596 0
M  V30 6664 C 621.287 -0.408595 6.10735 0
M  V30 6665 N 620.424 -1.31772 6.89623 0
M  V30 6666 H 625.264 0.700238 2.89656 0
M  V30 6667 H 622.801 0.357082 1.427 0
M  V30 6668 H 624.759 -1.58538 3.85903 0
M  V30 6669 H 623.389 -1.72778 2.72667 0
M  V30 6670 H 622.441 0.452353 3.77701 0
M  V30 6671 H 623.753 0.374731 4.9739 0
M  V30 6672 H 622.907 -1.83809 5.78186 0
M  V30 6673 H 621.646 -1.83975 4.51669 0
M  V30 6674 H 620.651 0.24841 5.49239 0
M  V30 6675 H 621.876 0.232188 6.78703 0
M  V30 6676 H 619.822 -1.94991 6.2635 0
M  V30 6677 H 619.739 -0.760779 7.52162 0
M  V30 6678 H 621.007 -1.94967 7.54724 0
M  V30 6679 N 625.236 -1.5273 0.388769 0
M  V30 6680 C 626.183 -2.26437 -0.446639 0
M  V30 6681 C 627.153 -1.28025 -1.05824 0
M  V30 6682 O 628.338 -1.56852 -1.08637 0
M  V30 6683 C 625.478 -3.07407 -1.56828 0
M  V30 6684 C 624.591 -4.20747 -0.979589 0
M  V30 6685 C 623.726 -4.89113 -2.07224 0
M  V30 6686 C 622.765 -5.94447 -1.45942 0
M  V30 6687 N 621.902 -6.56411 -2.49135 0
M  V30 6688 H 626.742 -2.97404 0.18837 0
M  V30 6689 H 624.279 -1.46727 0.104725 0
M  V30 6690 H 626.237 -3.52642 -2.22934 0
M  V30 6691 H 624.867 -2.3865 -2.17361 0
M  V30 6692 H 623.919 -3.7983 -0.208151 0
M  V30 6693 H 625.231 -4.9637 -0.491747 0
M  V30 6694 H 624.385 -5.3765 -2.81101 0
M  V30 6695 H 623.124 -4.13013 -2.59368 0
M  V30 6696 H 622.129 -5.4525 -0.705894 0
M  V30 6697 H 623.354 -6.7248 -0.945932 0
M  V30 6698 H 621.3 -5.83152 -3.00449 0
M  V30 6699 H 621.217 -7.27645 -2.05105 0
M  V30 6700 H 622.485 -7.09592 -3.22644 0
M  V30 6701 N 626.714 -0.118576 -1.57153 0
M  V30 6702 C 627.939 0.550582 -1.99958 0
M  V30 6703 C 628.364 1.59458 -0.997736 0
M  V30 6704 O 627.722 1.81274 0.0306269 0
M  V30 6705 C 627.77 1.15379 -3.41643 0
M  V30 6706 O 626.874 2.26932 -3.44348 0
M  V30 6707 H 626.215 0.137567 -0.649593 0
M  V30 6708 H 628.745 -0.206926 -2.03551 0
M  V30 6709 H 628.755 1.48942 -3.79843 0
M  V30 6710 H 627.43 0.389087 -4.14076 0
M  V30 6711 H 626.007 1.94812 -3.17967 0
M  V30 6712 N 628.193 1.56834 0.155195 0
M  V30 6713 C 629.14 1.97646 1.19184 0
M  V30 6714 C 630.11 0.842788 1.4313 0
M  V30 6715 O 631.295 1.1042 1.55602 0
M  V30 6716 C 628.435 2.35527 2.52232 0
M  V30 6717 C 627.548 3.62147 2.35529 0
M  V30 6718 C 626.683 3.89167 3.61555 0
M  V30 6719 C 625.722 5.09084 3.39853 0
M  V30 6720 N 624.859 5.32156 4.5799 0
M  V30 6721 H 629.699 2.8601 0.836802 0
M  V30 6722 H 627.236 1.41507 0.401758 0
M  V30 6723 H 629.194 2.55516 3.29799 0
M  V30 6724 H 627.824 1.50253 2.85699 0
M  V30 6725 H 626.876 3.4998 1.49057 0
M  V30 6726 H 628.188 4.49871 2.15448 0
M  V30 6727 H 627.342 4.09611 4.47553 0
M  V30 6728 H 626.081 2.9985 3.84632 0
M  V30 6729 H 625.086 4.88522 2.52243 0
M  V30 6730 H 626.311 5.99947 3.18183 0
M  V30 6731 H 624.257 4.45791 4.81255 0
M  V30 6732 H 624.174 6.14133 4.40882 0
M  V30 6733 H 625.442 5.57091 5.45225 0
M  V30 6734 N 629.671 -0.424282 1.51781 0
M  V30 6735 C 630.618 -1.51591 1.74037 0
M  V30 6736 C 631.588 -1.55556 0.582358 0
M  V30 6737 O 632.773 -1.72364 0.818245 0
M  V30 6738 C 629.913 -2.89188 1.8832 0
M  V30 6739 C 629.026 -2.9465 3.1592 0
M  V30 6740 C 628.161 -4.23452 3.20721 0
M  V30 6741 C 627.2 -4.22831 4.42584 0
M  V30 6742 N 626.337 -5.43178 4.44862 0
M  V30 6743 H 631.177 -1.31917 2.67212 0
M  V30 6744 H 628.714 -0.640599 1.32419 0
M  V30 6745 H 630.672 -3.69044 1.94583 0
M  V30 6746 H 629.302 -3.07392 0.985402 0
M  V30 6747 H 628.354 -2.07378 3.18902 0
M  V30 6748 H 629.666 -2.90055 4.05795 0
M  V30 6749 H 628.82 -5.1169 3.25973 0
M  V30 6750 H 627.559 -4.30722 2.28757 0
M  V30 6751 H 626.564 -3.32984 4.37495 0
M  V30 6752 H 627.789 -4.17213 5.35826 0
M  V30 6753 H 625.735 -5.51145 3.55775 0
M  V30 6754 H 625.652 -5.40515 5.28563 0
M  V30 6755 H 626.92 -6.33412 4.54324 0
M  V30 6756 N 631.149 -1.42148 -0.680565 0
M  V30 6757 C 632.096 -1.45175 -1.79424 0
M  V30 6758 C 633.066 -0.304352 -1.63288 0
M  V30 6759 O 634.251 -0.507591 -1.83924 0
M  V30 6760 C 631.391 -1.35429 -3.17416 0
M  V30 6761 C 630.504 -2.60158 -3.4488 0
M  V30 6762 C 629.639 -2.42596 -4.72568 0
M  V30 6763 C 628.678 -3.62727 -4.93047 0
M  V30 6764 N 627.815 -3.44143 -6.11973 0
M  V30 6765 H 632.655 -2.40349 -1.76172 0
M  V30 6766 H 630.192 -1.19334 -0.860107 0
M  V30 6767 H 632.15 -1.27777 -3.97151 0
M  V30 6768 H 630.78 -0.438536 -3.19807 0
M  V30 6769 H 629.832 -2.78199 -2.5944 0
M  V30 6770 H 631.144 -3.49473 -3.55908 0
M  V30 6771 H 630.298 -2.32497 -5.60384 0
M  V30 6772 H 629.037 -1.50761 -4.63813 0
M  V30 6773 H 628.042 -3.73264 -4.03676 0
M  V30 6774 H 629.267 -4.55534 -5.03652 0
M  V30 6775 H 627.213 -2.5502 -6.04401 0
M  V30 6776 H 627.13 -4.27041 -6.23836 0
M  V30 6777 H 628.398 -3.37845 -7.02482 0
M  V30 6778 N 632.627 0.916307 -1.28225 0
M  V30 6779 C 633.574 2.01841 -1.11932 0
M  V30 6780 C 634.544 1.66091 -0.0171604 0
M  V30 6781 O 635.729 1.89934 -0.181617 0
M  V30 6782 C 632.869 3.36065 -0.784504 0
M  V30 6783 C 631.982 3.847 -1.96544 0
M  V30 6784 C 631.117 5.07423 -1.57149 0
M  V30 6785 C 630.156 5.48384 -2.71922 0
M  V30 6786 N 629.293 6.62298 -2.33037 0
M  V30 6787 H 634.133 2.1511 -2.06232 0
M  V30 6788 H 631.67 1.05366 -1.02647 0
M  V30 6789 H 633.628 4.13272 -0.571148 0
M  V30 6790 H 632.258 3.22571 0.121565 0
M  V30 6791 H 631.31 3.03673 -2.291 0
M  V30 6792 H 632.622 4.1102 -2.82603 0
M  V30 6793 H 631.776 5.92165 -1.32004 0
M  V30 6794 H 630.515 4.82906 -0.682153 0
M  V30 6795 H 629.52 4.62184 -2.97768 0
M  V30 6796 H 630.745 5.7489 -3.61494 0
M  V30 6797 H 628.691 6.39416 -1.4657 0
M  V30 6798 H 628.608 6.8833 -3.12631 0
M  V30 6799 H 629.876 7.50352 -2.11169 0
M  V30 6800 N 634.105 1.10431 1.1244 0
M  V30 6801 C 635.052 0.753103 2.18167 0
M  V30 6802 C 636.022 -0.270549 1.63882 0
M  V30 6803 O 637.207 -0.149837 1.90211 0
M  V30 6804 C 634.347 0.191046 3.44571 0
M  V30 6805 C 633.46 1.26999 4.12911 0
M  V30 6806 C 632.595 0.669586 5.26963 0
M  V30 6807 C 631.634 1.72912 5.87169 0
M  V30 6808 N 630.771 1.14898 6.92635 0
M  V30 6809 H 635.611 1.65892 2.47556 0
M  V30 6810 H 633.148 0.828631 1.21541 0
M  V30 6811 H 635.106 -0.152712 4.1692 0
M  V30 6812 H 633.736 -0.677997 3.15599 0
M  V30 6813 H 632.788 1.73087 3.3874 0
M  V30 6814 H 634.1 2.07204 4.53727 0
M  V30 6815 H 633.254 0.275274 6.06075 0
M  V30 6816 H 631.993 -0.163895 4.87425 0
M  V30 6817 H 630.998 2.13286 5.06744 0
M  V30 6818 H 632.223 2.56544 6.28778 0
M  V30 6819 H 630.169 0.336956 6.55134 0
M  V30 6820 H 630.086 1.88786 7.32049 0
M  V30 6821 H 631.354 0.78121 7.75576 0
M  V30 6822 N 635.583 -1.29855 0.893053 0
M  V30 6823 C 636.808 -2.00512 0.530066 0
M  V30 6824 C 637.233 -1.66446 -0.876199 0
M  V30 6825 O 636.591 -0.885446 -1.58207 0
M  V30 6826 C 636.639 -3.53308 0.721505 0
M  V30 6827 O 635.743 -4.11764 -0.228994 0
M  V30 6828 H 635.084 -0.630617 0.207891 0
M  V30 6829 H 637.614 -1.6551 1.20282 0
M  V30 6830 H 637.624 -4.03206 0.623599 0
M  V30 6831 H 636.299 -3.77439 1.74678 0
M  V30 6832 H 634.876 -3.72805 -0.0841034 0
M  V30 6833 N 637.061 -0.65484 -1.43351 0
M  V30 6834 C 638.308 -0.168892 -2.01794 0
M  V30 6835 C 638.636 1.2177 -1.51665 0
M  V30 6836 O 637.891 1.82717 -0.70092 0
M  V30 6837 C 638.19 -0.130424 -3.57162 0
M  V30 6838 C 637.856 -1.45898 -4.26643 0
M  V30 6839 C 636.518 -1.82279 -4.4534 0
M  V30 6840 C 638.87 -2.33485 -4.65976 0
M  V30 6841 C 636.198 -3.0591 -5.00635 0
M  V30 6842 C 638.55 -3.5641 -5.22642 0
M  V30 6843 C 637.214 -3.92985 -5.39555 0
M  V30 6844 H 636.484 -0.061802 -0.738418 0
M  V30 6845 H 639.131 -0.845869 -1.71806 0
M  V30 6846 H 637.436 0.630008 -3.86702 0
M  V30 6847 H 639.133 0.262465 -4.0014 0
M  V30 6848 H 635.723 -1.16591 -4.12437 0
M  V30 6849 H 639.907 -2.06668 -4.51223 0
M  V30 6850 H 635.163 -3.34295 -5.11915 0
M  V30 6851 H 639.337 -4.24495 -5.52066 0
M  V30 6852 H 636.964 -4.88862 -5.82167 0
M  V30 6853 N 638.539 1.52521 -0.396863 0
M  V30 6854 C 639.786 2.01672 0.182898 0
M  V30 6855 C 640.114 1.28302 1.46181 0
M  V30 6856 O 639.369 0.374118 1.92091 0
M  V30 6857 C 639.668 3.5403 0.489677 0
M  V30 6858 C 639.334 4.45456 -0.698581 0
M  V30 6859 C 637.996 4.70166 -1.02454 0
M  V30 6860 C 640.348 4.99354 -1.49316 0
M  V30 6861 C 637.676 5.46024 -2.1465 0
M  V30 6862 C 640.028 5.76439 -2.60579 0
M  V30 6863 C 638.692 5.99426 -2.93675 0
M  V30 6864 H 637.962 0.737971 0.066927 0
M  V30 6865 H 640.609 1.83853 -0.535764 0
M  V30 6866 H 638.914 3.69963 1.28976 0
M  V30 6867 H 640.611 3.8956 0.951018 0
M  V30 6868 H 637.201 4.26392 -0.434525 0
M  V30 6869 H 641.385 4.80182 -1.25457 0
M  V30 6870 H 636.641 5.62046 -2.40654 0
M  V30 6871 H 640.815 6.17202 -3.22544 0
M  V30 6872 H 638.442 6.57988 -3.80731 0
M  V30 6873 N 640.017 0.126909 1.57088 0
M  V30 6874 C 640.949 -0.850973 2.12817 0
M  V30 6875 C 641.962 -1.22457 1.07276 0
M  V30 6876 O 643.151 -1.17215 1.34622 0
M  V30 6877 C 640.251 -2.15039 2.61938 0
M  V30 6878 C 639.424 -1.94726 3.91664 0
M  V30 6879 C 638.483 -3.0847 4.26301 0
M  V30 6880 O 637.509 -2.81038 4.94981 0
M  V30 6881 N 638.711 -4.35116 3.84259 0
M  V30 6882 H 641.476 -0.3748 2.97347 0
M  V30 6883 H 639.037 -0.0572793 1.61799 0
M  V30 6884 H 641.029 -2.90141 2.82135 0
M  V30 6885 H 639.599 -2.5398 1.82244 0
M  V30 6886 H 638.819 -1.03772 3.80296 0
M  V30 6887 H 640.107 -1.78469 4.76473 0
M  V30 6888 H 639.505 -4.60276 3.2888 0
M  V30 6889 H 638.062 -5.07064 4.09548 0
M  V30 6890 N 641.495 -1.56914 -0.146875 0
M  V30 6891 C 642.428 -1.93425 -1.21087 0
M  V30 6892 C 643.406 -0.800106 -1.41552 0
M  V30 6893 O 644.59 -1.05572 -1.56162 0
M  V30 6894 C 641.717 -2.20639 -2.56975 0
M  V30 6895 C 640.763 -3.43279 -2.53104 0
M  V30 6896 S 641.596 -4.96836 -1.99786 0
M  V30 6897 C 642.752 -5.27172 -3.37403 0
M  V30 6898 H 642.985 -2.8337 -0.899378 0
M  V30 6899 H 640.518 -1.50322 -0.352494 0
M  V30 6900 H 642.476 -2.36998 -3.35175 0
M  V30 6901 H 641.137 -1.31357 -2.85314 0
M  V30 6902 H 640.33 -3.59599 -3.53136 0
M  V30 6903 H 639.932 -3.26163 -1.83012 0
M  V30 6904 H 642.224 -5.20647 -4.33513 0
M  V30 6905 H 643.167 -6.28626 -3.25937 0
M  V30 6906 H 643.575 -4.54687 -3.34544 0
M  V30 6907 N 642.974 0.416227 -1.52004 0
M  V30 6908 C 643.904 1.51365 -1.77795 0
M  V30 6909 C 644.885 1.58059 -0.628601 0
M  V30 6910 O 646.07 1.73447 -0.873478 0
M  V30 6911 C 643.2 2.89256 -1.92219 0
M  V30 6912 C 642.154 2.97415 -3.0778 0
M  V30 6913 C 641.48 4.37492 -3.07417 0
M  V30 6914 C 642.78 2.69551 -4.47369 0
M  V30 6915 H 644.474 1.30033 -2.69688 0
M  V30 6916 H 642.02 0.624112 -1.29772 0
M  V30 6917 H 643.973 3.66008 -2.08845 0
M  V30 6918 H 642.697 3.11866 -0.969917 0
M  V30 6919 H 641.356 2.23107 -2.90893 0
M  V30 6920 H 641.004 4.571 -2.09925 0
M  V30 6921 H 640.704 4.43877 -3.85029 0
M  V30 6922 H 642.228 5.16188 -3.26162 0
M  V30 6923 H 643.642 3.36028 -4.64497 0
M  V30 6924 H 642.039 2.87321 -5.26846 0
M  V30 6925 H 643.109 1.65029 -4.55953 0
M  V30 6926 N 644.452 1.42507 0.673017 0
M  V30 6927 C 645.7 1.42789 1.43023 0
M  V30 6928 C 646.021 0.0459738 1.94946 0
M  V30 6929 O 645.291 -0.915765 1.73178 0
M  V30 6930 H 643.871 0.525657 0.530748 0
M  V30 6931 H 646.533 1.77944 0.795113 0
M  V30 6932 H 645.629 2.12872 2.28237 0
M  V30 6933 N 645.93 -0.909495 1.28709 0
M  V30 6934 C 647.17 -1.67344 1.17368 0
M  V30 6935 C 647.534 -1.90058 -0.272419 0
M  V30 6936 O 648.735 -2.63944 -0.508617 0
M  V30 6937 C 647.006 -2.99219 1.95455 0
M  V30 6938 S 648.565 -3.90295 2.00538 0
M  V30 6939 H 645.383 -0.57466 0.418672 0
M  V30 6940 H 647.985 -1.08144 1.62865 0
M  V30 6941 H 646.689 -2.80393 2.9968 0
M  V30 6942 H 646.22 -3.63464 1.50524 0
M  V30 6943 H 648.235 -4.83511 1.11496 0
M  V30 6944 N 647.408 -1.11026 -1.11852 0
M  V30 6945 C 648.356 -0.759643 -2.19846 0
M  V30 6946 C 649.35 0.246964 -1.6759 0
M  V30 6947 O 650.556 0.106693 -1.79684 0
M  V30 6948 H 646.931 -0.22775 -0.716683 0
M  V30 6949 H 648.902 -1.6792 -2.46669 0
M  V30 6950 C 647.651 -0.214364 -3.47039 0
M  V30 6951 H 646.974 -0.980175 -3.87599 0
M  V30 6952 H 648.414 -0.00717047 -4.23999 0
M  V30 6953 C 646.873 1.05436 -3.19976 0
M  V30 6954 O 647.403 2.13483 -3.40276 0
M  V30 6955 N 645.609 0.975436 -2.7374 0
M  V30 6956 H 645.156 0.0960853 -2.57421 0
M  V30 6957 H 645.114 1.82501 -2.5601 0
M  V30 6958 N 648.886 1.2938 -0.899927 0
M  V30 6959 C 650.133 1.9555 -0.525963 0
M  V30 6960 C 650.461 1.70945 0.927789 0
M  V30 6961 O 649.716 1.01545 1.67293 0
M  V30 6962 C 650.015 3.49114 -0.765113 0
M  V30 6963 C 649.681 3.93796 -2.19626 0
M  V30 6964 C 648.343 4.05707 -2.58758 0
M  V30 6965 C 650.695 4.16883 -3.12823 0
M  V30 6966 C 648.023 4.38074 -3.90267 0
M  V30 6967 C 650.375 4.50725 -4.4388 0
M  V30 6968 C 649.039 4.60845 -4.82885 0
M  V30 6969 H 648.309 0.715569 -0.192463 0
M  V30 6970 H 650.956 1.53972 -1.13863 0
M  V30 6971 H 649.261 3.91738 -0.069531 0
M  V30 6972 H 650.958 3.98409 -0.455144 0
M  V30 6973 H 647.548 3.85042 -1.88256 0
M  V30 6974 H 651.732 4.07147 -2.83804 0
M  V30 6975 H 646.988 4.44112 -4.20207 0
M  V30 6976 H 651.162 4.67538 -5.16121 0
M  V30 6977 H 648.789 4.85681 -5.84823 0
M  V30 6978 N 650.364 0.662433 1.43002 0
M  V30 6979 C 651.294 -0.00979809 2.33498 0
M  V30 6980 C 652.275 -0.802329 1.49989 0
M  V30 6981 O 653.46 -0.761964 1.78627 0
M  V30 6982 C 650.59 -0.970446 3.33466 0
M  V30 6983 C 649.544 -0.287383 4.27034 0
M  V30 6984 C 648.87 -1.36012 5.17112 0
M  V30 6985 C 650.17 0.82595 5.15728 0
M  V30 6986 H 651.864 0.745959 2.89958 0
M  V30 6987 H 649.41 0.360172 1.39423 0
M  V30 6988 H 651.363 -1.44971 3.95679 0
M  V30 6989 H 650.087 -1.75748 2.75282 0
M  V30 6990 H 648.746 0.17152 3.66199 0
M  V30 6991 H 648.394 -2.13882 4.55262 0
M  V30 6992 H 648.094 -0.908276 5.80538 0
M  V30 6993 H 649.618 -1.84056 5.82199 0
M  V30 6994 H 651.032 0.42845 5.71697 0
M  V30 6995 H 649.429 1.20282 5.87922 0
M  V30 6996 H 650.499 1.68003 4.54866 0
M  V30 6997 N 651.842 -1.52309 0.404946 0
M  V30 6998 C 653.082 -2.03677 -0.171779 0
M  V30 6999 C 653.446 -1.28419 -1.42733 0
M  V30 7000 O 654.647 -1.69991 -2.08222 0
M  V30 7001 C 652.918 -3.54951 -0.417701 0
M  V30 7002 S 654.477 -4.28114 -0.962472 0
M  V30 7003 H 651.295 -0.709445 -0.0469912 0
M  V30 7004 H 653.897 -1.874 0.556901 0
M  V30 7005 H 652.601 -4.07306 0.50295 0
M  V30 7006 H 652.132 -3.75462 -1.17437 0
M  V30 7007 H 654.147 -4.42589 -2.24342 0
M  V30 7008 N 653.32 -0.135238 -1.57019 0
M  V30 7009 C 654.268 0.826099 -2.17436 0
M  V30 7010 C 655.262 1.26378 -1.12805 0
M  V30 7011 O 656.468 1.23363 -1.31079 0
M  V30 7012 H 652.843 0.284568 -0.696078 0
M  V30 7013 H 654.814 0.292212 -2.96966 0
M  V30 7014 C 653.563 2.05991 -2.80112 0
M  V30 7015 H 652.886 1.73209 -3.60331 0
M  V30 7016 H 654.326 2.71225 -3.25903 0
M  V30 7017 C 652.785 2.86027 -1.78017 0
M  V30 7018 O 653.315 3.81971 -1.24344 0
M  V30 7019 N 651.521 2.50332 -1.47588 0
M  V30 7020 H 651.068 1.72377 -1.91426 0
M  V30 7021 H 651.026 3.04177 -0.795228 0
M  V30 7022 N 654.798 1.5699 0.138552 0
M  V30 7023 C 655.745 1.98899 1.17081 0
M  V30 7024 C 656.715 0.857922 1.42228 0
M  V30 7025 O 657.9 1.12065 1.54422 0
M  V30 7026 C 655.04 2.38189 2.4972 0
M  V30 7027 C 654.153 3.64624 2.31674 0
M  V30 7028 C 653.288 3.9298 3.57407 0
M  V30 7029 C 652.327 5.1266 3.34435 0
M  V30 7030 N 651.464 5.36983 4.5232 0
M  V30 7031 H 656.304 2.86881 0.80642 0
M  V30 7032 H 653.841 1.41925 0.386727 0
M  V30 7033 H 655.799 2.59 3.2707 0
M  V30 7034 H 654.429 1.53275 2.84089 0
M  V30 7035 H 653.481 3.51542 1.45337 0
M  V30 7036 H 654.793 4.52131 2.10664 0
M  V30 7037 H 653.947 4.14335 4.43183 0
M  V30 7038 H 652.686 3.03912 3.8143 0
M  V30 7039 H 651.691 4.9117 2.47048 0
M  V30 7040 H 652.916 6.03288 3.11802 0
M  V30 7041 H 650.862 4.50871 4.76499 0
M  V30 7042 H 650.779 6.18775 4.34343 0
M  V30 7043 H 652.047 5.62842 5.39285 0
M  V30 7044 N 656.276 -0.40816 1.52223 0
M  V30 7045 C 657.224 -1.51788 1.76248 0
M  V30 7046 C 658.218 -1.57264 0.629638 0
M  V30 7047 O 659.424 -1.60659 0.811704 0
M  V30 7048 H 655.799 -0.504823 0.557367 0
M  V30 7049 H 657.77 -1.2871 2.69214 0
M  V30 7050 C 656.519 -2.89145 1.93107 0
M  V30 7051 H 655.842 -2.85674 2.79697 0
M  V30 7052 H 657.282 -3.66082 2.13916 0
M  V30 7053 C 655.741 -3.29581 0.698431 0
M  V30 7054 O 656.271 -4.01479 -0.133238 0
M  V30 7055 N 654.477 -2.85651 0.53405 0
M  V30 7056 H 654.024 -2.2731 1.21194 0
M  V30 7057 H 653.982 -3.13065 -0.289387 0
M  V30 7058 N 657.755 -1.42862 -0.66545 0
M  V30 7059 C 659.004 -1.43119 -1.42126 0
M  V30 7060 C 659.317 -0.0545297 -1.95524 0
M  V30 7061 O 660.523 0.0654747 -2.71421 0
M  V30 7062 C 658.979 -2.51797 -2.5715 0
M  V30 7063 C 658.587 -3.95514 -2.10411 0
M  V30 7064 C 660.331 -2.61233 -3.346 0
M  V30 7065 C 658.238 -4.95682 -3.22573 0
M  V30 7066 H 657.168 -0.532349 -0.533966 0
M  V30 7067 H 659.819 -1.68806 -0.719506 0
M  V30 7068 H 658.201 -2.19292 -3.29738 0
M  V30 7069 H 659.375 -4.3742 -1.44915 0
M  V30 7070 H 657.69 -3.90012 -1.45874 0
M  V30 7071 H 660.287 -3.33248 -4.18151 0
M  V30 7072 H 660.63 -1.65896 -3.81817 0
M  V30 7073 H 661.163 -2.9298 -2.69087 0
M  V30 7074 H 657.902 -5.92529 -2.80338 0
M  V30 7075 H 657.422 -4.58399 -3.86821 0
M  V30 7076 H 659.101 -5.17828 -3.87896 0
M  V30 7077 N 659.233 0.902656 -1.29189 0
M  V30 7078 C 660.143 2.03946 -1.15944 0
M  V30 7079 C 661.159 1.738 -0.0833803 0
M  V30 7080 O 662.335 1.9923 -0.29487 0
M  V30 7081 C 659.4 3.36519 -0.834006 0
M  V30 7082 C 658.461 3.80203 -1.9936 0
M  V30 7083 C 657.694 5.06449 -1.68359 0
M  V30 7084 O 657.917 5.67202 -0.603141 0
M  V30 7085 O 656.851 5.46114 -2.53067 0
M  V30 7086 H 660.677 2.18043 -2.11403 0
M  V30 7087 H 658.262 1.02584 -1.08613 0
M  V30 7088 H 660.144 4.16089 -0.666949 0
M  V30 7089 H 658.819 3.23573 0.0908245 0
M  V30 7090 H 657.726 3.01413 -2.21588 0
M  V30 7091 H 659.059 3.97729 -2.89952 0
M  V30 7092 N 660.711 1.11618 1.11262 0
M  V30 7093 C 661.939 0.888739 1.8684 0
M  V30 7094 C 662.354 -0.561558 1.80255 0
M  V30 7095 O 661.711 -1.38782 1.18515 0
M  V30 7096 C 661.762 1.34422 3.35579 0
M  V30 7097 O 661.483 2.73766 3.42029 0
M  V30 7098 C 662.984 1.15246 4.28058 0
M  V30 7099 H 660.204 0.318152 0.590779 0
M  V30 7100 H 662.748 1.48398 1.40707 0
M  V30 7101 H 660.903 0.79239 3.7921 0
M  V30 7102 H 661.317 2.9355 4.34659 0
M  V30 7103 H 662.791 1.52015 5.30656 0
M  V30 7104 H 663.268 0.0922007 4.39103 0
M  V30 7105 H 663.874 1.69136 3.90222 0
M  V30 7106 N 662.189 -1.289 0.906776 0
M  V30 7107 C 663.466 -1.90221 0.455537 0
M  V30 7108 C 663.846 -1.82251 -1.06527 0
M  V30 7109 O 663.194 -1.25385 -1.91026 0
M  V30 7110 C 663.404 -3.35015 0.97806 0
M  V30 7111 C 664.752 -4.12018 1.02598 0
M  V30 7112 O 665.776 -3.43947 0.926218 0
M  V30 7113 O 664.635 -5.33677 1.17689 0
M  V30 7114 H 661.729 -0.814505 0.143214 0
M  V30 7115 H 664.275 -1.37317 0.997104 0
M  V30 7116 H 663.047 -3.35006 2.02204 0
M  V30 7117 H 662.67 -3.95408 0.416914 0
M  V30 7118 N 663.667 -0.670007 -1.42649 0
M  V30 7119 C 664.944 -0.119451 -1.95235 0
M  V30 7120 C 665.324 1.36461 -1.61064 0
M  V30 7121 O 664.672 2.09843 -0.904329 0
M  V30 7122 C 664.882 -0.383498 -3.46887 0
M  V30 7123 C 666.23 -0.297431 -4.23557 0
M  V30 7124 O 667.254 -0.31698 -3.54787 0
M  V30 7125 O 666.113 -0.235507 -5.45992 0
M  V30 7126 H 663.207 -8.85474e-05 -0.827 0
M  V30 7127 H 665.753 -0.744406 -1.52501 0
M  V30 7128 H 664.525 -1.41174 -3.64946 0
M  V30 7129 H 664.148 0.273702 -3.96657 0
M  V30 7130 N 665.145 1.52092 -0.413018 0
M  V30 7131 C 666.055 2.30858 0.417318 0
M  V30 7132 C 667.071 1.38746 1.05003 0
M  V30 7133 O 668.247 1.71821 1.05069 0
M  V30 7134 C 665.312 3.11756 1.51687 0
M  V30 7135 C 664.373 4.19613 0.906825 0
M  V30 7136 C 663.606 4.96644 1.95399 0
M  V30 7137 O 663.829 4.7402 3.17271 0
M  V30 7138 O 662.763 5.81385 1.55805 0
M  V30 7139 H 666.589 3.02865 -0.225028 0
M  V30 7140 H 664.174 1.48358 -0.176126 0
M  V30 7141 H 666.056 3.62122 2.15512 0
M  V30 7142 H 664.731 2.42539 2.14375 0
M  V30 7143 H 663.638 3.73385 0.231183 0
M  V30 7144 H 664.971 4.91134 0.323814 0
M  V30 7145 N 666.623 0.143563 1.56945 0
M  V30 7146 C 667.533 -0.810562 2.20152 0
M  V30 7147 C 668.549 -1.27431 1.1848 0
M  V30 7148 O 669.725 -1.33221 1.51044 0
M  V30 7149 C 666.79 -2.03353 2.80799 0
M  V30 7150 C 665.851 -1.61936 3.97587 0
M  V30 7151 C 665.084 -2.78403 4.55332 0
M  V30 7152 O 665.307 -3.94521 4.11958 0
M  V30 7153 O 664.241 -2.54073 5.45647 0
M  V30 7154 H 668.067 -0.30253 3.02189 0
M  V30 7155 H 665.652 -0.0832925 1.49168 0
M  V30 7156 H 667.534 -2.74932 3.19359 0
M  V30 7157 H 666.209 -2.53116 2.01777 0
M  V30 7158 H 665.116 -0.873904 3.6375 0
M  V30 7159 H 666.449 -1.16892 4.78118 0
M  V30 7160 N 668.101 -1.57061 -0.130224 0
M  V30 7161 C 669.011 -2.02802 -1.17934 0
M  V30 7162 C 670.027 -0.946378 -1.46013 0
M  V30 7163 O 671.203 -1.25708 -1.57351 0
M  V30 7164 C 668.268 -2.41368 -2.48882 0
M  V30 7165 C 667.329 -3.63561 -2.28301 0
M  V30 7166 C 666.562 -4.00279 -3.53005 0
M  V30 7167 O 666.785 -3.37463 -4.59864 0
M  V30 7168 O 665.719 -4.93441 -3.44673 0
M  V30 7169 H 669.545 -2.92394 -0.820958 0
M  V30 7170 H 667.13 -1.45475 -0.340197 0
M  V30 7171 H 669.012 -2.66958 -3.26054 0
M  V30 7172 H 667.687 -1.54926 -2.84217 0
M  V30 7173 H 666.594 -3.43136 -1.49025 0
M  V30 7174 H 667.927 -4.50673 -1.97875 0
M  V30 7175 N 669.579 0.400081 -1.52437 0
M  V30 7176 C 670.807 1.16768 -1.70801 0
M  V30 7177 C 671.222 1.84036 -0.421462 0
M  V30 7178 O 670.579 1.72242 0.603228 0
M  V30 7179 C 670.63 2.22403 -2.8499 0
M  V30 7180 O 670.351 1.57879 -4.08663 0
M  V30 7181 C 671.852 3.11974 -3.1494 0
M  V30 7182 H 669.072 0.350533 -0.57216 0
M  V30 7183 H 671.616 0.469534 -1.99037 0
M  V30 7184 H 669.771 2.87871 -2.59247 0
M  V30 7185 H 670.185 2.27982 -4.7236 0
M  V30 7186 H 671.659 3.82148 -3.9833 0
M  V30 7187 H 672.136 3.74858 -2.28863 0
M  V30 7188 H 672.742 2.52165 -3.42481 0
M  V30 7189 N 671.057 1.43213 0.657864 0
M  V30 7190 C 671.987 1.50815 1.78262 0
M  V30 7191 C 672.968 0.363211 1.66177 0
M  V30 7192 O 674.153 0.579806 1.85343 0
M  V30 7193 C 671.283 1.42625 3.16663 0
M  V30 7194 C 670.237 2.5532 3.43505 0
M  V30 7195 C 669.563 2.32184 4.81658 0
M  V30 7196 C 670.863 3.97583 3.38711 0
M  V30 7197 H 672.557 2.44954 1.72157 0
M  V30 7198 H 670.103 1.17896 0.82683 0
M  V30 7199 H 672.056 1.46548 3.95097 0
M  V30 7200 H 670.78 0.449877 3.23487 0
M  V30 7201 H 669.439 2.50742 2.6744 0
M  V30 7202 H 669.087 1.32801 4.85153 0
M  V30 7203 H 668.787 3.07724 5.00579 0
M  V30 7204 H 670.311 2.37883 5.62356 0
M  V30 7205 H 671.725 4.03673 4.07089 0
M  V30 7206 H 670.122 4.73112 3.69168 0
M  V30 7207 H 671.192 4.23049 2.36976 0
M  V30 7208 N 672.536 -0.895792 1.29666 0
M  V30 7209 C 673.782 -1.64908 1.18039 0
M  V30 7210 C 674.115 -1.9236 -0.266682 0
M  V30 7211 O 673.39 -1.53682 -1.19214 0
M  V30 7212 C 673.673 -2.99574 1.99819 0
M  V30 7213 C 673.526 -2.79163 3.52687 0
M  V30 7214 C 674.845 -4.00358 1.82761 0
M  V30 7215 H 671.964 -0.598437 0.430165 0
M  V30 7216 H 674.606 -1.03736 1.59182 0
M  V30 7217 H 672.756 -3.51786 1.64859 0
M  V30 7218 H 674.428 -2.33821 3.9765 0
M  V30 7219 H 672.671 -2.13871 3.77414 0
M  V30 7220 H 673.342 -3.74871 4.05186 0
M  V30 7221 H 675.818 -3.57268 2.13304 0
M  V30 7222 H 674.694 -4.92514 2.42325 0
M  V30 7223 H 674.955 -4.35096 0.783839 0
M  V30 7224 N 674.014 -1.12206 -1.10668 0
M  V30 7225 C 675.26 -0.877172 -1.82848 0
M  V30 7226 C 675.593 0.595571 -1.84842 0
M  V30 7227 O 674.868 1.44013 -1.30731 0
M  V30 7228 C 675.151 -1.44957 -3.29635 0
M  V30 7229 C 675.004 -2.99051 -3.35989 0
M  V30 7230 C 676.323 -1.10714 -4.25946 0
M  V30 7231 H 673.442 -0.320103 -0.663854 0
M  V30 7232 H 676.084 -1.38827 -1.2972 0
M  V30 7233 H 674.234 -1.01488 -3.7501 0
M  V30 7234 H 675.906 -3.51182 -2.99113 0
M  V30 7235 H 674.149 -3.34705 -2.75962 0
M  V30 7236 H 674.82 -3.34194 -4.39339 0
M  V30 7237 H 677.296 -1.48254 -3.88793 0
M  V30 7238 H 676.172 -1.5343 -5.2702 0
M  V30 7239 H 676.433 -0.019 -4.42096 0
M  V30 7240 N 675.492 1.28418 -0.913599 0
M  V30 7241 C 676.439 2.27301 -0.400373 0
M  V30 7242 C 677.409 1.57582 0.52509 0
M  V30 7243 O 678.594 1.85482 0.447318 0
M  V30 7244 C 675.734 3.43284 0.35361 0
M  V30 7245 C 674.847 4.27752 -0.604341 0
M  V30 7246 C 673.982 5.30934 0.168075 0
M  V30 7247 C 673.021 6.07065 -0.783499 0
M  V30 7248 N 672.158 7.02086 -0.0446112 0
M  V30 7249 H 676.998 2.70579 -1.24865 0
M  V30 7250 H 674.535 1.33067 -0.627028 0
M  V30 7251 H 676.493 4.09322 0.806945 0
M  V30 7252 H 675.123 3.00997 1.16623 0
M  V30 7253 H 674.175 3.61759 -1.17621 0
M  V30 7254 H 675.487 4.80682 -1.33216 0
M  V30 7255 H 674.641 6.02855 0.681979 0
M  V30 7256 H 673.38 4.78771 0.928947 0
M  V30 7257 H 672.385 5.33995 -1.30878 0
M  V30 7258 H 673.61 6.61317 -1.54392 0
M  V30 7259 H 671.556 6.52273 0.698272 0
M  V30 7260 H 671.473 7.52637 -0.712258 0
M  V30 7261 H 672.741 7.78205 0.449102 0
M  V30 7262 N 676.97 0.677563 1.42291 0
M  V30 7263 C 678.247 0.129803 1.95169 0
M  V30 7264 C 678.627 -1.35605 1.61786 0
M  V30 7265 O 677.975 -2.09361 0.915444 0
M  V30 7266 C 678.185 0.401889 3.46678 0
M  V30 7267 C 679.533 0.319889 4.23393 0
M  V30 7268 O 680.557 0.33579 3.54614 0
M  V30 7269 O 679.416 0.264459 5.4586 0
M  V30 7270 H 676.51 0.00447433 0.826988 0
M  V30 7271 H 679.056 0.752483 1.52105 0
M  V30 7272 H 677.828 1.43108 3.64192 0
M  V30 7273 H 677.451 -0.252662 3.96796 0
M  V30 7274 N 678.448 -1.51871 0.421078 0
M  V30 7275 C 679.725 -1.9447 -0.20993 0
M  V30 7276 C 680.105 -1.35875 -1.61558 0
M  V30 7277 O 679.453 -0.539294 -2.22045 0
M  V30 7278 C 679.663 -3.48402 -0.204165 0
M  V30 7279 C 681.011 -4.2254 -0.417696 0
M  V30 7280 O 682.035 -3.55074 -0.282999 0
M  V30 7281 O 680.894 -5.422 -0.684239 0
M  V30 7282 H 677.988 -0.815283 -0.138718 0
M  V30 7283 H 680.534 -1.62832 0.477884 0
M  V30 7284 H 679.306 -3.83464 0.779183 0
M  V30 7285 H 678.929 -3.86436 -0.935576 0
M  V30 7286 N 679.926 -0.151884 -1.56866 0
M  V30 7287 C 680.889 0.771861 -2.15812 0
M  V30 7288 C 681.889 1.17181 -1.10115 0
M  V30 7289 O 683.079 1.09194 -1.35729 0
M  V30 7290 C 680.211 2.04806 -2.7252 0
M  V30 7291 H 681.404 0.259021 -2.98779 0
M  V30 7292 H 678.957 0.097588 -1.55995 0
M  V30 7293 H 679.692 2.60445 -1.93233 0
M  V30 7294 H 679.477 1.77044 -3.49854 0
M  V30 7295 H 680.967 2.70771 -3.1792 0
M  V30 7296 N 681.404 1.57128 0.121893 0
M  V30 7297 C 682.351 2.0013 1.14964 0
M  V30 7298 C 683.321 0.872959 1.4131 0
M  V30 7299 O 684.506 1.13696 1.53225 0
M  V30 7300 C 681.646 2.40824 2.4718 0
M  V30 7301 C 680.759 3.67061 2.27794 0
M  V30 7302 C 679.894 3.96749 3.53219 0
M  V30 7303 C 678.933 5.16178 3.28978 0
M  V30 7304 N 678.07 5.41751 4.46599 0
M  V30 7305 H 682.91 2.8772 0.775947 0
M  V30 7306 H 680.447 1.42328 0.371652 0
M  V30 7307 H 682.405 2.62454 3.24305 0
M  V30 7308 H 681.035 1.56279 2.82448 0
M  V30 7309 H 680.087 3.53063 1.416 0
M  V30 7310 H 681.399 4.5434 2.05857 0
M  V30 7311 H 680.553 4.19012 4.38764 0
M  V30 7312 H 679.292 3.07941 3.78185 0
M  V30 7313 H 678.297 4.93762 2.41824 0
M  V30 7314 H 679.522 6.06561 3.05386 0
M  V30 7315 H 677.468 4.55899 4.71691 0
M  V30 7316 H 677.385 6.23347 4.27756 0
M  V30 7317 H 678.653 5.68531 5.33285 0
M  V30 7318 N 682.882 -0.391992 1.52647 0
M  V30 7319 C 683.829 -1.47866 1.77213 0
M  V30 7320 C 684.799 -1.54286 0.615223 0
M  V30 7321 O 685.984 -1.7059 0.854622 0
M  V30 7322 C 683.124 -2.85129 1.94411 0
M  V30 7323 C 682.237 -2.87883 3.22098 0
M  V30 7324 C 681.372 -4.16553 3.29631 0
M  V30 7325 C 680.411 -4.13348 4.51453 0
M  V30 7326 N 679.548 -5.33619 4.56284 0
M  V30 7327 H 684.388 -1.26219 2.6995 0
M  V30 7328 H 681.925 -0.612367 1.33748 0
M  V30 7329 H 683.883 -3.64833 2.02367 0
M  V30 7330 H 682.513 -3.05232 1.05038 0
M  V30 7331 H 681.565 -2.00567 3.23229 0
M  V30 7332 H 682.877 -2.81382 4.11856 0
M  V30 7333 H 682.031 -5.0466 3.36753 0
M  V30 7334 H 680.77 -4.25773 2.37842 0
M  V30 7335 H 679.775 -3.23629 4.44459 0
M  V30 7336 H 681 -4.05754 5.44555 0
M  V30 7337 H 678.946 -5.43474 3.67385 0
M  V30 7338 H 678.863 -5.29182 5.3991 0
M  V30 7339 H 680.131 -6.23632 4.67657 0
M  V30 7340 N 684.36 -1.4356 -0.65026 0
M  V30 7341 C 685.307 -1.48948 -1.76304 0
M  V30 7342 C 686.277 -0.338919 -1.62605 0
M  V30 7343 O 687.462 -0.54649 -1.82806 0
M  V30 7344 C 684.602 -1.42131 -3.14472 0
M  V30 7345 C 683.715 -2.67415 -3.39284 0
M  V30 7346 C 682.85 -2.52565 -4.67316 0
M  V30 7347 C 681.889 -3.73103 -4.85243 0
M  V30 7348 N 681.026 -3.57046 -6.04535 0
M  V30 7349 H 685.866 -2.44032 -1.71034 0
M  V30 7350 H 683.403 -1.21131 -0.834601 0
M  V30 7351 H 685.361 -1.36172 -3.94351 0
M  V30 7352 H 683.991 -0.506273 -3.18805 0
M  V30 7353 H 683.043 -2.8364 -2.53481 0
M  V30 7354 H 684.355 -3.56943 -3.48415 0
M  V30 7355 H 683.509 -2.44331 -5.55326 0
M  V30 7356 H 682.248 -1.60566 -4.60511 0
M  V30 7357 H 681.253 -3.81743 -3.95667 0
M  V30 7358 H 682.478 -4.66115 -4.93876 0
M  V30 7359 H 680.424 -2.67783 -5.98856 0
M  V30 7360 H 680.341 -4.40178 -6.14638 0
M  V30 7361 H 681.609 -3.52669 -6.95158 0
M  V30 7362 N 685.838 0.888903 -1.30139 0
M  V30 7363 C 686.788 1.9814 -1.12803 0
M  V30 7364 C 687.772 1.60839 -0.0443137 0
M  V30 7365 O 688.964 1.74971 -0.267208 0
M  V30 7366 C 686.093 3.33416 -0.817849 0
M  V30 7367 C 685.179 3.77043 -1.94163 0
M  V30 7368 N 685.57 3.92805 -3.18651 0
M  V30 7369 C 683.868 4.06407 -1.8371 0
M  V30 7370 C 684.569 4.29746 -3.92038 0
M  V30 7371 N 683.545 4.3939 -3.20059 0
M  V30 7372 H 687.347 2.08411 -2.07225 0
M  V30 7373 H 684.861 1.07845 -1.21421 0
M  V30 7374 H 686.858 4.11405 -0.674668 0
M  V30 7375 H 685.518 3.24484 0.118344 0
M  V30 7376 H 686.529 3.78042 -3.53984 0
M  V30 7377 H 683.206 4.05972 -0.974331 0
M  V30 7378 H 684.596 4.49695 -4.99223 0
M  V30 7379 N 687.317 1.12792 1.10072 0
M  V30 7380 C 688.264 0.79921 2.16521 0
M  V30 7381 C 689.234 -0.235726 1.64419 0
M  V30 7382 O 690.419 -0.109457 1.90486 0
M  V30 7383 C 687.559 0.264091 3.44088 0
M  V30 7384 C 686.672 1.35729 4.10124 0
M  V30 7385 C 685.807 0.781212 5.25424 0
M  V30 7386 C 684.846 1.85327 5.8337 0
M  V30 7387 N 683.983 1.29564 6.90042 0
M  V30 7388 H 688.823 1.71105 2.43981 0
M  V30 7389 H 686.36 0.854225 1.19756 0
M  V30 7390 H 688.318 -0.0642423 4.17151 0
M  V30 7391 H 686.948 -0.610901 3.16967 0
M  V30 7392 H 686 1.80234 3.34993 0
M  V30 7393 H 687.312 2.16782 4.4923 0
M  V30 7394 H 686.466 0.403769 6.05355 0
M  V30 7395 H 685.205 -0.0604686 4.87663 0
M  V30 7396 H 684.21 2.23986 5.02106 0
M  V30 7397 H 685.435 2.69824 6.23195 0
M  V30 7398 H 683.381 0.475844 6.54272 0
M  V30 7399 H 683.298 2.04271 7.2788 0
M  V30 7400 H 684.566 0.945545 7.73744 0
M  V30 7401 N 688.795 -1.27931 0.920396 0
M  V30 7402 C 690.042 -1.94689 0.557007 0
M  V30 7403 C 690.37 -1.724 -0.900476 0
M  V30 7404 O 689.625 -1.04194 -1.65657 0
M  V30 7405 C 689.924 -3.47853 0.820558 0
M  V30 7406 C 689.59 -3.90252 2.25863 0
M  V30 7407 C 688.252 -4.01539 2.65179 0
M  V30 7408 C 690.604 -4.11853 3.19415 0
M  V30 7409 C 687.932 -4.3181 3.97187 0
M  V30 7410 C 690.284 -4.43606 4.50995 0
M  V30 7411 C 688.948 -4.53105 4.90155 0
M  V30 7412 H 688.218 -0.712416 0.203823 0
M  V30 7413 H 690.865 -1.52142 1.16298 0
M  V30 7414 H 689.17 -3.91578 0.131844 0
M  V30 7415 H 690.867 -3.97634 0.51847 0
M  V30 7416 H 687.457 -3.81999 1.94358 0
M  V30 7417 H 691.641 -4.0258 2.90246 0
M  V30 7418 H 686.897 -4.37371 4.2722 0
M  V30 7419 H 691.071 -4.59268 5.23494 0
M  V30 7420 H 688.698 -4.76315 5.92476 0
M  V30 7421 N 690.273 -0.685099 -1.4193 0
M  V30 7422 C 691.203 -0.0273506 -2.33484 0
M  V30 7423 C 692.184 0.778366 -1.51246 0
M  V30 7424 O 693.369 0.733449 -1.79817 0
M  V30 7425 C 690.499 0.917272 -3.34968 0
M  V30 7426 C 689.453 0.21941 -4.27437 0
M  V30 7427 C 688.779 1.27768 -5.1921 0
M  V30 7428 C 690.079 -0.907894 -5.14349 0
M  V30 7429 H 691.773 -0.791994 -2.88735 0
M  V30 7430 H 689.319 -0.382308 -1.38832 0
M  V30 7431 H 691.272 1.38657 -3.97935 0
M  V30 7432 H 689.996 1.71346 -2.78043 0
M  V30 7433 H 688.655 -0.229757 -3.65879 0
M  V30 7434 H 688.303 2.06612 -4.58607 0
M  V30 7435 H 688.003 0.815803 -5.81909 0
M  V30 7436 H 689.527 1.7477 -5.85054 0
M  V30 7437 H 690.941 -0.519348 -5.70943 0
M  V30 7438 H 689.338 -1.2962 -5.85934 0
M  V30 7439 H 690.408 -1.75218 -4.52136 0
M  V30 7440 N 691.751 1.51645 -0.429126 0
M  V30 7441 C 693.167 1.59394 -0.080994 0
M  V30 7442 C 693.367 1.44064 1.40882 0
M  V30 7443 O 692.423 1.27771 2.17786 0
M  V30 7444 C 693.736 2.94779 -0.593773 0
M  V30 7445 C 695.284 3.08067 -0.553494 0
M  V30 7446 C 695.759 4.45963 -1.04311 0
M  V30 7447 N 697.25 4.5226 -1.00076 0
M  V30 7448 C 697.985 5.57268 -1.35056 0
M  V30 7449 N 697.481 6.69734 -1.77282 0
M  V30 7450 N 699.274 5.47582 -1.26925 0
M  V30 7451 H 691.425 1.59856 -1.39857 0
M  V30 7452 H 693.688 0.753095 -0.575805 0
M  V30 7453 H 693.394 3.11342 -1.63583 0
M  V30 7454 H 693.268 3.77197 -0.0142202 0
M  V30 7455 H 695.655 2.91177 0.479556 0
M  V30 7456 H 695.736 2.27508 -1.16935 0
M  V30 7457 H 695.38 4.63598 -2.07459 0
M  V30 7458 H 695.31 5.25049 -0.403873 0
M  V30 7459 H 697.801 3.71537 -0.690564 0
M  V30 7460 H 698.114 7.4587 -2.02232 0
M  V30 7461 H 696.459 6.70963 -1.81202 0
M  V30 7462 H 699.65 4.58604 -0.93809 0
M  V30 7463 H 699.823 6.29308 -1.54516 0
M  V30 7464 N 693.229 0.160201 1.56784 0
M  V30 7465 C 694.139 -0.787167 2.21 0
M  V30 7466 C 695.155 -1.26167 1.19825 0
M  V30 7467 O 696.331 -1.31611 1.52448 0
M  V30 7468 C 693.396 -2.00364 2.8294 0
M  V30 7469 C 692.457 -1.5771 3.99282 0
M  V30 7470 C 691.69 -2.73558 4.58259 0
M  V30 7471 O 691.913 -3.90129 4.16119 0
M  V30 7472 O 690.847 -2.48271 5.48311 0
M  V30 7473 H 694.673 -0.270462 3.02493 0
M  V30 7474 H 692.258 -0.0674666 1.49248 0
M  V30 7475 H 694.14 -2.71529 3.22257 0
M  V30 7476 H 692.815 -2.50961 2.04451 0
M  V30 7477 H 691.722 -0.835274 3.64656 0
M  V30 7478 H 693.055 -1.11815 4.79331 0
M  V30 7479 N 694.707 -1.5719 -0.113559 0
M  V30 7480 C 695.67 -1.99796 -1.12314 0
M  V30 7481 C 696.67 -0.888847 -1.34001 0
M  V30 7482 O 697.86 -1.15476 -1.30426 0
M  V30 7483 C 694.992 -2.34279 -2.47641 0
M  V30 7484 H 696.185 -2.90193 -0.756825 0
M  V30 7485 H 693.738 -1.52144 -0.358029 0
M  V30 7486 H 694.473 -1.46778 -2.89183 0
M  V30 7487 H 694.258 -3.15175 -2.33253 0
M  V30 7488 H 695.748 -2.67963 -3.2029 0
M  V30 7489 N 696.185 0.383891 -1.52853 0
M  V30 7490 C 697.133 1.48965 -1.7864 0
M  V30 7491 C 698.127 1.56242 -0.654577 0
M  V30 7492 O 699.333 1.59347 -0.83716 0
M  V30 7493 H 695.708 0.495892 -0.565328 0
M  V30 7494 H 697.679 1.24411 -2.71228 0
M  V30 7495 C 696.428 2.86036 -1.97683 0
M  V30 7496 H 695.751 2.81188 -2.84206 0
M  V30 7497 H 697.191 3.62632 -2.19713 0
M  V30 7498 C 695.65 3.28428 -0.750776 0
M  V30 7499 O 696.18 4.0164 0.0693491 0
M  V30 7500 N 694.386 2.84765 -0.579427 0
M  V30 7501 H 693.933 2.25353 -1.24795 0
M  V30 7502 H 693.891 3.13486 0.239544 0
M  V30 7503 N 697.663 1.43903 0.642637 0
M  V30 7504 C 698.891 1.4954 1.42988 0
M  V30 7505 C 699.306 0.116588 1.8844 0
M  V30 7506 O 698.663 -0.875285 1.60141 0
M  V30 7507 C 698.714 2.45031 2.65785 0
M  V30 7508 O 698.435 3.77551 2.22232 0
M  V30 7509 C 699.936 2.60017 3.59035 0
M  V30 7510 H 697.156 0.507544 0.438907 0
M  V30 7511 H 699.7 1.88752 0.786942 0
M  V30 7512 H 697.855 2.08985 3.26196 0
M  V30 7513 H 698.269 4.29001 3.01759 0
M  V30 7514 H 699.743 3.30887 4.41835 0
M  V30 7515 H 700.22 1.64861 4.07084 0
M  V30 7516 H 700.826 2.96918 3.045 0
M  V30 7517 N 699.141 -0.881989 1.30609 0
M  V30 7518 C 700.051 -2.02076 1.19174 0
M  V30 7519 C 701.067 -1.73645 0.11102 0
M  V30 7520 O 702.243 -1.98735 0.326528 0
M  V30 7521 C 699.308 -3.3515 0.887438 0
M  V30 7522 C 698.369 -3.76983 2.05383 0
M  V30 7523 C 697.602 -5.03707 1.76395 0
M  V30 7524 O 697.825 -5.66171 0.693302 0
M  V30 7525 O 696.759 -5.42019 2.61723 0
M  V30 7526 H 700.585 -2.14652 2.14845 0
M  V30 7527 H 698.17 -1.00843 1.10232 0
M  V30 7528 H 700.052 -4.14975 0.73306 0
M  V30 7529 H 698.727 -3.23676 -0.0393354 0
M  V30 7530 H 697.634 -2.97849 2.26355 0
M  V30 7531 H 698.967 -3.93066 2.96243 0
M  V30 7532 N 700.619 -1.13374 -1.09472 0
M  V30 7533 C 701.566 -0.810682 -2.16094 0
M  V30 7534 C 702.536 0.227003 -1.64541 0
M  V30 7535 O 703.721 0.0993538 -1.90541 0
M  V30 7536 C 700.861 -0.282336 -3.43943 0
M  V30 7537 C 699.974 -1.37902 -4.09398 0
M  V30 7538 C 699.109 -0.809066 -5.25002 0
M  V30 7539 C 698.148 -1.88419 -5.82379 0
M  V30 7540 N 697.285 -1.33221 -6.89345 0
M  V30 7541 H 702.125 -1.72397 -2.43071 0
M  V30 7542 H 699.662 -0.860564 -1.19301 0
M  V30 7543 H 701.62 0.0421189 -4.17179 0
M  V30 7544 H 700.25 0.594083 -3.17286 0
M  V30 7545 H 699.302 -1.82008 -3.34032 0
M  V30 7546 H 700.614 -2.19161 -4.48074 0
M  V30 7547 H 699.768 -0.435867 -6.05132 0
M  V30 7548 H 698.507 0.0346058 -4.87688 0
M  V30 7549 H 697.512 -2.26646 -5.00911 0
M  V30 7550 H 698.737 -2.73125 -6.21755 0
M  V30 7551 H 696.683 -0.510535 -6.5401 0
M  V30 7552 H 696.6 -2.08129 -7.26786 0
M  V30 7553 H 697.868 -0.986565 -7.73232 0
M  V30 7554 N 702.098 1.27442 -0.927168 0
M  V30 7555 C 703.046 2.28844 -0.416333 0
M  V30 7556 C 704.04 1.61882 0.499057 0
M  V30 7557 O 705.246 1.75969 0.378817 0
M  V30 7558 H 701.621 0.742989 -0.116065 0
M  V30 7559 H 703.592 2.69344 -1.28438 0
M  V30 7560 C 702.341 3.4626 0.316107 0
M  V30 7561 H 701.664 3.97999 -0.379082 0
M  V30 7562 H 703.104 4.19173 0.637975 0
M  V30 7563 C 701.563 3.00211 1.5289 0
M  V30 7564 O 702.093 3.03837 2.62766 0
M  V30 7565 N 700.299 2.55713 1.38054 0
M  V30 7566 H 699.846 2.52962 0.4866 0
M  V30 7567 H 699.804 2.25264 2.19325 0
M  V30 7568 N 703.576 0.692616 1.41565 0
M  V30 7569 C 704.853 0.150496 1.9502 0
M  V30 7570 C 705.233 -1.33881 1.63215 0
M  V30 7571 O 704.581 -2.08378 0.937598 0
M  V30 7572 C 704.791 0.438636 3.46233 0
M  V30 7573 C 706.139 0.364777 4.2303 0
M  V30 7574 O 707.163 0.373383 3.54238 0
M  V30 7575 O 706.022 0.32234 5.45549 0
M  V30 7576 H 703.116 0.0132454 0.826894 0
M  V30 7577 H 705.662 0.768574 1.51298 0
M  V30 7578 H 704.434 1.46962 3.62654 0
M  V30 7579 H 704.057 -0.210562 3.97042 0
M  V30 7580 N 705.054 -1.51416 0.437162 0
M  V30 7581 C 706.002 -2.29328 -0.388765 0
M  V30 7582 C 706.996 -1.35171 -1.02104 0
M  V30 7583 O 708.202 -1.52513 -0.956024 0
M  V30 7584 H 704.577 -0.738048 -0.144183 0
M  V30 7585 H 706.548 -2.96995 0.289212 0
M  V30 7586 C 705.297 -3.14741 -1.47761 0
M  V30 7587 H 704.62 -3.8708 -1.00045 0
M  V30 7588 H 706.06 -3.72313 -2.02877 0
M  V30 7589 C 704.519 -2.30105 -2.46076 0
M  V30 7590 O 705.049 -1.96055 -3.50607 0
M  V30 7591 N 703.255 -1.93331 -2.1696 0
M  V30 7592 H 702.802 -2.2122 -1.31983 0
M  V30 7593 H 702.76 -1.36999 -2.82982 0
M  V30 7594 N 706.532 -0.168513 -1.56696 0
M  V30 7595 C 707.442 0.775435 -2.21414 0
M  V30 7596 C 708.458 1.25529 -1.20492 0
M  V30 7597 O 709.634 1.30801 -1.53144 0
M  V30 7598 C 706.699 1.9886 -2.83999 0
M  V30 7599 C 705.76 1.5559 -4.00113 0
M  V30 7600 C 704.993 2.71124 -4.59704 0
M  V30 7601 O 705.216 3.87917 -4.18182 0
M  V30 7602 O 704.15 2.4536 -5.4962 0
M  V30 7603 H 707.976 0.254416 -3.02632 0
M  V30 7604 H 705.561 0.0595507 -1.49281 0
M  V30 7605 H 707.443 2.69816 -3.23693 0
M  V30 7606 H 706.118 2.49874 -2.05779 0
M  V30 7607 H 705.025 0.815924 -3.65094 0
M  V30 7608 H 706.358 1.09271 -4.79917 0
M  V30 7609 N 708.01 1.57248 0.105221 0
M  V30 7610 C 708.957 2.01338 1.12835 0
M  V30 7611 C 709.927 0.887897 1.40377 0
M  V30 7612 O 711.112 1.15315 1.5201 0
M  V30 7613 C 708.252 2.43432 2.44611 0
M  V30 7614 C 707.365 3.69457 2.23888 0
M  V30 7615 C 706.5 4.00473 3.48991 0
M  V30 7616 C 705.539 5.19638 3.23485 0
M  V30 7617 N 704.676 5.46457 4.40828 0
M  V30 7618 H 709.516 2.88527 0.745386 0
M  V30 7619 H 707.053 1.42714 0.356535 0
M  V30 7620 H 709.011 2.65879 3.21503 0
M  V30 7621 H 707.641 1.59266 2.80774 0
M  V30 7622 H 706.693 3.54545 1.37847 0
M  V30 7623 H 708.005 4.56497 2.01026 0
M  V30 7624 H 707.159 4.23642 4.34295 0
M  V30 7625 H 705.898 3.11935 3.74897 0
M  V30 7626 H 704.903 4.96299 2.36574 0
M  V30 7627 H 706.128 6.09766 2.98935 0
M  V30 7628 H 704.074 4.60876 4.66829 0
M  V30 7629 H 703.991 6.27849 4.2112 0
M  V30 7630 H 705.259 5.74155 5.27225 0
M  V30 7631 N 709.488 -0.375779 1.53054 0
M  V30 7632 C 710.435 -1.45978 1.78771 0
M  V30 7633 C 711.405 -1.53625 0.631552 0
M  V30 7634 O 712.59 -1.69674 0.872667 0
M  V30 7635 C 709.73 -2.8305 1.97425 0
M  V30 7636 C 708.843 -2.84451 3.25134 0
M  V30 7637 C 707.978 -4.13034 3.34031 0
M  V30 7638 C 707.017 -4.08536 4.55812 0
M  V30 7639 N 706.154 -5.2875 4.61918 0
M  V30 7640 H 710.994 -1.23349 2.71273 0
M  V30 7641 H 708.531 -0.598147 1.3439 0
M  V30 7642 H 710.489 -3.62666 2.06225 0
M  V30 7643 H 709.119 -3.04101 1.0827 0
M  V30 7644 H 708.171 -1.97127 3.25338 0
M  V30 7645 H 709.483 -2.76998 4.14818 0
M  V30 7646 H 708.637 -5.0106 3.42087 0
M  V30 7647 H 707.376 -4.23226 2.42345 0
M  V30 7648 H 706.381 -3.18897 4.47867 0
M  V30 7649 H 707.606 -3.99955 5.48828 0
M  V30 7650 H 705.552 -5.39547 3.73129 0
M  V30 7651 H 705.469 -5.23426 5.45492 0
M  V30 7652 H 706.737 -6.18637 4.74245 0
M  V30 7653 N 710.966 -1.44241 -0.634997 0
M  V30 7654 C 712.243 -1.37296 -1.39317 0
M  V30 7655 C 712.623 -0.0297532 -2.11079 0
M  V30 7656 O 711.971 0.987524 -2.06059 0
M  V30 7657 C 712.181 -2.56853 -2.36279 0
M  V30 7658 C 713.529 -3.00747 -2.99728 0
M  V30 7659 O 714.553 -2.5703 -2.46605 0
M  V30 7660 O 713.412 -3.76533 -3.96087 0
M  V30 7661 H 710.506 -0.543503 -0.623325 0
M  V30 7662 H 713.052 -1.56324 -0.660376 0
M  V30 7663 H 711.824 -3.46228 -1.82324 0
M  V30 7664 H 711.447 -2.40019 -3.16981 0
M  V30 7665 N 712.444 0.87505 -1.31075 0
M  V30 7666 C 713.391 1.98178 -1.18296 0
M  V30 7667 C 714.361 1.65952 -0.0699923 0
M  V30 7668 O 715.546 1.8926 -0.241951 0
M  V30 7669 C 712.686 3.33399 -0.891024 0
M  V30 7670 C 711.799 3.78253 -2.08684 0
M  V30 7671 C 710.934 5.02166 -1.73212 0
M  V30 7672 C 709.973 5.39455 -2.89231 0
M  V30 7673 N 709.11 6.54549 -2.53989 0
M  V30 7674 H 713.95 2.0844 -2.12971 0
M  V30 7675 H 711.487 1.02047 -1.05948 0
M  V30 7676 H 713.445 4.11246 -0.702338 0
M  V30 7677 H 712.075 3.22794 0.0188799 0
M  V30 7678 H 711.127 2.9623 -2.38646 0
M  V30 7679 H 712.439 4.01821 -2.95536 0
M  V30 7680 H 711.593 5.87666 -1.50777 0
M  V30 7681 H 710.332 4.80491 -0.83544 0
M  V30 7682 H 709.337 4.52477 -3.12321 0
M  V30 7683 H 710.562 5.63098 -3.79601 0
M  V30 7684 H 708.508 6.3443 -1.66838 0
M  V30 7685 H 708.425 6.78035 -3.34372 0
M  V30 7686 H 709.693 7.43254 -2.34934 0
M  V30 7687 N 713.922 1.13953 1.08869 0
M  V30 7688 C 714.852 0.844824 2.17681 0
M  V30 7689 C 715.833 -0.198213 1.68941 0
M  V30 7690 O 717.018 -0.0559073 1.9412 0
M  V30 7691 C 714.148 0.316325 3.45856 0
M  V30 7692 C 713.102 1.29426 4.07962 0
M  V30 7693 C 712.428 0.625275 5.31031 0
M  V30 7694 C 713.728 2.65484 4.49795 0
M  V30 7695 H 715.422 1.75471 2.42591 0
M  V30 7696 H 712.968 0.845116 1.16592 0
M  V30 7697 H 714.921 0.0977876 4.21287 0
M  V30 7698 H 713.645 -0.628972 3.20486 0
M  V30 7699 H 712.304 1.49889 3.34558 0
M  V30 7700 H 711.952 -0.325678 5.01945 0
M  V30 7701 H 711.652 1.27777 5.73539 0
M  V30 7702 H 713.176 0.416152 6.0918 0
M  V30 7703 H 714.59 2.48957 5.16424 0
M  V30 7704 H 712.987 3.26963 5.03205 0
M  V30 7705 H 714.057 3.22717 3.61914 0
M  V30 7706 N 715.4 -1.26948 0.933913 0
M  V30 7707 C 716.33 -2.29017 0.45534 0
M  V30 7708 C 717.311 -1.62961 -0.487605 0
M  V30 7709 O 718.496 -1.90223 -0.391022 0
M  V30 7710 C 715.626 -3.46112 -0.287015 0
M  V30 7711 C 714.58 -4.24205 0.568682 0
M  V30 7712 C 713.906 -5.3384 -0.303206 0
M  V30 7713 C 715.206 -4.88954 1.83633 0
M  V30 7714 H 716.9 -2.69298 1.30839 0
M  V30 7715 H 714.446 -1.29459 0.630579 0
M  V30 7716 H 716.399 -4.16622 -0.6328 0
M  V30 7717 H 715.123 -3.04765 -1.17414 0
M  V30 7718 H 713.782 -3.5545 0.897261 0
M  V30 7719 H 713.43 -4.88734 -1.18947 0
M  V30 7720 H 713.13 -5.86998 0.265879 0
M  V30 7721 H 714.654 -6.0719 -0.644423 0
M  V30 7722 H 716.068 -5.51717 1.55823 0
M  V30 7723 H 714.465 -5.52198 2.34941 0
M  V30 7724 H 715.535 -4.12305 2.55211 0
M  V30 7725 N 716.879 -0.700114 -1.41195 0
M  V30 7726 C 718.127 -0.232546 -2.00758 0
M  V30 7727 C 718.448 1.1734 -1.55745 0
M  V30 7728 O 717.718 1.79262 -0.790058 0
M  V30 7729 H 716.298 -0.0829845 -0.742376 0
M  V30 7730 H 718.96 -0.902289 -1.72756 0
M  V30 7731 H 718.056 -0.253521 -3.11069 0
M  V30 7732 N 718.357 1.51182 -0.445186 0
M  V30 7733 C 719.267 2.31692 0.368255 0
M  V30 7734 C 720.283 1.40942 1.02036 0
M  V30 7735 O 721.459 1.74011 1.01401 0
M  V30 7736 C 718.524 3.14903 1.45041 0
M  V30 7737 C 717.585 4.21442 0.817615 0
M  V30 7738 C 716.818 5.00677 1.8482 0
M  V30 7739 O 717.041 4.80644 3.07145 0
M  V30 7740 O 715.975 5.84559 1.43438 0
M  V30 7741 H 719.801 3.0232 -0.289219 0
M  V30 7742 H 717.386 1.47951 -0.207555 0
M  V30 7743 H 719.268 3.66612 2.07783 0
M  V30 7744 H 717.943 2.47031 2.09182 0
M  V30 7745 H 716.85 3.73791 0.151931 0
M  V30 7746 H 718.183 4.9171 0.219564 0
M  V30 7747 N 719.835 0.176821 1.56605 0
M  V30 7748 C 721.083 -0.465793 1.96659 0
M  V30 7749 C 721.404 -1.63406 1.06412 0
M  V30 7750 O 720.674 -1.95457 0.131603 0
M  V30 7751 H 719.254 -0.175072 0.726195 0
M  V30 7752 H 721.916 0.25929 1.93168 0
M  V30 7753 H 721.012 -0.822138 3.01077 0
M  V30 7754 N 721.313 -1.57302 -0.09688 0
M  V30 7755 C 722.59 -1.7701 -0.832272 0
M  V30 7756 C 722.97 -0.758025 -1.97021 0
M  V30 7757 O 722.318 0.213824 -2.27497 0
M  V30 7758 C 722.528 -3.22725 -1.32851 0
M  V30 7759 C 723.876 -3.85856 -1.772 0
M  V30 7760 O 724.9 -3.26464 -1.42478 0
M  V30 7761 O 723.759 -4.90295 -2.41398 0
M  V30 7762 H 720.853 -0.725558 -0.396856 0
M  V30 7763 H 723.399 -1.69516 -0.0789005 0
M  V30 7764 H 722.171 -3.87921 -0.51312 0
M  V30 7765 H 721.794 -3.34845 -2.14394 0
M  V30 7766 N 722.791 0.367657 -1.53252 0
M  V30 7767 C 723.738 1.45028 -1.79543 0
M  V30 7768 C 724.708 1.53288 -0.63969 0
M  V30 7769 O 725.893 1.69209 -0.881653 0
M  V30 7770 C 723.033 2.82 -1.98923 0
M  V30 7771 C 722.146 2.82722 -3.26638 0
M  V30 7772 C 721.281 4.11257 -3.36216 0
M  V30 7773 C 720.32 4.06113 -4.57972 0
M  V30 7774 N 719.457 5.26293 -4.64715 0
M  V30 7775 H 724.297 1.21908 -2.71923 0
M  V30 7776 H 721.834 0.591011 -1.34705 0
M  V30 7777 H 723.792 3.61568 -2.08146 0
M  V30 7778 H 722.422 3.03523 -1.09881 0
M  V30 7779 H 721.474 1.95399 -3.26379 0
M  V30 7780 H 722.786 2.74794 -4.16281 0
M  V30 7781 H 721.94 4.99239 -3.44739 0
M  V30 7782 H 720.679 4.21935 -2.44586 0
M  V30 7783 H 719.684 3.16517 -4.49552 0
M  V30 7784 H 720.909 3.97039 -5.50942 0
M  V30 7785 H 718.855 5.37561 -3.75985 0
M  V30 7786 H 718.772 5.20526 -5.4826 0
M  V30 7787 H 720.04 6.16113 -4.77519 0
M  V30 7788 N 724.269 1.44576 0.627338 0
M  V30 7789 C 725.179 1.54232 1.76776 0
M  V30 7790 C 726.195 0.427782 1.6866 0
M  V30 7791 O 727.371 0.685671 1.89369 0
M  V30 7792 C 724.436 1.48738 3.13174 0
M  V30 7793 C 723.497 2.71074 3.32893 0
M  V30 7794 C 722.73 2.65832 4.62784 0
M  V30 7795 O 722.953 1.72048 5.43834 0
M  V30 7796 O 721.887 3.56742 4.84787 0
M  V30 7797 H 725.713 2.50586 1.71582 0
M  V30 7798 H 723.298 1.26865 0.789028 0
M  V30 7799 H 725.18 1.48211 3.94476 0
M  V30 7800 H 723.855 0.555292 3.18902 0
M  V30 7801 H 722.762 2.77168 2.51254 0
M  V30 7802 H 724.095 3.63342 3.32029 0
M  V30 7803 N 725.747 -0.868086 1.31537 0
M  V30 7804 C 727.024 -1.60384 1.11965 0
M  V30 7805 C 727.404 -2.08584 -0.324949 0
M  V30 7806 O 726.752 -1.86561 -1.31937 0
M  V30 7807 C 726.962 -2.76038 2.13551 0
M  V30 7808 C 728.31 -3.45954 2.46173 0
M  V30 7809 O 729.334 -2.86247 2.11993 0
M  V30 7810 O 728.193 -4.53666 3.04711 0
M  V30 7811 H 725.287 -0.705705 0.431172 0
M  V30 7812 H 727.833 -0.913385 1.43022 0
M  V30 7813 H 726.605 -2.37849 3.10714 0
M  V30 7814 H 726.228 -3.52769 1.83411 0
M  V30 7815 N 727.225 -1.14528 -1.08264 0
M  V30 7816 C 728.471 -0.91576 -1.80947 0
M  V30 7817 C 728.804 0.55623 -1.86064 0
M  V30 7818 O 728.079 1.41207 -1.33756 0
M  V30 7819 C 728.362 -1.51917 -3.26486 0
M  V30 7820 C 728.215 -3.06111 -3.2957 0
M  V30 7821 C 729.534 -1.19724 -4.23502 0
M  V30 7822 H 726.653 -0.334113 -0.656915 0
M  V30 7823 H 729.295 -1.41547 -1.26746 0
M  V30 7824 H 727.445 -1.0942 -3.72773 0
M  V30 7825 H 729.117 -3.57448 -2.91597 0
M  V30 7826 H 727.36 -3.40483 -2.688 0
M  V30 7827 H 728.031 -3.43438 -4.32151 0
M  V30 7828 H 730.507 -1.56467 -3.85561 0
M  V30 7829 H 729.383 -1.64575 -5.23647 0
M  V30 7830 H 729.644 -0.112771 -4.41956 0
M  V30 7831 N 728.703 1.26451 -0.940633 0
M  V30 7832 C 729.65 2.264 -0.448497 0
M  V30 7833 C 730.62 1.5866 0.491546 0
M  V30 7834 O 731.805 1.86389 0.407874 0
M  V30 7835 C 728.945 3.43956 0.280715 0
M  V30 7836 C 728.058 4.26374 -0.694937 0
M  V30 7837 C 727.193 5.31171 0.0554186 0
M  V30 7838 C 726.232 6.05266 -0.912091 0
M  V30 7839 N 725.369 7.01833 -0.193524 0
M  V30 7840 H 730.209 2.67869 -1.30576 0
M  V30 7841 H 727.746 1.31707 -0.655112 0
M  V30 7842 H 729.704 4.10941 0.71994 0
M  V30 7843 H 728.334 3.03403 1.10212 0
M  V30 7844 H 727.386 3.59183 -1.25267 0
M  V30 7845 H 728.698 4.77748 -1.43382 0
M  V30 7846 H 727.852 6.04166 0.553951 0
M  V30 7847 H 726.591 4.80634 0.827183 0
M  V30 7848 H 725.596 5.31099 -1.42175 0
M  V30 7849 H 726.821 6.57893 -1.68385 0
M  V30 7850 H 724.767 6.53607 0.559758 0
M  V30 7851 H 724.684 7.50957 -0.871744 0
M  V30 7852 H 725.952 7.78983 0.283932 0
M  V30 7853 N 730.181 0.707592 1.40822 0
M  V30 7854 C 731.091 0.0507246 2.34545 0
M  V30 7855 C 732.107 -0.752727 1.56876 0
M  V30 7856 O 733.283 -0.687524 1.89302 0
M  V30 7857 C 730.348 -0.865731 3.35717 0
M  V30 7858 C 729.409 -0.0531313 4.29267 0
M  V30 7859 C 728.642 -0.925939 5.25606 0
M  V30 7860 O 728.865 -2.16531 5.27703 0
M  V30 7861 O 727.799 -0.369194 6.00767 0
M  V30 7862 H 731.625 0.823587 2.9232 0
M  V30 7863 H 729.21 0.46801 1.4188 0
M  V30 7864 H 731.092 -1.39091 3.97783 0
M  V30 7865 H 729.767 -1.61788 2.80368 0
M  V30 7866 H 728.674 0.516931 3.70511 0
M  V30 7867 H 730.007 0.660617 4.87747 0
M  V30 7868 N 731.66 -1.50943 0.453197 0
M  V30 7869 C 732.607 -2.28128 -0.350197 0
M  V30 7870 C 733.577 -1.32398 -1.00299 0
M  V30 7871 O 734.762 -1.61319 -1.01887 0
M  V30 7872 C 731.902 -3.13782 -1.43649 0
M  V30 7873 C 731.015 -4.24523 -0.800255 0
M  V30 7874 C 730.15 -4.97462 -1.86293 0
M  V30 7875 C 729.189 -6.00102 -1.20598 0
M  V30 7876 N 728.326 -6.66387 -2.21071 0
M  V30 7877 H 733.166 -2.96337 0.31434 0
M  V30 7878 H 730.703 -1.46151 0.166863 0
M  V30 7879 H 732.661 -3.6178 -2.07776 0
M  V30 7880 H 731.291 -2.47655 -2.07044 0
M  V30 7881 H 730.343 -3.80371 -0.0468651 0
M  V30 7882 H 731.655 -4.98009 -0.280777 0
M  V30 7883 H 730.809 -5.49088 -2.58044 0
M  V30 7884 H 729.548 -4.23642 -2.41617 0
M  V30 7885 H 728.553 -5.47753 -0.474 0
M  V30 7886 H 729.778 -6.75887 -0.659859 0
M  V30 7887 H 727.724 -5.9537 -2.75446 0
M  V30 7888 H 727.641 -7.3569 -1.74058 0
M  V30 7889 H 728.909 -7.22638 -2.92257 0
M  V30 7890 N 733.138 -0.185124 -1.56509 0
M  V30 7891 C 734.086 0.756505 -2.19954 0
M  V30 7892 C 735.08 1.22725 -1.16769 0
M  V30 7893 O 736.286 1.1913 -1.34937 0
M  V30 7894 H 732.661 0.262279 -0.704779 0
M  V30 7895 H 734.632 0.197587 -2.97745 0
M  V30 7896 C 733.381 1.96975 -2.86524 0
M  V30 7897 H 732.704 1.61658 -3.65659 0
M  V30 7898 H 734.144 2.60719 -3.34367 0
M  V30 7899 C 732.603 2.80219 -1.87027 0
M  V30 7900 O 733.133 3.77821 -1.36433 0
M  V30 7901 N 731.339 2.4551 -1.55477 0
M  V30 7902 H 730.886 1.66199 -1.96813 0
M  V30 7903 H 730.844 3.01493 -0.891597 0
M  V30 7904 N 734.616 1.57351 0.0885366 0
M  V30 7905 C 735.893 1.77449 0.822873 0
M  V30 7906 C 736.273 0.768463 1.96616 0
M  V30 7907 O 735.621 -0.201757 2.27608 0
M  V30 7908 C 735.831 3.23425 1.31137 0
M  V30 7909 C 737.179 3.86791 1.75152 0
M  V30 7910 O 738.203 3.27215 1.40745 0
M  V30 7911 O 737.062 4.91568 2.38794 0
M  V30 7912 H 734.156 0.727653 0.393002 0
M  V30 7913 H 736.702 1.69556 0.0699095 0
M  V30 7914 H 735.474 3.88188 0.49254 0
M  V30 7915 H 735.097 3.35977 2.12615 0
M  V30 7916 N 736.094 -0.359525 1.53444 0
M  V30 7917 C 737.004 -1.46445 1.83278 0
M  V30 7918 C 738.02 -1.5833 0.721629 0
M  V30 7919 O 739.196 -1.7411 1.01231 0
M  V30 7920 C 736.261 -2.81638 2.02191 0
M  V30 7921 C 735.322 -2.7923 3.26082 0
M  V30 7922 C 734.555 -4.07974 3.44082 0
M  V30 7923 O 734.778 -5.04447 2.66251 0
M  V30 7924 O 733.712 -4.13417 4.37458 0
M  V30 7925 H 737.538 -1.24156 2.77162 0
M  V30 7926 H 735.123 -0.550201 1.389 0
M  V30 7927 H 737.005 -3.61732 2.16167 0
M  V30 7928 H 735.68 -3.03892 1.11496 0
M  V30 7929 H 734.587 -1.97813 3.17523 0
M  V30 7930 H 735.92 -2.6193 4.16718 0
M  V30 7931 N 737.572 -1.44907 -0.619662 0
M  V30 7932 C 738.504 -1.48652 -1.74457 0
M  V30 7933 C 739.517 -0.378596 -1.58337 0
M  V30 7934 O 740.706 -0.644987 -1.6644 0
M  V30 7935 C 737.806 -1.31568 -3.12319 0
M  V30 7936 C 736.979 -2.55816 -3.54792 0
M  V30 7937 C 736.038 -2.33465 -4.71573 0
M  V30 7938 O 735.064 -3.07015 -4.79302 0
M  V30 7939 N 736.266 -1.37254 -5.6404 0
M  V30 7940 H 739.031 -2.45632 -1.71712 0
M  V30 7941 H 736.592 -1.40492 -0.804582 0
M  V30 7942 H 738.584 -1.14445 -3.88181 0
M  V30 7943 H 737.154 -0.429095 -3.09641 0
M  V30 7944 H 736.374 -2.88137 -2.69018 0
M  V30 7945 H 737.662 -3.38431 -3.79924 0
M  V30 7946 H 737.06 -0.765309 -5.60499 0
M  V30 7947 H 735.617 -1.26106 -6.39485 0
M  V30 7948 N 739.05 0.861098 -1.31996 0
M  V30 7949 C 739.997 1.96912 -1.20392 0
M  V30 7950 C 740.967 1.65869 -0.0875899 0
M  V30 7951 O 742.152 1.88992 -0.262011 0
M  V30 7952 C 739.292 3.32435 -0.926335 0
M  V30 7953 C 738.405 3.76018 -2.12684 0
M  V30 7954 C 737.54 5.00301 -1.78529 0
M  V30 7955 C 736.579 5.36357 -2.94937 0
M  V30 7956 N 735.716 6.51818 -2.60917 0
M  V30 7957 H 740.556 2.06169 -2.1517 0
M  V30 7958 H 738.093 1.00917 -1.07024 0
M  V30 7959 H 740.051 4.10478 -0.745917 0
M  V30 7960 H 738.681 3.22796 -0.0153578 0
M  V30 7961 H 737.733 2.93683 -2.41774 0
M  V30 7962 H 739.045 3.98664 -2.99781 0
M  V30 7963 H 738.199 5.86034 -1.57001 0
M  V30 7964 H 736.938 4.79578 -0.886356 0
M  V30 7965 H 735.943 4.49139 -3.17103 0
M  V30 7966 H 737.168 5.59041 -3.85552 0
M  V30 7967 H 735.114 6.32624 -1.73558 0
M  V30 7968 H 735.031 6.7445 -3.41544 0
M  V30 7969 H 736.299 7.4072 -2.42804 0
M  V30 7970 N 740.528 1.15101 1.07655 0
M  V30 7971 C 741.805 0.834578 1.76902 0
M  V30 7972 C 742.185 -0.670431 2.00171 0
M  V30 7973 O 741.533 -1.61378 1.6177 0
M  V30 7974 C 741.743 1.64191 3.07965 0
M  V30 7975 C 743.091 1.84615 3.82364 0
M  V30 7976 O 744.115 1.60941 3.17768 0
M  V30 7977 O 742.974 2.24244 4.98374 0
M  V30 7978 H 740.068 0.306608 0.768063 0
M  V30 7979 H 742.614 1.25663 1.14048 0
M  V30 7980 H 741.386 2.66386 2.86626 0
M  V30 7981 H 741.009 1.216 3.78549 0
M  V30 7982 N 742.006 -1.2595 0.947325 0
M  V30 7983 C 742.953 -2.26159 0.460497 0
M  V30 7984 C 743.923 -1.58919 -0.483125 0
M  V30 7985 O 745.108 -1.86603 -0.397983 0
M  V30 7986 C 742.248 -3.441 -0.26247 0
M  V30 7987 C 741.361 -4.25999 0.717539 0
M  V30 7988 C 740.496 -5.31193 -0.0272486 0
M  V30 7989 C 739.535 -6.04774 0.944177 0
M  V30 7990 N 738.672 -7.01721 0.230741 0
M  V30 7991 H 743.512 -2.67173 1.31995 0
M  V30 7992 H 741.049 -1.31358 0.662088 0
M  V30 7993 H 743.007 -4.11317 -0.698137 0
M  V30 7994 H 741.637 -3.03983 -1.08602 0
M  V30 7995 H 740.689 -3.58513 1.27171 0
M  V30 7996 H 742.001 -4.76981 1.45913 0
M  V30 7997 H 741.155 -6.04451 -0.521903 0
M  V30 7998 H 739.894 -4.81066 -0.801682 0
M  V30 7999 H 738.899 -5.30338 1.4499 0
M  V30 8000 H 740.124 -6.56991 1.71872 0
M  V30 8001 H 738.07 -6.53895 -0.525088 0
M  V30 8002 H 737.987 -7.50484 0.911556 0
M  V30 8003 H 739.255 -7.79122 -0.242616 0
M  V30 8004 N 743.484 -0.715051 -1.40445 0
M  V30 8005 C 744.73 -0.254705 -2.01194 0
M  V30 8006 C 745.063 1.14894 -1.56567 0
M  V30 8007 O 744.338 1.77933 -0.785491 0
M  V30 8008 C 744.621 -0.334148 -3.58546 0
M  V30 8009 C 744.474 -1.77613 -4.13248 0
M  V30 8010 C 745.793 0.294968 -4.3911 0
M  V30 8011 H 742.912 -0.094025 -0.730978 0
M  V30 8012 H 745.554 -0.907449 -1.66929 0
M  V30 8013 H 743.704 0.221609 -3.87867 0
M  V30 8014 H 745.376 -2.38723 -3.94727 0
M  V30 8015 H 743.619 -2.30402 -3.67556 0
M  V30 8016 H 744.29 -1.78311 -5.22407 0
M  V30 8017 H 746.766 -0.178563 -4.15717 0
M  V30 8018 H 745.642 0.208934 -5.48502 0
M  V30 8019 H 745.903 1.37841 -4.20062 0
M  V30 8020 N 744.962 1.50701 -0.461195 0
M  V30 8021 C 745.892 2.31182 0.328184 0
M  V30 8022 C 746.873 1.37644 0.999408 0
M  V30 8023 O 748.058 1.66565 0.99848 0
M  V30 8024 C 745.188 3.17113 1.41621 0
M  V30 8025 C 744.142 4.19124 0.867148 0
M  V30 8026 C 743.468 4.93728 2.05272 0
M  V30 8027 C 744.768 5.22174 -0.114808 0
M  V30 8028 H 746.462 2.97423 -0.343501 0
M  V30 8029 H 744.008 1.43033 -0.166641 0
M  V30 8030 H 745.961 3.72208 1.97584 0
M  V30 8031 H 744.685 2.48739 2.11652 0
M  V30 8032 H 743.344 3.65116 0.329557 0
M  V30 8033 H 742.992 4.21835 2.73978 0
M  V30 8034 H 742.692 5.62724 1.69161 0
M  V30 8035 H 744.216 5.51654 2.61744 0
M  V30 8036 H 745.63 5.72198 0.355316 0
M  V30 8037 H 744.027 5.98833 -0.389689 0
M  V30 8038 H 745.097 4.7353 -1.04391 0
M  V30 8039 N 746.441 0.193421 1.56409 0
M  V30 8040 C 747.689 -0.444908 1.97142 0
M  V30 8041 C 748.01 -1.62268 1.08139 0
M  V30 8042 O 747.28 -1.95307 0.152326 0
M  V30 8043 H 745.86 -0.16736 0.728011 0
M  V30 8044 H 748.522 0.279763 1.92882 0
M  V30 8045 H 747.618 -0.790159 3.01932 0
M  V30 8046 N 747.919 -1.57396 -0.0801906 0
M  V30 8047 C 748.829 -2.06451 -1.11423 0
M  V30 8048 C 749.845 -0.992352 -1.42928 0
M  V30 8049 O 751.021 -1.30651 -1.53272 0
M  V30 8050 C 748.086 -2.49164 -2.41077 0
M  V30 8051 C 747.147 -3.70641 -2.16619 0
M  V30 8052 C 746.38 -4.11307 -3.40092 0
M  V30 8053 O 746.603 -3.51922 -4.48895 0
M  V30 8054 O 745.537 -5.04157 -3.288 0
M  V30 8055 H 749.363 -2.94857 -0.727519 0
M  V30 8056 H 746.948 -1.46484 -0.293743 0
M  V30 8057 H 748.83 -2.77196 -3.17396 0
M  V30 8058 H 747.505 -1.6389 -2.79145 0
M  V30 8059 H 746.412 -3.47703 -1.38033 0
M  V30 8060 H 747.745 -4.5674 -1.83437 0
M  V30 8061 N 749.397 0.351382 -1.53633 0
M  V30 8062 C 750.645 1.09034 -1.70165 0
M  V30 8063 C 750.966 1.89413 -0.463422 0
M  V30 8064 O 750.236 1.888 0.522624 0
M  V30 8065 H 748.816 0.405522 -0.627344 0
M  V30 8066 H 751.478 0.394554 -1.90865 0
M  V30 8067 H 750.574 1.77215 -2.56907 0
M  V30 8068 N 750.875 1.45233 0.611969 0
M  V30 8069 C 752.152 1.39495 1.37115 0
M  V30 8070 C 752.532 0.0633303 2.11005 0
M  V30 8071 O 751.88 -0.954617 2.07604 0
M  V30 8072 C 752.09 2.60579 2.32163 0
M  V30 8073 C 753.438 3.05477 2.94905 0
M  V30 8074 O 754.462 2.60921 2.42485 0
M  V30 8075 O 753.321 3.82787 3.90047 0
M  V30 8076 H 750.415 0.55335 0.614599 0
M  V30 8077 H 752.961 1.57355 0.635423 0
M  V30 8078 H 751.733 3.49085 1.76793 0
M  V30 8079 H 751.356 2.45031 3.13122 0
M  V30 8080 N 752.353 -0.854086 1.3245 0
M  V30 8081 C 753.3 -1.96271 1.21434 0
M  V30 8082 C 754.27 -1.6582 0.0963851 0
M  V30 8083 O 755.455 -1.88851 0.27203 0
M  V30 8084 C 752.595 -3.31939 0.943952 0
M  V30 8085 C 751.708 -3.74885 2.14675 0
M  V30 8086 C 750.843 -4.99347 1.81179 0
M  V30 8087 C 749.882 -5.34785 2.97777 0
M  V30 8088 N 749.019 -6.50425 2.6437 0
M  V30 8089 H 753.859 -2.05025 2.16261 0
M  V30 8090 H 751.396 -1.00348 1.07558 0
M  V30 8091 H 753.354 -4.10076 0.767675 0
M  V30 8092 H 751.984 -3.22784 0.0324763 0
M  V30 8093 H 751.036 -2.92396 2.43328 0
M  V30 8094 H 752.348 -3.97068 3.01891 0
M  V30 8095 H 751.502 -5.85193 1.60107 0
M  V30 8096 H 750.241 -4.79101 0.911777 0
M  V30 8097 H 749.246 -4.47451 3.1948 0
M  V30 8098 H 750.471 -5.56988 3.88511 0
M  V30 8099 H 748.417 -6.31695 1.7691 0
M  V30 8100 H 748.334 -6.7263 3.45116 0
M  V30 8101 H 749.602 -7.39422 2.46729 0
M  V30 8102 N 753.831 -1.1567 -1.07043 0
M  V30 8103 C 754.741 -0.870435 -2.17855 0
M  V30 8104 C 755.757 0.154452 -1.73313 0
M  V30 8105 O 756.933 -0.0203759 -2.0139 0
M  V30 8106 C 753.998 -0.367219 -3.4475 0
M  V30 8107 C 753.059 -1.45639 -4.03841 0
M  V30 8108 C 752.292 -0.977092 -5.2468 0
M  V30 8109 O 752.515 0.176127 -5.70128 0
M  V30 8110 O 751.449 -1.76215 -5.75527 0
M  V30 8111 H 755.275 -1.79687 -2.44839 0
M  V30 8112 H 752.86 -0.936064 -1.1644 0
M  V30 8113 H 754.742 -0.0931947 -4.21297 0
M  V30 8114 H 753.417 0.53131 -3.1931 0
M  V30 8115 H 752.324 -1.78406 -3.28819 0
M  V30 8116 H 753.657 -2.32995 -4.3356 0
M  V30 8117 N 755.309 1.25446 -0.953992 0
M  V30 8118 C 756.586 1.884 -0.525823 0
M  V30 8119 C 756.966 1.86079 0.996891 0
M  V30 8120 O 756.314 1.32389 1.8624 0
M  V30 8121 C 756.524 3.31154 -1.10172 0
M  V30 8122 C 757.872 4.07926 -1.17819 0
M  V30 8123 O 758.896 3.40273 -1.05323 0
M  V30 8124 O 757.755 5.28942 -1.37415 0
M  V30 8125 H 754.849 0.808629 -0.173345 0
M  V30 8126 H 757.395 1.33522 -1.04738 0
M  V30 8127 H 756.167 3.27271 -2.14499 0
M  V30 8128 H 755.79 3.93588 -0.56338 0
M  V30 8129 N 756.787 0.722489 1.40064 0
M  V30 8130 C 758.033 0.265371 2.01056 0
M  V30 8131 C 758.366 -1.14062 1.57174 0
M  V30 8132 O 757.641 -1.77514 0.794916 0
M  V30 8133 C 757.924 0.353157 3.58364 0
M  V30 8134 C 757.777 1.79802 4.123 0
M  V30 8135 C 759.096 -0.271677 4.39261 0
M  V30 8136 H 756.215 0.0979002 0.730469 0
M  V30 8137 H 758.857 0.916289 1.66446 0
M  V30 8138 H 757.007 -0.201037 3.87979 0
M  V30 8139 H 758.679 2.40813 3.93455 0
M  V30 8140 H 756.922 2.32348 3.66329 0
M  V30 8141 H 757.593 1.81079 5.21454 0
M  V30 8142 H 760.069 0.200607 4.15616 0
M  V30 8143 H 758.945 -0.179843 5.48605 0
M  V30 8144 H 759.206 -1.35611 4.20787 0
M  V30 8145 N 758.265 -1.50454 0.469181 0
M  V30 8146 C 759.212 -2.28486 -0.325982 0
M  V30 8147 C 760.182 -1.33455 -0.988893 0
M  V30 8148 O 761.367 -1.6239 -1.0017 0
M  V30 8149 C 758.507 -3.15288 -1.40313 0
M  V30 8150 C 757.62 -4.25348 -0.755183 0
M  V30 8151 C 756.755 -4.9941 -1.81006 0
M  V30 8152 C 755.794 -6.01348 -1.14226 0
M  V30 8153 N 754.931 -6.68695 -2.1399 0
M  V30 8154 H 759.771 -2.95987 0.345753 0
M  V30 8155 H 757.308 -1.45965 0.182355 0
M  V30 8156 H 759.266 -3.63964 -2.03927 0
M  V30 8157 H 757.896 -2.49837 -2.04405 0
M  V30 8158 H 756.948 -3.80399 -0.00651901 0
M  V30 8159 H 758.26 -4.98279 -0.227941 0
M  V30 8160 H 757.414 -5.51794 -2.52206 0
M  V30 8161 H 756.153 -4.26181 -2.3711 0
M  V30 8162 H 755.158 -5.48225 -0.415876 0
M  V30 8163 H 756.383 -6.76548 -0.588135 0
M  V30 8164 H 754.329 -5.98258 -2.69115 0
M  V30 8165 H 754.246 -7.37495 -1.66246 0
M  V30 8166 H 755.514 -7.25697 -2.84576 0
M  V30 8167 N 759.743 -0.201713 -1.56304 0
M  V30 8168 C 760.653 0.728296 -2.23009 0
M  V30 8169 C 761.669 1.22945 -1.23128 0
M  V30 8170 O 762.845 1.27523 -1.55884 0
M  V30 8171 C 759.91 1.92792 -2.88153 0
M  V30 8172 C 758.971 1.47068 -4.03323 0
M  V30 8173 C 758.204 2.61312 -4.65351 0
M  V30 8174 O 758.427 3.7896 -4.26317 0
M  V30 8175 O 757.361 2.33646 -5.54701 0
M  V30 8176 H 761.187 0.190166 -3.03104 0
M  V30 8177 H 758.772 0.0278725 -1.49374 0
M  V30 8178 H 760.654 2.6289 -3.29343 0
M  V30 8179 H 759.329 2.45452 -2.11033 0
M  V30 8180 H 758.236 0.738299 -3.66742 0
M  V30 8181 H 759.569 0.990666 -4.82127 0
M  V30 8182 N 761.222 1.57436 0.0718424 0
M  V30 8183 C 762.169 2.03686 1.08539 0
M  V30 8184 C 763.139 0.917474 1.38462 0
M  V30 8185 O 764.324 1.18513 1.4953 0
M  V30 8186 C 761.464 2.48566 2.39393 0
M  V30 8187 C 760.577 3.74122 2.16001 0
M  V30 8188 C 759.712 4.07786 3.40418 0
M  V30 8189 C 758.751 5.26383 3.1239 0
M  V30 8190 N 757.888 5.55685 4.29138 0
M  V30 8191 H 762.728 2.90043 0.684018 0
M  V30 8192 H 760.265 1.43438 0.326183 0
M  V30 8193 H 762.223 2.72639 3.15791 0
M  V30 8194 H 760.853 1.65186 2.77333 0
M  V30 8195 H 759.905 3.57389 1.30296 0
M  V30 8196 H 761.217 4.60659 1.91298 0
M  V30 8197 H 760.371 4.32759 4.25211 0
M  V30 8198 H 759.11 3.19817 3.68197 0
M  V30 8199 H 758.115 5.01206 2.25993 0
M  V30 8200 H 759.34 6.1597 2.85934 0
M  V30 8201 H 757.286 4.70675 4.56948 0
M  V30 8202 H 757.203 6.3664 4.07708 0
M  V30 8203 H 758.471 5.85209 5.14928 0
M  V30 8204 N 762.7 -0.34323 1.53817 0
M  V30 8205 C 763.648 -1.44176 1.82527 0
M  V30 8206 C 764.642 -1.54452 0.695772 0
M  V30 8207 O 765.848 -1.57072 0.879114 0
M  V30 8208 H 762.223 -0.480729 0.578277 0
M  V30 8209 H 764.194 -1.17176 2.74431 0
M  V30 8210 C 762.943 -2.80695 2.05197 0
M  V30 8211 H 762.266 -2.73554 2.91561 0
M  V30 8212 H 763.706 -3.56679 2.29251 0
M  V30 8213 C 762.165 -3.26322 0.837589 0
M  V30 8214 O 762.695 -4.01683 0.0371631 0
M  V30 8215 N 760.901 -2.83128 0.654724 0
M  V30 8216 H 760.448 -2.21965 1.30725 0
M  V30 8217 H 760.406 -3.14011 -0.156345 0
M  V30 8218 N 764.178 -1.45556 -0.604258 0
M  V30 8219 C 765.455 -1.40221 -1.36373 0
M  V30 8220 C 765.835 -0.0745195 -2.10968 0
M  V30 8221 O 765.183 0.943594 -2.08107 0
M  V30 8222 C 765.393 -2.61807 -2.30777 0
M  V30 8223 C 766.741 -3.07037 -2.93281 0
M  V30 8224 O 767.765 -2.62203 -2.41097 0
M  V30 8225 O 766.624 -3.8485 -3.88011 0
M  V30 8226 H 763.718 -0.556602 -0.611656 0
M  V30 8227 H 766.264 -1.57689 -0.627069 0
M  V30 8228 H 765.036 -3.50017 -1.74939 0
M  V30 8229 H 764.659 -2.46688 -3.11818 0
M  V30 8230 N 765.656 0.84705 -1.32902 0
M  V30 8231 C 766.566 1.98845 -1.2449 0
M  V30 8232 C 767.582 1.7329 -0.15702 0
M  V30 8233 O 768.758 1.978 -0.379104 0
M  V30 8234 C 765.823 3.32679 -0.975985 0
M  V30 8235 C 764.884 3.71405 -2.15306 0
M  V30 8236 C 764.117 4.98853 -1.89688 0
M  V30 8237 O 764.34 5.64134 -0.843168 0
M  V30 8238 O 763.274 5.34889 -2.76002 0
M  V30 8239 H 767.1 2.0888 -2.2046 0
M  V30 8240 H 764.685 0.978852 -1.12867 0
M  V30 8241 H 766.567 4.12885 -0.842826 0
M  V30 8242 H 765.242 3.23667 -0.0464954 0
M  V30 8243 H 764.149 2.91743 -2.34172 0
M  V30 8244 H 765.482 3.85073 -3.06561 0
M  V30 8245 N 767.134 1.16236 1.06428 0
M  V30 8246 C 768.066 0.825446 2.1382 0
M  V30 8247 C 769.079 -0.166707 1.61944 0
M  V30 8248 O 770.268 0.0578606 1.78406 0
M  V30 8249 C 767.368 0.208023 3.38261 0
M  V30 8250 C 766.541 1.23994 4.19457 0
M  V30 8251 C 765.6 0.642569 5.22262 0
M  V30 8252 O 764.626 1.31106 5.53895 0
M  V30 8253 N 765.828 -0.571327 5.77682 0
M  V30 8254 H 768.593 1.7497 2.43322 0
M  V30 8255 H 766.154 1.05951 1.22417 0
M  V30 8256 H 768.146 -0.204608 4.04182 0
M  V30 8257 H 766.716 -0.619752 3.06395 0
M  V30 8258 H 765.936 1.82879 3.49212 0
M  V30 8259 H 767.224 1.93638 4.70512 0
M  V30 8260 H 766.622 -1.13263 5.54245 0
M  V30 8261 H 765.179 -0.926187 6.45186 0
M  V30 8262 N 768.612 -1.24939 0.960631 0
M  V30 8263 C 769.559 -2.25658 0.484459 0
M  V30 8264 C 770.529 -1.59422 -0.466242 0
M  V30 8265 O 771.714 -1.87015 -0.378169 0
M  V30 8266 C 768.854 -3.44359 -0.225958 0
M  V30 8267 C 767.967 -4.25214 0.762682 0
M  V30 8268 C 767.102 -5.31192 0.0290931 0
M  V30 8269 C 766.141 -6.03739 1.00827 0
M  V30 8270 N 765.278 -7.01437 0.305155 0
M  V30 8271 H 770.118 -2.65758 1.34821 0
M  V30 8272 H 767.655 -1.30648 0.675983 0
M  V30 8273 H 769.613 -4.12035 -0.654472 0
M  V30 8274 H 768.243 -3.05118 -1.05371 0
M  V30 8275 H 767.295 -3.57144 1.30966 0
M  V30 8276 H 768.607 -4.75406 1.50964 0
M  V30 8277 H 767.761 -6.04971 -0.457763 0
M  V30 8278 H 766.5 -4.81889 -0.750614 0
M  V30 8279 H 765.505 -5.2877 1.50607 0
M  V30 8280 H 766.73 -6.55131 1.7883 0
M  V30 8281 H 764.676 -6.54415 -0.455704 0
M  V30 8282 H 764.593 -7.49475 0.991104 0
M  V30 8283 H 765.861 -7.79336 -0.159966 0
M  V30 8284 N 770.09 -0.729906 -1.39679 0
M  V30 8285 C 771.367 -0.202149 -1.94553 0
M  V30 8286 C 771.747 1.29507 -1.66707 0
M  V30 8287 O 771.095 2.05819 -0.992517 0
M  V30 8288 C 771.305 -0.530279 -3.44948 0
M  V30 8289 C 772.653 -0.476808 -4.21914 0
M  V30 8290 O 773.677 -0.467171 -3.53123 0
M  V30 8291 O 772.536 -0.466869 -5.44502 0
M  V30 8292 H 769.63 -0.0351644 -0.826252 0
M  V30 8293 H 772.176 -0.808417 -1.49207 0
M  V30 8294 H 770.948 -1.56526 -3.5863 0
M  V30 8295 H 770.571 0.10522 -3.97461 0
M  V30 8296 N 771.568 1.50203 -0.477153 0
M  V30 8297 C 772.515 2.28656 0.31386 0
M  V30 8298 C 773.485 1.33977 0.981802 0
M  V30 8299 O 774.67 1.62919 0.993072 0
M  V30 8300 C 771.81 3.16027 1.38639 0
M  V30 8301 C 770.923 4.25743 0.732615 0
M  V30 8302 C 770.058 5.00363 1.78355 0
M  V30 8303 C 769.097 6.01945 1.11035 0
M  V30 8304 N 768.234 6.6982 2.10441 0
M  V30 8305 H 773.074 2.958 -0.361445 0
M  V30 8306 H 770.611 1.45867 -0.190093 0
M  V30 8307 H 772.569 3.6504 2.01994 0
M  V30 8308 H 771.199 2.50917 2.03077 0
M  V30 8309 H 770.251 3.80398 -0.0136546 0
M  V30 8310 H 771.563 4.98393 0.201513 0
M  V30 8311 H 770.717 5.53124 2.49276 0
M  V30 8312 H 769.456 4.27432 2.34847 0
M  V30 8313 H 768.461 5.48438 0.386797 0
M  V30 8314 H 769.686 6.76851 0.552248 0
M  V30 8315 H 767.632 5.99677 2.65939 0
M  V30 8316 H 767.549 7.38366 1.62332 0
M  V30 8317 H 768.817 7.27196 2.80724 0
M  V30 8318 N 773.046 0.209999 1.56195 0
M  V30 8319 C 774.292 -0.425442 1.98287 0
M  V30 8320 C 774.625 -1.60232 1.09724 0
M  V30 8321 O 773.9 -1.93902 0.152414 0
M  V30 8322 C 774.183 -0.871189 3.49403 0
M  V30 8323 C 774.036 0.308527 4.48741 0
M  V30 8324 C 775.355 -1.73146 4.04609 0
M  V30 8325 H 772.474 -0.153169 0.720908 0
M  V30 8326 H 775.116 0.303916 1.87554 0
M  V30 8327 H 773.266 -1.49266 3.58681 0
M  V30 8328 H 774.938 0.946487 4.51486 0
M  V30 8329 H 773.181 0.957878 4.23092 0
M  V30 8330 H 773.852 -0.0461143 5.51981 0
M  V30 8331 H 776.328 -1.2072 3.98203 0
M  V30 8332 H 775.204 -2.01228 5.10684 0
M  V30 8333 H 775.465 -2.69083 3.5078 0
M  V30 8334 N 774.524 -1.57472 -0.0634922 0
M  V30 8335 C 775.454 -2.07297 -1.07473 0
M  V30 8336 C 776.435 -0.968162 -1.39859 0
M  V30 8337 O 777.62 -1.24139 -1.49343 0
M  V30 8338 C 774.75 -2.52381 -2.38581 0
M  V30 8339 C 773.704 -3.66813 -2.20526 0
M  V30 8340 C 773.03 -3.97982 -3.57092 0
M  V30 8341 C 774.33 -4.96553 -1.61965 0
M  V30 8342 H 776.024 -2.92033 -0.660092 0
M  V30 8343 H 773.57 -1.40488 -0.316074 0
M  V30 8344 H 775.523 -2.85852 -3.09624 0
M  V30 8345 H 774.247 -1.64684 -2.8204 0
M  V30 8346 H 772.906 -3.33639 -1.51924 0
M  V30 8347 H 772.554 -3.07403 -3.98136 0
M  V30 8348 H 772.254 -4.7504 -3.45848 0
M  V30 8349 H 773.778 -4.33956 -4.29552 0
M  V30 8350 H 775.192 -5.28201 -2.22883 0
M  V30 8351 H 773.589 -5.7799 -1.61394 0
M  V30 8352 H 774.659 -4.81396 -0.581918 0
M  V30 8353 N 776.003 0.335068 -1.53997 0
M  V30 8354 C 777.251 1.07223 -1.71312 0
M  V30 8355 C 777.572 1.88911 -0.483486 0
M  V30 8356 O 776.842 1.89344 0.50257 0
M  V30 8357 H 775.422 0.398846 -0.63161 0
M  V30 8358 H 778.084 0.374288 -1.91272 0
M  V30 8359 H 777.18 1.7448 -2.58772 0
M  V30 8360 N 777.481 1.45874 0.596531 0
M  V30 8361 C 778.391 1.57947 1.73464 0
M  V30 8362 C 779.407 0.463461 1.67714 0
M  V30 8363 O 780.583 0.725685 1.87872 0
M  V30 8364 C 777.648 1.55348 3.09948 0
M  V30 8365 C 776.709 2.78074 3.27068 0
M  V30 8366 C 775.942 2.75589 4.57041 0
M  V30 8367 O 776.165 1.83545 5.40063 0
M  V30 8368 O 775.099 3.66945 4.77111 0
M  V30 8369 H 778.925 2.54169 1.66228 0
M  V30 8370 H 776.51 1.2851 0.76194 0
M  V30 8371 H 778.392 1.56545 3.91244 0
M  V30 8372 H 777.067 0.622811 3.17652 0
M  V30 8373 H 775.974 2.82435 2.45319 0
M  V30 8374 H 777.307 3.70303 3.24248 0
M  V30 8375 N 778.959 -0.83999 1.33349 0
M  V30 8376 C 780.207 -1.59202 1.24496 0
M  V30 8377 C 780.528 -1.94077 -0.189499 0
M  V30 8378 O 779.798 -1.60868 -1.11796 0
M  V30 8379 H 778.378 -0.590276 0.457802 0
M  V30 8380 H 781.04 -1.00394 1.67054 0
M  V30 8381 H 780.136 -2.52247 1.83788 0
M  V30 8382 N 780.437 -1.16799 -1.0581 0
M  V30 8383 C 781.714 -0.862616 -1.75551 0
M  V30 8384 C 782.094 0.6385 -2.01212 0
M  V30 8385 O 781.442 1.58784 -1.64317 0
M  V30 8386 C 781.652 -1.6907 -3.05314 0
M  V30 8387 C 783 -1.90675 -3.79379 0
M  V30 8388 O 784.024 -1.65976 -3.15167 0
M  V30 8389 O 782.883 -2.32145 -4.94743 0
M  V30 8390 H 779.977 -0.318789 -0.763088 0
M  V30 8391 H 782.523 -1.27461 -1.12034 0
M  V30 8392 H 781.295 -2.70912 -2.82352 0
M  V30 8393 H 780.918 -1.27606 -3.76567 0
M  V30 8394 N 781.915 1.24427 -0.967243 0
M  V30 8395 C 782.862 2.25398 -0.496419 0
M  V30 8396 C 783.832 1.59667 0.457781 0
M  V30 8397 O 785.017 1.87213 0.368246 0
M  V30 8398 C 782.157 3.44474 0.207693 0
M  V30 8399 C 781.27 4.24804 -0.785221 0
M  V30 8400 C 780.405 5.31169 -0.0572631 0
M  V30 8401 C 779.444 6.03195 -1.04027 0
M  V30 8402 N 778.581 7.01265 -0.34235 0
M  V30 8403 H 783.421 2.65039 -1.36229 0
M  V30 8404 H 780.958 1.30288 -0.682902 0
M  V30 8405 H 782.916 4.12376 0.632612 0
M  V30 8406 H 781.546 3.05672 1.03752 0
M  V30 8407 H 780.598 3.56445 -1.32858 0
M  V30 8408 H 781.91 4.74599 -1.53483 0
M  V30 8409 H 781.064 6.05205 0.425674 0
M  V30 8410 H 779.803 4.8228 0.725047 0
M  V30 8411 H 778.808 5.27964 -1.53409 0
M  V30 8412 H 780.033 6.54173 -1.82302 0
M  V30 8413 H 777.979 6.54648 0.420993 0
M  V30 8414 H 777.896 7.48939 -1.03084 0
M  V30 8415 H 779.164 7.7941 0.118634 0
M  V30 8416 N 783.393 0.737304 1.3929 0
M  V30 8417 C 784.303 0.100464 2.34385 0
M  V30 8418 C 785.319 -0.719282 1.58437 0
M  V30 8419 O 786.495 -0.647216 1.90717 0
M  V30 8420 C 783.56 -0.794325 3.37478 0
M  V30 8421 C 782.621 0.0379345 4.29283 0
M  V30 8422 C 781.854 -0.814241 5.27452 0
M  V30 8423 O 782.077 -2.05288 5.32177 0
M  V30 8424 O 781.011 -0.241679 6.01415 0
M  V30 8425 H 784.837 0.885407 2.90507 0
M  V30 8426 H 782.422 0.497999 1.40856 0
M  V30 8427 H 784.304 -1.30622 4.00644 0
M  V30 8428 H 782.979 -1.55804 2.83737 0
M  V30 8429 H 781.886 0.595405 3.69331 0
M  V30 8430 H 783.219 0.763926 4.86236 0
M  V30 8431 N 784.871 -1.49948 0.485112 0
M  V30 8432 C 786.148 -1.95186 -0.12726 0
M  V30 8433 C 786.528 -1.42605 -1.5565 0
M  V30 8434 O 785.876 -0.632986 -2.19558 0
M  V30 8435 C 786.086 -3.48955 -0.0562117 0
M  V30 8436 C 787.434 -4.23932 -0.238106 0
M  V30 8437 O 788.458 -3.55955 -0.132145 0
M  V30 8438 O 787.317 -5.44614 -0.453658 0
M  V30 8439 H 784.411 -0.820433 -0.104014 0
M  V30 8440 H 786.957 -1.60659 0.546517 0
M  V30 8441 H 785.729 -3.79814 0.941122 0
M  V30 8442 H 785.352 -3.90056 -0.770834 0
M  V30 8443 N 786.349 -0.21828 -1.56081 0
M  V30 8444 C 787.595 0.414921 -1.9851 0
M  V30 8445 C 787.928 1.59648 -1.10573 0
M  V30 8446 O 787.203 1.93818 -0.162695 0
M  V30 8447 C 787.486 0.852647 -3.4986 0
M  V30 8448 C 787.339 -0.33232 -4.48571 0
M  V30 8449 C 788.658 1.70998 -4.05521 0
M  V30 8450 H 785.777 0.149344 -0.72171 0
M  V30 8451 H 788.419 -0.313858 -1.8739 0
M  V30 8452 H 786.569 1.47362 -3.59467 0
M  V30 8453 H 788.241 -0.970418 -4.50977 0
M  V30 8454 H 786.484 -0.980302 -4.22578 0
M  V30 8455 H 787.155 0.0168407 -5.51997 0
M  V30 8456 H 789.631 1.18606 -3.98838 0
M  V30 8457 H 788.507 1.98517 -5.11744 0
M  V30 8458 H 788.768 2.67219 -3.52202 0
M  V30 8459 N 787.827 1.57504 0.0551401 0
M  V30 8460 C 788.774 2.04825 1.06373 0
M  V30 8461 C 789.744 0.932108 1.37481 0
M  V30 8462 O 790.929 1.20093 1.48265 0
M  V30 8463 C 788.069 2.51091 2.36743 0
M  V30 8464 C 787.182 3.76392 2.12021 0
M  V30 8465 C 786.317 4.11373 3.36074 0
M  V30 8466 C 785.356 5.29666 3.0679 0
M  V30 8467 N 784.493 5.60205 4.2322 0
M  V30 8468 H 789.333 2.90753 0.653216 0
M  V30 8469 H 786.87 1.43776 0.310951 0
M  V30 8470 H 788.828 2.75973 3.12881 0
M  V30 8471 H 787.458 1.68118 2.75565 0
M  V30 8472 H 786.51 3.58751 1.26498 0
M  V30 8473 H 787.822 4.62662 1.86401 0
M  V30 8474 H 786.976 4.37245 4.20597 0
M  V30 8475 H 785.715 3.23704 3.64784 0
M  V30 8476 H 784.72 5.03574 2.20664 0
M  V30 8477 H 785.945 6.18968 2.79385 0
M  V30 8478 H 783.891 4.75495 4.5193 0
M  V30 8479 H 783.808 6.40928 4.00933 0
M  V30 8480 H 785.076 5.90637 5.08692 0
M  V30 8481 N 789.305 -0.326896 1.54172 0
M  V30 8482 C 790.215 -1.42525 1.86343 0
M  V30 8483 C 791.231 -1.56764 0.75505 0
M  V30 8484 O 792.407 -1.71924 1.04901 0
M  V30 8485 C 789.472 -2.77286 2.08119 0
M  V30 8486 C 788.533 -2.7225 3.31931 0
M  V30 8487 C 787.766 -4.00584 3.52659 0
M  V30 8488 O 787.989 -4.98686 2.76891 0
M  V30 8489 O 786.923 -4.04045 4.46129 0
M  V30 8490 H 790.749 -1.18249 2.79734 0
M  V30 8491 H 788.334 -0.520614 1.40036 0
M  V30 8492 H 790.216 -3.57065 2.23791 0
M  V30 8493 H 788.891 -3.01459 1.17917 0
M  V30 8494 H 787.798 -1.91033 3.21647 0
M  V30 8495 H 789.131 -2.53032 4.2218 0
M  V30 8496 N 790.784 -1.46188 -0.588786 0
M  V30 8497 C 791.731 -1.56292 -1.69828 0
M  V30 8498 C 792.701 -0.407581 -1.61022 0
M  V30 8499 O 793.886 -0.623532 -1.80324 0
M  V30 8500 C 791.026 -1.55341 -3.08161 0
M  V30 8501 C 790.139 -2.81564 -3.27636 0
M  V30 8502 C 789.274 -2.72158 -4.56183 0
M  V30 8503 C 788.313 -3.93348 -4.68981 0
M  V30 8504 N 787.45 -3.82365 -5.88848 0
M  V30 8505 H 792.29 -2.51066 -1.6053 0
M  V30 8506 H 789.827 -1.24562 -0.782474 0
M  V30 8507 H 791.785 -1.52776 -3.88221 0
M  V30 8508 H 790.415 -0.641034 -3.16371 0
M  V30 8509 H 789.467 -2.94136 -2.41223 0
M  V30 8510 H 790.779 -3.714 -3.32962 0
M  V30 8511 H 789.933 -2.67665 -5.44464 0
M  V30 8512 H 788.672 -1.79953 -4.53286 0
M  V30 8513 H 787.677 -3.98181 -3.7912 0
M  V30 8514 H 788.902 -4.86643 -4.73662 0
M  V30 8515 H 786.848 -2.92942 -5.86959 0
M  V30 8516 H 786.765 -4.65851 -5.95415 0
M  V30 8517 H 788.033 -3.81836 -6.79575 0
M  V30 8518 N 792.262 0.832906 -1.33792 0
M  V30 8519 C 793.21 1.96455 -1.24532 0
M  V30 8520 C 794.204 1.68774 -0.145455 0
M  V30 8521 O 795.41 1.77314 -0.309797 0
M  V30 8522 H 791.785 0.645008 -0.386611 0
M  V30 8523 H 793.756 2.01389 -2.20193 0
M  V30 8524 C 792.505 3.32784 -1.00748 0
M  V30 8525 H 791.828 3.54626 -1.84609 0
M  V30 8526 H 793.268 4.12447 -0.98301 0
M  V30 8527 C 791.727 3.35654 0.289475 0
M  V30 8528 O 792.257 3.80281 1.29419 0
M  V30 8529 N 790.463 2.88843 0.3191 0
M  V30 8530 H 790.01 2.52719 -0.499069 0
M  V30 8531 H 789.968 2.91145 1.18667 0
M  V30 8532 N 793.74 1.17359 1.05189 0
M  V30 8533 C 795.017 0.871914 1.75091 0
M  V30 8534 C 795.397 -0.627821 2.01548 0
M  V30 8535 O 794.745 -1.5791 1.65156 0
M  V30 8536 C 794.955 1.70687 3.04413 0
M  V30 8537 C 796.303 1.92684 3.78362 0
M  V30 8538 O 797.327 1.67645 3.14282 0
M  V30 8539 O 796.186 2.34765 4.93505 0
M  V30 8540 H 793.28 0.322831 0.761386 0
M  V30 8541 H 795.826 1.28054 1.11357 0
M  V30 8542 H 794.598 2.72405 2.80911 0
M  V30 8543 H 794.221 1.29602 3.75884 0
M  V30 8544 N 795.218 -1.23913 0.973828 0
M  V30 8545 C 796.466 -1.91771 0.637817 0
M  V30 8546 C 796.787 -1.76434 -0.830435 0
M  V30 8547 O 796.057 -1.13965 -1.59339 0
M  V30 8548 H 794.637 -0.709761 0.232912 0
M  V30 8549 H 797.299 -1.50677 1.23622 0
M  V30 8550 H 796.395 -2.99327 0.883731 0
M  V30 8551 N 796.696 -0.74468 -1.38897 0
M  V30 8552 C 797.643 -0.111064 -2.30533 0
M  V30 8553 C 798.613 0.719276 -1.49719 0
M  V30 8554 O 799.798 0.677244 -1.78376 0
M  V30 8555 C 796.938 0.78292 -3.36102 0
M  V30 8556 C 796.051 -0.0610817 -4.31957 0
M  V30 8557 C 795.186 0.835075 -5.24595 0
M  V30 8558 C 794.225 -0.0130974 -6.12099 0
M  V30 8559 N 793.362 0.839525 -6.97063 0
M  V30 8560 H 798.202 -0.898113 -2.84144 0
M  V30 8561 H 795.739 -0.454537 -1.39901 0
M  V30 8562 H 797.697 1.31578 -3.95908 0
M  V30 8563 H 796.327 1.53585 -2.83922 0
M  V30 8564 H 795.379 -0.711469 -3.73687 0
M  V30 8565 H 796.691 -0.716482 -4.93627 0
M  V30 8566 H 795.845 1.43542 -5.89475 0
M  V30 8567 H 794.584 1.52423 -4.63269 0
M  V30 8568 H 793.589 -0.626179 -5.46223 0
M  V30 8569 H 794.814 -0.699181 -6.75491 0
M  V30 8570 H 792.76 1.5138 -6.38295 0
M  V30 8571 H 792.677 0.240823 -7.55616 0
M  V30 8572 H 793.945 1.42513 -7.66362 0
M  V30 8573 N 798.174 1.49689 -0.493057 0
M  V30 8574 C 799.121 2.28976 0.28959 0
M  V30 8575 C 800.091 1.35011 0.967536 0
M  V30 8576 O 801.276 1.63964 0.975736 0
M  V30 8577 C 798.416 3.1748 1.35279 0
M  V30 8578 C 797.529 4.26496 0.687418 0
M  V30 8579 C 796.664 5.02226 1.73038 0
M  V30 8580 C 795.703 6.03089 1.04645 0
M  V30 8581 N 794.84 6.72014 2.03325 0
M  V30 8582 H 799.68 2.954 -0.392798 0
M  V30 8583 H 797.217 1.45657 -0.205554 0
M  V30 8584 H 799.175 3.67162 1.98111 0
M  V30 8585 H 797.805 2.53057 2.00405 0
M  V30 8586 H 796.857 3.80362 -0.0540001 0
M  V30 8587 H 798.169 4.98578 0.14864 0
M  V30 8588 H 797.323 5.55737 2.43395 0
M  V30 8589 H 796.062 4.29899 2.303 0
M  V30 8590 H 795.067 5.48817 0.328606 0
M  V30 8591 H 796.292 6.77398 0.480428 0
M  V30 8592 H 794.238 6.02464 2.59564 0
M  V30 8593 H 794.155 7.40046 1.54492 0
M  V30 8594 H 795.423 7.30133 2.72995 0
M  V30 8595 N 799.652 0.226554 1.55963 0
M  V30 8596 C 800.929 -0.453058 1.90281 0
M  V30 8597 C 801.309 -1.77377 1.14458 0
M  V30 8598 O 800.657 -2.27067 0.255496 0
M  V30 8599 C 800.867 -0.641108 3.43061 0
M  V30 8600 C 802.215 -0.946265 4.13921 0
M  V30 8601 O 803.239 -0.727713 3.48687 0
M  V30 8602 O 802.098 -1.36131 5.29274 0
M  V30 8603 H 799.192 -0.240242 0.791336 0
M  V30 8604 H 801.738 0.26911 1.67553 0
M  V30 8605 H 800.51 0.290283 3.90222 0
M  V30 8606 H 800.133 -1.41458 3.71585 0
M  V30 8607 N 801.13 -1.57531 -0.0467866 0
M  V30 8608 C 802.077 -2.05387 -1.05285 0
M  V30 8609 C 803.047 -0.939385 -1.36985 0
M  V30 8610 O 804.232 -1.20877 -1.47626 0
M  V30 8611 C 801.372 -2.52343 -2.35408 0
M  V30 8612 C 800.485 -3.77512 -2.10022 0
M  V30 8613 C 799.62 -4.1315 -3.33887 0
M  V30 8614 C 798.659 -5.31286 -3.03976 0
M  V30 8615 N 797.796 -5.62441 -4.20243 0
M  V30 8616 H 802.636 -2.91095 -0.637788 0
M  V30 8617 H 800.173 -1.43939 -0.303322 0
M  V30 8618 H 802.131 -2.77628 -3.11413 0
M  V30 8619 H 800.761 -1.69577 -2.7467 0
M  V30 8620 H 799.813 -3.59417 -1.24594 0
M  V30 8621 H 801.125 -4.63644 -1.83945 0
M  V30 8622 H 800.279 -4.39469 -4.18273 0
M  V30 8623 H 799.018 -3.25634 -3.63062 0
M  V30 8624 H 798.023 -5.04738 -2.17991 0
M  V30 8625 H 799.248 -6.20441 -2.76098 0
M  V30 8626 H 797.194 -4.77885 -4.49402 0
M  V30 8627 H 797.111 -6.43046 -3.97528 0
M  V30 8628 H 798.379 -5.93327 -5.05553 0
M  V30 8629 N 802.608 0.318715 -1.54344 0
M  V30 8630 C 803.854 1.05765 -1.73037 0
M  V30 8631 C 804.187 1.87514 -0.505181 0
M  V30 8632 O 803.462 1.88021 0.497838 0
M  V30 8633 C 803.745 1.97836 -3.00887 0
M  V30 8634 C 803.598 1.19384 -4.33668 0
M  V30 8635 C 804.917 2.97285 -3.24514 0
M  V30 8636 H 802.036 0.383104 -0.629603 0
M  V30 8637 H 804.678 0.333864 -1.87044 0
M  V30 8638 H 802.828 2.59552 -2.89076 0
M  V30 8639 H 804.5 0.600906 -4.57369 0
M  V30 8640 H 802.743 0.496198 -4.30953 0
M  V30 8641 H 803.414 1.87014 -5.19355 0
M  V30 8642 H 805.89 2.45693 -3.35819 0
M  V30 8643 H 804.766 3.58887 -4.15321 0
M  V30 8644 H 805.027 3.70003 -2.41971 0
M  V30 8645 N 804.086 1.46499 0.581025 0
M  V30 8646 C 805.335 1.51162 1.3354 0
M  V30 8647 C 805.648 0.168433 1.94873 0
M  V30 8648 O 806.854 0.092883 2.71341 0
M  V30 8649 C 805.31 2.66362 2.42032 0
M  V30 8650 C 804.918 4.07109 1.86994 0
M  V30 8651 C 806.662 2.80297 3.188 0
M  V30 8652 C 804.569 5.13645 2.93125 0
M  V30 8653 H 803.499 0.562576 0.502021 0
M  V30 8654 H 806.15 1.72713 0.619863 0
M  V30 8655 H 804.532 2.38143 3.16392 0
M  V30 8656 H 805.706 4.45125 1.19166 0
M  V30 8657 H 804.021 3.97854 1.22887 0
M  V30 8658 H 806.618 3.5706 3.9801 0
M  V30 8659 H 806.961 1.87875 3.71495 0
M  V30 8660 H 807.494 3.0817 2.51547 0
M  V30 8661 H 804.233 6.07866 2.45315 0
M  V30 8662 H 803.753 4.80172 3.59437 0
M  V30 8663 H 805.432 5.39562 3.57046 0
M  V30 8664 N 805.565 -0.825799 1.34232 0
M  V30 8665 C 806.813 -1.57873 1.26177 0
M  V30 8666 C 807.134 -1.94267 -0.168904 0
M  V30 8667 O 806.404 -1.62045 -1.10084 0
M  V30 8668 H 804.984 -0.585388 0.464037 0
M  V30 8669 H 807.646 -0.986163 1.6811 0
M  V30 8670 H 806.742 -2.50283 1.86453 0
M  V30 8671 N 807.043 -1.17915 -1.04565 0
M  V30 8672 C 808.268 -0.996749 -1.81878 0
M  V30 8673 C 808.693 0.450169 -1.82634 0
M  V30 8674 O 808.051 1.32268 -1.23995 0
M  V30 8675 C 808.099 -1.55005 -3.25585 0
M  V30 8676 O 807.203 -0.76804 -4.05185 0
M  V30 8677 H 806.544 -0.353456 -0.562108 0
M  V30 8678 H 809.074 -1.56557 -1.31723 0
M  V30 8679 H 809.084 -1.57503 -3.76373 0
M  V30 8680 H 807.759 -2.60327 -3.2435 0
M  V30 8681 H 806.336 -0.81498 -3.63885 0
M  V30 8682 N 808.521 1.23394 -0.980386 0
M  V30 8683 C 809.431 2.28561 -0.528864 0
M  V30 8684 C 810.447 1.68946 0.416329 0
M  V30 8685 O 811.623 1.99355 0.286251 0
M  V30 8686 C 808.688 3.46323 0.16155 0
M  V30 8687 C 807.749 4.21297 -0.825044 0
M  V30 8688 C 806.982 5.33437 -0.167483 0
M  V30 8689 O 807.205 5.60812 1.04146 0
M  V30 8690 O 806.139 5.95637 -0.866047 0
M  V30 8691 H 809.965 2.69326 -1.40346 0
M  V30 8692 H 807.55 1.29325 -0.748019 0
M  V30 8693 H 809.432 4.17811 0.548841 0
M  V30 8694 H 808.107 3.0751 1.01092 0
M  V30 8695 H 807.014 3.52134 -1.26303 0
M  V30 8696 H 808.347 4.6396 -1.64322 0
M  V30 8697 N 809.999 0.752036 1.385 0
M  V30 8698 C 810.946 0.123288 2.3047 0
M  V30 8699 C 811.916 -0.711326 1.50098 0
M  V30 8700 O 813.101 -0.667775 1.78733 0
M  V30 8701 C 810.241 -0.765085 3.36512 0
M  V30 8702 C 809.354 0.0839885 4.31918 0
M  V30 8703 C 808.489 -0.807243 5.25031 0
M  V30 8704 C 807.528 0.0455583 6.12083 0
M  V30 8705 N 806.665 -0.802547 6.97498 0
M  V30 8706 H 811.505 0.913169 2.83664 0
M  V30 8707 H 809.042 0.46195 1.39658 0
M  V30 8708 H 811 -1.29476 3.966 0
M  V30 8709 H 809.63 -1.52077 2.84732 0
M  V30 8710 H 808.682 0.731276 3.73305 0
M  V30 8711 H 809.994 0.74265 4.9324 0
M  V30 8712 H 809.148 -1.40414 5.90228 0
M  V30 8713 H 807.887 -1.49964 4.64071 0
M  V30 8714 H 806.892 0.655137 5.45883 0
M  V30 8715 H 808.117 0.734994 6.75111 0
M  V30 8716 H 806.063 -1.47992 6.39089 0
M  V30 8717 H 805.98 -0.200747 7.55733 0
M  V30 8718 H 807.248 -1.38447 7.67107 0
M  V30 8719 N 811.477 -1.49425 0.500989 0
M  V30 8720 C 812.705 -2.06861 -0.0403443 0
M  V30 8721 C 813.12 -1.36132 -1.30819 0
M  V30 8722 O 812.477 -0.439647 -1.77125 0
M  V30 8723 C 812.528 -3.6027 -0.297902 0
M  V30 8724 O 812.249 -4.28338 0.919686 0
M  V30 8725 C 813.75 -4.34419 -0.882876 0
M  V30 8726 H 810.97 -0.670688 0.0204619 0
M  V30 8727 H 813.514 -1.92207 0.698342 0
M  V30 8728 H 811.669 -3.74627 -0.98657 0
M  V30 8729 H 812.083 -5.2004 0.682528 0
M  V30 8730 H 813.557 -5.42631 -1.01268 0
M  V30 8731 H 814.034 -3.96898 -1.88066 0
M  V30 8732 H 814.64 -4.24669 -0.231677 0
M  V30 8733 N 812.955 -0.234822 -1.55841 0
M  V30 8734 C 813.887 0.702346 -2.18174 0
M  V30 8735 C 814.9 1.14776 -1.15457 0
M  V30 8736 O 816.089 1.07662 -1.42377 0
M  V30 8737 C 813.189 1.96483 -2.76129 0
M  V30 8738 C 812.362 1.67283 -4.04148 0
M  V30 8739 C 811.421 2.7837 -4.46539 0
M  V30 8740 O 810.447 2.46272 -5.13166 0
M  V30 8741 N 811.649 4.07611 -4.1332 0
M  V30 8742 H 814.414 0.169074 -2.99223 0
M  V30 8743 H 811.975 -0.0543164 -1.61809 0
M  V30 8744 H 813.967 2.70016 -3.01452 0
M  V30 8745 H 812.537 2.40822 -1.99307 0
M  V30 8746 H 811.757 0.773278 -3.86541 0
M  V30 8747 H 813.045 1.45222 -4.87635 0
M  V30 8748 H 812.443 4.36527 -3.59806 0
M  V30 8749 H 811 4.77646 -4.43506 0
M  V30 8750 N 814.433 1.57553 0.0384317 0
M  V30 8751 C 815.38 2.05942 1.04194 0
M  V30 8752 C 816.35 0.946637 1.36484 0
M  V30 8753 O 817.535 1.21658 1.46983 0
M  V30 8754 C 814.675 2.53588 2.34066 0
M  V30 8755 C 813.788 3.7862 2.08017 0
M  V30 8756 C 812.923 4.14915 3.31692 0
M  V30 8757 C 811.962 5.32891 3.01155 0
M  V30 8758 N 811.099 5.64662 4.17254 0
M  V30 8759 H 815.939 2.91429 0.622341 0
M  V30 8760 H 813.476 1.44098 0.295684 0
M  V30 8761 H 815.434 2.79276 3.09937 0
M  V30 8762 H 814.064 1.71031 2.73767 0
M  V30 8763 H 813.116 3.60073 1.22686 0
M  V30 8764 H 814.428 4.64613 1.81484 0
M  V30 8765 H 813.582 4.41681 4.15936 0
M  V30 8766 H 812.321 3.27555 3.6133 0
M  V30 8767 H 811.326 5.05887 2.15311 0
M  V30 8768 H 812.551 6.21896 2.72804 0
M  V30 8769 H 810.497 4.80261 4.46861 0
M  V30 8770 H 810.414 6.45145 3.94112 0
M  V30 8771 H 811.682 5.96 5.02399 0
M  V30 8772 N 815.911 -0.310526 1.54511 0
M  V30 8773 C 816.821 -1.4054 1.87844 0
M  V30 8774 C 817.837 -1.55954 0.771635 0
M  V30 8775 O 819.013 -1.70801 1.06719 0
M  V30 8776 C 816.078 -2.75063 2.11048 0
M  V30 8777 C 815.139 -2.68715 3.348 0
M  V30 8778 C 814.372 -3.96821 3.56887 0
M  V30 8779 O 814.595 -4.95721 2.82165 0
M  V30 8780 O 813.529 -3.99291 4.50389 0
M  V30 8781 H 817.355 -1.15275 2.80972 0
M  V30 8782 H 814.94 -0.505732 1.4058 0
M  V30 8783 H 816.822 -3.54671 2.27566 0
M  V30 8784 H 815.497 -3.00191 1.21108 0
M  V30 8785 H 814.404 -1.87611 3.23655 0
M  V30 8786 H 815.737 -2.4854 4.2484 0
M  V30 8787 N 817.389 -1.46805 -0.573248 0
M  V30 8788 C 818.638 -1.51868 -1.32736 0
M  V30 8789 C 818.951 -0.178765 -1.94781 0
M  V30 8790 O 820.157 -0.107272 -2.71288 0
M  V30 8791 C 818.613 -2.67641 -2.40616 0
M  V30 8792 C 818.221 -4.08094 -1.84832 0
M  V30 8793 C 819.965 -2.81984 -3.17309 0
M  V30 8794 C 817.872 -5.15193 -2.90397 0
M  V30 8795 H 816.802 -0.56523 -0.49903 0
M  V30 8796 H 819.453 -1.7304 -0.610695 0
M  V30 8797 H 817.835 -2.39818 -3.15124 0
M  V30 8798 H 819.009 -4.45751 -1.16803 0
M  V30 8799 H 817.324 -3.985 -1.20775 0
M  V30 8800 H 819.921 -3.59166 -3.96111 0
M  V30 8801 H 820.264 -1.89842 -3.70494 0
M  V30 8802 H 820.797 -3.095 -2.4991 0
M  V30 8803 H 817.536 -6.09158 -2.42088 0
M  V30 8804 H 817.056 -4.82071 -3.56886 0
M  V30 8805 H 818.735 -5.41448 -3.54179 0
M  V30 8806 N 818.867 0.818669 -1.34668 0
M  V30 8807 C 819.814 1.92983 -1.26595 0
M  V30 8808 C 820.784 1.65506 -0.140315 0
M  V30 8809 O 821.969 1.88063 -0.322005 0
M  V30 8810 C 819.109 3.2932 -1.03163 0
M  V30 8811 C 818.222 3.69061 -2.24539 0
M  V30 8812 C 817.357 4.94368 -1.94355 0
M  V30 8813 C 816.396 5.26702 -3.11851 0
M  V30 8814 N 815.533 6.43187 -2.81522 0
M  V30 8815 H 820.373 1.99219 -2.2162 0
M  V30 8816 H 817.91 0.974612 -1.1018 0
M  V30 8817 H 819.868 4.07897 -0.87613 0
M  V30 8818 H 818.498 3.22584 -0.118045 0
M  V30 8819 H 817.55 2.85842 -2.50995 0
M  V30 8820 H 818.862 3.88924 -3.12313 0
M  V30 8821 H 818.016 5.80742 -1.75566 0
M  V30 8822 H 816.755 4.76515 -1.03848 0
M  V30 8823 H 815.76 4.38823 -3.31231 0
M  V30 8824 H 816.985 5.46492 -4.03142 0
M  V30 8825 H 814.931 6.26783 -1.93596 0
M  V30 8826 H 814.848 6.63243 -3.62829 0
M  V30 8827 H 816.116 7.32621 -2.66247 0
M  V30 8828 N 820.346 1.18468 1.03938 0
M  V30 8829 C 821.256 0.927889 2.1547 0
M  V30 8830 C 822.272 -0.108447 1.73662 0
M  V30 8831 O 823.448 0.0737636 2.01265 0
M  V30 8832 C 820.513 0.458494 3.43655 0
M  V30 8833 C 819.574 1.56295 3.99838 0
M  V30 8834 C 818.807 1.11586 5.21904 0
M  V30 8835 O 819.03 -0.0249057 5.70395 0
M  V30 8836 O 817.964 1.91412 5.70653 0
M  V30 8837 H 821.79 1.86116 2.39989 0
M  V30 8838 H 819.375 0.966607 1.13917 0
M  V30 8839 H 821.257 0.204861 4.20902 0
M  V30 8840 H 819.932 -0.446464 3.20606 0
M  V30 8841 H 818.839 1.87061 3.23974 0
M  V30 8842 H 820.172 2.44408 4.2723 0
M  V30 8843 N 821.824 -1.22873 0.986916 0
M  V30 8844 C 822.771 -2.2458 0.532215 0
M  V30 8845 C 823.741 -1.60375 -0.432322 0
M  V30 8846 O 824.926 -1.87775 -0.338416 0
M  V30 8847 C 822.066 -3.44761 -0.152864 0
M  V30 8848 C 821.179 -4.23501 0.852704 0
M  V30 8849 C 820.314 -5.31011 0.14176 0
M  V30 8850 C 819.353 -6.01464 1.1361 0
M  V30 8851 N 818.49 -7.00631 0.453871 0
M  V30 8852 H 823.33 -2.62838 1.40428 0
M  V30 8853 H 820.867 -1.29185 0.703543 0
M  V30 8854 H 822.825 -4.1333 -0.566926 0
M  V30 8855 H 821.455 -3.07284 -0.988756 0
M  V30 8856 H 820.507 -3.54286 1.38512 0
M  V30 8857 H 821.819 -4.72097 1.61014 0
M  V30 8858 H 820.973 -6.05805 -0.329337 0
M  V30 8859 H 819.712 -4.83373 -0.648229 0
M  V30 8860 H 818.717 -5.25456 1.61789 0
M  V30 8861 H 819.942 -6.5119 1.92686 0
M  V30 8862 H 817.888 -6.55235 -0.316791 0
M  V30 8863 H 817.805 -7.47204 1.14986 0
M  V30 8864 H 819.073 -7.795 0.00537823 0
M  V30 8865 N 823.302 -0.75937 -1.38099 0
M  V30 8866 C 824.548 -0.318584 -2.00282 0
M  V30 8867 C 824.881 1.09854 -1.60143 0
M  V30 8868 O 824.156 1.75344 -0.841702 0
M  V30 8869 C 824.439 -0.448047 -3.57302 0
M  V30 8870 C 824.292 -1.9067 -4.07388 0
M  V30 8871 C 825.611 0.155119 -4.39827 0
M  V30 8872 H 822.73 -0.117233 -0.727616 0
M  V30 8873 H 825.372 -0.960097 -1.63958 0
M  V30 8874 H 823.522 0.0981003 -3.88376 0
M  V30 8875 H 825.194 -2.5116 -3.86932 0
M  V30 8876 H 823.437 -2.41979 -3.6004 0
M  V30 8877 H 824.108 -1.94841 -5.1647 0
M  V30 8878 H 826.584 -0.31073 -4.14938 0
M  V30 8879 H 825.46 0.0343264 -5.48889 0
M  V30 8880 H 825.721 1.24407 -4.24235 0
M  V30 8881 N 824.78 1.49157 -0.508906 0
M  V30 8882 C 825.69 2.33045 0.269656 0
M  V30 8883 C 826.706 1.45143 0.959662 0
M  V30 8884 O 827.882 1.78155 0.939295 0
M  V30 8885 C 824.947 3.20772 1.31554 0
M  V30 8886 C 824.008 4.24531 0.638131 0
M  V30 8887 C 823.241 5.08065 1.63418 0
M  V30 8888 O 823.464 4.93238 2.86483 0
M  V30 8889 O 822.398 5.90117 1.18516 0
M  V30 8890 H 826.224 3.00821 -0.417183 0
M  V30 8891 H 823.809 1.46938 -0.270119 0
M  V30 8892 H 825.691 3.75095 1.92047 0
M  V30 8893 H 824.366 2.55681 1.98516 0
M  V30 8894 H 823.273 3.74099 -0.00674357 0
M  V30 8895 H 824.606 4.92199 0.0108155 0
M  V30 8896 N 826.258 0.243083 1.55714 0
M  V30 8897 C 827.205 -0.658078 2.21219 0
M  V30 8898 C 828.175 -1.1742 1.17481 0
M  V30 8899 O 829.36 -1.22937 1.45915 0
M  V30 8900 C 826.5 -1.85104 2.91257 0
M  V30 8901 C 825.613 -1.3718 4.09641 0
M  V30 8902 C 824.748 -2.52403 4.67404 0
M  V30 8903 C 823.787 -2.01321 5.78045 0
M  V30 8904 N 822.924 -3.09896 6.30007 0
M  V30 8905 H 827.764 -0.0927854 2.97856 0
M  V30 8906 H 825.301 -0.0340375 1.47061 0
M  V30 8907 H 827.259 -2.55179 3.3006 0
M  V30 8908 H 825.889 -2.38887 2.17101 0
M  V30 8909 H 824.941 -0.565232 3.76177 0
M  V30 8910 H 826.253 -0.957409 4.89525 0
M  V30 8911 H 825.407 -3.30525 5.08761 0
M  V30 8912 H 824.146 -2.97142 3.86728 0
M  V30 8913 H 823.151 -1.21667 5.36169 0
M  V30 8914 H 824.376 -1.57556 6.6057 0
M  V30 8915 H 822.322 -3.54077 5.52237 0
M  V30 8916 H 822.239 -2.72776 7.05074 0
M  V30 8917 H 823.507 -3.8809 6.76023 0
M  V30 8918 N 827.736 -1.57571 -0.0300757 0
M  V30 8919 C 829.152 -1.54869 -0.385703 0
M  V30 8920 C 829.352 -0.969068 -1.76667 0
M  V30 8921 O 828.408 -0.589676 -2.45518 0
M  V30 8922 C 829.721 -2.99313 -0.288482 0
M  V30 8923 C 831.269 -3.10857 -0.365638 0
M  V30 8924 C 831.744 -4.5703 -0.297878 0
M  V30 8925 N 833.235 -4.61825 -0.356703 0
M  V30 8926 C 833.97 -5.72466 -0.327146 0
M  V30 8927 N 833.466 -6.92349 -0.249941 0
M  V30 8928 N 835.259 -5.60836 -0.376801 0
M  V30 8929 H 827.41 -1.936 0.87367 0
M  V30 8930 H 829.673 -0.887924 0.332106 0
M  V30 8931 H 829.379 -3.45443 0.66047 0
M  V30 8932 H 829.253 -3.61332 -1.08253 0
M  V30 8933 H 831.64 -2.64676 -1.30502 0
M  V30 8934 H 831.721 -2.51671 0.457744 0
M  V30 8935 H 831.365 -5.03879 0.637835 0
M  V30 8936 H 831.295 -5.14127 -1.13935 0
M  V30 8937 H 833.786 -3.75571 -0.418926 0
M  V30 8938 H 834.099 -7.7245 -0.23246 0
M  V30 8939 H 832.444 -6.94664 -0.216004 0
M  V30 8940 H 835.635 -4.66073 -0.435101 0
M  V30 8941 H 835.808 -6.47052 -0.350298 0
M  V30 8942 N 829.214 0.302327 -1.54673 0
M  V30 8943 C 830.46 1.03924 -1.74149 0
M  V30 8944 C 830.793 1.86968 -0.525041 0
M  V30 8945 O 830.068 1.88538 0.477868 0
M  V30 8946 C 830.351 1.94633 -3.02969 0
M  V30 8947 C 830.204 1.14778 -4.34909 0
M  V30 8948 C 831.523 2.93826 -3.27649 0
M  V30 8949 H 828.642 0.376405 -0.633631 0
M  V30 8950 H 831.284 0.314007 -1.87387 0
M  V30 8951 H 829.434 2.56471 -2.91813 0
M  V30 8952 H 831.106 0.552363 -4.57981 0
M  V30 8953 H 829.349 0.450462 -4.31455 0
M  V30 8954 H 830.02 1.81495 -5.21309 0
M  V30 8955 H 832.496 2.42117 -3.38406 0
M  V30 8956 H 831.372 3.54462 -4.19104 0
M  V30 8957 H 831.633 3.67416 -2.45882 0
M  V30 8958 N 830.692 1.47107 0.565454 0
M  V30 8959 C 831.639 1.58974 1.6732 0
M  V30 8960 C 832.609 0.433146 1.60353 0
M  V30 8961 O 833.794 0.652141 1.79309 0
M  V30 8962 C 830.934 1.60224 3.05651 0
M  V30 8963 C 830.047 2.86741 3.23116 0
M  V30 8964 C 829.182 2.79381 4.51796 0
M  V30 8965 C 828.221 4.0076 4.62664 0
M  V30 8966 N 827.358 3.91685 5.8269 0
M  V30 8967 H 832.198 2.53588 1.56515 0
M  V30 8968 H 829.735 1.25791 0.762558 0
M  V30 8969 H 831.693 1.58933 3.85741 0
M  V30 8970 H 830.323 0.691285 3.15311 0
M  V30 8971 H 829.375 2.97936 2.36513 0
M  V30 8972 H 830.687 3.7665 3.27011 0
M  V30 8973 H 829.841 2.76293 5.40136 0
M  V30 8974 H 828.58 1.87142 4.50366 0
M  V30 8975 H 827.585 4.04162 3.72738 0
M  V30 8976 H 828.81 4.94117 4.6586 0
M  V30 8977 H 826.756 3.02243 5.82224 0
M  V30 8978 H 826.673 4.75264 5.87929 0
M  V30 8979 H 827.941 3.92599 6.73414 0
M  V30 8980 N 832.17 -0.811516 1.35101 0
M  V30 8981 C 833.117 -1.92308 1.27617 0
M  V30 8982 C 834.087 -1.6543 0.149091 0
M  V30 8983 O 835.272 -1.8789 0.331974 0
M  V30 8984 C 832.412 -3.28768 1.04908 0
M  V30 8985 C 831.525 -3.67865 2.26493 0
M  V30 8986 C 830.66 -4.9333 1.96974 0
M  V30 8987 C 829.699 -5.25041 3.1464 0
M  V30 8988 N 828.836 -6.41685 2.84929 0
M  V30 8989 H 833.676 -1.98041 2.22674 0
M  V30 8990 H 831.213 -0.968755 1.10696 0
M  V30 8991 H 833.171 -4.07426 0.897749 0
M  V30 8992 H 831.801 -3.22517 0.135151 0
M  V30 8993 H 830.853 -2.84507 2.52507 0
M  V30 8994 H 832.165 -3.87263 3.14371 0
M  V30 8995 H 831.319 -5.79803 1.78643 0
M  V30 8996 H 830.058 -4.75958 1.06374 0
M  V30 8997 H 829.063 -4.3706 3.33554 0
M  V30 8998 H 830.288 -5.44346 4.06035 0
M  V30 8999 H 828.234 -6.25747 1.96918 0
M  V30 9000 H 828.151 -6.6131 3.66341 0
M  V30 9001 H 829.419 -7.31198 2.70128 0
M  V30 9002 N 833.648 -1.19017 -1.03309 0
M  V30 9003 C 834.595 -0.924088 -2.11493 0
M  V30 9004 C 835.565 0.139464 -1.65513 0
M  V30 9005 O 836.75 -0.00178761 -1.908 0
M  V30 9006 C 833.89 -0.464255 -3.41963 0
M  V30 9007 C 833.003 -1.5941 -4.01513 0
M  V30 9008 C 832.138 -1.08622 -5.19976 0
M  V30 9009 C 831.177 -2.19024 -5.71572 0
M  V30 9010 N 830.314 -1.69575 -6.81314 0
M  V30 9011 H 835.154 -1.85039 -2.33591 0
M  V30 9012 H 832.691 -0.922593 -1.14572 0
M  V30 9013 H 834.649 -0.179078 -4.16815 0
M  V30 9014 H 833.279 0.425062 -3.19989 0
M  V30 9015 H 832.331 -1.99458 -3.23915 0
M  V30 9016 H 833.643 -2.42604 -4.35826 0
M  V30 9017 H 832.797 -0.756022 -6.01971 0
M  V30 9018 H 831.536 -0.223955 -4.87186 0
M  V30 9019 H 830.541 -2.5288 -4.88193 0
M  V30 9020 H 831.766 -3.05699 -6.06403 0
M  V30 9021 H 829.712 -0.856494 -6.50385 0
M  V30 9022 H 829.629 -2.46361 -7.14732 0
M  V30 9023 H 830.897 -1.39505 -7.66915 0
M  V30 9024 N 835.127 1.22348 -0.993418 0
M  V30 9025 C 836.367 1.92835 -0.677779 0
M  V30 9026 C 836.731 1.75624 0.775893 0
M  V30 9027 O 837.932 2.40379 1.20297 0
M  V30 9028 C 836.203 3.40906 -1.07322 0
M  V30 9029 S 837.762 4.29966 -0.876032 0
M  V30 9030 H 834.58 0.666421 -0.247799 0
M  V30 9031 H 837.182 1.48133 -1.27581 0
M  V30 9032 H 835.886 3.50946 -2.12756 0
M  V30 9033 H 835.417 3.90618 -0.467015 0
M  V30 9034 H 837.432 4.95652 0.233162 0
M  V30 9035 N 836.605 0.766683 1.37694 0
M  V30 9036 C 837.552 0.147725 2.30327 0
M  V30 9037 C 838.522 -0.695366 1.50844 0
M  V30 9038 O 839.707 -0.64878 1.79431 0
M  V30 9039 C 836.847 -0.72935 3.37305 0
M  V30 9040 C 835.96 0.129795 4.31805 0
M  V30 9041 C 835.095 -0.751511 5.25857 0
M  V30 9042 C 834.134 0.110475 6.12 0
M  V30 9043 N 833.271 -0.728522 6.9831 0
M  V30 9044 H 838.111 0.943204 2.82679 0
M  V30 9045 H 835.648 0.476736 1.3916 0
M  V30 9046 H 837.606 -1.25263 3.97951 0
M  V30 9047 H 836.236 -1.49048 2.86329 0
M  V30 9048 H 835.288 0.770829 3.72508 0
M  V30 9049 H 836.6 0.794923 4.92425 0
M  V30 9050 H 835.754 -1.34146 5.91684 0
M  V30 9051 H 834.493 -1.45034 4.65636 0
M  V30 9052 H 833.498 0.712999 5.45157 0
M  V30 9053 H 834.723 0.806557 6.74293 0
M  V30 9054 H 832.669 -1.41206 6.40622 0
M  V30 9055 H 832.586 -0.12058 7.55904 0
M  V30 9056 H 833.854 -1.30303 7.68532 0
M  V30 9057 N 838.083 -1.48885 0.516809 0
M  V30 9058 C 839.03 -2.29408 -0.253125 0
M  V30 9059 C 840 -1.36533 -0.945935 0
M  V30 9060 O 841.185 -1.65495 -0.949527 0
M  V30 9061 C 838.325 -3.19592 -1.30211 0
M  V30 9062 C 837.438 -4.27535 -0.61948 0
M  V30 9063 C 836.573 -5.04916 -1.65026 0
M  V30 9064 C 835.612 -6.04677 -0.950368 0
M  V30 9065 N 834.749 -6.75164 -1.92608 0
M  V30 9066 H 839.589 -2.94738 0.439744 0
M  V30 9067 H 837.126 -1.45311 0.2287 0
M  V30 9068 H 839.084 -3.70267 -1.92245 0
M  V30 9069 H 837.714 -2.56213 -1.96353 0
M  V30 9070 H 836.766 -3.80228 0.114505 0
M  V30 9071 H 838.078 -4.98752 -0.0693016 0
M  V30 9072 H 837.232 -5.59539 -2.34523 0
M  V30 9073 H 835.971 -4.33508 -2.23432 0
M  V30 9074 H 834.976 -5.4927 -0.241252 0
M  V30 9075 H 836.201 -6.78077 -0.372599 0
M  V30 9076 H 834.147 -6.06517 -2.49946 0
M  V30 9077 H 834.064 -7.4241 -1.42699 0
M  V30 9078 H 835.332 -7.34384 -2.61345 0
M  V30 9079 N 839.561 -0.251338 -1.55583 0
M  V30 9080 C 840.508 0.646337 -2.21565 0
M  V30 9081 C 841.478 1.16796 -1.18102 0
M  V30 9082 O 842.663 1.22162 -1.46564 0
M  V30 9083 C 839.803 1.83557 -2.92234 0
M  V30 9084 C 838.916 1.35006 -4.10363 0
M  V30 9085 C 838.051 2.4992 -4.68736 0
M  V30 9086 C 837.09 1.98253 -5.79105 0
M  V30 9087 N 836.227 3.06551 -6.31642 0
M  V30 9088 H 841.067 0.0769881 -2.97901 0
M  V30 9089 H 838.604 0.026238 -1.47077 0
M  V30 9090 H 840.562 2.53425 -3.31408 0
M  V30 9091 H 839.192 2.37733 -2.18364 0
M  V30 9092 H 838.244 0.545274 -3.76472 0
M  V30 9093 H 839.556 0.931435 -4.90026 0
M  V30 9094 H 838.71 3.27823 -5.10507 0
M  V30 9095 H 837.449 2.95086 -3.88298 0
M  V30 9096 H 836.454 1.18822 -5.36807 0
M  V30 9097 H 837.679 1.54051 -6.61396 0
M  V30 9098 H 835.625 3.51143 -5.54107 0
M  V30 9099 H 835.542 2.69033 -7.06511 0
M  V30 9100 H 836.81 3.84499 -6.78071 0
M  V30 9101 N 841.039 1.57585 0.0217189 0
M  V30 9102 C 842.285 1.89887 0.712099 0
M  V30 9103 C 842.618 0.849971 1.74611 0
M  V30 9104 O 841.893 -0.13407 1.94037 0
M  V30 9105 C 842.176 3.32815 1.37499 0
M  V30 9106 C 842.029 4.48405 0.353993 0
M  V30 9107 C 843.348 3.74786 2.30703 0
M  V30 9108 H 840.467 0.690588 0.257405 0
M  V30 9109 H 843.109 1.89983 -0.0251145 0
M  V30 9110 H 841.259 3.32863 2.00335 0
M  V30 9111 H 842.931 4.60491 -0.273015 0
M  V30 9112 H 841.174 4.32573 -0.32599 0
M  V30 9113 H 841.845 5.45316 0.85644 0
M  V30 9114 H 844.321 3.76151 1.77904 0
M  V30 9115 H 843.197 4.75585 2.74061 0
M  V30 9116 H 843.458 3.07449 3.17691 0
M  V30 9117 N 842.517 -0.29412 1.54831 0
M  V30 9118 C 843.464 -1.36296 1.86258 0
M  V30 9119 C 844.434 -1.50061 0.712097 0
M  V30 9120 O 845.619 -1.64809 0.961381 0
M  V30 9121 C 842.759 -2.72187 2.12151 0
M  V30 9122 C 841.872 -2.66816 3.39755 0
M  V30 9123 C 841.007 -3.94747 3.55455 0
M  V30 9124 C 840.046 -3.838 4.76827 0
M  V30 9125 N 839.183 -5.03521 4.89296 0
M  V30 9126 H 844.023 -1.08796 2.7743 0
M  V30 9127 H 841.56 -0.526069 1.37371 0
M  V30 9128 H 843.518 -3.51225 2.25159 0
M  V30 9129 H 842.148 -2.97934 1.24237 0
M  V30 9130 H 841.2 -1.79605 3.3533 0
M  V30 9131 H 842.512 -2.5462 4.28917 0
M  V30 9132 H 841.666 -4.82223 3.68166 0
M  V30 9133 H 840.405 -4.09785 2.64438 0
M  V30 9134 H 839.41 -2.94708 4.64141 0
M  V30 9135 H 840.635 -3.70301 5.69258 0
M  V30 9136 H 838.581 -5.1901 4.01204 0
M  V30 9137 H 838.498 -4.93775 5.72471 0
M  V30 9138 H 839.766 -5.92629 5.06371 0
M  V30 9139 N 843.995 -1.47404 -0.557645 0
M  V30 9140 C 844.942 -1.59859 -1.66475 0
M  V30 9141 C 845.912 -0.441644 -1.60121 0
M  V30 9142 O 847.097 -0.661641 -1.78961 0
M  V30 9143 C 844.237 -1.61843 -3.04797 0
M  V30 9144 C 843.35 -2.8845 -3.2159 0
M  V30 9145 C 842.485 -2.81773 -4.50308 0
M  V30 9146 C 841.524 -4.03208 -4.60532 0
M  V30 9147 N 840.661 -3.94769 -5.80604 0
M  V30 9148 H 845.501 -2.54415 -1.55168 0
M  V30 9149 H 843.038 -1.26194 -0.755876 0
M  V30 9150 H 844.996 -1.60976 -3.84893 0
M  V30 9151 H 843.626 -0.707997 -3.1494 0
M  V30 9152 H 842.678 -2.99186 -2.34929 0
M  V30 9153 H 843.99 -3.78379 -3.25009 0
M  V30 9154 H 843.144 -2.79153 -5.38663 0
M  V30 9155 H 841.883 -1.89527 -4.49367 0
M  V30 9156 H 840.888 -4.06133 -3.70589 0
M  V30 9157 H 842.113 -4.9658 -4.63233 0
M  V30 9158 H 840.059 -3.05326 -5.80613 0
M  V30 9159 H 839.976 -4.78375 -5.854 0
M  V30 9160 H 841.244 -3.96165 -6.71322 0
M  V30 9161 N 845.473 0.80434 -1.35529 0
M  V30 9162 C 846.721 1.55845 -1.28673 0
M  V30 9163 C 847.042 1.94511 0.137976 0
M  V30 9164 O 846.312 1.63775 1.07492 0
M  V30 9165 H 844.892 0.577931 -0.473291 0
M  V30 9166 H 847.554 0.959293 -1.69657 0
M  V30 9167 H 846.65 2.47285 -1.90411 0
M  V30 9168 N 846.951 1.19563 1.02676 0
M  V30 9169 C 848.2 0.993864 1.75514 0
M  V30 9170 C 848.513 -0.475882 1.89723 0
M  V30 9171 O 849.719 -0.796525 2.59553 0
M  V30 9172 C 848.175 1.72937 3.15628 0
M  V30 9173 C 847.783 3.23937 3.09466 0
M  V30 9174 C 849.527 1.61092 3.92746 0
M  V30 9175 C 847.434 3.90067 4.44524 0
M  V30 9176 H 846.364 0.368244 0.657961 0
M  V30 9177 H 849.015 1.43081 1.14891 0
M  V30 9178 H 847.397 1.22025 3.76731 0
M  V30 9179 H 848.571 3.81983 2.57731 0
M  V30 9180 H 846.886 3.3608 2.45843 0
M  V30 9181 H 849.483 2.07848 4.92649 0
M  V30 9182 H 849.826 0.565415 4.12442 0
M  V30 9183 H 850.359 2.09361 3.3825 0
M  V30 9184 H 847.098 4.94725 4.30032 0
M  V30 9185 H 846.618 3.36809 4.96306 0
M  V30 9186 H 848.297 3.93736 5.13401 0
M  V30 9187 N 848.429 -1.21819 0.999893 0
M  V30 9188 C 849.376 -2.24003 0.556005 0
M  V30 9189 C 850.346 -1.60825 -0.415287 0
M  V30 9190 O 851.531 -1.88123 -0.318481 0
M  V30 9191 C 848.671 -3.44904 -0.116289 0
M  V30 9192 C 847.784 -4.22573 0.897574 0
M  V30 9193 C 846.919 -5.30831 0.198073 0
M  V30 9194 C 845.958 -6.00225 1.19983 0
M  V30 9195 N 845.095 -7.00111 0.528157 0
M  V30 9196 H 849.935 -2.61334 1.43208 0
M  V30 9197 H 847.472 -1.28431 0.717205 0
M  V30 9198 H 849.43 -4.13908 -0.523055 0
M  V30 9199 H 848.06 -3.08315 -0.956108 0
M  V30 9200 H 847.112 -3.52797 1.42262 0
M  V30 9201 H 848.424 -4.70363 1.66013 0
M  V30 9202 H 847.578 -6.06121 -0.265065 0
M  V30 9203 H 846.317 -4.84033 -0.596924 0
M  V30 9204 H 845.322 -5.23711 1.67353 0
M  V30 9205 H 846.547 -6.4911 1.99582 0
M  V30 9206 H 844.493 -6.55534 -0.247276 0
M  V30 9207 H 844.41 -7.45943 1.22904 0
M  V30 9208 H 845.678 -7.7945 0.0880543 0
M  V30 9209 N 849.908 -0.773975 -1.37286 0
M  V30 9210 C 850.818 -0.162571 -2.34036 0
M  V30 9211 C 851.834 0.677022 -1.60289 0
M  V30 9212 O 853.01 0.596423 -1.92366 0
M  V30 9213 C 850.075 0.70457 -3.39465 0
M  V30 9214 C 849.136 -0.151738 -4.29032 0
M  V30 9215 C 848.369 0.674111 -5.29426 0
M  V30 9216 O 848.592 1.91107 -5.37433 0
M  V30 9217 O 847.526 0.0821398 -6.01844 0
M  V30 9218 H 851.352 -0.962119 -2.88057 0
M  V30 9219 H 848.937 -0.53517 -1.39486 0
M  V30 9220 H 850.819 1.19954 -4.03967 0
M  V30 9221 H 849.494 1.48227 -2.87768 0
M  V30 9222 H 848.401 -0.693118 -3.67623 0
M  V30 9223 H 849.734 -0.892575 -4.84039 0
M  V30 9224 N 851.386 1.48609 -0.524698 0
M  V30 9225 C 852.334 2.31205 0.254398 0
M  V30 9226 C 853.328 1.40894 0.940491 0
M  V30 9227 O 854.534 1.57827 0.865478 0
M  V30 9228 H 850.909 0.745199 0.100907 0
M  V30 9229 H 852.88 2.94804 -0.461876 0
M  V30 9230 C 851.629 3.2282 1.2916 0
M  V30 9231 H 850.952 3.92255 0.773074 0
M  V30 9232 H 852.392 3.83508 1.80825 0
M  V30 9233 C 850.851 2.4406 2.32242 0
M  V30 9234 O 851.381 2.16163 3.3858 0
M  V30 9235 N 849.587 2.05651 2.05319 0
M  V30 9236 H 849.134 2.28539 1.18861 0
M  V30 9237 H 849.092 1.53265 2.74513 0
M  V30 9238 N 852.864 0.259585 1.55447 0
M  V30 9239 C 854.141 -0.412595 1.91199 0
M  V30 9240 C 854.521 -1.74909 1.18194 0
M  V30 9241 O 853.869 -2.26474 0.303603 0
M  V30 9242 C 854.079 -0.568195 3.44344 0
M  V30 9243 C 855.427 -0.858253 4.15836 0
M  V30 9244 O 856.451 -0.653588 3.50152 0
M  V30 9245 O 855.31 -1.24874 5.32042 0
M  V30 9246 H 852.404 -0.223403 0.796254 0
M  V30 9247 H 854.95 0.30459 1.66944 0
M  V30 9248 H 853.722 0.372989 3.89518 0
M  V30 9249 H 853.345 -1.33544 3.74502 0
M  V30 9250 N 854.342 -1.57594 -0.0133615 0
M  V30 9251 C 855.57 -1.94251 -0.712328 0
M  V30 9252 C 855.985 -0.86063 -1.68043 0
M  V30 9253 O 855.342 0.161632 -1.81783 0
M  V30 9254 C 855.393 -3.30891 -1.45581 0
M  V30 9255 O 855.114 -4.34924 -0.526539 0
M  V30 9256 C 856.615 -3.81926 -2.2505 0
M  V30 9257 H 853.835 -0.640737 -0.199241 0
M  V30 9258 H 856.379 -2.04472 0.0337855 0
M  V30 9259 H 854.534 -3.22019 -2.15366 0
M  V30 9260 H 854.948 -5.1389 -1.04962 0
M  V30 9261 H 856.422 -4.79999 -2.72589 0
M  V30 9262 H 856.899 -3.13934 -3.07152 0
M  V30 9263 H 857.505 -3.93931 -1.60308 0
M  V30 9264 N 855.82 0.285905 -1.54985 0
M  V30 9265 C 856.73 1.37534 -1.90057 0
M  V30 9266 C 857.746 1.54707 -0.796348 0
M  V30 9267 O 858.922 1.69082 -1.09423 0
M  V30 9268 C 855.987 2.7167 -2.15398 0
M  V30 9269 C 855.048 2.63354 -3.39033 0
M  V30 9270 C 854.281 3.91093 -3.63155 0
M  V30 9271 O 854.504 4.91169 -2.90015 0
M  V30 9272 O 853.438 3.92075 -4.56685 0
M  V30 9273 H 857.264 1.10791 -2.8277 0
M  V30 9274 H 854.849 0.483303 -1.41367 0
M  V30 9275 H 856.731 3.51006 -2.33179 0
M  V30 9276 H 855.406 2.98226 -1.25868 0
M  V30 9277 H 854.313 1.82438 -3.26599 0
M  V30 9278 H 855.646 2.41749 -4.2874 0
M  V30 9279 N 857.298 1.47698 0.54982 0
M  V30 9280 C 858.546 1.54397 1.30407 0
M  V30 9281 C 858.867 0.211026 1.93855 0
M  V30 9282 O 858.137 -0.765701 1.80316 0
M  V30 9283 H 856.717 0.568747 0.484289 0
M  V30 9284 H 859.379 1.84042 0.641444 0
M  V30 9285 H 858.475 2.31449 2.09375 0
M  V30 9286 N 858.776 -0.797141 1.35954 0
M  V30 9287 C 859.724 -1.93084 1.29697 0
M  V30 9288 C 860.718 -1.68329 0.190152 0
M  V30 9289 O 861.924 -1.7643 0.3567 0
M  V30 9290 H 858.299 -0.634531 0.403577 0
M  V30 9291 H 860.27 -1.95481 2.25455 0
M  V30 9292 C 859.019 -3.29996 1.09536 0
M  V30 9293 H 858.342 -3.49607 1.93946 0
M  V30 9294 H 859.782 -4.09696 1.09202 0
M  V30 9295 C 858.241 -3.36304 -0.200381 0
M  V30 9296 O 858.771 -3.83579 -1.19291 0
M  V30 9297 N 856.977 -2.89587 -0.242406 0
M  V30 9298 H 856.524 -2.51307 0.565897 0
M  V30 9299 H 856.482 -2.94189 -1.10906 0
M  V30 9300 N 860.254 -1.20106 -1.0204 0
M  V30 9301 C 861.531 -0.918029 -1.72718 0
M  V30 9302 C 861.911 0.574163 -2.03142 0
M  V30 9303 O 861.259 1.53476 -1.69285 0
M  V30 9304 C 861.469 -1.78698 -2.9978 0
M  V30 9305 C 862.817 -2.02648 -3.7312 0
M  V30 9306 O 863.841 -1.75919 -3.09727 0
M  V30 9307 O 862.7 -2.47767 -4.87107 0
M  V30 9308 H 859.794 -0.342904 -0.752559 0
M  V30 9309 H 862.34 -1.30961 -1.07923 0
M  V30 9310 H 861.112 -2.79757 -2.7359 0
M  V30 9311 H 860.735 -1.39522 -3.72316 0
M  V30 9312 N 861.732 1.21287 -1.00634 0
M  V30 9313 C 862.679 2.23705 -0.567876 0
M  V30 9314 C 863.649 1.61043 0.406753 0
M  V30 9315 O 864.834 1.88289 0.308499 0
M  V30 9316 C 861.974 3.44961 0.097996 0
M  V30 9317 C 861.087 4.22091 -0.919972 0
M  V30 9318 C 860.222 5.30718 -0.226222 0
M  V30 9319 C 859.261 5.99581 -1.23165 0
M  V30 9320 N 858.398 6.99821 -0.565278 0
M  V30 9321 H 863.238 2.60571 -1.44592 0
M  V30 9322 H 860.775 1.28049 -0.724006 0
M  V30 9323 H 862.733 4.1418 0.501097 0
M  V30 9324 H 861.363 3.08818 0.939744 0
M  V30 9325 H 860.415 3.52038 -1.44131 0
M  V30 9326 H 861.727 4.69476 -1.68505 0
M  V30 9327 H 860.881 6.06253 0.232917 0
M  V30 9328 H 859.62 4.84343 0.571247 0
M  V30 9329 H 858.625 5.22816 -1.70128 0
M  V30 9330 H 859.85 6.48042 -2.03022 0
M  V30 9331 H 857.796 6.55656 0.212508 0
M  V30 9332 H 857.713 7.4528 -1.26858 0
M  V30 9333 H 858.981 7.79393 -0.129389 0
M  V30 9334 N 863.21 0.781244 1.36873 0
M  V30 9335 C 864.456 0.350407 1.9975 0
M  V30 9336 C 864.789 -1.07293 1.6187 0
M  V30 9337 O 864.064 -1.73983 0.869491 0
M  V30 9338 C 864.347 0.504834 3.56544 0
M  V30 9339 C 864.2 1.97127 4.04303 0
M  V30 9340 C 865.519 -0.0851272 4.40018 0
M  V30 9341 H 862.638 0.128794 0.725659 0
M  V30 9342 H 865.28 0.98606 1.6241 0
M  V30 9343 H 863.43 -0.0363006 3.88483 0
M  V30 9344 H 865.102 2.57284 3.82887 0
M  V30 9345 H 863.345 2.47676 3.56145 0
M  V30 9346 H 864.016 2.03033 5.13305 0
M  V30 9347 H 866.492 0.376704 4.14391 0
M  V30 9348 H 865.368 0.0530015 5.48874 0
M  V30 9349 H 865.629 -1.17642 4.2616 0
M  V30 9350 N 864.689 -1.48329 0.532571 0
M  V30 9351 C 865.636 -2.29663 -0.228779 0
M  V30 9352 C 866.606 -1.37529 -0.931401 0
M  V30 9353 O 867.791 -1.66493 -0.931921 0
M  V30 9354 C 864.931 -3.20955 -1.26814 0
M  V30 9355 C 864.044 -4.28168 -0.574099 0
M  V30 9356 C 863.179 -5.06638 -1.59661 0
M  V30 9357 C 862.218 -6.05651 -0.88618 0
M  V30 9358 N 861.355 -6.77169 -1.85436 0
M  V30 9359 H 866.195 -2.94255 0.47098 0
M  V30 9360 H 863.732 -1.45061 0.2441 0
M  V30 9361 H 865.69 -3.72285 -1.88307 0
M  V30 9362 H 864.32 -2.58281 -1.93625 0
M  V30 9363 H 863.372 -3.80085 0.154827 0
M  V30 9364 H 864.684 -4.98797 -0.0163984 0
M  V30 9365 H 863.838 -5.61995 -2.28576 0
M  V30 9366 H 862.577 -4.35854 -2.18821 0
M  V30 9367 H 861.582 -5.49495 -0.182981 0
M  V30 9368 H 862.807 -6.78434 -0.300659 0
M  V30 9369 H 860.753 -6.09134 -2.43499 0
M  V30 9370 H 860.67 -7.43882 -1.34816 0
M  V30 9371 H 861.938 -7.37114 -2.53541 0
M  V30 9372 N 866.167 -0.267825 -1.55308 0
M  V30 9373 C 867.415 0.350343 -1.9904 0
M  V30 9374 C 867.736 1.56924 -1.15758 0
M  V30 9375 O 867.006 1.94358 -0.245336 0
M  V30 9376 H 865.586 0.132435 -0.735167 0
M  V30 9377 H 868.248 -0.371471 -1.91327 0
M  V30 9378 H 867.344 0.645203 -3.05358 0
M  V30 9379 N 867.645 1.57599 0.00500368 0
M  V30 9380 C 869.056 1.78462 0.54848 0
M  V30 9381 C 869.407 0.901869 1.74243 0
M  V30 9382 O 868.532 0.103014 2.16155 0
M  V30 9383 C 869.127 3.2365 1.00179 0
M  V30 9384 C 867.686 3.45627 1.49061 0
M  V30 9385 C 866.833 2.73794 0.439531 0
M  V30 9386 H 869.784 1.57151 -0.22118 0
M  V30 9387 H 869.805 3.31488 1.86805 0
M  V30 9388 H 869.317 3.87873 0.132607 0
M  V30 9389 H 867.418 2.86612 2.38085 0
M  V30 9390 H 867.531 4.54298 1.52152 0
M  V30 9391 H 865.895 2.38267 0.900043 0
M  V30 9392 H 866.678 3.40714 -0.420599 0
M  V30 9393 N 869.123 -0.277682 1.55134 0
M  V30 9394 C 870.033 -1.36524 1.90783 0
M  V30 9395 C 871.049 -1.54283 0.804542 0
M  V30 9396 O 872.225 -1.68499 1.10318 0
M  V30 9397 C 869.29 -2.70524 2.16835 0
M  V30 9398 C 868.351 -2.61552 3.40424 0
M  V30 9399 C 867.584 -3.89162 3.65224 0
M  V30 9400 O 867.807 -4.89624 2.92616 0
M  V30 9401 O 866.741 -3.89647 4.58758 0
M  V30 9402 H 870.567 -1.0929 2.83354 0
M  V30 9403 H 868.152 -0.475799 1.41621 0
M  V30 9404 H 870.034 -3.49765 2.35038 0
M  V30 9405 H 868.709 -2.97555 1.27448 0
M  V30 9406 H 867.616 -1.80704 3.27562 0
M  V30 9407 H 868.949 -2.39472 4.30016 0
M  V30 9408 N 870.601 -1.47988 -0.541979 0
M  V30 9409 C 871.85 -1.5465 -1.29485 0
M  V30 9410 C 872.163 -0.220041 -1.94358 0
M  V30 9411 O 873.369 -0.164792 -2.70999 0
M  V30 9412 C 871.825 -2.72685 -2.34885 0
M  V30 9413 C 871.433 -4.11923 -1.76134 0
M  V30 9414 C 873.177 -2.88651 -3.11257 0
M  V30 9415 C 871.084 -5.21237 -2.79404 0
M  V30 9416 H 870.014 -0.575688 -0.486928 0
M  V30 9417 H 872.665 -1.74296 -0.573853 0
M  V30 9418 H 871.047 -2.46448 -3.09966 0
M  V30 9419 H 872.221 -4.48128 -1.07322 0
M  V30 9420 H 870.536 -4.00972 -1.12295 0
M  V30 9421 H 873.133 -3.67487 -3.88404 0
M  V30 9422 H 873.476 -1.97658 -3.66384 0
M  V30 9423 H 874.009 -3.14731 -2.43288 0
M  V30 9424 H 870.748 -6.14156 -2.29113 0
M  V30 9425 H 870.268 -4.89533 -3.4658 0
M  V30 9426 H 871.947 -5.48839 -3.42615 0
M  V30 9427 N 872.079 0.78992 -1.36375 0
M  V30 9428 C 873.328 1.54296 -1.29906 0
M  V30 9429 C 873.641 1.95234 0.119651 0
M  V30 9430 O 874.847 2.69762 0.306708 0
M  V30 9431 C 873.303 2.78533 -2.27919 0
M  V30 9432 C 872.911 2.44767 -3.75224 0
M  V30 9433 C 874.655 3.56516 -2.30427 0
M  V30 9434 C 872.562 3.65397 -4.65015 0
M  V30 9435 H 871.492 0.579214 -0.482729 0
M  V30 9436 H 874.143 0.866845 -1.61735 0
M  V30 9437 H 872.525 3.47941 -1.89084 0
M  V30 9438 H 873.699 1.83259 -4.22792 0
M  V30 9439 H 872.014 1.79996 -3.75487 0
M  V30 9440 H 874.611 4.46143 -2.94722 0
M  V30 9441 H 874.954 3.95063 -1.31266 0
M  V30 9442 H 875.487 2.94087 -2.67876 0
M  V30 9443 H 872.226 3.31946 -5.65236 0
M  V30 9444 H 871.746 4.26072 -4.22164 0
M  V30 9445 H 873.425 4.32431 -4.81261 0
M  V30 9446 N 873.557 1.20646 1.01402 0
M  V30 9447 C 874.806 1.01242 1.7445 0
M  V30 9448 C 875.119 -0.455732 1.90217 0
M  V30 9449 O 876.325 -0.768951 2.60383 0
M  V30 9450 C 874.781 1.76275 3.13776 0
M  V30 9451 C 874.389 3.27201 3.06013 0
M  V30 9452 C 876.133 1.65248 3.91016 0
M  V30 9453 C 874.04 3.9476 4.40362 0
M  V30 9454 H 872.97 0.375202 0.654018 0
M  V30 9455 H 875.621 1.44292 1.13367 0
M  V30 9456 H 874.003 1.26013 3.75415 0
M  V30 9457 H 875.177 3.84695 2.53665 0
M  V30 9458 H 873.492 3.38669 2.42265 0
M  V30 9459 H 876.089 2.13061 4.90417 0
M  V30 9460 H 876.432 0.609128 4.1182 0
M  V30 9461 H 876.965 2.12937 3.3601 0
M  V30 9462 H 873.704 4.99258 4.24761 0
M  V30 9463 H 873.224 3.42054 4.92706 0
M  V30 9464 H 874.903 3.99159 5.09196 0
M  V30 9465 N 875.035 -1.20752 1.01276 0
M  V30 9466 C 875.945 -2.27079 0.589277 0
M  V30 9467 C 876.961 -1.6999 -0.371389 0
M  V30 9468 O 878.137 -2.00044 -0.233294 0
M  V30 9469 C 875.202 -3.4663 -0.0696715 0
M  V30 9470 C 874.263 -4.18962 0.936454 0
M  V30 9471 C 873.496 -5.32806 0.308856 0
M  V30 9472 O 873.719 -5.63376 -0.8924 0
M  V30 9473 O 872.653 -5.93131 1.02367 0
M  V30 9474 H 876.479 -2.6551 1.47438 0
M  V30 9475 H 874.064 -1.27297 0.782045 0
M  V30 9476 H 875.946 -4.19119 -0.437873 0
M  V30 9477 H 874.621 -3.10082 -0.929029 0
M  V30 9478 H 873.528 -3.48661 1.35595 0
M  V30 9479 H 874.861 -4.59441 1.76565 0
M  V30 9480 N 876.513 -0.788492 -1.36457 0
M  V30 9481 C 877.423 -0.187385 -2.3385 0
M  V30 9482 C 878.439 0.659984 -1.60998 0
M  V30 9483 O 879.615 0.575986 -1.92988 0
M  V30 9484 C 876.68 0.668525 -3.40194 0
M  V30 9485 C 875.741 -0.197234 -4.28847 0
M  V30 9486 C 874.974 0.61792 -5.30111 0
M  V30 9487 O 875.197 1.85396 -5.3943 0
M  V30 9488 O 874.131 0.0183016 -6.01897 0
M  V30 9489 H 877.957 -0.992617 -2.87021 0
M  V30 9490 H 875.542 -0.549934 -1.3891 0
M  V30 9491 H 877.424 1.15663 -4.05216 0
M  V30 9492 H 876.099 1.45166 -2.89324 0
M  V30 9493 H 875.006 -0.73207 -3.66867 0
M  V30 9494 H 876.339 -0.943863 -4.83065 0
M  V30 9495 N 877.991 1.48044 -0.54043 0
M  V30 9496 C 879.237 2.02797 -0.0101718 0
M  V30 9497 C 879.57 1.41565 1.32939 0
M  V30 9498 O 878.845 0.565139 1.86109 0
M  V30 9499 C 879.128 3.59959 0.100758 0
M  V30 9500 C 878.981 4.31654 -1.26471 0
M  V30 9501 C 880.3 4.32347 0.822455 0
M  V30 9502 H 877.419 0.736982 -0.00517052 0
M  V30 9503 H 880.061 1.76656 -0.69948 0
M  V30 9504 H 878.211 3.82363 0.687824 0
M  V30 9505 H 879.883 4.20639 -1.89369 0
M  V30 9506 H 878.126 3.92663 -1.84386 0
M  V30 9507 H 878.797 5.401 -1.13998 0
M  V30 9508 H 881.273 4.14835 0.324164 0
M  V30 9509 H 880.149 5.41978 0.868993 0
M  V30 9510 H 880.41 4.00369 1.87501 0
M  V30 9511 N 879.47 0.276058 1.55163 0
M  V30 9512 C 880.417 -0.611006 2.22565 0
M  V30 9513 C 881.387 -1.14902 1.19945 0
M  V30 9514 O 882.572 -1.19815 1.48489 0
M  V30 9515 C 879.712 -1.78885 2.95117 0
M  V30 9516 C 878.825 -1.2846 4.12458 0
M  V30 9517 C 877.96 -2.42432 4.72652 0
M  V30 9518 C 876.999 -1.89015 5.82185 0
M  V30 9519 N 876.136 -2.96463 6.36439 0
M  V30 9520 H 880.976 -0.0295849 2.97985 0
M  V30 9521 H 878.513 -0.00283607 1.471 0
M  V30 9522 H 880.471 -2.48121 3.35398 0
M  V30 9523 H 879.101 -2.34229 2.22119 0
M  V30 9524 H 878.153 -0.485312 3.77292 0
M  V30 9525 H 879.465 -0.853358 4.91446 0
M  V30 9526 H 878.619 -3.19659 5.15658 0
M  V30 9527 H 877.358 -2.88872 3.92943 0
M  V30 9528 H 876.363 -1.10267 5.38629 0
M  V30 9529 H 877.588 -1.43509 6.63763 0
M  V30 9530 H 875.534 -3.42283 5.59623 0
M  V30 9531 H 875.451 -2.57759 7.10701 0
M  V30 9532 H 876.719 -3.73663 6.84103 0
M  V30 9533 N 880.948 -1.576 0.00335426 0
M  V30 9534 C 881.858 -2.12067 -1.00322 0
M  V30 9535 C 882.874 -1.06672 -1.37467 0
M  V30 9536 O 884.05 -1.38592 -1.46131 0
M  V30 9537 C 881.115 -2.61593 -2.27531 0
M  V30 9538 C 880.176 -3.81602 -1.96668 0
M  V30 9539 C 879.409 -4.28756 -3.17811 0
M  V30 9540 O 879.632 -3.75222 -4.2961 0
M  V30 9541 O 878.566 -5.20877 -3.01613 0
M  V30 9542 H 882.392 -2.98299 -0.570199 0
M  V30 9543 H 879.977 -1.47835 -0.215682 0
M  V30 9544 H 881.859 -2.93631 -3.02256 0
M  V30 9545 H 880.534 -1.78457 -2.70065 0
M  V30 9546 H 879.441 -3.54531 -1.19408 0
M  V30 9547 H 880.774 -4.65822 -1.58968 0
M  V30 9548 N 882.426 0.269451 -1.5528 0
M  V30 9549 C 883.336 1.35511 -1.91505 0
M  V30 9550 C 884.352 1.53854 -0.812712 0
M  V30 9551 O 885.528 1.67912 -1.1121 0
M  V30 9552 C 882.593 2.6937 -2.18267 0
M  V30 9553 C 881.654 2.59743 -3.41807 0
M  V30 9554 C 880.887 3.87219 -3.67283 0
M  V30 9555 O 881.11 4.88066 -2.95208 0
M  V30 9556 O 880.044 3.87209 -4.60818 0
M  V30 9557 H 883.87 1.07785 -2.8393 0
M  V30 9558 H 881.455 0.468282 -1.41871 0
M  V30 9559 H 883.337 3.48513 -2.36889 0
M  V30 9560 H 882.012 2.96874 -1.29024 0
M  V30 9561 H 880.919 1.78964 -3.28516 0
M  V30 9562 H 882.252 2.37188 -4.3128 0
M  V30 9563 N 883.904 1.48273 0.534124 0
M  V30 9564 C 885.153 1.55334 1.28663 0
M  V30 9565 C 885.466 0.230345 1.94239 0
M  V30 9566 O 886.672 0.179161 2.70908 0
M  V30 9567 C 885.128 2.73927 2.33435 0
M  V30 9568 C 884.736 4.12852 1.73947 0
M  V30 9569 C 886.48 2.90298 3.09722 0
M  V30 9570 C 884.387 5.22711 2.76636 0
M  V30 9571 H 883.317 0.578262 0.483869 0
M  V30 9572 H 885.968 1.74598 0.564602 0
M  V30 9573 H 884.35 2.48089 3.08655 0
M  V30 9574 H 885.524 4.48691 1.04944 0
M  V30 9575 H 883.839 4.01562 1.10167 0
M  V30 9576 H 886.436 3.69542 3.86449 0
M  V30 9577 H 886.779 1.99598 3.6533 0
M  V30 9578 H 887.312 3.16017 2.41616 0
M  V30 9579 H 884.051 6.15362 2.25852 0
M  V30 9580 H 883.571 4.91364 3.43979 0
M  V30 9581 H 885.25 5.50648 3.39699 0
M  V30 9582 N 885.382 -0.782676 1.36792 0
M  V30 9583 C 886.329 -1.89558 1.31667 0
M  V30 9584 C 887.299 -1.65076 0.184147 0
M  V30 9585 O 888.484 -1.87143 0.371753 0
M  V30 9586 C 885.624 -3.26469 1.11858 0
M  V30 9587 C 884.737 -3.62978 2.34245 0
M  V30 9588 C 883.872 -4.89041 2.07394 0
M  V30 9589 C 882.911 -5.18249 3.25706 0
M  V30 9590 N 882.048 -6.35497 2.98476 0
M  V30 9591 H 886.888 -1.93274 2.26824 0
M  V30 9592 H 884.425 -0.945057 1.12726 0
M  V30 9593 H 886.383 -4.05431 0.983968 0
M  V30 9594 H 885.013 -3.22158 0.203531 0
M  V30 9595 H 884.065 -2.79087 2.58485 0
M  V30 9596 H 885.377 -3.80507 3.22514 0
M  V30 9597 H 884.531 -5.75883 1.90901 0
M  V30 9598 H 883.27 -4.73594 1.16446 0
M  V30 9599 H 882.275 -4.29887 3.4275 0
M  V30 9600 H 883.5 -5.35611 4.1749 0
M  V30 9601 H 881.446 -6.21429 2.10146 0
M  V30 9602 H 881.363 -6.5339 3.80286 0
M  V30 9603 H 882.631 -7.25304 2.85577 0
M  V30 9604 N 886.86 -1.21182 -1.00761 0
M  V30 9605 C 887.807 -0.968741 -2.09485 0
M  V30 9606 C 888.777 0.104325 -1.65772 0
M  V30 9607 O 889.962 -0.0422587 -1.90753 0
M  V30 9608 C 887.102 -0.536686 -3.40901 0
M  V30 9609 C 886.215 -1.6789 -3.98041 0
M  V30 9610 C 885.35 -1.19627 -5.17555 0
M  V30 9611 C 884.389 -2.31099 -5.66798 0
M  V30 9612 N 883.526 -1.83988 -6.77564 0
M  V30 9613 H 888.366 -1.89952 -2.29613 0
M  V30 9614 H 885.903 -0.946688 -1.12589 0
M  V30 9615 H 887.861 -0.26745 -4.16342 0
M  V30 9616 H 886.491 0.357092 -3.20819 0
M  V30 9617 H 885.543 -2.06284 -3.19611 0
M  V30 9618 H 886.855 -2.51794 -4.30582 0
M  V30 9619 H 886.009 -0.883539 -6.00232 0
M  V30 9620 H 884.748 -0.327244 -4.86601 0
M  V30 9621 H 883.753 -2.63178 -4.82719 0
M  V30 9622 H 884.978 -3.18493 -5.99782 0
M  V30 9623 H 882.924 -0.994257 -6.48422 0
M  V30 9624 H 882.841 -2.61466 -7.09346 0
M  V30 9625 H 884.109 -1.55741 -7.63783 0
M  V30 9626 N 888.338 1.20213 -1.01915 0
M  V30 9627 C 889.27 2.2251 -0.549725 0
M  V30 9628 C 890.283 1.58558 0.369235 0
M  V30 9629 O 891.472 1.77715 0.167176 0
M  V30 9630 C 888.572 3.38189 0.219432 0
M  V30 9631 C 887.745 4.31729 -0.702066 0
M  V30 9632 C 886.804 5.26196 0.0199624 0
M  V30 9633 O 885.83 5.65993 -0.60339 0
M  V30 9634 N 887.032 5.65895 1.29397 0
M  V30 9635 H 889.797 2.63412 -1.42948 0
M  V30 9636 H 887.358 1.3478 -0.896987 0
M  V30 9637 H 889.35 3.98392 0.711763 0
M  V30 9638 H 887.92 2.96156 1.00051 0
M  V30 9639 H 887.14 3.69455 -1.37466 0
M  V30 9640 H 888.428 4.91145 -1.3287 0
M  V30 9641 H 887.826 5.35579 1.8213 0
M  V30 9642 H 886.383 6.28395 1.73098 0
M  V30 9643 N 889.816 0.795718 1.36037 0
M  V30 9644 C 891.062 0.371574 1.99367 0
M  V30 9645 C 891.395 -1.0557 1.62999 0
M  V30 9646 O 890.67 -1.73051 0.887895 0
M  V30 9647 C 890.953 0.542622 3.55988 0
M  V30 9648 C 890.806 2.01404 4.0219 0
M  V30 9649 C 892.125 -0.0384527 4.40083 0
M  V30 9650 H 889.244 0.136483 0.724252 0
M  V30 9651 H 891.886 1.00323 1.61355 0
M  V30 9652 H 890.036 0.0049053 3.885 0
M  V30 9653 H 891.708 2.6133 3.80137 0
M  V30 9654 H 889.951 2.51439 3.53498 0
M  V30 9655 H 890.622 2.08466 5.11122 0
M  V30 9656 H 893.098 0.420634 4.13968 0
M  V30 9657 H 891.974 0.111214 5.48787 0
M  V30 9658 H 892.235 -1.13116 4.27384 0
M  V30 9659 N 891.294 -1.47756 0.548274 0
M  V30 9660 C 892.204 -2.33678 -0.207773 0
M  V30 9661 C 893.22 -1.47636 -0.920843 0
M  V30 9662 O 894.396 -1.80583 -0.89173 0
M  V30 9663 C 891.461 -3.24147 -1.23003 0
M  V30 9664 C 890.522 -4.26073 -0.52535 0
M  V30 9665 C 889.755 -5.12219 -1.4989 0
M  V30 9666 O 889.978 -5.0066 -2.73305 0
M  V30 9667 O 888.912 -5.93051 -1.02828 0
M  V30 9668 H 892.738 -2.99609 0.496794 0
M  V30 9669 H 890.323 -1.4617 0.308982 0
M  V30 9670 H 892.205 -3.80055 -1.82034 0
M  V30 9671 H 890.88 -2.60855 -1.91668 0
M  V30 9672 H 889.787 -3.7395 0.105927 0
M  V30 9673 H 891.12 -4.92054 0.119686 0
M  V30 9674 N 892.772 -0.284283 -1.55015 0
M  V30 9675 C 894.049 0.382125 -1.91831 0
M  V30 9676 C 894.429 1.73007 -1.20962 0
M  V30 9677 O 893.777 2.25962 -0.339594 0
M  V30 9678 C 893.987 0.513341 -3.45204 0
M  V30 9679 C 895.335 0.791989 -4.17148 0
M  V30 9680 O 896.359 0.597799 -3.51148 0
M  V30 9681 O 895.218 1.16394 -5.33961 0
M  V30 9682 H 892.312 0.210707 -0.799707 0
M  V30 9683 H 894.858 -0.331111 -1.66438 0
M  V30 9684 H 893.63 -0.434911 -3.88876 0
M  V30 9685 H 893.253 1.27569 -3.76579 0
M  V30 9686 N 894.251 1.57596 -0.0117121 0
M  V30 9687 C 895.499 1.90694 0.669342 0
M  V30 9688 C 895.82 0.886999 1.73659 0
M  V30 9689 O 895.09 -0.0739779 1.9576 0
M  V30 9690 H 893.67 0.703846 0.250219 0
M  V30 9691 H 896.332 1.94821 -0.0554057 0
M  V30 9692 H 895.428 2.90802 1.13316 0
M  V30 9693 N 895.729 -0.261212 1.5542 0
M  V30 9694 C 896.978 -0.989072 1.75785 0
M  V30 9695 C 897.291 -1.8702 0.572961 0
M  V30 9696 O 898.497 -2.63374 0.659289 0
M  V30 9697 C 896.953 -1.80857 3.11157 0
M  V30 9698 C 896.561 -0.975535 4.3725 0
M  V30 9699 C 898.305 -2.53003 3.40866 0
M  V30 9700 C 896.212 -1.7901 5.63657 0
M  V30 9701 H 895.142 -0.373019 0.655266 0
M  V30 9702 H 897.793 -0.244267 1.81867 0
M  V30 9703 H 896.175 -2.59479 2.99144 0
M  V30 9704 H 897.349 -0.232661 4.60212 0
M  V30 9705 H 895.664 -0.368083 4.1477 0
M  V30 9706 H 898.261 -3.14372 4.32521 0
M  V30 9707 H 898.604 -3.23891 2.61535 0
M  V30 9708 H 899.137 -1.81403 3.54031 0
M  V30 9709 H 895.876 -1.12522 6.4577 0
M  V30 9710 H 895.396 -2.50863 5.44819 0
M  V30 9711 H 897.075 -2.36082 6.0239 0
M  V30 9712 N 897.207 -1.48554 -0.526253 0
M  V30 9713 C 898.154 -1.63354 -1.63046 0
M  V30 9714 C 899.124 -0.475509 -1.59148 0
M  V30 9715 O 900.309 -0.699453 -1.77517 0
M  V30 9716 C 897.449 -1.68271 -3.01295 0
M  V30 9717 C 896.562 -2.95207 -3.15399 0
M  V30 9718 C 895.697 -2.91262 -4.4423 0
M  V30 9719 C 894.736 -4.12886 -4.51876 0
M  V30 9720 N 893.873 -4.06996 -5.721 0
M  V30 9721 H 898.713 -2.57649 -1.49737 0
M  V30 9722 H 896.25 -1.27769 -0.728938 0
M  V30 9723 H 898.208 -1.69104 -3.81392 0
M  V30 9724 H 896.838 -0.774641 -3.13367 0
M  V30 9725 H 895.89 -3.04102 -2.2853 0
M  V30 9726 H 897.202 -3.85187 -3.1691 0
M  V30 9727 H 896.356 -2.90516 -5.32621 0
M  V30 9728 H 895.095 -1.99016 -4.45246 0
M  V30 9729 H 894.1 -4.13902 -3.61891 0
M  V30 9730 H 895.325 -5.06294 -4.52596 0
M  V30 9731 H 893.271 -3.17573 -5.74006 0
M  V30 9732 H 893.188 -4.90685 -5.75121 0
M  V30 9733 H 894.456 -4.10315 -6.62768 0
M  V30 9734 N 898.685 0.775411 -1.37205 0
M  V30 9735 C 899.595 1.91967 -1.34855 0
M  V30 9736 C 900.611 1.72214 -0.248656 0
M  V30 9737 O 901.787 1.95512 -0.483421 0
M  V30 9738 C 898.852 3.27038 -1.15096 0
M  V30 9739 C 897.913 3.5947 -2.34691 0
M  V30 9740 C 897.146 4.88097 -2.15865 0
M  V30 9741 O 897.369 5.58871 -1.14102 0
M  V30 9742 O 896.303 5.19507 -3.03967 0
M  V30 9743 H 900.129 1.969 -2.31223 0
M  V30 9744 H 897.714 0.917647 -1.17897 0
M  V30 9745 H 899.596 4.07837 -1.0605 0
M  V30 9746 H 898.271 3.22965 -0.217999 0
M  V30 9747 H 897.178 2.7892 -2.49308 0
M  V30 9748 H 898.511 3.68282 -3.26541 0
M  V30 9749 N 900.163 1.21714 1.00117 0
M  V30 9750 C 901.111 0.976937 2.11089 0
M  V30 9751 C 902.105 -0.0771295 1.69224 0
M  V30 9752 O 903.311 0.0745945 1.79845 0
M  V30 9753 H 899.686 0.298687 0.690138 0
M  V30 9754 H 901.657 1.91881 2.28526 0
M  V30 9755 C 900.406 0.562369 3.43122 0
M  V30 9756 H 899.729 1.36509 3.75773 0
M  V30 9757 H 901.169 0.433642 4.21777 0
M  V30 9758 C 899.628 -0.727148 3.28959 0
M  V30 9759 O 900.158 -1.78171 3.60025 0
M  V30 9760 N 898.364 -0.695129 2.82164 0
M  V30 9761 H 897.911 0.163346 2.57082 0
M  V30 9762 H 897.869 -1.55822 2.73069 0
M  V30 9763 N 901.641 -1.19671 1.02551 0
M  V30 9764 C 902.918 -1.85014 0.634771 0
M  V30 9765 C 903.298 -1.91574 -0.886706 0
M  V30 9766 O 902.646 -1.43022 -1.78205 0
M  V30 9767 C 902.856 -3.24167 1.29292 0
M  V30 9768 C 904.204 -4.00363 1.41402 0
M  V30 9769 O 905.228 -3.33553 1.24983 0
M  V30 9770 O 904.087 -5.2003 1.6802 0
M  V30 9771 H 901.181 -0.797147 0.220196 0
M  V30 9772 H 903.727 -1.27188 1.12345 0
M  V30 9773 H 902.499 -3.14208 2.33215 0
M  V30 9774 H 902.122 -3.89634 0.791895 0
M  V30 9775 N 903.119 -0.802921 -1.35613 0
M  V30 9776 C 904.347 -0.39393 -2.03115 0
M  V30 9777 C 904.762 0.993961 -1.60517 0
M  V30 9778 O 904.119 1.63984 -0.800973 0
M  V30 9779 C 904.17 -0.463486 -3.58516 0
M  V30 9780 O 903.891 -1.79666 -3.99565 0
M  V30 9781 C 905.392 -0.0468377 -4.43275 0
M  V30 9782 H 902.612 -0.160519 -0.651517 0
M  V30 9783 H 905.156 -1.08552 -1.73311 0
M  V30 9784 H 903.311 0.179821 -3.86982 0
M  V30 9785 H 903.725 -1.75688 -4.942 0
M  V30 9786 H 905.199 -0.146626 -5.51805 0
M  V30 9787 H 905.676 1.00741 -4.2749 0
M  V30 9788 H 906.282 -0.663158 -4.20098 0
M  V30 9789 N 904.597 1.47463 -0.556102 0
M  V30 9790 C 905.507 2.33785 0.195378 0
M  V30 9791 C 906.523 1.48123 0.913 0
M  V30 9792 O 907.699 1.81053 0.882141 0
M  V30 9793 C 904.764 3.24795 1.21282 0
M  V30 9794 C 903.825 4.26346 0.502747 0
M  V30 9795 C 903.058 5.13007 1.47172 0
M  V30 9796 O 903.281 5.02103 2.70646 0
M  V30 9797 O 902.215 5.93588 0.996814 0
M  V30 9798 H 906.041 2.99341 -0.512676 0
M  V30 9799 H 903.626 1.46004 -0.31673 0
M  V30 9800 H 905.508 3.81015 1.80016 0
M  V30 9801 H 904.183 2.61868 1.90282 0
M  V30 9802 H 903.09 3.73889 -0.125757 0
M  V30 9803 H 904.423 4.91984 -0.145779 0
M  V30 9804 N 906.075 0.2925 1.54862 0
M  V30 9805 C 907.323 -0.318633 1.99572 0
M  V30 9806 C 907.644 -1.55062 1.1824 0
M  V30 9807 O 906.914 -1.93943 0.276226 0
M  V30 9808 H 905.494 -0.120722 0.737181 0
M  V30 9809 H 908.156 0.401862 1.90712 0
M  V30 9810 H 907.252 -0.596542 3.06346 0
M  V30 9811 N 907.553 -1.57587 0.0200696 0
M  V30 9812 C 908.501 -2.10814 -0.982868 0
M  V30 9813 C 909.495 -1.03263 -1.34287 0
M  V30 9814 O 910.701 -1.21708 -1.32617 0
M  V30 9815 H 907.076 -0.673409 -0.334701 0
M  V30 9816 H 909.047 -2.94034 -0.50856 0
M  V30 9817 C 907.796 -2.64301 -2.25921 0
M  V30 9818 H 907.119 -3.46703 -1.99091 0
M  V30 9819 H 908.559 -3.052 -2.94328 0
M  V30 9820 C 907.018 -1.56628 -2.98277 0
M  V30 9821 O 907.548 -0.960825 -3.9004 0
M  V30 9822 N 905.754 -1.28889 -2.60453 0
M  V30 9823 H 905.301 -1.7831 -1.85912 0
M  V30 9824 H 905.259 -0.570697 -3.09177 0
M  V30 9825 N 909.032 0.252966 -1.55557 0
M  V30 9826 C 910.309 1.00432 -1.67847 0
M  V30 9827 C 910.689 2.03587 -0.55816 0
M  V30 9828 O 910.037 2.24239 0.439197 0
M  V30 9829 C 910.247 1.64313 -3.079 0
M  V30 9830 C 911.595 2.14726 -3.66303 0
M  V30 9831 O 912.619 1.74264 -3.10661 0
M  V30 9832 O 911.478 2.89 -4.63833 0
M  V30 9833 H 908.572 0.467102 -0.682455 0
M  V30 9834 H 911.118 0.247233 -1.67889 0
M  V30 9835 H 909.89 0.896681 -3.80888 0
M  V30 9836 H 909.513 2.46657 -3.11843 0
M  V30 9837 N 910.51 1.48831 0.518367 0
M  V30 9838 C 911.457 1.64216 1.62178 0
M  V30 9839 C 912.427 0.483942 1.58894 0
M  V30 9840 O 913.612 0.708857 1.77144 0
M  V30 9841 C 910.752 1.69867 3.00399 0
M  V30 9842 C 909.865 2.96875 3.1383 0
M  V30 9843 C 909 2.93613 4.42679 0
M  V30 9844 C 908.039 4.15276 4.4968 0
M  V30 9845 N 907.176 4.10024 5.69934 0
M  V30 9846 H 912.016 2.58439 1.48368 0
M  V30 9847 H 909.553 1.28154 0.722152 0
M  V30 9848 H 911.511 1.71124 3.8049 0
M  V30 9849 H 910.141 0.791249 3.12952 0
M  V30 9850 H 909.193 3.0531 2.26914 0
M  V30 9851 H 910.505 3.86863 3.14863 0
M  V30 9852 H 909.659 2.93337 5.31073 0
M  V30 9853 H 908.398 2.01375 4.44184 0
M  V30 9854 H 907.403 4.15816 3.59691 0
M  V30 9855 H 908.628 5.08687 4.49904 0
M  V30 9856 H 906.574 3.20613 5.72314 0
M  V30 9857 H 906.491 4.93728 5.72511 0
M  V30 9858 H 907.759 4.13824 6.60583 0
M  V30 9859 N 911.988 -0.768124 1.37614 0
M  V30 9860 C 913.234 -1.52907 1.33219 0
M  V30 9861 C 913.567 -1.94026 -0.0821218 0
M  V30 9862 O 912.842 -1.64345 -1.04023 0
M  V30 9863 C 913.125 -2.79164 2.27463 0
M  V30 9864 C 912.978 -2.44276 3.7769 0
M  V30 9865 C 914.297 -3.81115 2.20089 0
M  V30 9866 H 911.416 -0.554712 0.485246 0
M  V30 9867 H 914.058 -0.880911 1.68345 0
M  V30 9868 H 912.208 -3.34472 1.97639 0
M  V30 9869 H 913.88 -1.94855 4.18126 0
M  V30 9870 H 912.123 -1.76925 3.96081 0
M  V30 9871 H 912.794 -3.34544 4.39072 0
M  V30 9872 H 915.27 -3.35311 2.46386 0
M  V30 9873 H 914.146 -4.67174 2.88166 0
M  V30 9874 H 914.407 -4.25644 1.19498 0
M  V30 9875 N 913.466 -1.22244 -0.994698 0
M  V30 9876 C 914.413 -0.990906 -2.08446 0
M  V30 9877 C 915.383 0.086737 -1.65873 0
M  V30 9878 O 916.568 -0.0624882 -1.90698 0
M  V30 9879 C 913.708 -0.572813 -3.40313 0
M  V30 9880 C 912.821 -1.72103 -3.96238 0
M  V30 9881 C 911.956 -1.2511 -5.16257 0
M  V30 9882 C 910.995 -2.37098 -5.64315 0
M  V30 9883 N 910.132 -1.91164 -6.75574 0
M  V30 9884 H 914.972 -1.92377 -2.27585 0
M  V30 9885 H 912.509 -0.958576 -1.11578 0
M  V30 9886 H 914.467 -0.311594 -4.16035 0
M  V30 9887 H 913.097 0.323044 -3.21179 0
M  V30 9888 H 912.149 -2.09662 -3.17405 0
M  V30 9889 H 913.461 -2.56347 -4.27888 0
M  V30 9890 H 912.615 -0.947152 -5.99261 0
M  V30 9891 H 911.354 -0.378836 -4.86226 0
M  V30 9892 H 910.359 -2.68283 -4.799 0
M  V30 9893 H 911.584 -3.24837 -5.96371 0
M  V30 9894 H 909.53 -1.06298 -6.47331 0
M  V30 9895 H 909.447 -2.68975 -7.06533 0
M  V30 9896 H 910.715 -1.63833 -7.62088 0
M  V30 9897 N 914.944 1.19125 -1.03184 0
M  V30 9898 C 916.192 1.8851 -0.728587 0
M  V30 9899 C 916.513 1.80195 0.74531 0
M  V30 9900 O 915.783 1.21437 1.5372 0
M  V30 9901 H 914.363 0.69784 -0.266511 0
M  V30 9902 H 917.025 1.44607 -1.3067 0
M  V30 9903 H 916.121 2.9477 -1.02554 0
M  V30 9904 N 916.422 0.810101 1.35185 0
M  V30 9905 C 917.833 0.452616 1.81131 0
M  V30 9906 C 918.184 -1.02573 1.67252 0
M  V30 9907 O 917.309 -1.79735 1.20516 0
M  V30 9908 C 917.904 0.814775 3.28857 0
M  V30 9909 C 916.463 0.509839 3.72931 0
M  V30 9910 C 915.61 1.03852 2.57119 0
M  V30 9911 H 918.561 1.00143 1.23114 0
M  V30 9912 H 918.582 0.113635 3.8033 0
M  V30 9913 H 918.094 1.89078 3.38926 0
M  V30 9914 H 916.195 -0.557289 3.68409 0
M  V30 9915 H 916.308 1.04493 4.67566 0
M  V30 9916 H 914.672 0.460671 2.50499 0
M  V30 9917 H 915.455 2.12071 2.69964 0
M  V30 9918 N 917.9 -1.47166 0.563914 0
M  V30 9919 C 918.81 -2.33885 -0.182977 0
M  V30 9920 C 919.826 -1.48605 -0.905132 0
M  V30 9921 O 921.002 -1.81518 -0.872527 0
M  V30 9922 C 918.067 -3.25433 -1.19558 0
M  V30 9923 C 917.128 -4.26607 -0.480129 0
M  V30 9924 C 916.361 -5.1378 -1.44449 0
M  V30 9925 O 916.584 -5.03531 -2.67979 0
M  V30 9926 O 915.518 -5.94109 -0.965321 0
M  V30 9927 H 919.344 -2.99065 0.528544 0
M  V30 9928 H 916.929 -1.45834 0.324468 0
M  V30 9929 H 918.811 -3.81964 -1.77993 0
M  V30 9930 H 917.486 -2.62873 -1.8889 0
M  V30 9931 H 916.393 -3.73817 0.145583 0
M  V30 9932 H 917.726 -4.919 0.171868 0
M  V30 9933 N 919.378 -0.300708 -1.54705 0
M  V30 9934 C 920.627 0.309428 -1.99312 0
M  V30 9935 C 920.94 1.55027 -1.19272 0
M  V30 9936 O 922.146 2.23498 -1.54146 0
M  V30 9937 C 920.602 0.601856 -3.54832 0
M  V30 9938 C 920.21 -0.620636 -4.4368 0
M  V30 9939 C 921.954 1.1732 -4.07966 0
M  V30 9940 C 919.861 -0.301376 -5.90632 0
M  V30 9941 H 918.791 0.119395 -0.744487 0
M  V30 9942 H 921.442 -0.409368 -1.78875 0
M  V30 9943 H 919.824 1.38024 -3.71168 0
M  V30 9944 H 920.998 -1.39685 -4.39118 0
M  V30 9945 H 919.313 -1.1106 -4.01316 0
M  V30 9946 H 921.91 1.42631 -5.15326 0
M  V30 9947 H 922.253 2.11537 -3.5855 0
M  V30 9948 H 922.786 0.456534 -3.95172 0
M  V30 9949 H 919.525 -1.21209 -6.44196 0
M  V30 9950 H 919.045 0.437574 -5.98202 0
M  V30 9951 H 920.724 0.097164 -6.46927 0
M  V30 9952 N 920.856 1.57574 -0.0284266 0
M  V30 9953 C 922.105 1.9095 0.649704 0
M  V30 9954 C 922.418 0.906421 1.7333 0
M  V30 9955 O 923.624 1.1314 2.46803 0
M  V30 9956 C 922.08 3.39061 1.20687 0
M  V30 9957 C 921.688 4.47726 0.156597 0
M  V30 9958 C 923.432 3.81505 1.86156 0
M  V30 9959 C 921.339 5.86935 0.725365 0
M  V30 9960 H 920.269 0.712589 0.24644 0
M  V30 9961 H 922.92 1.83261 -0.0936143 0
M  V30 9962 H 921.302 3.41679 2.00178 0
M  V30 9963 H 922.476 4.56667 -0.6158 0
M  V30 9964 H 920.791 4.14481 -0.399288 0
M  V30 9965 H 923.388 4.82865 2.29665 0
M  V30 9966 H 923.731 3.16529 2.70398 0
M  V30 9967 H 924.264 3.81307 1.13356 0
M  V30 9968 H 921.003 6.55453 -0.0789081 0
M  V30 9969 H 920.523 5.81602 1.46627 0
M  V30 9970 H 922.202 6.35483 1.21532 0
M  V30 9971 N 922.334 -0.244713 1.55689 0
M  V30 9972 C 923.562 -0.989944 1.8168 0
M  V30 9973 C 923.977 -1.78863 0.604449 0
M  V30 9974 O 923.334 -1.77437 -0.426907 0
M  V30 9975 C 923.385 -1.92607 3.05916 0
M  V30 9976 O 923.106 -1.1597 4.22472 0
M  V30 9977 C 924.607 -2.78711 3.44724 0
M  V30 9978 H 921.827 -0.2912 0.604519 0
M  V30 9979 H 924.371 -0.266938 2.0275 0
M  V30 9980 H 922.526 -2.60333 2.8689 0
M  V30 9981 H 922.94 -1.79311 4.92898 0
M  V30 9982 H 924.414 -3.40141 4.34751 0
M  V30 9983 H 924.891 -3.49935 2.6541 0
M  V30 9984 H 925.497 -2.16435 3.66109 0
M  V30 9985 N 923.813 -1.49104 -0.510467 0
M  V30 9986 C 924.723 -1.67792 -1.6396 0
M  V30 9987 C 925.739 -0.560454 -1.64727 0
M  V30 9988 O 926.915 -0.833985 -1.83321 0
M  V30 9989 C 923.98 -1.73154 -3.00364 0
M  V30 9990 C 923.041 -2.9667 -3.10299 0
M  V30 9991 C 922.274 -3.01767 -4.40196 0
M  V30 9992 O 922.497 -2.1472 -5.28443 0
M  V30 9993 O 921.431 -3.94137 -4.54906 0
M  V30 9994 H 925.257 -2.63428 -1.51126 0
M  V30 9995 H 922.842 -1.32734 -0.685719 0
M  V30 9996 H 924.724 -1.79089 -3.81451 0
M  V30 9997 H 923.399 -0.806952 -3.1348 0
M  V30 9998 H 922.306 -2.96257 -2.28435 0
M  V30 9999 H 923.639 -3.88578 -3.02106 0
M  V30 10000 N 925.291 0.760815 -1.38019 0
M  V30 10001 C 926.201 1.90526 -1.36884 0
M  V30 10002 C 927.217 1.71941 -0.266908 0
M  V30 10003 O 928.393 1.94988 -0.50413 0
M  V30 10004 C 925.458 3.25799 -1.18558 0
M  V30 10005 C 924.519 3.56961 -2.3849 0
M  V30 10006 C 923.752 4.8578 -2.21029 0
M  V30 10007 O 923.975 5.57629 -1.20023 0
M  V30 10008 O 922.909 5.16254 -3.0946 0
M  V30 10009 H 926.735 1.94437 -2.33298 0
M  V30 10010 H 924.32 0.905091 -1.18863 0
M  V30 10011 H 926.202 4.0669 -1.1037 0
M  V30 10012 H 924.877 3.22716 -0.252241 0
M  V30 10013 H 923.784 2.7626 -2.52252 0
M  V30 10014 H 925.117 3.64798 -3.30429 0
M  V30 10015 N 926.769 1.22769 0.988202 0
M  V30 10016 C 928.015 1.05665 1.73097 0
M  V30 10017 C 928.348 -0.406615 1.89895 0
M  V30 10018 O 927.623 -1.30132 1.44554 0
M  V30 10019 C 927.906 1.77381 3.13382 0
M  V30 10020 C 927.759 3.31332 3.04203 0
M  V30 10021 C 929.078 1.52999 4.12649 0
M  V30 10022 H 926.197 0.385258 0.628288 0
M  V30 10023 H 928.839 1.51171 1.15097 0
M  V30 10024 H 926.989 1.38696 3.62899 0
M  V30 10025 H 928.661 3.79489 2.6227 0
M  V30 10026 H 926.904 3.60767 2.40894 0
M  V30 10027 H 927.575 3.76692 4.03493 0
M  V30 10028 H 930.051 1.86611 3.71908 0
M  V30 10029 H 928.927 2.05666 5.08913 0
M  V30 10030 H 929.188 0.463615 4.39662 0
M  V30 10031 N 928.247 -1.18576 1.03814 0
M  V30 10032 C 929.194 -2.2212 0.626988 0
M  V30 10033 C 930.164 -1.62064 -0.363912 0
M  V30 10034 O 931.349 -1.89041 -0.258469 0
M  V30 10035 C 928.489 -3.45099 -0.00650133 0
M  V30 10036 C 927.602 -4.19503 1.03156 0
M  V30 10037 C 926.737 -5.29932 0.366852 0
M  V30 10038 C 925.776 -5.96104 1.39018 0
M  V30 10039 N 924.913 -6.98076 0.750625 0
M  V30 10040 H 929.753 -2.56646 1.51449 0
M  V30 10041 H 927.29 -1.26084 0.757702 0
M  V30 10042 H 929.248 -4.15363 -0.391108 0
M  V30 10043 H 927.878 -3.11201 -0.857536 0
M  V30 10044 H 926.93 -3.48092 1.53414 0
M  V30 10045 H 928.242 -4.64843 1.80893 0
M  V30 10046 H 927.396 -6.06657 -0.0720979 0
M  V30 10047 H 926.135 -4.85687 -0.442631 0
M  V30 10048 H 925.14 -5.18122 1.8393 0
M  V30 10049 H 926.365 -6.42432 2.20132 0
M  V30 10050 H 924.311 -6.55989 -0.0385981 0
M  V30 10051 H 924.228 -7.41655 1.46574 0
M  V30 10052 H 925.496 -7.78776 0.335986 0
M  V30 10053 N 929.725 -0.817259 -1.34754 0
M  V30 10054 C 930.635 -0.236946 -2.334 0
M  V30 10055 C 931.651 0.625685 -1.62361 0
M  V30 10056 O 932.827 0.534921 -1.94166 0
M  V30 10057 C 929.892 0.596215 -3.41535 0
M  V30 10058 C 928.953 -0.288154 -4.28332 0
M  V30 10059 C 928.186 0.505337 -5.31302 0
M  V30 10060 O 928.409 1.73912 -5.43241 0
M  V30 10061 O 927.343 -0.109374 -6.01801 0
M  V30 10062 H 931.169 -1.05327 -2.84851 0
M  V30 10063 H 928.754 -0.579275 -1.37713 0
M  V30 10064 H 930.636 1.07041 -4.07578 0
M  V30 10065 H 929.311 1.38997 -2.92338 0
M  V30 10066 H 928.218 -0.809724 -3.65232 0
M  V30 10067 H 929.551 -1.04612 -4.80955 0
M  V30 10068 N 931.203 1.46865 -0.571711 0
M  V30 10069 C 932.113 2.33979 0.170571 0
M  V30 10070 C 933.129 1.49083 0.897239 0
M  V30 10071 O 934.305 1.81979 0.862888 0
M  V30 10072 C 931.37 3.26063 1.17831 0
M  V30 10073 C 930.431 4.26855 0.457499 0
M  V30 10074 C 929.664 5.14539 1.41722 0
M  V30 10075 O 929.887 5.04945 2.65305 0
M  V30 10076 O 928.821 5.94612 0.9338 0
M  V30 10077 H 932.647 2.98781 -0.544396 0
M  V30 10078 H 930.232 1.4566 -0.332198 0
M  V30 10079 H 932.114 3.82903 1.75965 0
M  V30 10080 H 930.789 2.63871 1.87493 0
M  V30 10081 H 929.696 3.73734 -0.165406 0
M  V30 10082 H 931.029 4.91802 -0.197953 0
M  V30 10083 N 932.681 0.308908 1.54543 0
M  V30 10084 C 933.93 -0.298854 1.99474 0
M  V30 10085 C 934.243 -1.54393 1.20093 0
M  V30 10086 O 935.449 -2.22677 1.55329 0
M  V30 10087 C 933.905 -0.58303 3.55146 0
M  V30 10088 C 933.513 0.644157 4.43345 0
M  V30 10089 C 935.257 -1.15155 4.08582 0
M  V30 10090 C 933.164 0.332694 5.90463 0
M  V30 10091 H 932.094 -0.115445 0.74511 0
M  V30 10092 H 934.745 0.418848 1.78656 0
M  V30 10093 H 933.127 -1.36053 3.71894 0
M  V30 10094 H 934.301 1.42012 4.38371 0
M  V30 10095 H 932.616 1.13186 4.00722 0
M  V30 10096 H 935.213 -1.39896 5.16075 0
M  V30 10097 H 935.556 -2.09632 3.59667 0
M  V30 10098 H 936.089 -0.435571 3.95408 0
M  V30 10099 H 932.828 1.24624 6.43544 0
M  V30 10100 H 932.348 -0.405844 5.98425 0
M  V30 10101 H 934.027 -0.0628545 6.46969 0
M  V30 10102 N 934.159 -1.57557 0.0367827 0
M  V30 10103 C 935.106 -2.10679 -0.942499 0
M  V30 10104 C 936.076 -1.01068 -1.31812 0
M  V30 10105 O 937.261 -1.28533 -1.41011 0
M  V30 10106 C 934.401 -2.64467 -2.21701 0
M  V30 10107 C 933.514 -3.88114 -1.89715 0
M  V30 10108 C 932.649 -4.30268 -3.11518 0
M  V30 10109 C 931.688 -5.46652 -2.75387 0
M  V30 10110 N 930.825 -5.83927 -3.89838 0
M  V30 10111 H 935.665 -2.94066 -0.482588 0
M  V30 10112 H 933.202 -1.45344 -0.226597 0
M  V30 10113 H 935.16 -2.93745 -2.96259 0
M  V30 10114 H 933.79 -1.83898 -2.65295 0
M  V30 10115 H 932.842 -3.65516 -1.05366 0
M  V30 10116 H 934.154 -4.72743 -1.5911 0
M  V30 10117 H 933.308 -4.61023 -3.94389 0
M  V30 10118 H 932.047 -3.44421 -3.4529 0
M  V30 10119 H 931.052 -5.15583 -1.90929 0
M  V30 10120 H 932.277 -6.34204 -2.42822 0
M  V30 10121 H 930.223 -5.01035 -4.23438 0
M  V30 10122 H 930.14 -6.63214 -3.62883 0
M  V30 10123 H 931.408 -6.19291 -4.73391 0
M  V30 10124 N 935.637 0.236453 -1.55816 0
M  V30 10125 C 936.584 1.29289 -1.91188 0
M  V30 10126 C 937.554 1.47315 -0.767301 0
M  V30 10127 O 938.739 1.61128 -1.02189 0
M  V30 10128 C 935.879 2.64126 -2.22107 0
M  V30 10129 C 934.992 2.54022 -3.49423 0
M  V30 10130 C 934.127 3.81282 -3.69861 0
M  V30 10131 C 933.166 3.65839 -4.90743 0
M  V30 10132 N 932.303 4.85014 -5.07647 0
M  V30 10133 H 937.143 0.98424 -2.81277 0
M  V30 10134 H 934.68 0.474722 -1.39229 0
M  V30 10135 H 936.638 3.42626 -2.3804 0
M  V30 10136 H 935.268 2.93118 -1.35209 0
M  V30 10137 H 934.32 1.67036 -3.41765 0
M  V30 10138 H 935.632 2.38525 -4.38072 0
M  V30 10139 H 934.786 4.68226 -3.8581 0
M  V30 10140 H 933.525 3.99688 -2.79465 0
M  V30 10141 H 932.53 2.77279 -4.74759 0
M  V30 10142 H 933.755 3.48918 -5.82609 0
M  V30 10143 H 931.701 5.03762 -4.20191 0
M  V30 10144 H 931.618 4.72188 -5.90402 0
M  V30 10145 H 932.886 5.73427 -5.28017 0
M  V30 10146 N 937.115 1.49373 0.502552 0
M  V30 10147 C 938.047 1.62045 1.62093 0
M  V30 10148 C 939.06 0.503221 1.54827 0
M  V30 10149 O 940.249 0.775208 1.60788 0
M  V30 10150 C 937.349 1.55971 3.00876 0
M  V30 10151 C 936.522 2.832 3.33341 0
M  V30 10152 C 935.581 2.702 4.51529 0
M  V30 10153 O 934.607 3.44132 4.53389 0
M  V30 10154 N 935.809 1.81642 5.5135 0
M  V30 10155 H 938.574 2.58501 1.51649 0
M  V30 10156 H 936.135 1.46442 0.690396 0
M  V30 10157 H 938.127 1.4493 3.77859 0
M  V30 10158 H 936.697 0.673795 3.05252 0
M  V30 10159 H 935.917 3.08604 2.4527 0
M  V30 10160 H 937.205 3.67551 3.51829 0
M  V30 10161 H 936.603 1.20829 5.52645 0
M  V30 10162 H 935.16 1.76524 6.27441 0
M  V30 10163 N 938.594 -0.753485 1.38421 0
M  V30 10164 C 939.84 -1.51485 1.34834 0
M  V30 10165 C 940.173 -1.94102 -0.0615381 0
M  V30 10166 O 939.448 -1.65439 -1.02274 0
M  V30 10167 C 939.731 -2.76736 2.30411 0
M  V30 10168 C 939.584 -2.40256 3.80259 0
M  V30 10169 C 940.903 -3.7876 2.24119 0
M  V30 10170 H 938.022 -0.549534 0.491102 0
M  V30 10171 H 940.664 -0.863006 1.6927 0
M  V30 10172 H 938.814 -3.32357 2.01175 0
M  V30 10173 H 940.486 -1.90409 4.20169 0
M  V30 10174 H 938.729 -1.72714 3.97935 0
M  V30 10175 H 939.4 -3.29869 4.42595 0
M  V30 10176 H 941.876 -3.32679 2.49928 0
M  V30 10177 H 940.752 -4.64092 2.93104 0
M  V30 10178 H 941.013 -4.24352 1.24006 0
M  V30 10179 N 940.072 -1.23292 -0.981677 0
M  V30 10180 C 940.982 -1.02964 -2.10798 0
M  V30 10181 C 941.998 0.0254674 -1.73981 0
M  V30 10182 O 943.174 -0.169706 -2.00684 0
M  V30 10183 C 940.239 -0.621934 -3.41076 0
M  V30 10184 C 939.3 -1.75194 -3.91926 0
M  V30 10185 C 938.533 -1.36359 -5.15986 0
M  V30 10186 O 938.756 -0.247265 -5.69864 0
M  V30 10187 O 937.69 -2.18421 -5.60871 0
M  V30 10188 H 941.516 -1.97354 -2.30836 0
M  V30 10189 H 939.101 -1.01986 -1.09175 0
M  V30 10190 H 940.983 -0.405446 -4.19445 0
M  V30 10191 H 939.658 0.29299 -3.22371 0
M  V30 10192 H 938.565 -2.02305 -3.1468 0
M  V30 10193 H 939.898 -2.64513 -4.15083 0
M  V30 10194 N 941.55 1.18024 -1.04442 0
M  V30 10195 C 942.46 2.25436 -0.649276 0
M  V30 10196 C 943.476 1.70915 0.326189 0
M  V30 10197 O 944.652 2.00592 0.180174 0
M  V30 10198 C 941.717 3.46693 -0.0222558 0
M  V30 10199 C 940.778 4.16332 -1.0472 0
M  V30 10200 C 940.011 5.31799 -0.450011 0
M  V30 10201 O 940.234 5.65544 0.742717 0
M  V30 10202 O 939.168 5.90209 -1.18056 0
M  V30 10203 H 942.994 2.61508 -1.54426 0
M  V30 10204 H 940.579 1.25178 -0.81552 0
M  V30 10205 H 942.461 4.20132 0.326597 0
M  V30 10206 H 941.136 3.12436 0.84649 0
M  V30 10207 H 940.043 3.44944 -1.44792 0
M  V30 10208 H 941.376 4.54598 -1.88684 0
M  V30 10209 N 943.028 0.824394 1.34319 0
M  V30 10210 C 944.276 0.41235 1.97849 0
M  V30 10211 C 944.597 -1.02841 1.65677 0
M  V30 10212 O 943.867 -1.71421 0.948245 0
M  V30 10213 H 942.447 0.149486 0.73189 0
M  V30 10214 H 945.109 1.05416 1.63931 0
M  V30 10215 H 944.205 0.532557 3.07523 0
M  V30 10216 N 944.506 -1.46559 0.579492 0
M  V30 10217 C 945.755 -2.01606 0.0615735 0
M  V30 10218 C 946.068 -1.45695 -1.30508 0
M  V30 10219 O 947.274 -1.92541 -1.91416 0
M  V30 10220 C 945.73 -3.59851 0.059496 0
M  V30 10221 C 945.338 -4.24757 1.42427 0
M  V30 10222 C 947.082 -4.22567 -0.404646 0
M  V30 10223 C 944.989 -5.75072 1.38009 0
M  V30 10224 H 943.919 -0.753754 0.0192491 0
M  V30 10225 H 946.57 -1.68326 0.73066 0
M  V30 10226 H 944.952 -3.90193 -0.675691 0
M  V30 10227 H 946.126 -4.06029 2.17893 0
M  V30 10228 H 944.441 -3.74121 1.82817 0
M  V30 10229 H 947.038 -5.32748 -0.456441 0
M  V30 10230 H 947.381 -3.91279 -1.42149 0
M  V30 10231 H 947.914 -3.96839 0.276376 0
M  V30 10232 H 944.653 -6.11014 2.37364 0
M  V30 10233 H 944.173 -5.96073 0.667583 0
M  V30 10234 H 945.852 -6.37724 1.09163 0
M  V30 10235 N 945.984 -0.3171 -1.54377 0
M  V30 10236 C 946.931 0.551782 -2.24107 0
M  V30 10237 C 947.901 1.11681 -1.22949 0
M  V30 10238 O 949.086 1.15836 -1.51614 0
M  V30 10239 C 946.226 1.70997 -2.99756 0
M  V30 10240 C 945.339 1.17479 -4.15719 0
M  V30 10241 C 944.474 2.29815 -4.78914 0
M  V30 10242 C 943.513 1.73513 -5.86992 0
M  V30 10243 N 942.65 2.79485 -6.44075 0
M  V30 10244 H 947.49 -0.049431 -2.97959 0
M  V30 10245 H 945.027 -0.0361658 -1.47056 0
M  V30 10246 H 946.985 2.39141 -3.41859 0
M  V30 10247 H 945.615 2.28257 -2.28251 0
M  V30 10248 H 944.667 0.385109 -3.78446 0
M  V30 10249 H 945.979 0.72276 -4.93536 0
M  V30 10250 H 945.133 3.05875 -5.23952 0
M  V30 10251 H 943.872 2.78352 -4.00464 0
M  V30 10252 H 942.877 0.959475 -5.41363 0
M  V30 10253 H 944.102 1.2586 -6.67335 0
M  V30 10254 H 942.048 3.27325 -5.68502 0
M  V30 10255 H 941.965 2.38825 -7.17286 0
M  V30 10256 H 943.233 3.55394 -6.93769 0
M  V30 10257 N 947.462 1.57535 -0.0451378 0
M  V30 10258 C 948.372 2.14653 0.946646 0
M  V30 10259 C 949.388 1.10279 1.3459 0
M  V30 10260 O 950.564 1.42417 1.42405 0
M  V30 10261 C 947.629 2.67533 2.20515 0
M  V30 10262 C 946.69 3.86682 1.86481 0
M  V30 10263 C 945.923 4.37031 3.06332 0
M  V30 10264 O 946.146 3.86481 4.1951 0
M  V30 10265 O 945.08 5.28691 2.87697 0
M  V30 10266 H 948.906 2.99706 0.49091 0
M  V30 10267 H 946.491 1.48355 0.17641 0
M  V30 10268 H 948.373 3.01542 2.94365 0
M  V30 10269 H 947.048 1.85554 2.65238 0
M  V30 10270 H 945.955 3.57573 1.09966 0
M  V30 10271 H 947.288 4.69873 1.46562 0
M  V30 10272 N 948.94 -0.228186 1.55939 0
M  V30 10273 C 949.888 -1.30239 1.92719 0
M  V30 10274 C 950.882 -1.48865 0.808424 0
M  V30 10275 O 952.088 -1.50118 0.993204 0
M  V30 10276 H 948.463 -0.436509 0.612343 0
M  V30 10277 H 950.434 -0.964965 2.82367 0
M  V30 10278 C 949.183 -2.647 2.25453 0
M  V30 10279 H 948.506 -2.51173 3.1105 0
M  V30 10280 H 949.946 -3.38691 2.55077 0
M  V30 10281 C 948.405 -3.1921 1.07734 0
M  V30 10282 O 948.935 -4.00301 0.335019 0
M  V30 10283 N 947.141 -2.77492 0.862938 0
M  V30 10284 H 946.688 -2.11657 1.4683 0
M  V30 10285 H 946.646 -3.14306 0.0770119 0
M  V30 10286 N 950.418 -1.49637 -0.494624 0
M  V30 10287 C 951.695 -1.4995 -1.25596 0
M  V30 10288 C 952.075 -0.230805 -2.09834 0
M  V30 10289 O 951.423 0.786625 -2.14533 0
M  V30 10290 C 951.633 -2.78204 -2.10721 0
M  V30 10291 C 952.981 -3.27946 -2.69698 0
M  V30 10292 O 954.005 -2.79365 -2.20984 0
M  V30 10293 O 952.864 -4.12571 -3.58395 0
M  V30 10294 H 949.958 -0.60044 -0.568684 0
M  V30 10295 H 952.504 -1.61906 -0.508371 0
M  V30 10296 H 951.276 -3.62029 -1.48494 0
M  V30 10297 H 950.899 -2.69139 -2.92661 0
M  V30 10298 N 951.896 0.746133 -1.38819 0
M  V30 10299 C 953.124 1.53539 -1.38685 0
M  V30 10300 C 953.539 1.88788 0.0215039 0
M  V30 10301 O 952.896 1.53312 0.990031 0
M  V30 10302 C 952.947 2.8299 -2.24942 0
M  V30 10303 O 952.668 2.49242 -3.60292 0
M  V30 10304 C 954.169 3.77085 -2.3307 0
M  V30 10305 H 951.389 0.474842 -0.474095 0
M  V30 10306 H 953.933 0.922844 -1.82493 0
M  V30 10307 H 952.088 3.40603 -1.84576 0
M  V30 10308 H 952.502 3.32319 -4.05789 0
M  V30 10309 H 953.976 4.64845 -2.97696 0
M  V30 10310 H 954.453 4.18049 -1.34655 0
M  V30 10311 H 955.059 3.25394 -2.73859 0
M  V30 10312 N 953.375 1.23811 0.975125 0
M  V30 10313 C 954.285 1.0408 2.10249 0
M  V30 10314 C 955.301 -0.0162404 1.73992 0
M  V30 10315 O 956.477 0.180346 2.00591 0
M  V30 10316 C 953.542 0.640013 3.40741 0
M  V30 10317 C 952.603 1.7727 3.90991 0
M  V30 10318 C 951.836 1.39094 5.15256 0
M  V30 10319 O 952.059 0.277483 5.69725 0
M  V30 10320 O 950.993 2.21392 5.59704 0
M  V30 10321 H 954.819 1.98575 2.29786 0
M  V30 10322 H 952.404 1.02563 1.08633 0
M  V30 10323 H 954.286 0.427684 4.19224 0
M  V30 10324 H 952.961 -0.27589 3.22522 0
M  V30 10325 H 951.868 2.03971 3.13602 0
M  V30 10326 H 953.201 2.66711 4.13674 0
M  V30 10327 N 954.853 -1.17469 1.05066 0
M  V30 10328 C 956.101 -1.87327 0.758485 0
M  V30 10329 C 956.422 -1.81358 -0.716549 0
M  V30 10330 O 955.692 -1.23868 -1.51768 0
M  V30 10331 H 954.272 -0.693512 0.277579 0
M  V30 10332 H 956.934 -1.4251 1.32954 0
M  V30 10333 H 956.03 -2.93101 1.0723 0
M  V30 10334 N 956.331 -0.831506 -1.3388 0
M  V30 10335 C 957.279 -0.247896 -2.31275 0
M  V30 10336 C 958.273 0.616083 -1.578 0
M  V30 10337 O 959.479 0.506465 -1.72728 0
M  V30 10338 H 955.854 -0.0614293 -0.749487 0
M  V30 10339 H 957.825 -1.08401 -2.78014 0
M  V30 10340 C 956.574 0.568434 -3.43022 0
M  V30 10341 H 955.897 -0.0870654 -3.99705 0
M  V30 10342 H 957.337 0.942751 -4.13386 0
M  V30 10343 C 955.796 1.74431 -2.88228 0
M  V30 10344 O 956.326 2.84278 -2.83811 0
M  V30 10345 N 954.532 1.56382 -2.44935 0
M  V30 10346 H 954.079 0.670255 -2.48727 0
M  V30 10347 H 954.037 2.35208 -2.08625 0
M  V30 10348 N 957.809 1.4625 -0.587256 0
M  V30 10349 C 959.086 1.95599 -0.00750181 0
M  V30 10350 C 959.466 1.52989 1.45457 0
M  V30 10351 O 958.814 0.782731 2.14676 0
M  V30 10352 C 959.024 3.48513 -0.184309 0
M  V30 10353 C 960.372 4.24565 -0.0544972 0
M  V30 10354 O 961.396 3.5602 -0.113378 0
M  V30 10355 O 960.255 5.46445 0.0774075 0
M  V30 10356 H 957.349 0.825649 0.0472495 0
M  V30 10357 H 959.895 1.56512 -0.655893 0
M  V30 10358 H 958.667 3.72428 -1.20053 0
M  V30 10359 H 958.29 3.9444 0.500301 0
M  V30 10360 N 959.287 0.325282 1.54207 0
M  V30 10361 C 960.234 -0.539889 2.24397 0
M  V30 10362 C 961.204 -1.11028 1.2354 0
M  V30 10363 O 962.389 -1.1503 1.52226 0
M  V30 10364 C 959.529 -1.69405 3.00659 0
M  V30 10365 C 958.642 -1.15273 4.16337 0
M  V30 10366 C 957.777 -2.27272 4.80126 0
M  V30 10367 C 956.816 -1.70397 5.87904 0
M  V30 10368 N 955.953 -2.76065 6.45548 0
M  V30 10369 H 960.793 0.0652318 2.97929 0
M  V30 10370 H 958.33 0.043964 1.47034 0
M  V30 10371 H 960.288 -2.37325 3.43122 0
M  V30 10372 H 958.918 -2.27043 2.29458 0
M  V30 10373 H 957.97 -0.365034 3.78645 0
M  V30 10374 H 959.282 -0.696576 4.93912 0
M  V30 10375 H 958.436 -3.03092 5.25566 0
M  V30 10376 H 957.175 -2.76224 4.01935 0
M  V30 10377 H 956.18 -0.930752 5.41864 0
M  V30 10378 H 957.405 -1.22319 6.67993 0
M  V30 10379 H 955.351 -3.24306 5.7023 0
M  V30 10380 H 955.268 -2.35018 7.18542 0
M  V30 10381 H 956.536 -3.5171 6.95644 0
M  V30 10382 N 960.765 -1.57509 0.0534917 0
M  V30 10383 C 962.011 -1.93068 -0.62069 0
M  V30 10384 C 962.344 -0.932313 -1.70357 0
M  V30 10385 O 961.619 0.0413393 -1.94456 0
M  V30 10386 C 961.902 -3.38997 -1.21463 0
M  V30 10387 C 961.755 -4.49583 -0.13965 0
M  V30 10388 C 963.074 -3.85366 -2.12558 0
M  V30 10389 H 960.193 -0.702083 -0.224163 0
M  V30 10390 H 962.835 -1.89647 0.115729 0
M  V30 10391 H 960.985 -3.42043 -1.84226 0
M  V30 10392 H 962.657 -4.58664 0.492411 0
M  V30 10393 H 960.9 -4.30525 0.532006 0
M  V30 10394 H 961.571 -5.48781 -0.595287 0
M  V30 10395 H 964.047 -3.8421 -1.59755 0
M  V30 10396 H 962.923 -4.8812 -2.51058 0
M  V30 10397 H 963.184 -3.22256 -3.02661 0
M  V30 10398 N 962.243 0.219913 -1.56058 0
M  V30 10399 C 963.19 1.27254 -1.92549 0
M  V30 10400 C 964.16 1.46493 -0.782883 0
M  V30 10401 O 965.345 1.60035 -1.03892 0
M  V30 10402 C 962.485 2.61756 -2.24896 0
M  V30 10403 C 961.598 2.50302 -3.52098 0
M  V30 10404 C 960.733 3.77338 -3.73884 0
M  V30 10405 C 959.772 3.60613 -4.94595 0
M  V30 10406 N 958.909 4.79603 -5.12763 0
M  V30 10407 H 963.749 0.954352 -2.82305 0
M  V30 10408 H 961.286 0.459928 -1.39725 0
M  V30 10409 H 963.244 3.40082 -2.4166 0
M  V30 10410 H 961.874 2.91668 -1.38311 0
M  V30 10411 H 960.926 1.63401 -3.43517 0
M  V30 10412 H 962.238 2.33866 -4.40577 0
M  V30 10413 H 961.392 4.64108 -3.90754 0
M  V30 10414 H 960.131 3.96702 -2.83689 0
M  V30 10415 H 959.136 2.72228 -4.77674 0
M  V30 10416 H 960.361 3.42719 -5.86277 0
M  V30 10417 H 958.307 4.99277 -4.2551 0
M  V30 10418 H 958.224 4.65899 -5.95377 0
M  V30 10419 H 959.492 5.67794 -5.34069 0
M  V30 10420 N 963.721 1.49897 0.486681 0
M  V30 10421 C 964.969 1.59789 1.23742 0
M  V30 10422 C 965.29 0.293056 1.92785 0
M  V30 10423 O 964.56 -0.688534 1.83401 0
M  V30 10424 H 963.14 0.588775 0.459731 0
M  V30 10425 H 965.802 1.86597 0.562808 0
M  V30 10426 H 964.898 2.40121 1.9937 0
M  V30 10427 N 965.199 -0.738761 1.39212 0
M  V30 10428 C 966.61 -1.31684 1.32348 0
M  V30 10429 C 966.961 -1.96195 -0.0139041 0
M  V30 10430 O 966.086 -1.96056 -0.916025 0
M  V30 10431 C 966.681 -2.39444 2.39691 0
M  V30 10432 C 965.24 -2.92935 2.36359 0
M  V30 10433 C 964.387 -1.66465 2.21776 0
M  V30 10434 H 967.338 -0.536543 1.49355 0
M  V30 10435 H 967.359 -3.19744 2.06262 0
M  V30 10436 H 966.871 -1.92463 3.37016 0
M  V30 10437 H 964.972 -3.44207 1.42662 0
M  V30 10438 H 965.085 -3.46306 3.31073 0
M  V30 10439 H 963.449 -1.90657 1.68884 0
M  V30 10440 H 964.232 -1.21541 3.21065 0
M  V30 10441 N 966.677 -1.24326 -0.968545 0
M  V30 10442 C 967.587 -1.05194 -2.09694 0
M  V30 10443 C 968.603 0.00701291 -1.73999 0
M  V30 10444 O 969.779 -0.190981 -2.00492 0
M  V30 10445 C 966.844 -0.658075 -3.40397 0
M  V30 10446 C 965.905 -1.79341 -3.90045 0
M  V30 10447 C 965.138 -1.41824 -5.14511 0
M  V30 10448 O 965.361 -0.307693 -5.69569 0
M  V30 10449 O 964.295 -2.24358 -5.58522 0
M  V30 10450 H 968.121 -1.99791 -2.2873 0
M  V30 10451 H 965.706 -1.03138 -1.08088 0
M  V30 10452 H 967.588 -0.449911 -4.18991 0
M  V30 10453 H 966.263 0.258782 -3.22664 0
M  V30 10454 H 965.17 -2.05632 -3.12516 0
M  V30 10455 H 966.503 -2.68901 -4.12254 0
M  V30 10456 N 968.156 1.1691 -1.05688 0
M  V30 10457 C 969.405 1.86629 -0.765022 0
M  V30 10458 C 969.718 1.82223 0.710918 0
M  V30 10459 O 970.924 2.47462 1.11691 0
M  V30 10460 C 969.38 3.34886 -1.3183 0
M  V30 10461 C 968.988 3.47781 -2.82404 0
M  V30 10462 C 970.732 4.099 -1.10372 0
M  V30 10463 C 968.639 4.9009 -3.31008 0
M  V30 10464 H 967.569 0.699082 -0.282491 0
M  V30 10465 H 970.22 1.31989 -1.27481 0
M  V30 10466 H 968.602 3.89094 -0.736312 0
M  V30 10467 H 969.776 3.03765 -3.46502 0
M  V30 10468 H 968.091 2.86193 -3.02461 0
M  V30 10469 H 970.688 5.14894 -1.4418 0
M  V30 10470 H 971.031 4.16279 -0.0417372 0
M  V30 10471 H 971.564 3.61913 -1.65117 0
M  V30 10472 H 968.303 4.88887 -4.36657 0
M  V30 10473 H 967.823 5.34756 -2.71655 0
M  V30 10474 H 969.502 5.58881 -3.25977 0
M  V30 10475 N 969.634 0.838594 1.33437 0
M  V30 10476 C 970.883 0.430484 1.97053 0
M  V30 10477 C 971.196 -1.01556 1.6717 0
M  V30 10478 O 972.402 -1.52834 2.24397 0
M  V30 10479 C 970.858 0.718828 3.52648 0
M  V30 10480 C 970.466 2.17953 3.91408 0
M  V30 10481 C 972.21 0.377654 4.22817 0
M  V30 10482 C 970.117 2.41194 5.39981 0
M  V30 10483 H 969.047 0.157239 0.737422 0
M  V30 10484 H 971.698 1.02714 1.5206 0
M  V30 10485 H 970.08 0.0518042 3.95966 0
M  V30 10486 H 971.254 2.88701 3.59149 0
M  V30 10487 H 969.569 2.48366 3.34221 0
M  V30 10488 H 972.166 0.528926 5.32077 0
M  V30 10489 H 972.509 -0.679338 4.1072 0
M  V30 10490 H 973.042 0.999899 3.85028 0
M  V30 10491 H 969.781 3.45457 5.57081 0
M  V30 10492 H 969.301 1.75007 5.73701 0
M  V30 10493 H 970.98 2.24334 6.06863 0
M  V30 10494 N 971.112 -1.45937 0.595003 0
M  V30 10495 C 972.34 -2.06698 0.091293 0
M  V30 10496 C 972.755 -1.44176 -1.21897 0
M  V30 10497 O 972.112 -0.551402 -1.73971 0
M  V30 10498 C 972.163 -3.61436 -0.0681801 0
M  V30 10499 O 971.884 -4.21622 1.19023 0
M  V30 10500 C 973.385 -4.39155 -0.604814 0
M  V30 10501 H 970.605 -0.668029 0.0630737 0
M  V30 10502 H 973.149 -1.87376 0.819165 0
M  V30 10503 H 971.304 -3.80143 -0.746324 0
M  V30 10504 H 971.718 -5.14647 1.01187 0
M  V30 10505 H 973.192 -5.47973 -0.665532 0
M  V30 10506 H 973.669 -4.08055 -1.62444 0
M  V30 10507 H 974.275 -4.25282 0.0388658 0
M  V30 10508 N 972.59 -0.333456 -1.54032 0
M  V30 10509 C 973.5 0.536674 -2.28379 0
M  V30 10510 C 974.516 1.12068 -1.33104 0
M  V30 10511 O 975.692 1.13853 -1.66131 0
M  V30 10512 C 972.757 1.67677 -3.03456 0
M  V30 10513 C 971.818 1.12357 -4.14336 0
M  V30 10514 C 971.051 2.20933 -4.85823 0
M  V30 10515 O 971.274 3.41466 -4.569 0
M  V30 10516 O 970.208 1.85795 -5.72507 0
M  V30 10517 H 974.034 -0.0674003 -3.03625 0
M  V30 10518 H 971.619 -0.098823 -1.49073 0
M  V30 10519 H 973.501 2.34032 -3.50438 0
M  V30 10520 H 972.176 2.26684 -2.31076 0
M  V30 10521 H 971.083 0.424827 -3.7168 0
M  V30 10522 H 972.416 0.578497 -4.88789 0
M  V30 10523 N 974.068 1.57479 -0.061844 0
M  V30 10524 C 974.978 2.15645 0.923826 0
M  V30 10525 C 975.994 1.117 1.33413 0
M  V30 10526 O 977.17 1.4392 1.40887 0
M  V30 10527 C 974.235 2.69857 2.17665 0
M  V30 10528 C 973.296 3.88638 1.8237 0
M  V30 10529 C 972.529 4.40256 3.01679 0
M  V30 10530 O 972.752 3.90908 4.15388 0
M  V30 10531 O 971.686 5.31713 2.82073 0
M  V30 10532 H 975.512 3.0021 0.459094 0
M  V30 10533 H 973.097 1.48534 0.160665 0
M  V30 10534 H 974.979 3.04647 2.9115 0
M  V30 10535 H 973.654 1.88357 2.63255 0
M  V30 10536 H 972.561 3.58719 1.06167 0
M  V30 10537 H 973.894 4.71401 1.4157 0
M  V30 10538 N 975.546 -0.211634 1.56173 0
M  V30 10539 C 976.792 -0.935935 1.79911 0
M  V30 10540 C 977.125 -1.83589 0.633155 0
M  V30 10541 O 976.4 -1.91004 -0.367132 0
M  V30 10542 C 976.683 -1.76638 3.13801 0
M  V30 10543 C 976.536 -0.892259 4.40861 0
M  V30 10544 C 977.855 -2.74224 3.44223 0
M  V30 10545 H 974.974 -0.338822 0.654499 0
M  V30 10546 H 977.616 -0.20422 1.88899 0
M  V30 10547 H 975.766 -2.39021 3.0627 0
M  V30 10548 H 977.438 -0.284407 4.60422 0
M  V30 10549 H 975.681 -0.198145 4.33347 0
M  V30 10550 H 976.352 -1.50793 5.31004 0
M  V30 10551 H 978.828 -2.21975 3.51946 0
M  V30 10552 H 977.704 -3.29424 4.39057 0
M  V30 10553 H 977.965 -3.52455 2.66885 0
M  V30 10554 N 977.024 -1.50153 -0.478725 0
M  V30 10555 C 977.971 -1.68458 -1.57767 0
M  V30 10556 C 978.941 -0.5259 -1.57555 0
M  V30 10557 O 980.126 -0.755574 -1.75202 0
M  V30 10558 C 977.266 -1.77772 -2.95789 0
M  V30 10559 C 976.379 -3.05092 -3.05848 0
M  V30 10560 C 975.514 -3.05247 -4.34739 0
M  V30 10561 C 974.553 -4.27053 -4.38512 0
M  V30 10562 N 973.69 -4.24991 -5.58862 0
M  V30 10563 H 978.53 -2.62282 -1.41464 0
M  V30 10564 H 976.067 -1.30023 -0.687921 0
M  V30 10565 H 978.025 -1.81152 -3.75819 0
M  V30 10566 H 976.655 -0.873944 -3.10744 0
M  V30 10567 H 975.707 -3.11219 -2.1874 0
M  V30 10568 H 977.019 -3.95075 -3.04495 0
M  V30 10569 H 976.173 -3.07314 -5.23109 0
M  V30 10570 H 974.912 -2.13081 -4.38689 0
M  V30 10571 H 973.917 -4.25206 -3.4854 0
M  V30 10572 H 975.142 -5.20437 -4.36259 0
M  V30 10573 H 973.088 -3.35674 -5.63612 0
M  V30 10574 H 973.005 -5.08734 -5.59219 0
M  V30 10575 H 974.273 -4.31193 -6.49379 0
M  V30 10576 N 978.502 0.731368 -1.39602 0
M  V30 10577 C 979.412 1.87579 -1.40894 0
M  V30 10578 C 980.428 1.71336 -0.303319 0
M  V30 10579 O 981.604 1.93875 -0.545377 0
M  V30 10580 C 978.669 3.23211 -1.25442 0
M  V30 10581 C 977.73 3.51822 -2.46008 0
M  V30 10582 C 976.963 4.80982 -2.31284 0
M  V30 10583 O 977.186 5.54958 -1.31824 0
M  V30 10584 O 976.12 5.09574 -3.20341 0
M  V30 10585 H 979.946 1.89444 -2.3737 0
M  V30 10586 H 977.531 0.879675 -1.20756 0
M  V30 10587 H 979.413 4.04257 -1.18972 0
M  V30 10588 H 978.088 3.22108 -0.320637 0
M  V30 10589 H 976.995 2.70847 -2.58055 0
M  V30 10590 H 978.328 3.57707 -3.38093 0
M  V30 10591 N 979.98 1.24838 0.961938 0
M  V30 10592 C 980.89 1.06304 2.09133 0
M  V30 10593 C 981.906 0.00221475 1.74 0
M  V30 10594 O 983.082 0.201611 2.00388 0
M  V30 10595 C 980.147 0.676117 3.40043 0
M  V30 10596 C 979.208 1.81407 3.89089 0
M  V30 10597 C 978.441 1.44551 5.13752 0
M  V30 10598 O 978.664 0.337894 5.69398 0
M  V30 10599 O 977.598 2.27316 5.57325 0
M  V30 10600 H 981.424 2.01001 2.27667 0
M  V30 10601 H 979.009 1.0371 1.07539 0
M  V30 10602 H 980.891 0.472124 4.18747 0
M  V30 10603 H 979.566 -0.241667 3.22797 0
M  V30 10604 H 978.473 2.07286 3.11421 0
M  V30 10605 H 979.806 2.71083 4.10822 0
M  V30 10606 N 981.458 -1.16348 1.06306 0
M  V30 10607 C 982.707 -1.8622 0.774909 0
M  V30 10608 C 983.02 -1.82598 -0.701245 0
M  V30 10609 O 984.226 -2.48051 -1.10377 0
M  V30 10610 C 982.682 -3.34182 1.33604 0
M  V30 10611 C 982.29 -3.46279 2.84245 0
M  V30 10612 C 984.034 -4.09309 1.12544 0
M  V30 10613 C 981.941 -4.88327 3.33602 0
M  V30 10614 H 980.871 -0.697574 0.286194 0
M  V30 10615 H 983.522 -1.31311 1.28179 0
M  V30 10616 H 981.904 -3.88698 0.756937 0
M  V30 10617 H 983.078 -3.01923 3.48108 0
M  V30 10618 H 981.393 -2.84585 3.03974 0
M  V30 10619 H 983.99 -5.14123 1.46909 0
M  V30 10620 H 984.333 -4.16251 0.0638129 0
M  V30 10621 H 984.866 -3.61032 1.67034 0
M  V30 10622 H 981.605 -4.86565 4.39244 0
M  V30 10623 H 981.125 -5.33307 2.74487 0
M  V30 10624 H 982.804 -5.57144 3.28937 0
M  V30 10625 N 982.937 -0.845659 -1.3299 0
M  V30 10626 C 983.884 -0.281761 -2.29074 0
M  V30 10627 C 984.854 0.606237 -1.54641 0
M  V30 10628 O 986.039 0.543063 -1.82908 0
M  V30 10629 C 983.179 0.531451 -3.40983 0
M  V30 10630 C 982.292 -0.381328 -4.30314 0
M  V30 10631 C 981.427 0.443643 -5.29344 0
M  V30 10632 C 980.466 -0.467101 -6.10315 0
M  V30 10633 N 979.603 0.320148 -7.0137 0
M  V30 10634 H 984.443 -1.10641 -2.76699 0
M  V30 10635 H 981.98 -0.55706 -1.36144 0
M  V30 10636 H 983.938 1.01848 -4.04577 0
M  V30 10637 H 982.568 1.32101 -2.94532 0
M  V30 10638 H 981.62 -0.986701 -3.6738 0
M  V30 10639 H 982.932 -1.08067 -4.86953 0
M  V30 10640 H 982.086 0.994212 -5.98498 0
M  V30 10641 H 980.825 1.17639 -4.73299 0
M  V30 10642 H 979.83 -1.02963 -5.40073 0
M  V30 10643 H 981.055 -1.19832 -6.68444 0
M  V30 10644 H 979.001 1.03615 -6.47765 0
M  V30 10645 H 978.918 -0.320338 -7.55321 0
M  V30 10646 H 980.186 0.852735 -7.74822 0
M  V30 10647 N 984.415 1.45619 -0.602734 0
M  V30 10648 C 985.362 2.30493 0.118944 0
M  V30 10649 C 986.332 1.41816 0.864723 0
M  V30 10650 O 987.517 1.7075 0.851424 0
M  V30 10651 C 984.657 3.2664 1.11356 0
M  V30 10652 C 983.77 4.3042 0.369161 0
M  V30 10653 C 982.905 5.13678 1.35307 0
M  V30 10654 C 981.944 6.09189 0.596207 0
M  V30 10655 N 981.081 6.85245 1.52916 0
M  V30 10656 H 985.921 2.91672 -0.610836 0
M  V30 10657 H 983.458 1.43731 -0.313032 0
M  V30 10658 H 985.416 3.80846 1.7033 0
M  V30 10659 H 984.046 2.67225 1.81081 0
M  V30 10660 H 983.098 3.78913 -0.335994 0
M  V30 10661 H 984.41 4.98307 -0.221603 0
M  V30 10662 H 983.564 5.7226 2.01502 0
M  V30 10663 H 982.303 4.45798 1.97777 0
M  V30 10664 H 981.308 5.49743 -0.0793984 0
M  V30 10665 H 982.533 6.79096 -0.0233734 0
M  V30 10666 H 980.479 6.20058 2.14159 0
M  V30 10667 H 980.396 7.49467 0.991713 0
M  V30 10668 H 981.664 7.48371 2.18083 0
M  V30 10669 N 985.893 0.34162 1.53853 0
M  V30 10670 C 986.825 -0.550383 2.22494 0
M  V30 10671 C 987.838 -1.0655 1.23089 0
M  V30 10672 O 989.027 -0.975985 1.49455 0
M  V30 10673 C 986.127 -1.76995 2.89009 0
M  V30 10674 C 985.3 -1.39045 4.14711 0
M  V30 10675 C 984.359 -2.46947 4.64654 0
M  V30 10676 O 983.385 -2.10336 5.28912 0
M  V30 10677 N 984.587 -3.7817 4.40418 0
M  V30 10678 H 987.352 0.037456 2.99677 0
M  V30 10679 H 984.913 0.165654 1.6105 0
M  V30 10680 H 986.905 -2.48608 3.19337 0
M  V30 10681 H 985.475 -2.2652 2.15424 0
M  V30 10682 H 984.695 -0.505161 3.9095 0
M  V30 10683 H 985.983 -1.11284 4.96481 0
M  V30 10684 H 985.381 -4.10704 3.89023 0
M  V30 10685 H 983.938 -4.45959 4.75356 0
M  V30 10686 N 987.371 -1.57444 0.0701946 0
M  V30 10687 C 988.617 -1.93716 -0.600178 0
M  V30 10688 C 988.95 -0.950329 -1.69359 0
M  V30 10689 O 988.225 0.0207123 -1.94489 0
M  V30 10690 C 988.508 -3.40266 -1.17861 0
M  V30 10691 C 988.361 -4.49706 -0.0919575 0
M  V30 10692 C 989.68 -3.87599 -2.08459 0
M  V30 10693 H 986.799 -0.704421 -0.216704 0
M  V30 10694 H 989.441 -1.89514 0.135838 0
M  V30 10695 H 987.591 -3.43977 -1.80587 0
M  V30 10696 H 989.263 -4.58116 0.541031 0
M  V30 10697 H 987.506 -4.29937 0.577639 0
M  V30 10698 H 988.177 -5.49381 -0.537048 0
M  V30 10699 H 990.653 -3.85883 -1.5567 0
M  V30 10700 H 989.529 -4.90755 -2.45867 0
M  V30 10701 H 989.79 -3.25448 -2.99226 0
M  V30 10702 N 988.849 0.203349 -1.56283 0
M  V30 10703 C 989.759 1.27266 -1.9708 0
M  V30 10704 C 990.775 1.50268 -0.877236 0
M  V30 10705 O 991.951 1.63044 -1.18231 0
M  V30 10706 C 989.016 2.59871 -2.29495 0
M  V30 10707 C 988.077 2.45012 -3.52516 0
M  V30 10708 C 987.31 3.71293 -3.83376 0
M  V30 10709 O 987.533 4.75106 -3.15643 0
M  V30 10710 O 986.467 3.67316 -4.76826 0
M  V30 10711 H 990.293 0.956461 -2.88246 0
M  V30 10712 H 987.878 0.407688 -1.4373 0
M  V30 10713 H 989.76 3.38152 -2.51458 0
M  V30 10714 H 988.435 2.91135 -1.415 0
M  V30 10715 H 987.342 1.6487 -3.35811 0
M  V30 10716 H 988.675 2.18683 -4.40952 0
M  V30 10717 N 990.327 1.50405 0.470755 0
M  V30 10718 C 991.237 1.7208 1.59454 0
M  V30 10719 C 992.253 0.603932 1.63183 0
M  V30 10720 O 993.429 0.882296 1.81046 0
M  V30 10721 C 990.494 1.81057 2.95667 0
M  V30 10722 C 989.555 3.04792 3.02324 0
M  V30 10723 C 988.788 3.13332 4.3204 0
M  V30 10724 O 989.011 2.28655 5.22564 0
M  V30 10725 O 987.945 4.0606 4.44296 0
M  V30 10726 H 991.771 2.67343 1.44089 0
M  V30 10727 H 989.356 1.34505 0.650286 0
M  V30 10728 H 991.238 1.8914 3.76569 0
M  V30 10729 H 989.913 0.889782 3.11231 0
M  V30 10730 H 988.82 3.0221 2.205 0
M  V30 10731 H 990.153 3.96451 2.91698 0
M  V30 10732 N 991.805 -0.723954 1.39988 0
M  V30 10733 C 993.053 -1.48078 1.3754 0
M  V30 10734 C 993.374 -1.94985 -0.0243358 0
M  V30 10735 O 992.644 -1.69764 -0.977602 0
M  V30 10736 H 991.224 -0.549354 0.506181 0
M  V30 10737 H 993.886 -0.858746 1.74962 0
M  V30 10738 H 992.982 -2.35763 2.04505 0
M  V30 10739 N 993.283 -1.25346 -0.955304 0
M  V30 10740 C 994.532 -1.0945 -1.69421 0
M  V30 10741 C 994.845 0.364459 -1.92175 0
M  V30 10742 O 996.051 0.643843 -2.63755 0
M  V30 10743 C 994.507 -1.91045 -3.05008 0
M  V30 10744 C 994.115 -3.41428 -2.90053 0
M  V30 10745 C 995.859 -1.83716 -3.82686 0
M  V30 10746 C 993.766 -4.1532 -4.21026 0
M  V30 10747 H 992.696 -0.405978 -0.635372 0
M  V30 10748 H 995.347 -1.49536 -1.06354 0
M  V30 10749 H 993.729 -1.43781 -3.68975 0
M  V30 10750 H 994.903 -3.9636 -2.35022 0
M  V30 10751 H 993.218 -3.49842 -2.25831 0
M  V30 10752 H 995.815 -2.36217 -4.79693 0
M  V30 10753 H 996.158 -0.804919 -4.08444 0
M  V30 10754 H 996.691 -2.28726 -3.25468 0
M  V30 10755 H 993.43 -5.18955 -4.00457 0
M  V30 10756 H 992.95 -3.65172 -4.75825 0
M  V30 10757 H 994.629 -4.22999 -4.89572 0
M  V30 10758 N 994.761 1.15782 -1.06922 0
M  V30 10759 C 995.708 2.2038 -0.685659 0
M  V30 10760 C 996.678 1.62972 0.320816 0
M  V30 10761 O 997.863 1.8966 0.208258 0
M  V30 10762 C 995.003 3.44995 -0.084998 0
M  V30 10763 C 994.116 4.16621 -1.14242 0
M  V30 10764 C 993.251 5.28773 -0.507226 0
M  V30 10765 C 992.29 5.92209 -1.54774 0
M  V30 10766 N 991.427 6.9584 -0.935443 0
M  V30 10767 H 996.267 2.5254 -1.58201 0
M  V30 10768 H 993.804 1.24031 -0.790864 0
M  V30 10769 H 995.762 4.16254 0.280845 0
M  V30 10770 H 994.392 3.13365 0.774725 0
M  V30 10771 H 993.444 3.43903 -1.62589 0
M  V30 10772 H 994.756 4.59884 -1.93154 0
M  V30 10773 H 993.91 6.06635 -0.0887719 0
M  V30 10774 H 992.649 4.8669 0.313704 0
M  V30 10775 H 991.654 5.13063 -1.97602 0
M  V30 10776 H 992.879 6.3637 -2.37088 0
M  V30 10777 H 990.825 6.5586 -0.135339 0
M  V30 10778 H 990.742 7.37508 -1.66186 0
M  V30 10779 H 992.01 7.77611 -0.542346 0
M  V30 10780 N 996.239 0.8527 1.3254 0
M  V30 10781 C 997.149 0.298744 2.3269 0
M  V30 10782 C 998.165 -0.582418 1.63963 0
M  V30 10783 O 999.341 -0.483253 1.95516 0
M  V30 10784 C 996.406 -0.505453 3.42996 0
M  V30 10785 C 995.467 0.401618 4.27417 0
M  V30 10786 C 994.7 -0.364294 5.32455 0
M  V30 10787 O 994.923 -1.59448 5.47661 0
M  V30 10788 O 993.857 0.268892 6.01299 0
M  V30 10789 H 997.683 1.12843 2.81958 0
M  V30 10790 H 995.268 0.615584 1.36128 0
M  V30 10791 H 997.15 -0.961974 4.10273 0
M  V30 10792 H 995.825 -1.31197 2.95921 0
M  V30 10793 H 994.732 0.906274 3.62957 0
M  V30 10794 H 996.065 1.17327 4.78012 0
M  V30 10795 N 997.718 -1.45297 0.610449 0
M  V30 10796 C 998.666 -2.32295 -0.119167 0
M  V30 10797 C 999.66 -1.46138 -0.856746 0
M  V30 10798 O 1000.87 -1.62605 -0.771988 0
M  V30 10799 H 997.241 -0.749815 -0.0572881 0
M  V30 10800 H 999.212 -2.91609 0.63297 0
M  V30 10801 C 997.961 -3.29802 -1.10119 0
M  V30 10802 H 997.284 -3.96095 -0.543063 0
M  V30 10803 H 998.724 -3.93398 -1.58158 0
M  V30 10804 C 997.183 -2.57185 -2.17617 0
M  V30 10805 O 997.713 -2.35535 -3.25401 0
M  V30 10806 N 995.919 -2.17272 -1.9298 0
M  V30 10807 H 995.466 -2.3508 -1.05334 0
M  V30 10808 H 995.424 -1.69009 -2.6511 0
M  V30 10809 N 999.196 -0.349774 -1.5367 0
M  V30 10810 C 1000.47 0.300419 -1.93279 0
M  V30 10811 C 1000.85 1.67721 -1.28191 0
M  V30 10812 O 1000.2 2.24319 -0.435127 0
M  V30 10813 C 1000.41 0.366466 -3.47071 0
M  V30 10814 C 1001.76 0.614349 -4.20132 0
M  V30 10815 O 1002.78 0.448327 -3.53367 0
M  V30 10816 O 1001.64 0.936421 -5.38417 0
M  V30 10817 H 998.736 0.176599 -0.807924 0
M  V30 10818 H 1001.28 -0.401405 -1.64884 0
M  V30 10819 H 1000.05 -0.599455 -3.86681 0
M  V30 10820 H 999.677 1.11482 -3.81651 0
M  V30 10821 N 1000.67 1.57404 -0.0785433 0
M  V30 10822 C 1001.9 1.98074 0.597862 0
M  V30 10823 C 1002.32 0.95714 1.6274 0
M  V30 10824 O 1001.67 -0.0553728 1.82416 0
M  V30 10825 C 1001.72 3.38815 1.26041 0
M  V30 10826 O 1001.45 4.37254 0.27207 0
M  V30 10827 C 1002.95 3.94397 2.024 0
M  V30 10828 H 1000.17 0.651263 0.161546 0
M  V30 10829 H 1002.71 2.03927 -0.152941 0
M  V30 10830 H 1000.87 3.34028 1.96225 0
M  V30 10831 H 1001.28 5.19136 0.74822 0
M  V30 10832 H 1002.75 4.95075 2.4414 0
M  V30 10833 H 1003.23 3.31308 2.88326 0
M  V30 10834 H 1003.84 4.02607 1.37068 0
M  V30 10835 N 1002.15 -0.195058 1.56388 0
M  V30 10836 C 1003.06 -1.26219 1.97752 0
M  V30 10837 C 1004.08 -1.49801 0.885192 0
M  V30 10838 O 1005.25 -1.62415 1.19094 0
M  V30 10839 C 1002.32 -2.5865 2.3087 0
M  V30 10840 C 1001.38 -2.4314 3.5381 0
M  V30 10841 C 1000.61 -3.69255 3.85339 0
M  V30 10842 O 1000.84 -4.73425 3.18159 0
M  V30 10843 O 999.77 -3.64782 4.78767 0
M  V30 10844 H 1003.6 -0.941161 2.88749 0
M  V30 10845 H 1001.18 -0.40006 1.43944 0
M  V30 10846 H 1003.06 -3.36814 2.53247 0
M  V30 10847 H 1001.74 -2.9038 1.43042 0
M  V30 10848 H 1000.64 -1.63086 3.3668 0
M  V30 10849 H 1001.98 -2.16341 4.42105 0
M  V30 10850 N 1003.63 -1.50653 -0.462772 0
M  V30 10851 C 1004.85 -1.66103 -1.24196 0
M  V30 10852 C 1005.28 -0.347421 -1.84864 0
M  V30 10853 O 1004.64 0.689673 -1.6767 0
M  V30 10854 C 1004.69 -2.76027 -2.32037 0
M  V30 10855 O 1003.79 -2.37859 -3.36893 0
M  V30 10856 H 1003.13 -0.554672 -0.365014 0
M  V30 10857 H 1005.66 -1.97076 -0.549734 0
M  V30 10858 H 1005.67 -2.99354 -2.77221 0
M  V30 10859 H 1004.35 -3.71361 -1.87253 0
M  V30 10860 H 1002.92 -2.2501 -2.97363 0
M  V30 10861 N 1005.11 0.71652 -1.4037 0
M  V30 10862 C 1006.06 1.8306 -1.40562 0
M  V30 10863 C 1007.03 1.64009 -0.262697 0
M  V30 10864 O 1008.21 1.85157 -0.460619 0
M  V30 10865 C 1005.35 3.2076 -1.27307 0
M  V30 10866 C 1004.46 3.51389 -2.51296 0
M  V30 10867 C 1003.6 4.78589 -2.30491 0
M  V30 10868 C 1002.64 5.02119 -3.50061 0
M  V30 10869 N 1001.77 6.20533 -3.28457 0
M  V30 10870 H 1006.61 1.82231 -2.35788 0
M  V30 10871 H 1004.15 0.890198 -1.17106 0
M  V30 10872 H 1006.11 4.00274 -1.17628 0
M  V30 10873 H 1004.74 3.2082 -0.357005 0
M  V30 10874 H 1003.79 2.66436 -2.71507 0
M  V30 10875 H 1005.1 3.64686 -3.40302 0
M  V30 10876 H 1004.26 5.66119 -2.1816 0
M  V30 10877 H 1003 4.67499 -1.38909 0
M  V30 10878 H 1002 4.13044 -3.6287 0
M  V30 10879 H 1003.23 5.15082 -4.42569 0
M  V30 10880 H 1001.17 6.10695 -2.39556 0
M  V30 10881 H 1001.09 6.34502 -4.11027 0
M  V30 10882 H 1002.36 7.10853 -3.19857 0
M  V30 10883 N 1006.59 1.25851 0.948643 0
M  V30 10884 C 1007.86 1.01717 1.67072 0
M  V30 10885 C 1008.24 -0.454749 2.06144 0
M  V30 10886 O 1007.59 -1.43345 1.77945 0
M  V30 10887 C 1007.8 1.95872 2.88852 0
M  V30 10888 C 1009.15 2.24057 3.60671 0
M  V30 10889 O 1010.17 1.93678 2.98944 0
M  V30 10890 O 1009.03 2.75745 4.71833 0
M  V30 10891 H 1006.13 0.386198 0.731287 0
M  V30 10892 H 1008.67 1.37031 1.00104 0
M  V30 10893 H 1007.44 2.95233 2.56814 0
M  V30 10894 H 1007.07 1.60992 3.63548 0
M  V30 10895 N 1008.06 -1.15214 1.07534 0
M  V30 10896 C 1009.01 -2.20013 0.697337 0
M  V30 10897 C 1009.98 -1.6314 -0.312168 0
M  V30 10898 O 1011.17 -1.89768 -0.198196 0
M  V30 10899 C 1008.31 -3.44945 0.103293 0
M  V30 10900 C 1007.42 -4.16009 1.1645 0
M  V30 10901 C 1006.55 -5.28496 0.535261 0
M  V30 10902 C 1005.59 -5.9138 1.57912 0
M  V30 10903 N 1004.73 -6.95335 0.972332 0
M  V30 10904 H 1009.57 -2.51698 1.59538 0
M  V30 10905 H 1007.11 -1.2361 0.797431 0
M  V30 10906 H 1009.07 -4.16397 -0.258766 0
M  V30 10907 H 1007.7 -3.13772 -0.758096 0
M  V30 10908 H 1006.75 -3.43035 1.64411 0
M  V30 10909 H 1008.06 -4.58853 1.9559 0
M  V30 10910 H 1007.21 -6.06579 0.120942 0
M  V30 10911 H 1005.95 -4.8685 -0.287889 0
M  V30 10912 H 1004.96 -5.12008 2.0032 0
M  V30 10913 H 1006.18 -6.35103 2.40459 0
M  V30 10914 H 1004.13 -6.55779 0.170119 0
M  V30 10915 H 1004.05 -7.36616 1.70095 0
M  V30 10916 H 1005.31 -7.77312 0.583577 0
M  V30 10917 N 1009.54 -0.859717 -1.32086 0
M  V30 10918 C 1010.47 -0.323502 -2.31248 0
M  V30 10919 C 1011.45 0.580085 -1.59903 0
M  V30 10920 O 1012.64 0.499265 -1.87673 0
M  V30 10921 C 1009.77 0.484661 -3.43902 0
M  V30 10922 C 1008.72 -0.324933 -4.26765 0
M  V30 10923 C 1008.05 0.608281 -5.31229 0
M  V30 10924 C 1009.35 -1.55344 -4.98664 0
M  V30 10925 H 1011.04 -1.15209 -2.76346 0
M  V30 10926 H 1008.59 -0.555442 -1.32856 0
M  V30 10927 H 1010.54 0.870238 -4.12316 0
M  V30 10928 H 1009.27 1.34666 -2.97544 0
M  V30 10929 H 1007.92 -0.692328 -3.60003 0
M  V30 10930 H 1007.57 1.46727 -4.81124 0
M  V30 10931 H 1007.27 0.0705571 -5.87558 0
M  V30 10932 H 1008.8 0.990925 -6.02506 0
M  V30 10933 H 1010.21 -1.23987 -5.59732 0
M  V30 10934 H 1008.61 -2.02947 -5.64741 0
M  V30 10935 H 1009.68 -2.31192 -4.26237 0
M  V30 10936 N 1011.02 1.44971 -0.618145 0
M  V30 10937 C 1012.27 2.01372 -0.115004 0
M  V30 10938 C 1012.58 1.49104 1.26599 0
M  V30 10939 O 1013.79 1.97549 1.86244 0
M  V30 10940 C 1012.24 3.59567 -0.154883 0
M  V30 10941 C 1011.85 4.20832 -1.53639 0
M  V30 10942 C 1013.6 4.23491 0.292468 0
M  V30 10943 C 1011.5 5.7121 -1.53208 0
M  V30 10944 H 1010.43 0.752979 -0.0392267 0
M  V30 10945 H 1013.08 1.66329 -0.775032 0
M  V30 10946 H 1011.47 3.91847 0.572001 0
M  V30 10947 H 1012.64 4.00109 -2.28582 0
M  V30 10948 H 1010.96 3.69143 -1.92672 0
M  V30 10949 H 1013.55 5.33771 0.315032 0
M  V30 10950 H 1013.9 3.9491 1.31725 0
M  V30 10951 H 1014.43 3.95967 -0.381493 0
M  V30 10952 H 1011.17 6.04506 -2.53481 0
M  V30 10953 H 1010.69 5.94094 -0.825387 0
M  V30 10954 H 1012.37 6.34606 -1.26032 0
M  V30 10955 N 1012.5 0.357919 1.53482 0
M  V30 10956 C 1013.75 -0.2337 2.00744 0
M  V30 10957 C 1014.07 -1.49908 1.2471 0
M  V30 10958 O 1013.34 -1.92597 0.358235 0
M  V30 10959 H 1011.92 -0.0893474 0.741637 0
M  V30 10960 H 1014.58 0.482388 1.88836 0
M  V30 10961 H 1013.68 -0.466073 3.086 0
M  V30 10962 N 1013.98 -1.5736 0.0868897 0
M  V30 10963 C 1014.91 -2.10582 -0.904858 0
M  V30 10964 C 1015.92 -1.04124 -1.25148 0
M  V30 10965 O 1017.11 -1.31595 -1.20603 0
M  V30 10966 C 1014.21 -2.56381 -2.21635 0
M  V30 10967 C 1013.38 -3.86581 -2.04631 0
M  V30 10968 C 1012.44 -4.18313 -3.19219 0
M  V30 10969 O 1011.47 -4.87669 -2.93544 0
M  V30 10970 N 1012.67 -3.73061 -4.44754 0
M  V30 10971 H 1015.44 -2.96297 -0.450352 0
M  V30 10972 H 1013 -1.616 -0.0984376 0
M  V30 10973 H 1014.99 -2.7466 -2.97227 0
M  V30 10974 H 1013.56 -1.75721 -2.58536 0
M  V30 10975 H 1012.78 -3.77532 -1.13417 0
M  V30 10976 H 1014.07 -4.71777 -1.90537 0
M  V30 10977 H 1013.46 -3.1706 -4.68497 0
M  V30 10978 H 1012.02 -3.96511 -5.17322 0
M  V30 10979 N 1015.45 0.186762 -1.56489 0
M  V30 10980 C 1016.36 1.25169 -1.98419 0
M  V30 10981 C 1017.38 1.49329 -0.893124 0
M  V30 10982 O 1018.56 1.61781 -1.19954 0
M  V30 10983 C 1015.62 2.57422 -2.32239 0
M  V30 10984 C 1014.68 2.4126 -3.55095 0
M  V30 10985 C 1013.92 3.67206 -3.87292 0
M  V30 10986 O 1014.14 4.71731 -3.20665 0
M  V30 10987 O 1013.07 3.62238 -4.80695 0
M  V30 10988 H 1016.9 0.925834 -2.89244 0
M  V30 10989 H 1014.48 0.392421 -1.44154 0
M  V30 10990 H 1016.37 3.35466 -2.5503 0
M  V30 10991 H 1015.04 2.89618 -1.44579 0
M  V30 10992 H 1013.95 1.61299 -3.37541 0
M  V30 10993 H 1015.28 2.13994 -4.43247 0
M  V30 10994 N 1016.93 1.50896 0.454776 0
M  V30 10995 C 1018.18 1.61936 1.20248 0
M  V30 10996 C 1018.49 0.332983 1.92745 0
M  V30 10997 O 1019.7 0.322512 2.69578 0
M  V30 10998 C 1018.16 2.85916 2.18587 0
M  V30 10999 C 1017.76 4.21492 1.51818 0
M  V30 11000 C 1019.51 3.06307 2.93898 0
M  V30 11001 C 1017.42 5.3664 2.48539 0
M  V30 11002 H 1016.35 0.603098 0.452536 0
M  V30 11003 H 1019 1.77345 0.471257 0
M  V30 11004 H 1017.38 2.64101 2.95071 0
M  V30 11005 H 1018.55 4.53623 0.810123 0
M  V30 11006 H 1016.87 4.06837 0.887265 0
M  V30 11007 H 1019.46 3.89507 3.66317 0
M  V30 11008 H 1019.81 2.18683 3.54236 0
M  V30 11009 H 1020.34 3.2838 2.24525 0
M  V30 11010 H 1017.08 6.26469 1.92916 0
M  V30 11011 H 1016.6 5.08907 3.17449 0
M  V30 11012 H 1018.28 5.67881 3.10033 0
M  V30 11013 N 1018.41 -0.709066 1.40748 0
M  V30 11014 C 1019.66 -1.4646 1.38681 0
M  V30 11015 C 1019.97 -1.95599 -0.0056209 0
M  V30 11016 O 1021.18 -2.71091 -0.148907 0
M  V30 11017 C 1019.63 -2.64771 2.43771 0
M  V30 11018 C 1019.24 -2.22474 3.88856 0
M  V30 11019 C 1020.99 -3.42475 2.50821 0
M  V30 11020 C 1018.89 -3.37663 4.85528 0
M  V30 11021 H 1017.82 -0.550084 0.515678 0
M  V30 11022 H 1020.47 -0.771074 1.66513 0
M  V30 11023 H 1018.86 -3.36325 2.09048 0
M  V30 11024 H 1020.03 -1.58297 4.32757 0
M  V30 11025 H 1018.35 -1.57798 3.85342 0
M  V30 11026 H 1020.94 -4.28201 3.20232 0
M  V30 11027 H 1021.29 -3.86738 1.54076 0
M  V30 11028 H 1021.82 -2.77969 2.84567 0
M  V30 11029 H 1018.56 -2.98426 5.83628 0
M  V30 11030 H 1018.08 -4.00734 4.46287 0
M  V30 11031 H 1019.76 -4.03636 5.05655 0
M  V30 11032 N 1019.89 -1.26353 -0.941956 0
M  V30 11033 C 1021.12 -1.14626 -1.72245 0
M  V30 11034 C 1021.53 0.298588 -1.86424 0
M  V30 11035 O 1020.89 1.2045 -1.37106 0
M  V30 11036 C 1020.94 -1.80933 -3.12963 0
M  V30 11037 O 1020.66 -3.19771 -2.99463 0
M  V30 11038 C 1022.16 -1.7515 -4.07231 0
M  V30 11039 H 1019.38 -0.3992 -0.539333 0
M  V30 11040 H 1021.93 -1.66958 -1.1809 0
M  V30 11041 H 1020.08 -1.32541 -3.64021 0
M  V30 11042 H 1020.5 -3.52571 -3.88322 0
M  V30 11043 H 1021.97 -2.26183 -5.03533 0
M  V30 11044 H 1022.45 -0.717855 -4.33294 0
M  V30 11045 H 1023.05 -2.2309 -3.62093 0
M  V30 11046 N 1021.37 1.14642 -1.08144 0
M  V30 11047 C 1022.28 2.23257 -0.720668 0
M  V30 11048 C 1023.29 1.71866 0.271648 0
M  V30 11049 O 1024.47 2.01064 0.116266 0
M  V30 11050 C 1021.53 3.46447 -0.132542 0
M  V30 11051 C 1020.6 4.12789 -1.17913 0
M  V30 11052 C 1019.83 5.30099 -0.618971 0
M  V30 11053 O 1020.05 5.6762 0.562418 0
M  V30 11054 O 1018.99 5.86154 -1.36774 0
M  V30 11055 H 1022.81 2.56463 -1.62667 0
M  V30 11056 H 1020.4 1.22521 -0.854932 0
M  V30 11057 H 1022.28 4.20959 0.19277 0
M  V30 11058 H 1020.95 3.14971 0.746662 0
M  V30 11059 H 1019.86 3.40163 -1.55693 0
M  V30 11060 H 1021.19 4.48365 -2.03051 0
M  V30 11061 N 1022.85 0.866709 1.31628 0
M  V30 11062 C 1023.76 0.323408 2.3236 0
M  V30 11063 C 1024.77 -0.564995 1.64572 0
M  V30 11064 O 1025.95 -0.462489 1.96018 0
M  V30 11065 C 1023.01 -0.469045 3.43513 0
M  V30 11066 C 1022.07 0.446928 4.26967 0
M  V30 11067 C 1021.31 -0.307799 5.32812 0
M  V30 11068 O 1021.53 -1.5363 5.49321 0
M  V30 11069 O 1020.46 0.332653 6.0098 0
M  V30 11070 H 1024.29 1.15827 2.80745 0
M  V30 11071 H 1021.87 0.629987 1.35468 0
M  V30 11072 H 1023.76 -0.918405 4.1127 0
M  V30 11073 H 1022.43 -1.28051 2.97296 0
M  V30 11074 H 1021.34 0.944719 3.61975 0
M  V30 11075 H 1022.67 1.2239 4.76741 0
M  V30 11076 N 1024.32 -1.44642 0.625825 0
M  V30 11077 C 1025.57 -2.02393 0.128391 0
M  V30 11078 C 1025.9 -1.49075 -1.2446 0
M  V30 11079 O 1025.18 -0.672684 -1.82497 0
M  V30 11080 C 1025.46 -3.59934 0.109279 0
M  V30 11081 C 1025.31 -4.23546 1.51423 0
M  V30 11082 C 1026.63 -4.36406 -0.568985 0
M  V30 11083 H 1023.75 -0.735427 0.0481299 0
M  V30 11084 H 1026.39 -1.72277 0.801286 0
M  V30 11085 H 1024.54 -3.85722 -0.463726 0
M  V30 11086 H 1026.22 -4.08882 2.13572 0
M  V30 11087 H 1024.46 -3.81245 2.06966 0
M  V30 11088 H 1025.13 -5.32535 1.45294 0
M  V30 11089 H 1027.61 -4.1602 -0.0817516 0
M  V30 11090 H 1026.48 -5.46122 -0.551527 0
M  V30 11091 H 1026.74 -4.1062 -1.6384 0
M  V30 11092 N 1025.8 -0.366053 -1.5329 0
M  V30 11093 C 1026.75 0.480205 -2.25749 0
M  V30 11094 C 1027.72 1.07713 -1.2644 0
M  V30 11095 O 1028.9 1.10953 -1.55222 0
M  V30 11096 C 1026.04 1.61374 -3.05045 0
M  V30 11097 C 1025.16 1.04194 -4.19246 0
M  V30 11098 C 1024.29 2.14462 -4.85983 0
M  V30 11099 C 1023.33 1.5475 -5.92215 0
M  V30 11100 N 1022.47 2.58852 -6.52641 0
M  V30 11101 H 1027.31 -0.144199 -2.97651 0
M  V30 11102 H 1024.84 -0.0829321 -1.46866 0
M  V30 11103 H 1026.8 2.28144 -3.49294 0
M  V30 11104 H 1025.43 2.2088 -2.35397 0
M  V30 11105 H 1024.48 0.264514 -3.79479 0
M  V30 11106 H 1025.8 0.565379 -4.95585 0
M  V30 11107 H 1024.95 2.89051 -5.33418 0
M  V30 11108 H 1023.69 2.6547 -4.09117 0
M  V30 11109 H 1022.69 0.786759 -5.44142 0
M  V30 11110 H 1023.92 1.04566 -6.71001 0
M  V30 11111 H 1021.87 3.09073 -5.78627 0
M  V30 11112 H 1021.78 2.15884 -7.24521 0
M  V30 11113 H 1023.05 3.33142 -7.04724 0
M  V30 11114 N 1027.28 1.57312 -0.0952337 0
M  V30 11115 C 1028.19 2.17556 0.877877 0
M  V30 11116 C 1029.21 1.14505 1.31014 0
M  V30 11117 O 1030.38 1.46876 1.37802 0
M  V30 11118 C 1027.45 2.74413 2.11892 0
M  V30 11119 C 1026.51 3.92419 1.74085 0
M  V30 11120 C 1025.74 4.46556 2.92273 0
M  V30 11121 O 1025.96 3.99631 4.07002 0
M  V30 11122 O 1024.9 5.37576 2.70732 0
M  V30 11123 H 1028.72 3.01116 0.395312 0
M  V30 11124 H 1026.31 1.48841 0.129123 0
M  V30 11125 H 1028.19 3.10754 2.84622 0
M  V30 11126 H 1026.87 1.93899 2.59201 0
M  V30 11127 H 1025.77 3.6089 0.985346 0
M  V30 11128 H 1027.11 4.74298 1.31539 0
M  V30 11129 N 1028.76 -0.17846 1.56586 0
M  V30 11130 C 1030.01 -0.894464 1.81228 0
M  V30 11131 C 1030.33 -1.83089 0.671062 0
M  V30 11132 O 1029.6 -1.93439 -0.309557 0
M  V30 11133 H 1028.18 -0.333288 0.668527 0
M  V30 11134 H 1030.84 -0.179986 1.94067 0
M  V30 11135 H 1029.93 -1.47565 2.75011 0
M  V30 11136 N 1030.24 -1.51135 -0.446768 0
M  V30 11137 C 1031.48 -1.62571 -1.19388 0
M  V30 11138 C 1031.8 -0.3432 -1.92566 0
M  V30 11139 O 1033 -0.336804 -2.69403 0
M  V30 11140 C 1031.46 -2.87071 -2.17068 0
M  V30 11141 C 1031.07 -4.22291 -1.49581 0
M  V30 11142 C 1032.81 -3.07862 -2.9227 0
M  V30 11143 C 1030.72 -5.3795 -2.45689 0
M  V30 11144 H 1029.65 -0.60549 -0.449331 0
M  V30 11145 H 1032.3 -1.77593 -0.461846 0
M  V30 11146 H 1030.68 -2.65662 -2.93666 0
M  V30 11147 H 1031.86 -4.54046 -0.786054 0
M  V30 11148 H 1030.17 -4.07302 -0.865677 0
M  V30 11149 H 1032.77 -3.91444 -3.64246 0
M  V30 11150 H 1033.11 -2.20559 -3.53072 0
M  V30 11151 H 1033.64 -3.29566 -2.2278 0
M  V30 11152 H 1030.38 -6.27484 -1.89591 0
M  V30 11153 H 1029.9 -5.10583 -3.14746 0
M  V30 11154 H 1031.58 -5.69517 -3.07017 0
M  V30 11155 N 1031.71 0.701592 -1.41122 0
M  V30 11156 C 1032.66 1.81559 -1.42495 0
M  V30 11157 C 1033.63 1.63722 -0.280078 0
M  V30 11158 O 1034.82 1.84658 -0.480231 0
M  V30 11159 C 1031.96 3.19392 -1.30702 0
M  V30 11160 C 1031.07 3.48704 -2.55009 0
M  V30 11161 C 1030.2 4.76118 -2.35554 0
M  V30 11162 C 1029.24 4.98378 -3.55367 0
M  V30 11163 N 1028.38 6.17014 -3.3502 0
M  V30 11164 H 1033.22 1.7972 -2.37707 0
M  V30 11165 H 1030.76 0.877727 -1.18044 0
M  V30 11166 H 1032.71 3.99004 -1.21867 0
M  V30 11167 H 1031.34 3.20423 -0.391012 0
M  V30 11168 H 1030.4 2.63542 -2.74317 0
M  V30 11169 H 1031.71 3.61057 -3.44151 0
M  V30 11170 H 1030.86 5.63774 -2.24152 0
M  V30 11171 H 1029.6 4.66 -1.43859 0
M  V30 11172 H 1028.61 4.09172 -3.6723 0
M  V30 11173 H 1029.83 5.10359 -4.48007 0
M  V30 11174 H 1027.78 6.0812 -2.4602 0
M  V30 11175 H 1027.69 6.30107 -4.17733 0
M  V30 11176 H 1028.96 7.0742 -3.27379 0
M  V30 11177 N 1033.19 1.2685 0.935242 0
M  V30 11178 C 1034.1 1.10716 2.06831 0
M  V30 11179 C 1035.12 0.0391222 1.73956 0
M  V30 11180 O 1036.29 0.244071 1.99916 0
M  V30 11181 C 1033.36 0.748093 3.38533 0
M  V30 11182 C 1032.42 1.89619 3.85153 0
M  V30 11183 C 1031.65 1.55416 5.1057 0
M  V30 11184 O 1031.88 0.458596 5.68553 0
M  V30 11185 O 1030.81 2.39087 5.52378 0
M  V30 11186 H 1034.64 2.05785 2.23352 0
M  V30 11187 H 1032.22 1.05967 1.05315 0
M  V30 11188 H 1034.1 0.560841 4.17651 0
M  V30 11189 H 1032.78 -0.173142 3.23237 0
M  V30 11190 H 1031.68 2.13845 3.06954 0
M  V30 11191 H 1033.02 2.79737 4.04979 0
M  V30 11192 N 1034.67 -1.14067 1.0875 0
M  V30 11193 C 1035.62 -2.21332 0.715195 0
M  V30 11194 C 1036.61 -1.67059 -0.280679 0
M  V30 11195 O 1037.82 -1.79432 -0.142874 0
M  V30 11196 H 1034.19 -0.721126 0.213264 0
M  V30 11197 H 1036.16 -2.50002 1.62916 0
M  V30 11198 C 1034.91 -3.474 0.144401 0
M  V30 11199 H 1034.24 -3.89495 0.901884 0
M  V30 11200 H 1035.68 -4.23928 -0.0782564 0
M  V30 11201 C 1034.14 -3.17787 -1.11862 0
M  V30 11202 O 1034.67 -3.35906 -2.20295 0
M  V30 11203 N 1032.87 -2.71719 -1.03039 0
M  V30 11204 H 1032.42 -2.57175 -0.14793 0
M  V30 11205 H 1032.38 -2.52281 -1.87621 0
M  V30 11206 N 1036.15 -0.873678 -1.31166 0
M  V30 11207 C 1037.43 -0.40698 -1.91319 0
M  V30 11208 C 1037.81 1.1113 -1.79481 0
M  V30 11209 O 1037.15 1.94155 -1.20483 0
M  V30 11210 C 1037.36 -0.892484 -3.37396 0
M  V30 11211 C 1038.71 -0.920795 -4.14496 0
M  V30 11212 O 1039.74 -0.838386 -3.46193 0
M  V30 11213 O 1038.59 -1.04069 -5.365 0
M  V30 11214 H 1035.69 -0.122439 -0.817886 0
M  V30 11215 H 1038.23 -0.961835 -1.3981 0
M  V30 11216 H 1037.01 -1.93613 -3.40044 0
M  V30 11217 H 1036.63 -0.31615 -3.96341 0
M  V30 11218 N 1037.63 1.44308 -0.633487 0
M  V30 11219 C 1038.85 2.06384 -0.146063 0
M  V30 11220 C 1039.27 1.47357 1.18031 0
M  V30 11221 O 1038.63 0.597334 1.72448 0
M  V30 11222 C 1038.68 3.61489 -0.0276722 0
M  V30 11223 O 1038.4 4.18318 -1.3016 0
M  V30 11224 C 1039.9 4.40604 0.488168 0
M  V30 11225 H 1037.12 0.666122 -0.0807632 0
M  V30 11226 H 1039.66 1.85139 -0.868557 0
M  V30 11227 H 1037.82 3.81988 0.645273 0
M  V30 11228 H 1038.23 5.11783 -1.14797 0
M  V30 11229 H 1039.71 5.49545 0.520013 0
M  V30 11230 H 1040.18 4.12218 1.51568 0
M  V30 11231 H 1040.79 4.2503 -0.151608 0
M  V30 11232 N 1039.1 0.374177 1.53094 0
M  V30 11233 C 1040.01 -0.475935 2.29722 0
M  V30 11234 C 1041.03 -1.085 1.36029 0
M  V30 11235 O 1042.21 -1.09408 1.69091 0
M  V30 11236 C 1039.27 -1.59572 3.07795 0
M  V30 11237 C 1038.33 -1.01332 4.17169 0
M  V30 11238 C 1037.57 -2.07975 4.9151 0
M  V30 11239 O 1037.79 -3.29232 4.65793 0
M  V30 11240 O 1036.72 -1.7055 5.77232 0
M  V30 11241 H 1040.55 0.147877 3.0334 0
M  V30 11242 H 1038.13 0.138312 1.48758 0
M  V30 11243 H 1040.02 -2.24658 3.5652 0
M  V30 11244 H 1038.69 -2.20478 2.37005 0
M  V30 11245 H 1037.6 -0.326133 3.72676 0
M  V30 11246 H 1038.93 -0.4487 4.90151 0
M  V30 11247 N 1040.58 -1.57259 0.103575 0
M  V30 11248 C 1041.53 -2.15727 -0.869739 0
M  V30 11249 C 1042.52 -1.10236 -1.28625 0
M  V30 11250 O 1043.73 -1.28567 -1.25979 0
M  V30 11251 H 1040.11 -0.690204 -0.298535 0
M  V30 11252 H 1042.08 -2.96317 -0.351984 0
M  V30 11253 C 1040.83 -2.75905 -2.11593 0
M  V30 11254 H 1040.15 -3.56768 -1.80434 0
M  V30 11255 H 1041.59 -3.20373 -2.77736 0
M  V30 11256 C 1040.05 -1.72218 -2.89556 0
M  V30 11257 O 1040.58 -1.16623 -3.84398 0
M  V30 11258 N 1038.78 -1.42514 -2.53255 0
M  V30 11259 H 1038.33 -1.87914 -1.76198 0
M  V30 11260 H 1038.29 -0.733782 -3.05717 0
M  V30 11261 N 1042.06 0.170153 -1.56679 0
M  V30 11262 C 1043.01 1.21064 -1.965 0
M  V30 11263 C 1043.98 1.43928 -0.829092 0
M  V30 11264 O 1045.16 1.56649 -1.08931 0
M  V30 11265 C 1042.3 2.54468 -2.33109 0
M  V30 11266 C 1041.42 2.38974 -3.59883 0
M  V30 11267 C 1040.55 3.65252 -3.857 0
M  V30 11268 C 1039.59 3.44696 -5.05817 0
M  V30 11269 N 1038.73 4.63047 -5.27761 0
M  V30 11270 H 1043.57 0.864055 -2.85198 0
M  V30 11271 H 1041.1 0.415243 -1.41117 0
M  V30 11272 H 1043.06 3.32222 -2.52358 0
M  V30 11273 H 1041.69 2.8712 -1.4752 0
M  V30 11274 H 1040.74 1.5239 -3.48542 0
M  V30 11275 H 1042.06 2.19731 -4.47794 0
M  V30 11276 H 1041.21 4.51441 -4.05322 0
M  V30 11277 H 1039.95 3.87475 -2.96166 0
M  V30 11278 H 1038.95 2.56893 -4.86092 0
M  V30 11279 H 1040.18 3.23894 -5.96883 0
M  V30 11280 H 1038.12 4.85487 -4.41179 0
M  V30 11281 H 1038.04 4.46722 -6.09898 0
M  V30 11282 H 1039.31 5.50516 -5.51863 0
M  V30 11283 N 1043.54 1.5137 0.438746 0
M  V30 11284 C 1044.82 1.54508 1.19944 0
M  V30 11285 C 1045.2 0.308525 2.08833 0
M  V30 11286 O 1044.54 -0.706461 2.17305 0
M  V30 11287 C 1044.75 2.85833 2.00251 0
M  V30 11288 C 1046.1 3.37729 2.5734 0
M  V30 11289 O 1047.13 2.87374 2.10463 0
M  V30 11290 O 1045.98 4.25589 3.42836 0
M  V30 11291 H 1043.08 0.621132 0.546007 0
M  V30 11292 H 1045.62 1.63682 0.447931 0
M  V30 11293 H 1044.4 3.67291 1.34955 0
M  V30 11294 H 1044.02 2.79815 2.8247 0
M  V30 11295 N 1045.02 -0.694098 1.41492 0
M  V30 11296 C 1045.96 -1.80801 1.43456 0
M  V30 11297 C 1046.93 -1.63571 0.288757 0
M  V30 11298 O 1048.12 -1.844 0.490017 0
M  V30 11299 C 1045.26 -3.18694 1.32394 0
M  V30 11300 C 1044.37 -3.47346 2.56855 0
M  V30 11301 C 1043.51 -4.74862 2.38075 0
M  V30 11302 C 1042.55 -4.96486 3.58005 0
M  V30 11303 N 1041.68 -6.15229 3.38287 0
M  V30 11304 H 1046.52 -1.78457 2.38657 0
M  V30 11305 H 1044.06 -0.871455 1.18508 0
M  V30 11306 H 1046.02 -3.98352 1.23982 0
M  V30 11307 H 1044.65 -3.20211 0.407999 0
M  V30 11308 H 1043.7 -2.62083 2.75711 0
M  V30 11309 H 1045.01 -3.59226 3.4606 0
M  V30 11310 H 1044.17 -5.62577 2.27139 0
M  V30 11311 H 1042.9 -4.6523 1.46329 0
M  V30 11312 H 1041.91 -4.07219 3.69395 0
M  V30 11313 H 1043.13 -5.07976 4.50708 0
M  V30 11314 H 1041.08 -6.06807 2.49242 0
M  V30 11315 H 1041 -6.27883 4.21069 0
M  V30 11316 H 1042.27 -7.05674 3.31126 0
M  V30 11317 N 1046.49 -1.27344 -0.928501 0
M  V30 11318 C 1047.74 -1.13804 -1.67859 0
M  V30 11319 C 1048.07 0.31555 -1.91619 0
M  V30 11320 O 1047.35 1.23087 -1.50599 0
M  V30 11321 C 1047.63 -1.9213 -3.04562 0
M  V30 11322 C 1047.48 -3.45468 -2.88048 0
M  V30 11323 C 1048.8 -1.72513 -4.04879 0
M  V30 11324 H 1045.92 -0.414796 -0.609191 0
M  V30 11325 H 1048.56 -1.5649 -1.07753 0
M  V30 11326 H 1046.71 -1.55853 -3.55868 0
M  V30 11327 H 1048.39 -3.9157 -2.43865 0
M  V30 11328 H 1046.63 -3.71849 -2.23407 0
M  V30 11329 H 1047.3 -3.95515 -3.85061 0
M  V30 11330 H 1049.78 -2.04143 -3.62581 0
M  V30 11331 H 1048.65 -2.29713 -4.98521 0
M  V30 11332 H 1048.91 -0.672856 -4.3695 0
M  V30 11333 N 1047.97 1.13488 -1.09353 0
M  V30 11334 C 1049.22 1.841 -0.82401 0
M  V30 11335 C 1049.53 1.84393 0.652586 0
M  V30 11336 O 1050.74 2.5089 1.03762 0
M  V30 11337 C 1049.2 3.30523 -1.42418 0
M  V30 11338 C 1048.8 3.38621 -2.93326 0
M  V30 11339 C 1050.55 4.06182 -1.23356 0
M  V30 11340 C 1048.46 4.79311 -3.46432 0
M  V30 11341 H 1047.39 0.68974 -0.304589 0
M  V30 11342 H 1050.04 1.27866 -1.31615 0
M  V30 11343 H 1048.42 3.86555 -0.859727 0
M  V30 11344 H 1049.59 2.92587 -3.5599 0
M  V30 11345 H 1047.91 2.76426 -3.11412 0
M  V30 11346 H 1050.5 5.10047 -1.60488 0
M  V30 11347 H 1050.85 4.15936 -0.174152 0
M  V30 11348 H 1051.38 3.56477 -1.76547 0
M  V30 11349 H 1048.12 4.74748 -4.5199 0
M  V30 11350 H 1047.64 5.25842 -2.8853 0
M  V30 11351 H 1049.32 5.48227 -3.43593 0
M  V30 11352 N 1049.45 0.880621 1.30701 0
M  V30 11353 C 1050.7 0.495894 1.95922 0
M  V30 11354 C 1051.02 -0.957214 1.69889 0
M  V30 11355 O 1050.29 -1.67245 1.0201 0
M  V30 11356 H 1048.87 0.180394 0.724891 0
M  V30 11357 H 1051.53 1.12274 1.59313 0
M  V30 11358 H 1050.63 0.662508 3.04987 0
M  V30 11359 N 1050.93 -1.4397 0.641131 0
M  V30 11360 C 1051.86 -2.28997 -0.0963315 0
M  V30 11361 C 1052.87 -1.4184 -0.799071 0
M  V30 11362 O 1054.06 -1.65896 -0.658846 0
M  V30 11363 C 1051.16 -3.18465 -1.15903 0
M  V30 11364 C 1050.34 -4.34093 -0.536828 0
M  V30 11365 C 1049.4 -5.04522 -1.4948 0
M  V30 11366 O 1048.42 -5.60202 -1.00807 0
M  V30 11367 N 1049.62 -5.06899 -2.82901 0
M  V30 11368 H 1052.39 -2.9293 0.633422 0
M  V30 11369 H 1049.95 -1.54527 0.48302 0
M  V30 11370 H 1051.94 -3.62445 -1.80044 0
M  V30 11371 H 1050.51 -2.56214 -1.79089 0
M  V30 11372 H 1049.73 -3.9318 0.283414 0
M  V30 11373 H 1051.02 -5.08698 -0.101966 0
M  V30 11374 H 1050.42 -4.63012 -3.25017 0
M  V30 11375 H 1048.97 -5.54637 -3.42376 0
M  V30 11376 N 1052.41 -0.382291 -1.52893 0
M  V30 11377 C 1053.32 0.463745 -2.29971 0
M  V30 11378 C 1054.33 1.07777 -1.36602 0
M  V30 11379 O 1055.51 1.0851 -1.69669 0
M  V30 11380 C 1052.57 1.57938 -3.08637 0
M  V30 11381 C 1051.64 0.991182 -4.17701 0
M  V30 11382 C 1050.87 2.05365 -4.92606 0
M  V30 11383 O 1051.09 3.26757 -4.67532 0
M  V30 11384 O 1050.03 1.67487 -5.78128 0
M  V30 11385 H 1053.85 -0.163962 -3.03257 0
M  V30 11386 H 1051.44 -0.146199 -1.48683 0
M  V30 11387 H 1053.32 2.22765 -3.57706 0
M  V30 11388 H 1051.99 2.19218 -2.3817 0
M  V30 11389 H 1050.9 0.306364 -3.72843 0
M  V30 11390 H 1052.23 0.422699 -4.90382 0
M  V30 11391 N 1053.89 1.57202 -0.111913 0
M  V30 11392 C 1055.13 1.94125 0.547573 0
M  V30 11393 C 1055.45 0.997026 1.68282 0
M  V30 11394 O 1056.65 1.26063 2.40459 0
M  V30 11395 C 1055.11 3.44982 1.02545 0
M  V30 11396 C 1054.72 4.47927 -0.0809529 0
M  V30 11397 C 1056.46 3.90837 1.65671 0
M  V30 11398 C 1054.37 5.89955 0.413224 0
M  V30 11399 H 1053.3 0.724651 0.208321 0
M  V30 11400 H 1055.95 1.82507 -0.190625 0
M  V30 11401 H 1054.33 3.5181 1.81785 0
M  V30 11402 H 1055.51 4.52761 -0.857003 0
M  V30 11403 H 1053.82 4.11782 -0.618434 0
M  V30 11404 H 1056.42 4.9436 2.03746 0
M  V30 11405 H 1056.76 3.30417 2.53239 0
M  V30 11406 H 1057.29 3.8678 0.929844 0
M  V30 11407 H 1054.03 6.54113 -0.426238 0
M  V30 11408 H 1053.55 5.88557 1.15591 0
M  V30 11409 H 1055.23 6.41032 0.876756 0
M  V30 11410 N 1055.36 -0.161842 1.56767 0
M  V30 11411 C 1056.61 -0.875278 1.81719 0
M  V30 11412 C 1056.93 -1.82998 0.690739 0
M  V30 11413 O 1058.13 -2.58648 0.82545 0
M  V30 11414 C 1056.59 -1.60703 3.22029 0
M  V30 11415 C 1056.2 -0.695486 4.42569 0
M  V30 11416 C 1057.94 -2.30813 3.56266 0
M  V30 11417 C 1055.85 -1.42801 5.73901 0
M  V30 11418 H 1054.78 -0.330591 0.677662 0
M  V30 11419 H 1057.43 -0.128112 1.83052 0
M  V30 11420 H 1055.81 -2.39929 3.1504 0
M  V30 11421 H 1056.98 0.0604882 4.6076 0
M  V30 11422 H 1055.3 -0.10356 4.16271 0
M  V30 11423 H 1057.9 -2.86229 4.51638 0
M  V30 11424 H 1058.24 -3.06603 2.81604 0
M  V30 11425 H 1058.77 -1.5852 3.64851 0
M  V30 11426 H 1055.51 -0.712253 6.51619 0
M  V30 11427 H 1055.03 -2.15707 5.5967 0
M  V30 11428 H 1056.71 -1.97295 6.16185 0
M  V30 11429 N 1056.84 -1.516 -0.430713 0
M  V30 11430 C 1058.07 -1.68414 -1.20185 0
M  V30 11431 C 1058.48 -0.384297 -1.84847 0
M  V30 11432 O 1057.84 0.637808 -1.70992 0
M  V30 11433 C 1057.89 -2.80451 -2.28099 0
M  V30 11434 O 1057.61 -4.05399 -1.66081 0
M  V30 11435 C 1059.11 -3.0859 -3.18256 0
M  V30 11436 H 1056.33 -0.564982 -0.361989 0
M  V30 11437 H 1058.88 -1.9805 -0.50954 0
M  V30 11438 H 1057.03 -2.53395 -2.93036 0
M  V30 11439 H 1057.45 -4.67671 -2.37453 0
M  V30 11440 H 1058.92 -3.9055 -3.90096 0
M  V30 11441 H 1059.4 -2.21264 -3.79393 0
M  V30 11442 H 1060 -3.37331 -2.59014 0
M  V30 11443 N 1058.32 0.686584 -1.41858 0
M  V30 11444 C 1059.23 1.83002 -1.46791 0
M  V30 11445 C 1060.25 1.70284 -0.357675 0
M  V30 11446 O 1061.42 1.92042 -0.606781 0
M  V30 11447 C 1058.49 3.19056 -1.35661 0
M  V30 11448 C 1057.55 3.43817 -2.57077 0
M  V30 11449 C 1056.78 4.7338 -2.46469 0
M  V30 11450 O 1057 5.50483 -1.49413 0
M  V30 11451 O 1055.94 4.99124 -3.36391 0
M  V30 11452 H 1059.76 1.81797 -2.43277 0
M  V30 11453 H 1057.35 0.840812 -1.23494 0
M  V30 11454 H 1059.23 4.00267 -1.31773 0
M  V30 11455 H 1057.91 3.20925 -0.422951 0
M  V30 11456 H 1056.81 2.625 -2.66541 0
M  V30 11457 H 1058.15 3.4677 -3.49302 0
M  V30 11458 N 1059.8 1.27835 0.921735 0
M  V30 11459 C 1060.71 1.12904 2.05645 0
M  V30 11460 C 1061.72 0.0575704 1.73905 0
M  V30 11461 O 1062.9 0.265261 1.99645 0
M  V30 11462 C 1059.96 0.783957 3.3772 0
M  V30 11463 C 1059.03 1.93694 3.8312 0
M  V30 11464 C 1058.26 1.60823 5.08893 0
M  V30 11465 O 1058.48 0.518873 5.68035 0
M  V30 11466 O 1057.42 2.44932 5.49811 0
M  V30 11467 H 1061.24 2.08143 2.21157 0
M  V30 11468 H 1058.83 1.07078 1.04185 0
M  V30 11469 H 1060.71 0.605107 4.17033 0
M  V30 11470 H 1059.38 -0.138849 3.23402 0
M  V30 11471 H 1058.29 2.17089 3.04669 0
M  V30 11472 H 1059.62 2.84016 4.0199 0
M  V30 11473 N 1061.28 -1.12907 1.09954 0
M  V30 11474 C 1062.52 -1.84579 0.840155 0
M  V30 11475 C 1062.85 -1.83605 -0.632692 0
M  V30 11476 O 1062.13 -1.27803 -1.46617 0
M  V30 11477 C 1062.41 -3.32489 1.38286 0
M  V30 11478 C 1062.27 -3.41946 2.92221 0
M  V30 11479 C 1063.58 -4.28091 1.0211 0
M  V30 11480 H 1060.7 -0.670169 0.306663 0
M  V30 11481 H 1063.35 -1.3249 1.36185 0
M  V30 11482 H 1061.5 -3.76978 0.939123 0
M  V30 11483 H 1063.17 -3.06128 3.45085 0
M  V30 11484 H 1061.41 -2.8265 3.29077 0
M  V30 11485 H 1062.08 -4.45983 3.25274 0
M  V30 11486 H 1064.56 -3.91701 1.4039 0
M  V30 11487 H 1063.43 -5.30005 1.42781 0
M  V30 11488 H 1063.69 -4.42044 -0.0700753 0
M  V30 11489 N 1062.75 -0.88754 -1.30232 0
M  V30 11490 C 1063.7 -0.354497 -2.28061 0
M  V30 11491 C 1064.67 0.556732 -1.56492 0
M  V30 11492 O 1065.86 0.484597 -1.84543 0
M  V30 11493 C 1063 0.422701 -3.42501 0
M  V30 11494 C 1062.11 -0.518036 -4.28883 0
M  V30 11495 C 1061.24 0.275011 -5.30488 0
M  V30 11496 C 1060.28 -0.661032 -6.0852 0
M  V30 11497 N 1059.42 0.0968509 -7.02033 0
M  V30 11498 H 1064.26 -1.19388 -2.73039 0
M  V30 11499 H 1061.8 -0.600091 -1.34303 0
M  V30 11500 H 1063.75 0.889249 -4.07613 0
M  V30 11501 H 1062.38 1.22664 -2.98586 0
M  V30 11502 H 1061.44 -1.10308 -3.64055 0
M  V30 11503 H 1062.75 -1.23504 -4.83268 0
M  V30 11504 H 1061.9 0.803301 -6.01358 0
M  V30 11505 H 1060.64 1.02522 -4.76802 0
M  V30 11506 H 1059.65 -1.20093 -5.36524 0
M  V30 11507 H 1060.87 -1.41037 -6.64293 0
M  V30 11508 H 1058.82 0.829548 -6.50734 0
M  V30 11509 H 1058.73 -0.560476 -7.5392 0
M  V30 11510 H 1060 0.6058 -7.77142 0
M  V30 11511 N 1064.23 1.43628 -0.648757 0
M  V30 11512 C 1065.14 2.34554 0.0463037 0
M  V30 11513 C 1066.16 1.53629 0.816952 0
M  V30 11514 O 1067.33 1.86297 0.765212 0
M  V30 11515 C 1064.4 3.3185 1.00381 0
M  V30 11516 C 1063.46 4.2868 0.230589 0
M  V30 11517 C 1062.69 5.21328 1.14249 0
M  V30 11518 O 1062.92 5.18298 2.38166 0
M  V30 11519 O 1061.85 5.98726 0.617296 0
M  V30 11520 H 1065.68 2.95475 -0.702008 0
M  V30 11521 H 1063.26 1.43694 -0.408942 0
M  V30 11522 H 1065.14 3.91692 1.5542 0
M  V30 11523 H 1063.82 2.73439 1.73243 0
M  V30 11524 H 1062.73 3.72332 -0.363282 0
M  V30 11525 H 1064.06 4.90061 -0.458368 0
M  V30 11526 N 1065.71 0.390394 1.52688 0
M  V30 11527 C 1066.96 -0.191067 2.01195 0
M  V30 11528 C 1067.28 -1.47229 1.27862 0
M  V30 11529 O 1066.55 -1.91793 0.399007 0
M  V30 11530 H 1065.13 -0.073596 0.743366 0
M  V30 11531 H 1067.79 0.522334 1.8777 0
M  V30 11532 H 1066.89 -0.40051 3.0952 0
M  V30 11533 N 1067.19 -1.57141 0.120249 0
M  V30 11534 C 1068.44 -1.94413 -0.53727 0
M  V30 11535 C 1068.75 -1.00594 -1.67751 0
M  V30 11536 O 1069.96 -1.27336 -2.39787 0
M  V30 11537 C 1068.41 -3.45521 -1.00714 0
M  V30 11538 C 1068.02 -4.47878 0.104706 0
M  V30 11539 C 1069.76 -3.9171 -1.63596 0
M  V30 11540 C 1067.67 -5.90165 -0.381932 0
M  V30 11541 H 1066.6 -0.725745 -0.204475 0
M  V30 11542 H 1069.25 -1.82404 0.200302 0
M  V30 11543 H 1067.63 -3.52769 -1.79917 0
M  V30 11544 H 1068.81 -4.523 0.881002 0
M  V30 11545 H 1067.12 -4.11448 0.640264 0
M  V30 11546 H 1069.72 -4.95433 -2.01122 0
M  V30 11547 H 1070.06 -3.31756 -2.51483 0
M  V30 11548 H 1070.6 -3.87268 -0.909319 0
M  V30 11549 H 1067.34 -6.53877 0.460921 0
M  V30 11550 H 1066.86 -5.89161 -1.12468 0
M  V30 11551 H 1068.53 -6.41488 -0.842748 0
M  V30 11552 N 1068.67 0.153526 -1.5685 0
M  V30 11553 C 1069.61 1.18973 -1.97773 0
M  V30 11554 C 1070.58 1.43041 -0.844311 0
M  V30 11555 O 1071.77 1.55484 -1.10586 0
M  V30 11556 C 1068.91 2.51981 -2.35795 0
M  V30 11557 C 1068.02 2.35143 -3.62397 0
M  V30 11558 C 1067.16 3.61141 -3.89552 0
M  V30 11559 C 1066.2 3.39311 -5.09445 0
M  V30 11560 N 1065.33 4.57423 -5.32643 0
M  V30 11561 H 1070.17 0.833758 -2.86099 0
M  V30 11562 H 1067.71 0.400252 -1.4155 0
M  V30 11563 H 1069.67 3.29527 -2.55867 0
M  V30 11564 H 1068.3 2.85539 -1.50557 0
M  V30 11565 H 1067.35 1.48684 -3.50139 0
M  V30 11566 H 1068.66 2.14969 -4.501 0
M  V30 11567 H 1067.82 4.47117 -4.10087 0
M  V30 11568 H 1066.55 3.84312 -3.00259 0
M  V30 11569 H 1065.56 2.51723 -4.8879 0
M  V30 11570 H 1066.78 3.17545 -6.00285 0
M  V30 11571 H 1064.73 4.8078 -4.46303 0
M  V30 11572 H 1064.65 4.40228 -6.14602 0
M  V30 11573 H 1065.92 5.44632 -5.57671 0
M  V30 11574 N 1070.14 1.51827 0.422667 0
M  V30 11575 C 1071.05 1.77066 1.53899 0
M  V30 11576 C 1072.07 0.655541 1.61179 0
M  V30 11577 O 1073.25 0.939448 1.78147 0
M  V30 11578 C 1070.31 1.90372 2.89758 0
M  V30 11579 C 1069.37 3.14256 2.92475 0
M  V30 11580 C 1068.61 3.26918 4.21853 0
M  V30 11581 O 1068.83 2.45164 5.15025 0
M  V30 11582 O 1067.76 4.19989 4.31153 0
M  V30 11583 H 1071.59 2.71791 1.35511 0
M  V30 11584 H 1069.17 1.36506 0.607165 0
M  V30 11585 H 1071.06 2.01024 3.70361 0
M  V30 11586 H 1069.73 0.988347 3.08242 0
M  V30 11587 H 1068.64 3.09072 2.10773 0
M  V30 11588 H 1069.97 4.0553 2.78937 0
M  V30 11589 N 1071.62 -0.679052 1.4222 0
M  V30 11590 C 1072.57 -1.81398 1.45594 0
M  V30 11591 C 1073.56 -1.66112 0.332127 0
M  V30 11592 O 1074.77 -1.72772 0.504942 0
M  V30 11593 H 1071.15 -0.598045 0.455902 0
M  V30 11594 H 1073.12 -1.7567 2.41211 0
M  V30 11595 C 1071.87 -3.19525 1.37109 0
M  V30 11596 H 1071.19 -3.31912 2.22878 0
M  V30 11597 H 1072.63 -3.98967 1.43531 0
M  V30 11598 C 1071.09 -3.36792 0.0853593 0
M  V30 11599 O 1071.62 -3.92309 -0.863532 0
M  V30 11600 N 1069.82 -2.906 0.00389229 0
M  V30 11601 H 1069.37 -2.45607 0.776846 0
M  V30 11602 H 1069.33 -3.0253 -0.855742 0
M  V30 11603 N 1073.1 -1.28322 -0.914942 0
M  V30 11604 C 1074.38 -1.06111 -1.64316 0
M  V30 11605 C 1074.76 0.399934 -2.07277 0
M  V30 11606 O 1074.11 1.38577 -1.81683 0
M  V30 11607 C 1074.32 -2.03461 -2.83557 0
M  V30 11608 C 1075.66 -2.33541 -3.54604 0
M  V30 11609 O 1076.69 -2.01536 -2.93704 0
M  V30 11610 O 1075.55 -2.88158 -4.64357 0
M  V30 11611 H 1072.64 -0.405451 -0.72079 0
M  V30 11612 H 1075.19 -1.39636 -0.964352 0
M  V30 11613 H 1073.96 -3.01938 -2.48896 0
M  V30 11614 H 1073.58 -1.70574 -3.59152 0
M  V30 11615 N 1074.58 1.12322 -1.10551 0
M  V30 11616 C 1075.81 1.87679 -0.87087 0
M  V30 11617 C 1076.22 1.79711 0.578733 0
M  V30 11618 O 1075.58 1.17185 1.39907 0
M  V30 11619 C 1075.63 3.36846 -1.31213 0
M  V30 11620 O 1075.35 3.44626 -2.70489 0
M  V30 11621 C 1076.85 4.29138 -1.11156 0
M  V30 11622 H 1074.07 0.593788 -0.3125 0
M  V30 11623 H 1076.62 1.42116 -1.47048 0
M  V30 11624 H 1074.77 3.79948 -0.756169 0
M  V30 11625 H 1075.18 4.37441 -2.89389 0
M  V30 11626 H 1076.66 5.32082 -1.46944 0
M  V30 11627 H 1077.14 4.39171 -0.0502963 0
M  V30 11628 H 1077.74 3.91818 -1.65405 0
M  V30 11629 N 1076.06 0.894434 1.2976 0
M  V30 11630 C 1076.97 0.372622 2.31622 0
M  V30 11631 C 1077.98 -0.52996 1.65733 0
M  V30 11632 O 1079.16 -0.420807 1.96955 0
M  V30 11633 C 1076.22 -0.396076 3.4443 0
M  V30 11634 C 1075.28 0.537394 4.25923 0
M  V30 11635 C 1074.52 -0.194713 5.33345 0
M  V30 11636 O 1074.74 -1.41943 5.52457 0
M  V30 11637 O 1073.67 0.460055 6.00139 0
M  V30 11638 H 1077.5 1.21756 2.78225 0
M  V30 11639 H 1075.09 0.65858 1.34101 0
M  V30 11640 H 1076.97 -0.830962 4.13126 0
M  V30 11641 H 1075.64 -1.21716 2.99945 0
M  V30 11642 H 1074.55 1.02129 3.5989 0
M  V30 11643 H 1075.88 1.32475 4.74037 0
M  V30 11644 N 1077.53 -1.43282 0.656365 0
M  V30 11645 C 1078.48 -2.32556 -0.0452037 0
M  V30 11646 C 1079.48 -1.48789 -0.80982 0
M  V30 11647 O 1080.68 -1.64979 -0.719865 0
M  V30 11648 H 1077.06 -0.751258 -0.0334043 0
M  V30 11649 H 1079.03 -2.89448 0.725423 0
M  V30 11650 C 1077.78 -3.33138 -0.995706 0
M  V30 11651 H 1077.1 -3.97622 -0.416774 0
M  V30 11652 H 1078.54 -3.98231 -1.45562 0
M  V30 11653 C 1077 -2.63978 -2.09325 0
M  V30 11654 O 1077.53 -2.45769 -3.17743 0
M  V30 11655 N 1075.74 -2.23301 -1.8597 0
M  V30 11656 H 1075.28 -2.38312 -0.97802 0
M  V30 11657 H 1075.24 -1.77358 -2.59599 0
M  V30 11658 N 1079.01 -0.398486 -1.52479 0
M  V30 11659 C 1079.96 0.432212 -2.26717 0
M  V30 11660 C 1080.93 1.05007 -1.28696 0
M  V30 11661 O 1082.12 1.07636 -1.57541 0
M  V30 11662 C 1079.26 1.54868 -3.08399 0
M  V30 11663 C 1078.37 0.952779 -4.21362 0
M  V30 11664 C 1077.5 2.04106 -4.90423 0
M  V30 11665 C 1076.54 1.42153 -5.95364 0
M  V30 11666 N 1075.68 2.44951 -6.57984 0
M  V30 11667 H 1080.52 -0.207303 -2.97278 0
M  V30 11668 H 1078.06 -0.114066 -1.46657 0
M  V30 11669 H 1080.01 2.20684 -3.54054 0
M  V30 11670 H 1078.64 2.15837 -2.4003 0
M  V30 11671 H 1077.7 0.183962 -3.79955 0
M  V30 11672 H 1079.01 0.460131 -4.96673 0
M  V30 11673 H 1078.16 2.77672 -5.39429 0
M  V30 11674 H 1076.9 2.56733 -4.14656 0
M  V30 11675 H 1075.91 0.671161 -5.45688 0
M  V30 11676 H 1077.13 0.903093 -6.73068 0
M  V30 11677 H 1075.08 2.9673 -5.85053 0
M  V30 11678 H 1074.99 2.00468 -7.28937 0
M  V30 11679 H 1076.26 3.18119 -7.11632 0
M  V30 11680 N 1080.49 1.57075 -0.12858 0
M  V30 11681 C 1081.77 1.87075 0.571162 0
M  V30 11682 C 1082.15 1.03141 1.84188 0
M  V30 11683 O 1081.5 0.113001 2.2822 0
M  V30 11684 C 1081.71 3.3838 0.854383 0
M  V30 11685 C 1083.05 4.07194 1.20326 0
M  V30 11686 O 1084.08 3.43454 0.944338 0
M  V30 11687 O 1082.94 5.19725 1.68963 0
M  V30 11688 H 1080.03 0.774764 0.289258 0
M  V30 11689 H 1082.58 1.68908 -0.163806 0
M  V30 11690 H 1081.35 3.91273 -0.0456925 0
M  V30 11691 H 1080.97 3.62012 1.64418 0
M  V30 11692 N 1081.97 -0.145205 1.5693 0
M  V30 11693 C 1082.92 -1.17923 1.98401 0
M  V30 11694 C 1083.89 -1.42591 0.851885 0
M  V30 11695 O 1085.07 -1.54896 1.11409 0
M  V30 11696 C 1082.21 -2.50727 2.37128 0
M  V30 11697 C 1081.32 -2.33218 3.63639 0
M  V30 11698 C 1080.46 -3.5907 3.91462 0
M  V30 11699 C 1079.5 -3.36605 5.11237 0
M  V30 11700 N 1078.64 -4.54592 5.35061 0
M  V30 11701 H 1083.48 -0.818573 2.86537 0
M  V30 11702 H 1081.01 -0.392739 1.4176 0
M  V30 11703 H 1082.97 -3.28165 2.57611 0
M  V30 11704 H 1081.6 -2.84736 1.52069 0
M  V30 11705 H 1080.65 -1.46826 3.50922 0
M  V30 11706 H 1081.96 -2.12579 4.51234 0
M  V30 11707 H 1081.12 -4.44936 4.12453 0
M  V30 11708 H 1079.86 -3.82715 3.02293 0
M  V30 11709 H 1078.86 -2.49127 4.90118 0
M  V30 11710 H 1080.09 -3.14357 6.01961 0
M  V30 11711 H 1078.03 -4.78406 4.48847 0
M  V30 11712 H 1077.95 -4.36962 6.16928 0
M  V30 11713 H 1079.22 -5.41666 5.60551 0
M  V30 11714 N 1083.45 -1.52049 -0.414609 0
M  V30 11715 C 1084.69 -1.66084 -1.16379 0
M  V30 11716 C 1085.03 -0.386932 -1.90306 0
M  V30 11717 O 1084.3 0.614441 -1.8454 0
M  V30 11718 C 1084.58 -2.87927 -2.16264 0
M  V30 11719 C 1084.44 -4.25353 -1.46269 0
M  V30 11720 C 1085.76 -3.05289 -3.16996 0
M  V30 11721 H 1082.88 -0.604414 -0.421726 0
M  V30 11722 H 1085.52 -1.8459 -0.450177 0
M  V30 11723 H 1083.67 -2.7228 -2.77121 0
M  V30 11724 H 1085.34 -4.52717 -0.885743 0
M  V30 11725 H 1083.58 -4.27006 -0.76472 0
M  V30 11726 H 1084.25 -5.06644 -2.19126 0
M  V30 11727 H 1086.73 -3.19798 -2.66212 0
M  V30 11728 H 1085.61 -3.92065 -3.84156 0
M  V30 11729 H 1085.87 -2.1836 -3.84411 0
M  V30 11730 N 1084.93 0.6715 -1.42579 0
M  V30 11731 C 1086.17 1.42731 -1.42516 0
M  V30 11732 C 1086.49 1.95545 -0.0462407 0
M  V30 11733 O 1087.69 2.71391 0.0769798 0
M  V30 11734 C 1086.15 2.58215 -2.50705 0
M  V30 11735 C 1085.76 2.12086 -3.94618 0
M  V30 11736 C 1087.5 3.35705 -2.59813 0
M  V30 11737 C 1085.41 3.24672 -4.9431 0
M  V30 11738 H 1084.34 0.536218 -0.530081 0
M  V30 11739 H 1086.99 0.726655 -1.68499 0
M  V30 11740 H 1085.37 3.30665 -2.17892 0
M  V30 11741 H 1086.55 1.46768 -4.36802 0
M  V30 11742 H 1084.86 1.47526 -3.89391 0
M  V30 11743 H 1087.46 4.1956 -3.31472 0
M  V30 11744 H 1087.8 3.82517 -1.64276 0
M  V30 11745 H 1088.33 2.70326 -2.91836 0
M  V30 11746 H 1085.07 2.82848 -5.91335 0
M  V30 11747 H 1084.59 3.88761 -4.56755 0
M  V30 11748 H 1086.27 3.90088 -5.16179 0
M  V30 11749 N 1086.4 1.28806 0.908124 0
M  V30 11750 C 1087.65 1.16058 1.65454 0
M  V30 11751 C 1087.97 -0.290057 1.92831 0
M  V30 11752 O 1087.24 -1.20001 1.54843 0
M  V30 11753 H 1085.82 0.426522 0.61326 0
M  V30 11754 H 1088.48 1.61614 1.08936 0
M  V30 11755 H 1087.58 1.70437 2.61453 0
M  V30 11756 N 1087.88 -1.11734 1.11145 0
M  V30 11757 C 1088.81 -2.17438 0.724804 0
M  V30 11758 C 1089.83 -1.6099 -0.242069 0
M  V30 11759 O 1091.02 -1.78482 -0.0254259 0
M  V30 11760 C 1088.12 -3.38863 0.050004 0
M  V30 11761 C 1087.29 -4.24785 1.04292 0
M  V30 11762 C 1086.35 -5.24691 0.398243 0
M  V30 11763 O 1085.37 -5.59408 1.05125 0
M  V30 11764 N 1086.58 -5.74388 -0.840184 0
M  V30 11765 H 1089.34 -2.51219 1.63429 0
M  V30 11766 H 1086.9 -1.27226 1.00125 0
M  V30 11767 H 1088.89 -4.02788 -0.392929 0
M  V30 11768 H 1087.46 -3.0317 -0.762005 0
M  V30 11769 H 1086.68 -3.57363 1.6639 0
M  V30 11770 H 1087.97 -4.79033 1.71478 0
M  V30 11771 H 1087.37 -5.48359 -1.38994 0
M  V30 11772 H 1085.93 -6.40163 -1.22615 0
M  V30 11773 N 1089.36 -0.901303 -1.29284 0
M  V30 11774 C 1090.27 -0.3849 -2.31421 0
M  V30 11775 C 1091.29 0.521163 -1.66012 0
M  V30 11776 O 1092.46 0.410356 -1.97175 0
M  V30 11777 C 1089.53 0.377804 -3.44635 0
M  V30 11778 C 1088.59 -0.559974 -4.25632 0
M  V30 11779 C 1087.82 0.166425 -5.3344 0
M  V30 11780 O 1088.04 1.39012 -5.53202 0
M  V30 11781 O 1086.98 -0.491875 -5.99887 0
M  V30 11782 H 1090.8 -1.2323 -2.77575 0
M  V30 11783 H 1088.39 -0.665683 -1.3375 0
M  V30 11784 H 1090.27 0.809041 -4.13561 0
M  V30 11785 H 1088.95 1.20124 -3.00586 0
M  V30 11786 H 1087.85 -1.04036 -3.59343 0
M  V30 11787 H 1089.19 -1.34987 -4.73328 0
M  V30 11788 N 1090.84 1.42931 -0.663954 0
M  V30 11789 C 1092.09 2.00904 -0.179011 0
M  V30 11790 C 1092.4 1.53056 1.21791 0
M  V30 11791 O 1093.61 2.03374 1.79865 0
M  V30 11792 C 1092.06 3.58892 -0.269198 0
M  V30 11793 C 1091.67 4.15731 -1.66949 0
M  V30 11794 C 1093.41 4.24207 0.157589 0
M  V30 11795 C 1091.32 5.66047 -1.71303 0
M  V30 11796 H 1090.25 0.75135 -0.0631623 0
M  V30 11797 H 1092.9 1.6378 -0.827556 0
M  V30 11798 H 1091.28 3.93469 0.447048 0
M  V30 11799 H 1092.46 3.92634 -2.41195 0
M  V30 11800 H 1090.77 3.62826 -2.04318 0
M  V30 11801 H 1093.37 5.34503 0.145057 0
M  V30 11802 H 1093.71 3.98901 1.19095 0
M  V30 11803 H 1094.25 3.94552 -0.507274 0
M  V30 11804 H 1090.98 5.96136 -2.72584 0
M  V30 11805 H 1090.5 5.91167 -1.01398 0
M  V30 11806 H 1092.18 6.30275 -1.46158 0
M  V30 11807 N 1092.32 0.406567 1.52266 0
M  V30 11808 C 1093.56 -0.171391 2.00971 0
M  V30 11809 C 1093.88 -1.46443 1.29668 0
M  V30 11810 O 1095.08 -2.12348 1.69176 0
M  V30 11811 C 1093.54 -0.35599 3.58135 0
M  V30 11812 C 1093.15 0.924803 4.38351 0
M  V30 11813 C 1094.89 -0.889378 4.15079 0
M  V30 11814 C 1092.8 0.707534 5.87152 0
M  V30 11815 H 1091.73 -0.0678253 0.750943 0
M  V30 11816 H 1094.38 0.531619 1.7563 0
M  V30 11817 H 1092.76 -1.12127 3.79794 0
M  V30 11818 H 1093.94 1.69603 4.28452 0
M  V30 11819 H 1092.25 1.38442 3.92712 0
M  V30 11820 H 1094.85 -1.06792 5.23927 0
M  V30 11821 H 1095.19 -1.86334 3.7227 0
M  V30 11822 H 1095.72 -0.183224 3.97378 0
M  V30 11823 H 1092.46 1.65299 6.34316 0
M  V30 11824 H 1091.98 -0.024446 5.99795 0
M  V30 11825 H 1093.66 0.348721 6.4606 0
M  V30 11826 N 1093.79 -1.57004 0.136909 0
M  V30 11827 C 1095.02 -2.00156 -0.523936 0
M  V30 11828 C 1095.44 -1.01688 -1.59075 0
M  V30 11829 O 1094.79 -0.0123678 -1.82496 0
M  V30 11830 C 1094.85 -3.4326 -1.13379 0
M  V30 11831 O 1094.57 -4.37963 -0.109598 0
M  V30 11832 C 1096.07 -4.01637 -1.87623 0
M  V30 11833 H 1093.29 -0.65681 -0.137263 0
M  V30 11834 H 1095.83 -2.03219 0.228522 0
M  V30 11835 H 1093.99 -3.4108 -1.83693 0
M  V30 11836 H 1094.4 -5.21555 -0.55503 0
M  V30 11837 H 1095.87 -5.03795 -2.25597 0
M  V30 11838 H 1096.35 -3.41781 -2.75831 0
M  V30 11839 H 1096.96 -4.07417 -1.22031 0
M  V30 11840 N 1095.27 0.136881 -1.57004 0
M  V30 11841 C 1096.18 1.18793 -2.023 0
M  V30 11842 C 1097.2 1.46412 -0.94018 0
M  V30 11843 O 1098.37 1.57883 -1.2504 0
M  V30 11844 C 1095.44 2.49903 -2.40311 0
M  V30 11845 C 1094.5 2.29841 -3.6259 0
M  V30 11846 C 1093.73 3.54699 -3.98779 0
M  V30 11847 O 1093.96 4.61291 -3.3551 0
M  V30 11848 O 1092.89 3.46761 -4.91976 0
M  V30 11849 H 1096.72 0.833345 -2.92043 0
M  V30 11850 H 1094.3 0.346361 -1.4533 0
M  V30 11851 H 1096.18 3.27183 -2.65574 0
M  V30 11852 H 1094.86 2.84872 -1.5372 0
M  V30 11853 H 1093.77 1.50478 -3.42501 0
M  V30 11854 H 1095.1 1.99784 -4.4983 0
M  V30 11855 N 1096.75 1.52266 0.40654 0
M  V30 11856 C 1097.66 1.78688 1.52012 0
M  V30 11857 C 1098.68 0.6726 1.60475 0
M  V30 11858 O 1099.85 0.95829 1.77141 0
M  V30 11859 C 1096.92 1.93434 2.87722 0
M  V30 11860 C 1095.98 3.17341 2.89125 0
M  V30 11861 C 1095.21 3.31374 4.18362 0
M  V30 11862 O 1095.43 2.50613 5.12396 0
M  V30 11863 O 1094.37 4.24539 4.26674 0
M  V30 11864 H 1098.19 2.73213 1.3262 0
M  V30 11865 H 1095.78 1.37142 0.592653 0
M  V30 11866 H 1097.66 2.04941 3.68208 0
M  V30 11867 H 1096.34 1.02099 3.07177 0
M  V30 11868 H 1095.24 3.1129 2.07483 0
M  V30 11869 H 1096.58 4.08466 2.7462 0
M  V30 11870 N 1098.23 -0.663929 1.42933 0
M  V30 11871 C 1099.47 -1.42603 1.44195 0
M  V30 11872 C 1099.81 -1.94101 0.0620284 0
M  V30 11873 O 1099.08 -1.71609 -0.91546 0
M  V30 11874 C 1099.37 -2.61522 2.47544 0
M  V30 11875 C 1099.22 -2.15587 3.94769 0
M  V30 11876 C 1100.54 -3.6374 2.47753 0
M  V30 11877 H 1097.66 -0.517189 0.525056 0
M  V30 11878 H 1100.3 -0.75361 1.74415 0
M  V30 11879 H 1098.45 -3.1889 2.21904 0
M  V30 11880 H 1100.12 -1.63303 4.31428 0
M  V30 11881 H 1098.36 -1.47057 4.08114 0
M  V30 11882 H 1099.03 -3.01053 4.62678 0
M  V30 11883 H 1101.51 -3.16111 2.70579 0
M  V30 11884 H 1100.39 -4.44512 3.22025 0
M  V30 11885 H 1100.65 -4.15607 1.50742 0
M  V30 11886 N 1099.71 -1.29285 -0.901281 0
M  V30 11887 C 1100.65 -1.1428 -2.00521 0
M  V30 11888 C 1101.62 -0.0365428 -1.6606 0
M  V30 11889 O 1102.81 -0.203771 -1.89709 0
M  V30 11890 C 1099.95 -0.823671 -3.35126 0
M  V30 11891 C 1099.06 -2.01021 -3.8238 0
M  V30 11892 C 1098.2 -1.6306 -5.05554 0
M  V30 11893 C 1097.24 -2.78304 -5.45173 0
M  V30 11894 N 1096.37 -2.4075 -6.59533 0
M  V30 11895 H 1101.21 -2.08729 -2.12688 0
M  V30 11896 H 1098.75 -1.0387 -1.04161 0
M  V30 11897 H 1100.71 -0.61934 -4.12577 0
M  V30 11898 H 1099.34 0.0839113 -3.22691 0
M  V30 11899 H 1098.39 -2.32629 -3.00978 0
M  V30 11900 H 1099.7 -2.8738 -4.07694 0
M  V30 11901 H 1098.86 -1.38906 -5.90584 0
M  V30 11902 H 1097.59 -0.738464 -4.82077 0
M  V30 11903 H 1096.6 -3.03142 -4.58678 0
M  V30 11904 H 1097.82 -3.68179 -5.70632 0
M  V30 11905 H 1095.77 -1.54022 -6.37662 0
M  V30 11906 H 1095.69 -3.20643 -6.84634 0
M  V30 11907 H 1096.96 -2.19912 -7.47836 0
M  V30 11908 N 1101.18 1.11143 -1.11736 0
M  V30 11909 C 1102.13 2.17274 -0.778513 0
M  V30 11910 C 1103.1 1.64186 0.251405 0
M  V30 11911 O 1104.29 1.90373 0.127629 0
M  V30 11912 C 1101.43 3.44324 -0.231246 0
M  V30 11913 C 1100.54 4.114 -1.31809 0
M  V30 11914 C 1099.67 5.26146 -0.73104 0
M  V30 11915 C 1098.71 5.85112 -1.79752 0
M  V30 11916 N 1097.85 6.91247 -1.22973 0
M  V30 11917 H 1102.69 2.45603 -1.68769 0
M  V30 11918 H 1100.23 1.20565 -0.842759 0
M  V30 11919 H 1102.19 4.1707 0.104045 0
M  V30 11920 H 1100.82 3.16369 0.641119 0
M  V30 11921 H 1099.87 3.36697 -1.77029 0
M  V30 11922 H 1101.18 4.51278 -2.12485 0
M  V30 11923 H 1100.33 6.05713 -0.345987 0
M  V30 11924 H 1099.07 4.87583 0.107 0
M  V30 11925 H 1098.08 5.0422 -2.19185 0
M  V30 11926 H 1099.3 6.25741 -2.63865 0
M  V30 11927 H 1097.25 6.54696 -0.41339 0
M  V30 11928 H 1097.17 7.29796 -1.97316 0
M  V30 11929 H 1098.43 7.74611 -0.87167 0
M  V30 11930 N 1102.66 0.908147 1.28804 0
M  V30 11931 C 1103.57 0.397167 2.31214 0
M  V30 11932 C 1104.59 -0.512352 1.66286 0
M  V30 11933 O 1105.76 -0.399893 1.9739 0
M  V30 11934 C 1102.83 -0.359522 3.44831 0
M  V30 11935 C 1101.89 0.582539 4.25329 0
M  V30 11936 C 1101.12 -0.138133 5.33521 0
M  V30 11937 O 1101.35 -1.36076 5.53931 0
M  V30 11938 O 1100.28 0.523682 5.99618 0
M  V30 11939 H 1104.11 1.247 2.76918 0
M  V30 11940 H 1101.69 0.672766 1.33395 0
M  V30 11941 H 1103.57 -0.787098 4.13984 0
M  V30 11942 H 1102.25 -1.18528 3.01219 0
M  V30 11943 H 1101.16 1.0594 3.58786 0
M  V30 11944 H 1102.49 1.37495 4.72605 0
M  V30 11945 N 1104.14 -1.42577 0.671525 0
M  V30 11946 C 1105.39 -2.00806 0.189663 0
M  V30 11947 C 1105.7 -1.537 -1.20978 0
M  V30 11948 O 1106.91 -2.04325 -1.78784 0
M  V30 11949 C 1105.36 -3.58744 0.288227 0
M  V30 11950 C 1104.97 -4.14839 1.69152 0
M  V30 11951 C 1106.72 -4.24285 -0.13509 0
M  V30 11952 C 1104.62 -5.65131 1.74302 0
M  V30 11953 H 1103.55 -0.751004 0.067146 0
M  V30 11954 H 1106.2 -1.63338 0.83623 0
M  V30 11955 H 1104.59 -3.937 -0.426175 0
M  V30 11956 H 1105.76 -3.91349 2.43274 0
M  V30 11957 H 1104.08 -3.61738 2.0624 0
M  V30 11958 H 1106.67 -5.34573 -0.116709 0
M  V30 11959 H 1107.02 -3.99527 -1.16977 0
M  V30 11960 H 1107.55 -3.94278 0.528191 0
M  V30 11961 H 1104.29 -5.94682 2.75742 0
M  V30 11962 H 1103.81 -5.90621 1.04531 0
M  V30 11963 H 1105.49 -6.29491 1.49498 0
M  V30 11964 N 1105.62 -0.414636 -1.52048 0
M  V30 11965 C 1106.53 0.414861 -2.30903 0
M  V30 11966 C 1107.54 1.04855 -1.38858 0
M  V30 11967 O 1108.72 1.04886 -1.71933 0
M  V30 11968 C 1105.79 1.51356 -3.11917 0
M  V30 11969 C 1104.85 0.902359 -4.19709 0
M  V30 11970 C 1104.08 1.9487 -4.96852 0
M  V30 11971 O 1104.3 3.16766 -4.74358 0
M  V30 11972 O 1103.24 1.55186 -5.8155 0
M  V30 11973 H 1107.06 -0.228251 -3.02841 0
M  V30 11974 H 1104.65 -0.177704 -1.48339 0
M  V30 11975 H 1106.53 2.15127 -3.62351 0
M  V30 11976 H 1105.2 2.14117 -2.42767 0
M  V30 11977 H 1104.11 0.22721 -3.73409 0
M  V30 11978 H 1105.44 0.318587 -4.91168 0
M  V30 11979 N 1107.1 1.56929 -0.145233 0
M  V30 11980 C 1108.04 2.16671 0.795128 0
M  V30 11981 C 1109.01 1.09908 1.24537 0
M  V30 11982 O 1110.2 1.37941 1.31821 0
M  V30 11983 C 1107.34 2.79111 2.02956 0
M  V30 11984 C 1106.45 4.00261 1.62528 0
M  V30 11985 C 1105.59 4.50705 2.81137 0
M  V30 11986 C 1104.63 5.64324 2.37075 0
M  V30 11987 N 1103.76 6.09395 3.48687 0
M  V30 11988 H 1108.6 2.96692 0.278865 0
M  V30 11989 H 1106.14 1.4656 0.125934 0
M  V30 11990 H 1108.1 3.13456 2.7532 0
M  V30 11991 H 1106.73 2.01737 2.51996 0
M  V30 11992 H 1105.78 3.71906 0.799365 0
M  V30 11993 H 1107.09 4.8258 1.26166 0
M  V30 11994 H 1106.25 4.87096 3.61693 0
M  V30 11995 H 1104.98 3.67389 3.20744 0
M  V30 11996 H 1103.99 5.27511 1.54958 0
M  V30 11997 H 1105.21 6.49425 1.98556 0
M  V30 11998 H 1103.16 5.29014 3.87917 0
M  V30 11999 H 1103.08 6.86636 3.16333 0
M  V30 12000 H 1104.35 6.50431 4.29605 0
M  V30 12001 N 1108.58 -0.128553 1.57075 0
M  V30 12002 C 1109.51 -1.18362 1.96273 0
M  V30 12003 C 1110.52 -1.3818 0.860818 0
M  V30 12004 O 1111.71 -1.37424 1.13916 0
M  V30 12005 C 1108.81 -2.54533 2.23755 0
M  V30 12006 C 1107.98 -2.55446 3.55058 0
M  V30 12007 C 1107.04 -3.73291 3.70864 0
M  V30 12008 O 1106.07 -3.57315 4.43074 0
M  V30 12009 N 1107.27 -4.91481 3.08912 0
M  V30 12010 H 1110.03 -0.850276 2.87385 0
M  V30 12011 H 1107.6 -0.317931 1.58748 0
M  V30 12012 H 1109.59 -3.31912 2.31553 0
M  V30 12013 H 1108.16 -2.80087 1.38816 0
M  V30 12014 H 1107.38 -1.6385 3.58534 0
M  V30 12015 H 1108.67 -2.53104 4.4138 0
M  V30 12016 H 1108.06 -5.07364 2.50196 0
M  V30 12017 H 1106.62 -5.6657 3.22245 0
M  V30 12018 N 1110.05 -1.5248 -0.398459 0
M  V30 12019 C 1110.96 -1.79492 -1.51062 0
M  V30 12020 C 1111.98 -0.681101 -1.60116 0
M  V30 12021 O 1113.16 -0.967671 -1.7663 0
M  V30 12022 C 1110.22 -1.94958 -2.86692 0
M  V30 12023 C 1109.28 -3.1887 -2.87438 0
M  V30 12024 C 1108.51 -3.33588 -4.16599 0
M  V30 12025 O 1108.74 -2.53327 -5.11059 0
M  V30 12026 O 1107.67 -4.26795 -4.24416 0
M  V30 12027 H 1111.5 -2.73913 -1.31169 0
M  V30 12028 H 1109.08 -1.37455 -0.585372 0
M  V30 12029 H 1110.96 -2.06891 -3.67116 0
M  V30 12030 H 1109.64 -1.03726 -3.06631 0
M  V30 12031 H 1108.55 -3.12386 -2.0583 0
M  V30 12032 H 1109.88 -4.09917 -2.7245 0
M  V30 12033 N 1111.53 0.65634 -1.43283 0
M  V30 12034 C 1112.44 1.79847 -1.50639 0
M  V30 12035 C 1113.46 1.69487 -0.393714 0
M  V30 12036 O 1114.63 1.90712 -0.647379 0
M  V30 12037 C 1111.7 3.16107 -1.42398 0
M  V30 12038 C 1110.76 3.38287 -2.64312 0
M  V30 12039 C 1109.99 4.68046 -2.56454 0
M  V30 12040 O 1110.22 5.4719 -1.61056 0
M  V30 12041 O 1109.15 4.91877 -3.46902 0
M  V30 12042 H 1112.98 1.76596 -2.47078 0
M  V30 12043 H 1110.56 0.814428 -1.25249 0
M  V30 12044 H 1112.44 3.97382 -1.40233 0
M  V30 12045 H 1111.12 3.19956 -0.490929 0
M  V30 12046 H 1110.02 2.56788 -2.72049 0
M  V30 12047 H 1111.36 3.39282 -3.56579 0
M  V30 12048 N 1113.01 1.29761 0.894412 0
M  V30 12049 C 1113.96 1.15341 1.99912 0
M  V30 12050 C 1114.93 0.0453488 1.66038 0
M  V30 12051 O 1116.11 0.213829 1.89598 0
M  V30 12052 C 1113.25 0.841432 3.34685 0
M  V30 12053 C 1112.36 2.03046 3.81309 0
M  V30 12054 C 1111.5 1.65739 5.04682 0
M  V30 12055 C 1110.54 2.81191 5.43689 0
M  V30 12056 N 1109.68 2.44244 6.58247 0
M  V30 12057 H 1114.52 2.09854 2.11578 0
M  V30 12058 H 1112.05 1.04421 1.03608 0
M  V30 12059 H 1114.01 0.641211 4.12243 0
M  V30 12060 H 1112.64 -0.066797 3.22731 0
M  V30 12061 H 1111.69 2.34222 2.9974 0
M  V30 12062 H 1113 2.89538 4.06164 0
M  V30 12063 H 1112.16 1.42036 5.8984 0
M  V30 12064 H 1110.9 0.764019 4.81678 0
M  V30 12065 H 1109.9 3.0557 4.57064 0
M  V30 12066 H 1111.13 3.712 5.68672 0
M  V30 12067 H 1109.07 1.57402 6.36837 0
M  V30 12068 H 1108.99 3.24269 6.82924 0
M  V30 12069 H 1110.26 2.23875 7.46659 0
M  V30 12070 N 1114.49 -1.10549 1.12324 0
M  V30 12071 C 1115.74 -1.82124 0.876083 0
M  V30 12072 C 1116.06 -1.85547 -0.599761 0
M  V30 12073 O 1115.33 -1.33269 -1.43584 0
M  V30 12074 H 1113.91 -0.674455 0.321122 0
M  V30 12075 H 1116.57 -1.33766 1.41748 0
M  V30 12076 H 1115.66 -2.85688 1.25653 0
M  V30 12077 N 1115.97 -0.914965 -1.28321 0
M  V30 12078 C 1116.91 -0.394477 -2.29231 0
M  V30 12079 C 1117.91 0.514481 -1.61398 0
M  V30 12080 O 1119.11 0.395591 -1.75599 0
M  V30 12081 H 1115.49 -0.108969 -0.744063 0
M  V30 12082 H 1117.46 -1.25862 -2.70557 0
M  V30 12083 C 1116.21 0.349134 -3.45943 0
M  V30 12084 H 1115.53 -0.341087 -3.98342 0
M  V30 12085 H 1116.97 0.677944 -4.18545 0
M  V30 12086 C 1115.43 1.55747 -2.98738 0
M  V30 12087 O 1115.96 2.65654 -3.01315 0
M  V30 12088 N 1114.17 1.40488 -2.54384 0
M  V30 12089 H 1113.71 0.510716 -2.52487 0
M  V30 12090 H 1113.67 2.21464 -2.23161 0
M  V30 12091 N 1117.44 1.42219 -0.679077 0
M  V30 12092 C 1118.39 2.308 -0.00340316 0
M  V30 12093 C 1119.36 1.462 0.788334 0
M  V30 12094 O 1120.55 1.75023 0.759716 0
M  V30 12095 C 1117.69 3.32084 0.938854 0
M  V30 12096 C 1116.8 4.31772 0.140485 0
M  V30 12097 C 1115.93 5.20128 1.07888 0
M  V30 12098 C 1114.97 6.11493 0.27245 0
M  V30 12099 N 1114.11 6.92388 1.16378 0
M  V30 12100 H 1118.95 2.88024 -0.764587 0
M  V30 12101 H 1116.49 1.41869 -0.38878 0
M  V30 12102 H 1118.44 3.89339 1.49903 0
M  V30 12103 H 1117.07 2.76448 1.66662 0
M  V30 12104 H 1116.13 3.76599 -0.536376 0
M  V30 12105 H 1117.44 4.96432 -0.485433 0
M  V30 12106 H 1116.59 5.82137 1.70884 0
M  V30 12107 H 1115.33 4.55655 1.73868 0
M  V30 12108 H 1114.34 5.48549 -0.370693 0
M  V30 12109 H 1115.56 6.78017 -0.383315 0
M  V30 12110 H 1113.51 6.30538 1.8099 0
M  V30 12111 H 1113.42 7.5367 0.593043 0
M  V30 12112 H 1114.69 7.58879 1.78107 0
M  V30 12113 N 1118.92 0.422693 1.51826 0
M  V30 12114 C 1119.83 -0.40261 2.31119 0
M  V30 12115 C 1120.85 -1.04117 1.39412 0
M  V30 12116 O 1122.02 -1.03973 1.72486 0
M  V30 12117 C 1119.09 -1.49699 3.12716 0
M  V30 12118 C 1118.15 -0.880088 4.20182 0
M  V30 12119 C 1117.38 -1.92232 4.97878 0
M  V30 12120 O 1117.61 -3.14246 4.76031 0
M  V30 12121 O 1116.54 -1.521 5.82365 0
M  V30 12122 H 1120.37 0.244308 3.02716 0
M  V30 12123 H 1117.95 0.185569 1.48243 0
M  V30 12124 H 1119.83 -2.13202 3.63487 0
M  V30 12125 H 1118.51 -2.12826 2.43899 0
M  V30 12126 H 1117.41 -0.207404 3.73525 0
M  V30 12127 H 1118.75 -0.292535 4.9133 0
M  V30 12128 N 1120.4 -1.5685 0.153553 0
M  V30 12129 C 1121.35 -2.18385 -0.800667 0
M  V30 12130 C 1122.34 -1.14272 -1.25053 0
M  V30 12131 O 1123.55 -1.32509 -1.21825 0
M  V30 12132 H 1119.92 -0.699352 -0.276425 0
M  V30 12133 H 1121.89 -2.97287 -0.257535 0
M  V30 12134 C 1120.64 -2.82497 -2.02708 0
M  V30 12135 H 1119.97 -3.62328 -1.68992 0
M  V30 12136 H 1121.41 -3.29047 -2.67403 0
M  V30 12137 C 1119.86 -1.81343 -2.8393 0
M  V30 12138 O 1120.39 -1.28793 -3.80493 0
M  V30 12139 N 1118.6 -1.50499 -2.48593 0
M  V30 12140 H 1118.15 -1.93425 -1.70131 0
M  V30 12141 H 1118.11 -0.830672 -3.03228 0
M  V30 12142 N 1121.88 0.120221 -1.57141 0
M  V30 12143 C 1123.13 0.826791 -1.83976 0
M  V30 12144 C 1123.44 1.81102 -0.739014 0
M  V30 12145 O 1124.65 2.56368 -0.893736 0
M  V30 12146 C 1123.1 1.52108 -3.26176 0
M  V30 12147 C 1122.71 0.577902 -4.44257 0
M  V30 12148 C 1124.45 2.21286 -3.62261 0
M  V30 12149 C 1122.36 1.27535 -5.77485 0
M  V30 12150 H 1121.29 0.312508 -0.686189 0
M  V30 12151 H 1123.94 0.0795343 -1.83328 0
M  V30 12152 H 1122.32 2.31492 -3.2129 0
M  V30 12153 H 1123.5 -0.182629 -4.60438 0
M  V30 12154 H 1121.81 -0.00684348 -4.16399 0
M  V30 12155 H 1124.41 2.74154 -4.59068 0
M  V30 12156 H 1124.75 2.99029 -2.89634 0
M  V30 12157 H 1125.29 1.48791 -3.68925 0
M  V30 12158 H 1122.02 0.539237 -6.53278 0
M  V30 12159 H 1121.54 2.00792 -5.65192 0
M  V30 12160 H 1123.22 1.80888 -6.21199 0
M  V30 12161 N 1123.36 1.52689 0.390367 0
M  V30 12162 C 1124.29 1.80338 1.48325 0
M  V30 12163 C 1125.27 0.655338 1.56969 0
M  V30 12164 O 1126.45 0.902792 1.7194 0
M  V30 12165 C 1123.58 1.97101 2.85952 0
M  V30 12166 C 1122.54 3.12783 2.92148 0
M  V30 12167 C 1121.86 3.14798 4.32211 0
M  V30 12168 C 1123.16 4.5188 2.61919 0
M  V30 12169 H 1124.86 2.71857 1.25437 0
M  V30 12170 H 1122.4 1.30813 0.601995 0
M  V30 12171 H 1124.36 2.15027 3.62411 0
M  V30 12172 H 1123.08 1.02271 3.10174 0
M  V30 12173 H 1121.74 2.94638 2.18137 0
M  V30 12174 H 1121.39 2.17653 4.53471 0
M  V30 12175 H 1121.09 3.92507 4.37278 0
M  V30 12176 H 1122.61 3.34877 5.10578 0
M  V30 12177 H 1124.02 4.70134 3.28096 0
M  V30 12178 H 1122.42 5.31647 2.78337 0
M  V30 12179 H 1123.49 4.58689 1.57266 0
M  V30 12180 N 1124.83 -0.648732 1.43629 0
M  V30 12181 C 1125.74 -1.79046 1.51591 0
M  V30 12182 C 1126.76 -1.69276 0.402697 0
M  V30 12183 O 1127.94 -1.90366 0.657484 0
M  V30 12184 C 1125 -3.15347 1.44073 0
M  V30 12185 C 1124.06 -3.3688 2.66102 0
M  V30 12186 C 1123.3 -4.66679 2.58933 0
M  V30 12187 O 1123.52 -5.46328 1.63956 0
M  V30 12188 O 1122.45 -4.9003 3.49506 0
M  V30 12189 H 1126.28 -1.75283 2.48011 0
M  V30 12190 H 1123.86 -0.807774 1.2568 0
M  V30 12191 H 1125.75 -3.96633 1.42339 0
M  V30 12192 H 1124.42 -3.19691 0.50789 0
M  V30 12193 H 1123.33 -2.55341 2.73407 0
M  V30 12194 H 1124.66 -3.37386 3.58373 0
M  V30 12195 N 1126.31 -1.30234 -0.887518 0
M  V30 12196 C 1127.56 -1.18277 -1.63381 0
M  V30 12197 C 1127.87 0.262079 -1.93836 0
M  V30 12198 O 1129.08 0.503127 -2.66797 0
M  V30 12199 C 1127.54 -2.06944 -2.94452 0
M  V30 12200 C 1127.14 -3.56323 -2.71547 0
M  V30 12201 C 1128.89 -2.03743 -3.7241 0
M  V30 12202 C 1126.8 -4.37054 -3.98419 0
M  V30 12203 H 1125.73 -0.439087 -0.612959 0
M  V30 12204 H 1128.38 -1.54964 -0.982779 0
M  V30 12205 H 1126.76 -1.63138 -3.60835 0
M  V30 12206 H 1127.93 -4.08261 -2.13681 0
M  V30 12207 H 1126.25 -3.61321 -2.06969 0
M  V30 12208 H 1128.84 -2.61312 -4.66497 0
M  V30 12209 H 1129.19 -1.02029 -4.03603 0
M  V30 12210 H 1129.72 -2.45657 -3.12886 0
M  V30 12211 H 1126.46 -5.39453 -3.72385 0
M  V30 12212 H 1125.98 -3.89881 -4.55799 0
M  V30 12213 H 1127.66 -4.48356 -4.66462 0
M  V30 12214 N 1127.79 1.09952 -1.12909 0
M  V30 12215 C 1128.74 2.16436 -0.801514 0
M  V30 12216 C 1129.71 1.64444 0.233976 0
M  V30 12217 O 1130.89 1.90497 0.10743 0
M  V30 12218 C 1128.03 3.4406 -0.267753 0
M  V30 12219 C 1127.15 4.09979 -1.36165 0
M  V30 12220 C 1126.28 5.25341 -0.786803 0
M  V30 12221 C 1125.32 5.83172 -1.85948 0
M  V30 12222 N 1124.46 6.89904 -1.30298 0
M  V30 12223 H 1129.3 2.43799 -1.71365 0
M  V30 12224 H 1126.83 1.19665 -0.855499 0
M  V30 12225 H 1128.79 4.17157 0.0598031 0
M  V30 12226 H 1127.42 3.17031 0.607528 0
M  V30 12227 H 1126.47 3.34801 -1.8059 0
M  V30 12228 H 1127.79 4.48999 -2.17259 0
M  V30 12229 H 1126.94 6.05312 -0.410211 0
M  V30 12230 H 1125.68 4.87669 0.055279 0
M  V30 12231 H 1124.68 5.01867 -2.24521 0
M  V30 12232 H 1125.91 6.22907 -2.70487 0
M  V30 12233 H 1123.85 6.54221 -0.482806 0
M  V30 12234 H 1123.77 7.27662 -2.05046 0
M  V30 12235 H 1125.04 7.73643 -0.953779 0
M  V30 12236 N 1129.27 0.921757 1.27833 0
M  V30 12237 C 1130.55 0.477706 1.89677 0
M  V30 12238 C 1130.93 -1.04392 1.83481 0
M  V30 12239 O 1130.27 -1.89549 1.27606 0
M  V30 12240 C 1130.48 1.01709 3.33851 0
M  V30 12241 C 1131.83 1.074 4.10792 0
M  V30 12242 O 1132.86 0.966295 3.42843 0
M  V30 12243 O 1131.71 1.23909 5.32268 0
M  V30 12244 H 1128.81 0.15271 0.812778 0
M  V30 12245 H 1131.35 1.01306 1.36144 0
M  V30 12246 H 1130.13 2.061 3.32623 0
M  V30 12247 H 1129.75 0.463031 3.94895 0
M  V30 12248 N 1130.75 -1.41857 0.686609 0
M  V30 12249 C 1132 -2.00594 0.21095 0
M  V30 12250 C 1132.31 -1.54974 -1.19341 0
M  V30 12251 O 1133.51 -2.0621 -1.76607 0
M  V30 12252 C 1131.97 -3.58418 0.326261 0
M  V30 12253 C 1131.58 -4.13022 1.73542 0
M  V30 12254 C 1133.32 -4.24404 -0.0900816 0
M  V30 12255 C 1131.23 -5.6325 1.80287 0
M  V30 12256 H 1130.16 -0.75025 0.0751077 0
M  V30 12257 H 1132.81 -1.62442 0.853508 0
M  V30 12258 H 1131.19 -3.9413 -0.384394 0
M  V30 12259 H 1132.37 -3.88747 2.47411 0
M  V30 12260 H 1130.68 -3.5953 2.10065 0
M  V30 12261 H 1133.28 -5.34666 -0.060004 0
M  V30 12262 H 1133.62 -4.00745 -1.12733 0
M  V30 12263 H 1134.15 -3.93695 0.569979 0
M  V30 12264 H 1130.89 -5.91724 2.82034 0
M  V30 12265 H 1130.41 -5.89479 1.1079 0
M  V30 12266 H 1132.09 -6.2787 1.56167 0
M  V30 12267 N 1132.22 -0.430739 -1.51599 0
M  V30 12268 C 1133.47 0.138133 -2.02329 0
M  V30 12269 C 1133.8 1.42934 -1.31466 0
M  V30 12270 O 1133.08 1.89743 -0.427551 0
M  V30 12271 C 1133.36 0.363677 -3.58259 0
M  V30 12272 C 1133.21 -0.94572 -4.39746 0
M  V30 12273 C 1134.53 1.13637 -4.25176 0
M  V30 12274 H 1131.65 0.0487287 -0.735387 0
M  V30 12275 H 1134.29 -0.568444 -1.81297 0
M  V30 12276 H 1132.44 0.965552 -3.7631 0
M  V30 12277 H 1134.12 -1.58107 -4.33359 0
M  V30 12278 H 1132.36 -1.55183 -4.05094 0
M  V30 12279 H 1133.03 -0.742031 -5.4699 0
M  V30 12280 H 1135.51 0.626608 -4.11355 0
M  V30 12281 H 1134.38 1.26294 -5.34173 0
M  V30 12282 H 1134.64 2.16273 -3.85588 0
M  V30 12283 N 1133.7 1.56767 -0.161869 0
M  V30 12284 C 1134.95 1.95769 0.485536 0
M  V30 12285 C 1135.26 1.05006 1.65025 0
M  V30 12286 O 1136.47 1.33649 2.36326 0
M  V30 12287 C 1134.93 3.4807 0.915176 0
M  V30 12288 C 1134.53 4.47443 -0.223416 0
M  V30 12289 C 1136.28 3.95909 1.53153 0
M  V30 12290 C 1134.19 5.90971 0.225325 0
M  V30 12291 H 1133.12 0.730911 0.185161 0
M  V30 12292 H 1135.77 1.81808 -0.248592 0
M  V30 12293 H 1134.15 3.57415 1.705 0
M  V30 12294 H 1135.32 4.49805 -1.00061 0
M  V30 12295 H 1133.64 4.09606 -0.749127 0
M  V30 12296 H 1136.23 5.00592 1.87915 0
M  V30 12297 H 1136.58 3.38307 2.42599 0
M  V30 12298 H 1137.11 3.89542 0.806322 0
M  V30 12299 H 1133.85 6.52426 -0.634124 0
M  V30 12300 H 1133.37 5.91936 0.96808 0
M  V30 12301 H 1135.05 6.43497 0.672373 0
M  V30 12302 N 1135.18 -0.111886 1.57202 0
M  V30 12303 C 1136.43 -0.816794 1.84859 0
M  V30 12304 C 1136.75 -1.80079 0.748113 0
M  V30 12305 O 1136.02 -1.94578 -0.227235 0
M  V30 12306 H 1134.6 -0.304633 0.682061 0
M  V30 12307 H 1137.26 -0.097513 1.94656 0
M  V30 12308 H 1136.36 -1.35768 2.81022 0
M  V30 12309 N 1136.66 -1.52894 -0.382264 0
M  V30 12310 C 1137.59 -1.74413 -1.48703 0
M  V30 12311 C 1138.6 -0.624663 -1.50339 0
M  V30 12312 O 1139.79 -0.900527 -1.54119 0
M  V30 12313 C 1136.89 -1.79387 -2.8753 0
M  V30 12314 C 1136.07 -3.08794 -3.09783 0
M  V30 12315 C 1135.12 -3.05226 -4.2863 0
M  V30 12316 O 1134.15 -3.79073 -4.24609 0
M  V30 12317 N 1135.35 -2.2488 -5.35172 0
M  V30 12318 H 1138.12 -2.69734 -1.30628 0
M  V30 12319 H 1135.68 -1.51465 -0.571842 0
M  V30 12320 H 1137.67 -1.74498 -3.65147 0
M  V30 12321 H 1136.24 -0.914233 -2.98932 0
M  V30 12322 H 1135.46 -3.27118 -2.19971 0
M  V30 12323 H 1136.75 -3.94347 -3.21509 0
M  V30 12324 H 1136.15 -1.64363 -5.41296 0
M  V30 12325 H 1134.7 -2.25825 -6.1143 0
M  V30 12326 N 1138.14 0.641106 -1.43971 0
M  V30 12327 C 1139.05 1.78239 -1.52538 0
M  V30 12328 C 1140.06 1.6906 -0.411668 0
M  V30 12329 O 1141.24 1.90014 -0.66757 0
M  V30 12330 C 1138.3 3.14579 -1.45743 0
M  V30 12331 C 1137.37 3.35464 -2.67885 0
M  V30 12332 C 1136.6 4.65299 -2.61404 0
M  V30 12333 O 1136.82 5.45451 -1.66851 0
M  V30 12334 O 1135.76 4.8817 -3.521 0
M  V30 12335 H 1139.58 1.73965 -2.48937 0
M  V30 12336 H 1137.17 0.801098 -1.26106 0
M  V30 12337 H 1139.05 3.95873 -1.4444 0
M  V30 12338 H 1137.72 3.19417 -0.524837 0
M  V30 12339 H 1136.63 2.53888 -2.74758 0
M  V30 12340 H 1137.96 3.35481 -3.60157 0
M  V30 12341 N 1139.62 1.30703 0.880598 0
M  V30 12342 C 1140.86 1.19955 1.63519 0
M  V30 12343 C 1141.19 -0.244214 1.92658 0
M  V30 12344 O 1140.47 -1.17412 1.55063 0
M  V30 12345 C 1140.75 2.03302 2.97221 0
M  V30 12346 C 1140.61 3.55921 2.75028 0
M  V30 12347 C 1141.92 1.87421 3.98198 0
M  V30 12348 H 1139.04 0.43712 0.593376 0
M  V30 12349 H 1141.69 1.60382 1.01871 0
M  V30 12350 H 1139.84 1.68953 3.49839 0
M  V30 12351 H 1141.51 4.00352 2.29164 0
M  V30 12352 H 1139.75 3.79885 2.09452 0
M  V30 12353 H 1140.42 4.09533 3.70117 0
M  V30 12354 H 1142.9 2.17459 3.54755 0
M  V30 12355 H 1141.77 2.48057 4.89652 0
M  V30 12356 H 1142.03 0.834563 4.34151 0
M  V30 12357 N 1141.09 -1.09351 1.1349 0
M  V30 12358 C 1142.34 -1.80915 0.89177 0
M  V30 12359 C 1142.66 -1.86688 -0.5837 0
M  V30 12360 O 1143.86 -2.54568 -0.943788 0
M  V30 12361 C 1142.32 -3.25009 1.54587 0
M  V30 12362 C 1141.93 -3.27501 3.05691 0
M  V30 12363 C 1143.67 -4.01323 1.38346 0
M  V30 12364 C 1141.58 -4.66123 3.63983 0
M  V30 12365 H 1140.51 -0.677961 0.329978 0
M  V30 12366 H 1143.16 -1.22893 1.3627 0
M  V30 12367 H 1141.54 -3.83098 1.0026 0
M  V30 12368 H 1142.71 -2.79174 3.66604 0
M  V30 12369 H 1141.03 -2.64677 3.21457 0
M  V30 12370 H 1143.63 -5.03739 1.79307 0
M  V30 12371 H 1143.97 -4.15003 0.328404 0
M  V30 12372 H 1144.5 -3.49679 1.89656 0
M  V30 12373 H 1141.24 -4.57646 4.69298 0
M  V30 12374 H 1140.76 -5.14772 3.07848 0
M  V30 12375 H 1142.44 -5.35097 3.63703 0
M  V30 12376 N 1142.57 -0.928524 -1.27343 0
M  V30 12377 C 1143.82 -0.565207 -1.93619 0
M  V30 12378 C 1144.13 0.897988 -1.73769 0
M  V30 12379 O 1145.34 1.37012 -2.34393 0
M  V30 12380 C 1143.8 -0.960052 -3.46859 0
M  V30 12381 C 1143.4 -2.44399 -3.75464 0
M  V30 12382 C 1145.15 -0.668026 -4.19211 0
M  V30 12383 C 1143.05 -2.77819 -5.22083 0
M  V30 12384 H 1141.98 -0.207665 -0.724839 0
M  V30 12385 H 1144.64 -1.12945 -1.44623 0
M  V30 12386 H 1143.02 -0.324454 -3.94669 0
M  V30 12387 H 1144.19 -3.12756 -3.38408 0
M  V30 12388 H 1142.51 -2.70799 -3.16317 0
M  V30 12389 H 1145.1 -0.894207 -5.2717 0
M  V30 12390 H 1145.45 0.394788 -4.14424 0
M  V30 12391 H 1145.98 -1.26276 -3.77226 0
M  V30 12392 H 1142.72 -3.83013 -5.3196 0
M  V30 12393 H 1142.24 -2.14112 -5.60282 0
M  V30 12394 H 1143.92 -2.65607 -5.89968 0
M  V30 12395 N 1144.05 1.41491 -0.694123 0
M  V30 12396 C 1144.96 2.34583 -0.0283414 0
M  V30 12397 C 1145.98 1.5615 0.767662 0
M  V30 12398 O 1147.15 1.88637 0.705556 0
M  V30 12399 C 1144.22 3.34876 0.897726 0
M  V30 12400 C 1143.28 4.29197 0.0940905 0
M  V30 12401 C 1142.51 5.24699 0.976051 0
M  V30 12402 O 1142.73 5.25613 2.21556 0
M  V30 12403 O 1141.67 6.00387 0.426503 0
M  V30 12404 H 1145.49 2.93092 -0.795656 0
M  V30 12405 H 1143.08 1.4232 -0.45445 0
M  V30 12406 H 1144.96 3.96438 1.4288 0
M  V30 12407 H 1143.64 2.78812 1.64456 0
M  V30 12408 H 1142.54 3.70988 -0.481552 0
M  V30 12409 H 1143.88 4.88355 -0.614045 0
M  V30 12410 N 1145.53 0.438773 1.51369 0
M  V30 12411 C 1146.44 -0.378074 2.31534 0
M  V30 12412 C 1147.45 -1.02632 1.40508 0
M  V30 12413 O 1148.63 -1.02138 1.73579 0
M  V30 12414 C 1145.69 -1.46374 3.14286 0
M  V30 12415 C 1144.76 -0.835473 4.21092 0
M  V30 12416 C 1143.99 -1.86941 4.99889 0
M  V30 12417 O 1144.21 -3.0918 4.79337 0
M  V30 12418 O 1143.15 -1.45914 5.83946 0
M  V30 12419 H 1146.97 0.276401 3.0244 0
M  V30 12420 H 1144.56 0.201281 1.48038 0
M  V30 12421 H 1146.44 -2.09335 3.65728 0
M  V30 12422 H 1145.11 -2.10227 2.46143 0
M  V30 12423 H 1144.02 -0.167775 3.73724 0
M  V30 12424 H 1145.35 -0.240406 4.91613 0
M  V30 12425 N 1147.01 -1.56678 0.170181 0
M  V30 12426 C 1148.25 -1.9714 -0.475767 0
M  V30 12427 C 1148.58 -1.05611 -1.62972 0
M  V30 12428 O 1147.86 -0.103017 -1.94227 0
M  V30 12429 C 1148.14 -3.47072 -0.959828 0
M  V30 12430 C 1148 -4.4938 0.194225 0
M  V30 12431 C 1149.31 -4.00071 -1.83387 0
M  V30 12432 H 1146.43 -0.716776 -0.171466 0
M  V30 12433 H 1149.08 -1.88266 0.256086 0
M  V30 12434 H 1147.23 -3.54766 -1.58346 0
M  V30 12435 H 1148.9 -4.53748 0.83128 0
M  V30 12436 H 1147.14 -4.25393 0.849893 0
M  V30 12437 H 1147.81 -5.51685 -0.186575 0
M  V30 12438 H 1150.29 -3.95002 -1.30815 0
M  V30 12439 H 1149.16 -5.05398 -2.14159 0
M  V30 12440 H 1149.42 -3.43819 -2.77923 0
M  V30 12441 N 1148.48 0.103547 -1.57259 0
M  V30 12442 C 1149.43 1.12621 -2.01458 0
M  V30 12443 C 1150.4 1.40282 -0.889391 0
M  V30 12444 O 1151.59 1.51887 -1.15477 0
M  V30 12445 C 1148.73 2.44352 -2.43692 0
M  V30 12446 C 1147.84 2.23495 -3.69695 0
M  V30 12447 C 1146.97 3.48565 -4.00844 0
M  V30 12448 C 1146.01 3.22932 -5.19982 0
M  V30 12449 N 1145.15 4.40246 -5.46926 0
M  V30 12450 H 1149.99 0.742315 -2.88606 0
M  V30 12451 H 1147.53 0.355016 -1.42752 0
M  V30 12452 H 1149.48 3.2122 -2.66221 0
M  V30 12453 H 1148.11 2.80605 -1.59565 0
M  V30 12454 H 1147.17 1.3747 -3.54692 0
M  V30 12455 H 1148.48 2.0054 -4.56711 0
M  V30 12456 H 1147.63 4.33844 -4.24104 0
M  V30 12457 H 1146.37 3.74565 -3.12333 0
M  V30 12458 H 1145.38 2.36045 -4.96551 0
M  V30 12459 H 1146.6 2.98286 -6.10084 0
M  V30 12460 H 1144.55 4.66338 -4.61373 0
M  V30 12461 H 1144.46 4.20452 -6.28296 0
M  V30 12462 H 1145.73 5.26614 -5.74716 0
M  V30 12463 N 1149.96 1.53094 0.37415 0
M  V30 12464 C 1150.91 1.78927 1.45787 0
M  V30 12465 C 1151.88 0.633187 1.53558 0
M  V30 12466 O 1153.06 0.874472 1.69581 0
M  V30 12467 C 1150.2 1.97726 2.8284 0
M  V30 12468 C 1149.32 3.25436 2.84104 0
M  V30 12469 C 1148.45 3.3447 4.12678 0
M  V30 12470 C 1147.49 4.56246 4.08051 0
M  V30 12471 N 1146.63 4.6248 5.28258 0
M  V30 12472 H 1151.47 2.71404 1.2306 0
M  V30 12473 H 1149 1.34453 0.596716 0
M  V30 12474 H 1150.96 2.06611 3.62447 0
M  V30 12475 H 1149.59 1.08593 3.03986 0
M  V30 12476 H 1148.64 3.25548 1.96781 0
M  V30 12477 H 1149.96 4.15112 2.76556 0
M  V30 12478 H 1149.11 3.4262 5.00696 0
M  V30 12479 H 1147.85 2.42795 4.22968 0
M  V30 12480 H 1146.85 4.48206 3.1842 0
M  V30 12481 H 1148.08 5.49254 3.99371 0
M  V30 12482 H 1146.03 3.73703 5.3915 0
M  V30 12483 H 1145.94 5.46049 5.22845 0
M  V30 12484 H 1147.21 4.74903 6.18132 0
M  V30 12485 N 1151.44 -0.633461 1.44309 0
M  V30 12486 C 1152.69 -1.39513 1.47187 0
M  V30 12487 C 1153.02 -1.93926 0.103186 0
M  V30 12488 O 1152.29 -1.73512 -0.878853 0
M  V30 12489 C 1152.58 -2.56213 2.53036 0
M  V30 12490 C 1152.43 -2.07164 3.99253 0
M  V30 12491 C 1153.75 -3.58403 2.55412 0
M  V30 12492 H 1150.87 -0.505936 0.535908 0
M  V30 12493 H 1153.51 -0.716445 1.75975 0
M  V30 12494 H 1151.66 -3.14111 2.28619 0
M  V30 12495 H 1153.33 -1.54115 4.34795 0
M  V30 12496 H 1151.57 -1.38367 4.11141 0
M  V30 12497 H 1152.25 -2.91172 4.6896 0
M  V30 12498 H 1154.72 -3.103 2.77224 0
M  V30 12499 H 1153.6 -4.37581 3.31382 0
M  V30 12500 H 1153.86 -4.12316 1.59523 0
M  V30 12501 N 1152.92 -1.31168 -0.873655 0
M  V30 12502 C 1154.17 -1.20003 -1.62118 0
M  V30 12503 C 1154.48 0.241505 -1.94103 0
M  V30 12504 O 1155.69 0.474801 -2.67316 0
M  V30 12505 C 1154.14 -2.10055 -2.92241 0
M  V30 12506 C 1153.75 -3.59183 -2.67752 0
M  V30 12507 C 1155.49 -2.07681 -3.70228 0
M  V30 12508 C 1153.4 -4.41255 -3.93761 0
M  V30 12509 H 1152.33 -0.445564 -0.608267 0
M  V30 12510 H 1154.98 -1.55997 -0.966287 0
M  V30 12511 H 1153.36 -1.66956 -3.59085 0
M  V30 12512 H 1154.54 -4.10504 -2.09339 0
M  V30 12513 H 1152.85 -3.63496 -2.03125 0
M  V30 12514 H 1155.45 -2.66246 -4.637 0
M  V30 12515 H 1155.79 -1.06304 -4.02499 0
M  V30 12516 H 1156.33 -2.48961 -3.10263 0
M  V30 12517 H 1153.07 -5.43372 -3.66643 0
M  V30 12518 H 1152.59 -3.94694 -4.51638 0
M  V30 12519 H 1154.26 -4.53278 -4.6168 0
M  V30 12520 N 1154.4 1.08748 -1.14068 0
M  V30 12521 C 1155.34 2.15573 -0.824425 0
M  V30 12522 C 1156.31 1.64683 0.216522 0
M  V30 12523 O 1157.5 1.90601 0.0872193 0
M  V30 12524 C 1154.64 3.43756 -0.30423 0
M  V30 12525 C 1153.75 4.08512 -1.40506 0
M  V30 12526 C 1152.89 5.24477 -0.842479 0
M  V30 12527 C 1151.93 5.81167 -1.92123 0
M  V30 12528 N 1151.06 6.88483 -1.37608 0
M  V30 12529 H 1155.9 2.41968 -1.73941 0
M  V30 12530 H 1153.44 1.18751 -0.868143 0
M  V30 12531 H 1155.4 4.17197 0.0155546 0
M  V30 12532 H 1154.03 3.17658 0.573868 0
M  V30 12533 H 1153.08 3.32866 -1.84131 0
M  V30 12534 H 1154.39 4.46669 -2.2201 0
M  V30 12535 H 1153.55 6.04842 -0.474389 0
M  V30 12536 H 1152.28 4.877 0.00355212 0
M  V30 12537 H 1151.29 4.99458 -2.29831 0
M  V30 12538 H 1152.51 6.20003 -2.77079 0
M  V30 12539 H 1150.46 6.53672 -0.552168 0
M  V30 12540 H 1150.38 7.25446 -2.12752 0
M  V30 12541 H 1151.65 7.72588 -1.03578 0
M  V30 12542 N 1155.87 0.935264 1.26849 0
M  V30 12543 C 1156.82 0.438896 2.26588 0
M  V30 12544 C 1157.79 -0.498267 1.5845 0
M  V30 12545 O 1158.98 -0.415771 1.86215 0
M  V30 12546 C 1156.12 -0.295293 3.43834 0
M  V30 12547 C 1155.23 0.676857 4.26665 0
M  V30 12548 C 1154.36 -0.0779349 5.31143 0
M  V30 12549 C 1153.4 0.886425 6.05648 0
M  V30 12550 N 1152.54 0.163771 7.01909 0
M  V30 12551 H 1157.38 1.29439 2.6842 0
M  V30 12552 H 1154.92 0.649523 1.31983 0
M  V30 12553 H 1156.88 -0.737354 4.10632 0
M  V30 12554 H 1155.51 -1.11497 3.02933 0
M  V30 12555 H 1154.56 1.23744 3.5971 0
M  V30 12556 H 1155.87 1.41355 4.78351 0
M  V30 12557 H 1155.02 -0.579557 6.03926 0
M  V30 12558 H 1153.76 -0.84755 4.80279 0
M  V30 12559 H 1152.77 1.39923 5.31697 0
M  V30 12560 H 1153.99 1.65595 6.58601 0
M  V30 12561 H 1151.94 -0.58746 6.53364 0
M  V30 12562 H 1151.86 0.839902 7.5132 0
M  V30 12563 H 1153.12 -0.316951 7.78855 0
M  V30 12564 N 1157.35 -1.41121 0.701616 0
M  V30 12565 C 1158.3 -2.30765 0.040121 0
M  V30 12566 C 1159.27 -1.47436 -0.764975 0
M  V30 12567 O 1160.45 -1.76209 -0.731775 0
M  V30 12568 C 1157.59 -3.33535 -0.885903 0
M  V30 12569 C 1156.71 -4.3194 -0.0717765 0
M  V30 12570 C 1155.84 -5.21779 -0.995996 0
M  V30 12571 C 1154.88 -6.11849 -0.175133 0
M  V30 12572 N 1154.02 -6.94151 -1.05348 0
M  V30 12573 H 1158.86 -2.86772 0.810312 0
M  V30 12574 H 1156.4 -1.41233 0.411301 0
M  V30 12575 H 1158.35 -3.91675 -1.4369 0
M  V30 12576 H 1156.98 -2.79065 -1.62243 0
M  V30 12577 H 1156.04 -3.75698 0.596221 0
M  V30 12578 H 1157.35 -4.95597 0.56435 0
M  V30 12579 H 1156.5 -5.84782 -1.61601 0
M  V30 12580 H 1155.24 -4.58363 -1.66597 0
M  V30 12581 H 1154.25 -5.4789 0.457916 0
M  V30 12582 H 1155.47 -6.77322 0.491133 0
M  V30 12583 H 1153.42 -6.33338 -1.70936 0
M  V30 12584 H 1153.33 -7.54518 -0.473065 0
M  V30 12585 H 1154.6 -7.61617 -1.66012 0
M  V30 12586 N 1158.83 -0.446794 -1.51134 0
M  V30 12587 C 1160.08 0.116666 -2.02464 0
M  V30 12588 C 1160.41 1.41532 -1.32975 0
M  V30 12589 O 1159.68 1.89278 -0.447651 0
M  V30 12590 C 1159.97 0.325659 -3.58624 0
M  V30 12591 C 1159.82 -0.992307 -4.38718 0
M  V30 12592 C 1161.14 1.09121 -4.26357 0
M  V30 12593 H 1158.26 0.0409262 -0.735863 0
M  V30 12594 H 1160.9 -0.587641 -1.80684 0
M  V30 12595 H 1159.05 0.925585 -3.77313 0
M  V30 12596 H 1160.72 -1.62694 -4.31658 0
M  V30 12597 H 1158.97 -1.5947 -4.03425 0
M  V30 12598 H 1159.64 -0.800005 -5.46172 0
M  V30 12599 H 1162.11 0.582944 -4.11996 0
M  V30 12600 H 1160.99 1.20621 -5.35483 0
M  V30 12601 H 1161.25 2.12171 -3.87861 0
M  V30 12602 N 1160.31 1.56586 -0.178487 0
M  V30 12603 C 1161.22 2.21903 0.761321 0
M  V30 12604 C 1162.23 1.21289 1.2476 0
M  V30 12605 O 1163.41 1.53974 1.29823 0
M  V30 12606 C 1160.48 2.85259 1.97048 0
M  V30 12607 C 1159.54 4.01095 1.53039 0
M  V30 12608 C 1158.77 4.61421 2.68191 0
M  V30 12609 O 1158.99 4.20644 3.85247 0
M  V30 12610 O 1157.93 5.51171 2.41855 0
M  V30 12611 H 1161.75 3.02788 0.235141 0
M  V30 12612 H 1159.34 1.49316 0.0500442 0
M  V30 12613 H 1161.22 3.25404 2.6775 0
M  V30 12614 H 1159.89 2.07366 2.48558 0
M  V30 12615 H 1158.8 3.65606 0.792661 0
M  V30 12616 H 1160.13 4.80603 1.06213 0
M  V30 12617 N 1161.79 -0.095206 1.57312 0
M  V30 12618 C 1162.73 -1.11551 2.02052 0
M  V30 12619 C 1163.7 -1.39808 0.896818 0
M  V30 12620 O 1164.89 -1.51273 1.1628 0
M  V30 12621 C 1162.03 -2.43056 2.44985 0
M  V30 12622 C 1161.14 -2.21531 3.70875 0
M  V30 12623 C 1160.28 -3.46434 4.02687 0
M  V30 12624 C 1159.32 -3.2017 5.21687 0
M  V30 12625 N 1158.45 -4.37339 5.49253 0
M  V30 12626 H 1163.29 -0.727 2.88996 0
M  V30 12627 H 1160.83 -0.347441 1.42938 0
M  V30 12628 H 1162.79 -3.19803 2.67921 0
M  V30 12629 H 1161.42 -2.79754 1.61051 0
M  V30 12630 H 1160.47 -1.35587 3.55416 0
M  V30 12631 H 1161.78 -1.98116 4.57768 0
M  V30 12632 H 1160.94 -4.31589 4.26399 0
M  V30 12633 H 1159.67 -3.72904 3.14315 0
M  V30 12634 H 1158.68 -2.33409 4.97796 0
M  V30 12635 H 1159.9 -2.95047 6.11657 0
M  V30 12636 H 1157.85 -4.63885 4.6384 0
M  V30 12637 H 1157.77 -4.17114 6.30517 0
M  V30 12638 H 1159.04 -5.23559 5.775 0
M  V30 12639 N 1163.26 -1.53291 -0.366026 0
M  V30 12640 C 1164.51 -1.69117 -1.10653 0
M  V30 12641 C 1164.83 -0.445327 -1.89847 0
M  V30 12642 O 1164.1 0.540616 -1.88293 0
M  V30 12643 H 1162.68 -0.623446 -0.41149 0
M  V30 12644 H 1165.35 -1.90479 -0.412749 0
M  V30 12645 H 1164.44 -2.55205 -1.79658 0
M  V30 12646 N 1164.74 0.6258 -1.44643 0
M  V30 12647 C 1165.99 1.38125 -1.46984 0
M  V30 12648 C 1166.3 1.95299 -0.108429 0
M  V30 12649 O 1167.51 2.71498 -0.00940005 0
M  V30 12650 C 1165.97 2.50108 -2.58793 0
M  V30 12651 C 1165.57 1.99424 -4.01166 0
M  V30 12652 C 1167.32 3.27269 -2.70361 0
M  V30 12653 C 1165.23 3.08781 -5.04389 0
M  V30 12654 H 1164.16 0.519083 -0.546872 0
M  V30 12655 H 1166.81 0.67268 -1.70726 0
M  V30 12656 H 1165.19 3.23565 -2.28302 0
M  V30 12657 H 1166.36 1.32797 -4.4125 0
M  V30 12658 H 1164.68 1.35063 -3.93887 0
M  V30 12659 H 1167.27 4.08802 -3.44652 0
M  V30 12660 H 1167.62 3.77097 -1.76362 0
M  V30 12661 H 1168.15 2.60905 -3.00289 0
M  V30 12662 H 1164.89 2.63891 -6.00035 0
M  V30 12663 H 1164.41 3.74033 -4.68892 0
M  V30 12664 H 1166.09 3.73469 -5.28328 0
M  V30 12665 N 1166.22 1.31629 0.866686 0
M  V30 12666 C 1167.17 1.19556 1.97421 0
M  V30 12667 C 1168.14 0.0805578 1.65905 0
M  V30 12668 O 1169.32 0.253997 1.89102 0
M  V30 12669 C 1166.46 0.912234 3.32825 0
M  V30 12670 C 1165.58 2.11088 3.76916 0
M  V30 12671 C 1164.71 1.76406 5.01053 0
M  V30 12672 C 1163.75 2.9266 5.37602 0
M  V30 12673 N 1162.89 2.58152 6.52918 0
M  V30 12674 H 1167.73 2.14294 2.0708 0
M  V30 12675 H 1165.26 1.06595 1.0137 0
M  V30 12676 H 1167.22 0.72851 4.1079 0
M  V30 12677 H 1165.85 0.00167404 3.228 0
M  V30 12678 H 1164.9 2.40527 2.94705 0
M  V30 12679 H 1166.22 2.98089 3.99931 0
M  V30 12680 H 1165.37 1.54515 5.86694 0
M  V30 12681 H 1164.11 0.866018 4.79949 0
M  V30 12682 H 1163.11 3.15196 4.50479 0
M  V30 12683 H 1164.34 3.83179 5.6067 0
M  V30 12684 H 1162.28 1.70874 6.33355 0
M  V30 12685 H 1162.2 3.38682 6.75892 0
M  V30 12686 H 1163.47 2.39662 7.41743 0
M  V30 12687 N 1167.7 -1.08142 1.14644 0
M  V30 12688 C 1168.61 -2.18675 0.849607 0
M  V30 12689 C 1169.63 -1.73158 -0.170983 0
M  V30 12690 O 1170.8 -2.014 0.0011579 0
M  V30 12691 C 1167.87 -3.45084 0.334305 0
M  V30 12692 C 1166.93 -4.05213 1.41779 0
M  V30 12693 C 1166.16 -5.25588 0.926981 0
M  V30 12694 O 1166.38 -5.69934 -0.230522 0
M  V30 12695 O 1165.32 -5.77183 1.70715 0
M  V30 12696 H 1169.14 -2.46542 1.77343 0
M  V30 12697 H 1166.73 -1.17328 0.924911 0
M  V30 12698 H 1168.61 -4.21367 0.0529893 0
M  V30 12699 H 1167.29 -3.18788 -0.561755 0
M  V30 12700 H 1166.19 -3.30507 1.7526 0
M  V30 12701 H 1167.53 -4.35764 2.28847 0
M  V30 12702 N 1169.18 -0.941978 -1.26351 0
M  V30 12703 C 1170.13 -0.443011 -2.28342 0
M  V30 12704 C 1171.12 0.48013 -1.62453 0
M  V30 12705 O 1172.33 0.358255 -1.76399 0
M  V30 12706 H 1168.7 -0.124728 -0.741584 0
M  V30 12707 H 1170.67 -1.31573 -2.67827 0
M  V30 12708 C 1169.42 0.275675 -3.46605 0
M  V30 12709 H 1168.74 -0.425504 -3.97529 0
M  V30 12710 H 1170.18 0.589012 -4.19889 0
M  V30 12711 C 1168.64 1.49376 -3.01974 0
M  V30 12712 O 1169.17 2.59203 -3.06883 0
M  V30 12713 N 1167.38 1.35061 -2.57307 0
M  V30 12714 H 1166.93 0.457045 -2.53513 0
M  V30 12715 H 1166.88 2.16681 -2.27809 0
M  V30 12716 N 1170.66 1.40747 -0.709091 0
M  V30 12717 C 1171.61 2.27982 -0.0289269 0
M  V30 12718 C 1172.59 1.42917 0.739164 0
M  V30 12719 O 1173.78 1.66067 0.612433 0
M  V30 12720 C 1170.91 3.31378 0.896856 0
M  V30 12721 C 1170 4.23918 0.124296 0
M  V30 12722 N 1170.39 4.97925 -0.889043 0
M  V30 12723 C 1168.69 4.44562 0.357808 0
M  V30 12724 C 1169.39 5.65754 -1.35268 0
M  V30 12725 N 1168.36 5.3938 -0.676047 0
M  V30 12726 H 1172.16 2.82641 -0.805676 0
M  V30 12727 H 1169.68 1.5312 -0.541105 0
M  V30 12728 H 1171.68 3.92712 1.39939 0
M  V30 12729 H 1170.34 2.78279 1.67305 0
M  V30 12730 H 1171.35 5.02095 -1.2697 0
M  V30 12731 H 1168.02 4.02451 1.11084 0
M  V30 12732 H 1169.41 6.35058 -2.19432 0
M  V30 12733 N 1172.13 0.454803 1.50895 0
M  V30 12734 C 1173.36 -0.103936 2.06639 0
M  V30 12735 C 1173.78 -1.34943 1.32044 0
M  V30 12736 O 1173.13 -1.78393 0.384972 0
M  V30 12737 C 1173.18 -0.408546 3.59184 0
M  V30 12738 O 1172.91 0.787535 4.30963 0
M  V30 12739 C 1174.41 -1.01605 4.31499 0
M  V30 12740 H 1171.63 -0.000171839 0.671 0
M  V30 12741 H 1174.17 0.638907 1.94263 0
M  V30 12742 H 1172.33 -1.1013 3.71416 0
M  V30 12743 H 1172.74 0.52229 5.21893 0
M  V30 12744 H 1174.21 -1.17906 5.39261 0
M  V30 12745 H 1174.69 -2.00182 3.90927 0
M  V30 12746 H 1175.3 -0.362155 4.23755 0
M  V30 12747 N 1173.61 -1.56489 0.186789 0
M  V30 12748 C 1174.52 -2.22304 -0.749543 0
M  V30 12749 C 1175.54 -1.21949 -1.24115 0
M  V30 12750 O 1176.71 -1.5466 -1.29005 0
M  V30 12751 C 1173.78 -2.863 -1.95533 0
M  V30 12752 C 1172.84 -4.01901 -1.5091 0
M  V30 12753 C 1172.07 -4.62837 -2.6574 0
M  V30 12754 O 1172.3 -4.22681 -3.8301 0
M  V30 12755 O 1171.23 -5.52446 -2.38929 0
M  V30 12756 H 1175.06 -3.02909 -0.21908 0
M  V30 12757 H 1172.64 -1.49341 -0.0421249 0
M  V30 12758 H 1174.52 -3.2682 -2.6602 0
M  V30 12759 H 1173.2 -2.08681 -2.47455 0
M  V30 12760 H 1172.1 -3.66021 -0.773261 0
M  V30 12761 H 1173.44 -4.8116 -1.03663 0
M  V30 12762 N 1175.09 0.086862 -1.5736 0
M  V30 12763 C 1176.31 0.806017 -1.91097 0
M  V30 12764 C 1176.74 1.71082 -0.78183 0
M  V30 12765 O 1176.1 1.79335 0.266175 0
M  V30 12766 C 1176.15 1.5884 -3.23732 0
M  V30 12767 O 1175.25 2.69798 -3.11902 0
M  V30 12768 H 1174.59 0.220899 -0.626179 0
M  V30 12769 H 1177.12 0.059619 -2.04513 0
M  V30 12770 H 1177.13 1.97088 -3.5724 0
M  V30 12771 H 1175.81 0.924426 -4.05496 0
M  V30 12772 H 1174.38 2.34519 -2.89923 0
M  V30 12773 N 1176.57 1.53483 0.357892 0
M  V30 12774 C 1177.51 1.80463 1.43881 0
M  V30 12775 C 1178.48 0.649438 1.52877 0
M  V30 12776 O 1179.67 0.892409 1.68644 0
M  V30 12777 C 1176.81 2.00714 2.80727 0
M  V30 12778 C 1175.92 3.28431 2.80637 0
M  V30 12779 C 1175.06 3.38828 4.09107 0
M  V30 12780 C 1174.1 4.60549 4.03189 0
M  V30 12781 N 1173.23 4.68057 5.23323 0
M  V30 12782 H 1178.07 2.72694 1.20174 0
M  V30 12783 H 1175.61 1.35079 0.582422 0
M  V30 12784 H 1177.57 2.10444 3.60235 0
M  V30 12785 H 1176.2 1.11811 3.02817 0
M  V30 12786 H 1175.25 3.27617 1.93317 0
M  V30 12787 H 1176.56 4.18022 2.72138 0
M  V30 12788 H 1175.72 3.47911 4.97034 0
M  V30 12789 H 1174.46 2.47267 4.20369 0
M  V30 12790 H 1173.46 4.51558 3.13649 0
M  V30 12791 H 1174.69 5.53459 3.93523 0
M  V30 12792 H 1172.63 3.794 5.35156 0
M  V30 12793 H 1172.55 5.51563 5.17024 0
M  V30 12794 H 1173.82 4.81433 6.1306 0
M  V30 12795 N 1178.05 -0.61812 1.44973 0
M  V30 12796 C 1179.32 -1.37705 1.38913 0
M  V30 12797 C 1179.7 -2.1103 0.054385 0
M  V30 12798 O 1179.05 -2.07197 -0.963409 0
M  V30 12799 C 1179.26 -2.33265 2.59593 0
M  V30 12800 C 1180.61 -2.96197 3.04224 0
M  V30 12801 O 1181.63 -2.43589 2.59891 0
M  V30 12802 O 1180.49 -3.91666 3.8113 0
M  V30 12803 H 1177.59 -0.61694 0.55074 0
M  V30 12804 H 1180.13 -0.642088 1.57084 0
M  V30 12805 H 1178.9 -1.78271 3.48332 0
M  V30 12806 H 1178.53 -3.14158 2.43702 0
M  V30 12807 N 1179.52 -1.32087 -0.859693 0
M  V30 12808 C 1180.47 -1.20601 -1.96784 0
M  V30 12809 C 1181.44 -0.089355 -1.65859 0
M  V30 12810 O 1182.63 -0.264022 -1.88964 0
M  V30 12811 C 1179.77 -0.929872 -3.32336 0
M  V30 12812 C 1178.88 -2.13084 -3.75791 0
M  V30 12813 C 1178.01 -1.79061 -5.00111 0
M  V30 12814 C 1177.05 -2.95507 -5.36043 0
M  V30 12815 N 1176.19 -2.61611 -6.5154 0
M  V30 12816 H 1181.03 -2.1539 -2.0594 0
M  V30 12817 H 1178.57 -1.07131 -1.00803 0
M  V30 12818 H 1180.52 -0.750285 -4.10398 0
M  V30 12819 H 1179.15 -0.0187929 -3.22795 0
M  V30 12820 H 1178.21 -2.42086 -2.93425 0
M  V30 12821 H 1179.52 -3.00205 -3.98344 0
M  V30 12822 H 1178.67 -1.57625 -5.85866 0
M  V30 12823 H 1177.41 -0.891459 -4.79483 0
M  V30 12824 H 1176.42 -3.17581 -4.48801 0
M  V30 12825 H 1177.64 -3.86147 -5.5863 0
M  V30 12826 H 1175.59 -1.74231 -6.32439 0
M  V30 12827 H 1175.5 -3.42262 -6.74087 0
M  V30 12828 H 1176.77 -2.43592 -7.40461 0
M  V30 12829 N 1181 1.07532 -1.15215 0
M  V30 12830 C 1182.25 1.8036 -0.927263 0
M  V30 12831 C 1182.58 1.86414 0.544371 0
M  V30 12832 O 1181.86 1.34653 1.40353 0
M  V30 12833 C 1182.14 3.25512 -1.53992 0
M  V30 12834 C 1181.99 3.27614 -3.08203 0
M  V30 12835 C 1183.31 4.22731 -1.22418 0
M  V30 12836 H 1180.43 0.654775 -0.338289 0
M  V30 12837 H 1183.07 1.25842 -1.42351 0
M  V30 12838 H 1181.22 3.72068 -1.11791 0
M  V30 12839 H 1182.89 2.89315 -3.59297 0
M  V30 12840 H 1181.14 2.66627 -3.42188 0
M  V30 12841 H 1181.81 4.29956 -3.46182 0
M  V30 12842 H 1184.28 3.84557 -1.58919 0
M  V30 12843 H 1183.16 5.22589 -1.67906 0
M  V30 12844 H 1183.42 4.41875 -0.14091 0
M  V30 12845 N 1182.48 0.948665 1.2585 0
M  V30 12846 C 1183.73 0.595938 1.92695 0
M  V30 12847 C 1184.04 -0.870229 1.75175 0
M  V30 12848 O 1185.25 -1.33266 2.36543 0
M  V30 12849 C 1183.7 1.01511 3.45288 0
M  V30 12850 C 1183.31 2.50341 3.71528 0
M  V30 12851 C 1185.06 0.734635 4.18095 0
M  V30 12852 C 1182.96 2.8609 5.17597 0
M  V30 12853 H 1181.89 0.219171 0.721443 0
M  V30 12854 H 1184.54 1.15231 1.42807 0
M  V30 12855 H 1182.93 0.387201 3.94102 0
M  V30 12856 H 1184.1 3.18101 3.3339 0
M  V30 12857 H 1182.42 2.75797 3.11969 0
M  V30 12858 H 1185.01 0.977962 5.25681 0
M  V30 12859 H 1185.36 -0.328807 4.14999 0
M  V30 12860 H 1185.89 1.32262 3.75169 0
M  V30 12861 H 1182.63 3.91427 5.25799 0
M  V30 12862 H 1182.15 2.22999 5.56805 0
M  V30 12863 H 1183.83 2.74959 5.85668 0
M  V30 12864 N 1183.96 -1.40369 0.716545 0
M  V30 12865 C 1185.21 -2.00473 0.255959 0
M  V30 12866 C 1185.53 -1.57104 -1.15514 0
M  V30 12867 O 1184.8 -0.810925 -1.78328 0
M  V30 12868 H 1183.38 -0.741357 0.0916427 0
M  V30 12869 H 1186.04 -1.71692 0.922389 0
M  V30 12870 H 1185.14 -3.10752 0.289806 0
M  V30 12871 N 1185.44 -0.462799 -1.50652 0
M  V30 12872 C 1186.37 0.371837 -2.26164 0
M  V30 12873 C 1187.38 0.96432 -1.31167 0
M  V30 12874 O 1188.57 0.854134 -1.56738 0
M  V30 12875 C 1185.67 1.53469 -3.0216 0
M  V30 12876 C 1184.84 1.0565 -4.24449 0
M  V30 12877 C 1183.9 2.09243 -4.82808 0
M  V30 12878 O 1182.93 1.67641 -5.43953 0
M  V30 12879 N 1184.13 3.41976 -4.69076 0
M  V30 12880 H 1186.9 -0.275476 -2.98431 0
M  V30 12881 H 1184.46 -0.293109 -1.59225 0
M  V30 12882 H 1186.45 2.22446 -3.38083 0
M  V30 12883 H 1185.02 2.08685 -2.32743 0
M  V30 12884 H 1184.24 0.192895 -3.93728 0
M  V30 12885 H 1185.53 0.714796 -5.03754 0
M  V30 12886 H 1184.92 3.78491 -4.20429 0
M  V30 12887 H 1183.48 4.06775 -5.09291 0
M  V30 12888 N 1186.91 1.56388 -0.195085 0
M  V30 12889 C 1187.82 2.22698 0.737743 0
M  V30 12890 C 1188.84 1.22605 1.23466 0
M  V30 12891 O 1190.02 1.55342 1.28183 0
M  V30 12892 C 1187.08 2.87333 1.94011 0
M  V30 12893 C 1186.14 4.02696 1.48776 0
M  V30 12894 C 1185.38 4.64239 2.63282 0
M  V30 12895 O 1185.6 4.24706 3.80763 0
M  V30 12896 O 1184.53 5.53705 2.35996 0
M  V30 12897 H 1188.36 3.03021 0.203013 0
M  V30 12898 H 1185.94 1.49361 0.0342044 0
M  V30 12899 H 1187.83 3.28226 2.64284 0
M  V30 12900 H 1186.5 2.0999 2.46345 0
M  V30 12901 H 1185.41 3.66426 0.753839 0
M  V30 12902 H 1186.74 4.81703 1.01109 0
M  V30 12903 N 1188.39 -0.0785156 1.57404 0
M  V30 12904 C 1189.64 -0.777722 1.86103 0
M  V30 12905 C 1189.95 -1.79079 0.786771 0
M  V30 12906 O 1191.16 -2.53908 0.961393 0
M  V30 12907 C 1189.62 -1.43407 3.30095 0
M  V30 12908 C 1189.22 -0.459912 4.45633 0
M  V30 12909 C 1190.97 -2.11603 3.68 0
M  V30 12910 C 1188.88 -1.12179 5.80663 0
M  V30 12911 H 1187.81 -0.294205 0.694233 0
M  V30 12912 H 1190.46 -0.0309003 1.83474 0
M  V30 12913 H 1188.84 -2.22892 3.27315 0
M  V30 12914 H 1190.01 0.304642 4.59792 0
M  V30 12915 H 1188.33 0.117242 4.16235 0
M  V30 12916 H 1190.92 -2.61887 4.66175 0
M  V30 12917 H 1191.27 -2.91244 2.9746 0
M  V30 12918 H 1191.8 -1.38958 3.72741 0
M  V30 12919 H 1188.54 -0.365842 6.54478 0
M  V30 12920 H 1188.06 -1.85737 5.70317 0
M  V30 12921 H 1189.74 -1.64355 6.25777 0
M  V30 12922 N 1189.87 -1.5367 -0.349747 0
M  V30 12923 C 1191.12 -1.69835 -1.08807 0
M  V30 12924 C 1191.43 -0.46497 -1.89993 0
M  V30 12925 O 1192.64 -0.507452 -2.66716 0
M  V30 12926 C 1191.09 -3.00294 -1.98372 0
M  V30 12927 C 1190.7 -4.30949 -1.22422 0
M  V30 12928 C 1192.45 -3.25826 -2.72099 0
M  V30 12929 C 1190.35 -5.52486 -2.1098 0
M  V30 12930 H 1189.28 -0.63284 -0.409915 0
M  V30 12931 H 1191.93 -1.80171 -0.347968 0
M  V30 12932 H 1190.32 -2.838 -2.76176 0
M  V30 12933 H 1191.49 -4.58126 -0.495707 0
M  V30 12934 H 1189.81 -4.11983 -0.604896 0
M  V30 12935 H 1192.4 -4.13817 -3.38615 0
M  V30 12936 H 1192.75 -2.42566 -3.3833 0
M  V30 12937 H 1193.28 -3.43067 -2.0137 0
M  V30 12938 H 1190.02 -6.38271 -1.49301 0
M  V30 12939 H 1189.54 -5.29566 -2.81638 0
M  V30 12940 H 1191.22 -5.87889 -2.70176 0
M  V30 12941 N 1191.35 0.610423 -1.45298 0
M  V30 12942 C 1192.59 1.37154 -1.49388 0
M  V30 12943 C 1192.93 1.93737 -0.134025 0
M  V30 12944 O 1192.2 1.74888 0.851138 0
M  V30 12945 C 1192.49 2.52155 -2.5708 0
M  V30 12946 C 1192.34 2.00786 -4.02498 0
M  V30 12947 C 1193.66 3.54294 -2.61082 0
M  V30 12948 H 1190.78 0.497346 -0.54389 0
M  V30 12949 H 1193.42 0.688358 -1.77092 0
M  V30 12950 H 1191.57 3.10434 -2.33587 0
M  V30 12951 H 1193.24 1.47178 -4.37191 0
M  V30 12952 H 1191.48 1.31809 -4.1329 0
M  V30 12953 H 1192.15 2.83674 -4.73533 0
M  V30 12954 H 1194.63 3.05851 -2.82125 0
M  V30 12955 H 1193.51 4.32254 -3.38301 0
M  V30 12956 H 1193.77 4.09726 -1.66063 0
M  V30 12957 N 1192.83 1.32541 0.852676 0
M  V30 12958 C 1193.74 1.23646 1.99371 0
M  V30 12959 C 1194.75 0.149673 1.73355 0
M  V30 12960 O 1195.93 0.370716 1.97959 0
M  V30 12961 C 1192.99 0.961873 3.3309 0
M  V30 12962 C 1192.05 2.1373 3.72315 0
M  V30 12963 C 1191.29 1.87572 4.99652 0
M  V30 12964 O 1191.51 0.819247 5.64486 0
M  V30 12965 O 1190.44 2.73732 5.36054 0
M  V30 12966 H 1194.27 2.19573 2.09813 0
M  V30 12967 H 1191.86 1.12451 0.983627 0
M  V30 12968 H 1193.74 0.825316 4.13239 0
M  V30 12969 H 1192.41 0.0327745 3.23683 0
M  V30 12970 H 1191.32 2.32933 2.92733 0
M  V30 12971 H 1192.65 3.04925 3.86369 0
M  V30 12972 N 1194.3 -1.0692 1.15784 0
M  V30 12973 C 1195.21 -2.17762 0.872753 0
M  V30 12974 C 1196.23 -1.73329 -0.152608 0
M  V30 12975 O 1197.41 -2.01387 0.022519 0
M  V30 12976 C 1194.47 -3.4471 0.370887 0
M  V30 12977 C 1193.53 -4.03686 1.46069 0
M  V30 12978 C 1192.77 -5.24575 0.982675 0
M  V30 12979 O 1192.99 -5.70146 -0.17006 0
M  V30 12980 O 1191.92 -5.7534 1.76828 0
M  V30 12981 H 1195.75 -2.44648 1.79948 0
M  V30 12982 H 1193.33 -1.1634 0.937303 0
M  V30 12983 H 1195.22 -4.21287 0.0976779 0
M  V30 12984 H 1193.89 -3.19366 -0.527912 0
M  V30 12985 H 1192.8 -3.28629 1.78756 0
M  V30 12986 H 1194.13 -4.33312 2.33456 0
M  V30 12987 N 1195.78 -0.955326 -1.25345 0
M  V30 12988 C 1197.03 -0.611388 -1.93365 0
M  V30 12989 C 1197.36 0.84953 -1.74633 0
M  V30 12990 O 1196.64 1.60962 -1.09185 0
M  V30 12991 C 1196.92 -0.971732 -3.46741 0
M  V30 12992 C 1196.77 -2.48843 -3.74696 0
M  V30 12993 C 1198.09 -0.497295 -4.37281 0
M  V30 12994 H 1195.21 -0.223591 -0.702265 0
M  V30 12995 H 1197.85 -1.1921 -1.47949 0
M  V30 12996 H 1196 -0.477568 -3.85554 0
M  V30 12997 H 1197.67 -3.05641 -3.45516 0
M  V30 12998 H 1195.92 -2.92582 -3.20278 0
M  V30 12999 H 1196.59 -2.69107 -4.8196 0
M  V30 13000 H 1199.06 -0.921196 -4.05775 0
M  V30 13001 H 1197.94 -0.778113 -5.43357 0
M  V30 13002 H 1198.2 0.602743 -4.37972 0
M  V30 13003 N 1197.26 1.39987 -0.723979 0
M  V30 13004 C 1198.21 2.30672 -0.0768286 0
M  V30 13005 C 1199.18 1.48634 0.741422 0
M  V30 13006 O 1200.36 1.77351 0.703649 0
M  V30 13007 C 1197.5 3.34902 0.832729 0
M  V30 13008 C 1196.62 4.32 0.00304942 0
M  V30 13009 C 1195.75 5.23298 0.91286 0
M  V30 13010 C 1194.79 6.12051 0.0777706 0
M  V30 13011 N 1193.93 6.9574 0.942912 0
M  V30 13012 H 1198.77 2.85446 -0.855832 0
M  V30 13013 H 1196.3 1.40561 -0.433718 0
M  V30 13014 H 1198.26 3.93911 1.37441 0
M  V30 13015 H 1196.89 2.81611 1.57782 0
M  V30 13016 H 1195.94 3.74702 -0.655916 0
M  V30 13017 H 1197.26 4.94637 -0.643124 0
M  V30 13018 H 1196.41 5.87279 1.52277 0
M  V30 13019 H 1195.15 4.60956 1.59284 0
M  V30 13020 H 1194.15 5.47092 -0.545022 0
M  V30 13021 H 1195.38 6.76455 -0.598827 0
M  V30 13022 H 1193.33 6.35977 1.60838 0
M  V30 13023 H 1193.24 7.55176 0.352968 0
M  V30 13024 H 1194.51 7.64162 1.53874 0
M  V30 13025 N 1198.74 0.470782 1.50404 0
M  V30 13026 C 1199.65 -0.328877 2.32283 0
M  V30 13027 C 1200.67 -0.99629 1.42654 0
M  V30 13028 O 1201.84 -0.984331 1.75707 0
M  V30 13029 C 1198.91 -1.39675 3.1732 0
M  V30 13030 C 1197.97 -0.745965 4.22769 0
M  V30 13031 C 1197.2 -1.76295 5.03742 0
M  V30 13032 O 1197.42 -2.98943 4.85788 0
M  V30 13033 O 1196.36 -1.33495 5.86909 0
M  V30 13034 H 1200.18 0.340491 3.01785 0
M  V30 13035 H 1197.77 0.232637 1.47578 0
M  V30 13036 H 1199.65 -2.0153 3.70086 0
M  V30 13037 H 1198.33 -2.04959 2.50546 0
M  V30 13038 H 1197.23 -0.0884647 3.73995 0
M  V30 13039 H 1198.57 -0.136074 4.92012 0
M  V30 13040 N 1200.22 -1.56282 0.203376 0
M  V30 13041 C 1201.13 -2.23086 -0.725922 0
M  V30 13042 C 1202.14 -1.23258 -1.22814 0
M  V30 13043 O 1203.32 -1.5602 -1.27357 0
M  V30 13044 C 1200.38 -2.88358 -1.92485 0
M  V30 13045 C 1199.45 -4.03479 -1.46639 0
M  V30 13046 C 1198.68 -4.65629 -2.60816 0
M  V30 13047 O 1198.9 -4.2672 -3.78506 0
M  V30 13048 O 1197.84 -5.54949 -2.33056 0
M  V30 13049 H 1201.66 -3.03124 -0.18694 0
M  V30 13050 H 1199.25 -1.49377 -0.0262829 0
M  V30 13051 H 1201.13 -3.29623 -2.62539 0
M  V30 13052 H 1199.8 -2.11294 -2.45228 0
M  V30 13053 H 1198.71 -3.66821 -0.734396 0
M  V30 13054 H 1200.04 -4.82232 -0.985535 0
M  V30 13055 N 1201.7 0.070167 -1.57444 0
M  V30 13056 C 1202.94 0.767842 -1.86513 0
M  V30 13057 C 1203.26 1.78659 -0.796257 0
M  V30 13058 O 1204.46 2.53395 -0.974845 0
M  V30 13059 C 1202.92 1.41654 -3.30851 0
M  V30 13060 C 1202.53 0.436273 -4.45871 0
M  V30 13061 C 1204.27 2.09649 -3.69117 0
M  V30 13062 C 1202.18 1.09098 -5.8125 0
M  V30 13063 H 1201.11 0.290519 -0.695784 0
M  V30 13064 H 1203.76 0.0211697 -1.83488 0
M  V30 13065 H 1202.14 2.21153 -3.28493 0
M  V30 13066 H 1203.32 -0.329022 -4.59624 0
M  V30 13067 H 1201.63 -0.139314 -4.16167 0
M  V30 13068 H 1204.23 2.59411 -4.67558 0
M  V30 13069 H 1204.57 2.89663 -2.99 0
M  V30 13070 H 1205.1 1.36979 -3.73472 0
M  V30 13071 H 1201.84 0.331128 -6.54663 0
M  V30 13072 H 1201.36 1.8271 -5.71294 0
M  V30 13073 H 1203.04 1.61034 -6.2664 0
M  V30 13074 N 1203.17 1.53854 0.341593 0
M  V30 13075 C 1204.08 1.84975 1.44297 0
M  V30 13076 C 1205.1 0.740057 1.57477 0
M  V30 13077 O 1206.28 1.03256 1.72917 0
M  V30 13078 C 1203.34 2.05464 2.79259 0
M  V30 13079 C 1202.4 3.29318 2.75405 0
M  V30 13080 C 1201.63 3.4882 4.03931 0
M  V30 13081 O 1201.86 2.7212 5.01305 0
M  V30 13082 O 1200.79 4.42253 4.08284 0
M  V30 13083 H 1204.62 2.78592 1.20913 0
M  V30 13084 H 1202.2 1.39532 0.533953 0
M  V30 13085 H 1204.08 2.20374 3.59184 0
M  V30 13086 H 1202.76 1.15035 3.0257 0
M  V30 13087 H 1201.67 3.1981 1.94094 0
M  V30 13088 H 1203 4.19746 2.57049 0
M  V30 13089 N 1204.65 -0.602709 1.4562 0
M  V30 13090 C 1205.6 -1.71312 1.54664 0
M  V30 13091 C 1206.57 -1.61403 0.392197 0
M  V30 13092 O 1207.75 -1.80911 0.606297 0
M  V30 13093 C 1204.89 -3.09629 1.52393 0
M  V30 13094 C 1204.01 -3.30308 2.78425 0
M  V30 13095 C 1203.14 -4.5876 2.67793 0
M  V30 13096 C 1202.18 -4.72713 3.88855 0
M  V30 13097 N 1201.32 -5.92469 3.76729 0
M  V30 13098 H 1206.16 -1.62918 2.49523 0
M  V30 13099 H 1203.69 -0.794324 1.2381 0
M  V30 13100 H 1205.65 -3.89661 1.49064 0
M  V30 13101 H 1204.28 -3.16968 0.610816 0
M  V30 13102 H 1203.33 -2.44018 2.9182 0
M  V30 13103 H 1204.65 -3.36491 3.68205 0
M  V30 13104 H 1203.8 -5.46993 2.62457 0
M  V30 13105 H 1202.54 -4.54983 1.75619 0
M  V30 13106 H 1201.54 -3.82903 3.94545 0
M  V30 13107 H 1202.77 -4.78284 4.82101 0
M  V30 13108 H 1200.72 -5.89728 2.87328 0
M  V30 13109 H 1200.63 -5.99833 4.60148 0
M  V30 13110 H 1201.9 -6.83187 3.75334 0
M  V30 13111 N 1206.13 -1.32992 -0.845635 0
M  V30 13112 C 1207.06 -1.18513 -1.96182 0
M  V30 13113 C 1208.07 -0.11781 -1.62373 0
M  V30 13114 O 1209.26 -0.36761 -1.74674 0
M  V30 13115 C 1206.36 -0.793812 -3.29472 0
M  V30 13116 C 1205.54 -1.95134 -3.91461 0
M  V30 13117 C 1204.6 -1.54209 -5.03096 0
M  V30 13118 O 1203.62 -2.25545 -5.22607 0
M  V30 13119 N 1204.82 -0.443235 -5.78805 0
M  V30 13120 H 1207.59 -2.14663 -2.09141 0
M  V30 13121 H 1205.15 -1.25648 -1.02099 0
M  V30 13122 H 1207.14 -0.502263 -4.01571 0
M  V30 13123 H 1205.71 0.0768031 -3.12506 0
M  V30 13124 H 1204.93 -2.40889 -3.12035 0
M  V30 13125 H 1206.22 -2.72604 -4.2961 0
M  V30 13126 H 1205.62 0.150298 -5.655 0
M  V30 13127 H 1204.17 -0.211331 -6.51457 0
M  V30 13128 N 1207.61 1.06304 -1.1635 0
M  V30 13129 C 1208.85 1.79366 -0.94634 0
M  V30 13130 C 1209.19 1.86981 0.524569 0
M  V30 13131 O 1208.46 1.36134 1.38917 0
M  V30 13132 C 1208.74 3.23861 -1.57436 0
M  V30 13133 C 1208.6 3.24327 -3.1166 0
M  V30 13134 C 1209.92 4.21409 -1.26895 0
M  V30 13135 H 1207.04 0.65115 -0.345215 0
M  V30 13136 H 1209.68 1.24325 -1.43678 0
M  V30 13137 H 1207.83 3.70862 -1.15731 0
M  V30 13138 H 1209.5 2.85488 -3.62346 0
M  V30 13139 H 1207.74 2.62983 -3.44997 0
M  V30 13140 H 1208.41 4.2626 -3.50723 0
M  V30 13141 H 1210.89 3.8285 -1.62989 0
M  V30 13142 H 1209.77 5.20778 -1.73439 0
M  V30 13143 H 1210.03 4.41701 -0.187768 0
M  V30 13144 N 1209.09 0.96196 1.24836 0
M  V30 13145 C 1210 0.494876 2.29321 0
M  V30 13146 C 1211.01 -0.441363 1.68309 0
M  V30 13147 O 1212.19 -0.315814 1.98908 0
M  V30 13148 C 1209.25 -0.212944 3.46045 0
M  V30 13149 C 1208.31 0.762411 4.22476 0
M  V30 13150 C 1207.55 0.0882756 5.33627 0
M  V30 13151 O 1207.77 -1.12459 5.59204 0
M  V30 13152 O 1206.7 0.777529 5.96857 0
M  V30 13153 H 1210.53 1.36333 2.7138 0
M  V30 13154 H 1208.11 0.728738 1.30421 0
M  V30 13155 H 1210 -0.610805 4.1695 0
M  V30 13156 H 1208.67 -1.05645 3.05975 0
M  V30 13157 H 1207.58 1.21062 3.5397 0
M  V30 13158 H 1208.91 1.57416 4.66349 0
M  V30 13159 N 1210.56 -1.39601 0.731392 0
M  V30 13160 C 1211.47 -2.34425 0.090527 0
M  V30 13161 C 1212.49 -1.58131 -0.725992 0
M  V30 13162 O 1213.67 -1.90441 -0.655294 0
M  V30 13163 C 1210.73 -3.37138 -0.808624 0
M  V30 13164 C 1209.79 -4.29295 0.0197365 0
M  V30 13165 C 1209.02 -5.27102 -0.836593 0
M  V30 13166 O 1209.25 -5.31302 -2.07543 0
M  V30 13167 O 1208.18 -6.01307 -0.267172 0
M  V30 13168 H 1212.01 -2.9088 0.873084 0
M  V30 13169 H 1209.59 -1.41066 0.492024 0
M  V30 13170 H 1211.47 -4.00087 -1.32319 0
M  V30 13171 H 1210.15 -2.83074 -1.57006 0
M  V30 13172 H 1209.06 -3.69581 0.579744 0
M  V30 13173 H 1210.39 -4.86555 0.743308 0
M  V30 13174 N 1212.04 -0.478751 -1.50152 0
M  V30 13175 C 1213.29 0.0734397 -2.01967 0
M  V30 13176 C 1213.61 1.39523 -1.36229 0
M  V30 13177 O 1212.88 1.89141 -0.510149 0
M  V30 13178 H 1211.46 0.0301305 -0.746392 0
M  V30 13179 H 1214.12 -0.630921 -1.84406 0
M  V30 13180 H 1213.22 0.21937 -3.11328 0
M  V30 13181 N 1213.52 1.56172 -0.211661 0
M  V30 13182 C 1214.77 1.97214 0.423008 0
M  V30 13183 C 1215.08 1.10203 1.616 0
M  V30 13184 O 1216.29 1.411 2.31955 0
M  V30 13185 C 1214.74 3.50805 0.803977 0
M  V30 13186 C 1214.35 4.46505 -0.365654 0
M  V30 13187 C 1216.1 4.00582 1.4048 0
M  V30 13188 C 1214 5.91388 0.0371986 0
M  V30 13189 H 1212.93 0.736432 0.161814 0
M  V30 13190 H 1215.58 1.80925 -0.306307 0
M  V30 13191 H 1213.97 3.62659 1.59043 0
M  V30 13192 H 1215.14 4.46394 -1.14321 0
M  V30 13193 H 1213.46 4.07015 -0.879061 0
M  V30 13194 H 1216.05 5.06317 1.71894 0
M  V30 13195 H 1216.4 3.45853 2.31713 0
M  V30 13196 H 1216.93 3.9191 0.681984 0
M  V30 13197 H 1213.67 6.50078 -0.841367 0
M  V30 13198 H 1213.19 5.94716 0.77927 0
M  V30 13199 H 1214.87 6.4531 0.467309 0
M  V30 13200 N 1215 -0.0618163 1.57479 0
M  V30 13201 C 1215.95 -1.0724 2.04373 0
M  V30 13202 C 1216.92 -1.37875 0.926271 0
M  V30 13203 O 1218.1 -1.48772 1.19463 0
M  V30 13204 C 1215.24 -2.37805 2.50085 0
M  V30 13205 C 1214.35 -2.13614 3.7549 0
M  V30 13206 C 1213.49 -3.37814 4.09945 0
M  V30 13207 C 1212.53 -3.09032 5.28361 0
M  V30 13208 N 1211.66 -4.25591 5.58406 0
M  V30 13209 H 1216.5 -0.665536 2.90473 0
M  V30 13210 H 1214.04 -0.317043 1.43643 0
M  V30 13211 H 1216 -3.14048 2.74644 0
M  V30 13212 H 1214.63 -2.76275 1.66948 0
M  V30 13213 H 1213.68 -1.28017 3.58212 0
M  V30 13214 H 1214.99 -1.88361 4.61867 0
M  V30 13215 H 1214.15 -4.22447 4.35458 0
M  V30 13216 H 1212.89 -3.66153 3.22154 0
M  V30 13217 H 1211.89 -2.22797 5.02635 0
M  V30 13218 H 1213.12 -2.82006 6.17778 0
M  V30 13219 H 1211.06 -4.53941 4.73575 0
M  V30 13220 H 1210.98 -4.03646 6.39223 0
M  V30 13221 H 1212.25 -5.11191 5.88476 0
M  V30 13222 N 1216.48 -1.54033 -0.333429 0
M  V30 13223 C 1217.39 -1.85737 -1.43314 0
M  V30 13224 C 1218.4 -0.748398 -1.57083 0
M  V30 13225 O 1219.58 -1.04171 -1.72367 0
M  V30 13226 C 1216.64 -2.06942 -2.78165 0
M  V30 13227 C 1215.7 -3.30774 -2.73655 0
M  V30 13228 C 1214.94 -3.50957 -4.02075 0
M  V30 13229 O 1215.16 -2.74774 -4.99855 0
M  V30 13230 O 1214.09 -4.44412 -4.05933 0
M  V30 13231 H 1217.92 -2.7923 -1.19434 0
M  V30 13232 H 1215.51 -1.39814 -0.526546 0
M  V30 13233 H 1217.39 -2.22276 -3.58011 0
M  V30 13234 H 1216.06 -1.16638 -3.01956 0
M  V30 13235 H 1214.97 -3.20835 -1.92395 0
M  V30 13236 H 1216.3 -4.21103 -2.54819 0
M  V30 13237 N 1217.95 0.594978 -1.45938 0
M  V30 13238 C 1218.9 1.726 -1.55923 0
M  V30 13239 C 1219.9 1.63893 -0.428411 0
M  V30 13240 O 1221.1 1.69535 -0.604815 0
M  V30 13241 H 1217.48 0.570447 -0.489994 0
M  V30 13242 H 1219.45 1.61308 -2.51043 0
M  V30 13243 C 1218.2 3.10988 -1.55505 0
M  V30 13244 H 1217.52 3.18353 -2.4185 0
M  V30 13245 H 1218.96 3.8992 -1.66548 0
M  V30 13246 C 1217.42 3.35721 -0.281573 0
M  V30 13247 O 1217.95 3.96676 0.633336 0
M  V30 13248 N 1216.16 2.90083 -0.173314 0
M  V30 13249 H 1215.7 2.4066 -0.91872 0
M  V30 13250 H 1215.66 3.07005 0.677903 0
M  V30 13251 N 1219.43 1.33438 0.838571 0
M  V30 13252 C 1220.71 1.1551 1.5785 0
M  V30 13253 C 1221.09 -0.278405 2.09256 0
M  V30 13254 O 1220.44 -1.27748 1.89453 0
M  V30 13255 C 1220.65 2.19647 2.71212 0
M  V30 13256 C 1222 2.53818 3.40384 0
M  V30 13257 O 1223.02 2.18317 2.81454 0
M  V30 13258 O 1221.88 3.14741 4.46766 0
M  V30 13259 H 1218.97 0.446785 0.695925 0
M  V30 13260 H 1221.52 1.45021 0.8813 0
M  V30 13261 H 1220.29 3.15936 2.30869 0
M  V30 13262 H 1219.91 1.91224 3.48596 0
M  V30 13263 N 1220.91 -1.05686 1.16912 0
M  V30 13264 C 1222.14 -1.82282 0.978811 0
M  V30 13265 C 1222.55 -1.8278 -0.472972 0
M  V30 13266 O 1221.91 -1.25143 -1.32836 0
M  V30 13267 C 1221.96 -3.28623 1.50629 0
M  V30 13268 O 1221.68 -3.28269 2.90122 0
M  V30 13269 C 1223.18 -4.21927 1.35987 0
M  V30 13270 H 1220.4 -0.574558 0.346588 0
M  V30 13271 H 1222.95 -1.33301 1.55084 0
M  V30 13272 H 1221.1 -3.74893 0.976404 0
M  V30 13273 H 1221.52 -4.19824 3.14401 0
M  V30 13274 H 1222.99 -5.2261 1.77716 0
M  V30 13275 H 1223.47 -4.38131 0.30626 0
M  V30 13276 H 1224.07 -3.81508 1.87968 0
M  V30 13277 N 1222.39 -0.968567 -1.24324 0
M  V30 13278 C 1223.3 -0.50703 -2.29055 0
M  V30 13279 C 1224.31 0.432431 -1.68541 0
M  V30 13280 O 1225.49 0.30526 -1.99073 0
M  V30 13281 C 1222.56 0.194589 -3.46153 0
M  V30 13282 C 1221.62 -0.784805 -4.22066 0
M  V30 13283 C 1220.85 -0.116574 -5.33573 0
M  V30 13284 O 1221.07 1.09492 -5.59792 0
M  V30 13285 O 1220.01 -0.809171 -5.96436 0
M  V30 13286 H 1223.83 -1.3777 -2.70653 0
M  V30 13287 H 1221.42 -0.735645 -1.30033 0
M  V30 13288 H 1223.3 0.588684 -4.17268 0
M  V30 13289 H 1221.97 1.04021 -3.06531 0
M  V30 13290 H 1220.88 -1.22938 -3.53323 0
M  V30 13291 H 1222.21 -1.59887 -4.65507 0
M  V30 13292 N 1223.87 1.39211 -0.738786 0
M  V30 13293 C 1225.09 2.05256 -0.297421 0
M  V30 13294 C 1225.52 1.55341 1.06069 0
M  V30 13295 O 1224.87 0.698823 1.67291 0
M  V30 13296 C 1224.92 3.59239 -0.312969 0
M  V30 13297 O 1224.03 4.06448 0.698112 0
M  V30 13298 H 1223.37 0.650245 -0.134454 0
M  V30 13299 H 1225.9 1.78173 -1.00577 0
M  V30 13300 H 1225.91 4.07691 -0.158675 0
M  V30 13301 H 1224.58 3.94931 -1.30394 0
M  V30 13302 H 1223.16 3.69401 0.509643 0
M  V30 13303 N 1225.34 0.486708 1.49896 0
M  V30 13304 C 1226.29 -0.299294 2.28851 0
M  V30 13305 C 1227.26 -0.973251 1.346 0
M  V30 13306 O 1228.45 -0.982678 1.63548 0
M  V30 13307 C 1225.59 -1.36624 3.16904 0
M  V30 13308 C 1224.7 -0.705492 4.262 0
M  V30 13309 C 1223.83 -1.75165 5.01488 0
M  V30 13310 C 1222.87 -1.072 6.0264 0
M  V30 13311 N 1222.01 -2.06172 6.71147 0
M  V30 13312 H 1226.85 0.380272 2.95564 0
M  V30 13313 H 1224.39 0.199377 1.45743 0
M  V30 13314 H 1226.35 -1.99666 3.66319 0
M  V30 13315 H 1224.98 -2.01476 2.52205 0
M  V30 13316 H 1224.03 0.0378757 3.80381 0
M  V30 13317 H 1225.34 -0.169774 4.98511 0
M  V30 13318 H 1224.49 -2.45749 5.547 0
M  V30 13319 H 1223.23 -2.3212 4.28919 0
M  V30 13320 H 1222.24 -0.351868 5.48673 0
M  V30 13321 H 1223.46 -0.509139 6.77189 0
M  V30 13322 H 1221.41 -2.62115 6.01358 0
M  V30 13323 H 1221.33 -1.57627 7.39385 0
M  V30 13324 H 1222.59 -2.76088 7.28969 0
M  V30 13325 N 1226.82 -1.56058 0.219941 0
M  V30 13326 C 1228.1 -1.90087 -0.46112 0
M  V30 13327 C 1228.48 -1.13705 -1.77861 0
M  V30 13328 O 1227.83 -0.245868 -2.27173 0
M  V30 13329 C 1228.04 -3.42786 -0.655644 0
M  V30 13330 C 1229.39 -4.13517 -0.963803 0
M  V30 13331 O 1230.41 -3.48376 -0.742488 0
M  V30 13332 O 1229.27 -5.28692 -1.38374 0
M  V30 13333 H 1226.36 -0.790311 -0.243595 0
M  V30 13334 H 1228.91 -1.67665 0.262005 0
M  V30 13335 H 1227.68 -3.90341 0.273738 0
M  V30 13336 H 1227.3 -3.70982 -1.43032 0
M  V30 13337 N 1228.3 0.053464 -1.57509 0
M  V30 13338 C 1229.25 1.06155 -2.04939 0
M  V30 13339 C 1230.22 1.37382 -0.93357 0
M  V30 13340 O 1231.4 1.48137 -1.2025 0
M  V30 13341 C 1228.54 2.36476 -2.51343 0
M  V30 13342 C 1227.66 2.1162 -3.76618 0
M  V30 13343 C 1226.79 3.35636 -4.11731 0
M  V30 13344 C 1225.83 3.06226 -5.29993 0
M  V30 13345 N 1224.97 4.22623 -5.60655 0
M  V30 13346 H 1229.81 0.650122 -2.90822 0
M  V30 13347 H 1227.34 0.309421 -1.43809 0
M  V30 13348 H 1229.3 3.12588 -2.76306 0
M  V30 13349 H 1227.93 2.75386 -1.68411 0
M  V30 13350 H 1226.98 1.26116 -3.58886 0
M  V30 13351 H 1228.3 1.85909 -4.6286 0
M  V30 13352 H 1227.45 4.20132 -4.37692 0
M  V30 13353 H 1226.19 3.64439 -3.24092 0
M  V30 13354 H 1225.19 2.20128 -5.03809 0
M  V30 13355 H 1226.42 2.78726 -6.19265 0
M  V30 13356 H 1224.37 4.51424 -4.75976 0
M  V30 13357 H 1224.28 4.0025 -6.41355 0
M  V30 13358 H 1225.55 5.08063 -5.91178 0
M  V30 13359 N 1229.78 1.54207 0.325255 0
M  V30 13360 C 1231.03 1.72587 1.06497 0
M  V30 13361 C 1231.36 0.497228 1.87727 0
M  V30 13362 O 1230.63 -0.505804 1.87808 0
M  V30 13363 C 1230.92 3.00046 1.99109 0
M  V30 13364 C 1230.77 4.33158 1.21221 0
M  V30 13365 C 1232.09 3.23251 2.98658 0
M  V30 13366 H 1229.21 0.627974 0.38577 0
M  V30 13367 H 1231.85 1.869 0.34179 0
M  V30 13368 H 1230 2.87973 2.60775 0
M  V30 13369 H 1231.67 4.57111 0.620289 0
M  V30 13370 H 1229.91 4.30739 0.514462 0
M  V30 13371 H 1230.59 5.18558 1.89214 0
M  V30 13372 H 1233.06 3.34774 2.47114 0
M  V30 13373 H 1231.94 4.13796 3.60645 0
M  V30 13374 H 1232.2 2.40401 3.71026 0
M  V30 13375 N 1231.26 -0.58723 1.46251 0
M  V30 13376 C 1232.51 -1.34179 1.50595 0
M  V30 13377 C 1232.82 -1.94943 0.160171 0
M  V30 13378 O 1234.03 -2.71378 0.0813797 0
M  V30 13379 C 1232.48 -2.43159 2.65333 0
M  V30 13380 C 1232.09 -1.88718 4.06312 0
M  V30 13381 C 1233.83 -3.19986 2.78943 0
M  V30 13382 C 1231.74 -2.953 5.12398 0
M  V30 13383 H 1230.67 -0.504401 0.560442 0
M  V30 13384 H 1233.32 -0.627179 1.72449 0
M  V30 13385 H 1231.7 -3.17398 2.368 0
M  V30 13386 H 1232.88 -1.21051 4.44616 0
M  V30 13387 H 1231.19 -1.24572 3.97329 0
M  V30 13388 H 1233.79 -3.9952 3.5537 0
M  V30 13389 H 1234.13 -3.72288 1.86298 0
M  V30 13390 H 1234.67 -2.52852 3.07101 0
M  V30 13391 H 1231.4 -2.4789 6.0682 0
M  V30 13392 H 1230.92 -3.61469 4.78644 0
M  V30 13393 H 1232.6 -3.5933 5.38044 0
M  V30 13394 N 1232.74 -1.33881 -0.831482 0
M  V30 13395 C 1233.98 -1.25507 -1.58406 0
M  V30 13396 C 1234.3 0.177137 -1.94194 0
M  V30 13397 O 1233.57 1.10769 -1.61576 0
M  V30 13398 H 1232.15 -0.461551 -0.587349 0
M  V30 13399 H 1234.82 -1.6769 -0.99328 0
M  V30 13400 H 1233.91 -1.85391 -2.51071 0
M  V30 13401 N 1234.21 1.05064 -1.1747 0
M  V30 13402 C 1235.15 2.12842 -0.850344 0
M  V30 13403 C 1236.16 1.62128 0.147796 0
M  V30 13404 O 1237.35 1.78327 -0.0786774 0
M  V30 13405 C 1234.45 3.37995 -0.247486 0
M  V30 13406 C 1233.62 4.17981 -1.28881 0
M  V30 13407 C 1232.68 5.21476 -0.703476 0
M  V30 13408 O 1231.71 5.52327 -1.37561 0
M  V30 13409 N 1232.91 5.78309 0.50387 0
M  V30 13410 H 1235.67 2.41264 -1.77797 0
M  V30 13411 H 1233.23 1.21172 -1.07373 0
M  V30 13412 H 1235.23 4.04394 0.157424 0
M  V30 13413 H 1233.8 3.07097 0.583952 0
M  V30 13414 H 1233.02 3.47054 -1.86942 0
M  V30 13415 H 1234.3 4.6822 -1.99116 0
M  V30 13416 H 1233.7 5.5553 1.06787 0
M  V30 13417 H 1232.26 6.46223 0.850828 0
M  V30 13418 N 1235.69 0.975146 1.23809 0
M  V30 13419 C 1236.6 0.51917 2.28783 0
M  V30 13420 C 1237.62 -0.423487 1.68768 0
M  V30 13421 O 1238.79 -0.294699 1.99232 0
M  V30 13422 C 1235.86 -0.176229 3.46252 0
M  V30 13423 C 1234.92 0.807177 4.21643 0
M  V30 13424 C 1234.15 0.144869 5.33503 0
M  V30 13425 O 1234.38 -1.06522 5.60365 0
M  V30 13426 O 1233.31 0.84079 5.95999 0
M  V30 13427 H 1237.14 1.39204 2.69919 0
M  V30 13428 H 1234.72 0.74253 1.29641 0
M  V30 13429 H 1236.6 -0.566547 4.17574 0
M  V30 13430 H 1235.28 -1.02394 3.07078 0
M  V30 13431 H 1234.18 1.2481 3.52666 0
M  V30 13432 H 1235.52 1.62354 4.64653 0
M  V30 13433 N 1237.17 -1.38817 0.746158 0
M  V30 13434 C 1238.42 -2.00577 0.299458 0
M  V30 13435 C 1238.75 -1.59087 -1.11378 0
M  V30 13436 O 1238.02 -0.824932 -1.7614 0
M  V30 13437 C 1238.31 -3.57713 0.413932 0
M  V30 13438 C 1238.16 -4.09189 1.86774 0
M  V30 13439 C 1239.48 -4.39659 -0.197082 0
M  V30 13440 H 1236.6 -0.728702 0.110285 0
M  V30 13441 H 1239.24 -1.64866 0.944408 0
M  V30 13442 H 1237.39 -3.88265 -0.135155 0
M  V30 13443 H 1239.06 -3.89311 2.47456 0
M  V30 13444 H 1237.3 -3.62333 2.38532 0
M  V30 13445 H 1237.98 -5.18305 1.89904 0
M  V30 13446 H 1240.45 -4.15216 0.271121 0
M  V30 13447 H 1239.33 -5.48832 -0.0867011 0
M  V30 13448 H 1239.59 -4.23028 -1.2845 0
M  V30 13449 N 1238.65 -0.49465 -1.49636 0
M  V30 13450 C 1239.9 0.0539277 -2.01628 0
M  V30 13451 C 1240.21 1.38634 -1.37986 0
M  V30 13452 O 1241.42 2.02123 -1.81269 0
M  V30 13453 C 1239.87 0.146582 -3.59601 0
M  V30 13454 C 1239.48 -1.1788 -4.32213 0
M  V30 13455 C 1241.22 0.645862 -4.19558 0
M  V30 13456 C 1239.13 -1.04866 -5.82028 0
M  V30 13457 H 1238.06 0.0239278 -0.75362 0
M  V30 13458 H 1240.71 -0.633112 -1.72232 0
M  V30 13459 H 1239.09 0.897931 -3.85685 0
M  V30 13460 H 1240.27 -1.94295 -4.17835 0
M  V30 13461 H 1238.58 -1.61102 -3.83973 0
M  V30 13462 H 1241.18 0.76064 -5.29262 0
M  V30 13463 H 1241.52 1.64313 -3.82501 0
M  V30 13464 H 1242.06 -0.04877 -3.9777 0
M  V30 13465 H 1238.79 -2.02 -6.23599 0
M  V30 13466 H 1238.31 -0.325293 -5.98917 0
M  V30 13467 H 1239.99 -0.724799 -6.42927 0
M  V30 13468 N 1240.13 1.55939 -0.228214 0
M  V30 13469 C 1241.07 2.20581 0.679157 0
M  V30 13470 C 1242.04 1.16355 1.18536 0
M  V30 13471 O 1243.23 1.44735 1.24324 0
M  V30 13472 C 1240.37 2.89477 1.87875 0
M  V30 13473 C 1239.48 4.08313 1.41083 0
M  V30 13474 C 1238.62 4.64974 2.56851 0
M  V30 13475 C 1237.65 5.76098 2.06828 0
M  V30 13476 N 1236.79 6.27021 3.15894 0
M  V30 13477 H 1241.63 2.97753 0.121203 0
M  V30 13478 H 1239.17 1.47021 0.0480688 0
M  V30 13479 H 1241.13 3.2761 2.58317 0
M  V30 13480 H 1239.76 2.14811 2.40948 0
M  V30 13481 H 1238.81 3.75621 0.601102 0
M  V30 13482 H 1240.12 4.8859 1.00408 0
M  V30 13483 H 1239.27 5.05584 3.35365 0
M  V30 13484 H 1238.01 3.83875 3.00818 0
M  V30 13485 H 1237.02 5.34984 1.26778 0
M  V30 13486 H 1238.24 6.59037 1.63852 0
M  V30 13487 H 1236.19 5.48833 3.5933 0
M  V30 13488 H 1236.11 7.02439 2.79491 0
M  V30 13489 H 1237.37 6.72289 3.94523 0
M  V30 13490 N 1241.6 -0.0451101 1.57535 0
M  V30 13491 C 1242.85 -0.737654 1.88157 0
M  V30 13492 C 1243.17 -1.76743 0.823817 0
M  V30 13493 O 1242.44 -1.95366 -0.144503 0
M  V30 13494 H 1241.02 -0.275431 0.694368 0
M  V30 13495 H 1243.69 -0.0148651 1.94894 0
M  V30 13496 H 1242.78 -1.23726 2.86528 0
M  V30 13497 N 1243.08 -1.54377 -0.317073 0
M  V30 13498 C 1244.36 -1.63551 -1.07287 0
M  V30 13499 C 1244.74 -0.473499 -2.05721 0
M  V30 13500 O 1244.09 0.531545 -2.22232 0
M  V30 13501 C 1244.3 -3.00842 -1.76904 0
M  V30 13502 C 1245.65 -3.57111 -2.29689 0
M  V30 13503 O 1246.67 -3.0319 -1.86961 0
M  V30 13504 O 1245.53 -4.51486 -3.07932 0
M  V30 13505 H 1242.62 -0.662557 -0.494922 0
M  V30 13506 H 1245.17 -1.66723 -0.316444 0
M  V30 13507 H 1243.94 -3.76854 -1.05341 0
M  V30 13508 H 1243.56 -3.01377 -2.59341 0
M  V30 13509 N 1244.56 0.579466 -1.4656 0
M  V30 13510 C 1245.81 1.33954 -1.52264 0
M  V30 13511 C 1246.14 1.93409 -0.175089 0
M  V30 13512 O 1245.41 1.76654 0.81385 0
M  V30 13513 C 1245.7 2.46645 -2.6237 0
M  V30 13514 C 1245.55 1.92204 -4.06667 0
M  V30 13515 C 1246.87 3.48676 -2.68538 0
M  V30 13516 H 1243.99 0.485697 -0.554317 0
M  V30 13517 H 1246.63 0.650639 -1.78512 0
M  V30 13518 H 1244.78 3.0541 -2.40119 0
M  V30 13519 H 1246.45 1.37871 -4.40215 0
M  V30 13520 H 1244.7 1.23012 -4.15993 0
M  V30 13521 H 1245.37 2.73566 -4.79443 0
M  V30 13522 H 1247.84 2.99798 -2.88549 0
M  V30 13523 H 1246.72 4.24981 -3.47394 0
M  V30 13524 H 1246.98 4.06112 -1.74716 0
M  V30 13525 N 1246.04 1.3432 0.824371 0
M  V30 13526 C 1246.99 1.2578 1.95658 0
M  V30 13527 C 1247.98 0.156199 1.68678 0
M  V30 13528 O 1249.19 0.321081 1.77113 0
M  V30 13529 H 1245.56 0.390711 0.642533 0
M  V30 13530 H 1247.53 2.21471 1.99983 0
M  V30 13531 C 1246.28 1.02865 3.32136 0
M  V30 13532 H 1245.6 1.86863 3.53443 0
M  V30 13533 H 1247.04 1.00925 4.11813 0
M  V30 13534 C 1245.5 -0.268097 3.35832 0
M  V30 13535 O 1246.03 -1.26995 3.81097 0
M  V30 13536 N 1244.24 -0.300702 2.8904 0
M  V30 13537 H 1243.79 0.51515 2.52396 0
M  V30 13538 H 1243.74 -1.16811 2.91895 0
M  V30 13539 N 1247.52 -1.0444 1.18026 0
M  V30 13540 C 1248.43 -2.15862 0.918747 0
M  V30 13541 C 1249.44 -1.73614 -0.115808 0
M  V30 13542 O 1250.62 -2.01294 0.0652312 0
M  V30 13543 C 1247.68 -3.43846 0.443922 0
M  V30 13544 C 1246.74 -4.00497 1.54599 0
M  V30 13545 C 1245.98 -5.22373 1.09372 0
M  V30 13546 O 1246.2 -5.70379 -0.049085 0
M  V30 13547 O 1245.13 -5.71459 1.88992 0
M  V30 13548 H 1248.96 -2.40776 1.85097 0
M  V30 13549 H 1246.55 -1.14326 0.961769 0
M  V30 13550 H 1248.43 -4.20985 0.187017 0
M  V30 13551 H 1247.1 -3.20414 -0.460051 0
M  V30 13552 H 1246.01 -3.24764 1.85686 0
M  V30 13553 H 1247.34 -4.28262 2.42595 0
M  V30 13554 N 1248.99 -0.981699 -1.2329 0
M  V30 13555 C 1249.9 -0.531296 -2.28505 0
M  V30 13556 C 1250.92 0.414531 -1.6899 0
M  V30 13557 O 1252.1 0.284129 -1.99386 0
M  V30 13558 C 1249.16 0.157864 -3.4634 0
M  V30 13559 C 1248.22 -0.829527 -4.21209 0
M  V30 13560 C 1247.46 -0.17316 -5.33419 0
M  V30 13561 O 1247.68 1.03549 -5.60922 0
M  V30 13562 O 1246.61 -0.872385 -5.95544 0
M  V30 13563 H 1250.44 -1.40633 -2.69177 0
M  V30 13564 H 1248.02 -0.749395 -1.29246 0
M  V30 13565 H 1249.91 0.544394 -4.17869 0
M  V30 13566 H 1248.58 1.00764 -3.07617 0
M  V30 13567 H 1247.49 -1.26678 -3.51999 0
M  V30 13568 H 1248.82 -1.64815 -4.63785 0
M  V30 13569 N 1250.47 1.3842 -0.753509 0
M  V30 13570 C 1251.72 1.99723 -0.309021 0
M  V30 13571 C 1252.04 1.60111 1.11308 0
M  V30 13572 O 1251.31 0.85792 1.76115 0
M  V30 13573 H 1249.89 0.738667 -0.111266 0
M  V30 13574 H 1252.55 1.69186 -0.967586 0
M  V30 13575 H 1251.65 3.09874 -0.372095 0
M  V30 13576 N 1251.95 0.502579 1.49372 0
M  V30 13577 C 1253.36 0.055187 1.86618 0
M  V30 13578 C 1253.71 -1.35938 1.41476 0
M  V30 13579 O 1252.84 -2.01333 0.793338 0
M  V30 13580 C 1253.43 0.0933734 3.38671 0
M  V30 13581 C 1251.99 -0.298685 3.75213 0
M  V30 13582 C 1251.14 0.465216 2.7337 0
M  V30 13583 H 1254.09 0.715281 1.41667 0
M  V30 13584 H 1254.11 -0.701549 3.73977 0
M  V30 13585 H 1253.62 1.12303 3.71497 0
M  V30 13586 H 1251.72 -1.33151 3.47996 0
M  V30 13587 H 1251.84 0.0218637 4.79095 0
M  V30 13588 H 1250.2 -0.0851469 2.54558 0
M  V30 13589 H 1250.98 1.49498 3.09039 0
M  V30 13590 N 1253.43 -1.55816 0.23648 0
M  V30 13591 C 1254.34 -2.24576 -0.678439 0
M  V30 13592 C 1255.35 -1.25836 -1.20172 0
M  V30 13593 O 1256.53 -1.58686 -1.24019 0
M  V30 13594 C 1253.6 -2.92376 -1.86325 0
M  V30 13595 C 1252.66 -4.06499 -1.38047 0
M  V30 13596 C 1251.89 -4.71057 -2.50881 0
M  V30 13597 O 1252.11 -4.34652 -3.69369 0
M  V30 13598 O 1251.05 -5.59768 -2.21232 0
M  V30 13599 H 1254.87 -3.03452 -0.122601 0
M  V30 13600 H 1252.46 -1.49399 0.00540803 0
M  V30 13601 H 1254.34 -3.35117 -2.55488 0
M  V30 13602 H 1253.01 -2.16448 -2.40691 0
M  V30 13603 H 1251.92 -3.68296 -0.656422 0
M  V30 13604 H 1253.25 -4.84214 -0.883024 0
M  V30 13605 N 1254.91 0.036755 -1.57557 0
M  V30 13606 C 1255.85 1.05823 -2.07133 0
M  V30 13607 C 1256.85 1.37923 -0.983546 0
M  V30 13608 O 1258.05 1.36918 -1.16848 0
M  V30 13609 H 1254.43 0.358761 -0.660905 0
M  V30 13610 H 1256.4 0.614232 -2.9201 0
M  V30 13611 C 1255.15 2.35302 -2.55985 0
M  V30 13612 H 1254.47 2.11461 -3.393 0
M  V30 13613 H 1255.91 3.05139 -2.94391 0
M  V30 13614 C 1254.37 3.0373 -1.45773 0
M  V30 13615 O 1254.9 3.9325 -0.819587 0
M  V30 13616 N 1253.11 2.64931 -1.19416 0
M  V30 13617 H 1252.65 1.92219 -1.71492 0
M  V30 13618 H 1252.61 3.11033 -0.458865 0
M  V30 13619 N 1256.39 1.54543 0.308881 0
M  V30 13620 C 1257.33 1.84949 1.38067 0
M  V30 13621 C 1258.3 0.697746 1.50734 0
M  V30 13622 O 1259.49 0.94561 1.65719 0
M  V30 13623 C 1256.63 2.09544 2.74199 0
M  V30 13624 C 1255.74 3.37193 2.70046 0
M  V30 13625 C 1254.88 3.51672 3.98121 0
M  V30 13626 C 1253.91 4.73143 3.88333 0
M  V30 13627 N 1253.05 4.84469 5.08167 0
M  V30 13628 H 1257.89 2.76379 1.11438 0
M  V30 13629 H 1255.43 1.36863 0.539153 0
M  V30 13630 H 1257.39 2.21798 3.53358 0
M  V30 13631 H 1256.02 1.21389 2.99106 0
M  V30 13632 H 1255.07 3.33601 1.82796 0
M  V30 13633 H 1256.38 4.26468 2.58701 0
M  V30 13634 H 1255.53 3.63548 4.85714 0
M  V30 13635 H 1254.27 2.60516 4.1229 0
M  V30 13636 H 1253.28 4.61308 2.99124 0
M  V30 13637 H 1254.5 5.65698 3.75716 0
M  V30 13638 H 1252.45 3.96234 5.22814 0
M  V30 13639 H 1252.37 5.67733 4.99215 0
M  V30 13640 H 1253.63 5.00693 5.97434 0
M  V30 13641 N 1257.86 -0.571685 1.46866 0
M  V30 13642 C 1259.14 -1.33216 1.43223 0
M  V30 13643 C 1259.52 -2.1075 0.121495 0
M  V30 13644 O 1258.87 -2.10157 -0.897003 0
M  V30 13645 C 1259.08 -2.24888 2.66882 0
M  V30 13646 C 1260.43 -2.86369 3.13493 0
M  V30 13647 O 1261.45 -2.35197 2.67509 0
M  V30 13648 O 1260.31 -3.79342 3.93398 0
M  V30 13649 H 1257.4 -0.599106 0.570089 0
M  V30 13650 H 1259.95 -0.591788 1.59047 0
M  V30 13651 H 1258.72 -1.67099 3.53827 0
M  V30 13652 H 1258.34 -3.06246 2.53573 0
M  V30 13653 N 1259.34 -1.34755 -0.817236 0
M  V30 13654 C 1260.29 -1.26801 -1.92848 0
M  V30 13655 C 1261.26 -0.142077 -1.65491 0
M  V30 13656 O 1262.44 -0.324006 -1.88029 0
M  V30 13657 C 1259.58 -1.03513 -3.2921 0
M  V30 13658 C 1258.7 -2.24932 -3.68822 0
M  V30 13659 C 1257.83 -1.94881 -4.94161 0
M  V30 13660 C 1256.87 -3.12411 -5.2637 0
M  V30 13661 N 1256.01 -2.82207 -6.42887 0
M  V30 13662 H 1260.85 -2.21832 -1.98983 0
M  V30 13663 H 1258.38 -1.10284 -0.973439 0
M  V30 13664 H 1260.34 -0.88047 -4.07803 0
M  V30 13665 H 1258.97 -0.121478 -3.22571 0
M  V30 13666 H 1258.02 -2.51299 -2.85575 0
M  V30 13667 H 1259.34 -3.12726 -3.88592 0
M  V30 13668 H 1258.49 -1.76184 -5.80555 0
M  V30 13669 H 1257.23 -1.04355 -4.76405 0
M  V30 13670 H 1256.23 -3.31698 -4.3847 0
M  V30 13671 H 1257.46 -4.03724 -5.46062 0
M  V30 13672 H 1255.41 -1.94263 -6.26576 0
M  V30 13673 H 1255.32 -3.63534 -6.62857 0
M  V30 13674 H 1256.59 -2.67026 -7.32337 0
M  V30 13675 N 1260.82 1.03812 -1.18578 0
M  V30 13676 C 1262.07 1.77319 -0.984173 0
M  V30 13677 C 1262.4 1.88052 0.484789 0
M  V30 13678 O 1261.67 1.3905 1.35998 0
M  V30 13679 C 1261.96 3.20448 -1.6427 0
M  V30 13680 C 1261.81 3.17643 -3.1847 0
M  V30 13681 C 1263.13 4.18623 -1.35805 0
M  V30 13682 H 1260.25 0.643681 -0.358949 0
M  V30 13683 H 1262.89 1.21249 -1.46283 0
M  V30 13684 H 1261.04 3.68324 -1.23572 0
M  V30 13685 H 1262.71 2.77738 -3.6832 0
M  V30 13686 H 1260.95 2.55606 -3.50497 0
M  V30 13687 H 1261.63 4.18724 -3.59686 0
M  V30 13688 H 1264.1 3.79306 -1.71073 0
M  V30 13689 H 1262.98 5.16982 -1.84446 0
M  V30 13690 H 1263.24 4.41203 -0.281418 0
M  V30 13691 N 1262.3 0.988223 1.22768 0
M  V30 13692 C 1263.53 0.679743 1.95415 0
M  V30 13693 C 1263.94 -0.754731 1.73059 0
M  V30 13694 O 1263.3 -1.50876 1.02678 0
M  V30 13695 C 1263.35 0.970344 3.48234 0
M  V30 13696 O 1263.07 2.34845 3.69837 0
M  V30 13697 C 1264.57 0.67891 4.3807 0
M  V30 13698 H 1261.79 0.251847 0.621944 0
M  V30 13699 H 1264.33 1.32173 1.56047 0
M  V30 13700 H 1262.49 0.374241 3.85588 0
M  V30 13701 H 1262.9 2.44412 4.64072 0
M  V30 13702 H 1264.38 0.932549 5.44066 0
M  V30 13703 H 1264.85 -0.387073 4.37491 0
M  V30 13704 H 1265.46 1.25585 4.06335 0
M  V30 13705 N 1263.78 -1.38018 0.760839 0
M  V30 13706 C 1264.72 -2.30387 0.13796 0
M  V30 13707 C 1265.69 -1.50548 -0.701754 0
M  V30 13708 O 1266.88 -1.79154 -0.656381 0
M  V30 13709 C 1264.02 -3.36993 -0.743642 0
M  V30 13710 C 1263.13 -4.31856 0.111489 0
M  V30 13711 C 1262.27 -5.25534 -0.773796 0
M  V30 13712 C 1261.3 -6.12042 0.0845311 0
M  V30 13713 N 1260.44 -6.97995 -0.758118 0
M  V30 13714 H 1265.28 -2.83077 0.931212 0
M  V30 13715 H 1262.82 -1.39361 0.470833 0
M  V30 13716 H 1264.78 -3.97417 -1.26948 0
M  V30 13717 H 1263.41 -2.85695 -1.50261 0
M  V30 13718 H 1262.46 -3.72832 0.755031 0
M  V30 13719 H 1263.77 -4.92758 0.774042 0
M  V30 13720 H 1262.92 -5.9111 -1.36653 0
M  V30 13721 H 1261.66 -4.65017 -1.47006 0
M  V30 13722 H 1260.67 -5.45455 0.689883 0
M  V30 13723 H 1261.89 -6.74629 0.777966 0
M  V30 13724 H 1259.84 -6.40018 -1.4392 0
M  V30 13725 H 1259.76 -7.55846 -0.152623 0
M  V30 13726 H 1261.02 -7.67973 -1.33559 0
M  V30 13727 N 1265.25 -0.510493 -1.49103 0
M  V30 13728 C 1266.19 0.299697 -2.27232 0
M  V30 13729 C 1267.2 0.922102 -1.34168 0
M  V30 13730 O 1268.39 0.803836 -1.59376 0
M  V30 13731 C 1265.49 1.43778 -3.06889 0
M  V30 13732 C 1264.66 0.920927 -4.27595 0
M  V30 13733 C 1263.72 1.93777 -4.89221 0
M  V30 13734 O 1262.75 1.5025 -5.49011 0
M  V30 13735 N 1263.95 3.2688 -4.79718 0
M  V30 13736 H 1266.71 -0.37028 -2.97404 0
M  V30 13737 H 1264.27 -0.343617 -1.58212 0
M  V30 13738 H 1266.27 2.11577 -3.44988 0
M  V30 13739 H 1264.84 2.01175 -2.39264 0
M  V30 13740 H 1264.06 0.0675358 -3.94142 0
M  V30 13741 H 1265.34 0.554168 -5.05773 0
M  V30 13742 H 1264.74 3.64924 -4.32258 0
M  V30 13743 H 1263.3 3.90366 -5.21974 0
M  V30 13744 N 1266.73 1.55688 -0.24474 0
M  V30 13745 C 1267.64 2.24933 0.666519 0
M  V30 13746 C 1268.66 1.26471 1.19503 0
M  V30 13747 O 1269.83 1.59342 1.23176 0
M  V30 13748 C 1266.9 2.9336 1.84772 0
M  V30 13749 C 1265.96 4.07225 1.35889 0
M  V30 13750 C 1265.19 4.72381 2.48379 0
M  V30 13751 O 1265.42 4.36605 3.67059 0
M  V30 13752 O 1264.35 5.60933 2.18261 0
M  V30 13753 H 1268.18 3.03513 0.106507 0
M  V30 13754 H 1265.76 1.49394 -0.0133309 0
M  V30 13755 H 1267.64 3.36468 2.53708 0
M  V30 13756 H 1266.32 2.17721 2.39539 0
M  V30 13757 H 1265.22 3.68639 0.636881 0
M  V30 13758 H 1266.56 4.84676 0.857333 0
M  V30 13759 N 1268.21 -0.0283989 1.57574 0
M  V30 13760 C 1269.16 -1.02881 2.06601 0
M  V30 13761 C 1270.13 -1.35879 0.955308 0
M  V30 13762 O 1271.31 -1.46205 1.22592 0
M  V30 13763 C 1268.45 -2.32447 2.55073 0
M  V30 13764 C 1267.56 -2.05602 3.79937 0
M  V30 13765 C 1266.7 -3.29043 4.17018 0
M  V30 13766 C 1265.74 -2.97755 5.34797 0
M  V30 13767 N 1264.88 -4.1365 5.67308 0
M  V30 13768 H 1269.72 -0.603772 2.91819 0
M  V30 13769 H 1267.25 -0.286503 1.44283 0
M  V30 13770 H 1269.21 -3.08152 2.81244 0
M  V30 13771 H 1267.84 -2.72672 1.72771 0
M  V30 13772 H 1266.89 -1.2039 3.60847 0
M  V30 13773 H 1268.2 -1.78522 4.65759 0
M  V30 13774 H 1267.36 -4.13115 4.4432 0
M  V30 13775 H 1266.1 -3.59237 3.29849 0
M  V30 13776 H 1265.1 -2.12085 5.07247 0
M  V30 13777 H 1266.33 -2.68839 6.23621 0
M  V30 13778 H 1264.27 -4.43794 4.83097 0
M  V30 13779 H 1264.19 -3.89996 6.47641 0
M  V30 13780 H 1265.46 -4.98594 5.99186 0
M  V30 13781 N 1269.69 -1.54705 -0.300681 0
M  V30 13782 C 1270.93 -1.74259 -1.03738 0
M  V30 13783 C 1271.27 -0.52703 -1.86912 0
M  V30 13784 O 1270.54 0.475862 -1.88589 0
M  V30 13785 C 1270.82 -3.03175 -1.94311 0
M  V30 13786 C 1270.68 -4.35031 -1.14315 0
M  V30 13787 C 1272 -3.27962 -2.93478 0
M  V30 13788 H 1269.12 -0.634031 -0.37573 0
M  V30 13789 H 1271.76 -1.87421 -0.312012 0
M  V30 13790 H 1269.91 -2.92086 -2.5616 0
M  V30 13791 H 1271.58 -4.5804 -0.547489 0
M  V30 13792 H 1269.82 -4.31503 -0.44587 0
M  V30 13793 H 1270.49 -5.21502 -1.80941 0
M  V30 13794 H 1272.97 -3.38663 -2.41757 0
M  V30 13795 H 1271.85 -4.19481 -3.54016 0
M  V30 13796 H 1272.11 -2.46273 -3.67154 0
M  V30 13797 N 1271.17 0.563888 -1.47167 0
M  V30 13798 C 1272.11 1.67151 -1.59152 0
M  V30 13799 C 1273.08 1.60307 -0.434852 0
M  V30 13800 O 1274.27 1.7924 -0.654049 0
M  V30 13801 C 1271.41 3.0548 -1.60549 0
M  V30 13802 C 1270.52 3.2281 -2.87085 0
M  V30 13803 C 1269.66 4.51498 -2.79862 0
M  V30 13804 C 1268.7 4.62237 -4.01252 0
M  V30 13805 N 1267.83 5.82273 -3.92305 0
M  V30 13806 H 1272.67 1.56245 -2.53755 0
M  V30 13807 H 1270.21 0.761219 -1.25872 0
M  V30 13808 H 1272.17 3.85572 -1.59343 0
M  V30 13809 H 1270.8 3.15237 -0.69464 0
M  V30 13810 H 1269.85 2.36196 -2.98188 0
M  V30 13811 H 1271.16 3.2661 -3.76997 0
M  V30 13812 H 1270.32 5.39842 -2.76867 0
M  V30 13813 H 1269.05 4.50166 -1.87621 0
M  V30 13814 H 1268.06 3.72307 -4.04558 0
M  V30 13815 H 1269.28 4.65334 -4.94612 0
M  V30 13816 H 1267.23 5.81902 -3.02862 0
M  V30 13817 H 1267.15 5.87422 -4.7589 0
M  V30 13818 H 1268.42 6.72996 -3.93315 0
M  V30 13819 N 1272.64 1.35187 0.810078 0
M  V30 13820 C 1273.55 1.29926 1.95337 0
M  V30 13821 C 1274.57 0.204748 1.72791 0
M  V30 13822 O 1275.75 0.433507 1.96679 0
M  V30 13823 C 1272.81 1.06736 3.29861 0
M  V30 13824 C 1271.87 2.25466 3.65326 0
M  V30 13825 C 1271.11 2.03373 4.93432 0
M  V30 13826 O 1271.33 0.998419 5.61594 0
M  V30 13827 O 1270.26 2.90648 5.27075 0
M  V30 13828 H 1274.09 2.26137 2.02721 0
M  V30 13829 H 1271.67 1.15523 0.947354 0
M  V30 13830 H 1273.56 0.956367 4.10404 0
M  V30 13831 H 1272.23 0.135735 3.23415 0
M  V30 13832 H 1271.14 2.42129 2.85175 0
M  V30 13833 H 1272.47 3.17063 3.76473 0
M  V30 13834 N 1274.12 -1.03182 1.19127 0
M  V30 13835 C 1275.37 -1.76794 0.993563 0
M  V30 13836 C 1275.7 -1.88306 -0.474809 0
M  V30 13837 O 1274.98 -1.39769 -1.35258 0
M  V30 13838 C 1275.26 -3.19573 1.65968 0
M  V30 13839 C 1275.11 -3.1595 3.2015 0
M  V30 13840 C 1276.43 -4.17897 1.38023 0
M  V30 13841 H 1273.55 -0.641768 0.362357 0
M  V30 13842 H 1276.19 -1.20472 1.46924 0
M  V30 13843 H 1274.34 -3.67663 1.25524 0
M  V30 13844 H 1276.01 -2.7578 3.69788 0
M  V30 13845 H 1274.26 -2.53743 3.51848 0
M  V30 13846 H 1274.93 -4.16811 3.61901 0
M  V30 13847 H 1277.4 -3.78394 1.73082 0
M  V30 13848 H 1276.28 -5.15997 1.87186 0
M  V30 13849 H 1276.54 -4.41048 0.304812 0
M  V30 13850 N 1275.6 -0.99472 -1.22242 0
M  V30 13851 C 1276.55 -0.546504 -2.24236 0
M  V30 13852 C 1277.52 0.422101 -1.60647 0
M  V30 13853 O 1278.7 0.326452 -1.87987 0
M  V30 13854 C 1275.84 0.130909 -3.44852 0
M  V30 13855 C 1274.96 -0.879653 -4.22949 0
M  V30 13856 C 1274.09 -0.175569 -5.3091 0
M  V30 13857 C 1273.13 -1.17438 -6.00729 0
M  V30 13858 N 1272.27 -0.498474 -7.00328 0
M  V30 13859 H 1277.11 -1.42099 -2.61939 0
M  V30 13860 H 1274.64 -0.711755 -1.28734 0
M  V30 13861 H 1276.6 0.540596 -4.13683 0
M  V30 13862 H 1275.23 0.96917 -3.07907 0
M  V30 13863 H 1274.28 -1.40765 -3.53397 0
M  V30 13864 H 1275.6 -1.64017 -4.71062 0
M  V30 13865 H 1274.75 0.290756 -6.06003 0
M  V30 13866 H 1273.49 0.617438 -4.83776 0
M  V30 13867 H 1272.49 -1.65131 -5.24416 0
M  V30 13868 H 1273.72 -1.96829 -6.4995 0
M  V30 13869 H 1271.66 0.275063 -6.55423 0
M  V30 13870 H 1271.58 -1.19741 -7.46457 0
M  V30 13871 H 1272.85 -0.0550119 -7.79481 0
M  V30 13872 N 1277.08 1.37613 -0.768148 0
M  V30 13873 C 1278.03 2.30311 -0.150176 0
M  V30 13874 C 1279 1.50918 0.69376 0
M  V30 13875 O 1280.18 1.795 0.64687 0
M  V30 13876 C 1277.32 3.37382 0.72576 0
M  V30 13877 C 1276.43 4.31791 -0.13439 0
M  V30 13878 C 1275.57 5.25937 0.745915 0
M  V30 13879 C 1274.61 6.11988 -0.116988 0
M  V30 13880 N 1273.74 6.98387 0.721091 0
M  V30 13881 H 1278.58 2.82579 -0.946212 0
M  V30 13882 H 1276.12 1.3911 -0.478217 0
M  V30 13883 H 1278.08 3.98084 1.24839 0
M  V30 13884 H 1276.71 2.86488 1.48743 0
M  V30 13885 H 1275.76 3.72426 -0.774793 0
M  V30 13886 H 1277.07 4.9234 -0.800163 0
M  V30 13887 H 1276.23 5.91826 1.33516 0
M  V30 13888 H 1274.97 4.6579 1.44538 0
M  V30 13889 H 1273.97 5.45081 -0.7188 0
M  V30 13890 H 1275.2 6.74207 -0.813732 0
M  V30 13891 H 1273.14 6.40772 1.40524 0
M  V30 13892 H 1273.06 7.55916 0.112536 0
M  V30 13893 H 1274.33 7.6867 1.29485 0
M  V30 13894 N 1278.56 0.518393 1.4883 0
M  V30 13895 C 1279.47 -0.254811 2.33212 0
M  V30 13896 C 1280.48 -0.950401 1.45751 0
M  V30 13897 O 1281.66 -0.927932 1.78749 0
M  V30 13898 C 1278.72 -1.29509 3.21603 0
M  V30 13899 C 1277.78 -0.611086 4.24928 0
M  V30 13900 C 1277.02 -1.6018 5.09095 0
M  V30 13901 O 1277.24 -2.83336 4.95052 0
M  V30 13902 O 1276.17 -1.14756 5.90859 0
M  V30 13903 H 1280 0.436329 3.00549 0
M  V30 13904 H 1277.59 0.27947 1.46763 0
M  V30 13905 H 1279.47 -1.89654 3.7631 0
M  V30 13906 H 1278.14 -1.96884 2.5694 0
M  V30 13907 H 1277.05 0.0305638 3.74088 0
M  V30 13908 H 1278.38 0.0205249 4.92196 0
M  V30 13909 N 1280.03 -1.55556 0.252993 0
M  V30 13910 C 1281.28 -1.99385 -0.370599 0
M  V30 13911 C 1281.61 -1.14101 -1.57145 0
M  V30 13912 O 1280.89 -0.205828 -1.93408 0
M  V30 13913 C 1281.17 -3.51672 -0.774503 0
M  V30 13914 C 1281.02 -4.47719 0.432159 0
M  V30 13915 C 1282.34 -4.0923 -1.61923 0
M  V30 13916 H 1279.46 -0.724858 -0.133231 0
M  V30 13917 H 1282.1 -1.86644 0.355522 0
M  V30 13918 H 1280.25 -3.62661 -1.39318 0
M  V30 13919 H 1281.93 -4.48704 1.07063 0
M  V30 13920 H 1280.17 -4.2029 1.07419 0
M  V30 13921 H 1280.84 -5.51898 0.106123 0
M  V30 13922 H 1283.32 -4.01381 -1.09693 0
M  V30 13923 H 1282.19 -5.16039 -1.87068 0
M  V30 13924 H 1282.45 -3.58067 -2.59307 0
M  V30 13925 N 1281.51 0.0200419 -1.57587 0
M  V30 13926 C 1282.46 1.01784 -2.07144 0
M  V30 13927 C 1283.43 1.3537 -0.962501 0
M  V30 13928 O 1284.61 1.45553 -1.23365 0
M  V30 13929 C 1281.75 2.31091 -2.56302 0
M  V30 13930 C 1280.87 2.03584 -3.81022 0
M  V30 13931 C 1280 3.26827 -4.18757 0
M  V30 13932 C 1279.04 2.94915 -5.36369 0
M  V30 13933 N 1278.18 4.10636 -5.69493 0
M  V30 13934 H 1283.02 0.588288 -2.92136 0
M  V30 13935 H 1280.56 0.278848 -1.44433 0
M  V30 13936 H 1282.51 3.06656 -2.82874 0
M  V30 13937 H 1281.14 2.71752 -1.74215 0
M  V30 13938 H 1280.2 1.18475 -3.6148 0
M  V30 13939 H 1281.51 1.76049 -4.66699 0
M  V30 13940 H 1280.66 4.10753 -4.46505 0
M  V30 13941 H 1279.4 3.57483 -3.31749 0
M  V30 13942 H 1278.41 2.09392 -5.08365 0
M  V30 13943 H 1279.63 2.65528 -6.25037 0
M  V30 13944 H 1277.58 4.41226 -4.85444 0
M  V30 13945 H 1277.49 3.86556 -6.497 0
M  V30 13946 H 1278.76 4.95409 -6.01822 0
M  V30 13947 N 1282.99 1.54862 0.292472 0
M  V30 13948 C 1283.94 1.86403 1.36098 0
M  V30 13949 C 1284.91 0.713694 1.49985 0
M  V30 13950 O 1286.09 0.963134 1.64707 0
M  V30 13951 C 1283.23 2.1244 2.71962 0
M  V30 13952 C 1282.35 3.40038 2.66454 0
M  V30 13953 C 1281.48 3.55875 3.94368 0
M  V30 13954 C 1280.52 4.77235 3.83293 0
M  V30 13955 N 1279.66 4.89832 5.03 0
M  V30 13956 H 1284.5 2.77546 1.085 0
M  V30 13957 H 1282.03 1.37427 0.524607 0
M  V30 13958 H 1283.99 2.25533 3.50985 0
M  V30 13959 H 1282.62 1.24554 2.97802 0
M  V30 13960 H 1281.67 3.35521 1.79248 0
M  V30 13961 H 1282.99 4.29188 2.54163 0
M  V30 13962 H 1282.14 3.68679 4.8183 0
M  V30 13963 H 1280.88 2.64874 4.09503 0
M  V30 13964 H 1279.88 4.64455 2.94214 0
M  V30 13965 H 1281.11 5.69651 3.69695 0
M  V30 13966 H 1279.05 4.01756 5.18582 0
M  V30 13967 H 1278.97 5.72996 4.93165 0
M  V30 13968 H 1280.24 5.07001 5.92089 0
M  V30 13969 N 1284.47 -0.556076 1.47464 0
M  V30 13970 C 1285.42 -1.66304 1.60036 0
M  V30 13971 C 1286.39 -1.60074 0.443348 0
M  V30 13972 O 1287.57 -1.7889 0.663545 0
M  V30 13973 C 1284.71 -3.04624 1.62167 0
M  V30 13974 C 1283.82 -3.21283 2.88793 0
M  V30 13975 C 1282.96 -4.50008 2.82252 0
M  V30 13976 C 1282 -4.60103 4.03698 0
M  V30 13977 N 1281.13 -5.80184 3.95387 0
M  V30 13978 H 1285.97 -1.54897 2.5458 0
M  V30 13979 H 1283.51 -0.754533 1.26274 0
M  V30 13980 H 1285.47 -3.84721 1.61386 0
M  V30 13981 H 1284.1 -3.14865 0.711348 0
M  V30 13982 H 1283.15 -2.34611 2.99436 0
M  V30 13983 H 1284.46 -3.24607 3.78724 0
M  V30 13984 H 1283.62 -5.38366 2.79726 0
M  V30 13985 H 1282.36 -4.49165 1.90005 0
M  V30 13986 H 1281.36 -3.70157 4.06527 0
M  V30 13987 H 1282.59 -4.62704 4.97073 0
M  V30 13988 H 1280.53 -5.80288 3.05944 0
M  V30 13989 H 1280.45 -5.8489 4.78998 0
M  V30 13990 H 1281.72 -6.709 3.96879 0
M  V30 13991 N 1285.95 -1.35615 -0.802897 0
M  V30 13992 C 1287.19 -1.29285 -1.56247 0
M  V30 13993 C 1287.53 0.131474 -1.93754 0
M  V30 13994 O 1286.8 1.08172 -1.61645 0
M  V30 13995 C 1287.08 -2.20285 -2.84863 0
M  V30 13996 C 1286.94 -3.71351 -2.53808 0
M  V30 13997 C 1288.26 -2.10318 -3.86593 0
M  V30 13998 H 1285.38 -0.470972 -0.566882 0
M  V30 13999 H 1288.02 -1.66048 -0.923469 0
M  V30 14000 H 1286.17 -1.89063 -3.39393 0
M  V30 14001 H 1287.84 -4.13031 -2.05433 0
M  V30 14002 H 1286.08 -3.9145 -1.86947 0
M  V30 14003 H 1286.75 -4.30416 -3.4561 0
M  V30 14004 H 1289.23 -2.37772 -3.41473 0
M  V30 14005 H 1288.11 -2.76183 -4.74357 0
M  V30 14006 H 1288.37 -1.08627 -4.28547 0
M  V30 14007 N 1287.43 1.02549 -1.19673 0
M  V30 14008 C 1288.37 2.109 -0.937536 0
M  V30 14009 C 1289.34 1.65599 0.128923 0
M  V30 14010 O 1290.53 1.90795 -0.0139366 0
M  V30 14011 C 1287.67 3.4166 -0.48602 0
M  V30 14012 C 1286.78 4.0049 -1.61963 0
M  V30 14013 C 1285.92 5.19273 -1.11931 0
M  V30 14014 C 1284.95 5.70166 -2.22659 0
M  V30 14015 N 1284.09 6.80221 -1.73909 0
M  V30 14016 H 1288.93 2.32408 -1.86523 0
M  V30 14017 H 1286.47 1.13982 -0.929869 0
M  V30 14018 H 1288.43 4.16693 -0.205614 0
M  V30 14019 H 1287.06 3.20253 0.404678 0
M  V30 14020 H 1286.11 3.22638 -2.01516 0
M  V30 14021 H 1287.42 4.34273 -2.45374 0
M  V30 14022 H 1286.57 6.01478 -0.794336 0
M  V30 14023 H 1285.31 4.87033 -0.254972 0
M  V30 14024 H 1284.32 4.86572 -2.55983 0
M  V30 14025 H 1285.54 6.04444 -3.09554 0
M  V30 14026 H 1283.49 6.49826 -0.897889 0
M  V30 14027 H 1283.41 7.13149 -2.50907 0
M  V30 14028 H 1284.67 7.66011 -1.44386 0
M  V30 14029 N 1288.9 1.00119 1.21713 0
M  V30 14030 C 1289.85 0.558388 2.23943 0
M  V30 14031 C 1290.82 -0.413576 1.60869 0
M  V30 14032 O 1292.01 -0.316478 1.88157 0
M  V30 14033 C 1289.15 -0.112618 3.44916 0
M  V30 14034 C 1288.26 0.902071 4.22477 0
M  V30 14035 C 1287.39 0.203722 5.30809 0
M  V30 14036 C 1286.43 1.20622 6.00097 0
M  V30 14037 N 1285.57 0.535607 7.00054 0
M  V30 14038 H 1290.41 1.43486 2.61182 0
M  V30 14039 H 1287.95 0.718572 1.28355 0
M  V30 14040 H 1289.9 -0.51865 4.13964 0
M  V30 14041 H 1288.53 -0.952827 3.08417 0
M  V30 14042 H 1287.59 1.42637 3.52645 0
M  V30 14043 H 1288.9 1.66513 4.70186 0
M  V30 14044 H 1288.05 -0.258614 6.06149 0
M  V30 14045 H 1286.79 -0.591773 4.84096 0
M  V30 14046 H 1285.8 1.6791 5.23532 0
M  V30 14047 H 1287.02 2.00273 6.48897 0
M  V30 14048 H 1284.97 -0.2403 6.5556 0
M  V30 14049 H 1284.88 1.23698 7.45812 0
M  V30 14050 H 1286.15 0.0963489 7.7944 0
M  V30 14051 N 1290.38 -1.37203 0.775435 0
M  V30 14052 C 1291.8 -1.52962 0.455488 0
M  V30 14053 C 1292 -1.73284 -1.02834 0
M  V30 14054 O 1291.05 -1.75631 -1.81411 0
M  V30 14055 C 1292.37 -2.72389 1.27377 0
M  V30 14056 C 1293.91 -2.86252 1.26604 0
M  V30 14057 C 1294.39 -4.08666 2.06775 0
M  V30 14058 N 1295.88 -4.15786 2.04148 0
M  V30 14059 C 1296.62 -5.09548 2.6296 0
M  V30 14060 N 1296.11 -6.08845 3.30574 0
M  V30 14061 N 1297.9 -5.02059 2.5277 0
M  V30 14062 H 1290.06 -1.22265 1.73681 0
M  V30 14063 H 1292.32 -0.595638 0.737509 0
M  V30 14064 H 1292.02 -2.63849 2.32544 0
M  V30 14065 H 1291.9 -3.66171 0.905467 0
M  V30 14066 H 1294.29 -2.94261 0.222345 0
M  V30 14067 H 1294.37 -1.93418 1.67401 0
M  V30 14068 H 1294.01 -4.01419 3.11168 0
M  V30 14069 H 1293.94 -5.00621 1.63358 0
M  V30 14070 H 1296.43 -3.44683 1.54926 0
M  V30 14071 H 1296.74 -6.76926 3.72815 0
M  V30 14072 H 1295.09 -6.09113 3.34674 0
M  V30 14073 H 1298.28 -4.23431 1.99559 0
M  V30 14074 H 1298.45 -5.74947 2.98898 0
M  V30 14075 N 1291.86 -0.526279 -1.48553 0
M  V30 14076 C 1293.11 0.00918008 -2.02798 0
M  V30 14077 C 1293.44 1.34284 -1.4029 0
M  V30 14078 O 1292.71 1.86639 -0.547355 0
M  V30 14079 C 1293 0.135102 -3.59846 0
M  V30 14080 C 1292.85 -1.22347 -4.32841 0
M  V30 14081 C 1294.17 0.863673 -4.31542 0
M  V30 14082 H 1291.29 0.00186216 -0.736998 0
M  V30 14083 H 1293.93 -0.682591 -1.77315 0
M  V30 14084 H 1292.08 0.724279 -3.81689 0
M  V30 14085 H 1293.75 -1.85347 -4.22427 0
M  V30 14086 H 1291.99 -1.80631 -3.94405 0
M  V30 14087 H 1292.67 -1.08839 -5.41164 0
M  V30 14088 H 1295.14 0.363734 -4.14507 0
M  V30 14089 H 1294.02 0.92067 -5.41124 0
M  V30 14090 H 1294.28 1.91313 -3.98562 0
M  V30 14091 N 1293.34 1.5542 -0.261239 0
M  V30 14092 C 1294.28 2.21972 0.632216 0
M  V30 14093 C 1295.25 1.18843 1.16041 0
M  V30 14094 O 1296.44 1.47339 1.21226 0
M  V30 14095 C 1293.58 2.93397 1.81693 0
M  V30 14096 C 1292.69 4.11214 1.3239 0
M  V30 14097 C 1291.83 4.70318 2.46931 0
M  V30 14098 C 1290.87 5.80355 1.94561 0
M  V30 14099 N 1290 6.33581 3.02523 0
M  V30 14100 H 1294.84 2.97944 0.058018 0
M  V30 14101 H 1292.38 1.4709 0.0168725 0
M  V30 14102 H 1294.34 3.33015 2.5131 0
M  V30 14103 H 1292.97 2.19874 2.36337 0
M  V30 14104 H 1292.02 3.76811 0.521292 0
M  V30 14105 H 1293.33 4.90609 0.900214 0
M  V30 14106 H 1292.49 5.12584 3.24565 0
M  V30 14107 H 1291.23 3.90169 2.92608 0
M  V30 14108 H 1290.23 5.37552 1.15402 0
M  V30 14109 H 1291.46 6.62364 1.49836 0
M  V30 14110 H 1289.4 5.56332 3.47608 0
M  V30 14111 H 1289.32 7.08209 2.64529 0
M  V30 14112 H 1290.59 6.80506 3.80174 0
M  V30 14113 N 1294.82 -0.0116844 1.57596 0
M  V30 14114 C 1295.76 -1.00684 2.07681 0
M  V30 14115 C 1296.73 -1.34858 0.969666 0
M  V30 14116 O 1297.92 -1.44896 1.24136 0
M  V30 14117 C 1295.06 -2.29729 2.57524 0
M  V30 14118 C 1294.17 -2.0156 3.82096 0
M  V30 14119 C 1293.31 -3.24601 4.20485 0
M  V30 14120 C 1292.34 -2.92066 5.37925 0
M  V30 14121 N 1291.48 -4.0761 5.71663 0
M  V30 14122 H 1296.32 -0.572787 2.92443 0
M  V30 14123 H 1293.86 -0.271184 1.44579 0
M  V30 14124 H 1295.82 -3.05152 2.84496 0
M  V30 14125 H 1294.45 -2.70824 1.75653 0
M  V30 14126 H 1293.5 -1.16556 3.62103 0
M  V30 14127 H 1294.81 -1.73572 4.67626 0
M  V30 14128 H 1293.96 -4.08379 4.48677 0
M  V30 14129 H 1292.7 -3.55718 3.3364 0
M  V30 14130 H 1291.71 -2.06693 5.09468 0
M  V30 14131 H 1292.93 -2.62209 6.26437 0
M  V30 14132 H 1290.88 -4.38645 4.87777 0
M  V30 14133 H 1290.8 -3.83105 6.51741 0
M  V30 14134 H 1292.06 -4.92211 6.04441 0
M  V30 14135 N 1296.29 -1.55015 -0.284256 0
M  V30 14136 C 1297.71 -1.46603 -0.630845 0
M  V30 14137 C 1297.91 -0.67091 -1.90003 0
M  V30 14138 O 1296.97 -0.185266 -2.51819 0
M  V30 14139 C 1298.28 -2.9072 -0.768268 0
M  V30 14140 C 1299.83 -3.00866 -0.863061 0
M  V30 14141 C 1300.3 -4.46214 -1.03235 0
M  V30 14142 N 1301.79 -4.49994 -1.09815 0
M  V30 14143 C 1302.53 -5.5966 -1.24773 0
M  V30 14144 N 1302.02 -6.79215 -1.36523 0
M  V30 14145 N 1303.82 -5.4738 -1.27795 0
M  V30 14146 H 1295.97 -2.05171 0.549409 0
M  V30 14147 H 1298.23 -0.929915 0.184288 0
M  V30 14148 H 1297.94 -3.51575 0.0936899 0
M  V30 14149 H 1297.81 -3.39096 -1.65209 0
M  V30 14150 H 1300.2 -2.40114 -1.71549 0
M  V30 14151 H 1300.28 -2.5576 0.0451267 0
M  V30 14152 H 1299.92 -5.07564 -0.18462 0
M  V30 14153 H 1299.85 -4.88965 -1.95502 0
M  V30 14154 H 1302.34 -3.63869 -1.0202 0
M  V30 14155 H 1302.66 -7.58547 -1.47739 0
M  V30 14156 H 1301 -6.82048 -1.33548 0
M  V30 14157 H 1304.19 -4.52921 -1.18238 0
M  V30 14158 H 1304.37 -6.32892 -1.39109 0
M  V30 14159 N 1297.77 0.548248 -1.47757 0
M  V30 14160 C 1298.72 1.67553 -1.61335 0
M  V30 14161 C 1299.71 1.62447 -0.480335 0
M  V30 14162 O 1300.92 1.67525 -0.658445 0
M  V30 14163 H 1297.29 0.55457 -0.507894 0
M  V30 14164 H 1299.27 1.53239 -2.56047 0
M  V30 14165 C 1298.01 3.05883 -1.6532 0
M  V30 14166 H 1297.34 3.10497 -2.51856 0
M  V30 14167 H 1298.78 3.84424 -1.78868 0
M  V30 14168 C 1297.24 3.34656 -0.388238 0
M  V30 14169 O 1297.77 3.9849 0.506816 0
M  V30 14170 N 1295.97 2.89384 -0.265514 0
M  V30 14171 H 1295.52 2.37615 -0.994819 0
M  V30 14172 H 1295.48 3.09006 0.579889 0
M  V30 14173 N 1299.25 1.36039 0.795694 0
M  V30 14174 C 1300.2 1.29902 1.92946 0
M  V30 14175 C 1301.19 0.191943 1.68309 0
M  V30 14176 O 1302.4 0.358577 1.76392 0
M  V30 14177 H 1298.77 0.404252 0.634101 0
M  V30 14178 H 1300.74 2.25663 1.95241 0
M  V30 14179 C 1299.49 1.09887 3.29879 0
M  V30 14180 H 1298.82 1.94318 3.494 0
M  V30 14181 H 1300.26 1.09638 4.0958 0
M  V30 14182 C 1298.71 -0.196802 3.36325 0
M  V30 14183 O 1299.24 -1.18883 3.83705 0
M  V30 14184 N 1297.45 -0.239325 2.89613 0
M  V30 14185 H 1297 0.568571 2.51247 0
M  V30 14186 H 1296.96 -1.10593 2.94307 0
M  V30 14187 N 1300.73 -1.01913 1.20215 0
M  V30 14188 C 1301.68 -2.104 0.948708 0
M  V30 14189 C 1302.65 -1.65665 -0.120139 0
M  V30 14190 O 1303.83 -1.90785 0.0240547 0
M  V30 14191 C 1300.97 -3.41398 0.504132 0
M  V30 14192 C 1300.08 -3.99625 1.64085 0
M  V30 14193 C 1299.22 -5.18673 1.14683 0
M  V30 14194 C 1298.26 -5.68977 2.2568 0
M  V30 14195 N 1297.39 -6.79289 1.77514 0
M  V30 14196 H 1302.23 -2.31415 1.87753 0
M  V30 14197 H 1299.77 -1.13487 0.935901 0
M  V30 14198 H 1301.73 -4.16578 0.22771 0
M  V30 14199 H 1300.36 -3.20463 -0.387689 0
M  V30 14200 H 1299.41 -3.21565 2.03225 0
M  V30 14201 H 1300.72 -4.32965 2.47674 0
M  V30 14202 H 1299.88 -6.01048 0.826223 0
M  V30 14203 H 1298.62 -4.86891 0.280797 0
M  V30 14204 H 1297.62 -4.85208 2.5856 0
M  V30 14205 H 1298.85 -6.02794 3.12755 0
M  V30 14206 H 1296.79 -6.49341 0.932338 0
M  V30 14207 H 1296.71 -7.11808 2.54686 0
M  V30 14208 H 1297.98 -7.65235 1.48446 0
M  V30 14209 N 1302.21 -1.00763 -1.2118 0
M  V30 14210 C 1303.15 -0.563428 -2.25673 0
M  V30 14211 C 1304.15 0.393342 -1.6477 0
M  V30 14212 O 1305.35 0.264246 -1.7805 0
M  V30 14213 H 1301.73 -0.163862 -0.73393 0
M  V30 14214 H 1303.7 -1.45585 -2.60476 0
M  V30 14215 C 1302.45 0.0915599 -3.47579 0
M  V30 14216 H 1301.77 -0.635628 -3.94715 0
M  V30 14217 H 1303.21 0.36561 -4.22421 0
M  V30 14218 C 1301.67 1.33159 -3.09468 0
M  V30 14219 O 1302.2 2.42571 -3.20191 0
M  V30 14220 N 1300.41 1.21231 -2.64105 0
M  V30 14221 H 1299.95 0.322021 -2.55579 0
M  V30 14222 H 1299.91 2.04301 -2.38974 0
M  V30 14223 N 1303.68 1.3679 -0.7827 0
M  V30 14224 C 1304.59 2.33928 -0.17747 0
M  V30 14225 C 1305.61 1.60716 0.666802 0
M  V30 14226 O 1306.79 1.92742 0.584162 0
M  V30 14227 C 1303.85 3.39907 0.68294 0
M  V30 14228 C 1302.91 4.28926 -0.179053 0
M  V30 14229 C 1302.15 5.29844 0.640386 0
M  V30 14230 O 1302.37 5.38639 1.87681 0
M  V30 14231 O 1301.3 6.01884 0.0438164 0
M  V30 14232 H 1305.13 2.87439 -0.980441 0
M  V30 14233 H 1302.71 1.39142 -0.54404 0
M  V30 14234 H 1304.6 4.04722 1.17379 0
M  V30 14235 H 1303.27 2.88706 1.46391 0
M  V30 14236 H 1302.18 3.67174 -0.716512 0
M  V30 14237 H 1303.51 4.83461 -0.923377 0
M  V30 14238 N 1305.16 0.53415 1.48272 0
M  V30 14239 C 1306.58 0.192291 1.58437 0
M  V30 14240 C 1306.78 -1.3046 1.53566 0
M  V30 14241 O 1305.83 -2.08316 1.42692 0
M  V30 14242 C 1307.15 0.798515 2.89904 0
M  V30 14243 C 1308.7 0.76763 3.03441 0
M  V30 14244 C 1309.17 1.3525 4.37574 0
M  V30 14245 N 1310.66 1.31466 4.44152 0
M  V30 14246 C 1311.4 1.73706 5.46456 0
M  V30 14247 N 1310.89 2.23695 6.55692 0
M  V30 14248 N 1312.69 1.64918 5.37363 0
M  V30 14249 H 1304.84 1.50696 1.49681 0
M  V30 14250 H 1307.1 0.627073 0.710973 0
M  V30 14251 H 1306.81 1.8496 2.99136 0
M  V30 14252 H 1306.68 0.278033 3.76174 0
M  V30 14253 H 1309.07 -0.274704 2.93819 0
M  V30 14254 H 1309.15 1.32562 2.18771 0
M  V30 14255 H 1308.79 2.39379 4.47951 0
M  V30 14256 H 1308.72 0.770153 5.20938 0
M  V30 14257 H 1311.21 0.948761 3.65796 0
M  V30 14258 H 1311.53 2.5391 7.29897 0
M  V30 14259 H 1309.87 2.27691 6.56644 0
M  V30 14260 H 1313.06 1.25658 4.50919 0
M  V30 14261 H 1313.23 1.98157 6.16958 0
M  V30 14262 N 1306.64 -1.55279 0.269478 0
M  V30 14263 C 1307.59 -2.22304 -0.620435 0
M  V30 14264 C 1308.56 -1.19457 -1.15409 0
M  V30 14265 O 1309.74 -1.4798 -1.20443 0
M  V30 14266 C 1306.88 -2.94356 -1.80134 0
M  V30 14267 C 1306 -4.1191 -1.30207 0
M  V30 14268 C 1305.13 -4.71621 -2.44433 0
M  V30 14269 C 1304.17 -5.81379 -1.91481 0
M  V30 14270 N 1303.31 -6.35176 -2.99158 0
M  V30 14271 H 1308.15 -2.9797 -0.0422165 0
M  V30 14272 H 1305.68 -1.47097 -0.00907173 0
M  V30 14273 H 1307.64 -3.34343 -2.4954 0
M  V30 14274 H 1306.27 -2.21124 -2.35168 0
M  V30 14275 H 1305.32 -3.77082 -0.501301 0
M  V30 14276 H 1306.64 -4.9108 -0.874183 0
M  V30 14277 H 1305.79 -5.14298 -3.21842 0
M  V30 14278 H 1304.53 -3.91715 -2.90535 0
M  V30 14279 H 1303.53 -5.38157 -1.12549 0
M  V30 14280 H 1304.76 -6.63149 -1.46322 0
M  V30 14281 H 1302.7 -5.58167 -3.44652 0
M  V30 14282 H 1302.62 -7.09602 -2.60769 0
M  V30 14283 H 1303.89 -6.82512 -3.7656 0
M  V30 14284 N 1308.12 0.00332656 -1.576 0
M  V30 14285 C 1309.4 0.725722 -1.81639 0
M  V30 14286 C 1309.78 1.92173 -0.87365 0
M  V30 14287 O 1309.12 2.28365 0.0783931 0
M  V30 14288 C 1309.33 1.13458 -3.30043 0
M  V30 14289 C 1310.68 1.53982 -3.95695 0
M  V30 14290 O 1311.71 1.22846 -3.34346 0
M  V30 14291 O 1310.56 2.11866 -5.03761 0
M  V30 14292 H 1307.66 0.353083 -0.747838 0
M  V30 14293 H 1310.2 -0.0218724 -1.69686 0
M  V30 14294 H 1308.98 0.281925 -3.90283 0
M  V30 14295 H 1308.6 1.94138 -3.46982 0
M  V30 14296 N 1309.6 1.55164 0.276031 0
M  V30 14297 C 1310.54 1.88623 1.36104 0
M  V30 14298 C 1311.54 0.762265 1.51281 0
M  V30 14299 O 1312.74 0.946573 1.53101 0
M  V30 14300 H 1309.12 0.59863 0.455133 0
M  V30 14301 H 1311.09 2.79266 1.05134 0
M  V30 14302 C 1309.84 2.17207 2.71508 0
M  V30 14303 H 1309.16 3.03179 2.6062 0
M  V30 14304 H 1310.6 2.44541 3.46375 0
M  V30 14305 C 1309.06 0.978671 3.22372 0
M  V30 14306 O 1309.59 0.211766 4.01141 0
M  V30 14307 N 1307.8 0.777199 2.80014 0
M  V30 14308 H 1307.34 1.40252 2.16072 0
M  V30 14309 H 1307.3 -0.0196754 3.14394 0
M  V30 14310 N 1311.07 -0.540404 1.48045 0
M  V30 14311 C 1312.32 -1.2987 1.55762 0
M  V30 14312 C 1312.65 -1.92877 0.226307 0
M  V30 14313 O 1311.93 -1.7875 -0.766727 0
M  V30 14314 C 1312.21 -2.39602 2.68817 0
M  V30 14315 C 1312.06 -1.81354 4.1162 0
M  V30 14316 C 1313.38 -3.41434 2.77688 0
M  V30 14317 H 1310.5 -0.47083 0.566999 0
M  V30 14318 H 1313.14 -0.603081 1.80175 0
M  V30 14319 H 1311.29 -2.98936 2.48132 0
M  V30 14320 H 1312.97 -1.26151 4.43716 0
M  V30 14321 H 1311.21 -1.1194 4.19108 0
M  V30 14322 H 1311.88 -2.60758 4.86528 0
M  V30 14323 H 1314.36 -2.92042 2.96396 0
M  V30 14324 H 1313.23 -4.15621 3.5854 0
M  V30 14325 H 1313.49 -4.01336 1.85422 0
M  V30 14326 N 1312.55 -1.36459 -0.788468 0
M  V30 14327 C 1313.8 -1.3007 -1.54158 0
M  V30 14328 C 1314.11 0.117574 -1.95246 0
M  V30 14329 O 1315.32 0.303837 -2.69795 0
M  V30 14330 C 1313.78 -2.28216 -2.78291 0
M  V30 14331 C 1313.38 -3.75484 -2.44368 0
M  V30 14332 C 1315.13 -2.30806 -3.56271 0
M  V30 14333 C 1313.04 -4.65404 -3.64902 0
M  V30 14334 H 1311.97 -0.483345 -0.5787 0
M  V30 14335 H 1314.62 -1.61827 -0.865123 0
M  V30 14336 H 1313 -1.89454 -3.4774 0
M  V30 14337 H 1314.17 -4.22986 -1.82809 0
M  V30 14338 H 1312.49 -3.75678 -1.79597 0
M  V30 14339 H 1315.08 -2.95196 -4.45829 0
M  V30 14340 H 1315.43 -1.31687 -3.94923 0
M  V30 14341 H 1315.96 -2.68189 -2.93802 0
M  V30 14342 H 1312.7 -5.65589 -3.31344 0
M  V30 14343 H 1312.22 -4.22617 -4.25623 0
M  V30 14344 H 1313.9 -4.81721 -4.31919 0
M  V30 14345 N 1314.03 1.01274 -1.20754 0
M  V30 14346 C 1315.28 1.74586 -1.01804 0
M  V30 14347 C 1315.6 1.89727 0.450419 0
M  V30 14348 O 1314.87 1.44257 1.32539 0
M  V30 14349 H 1313.45 0.646804 -0.373702 0
M  V30 14350 H 1316.11 1.22079 -1.5193 0
M  V30 14351 H 1315.21 2.748 -1.47958 0
M  V30 14352 N 1315.51 1.01404 1.20644 0
M  V30 14353 C 1316.46 0.582109 2.23339 0
M  V30 14354 C 1317.43 -0.39649 1.61298 0
M  V30 14355 O 1318.61 -0.296504 1.88482 0
M  V30 14356 C 1315.75 -0.076029 3.45016 0
M  V30 14357 C 1314.86 0.946829 4.21496 0
M  V30 14358 C 1314 0.26001 5.30563 0
M  V30 14359 C 1313.04 1.2698 5.98784 0
M  V30 14360 N 1312.18 0.609827 6.99447 0
M  V30 14361 H 1317.02 1.46248 2.59645 0
M  V30 14362 H 1314.55 0.732145 1.27585 0
M  V30 14363 H 1316.51 -0.474714 4.1449 0
M  V30 14364 H 1315.14 -0.920062 3.0941 0
M  V30 14365 H 1314.19 1.4637 3.51113 0
M  V30 14366 H 1315.5 1.71491 4.68393 0
M  V30 14367 H 1314.66 -0.19431 6.06389 0
M  V30 14368 H 1313.4 -0.540395 4.84697 0
M  V30 14369 H 1312.4 1.73453 5.21722 0
M  V30 14370 H 1313.63 2.07144 6.46737 0
M  V30 14371 H 1311.57 -0.170756 6.55778 0
M  V30 14372 H 1311.49 1.31601 7.44458 0
M  V30 14373 H 1312.76 0.179014 7.79294 0
M  V30 14374 N 1316.99 -1.36373 0.789944 0
M  V30 14375 C 1317.9 -2.3383 0.189873 0
M  V30 14376 C 1318.91 -1.61068 -0.65827 0
M  V30 14377 O 1320.09 -1.93049 -0.573932 0
M  V30 14378 C 1317.15 -3.40264 -0.664905 0
M  V30 14379 C 1316.22 -4.28825 0.201798 0
M  V30 14380 C 1315.45 -5.30176 -0.612278 0
M  V30 14381 O 1315.67 -5.39627 -1.84821 0
M  V30 14382 O 1314.61 -6.01899 -0.0118964 0
M  V30 14383 H 1318.43 -2.86915 0.995671 0
M  V30 14384 H 1316.02 -1.38852 0.551412 0
M  V30 14385 H 1317.9 -4.05339 -1.15231 0
M  V30 14386 H 1316.57 -2.89478 -1.44858 0
M  V30 14387 H 1315.48 -3.66789 0.735974 0
M  V30 14388 H 1316.81 -4.82965 0.949003 0
M  V30 14389 N 1318.47 -0.542005 -1.47987 0
M  V30 14390 C 1319.71 -0.010246 -2.01697 0
M  V30 14391 C 1320.03 1.34173 -1.42327 0
M  V30 14392 O 1321.23 1.96254 -1.87607 0
M  V30 14393 C 1319.69 0.0321032 -3.59886 0
M  V30 14394 C 1319.3 -1.31571 -4.28244 0
M  V30 14395 C 1321.04 0.512056 -4.214 0
M  V30 14396 C 1318.95 -1.23329 -5.78398 0
M  V30 14397 H 1317.88 -6.02097e-05 -0.754 0
M  V30 14398 H 1320.53 -0.687586 -1.70131 0
M  V30 14399 H 1318.91 0.774774 -3.88347 0
M  V30 14400 H 1320.09 -2.07489 -4.11442 0
M  V30 14401 H 1318.4 -1.73237 -3.78653 0
M  V30 14402 H 1321 0.591875 -5.31414 0
M  V30 14403 H 1321.34 1.52061 -3.87535 0
M  V30 14404 H 1321.87 -0.175293 -3.97414 0
M  V30 14405 H 1318.61 -2.21737 -6.16857 0
M  V30 14406 H 1318.13 -0.51567 -5.97579 0
M  V30 14407 H 1319.81 -0.928975 -6.40296 0
M  V30 14408 N 1319.94 1.55134 -0.277709 0
M  V30 14409 C 1320.88 2.18745 0.650058 0
M  V30 14410 C 1321.85 1.14922 1.15029 0
M  V30 14411 O 1323.04 1.43458 1.22278 0
M  V30 14412 C 1320.17 2.81277 1.88683 0
M  V30 14413 C 1319.21 3.98425 1.52185 0
M  V30 14414 S 1320.04 5.32153 0.597782 0
M  V30 14415 C 1321.2 5.98155 1.84287 0
M  V30 14416 H 1321.43 2.97098 0.109571 0
M  V30 14417 H 1318.97 1.54276 -0.0619536 0
M  V30 14418 H 1320.92 3.17934 2.59669 0
M  V30 14419 H 1319.59 2.02813 2.39845 0
M  V30 14420 H 1318.78 4.40877 2.4422 0
M  V30 14421 H 1318.38 3.63203 0.892146 0
M  V30 14422 H 1320.67 6.17546 2.78646 0
M  V30 14423 H 1321.62 6.92857 1.46131 0
M  V30 14424 H 1322.02 5.27541 2.00899 0
M  V30 14425 N 1321.42 0.00503138 1.57599 0
M  V30 14426 C 1322.37 -0.984754 2.08737 0
M  V30 14427 C 1323.34 -1.33822 0.983915 0
M  V30 14428 O 1324.52 -1.43572 1.25665 0
M  V30 14429 C 1321.66 -2.26984 2.59946 0
M  V30 14430 C 1320.78 -1.97496 3.84212 0
M  V30 14431 C 1319.91 -3.20123 4.23904 0
M  V30 14432 C 1318.95 -2.86344 5.40993 0
M  V30 14433 N 1318.09 -4.01524 5.75954 0
M  V30 14434 H 1322.93 -0.541737 2.93034 0
M  V30 14435 H 1320.46 -0.255834 1.44858 0
M  V30 14436 H 1322.42 -3.02117 2.87717 0
M  V30 14437 H 1321.05 -2.68946 1.78516 0
M  V30 14438 H 1320.1 -1.12709 3.63319 0
M  V30 14439 H 1321.42 -1.68602 4.69441 0
M  V30 14440 H 1320.57 -4.03598 4.52983 0
M  V30 14441 H 1319.31 -3.5216 3.37394 0
M  V30 14442 H 1318.31 -2.01278 5.11632 0
M  V30 14443 H 1319.54 -2.5555 6.29183 0
M  V30 14444 H 1317.49 -4.33447 4.92402 0
M  V30 14445 H 1317.4 -3.76171 6.55768 0
M  V30 14446 H 1318.67 -4.85772 6.09628 0
M  V30 14447 N 1322.9 -1.55308 -0.267798 0
M  V30 14448 C 1323.81 -1.91649 -1.35307 0
M  V30 14449 C 1324.83 -0.814349 -1.53767 0
M  V30 14450 O 1326 -1.11388 -1.67793 0
M  V30 14451 C 1323.07 -2.18553 -2.69138 0
M  V30 14452 C 1322.13 -3.42083 -2.5938 0
M  V30 14453 C 1321.36 -3.67695 -3.86828 0
M  V30 14454 O 1321.58 -2.95728 -4.87751 0
M  V30 14455 O 1320.52 -4.61229 -3.86718 0
M  V30 14456 H 1324.34 -2.84044 -1.07483 0
M  V30 14457 H 1321.93 -1.41921 -0.466772 0
M  V30 14458 H 1323.81 -2.3726 -3.48261 0
M  V30 14459 H 1322.49 -1.2934 -2.96737 0
M  V30 14460 H 1321.39 -3.28706 -1.78614 0
M  V30 14461 H 1322.73 -4.31532 -2.36729 0
M  V30 14462 N 1324.38 0.532545 -1.4833 0
M  V30 14463 C 1325.65 1.29371 -1.46705 0
M  V30 14464 C 1326.03 2.10354 -0.177329 0
M  V30 14465 O 1325.38 2.12462 0.840968 0
M  V30 14466 C 1325.59 2.17733 -2.72751 0
M  V30 14467 C 1326.94 2.77956 -3.20976 0
M  V30 14468 O 1327.96 2.28022 -2.7365 0
M  V30 14469 O 1326.82 3.68779 -4.03317 0
M  V30 14470 H 1323.92 0.58378 -0.585773 0
M  V30 14471 H 1326.46 0.549411 -1.6056 0
M  V30 14472 H 1325.24 1.57659 -3.58133 0
M  V30 14473 H 1324.86 2.99415 -2.61603 0
M  V30 14474 N 1325.86 1.36875 0.78122 0
M  V30 14475 C 1327.1 1.31754 1.54171 0
M  V30 14476 C 1327.43 -0.100632 1.93939 0
M  V30 14477 O 1326.71 -1.05587 1.63345 0
M  V30 14478 C 1326.99 2.24789 2.81322 0
M  V30 14479 C 1326.85 3.75342 2.47868 0
M  V30 14480 C 1328.16 2.16442 3.83198 0
M  V30 14481 H 1325.28 0.479931 0.559317 0
M  V30 14482 H 1327.93 1.67497 0.896935 0
M  V30 14483 H 1326.08 1.94438 3.36342 0
M  V30 14484 H 1327.75 4.16247 1.98836 0
M  V30 14485 H 1325.99 3.94375 1.80696 0
M  V30 14486 H 1326.66 4.3586 3.38719 0
M  V30 14487 H 1329.14 2.43175 3.37647 0
M  V30 14488 H 1328.01 2.83695 4.69903 0
M  V30 14489 H 1328.27 1.15431 4.26765 0
M  V30 14490 N 1327.33 -1.00632 1.21289 0
M  V30 14491 C 1328.28 -2.11502 0.96798 0
M  V30 14492 C 1329.28 -1.6919 -0.0843024 0
M  V30 14493 O 1330.48 -1.79875 0.06697 0
M  V30 14494 H 1326.86 -0.691398 0.295759 0
M  V30 14495 H 1328.83 -2.29337 1.90911 0
M  V30 14496 C 1327.58 -3.43357 0.547818 0
M  V30 14497 H 1326.9 -3.76348 1.34915 0
M  V30 14498 H 1328.34 -4.21957 0.415759 0
M  V30 14499 C 1326.8 -3.28648 -0.741086 0
M  V30 14500 O 1327.33 -3.59267 -1.79695 0
M  V30 14501 N 1325.53 -2.81866 -0.707084 0
M  V30 14502 H 1325.08 -2.57149 0.152447 0
M  V30 14503 H 1325.04 -2.72406 -1.56979 0
M  V30 14504 N 1328.81 -1.02043 -1.20104 0
M  V30 14505 C 1329.72 -0.603724 -2.26699 0
M  V30 14506 C 1330.74 0.360558 -1.70223 0
M  V30 14507 O 1331.91 0.220552 -2.00189 0
M  V30 14508 C 1328.98 0.0475988 -3.46667 0
M  V30 14509 C 1328.04 -0.963111 -4.18357 0
M  V30 14510 C 1327.27 -0.342775 -5.32598 0
M  V30 14511 O 1327.5 0.856509 -5.63933 0
M  V30 14512 O 1326.43 -1.06141 -5.92467 0
M  V30 14513 H 1330.26 -1.49125 -2.64566 0
M  V30 14514 H 1327.84 -0.790134 -1.26796 0
M  V30 14515 H 1329.72 0.411177 -4.19389 0
M  V30 14516 H 1328.4 0.909266 -3.10667 0
M  V30 14517 H 1327.3 -1.37813 -3.47791 0
M  V30 14518 H 1328.64 -1.79487 -4.58307 0
M  V30 14519 N 1330.29 1.35952 -0.797165 0
M  V30 14520 C 1331.24 2.29941 -0.198995 0
M  V30 14521 C 1332.21 1.52355 0.661592 0
M  V30 14522 O 1333.39 1.80832 0.60865 0
M  V30 14523 C 1330.53 3.38846 0.654033 0
M  V30 14524 C 1329.65 4.31409 -0.225949 0
M  V30 14525 C 1328.78 5.27401 0.634188 0
M  V30 14526 C 1327.82 6.11602 -0.246773 0
M  V30 14527 N 1326.96 6.9976 0.57279 0
M  V30 14528 H 1331.8 2.80508 -1.00594 0
M  V30 14529 H 1329.33 1.38064 -0.507617 0
M  V30 14530 H 1331.29 4.00643 1.16367 0
M  V30 14531 H 1329.92 2.89578 1.42633 0
M  V30 14532 H 1328.97 3.70699 -0.853616 0
M  V30 14533 H 1330.29 4.90532 -0.904416 0
M  V30 14534 H 1329.44 5.94525 1.20933 0
M  V30 14535 H 1328.18 4.68751 1.34625 0
M  V30 14536 H 1327.18 5.43434 -0.834258 0
M  V30 14537 H 1328.41 6.72329 -0.956559 0
M  V30 14538 H 1326.35 6.43609 1.26901 0
M  V30 14539 H 1326.27 7.55985 -0.0478303 0
M  V30 14540 H 1327.54 7.71244 1.13151 0
M  V30 14541 N 1331.77 0.549846 1.47697 0
M  V30 14542 C 1333.05 -0.0422793 1.95554 0
M  V30 14543 C 1333.43 -1.49303 1.49238 0
M  V30 14544 O 1332.77 -2.16598 0.727844 0
M  V30 14545 C 1332.98 0.0955552 3.48869 0
M  V30 14546 C 1334.33 -0.0535698 4.24566 0
M  V30 14547 O 1335.36 0.0227365 3.56193 0
M  V30 14548 O 1334.21 -0.21645 5.46071 0
M  V30 14549 H 1331.31 -0.0682465 0.824179 0
M  V30 14550 H 1333.85 0.615849 1.58131 0
M  V30 14551 H 1332.63 1.10536 3.75363 0
M  V30 14552 H 1332.25 -0.600522 3.93039 0
M  V30 14553 N 1333.25 -1.54984 0.285932 0
M  V30 14554 C 1334.47 -2.04239 -0.330774 0
M  V30 14555 C 1334.89 -1.16387 -1.48659 0
M  V30 14556 O 1334.25 -0.186255 -1.81547 0
M  V30 14557 C 1334.3 -3.52504 -0.801456 0
M  V30 14558 O 1334.02 -4.37014 0.30834 0
M  V30 14559 C 1335.52 -4.17692 -1.48487 0
M  V30 14560 H 1332.74 -0.666903 -0.0740351 0
M  V30 14561 H 1335.28 -2.00116 0.421178 0
M  V30 14562 H 1333.44 -3.57036 -1.50347 0
M  V30 14563 H 1333.85 -5.24471 -0.0553891 0
M  V30 14564 H 1335.33 -5.23004 -1.76552 0
M  V30 14565 H 1335.8 -3.66515 -2.41999 0
M  V30 14566 H 1336.41 -4.17193 -0.826428 0
M  V30 14567 N 1334.72 -0.0133892 -1.57594 0
M  V30 14568 C 1335.69 0.958601 -2.08191 0
M  V30 14569 C 1336.69 1.26408 -0.993865 0
M  V30 14570 O 1337.88 1.20703 -1.25604 0
M  V30 14571 C 1335.01 2.27971 -2.5346 0
M  V30 14572 H 1336.2 0.520686 -2.95345 0
M  V30 14573 H 1333.76 0.234351 -1.54533 0
M  V30 14574 H 1334.49 2.76424 -1.69588 0
M  V30 14575 H 1334.28 2.07116 -3.32935 0
M  V30 14576 H 1335.77 2.97672 -2.92884 0
M  V30 14577 N 1336.2 1.55448 0.259558 0
M  V30 14578 C 1337.15 1.90056 1.34096 0
M  V30 14579 C 1338.14 0.778267 1.50464 0
M  V30 14580 O 1339.35 0.962758 1.52089 0
M  V30 14581 H 1335.73 0.603424 0.448758 0
M  V30 14582 H 1337.7 2.80365 1.02166 0
M  V30 14583 C 1336.45 2.20074 2.69189 0
M  V30 14584 H 1335.77 3.05926 2.57389 0
M  V30 14585 H 1337.21 2.48201 3.43762 0
M  V30 14586 C 1335.67 1.01281 3.21316 0
M  V30 14587 O 1336.2 0.2543 4.00894 0
M  V30 14588 N 1334.4 0.806855 2.79174 0
M  V30 14589 H 1333.95 1.42536 2.14572 0
M  V30 14590 H 1333.91 0.0136714 3.14397 0
M  V30 14591 N 1337.68 -0.524672 1.4861 0
M  V30 14592 C 1338.63 -1.62872 1.63527 0
M  V30 14593 C 1339.6 -1.59097 0.477202 0
M  V30 14594 O 1340.78 -1.77443 0.701341 0
M  V30 14595 C 1337.92 -3.01116 1.68592 0
M  V30 14596 C 1337.04 -3.15085 2.95542 0
M  V30 14597 C 1336.17 -4.4392 2.91734 0
M  V30 14598 C 1335.21 -4.51436 4.13366 0
M  V30 14599 N 1334.35 -5.71667 4.07605 0
M  V30 14600 H 1339.19 -1.49462 2.57808 0
M  V30 14601 H 1336.72 -0.727578 1.27846 0
M  V30 14602 H 1338.68 -3.81212 1.6951 0
M  V30 14603 H 1337.31 -3.13285 0.777975 0
M  V30 14604 H 1336.36 -2.28207 3.04345 0
M  V30 14605 H 1337.68 -3.165 3.85524 0
M  V30 14606 H 1336.83 -5.32312 2.91083 0
M  V30 14607 H 1335.57 -4.45034 1.9949 0
M  V30 14608 H 1334.57 -3.6145 4.14287 0
M  V30 14609 H 1335.8 -4.52057 5.06776 0
M  V30 14610 H 1333.74 -5.73668 3.18184 0
M  V30 14611 H 1333.66 -5.74599 4.91297 0
M  V30 14612 H 1334.93 -6.62331 4.1102 0
M  V30 14613 N 1339.16 -1.37287 -0.77395 0
M  V30 14614 C 1340.44 -1.2291 -1.52159 0
M  V30 14615 C 1340.82 0.178249 -2.10346 0
M  V30 14616 O 1340.16 1.18564 -1.95333 0
M  V30 14617 C 1340.37 -2.32337 -2.60424 0
M  V30 14618 C 1341.72 -2.69769 -3.27887 0
M  V30 14619 O 1342.75 -2.31497 -2.70717 0
M  V30 14620 O 1341.6 -3.35699 -4.31241 0
M  V30 14621 H 1338.7 -0.47948 -0.673816 0
M  V30 14622 H 1341.24 -1.49061 -0.811105 0
M  V30 14623 H 1340.02 -3.26591 -2.15532 0
M  V30 14624 H 1339.64 -2.07638 -3.39076 0
M  V30 14625 N 1340.64 0.999871 -1.21821 0
M  V30 14626 C 1341.58 2.08864 -0.98206 0
M  V30 14627 C 1342.55 1.65835 0.0937677 0
M  V30 14628 O 1343.74 1.90722 -0.0544038 0
M  V30 14629 C 1340.88 3.40553 -0.558382 0
M  V30 14630 C 1339.99 3.96964 -1.70422 0
M  V30 14631 C 1339.13 5.16782 -1.2292 0
M  V30 14632 C 1338.17 5.65315 -2.34703 0
M  V30 14633 N 1337.3 6.76379 -1.88299 0
M  V30 14634 H 1342.14 2.28399 -1.9141 0
M  V30 14635 H 1339.68 1.11984 -0.953837 0
M  V30 14636 H 1341.64 4.16163 -0.293955 0
M  V30 14637 H 1340.27 3.2104 0.336656 0
M  V30 14638 H 1339.32 3.18291 -2.08315 0
M  V30 14639 H 1340.63 4.2897 -2.54531 0
M  V30 14640 H 1339.79 5.99657 -0.92174 0
M  V30 14641 H 1338.52 4.86383 -0.358222 0
M  V30 14642 H 1337.53 4.81033 -2.66246 0
M  V30 14643 H 1338.75 5.97742 -3.22306 0
M  V30 14644 H 1336.7 6.47775 -1.03552 0
M  V30 14645 H 1336.62 7.07666 -2.65978 0
M  V30 14646 H 1337.89 7.62776 -1.60601 0
M  V30 14647 N 1342.11 1.02678 1.19562 0
M  V30 14648 C 1343.02 0.615738 2.26375 0
M  V30 14649 C 1344.04 -0.351525 1.70412 0
M  V30 14650 O 1345.22 -0.209932 2.00303 0
M  V30 14651 C 1342.28 -0.0292135 3.46688 0
M  V30 14652 C 1341.34 0.985284 4.1784 0
M  V30 14653 C 1340.58 0.371016 5.32409 0
M  V30 14654 O 1340.8 -0.826591 5.64379 0
M  V30 14655 O 1339.73 1.09282 5.91896 0
M  V30 14656 H 1343.56 1.50526 2.63772 0
M  V30 14657 H 1341.14 0.796847 1.26375 0
M  V30 14658 H 1343.03 -0.38893 4.19601 0
M  V30 14659 H 1341.7 -0.892778 3.11145 0
M  V30 14660 H 1340.61 1.39655 3.47055 0
M  V30 14661 H 1341.94 1.81915 4.57349 0
M  V30 14662 N 1343.59 -1.35528 0.804364 0
M  V30 14663 C 1344.84 -1.98084 0.380196 0
M  V30 14664 C 1345.15 -1.64531 -1.05778 0
M  V30 14665 O 1346.36 -2.20435 -1.58495 0
M  V30 14666 C 1344.82 -3.54364 0.628848 0
M  V30 14667 C 1344.42 -3.96828 2.07921 0
M  V30 14668 C 1346.17 -4.23641 0.269927 0
M  V30 14669 C 1344.08 -5.45944 2.27374 0
M  V30 14670 H 1343.01 -0.741185 0.138422 0
M  V30 14671 H 1345.66 -1.54624 0.988107 0
M  V30 14672 H 1344.04 -3.9597 -0.0489837 0
M  V30 14673 H 1345.21 -3.6638 2.79467 0
M  V30 14674 H 1343.53 -3.40433 2.39779 0
M  V30 14675 H 1346.12 -5.33251 0.393344 0
M  V30 14676 H 1346.47 -4.08858 -0.783644 0
M  V30 14677 H 1347 -3.87448 0.901588 0
M  V30 14678 H 1343.74 -5.65693 3.31168 0
M  V30 14679 H 1343.26 -5.77969 1.6035 0
M  V30 14680 H 1344.94 -6.12376 2.08817 0
M  V30 14681 N 1345.07 -0.557671 -1.47404 0
M  V30 14682 C 1345.98 0.19289 -2.33806 0
M  V30 14683 C 1347 0.911424 -1.4822 0
M  V30 14684 O 1348.17 0.880214 -1.81147 0
M  V30 14685 C 1345.24 1.20937 -3.24923 0
M  V30 14686 C 1344.3 0.498209 -4.26399 0
M  V30 14687 C 1343.53 1.46626 -5.13163 0
M  V30 14688 O 1343.76 2.70111 -5.0239 0
M  V30 14689 O 1342.69 0.990497 -5.93694 0
M  V30 14690 H 1346.52 -0.515861 -2.99287 0
M  V30 14691 H 1344.1 -0.318283 -1.4597 0
M  V30 14692 H 1345.98 1.7961 -3.81206 0
M  V30 14693 H 1344.66 1.90003 -2.6207 0
M  V30 14694 H 1343.56 -0.129736 -3.73875 0
M  V30 14695 H 1344.9 -0.151015 -4.91968 0
M  V30 14696 N 1346.55 1.54831 -0.294147 0
M  V30 14697 C 1347.48 2.20696 0.61854 0
M  V30 14698 C 1348.49 1.19754 1.10285 0
M  V30 14699 O 1349.68 1.46383 1.02148 0
M  V30 14700 C 1346.78 2.83429 1.85798 0
M  V30 14701 C 1345.96 4.10239 1.51731 0
M  V30 14702 C 1345.02 4.56841 2.61119 0
M  V30 14703 O 1344.04 5.22194 2.26501 0
M  V30 14704 N 1345.24 4.2858 3.91534 0
M  V30 14705 H 1348.01 2.9965 0.054714 0
M  V30 14706 H 1345.57 1.61484 -0.116052 0
M  V30 14707 H 1347.56 3.11541 2.5831 0
M  V30 14708 H 1346.13 2.08356 2.33038 0
M  V30 14709 H 1345.35 3.89212 0.625142 0
M  V30 14710 H 1346.64 4.92824 1.26499 0
M  V30 14711 H 1346.04 3.7621 4.22472 0
M  V30 14712 H 1344.59 4.61418 4.60366 0
M  V30 14713 N 1348.03 0.0217466 1.57585 0
M  V30 14714 C 1348.94 -0.978407 2.13224 0
M  V30 14715 C 1349.95 -1.36212 1.08269 0
M  V30 14716 O 1351.13 -1.44504 1.40288 0
M  V30 14717 C 1348.19 -2.24462 2.6423 0
M  V30 14718 C 1347.26 -1.92201 3.83871 0
M  V30 14719 C 1346.49 -3.12786 4.32436 0
M  V30 14720 O 1346.71 -4.25201 3.8021 0
M  V30 14721 O 1345.65 -2.95514 5.24362 0
M  V30 14722 H 1349.47 -0.535347 2.98944 0
M  V30 14723 H 1347.06 -0.198414 1.48077 0
M  V30 14724 H 1348.94 -2.98809 2.97138 0
M  V30 14725 H 1347.61 -2.67964 1.81596 0
M  V30 14726 H 1346.52 -1.15262 3.55901 0
M  V30 14727 H 1347.85 -1.53521 4.67645 0
M  V30 14728 N 1349.51 -1.55583 -0.251311 0
M  V30 14729 C 1350.45 -1.89946 -1.31108 0
M  V30 14730 C 1351.42 -0.753209 -1.4804 0
M  V30 14731 O 1352.61 -1.00646 -1.62095 0
M  V30 14732 C 1349.75 -2.19576 -2.66233 0
M  V30 14733 C 1348.86 -3.46983 -2.57345 0
M  V30 14734 C 1348 -3.66206 -3.84794 0
M  V30 14735 C 1347.03 -4.87229 -3.70505 0
M  V30 14736 N 1346.17 -5.02996 -4.89836 0
M  V30 14737 H 1351.01 -2.80325 -1.01104 0
M  V30 14738 H 1348.55 -1.3877 -0.487986 0
M  V30 14739 H 1350.51 -2.3476 -3.44882 0
M  V30 14740 H 1349.14 -1.32406 -2.94395 0
M  V30 14741 H 1348.19 -3.40156 -1.70289 0
M  V30 14742 H 1349.5 -4.35776 -2.42695 0
M  V30 14743 H 1348.65 -3.81324 -4.71886 0
M  V30 14744 H 1347.39 -2.75638 -4.02337 0
M  V30 14745 H 1346.4 -4.72092 -2.81797 0
M  V30 14746 H 1347.62 -5.79253 -3.54462 0
M  V30 14747 H 1345.57 -4.15364 -5.07748 0
M  V30 14748 H 1345.49 -5.8587 -4.778 0
M  V30 14749 H 1346.75 -5.22521 -5.78439 0
M  V30 14750 N 1350.98 0.516783 -1.48886 0
M  V30 14751 C 1351.89 1.6467 -1.67095 0
M  V30 14752 C 1352.91 1.64963 -0.553466 0
M  V30 14753 O 1354.09 1.83673 -0.826206 0
M  V30 14754 C 1351.15 3.01095 -1.71879 0
M  V30 14755 C 1350.21 3.11554 -2.95352 0
M  V30 14756 C 1349.44 4.41471 -2.99898 0
M  V30 14757 O 1349.67 5.29348 -2.12477 0
M  V30 14758 O 1348.6 4.56573 -3.92205 0
M  V30 14759 H 1352.43 1.52242 -2.62785 0
M  V30 14760 H 1350.01 0.69134 -1.32442 0
M  V30 14761 H 1351.89 3.82207 -1.77471 0
M  V30 14762 H 1350.57 3.1382 -0.793656 0
M  V30 14763 H 1349.48 2.29689 -2.95286 0
M  V30 14764 H 1350.81 3.03751 -3.87294 0
M  V30 14765 N 1352.46 1.37696 0.766659 0
M  V30 14766 C 1353.41 1.33871 1.88009 0
M  V30 14767 C 1354.38 0.2034 1.6485 0
M  V30 14768 O 1355.56 0.393569 1.86697 0
M  V30 14769 C 1352.7 1.1566 3.25141 0
M  V30 14770 C 1351.82 2.38465 3.6022 0
M  V30 14771 C 1350.95 2.13087 4.86587 0
M  V30 14772 C 1349.99 3.31732 5.14413 0
M  V30 14773 N 1349.13 3.05872 6.3197 0
M  V30 14774 H 1353.97 2.29065 1.90613 0
M  V30 14775 H 1351.5 1.13821 0.931837 0
M  V30 14776 H 1353.46 1.03122 4.04255 0
M  V30 14777 H 1352.09 0.241115 3.21898 0
M  V30 14778 H 1351.14 2.61725 2.76051 0
M  V30 14779 H 1352.46 3.26933 3.76718 0
M  V30 14780 H 1351.61 1.97609 5.73616 0
M  V30 14781 H 1350.35 1.21965 4.72203 0
M  V30 14782 H 1349.35 3.47743 4.25858 0
M  V30 14783 H 1350.58 4.23712 5.30702 0
M  V30 14784 H 1348.53 2.17384 6.18935 0
M  V30 14785 H 1348.44 3.87885 6.48908 0
M  V30 14786 H 1349.71 2.94023 7.21922 0
M  V30 14787 N 1353.94 -0.993397 1.22349 0
M  V30 14788 C 1354.85 -2.11771 1.00947 0
M  V30 14789 C 1355.87 -1.73949 -0.0420679 0
M  V30 14790 O 1357.04 -2.00837 0.150548 0
M  V30 14791 C 1354.11 -3.41654 0.589359 0
M  V30 14792 C 1353.17 -3.93579 1.71446 0
M  V30 14793 C 1352.4 -5.17264 1.3143 0
M  V30 14794 O 1352.62 -5.70074 0.192876 0
M  V30 14795 O 1351.56 -5.62929 2.13059 0
M  V30 14796 H 1355.38 -2.32708 1.95142 0
M  V30 14797 H 1352.97 -1.10144 1.00939 0
M  V30 14798 H 1354.85 -4.19813 0.365403 0
M  V30 14799 H 1353.53 -3.22077 -0.323738 0
M  V30 14800 H 1352.43 -3.16596 1.99294 0
M  V30 14801 H 1353.77 -4.17588 2.6054 0
M  V30 14802 N 1355.42 -1.03311 -1.19015 0
M  V30 14803 C 1356.33 -0.627735 -2.26046 0
M  V30 14804 C 1357.34 0.342483 -1.70596 0
M  V30 14805 O 1358.52 0.199307 -2.00411 0
M  V30 14806 C 1355.58 0.0108274 -3.46698 0
M  V30 14807 C 1354.65 -1.00743 -4.17312 0
M  V30 14808 C 1353.88 -0.399245 -5.32205 0
M  V30 14809 O 1354.1 0.796649 -5.64809 0
M  V30 14810 O 1353.04 -1.12419 -5.91308 0
M  V30 14811 H 1356.86 -1.51923 -2.6297 0
M  V30 14812 H 1354.45 -0.803538 -1.25951 0
M  V30 14813 H 1356.33 0.366672 -4.19802 0
M  V30 14814 H 1355 0.876265 -3.11614 0
M  V30 14815 H 1353.91 -1.41494 -3.4631 0
M  V30 14816 H 1355.24 -1.84338 -4.56377 0
M  V30 14817 N 1356.9 1.35099 -0.81154 0
M  V30 14818 C 1358.14 1.9892 -0.394815 0
M  V30 14819 C 1358.47 1.6422 1.0366 0
M  V30 14820 O 1357.75 0.908031 1.72003 0
M  V30 14821 C 1358.03 3.55331 -0.58413 0
M  V30 14822 C 1357.89 3.99812 -2.06084 0
M  V30 14823 C 1359.2 4.40098 -0.0129096 0
M  V30 14824 H 1356.32 0.72261 -0.144926 0
M  V30 14825 H 1358.97 1.60173 -1.02199 0
M  V30 14826 H 1357.12 3.88468 -0.0502446 0
M  V30 14827 H 1358.79 3.77061 -2.65749 0
M  V30 14828 H 1357.03 3.50539 -2.55548 0
M  V30 14829 H 1357.7 5.08655 -2.14416 0
M  V30 14830 H 1360.18 4.13449 -0.468917 0
M  V30 14831 H 1359.05 5.4862 -0.175252 0
M  V30 14832 H 1359.31 4.28675 1.0812 0
M  V30 14833 N 1358.37 0.56548 1.47106 0
M  V30 14834 C 1359.32 -0.177564 2.30116 0
M  V30 14835 C 1360.29 -0.900534 1.39569 0
M  V30 14836 O 1361.48 -0.894603 1.68527 0
M  V30 14837 C 1358.62 -1.19633 3.237 0
M  V30 14838 C 1357.73 -0.47858 4.29341 0
M  V30 14839 C 1356.86 -1.48336 5.10068 0
M  V30 14840 C 1355.9 -0.751049 6.07475 0
M  V30 14841 N 1355.04 -1.70306 6.81132 0
M  V30 14842 H 1359.88 0.536409 2.93132 0
M  V30 14843 H 1357.42 0.276352 1.44481 0
M  V30 14844 H 1359.37 -1.79967 3.76388 0
M  V30 14845 H 1358 -1.87823 2.6253 0
M  V30 14846 H 1357.06 0.239454 3.79646 0
M  V30 14847 H 1358.37 0.0947147 4.9871 0
M  V30 14848 H 1357.52 -2.16 5.66947 0
M  V30 14849 H 1356.26 -2.09058 4.4062 0
M  V30 14850 H 1355.27 -0.0605336 5.49767 0
M  V30 14851 H 1356.49 -0.14946 6.78936 0
M  V30 14852 H 1354.44 -2.2987 6.14407 0
M  V30 14853 H 1354.35 -1.18213 7.46701 0
M  V30 14854 H 1355.62 -2.37058 7.42579 0
M  V30 14855 N 1359.85 -1.54672 0.302354 0
M  V30 14856 C 1360.76 -2.27251 -0.582578 0
M  V30 14857 C 1361.78 -1.30819 -1.14727 0
M  V30 14858 O 1362.95 -1.63803 -1.17177 0
M  V30 14859 C 1360.02 -3.00016 -1.73757 0
M  V30 14860 C 1359.08 -4.11988 -1.20682 0
M  V30 14861 C 1358.31 -4.81273 -2.30676 0
M  V30 14862 O 1358.54 -4.49927 -3.50602 0
M  V30 14863 O 1357.47 -5.68647 -1.97291 0
M  V30 14864 H 1361.3 -3.03699 0.00621365 0
M  V30 14865 H 1358.88 -1.49242 0.0687684 0
M  V30 14866 H 1360.76 -3.45652 -2.41045 0
M  V30 14867 H 1359.44 -2.26462 -2.31294 0
M  V30 14868 H 1358.35 -3.70749 -0.499625 0
M  V30 14869 H 1359.68 -4.87524 -0.676858 0
M  V30 14870 N 1361.33 -0.0301034 -1.57571 0
M  V30 14871 C 1362.28 0.951421 -2.10277 0
M  V30 14872 C 1363.25 1.3224 -1.00508 0
M  V30 14873 O 1364.43 1.41554 -1.27934 0
M  V30 14874 C 1361.57 2.2282 -2.63525 0
M  V30 14875 C 1360.69 1.91359 -3.87306 0
M  V30 14876 C 1359.82 3.13339 -4.28943 0
M  V30 14877 C 1358.86 2.77701 -5.4548 0
M  V30 14878 N 1358 3.9231 -5.82269 0
M  V30 14879 H 1362.84 0.495049 -2.93859 0
M  V30 14880 H 1360.37 0.232756 -1.45247 0
M  V30 14881 H 1362.33 2.97502 -2.92487 0
M  V30 14882 H 1360.96 2.66072 -1.82772 0
M  V30 14883 H 1360.01 1.06915 -3.65066 0
M  V30 14884 H 1361.33 1.61112 -4.72064 0
M  V30 14885 H 1360.48 3.9634 -4.59347 0
M  V30 14886 H 1359.22 3.46747 -3.42954 0
M  V30 14887 H 1358.22 1.93113 -5.14769 0
M  V30 14888 H 1359.45 2.45508 -6.33169 0
M  V30 14889 H 1357.39 4.25559 -4.99235 0
M  V30 14890 H 1357.31 3.65691 -6.61669 0
M  V30 14891 H 1358.58 4.76012 -6.17279 0
M  V30 14892 N 1362.81 1.55714 0.243056 0
M  V30 14893 C 1363.72 1.93777 1.32241 0
M  V30 14894 C 1364.73 0.838709 1.52452 0
M  V30 14895 O 1365.91 1.14044 1.66 0
M  V30 14896 C 1362.98 2.22808 2.65627 0
M  V30 14897 C 1362.04 3.46166 2.53904 0
M  V30 14898 C 1361.27 3.73802 3.8093 0
M  V30 14899 O 1361.49 3.0345 4.82985 0
M  V30 14900 O 1360.43 4.67323 3.79332 0
M  V30 14901 H 1364.25 2.85718 1.02951 0
M  V30 14902 H 1361.84 1.42646 0.444135 0
M  V30 14903 H 1363.72 2.4277 3.44442 0
M  V30 14904 H 1362.39 1.34045 2.94642 0
M  V30 14905 H 1361.3 3.31506 1.73362 0
M  V30 14906 H 1362.63 4.35244 2.29834 0
M  V30 14907 N 1364.29 -0.50888 1.49158 0
M  V30 14908 C 1365.2 -1.63782 1.67966 0
M  V30 14909 C 1366.21 -1.64667 0.562207 0
M  V30 14910 O 1367.39 -1.83232 0.835935 0
M  V30 14911 C 1364.45 -3.00179 1.73474 0
M  V30 14912 C 1363.51 -3.09983 2.97 0
M  V30 14913 C 1362.75 -4.39875 3.02235 0
M  V30 14914 O 1362.97 -5.28214 2.15282 0
M  V30 14915 O 1361.9 -4.54486 3.94621 0
M  V30 14916 H 1365.73 -1.50846 2.63589 0
M  V30 14917 H 1363.32 -0.684306 1.32807 0
M  V30 14918 H 1365.2 -3.8126 1.79495 0
M  V30 14919 H 1363.87 -3.13394 0.810287 0
M  V30 14920 H 1362.78 -2.28119 2.965 0
M  V30 14921 H 1364.11 -3.01693 3.88899 0
M  V30 14922 N 1365.76 -1.381 -0.759346 0
M  V30 14923 C 1367.01 -1.3419 -1.52055 0
M  V30 14924 C 1367.34 0.0697657 -1.94075 0
M  V30 14925 O 1366.62 1.02975 -1.65004 0
M  V30 14926 C 1366.9 -2.29236 -2.7771 0
M  V30 14927 C 1366.75 -3.79237 -2.41866 0
M  V30 14928 C 1368.07 -2.22511 -3.79706 0
M  V30 14929 H 1365.19 -0.488768 -0.551611 0
M  V30 14930 H 1367.83 -1.68902 -0.870174 0
M  V30 14931 H 1365.98 -1.99764 -3.33206 0
M  V30 14932 H 1367.66 -4.19358 -1.92189 0
M  V30 14933 H 1365.9 -3.97199 -1.74399 0
M  V30 14934 H 1366.57 -4.41193 -3.31742 0
M  V30 14935 H 1369.05 -2.48516 -3.33735 0
M  V30 14936 H 1367.92 -2.91134 -4.6533 0
M  V30 14937 H 1368.18 -1.22206 -4.24874 0
M  V30 14938 N 1367.24 0.986894 -1.22875 0
M  V30 14939 C 1368.19 2.07811 -1.00416 0
M  V30 14940 C 1369.16 1.65925 0.0761734 0
M  V30 14941 O 1370.34 1.90654 -0.0746294 0
M  V30 14942 C 1367.48 3.39941 -0.594471 0
M  V30 14943 C 1366.6 3.95134 -1.74622 0
M  V30 14944 C 1365.73 5.1545 -1.28394 0
M  V30 14945 C 1364.77 5.62794 -2.40686 0
M  V30 14946 N 1363.91 6.74343 -1.95462 0
M  V30 14947 H 1368.75 2.26356 -1.93822 0
M  V30 14948 H 1366.29 1.10966 -0.965661 0
M  V30 14949 H 1368.24 4.15828 -0.338078 0
M  V30 14950 H 1366.87 3.21379 0.302587 0
M  V30 14951 H 1365.93 3.16064 -2.11679 0
M  V30 14952 H 1367.24 4.26247 -2.59066 0
M  V30 14953 H 1366.39 5.98646 -0.98529 0
M  V30 14954 H 1365.13 4.85975 -0.409789 0
M  V30 14955 H 1364.14 4.78182 -2.71333 0
M  V30 14956 H 1365.36 5.9429 -3.28627 0
M  V30 14957 H 1363.31 6.46641 -1.10417 0
M  V30 14958 H 1363.22 7.04806 -2.73469 0
M  V30 14959 H 1364.49 7.6103 -1.68683 0
M  V30 14960 N 1368.72 1.0394 1.18466 0
M  V30 14961 C 1369.63 0.639714 2.2571 0
M  V30 14962 C 1370.65 -0.333431 1.70775 0
M  V30 14963 O 1371.82 -0.188676 2.00514 0
M  V30 14964 C 1368.89 0.007559 3.46699 0
M  V30 14965 C 1367.95 1.02955 4.16772 0
M  V30 14966 C 1367.18 0.427464 5.31985 0
M  V30 14967 O 1367.4 -0.766684 5.65224 0
M  V30 14968 O 1366.34 1.15553 5.90704 0
M  V30 14969 H 1370.16 1.53316 2.6216 0
M  V30 14970 H 1367.75 0.810206 1.25523 0
M  V30 14971 H 1369.63 -0.344404 4.1999 0
M  V30 14972 H 1368.31 -0.859727 3.12074 0
M  V30 14973 H 1367.21 1.43328 3.45554 0
M  V30 14974 H 1368.55 1.86756 4.55393 0
M  V30 14975 N 1370.2 -1.34667 0.818693 0
M  V30 14976 C 1371.15 -2.29595 0.235551 0
M  V30 14977 C 1372.12 -1.53389 -0.63727 0
M  V30 14978 O 1373.3 -1.81777 -0.579804 0
M  V30 14979 C 1370.44 -3.39843 -0.600043 0
M  V30 14980 C 1369.55 -4.30995 0.294553 0
M  V30 14981 C 1368.69 -5.28343 -0.550203 0
M  V30 14982 C 1367.73 -6.11132 0.344043 0
M  V30 14983 N 1366.86 -7.00582 -0.461392 0
M  V30 14984 H 1371.7 -2.78872 1.05044 0
M  V30 14985 H 1369.24 -1.37239 0.529517 0
M  V30 14986 H 1371.2 -4.02443 -1.09978 0
M  V30 14987 H 1369.83 -2.91811 -1.38008 0
M  V30 14988 H 1368.88 -3.69294 0.912483 0
M  V30 14989 H 1370.19 -4.89031 0.982341 0
M  V30 14990 H 1369.35 -5.96374 -1.11459 0
M  V30 14991 H 1368.09 -4.70833 -1.27151 0
M  V30 14992 H 1367.09 -5.42038 0.920608 0
M  V30 14993 H 1368.32 -6.70722 1.0634 0
M  V30 14994 H 1366.26 -6.45546 -1.16645 0
M  V30 14995 H 1366.18 -7.55813 0.168095 0
M  V30 14996 H 1367.45 -7.72946 -1.00867 0
M  V30 14997 N 1371.68 -0.573274 -1.46804 0
M  V30 14998 C 1372.59 0.168081 -2.33997 0
M  V30 14999 C 1373.6 0.895652 -1.49178 0
M  V30 15000 O 1374.78 0.860951 -1.8207 0
M  V30 15001 C 1371.84 1.17483 -3.26188 0
M  V30 15002 C 1370.9 0.452956 -4.26904 0
M  V30 15003 C 1370.14 1.41175 -5.1469 0
M  V30 15004 O 1370.36 2.64767 -5.05227 0
M  V30 15005 O 1369.29 0.927472 -5.94711 0
M  V30 15006 H 1373.12 -0.547576 -2.98723 0
M  V30 15007 H 1370.71 -0.333747 -1.45624 0
M  V30 15008 H 1372.59 1.75557 -3.8309 0
M  V30 15009 H 1371.26 1.87213 -2.6407 0
M  V30 15010 H 1370.17 -0.169383 -3.73716 0
M  V30 15011 H 1371.5 -0.203186 -4.9178 0
M  V30 15012 N 1373.15 1.5451 -0.310553 0
M  V30 15013 C 1374.06 2.27557 0.570518 0
M  V30 15014 C 1375.08 1.31426 1.14032 0
M  V30 15015 O 1376.26 1.64423 1.16306 0
M  V30 15016 C 1373.32 3.00933 1.72163 0
M  V30 15017 C 1372.38 4.12623 1.18495 0
M  V30 15018 C 1371.62 4.8249 2.28121 0
M  V30 15019 O 1371.84 4.5178 3.48211 0
M  V30 15020 O 1370.77 5.69686 1.94273 0
M  V30 15021 H 1374.6 3.03692 -0.0223195 0
M  V30 15022 H 1372.18 1.49203 -0.0766821 0
M  V30 15023 H 1374.07 3.46925 2.39208 0
M  V30 15024 H 1372.74 2.27685 2.3009 0
M  V30 15025 H 1371.65 3.71008 0.479956 0
M  V30 15026 H 1372.98 4.87876 0.650994 0
M  V30 15027 N 1374.63 0.0384594 1.57553 0
M  V30 15028 C 1375.88 -0.639085 1.92467 0
M  V30 15029 C 1376.21 -1.71239 0.916014 0
M  V30 15030 O 1375.49 -1.94408 -0.0598928 0
M  V30 15031 C 1375.77 -1.24693 3.37822 0
M  V30 15032 C 1375.62 -0.182544 4.49429 0
M  V30 15033 C 1376.94 -2.16226 3.8332 0
M  V30 15034 H 1374.06 -0.230852 0.699912 0
M  V30 15035 H 1376.7 0.0976276 1.89749 0
M  V30 15036 H 1374.85 -1.87481 3.40269 0
M  V30 15037 H 1376.53 0.448622 4.59113 0
M  V30 15038 H 1374.77 0.4909 4.31013 0
M  V30 15039 H 1375.44 -0.647626 5.48188 0
M  V30 15040 H 1377.92 -1.63413 3.82669 0
M  V30 15041 H 1376.79 -2.55705 4.85702 0
M  V30 15042 H 1377.05 -3.05722 3.19353 0
M  V30 15043 N 1376.11 -1.55841 -0.234795 0
M  V30 15044 C 1377.06 -1.91326 -1.29086 0
M  V30 15045 C 1378.03 -0.768868 -1.47233 0
M  V30 15046 O 1379.21 -1.0236 -1.61019 0
M  V30 15047 C 1376.35 -2.22388 -2.6389 0
M  V30 15048 C 1375.47 -3.49693 -2.5365 0
M  V30 15049 C 1374.6 -3.70267 -3.80889 0
M  V30 15050 C 1373.64 -4.91132 -3.65317 0
M  V30 15051 N 1372.78 -5.08163 -4.84474 0
M  V30 15052 H 1377.62 -2.81382 -0.981246 0
M  V30 15053 H 1375.15 -1.3928 -0.47324 0
M  V30 15054 H 1377.11 -2.38404 -3.42373 0
M  V30 15055 H 1375.74 -1.35521 -2.92974 0
M  V30 15056 H 1374.79 -3.41943 -1.66672 0
M  V30 15057 H 1376.11 -4.38326 -2.38059 0
M  V30 15058 H 1375.26 -3.86308 -4.67815 0
M  V30 15059 H 1374 -2.7989 -3.9939 0
M  V30 15060 H 1373 -4.75054 -2.76774 0
M  V30 15061 H 1374.23 -5.8298 -3.48298 0
M  V30 15062 H 1372.18 -4.20726 -5.03314 0
M  V30 15063 H 1372.09 -5.90904 -4.71559 0
M  V30 15064 H 1373.36 -5.28627 -5.72865 0
M  V30 15065 N 1377.59 0.500963 -1.49426 0
M  V30 15066 C 1378.5 1.62889 -1.68833 0
M  V30 15067 C 1379.52 1.64367 -0.570932 0
M  V30 15068 O 1380.69 1.82786 -0.845641 0
M  V30 15069 C 1377.76 2.99255 -1.75063 0
M  V30 15070 C 1376.82 3.08404 -2.9864 0
M  V30 15071 C 1376.05 4.38266 -3.04564 0
M  V30 15072 O 1376.27 5.27065 -2.1808 0
M  V30 15073 O 1375.21 4.52387 -3.97026 0
M  V30 15074 H 1379.03 1.49446 -2.64385 0
M  V30 15075 H 1376.62 0.677254 -1.33168 0
M  V30 15076 H 1378.5 3.80303 -1.81515 0
M  V30 15077 H 1377.18 3.1296 -0.826896 0
M  V30 15078 H 1376.08 2.26544 -2.97706 0
M  V30 15079 H 1377.42 2.99626 -3.90494 0
M  V30 15080 N 1379.07 1.38501 0.752011 0
M  V30 15081 C 1380.01 1.35857 1.86578 0
M  V30 15082 C 1380.98 0.220873 1.64625 0
M  V30 15083 O 1382.17 0.413348 1.86269 0
M  V30 15084 C 1379.31 1.19102 3.23896 0
M  V30 15085 C 1378.42 2.42272 3.5767 0
M  V30 15086 C 1377.56 2.18236 4.843 0
M  V30 15087 C 1376.6 3.37169 5.10865 0
M  V30 15088 N 1375.73 3.12558 6.28691 0
M  V30 15089 H 1380.57 2.31073 1.88173 0
M  V30 15090 H 1378.11 1.14803 0.919712 0
M  V30 15091 H 1380.07 1.07404 4.03138 0
M  V30 15092 H 1378.7 0.275243 3.21624 0
M  V30 15093 H 1377.75 2.64638 2.7326 0
M  V30 15094 H 1379.06 3.3091 3.73229 0
M  V30 15095 H 1378.22 2.03682 5.71488 0
M  V30 15096 H 1376.96 1.26966 4.70883 0
M  V30 15097 H 1375.96 3.52241 4.22145 0
M  V30 15098 H 1377.19 4.29317 5.26178 0
M  V30 15099 H 1375.13 2.23937 6.16594 0
M  V30 15100 H 1375.05 3.94746 6.44757 0
M  V30 15101 H 1376.32 3.01663 7.18763 0
M  V30 15102 N 1380.55 -0.980364 1.23396 0
M  V30 15103 C 1381.46 -2.10688 1.03188 0
M  V30 15104 C 1382.47 -1.73984 -0.0236159 0
M  V30 15105 O 1383.65 -2.00666 0.171841 0
M  V30 15106 C 1380.71 -3.4101 0.625563 0
M  V30 15107 C 1379.77 -3.91739 1.75611 0
M  V30 15108 C 1379.01 -5.15841 1.36908 0
M  V30 15109 O 1379.23 -5.69837 0.253329 0
M  V30 15110 O 1378.16 -5.60638 2.19018 0
M  V30 15111 H 1381.99 -2.30626 1.97599 0
M  V30 15112 H 1379.57 -1.09067 1.02102 0
M  V30 15113 H 1381.46 -4.19402 0.409909 0
M  V30 15114 H 1380.13 -3.22402 -0.28956 0
M  V30 15115 H 1379.04 -3.14464 2.0264 0
M  V30 15116 H 1380.37 -4.14801 2.64955 0
M  V30 15117 N 1382.02 -1.04567 -1.17913 0
M  V30 15118 C 1382.93 -0.651674 -2.25367 0
M  V30 15119 C 1383.95 0.32437 -1.7095 0
M  V30 15120 O 1385.13 0.178039 -2.00612 0
M  V30 15121 C 1382.19 -0.0259452 -3.4669 0
M  V30 15122 C 1381.25 -1.05163 -4.1622 0
M  V30 15123 C 1380.48 -0.45567 -5.31751 0
M  V30 15124 O 1380.71 0.736698 -5.65623 0
M  V30 15125 O 1379.64 -1.18684 -5.90083 0
M  V30 15126 H 1383.47 -1.54704 -2.61344 0
M  V30 15127 H 1381.05 -0.816852 -1.25092 0
M  V30 15128 H 1382.93 0.322126 -4.20167 0
M  V30 15129 H 1381.61 0.843165 -3.12526 0
M  V30 15130 H 1380.52 -1.45159 -3.44789 0
M  V30 15131 H 1381.85 -1.89168 -4.54397 0
M  V30 15132 N 1383.5 1.34231 -0.825823 0
M  V30 15133 C 1384.75 1.9849 -0.415891 0
M  V30 15134 C 1385.08 1.6531 1.01913 0
M  V30 15135 O 1384.36 0.926223 1.7103 0
M  V30 15136 C 1384.64 3.54691 -0.621785 0
M  V30 15137 C 1384.49 3.97603 -2.10313 0
M  V30 15138 C 1385.81 4.4006 -0.0595871 0
M  V30 15139 H 1382.93 0.721032 -0.152582 0
M  V30 15140 H 1385.57 1.5908 -1.03892 0
M  V30 15141 H 1383.72 3.88392 -0.0914439 0
M  V30 15142 H 1385.39 3.74221 -2.69733 0
M  V30 15143 H 1383.64 3.47809 -2.59251 0
M  V30 15144 H 1384.31 5.06352 -2.19799 0
M  V30 15145 H 1386.78 4.12929 -0.512743 0
M  V30 15146 H 1385.66 5.48403 -0.233431 0
M  V30 15147 H 1385.92 4.29798 1.03568 0
M  V30 15148 N 1384.98 0.581051 1.46498 0
M  V30 15149 C 1385.93 -0.153147 2.30291 0
M  V30 15150 C 1386.9 -0.885681 1.40517 0
M  V30 15151 O 1388.08 -0.876678 1.69467 0
M  V30 15152 C 1385.22 -1.16193 3.24951 0
M  V30 15153 C 1384.33 -0.433016 4.29824 0
M  V30 15154 C 1383.47 -1.42918 5.11613 0
M  V30 15155 C 1382.51 -0.686576 6.08237 0
M  V30 15156 N 1381.65 -1.63072 6.829 0
M  V30 15157 H 1386.49 0.56747 2.92547 0
M  V30 15158 H 1384.02 0.29166 1.4418 0
M  V30 15159 H 1385.98 -1.75965 3.78275 0
M  V30 15160 H 1384.61 -1.85028 2.64508 0
M  V30 15161 H 1383.66 0.279707 3.7937 0
M  V30 15162 H 1384.97 0.147604 4.98582 0
M  V30 15163 H 1384.13 -2.09975 5.69206 0
M  V30 15164 H 1382.87 -2.04373 4.42813 0
M  V30 15165 H 1381.87 -0.00222013 5.498 0
M  V30 15166 H 1383.1 -0.0774416 6.79056 0
M  V30 15167 H 1381.04 -2.2334 6.1681 0
M  V30 15168 H 1380.96 -1.10286 7.47912 0
M  V30 15169 H 1382.23 -2.29169 7.45052 0
M  V30 15170 N 1386.46 -1.54343 0.318742 0
M  V30 15171 C 1387.37 -2.27856 -0.558442 0
M  V30 15172 C 1388.38 -1.32029 -1.13333 0
M  V30 15173 O 1389.56 -1.65037 -1.15433 0
M  V30 15174 C 1386.62 -3.01842 -1.70565 0
M  V30 15175 C 1385.69 -4.13245 -1.16305 0
M  V30 15176 C 1384.92 -4.83693 -2.25559 0
M  V30 15177 O 1385.14 -4.53621 -3.4581 0
M  V30 15178 O 1384.08 -5.70708 -1.91249 0
M  V30 15179 H 1387.9 -3.03676 0.0384247 0
M  V30 15180 H 1385.49 -1.4916 0.0845936 0
M  V30 15181 H 1387.37 -3.48189 -2.37365 0
M  V30 15182 H 1386.04 -2.28902 -2.28879 0
M  V30 15183 H 1384.95 -3.71258 -0.460274 0
M  V30 15184 H 1386.28 -4.88214 -0.625111 0
M  V30 15185 N 1387.94 -0.0468143 -1.5753 0
M  V30 15186 C 1388.88 0.929065 -2.11275 0
M  V30 15187 C 1389.85 1.31166 -1.01905 0
M  V30 15188 O 1391.04 1.40189 -1.29428 0
M  V30 15189 C 1388.18 2.20012 -2.65873 0
M  V30 15190 C 1387.29 1.8724 -3.89314 0
M  V30 15191 C 1386.43 3.08772 -4.32242 0
M  V30 15192 C 1385.46 2.719 -5.48395 0
M  V30 15193 N 1384.6 3.86112 -5.86397 0
M  V30 15194 H 1389.44 0.463854 -2.94368 0
M  V30 15195 H 1386.98 0.217338 -1.45486 0
M  V30 15196 H 1388.94 2.94383 -2.95626 0
M  V30 15197 H 1387.57 2.64118 -1.85584 0
M  V30 15198 H 1386.62 1.03037 -3.6618 0
M  V30 15199 H 1387.93 1.56096 -4.73746 0
M  V30 15200 H 1387.08 3.91446 -4.63525 0
M  V30 15201 H 1385.82 3.4309 -3.46613 0
M  V30 15202 H 1384.83 1.87642 -5.16789 0
M  V30 15203 H 1386.05 2.38779 -6.35737 0
M  V30 15204 H 1384 4.2024 -5.03721 0
M  V30 15205 H 1383.92 3.58652 -6.65511 0
M  V30 15206 H 1385.18 4.69438 -6.22293 0
M  V30 15207 N 1389.41 1.55964 0.226527 0
M  V30 15208 C 1390.32 1.95169 1.30178 0
M  V30 15209 C 1391.34 0.854831 1.51554 0
M  V30 15210 O 1392.52 1.15798 1.64781 0
M  V30 15211 C 1389.58 2.25612 2.63249 0
M  V30 15212 C 1388.64 3.4884 2.50219 0
M  V30 15213 C 1387.88 3.77822 3.76944 0
M  V30 15214 O 1388.1 3.08556 4.79739 0
M  V30 15215 O 1387.03 4.7132 3.74354 0
M  V30 15216 H 1390.86 2.86794 0.999145 0
M  V30 15217 H 1388.44 1.43109 0.42898 0
M  V30 15218 H 1390.33 2.4641 3.41848 0
M  V30 15219 H 1389 1.37162 2.93203 0
M  V30 15220 H 1387.91 3.33326 1.69836 0
M  V30 15221 H 1389.24 4.37657 2.25205 0
M  V30 15222 N 1390.89 -0.493031 1.4969 0
M  V30 15223 C 1391.8 -1.61991 1.69694 0
M  V30 15224 C 1392.82 -1.64061 0.579641 0
M  V30 15225 O 1393.99 -1.82335 0.855323 0
M  V30 15226 C 1391.06 -2.98323 1.76648 0
M  V30 15227 C 1390.12 -3.06816 3.00271 0
M  V30 15228 C 1389.35 -4.36644 3.06883 0
M  V30 15229 O 1389.58 -5.25901 2.20872 0
M  V30 15230 O 1388.51 -4.50275 3.99419 0
M  V30 15231 H 1392.34 -1.48042 2.65174 0
M  V30 15232 H 1389.92 -0.670182 1.33525 0
M  V30 15233 H 1391.8 -3.79335 1.83529 0
M  V30 15234 H 1390.48 -3.12517 0.843482 0
M  V30 15235 H 1389.39 -2.24962 2.98903 0
M  V30 15236 H 1390.72 -2.97551 3.92077 0
M  V30 15237 N 1392.37 -1.38898 -0.744656 0
M  V30 15238 C 1393.62 -1.35795 -1.50623 0
M  V30 15239 C 1393.95 0.0491775 -1.94138 0
M  V30 15240 O 1393.22 1.01219 -1.66087 0
M  V30 15241 C 1393.51 -2.32168 -2.75263 0
M  V30 15242 C 1393.36 -3.81781 -2.3783 0
M  V30 15243 C 1394.68 -2.26526 -3.77325 0
M  V30 15244 H 1391.8 -0.494591 -0.546396 0
M  V30 15245 H 1394.44 -1.69816 -0.852211 0
M  V30 15246 H 1392.59 -2.03287 -3.31069 0
M  V30 15247 H 1394.26 -4.21373 -1.8773 0
M  V30 15248 H 1392.51 -3.99027 -1.70176 0
M  V30 15249 H 1393.18 -4.44687 -3.27044 0
M  V30 15250 H 1395.65 -2.52041 -3.31081 0
M  V30 15251 H 1394.53 -2.96053 -4.62216 0
M  V30 15252 H 1394.79 -1.26705 -4.23554 0
M  V30 15253 N 1393.85 0.973806 -1.23914 0
M  V30 15254 C 1394.8 2.06734 -1.02614 0
M  V30 15255 C 1395.77 1.65997 0.0585705 0
M  V30 15256 O 1396.95 1.90564 -0.0948467 0
M  V30 15257 C 1394.09 3.39292 -0.630493 0
M  V30 15258 C 1393.2 3.9326 -1.78803 0
M  V30 15259 C 1392.34 5.14059 -1.33854 0
M  V30 15260 C 1391.38 5.60209 -2.46642 0
M  V30 15261 N 1390.51 6.72232 -2.02603 0
M  V30 15262 H 1395.35 2.24287 -1.96212 0
M  V30 15263 H 1392.89 1.09935 -0.977376 0
M  V30 15264 H 1394.85 4.15446 -0.382163 0
M  V30 15265 H 1393.48 3.21682 0.268483 0
M  V30 15266 H 1392.53 3.13801 -2.15019 0
M  V30 15267 H 1393.84 4.23475 -2.63573 0
M  V30 15268 H 1393 5.97567 -1.04873 0
M  V30 15269 H 1391.74 4.85513 -0.46131 0
M  V30 15270 H 1390.74 4.75278 -2.7639 0
M  V30 15271 H 1391.97 5.90771 -3.34912 0
M  V30 15272 H 1389.91 6.45433 -1.17269 0
M  V30 15273 H 1389.83 7.01865 -2.80929 0
M  V30 15274 H 1391.1 7.59198 -1.76745 0
M  V30 15275 N 1395.33 1.05191 1.17357 0
M  V30 15276 C 1396.24 0.663617 2.25018 0
M  V30 15277 C 1397.25 -0.315299 1.71119 0
M  V30 15278 O 1398.43 -0.167398 2.00703 0
M  V30 15279 C 1395.49 0.0443307 3.46672 0
M  V30 15280 C 1394.55 1.07369 4.15656 0
M  V30 15281 C 1393.79 0.483864 5.31502 0
M  V30 15282 O 1394.01 -0.706692 5.66005 0
M  V30 15283 O 1392.94 1.21812 5.89445 0
M  V30 15284 H 1396.77 1.56088 2.60519 0
M  V30 15285 H 1394.36 0.823474 1.24657 0
M  V30 15286 H 1396.24 -0.299839 4.20332 0
M  V30 15287 H 1394.91 -0.826579 3.12969 0
M  V30 15288 H 1393.82 1.46985 3.44015 0
M  V30 15289 H 1395.15 1.91575 4.53387 0
M  V30 15290 N 1396.8 -1.33791 0.83293 0
M  V30 15291 C 1397.75 -2.29332 0.25989 0
M  V30 15292 C 1398.72 -1.54056 -0.620965 0
M  V30 15293 O 1399.91 -1.82382 -0.560492 0
M  V30 15294 C 1397.05 -3.40461 -0.563964 0
M  V30 15295 C 1396.16 -4.30658 0.34025 0
M  V30 15296 C 1395.29 -5.28897 -0.494134 0
M  V30 15297 C 1394.33 -6.10733 0.408842 0
M  V30 15298 N 1393.47 -7.01032 -0.38706 0
M  V30 15299 H 1398.31 -2.77743 1.07996 0
M  V30 15300 H 1395.85 -1.3667 0.544043 0
M  V30 15301 H 1397.81 -4.03587 -1.05704 0
M  V30 15302 H 1396.44 -2.93258 -1.34905 0
M  V30 15303 H 1395.49 -3.68305 0.9516 0
M  V30 15304 H 1396.8 -4.87962 1.03415 0
M  V30 15305 H 1395.95 -5.97522 -1.05128 0
M  V30 15306 H 1394.69 -4.72155 -1.2215 0
M  V30 15307 H 1393.7 -5.41031 0.978046 0
M  V30 15308 H 1394.92 -6.69557 1.13448 0
M  V30 15309 H 1392.87 -6.46747 -1.09792 0
M  V30 15310 H 1392.79 -7.55592 0.248249 0
M  V30 15311 H 1394.05 -7.73973 -0.926631 0
M  V30 15312 N 1398.28 -0.588812 -1.46187 0
M  V30 15313 C 1399.19 0.143253 -2.34162 0
M  V30 15314 C 1400.21 0.879779 -1.5012 0
M  V30 15315 O 1401.38 0.841592 -1.82973 0
M  V30 15316 C 1398.45 1.14017 -3.27416 0
M  V30 15317 C 1397.51 0.407651 -4.2736 0
M  V30 15318 C 1396.74 1.35708 -5.16158 0
M  V30 15319 O 1396.97 2.59394 -5.08007 0
M  V30 15320 O 1395.9 0.864343 -5.95662 0
M  V30 15321 H 1399.73 -0.579228 -2.98125 0
M  V30 15322 H 1397.31 -0.349174 -1.45262 0
M  V30 15323 H 1399.19 1.71484 -3.8493 0
M  V30 15324 H 1397.87 1.84401 -2.66041 0
M  V30 15325 H 1396.78 -0.209011 -3.73516 0
M  V30 15326 H 1398.11 -0.255334 -4.91537 0
M  V30 15327 N 1399.76 1.54172 -0.326923 0
M  V30 15328 C 1400.67 2.28149 0.546351 0
M  V30 15329 C 1401.69 1.32628 1.12631 0
M  V30 15330 O 1402.86 1.65647 1.14556 0
M  V30 15331 C 1399.93 3.02742 1.68962 0
M  V30 15332 C 1398.99 4.13856 1.14112 0
M  V30 15333 C 1398.22 4.84882 2.2299 0
M  V30 15334 O 1398.44 4.55448 3.43399 0
M  V30 15335 O 1397.38 5.71714 1.8822 0
M  V30 15336 H 1401.2 3.03651 -0.0545288 0
M  V30 15337 H 1398.79 1.49113 -0.0925027 0
M  V30 15338 H 1400.67 3.49443 2.35515 0
M  V30 15339 H 1399.35 2.30113 2.27662 0
M  V30 15340 H 1398.25 3.71497 0.440579 0
M  V30 15341 H 1399.59 4.88539 0.599211 0
M  V30 15342 N 1401.24 0.0551678 1.57503 0
M  V30 15343 C 1402.48 -0.618636 1.93134 0
M  V30 15344 C 1402.82 -1.70258 0.934125 0
M  V30 15345 O 1402.09 -1.9446 -0.0392699 0
M  V30 15346 C 1402.38 -1.21103 3.39126 0
M  V30 15347 C 1402.23 -0.134865 4.49598 0
M  V30 15348 C 1403.55 -2.12148 3.85592 0
M  V30 15349 H 1400.67 -0.223416 0.702321 0
M  V30 15350 H 1403.31 0.117748 1.89635 0
M  V30 15351 H 1401.46 -1.83862 3.42238 0
M  V30 15352 H 1403.13 0.497292 4.58612 0
M  V30 15353 H 1401.37 0.536587 4.30469 0
M  V30 15354 H 1402.04 -0.589447 5.48844 0
M  V30 15355 H 1404.52 -1.59346 3.8438 0
M  V30 15356 H 1403.4 -2.50539 4.88387 0
M  V30 15357 H 1403.66 -3.02318 3.22578 0
M  V30 15358 N 1402.72 -1.56081 -0.218252 0
M  V30 15359 C 1403.66 -1.92684 -1.27049 0
M  V30 15360 C 1404.63 -0.784441 -1.46409 0
M  V30 15361 O 1405.82 -1.04062 -1.59924 0
M  V30 15362 C 1402.96 -2.25174 -2.61516 0
M  V30 15363 C 1402.07 -3.52364 -2.49927 0
M  V30 15364 C 1401.21 -3.74286 -3.7694 0
M  V30 15365 C 1400.25 -4.94979 -3.60087 0
M  V30 15366 N 1399.38 -5.13273 -4.79057 0
M  V30 15367 H 1404.22 -2.82406 -0.951347 0
M  V30 15368 H 1401.76 -1.39774 -0.458441 0
M  V30 15369 H 1403.72 -2.42022 -3.39825 0
M  V30 15370 H 1402.35 -1.38621 -2.9152 0
M  V30 15371 H 1401.4 -3.43691 -1.63036 0
M  V30 15372 H 1402.71 -4.40826 -2.33397 0
M  V30 15373 H 1401.87 -3.91248 -4.63692 0
M  V30 15374 H 1400.6 -2.84111 -3.96399 0
M  V30 15375 H 1399.61 -4.77963 -2.71719 0
M  V30 15376 H 1400.83 -5.86641 -3.42095 0
M  V30 15377 H 1398.78 -4.26041 -4.98824 0
M  V30 15378 H 1398.7 -5.95873 -4.65265 0
M  V30 15379 H 1399.97 -5.34673 -5.67226 0
M  V30 15380 N 1404.2 0.485086 -1.49949 0
M  V30 15381 C 1405.11 1.61089 -1.70551 0
M  V30 15382 C 1406.12 1.63752 -0.588333 0
M  V30 15383 O 1407.3 1.81879 -0.86498 0
M  V30 15384 C 1404.36 2.97382 -1.78227 0
M  V30 15385 C 1403.42 3.05219 -3.01894 0
M  V30 15386 C 1402.66 4.35011 -3.09195 0
M  V30 15387 O 1402.88 5.24722 -2.23658 0
M  V30 15388 O 1401.81 4.48151 -4.01802 0
M  V30 15389 H 1405.64 1.46633 -2.65956 0
M  V30 15390 H 1403.22 0.663091 -1.33879 0
M  V30 15391 H 1405.11 3.78356 -1.85538 0
M  V30 15392 H 1403.78 3.12066 -0.860043 0
M  V30 15393 H 1402.69 2.23373 -3.00092 0
M  V30 15394 H 1404.02 2.95467 -3.93649 0
M  V30 15395 N 1405.67 1.39291 0.737279 0
M  V30 15396 C 1406.62 1.37829 1.85127 0
M  V30 15397 C 1407.59 0.238321 1.64381 0
M  V30 15398 O 1408.78 0.433081 1.8582 0
M  V30 15399 C 1405.92 1.22531 3.22615 0
M  V30 15400 C 1405.03 2.46052 3.55081 0
M  V30 15401 C 1404.16 2.2336 4.81958 0
M  V30 15402 C 1403.2 3.42569 5.0726 0
M  V30 15403 N 1402.34 3.19209 6.2534 0
M  V30 15404 H 1407.18 2.33056 1.85712 0
M  V30 15405 H 1404.72 1.15772 0.907484 0
M  V30 15406 H 1406.67 1.11673 4.01976 0
M  V30 15407 H 1405.3 0.30934 3.21314 0
M  V30 15408 H 1404.36 2.67521 2.70438 0
M  V30 15409 H 1405.67 3.3485 3.69698 0
M  V30 15410 H 1404.82 2.09732 5.69295 0
M  V30 15411 H 1403.56 1.31953 4.6951 0
M  V30 15412 H 1402.57 3.56698 4.18386 0
M  V30 15413 H 1403.79 4.34874 5.21595 0
M  V30 15414 H 1401.74 2.30464 6.14184 0
M  V30 15415 H 1401.65 4.01562 6.40534 0
M  V30 15416 H 1402.92 3.09269 7.15523 0
M  V30 15417 N 1407.15 -0.967221 1.24429 0
M  V30 15418 C 1408.06 -2.09582 1.05417 0
M  V30 15419 C 1409.08 -1.73999 -0.00516127 0
M  V30 15420 O 1410.25 -2.00472 0.193115 0
M  V30 15421 C 1407.32 -3.40327 0.661697 0
M  V30 15422 C 1406.38 -3.89854 1.79756 0
M  V30 15423 C 1405.61 -5.1436 1.42372 0
M  V30 15424 O 1405.84 -5.69536 0.313754 0
M  V30 15425 O 1404.77 -5.58283 2.24952 0
M  V30 15426 H 1408.6 -2.28517 2.00034 0
M  V30 15427 H 1406.18 -1.07978 1.03253 0
M  V30 15428 H 1408.06 -4.18943 0.454369 0
M  V30 15429 H 1406.74 -3.22691 -0.255348 0
M  V30 15430 H 1405.64 -3.12297 2.05964 0
M  V30 15431 H 1406.98 -4.11967 2.69339 0
M  V30 15432 N 1408.63 -1.05812 -1.16797 0
M  V30 15433 C 1409.54 -0.675541 -2.24663 0
M  V30 15434 C 1410.56 0.30622 -1.71284 0
M  V30 15435 O 1411.73 0.156752 -2.00789 0
M  V30 15436 C 1408.8 -0.0627149 -3.46643 0
M  V30 15437 C 1407.86 -1.09572 -4.15081 0
M  V30 15438 C 1407.09 -0.512044 -5.31238 0
M  V30 15439 O 1407.31 0.676665 -5.66372 0
M  V30 15440 O 1406.25 -1.24936 -5.88791 0
M  V30 15441 H 1410.07 -1.57467 -2.59688 0
M  V30 15442 H 1407.66 -0.830073 -1.24218 0
M  V30 15443 H 1409.54 0.277543 -4.20485 0
M  V30 15444 H 1408.22 0.80997 -3.13403 0
M  V30 15445 H 1407.12 -1.48807 -3.4323 0
M  V30 15446 H 1408.46 -1.93977 -4.52365 0
M  V30 15447 N 1410.11 1.33347 -0.840014 0
M  V30 15448 C 1411.35 1.98037 -0.43692 0
M  V30 15449 C 1411.69 1.66382 1.00154 0
M  V30 15450 O 1410.96 0.944311 1.70038 0
M  V30 15451 C 1411.24 3.54012 -0.65937 0
M  V30 15452 C 1411.1 3.9535 -2.14518 0
M  V30 15453 C 1412.42 4.39972 -0.106258 0
M  V30 15454 H 1409.54 0.719373 -0.160221 0
M  V30 15455 H 1412.18 1.57969 -1.05574 0
M  V30 15456 H 1410.33 3.88274 -0.132633 0
M  V30 15457 H 1412 3.7134 -2.73687 0
M  V30 15458 H 1410.24 3.4504 -2.62926 0
M  V30 15459 H 1410.91 5.03992 -2.25158 0
M  V30 15460 H 1413.39 4.12362 -0.556511 0
M  V30 15461 H 1412.27 5.48125 -0.291583 0
M  V30 15462 H 1412.53 4.30872 0.990032 0
M  V30 15463 N 1411.59 0.596556 1.45873 0
M  V30 15464 C 1412.53 -0.128713 2.30441 0
M  V30 15465 C 1413.5 -0.870727 1.41448 0
M  V30 15466 O 1414.69 -0.858654 1.70387 0
M  V30 15467 C 1411.83 -1.1274 3.26165 0
M  V30 15468 C 1410.94 -0.387403 4.30259 0
M  V30 15469 C 1410.08 -1.37484 5.131 0
M  V30 15470 C 1409.11 -0.622025 6.08931 0
M  V30 15471 N 1408.25 -1.5582 6.84591 0
M  V30 15472 H 1413.09 0.598466 2.91929 0
M  V30 15473 H 1410.63 0.306936 1.43862 0
M  V30 15474 H 1412.59 -1.71943 3.8012 0
M  V30 15475 H 1411.22 -1.82213 2.66455 0
M  V30 15476 H 1410.27 0.319929 3.79052 0
M  V30 15477 H 1411.58 0.200477 4.98397 0
M  V30 15478 H 1410.73 -2.03926 5.71401 0
M  V30 15479 H 1409.47 -1.99665 4.44955 0
M  V30 15480 H 1408.48 0.0560936 5.49771 0
M  V30 15481 H 1409.7 -0.00541426 6.791 0
M  V30 15482 H 1407.65 -2.16786 6.19145 0
M  V30 15483 H 1407.57 -1.02347 7.4904 0
M  V30 15484 H 1408.83 -2.21254 7.4744 0
M  V30 15485 N 1413.06 -1.53996 0.335095 0
M  V30 15486 C 1413.97 -2.28436 -0.534244 0
M  V30 15487 C 1414.99 -1.33224 -1.11926 0
M  V30 15488 O 1416.17 -1.66252 -1.13676 0
M  V30 15489 C 1413.23 -3.03634 -1.67354 0
M  V30 15490 C 1412.29 -4.14455 -1.11916 0
M  V30 15491 C 1411.52 -4.86058 -2.20416 0
M  V30 15492 O 1411.75 -4.57263 -3.40979 0
M  V30 15493 O 1410.68 -5.72704 -1.85185 0
M  V30 15494 H 1414.51 -3.03618 0.0706314 0
M  V30 15495 H 1412.09 -1.49062 0.100409 0
M  V30 15496 H 1413.97 -3.50687 -2.33659 0
M  V30 15497 H 1412.65 -2.31317 -2.26438 0
M  V30 15498 H 1411.56 -3.71725 -0.420871 0
M  V30 15499 H 1412.89 -4.8885 -0.573295 0
M  V30 15500 N 1414.54 -0.0635198 -1.57472 0
M  V30 15501 C 1415.49 0.906604 -2.12248 0
M  V30 15502 C 1416.46 1.30078 -1.0329 0
M  V30 15503 O 1417.64 1.38809 -1.30907 0
M  V30 15504 C 1414.78 2.1718 -2.68192 0
M  V30 15505 C 1413.9 1.831 -3.91278 0
M  V30 15506 C 1413.03 3.0417 -4.35493 0
M  V30 15507 C 1412.07 2.66069 -5.51248 0
M  V30 15508 N 1411.21 3.79871 -5.9046 0
M  V30 15509 H 1416.05 0.432606 -2.94843 0
M  V30 15510 H 1413.58 0.201895 -1.45708 0
M  V30 15511 H 1415.54 2.91231 -2.98732 0
M  V30 15512 H 1414.17 2.62135 -1.88375 0
M  V30 15513 H 1413.22 0.991473 -3.67252 0
M  V30 15514 H 1414.54 1.51063 -4.75375 0
M  V30 15515 H 1413.69 3.86507 -4.6765 0
M  V30 15516 H 1412.43 3.39395 -3.50232 0
M  V30 15517 H 1411.43 1.82151 -5.1875 0
M  V30 15518 H 1412.66 2.32023 -6.38234 0
M  V30 15519 H 1410.61 4.14873 -5.0815 0
M  V30 15520 H 1410.52 3.51573 -6.69277 0
M  V30 15521 H 1411.79 4.62811 -6.27237 0
M  V30 15522 N 1416.02 1.56195 0.209972 0
M  V30 15523 C 1416.93 1.96539 1.28101 0
M  V30 15524 C 1417.95 0.870858 1.50639 0
M  V30 15525 O 1419.12 1.17539 1.63544 0
M  V30 15526 C 1416.19 2.28392 2.60841 0
M  V30 15527 C 1415.25 3.51474 2.46505 0
M  V30 15528 C 1414.48 3.81798 3.72915 0
M  V30 15529 O 1414.7 3.13627 4.76439 0
M  V30 15530 O 1413.64 4.75264 3.69334 0
M  V30 15531 H 1417.46 2.87838 0.968671 0
M  V30 15532 H 1415.05 1.43556 0.413777 0
M  V30 15533 H 1416.93 2.50022 3.39215 0
M  V30 15534 H 1415.61 1.40264 2.91732 0
M  V30 15535 H 1414.51 3.35109 1.66292 0
M  V30 15536 H 1415.85 4.40021 2.2055 0
M  V30 15537 N 1417.5 -0.477127 1.50204 0
M  V30 15538 C 1418.41 -1.60182 1.71403 0
M  V30 15539 C 1419.42 -1.63437 0.597009 0
M  V30 15540 O 1420.6 -1.81418 0.874614 0
M  V30 15541 C 1417.66 -2.96432 1.79802 0
M  V30 15542 C 1416.73 -3.03614 3.03508 0
M  V30 15543 C 1415.96 -4.33365 3.11497 0
M  V30 15544 O 1416.18 -5.23529 2.26438 0
M  V30 15545 O 1415.12 -4.46013 4.04173 0
M  V30 15546 H 1418.94 -1.45221 2.66729 0
M  V30 15547 H 1416.53 -0.655982 1.34228 0
M  V30 15548 H 1418.41 -3.77367 1.87542 0
M  V30 15549 H 1417.08 -3.11605 0.876581 0
M  V30 15550 H 1415.99 -2.21779 3.01272 0
M  V30 15551 H 1417.32 -2.93376 3.95211 0
M  V30 15552 N 1418.98 -1.3968 -0.729882 0
M  V30 15553 C 1420.22 -1.37385 -1.49175 0
M  V30 15554 C 1420.56 0.0285839 -1.94179 0
M  V30 15555 O 1419.83 0.994516 -1.67152 0
M  V30 15556 C 1420.11 -2.35075 -2.72785 0
M  V30 15557 C 1419.97 -3.84282 -2.33767 0
M  V30 15558 C 1421.29 -2.30515 -3.74901 0
M  V30 15559 H 1418.4 -0.500359 -0.541119 0
M  V30 15560 H 1421.05 -1.7071 -0.834152 0
M  V30 15561 H 1419.2 -2.06787 -3.28894 0
M  V30 15562 H 1420.87 -4.2334 -1.8325 0
M  V30 15563 H 1419.11 -4.00809 -1.65935 0
M  V30 15564 H 1419.78 -4.48131 -3.22309 0
M  V30 15565 H 1422.26 -2.55539 -3.28389 0
M  V30 15566 H 1421.13 -3.00939 -4.5905 0
M  V30 15567 H 1421.4 -1.3119 -4.22187 0
M  V30 15568 N 1420.45 0.960609 -1.2494 0
M  V30 15569 C 1421.4 2.05634 -1.04801 0
M  V30 15570 C 1422.37 1.66049 0.0409611 0
M  V30 15571 O 1423.56 1.90453 -0.115053 0
M  V30 15572 C 1420.7 3.38604 -0.666444 0
M  V30 15573 C 1419.81 3.91341 -1.82964 0
M  V30 15574 C 1418.94 5.1261 -1.39299 0
M  V30 15575 C 1417.98 5.57562 -2.52569 0
M  V30 15576 N 1417.12 6.70046 -2.09722 0
M  V30 15577 H 1421.96 2.22194 -1.9858 0
M  V30 15578 H 1419.5 1.08892 -0.988981 0
M  V30 15579 H 1421.46 4.15017 -0.426205 0
M  V30 15580 H 1420.09 3.21948 0.23435 0
M  V30 15581 H 1419.14 3.11502 -2.18335 0
M  V30 15582 H 1420.45 4.20656 -2.68049 0
M  V30 15583 H 1419.6 5.96421 -1.11205 0
M  V30 15584 H 1418.34 4.84997 -0.512779 0
M  V30 15585 H 1417.35 4.72319 -2.81415 0
M  V30 15586 H 1418.57 5.87186 -3.41159 0
M  V30 15587 H 1416.52 6.44153 -1.24109 0
M  V30 15588 H 1416.44 6.98846 -2.88357 0
M  V30 15589 H 1417.7 7.57281 -1.84787 0
M  V30 15590 N 1421.93 1.0643 1.16234 0
M  V30 15591 C 1422.84 0.687446 2.24302 0
M  V30 15592 C 1423.86 -0.297132 1.71444 0
M  V30 15593 O 1425.03 -0.146101 2.00869 0
M  V30 15594 C 1422.1 0.0810973 3.46605 0
M  V30 15595 C 1421.16 1.11772 4.14494 0
M  V30 15596 C 1420.39 0.54021 5.30959 0
M  V30 15597 O 1420.62 -0.646619 5.66723 0
M  V30 15598 O 1419.55 1.28057 5.8812 0
M  V30 15599 H 1423.38 1.58842 2.58849 0
M  V30 15600 H 1420.96 0.836649 1.23776 0
M  V30 15601 H 1422.84 -0.25524 4.20626 0
M  V30 15602 H 1421.52 -0.793338 3.13828 0
M  V30 15603 H 1420.43 1.50626 3.42436 0
M  V30 15604 H 1421.76 1.96373 4.5133 0
M  V30 15605 N 1423.41 -1.329 0.847073 0
M  V30 15606 C 1424.36 -2.29044 0.284199 0
M  V30 15607 C 1425.33 -1.54706 -0.604591 0
M  V30 15608 O 1426.51 -1.82966 -0.541116 0
M  V30 15609 C 1423.65 -3.4104 -0.527822 0
M  V30 15610 C 1422.77 -4.30273 0.385907 0
M  V30 15611 C 1421.9 -5.29391 -0.438009 0
M  V30 15612 C 1420.94 -6.10265 0.473596 0
M  V30 15613 N 1420.08 -7.01403 -0.312684 0
M  V30 15614 H 1424.92 -2.76582 1.10935 0
M  V30 15615 H 1422.45 -1.36085 0.558508 0
M  V30 15616 H 1424.41 -4.04686 -1.01417 0
M  V30 15617 H 1423.04 -2.94673 -1.31787 0
M  V30 15618 H 1422.09 -3.67275 0.99061 0
M  V30 15619 H 1423.41 -4.86837 1.08585 0
M  V30 15620 H 1422.56 -5.98604 -0.987842 0
M  V30 15621 H 1421.3 -4.73424 -1.17135 0
M  V30 15622 H 1420.3 -5.39963 1.03537 0
M  V30 15623 H 1421.53 -6.68316 1.20543 0
M  V30 15624 H 1419.47 -6.47875 -1.02926 0
M  V30 15625 H 1419.39 -7.55286 0.328376 0
M  V30 15626 H 1420.66 -7.74912 -0.844489 0
M  V30 15627 N 1424.89 -0.604284 -1.45555 0
M  V30 15628 C 1426.17 -0.0303285 -1.95576 0
M  V30 15629 C 1426.55 1.43661 -1.54676 0
M  V30 15630 O 1425.89 2.13747 -0.807731 0
M  V30 15631 C 1426.1 -0.22497 -3.48274 0
M  V30 15632 C 1427.45 -0.104042 -4.24473 0
M  V30 15633 O 1428.48 -0.154919 -3.55863 0
M  V30 15634 O 1427.33 0.0136297 -5.46498 0
M  V30 15635 H 1424.43 0.0376106 -0.826144 0
M  V30 15636 H 1426.97 -0.674114 -1.55736 0
M  V30 15637 H 1425.75 -1.24391 -3.71002 0
M  V30 15638 H 1425.37 0.454234 -3.94997 0
M  V30 15639 N 1426.37 1.53816 -0.343257 0
M  V30 15640 C 1427.59 2.05326 0.254744 0
M  V30 15641 C 1428.01 1.21824 1.44237 0
M  V30 15642 O 1427.37 0.253507 1.80731 0
M  V30 15643 C 1427.42 3.55235 0.670075 0
M  V30 15644 O 1427.14 4.35568 -0.470322 0
M  V30 15645 C 1428.64 4.22915 1.32882 0
M  V30 15646 H 1425.86 0.669191 0.0492324 0
M  V30 15647 H 1428.4 1.98415 -0.495159 0
M  V30 15648 H 1426.56 3.6237 1.36992 0
M  V30 15649 H 1426.97 5.24315 -0.139303 0
M  V30 15650 H 1428.45 5.29197 1.57019 0
M  V30 15651 H 1428.92 3.75244 2.28229 0
M  V30 15652 H 1429.53 4.19973 0.67102 0
M  V30 15653 N 1427.84 0.0718701 1.57436 0
M  V30 15654 C 1428.75 -0.910077 2.16229 0
M  V30 15655 C 1429.77 -1.32699 1.12548 0
M  V30 15656 O 1430.95 -1.39967 1.44814 0
M  V30 15657 C 1428.01 -2.15942 2.71238 0
M  V30 15658 C 1427.07 -1.79891 3.89792 0
M  V30 15659 C 1426.31 -2.9887 4.42168 0
M  V30 15660 O 1426.53 -4.1289 3.93545 0
M  V30 15661 O 1425.46 -2.78682 5.33498 0
M  V30 15662 H 1429.29 -0.439969 3.00496 0
M  V30 15663 H 1426.87 -0.151204 1.48633 0
M  V30 15664 H 1428.76 -2.89204 3.06494 0
M  V30 15665 H 1427.43 -2.62051 1.90029 0
M  V30 15666 H 1426.34 -1.03881 3.59388 0
M  V30 15667 H 1427.67 -1.38566 4.72293 0
M  V30 15668 N 1429.32 -1.56304 -0.201686 0
M  V30 15669 C 1430.55 -1.84692 -0.943583 0
M  V30 15670 C 1430.97 -0.654649 -1.7634 0
M  V30 15671 O 1430.33 0.396586 -1.76909 0
M  V30 15672 C 1430.38 -3.11251 -1.82085 0
M  V30 15673 O 1429.48 -2.9134 -2.91881 0
M  V30 15674 H 1428.82 -0.608351 -0.266092 0
M  V30 15675 H 1431.35 -2.0353 -0.208992 0
M  V30 15676 H 1431.36 -3.41874 -2.2268 0
M  V30 15677 H 1430.04 -3.97652 -1.21844 0
M  V30 15678 H 1428.62 -2.72 -2.55089 0
M  V30 15679 N 1430.8 0.469154 -1.50455 0
M  V30 15680 C 1431.75 1.56691 -1.6946 0
M  V30 15681 C 1432.72 1.57217 -0.535921 0
M  V30 15682 O 1433.9 1.74717 -0.766715 0
M  V30 15683 C 1431.04 2.94651 -1.79651 0
M  V30 15684 C 1430.16 3.03899 -3.07033 0
M  V30 15685 C 1429.29 4.32786 -3.08009 0
M  V30 15686 C 1428.33 4.35784 -4.29836 0
M  V30 15687 N 1427.47 5.56145 -4.28541 0
M  V30 15688 H 1432.31 1.39791 -2.63178 0
M  V30 15689 H 1429.84 0.679628 -1.30459 0
M  V30 15690 H 1431.8 3.74658 -1.83541 0
M  V30 15691 H 1430.43 3.10182 -0.893713 0
M  V30 15692 H 1429.48 2.16754 -3.12605 0
M  V30 15693 H 1430.8 3.01974 -3.97005 0
M  V30 15694 H 1429.95 5.21141 -3.10639 0
M  V30 15695 H 1428.69 4.37323 -2.1587 0
M  V30 15696 H 1427.69 3.45825 -4.27417 0
M  V30 15697 H 1428.92 4.32937 -5.23204 0
M  V30 15698 H 1426.86 5.61464 -3.39256 0
M  V30 15699 H 1426.78 5.55969 -5.12284 0
M  V30 15700 H 1428.05 6.4662 -4.35319 0
M  V30 15701 N 1432.28 1.40065 0.722464 0
M  V30 15702 C 1433.56 1.28473 1.47493 0
M  V30 15703 C 1433.94 -0.100058 2.10863 0
M  V30 15704 O 1433.28 -1.11232 1.99599 0
M  V30 15705 C 1433.49 2.41842 2.51621 0
M  V30 15706 C 1434.84 2.81753 3.17648 0
M  V30 15707 O 1435.87 2.41385 2.61939 0
M  V30 15708 O 1434.72 3.51473 4.18484 0
M  V30 15709 H 1431.82 0.504158 0.655556 0
M  V30 15710 H 1434.36 1.51969 0.755223 0
M  V30 15711 H 1433.14 3.34365 2.03263 0
M  V30 15712 H 1432.76 2.20079 3.31136 0
M  V30 15713 N 1433.76 -0.95397 1.25448 0
M  V30 15714 C 1434.7 -2.05075 1.0589 0
M  V30 15715 C 1435.67 -1.66069 -0.0321545 0
M  V30 15716 O 1436.86 -1.90389 0.125152 0
M  V30 15717 C 1434 -3.38246 0.684391 0
M  V30 15718 C 1433.11 -3.90366 1.85037 0
M  V30 15719 C 1432.25 -5.11864 1.42016 0
M  V30 15720 C 1431.29 -5.56214 2.55523 0
M  V30 15721 N 1430.42 -6.68924 2.13272 0
M  V30 15722 H 1435.26 -2.21137 1.99755 0
M  V30 15723 H 1432.8 -1.08366 0.994742 0
M  V30 15724 H 1434.76 -4.14785 0.448209 0
M  V30 15725 H 1433.39 -3.22068 -0.217273 0
M  V30 15726 H 1432.44 -3.1034 2.19984 0
M  V30 15727 H 1433.75 -4.19228 2.70276 0
M  V30 15728 H 1432.91 -5.95823 1.14366 0
M  V30 15729 H 1431.65 -4.84718 0.538492 0
M  V30 15730 H 1430.65 -4.7082 2.83916 0
M  V30 15731 H 1431.88 -5.85368 3.44268 0
M  V30 15732 H 1429.82 -6.43486 1.27523 0
M  V30 15733 H 1429.74 -6.97307 2.92059 0
M  V30 15734 H 1431.01 -7.5629 1.88801 0
M  V30 15735 N 1435.24 -1.07045 -1.15668 0
M  V30 15736 C 1436.15 -0.699332 -2.23934 0
M  V30 15737 C 1437.16 0.288036 -1.71599 0
M  V30 15738 O 1438.34 0.135447 -2.00944 0
M  V30 15739 C 1435.4 -0.0994775 -3.46557 0
M  V30 15740 C 1434.46 -1.13968 -4.13896 0
M  V30 15741 C 1433.7 -0.56836 -5.30665 0
M  V30 15742 O 1433.92 0.616556 -5.67058 0
M  V30 15743 O 1432.85 -1.31174 -5.87432 0
M  V30 15744 H 1436.68 -1.60212 -2.58003 0
M  V30 15745 H 1434.26 -0.843202 -1.23331 0
M  V30 15746 H 1436.15 0.23293 -4.20756 0
M  V30 15747 H 1434.82 0.776684 -3.14244 0
M  V30 15748 H 1433.73 -1.5244 -3.41633 0
M  V30 15749 H 1435.06 -1.98764 -4.50282 0
M  V30 15750 N 1436.71 1.32449 -0.85411 0
M  V30 15751 C 1437.96 1.96537 -0.453451 0
M  V30 15752 C 1438.28 1.68344 0.995982 0
M  V30 15753 O 1439.48 2.26166 1.50204 0
M  V30 15754 C 1437.94 3.51785 -0.759934 0
M  V30 15755 C 1437.55 3.88838 -2.22506 0
M  V30 15756 C 1439.29 4.22347 -0.426973 0
M  V30 15757 C 1437.2 5.37129 -2.47479 0
M  V30 15758 H 1436.13 0.735537 -0.165835 0
M  V30 15759 H 1438.78 1.50851 -1.04481 0
M  V30 15760 H 1437.16 3.95879 -0.0980116 0
M  V30 15761 H 1438.33 3.55756 -2.92873 0
M  V30 15762 H 1436.65 3.31299 -2.52249 0
M  V30 15763 H 1439.25 5.31424 -0.590986 0
M  V30 15764 H 1439.59 4.11485 0.631359 0
M  V30 15765 H 1440.12 3.83835 -1.04477 0
M  V30 15766 H 1436.86 5.53012 -3.51935 0
M  V30 15767 H 1436.38 5.71619 -1.8169 0
M  V30 15768 H 1438.06 6.04204 -2.31401 0
M  V30 15769 N 1438.19 0.611994 1.45232 0
M  V30 15770 C 1439.1 -0.105981 2.3436 0
M  V30 15771 C 1440.12 -0.855785 1.515 0
M  V30 15772 O 1441.29 -0.812376 1.84289 0
M  V30 15773 C 1438.36 -1.08794 3.29188 0
M  V30 15774 C 1437.42 -0.339611 4.27955 0
M  V30 15775 C 1436.65 -1.27479 5.18252 0
M  V30 15776 O 1436.88 -2.51279 5.12069 0
M  V30 15777 O 1435.81 -0.769469 5.96961 0
M  V30 15778 H 1439.64 0.626584 2.97166 0
M  V30 15779 H 1437.22 0.37224 1.44688 0
M  V30 15780 H 1439.1 -1.65338 3.8761 0
M  V30 15781 H 1437.78 -1.80145 2.68941 0
M  V30 15782 H 1436.68 0.268408 3.73136 0
M  V30 15783 H 1438.02 0.333501 4.91069 0
M  V30 15784 N 1439.67 -1.53632 0.351409 0
M  V30 15785 C 1440.6 -2.2284 -0.536204 0
M  V30 15786 C 1441.61 -1.23765 -1.05764 0
M  V30 15787 O 1442.8 -1.50073 -0.966449 0
M  V30 15788 C 1439.9 -2.9013 -1.75151 0
M  V30 15789 C 1439.08 -4.15588 -1.36401 0
M  V30 15790 C 1438.14 -4.66217 -2.43984 0
M  V30 15791 O 1437.16 -5.3024 -2.06964 0
M  V30 15792 N 1438.36 -4.42817 -3.75358 0
M  V30 15793 H 1441.13 -2.99647 0.0565368 0
M  V30 15794 H 1438.69 -1.60942 0.175905 0
M  V30 15795 H 1440.68 -3.20913 -2.4657 0
M  V30 15796 H 1439.25 -2.16862 -2.25144 0
M  V30 15797 H 1438.47 -3.91264 -0.480258 0
M  V30 15798 H 1439.76 -4.97179 -1.08121 0
M  V30 15799 H 1439.16 -3.9163 -4.08218 0
M  V30 15800 H 1437.71 -4.78186 -4.42924 0
M  V30 15801 N 1441.15 -0.0802183 -1.57396 0
M  V30 15802 C 1442.06 0.898597 -2.16708 0
M  V30 15803 C 1443.07 1.321 -1.1325 0
M  V30 15804 O 1444.25 1.39197 -1.45554 0
M  V30 15805 C 1441.31 2.14501 -2.72379 0
M  V30 15806 C 1440.38 1.77822 -3.9074 0
M  V30 15807 C 1439.61 2.96521 -4.43747 0
M  V30 15808 O 1439.83 4.10797 -3.9573 0
M  V30 15809 O 1438.77 2.75849 -5.34968 0
M  V30 15810 H 1442.59 0.424027 -3.00725 0
M  V30 15811 H 1440.18 0.14332 -1.48711 0
M  V30 15812 H 1442.06 2.87575 -3.08024 0
M  V30 15813 H 1440.73 2.61039 -1.91416 0
M  V30 15814 H 1439.64 1.01974 -3.59934 0
M  V30 15815 H 1440.97 1.36059 -4.73021 0
M  V30 15816 N 1442.63 1.56409 0.193394 0
M  V30 15817 C 1443.57 1.94681 1.23968 0
M  V30 15818 C 1444.54 0.807634 1.45143 0
M  V30 15819 O 1445.73 1.06593 1.58248 0
M  V30 15820 C 1442.87 2.29306 2.57901 0
M  V30 15821 C 1441.98 3.56296 2.4429 0
M  V30 15822 C 1441.12 3.80235 3.70938 0
M  V30 15823 C 1440.15 5.00645 3.52167 0
M  V30 15824 N 1439.29 5.20829 4.70831 0
M  V30 15825 H 1444.13 2.83884 0.906298 0
M  V30 15826 H 1441.67 1.40486 0.436146 0
M  V30 15827 H 1443.63 2.47398 3.35932 0
M  V30 15828 H 1442.26 1.43241 2.89278 0
M  V30 15829 H 1441.31 3.46241 1.57547 0
M  V30 15830 H 1442.62 4.44483 2.26354 0
M  V30 15831 H 1441.77 3.98575 4.57408 0
M  V30 15832 H 1440.51 2.90381 3.91829 0
M  V30 15833 H 1439.52 4.82225 2.64081 0
M  V30 15834 H 1440.74 5.92009 3.32719 0
M  V30 15835 H 1438.69 4.33923 4.91983 0
M  V30 15836 H 1438.61 6.03199 4.55726 0
M  V30 15837 H 1439.87 5.4363 5.58648 0
M  V30 15838 N 1444.1 -0.461169 1.50702 0
M  V30 15839 C 1445.01 -1.58355 1.73092 0
M  V30 15840 C 1446.03 -1.62795 0.61431 0
M  V30 15841 O 1447.21 -1.8048 0.893806 0
M  V30 15842 C 1444.27 -2.94509 1.82936 0
M  V30 15843 C 1443.33 -3.00378 3.06711 0
M  V30 15844 C 1442.56 -4.30037 3.16076 0
M  V30 15845 O 1442.79 -5.21097 2.31978 0
M  V30 15846 O 1441.72 -4.41702 4.08881 0
M  V30 15847 H 1445.55 -1.42384 2.68255 0
M  V30 15848 H 1443.13 -0.641709 1.34916 0
M  V30 15849 H 1445.01 -3.75357 1.91534 0
M  V30 15850 H 1443.69 -3.10658 0.909581 0
M  V30 15851 H 1442.6 -2.18571 3.03608 0
M  V30 15852 H 1443.93 -2.89167 3.983 0
M  V30 15853 N 1445.58 -1.40446 -0.715026 0
M  V30 15854 C 1446.53 -1.40756 -1.82911 0
M  V30 15855 C 1447.5 -0.264443 -1.63981 0
M  V30 15856 O 1448.68 -0.462589 -1.85107 0
M  V30 15857 C 1445.82 -1.27648 -3.20624 0
M  V30 15858 C 1444.94 -2.5167 -3.51121 0
M  V30 15859 C 1444.07 -2.31 -4.78344 0
M  V30 15860 C 1443.11 -3.50596 -5.01746 0
M  V30 15861 N 1442.25 -3.29117 -6.20183 0
M  V30 15862 H 1447.09 -2.35981 -1.8198 0
M  V30 15863 H 1444.62 -1.17201 -0.888951 0
M  V30 15864 H 1446.58 -1.18054 -4.00149 0
M  V30 15865 H 1445.21 -0.360419 -3.20782 0
M  V30 15866 H 1444.26 -2.7179 -2.66147 0
M  V30 15867 H 1445.58 -3.4069 -3.64324 0
M  V30 15868 H 1444.73 -2.18763 -5.65887 0
M  V30 15869 H 1443.47 -1.39406 -4.67351 0
M  V30 15870 H 1442.47 -3.63309 -4.12658 0
M  V30 15871 H 1443.7 -4.43117 -5.14611 0
M  V30 15872 H 1441.65 -2.40206 -6.1044 0
M  V30 15873 H 1441.56 -4.11702 -6.34064 0
M  V30 15874 H 1442.83 -3.20614 -7.10512 0
M  V30 15875 N 1447.06 0.947303 -1.25952 0
M  V30 15876 C 1447.97 2.07878 -1.08738 0
M  V30 15877 C 1448.99 1.73985 -0.0225212 0
M  V30 15878 O 1450.16 2.00139 -0.224984 0
M  V30 15879 C 1447.23 3.39231 -0.715756 0
M  V30 15880 C 1446.29 3.86945 -1.85935 0
M  V30 15881 C 1445.52 5.1203 -1.50537 0
M  V30 15882 O 1445.74 5.68965 -0.404323 0
M  V30 15883 O 1444.68 5.54634 -2.33805 0
M  V30 15884 H 1448.5 2.25305 -2.03645 0
M  V30 15885 H 1446.09 1.06321 -1.04958 0
M  V30 15886 H 1447.97 4.18167 -0.520962 0
M  V30 15887 H 1446.65 3.23057 0.203978 0
M  V30 15888 H 1445.55 3.08981 -2.10906 0
M  V30 15889 H 1446.89 4.0763 -2.75859 0
M  V30 15890 N 1448.54 1.07657 1.15099 0
M  V30 15891 C 1449.45 0.711198 2.2356 0
M  V30 15892 C 1450.46 -0.278932 1.7175 0
M  V30 15893 O 1451.64 -0.124788 2.01013 0
M  V30 15894 C 1448.71 0.117855 3.465 0
M  V30 15895 C 1447.77 1.16162 4.13286 0
M  V30 15896 C 1447 0.596494 5.30356 0
M  V30 15897 O 1447.22 -0.586474 5.67377 0
M  V30 15898 O 1446.16 1.34288 5.86729 0
M  V30 15899 H 1449.98 1.61578 2.5715 0
M  V30 15900 H 1447.57 0.84973 1.22882 0
M  V30 15901 H 1449.45 -0.210613 4.20873 0
M  V30 15902 H 1448.12 -0.760008 3.14652 0
M  V30 15903 H 1447.03 1.54249 3.4082 0
M  V30 15904 H 1448.36 2.01149 4.49221 0
M  V30 15905 N 1450.02 -1.31994 0.861122 0
M  V30 15906 C 1451.26 -1.97317 0.468371 0
M  V30 15907 C 1451.6 -1.67954 -0.974941 0
M  V30 15908 O 1450.87 -0.971243 -1.68514 0
M  V30 15909 C 1451.15 -3.52918 0.715607 0
M  V30 15910 C 1451.01 -3.91888 2.20781 0
M  V30 15911 C 1452.33 -4.39747 0.17624 0
M  V30 15912 H 1449.44 -0.716733 0.171646 0
M  V30 15913 H 1452.09 -1.56269 1.08074 0
M  V30 15914 H 1450.24 -3.88013 0.194387 0
M  V30 15915 H 1451.91 -3.66938 2.7956 0
M  V30 15916 H 1450.15 -3.40813 2.68382 0
M  V30 15917 H 1450.82 -5.00346 2.33147 0
M  V30 15918 H 1453.3 -4.11424 0.622043 0
M  V30 15919 H 1452.17 -5.47592 0.378748 0
M  V30 15920 H 1452.44 -4.32393 -0.921358 0
M  V30 15921 N 1451.49 -0.619688 -1.44906 0
M  V30 15922 C 1452.44 0.0920359 -2.30616 0
M  V30 15923 C 1453.41 0.848114 -1.42815 0
M  V30 15924 O 1454.6 0.831439 -1.71732 0
M  V30 15925 C 1451.74 1.07537 -3.27917 0
M  V30 15926 C 1450.85 0.318904 -4.30821 0
M  V30 15927 C 1449.98 1.29303 -5.15222 0
M  V30 15928 C 1449.02 0.525071 -6.09844 0
M  V30 15929 N 1448.16 1.44909 -6.86983 0
M  V30 15930 H 1453 -0.644834 -2.9094 0
M  V30 15931 H 1450.54 -0.329785 -1.43356 0
M  V30 15932 H 1452.5 1.65874 -3.82808 0
M  V30 15933 H 1451.13 1.7795 -2.6932 0
M  V30 15934 H 1450.18 -0.380192 -3.78495 0
M  V30 15935 H 1451.49 -0.279742 -4.98015 0
M  V30 15936 H 1450.64 1.94809 -5.74573 0
M  V30 15937 H 1449.38 1.92561 -4.48076 0
M  V30 15938 H 1448.39 -0.14355 -5.49613 0
M  V30 15939 H 1449.61 -0.102625 -6.79022 0
M  V30 15940 H 1447.56 2.06908 -6.22515 0
M  V30 15941 H 1447.48 0.90418 -7.50574 0
M  V30 15942 H 1448.74 2.09335 -7.50866 0
M  V30 15943 N 1452.97 1.53444 -0.359552 0
M  V30 15944 C 1453.88 2.29257 0.497834 0
M  V30 15945 C 1454.9 1.34987 1.09793 0
M  V30 15946 O 1456.07 1.68039 1.11017 0
M  V30 15947 C 1453.14 3.06258 1.62502 0
M  V30 15948 C 1452.2 4.16183 1.05308 0
M  V30 15949 C 1451.43 4.89503 2.12655 0
M  V30 15950 O 1451.66 4.6263 3.33661 0
M  V30 15951 O 1450.59 5.75578 1.76051 0
M  V30 15952 H 1454.42 3.03467 -0.118925 0
M  V30 15953 H 1452 1.48884 -0.124111 0
M  V30 15954 H 1453.88 3.5436 2.2805 0
M  V30 15955 H 1452.56 2.3489 2.22729 0
M  V30 15956 H 1451.47 3.72348 0.361679 0
M  V30 15957 H 1452.8 4.897 0.49545 0
M  V30 15958 N 1454.45 0.0885642 1.57351 0
M  V30 15959 C 1455.7 -0.57753 1.94403 0
M  V30 15960 C 1456.03 -1.68238 0.970029 0
M  V30 15961 O 1455.3 -1.945 0.00198684 0
M  V30 15962 C 1455.59 -1.13882 3.41618 0
M  V30 15963 C 1455.44 -0.0394686 4.49783 0
M  V30 15964 C 1456.76 -2.03922 3.90005 0
M  V30 15965 H 1453.88 -0.208468 0.706902 0
M  V30 15966 H 1456.52 0.157945 1.89342 0
M  V30 15967 H 1454.67 -1.76561 3.46061 0
M  V30 15968 H 1456.34 0.594458 4.57454 0
M  V30 15969 H 1454.59 0.627775 4.29234 0
M  V30 15970 H 1455.26 -0.472897 5.49971 0
M  V30 15971 H 1457.73 -1.51156 3.87674 0
M  V30 15972 H 1456.61 -2.40123 4.93591 0
M  V30 15973 H 1456.87 -2.95407 3.28918 0
M  V30 15974 N 1455.93 -1.56509 -0.185096 0
M  V30 15975 C 1456.88 -1.95336 -1.22934 0
M  V30 15976 C 1457.85 -0.81532 -1.44713 0
M  V30 15977 O 1459.03 -1.07431 -1.57681 0
M  V30 15978 C 1456.17 -2.30671 -2.56681 0
M  V30 15979 C 1455.28 -3.57586 -2.42397 0
M  V30 15980 C 1454.42 -3.82197 -3.68916 0
M  V30 15981 C 1453.46 -5.02505 -3.49507 0
M  V30 15982 N 1452.59 -5.23319 -4.68062 0
M  V30 15983 H 1457.43 -2.84361 -0.89123 0
M  V30 15984 H 1454.97 -1.40715 -0.428689 0
M  V30 15985 H 1456.93 -2.49176 -3.34615 0
M  V30 15986 H 1455.56 -1.44773 -2.88514 0
M  V30 15987 H 1454.61 -3.47072 -1.55709 0
M  V30 15988 H 1455.92 -4.45677 -2.23994 0
M  V30 15989 H 1455.08 -4.00996 -4.55288 0
M  V30 15990 H 1453.82 -2.92455 -3.90284 0
M  V30 15991 H 1452.82 -4.83619 -2.6152 0
M  V30 15992 H 1454.05 -5.93765 -3.29574 0
M  V30 15993 H 1451.99 -4.36526 -4.89674 0
M  V30 15994 H 1451.91 -6.05608 -4.52521 0
M  V30 15995 H 1453.18 -5.46585 -5.55757 0
M  V30 15996 N 1457.41 0.45317 -1.50944 0
M  V30 15997 C 1458.32 1.57435 -1.73929 0
M  V30 15998 C 1459.33 1.62467 -0.622935 0
M  V30 15999 O 1460.51 1.80004 -0.903365 0
M  V30 16000 C 1457.57 2.93534 -1.84495 0
M  V30 16001 C 1456.63 2.98747 -3.083 0
M  V30 16002 C 1455.87 4.28354 -3.18352 0
M  V30 16003 O 1456.09 5.1986 -2.34738 0
M  V30 16004 O 1455.02 4.39527 -4.11217 0
M  V30 16005 H 1458.85 1.40959 -2.69006 0
M  V30 16006 H 1456.44 0.634545 -1.35255 0
M  V30 16007 H 1458.32 3.74336 -1.93522 0
M  V30 16008 H 1456.99 3.10171 -0.926044 0
M  V30 16009 H 1455.9 2.16958 -3.04762 0
M  V30 16010 H 1457.23 2.87051 -3.99828 0
M  V30 16011 N 1458.88 1.40823 0.707568 0
M  V30 16012 C 1459.83 1.41724 1.82162 0
M  V30 16013 C 1460.8 0.273135 1.63839 0
M  V30 16014 O 1461.99 0.472399 1.84859 0
M  V30 16015 C 1459.13 1.29347 3.19943 0
M  V30 16016 C 1458.24 2.53529 3.49782 0
M  V30 16017 C 1457.37 2.33533 4.77112 0
M  V30 16018 C 1456.41 3.53252 4.9988 0
M  V30 16019 N 1455.55 3.32401 6.18429 0
M  V30 16020 H 1460.39 2.36943 1.80726 0
M  V30 16021 H 1457.93 1.17671 0.882723 0
M  V30 16022 H 1459.89 1.20175 3.99517 0
M  V30 16023 H 1458.52 0.377426 3.20586 0
M  V30 16024 H 1457.57 2.73198 2.64702 0
M  V30 16025 H 1458.88 3.42617 3.62512 0
M  V30 16026 H 1458.03 2.2176 5.64719 0
M  V30 16027 H 1456.77 1.41883 4.66605 0
M  V30 16028 H 1455.78 3.65492 4.10725 0
M  V30 16029 H 1457 4.4584 5.12253 0
M  V30 16030 H 1454.95 2.4344 6.09158 0
M  V30 16031 H 1454.87 4.15059 6.31872 0
M  V30 16032 H 1456.13 3.24377 7.08802 0
M  V30 16033 N 1460.36 -0.94061 1.26453 0
M  V30 16034 C 1461.64 -1.66421 1.02779 0
M  V30 16035 C 1462.02 -2.06429 -0.441614 0
M  V30 16036 O 1461.37 -1.78854 -1.42209 0
M  V30 16037 C 1461.58 -2.87599 1.97707 0
M  V30 16038 C 1462.93 -3.59237 2.26349 0
M  V30 16039 O 1463.95 -2.97704 1.95577 0
M  V30 16040 O 1462.81 -4.70068 2.78744 0
M  V30 16041 H 1459.9 -0.728813 0.390846 0
M  V30 16042 H 1462.45 -0.99229 1.37665 0
M  V30 16043 H 1461.22 -2.54929 2.96862 0
M  V30 16044 H 1460.84 -3.62516 1.63303 0
M  V30 16045 N 1461.84 -1.08266 -1.14527 0
M  V30 16046 C 1463.07 -0.83288 -1.89396 0
M  V30 16047 C 1463.48 0.614823 -1.78509 0
M  V30 16048 O 1462.84 1.42239 -1.14343 0
M  V30 16049 C 1462.89 -1.244 -3.39421 0
M  V30 16050 O 1462.61 -2.63491 -3.50006 0
M  V30 16051 C 1464.11 -1.02488 -4.3129 0
M  V30 16052 H 1461.33 -0.300474 -0.599964 0
M  V30 16053 H 1463.88 -1.44155 -1.4505 0
M  V30 16054 H 1462.03 -0.679466 -3.81395 0
M  V30 16055 H 1462.45 -2.80517 -4.43182 0
M  V30 16056 H 1463.92 -1.36194 -5.34935 0
M  V30 16057 H 1464.4 0.0381961 -4.39183 0
M  V30 16058 H 1465 -1.57477 -3.95071 0
M  V30 16059 N 1463.32 1.31536 -0.86811 0
M  V30 16060 C 1464.23 2.32326 -0.32588 0
M  V30 16061 C 1465.25 1.64632 0.563243 0
M  V30 16062 O 1466.42 1.96067 0.460403 0
M  V30 16063 C 1463.49 3.43562 0.46539 0
M  V30 16064 C 1462.55 4.26919 -0.451472 0
M  V30 16065 C 1461.78 5.32844 0.302129 0
M  V30 16066 O 1462 5.49485 1.53045 0
M  V30 16067 O 1460.94 6.00944 -0.339048 0
M  V30 16068 H 1464.76 2.80622 -1.16126 0
M  V30 16069 H 1462.35 1.35401 -0.631428 0
M  V30 16070 H 1464.23 4.11368 0.914028 0
M  V30 16071 H 1462.91 2.97432 1.27734 0
M  V30 16072 H 1461.81 3.61874 -0.948571 0
M  V30 16073 H 1463.15 4.7661 -1.22897 0
M  V30 16074 N 1464.8 0.627364 1.44575 0
M  V30 16075 C 1465.75 -0.0920488 2.32418 0
M  V30 16076 C 1466.74 -0.839633 1.47128 0
M  V30 16077 O 1467.95 -0.752958 1.63495 0
M  V30 16078 H 1464.32 -0.0485336 0.750432 0
M  V30 16079 H 1466.29 0.666959 2.90851 0
M  V30 16080 C 1465.04 -1.06262 3.31064 0
M  V30 16081 H 1464.36 -0.4968 3.96701 0
M  V30 16082 H 1465.8 -1.53556 3.95217 0
M  V30 16083 C 1464.26 -2.14601 2.59707 0
M  V30 16084 O 1464.79 -3.2263 2.39317 0
M  V30 16085 N 1463 -1.90431 2.19509 0
M  V30 16086 H 1462.55 -1.02584 2.36293 0
M  V30 16087 H 1462.5 -2.6312 1.72091 0
M  V30 16088 N 1466.28 -1.53251 0.367684 0
M  V30 16089 C 1467.22 -2.258 -0.477802 0
M  V30 16090 C 1468.19 -1.26554 -1.07579 0
M  V30 16091 O 1469.38 -1.5534 -1.10788 0
M  V30 16092 C 1466.52 -3.05216 -1.6105 0
M  V30 16093 C 1465.63 -4.19357 -1.03748 0
M  V30 16094 C 1464.77 -4.86211 -2.13945 0
M  V30 16095 C 1463.8 -5.9238 -1.5412 0
M  V30 16096 N 1462.94 -6.52916 -2.58158 0
M  V30 16097 H 1467.78 -2.97635 0.147367 0
M  V30 16098 H 1465.32 -1.46857 0.084495 0
M  V30 16099 H 1467.28 -3.49536 -2.27772 0
M  V30 16100 H 1465.91 -2.35632 -2.20629 0
M  V30 16101 H 1464.96 -3.79507 -0.260476 0
M  V30 16102 H 1466.27 -4.95645 -0.560105 0
M  V30 16103 H 1465.42 -5.33725 -2.88483 0
M  V30 16104 H 1464.16 -4.09399 -2.65035 0
M  V30 16105 H 1463.17 -5.44225 -0.780968 0
M  V30 16106 H 1464.39 -6.71112 -1.03852 0
M  V30 16107 H 1462.34 -5.78956 -3.08457 0
M  V30 16108 H 1462.26 -7.2475 -2.15113 0
M  V30 16109 H 1463.52 -7.05079 -3.32392 0
M  V30 16110 N 1467.75 -0.0969077 -1.57302 0
M  V30 16111 C 1469.03 0.608737 -1.85886 0
M  V30 16112 C 1469.41 1.86228 -0.994096 0
M  V30 16113 O 1468.76 2.28402 -0.0669975 0
M  V30 16114 C 1468.97 0.922385 -3.3659 0
M  V30 16115 C 1470.32 1.28505 -4.04687 0
M  V30 16116 O 1471.34 1.01334 -3.41482 0
M  V30 16117 O 1470.2 1.794 -5.16215 0
M  V30 16118 H 1467.29 0.304808 -0.768779 0
M  V30 16119 H 1469.84 -0.129742 -1.69203 0
M  V30 16120 H 1468.61 0.0331488 -3.91286 0
M  V30 16121 H 1468.23 1.71678 -3.58626 0
M  V30 16122 N 1469.23 1.56605 0.176793 0
M  V30 16123 C 1470.18 1.95985 1.21896 0
M  V30 16124 C 1471.15 0.822983 1.44278 0
M  V30 16125 O 1472.33 1.08266 1.57109 0
M  V30 16126 C 1469.47 2.32029 2.55454 0
M  V30 16127 C 1468.59 3.58867 2.40497 0
M  V30 16128 C 1467.72 3.84148 3.66884 0
M  V30 16129 C 1466.76 5.04352 3.46837 0
M  V30 16130 N 1465.9 5.25794 4.6528 0
M  V30 16131 H 1470.74 2.84829 0.876137 0
M  V30 16132 H 1468.27 1.4094 0.421221 0
M  V30 16133 H 1470.23 2.50947 3.33289 0
M  V30 16134 H 1468.86 1.46301 2.87743 0
M  V30 16135 H 1467.91 3.47893 1.53866 0
M  V30 16136 H 1469.23 4.46859 2.21627 0
M  V30 16137 H 1468.38 4.03404 4.53155 0
M  V30 16138 H 1467.12 2.9452 3.88727 0
M  V30 16139 H 1466.12 4.84999 2.58952 0
M  V30 16140 H 1467.35 5.95505 3.26421 0
M  V30 16141 H 1465.3 4.39117 4.87352 0
M  V30 16142 H 1465.21 6.07999 4.49303 0
M  V30 16143 H 1466.48 5.49524 5.5285 0
M  V30 16144 N 1470.71 -0.445159 1.51182 0
M  V30 16145 C 1471.96 -1.19701 1.63705 0
M  V30 16146 C 1472.29 -1.91047 0.348511 0
M  V30 16147 O 1471.56 -1.83264 -0.651497 0
M  V30 16148 C 1471.85 -2.22021 2.83511 0
M  V30 16149 C 1471.7 -1.54809 4.2232 0
M  V30 16150 C 1473.02 -3.23083 2.9884 0
M  V30 16151 H 1470.14 -0.433818 0.595795 0
M  V30 16152 H 1472.78 -0.487276 1.83645 0
M  V30 16153 H 1470.93 -2.82551 2.66641 0
M  V30 16154 H 1472.6 -0.976774 4.5084 0
M  V30 16155 H 1470.84 -0.850596 4.25379 0
M  V30 16156 H 1471.52 -2.29289 5.02126 0
M  V30 16157 H 1473.99 -2.72601 3.14369 0
M  V30 16158 H 1472.87 -3.91978 3.84246 0
M  V30 16159 H 1473.13 -3.88732 2.1057 0
M  V30 16160 N 1472.19 -1.41197 -0.700089 0
M  V30 16161 C 1473.44 -1.39611 -1.45574 0
M  V30 16162 C 1473.75 -0.00683378 -1.95599 0
M  V30 16163 O 1474.96 0.131643 -2.71181 0
M  V30 16164 C 1473.41 -2.45452 -2.63214 0
M  V30 16165 C 1473.02 -3.90265 -2.19993 0
M  V30 16166 C 1474.76 -2.52996 -3.40871 0
M  V30 16167 C 1472.67 -4.87668 -3.34565 0
M  V30 16168 H 1471.6 -0.51917 -0.546789 0
M  V30 16169 H 1474.25 -1.67001 -0.760456 0
M  V30 16170 H 1472.63 -2.11186 -3.34987 0
M  V30 16171 H 1473.81 -4.33756 -1.55539 0
M  V30 16172 H 1472.12 -3.86339 -1.55341 0
M  V30 16173 H 1474.72 -3.22952 -4.26153 0
M  V30 16174 H 1475.06 -1.56536 -3.85749 0
M  V30 16175 H 1475.6 -2.86331 -2.76151 0
M  V30 16176 H 1472.33 -5.85517 -2.94704 0
M  V30 16177 H 1471.85 -4.4883 -3.97884 0
M  V30 16178 H 1473.53 -5.08215 -4.00409 0
M  V30 16179 N 1473.67 0.933891 -1.2695 0
M  V30 16180 C 1474.91 1.67759 -1.12701 0
M  V30 16181 C 1475.23 1.92207 0.328848 0
M  V30 16182 O 1474.5 1.52394 1.23097 0
M  V30 16183 H 1473.08 0.621729 -0.41408 0
M  V30 16184 H 1475.75 1.1217 -1.59386 0
M  V30 16185 H 1474.84 2.64834 -1.65135 0
M  V30 16186 N 1475.14 1.08871 1.13951 0
M  V30 16187 C 1476.08 0.680849 2.18854 0
M  V30 16188 C 1477.09 -0.274456 1.6047 0
M  V30 16189 O 1478.28 -0.0613804 1.78394 0
M  V30 16190 C 1475.38 -0.0182788 3.38895 0
M  V30 16191 C 1474.55 0.957125 4.268 0
M  V30 16192 C 1473.61 0.29245 5.25387 0
M  V30 16193 O 1472.64 0.938329 5.61413 0
M  V30 16194 N 1473.84 -0.955738 5.72578 0
M  V30 16195 H 1476.6 1.58334 2.54461 0
M  V30 16196 H 1474.16 0.975417 1.29218 0
M  V30 16197 H 1476.16 -0.474001 4.01915 0
M  V30 16198 H 1474.73 -0.822932 3.01574 0
M  V30 16199 H 1473.95 1.59156 3.60642 0
M  V30 16200 H 1475.23 1.61792 4.82391 0
M  V30 16201 H 1474.63 -1.50014 5.45447 0
M  V30 16202 H 1473.19 -1.35488 6.37563 0
M  V30 16203 N 1476.62 -1.31073 0.875073 0
M  V30 16204 C 1477.53 -2.3215 0.338196 0
M  V30 16205 C 1478.55 -1.64928 -0.554504 0
M  V30 16206 O 1479.72 -1.96308 -0.449998 0
M  V30 16207 C 1476.79 -3.43804 -0.447163 0
M  V30 16208 C 1475.85 -4.26674 0.474106 0
M  V30 16209 C 1475.08 -5.32997 -0.273867 0
M  V30 16210 O 1475.31 -5.50288 -1.50129 0
M  V30 16211 O 1474.24 -6.00756 0.370913 0
M  V30 16212 H 1478.07 -2.80002 1.17612 0
M  V30 16213 H 1475.65 -1.35064 0.6386 0
M  V30 16214 H 1477.53 -4.11847 -0.892199 0
M  V30 16215 H 1476.21 -2.98105 -1.26155 0
M  V30 16216 H 1475.11 -3.61366 0.967748 0
M  V30 16217 H 1476.45 -4.75952 1.25423 0
M  V30 16218 N 1478.1 -0.635022 -1.4424 0
M  V30 16219 C 1479.35 -0.138497 -2.01224 0
M  V30 16220 C 1479.66 1.2485 -1.50571 0
M  V30 16221 O 1480.87 1.83926 -1.99709 0
M  V30 16222 C 1479.32 -0.196836 -3.59361 0
M  V30 16223 C 1478.93 -1.58539 -4.1901 0
M  V30 16224 C 1480.68 0.243025 -4.23804 0
M  V30 16225 C 1478.58 -1.59864 -5.69384 0
M  V30 16226 H 1477.51 -0.0480117 -0.75247 0
M  V30 16227 H 1480.16 -0.794391 -1.65414 0
M  V30 16228 H 1478.55 0.526231 -3.92488 0
M  V30 16229 H 1479.72 -2.33236 -3.97414 0
M  V30 16230 H 1478.04 -1.96967 -3.66869 0
M  V30 16231 H 1480.63 0.252717 -5.34102 0
M  V30 16232 H 1480.98 1.27107 -3.96421 0
M  V30 16233 H 1481.51 -0.427678 -3.95494 0
M  V30 16234 H 1478.25 -2.60518 -6.01507 0
M  V30 16235 H 1477.77 -0.894664 -5.9309 0
M  V30 16236 H 1479.45 -1.3343 -6.33092 0
M  V30 16237 N 1479.58 1.53054 -0.375806 0
M  V30 16238 C 1480.83 2.00584 0.211847 0
M  V30 16239 C 1481.14 1.26692 1.49025 0
M  V30 16240 O 1482.35 1.64863 2.15713 0
M  V30 16241 C 1480.8 3.57345 0.428074 0
M  V30 16242 C 1480.41 4.40125 -0.836299 0
M  V30 16243 C 1482.15 4.13203 0.972825 0
M  V30 16244 C 1480.06 5.88459 -0.589093 0
M  V30 16245 H 1478.99 0.749424 0.0829412 0
M  V30 16246 H 1481.64 1.76666 -0.496126 0
M  V30 16247 H 1480.02 3.77458 1.19756 0
M  V30 16248 H 1481.2 4.31782 -1.60936 0
M  V30 16249 H 1479.51 3.95422 -1.30501 0
M  V30 16250 H 1482.11 5.21669 1.17326 0
M  V30 16251 H 1482.45 3.68441 1.93797 0
M  V30 16252 H 1482.99 3.96928 0.263249 0
M  V30 16253 H 1479.73 6.37517 -1.52485 0
M  V30 16254 H 1479.25 5.99624 0.145285 0
M  V30 16255 H 1480.92 6.46631 -0.218485 0
M  V30 16256 N 1481.06 0.105248 1.57248 0
M  V30 16257 C 1482.31 -0.555797 1.93891 0
M  V30 16258 C 1482.62 -1.68703 0.989883 0
M  V30 16259 O 1483.82 -2.40991 1.25043 0
M  V30 16260 C 1482.28 -1.04006 3.44544 0
M  V30 16261 C 1481.89 0.0619641 4.47957 0
M  V30 16262 C 1483.63 -1.67327 3.90131 0
M  V30 16263 C 1481.54 -0.438229 5.89774 0
M  V30 16264 H 1480.47 -0.211391 0.723761 0
M  V30 16265 H 1483.12 0.182887 1.82586 0
M  V30 16266 H 1481.5 -1.83275 3.51036 0
M  V30 16267 H 1482.68 0.837803 4.5312 0
M  V30 16268 H 1480.99 0.600973 4.1204 0
M  V30 16269 H 1483.59 -2.0584 4.93492 0
M  V30 16270 H 1483.93 -2.54638 3.29341 0
M  V30 16271 H 1484.46 -0.946231 3.86382 0
M  V30 16272 H 1481.2 0.398506 6.54288 0
M  V30 16273 H 1480.72 -1.18085 5.88061 0
M  V30 16274 H 1482.4 -0.903922 6.40655 0
M  V30 16275 N 1482.53 -1.56697 -0.168486 0
M  V30 16276 C 1483.44 -1.99866 -1.22845 0
M  V30 16277 C 1484.46 -0.910491 -1.48277 0
M  V30 16278 O 1485.64 -1.21834 -1.6037 0
M  V30 16279 C 1482.7 -2.35227 -2.54694 0
M  V30 16280 C 1481.76 -3.57886 -2.37099 0
M  V30 16281 C 1481 -3.91551 -3.62661 0
M  V30 16282 O 1481.22 -3.26148 -4.67957 0
M  V30 16283 O 1480.15 -4.8489 -3.56603 0
M  V30 16284 H 1483.98 -2.90305 -0.892015 0
M  V30 16285 H 1481.56 -1.44602 -0.375571 0
M  V30 16286 H 1483.45 -2.58928 -3.32467 0
M  V30 16287 H 1482.12 -1.4795 -2.87911 0
M  V30 16288 H 1481.03 -3.394 -1.57348 0
M  V30 16289 H 1482.36 -4.45714 -2.08806 0
M  V30 16290 N 1484.01 0.437135 -1.51416 0
M  V30 16291 C 1484.92 1.55581 -1.75589 0
M  V30 16292 C 1485.94 1.61797 -0.640132 0
M  V30 16293 O 1487.11 1.79035 -0.922406 0
M  V30 16294 C 1484.18 2.91561 -1.87598 0
M  V30 16295 C 1483.24 2.9546 -3.11451 0
M  V30 16296 C 1482.47 4.24954 -3.22878 0
M  V30 16297 O 1482.7 5.17341 -2.40238 0
M  V30 16298 O 1481.63 4.35141 -4.15856 0
M  V30 16299 H 1485.46 1.38098 -2.70486 0
M  V30 16300 H 1483.04 0.620163 -1.3592 0
M  V30 16301 H 1484.92 3.72262 -1.97481 0
M  V30 16302 H 1483.6 3.09171 -0.958889 0
M  V30 16303 H 1482.51 2.13713 -3.07046 0
M  V30 16304 H 1483.84 2.82794 -4.0285 0
M  V30 16305 N 1485.49 1.41566 0.692592 0
M  V30 16306 C 1486.74 1.40381 1.44831 0
M  V30 16307 C 1487.05 0.0172068 1.95592 0
M  V30 16308 O 1488.26 -0.11726 2.71247 0
M  V30 16309 C 1486.71 2.46844 2.61908 0
M  V30 16310 C 1486.32 3.91426 2.17921 0
M  V30 16311 C 1488.07 2.548 3.39525 0
M  V30 16312 C 1485.97 4.89436 3.31974 0
M  V30 16313 H 1484.9 0.522062 0.544028 0
M  V30 16314 H 1487.55 1.67402 0.751589 0
M  V30 16315 H 1485.94 2.12959 3.33863 0
M  V30 16316 H 1487.11 4.34575 1.53236 0
M  V30 16317 H 1485.43 3.87158 1.5329 0
M  V30 16318 H 1488.02 3.25207 4.24434 0
M  V30 16319 H 1488.37 1.58579 3.84913 0
M  V30 16320 H 1488.9 2.87791 2.74629 0
M  V30 16321 H 1485.64 5.87071 2.91595 0
M  V30 16322 H 1485.16 4.50933 3.95499 0
M  V30 16323 H 1486.84 5.10331 3.97708 0
M  V30 16324 N 1486.97 -0.927146 1.27443 0
M  V30 16325 C 1487.92 -2.02783 1.10216 0
M  V30 16326 C 1488.89 -1.661 0.00307842 0
M  V30 16327 O 1490.07 -1.90081 0.165508 0
M  V30 16328 C 1487.21 -3.36718 0.755984 0
M  V30 16329 C 1486.32 -3.86353 1.93276 0
M  V30 16330 C 1485.46 -5.08737 1.52841 0
M  V30 16331 C 1484.5 -5.50669 2.67263 0
M  V30 16332 N 1483.63 -6.6425 2.27413 0
M  V30 16333 H 1488.47 -2.16851 2.04401 0
M  V30 16334 H 1486.01 -1.06232 1.0175 0
M  V30 16335 H 1487.97 -4.13741 0.53609 0
M  V30 16336 H 1486.6 -3.22456 -0.148909 0
M  V30 16337 H 1485.65 -3.05604 2.26518 0
M  V30 16338 H 1486.96 -4.13401 2.79108 0
M  V30 16339 H 1486.12 -5.93263 1.26979 0
M  V30 16340 H 1484.86 -4.83467 0.641187 0
M  V30 16341 H 1483.86 -4.64692 2.93839 0
M  V30 16342 H 1485.09 -5.77934 3.56607 0
M  V30 16343 H 1483.03 -6.40636 1.41143 0
M  V30 16344 H 1482.95 -6.90955 3.06784 0
M  V30 16345 H 1484.22 -7.52115 2.048 0
M  V30 16346 N 1488.45 -1.09474 -1.13372 0
M  V30 16347 C 1489.39 -0.73458 -2.18798 0
M  V30 16348 C 1490.36 0.284433 -1.63647 0
M  V30 16349 O 1491.55 0.165958 -1.90077 0
M  V30 16350 C 1488.69 -0.161826 -3.4472 0
M  V30 16351 C 1487.8 -1.23494 -4.13973 0
M  V30 16352 C 1486.94 -0.624886 -5.27512 0
M  V30 16353 C 1485.98 -1.67927 -5.88614 0
M  V30 16354 N 1485.11 -1.09021 -6.93584 0
M  V30 16355 H 1489.95 -1.63787 -2.48954 0
M  V30 16356 H 1487.49 -0.818297 -1.22239 0
M  V30 16357 H 1489.45 0.188053 -4.16776 0
M  V30 16358 H 1488.08 0.70473 -3.15013 0
M  V30 16359 H 1487.13 -1.70209 -3.40196 0
M  V30 16360 H 1488.44 -2.0335 -4.55467 0
M  V30 16361 H 1487.6 -0.22388 -6.06287 0
M  V30 16362 H 1486.33 0.205214 -4.87268 0
M  V30 16363 H 1485.34 -2.08982 -5.08534 0
M  V30 16364 H 1486.56 -2.51204 -6.3093 0
M  V30 16365 H 1484.51 -0.281401 -6.55396 0
M  V30 16366 H 1484.43 -1.82573 -7.33623 0
M  V30 16367 H 1485.7 -0.715428 -7.7621 0
M  V30 16368 N 1489.92 1.30607 -0.882012 0
M  V30 16369 C 1490.83 2.31967 -0.350503 0
M  V30 16370 C 1491.85 1.6522 0.54575 0
M  V30 16371 O 1493.03 1.96544 0.439581 0
M  V30 16372 C 1490.09 3.44037 0.428924 0
M  V30 16373 C 1489.15 4.26417 -0.496727 0
M  V30 16374 C 1488.39 5.33135 0.245597 0
M  V30 16375 O 1488.61 5.51077 1.47209 0
M  V30 16376 O 1487.54 6.00551 -0.402767 0
M  V30 16377 H 1491.37 2.79374 -1.19095 0
M  V30 16378 H 1488.95 1.34723 -0.645754 0
M  V30 16379 H 1490.84 4.12314 0.870346 0
M  V30 16380 H 1489.51 2.9877 1.24573 0
M  V30 16381 H 1488.42 3.60848 -0.986899 0
M  V30 16382 H 1489.75 4.7528 -1.27945 0
M  V30 16383 N 1491.4 0.642663 1.43901 0
M  V30 16384 C 1492.65 0.152003 2.0223 0
M  V30 16385 C 1492.98 -1.22711 1.50518 0
M  V30 16386 O 1492.26 -1.817 0.693937 0
M  V30 16387 C 1492.54 0.151278 3.59782 0
M  V30 16388 C 1492.39 1.56356 4.2175 0
M  V30 16389 C 1493.71 -0.518016 4.37041 0
M  V30 16390 H 1490.83 0.0567094 0.734815 0
M  V30 16391 H 1493.47 0.821337 1.7133 0
M  V30 16392 H 1491.62 -0.418679 3.86237 0
M  V30 16393 H 1493.29 2.18329 4.06362 0
M  V30 16394 H 1491.54 2.11401 3.78803 0
M  V30 16395 H 1492.21 1.51499 5.30803 0
M  V30 16396 H 1494.68 -0.0331947 4.16087 0
M  V30 16397 H 1493.56 -0.487754 5.46729 0
M  V30 16398 H 1493.82 -1.59036 4.12504 0
M  V30 16399 N 1492.88 -1.52852 0.383918 0
M  V30 16400 C 1493.83 -2.26294 -0.453826 0
M  V30 16401 C 1494.8 -1.27688 -1.0623 0
M  V30 16402 O 1495.98 -1.56507 -1.09134 0
M  V30 16403 C 1493.12 -3.06907 -1.57803 0
M  V30 16404 C 1492.24 -4.20434 -0.992943 0
M  V30 16405 C 1491.37 -4.88453 -2.08776 0
M  V30 16406 C 1490.41 -5.93981 -1.47828 0
M  V30 16407 N 1489.55 -6.55617 -2.51218 0
M  V30 16408 H 1494.39 -2.97462 0.178927 0
M  V30 16409 H 1491.92 -1.46759 0.100066 0
M  V30 16410 H 1493.88 -3.51933 -2.24052 0
M  V30 16411 H 1492.51 -2.37959 -2.18118 0
M  V30 16412 H 1491.56 -3.79762 -0.22021 0
M  V30 16413 H 1492.88 -4.96211 -0.507504 0
M  V30 16414 H 1492.03 -5.36755 -2.82806 0
M  V30 16415 H 1490.77 -4.12187 -2.60678 0
M  V30 16416 H 1489.77 -5.45023 -0.723202 0
M  V30 16417 H 1491 -6.72176 -0.967278 0
M  V30 16418 H 1488.95 -5.82195 -3.02299 0
M  V30 16419 H 1488.86 -7.26991 -2.07414 0
M  V30 16420 H 1490.13 -7.08564 -3.24895 0
M  V30 16421 N 1494.36 -0.113586 -1.5719 0
M  V30 16422 C 1495.31 0.83862 -2.15025 0
M  V30 16423 C 1496.28 1.26726 -1.07376 0
M  V30 16424 O 1497.46 1.34574 -1.35257 0
M  V30 16425 C 1494.6 2.08538 -2.74965 0
M  V30 16426 C 1493.71 1.70559 -3.96905 0
M  V30 16427 C 1492.85 2.90161 -4.44949 0
M  V30 16428 C 1491.89 2.48396 -5.59433 0
M  V30 16429 N 1491.03 3.60894 -6.02246 0
M  V30 16430 H 1495.87 0.338585 -2.9607 0
M  V30 16431 H 1493.4 0.155437 -1.46276 0
M  V30 16432 H 1495.36 2.81579 -3.07846 0
M  V30 16433 H 1493.99 2.56009 -1.96619 0
M  V30 16434 H 1493.04 0.874133 -3.7022 0
M  V30 16435 H 1494.35 1.35863 -4.7994 0
M  V30 16436 H 1493.51 3.71434 -4.7971 0
M  V30 16437 H 1492.25 3.28081 -3.60852 0
M  V30 16438 H 1491.25 1.65555 -5.24282 0
M  V30 16439 H 1492.48 2.116 -6.45292 0
M  V30 16440 H 1490.42 3.98497 -5.21091 0
M  V30 16441 H 1490.34 3.30103 -6.80124 0
M  V30 16442 H 1491.61 4.42622 -6.41643 0
M  V30 16443 N 1495.84 1.56784 0.160173 0
M  V30 16444 C 1497.25 1.51153 0.512352 0
M  V30 16445 C 1497.45 0.819774 1.84071 0
M  V30 16446 O 1496.51 0.384789 2.49551 0
M  V30 16447 C 1497.82 2.95906 0.534817 0
M  V30 16448 C 1499.37 3.06773 0.621248 0
M  V30 16449 C 1499.85 4.53006 0.674501 0
M  V30 16450 N 1501.34 4.57298 0.737087 0
M  V30 16451 C 1502.07 5.67805 0.799054 0
M  V30 16452 N 1501.57 6.87916 0.821171 0
M  V30 16453 N 1503.36 5.55804 0.838928 0
M  V30 16454 H 1495.51 2.00157 -0.710712 0
M  V30 16455 H 1497.77 0.91233 -0.257601 0
M  V30 16456 H 1497.48 3.49719 -0.372773 0
M  V30 16457 H 1497.35 3.51152 1.3774 0
M  V30 16458 H 1499.74 2.52987 1.51926 0
M  V30 16459 H 1499.82 2.54593 -0.248224 0
M  V30 16460 H 1499.47 5.07426 -0.219301 0
M  V30 16461 H 1499.4 5.02954 1.56028 0
M  V30 16462 H 1501.89 3.70825 0.727827 0
M  V30 16463 H 1502.2 7.67888 0.869938 0
M  V30 16464 H 1500.55 6.90504 0.789264 0
M  V30 16465 H 1503.74 4.60884 0.818728 0
M  V30 16466 H 1503.91 6.41945 0.883757 0
M  V30 16467 N 1497.32 -0.429099 1.51646 0
M  V30 16468 C 1498.56 -1.17958 1.64966 0
M  V30 16469 C 1498.89 -1.90667 0.368755 0
M  V30 16470 O 1498.17 -1.83945 -0.632023 0
M  V30 16471 C 1498.45 -2.19002 2.8585 0
M  V30 16472 C 1498.31 -1.50321 4.23938 0
M  V30 16473 C 1499.62 -3.19895 3.0225 0
M  V30 16474 H 1496.74 -0.427474 0.600362 0
M  V30 16475 H 1499.39 -0.46777 1.84152 0
M  V30 16476 H 1497.54 -2.79707 2.69623 0
M  V30 16477 H 1499.21 -0.928902 4.51851 0
M  V30 16478 H 1497.45 -0.805431 4.26257 0
M  V30 16479 H 1498.12 -2.2395 5.0453 0
M  V30 16480 H 1500.6 -2.69251 3.17243 0
M  V30 16481 H 1499.47 -3.8788 3.88381 0
M  V30 16482 H 1499.73 -3.86477 2.14682 0
M  V30 16483 N 1498.79 -1.41931 -0.685074 0
M  V30 16484 C 1499.74 -1.44604 -1.79884 0
M  V30 16485 C 1500.71 -0.299166 -1.63384 0
M  V30 16486 O 1501.9 -0.501749 -1.84085 0
M  V30 16487 C 1499.04 -1.3442 -3.17845 0
M  V30 16488 C 1498.15 -2.59061 -3.45704 0
M  V30 16489 C 1497.28 -2.41094 -4.73336 0
M  V30 16490 C 1496.32 -3.61159 -4.94197 0
M  V30 16491 N 1495.46 -3.42198 -6.13062 0
M  V30 16492 H 1500.3 -2.39788 -1.76934 0
M  V30 16493 H 1497.84 -1.1906 -0.863891 0
M  V30 16494 H 1499.79 -1.26515 -3.97555 0
M  V30 16495 H 1498.42 -0.42838 -3.19945 0
M  V30 16496 H 1497.48 -2.77374 -2.60322 0
M  V30 16497 H 1498.79 -3.48341 -3.57016 0
M  V30 16498 H 1497.94 -2.30717 -5.61119 0
M  V30 16499 H 1496.68 -1.49288 -4.64289 0
M  V30 16500 H 1495.69 -3.7198 -4.04859 0
M  V30 16501 H 1496.91 -4.53933 -5.05096 0
M  V30 16502 H 1494.86 -2.531 -6.05208 0
M  V30 16503 H 1494.77 -4.25059 -6.25189 0
M  V30 16504 H 1496.04 -3.35612 -7.03551 0
M  V30 16505 N 1500.27 0.920374 -1.27933 0
M  V30 16506 C 1501.22 2.02196 -1.1129 0
M  V30 16507 C 1502.19 1.66096 -0.0118871 0
M  V30 16508 O 1503.37 1.8999 -0.175586 0
M  V30 16509 C 1500.51 3.36312 -0.77383 0
M  V30 16510 C 1499.63 3.85322 -1.95322 0
M  V30 16511 C 1498.76 5.07919 -1.55537 0
M  V30 16512 C 1497.8 5.49244 -2.7018 0
M  V30 16513 N 1496.94 6.63034 -2.30933 0
M  V30 16514 H 1501.78 2.15764 -2.05548 0
M  V30 16515 H 1499.31 1.05691 -1.02312 0
M  V30 16516 H 1501.27 4.13451 -0.558024 0
M  V30 16517 H 1499.9 3.22531 0.131806 0
M  V30 16518 H 1498.95 3.04399 -2.28135 0
M  V30 16519 H 1500.27 4.11915 -2.81296 0
M  V30 16520 H 1499.42 5.92581 -1.30123 0
M  V30 16521 H 1498.16 4.8312 -0.666818 0
M  V30 16522 H 1497.16 4.63127 -2.96299 0
M  V30 16523 H 1498.39 5.76035 -3.59667 0
M  V30 16524 H 1496.34 6.39878 -1.44539 0
M  V30 16525 H 1496.25 6.89319 -3.10444 0
M  V30 16526 H 1497.52 7.51018 -2.08786 0
M  V30 16527 N 1501.75 1.10074 1.1279 0
M  V30 16528 C 1503.17 0.831776 1.36212 0
M  V30 16529 C 1503.37 -0.550632 1.93831 0
M  V30 16530 O 1502.42 -1.30422 2.16209 0
M  V30 16531 C 1503.73 1.92844 2.3072 0
M  V30 16532 C 1505.28 1.95645 2.4432 0
M  V30 16533 C 1505.76 3.04474 3.4214 0
M  V30 16534 N 1507.25 3.03756 3.49695 0
M  V30 16535 C 1507.98 3.84605 4.25284 0
M  V30 16536 N 1507.48 4.7538 5.0397 0
M  V30 16537 N 1509.27 3.72838 4.20652 0
M  V30 16538 H 1501.42 1.99187 0.737452 0
M  V30 16539 H 1503.69 0.865383 0.387062 0
M  V30 16540 H 1503.39 2.92323 1.9555 0
M  V30 16541 H 1503.27 1.81241 3.30805 0
M  V30 16542 H 1505.65 0.968004 2.78772 0
M  V30 16543 H 1505.73 2.11325 1.44136 0
M  V30 16544 H 1505.38 4.03536 3.08418 0
M  V30 16545 H 1505.31 2.86036 4.42144 0
M  V30 16546 H 1507.8 2.37977 2.93556 0
M  V30 16547 H 1508.11 5.33637 5.58974 0
M  V30 16548 H 1506.46 4.79411 5.0318 0
M  V30 16549 H 1509.65 3.01276 3.5826 0
M  V30 16550 H 1509.82 4.36083 4.79308 0
M  V30 16551 N 1503.23 -1.30138 0.888926 0
M  V30 16552 C 1504.18 -2.29979 0.348212 0
M  V30 16553 C 1505.17 -1.60329 -0.546894 0
M  V30 16554 O 1506.38 -1.74767 -0.43089 0
M  V30 16555 H 1502.75 -0.746107 0.0939563 0
M  V30 16556 H 1504.72 -2.73038 1.20385 0
M  V30 16557 C 1503.47 -3.45169 -0.418762 0
M  V30 16558 H 1502.79 -3.98949 0.260761 0
M  V30 16559 H 1504.23 -4.17094 -0.762133 0
M  V30 16560 C 1502.69 -2.95539 -1.61734 0
M  V30 16561 O 1503.22 -2.95902 -2.7167 0
M  V30 16562 N 1501.43 -2.51502 -1.45585 0
M  V30 16563 H 1500.98 -2.51406 -0.561483 0
M  V30 16564 H 1500.93 -2.18654 -2.25916 0
M  V30 16565 N 1504.71 -0.650285 -1.43559 0
M  V30 16566 C 1505.65 0.0550615 -2.32535 0
M  V30 16567 C 1506.65 0.81612 -1.48445 0
M  V30 16568 O 1507.85 0.726853 -1.64672 0
M  V30 16569 H 1504.23 0.0365887 -0.751109 0
M  V30 16570 H 1506.2 -0.713146 -2.89753 0
M  V30 16571 C 1504.95 1.00982 -3.32713 0
M  V30 16572 H 1504.27 0.433626 -3.97441 0
M  V30 16573 H 1505.71 1.47249 -3.9761 0
M  V30 16574 C 1504.17 2.10442 -2.63089 0
M  V30 16575 O 1504.7 3.18782 -2.44419 0
M  V30 16576 N 1502.91 1.86915 -2.22511 0
M  V30 16577 H 1502.45 0.988113 -2.37895 0
M  V30 16578 H 1502.41 2.60348 -1.76256 0
M  V30 16579 N 1506.18 1.52647 -0.392018 0
M  V30 16580 C 1507.13 2.26532 0.441819 0
M  V30 16581 C 1508.1 1.2825 1.05552 0
M  V30 16582 O 1509.29 1.57083 1.08303 0
M  V30 16583 C 1506.43 3.0774 1.56174 0
M  V30 16584 C 1505.54 4.20955 0.970632 0
M  V30 16585 C 1504.67 4.89553 2.06183 0
M  V30 16586 C 1503.71 5.94756 1.44676 0
M  V30 16587 N 1502.85 6.5694 2.47738 0
M  V30 16588 H 1507.69 2.97363 -0.194699 0
M  V30 16589 H 1505.23 1.46704 -0.107848 0
M  V30 16590 H 1507.18 3.53116 2.22183 0
M  V30 16591 H 1505.81 2.39112 2.16853 0
M  V30 16592 H 1504.87 3.79874 0.200067 0
M  V30 16593 H 1506.18 4.96474 0.481181 0
M  V30 16594 H 1505.33 5.38247 2.79956 0
M  V30 16595 H 1504.07 4.13564 2.58488 0
M  V30 16596 H 1503.08 5.45399 0.694288 0
M  V30 16597 H 1504.3 6.72679 0.931617 0
M  V30 16598 H 1502.25 5.8379 2.99208 0
M  V30 16599 H 1502.16 7.2808 2.03556 0
M  V30 16600 H 1503.43 7.10277 3.21133 0
M  V30 16601 N 1507.66 0.121921 1.57128 0
M  V30 16602 C 1508.61 -0.844503 2.16728 0
M  V30 16603 C 1509.6 -1.2733 1.1173 0
M  V30 16604 O 1510.81 -1.2447 1.30028 0
M  V30 16605 H 1507.19 -0.290459 0.693641 0
M  V30 16606 H 1509.16 -0.317379 2.96707 0
M  V30 16607 C 1507.91 -2.08359 2.78356 0
M  V30 16608 H 1507.23 -1.76258 3.5885 0
M  V30 16609 H 1508.67 -2.73978 3.23592 0
M  V30 16610 C 1507.13 -2.87526 1.75586 0
M  V30 16611 O 1507.66 -3.83011 1.21101 0
M  V30 16612 N 1505.86 -2.51575 1.4546 0
M  V30 16613 H 1505.41 -1.73993 1.89958 0
M  V30 16614 H 1505.37 -3.0484 0.769411 0
M  V30 16615 N 1509.14 -1.56867 -0.151857 0
M  V30 16616 C 1510.05 -2.01157 -1.20718 0
M  V30 16617 C 1511.07 -0.926166 -1.47303 0
M  V30 16618 O 1512.24 -1.23528 -1.59069 0
M  V30 16619 C 1509.31 -2.37915 -2.52185 0
M  V30 16620 C 1508.37 -3.60381 -2.3329 0
M  V30 16621 C 1507.6 -3.95376 -3.58488 0
M  V30 16622 O 1507.82 -3.31093 -4.64471 0
M  V30 16623 O 1506.76 -4.88645 -3.5144 0
M  V30 16624 H 1510.58 -2.91234 -0.861175 0
M  V30 16625 H 1508.17 -1.44993 -0.360213 0
M  V30 16626 H 1510.05 -2.6244 -3.29702 0
M  V30 16627 H 1508.73 -1.50995 -2.86325 0
M  V30 16628 H 1507.63 -3.4105 -1.5374 0
M  V30 16629 H 1508.97 -4.47903 -2.04067 0
M  V30 16630 N 1510.62 0.421051 -1.51871 0
M  V30 16631 C 1511.57 1.53277 -1.74954 0
M  V30 16632 C 1512.56 1.57792 -0.616282 0
M  V30 16633 O 1513.77 1.61342 -0.798054 0
M  V30 16634 H 1510.14 0.50953 -0.553067 0
M  V30 16635 H 1512.11 1.30988 -2.68113 0
M  V30 16636 C 1510.86 2.90772 -1.90649 0
M  V30 16637 H 1510.18 2.88035 -2.77265 0
M  V30 16638 H 1511.62 3.67882 -2.10805 0
M  V30 16639 C 1510.08 3.30161 -0.670463 0
M  V30 16640 O 1510.61 4.01352 0.167271 0
M  V30 16641 N 1508.82 2.86093 -0.509813 0
M  V30 16642 H 1508.37 2.28329 -1.19262 0
M  V30 16643 H 1508.32 3.12809 0.315918 0
M  V30 16644 N 1512.1 1.42293 0.677538 0
M  V30 16645 C 1513.04 1.45556 1.79114 0
M  V30 16646 C 1514.01 0.307826 1.63223 0
M  V30 16647 O 1515.2 0.511504 1.83816 0
M  V30 16648 C 1512.34 1.36104 3.17127 0
M  V30 16649 C 1511.45 2.60891 3.44325 0
M  V30 16650 C 1510.59 2.43601 4.72051 0
M  V30 16651 C 1509.63 3.63775 4.92274 0
M  V30 16652 N 1508.76 3.45444 6.11239 0
M  V30 16653 H 1513.6 2.40723 1.7566 0
M  V30 16654 H 1511.14 1.19517 0.857565 0
M  V30 16655 H 1513.1 1.28622 3.96878 0
M  V30 16656 H 1511.73 0.445342 3.19713 0
M  V30 16657 H 1510.78 2.78751 2.58848 0
M  V30 16658 H 1512.09 3.50229 3.55163 0
M  V30 16659 H 1511.25 2.33689 5.59888 0
M  V30 16660 H 1509.98 1.51748 4.63491 0
M  V30 16661 H 1508.99 3.74122 4.0288 0
M  V30 16662 H 1510.21 4.56605 5.02681 0
M  V30 16663 H 1508.16 2.56306 6.03857 0
M  V30 16664 H 1508.08 4.28368 6.22926 0
M  V30 16665 H 1509.35 3.39339 7.01762 0
M  V30 16666 N 1513.57 -0.913576 1.28419 0
M  V30 16667 C 1514.85 -1.64203 1.06285 0
M  V30 16668 C 1515.23 -2.07319 -0.397728 0
M  V30 16669 O 1514.58 -1.8183 -1.38383 0
M  V30 16670 C 1514.79 -2.8334 2.03763 0
M  V30 16671 C 1516.14 -3.54355 2.33918 0
M  V30 16672 O 1517.16 -2.93489 2.01848 0
M  V30 16673 O 1516.02 -4.6405 2.88652 0
M  V30 16674 H 1513.11 -0.720359 0.406217 0
M  V30 16675 H 1515.66 -0.962866 1.39739 0
M  V30 16676 H 1514.43 -2.48575 3.02203 0
M  V30 16677 H 1514.06 -3.5897 1.70956 0
M  V30 16678 N 1515.05 -1.1067 -1.12204 0
M  V30 16679 C 1516 -0.752659 -2.20086 0
M  V30 16680 C 1516.99 0.252284 -1.67511 0
M  V30 16681 O 1518.2 0.112398 -1.79649 0
M  V30 16682 H 1514.58 -0.225473 -0.717402 0
M  V30 16683 H 1516.55 -1.67136 -2.472 0
M  V30 16684 C 1515.3 -0.203345 -3.47105 0
M  V30 16685 H 1514.62 -0.967864 -3.87908 0
M  V30 16686 H 1516.06 0.00629123 -4.24 0
M  V30 16687 C 1514.52 1.06452 -3.1964 0
M  V30 16688 O 1515.05 2.14562 -3.39597 0
M  V30 16689 N 1513.25 0.984122 -2.73429 0
M  V30 16690 H 1512.8 0.104258 -2.57389 0
M  V30 16691 H 1512.76 1.83312 -2.55429 0
M  V30 16692 N 1516.53 1.29665 -0.895815 0
M  V30 16693 C 1517.78 1.96006 -0.520522 0
M  V30 16694 C 1518.11 1.7048 0.930068 0
M  V30 16695 O 1517.38 1.01558 1.6588 0
M  V30 16696 C 1517.67 3.50897 -0.808925 0
M  V30 16697 C 1517.52 3.85896 -2.31093 0
M  V30 16698 C 1518.84 4.39125 -0.292769 0
M  V30 16699 H 1515.96 0.711931 -0.190588 0
M  V30 16700 H 1518.6 1.53349 -1.12179 0
M  V30 16701 H 1516.75 3.87362 -0.297194 0
M  V30 16702 H 1518.42 3.59397 -2.89191 0
M  V30 16703 H 1516.67 3.33578 -2.77323 0
M  V30 16704 H 1517.34 4.93989 -2.46331 0
M  V30 16705 H 1519.81 4.0963 -0.730906 0
M  V30 16706 H 1518.69 5.46395 -0.523799 0
M  V30 16707 H 1518.95 4.34683 0.806393 0
M  V30 16708 N 1518.01 0.657889 1.43212 0
M  V30 16709 C 1519.26 0.170493 2.00978 0
M  V30 16710 C 1519.57 -1.22439 1.52539 0
M  V30 16711 O 1520.78 -1.80725 2.02609 0
M  V30 16712 C 1519.23 0.253982 3.59003 0
M  V30 16713 C 1518.84 1.65185 4.16435 0
M  V30 16714 C 1520.58 -0.17557 4.24137 0
M  V30 16715 C 1518.49 1.68902 5.66768 0
M  V30 16716 H 1517.42 0.0599767 0.751611 0
M  V30 16717 H 1520.07 0.820606 1.64129 0
M  V30 16718 H 1518.45 -0.463723 3.93275 0
M  V30 16719 H 1519.63 2.39529 3.93653 0
M  V30 16720 H 1517.94 2.02779 3.63689 0
M  V30 16721 H 1520.54 -0.167714 5.34437 0
M  V30 16722 H 1520.88 -1.20784 3.98393 0
M  V30 16723 H 1521.42 0.490544 3.94764 0
M  V30 16724 H 1518.16 2.70055 5.97286 0
M  V30 16725 H 1517.68 0.988906 5.91592 0
M  V30 16726 H 1519.35 1.43485 6.30889 0
M  V30 16727 N 1519.49 -1.52437 0.400108 0
M  V30 16728 C 1520.73 -2.0201 -0.17887 0
M  V30 16729 C 1521.07 -1.2856 -1.45554 0
M  V30 16730 O 1520.34 -0.389236 -1.90565 0
M  V30 16731 C 1520.62 -3.57453 -0.435784 0
M  V30 16732 C 1520.48 -4.41562 0.85693 0
M  V30 16733 C 1521.8 -4.228 -1.2218 0
M  V30 16734 H 1518.91 -0.734256 -0.063535 0
M  V30 16735 H 1521.56 -1.82406 0.531801 0
M  V30 16736 H 1519.71 -3.74288 -1.04117 0
M  V30 16737 H 1521.38 -4.36456 1.49344 0
M  V30 16738 H 1519.62 -4.08138 1.46989 0
M  V30 16739 H 1520.29 -5.48374 0.631675 0
M  V30 16740 H 1522.77 -4.10009 -0.709359 0
M  V30 16741 H 1521.64 -5.3152 -1.37031 0
M  V30 16742 H 1521.91 -3.81153 -2.23998 0
M  V30 16743 N 1520.96 -0.130252 -1.57061 0
M  V30 16744 C 1521.9 0.846442 -2.12998 0
M  V30 16745 C 1522.91 1.22229 -1.07536 0
M  V30 16746 O 1524.1 1.16928 -1.34871 0
M  V30 16747 C 1521.2 2.14481 -2.62395 0
M  V30 16748 C 1520.37 1.93892 -3.92077 0
M  V30 16749 C 1519.43 3.07562 -4.26957 0
M  V30 16750 O 1518.46 2.79983 -4.95578 0
M  V30 16751 N 1519.66 4.34297 -3.85184 0
M  V30 16752 H 1522.42 0.368471 -2.97426 0
M  V30 16753 H 1519.98 0.0538355 -1.6181 0
M  V30 16754 H 1521.98 2.8954 -2.82752 0
M  V30 16755 H 1520.55 2.53592 -1.82784 0
M  V30 16756 H 1519.77 1.02962 -3.80516 0
M  V30 16757 H 1521.05 1.77454 -4.76852 0
M  V30 16758 H 1520.45 4.59575 -3.29859 0
M  V30 16759 H 1519.01 5.06191 -4.10626 0
M  V30 16760 N 1522.44 1.56945 0.143535 0
M  V30 16761 C 1523.35 2.01795 1.1965 0
M  V30 16762 C 1524.37 0.933965 1.4681 0
M  V30 16763 O 1525.55 1.2437 1.58411 0
M  V30 16764 C 1522.61 2.39249 2.5092 0
M  V30 16765 C 1521.67 3.61613 2.31376 0
M  V30 16766 C 1520.9 3.97271 3.56386 0
M  V30 16767 O 1521.13 3.33552 4.62709 0
M  V30 16768 O 1520.06 4.90501 3.48844 0
M  V30 16769 H 1523.89 2.91687 0.845718 0
M  V30 16770 H 1521.47 1.45182 0.352518 0
M  V30 16771 H 1523.35 2.64184 3.28306 0
M  V30 16772 H 1522.03 1.52511 2.85521 0
M  V30 16773 H 1520.94 3.4186 1.51929 0
M  V30 16774 H 1522.27 4.48979 2.01689 0
M  V30 16775 N 1523.92 -0.412991 1.52093 0
M  V30 16776 C 1525.17 -1.15737 1.65191 0
M  V30 16777 C 1525.48 -1.91753 0.38601 0
M  V30 16778 O 1526.69 -2.68586 0.396731 0
M  V30 16779 C 1525.15 -2.10619 2.91835 0
M  V30 16780 C 1524.75 -1.40137 4.25518 0
M  V30 16781 C 1526.5 -2.85339 3.14296 0
M  V30 16782 C 1524.4 -2.33645 5.4329 0
M  V30 16783 H 1523.33 -0.435732 0.615348 0
M  V30 16784 H 1525.99 -0.422172 1.78578 0
M  V30 16785 H 1524.37 -2.87675 2.72138 0
M  V30 16786 H 1525.54 -0.684719 4.55684 0
M  V30 16787 H 1523.86 -0.774734 4.09129 0
M  V30 16788 H 1526.45 -3.55437 3.99461 0
M  V30 16789 H 1526.8 -3.48071 2.28369 0
M  V30 16790 H 1527.33 -2.15384 3.34447 0
M  V30 16791 H 1524.07 -1.75566 6.31551 0
M  V30 16792 H 1523.59 -3.03294 5.17467 0
M  V30 16793 H 1525.27 -2.94255 5.76215 0
M  V30 16794 N 1525.4 -1.4265 -0.669982 0
M  V30 16795 C 1526.33 -1.4094 -1.79475 0
M  V30 16796 C 1527.31 -0.273018 -1.60292 0
M  V30 16797 O 1528.49 -0.463994 -1.827 0
M  V30 16798 C 1525.62 -1.20489 -3.16544 0
M  V30 16799 C 1524.67 -2.37184 -3.54466 0
M  V30 16800 S 1525.5 -3.99722 -3.56346 0
M  V30 16801 C 1526.66 -3.81624 -4.96099 0
M  V30 16802 H 1526.89 -2.36119 -1.80652 0
M  V30 16803 H 1524.42 -1.2948 -0.841092 0
M  V30 16804 H 1526.38 -1.09377 -3.9566 0
M  V30 16805 H 1525.04 -0.268876 -3.12947 0
M  V30 16806 H 1524.23 -2.18636 -4.54108 0
M  V30 16807 H 1523.84 -2.44836 -2.82722 0
M  V30 16808 H 1526.13 -3.42912 -5.8431 0
M  V30 16809 H 1527.07 -4.8096 -5.19696 0
M  V30 16810 H 1527.48 -3.14397 -4.68844 0
M  V30 16811 N 1526.88 0.906753 -1.28902 0
M  V30 16812 C 1527.83 2.03141 -1.13299 0
M  V30 16813 C 1528.82 1.69325 -0.0504114 0
M  V30 16814 O 1530.03 1.78774 -0.209696 0
M  V30 16815 H 1526.4 0.665709 -0.349766 0
M  V30 16816 H 1528.37 2.13441 -2.08531 0
M  V30 16817 C 1527.12 3.37918 -0.818935 0
M  V30 16818 H 1526.44 3.64437 -1.64395 0
M  V30 16819 H 1527.88 4.17318 -0.749753 0
M  V30 16820 C 1526.34 3.33498 0.477582 0
M  V30 16821 O 1526.87 3.7241 1.50578 0
M  V30 16822 N 1525.08 2.86594 0.480862 0
M  V30 16823 H 1524.63 2.55124 -0.356308 0
M  V30 16824 H 1524.58 2.84019 1.34835 0
M  V30 16825 N 1528.36 1.11264 1.11616 0
M  V30 16826 C 1529.27 0.781961 2.21184 0
M  V30 16827 C 1530.28 -0.224149 1.7255 0
M  V30 16828 O 1531.46 -0.0607743 2.01308 0
M  V30 16829 C 1528.52 0.228031 3.45949 0
M  V30 16830 C 1527.58 1.29251 4.09381 0
M  V30 16831 C 1526.82 0.764921 5.2819 0
M  V30 16832 O 1527.04 -0.405671 5.68956 0
M  V30 16833 O 1525.97 1.52886 5.82159 0
M  V30 16834 H 1529.8 1.69678 2.51879 0
M  V30 16835 H 1527.38 0.888394 1.20116 0
M  V30 16836 H 1529.27 -0.0766085 4.2133 0
M  V30 16837 H 1527.94 -0.659519 3.1691 0
M  V30 16838 H 1526.85 1.65014 3.3574 0
M  V30 16839 H 1528.18 2.15339 4.42595 0
M  V30 16840 N 1529.83 -1.29188 0.902679 0
M  V30 16841 C 1531.11 -1.90365 0.449496 0
M  V30 16842 C 1531.49 -1.81911 -1.07105 0
M  V30 16843 O 1530.84 -1.24778 -1.91423 0
M  V30 16844 C 1531.05 -3.35324 0.967418 0
M  V30 16845 C 1532.4 -4.12342 1.0129 0
M  V30 16846 O 1533.42 -3.44239 0.915293 0
M  V30 16847 O 1532.28 -5.34048 1.15994 0
M  V30 16848 H 1529.37 -0.814956 0.140628 0
M  V30 16849 H 1531.92 -1.37633 0.992739 0
M  V30 16850 H 1530.69 -3.35646 2.0114 0
M  V30 16851 H 1530.31 -3.95539 0.404358 0
M  V30 16852 N 1531.31 -0.665475 -1.42861 0
M  V30 16853 C 1532.56 -0.184156 -2.01962 0
M  V30 16854 C 1532.89 1.20301 -1.52451 0
M  V30 16855 O 1532.17 1.80573 -0.722756 0
M  V30 16856 C 1532.45 -0.208497 -3.59496 0
M  V30 16857 C 1532.3 -1.63045 -4.19209 0
M  V30 16858 C 1533.62 0.448421 -4.3781 0
M  V30 16859 H 1530.74 -0.0683924 -0.73382 0
M  V30 16860 H 1533.38 -0.84849 -1.70002 0
M  V30 16861 H 1531.53 0.357179 -3.86855 0
M  V30 16862 H 1533.2 -2.24766 -4.02837 0
M  V30 16863 H 1531.45 -2.17401 -3.75392 0
M  V30 16864 H 1532.12 -1.59924 -5.28326 0
M  V30 16865 H 1534.59 -0.0330053 -4.16087 0
M  V30 16866 H 1533.47 0.400713 -5.47435 0
M  V30 16867 H 1533.73 1.52454 -4.14982 0
M  V30 16868 N 1532.79 1.52222 -0.408187 0
M  V30 16869 C 1533.74 2.28544 0.432458 0
M  V30 16870 C 1534.73 1.33198 1.04665 0
M  V30 16871 O 1535.94 1.50661 0.984954 0
M  V30 16872 H 1532.31 0.735162 0.158241 0
M  V30 16873 H 1534.28 2.97493 -0.232482 0
M  V30 16874 C 1533.03 3.11864 1.53741 0
M  V30 16875 H 1532.36 3.851 1.07414 0
M  V30 16876 H 1533.8 3.68374 2.09945 0
M  V30 16877 C 1532.25 2.25367 2.50423 0
M  V30 16878 O 1532.78 1.89329 3.54285 0
M  V30 16879 N 1530.99 1.89155 2.2061 0
M  V30 16880 H 1530.54 2.18661 1.36181 0
M  V30 16881 H 1530.5 1.31574 2.85544 0
M  V30 16882 N 1534.27 0.138579 1.5699 0
M  V30 16883 C 1535.18 -0.817548 2.19894 0
M  V30 16884 C 1536.19 -1.27806 1.18075 0
M  V30 16885 O 1537.37 -1.33699 1.5062 0
M  V30 16886 C 1534.43 -2.04244 2.80152 0
M  V30 16887 C 1533.5 -1.63197 3.97071 0
M  V30 16888 C 1532.73 -2.79847 4.54446 0
M  V30 16889 O 1532.95 -3.95827 4.10703 0
M  V30 16890 O 1531.89 -2.55804 5.44838 0
M  V30 16891 H 1535.71 -0.312123 3.02092 0
M  V30 16892 H 1533.3 -0.0880281 1.4914 0
M  V30 16893 H 1535.18 -2.75945 3.18485 0
M  V30 16894 H 1533.85 -2.53755 2.00973 0
M  V30 16895 H 1532.76 -0.885448 3.6347 0
M  V30 16896 H 1534.09 -1.1841 4.77745 0
M  V30 16897 N 1535.75 -1.57019 -0.13521 0
M  V30 16898 C 1536.69 -1.99148 -1.16657 0
M  V30 16899 C 1537.66 -0.860947 -1.42045 0
M  V30 16900 O 1538.85 -1.12393 -1.54183 0
M  V30 16901 C 1535.99 -2.3872 -2.49212 0
M  V30 16902 C 1535.1 -3.65117 -2.30898 0
M  V30 16903 C 1534.24 -3.9374 -3.5657 0
M  V30 16904 C 1533.27 -5.1337 -3.33343 0
M  V30 16905 N 1532.41 -5.37945 -4.51176 0
M  V30 16906 H 1537.25 -2.87052 -0.800312 0
M  V30 16907 H 1534.79 -1.42007 -0.383705 0
M  V30 16908 H 1536.75 -2.59695 -3.26518 0
M  V30 16909 H 1535.38 -1.53879 -2.83762 0
M  V30 16910 H 1534.43 -3.5185 -1.44588 0
M  V30 16911 H 1535.74 -4.52578 -2.09701 0
M  V30 16912 H 1534.89 -4.15277 -4.423 0
M  V30 16913 H 1533.63 -3.04723 -3.80782 0
M  V30 16914 H 1532.64 -4.91694 -2.46002 0
M  V30 16915 H 1533.86 -6.0395 -3.10517 0
M  V30 16916 H 1531.81 -4.51884 -4.75539 0
M  V30 16917 H 1531.73 -6.19698 -4.33025 0
M  V30 16918 H 1532.99 -5.63989 -5.38086 0
M  V30 16919 N 1537.22 0.404919 -1.52309 0
M  V30 16920 C 1538.5 1.16473 -1.57142 0
M  V30 16921 C 1538.88 2.08094 -0.354967 0
M  V30 16922 O 1538.23 2.18825 0.65788 0
M  V30 16923 C 1538.44 1.93834 -2.90223 0
M  V30 16924 C 1539.79 2.49754 -3.43378 0
M  V30 16925 O 1540.81 2.04009 -2.91991 0
M  V30 16926 O 1539.67 3.33271 -4.3312 0
M  V30 16927 H 1536.76 0.532036 -0.633141 0
M  V30 16928 H 1539.31 0.411359 -1.64639 0
M  V30 16929 H 1538.08 1.2674 -3.70206 0
M  V30 16930 H 1537.71 2.76167 -2.86038 0
M  V30 16931 N 1538.7 1.43003 0.662408 0
M  V30 16932 C 1539.93 1.47555 1.45035 0
M  V30 16933 C 1540.35 0.0906083 1.88582 0
M  V30 16934 O 1539.7 -0.897271 1.58919 0
M  V30 16935 C 1539.75 2.41345 2.69137 0
M  V30 16936 O 1539.47 3.74453 2.27413 0
M  V30 16937 C 1540.98 2.55045 3.62584 0
M  V30 16938 H 1538.2 0.501448 0.44586 0
M  V30 16939 H 1540.74 1.8765 0.812879 0
M  V30 16940 H 1538.89 2.0447 3.29045 0
M  V30 16941 H 1539.31 4.24801 3.07643 0
M  V30 16942 H 1540.78 3.24766 4.46353 0
M  V30 16943 H 1541.26 1.59235 4.09318 0
M  V30 16944 H 1541.87 2.92693 3.08563 0
M  V30 16945 N 1540.18 -0.899904 1.29381 0
M  V30 16946 C 1541.14 -1.98554 1.14494 0
M  V30 16947 C 1542.14 -1.60599 0.0804732 0
M  V30 16948 O 1543.33 -1.71096 0.327395 0
M  V30 16949 C 1540.47 -3.32529 0.750818 0
M  V30 16950 H 1541.66 -2.13189 2.10928 0
M  V30 16951 H 1539.21 -1.08438 1.12565 0
M  V30 16952 H 1539.95 -3.23595 -0.213668 0
M  V30 16953 H 1539.73 -3.61443 1.51992 0
M  V30 16954 H 1541.22 -4.12195 0.669709 0
M  V30 16955 N 1541.66 -1.11854 -1.11024 0
M  V30 16956 C 1542.61 -0.77596 -2.19275 0
M  V30 16957 C 1543.6 0.234503 -1.67769 0
M  V30 16958 O 1544.81 0.0933372 -1.79758 0
M  V30 16959 H 1541.18 -0.23307 -0.71497 0
M  V30 16960 H 1543.15 -1.69749 -2.45414 0
M  V30 16961 C 1541.9 -0.240148 -3.4687 0
M  V30 16962 H 1541.22 -1.00895 -3.86859 0
M  V30 16963 H 1542.66 -0.0386799 -4.23982 0
M  V30 16964 C 1541.12 1.03056 -3.20751 0
M  V30 16965 O 1541.65 2.10948 -3.41854 0
M  V30 16966 N 1539.86 0.955066 -2.74457 0
M  V30 16967 H 1539.41 0.0769523 -2.57485 0
M  V30 16968 H 1539.36 1.80593 -2.57359 0
M  V30 16969 N 1543.14 1.28707 -0.909517 0
M  V30 16970 C 1544.08 2.27427 -0.393155 0
M  V30 16971 C 1545.05 1.57414 0.53009 0
M  V30 16972 O 1546.24 1.85339 0.453205 0
M  V30 16973 C 1543.38 3.4317 0.364507 0
M  V30 16974 C 1542.49 4.27942 -0.590757 0
M  V30 16975 C 1541.63 5.30878 0.184931 0
M  V30 16976 C 1540.67 6.07311 -0.764222 0
M  V30 16977 N 1539.8 7.02096 -0.0223203 0
M  V30 16978 H 1544.64 2.70974 -1.24005 0
M  V30 16979 H 1542.18 1.33265 -0.6228 0
M  V30 16980 H 1544.14 4.09063 0.819937 0
M  V30 16981 H 1542.77 3.00625 1.17578 0
M  V30 16982 H 1541.82 3.62131 -1.16471 0
M  V30 16983 H 1543.13 4.81102 -1.31689 0
M  V30 16984 H 1542.29 6.02635 0.701116 0
M  V30 16985 H 1541.02 4.78474 0.944143 0
M  V30 16986 H 1540.03 5.34408 -1.29182 0
M  V30 16987 H 1541.25 6.61804 -1.52292 0
M  V30 16988 H 1539.2 6.52048 0.718978 0
M  V30 16989 H 1539.12 7.5286 -0.688359 0
M  V30 16990 H 1540.39 7.78059 0.473807 0
M  V30 16991 N 1544.61 0.673042 1.42506 0
M  V30 16992 C 1545.89 0.123606 1.95209 0
M  V30 16993 C 1546.27 -1.36118 1.61354 0
M  V30 16994 O 1545.62 -2.0965 0.908793 0
M  V30 16995 C 1545.83 0.39088 3.46804 0
M  V30 16996 C 1547.18 0.306445 4.23493 0
M  V30 16997 O 1548.2 0.32453 3.54719 0
M  V30 16998 O 1547.06 0.247127 5.45941 0
M  V30 16999 H 1544.15 0.00184868 0.826998 0
M  V30 17000 H 1546.7 0.74765 1.52343 0
M  V30 17001 H 1545.47 1.41951 3.64645 0
M  V30 17002 H 1545.1 -0.265259 3.96714 0
M  V30 17003 N 1546.09 -1.52004 0.416254 0
M  V30 17004 C 1547.04 -2.27206 -0.405723 0
M  V30 17005 C 1548.01 -1.29913 -1.03498 0
M  V30 17006 O 1549.19 -1.58786 -1.0579 0
M  V30 17007 C 1546.33 -3.10186 -1.51258 0
M  V30 17008 C 1545.45 -4.22445 -0.903539 0
M  V30 17009 C 1544.58 -4.92771 -1.98368 0
M  V30 17010 C 1543.62 -5.96983 -1.35196 0
M  V30 17011 N 1542.76 -6.60798 -2.37255 0
M  V30 17012 H 1547.6 -2.97016 0.241983 0
M  V30 17013 H 1545.14 -1.46514 0.131174 0
M  V30 17014 H 1547.09 -3.56606 -2.16537 0
M  V30 17015 H 1545.72 -2.42532 -2.13021 0
M  V30 17016 H 1544.78 -3.80144 -0.139607 0
M  V30 17017 H 1546.09 -4.97176 -0.402136 0
M  V30 17018 H 1545.24 -5.42633 -2.71357 0
M  V30 17019 H 1543.98 -4.17624 -2.51876 0
M  V30 17020 H 1542.99 -5.46434 -0.607431 0
M  V30 17021 H 1544.21 -6.74076 -0.824482 0
M  V30 17022 H 1542.16 -5.88476 -2.89882 0
M  V30 17023 H 1542.07 -7.31227 -1.91947 0
M  V30 17024 H 1543.34 -7.15296 -3.09792 0
M  V30 17025 N 1547.57 -0.146903 -1.56914 0
M  V30 17026 C 1548.82 0.504981 -1.96412 0
M  V30 17027 C 1549.15 1.64522 -1.0318 0
M  V30 17028 O 1548.42 1.94359 -0.0741728 0
M  V30 17029 C 1548.71 1.01125 -3.45609 0
M  V30 17030 C 1548.56 -0.127493 -4.49619 0
M  V30 17031 C 1549.88 1.89306 -3.97305 0
M  V30 17032 H 1547 0.182088 -0.714152 0
M  V30 17033 H 1549.64 -0.22811 -1.88626 0
M  V30 17034 H 1547.79 1.63595 -3.52376 0
M  V30 17035 H 1549.46 -0.763829 -4.54932 0
M  V30 17036 H 1547.71 -0.786649 -4.26608 0
M  V30 17037 H 1548.38 0.268453 -5.51347 0
M  V30 17038 H 1550.85 1.36664 -3.93017 0
M  V30 17039 H 1549.73 2.21638 -5.02163 0
M  V30 17040 H 1549.99 2.82996 -3.39655 0
M  V30 17041 N 1549.05 1.57088 0.126881 0
M  V30 17042 C 1550.3 1.83624 0.834582 0
M  V30 17043 C 1550.61 0.731331 1.81414 0
M  V30 17044 O 1551.82 0.88286 2.56745 0
M  V30 17045 C 1550.27 3.25529 1.5349 0
M  V30 17046 C 1549.88 4.44008 0.59673 0
M  V30 17047 C 1551.62 3.6132 2.22819 0
M  V30 17048 C 1549.53 5.76939 1.29982 0
M  V30 17049 H 1548.46 0.684858 0.315414 0
M  V30 17050 H 1551.11 1.83292 0.087305 0
M  V30 17051 H 1549.49 3.20306 2.32852 0
M  V30 17052 H 1550.67 4.60511 -0.163109 0
M  V30 17053 H 1548.98 4.16399 0.0108081 0
M  V30 17054 H 1551.58 4.57902 2.76098 0
M  V30 17055 H 1551.92 2.88363 3.00254 0
M  V30 17056 H 1552.46 3.68291 1.50354 0
M  V30 17057 H 1549.2 6.53044 0.566925 0
M  V30 17058 H 1548.72 5.64336 2.03187 0
M  V30 17059 H 1550.39 6.20427 1.8352 0
M  V30 17060 N 1550.53 -0.396836 1.52522 0
M  V30 17061 C 1551.44 -1.50871 1.79653 0
M  V30 17062 C 1552.45 -1.60043 0.682804 0
M  V30 17063 O 1553.63 -1.76527 0.96955 0
M  V30 17064 C 1550.69 -2.86485 1.95263 0
M  V30 17065 C 1549.75 -2.87099 3.19175 0
M  V30 17066 C 1548.99 -4.16244 3.34031 0
M  V30 17067 O 1549.21 -5.1079 2.5387 0
M  V30 17068 O 1548.14 -4.23962 4.27247 0
M  V30 17069 H 1551.97 -1.30878 2.74052 0
M  V30 17070 H 1549.56 -0.583908 1.37517 0
M  V30 17071 H 1551.44 -3.66895 2.07282 0
M  V30 17072 H 1550.11 -3.0652 1.04052 0
M  V30 17073 H 1549.02 -2.05497 3.12605 0
M  V30 17074 H 1550.35 -2.72014 4.10206 0
M  V30 17075 N 1552.01 -1.43353 -0.654814 0
M  V30 17076 C 1552.94 -1.44353 -1.7803 0
M  V30 17077 C 1553.95 -0.339872 -1.59213 0
M  V30 17078 O 1555.14 -0.604207 -1.67963 0
M  V30 17079 C 1552.24 -1.23913 -3.15434 0
M  V30 17080 C 1551.41 -2.47088 -3.60924 0
M  V30 17081 C 1550.47 -2.21896 -4.77126 0
M  V30 17082 O 1549.5 -2.95236 -4.86646 0
M  V30 17083 N 1550.7 -1.23459 -5.6722 0
M  V30 17084 H 1553.46 -2.41372 -1.77651 0
M  V30 17085 H 1551.03 -1.38488 -0.838603 0
M  V30 17086 H 1553.02 -1.04945 -3.90856 0
M  V30 17087 H 1551.59 -0.35346 -3.10595 0
M  V30 17088 H 1550.81 -2.81492 -2.75964 0
M  V30 17089 H 1552.1 -3.29066 -3.88064 0
M  V30 17090 H 1551.49 -0.6284 -5.62199 0
M  V30 17091 H 1550.05 -1.10474 -6.4237 0
M  V30 17092 N 1553.48 0.89303 -1.29857 0
M  V30 17093 C 1554.39 2.03079 -1.17457 0
M  V30 17094 C 1555.41 1.73733 -0.0962941 0
M  V30 17095 O 1556.59 1.99005 -0.309667 0
M  V30 17096 C 1553.65 3.3589 -0.858991 0
M  V30 17097 C 1552.71 3.78711 -2.0218 0
M  V30 17098 C 1551.94 5.05184 -1.72118 0
M  V30 17099 O 1552.17 5.66738 -0.645276 0
M  V30 17100 O 1551.1 5.44218 -2.57119 0
M  V30 17101 H 1554.93 2.16465 -2.13017 0
M  V30 17102 H 1552.51 1.01774 -1.09373 0
M  V30 17103 H 1554.39 4.15582 -0.697852 0
M  V30 17104 H 1553.07 3.23631 0.0667756 0
M  V30 17105 H 1551.98 2.99758 -2.23822 0
M  V30 17106 H 1553.31 3.95563 -2.929 0
M  V30 17107 N 1554.96 1.12442 1.10429 0
M  V30 17108 C 1555.91 0.792332 2.16773 0
M  V30 17109 C 1556.88 -0.240945 1.64343 0
M  V30 17110 O 1558.06 -0.115504 1.9045 0
M  V30 17111 C 1555.2 0.253166 3.4417 0
M  V30 17112 C 1554.32 1.34426 4.10553 0
M  V30 17113 C 1553.45 0.764527 5.2567 0
M  V30 17114 C 1552.49 1.83474 5.83955 0
M  V30 17115 N 1551.63 1.27372 6.9045 0
M  V30 17116 H 1556.47 1.7033 2.44524 0
M  V30 17117 H 1554 0.850418 1.20026 0
M  V30 17118 H 1555.96 -0.0774862 4.17128 0
M  V30 17119 H 1554.59 -0.620962 3.16771 0
M  V30 17120 H 1553.64 1.79169 3.35563 0
M  V30 17121 H 1554.96 2.15354 4.49916 0
M  V30 17122 H 1554.11 0.384548 6.0548 0
M  V30 17123 H 1552.85 -0.0759512 4.87641 0
M  V30 17124 H 1551.85 2.22391 5.02814 0
M  V30 17125 H 1553.08 2.67844 6.24048 0
M  V30 17126 H 1551.03 0.455069 6.5442 0
M  V30 17127 H 1550.94 2.01959 7.28525 0
M  V30 17128 H 1552.21 0.920975 7.7404 0
M  V30 17129 N 1556.44 -1.28223 0.91633 0
M  V30 17130 C 1557.35 -2.30956 0.411882 0
M  V30 17131 C 1558.37 -1.66609 -0.501753 0
M  V30 17132 O 1559.54 -1.97641 -0.387317 0
M  V30 17133 C 1556.61 -3.45053 -0.337558 0
M  V30 17134 C 1555.67 -4.2495 0.609609 0
M  V30 17135 C 1554.9 -5.33598 -0.104159 0
M  V30 17136 O 1555.12 -5.54786 -1.32546 0
M  V30 17137 O 1554.06 -5.99272 0.561851 0
M  V30 17138 H 1557.88 -2.76118 1.26461 0
M  V30 17139 H 1555.47 -1.32964 0.681246 0
M  V30 17140 H 1557.35 -4.14477 -0.760722 0
M  V30 17141 H 1556.03 -3.01968 -1.16607 0
M  V30 17142 H 1554.93 -3.58104 1.08222 0
M  V30 17143 H 1556.27 -4.7172 1.40502 0
M  V30 17144 N 1557.92 -0.68059 -1.42147 0
M  V30 17145 C 1558.86 -0.00585926 -2.30799 0
M  V30 17146 C 1559.83 0.786778 -1.46284 0
M  V30 17147 O 1561.02 0.757853 -1.75103 0
M  V30 17148 C 1558.16 0.935319 -3.32183 0
M  V30 17149 C 1557.27 0.13589 -4.31786 0
M  V30 17150 C 1556.41 1.07335 -5.20243 0
M  V30 17151 C 1555.45 0.265943 -6.11522 0
M  V30 17152 N 1554.58 1.15641 -6.92511 0
M  V30 17153 H 1559.42 -0.767651 -2.87943 0
M  V30 17154 H 1556.96 -0.39029 -1.41828 0
M  V30 17155 H 1558.92 1.49489 -3.89498 0
M  V30 17156 H 1557.55 1.66368 -2.76626 0
M  V30 17157 H 1556.6 -0.540383 -3.76542 0
M  V30 17158 H 1557.91 -0.490716 -4.9638 0
M  V30 17159 H 1557.07 1.70265 -5.82319 0
M  V30 17160 H 1555.81 1.73383 -4.55839 0
M  V30 17161 H 1554.81 -0.376531 -5.48509 0
M  V30 17162 H 1556.04 -0.39053 -6.77976 0
M  V30 17163 H 1553.98 1.80319 -6.30731 0
M  V30 17164 H 1553.9 0.585022 -7.53733 0
M  V30 17165 H 1555.17 1.773 -7.59069 0
M  V30 17166 N 1559.4 1.51781 -0.424309 0
M  V30 17167 C 1560.31 2.31162 0.40015 0
M  V30 17168 C 1561.32 1.39523 1.03969 0
M  V30 17169 O 1562.5 1.72597 1.0379 0
M  V30 17170 C 1559.56 3.12875 1.49366 0
M  V30 17171 C 1558.62 4.20275 0.875616 0
M  V30 17172 C 1557.86 4.98082 1.91702 0
M  V30 17173 O 1558.08 4.76365 3.13739 0
M  V30 17174 O 1557.01 5.82527 1.5148 0
M  V30 17175 H 1560.84 3.0269 -0.247529 0
M  V30 17176 H 1558.42 1.48223 -0.187146 0
M  V30 17177 H 1560.31 3.63714 2.12815 0
M  V30 17178 H 1558.98 2.44125 2.12567 0
M  V30 17179 H 1557.89 3.73546 0.203429 0
M  V30 17180 H 1559.22 4.91361 0.287306 0
M  V30 17181 N 1560.87 0.155222 1.56834 0
M  V30 17182 C 1561.78 -0.794179 2.20749 0
M  V30 17183 C 1562.8 -1.26546 1.19424 0
M  V30 17184 O 1563.98 -1.32094 1.5203 0
M  V30 17185 C 1561.04 -2.01261 2.82303 0
M  V30 17186 C 1560.1 -1.58976 3.98779 0
M  V30 17187 C 1559.33 -2.75011 4.57389 0
M  V30 17188 O 1559.56 -3.91449 4.14879 0
M  V30 17189 O 1558.49 -2.50011 5.4752 0
M  V30 17190 H 1562.32 -0.280064 3.02406 0
M  V30 17191 H 1559.9 -0.0722048 1.49225 0
M  V30 17192 H 1561.78 -2.72551 3.21394 0
M  V30 17193 H 1560.46 -2.51609 2.03653 0
M  V30 17194 H 1559.37 -0.846848 3.64389 0
M  V30 17195 H 1560.7 -1.13336 4.78974 0
M  V30 17196 N 1562.35 -1.57153 -0.118549 0
M  V30 17197 C 1563.6 -1.8515 -0.82748 0
M  V30 17198 C 1563.93 -0.741026 -1.79506 0
M  V30 17199 O 1563.21 0.253095 -1.92846 0
M  V30 17200 C 1563.49 -3.23734 -1.57698 0
M  V30 17201 C 1563.34 -4.45381 -0.628967 0
M  V30 17202 C 1564.66 -3.59895 -2.53305 0
M  V30 17203 H 1561.78 -0.673459 -0.29937 0
M  V30 17204 H 1564.42 -1.89778 -0.0917198 0
M  V30 17205 H 1562.57 -3.19919 -2.20418 0
M  V30 17206 H 1564.24 -4.61299 -0.0105746 0
M  V30 17207 H 1562.49 -4.33759 0.059462 0
M  V30 17208 H 1563.16 -5.3902 -1.19004 0
M  V30 17209 H 1565.63 -3.64503 -2.0069 0
M  V30 17210 H 1564.51 -4.57839 -3.02778 0
M  V30 17211 H 1564.77 -2.87338 -3.3599 0
M  V30 17212 N 1563.83 0.388742 -1.5273 0
M  V30 17213 C 1564.78 1.47488 -1.77527 0
M  V30 17214 C 1565.75 1.54155 -0.618505 0
M  V30 17215 O 1566.93 1.70407 -0.858251 0
M  V30 17216 C 1564.07 2.84714 -1.95018 0
M  V30 17217 C 1563.18 2.87197 -3.2271 0
M  V30 17218 C 1562.32 4.15851 -3.30517 0
M  V30 17219 C 1561.36 4.12386 -4.52332 0
M  V30 17220 N 1560.5 5.32647 -4.57418 0
M  V30 17221 H 1565.34 1.25644 -2.70218 0
M  V30 17222 H 1562.87 0.609519 -1.33878 0
M  V30 17223 H 1564.83 3.64402 -2.03143 0
M  V30 17224 H 1563.46 3.05008 -1.05688 0
M  V30 17225 H 1562.51 1.99879 -3.23655 0
M  V30 17226 H 1563.82 2.80505 -4.12454 0
M  V30 17227 H 1562.98 5.03943 -3.37827 0
M  V30 17228 H 1561.72 4.25265 -2.38748 0
M  V30 17229 H 1560.72 3.22683 -4.45147 0
M  V30 17230 H 1561.95 4.04594 -5.45418 0
M  V30 17231 H 1559.89 5.42691 -3.68541 0
M  V30 17232 H 1559.81 5.28032 -5.41035 0
M  V30 17233 H 1561.08 6.22636 -4.68983 0
M  V30 17234 N 1565.31 1.43698 0.647203 0
M  V30 17235 C 1566.22 1.51781 1.78884 0
M  V30 17236 C 1567.23 0.404498 1.69233 0
M  V30 17237 O 1568.41 0.659509 1.90296 0
M  V30 17238 C 1565.47 1.44408 3.15194 0
M  V30 17239 C 1564.54 2.6646 3.36597 0
M  V30 17240 C 1563.77 2.59429 4.66403 0
M  V30 17241 O 1563.99 1.64537 5.46154 0
M  V30 17242 O 1562.93 3.50027 4.89658 0
M  V30 17243 H 1566.75 2.48198 1.75019 0
M  V30 17244 H 1564.34 1.25766 0.806436 0
M  V30 17245 H 1566.22 1.42761 3.96481 0
M  V30 17246 H 1564.89 0.511292 3.19637 0
M  V30 17247 H 1563.8 2.73679 2.5505 0
M  V30 17248 H 1565.13 3.58732 3.37005 0
M  V30 17249 N 1566.79 -0.886131 1.30328 0
M  V30 17250 C 1567.73 -1.99174 1.16612 0
M  V30 17251 C 1568.7 -1.66006 0.0559202 0
M  V30 17252 O 1569.89 -1.89458 0.225897 0
M  V30 17253 C 1567.03 -3.34142 0.862726 0
M  V30 17254 C 1566.14 -3.80008 2.05469 0
M  V30 17255 C 1565.28 -5.03617 1.68949 0
M  V30 17256 C 1564.32 -5.41888 2.84647 0
M  V30 17257 N 1563.45 -6.56678 2.48431 0
M  V30 17258 H 1568.29 -2.10238 2.11197 0
M  V30 17259 H 1565.83 -1.02941 1.05079 0
M  V30 17260 H 1567.79 -4.11826 0.667447 0
M  V30 17261 H 1566.42 -3.22767 -0.0462461 0
M  V30 17262 H 1565.47 -2.98243 2.36126 0
M  V30 17263 H 1566.78 -4.04312 2.92119 0
M  V30 17264 H 1565.94 -5.88923 1.45789 0
M  V30 17265 H 1564.67 -4.81182 0.794674 0
M  V30 17266 H 1563.68 -4.55109 3.08474 0
M  V30 17267 H 1564.9 -5.66296 3.74813 0
M  V30 17268 H 1562.85 -6.35821 1.61453 0
M  V30 17269 H 1562.77 -6.80846 3.28611 0
M  V30 17270 H 1564.04 -7.45219 2.28624 0
M  V30 17271 N 1568.26 -1.13026 -1.09832 0
M  V30 17272 C 1569.17 -0.817051 -2.19912 0
M  V30 17273 C 1570.19 0.19667 -1.72885 0
M  V30 17274 O 1571.37 0.0287402 -2.01379 0
M  V30 17275 C 1568.43 -0.28304 -3.45543 0
M  V30 17276 C 1567.49 -1.35748 -4.07273 0
M  V30 17277 C 1566.73 -0.848855 -5.26906 0
M  V30 17278 O 1566.95 0.315104 -5.69529 0
M  V30 17279 O 1565.88 -1.62128 -5.79653 0
M  V30 17280 H 1569.71 -1.73663 -2.49148 0
M  V30 17281 H 1567.29 -0.907391 -1.18688 0
M  V30 17282 H 1569.18 0.00956876 -4.21399 0
M  V30 17283 H 1567.85 0.609018 -3.17919 0
M  V30 17284 H 1566.76 -1.70334 -3.33072 0
M  V30 17285 H 1568.09 -2.22353 -4.39113 0
M  V30 17286 N 1569.74 1.27735 -0.923117 0
M  V30 17287 C 1570.65 2.30734 -0.424124 0
M  V30 17288 C 1571.67 1.66872 0.49291 0
M  V30 17289 O 1572.84 1.97843 0.37683 0
M  V30 17290 C 1569.91 3.45227 0.319254 0
M  V30 17291 C 1568.97 4.2462 -0.632137 0
M  V30 17292 C 1568.2 5.33646 0.0758596 0
M  V30 17293 O 1568.43 5.55481 1.29602 0
M  V30 17294 O 1567.36 5.98966 -0.593624 0
M  V30 17295 H 1571.19 2.75444 -1.27923 0
M  V30 17296 H 1568.77 1.32601 -0.688288 0
M  V30 17297 H 1570.65 4.14874 0.73873 0
M  V30 17298 H 1569.33 3.02582 1.15004 0
M  V30 17299 H 1568.24 3.57525 -1.1012 0
M  V30 17300 H 1569.57 4.70969 -1.43001 0
M  V30 17301 N 1571.22 0.688118 1.41784 0
M  V30 17302 C 1572.47 0.216263 2.01644 0
M  V30 17303 C 1572.8 -1.17861 1.54345 0
M  V30 17304 O 1572.07 -1.794 0.751392 0
M  V30 17305 C 1572.36 0.265663 3.59119 0
M  V30 17306 C 1572.21 1.69694 4.16562 0
M  V30 17307 C 1573.53 -0.378713 4.38468 0
M  V30 17308 H 1570.65 0.0800582 0.732639 0
M  V30 17309 H 1573.29 0.875428 1.68631 0
M  V30 17310 H 1571.44 -0.295588 3.87374 0
M  V30 17311 H 1573.11 2.31146 3.9921 0
M  V30 17312 H 1571.36 2.23345 3.71886 0
M  V30 17313 H 1572.03 1.68309 5.25715 0
M  V30 17314 H 1574.5 0.0991969 4.15982 0
M  V30 17315 H 1573.38 -0.31357 5.48004 0
M  V30 17316 H 1573.64 -1.45832 4.17355 0
M  V30 17317 N 1572.7 -1.51554 0.432352 0
M  V30 17318 C 1573.65 -2.27623 -0.381602 0
M  V30 17319 C 1574.62 -1.31003 -1.02114 0
M  V30 17320 O 1575.8 -1.59899 -1.041 0
M  V30 17321 C 1572.94 -3.11772 -1.47959 0
M  V30 17322 C 1572.05 -4.2338 -0.858682 0
M  V30 17323 C 1571.19 -4.94847 -1.93131 0
M  V30 17324 C 1570.23 -5.98383 -1.28856 0
M  V30 17325 N 1569.36 -6.63278 -2.30233 0
M  V30 17326 H 1574.2 -2.96743 0.273472 0
M  V30 17327 H 1571.74 -1.46367 0.146706 0
M  V30 17328 H 1573.7 -3.58882 -2.12742 0
M  V30 17329 H 1572.33 -2.44778 -2.10437 0
M  V30 17330 H 1571.38 -3.8027 -0.0992797 0
M  V30 17331 H 1572.69 -4.97575 -0.349381 0
M  V30 17332 H 1571.85 -5.4548 -2.65587 0
M  V30 17333 H 1570.59 -4.20272 -2.47432 0
M  V30 17334 H 1569.59 -5.47048 -0.549441 0
M  V30 17335 H 1570.82 -6.74913 -0.752941 0
M  V30 17336 H 1568.76 -5.91518 -2.83624 0
M  V30 17337 H 1568.68 -7.33221 -1.84181 0
M  V30 17338 H 1569.95 -7.18542 -3.02188 0
M  V30 17339 N 1574.18 -0.163538 -1.56749 0
M  V30 17340 C 1575.09 0.782461 -2.21167 0
M  V30 17341 C 1576.1 1.25911 -1.20093 0
M  V30 17342 O 1577.28 1.31286 -1.52728 0
M  V30 17343 C 1574.34 1.99761 -2.83366 0
M  V30 17344 C 1573.4 1.56859 -3.99617 0
M  V30 17345 C 1572.64 2.72582 -4.58841 0
M  V30 17346 O 1572.86 3.89243 -4.16949 0
M  V30 17347 O 1571.79 2.47104 -5.48838 0
M  V30 17348 H 1575.62 0.264023 -3.0255 0
M  V30 17349 H 1573.21 0.06429 -1.49262 0
M  V30 17350 H 1575.09 2.70843 -3.22835 0
M  V30 17351 H 1573.76 2.50526 -2.04984 0
M  V30 17352 H 1572.67 0.827511 -3.64833 0
M  V30 17353 H 1574 1.10794 -4.79568 0
M  V30 17354 N 1575.65 1.57214 0.110213 0
M  V30 17355 C 1576.6 2.00978 1.13474 0
M  V30 17356 C 1577.57 0.883436 1.40658 0
M  V30 17357 O 1578.76 1.14832 1.52376 0
M  V30 17358 C 1575.9 2.42654 2.45383 0
M  V30 17359 C 1575.01 3.68744 2.2506 0
M  V30 17360 C 1574.14 3.99363 3.50261 0
M  V30 17361 C 1573.18 5.18608 3.25133 0
M  V30 17362 N 1572.32 5.45055 4.42561 0
M  V30 17363 H 1577.16 2.88289 0.754543 0
M  V30 17364 H 1574.7 1.426 0.361064 0
M  V30 17365 H 1576.66 2.64857 3.22345 0
M  V30 17366 H 1575.29 1.58374 2.81278 0
M  V30 17367 H 1574.34 3.54106 1.38972 0
M  V30 17368 H 1575.65 4.55857 2.02475 0
M  V30 17369 H 1574.8 4.22261 4.35638 0
M  V30 17370 H 1573.54 3.10743 3.75886 0
M  V30 17371 H 1572.55 4.95546 2.38148 0
M  V30 17372 H 1573.77 6.08814 3.0087 0
M  V30 17373 H 1571.72 4.59392 4.6829 0
M  V30 17374 H 1571.64 6.26508 4.23111 0
M  V30 17375 H 1572.9 5.72478 5.29046 0
M  V30 17376 N 1577.13 -0.380637 1.52934 0
M  V30 17377 C 1578.04 -1.48957 1.81243 0
M  V30 17378 C 1579.06 -1.5931 0.69974 0
M  V30 17379 O 1580.23 -1.75488 0.988218 0
M  V30 17380 C 1577.3 -2.84397 1.9829 0
M  V30 17381 C 1576.36 -2.83697 3.22202 0
M  V30 17382 C 1575.59 -4.12677 3.38427 0
M  V30 17383 O 1575.82 -5.08068 2.59274 0
M  V30 17384 O 1574.75 -4.19407 4.31719 0
M  V30 17385 H 1578.58 -1.27964 2.75425 0
M  V30 17386 H 1576.16 -0.56929 1.38128 0
M  V30 17387 H 1578.04 -3.64676 2.11161 0
M  V30 17388 H 1576.72 -3.054 1.07298 0
M  V30 17389 H 1575.63 -2.0217 3.14767 0
M  V30 17390 H 1576.96 -2.67648 4.13068 0
M  V30 17391 N 1578.61 -1.44039 -0.639573 0
M  V30 17392 C 1579.52 -1.52728 -1.78077 0
M  V30 17393 C 1580.54 -0.413467 -1.69016 0
M  V30 17394 O 1581.71 -0.669592 -1.89943 0
M  V30 17395 C 1578.78 -1.46078 -3.14424 0
M  V30 17396 C 1577.84 -2.68242 -3.35179 0
M  V30 17397 C 1577.07 -2.61899 -4.65021 0
M  V30 17398 O 1577.29 -1.67431 -5.45273 0
M  V30 17399 O 1576.23 -3.52619 -4.87795 0
M  V30 17400 H 1580.05 -2.49122 -1.737 0
M  V30 17401 H 1577.64 -1.26191 -0.799755 0
M  V30 17402 H 1579.52 -1.44861 -3.95719 0
M  V30 17403 H 1578.2 -0.528236 -3.19361 0
M  V30 17404 H 1577.1 -2.75028 -2.53595 0
M  V30 17405 H 1578.44 -3.60514 -3.35098 0
M  V30 17406 N 1580.09 0.879207 -1.30796 0
M  V30 17407 C 1581.33 1.63392 -1.20129 0
M  V30 17408 C 1581.67 1.92684 0.242164 0
M  V30 17409 O 1580.94 1.55188 1.17247 0
M  V30 17410 C 1581.23 2.97005 -2.03618 0
M  V30 17411 C 1581.08 2.74649 -3.56214 0
M  V30 17412 C 1582.4 3.97998 -1.87845 0
M  V30 17413 H 1579.52 0.592911 -0.437751 0
M  V30 17414 H 1582.16 1.017 -1.6049 0
M  V30 17415 H 1580.31 3.49659 -1.69326 0
M  V30 17416 H 1581.98 2.28738 -4.00595 0
M  V30 17417 H 1580.22 2.09048 -3.80107 0
M  V30 17418 H 1580.89 3.69681 -4.09927 0
M  V30 17419 H 1583.37 3.54523 -2.17836 0
M  V30 17420 H 1582.25 4.89388 -2.48578 0
M  V30 17421 H 1582.51 4.34062 -0.839183 0
M  V30 17422 N 1581.57 1.13606 1.09231 0
M  V30 17423 C 1582.51 0.815279 2.15921 0
M  V30 17424 C 1583.48 -0.223501 1.64589 0
M  V30 17425 O 1584.67 -0.0952982 1.90562 0
M  V30 17426 C 1581.81 0.289655 3.43882 0
M  V30 17427 C 1580.92 1.38773 4.09104 0
M  V30 17428 C 1580.06 0.820238 5.24829 0
M  V30 17429 C 1579.1 1.89658 5.81976 0
M  V30 17430 N 1578.23 1.34688 6.8906 0
M  V30 17431 H 1583.07 1.72914 2.42703 0
M  V30 17432 H 1580.61 0.863101 1.19117 0
M  V30 17433 H 1582.57 -0.0332398 4.17187 0
M  V30 17434 H 1581.2 -0.587329 3.17412 0
M  V30 17435 H 1580.25 1.82718 3.33644 0
M  V30 17436 H 1581.56 2.20114 4.47606 0
M  V30 17437 H 1580.72 0.448745 6.05038 0
M  V30 17438 H 1579.46 -0.0242261 4.87694 0
M  V30 17439 H 1578.46 2.27712 5.00427 0
M  V30 17440 H 1579.69 2.74448 6.21172 0
M  V30 17441 H 1577.63 0.524453 6.539 0
M  V30 17442 H 1577.55 2.09675 7.26342 0
M  V30 17443 H 1578.82 1.00302 7.7302 0
M  V30 17444 N 1583.05 -1.27244 0.929878 0
M  V30 17445 C 1583.96 -2.30506 0.436355 0
M  V30 17446 C 1584.97 -1.67131 -0.484054 0
M  V30 17447 O 1586.15 -1.9804 -0.366332 0
M  V30 17448 C 1583.21 -3.45391 -0.300942 0
M  V30 17449 C 1582.27 -4.24279 0.654647 0
M  V30 17450 C 1581.51 -5.33679 -0.047558 0
M  V30 17451 O 1581.73 -5.56161 -1.26654 0
M  V30 17452 O 1580.66 -5.98642 0.62538 0
M  V30 17453 H 1584.49 -2.74762 1.29382 0
M  V30 17454 H 1582.07 -1.32234 0.695311 0
M  V30 17455 H 1583.96 -4.1526 -0.716718 0
M  V30 17456 H 1582.63 -3.03187 -1.13398 0
M  V30 17457 H 1581.54 -3.56936 1.12015 0
M  V30 17458 H 1582.87 -4.70204 1.45497 0
M  V30 17459 N 1584.52 -0.695628 -1.41417 0
M  V30 17460 C 1585.47 -0.0303383 -2.3078 0
M  V30 17461 C 1586.44 0.771218 -1.4711 0
M  V30 17462 O 1587.63 0.739239 -1.75897 0
M  V30 17463 C 1584.77 0.900034 -3.33157 0
M  V30 17464 C 1583.88 0.0900862 -4.31906 0
M  V30 17465 C 1583.01 1.01811 -5.21352 0
M  V30 17466 C 1582.05 0.201068 -6.1177 0
M  V30 17467 N 1581.19 1.0829 -6.93699 0
M  V30 17468 H 1586.03 -0.798148 -2.87113 0
M  V30 17469 H 1583.57 -0.405311 -1.41406 0
M  V30 17470 H 1585.52 1.45349 -3.91062 0
M  V30 17471 H 1584.15 1.63424 -2.78375 0
M  V30 17472 H 1583.21 -0.58029 -3.75948 0
M  V30 17473 H 1584.52 -0.543336 -4.95832 0
M  V30 17474 H 1583.67 1.64079 -5.84092 0
M  V30 17475 H 1582.41 1.68538 -4.57653 0
M  V30 17476 H 1581.42 -0.434686 -5.48079 0
M  V30 17477 H 1582.64 -0.462416 -6.77524 0
M  V30 17478 H 1580.59 1.73619 -6.32608 0
M  V30 17479 H 1580.5 0.505046 -7.54311 0
M  V30 17480 H 1581.77 1.69239 -7.60906 0
M  V30 17481 N 1586 1.51322 -0.440383 0
M  V30 17482 C 1586.91 2.31574 0.37561 0
M  V30 17483 C 1587.93 1.40617 1.02483 0
M  V30 17484 O 1589.1 1.73688 1.01953 0
M  V30 17485 C 1586.17 3.14441 1.4604 0
M  V30 17486 C 1585.23 4.21181 0.830991 0
M  V30 17487 C 1584.46 5.00087 1.86409 0
M  V30 17488 O 1584.69 4.79666 3.08669 0
M  V30 17489 O 1583.62 5.84101 1.45293 0
M  V30 17490 H 1587.45 3.0241 -0.27962 0
M  V30 17491 H 1585.03 1.48016 -0.202857 0
M  V30 17492 H 1586.91 3.6595 2.08946 0
M  V30 17493 H 1585.59 2.46366 2.09965 0
M  V30 17494 H 1584.49 3.73741 0.163798 0
M  V30 17495 H 1585.83 4.91638 0.235174 0
M  V30 17496 N 1587.48 0.171848 1.5666 0
M  V30 17497 C 1588.39 -0.770721 2.21579 0
M  V30 17498 C 1589.41 -1.25273 1.20759 0
M  V30 17499 O 1590.58 -1.30474 1.53422 0
M  V30 17500 C 1587.65 -1.98256 2.84422 0
M  V30 17501 C 1586.71 -1.54738 4.00443 0
M  V30 17502 C 1585.94 -2.70145 4.6028 0
M  V30 17503 O 1586.16 -3.87026 4.19007 0
M  V30 17504 O 1585.1 -2.44189 5.50141 0
M  V30 17505 H 1588.92 -0.247974 3.02686 0
M  V30 17506 H 1586.51 -0.0563734 1.49294 0
M  V30 17507 H 1588.39 -2.69127 3.24266 0
M  V30 17508 H 1587.07 -2.49435 2.0631 0
M  V30 17509 H 1585.97 -0.808152 3.65267 0
M  V30 17510 H 1587.31 -1.08249 4.80149 0
M  V30 17511 N 1588.96 -1.5727 -0.101874 0
M  V30 17512 C 1590.2 -1.86017 -0.807795 0
M  V30 17513 C 1590.54 -0.760024 -1.7871 0
M  V30 17514 O 1589.81 0.232627 -1.93104 0
M  V30 17515 C 1590.09 -3.25388 -1.54255 0
M  V30 17516 C 1589.95 -4.46023 -0.581693 0
M  V30 17517 C 1591.27 -3.62561 -2.49474 0
M  V30 17518 H 1588.39 -0.676596 -0.29221 0
M  V30 17519 H 1591.03 -1.89865 -0.0715861 0
M  V30 17520 H 1589.18 -3.22239 -2.17013 0
M  V30 17521 H 1590.85 -4.61284 0.0383529 0
M  V30 17522 H 1589.09 -4.33672 0.105465 0
M  V30 17523 H 1589.76 -5.40251 -1.1328 0
M  V30 17524 H 1592.24 -3.66611 -1.96813 0
M  V30 17525 H 1591.12 -4.61025 -2.97905 0
M  V30 17526 H 1591.38 -2.90885 -3.32924 0
M  V30 17527 N 1590.44 0.372521 -1.53134 0
M  V30 17528 C 1591.38 1.45597 -1.79082 0
M  V30 17529 C 1592.35 1.5349 -0.63482 0
M  V30 17530 O 1593.54 1.69488 -0.876276 0
M  V30 17531 C 1590.68 2.8263 -1.98026 0
M  V30 17532 C 1589.79 2.83758 -3.25738 0
M  V30 17533 C 1588.93 4.12322 -3.34909 0
M  V30 17534 C 1587.96 4.07565 -4.5668 0
M  V30 17535 N 1587.1 5.27766 -4.63042 0
M  V30 17536 H 1591.94 1.22771 -2.71535 0
M  V30 17537 H 1589.48 0.595285 -1.34517 0
M  V30 17538 H 1591.44 3.62227 -2.06997 0
M  V30 17539 H 1590.07 3.0387 -1.08917 0
M  V30 17540 H 1589.12 1.96435 -3.25757 0
M  V30 17541 H 1590.43 2.76114 -4.15406 0
M  V30 17542 H 1589.58 5.00331 -3.43153 0
M  V30 17543 H 1588.32 4.22709 -2.43245 0
M  V30 17544 H 1587.33 3.17943 -4.48545 0
M  V30 17545 H 1588.55 3.98786 -5.49678 0
M  V30 17546 H 1586.5 5.38752 -3.74276 0
M  V30 17547 H 1586.42 5.22264 -5.46605 0
M  V30 17548 H 1587.68 6.17626 -4.75561 0
M  V30 17549 N 1591.91 1.44376 0.631925 0
M  V30 17550 C 1592.82 1.5367 1.77264 0
M  V30 17551 C 1593.84 0.422425 1.68794 0
M  V30 17552 O 1595.02 0.679656 1.89585 0
M  V30 17553 C 1592.08 1.47743 3.13644 0
M  V30 17554 C 1591.14 2.70015 3.33752 0
M  V30 17555 C 1590.37 2.64362 4.63626 0
M  V30 17556 O 1590.6 1.7032 5.44378 0
M  V30 17557 O 1589.53 3.55201 4.85918 0
M  V30 17558 H 1593.36 2.5004 1.72376 0
M  V30 17559 H 1590.94 1.26614 0.793052 0
M  V30 17560 H 1592.82 1.46958 3.94945 0
M  V30 17561 H 1591.5 0.545165 3.19076 0
M  V30 17562 H 1590.41 2.76369 2.52133 0
M  V30 17563 H 1591.74 3.62286 3.33181 0
M  V30 17564 N 1593.39 -0.872258 1.31261 0
M  V30 17565 C 1594.34 -1.97926 1.18718 0
M  V30 17566 C 1595.31 -1.65937 0.0735242 0
M  V30 17567 O 1596.49 -1.89208 0.245979 0
M  V30 17568 C 1593.63 -3.33208 0.898117 0
M  V30 17569 C 1592.75 -3.77808 2.09488 0
M  V30 17570 C 1591.88 -5.01796 1.74281 0
M  V30 17571 C 1590.92 -5.38838 2.90379 0
M  V30 17572 N 1590.06 -6.54007 2.55382 0
M  V30 17573 H 1594.9 -2.07986 2.13415 0
M  V30 17574 H 1592.43 -1.01821 1.06165 0
M  V30 17575 H 1594.39 -4.11095 0.711089 0
M  V30 17576 H 1593.02 -3.22798 -0.0120097 0
M  V30 17577 H 1592.07 -2.95722 2.39276 0
M  V30 17578 H 1593.39 -4.01191 2.96391 0
M  V30 17579 H 1592.54 -5.87344 1.52027 0
M  V30 17580 H 1591.28 -4.80312 0.845665 0
M  V30 17581 H 1590.28 -4.51811 3.13284 0
M  V30 17582 H 1591.51 -5.62289 3.80799 0
M  V30 17583 H 1589.46 -6.34073 1.68188 0
M  V30 17584 H 1589.37 -6.77322 3.35814 0
M  V30 17585 H 1590.64 -7.42752 2.36516 0
M  V30 17586 N 1594.87 -1.14184 -1.08627 0
M  V30 17587 C 1595.78 -0.84033 -2.19033 0
M  V30 17588 C 1596.8 0.178322 -1.73084 0
M  V30 17589 O 1597.97 0.00737963 -2.01399 0
M  V30 17590 C 1595.04 -0.319674 -3.45223 0
M  V30 17591 C 1594.1 -1.4006 -4.0581 0
M  V30 17592 C 1593.33 -0.904693 -5.25976 0
M  V30 17593 O 1593.55 0.25468 -5.69831 0
M  V30 17594 O 1592.49 -1.68267 -5.77901 0
M  V30 17595 H 1596.31 -1.76296 -2.47292 0
M  V30 17596 H 1593.9 -0.919929 -1.17719 0
M  V30 17597 H 1595.78 -0.0351268 -4.21385 0
M  V30 17598 H 1594.46 0.575264 -3.18547 0
M  V30 17599 H 1593.36 -1.73858 -3.31247 0
M  V30 17600 H 1594.7 -2.26998 -4.3673 0
M  V30 17601 N 1596.35 1.26749 -0.936613 0
M  V30 17602 C 1597.26 2.30272 -0.448573 0
M  V30 17603 C 1598.27 1.67386 0.475184 0
M  V30 17604 O 1599.45 1.98232 0.355825 0
M  V30 17605 C 1596.52 3.45546 0.28262 0
M  V30 17606 C 1595.58 4.23926 -0.677138 0
M  V30 17607 C 1594.81 5.33697 0.019255 0
M  V30 17608 O 1595.03 5.56825 1.23703 0
M  V30 17609 O 1593.97 5.98302 -0.657119 0
M  V30 17610 H 1597.79 2.74072 -1.30838 0
M  V30 17611 H 1595.38 1.31863 -0.702314 0
M  V30 17612 H 1597.26 4.15635 0.694686 0
M  V30 17613 H 1595.93 3.03784 1.11789 0
M  V30 17614 H 1594.84 3.56337 -1.13906 0
M  V30 17615 H 1596.17 4.69425 -1.47988 0
M  V30 17616 N 1597.83 0.703118 1.41046 0
M  V30 17617 C 1599.07 0.237638 2.01403 0
M  V30 17618 C 1599.41 -1.16217 1.55587 0
M  V30 17619 O 1598.68 -1.78593 0.770377 0
M  V30 17620 C 1598.96 0.303738 3.58817 0
M  V30 17621 C 1598.82 1.74103 4.14739 0
M  V30 17622 C 1600.14 -0.332186 4.38845 0
M  V30 17623 H 1597.25 0.0878243 0.731749 0
M  V30 17624 H 1599.9 0.893264 1.67693 0
M  V30 17625 H 1598.05 -0.254485 3.87666 0
M  V30 17626 H 1599.72 2.35368 3.96736 0
M  V30 17627 H 1597.96 2.27277 3.69496 0
M  V30 17628 H 1598.63 1.73876 5.239 0
M  V30 17629 H 1601.11 0.143312 4.15853 0
M  V30 17630 H 1599.98 -0.255429 5.48305 0
M  V30 17631 H 1600.25 -1.41397 4.18878 0
M  V30 17632 N 1599.3 -1.51086 0.448402 0
M  V30 17633 C 1600.25 -2.28015 -0.357438 0
M  V30 17634 C 1601.22 -1.32079 -1.00719 0
M  V30 17635 O 1602.41 -1.60995 -1.02398 0
M  V30 17636 C 1599.55 -3.13324 -1.44644 0
M  V30 17637 C 1598.66 -4.24267 -0.813729 0
M  V30 17638 C 1597.79 -4.96868 -1.87871 0
M  V30 17639 C 1596.83 -5.99716 -1.22502 0
M  V30 17640 N 1595.97 -6.65682 -2.23185 0
M  V30 17641 H 1600.81 -2.96436 0.30493 0
M  V30 17642 H 1598.35 -1.46203 0.162222 0
M  V30 17643 H 1600.31 -3.61119 -2.08924 0
M  V30 17644 H 1598.94 -2.46996 -2.07829 0
M  V30 17645 H 1597.99 -3.80354 -0.0589414 0
M  V30 17646 H 1599.3 -4.97917 -0.296587 0
M  V30 17647 H 1598.45 -5.48266 -2.59786 0
M  V30 17648 H 1597.19 -4.22873 -2.42961 0
M  V30 17649 H 1596.2 -5.476 -0.491388 0
M  V30 17650 H 1597.42 -6.75674 -0.681315 0
M  V30 17651 H 1595.37 -5.94493 -2.77334 0
M  V30 17652 H 1595.29 -7.35134 -1.76393 0
M  V30 17653 H 1596.55 -7.21707 -2.9455 0
M  V30 17654 N 1600.78 -0.180154 -1.56567 0
M  V30 17655 C 1601.69 0.758959 -2.21984 0
M  V30 17656 C 1602.71 1.24631 -1.21422 0
M  V30 17657 O 1603.88 1.29659 -1.54112 0
M  V30 17658 C 1600.95 1.96744 -2.85469 0
M  V30 17659 C 1600.01 1.52612 -4.01258 0
M  V30 17660 C 1599.24 2.677 -4.61706 0
M  V30 17661 O 1599.47 3.84799 -4.21054 0
M  V30 17662 O 1598.4 2.41269 -5.51428 0
M  V30 17663 H 1602.23 0.231919 -3.02813 0
M  V30 17664 H 1599.81 0.0484552 -1.49321 0
M  V30 17665 H 1601.69 2.67404 -3.25689 0
M  V30 17666 H 1600.37 2.48337 -2.0763 0
M  V30 17667 H 1599.28 0.78877 -3.6569 0
M  V30 17668 H 1600.61 1.05701 -4.80716 0
M  V30 17669 N 1602.26 1.57322 0.0935319 0
M  V30 17670 C 1603.21 2.02171 1.11336 0
M  V30 17671 C 1604.18 0.898305 1.39713 0
M  V30 17672 O 1605.36 1.16441 1.51149 0
M  V30 17673 C 1602.5 2.45243 2.42796 0
M  V30 17674 C 1601.62 3.7111 2.21136 0
M  V30 17675 C 1600.75 4.03056 3.46005 0
M  V30 17676 C 1599.79 5.22028 3.19615 0
M  V30 17677 N 1598.93 5.49718 4.36755 0
M  V30 17678 H 1603.77 2.89073 0.723924 0
M  V30 17679 H 1601.3 1.42975 0.345919 0
M  V30 17680 H 1603.26 2.68261 3.19518 0
M  V30 17681 H 1601.89 1.61348 2.79583 0
M  V30 17682 H 1600.94 3.5556 1.35209 0
M  V30 17683 H 1602.26 4.57979 1.97628 0
M  V30 17684 H 1601.41 4.26858 4.31135 0
M  V30 17685 H 1600.15 3.14712 3.72569 0
M  V30 17686 H 1599.15 4.98044 2.32879 0
M  V30 17687 H 1600.38 6.11971 2.94396 0
M  V30 17688 H 1598.32 4.64333 4.63391 0
M  V30 17689 H 1598.24 6.30961 4.16443 0
M  V30 17690 H 1599.51 5.78057 5.22944 0
M  V30 17691 N 1603.74 -0.364395 1.53329 0
M  V30 17692 C 1604.65 -1.47027 1.82812 0
M  V30 17693 C 1605.66 -1.58559 0.716598 0
M  V30 17694 O 1606.84 -1.7443 1.00678 0
M  V30 17695 C 1603.91 -2.82278 2.01295 0
M  V30 17696 C 1602.97 -2.80264 3.25193 0
M  V30 17697 C 1602.2 -4.09065 3.42785 0
M  V30 17698 O 1602.42 -5.0529 2.64648 0
M  V30 17699 O 1601.36 -4.14804 4.36144 0
M  V30 17700 H 1605.18 -1.25035 2.76767 0
M  V30 17701 H 1602.77 -0.554608 1.38724 0
M  V30 17702 H 1604.65 -3.62416 2.15017 0
M  V30 17703 H 1603.32 -3.04244 1.10531 0
M  V30 17704 H 1602.23 -1.9882 3.16893 0
M  V30 17705 H 1603.56 -2.63252 4.15884 0
M  V30 17706 N 1605.22 -1.44709 -0.62426 0
M  V30 17707 C 1606.13 -1.54608 -1.76447 0
M  V30 17708 C 1607.14 -0.43137 -1.68568 0
M  V30 17709 O 1608.32 -0.6897 -1.89222 0
M  V30 17710 C 1605.38 -1.49404 -3.12857 0
M  V30 17711 C 1604.44 -2.71782 -3.32315 0
M  V30 17712 C 1603.68 -2.66817 -4.62217 0
M  V30 17713 O 1603.9 -1.73205 -5.43467 0
M  V30 17714 O 1602.83 -3.57773 -4.84027 0
M  V30 17715 H 1606.66 -2.50951 -1.71048 0
M  V30 17716 H 1604.25 -1.27033 -0.786326 0
M  V30 17717 H 1606.13 -1.4905 -3.9416 0
M  V30 17718 H 1604.8 -0.562078 -3.18783 0
M  V30 17719 H 1603.71 -2.77702 -2.50664 0
M  V30 17720 H 1605.04 -3.64048 -3.31255 0
M  V30 17721 N 1606.69 0.865285 -1.31722 0
M  V30 17722 C 1607.94 1.62108 -1.21855 0
M  V30 17723 C 1608.27 1.9293 0.221714 0
M  V30 17724 O 1607.55 1.56423 1.15595 0
M  V30 17725 C 1607.83 2.94828 -2.06756 0
M  V30 17726 C 1607.68 2.70855 -3.59107 0
M  V30 17727 C 1609 3.95983 -1.92055 0
M  V30 17728 H 1606.12 0.588234 -0.444015 0
M  V30 17729 H 1608.76 0.999922 -1.6156 0
M  V30 17730 H 1606.91 3.47843 -1.73025 0
M  V30 17731 H 1608.59 2.24477 -4.02999 0
M  V30 17732 H 1606.83 2.05004 -3.82303 0
M  V30 17733 H 1607.5 3.65312 -4.13825 0
M  V30 17734 H 1609.98 3.52193 -2.21584 0
M  V30 17735 H 1608.85 4.86724 -2.53754 0
M  V30 17736 H 1609.11 4.33148 -0.885174 0
M  V30 17737 N 1608.17 1.14759 1.0802 0
M  V30 17738 C 1609.12 0.838134 2.15044 0
M  V30 17739 C 1610.09 -0.206031 1.64817 0
M  V30 17740 O 1611.27 -0.0750812 1.90652 0
M  V30 17741 C 1608.41 0.326112 3.43556 0
M  V30 17742 C 1607.53 1.43104 4.07609 0
M  V30 17743 C 1606.66 0.875857 5.2393 0
M  V30 17744 C 1605.7 1.9582 5.79932 0
M  V30 17745 N 1604.84 1.41989 6.87593 0
M  V30 17746 H 1609.68 1.75478 2.40856 0
M  V30 17747 H 1607.22 0.875686 1.18195 0
M  V30 17748 H 1609.17 0.0110103 4.17199 0
M  V30 17749 H 1607.8 -0.55363 3.18017 0
M  V30 17750 H 1606.86 1.86247 3.31687 0
M  V30 17751 H 1608.17 2.24849 4.45246 0
M  V30 17752 H 1607.32 0.512893 6.04528 0
M  V30 17753 H 1606.06 0.0275017 4.87692 0
M  V30 17754 H 1605.07 2.33006 4.97984 0
M  V30 17755 H 1606.29 2.81021 6.18227 0
M  V30 17756 H 1604.24 0.593779 6.53307 0
M  V30 17757 H 1604.15 2.17367 7.24077 0
M  V30 17758 H 1605.42 1.08495 7.71913 0
M  V30 17759 N 1609.65 -1.26251 0.943322 0
M  V30 17760 C 1610.56 -2.3003 0.460778 0
M  V30 17761 C 1611.58 -1.67635 -0.4663 0
M  V30 17762 O 1612.75 -1.98418 -0.345307 0
M  V30 17763 C 1609.82 -3.45691 -0.264291 0
M  V30 17764 C 1608.88 -4.23561 0.69961 0
M  V30 17765 C 1608.11 -5.33699 0.00904846 0
M  V30 17766 O 1608.33 -5.57473 -1.20748 0
M  V30 17767 O 1607.27 -5.97945 0.688839 0
M  V30 17768 H 1611.09 -2.73374 1.32289 0
M  V30 17769 H 1608.68 -1.31489 0.709297 0
M  V30 17770 H 1610.56 -4.15997 -0.672634 0
M  V30 17771 H 1609.24 -3.04373 -1.10176 0
M  V30 17772 H 1608.14 -3.55728 1.15794 0
M  V30 17773 H 1609.48 -4.68634 1.50476 0
M  V30 17774 N 1611.13 -0.710588 -1.40671 0
M  V30 17775 C 1612.08 -0.0548139 -2.30735 0
M  V30 17776 C 1613.05 0.755572 -1.4792 0
M  V30 17777 O 1614.23 0.720541 -1.76672 0
M  V30 17778 C 1611.37 0.864648 -3.34093 0
M  V30 17779 C 1610.48 0.0442717 -4.31977 0
M  V30 17780 C 1609.62 0.962752 -5.22403 0
M  V30 17781 C 1608.66 0.13617 -6.11949 0
M  V30 17782 N 1607.8 1.00926 -6.94808 0
M  V30 17783 H 1612.64 -0.828555 -2.8625 0
M  V30 17784 H 1610.17 -0.420286 -1.40968 0
M  V30 17785 H 1612.13 1.41193 -3.92582 0
M  V30 17786 H 1610.76 1.60462 -2.80092 0
M  V30 17787 H 1609.81 -0.620132 -3.75311 0
M  V30 17788 H 1611.12 -0.595895 -4.95228 0
M  V30 17789 H 1610.28 1.57874 -5.85799 0
M  V30 17790 H 1609.02 1.63675 -4.59415 0
M  V30 17791 H 1608.02 -0.492793 -5.47587 0
M  V30 17792 H 1609.25 -0.534251 -6.76995 0
M  V30 17793 H 1607.19 1.669 -6.34413 0
M  V30 17794 H 1607.11 0.425013 -7.54804 0
M  V30 17795 H 1608.38 1.61159 -7.62659 0
M  V30 17796 N 1612.61 1.50847 -0.456408 0
M  V30 17797 C 1613.88 1.94907 0.164485 0
M  V30 17798 C 1614.26 1.39609 1.58343 0
M  V30 17799 O 1613.61 0.590971 2.20726 0
M  V30 17800 C 1613.82 3.48784 0.122794 0
M  V30 17801 C 1615.17 4.234 0.318964 0
M  V30 17802 O 1616.19 3.55638 0.20005 0
M  V30 17803 O 1615.05 5.43649 0.557507 0
M  V30 17804 H 1612.15 0.818298 0.119652 0
M  V30 17805 H 1614.69 1.61673 -0.515758 0
M  V30 17806 H 1613.47 3.81541 -0.868468 0
M  V30 17807 H 1613.09 3.88514 0.84513 0
M  V30 17808 N 1614.09 0.188454 1.56469 0
M  V30 17809 C 1615.31 -0.457846 2.01771 0
M  V30 17810 C 1615.73 -1.55646 1.06863 0
M  V30 17811 O 1615.09 -1.82356 0.0723619 0
M  V30 17812 C 1615.14 -1.02032 3.46802 0
M  V30 17813 O 1614.86 0.0344536 4.38086 0
M  V30 17814 C 1616.36 -1.74316 4.07589 0
M  V30 17815 H 1613.58 -0.115594 0.660968 0
M  V30 17816 H 1616.12 0.295213 2.02358 0
M  V30 17817 H 1614.28 -1.7238 3.46935 0
M  V30 17818 H 1614.69 -0.383254 5.23098 0
M  V30 17819 H 1616.17 -2.08912 5.1094 0
M  V30 17820 H 1616.64 -2.64445 3.50665 0
M  V30 17821 H 1617.25 -1.0857 4.11209 0
M  V30 17822 N 1615.56 -1.5737 -0.0851874 0
M  V30 17823 C 1616.47 -2.06097 -1.12078 0
M  V30 17824 C 1617.49 -0.987809 -1.43242 0
M  V30 17825 O 1618.67 -1.30163 -1.53686 0
M  V30 17826 C 1615.73 -2.48397 -2.41867 0
M  V30 17827 C 1614.79 -3.69951 -2.17795 0
M  V30 17828 C 1614.02 -4.10225 -3.41396 0
M  V30 17829 O 1614.25 -3.50495 -4.5001 0
M  V30 17830 O 1613.18 -5.03111 -3.30399 0
M  V30 17831 H 1617.01 -2.94625 -0.736877 0
M  V30 17832 H 1614.59 -1.4639 -0.298392 0
M  V30 17833 H 1616.47 -2.76187 -3.18274 0
M  V30 17834 H 1615.15 -1.63003 -2.79664 0
M  V30 17835 H 1614.06 -3.47263 -1.39136 0
M  V30 17836 H 1615.39 -4.56156 -1.84886 0
M  V30 17837 N 1617.04 0.356258 -1.53521 0
M  V30 17838 C 1618.27 1.12273 -1.74383 0
M  V30 17839 C 1618.69 1.81981 -0.475881 0
M  V30 17840 O 1618.05 1.72083 0.570699 0
M  V30 17841 C 1618.1 2.12161 -2.91582 0
M  V30 17842 O 1617.2 3.1943 -2.60842 0
M  V30 17843 H 1616.54 0.325321 -0.578845 0
M  V30 17844 H 1619.07 0.410533 -2.00439 0
M  V30 17845 H 1619.08 2.55602 -3.18012 0
M  V30 17846 H 1617.76 1.60818 -3.8355 0
M  V30 17847 H 1616.33 2.80895 -2.4526 0
M  V30 17848 N 1618.52 1.45038 0.616577 0
M  V30 17849 C 1619.47 1.53022 1.7278 0
M  V30 17850 C 1620.44 0.376778 1.6177 0
M  V30 17851 O 1621.62 0.589006 1.81481 0
M  V30 17852 C 1618.76 1.49432 3.11069 0
M  V30 17853 C 1617.87 2.7526 3.3295 0
M  V30 17854 C 1617.01 2.63403 4.61294 0
M  V30 17855 C 1616.05 3.84327 4.76402 0
M  V30 17856 N 1615.19 3.71058 5.96037 0
M  V30 17857 H 1620.03 2.47957 1.65292 0
M  V30 17858 H 1617.56 1.23046 0.806102 0
M  V30 17859 H 1619.52 1.45339 3.91066 0
M  V30 17860 H 1618.15 0.580542 3.17537 0
M  V30 17861 H 1617.2 2.89479 2.46792 0
M  V30 17862 H 1618.51 3.64978 3.39989 0
M  V30 17863 H 1617.67 2.57226 5.49472 0
M  V30 17864 H 1616.41 1.7127 4.56638 0
M  V30 17865 H 1615.41 3.90873 3.8665 0
M  V30 17866 H 1616.64 4.77515 4.82863 0
M  V30 17867 H 1614.58 2.81687 5.92443 0
M  V30 17868 H 1614.5 4.54403 6.04197 0
M  V30 17869 H 1615.77 3.68798 6.86738 0
M  V30 17870 N 1620 -0.858287 1.32179 0
M  V30 17871 C 1621.27 -1.59548 1.13154 0
M  V30 17872 C 1621.65 -2.0882 -0.309439 0
M  V30 17873 O 1621 -1.87536 -1.30547 0
M  V30 17874 C 1621.21 -2.74443 2.15597 0
M  V30 17875 C 1622.56 -3.44115 2.48737 0
M  V30 17876 O 1623.58 -2.84664 2.14114 0
M  V30 17877 O 1622.44 -4.51389 3.08074 0
M  V30 17878 H 1619.54 -0.702481 0.436405 0
M  V30 17879 H 1622.08 -0.902731 1.43697 0
M  V30 17880 H 1620.86 -2.35533 3.12473 0
M  V30 17881 H 1620.48 -3.51397 1.86028 0
M  V30 17882 N 1621.48 -1.1533 -1.07409 0
M  V30 17883 C 1622.42 -0.845328 -2.16696 0
M  V30 17884 C 1623.42 0.181009 -1.6843 0
M  V30 17885 O 1624.62 0.0361013 -1.79964 0
M  V30 17886 H 1621 -0.255698 -0.707193 0
M  V30 17887 H 1622.97 -1.7747 -2.39889 0
M  V30 17888 C 1621.72 -0.350381 -3.4593 0
M  V30 17889 H 1621.04 -1.13152 -3.83454 0
M  V30 17890 H 1622.48 -0.173547 -4.23645 0
M  V30 17891 C 1620.94 0.927991 -3.23867 0
M  V30 17892 O 1621.47 1.99965 -3.48392 0
M  V30 17893 N 1619.68 0.867266 -2.77357 0
M  V30 17894 H 1619.22 -0.00500352 -2.576 0
M  V30 17895 H 1619.18 1.72314 -2.62974 0
M  V30 17896 N 1622.95 1.25748 -0.950004 0
M  V30 17897 C 1624.2 1.93622 -0.603186 0
M  V30 17898 C 1624.53 1.74271 0.856925 0
M  V30 17899 O 1623.81 1.08502 1.61423 0
M  V30 17900 C 1624.09 3.4715 -0.957024 0
M  V30 17901 C 1623.94 3.75747 -2.47253 0
M  V30 17902 C 1625.26 4.37488 -0.478754 0
M  V30 17903 H 1622.38 0.703206 -0.220612 0
M  V30 17904 H 1625.02 1.48453 -1.18582 0
M  V30 17905 H 1623.17 3.85753 -0.46122 0
M  V30 17906 H 1624.85 3.46808 -3.04174 0
M  V30 17907 H 1623.09 3.21516 -2.91222 0
M  V30 17908 H 1623.76 4.83097 -2.67061 0
M  V30 17909 H 1626.24 4.06162 -0.903987 0
M  V30 17910 H 1625.11 5.43682 -0.755073 0
M  V30 17911 H 1625.37 4.37712 0.621303 0
M  V30 17912 N 1624.43 0.718038 1.40292 0
M  V30 17913 C 1625.68 0.255581 2.00074 0
M  V30 17914 C 1625.99 -1.15859 1.57594 0
M  V30 17915 O 1627.2 -1.71969 2.10092 0
M  V30 17916 C 1625.66 0.406019 3.57602 0
M  V30 17917 C 1625.26 1.82699 4.09054 0
M  V30 17918 C 1627.01 0.00447854 4.245 0
M  V30 17919 C 1624.91 1.92788 5.59094 0
M  V30 17920 H 1623.84 0.0918012 0.748391 0
M  V30 17921 H 1626.5 0.88948 1.60501 0
M  V30 17922 H 1624.88 -0.296504 3.94888 0
M  V30 17923 H 1626.05 2.56009 3.8314 0
M  V30 17924 H 1624.37 2.18021 3.54761 0
M  V30 17925 H 1626.96 0.05911 5.34667 0
M  V30 17926 H 1627.31 -1.03779 4.03157 0
M  V30 17927 H 1627.84 0.657535 3.92328 0
M  V30 17928 H 1624.58 2.95145 5.85295 0
M  V30 17929 H 1624.1 1.23893 5.86865 0
M  V30 17930 H 1625.78 1.70114 6.24236 0
M  V30 17931 N 1625.91 -1.50602 0.464402 0
M  V30 17932 C 1627.16 -2.02587 -0.0930295 0
M  V30 17933 C 1627.49 -1.34618 -1.3997 0
M  V30 17934 O 1626.76 -0.469711 -1.88743 0
M  V30 17935 C 1627.05 -3.5898 -0.283783 0
M  V30 17936 C 1626.9 -4.3753 1.04344 0
M  V30 17937 C 1628.22 -4.27602 -1.04138 0
M  V30 17938 H 1625.34 -0.73629 -0.0323356 0
M  V30 17939 H 1627.98 -1.79986 0.608687 0
M  V30 17940 H 1626.13 -3.78368 -0.881488 0
M  V30 17941 H 1627.8 -4.29729 1.67721 0
M  V30 17942 H 1626.05 -4.01536 1.64168 0
M  V30 17943 H 1626.72 -5.45201 0.863691 0
M  V30 17944 H 1629.19 -4.12649 -0.534822 0
M  V30 17945 H 1628.07 -5.36854 -1.14364 0
M  V30 17946 H 1628.33 -3.9031 -2.0763 0
M  V30 17947 N 1627.39 -0.19675 -1.56367 0
M  V30 17948 C 1628.32 0.75534 -2.16396 0
M  V30 17949 C 1629.33 1.17558 -1.12623 0
M  V30 17950 O 1630.52 1.11102 -1.39709 0
M  V30 17951 C 1627.62 2.03159 -2.71256 0
M  V30 17952 C 1626.8 1.77088 -3.99948 0
M  V30 17953 C 1625.85 2.89176 -4.39618 0
M  V30 17954 O 1624.88 2.58712 -5.07007 0
M  V30 17955 N 1626.08 4.17569 -4.03257 0
M  V30 17956 H 1628.85 0.241991 -2.98721 0
M  V30 17957 H 1626.41 -0.0148423 -1.61893 0
M  V30 17958 H 1628.4 2.77287 -2.94778 0
M  V30 17959 H 1626.97 2.45611 -1.93375 0
M  V30 17960 H 1626.19 0.867309 -3.84541 0
M  V30 17961 H 1627.48 1.5707 -4.83949 0
M  V30 17962 H 1626.88 4.45171 -3.49054 0
M  V30 17963 H 1625.43 4.88319 -4.31726 0
M  V30 17964 N 1628.87 1.57413 0.0768405 0
M  V30 17965 C 1629.78 2.06688 1.10983 0
M  V30 17966 C 1630.79 0.995392 1.42716 0
M  V30 17967 O 1631.97 1.30977 1.52994 0
M  V30 17968 C 1629.03 2.49676 2.40546 0
M  V30 17969 C 1628.09 3.71101 2.1583 0
M  V30 17970 C 1627.33 4.1203 3.39216 0
M  V30 17971 O 1627.55 3.52877 4.48145 0
M  V30 17972 O 1626.48 5.04856 3.27726 0
M  V30 17973 H 1630.31 2.95012 0.721242 0
M  V30 17974 H 1627.9 1.46546 0.290624 0
M  V30 17975 H 1629.78 2.77871 3.16805 0
M  V30 17976 H 1628.45 1.64484 2.78795 0
M  V30 17977 H 1627.36 3.47996 1.37293 0
M  V30 17978 H 1628.69 4.5713 1.82465 0
M  V30 17979 N 1630.34 -0.348112 1.53707 0
M  V30 17980 C 1631.59 -1.08626 1.69951 0
M  V30 17981 C 1631.91 -1.89944 0.466992 0
M  V30 17982 O 1633.11 -2.66661 0.51029 0
M  V30 17983 C 1631.57 -1.98052 3.00505 0
M  V30 17984 C 1631.18 -1.21963 4.31079 0
M  V30 17985 C 1632.92 -2.71752 3.26115 0
M  V30 17986 C 1630.83 -2.10392 5.52711 0
M  V30 17987 H 1629.76 -0.409241 0.633275 0
M  V30 17988 H 1632.41 -0.346051 1.80207 0
M  V30 17989 H 1630.79 -2.75874 2.84094 0
M  V30 17990 H 1631.96 -0.490831 4.58178 0
M  V30 17991 H 1630.28 -0.600511 4.12047 0
M  V30 17992 H 1632.88 -3.38174 4.14177 0
M  V30 17993 H 1633.22 -3.38072 2.42926 0
M  V30 17994 H 1633.75 -2.01005 3.43281 0
M  V30 17995 H 1630.49 -1.48622 6.38429 0
M  V30 17996 H 1630.01 -2.81074 5.29866 0
M  V30 17997 H 1631.69 -2.69551 5.88176 0
M  V30 17998 N 1631.82 -1.45363 -0.608876 0
M  V30 17999 C 1632.76 -1.48425 -1.73336 0
M  V30 18000 C 1633.73 -0.340757 -1.58989 0
M  V30 18001 O 1634.92 -0.541066 -1.80568 0
M  V30 18002 C 1632.04 -1.33807 -3.11149 0
M  V30 18003 C 1631.09 -2.52005 -3.44087 0
M  V30 18004 S 1631.92 -4.14477 -3.39071 0
M  V30 18005 C 1633.08 -4.02321 -4.79467 0
M  V30 18006 H 1633.31 -2.43568 -1.70475 0
M  V30 18007 H 1630.85 -1.32931 -0.785418 0
M  V30 18008 H 1632.8 -1.2606 -3.90665 0
M  V30 18009 H 1631.46 -0.401365 -3.11525 0
M  V30 18010 H 1630.66 -2.37699 -4.44427 0
M  V30 18011 H 1630.26 -2.56606 -2.72083 0
M  V30 18012 H 1632.55 -3.67386 -5.6924 0
M  V30 18013 H 1633.49 -5.02569 -4.98829 0
M  V30 18014 H 1633.9 -3.34 -4.55087 0
M  V30 18015 N 1633.3 0.851265 -1.32632 0
M  V30 18016 C 1634.25 1.98152 -1.21813 0
M  V30 18017 C 1635.24 1.68959 -0.122182 0
M  V30 18018 O 1636.45 1.77724 -0.285332 0
M  V30 18019 H 1632.82 0.650275 -0.377686 0
M  V30 18020 H 1634.79 2.04405 -2.17397 0
M  V30 18021 C 1633.54 3.34141 -0.961521 0
M  V30 18022 H 1632.87 3.57136 -1.79704 0
M  V30 18023 H 1634.31 4.13763 -0.926077 0
M  V30 18024 C 1632.77 3.35223 0.335704 0
M  V30 18025 O 1633.3 3.78461 1.34647 0
M  V30 18026 N 1631.5 2.88376 0.358875 0
M  V30 18027 H 1631.05 2.53383 -0.464194 0
M  V30 18028 H 1631.01 2.89482 1.22668 0
M  V30 18029 N 1634.78 1.15898 1.06796 0
M  V30 18030 C 1635.69 0.87507 2.17669 0
M  V30 18031 C 1636.7 -0.150763 1.73346 0
M  V30 18032 O 1637.88 0.0246621 2.01385 0
M  V30 18033 C 1634.95 0.374555 3.44671 0
M  V30 18034 C 1634.01 1.46498 4.0353 0
M  V30 18035 C 1633.24 0.988256 5.2447 0
M  V30 18036 O 1633.46 -0.163992 5.70164 0
M  V30 18037 O 1632.4 1.7744 5.75151 0
M  V30 18038 H 1636.22 1.80208 2.44456 0
M  V30 18039 H 1633.81 0.93854 1.1624 0
M  V30 18040 H 1635.69 0.102161 4.21276 0
M  V30 18041 H 1634.36 -0.524513 3.19422 0
M  V30 18042 H 1633.27 1.79105 3.28439 0
M  V30 18043 H 1634.6 2.33917 4.33063 0
M  V30 18044 N 1636.26 -1.25243 0.956659 0
M  V30 18045 C 1637.53 -1.88287 0.529832 0
M  V30 18046 C 1637.91 -1.8629 -0.992929 0
M  V30 18047 O 1637.26 -1.32785 -1.85958 0
M  V30 18048 C 1637.47 -3.30919 1.10877 0
M  V30 18049 C 1638.82 -4.07674 1.18687 0
M  V30 18050 O 1639.84 -3.40048 1.06047 0
M  V30 18051 O 1638.7 -5.28648 1.38541 0
M  V30 18052 H 1635.8 -0.808258 0.175066 0
M  V30 18053 H 1638.34 -1.33298 1.05022 0
M  V30 18054 H 1637.11 -3.26813 2.15195 0
M  V30 18055 H 1636.74 -3.93468 0.571755 0
M  V30 18056 N 1637.73 -0.725468 -1.3991 0
M  V30 18057 C 1638.98 -0.26965 -2.00999 0
M  V30 18058 C 1639.31 1.13727 -1.57416 0
M  V30 18059 O 1638.59 1.77345 -0.798693 0
M  V30 18060 C 1638.87 -0.360784 -3.58288 0
M  V30 18061 C 1638.72 -1.80679 -4.11916 0
M  V30 18062 C 1640.04 0.262328 -4.39317 0
M  V30 18063 H 1637.16 -0.0994547 -0.730259 0
M  V30 18064 H 1639.8 -0.91983 -1.6625 0
M  V30 18065 H 1637.95 0.192779 -3.88021 0
M  V30 18066 H 1639.63 -2.4165 -3.92942 0
M  V30 18067 H 1637.87 -2.33127 -3.65834 0
M  V30 18068 H 1638.54 -1.82189 -5.21068 0
M  V30 18069 H 1641.02 -0.209452 -4.15573 0
M  V30 18070 H 1639.89 0.168166 -5.48642 0
M  V30 18071 H 1640.15 1.34716 -4.21075 0
M  V30 18072 N 1639.21 1.50354 -0.472382 0
M  V30 18073 C 1640.16 2.30173 0.335135 0
M  V30 18074 C 1641.15 1.37517 0.98921 0
M  V30 18075 O 1642.36 1.54703 0.920168 0
M  V30 18076 H 1638.74 0.741212 0.126918 0
M  V30 18077 H 1640.71 2.96239 -0.358449 0
M  V30 18078 C 1639.46 3.18104 1.40375 0
M  V30 18079 H 1638.78 3.8931 0.90984 0
M  V30 18080 H 1640.22 3.76947 1.94132 0
M  V30 18081 C 1638.68 2.35785 2.40639 0
M  V30 18082 O 1639.21 2.04185 3.45936 0
M  V30 18083 N 1637.41 1.98342 2.12389 0
M  V30 18084 H 1636.96 2.2424 1.26784 0
M  V30 18085 H 1636.92 1.43567 2.79707 0
M  V30 18086 N 1640.69 0.205039 1.56261 0
M  V30 18087 C 1641.6 -0.723548 2.23164 0
M  V30 18088 C 1642.62 -1.22683 1.23389 0
M  V30 18089 O 1643.79 -1.27191 1.56155 0
M  V30 18090 C 1640.86 -1.92178 2.88563 0
M  V30 18091 C 1639.92 -1.46209 4.03635 0
M  V30 18092 C 1639.15 -2.60321 4.65906 0
M  V30 18093 O 1639.38 -3.78051 4.27122 0
M  V30 18094 O 1638.31 -2.32465 5.55197 0
M  V30 18095 H 1642.14 -0.183715 3.03144 0
M  V30 18096 H 1639.72 -0.0246933 1.4938 0
M  V30 18097 H 1641.6 -2.62188 3.29902 0
M  V30 18098 H 1640.28 -2.45003 2.11555 0
M  V30 18099 H 1639.18 -0.730492 3.66899 0
M  V30 18100 H 1640.52 -0.980402 4.82337 0
M  V30 18101 N 1642.17 -1.57451 -0.0684915 0
M  V30 18102 C 1643.12 -2.03916 -1.08105 0
M  V30 18103 C 1644.09 -0.920418 -1.38266 0
M  V30 18104 O 1645.27 -1.18831 -1.49277 0
M  V30 18105 C 1642.41 -2.49075 -2.38863 0
M  V30 18106 C 1641.52 -3.74581 -2.15204 0
M  V30 18107 C 1640.66 -4.08509 -3.39549 0
M  V30 18108 C 1639.7 -5.27046 -3.11269 0
M  V30 18109 N 1638.84 -5.56597 -4.27954 0
M  V30 18110 H 1643.68 -2.90188 -0.677843 0
M  V30 18111 H 1641.21 -1.43507 -0.32313 0
M  V30 18112 H 1643.17 -2.7331 -3.1521 0
M  V30 18113 H 1641.8 -1.65776 -2.76981 0
M  V30 18114 H 1640.85 -3.57666 -1.29535 0
M  V30 18115 H 1642.16 -4.61065 -1.90317 0
M  V30 18116 H 1641.32 -4.33663 -4.24289 0
M  V30 18117 H 1640.06 -3.20599 -3.67515 0
M  V30 18118 H 1639.06 -5.01686 -2.24926 0
M  V30 18119 H 1640.29 -6.16577 -2.84622 0
M  V30 18120 H 1638.23 -4.71646 -4.55945 0
M  V30 18121 H 1638.15 -6.37506 -4.06352 0
M  V30 18122 H 1639.42 -5.86303 -5.13681 0
M  V30 18123 N 1643.65 0.339955 -1.5389 0
M  V30 18124 C 1644.92 1.09703 -1.6194 0
M  V30 18125 C 1645.3 2.06401 -0.442907 0
M  V30 18126 O 1644.65 2.21418 0.564477 0
M  V30 18127 C 1644.86 1.8135 -2.98183 0
M  V30 18128 C 1646.21 2.34965 -3.53662 0
M  V30 18129 O 1647.23 1.91442 -3.00381 0
M  V30 18130 O 1646.09 3.14601 -4.46865 0
M  V30 18131 H 1643.19 0.504703 -0.655136 0
M  V30 18132 H 1645.73 0.34116 -1.66235 0
M  V30 18133 H 1644.51 1.10924 -3.75249 0
M  V30 18134 H 1644.13 2.63787 -2.97494 0
M  V30 18135 N 1645.13 1.45684 0.601159 0
M  V30 18136 C 1646.35 1.53574 1.38646 0
M  V30 18137 C 1646.77 0.170511 1.88028 0
M  V30 18138 O 1646.13 -0.829061 1.62582 0
M  V30 18139 C 1646.18 2.52543 2.58658 0
M  V30 18140 O 1645.9 3.83761 2.11327 0
M  V30 18141 C 1647.4 2.70194 3.5144 0
M  V30 18142 H 1644.62 0.519907 0.424191 0
M  V30 18143 H 1647.16 1.90929 0.732559 0
M  V30 18144 H 1645.32 2.18242 3.20077 0
M  V30 18145 H 1645.73 4.37467 2.89349 0
M  V30 18146 H 1647.21 3.43405 4.32177 0
M  V30 18147 H 1647.68 1.76452 4.02196 0
M  V30 18148 H 1648.29 3.05517 2.95871 0
M  V30 18149 N 1646.6 -0.84422 1.33082 0
M  V30 18150 C 1647.51 -1.9858 1.24913 0
M  V30 18151 C 1648.53 -1.73256 0.160708 0
M  V30 18152 O 1649.71 -1.97719 0.383313 0
M  V30 18153 C 1646.77 -3.32471 0.983063 0
M  V30 18154 C 1645.83 -3.70946 2.16096 0
M  V30 18155 C 1645.06 -4.98448 1.90749 0
M  V30 18156 O 1645.29 -5.63953 0.855173 0
M  V30 18157 O 1644.22 -5.34301 2.7714 0
M  V30 18158 H 1648.05 -2.0841 2.20905 0
M  V30 18159 H 1645.63 -0.976447 1.13075 0
M  V30 18160 H 1647.51 -4.12705 0.851612 0
M  V30 18161 H 1646.19 -3.23656 0.053384 0
M  V30 18162 H 1645.1 -2.91244 2.34793 0
M  V30 18163 H 1646.43 -3.8442 3.07379 0
M  V30 18164 N 1648.08 -1.16463 -1.0618 0
M  V30 18165 C 1649.31 -0.97159 -1.83235 0
M  V30 18166 C 1649.73 0.475295 -1.81996 0
M  V30 18167 O 1649.09 1.33964 -1.22161 0
M  V30 18168 C 1649.14 -1.50504 -3.2769 0
M  V30 18169 O 1648.24 -0.712128 -4.06205 0
M  V30 18170 H 1647.58 -0.345676 -0.566925 0
M  V30 18171 H 1650.11 -1.54727 -1.33868 0
M  V30 18172 H 1650.12 -1.52301 -3.78508 0
M  V30 18173 H 1648.8 -2.55832 -3.27907 0
M  V30 18174 H 1647.37 -0.764756 -3.64974 0
M  V30 18175 N 1649.56 1.24734 -0.963288 0
M  V30 18176 C 1650.51 2.25555 -0.48926 0
M  V30 18177 C 1651.48 1.59521 0.462848 0
M  V30 18178 O 1652.66 1.87095 0.374188 0
M  V30 18179 C 1649.8 3.44407 0.218629 0
M  V30 18180 C 1648.91 4.25051 -0.77173 0
M  V30 18181 C 1648.05 5.31185 -0.0403986 0
M  V30 18182 C 1647.09 6.03523 -1.02112 0
M  V30 18183 N 1646.23 7.0137 -0.320083 0
M  V30 18184 H 1651.07 2.6547 -1.35386 0
M  V30 18185 H 1648.6 1.30504 -0.678762 0
M  V30 18186 H 1650.56 4.12173 0.645701 0
M  V30 18187 H 1649.19 3.05341 1.04722 0
M  V30 18188 H 1648.24 3.56865 -1.31726 0
M  V30 18189 H 1649.55 4.75084 -1.51976 0
M  V30 18190 H 1648.71 6.05067 0.444886 0
M  V30 18191 H 1647.45 4.82048 0.740356 0
M  V30 18192 H 1646.45 5.28448 -1.51732 0
M  V30 18193 H 1647.68 6.54749 -1.80224 0
M  V30 18194 H 1645.62 6.54511 0.441775 0
M  V30 18195 H 1645.54 7.49263 -1.00705 0
M  V30 18196 H 1646.81 7.79368 0.143379 0
M  V30 18197 N 1651.04 0.732878 1.39523 0
M  V30 18198 C 1652.31 0.20629 1.94509 0
M  V30 18199 C 1652.69 -1.29152 1.66982 0
M  V30 18200 O 1652.04 -2.05607 0.996895 0
M  V30 18201 C 1652.25 0.537619 3.44834 0
M  V30 18202 C 1653.6 0.485787 4.21812 0
M  V30 18203 O 1654.62 0.474686 3.53023 0
M  V30 18204 O 1653.48 0.478457 5.44402 0
M  V30 18205 H 1650.58 0.0369228 0.826175 0
M  V30 18206 H 1653.12 0.811591 1.49035 0
M  V30 18207 H 1651.9 1.57289 3.58296 0
M  V30 18208 H 1651.52 -0.0967601 3.97482 0
M  V30 18209 N 1652.52 -1.50101 0.480349 0
M  V30 18210 C 1653.46 -2.28722 -0.308993 0
M  V30 18211 C 1654.43 -1.34186 -0.978948 0
M  V30 18212 O 1655.62 -1.6313 -0.989602 0
M  V30 18213 C 1652.76 -3.16322 -1.37966 0
M  V30 18214 C 1651.87 -4.25898 -0.723552 0
M  V30 18215 C 1651.01 -5.00741 -1.7729 0
M  V30 18216 C 1650.04 -6.0218 -1.09754 0
M  V30 18217 N 1649.18 -6.70266 -2.09015 0
M  V30 18218 H 1654.02 -2.95722 0.367739 0
M  V30 18219 H 1651.56 -1.45826 0.193197 0
M  V30 18220 H 1653.52 -3.65469 -2.01217 0
M  V30 18221 H 1652.15 -2.51349 -2.02543 0
M  V30 18222 H 1651.2 -3.80394 0.0217507 0
M  V30 18223 H 1652.51 -4.98435 -0.190905 0
M  V30 18224 H 1651.66 -5.53653 -2.48098 0
M  V30 18225 H 1650.4 -4.27931 -2.33937 0
M  V30 18226 H 1649.41 -5.48519 -0.375123 0
M  V30 18227 H 1650.63 -6.76967 -0.537841 0
M  V30 18228 H 1648.58 -6.00242 -2.64662 0
M  V30 18229 H 1648.5 -7.3871 -1.6076 0
M  V30 18230 H 1649.76 -7.27792 -2.79175 0
M  V30 18231 N 1653.99 -0.213323 -1.5615 0
M  V30 18232 C 1654.93 0.739954 -2.1587 0
M  V30 18233 C 1655.9 1.19683 -1.10067 0
M  V30 18234 O 1657.09 1.28106 -1.38279 0
M  V30 18235 C 1654.22 2.00152 -2.73234 0
M  V30 18236 C 1653.26 1.68529 -3.91791 0
M  V30 18237 S 1654.09 0.817317 -5.29226 0
M  V30 18238 C 1655.25 2.08863 -5.90023 0
M  V30 18239 H 1655.48 0.232328 -2.96391 0
M  V30 18240 H 1653.02 0.00189263 -1.544 0
M  V30 18241 H 1654.97 2.72594 -3.06925 0
M  V30 18242 H 1653.64 2.48027 -1.92722 0
M  V30 18243 H 1652.83 2.62241 -4.30402 0
M  V30 18244 H 1652.43 1.04157 -3.59204 0
M  V30 18245 H 1654.72 3.03943 -6.05495 0
M  V30 18246 H 1655.67 1.74656 -6.86222 0
M  V30 18247 H 1656.07 2.22541 -5.18783 0
M  V30 18248 N 1655.47 1.57485 0.0601405 0
M  V30 18249 C 1656.72 1.86998 0.75595 0
M  V30 18250 C 1657.03 0.807616 1.78149 0
M  V30 18251 O 1658.24 0.99096 2.52769 0
M  V30 18252 C 1656.7 3.31746 1.39545 0
M  V30 18253 C 1656.3 4.46139 0.407874 0
M  V30 18254 C 1658.05 3.70445 2.07294 0
M  V30 18255 C 1655.96 5.81933 1.05395 0
M  V30 18256 H 1654.89 0.697619 0.286083 0
M  V30 18257 H 1657.54 1.83498 0.00948593 0
M  V30 18258 H 1655.92 3.29894 2.19057 0
M  V30 18259 H 1657.09 4.59405 -0.358281 0
M  V30 18260 H 1655.41 4.1607 -0.16581 0
M  V30 18261 H 1658 4.692 2.56428 0
M  V30 18262 H 1658.35 3.00839 2.87753 0
M  V30 18263 H 1658.88 3.74337 1.34598 0
M  V30 18264 H 1655.62 6.54861 0.289437 0
M  V30 18265 H 1655.14 5.72446 1.79068 0
M  V30 18266 H 1656.82 6.27652 1.5704 0
M  V30 18267 N 1656.95 -0.331789 1.54068 0
M  V30 18268 C 1658.2 -1.06858 1.71539 0
M  V30 18269 C 1658.52 -1.88808 0.487506 0
M  V30 18270 O 1657.79 -1.8945 -0.498539 0
M  V30 18271 H 1656.37 -0.3975 0.632457 0
M  V30 18272 H 1659.03 -0.370216 1.91352 0
M  V30 18273 H 1658.13 -1.73929 2.59143 0
M  V30 18274 N 1658.43 -1.46001 -0.593424 0
M  V30 18275 C 1659.38 -1.55752 -1.70323 0
M  V30 18276 C 1660.35 -0.402466 -1.6115 0
M  V30 18277 O 1661.53 -0.617804 -1.80521 0
M  V30 18278 C 1658.67 -1.54362 -3.08653 0
M  V30 18279 C 1657.78 -2.80523 -3.28529 0
M  V30 18280 C 1656.92 -2.70709 -4.57045 0
M  V30 18281 C 1655.96 -3.91857 -4.70228 0
M  V30 18282 N 1655.09 -3.80494 -5.90059 0
M  V30 18283 H 1659.93 -2.50555 -1.61326 0
M  V30 18284 H 1657.47 -1.24313 -0.786425 0
M  V30 18285 H 1659.43 -1.51542 -3.88704 0
M  V30 18286 H 1658.06 -0.630986 -3.16573 0
M  V30 18287 H 1657.11 -2.93368 -2.42155 0
M  V30 18288 H 1658.42 -3.70341 -3.3414 0
M  V30 18289 H 1657.58 -2.65935 -5.45311 0
M  V30 18290 H 1656.32 -1.78513 -4.53855 0
M  V30 18291 H 1655.32 -3.96975 -3.80383 0
M  V30 18292 H 1656.55 -4.85136 -4.75205 0
M  V30 18293 H 1654.49 -2.91077 -5.87886 0
M  V30 18294 H 1654.41 -4.63958 -5.96891 0
M  V30 18295 H 1655.68 -3.79676 -6.80783 0
M  V30 18296 N 1659.91 0.83715 -1.33527 0
M  V30 18297 C 1660.82 1.97915 -1.25964 0
M  V30 18298 C 1661.83 1.73169 -0.169894 0
M  V30 18299 O 1663.01 1.97513 -0.393793 0
M  V30 18300 C 1660.07 3.31945 -1.00068 0
M  V30 18301 C 1659.13 3.69795 -2.1806 0
M  V30 18302 C 1658.37 4.97429 -1.9339 0
M  V30 18303 O 1658.59 5.63492 -0.885069 0
M  V30 18304 O 1657.52 5.32823 -2.79969 0
M  V30 18305 H 1661.35 2.07236 -2.22007 0
M  V30 18306 H 1658.94 0.970437 -1.13591 0
M  V30 18307 H 1660.82 4.12248 -0.873487 0
M  V30 18308 H 1659.49 3.23623 -0.0705475 0
M  V30 18309 H 1658.4 2.89995 -2.36334 0
M  V30 18310 H 1659.73 3.82784 -3.09414 0
M  V30 18311 N 1661.38 1.17024 1.05561 0
M  V30 18312 C 1662.63 0.957742 1.7876 0
M  V30 18313 C 1662.96 -0.512652 1.87311 0
M  V30 18314 O 1662.24 -1.38047 1.37016 0
M  V30 18315 C 1662.52 1.59495 3.22852 0
M  V30 18316 C 1662.37 3.13719 3.22336 0
M  V30 18317 C 1663.69 1.29576 4.20593 0
M  V30 18318 H 1660.81 0.349354 0.648938 0
M  V30 18319 H 1663.45 1.44467 1.23408 0
M  V30 18320 H 1661.6 1.18091 3.70117 0
M  V30 18321 H 1663.28 3.64156 2.83175 0
M  V30 18322 H 1661.52 3.46664 2.60781 0
M  V30 18323 H 1662.19 3.5343 4.24018 0
M  V30 18324 H 1664.67 1.65423 3.81804 0
M  V30 18325 H 1663.54 1.76751 5.19663 0
M  V30 18326 H 1663.8 0.21589 4.41573 0
M  V30 18327 N 1662.86 -1.24221 0.969889 0
M  V30 18328 C 1664.11 -1.91656 0.628559 0
M  V30 18329 C 1664.42 -1.76627 -0.840371 0
M  V30 18330 O 1665.63 -2.38771 -1.29232 0
M  V30 18331 C 1664.09 -3.43515 1.07357 0
M  V30 18332 C 1663.69 -3.67226 2.56611 0
M  V30 18333 C 1665.44 -4.16788 0.805493 0
M  V30 18334 C 1663.35 -5.12667 2.94834 0
M  V30 18335 H 1662.28 -0.717619 0.231384 0
M  V30 18336 H 1664.93 -1.40831 1.17639 0
M  V30 18337 H 1663.31 -3.93388 0.454037 0
M  V30 18338 H 1664.48 -3.27942 3.23713 0
M  V30 18339 H 1662.8 -3.07243 2.81053 0
M  V30 18340 H 1665.39 -5.23945 1.06705 0
M  V30 18341 H 1665.74 -4.15498 -0.258321 0
M  V30 18342 H 1666.27 -3.7287 1.3861 0
M  V30 18343 H 1663.01 -5.1908 4.00295 0
M  V30 18344 H 1662.53 -5.5294 2.32417 0
M  V30 18345 H 1664.21 -5.80916 2.8486 0
M  V30 18346 N 1664.34 -0.740267 -1.39132 0
M  V30 18347 C 1665.59 -0.287379 -1.99642 0
M  V30 18348 C 1665.9 1.13337 -1.59418 0
M  V30 18349 O 1667.11 1.68605 -2.12802 0
M  V30 18350 C 1665.56 -0.462859 -3.56911 0
M  V30 18351 C 1665.17 -1.89184 -4.06095 0
M  V30 18352 C 1666.92 -0.0720122 -4.24439 0
M  V30 18353 C 1664.82 -2.01659 -5.55957 0
M  V30 18354 H 1663.75 -0.103696 -0.746835 0
M  V30 18355 H 1666.4 -0.914902 -1.59065 0
M  V30 18356 H 1664.79 0.233644 -3.9531 0
M  V30 18357 H 1665.96 -2.62072 -3.79018 0
M  V30 18358 H 1664.28 -2.23638 -3.51248 0
M  V30 18359 H 1666.87 -0.144163 -5.34506 0
M  V30 18360 H 1667.22 0.973516 -4.04757 0
M  V30 18361 H 1667.75 -0.719868 -3.91232 0
M  V30 18362 H 1664.49 -3.04419 -5.80525 0
M  V30 18363 H 1664.01 -1.33214 -5.8482 0
M  V30 18364 H 1665.69 -1.80023 -6.2145 0
M  V30 18365 N 1665.82 1.49844 -0.488302 0
M  V30 18366 C 1666.73 2.32651 0.301746 0
M  V30 18367 C 1667.74 1.43807 0.979573 0
M  V30 18368 O 1668.92 1.76844 0.963758 0
M  V30 18369 C 1665.99 3.18928 1.35962 0
M  V30 18370 C 1665.05 4.23611 0.696575 0
M  V30 18371 C 1664.28 5.05765 1.70404 0
M  V30 18372 O 1664.5 4.89243 2.93253 0
M  V30 18373 O 1663.44 5.88427 1.26637 0
M  V30 18374 H 1667.26 3.01367 -0.375687 0
M  V30 18375 H 1664.85 1.47296 -0.249844 0
M  V30 18376 H 1666.73 3.72413 1.97198 0
M  V30 18377 H 1665.4 2.52921 2.02021 0
M  V30 18378 H 1664.31 3.74073 0.0448118 0
M  V30 18379 H 1665.64 4.92137 0.0786446 0
M  V30 18380 N 1667.3 0.221601 1.56034 0
M  V30 18381 C 1668.21 -0.699837 2.23918 0
M  V30 18382 C 1669.22 -1.21367 1.24683 0
M  V30 18383 O 1670.4 -1.25527 1.57495 0
M  V30 18384 C 1667.46 -1.89107 2.90585 0
M  V30 18385 C 1666.52 -1.4192 4.05163 0
M  V30 18386 C 1665.76 -2.55365 4.68641 0
M  V30 18387 O 1665.98 -3.735 4.31108 0
M  V30 18388 O 1664.91 -2.26564 5.57631 0
M  V30 18389 H 1668.74 -0.151552 3.03322 0
M  V30 18390 H 1666.33 -0.0088482 1.49397 0
M  V30 18391 H 1668.21 -2.58674 3.32664 0
M  V30 18392 H 1666.88 -2.42745 2.14141 0
M  V30 18393 H 1665.79 -0.691536 3.67653 0
M  V30 18394 H 1667.12 -0.929189 4.8335 0
M  V30 18395 N 1668.77 -1.57515 -0.0517878 0
M  V30 18396 C 1670.02 -1.88493 -0.748206 0
M  V30 18397 C 1670.35 -0.816494 -1.76202 0
M  V30 18398 O 1669.63 0.171075 -1.93746 0
M  V30 18399 C 1669.91 -3.30131 -1.43825 0
M  V30 18400 C 1669.76 -4.47648 -0.4395 0
M  V30 18401 C 1671.08 -3.70315 -2.37813 0
M  V30 18402 H 1668.2 -0.68555 -0.270537 0
M  V30 18403 H 1670.84 -1.89997 -0.0111457 0
M  V30 18404 H 1668.99 -3.2898 -2.06651 0
M  V30 18405 H 1670.67 -4.60929 0.185088 0
M  V30 18406 H 1668.91 -4.33117 0.243381 0
M  V30 18407 H 1669.58 -5.43582 -0.96035 0
M  V30 18408 H 1672.06 -3.72687 -1.8505 0
M  V30 18409 H 1670.93 -4.70269 -2.83087 0
M  V30 18410 H 1671.19 -3.0133 -3.23501 0
M  V30 18411 N 1670.25 0.323614 -1.54242 0
M  V30 18412 C 1671.2 1.39826 -1.83623 0
M  V30 18413 C 1672.17 1.51393 -0.683331 0
M  V30 18414 O 1673.36 1.66614 -0.929754 0
M  V30 18415 C 1670.5 2.76187 -2.06918 0
M  V30 18416 C 1669.61 2.73251 -3.34601 0
M  V30 18417 C 1668.74 4.01458 -3.47857 0
M  V30 18418 C 1667.78 3.9283 -4.69415 0
M  V30 18419 N 1666.92 5.12767 -4.79598 0
M  V30 18420 H 1671.76 1.1407 -2.75303 0
M  V30 18421 H 1669.3 0.552188 -1.36343 0
M  V30 18422 H 1671.25 3.55458 -2.18416 0
M  V30 18423 H 1669.88 3.00251 -1.18529 0
M  V30 18424 H 1668.94 1.85971 -3.31842 0
M  V30 18425 H 1670.25 2.62759 -4.2398 0
M  V30 18426 H 1669.4 4.89161 -3.58897 0
M  V30 18427 H 1668.14 4.14757 -2.5657 0
M  V30 18428 H 1667.15 3.03512 -4.58433 0
M  V30 18429 H 1668.37 3.81097 -5.62087 0
M  V30 18430 H 1666.32 5.26572 -3.91227 0
M  V30 18431 H 1666.23 5.0461 -5.62943 0
M  V30 18432 H 1667.5 6.02184 -4.94969 0
M  V30 18433 N 1671.73 1.46313 0.585673 0
M  V30 18434 C 1672.64 1.59232 1.72286 0
M  V30 18435 C 1673.66 0.475912 1.67365 0
M  V30 18436 O 1674.83 0.739627 1.87327 0
M  V30 18437 C 1671.9 1.57647 3.08785 0
M  V30 18438 C 1670.96 2.80497 3.24992 0
M  V30 18439 C 1670.19 2.78978 4.5498 0
M  V30 18440 O 1670.42 1.87553 5.38684 0
M  V30 18441 O 1669.35 3.7048 4.74371 0
M  V30 18442 H 1673.18 2.55398 1.64334 0
M  V30 18443 H 1670.76 1.29073 0.752369 0
M  V30 18444 H 1672.64 1.59448 3.90069 0
M  V30 18445 H 1671.32 0.6464 3.1718 0
M  V30 18446 H 1670.22 2.8425 2.43213 0
M  V30 18447 H 1671.56 3.72703 3.21487 0
M  V30 18448 N 1673.21 -0.830057 1.33969 0
M  V30 18449 C 1674.12 -1.97244 1.27012 0
M  V30 18450 C 1675.14 -1.73076 0.179075 0
M  V30 18451 O 1676.31 -1.97301 0.404262 0
M  V30 18452 C 1673.38 -3.31409 1.01827 0
M  V30 18453 C 1672.44 -3.68633 2.20018 0
M  V30 18454 C 1671.67 -4.96397 1.96025 0
M  V30 18455 O 1671.89 -5.63014 0.91494 0
M  V30 18456 O 1670.83 -5.31331 2.82791 0
M  V30 18457 H 1674.65 -2.06056 2.23103 0
M  V30 18458 H 1672.24 -0.964399 1.14104 0
M  V30 18459 H 1674.12 -4.11779 0.895337 0
M  V30 18460 H 1672.8 -3.23581 0.0877091 0
M  V30 18461 H 1671.7 -2.88738 2.37869 0
M  V30 18462 H 1673.04 -3.81138 3.11439 0
M  V30 18463 N 1674.69 -1.17582 -1.04939 0
M  V30 18464 C 1675.93 -0.967208 -1.7825 0
M  V30 18465 C 1676.27 0.502711 -1.87581 0
M  V30 18466 O 1675.54 1.37318 -1.37746 0
M  V30 18467 C 1675.82 -1.61205 -3.22001 0
M  V30 18468 C 1675.68 -3.15424 -3.20667 0
M  V30 18469 C 1677 -1.31804 -4.199 0
M  V30 18470 H 1674.12 -0.35279 -0.647077 0
M  V30 18471 H 1676.76 -1.45119 -1.2264 0
M  V30 18472 H 1674.91 -1.20052 -3.69486 0
M  V30 18473 H 1676.58 -3.65653 -2.8124 0
M  V30 18474 H 1674.82 -3.48042 -2.58938 0
M  V30 18475 H 1675.49 -3.55674 -4.22138 0
M  V30 18476 H 1677.97 -1.67446 -3.80921 0
M  V30 18477 H 1676.85 -1.79505 -5.18719 0
M  V30 18478 H 1677.11 -0.239304 -4.41452 0
M  V30 18479 N 1676.17 1.23705 -0.976463 0
M  V30 18480 C 1677.11 2.25023 -0.513156 0
M  V30 18481 C 1678.08 1.60003 0.445903 0
M  V30 18482 O 1679.27 1.87481 0.354323 0
M  V30 18483 C 1676.41 3.44619 0.182088 0
M  V30 18484 C 1675.52 4.24209 -0.816769 0
M  V30 18485 C 1674.66 5.31112 -0.0967355 0
M  V30 18486 C 1673.69 6.02406 -1.08507 0
M  V30 18487 N 1672.83 7.00991 -0.394455 0
M  V30 18488 H 1677.67 2.64019 -1.38194 0
M  V30 18489 H 1675.21 1.29777 -0.692566 0
M  V30 18490 H 1677.17 4.12835 0.601948 0
M  V30 18491 H 1675.8 3.06435 1.01477 0
M  V30 18492 H 1674.85 3.55448 -1.35503 0
M  V30 18493 H 1676.16 4.73445 -1.57006 0
M  V30 18494 H 1675.31 6.05504 0.380686 0
M  V30 18495 H 1674.05 4.82806 0.689187 0
M  V30 18496 H 1673.06 5.26809 -1.57328 0
M  V30 18497 H 1674.28 6.528 -1.87159 0
M  V30 18498 H 1672.23 6.54943 0.372331 0
M  V30 18499 H 1672.15 7.48152 -1.08647 0
M  V30 18500 H 1673.41 7.79476 0.0607087 0
M  V30 18501 N 1677.64 0.747635 1.38738 0
M  V30 18502 C 1678.59 0.11597 2.30508 0
M  V30 18503 C 1679.56 -0.716088 1.49871 0
M  V30 18504 O 1680.75 -0.673446 1.7852 0
M  V30 18505 C 1677.89 -0.775765 3.36268 0
M  V30 18506 C 1677 0.070275 4.31943 0
M  V30 18507 C 1676.13 -0.823908 5.24772 0
M  V30 18508 C 1675.17 0.0261249 6.12094 0
M  V30 18509 N 1674.31 -0.824688 6.9724 0
M  V30 18510 H 1679.15 0.904158 2.83952 0
M  V30 18511 H 1676.69 0.457513 1.39804 0
M  V30 18512 H 1678.64 -1.30735 3.96187 0
M  V30 18513 H 1677.27 -1.5298 2.84248 0
M  V30 18514 H 1676.33 0.719421 3.73535 0
M  V30 18515 H 1677.64 0.726987 4.93474 0
M  V30 18516 H 1676.79 -1.42287 5.89779 0
M  V30 18517 H 1675.53 -1.51437 4.63593 0
M  V30 18518 H 1674.54 0.637803 5.46088 0
M  V30 18519 H 1675.76 0.713556 6.75341 0
M  V30 18520 H 1673.71 -1.50021 6.38616 0
M  V30 18521 H 1673.62 -0.22474 7.55666 0
M  V30 18522 H 1674.89 -1.40882 7.66663 0
M  V30 18523 N 1679.12 -1.49583 0.496242 0
M  V30 18524 C 1680.54 -1.58875 0.151907 0
M  V30 18525 C 1680.74 -1.50196 -1.34326 0
M  V30 18526 O 1679.79 -1.37344 -2.11879 0
M  V30 18527 C 1681.11 -2.91842 0.724478 0
M  V30 18528 C 1682.65 -3.05296 0.690157 0
M  V30 18529 C 1683.13 -4.40875 1.24071 0
M  V30 18530 N 1684.62 -4.47354 1.2012 0
M  V30 18531 C 1685.36 -5.50699 1.59743 0
M  V30 18532 N 1684.85 -6.61173 2.06936 0
M  V30 18533 N 1686.64 -5.41386 1.51189 0
M  V30 18534 H 1678.8 -1.53468 1.46838 0
M  V30 18535 H 1681.06 -0.726702 0.608776 0
M  V30 18536 H 1680.76 -3.03747 1.77287 0
M  V30 18537 H 1680.64 -3.7676 0.182209 0
M  V30 18538 H 1683.03 -2.93024 -0.34939 0
M  V30 18539 H 1683.11 -2.22074 1.26952 0
M  V30 18540 H 1682.75 -4.53898 2.27901 0
M  V30 18541 H 1682.68 -5.22729 0.637328 0
M  V30 18542 H 1685.17 -3.68092 0.855361 0
M  V30 18543 H 1685.48 -7.36122 2.35252 0
M  V30 18544 H 1683.83 -6.62226 2.10906 0
M  V30 18545 H 1687.02 -4.53971 1.14142 0
M  V30 18546 H 1687.19 -6.21802 1.82392 0
M  V30 18547 N 1680.6 -0.229873 -1.55915 0
M  V30 18548 C 1681.85 0.400157 -1.98813 0
M  V30 18549 C 1682.18 1.58821 -1.11756 0
M  V30 18550 O 1681.45 1.93692 -0.177094 0
M  V30 18551 C 1681.74 0.826623 -3.50484 0
M  V30 18552 C 1681.59 -0.365647 -4.48311 0
M  V30 18553 C 1682.91 1.6798 -4.06781 0
M  V30 18554 H 1680.03 0.143977 -0.7228 0
M  V30 18555 H 1682.67 -0.327775 -1.87151 0
M  V30 18556 H 1680.82 1.44687 -3.60552 0
M  V30 18557 H 1682.49 -1.00391 -4.50244 0
M  V30 18558 H 1680.73 -1.01168 -4.21838 0
M  V30 18559 H 1681.41 -0.0241816 -5.51995 0
M  V30 18560 H 1683.88 1.15639 -3.99708 0
M  V30 18561 H 1682.76 1.94708 -5.13206 0
M  V30 18562 H 1683.02 2.64594 -3.54179 0
M  V30 18563 N 1682.08 1.5754 0.0434337 0
M  V30 18564 C 1683.03 2.06683 1.067 0
M  V30 18565 C 1684.02 0.977691 1.38339 0
M  V30 18566 O 1685.23 1.16266 1.37412 0
M  V30 18567 H 1681.6 0.659378 0.361559 0
M  V30 18568 H 1683.57 2.91747 0.626605 0
M  V30 18569 C 1682.32 2.54985 2.36385 0
M  V30 18570 H 1681.64 3.384 2.12897 0
M  V30 18571 H 1683.08 2.93095 3.06384 0
M  V30 18572 C 1681.54 1.44484 3.04345 0
M  V30 18573 O 1682.07 0.80291 3.93594 0
M  V30 18574 N 1680.28 1.18292 2.65434 0
M  V30 18575 H 1679.83 1.70676 1.92944 0
M  V30 18576 H 1679.78 0.445676 3.11225 0
M  V30 18577 N 1683.56 -0.31543 1.54411 0
M  V30 18578 C 1684.5 -1.3885 1.84362 0
M  V30 18579 C 1685.47 -1.51028 0.69135 0
M  V30 18580 O 1686.66 -1.66119 0.938577 0
M  V30 18581 C 1683.8 -2.75085 2.0838 0
M  V30 18582 C 1682.91 -2.71473 3.36045 0
M  V30 18583 C 1682.05 -3.99608 3.49981 0
M  V30 18584 C 1681.08 -3.90335 4.71492 0
M  V30 18585 N 1680.22 -5.10216 4.82311 0
M  V30 18586 H 1685.06 -1.12609 2.75905 0
M  V30 18587 H 1682.6 -0.54495 1.36633 0
M  V30 18588 H 1684.56 -3.54295 2.20298 0
M  V30 18589 H 1683.19 -2.99618 1.2012 0
M  V30 18590 H 1682.24 -1.84209 3.32823 0
M  V30 18591 H 1683.55 -2.60507 4.25368 0
M  V30 18592 H 1682.7 -4.8725 3.61486 0
M  V30 18593 H 1681.44 -4.1339 2.58766 0
M  V30 18594 H 1680.45 -3.01077 4.60036 0
M  V30 18595 H 1681.67 -3.78111 5.641 0
M  V30 18596 H 1679.62 -5.24489 3.94014 0
M  V30 18597 H 1679.54 -5.01617 5.65612 0
M  V30 18598 H 1680.8 -5.99551 4.98156 0
M  V30 18599 N 1685.03 -1.46622 -0.577906 0
M  V30 18600 C 1685.94 -1.60143 -1.71439 0
M  V30 18601 C 1686.96 -0.484781 -1.6711 0
M  V30 18602 O 1688.14 -0.749551 -1.86932 0
M  V30 18603 C 1685.2 -1.59282 -3.07945 0
M  V30 18604 C 1684.26 -2.82216 -3.235 0
M  V30 18605 C 1683.5 -2.81387 -4.53495 0
M  V30 18606 O 1683.72 -1.90407 -5.37681 0
M  V30 18607 O 1682.65 -3.72991 -4.724 0
M  V30 18608 H 1686.48 -2.56265 -1.62978 0
M  V30 18609 H 1684.06 -1.2947 -0.745514 0
M  V30 18610 H 1685.95 -1.61515 -3.89218 0
M  V30 18611 H 1684.62 -0.663212 -3.16833 0
M  V30 18612 H 1683.53 -2.85536 -2.41702 0
M  V30 18613 H 1684.86 -3.74402 -3.19506 0
M  V30 18614 N 1686.51 0.822941 -1.34408 0
M  V30 18615 C 1687.76 1.58149 -1.26951 0
M  V30 18616 C 1688.09 1.93538 0.160222 0
M  V30 18617 O 1687.37 1.60021 1.1056 0
M  V30 18618 C 1687.65 2.88101 -2.16032 0
M  V30 18619 C 1687.5 2.59293 -3.67542 0
M  V30 18620 C 1688.82 3.89673 -2.04556 0
M  V30 18621 H 1685.94 0.573811 -0.462504 0
M  V30 18622 H 1688.58 0.948017 -1.64659 0
M  V30 18623 H 1686.73 3.42162 -1.84003 0
M  V30 18624 H 1688.4 2.11542 -4.09936 0
M  V30 18625 H 1686.65 1.92738 -3.88632 0
M  V30 18626 H 1687.32 3.51962 -4.25238 0
M  V30 18627 H 1689.79 3.44965 -2.32677 0
M  V30 18628 H 1688.67 4.78404 -2.69111 0
M  V30 18629 H 1688.93 4.30113 -1.02253 0
M  V30 18630 N 1687.99 1.18137 1.04314 0
M  V30 18631 C 1688.94 0.902484 2.14378 0
M  V30 18632 C 1689.93 -0.136289 1.68851 0
M  V30 18633 O 1691.14 0.0116256 1.79996 0
M  V30 18634 H 1687.51 0.274358 0.700165 0
M  V30 18635 H 1689.48 1.83768 2.35099 0
M  V30 18636 C 1688.23 0.441975 3.4488 0
M  V30 18637 H 1687.56 1.23279 3.80319 0
M  V30 18638 H 1689 0.285808 4.23036 0
M  V30 18639 C 1687.46 -0.841797 3.26214 0
M  V30 18640 O 1687.99 -1.90658 3.53571 0
M  V30 18641 N 1686.19 -0.793425 2.79559 0
M  V30 18642 H 1685.74 0.0732997 2.57496 0
M  V30 18643 H 1685.7 -1.65281 2.6745 0
M  V30 18644 N 1689.47 -1.23186 0.98301 0
M  V30 18645 C 1690.42 -2.24748 0.525082 0
M  V30 18646 C 1691.39 -1.60237 -0.437411 0
M  V30 18647 O 1692.57 -1.87666 -0.344376 0
M  V30 18648 C 1689.71 -3.44711 -0.163809 0
M  V30 18649 C 1688.82 -4.23769 0.839254 0
M  V30 18650 C 1687.96 -5.31053 0.1249 0
M  V30 18651 C 1687 -6.01822 1.117 0
M  V30 18652 N 1686.13 -7.00772 0.431625 0
M  V30 18653 H 1690.97 -2.63283 1.39593 0
M  V30 18654 H 1688.51 -1.29407 0.699438 0
M  V30 18655 H 1690.47 -4.13148 -0.580046 0
M  V30 18656 H 1689.1 -3.06969 -0.998507 0
M  V30 18657 H 1688.15 -3.54724 1.37386 0
M  V30 18658 H 1689.46 -4.72606 1.59515 0
M  V30 18659 H 1688.62 -6.05698 -0.348569 0
M  V30 18660 H 1687.36 -4.83165 -0.663573 0
M  V30 18661 H 1686.36 -5.25967 1.6012 0
M  V30 18662 H 1687.59 -6.51799 1.90618 0
M  V30 18663 H 1685.53 -6.55131 -0.337592 0
M  V30 18664 H 1685.45 -7.47566 1.12613 0
M  V30 18665 H 1686.72 -7.79498 -0.0193703 0
M  V30 18666 N 1690.95 -0.754982 -1.38339 0
M  V30 18667 C 1692.36 -0.43273 -1.53622 0
M  V30 18668 C 1692.56 1.05395 -1.71739 0
M  V30 18669 O 1691.62 1.83998 -1.72919 0
M  V30 18670 C 1692.93 -1.23319 -2.7425 0
M  V30 18671 C 1694.48 -1.22341 -2.881 0
M  V30 18672 C 1694.95 -2.00686 -4.11691 0
M  V30 18673 N 1696.45 -1.97953 -4.1877 0
M  V30 18674 C 1697.18 -2.55367 -5.13396 0
M  V30 18675 N 1696.68 -3.215 -6.13685 0
M  V30 18676 N 1698.47 -2.45289 -5.05757 0
M  V30 18677 H 1690.62 -1.71847 -1.2483 0
M  V30 18678 H 1692.88 -0.728585 -0.606521 0
M  V30 18679 H 1692.59 -2.28602 -2.67272 0
M  V30 18680 H 1692.46 -0.851009 -3.67475 0
M  V30 18681 H 1694.85 -0.178637 -2.94559 0
M  V30 18682 H 1694.93 -1.64511 -1.95882 0
M  V30 18683 H 1694.58 -3.05175 -4.05994 0
M  V30 18684 H 1694.51 -1.55908 -5.02991 0
M  V30 18685 H 1697 -1.49792 -3.46945 0
M  V30 18686 H 1697.31 -3.62725 -6.82386 0
M  V30 18687 H 1695.65 -3.25595 -6.14014 0
M  V30 18688 H 1698.85 -1.93251 -4.26347 0
M  V30 18689 H 1699.02 -2.9033 -5.79321 0
M  V30 18690 N 1692.42 1.49318 -0.504168 0
M  V30 18691 C 1693.67 2.02762 0.0392846 0
M  V30 18692 C 1694 1.38282 1.36352 0
M  V30 18693 O 1693.28 0.519587 1.87431 0
M  V30 18694 C 1693.56 3.59606 0.188507 0
M  V30 18695 C 1693.41 4.3461 -1.15908 0
M  V30 18696 C 1694.73 4.30213 0.927641 0
M  V30 18697 H 1691.85 0.736889 0.0128028 0
M  V30 18698 H 1694.49 1.78309 -0.656193 0
M  V30 18699 H 1692.64 3.80572 0.780861 0
M  V30 18700 H 1694.32 4.25132 -1.79055 0
M  V30 18701 H 1692.56 3.97043 -1.74756 0
M  V30 18702 H 1693.23 5.4272 -1.00794 0
M  V30 18703 H 1695.71 4.13922 0.425228 0
M  V30 18704 H 1694.58 5.39697 1.0009 0
M  V30 18705 H 1694.84 3.95678 1.97209 0
M  V30 18706 N 1693.9 0.238138 1.5579 0
M  V30 18707 C 1694.85 -0.681413 2.22395 0
M  V30 18708 C 1695.84 -1.18691 1.20867 0
M  V30 18709 O 1697.05 -1.14482 1.38903 0
M  V30 18710 H 1693.43 -0.238207 0.713275 0
M  V30 18711 H 1695.4 -0.0964141 2.98244 0
M  V30 18712 C 1694.15 -1.87137 2.93045 0
M  V30 18713 H 1693.47 -1.49153 3.70936 0
M  V30 18714 H 1694.91 -2.4922 3.43024 0
M  V30 18715 C 1693.37 -2.73709 1.9643 0
M  V30 18716 O 1693.9 -3.72973 1.49178 0
M  V30 18717 N 1692.1 -2.40092 1.6372 0
M  V30 18718 H 1691.65 -1.59423 2.02341 0
M  V30 18719 H 1691.61 -2.98293 0.993414 0
M  V30 18720 N 1695.38 -1.57561 -0.0350783 0
M  V30 18721 C 1696.8 -1.54746 -0.390618 0
M  V30 18722 C 1697 -0.963454 -1.76974 0
M  V30 18723 O 1696.05 -0.581878 -2.45704 0
M  V30 18724 C 1697.37 -2.9922 -0.297984 0
M  V30 18725 C 1698.91 -3.10739 -0.375506 0
M  V30 18726 C 1699.39 -4.56933 -0.312387 0
M  V30 18727 N 1700.88 -4.61709 -0.371364 0
M  V30 18728 C 1701.61 -5.72359 -0.34532 0
M  V30 18729 N 1701.11 -6.92266 -0.271921 0
M  V30 18730 N 1702.9 -5.60713 -0.394605 0
M  V30 18731 H 1695.05 -1.93876 0.867519 0
M  V30 18732 H 1697.32 -0.888974 0.329285 0
M  V30 18733 H 1697.02 -3.45651 0.649499 0
M  V30 18734 H 1696.9 -3.60987 -1.094 0
M  V30 18735 H 1699.28 -2.6426 -1.31342 0
M  V30 18736 H 1699.37 -2.51815 0.449752 0
M  V30 18737 H 1699.01 -5.04079 0.621834 0
M  V30 18738 H 1698.94 -5.13762 -1.15567 0
M  V30 18739 H 1701.43 -3.75436 -0.430848 0
M  V30 18740 H 1701.74 -7.72373 -0.256983 0
M  V30 18741 H 1700.09 -6.94592 -0.238058 0
M  V30 18742 H 1703.28 -4.65933 -0.449896 0
M  V30 18743 H 1703.45 -6.46938 -0.37084 0
M  V30 18744 N 1696.86 0.307236 -1.54576 0
M  V30 18745 C 1698.27 0.652539 -1.45651 0
M  V30 18746 C 1698.47 1.90978 -0.64263 0
M  V30 18747 O 1697.53 2.52067 -0.147863 0
M  V30 18748 C 1698.84 0.811341 -2.89547 0
M  V30 18749 C 1700.39 0.90763 -2.99551 0
M  V30 18750 C 1700.87 1.09848 -4.44632 0
M  V30 18751 N 1702.36 1.16483 -4.48315 0
M  V30 18752 C 1703.09 1.33068 -5.57746 0
M  V30 18753 N 1702.59 1.46591 -6.77114 0
M  V30 18754 N 1704.38 1.35906 -5.45423 0
M  V30 18755 H 1696.53 -0.518891 -2.05964 0
M  V30 18756 H 1698.8 -0.170463 -0.932548 0
M  V30 18757 H 1698.5 -0.0414879 -3.51676 0
M  V30 18758 H 1698.38 1.70224 -3.36606 0
M  V30 18759 H 1700.76 1.75095 -2.37541 0
M  V30 18760 H 1700.84 -0.00715386 -2.55799 0
M  V30 18761 H 1700.49 0.259948 -5.07234 0
M  V30 18762 H 1700.42 2.02739 -4.86009 0
M  V30 18763 H 1702.91 1.07411 -3.62314 0
M  V30 18764 H 1703.22 1.58983 -7.5627 0
M  V30 18765 H 1701.57 1.43658 -6.79991 0
M  V30 18766 H 1704.76 1.24949 -4.51116 0
M  V30 18767 H 1704.93 1.48489 -6.30758 0
M  V30 18768 N 1698.34 1.46926 0.570122 0
M  V30 18769 C 1699.28 1.5883 1.69929 0
M  V30 18770 C 1700.28 0.456167 1.63143 0
M  V30 18771 O 1701.48 0.633503 1.68484 0
M  V30 18772 H 1697.86 0.499606 0.562048 0
M  V30 18773 H 1699.83 2.53744 1.57023 0
M  V30 18774 C 1698.58 1.60761 3.08304 0
M  V30 18775 H 1697.9 2.47219 3.14202 0
M  V30 18776 H 1699.34 1.73142 3.87037 0
M  V30 18777 C 1697.8 0.338515 3.35195 0
M  V30 18778 O 1698.33 -0.565917 3.97694 0
M  V30 18779 N 1696.54 0.222525 2.89747 0
M  V30 18780 H 1696.08 0.959435 2.39066 0
M  V30 18781 H 1696.04 -0.625697 3.08111 0
M  V30 18782 N 1699.82 -0.815801 1.34842 0
M  V30 18783 C 1701.23 -1.10999 1.1468 0
M  V30 18784 C 1701.43 -2.01445 -0.0469339 0
M  V30 18785 O 1700.49 -2.42007 -0.720322 0
M  V30 18786 C 1701.8 -1.74984 2.44543 0
M  V30 18787 C 1703.35 -1.87447 2.50665 0
M  V30 18788 C 1703.82 -2.54848 3.80548 0
M  V30 18789 N 1705.31 -2.62341 3.81748 0
M  V30 18790 C 1706.05 -3.15239 4.7897 0
M  V30 18791 N 1705.55 -3.68646 5.86577 0
M  V30 18792 N 1707.34 -3.13706 4.66417 0
M  V30 18793 H 1699.49 -0.214351 2.11316 0
M  V30 18794 H 1701.75 -0.157666 0.934797 0
M  V30 18795 H 1701.46 -1.1599 3.32023 0
M  V30 18796 H 1701.33 -2.7478 2.5841 0
M  V30 18797 H 1703.72 -2.45587 1.63619 0
M  V30 18798 H 1703.8 -0.865325 2.40719 0
M  V30 18799 H 1703.44 -1.9736 4.67987 0
M  V30 18800 H 1703.37 -3.5628 3.87778 0
M  V30 18801 H 1705.87 -2.24493 3.03992 0
M  V30 18802 H 1706.18 -4.07281 6.56766 0
M  V30 18803 H 1704.52 -3.6687 5.90281 0
M  V30 18804 H 1707.71 -2.71255 3.81495 0
M  V30 18805 H 1707.89 -3.54626 5.4235 0
M  V30 18806 N 1701.29 -1.18689 -1.03686 0
M  V30 18807 C 1702.24 -0.917369 -2.11785 0
M  V30 18808 C 1703.21 0.144719 -1.65468 0
M  V30 18809 O 1704.4 0.00427016 -1.908 0
M  V30 18810 C 1701.54 -0.453396 -3.42109 0
M  V30 18811 C 1700.65 -1.58134 -4.02017 0
M  V30 18812 C 1699.78 -1.06971 -5.20318 0
M  V30 18813 C 1698.82 -2.17208 -5.72265 0
M  V30 18814 N 1697.96 -1.67411 -6.81849 0
M  V30 18815 H 1702.8 -1.84297 -2.34177 0
M  V30 18816 H 1700.34 -0.918951 -1.14864 0
M  V30 18817 H 1702.29 -0.165843 -4.1687 0
M  V30 18818 H 1700.92 0.435219 -3.19853 0
M  V30 18819 H 1699.98 -1.98429 -3.24546 0
M  V30 18820 H 1701.29 -2.41219 -4.36594 0
M  V30 18821 H 1700.44 -0.736906 -6.02208 0
M  V30 18822 H 1699.18 -0.208487 -4.87254 0
M  V30 18823 H 1698.19 -2.51328 -4.88993 0
M  V30 18824 H 1699.41 -3.03772 -6.07371 0
M  V30 18825 H 1697.36 -0.83584 -6.50653 0
M  V30 18826 H 1697.27 -2.44091 -7.15511 0
M  V30 18827 H 1698.54 -1.3707 -7.67354 0
M  V30 18828 N 1702.77 1.22662 -0.989529 0
M  V30 18829 C 1703.72 2.26484 -0.529864 0
M  V30 18830 C 1704.71 1.64168 0.417759 0
M  V30 18831 O 1705.92 1.77638 0.290649 0
M  V30 18832 H 1702.29 0.736282 -0.152949 0
M  V30 18833 H 1704.27 2.62608 -1.41702 0
M  V30 18834 C 1703.01 3.47405 0.143148 0
M  V30 18835 H 1702.34 3.95615 -0.576962 0
M  V30 18836 H 1703.78 4.21831 0.428279 0
M  V30 18837 C 1702.24 3.07457 1.37738 0
M  V30 18838 O 1702.77 3.16555 2.47297 0
M  V30 18839 N 1700.97 2.62276 1.25139 0
M  V30 18840 H 1700.52 2.55073 0.359927 0
M  V30 18841 H 1700.48 2.35915 2.07826 0
M  V30 18842 N 1704.25 0.762308 1.37937 0
M  V30 18843 C 1705.16 0.142724 2.34165 0
M  V30 18844 C 1706.18 -0.690588 1.59709 0
M  V30 18845 O 1707.35 -0.61271 1.91854 0
M  V30 18846 C 1704.42 -0.733325 3.38856 0
M  V30 18847 C 1703.48 0.115359 4.29145 0
M  V30 18848 C 1702.71 -0.718972 5.28835 0
M  V30 18849 O 1702.93 -1.95656 5.35794 0
M  V30 18850 O 1701.87 -0.133162 6.01753 0
M  V30 18851 H 1705.69 0.937662 2.88863 0
M  V30 18852 H 1703.28 0.523325 1.39935 0
M  V30 18853 H 1705.16 -1.23374 4.02935 0
M  V30 18854 H 1703.84 -1.50661 2.86501 0
M  V30 18855 H 1702.74 0.661926 3.68197 0
M  V30 18856 H 1704.08 0.851505 4.84779 0
M  V30 18857 N 1705.73 -1.49049 0.51208 0
M  V30 18858 C 1707.14 -1.58705 0.16875 0
M  V30 18859 C 1707.34 -1.51612 -1.32725 0
M  V30 18860 O 1706.4 -1.39583 -2.10411 0
M  V30 18861 C 1707.71 -2.91057 0.755391 0
M  V30 18862 C 1709.26 -3.04547 0.722499 0
M  V30 18863 C 1709.74 -4.39534 1.2874 0
M  V30 18864 N 1711.23 -4.46055 1.24858 0
M  V30 18865 C 1711.96 -5.48974 1.65575 0
M  V30 18866 N 1711.46 -6.58941 2.13937 0
M  V30 18867 N 1713.25 -5.39752 1.56922 0
M  V30 18868 H 1705.4 -1.51902 1.48457 0
M  V30 18869 H 1707.66 -0.720204 0.61645 0
M  V30 18870 H 1707.37 -3.01849 1.80499 0
M  V30 18871 H 1707.24 -3.76545 0.222159 0
M  V30 18872 H 1709.63 -2.93378 -0.318291 0
M  V30 18873 H 1709.71 -2.20715 1.293 0
M  V30 18874 H 1709.36 -4.51455 2.32703 0
M  V30 18875 H 1709.29 -5.22024 0.692735 0
M  V30 18876 H 1711.78 -3.67164 0.894354 0
M  V30 18877 H 1712.09 -7.33586 2.43046 0
M  V30 18878 H 1710.44 -6.59952 2.17918 0
M  V30 18879 H 1713.63 -4.52734 1.18951 0
M  V30 18880 H 1713.8 -6.19832 1.88977 0
M  V30 18881 N 1707.21 -0.246397 -1.55662 0
M  V30 18882 C 1708.15 0.653368 -2.21359 0
M  V30 18883 C 1709.12 1.1717 -1.1773 0
M  V30 18884 O 1710.31 1.22626 -1.46176 0
M  V30 18885 C 1707.45 1.84484 -2.9165 0
M  V30 18886 C 1706.56 1.36308 -4.09932 0
M  V30 18887 C 1705.7 2.51407 -4.6794 0
M  V30 18888 C 1704.73 2.0009 -5.78472 0
M  V30 18889 N 1703.87 3.08555 -6.30665 0
M  V30 18890 H 1708.71 0.0864458 -2.97875 0
M  V30 18891 H 1706.25 0.0309074 -1.47068 0
M  V30 18892 H 1708.21 2.54476 -3.30602 0
M  V30 18893 H 1706.84 2.38425 -2.17609 0
M  V30 18894 H 1705.89 0.557224 -3.76297 0
M  V30 18895 H 1707.2 0.946988 -4.89728 0
M  V30 18896 H 1706.35 3.29442 -5.09463 0
M  V30 18897 H 1705.09 2.96318 -3.87359 0
M  V30 18898 H 1704.1 1.20526 -5.36427 0
M  V30 18899 H 1705.32 1.5615 -6.60904 0
M  V30 18900 H 1703.27 3.529 -5.52989 0
M  V30 18901 H 1703.19 2.71274 -7.05653 0
M  V30 18902 H 1704.45 3.8665 -6.76847 0
M  V30 18903 N 1708.68 1.57577 0.026722 0
M  V30 18904 C 1709.96 1.80541 0.752606 0
M  V30 18905 C 1710.34 0.845025 1.93449 0
M  V30 18906 O 1709.69 -0.112286 2.28224 0
M  V30 18907 C 1709.9 3.28322 1.18345 0
M  V30 18908 C 1711.25 3.93366 1.59839 0
M  V30 18909 O 1712.27 3.32486 1.27796 0
M  V30 18910 O 1711.13 5.0056 2.19321 0
M  V30 18911 H 1708.22 0.742514 0.364146 0
M  V30 18912 H 1710.77 1.697 0.00332 0
M  V30 18913 H 1709.54 3.89822 0.339832 0
M  V30 18914 H 1709.16 3.44061 1.99267 0
M  V30 18915 N 1710.16 -0.299034 1.54737 0
M  V30 18916 C 1711.41 -1.03553 1.74369 0
M  V30 18917 C 1711.74 -1.86856 0.529019 0
M  V30 18918 O 1711.02 -1.8864 -0.473854 0
M  V30 18919 C 1711.3 -1.93988 3.03382 0
M  V30 18920 C 1711.15 -1.13852 4.35153 0
M  V30 18921 C 1712.47 -2.93128 3.28274 0
M  V30 18922 H 1709.59 -0.375055 0.634431 0
M  V30 18923 H 1712.23 -0.310018 1.87454 0
M  V30 18924 H 1710.38 -2.5585 2.92358 0
M  V30 18925 H 1712.05 -0.542614 4.58098 0
M  V30 18926 H 1710.3 -0.441278 4.3155 0
M  V30 18927 H 1710.97 -1.80385 5.21694 0
M  V30 18928 H 1713.44 -2.41396 3.38921 0
M  V30 18929 H 1712.32 -3.53569 4.19857 0
M  V30 18930 H 1712.58 -3.66892 2.46663 0
M  V30 18931 N 1711.64 -1.47227 -0.562322 0
M  V30 18932 C 1712.89 -1.52851 -1.31604 0
M  V30 18933 C 1713.2 -0.193236 -1.94643 0
M  V30 18934 O 1714.41 -0.127429 -2.71201 0
M  V30 18935 C 1712.86 -2.69422 -2.3862 0
M  V30 18936 C 1712.47 -4.09457 -1.81794 0
M  V30 18937 C 1714.22 -2.84334 -3.15205 0
M  V30 18938 C 1712.12 -5.17337 -2.8656 0
M  V30 18939 H 1711.05 -0.568923 -0.494816 0
M  V30 18940 H 1713.7 -1.73489 -0.597819 0
M  V30 18941 H 1712.09 -2.42153 -3.13333 0
M  V30 18942 H 1713.26 -4.46606 -1.13487 0
M  V30 18943 H 1711.57 -3.99387 -1.17811 0
M  V30 18944 H 1714.17 -3.621 -3.93431 0
M  V30 18945 H 1714.51 -1.9259 -3.69073 0
M  V30 18946 H 1715.05 -3.11348 -2.47603 0
M  V30 18947 H 1711.79 -6.1094 -2.37554 0
M  V30 18948 H 1711.31 -4.8471 -3.53293 0
M  V30 18949 H 1712.99 -5.44065 -3.50146 0
M  V30 18950 N 1713.12 0.808639 -1.35273 0
M  V30 18951 C 1714.03 1.95198 -1.30134 0
M  V30 18952 C 1715.04 1.72769 -0.206587 0
M  V30 18953 O 1716.22 1.96633 -0.4356 0
M  V30 18954 C 1713.28 3.29747 -1.07087 0
M  V30 18955 C 1712.35 3.65086 -2.25855 0
M  V30 18956 C 1711.58 4.93215 -2.03898 0
M  V30 18957 O 1711.8 5.61487 -1.00439 0
M  V30 18958 O 1710.74 5.26765 -2.91208 0
M  V30 18959 H 1714.56 2.0248 -2.26353 0
M  V30 18960 H 1712.15 0.946124 -1.15624 0
M  V30 18961 H 1714.03 4.10302 -0.960734 0
M  V30 18962 H 1712.7 3.23401 -0.139177 0
M  V30 18963 H 1711.61 2.84917 -2.42432 0
M  V30 18964 H 1712.94 3.76135 -3.17464 0
M  V30 18965 N 1714.6 1.19237 1.03055 0
M  V30 18966 C 1715.53 0.886348 2.11368 0
M  V30 18967 C 1716.54 -0.120256 1.62355 0
M  V30 18968 O 1717.73 0.108934 1.78167 0
M  V30 18969 C 1714.83 0.304819 3.37526 0
M  V30 18970 C 1714 1.35957 4.15734 0
M  V30 18971 C 1713.06 0.791885 5.20207 0
M  V30 18972 O 1712.09 1.46916 5.49913 0
M  V30 18973 N 1713.29 -0.40564 5.79081 0
M  V30 18974 H 1716.06 1.81867 2.38211 0
M  V30 18975 H 1713.62 1.09414 1.19332 0
M  V30 18976 H 1715.61 -0.0887629 4.04603 0
M  V30 18977 H 1714.18 -0.531744 3.08044 0
M  V30 18978 H 1713.4 1.92806 3.43831 0
M  V30 18979 H 1714.69 2.07034 4.64773 0
M  V30 18980 H 1714.08 -0.973423 5.57262 0
M  V30 18981 H 1712.64 -0.741021 6.47574 0
M  V30 18982 N 1716.07 -1.22136 0.99602 0
M  V30 18983 C 1716.98 -2.27869 0.557927 0
M  V30 18984 C 1718 -1.69462 -0.394781 0
M  V30 18985 O 1719.18 -1.99704 -0.26084 0
M  V30 18986 C 1716.24 -3.46501 -0.117434 0
M  V30 18987 C 1715.3 -4.20213 0.878627 0
M  V30 18988 C 1714.54 -5.33181 0.2354 0
M  V30 18989 O 1714.76 -5.62093 -0.969954 0
M  V30 18990 O 1713.69 -5.94486 0.941828 0
M  V30 18991 H 1717.52 -2.67517 1.43765 0
M  V30 18992 H 1715.1 -1.28362 0.764428 0
M  V30 18993 H 1716.99 -4.18476 -0.49559 0
M  V30 18994 H 1715.66 -3.08772 -0.971674 0
M  V30 18995 H 1714.57 -3.50497 1.30777 0
M  V30 18996 H 1715.9 -4.6183 1.70217 0
M  V30 18997 N 1717.55 -0.769612 -1.37531 0
M  V30 18998 C 1718.8 -0.329661 -1.98988 0
M  V30 18999 C 1719.11 1.0993 -1.61786 0
M  V30 19000 O 1720.32 1.64053 -2.1633 0
M  V30 19001 C 1718.78 -0.538461 -3.55849 0
M  V30 19002 C 1718.38 -1.97755 -4.01991 0
M  V30 19003 C 1720.13 -0.162026 -4.24191 0
M  V30 19004 C 1718.04 -2.13406 -5.51554 0
M  V30 19005 H 1716.97 -0.119514 -0.744468 0
M  V30 19006 H 1719.62 -0.948436 -1.57089 0
M  V30 19007 H 1718 0.14974 -3.95717 0
M  V30 19008 H 1719.17 -2.70053 -3.73374 0
M  V30 19009 H 1717.49 -2.31038 -3.46425 0
M  V30 19010 H 1720.08 -0.257508 -5.3408 0
M  V30 19011 H 1720.43 0.887442 -4.06731 0
M  V30 19012 H 1720.96 -0.802692 -3.89617 0
M  V30 19013 H 1717.7 -3.16664 -5.73937 0
M  V30 19014 H 1717.22 -1.45589 -5.81862 0
M  V30 19015 H 1718.9 -1.93165 -6.17492 0
M  V30 19016 N 1719.03 1.48775 -0.519977 0
M  V30 19017 C 1720.28 2.02792 0.0177768 0
M  V30 19018 C 1720.61 1.3972 1.34878 0
M  V30 19019 O 1719.88 0.539438 1.8687 0
M  V30 19020 C 1720.17 3.59786 0.150355 0
M  V30 19021 C 1720.02 4.33356 -1.20511 0
M  V30 19022 C 1721.34 4.31172 0.881959 0
M  V30 19023 H 1718.46 0.736983 0.00498634 0
M  V30 19024 H 1721.1 1.77603 -0.675069 0
M  V30 19025 H 1719.25 3.81378 0.740452 0
M  V30 19026 H 1720.92 4.23209 -1.83554 0
M  V30 19027 H 1719.17 3.95167 -1.78957 0
M  V30 19028 H 1719.84 5.4162 -1.06544 0
M  V30 19029 H 1722.31 4.14349 0.381302 0
M  V30 19030 H 1721.19 5.40729 0.943601 0
M  V30 19031 H 1721.45 3.97747 1.93001 0
M  V30 19032 N 1720.51 0.254649 1.55529 0
M  V30 19033 C 1721.73 -0.374795 2.03985 0
M  V30 19034 C 1722.16 -1.50188 1.13249 0
M  V30 19035 O 1721.52 -1.80855 0.126963 0
M  V30 19036 C 1721.56 -0.852635 3.50375 0
M  V30 19037 O 1720.67 -1.9616 3.6276 0
M  V30 19038 H 1720.01 -0.0806157 0.659088 0
M  V30 19039 H 1722.54 0.38297 2.00984 0
M  V30 19040 H 1722.55 -1.15381 3.91345 0
M  V30 19041 H 1721.22 -0.0279044 4.15891 0
M  V30 19042 H 1719.8 -1.66453 3.33688 0
M  V30 19043 N 1721.99 -1.57589 -0.0183649 0
M  V30 19044 C 1722.9 -2.10665 -1.03235 0
M  V30 19045 C 1723.91 -1.04767 -1.38924 0
M  V30 19046 O 1725.09 -1.36565 -1.48027 0
M  V30 19047 C 1722.15 -2.58432 -2.31114 0
M  V30 19048 C 1721.21 -3.78856 -2.01908 0
M  V30 19049 C 1720.45 -4.24335 -3.2369 0
M  V30 19050 O 1720.67 -3.69266 -4.3474 0
M  V30 19051 O 1719.6 -5.16671 -3.08763 0
M  V30 19052 H 1723.43 -2.97485 -0.611254 0
M  V30 19053 H 1721.02 -1.47524 -0.236035 0
M  V30 19054 H 1722.9 -2.89438 -3.06274 0
M  V30 19055 H 1721.57 -1.74718 -2.72498 0
M  V30 19056 H 1720.48 -3.52852 -1.24282 0
M  V30 19057 H 1721.81 -4.63587 -1.65373 0
M  V30 19058 N 1723.46 0.290824 -1.54893 0
M  V30 19059 C 1724.37 1.38137 -1.89619 0
M  V30 19060 C 1725.39 1.54959 -0.791432 0
M  V30 19061 O 1726.57 1.69428 -1.08885 0
M  V30 19062 C 1723.63 2.72353 -2.14534 0
M  V30 19063 C 1722.69 2.64429 -3.38195 0
M  V30 19064 C 1721.93 3.92244 -3.61912 0
M  V30 19065 O 1722.15 4.92088 -2.88454 0
M  V30 19066 O 1721.08 3.93523 -4.55438 0
M  V30 19067 H 1724.91 1.11688 -2.82417 0
M  V30 19068 H 1722.49 0.487789 -1.41213 0
M  V30 19069 H 1724.38 3.51745 -2.32064 0
M  V30 19070 H 1723.05 2.98624 -1.24921 0
M  V30 19071 H 1721.96 1.83474 -3.26018 0
M  V30 19072 H 1723.29 2.43109 -4.2797 0
M  V30 19073 N 1724.94 1.47523 0.554506 0
M  V30 19074 C 1726.19 1.54515 1.3135 0
M  V30 19075 C 1726.52 0.207892 1.93084 0
M  V30 19076 O 1725.8 -0.783749 1.7801 0
M  V30 19077 C 1726.08 2.66519 2.42156 0
M  V30 19078 C 1725.93 4.0987 1.85274 0
M  V30 19079 C 1727.25 2.74418 3.44068 0
M  V30 19080 H 1724.37 0.562481 0.476219 0
M  V30 19081 H 1727.01 1.79591 0.620246 0
M  V30 19082 H 1725.16 2.45268 3.0129 0
M  V30 19083 H 1726.83 4.42492 1.3038 0
M  V30 19084 H 1725.08 4.18021 1.15934 0
M  V30 19085 H 1725.75 4.84017 2.65389 0
M  V30 19086 H 1728.22 2.93596 2.94857 0
M  V30 19087 H 1727.1 3.54557 4.19023 0
M  V30 19088 H 1727.36 1.81584 4.03088 0
M  V30 19089 N 1726.42 -0.801453 1.357 0
M  V30 19090 C 1727.37 -1.93495 1.29083 0
M  V30 19091 C 1728.36 -1.68389 0.184806 0
M  V30 19092 O 1729.57 -1.76543 0.351097 0
M  V30 19093 H 1725.94 -0.635809 0.40156 0
M  V30 19094 H 1727.91 -1.96195 2.24833 0
M  V30 19095 C 1726.66 -3.30342 1.08487 0
M  V30 19096 H 1725.99 -3.50221 1.92835 0
M  V30 19097 H 1727.43 -4.10041 1.079 0
M  V30 19098 C 1725.89 -3.36238 -0.211057 0
M  V30 19099 O 1726.42 -3.83198 -1.20508 0
M  V30 19100 N 1724.62 -2.89509 -0.251599 0
M  V30 19101 H 1724.17 -2.51486 0.557916 0
M  V30 19102 H 1724.13 -2.93836 -1.11839 0
M  V30 19103 N 1727.9 -1.19782 -1.02421 0
M  V30 19104 C 1728.81 -0.955253 -2.14271 0
M  V30 19105 C 1729.82 0.0863233 -1.73786 0
M  V30 19106 O 1731 -0.0993878 -2.01155 0
M  V30 19107 C 1728.07 -0.502219 -3.43043 0
M  V30 19108 C 1727.13 -1.61374 -3.97815 0
M  V30 19109 C 1726.36 -1.18223 -5.20441 0
M  V30 19110 O 1726.58 -0.0477334 -5.7038 0
M  V30 19111 O 1725.52 -1.98664 -5.68169 0
M  V30 19112 H 1729.34 -1.89157 -2.37599 0
M  V30 19113 H 1726.93 -0.981035 -1.12677 0
M  V30 19114 H 1728.81 -0.258445 -4.20607 0
M  V30 19115 H 1727.48 0.4056 -3.21149 0
M  V30 19116 H 1726.39 -1.91172 -3.21565 0
M  V30 19117 H 1727.72 -2.49829 -4.24083 0
M  V30 19118 N 1729.38 1.21606 -1.00248 0
M  V30 19119 C 1730.32 2.23884 -0.560771 0
M  V30 19120 C 1731.29 1.60913 0.411864 0
M  V30 19121 O 1732.48 1.88191 0.314476 0
M  V30 19122 C 1729.62 3.44928 0.108948 0
M  V30 19123 C 1728.73 4.22381 -0.906566 0
M  V30 19124 C 1727.87 5.30787 -0.20937 0
M  V30 19125 C 1726.91 5.99969 -1.2126 0
M  V30 19126 N 1726.04 6.99997 -0.543057 0
M  V30 19127 H 1730.88 2.61029 -1.43764 0
M  V30 19128 H 1728.42 1.28278 -0.719937 0
M  V30 19129 H 1730.38 4.14019 0.514244 0
M  V30 19130 H 1729.01 3.08518 0.949544 0
M  V30 19131 H 1728.06 3.52493 -1.43012 0
M  V30 19132 H 1729.37 4.70009 -1.67013 0
M  V30 19133 H 1728.53 6.06176 0.252164 0
M  V30 19134 H 1727.27 4.84159 0.586621 0
M  V30 19135 H 1726.27 5.23353 -1.68467 0
M  V30 19136 H 1727.5 6.48684 -2.00963 0
M  V30 19137 H 1725.44 6.55585 0.233324 0
M  V30 19138 H 1725.36 7.45679 -1.24492 0
M  V30 19139 H 1726.63 7.7943 -0.104643 0
M  V30 19140 N 1730.86 0.776895 1.37121 0
M  V30 19141 C 1732.13 0.268067 1.93754 0
M  V30 19142 C 1732.51 -1.23774 1.71007 0
M  V30 19143 O 1731.86 -2.02331 1.0618 0
M  V30 19144 C 1732.07 0.647054 3.42949 0
M  V30 19145 C 1733.42 0.619737 4.20053 0
M  V30 19146 O 1734.44 0.586757 3.51334 0
M  V30 19147 O 1733.3 0.651412 5.42604 0
M  V30 19148 H 1730.4 0.0631883 0.824582 0
M  V30 19149 H 1732.94 0.858594 1.46377 0
M  V30 19150 H 1731.71 1.68608 3.5311 0
M  V30 19151 H 1731.34 0.0297448 3.97589 0
M  V30 19152 N 1732.33 -1.48497 0.527859 0
M  V30 19153 C 1733.56 -2.069 -0.00302594 0
M  V30 19154 C 1733.98 -1.38469 -1.28342 0
M  V30 19155 O 1733.33 -0.471524 -1.76303 0
M  V30 19156 C 1733.38 -3.60749 -0.232871 0
M  V30 19157 O 1733.11 -4.26609 0.996797 0
M  V30 19158 C 1734.61 -4.35941 -0.804376 0
M  V30 19159 H 1731.83 -0.67021 0.0325559 0
M  V30 19160 H 1734.37 -1.90916 0.732897 0
M  V30 19161 H 1732.53 -3.76346 -0.918837 0
M  V30 19162 H 1732.94 -5.18725 0.776217 0
M  V30 19163 H 1734.41 -5.4437 -0.914635 0
M  V30 19164 H 1734.89 -4.00225 -1.80876 0
M  V30 19165 H 1735.5 -4.25017 -0.155041 0
M  V30 19166 N 1733.81 -0.262893 -1.55392 0
M  V30 19167 C 1734.76 0.629853 -2.22039 0
M  V30 19168 C 1735.73 1.15915 -1.18966 0
M  V30 19169 O 1736.91 1.21069 -1.47468 0
M  V30 19170 C 1734.05 1.8138 -2.9359 0
M  V30 19171 C 1733.17 1.31952 -4.11355 0
M  V30 19172 C 1732.3 2.4643 -4.7058 0
M  V30 19173 C 1731.34 1.93944 -5.80562 0
M  V30 19174 N 1730.48 3.01848 -6.33902 0
M  V30 19175 H 1735.32 0.0548473 -2.9795 0
M  V30 19176 H 1732.85 0.0153072 -1.47092 0
M  V30 19177 H 1734.81 2.50955 -3.33283 0
M  V30 19178 H 1733.44 2.36103 -2.20125 0
M  V30 19179 H 1732.49 0.517281 -3.76866 0
M  V30 19180 H 1733.81 0.894993 -4.90705 0
M  V30 19181 H 1732.96 3.2402 -5.12929 0
M  V30 19182 H 1731.7 2.92193 -3.9048 0
M  V30 19183 H 1730.7 1.1483 -5.37675 0
M  V30 19184 H 1731.93 1.49132 -6.62523 0
M  V30 19185 H 1729.88 3.47015 -5.56701 0
M  V30 19186 H 1729.79 2.63775 -7.08491 0
M  V30 19187 H 1731.06 3.79449 -6.8091 0
M  V30 19188 N 1735.29 1.57597 0.0100073 0
M  V30 19189 C 1736.24 2.089 1.02292 0
M  V30 19190 C 1737.23 1.00681 1.36234 0
M  V30 19191 O 1738.44 1.19155 1.34915 0
M  V30 19192 H 1734.81 0.666899 0.347491 0
M  V30 19193 H 1736.78 2.9301 0.56458 0
M  V30 19194 C 1735.53 2.59942 2.30923 0
M  V30 19195 H 1734.86 3.4284 2.05672 0
M  V30 19196 H 1736.3 2.99528 3.00098 0
M  V30 19197 C 1734.75 1.50907 3.01212 0
M  V30 19198 O 1735.28 0.886216 3.91802 0
M  V30 19199 N 1733.49 1.23895 2.62866 0
M  V30 19200 H 1733.04 1.7473 1.89281 0
M  V30 19201 H 1733 0.511591 3.1021 0
M  V30 19202 N 1736.77 -0.282606 1.55045 0
M  V30 19203 C 1737.72 -1.36902 1.88044 0
M  V30 19204 C 1738.71 -1.51603 0.755845 0
M  V30 19205 O 1739.92 -1.53501 0.940074 0
M  V30 19206 H 1736.29 -0.457666 0.596696 0
M  V30 19207 H 1738.26 -1.06317 2.78818 0
M  V30 19208 C 1737.01 -2.72426 2.16054 0
M  V30 19209 H 1736.33 -2.61903 3.02071 0
M  V30 19210 H 1737.77 -3.47409 2.43071 0
M  V30 19211 C 1736.23 -3.22784 0.964996 0
M  V30 19212 O 1736.76 -4.01228 0.194759 0
M  V30 19213 N 1734.97 -2.80341 0.765322 0
M  V30 19214 H 1734.52 -2.16665 1.39335 0
M  V30 19215 H 1734.47 -3.14383 -0.0330026 0
M  V30 19216 N 1738.25 -1.47815 -0.546675 0
M  V30 19217 C 1739.52 -1.45464 -1.30765 0
M  V30 19218 C 1739.9 -0.157249 -2.10514 0
M  V30 19219 O 1739.25 0.861203 -2.1165 0
M  V30 19220 C 1739.46 -2.70661 -2.20326 0
M  V30 19221 C 1740.81 -3.18309 -2.81007 0
M  V30 19222 O 1741.83 -2.71462 -2.30623 0
M  V30 19223 O 1740.69 -3.9978 -3.7261 0
M  V30 19224 H 1737.79 -0.580175 -0.589343 0
M  V30 19225 H 1740.33 -1.60029 -0.564707 0
M  V30 19226 H 1739.1 -3.56612 -1.61069 0
M  V30 19227 H 1738.73 -2.58734 -3.01898 0
M  V30 19228 N 1739.72 0.794246 -1.36123 0
M  V30 19229 C 1740.67 1.90668 -1.30056 0
M  V30 19230 C 1741.64 1.65226 -0.170145 0
M  V30 19231 O 1742.83 1.87452 -0.355874 0
M  V30 19232 C 1739.97 3.27405 -1.09086 0
M  V30 19233 C 1739.08 3.64951 -2.31159 0
M  V30 19234 C 1738.21 4.90782 -2.0324 0
M  V30 19235 C 1737.25 5.20992 -3.21301 0
M  V30 19236 N 1736.39 6.38005 -2.93078 0
M  V30 19237 H 1741.23 1.9519 -2.25178 0
M  V30 19238 H 1738.77 0.95458 -1.1192 0
M  V30 19239 H 1740.72 4.0625 -0.94956 0
M  V30 19240 H 1739.35 3.22319 -0.176211 0
M  V30 19241 H 1738.41 2.81268 -2.5611 0
M  V30 19242 H 1739.72 3.83228 -3.19277 0
M  V30 19243 H 1738.87 5.77481 -1.86012 0
M  V30 19244 H 1737.61 4.74565 -1.12426 0
M  V30 19245 H 1736.62 4.32777 -3.39093 0
M  V30 19246 H 1737.84 5.39131 -4.12934 0
M  V30 19247 H 1735.79 6.23189 -2.0487 0
M  V30 19248 H 1735.7 6.56591 -3.74733 0
M  V30 19249 H 1736.97 7.27699 -2.79418 0
M  V30 19250 N 1741.2 1.20323 1.01785 0
M  V30 19251 C 1742.15 0.950946 2.10299 0
M  V30 19252 C 1743.12 -0.118376 1.65678 0
M  V30 19253 O 1744.3 0.0260849 1.90782 0
M  V30 19254 C 1741.44 0.507765 3.41344 0
M  V30 19255 C 1740.56 1.6451 3.9945 0
M  V30 19256 C 1739.69 1.15235 5.1855 0
M  V30 19257 C 1738.73 2.26285 5.68737 0
M  V30 19258 N 1737.87 1.78237 6.79099 0
M  V30 19259 H 1742.71 1.87999 2.31215 0
M  V30 19260 H 1740.24 0.937108 1.13387 0
M  V30 19261 H 1742.2 0.232143 4.16554 0
M  V30 19262 H 1740.83 -0.384278 3.20505 0
M  V30 19263 H 1739.88 2.03567 3.21348 0
M  V30 19264 H 1741.2 2.48135 4.32702 0
M  V30 19265 H 1740.35 0.832619 6.0096 0
M  V30 19266 H 1739.09 0.285978 4.86861 0
M  V30 19267 H 1738.09 2.59076 4.84933 0
M  V30 19268 H 1739.32 3.13397 6.02461 0
M  V30 19269 H 1737.27 0.939248 6.49241 0
M  V30 19270 H 1737.18 2.55443 7.11537 0
M  V30 19271 H 1738.45 1.4926 7.65076 0
M  V30 19272 N 1742.68 -1.21073 1.00892 0
M  V30 19273 C 1743.93 -1.89559 0.689214 0
M  V30 19274 C 1744.24 -1.79211 -0.783753 0
M  V30 19275 O 1745.45 -2.42761 -1.2157 0
M  V30 19276 C 1743.9 -3.39925 1.18232 0
M  V30 19277 C 1743.51 -3.58876 2.68164 0
M  V30 19278 C 1745.26 -4.14014 0.937683 0
M  V30 19279 C 1743.16 -5.03027 3.10995 0
M  V30 19280 H 1742.09 -0.709895 0.254098 0
M  V30 19281 H 1744.74 -1.37017 1.2206 0
M  V30 19282 H 1743.13 -3.91745 0.578961 0
M  V30 19283 H 1744.3 -3.17478 3.33983 0
M  V30 19284 H 1742.61 -2.98146 2.90685 0
M  V30 19285 H 1745.21 -5.20285 1.23319 0
M  V30 19286 H 1745.55 -4.16109 -0.126003 0
M  V30 19287 H 1746.09 -3.68271 1.50403 0
M  V30 19288 H 1742.83 -5.06082 4.16607 0
M  V30 19289 H 1742.35 -5.45266 2.49891 0
M  V30 19290 H 1744.03 -5.7156 3.03197 0
M  V30 19291 N 1744.16 -0.784156 -1.36707 0
M  V30 19292 C 1745.41 -0.353434 -1.98986 0
M  V30 19293 C 1745.73 1.07714 -1.62551 0
M  V30 19294 O 1745 1.7416 -0.896938 0
M  V30 19295 H 1743.58 -0.127693 -0.736005 0
M  V30 19296 H 1746.24 -1.00503 -1.66988 0
M  V30 19297 H 1745.34 -0.441028 -3.08968 0
M  V30 19298 N 1745.64 1.48215 -0.535727 0
M  V30 19299 C 1746.58 2.29711 0.223891 0
M  V30 19300 C 1747.55 1.37727 0.928471 0
M  V30 19301 O 1748.74 1.66691 0.928375 0
M  V30 19302 C 1745.88 3.21224 1.26131 0
M  V30 19303 C 1744.99 4.2829 0.564985 0
M  V30 19304 C 1744.13 5.06976 1.58583 0
M  V30 19305 C 1743.17 6.05838 0.873288 0
M  V30 19306 N 1742.3 6.77562 1.83994 0
M  V30 19307 H 1747.14 2.94154 -0.477242 0
M  V30 19308 H 1744.68 1.45008 -0.247186 0
M  V30 19309 H 1746.64 3.72685 1.87514 0
M  V30 19310 H 1745.27 2.58693 1.93075 0
M  V30 19311 H 1744.32 3.80051 -0.162916 0
M  V30 19312 H 1745.63 4.988 0.00578231 0
M  V30 19313 H 1744.79 5.6248 2.27379 0
M  V30 19314 H 1743.52 4.36319 2.17893 0
M  V30 19315 H 1742.53 5.49533 0.171286 0
M  V30 19316 H 1743.75 6.78497 0.286219 0
M  V30 19317 H 1741.7 6.09651 2.42202 0
M  V30 19318 H 1741.62 7.44167 1.33233 0
M  V30 19319 H 1742.89 7.37652 2.51971 0
M  V30 19320 N 1747.11 0.27113 1.5525 0
M  V30 19321 C 1748.53 -0.0831186 1.59383 0
M  V30 19322 C 1748.73 -1.54931 1.28835 0
M  V30 19323 O 1747.79 -2.29756 1.0473 0
M  V30 19324 C 1749.1 0.287921 2.99318 0
M  V30 19325 C 1750.65 0.234209 3.12123 0
M  V30 19326 C 1751.12 0.57963 4.54317 0
M  V30 19327 N 1752.61 0.531033 4.60146 0
M  V30 19328 C 1753.35 0.771156 5.68191 0
M  V30 19329 N 1752.84 1.07569 6.84398 0
M  V30 19330 N 1754.64 0.700223 5.57722 0
M  V30 19331 H 1746.79 1.22702 1.73373 0
M  V30 19332 H 1749.05 0.495424 0.808244 0
M  V30 19333 H 1748.76 1.30746 3.26494 0
M  V30 19334 H 1748.63 -0.373205 3.75349 0
M  V30 19335 H 1751.02 -0.776035 2.84713 0
M  V30 19336 H 1751.1 0.929535 2.38313 0
M  V30 19337 H 1750.74 1.58754 4.82452 0
M  V30 19338 H 1750.67 -0.137442 5.26421 0
M  V30 19339 H 1753.16 0.305377 3.76664 0
M  V30 19340 H 1753.48 1.24568 7.62694 0
M  V30 19341 H 1751.82 1.11342 6.86023 0
M  V30 19342 H 1755.01 0.462183 4.65813 0
M  V30 19343 H 1755.19 0.890744 6.41849 0
M  V30 19344 N 1748.59 -1.576 -0.00164943 0
M  V30 19345 C 1749.84 -1.90778 -0.68786 0
M  V30 19346 C 1750.17 -0.872138 -1.73515 0
M  V30 19347 O 1749.45 0.109349 -1.94192 0
M  V30 19348 C 1749.73 -3.34539 -1.3325 0
M  V30 19349 C 1749.58 -4.48819 -0.296862 0
M  V30 19350 C 1750.9 -3.77693 -2.25911 0
M  V30 19351 H 1748.02 -0.69381 -0.24859 0
M  V30 19352 H 1750.66 -1.89936 0.0493059 0
M  V30 19353 H 1748.81 -3.35388 -1.9608 0
M  V30 19354 H 1750.48 -4.60106 0.331635 0
M  V30 19355 H 1748.73 -4.32123 0.38105 0
M  V30 19356 H 1749.4 -5.46362 -0.786927 0
M  V30 19357 H 1751.87 -3.78386 -1.73099 0
M  V30 19358 H 1750.75 -4.79037 -2.67983 0
M  V30 19359 H 1751.01 -3.11469 -3.1375 0
M  V30 19360 N 1750.07 0.274379 -1.55193 0
M  V30 19361 C 1751.02 1.33913 -1.87978 0
M  V30 19362 C 1751.99 1.49142 -0.731149 0
M  V30 19363 O 1753.17 1.63572 -0.98229 0
M  V30 19364 C 1750.31 2.69464 -2.156 0
M  V30 19365 C 1749.43 2.62468 -3.43125 0
M  V30 19366 C 1748.56 3.90188 -3.60453 0
M  V30 19367 C 1747.6 3.77697 -4.81675 0
M  V30 19368 N 1746.74 4.97249 -4.95669 0
M  V30 19369 H 1751.58 1.05254 -2.78793 0
M  V30 19370 H 1749.11 0.508532 -1.3803 0
M  V30 19371 H 1751.07 3.48329 -2.29614 0
M  V30 19372 H 1749.7 2.96328 -1.28021 0
M  V30 19373 H 1748.75 1.7532 -3.3759 0
M  V30 19374 H 1750.07 2.49137 -4.32125 0
M  V30 19375 H 1749.22 4.77495 -3.74277 0
M  V30 19376 H 1747.96 4.06384 -2.69635 0
M  V30 19377 H 1746.96 2.88774 -4.67857 0
M  V30 19378 H 1748.19 3.63022 -5.73927 0
M  V30 19379 H 1746.13 5.13858 -4.07781 0
M  V30 19380 H 1746.05 4.86444 -5.78712 0
M  V30 19381 H 1747.32 5.86132 -5.13877 0
M  V30 19382 N 1751.55 1.48103 0.538828 0
M  V30 19383 C 1752.5 1.61966 1.64425 0
M  V30 19384 C 1753.47 0.461999 1.59546 0
M  V30 19385 O 1754.65 0.684377 1.78104 0
M  V30 19386 C 1751.79 1.65711 3.02711 0
M  V30 19387 C 1750.9 2.92522 3.17891 0
M  V30 19388 C 1750.04 2.87485 4.46683 0
M  V30 19389 C 1749.08 4.0904 4.5536 0
M  V30 19390 N 1748.21 4.02131 5.7553 0
M  V30 19391 H 1753.05 2.5637 1.51916 0
M  V30 19392 H 1750.59 1.27146 0.739745 0
M  V30 19393 H 1752.55 1.65864 3.82812 0
M  V30 19394 H 1751.18 0.748045 3.14013 0
M  V30 19395 H 1750.23 3.02154 2.311 0
M  V30 19396 H 1751.54 3.82487 3.20165 0
M  V30 19397 H 1750.7 2.8599 5.35065 0
M  V30 19398 H 1749.44 1.95234 4.46917 0
M  V30 19399 H 1748.44 4.10819 3.65387 0
M  V30 19400 H 1749.67 5.02439 4.56872 0
M  V30 19401 H 1747.61 3.12695 5.76678 0
M  V30 19402 H 1747.53 4.85791 5.7926 0
M  V30 19403 H 1748.8 4.04682 6.66223 0
M  V30 19404 N 1753.03 -0.787016 1.36542 0
M  V30 19405 C 1754.44 -1.36234 1.2766 0
M  V30 19406 C 1754.79 -1.96026 -0.0825391 0
M  V30 19407 O 1753.91 -1.92731 -0.984059 0
M  V30 19408 C 1754.51 -2.47684 2.31167 0
M  V30 19409 C 1753.07 -3.01026 2.25966 0
M  V30 19410 C 1752.21 -1.74122 2.15816 0
M  V30 19411 H 1755.17 -0.58847 1.47386 0
M  V30 19412 H 1755.19 -3.26765 1.94949 0
M  V30 19413 H 1754.7 -2.04136 3.30076 0
M  V30 19414 H 1752.8 -3.48988 1.30531 0
M  V30 19415 H 1752.91 -3.57677 3.18754 0
M  V30 19416 H 1751.28 -1.9645 1.6211 0
M  V30 19417 H 1752.06 -1.32699 3.16616 0
M  V30 19418 N 1754.5 -1.20861 -1.01145 0
M  V30 19419 C 1755.75 -1.01613 -1.74234 0
M  V30 19420 C 1756.07 0.451683 -1.90313 0
M  V30 19421 O 1757.27 0.763408 -2.60546 0
M  V30 19422 C 1755.73 -1.76942 -3.134 0
M  V30 19423 C 1755.34 -3.27851 -3.05316 0
M  V30 19424 C 1757.08 -1.6608 -3.90663 0
M  V30 19425 C 1754.99 -3.95696 -4.39521 0
M  V30 19426 H 1753.92 -0.376593 -0.653218 0
M  V30 19427 H 1756.57 -1.44533 -1.1306 0
M  V30 19428 H 1754.95 -1.26812 -3.75146 0
M  V30 19429 H 1756.12 -3.85234 -2.52846 0
M  V30 19430 H 1754.44 -3.39184 -2.41543 0
M  V30 19431 H 1757.04 -2.14105 -4.89963 0
M  V30 19432 H 1757.38 -0.617892 -4.11689 0
M  V30 19433 H 1757.91 -2.13652 -3.35556 0
M  V30 19434 H 1754.65 -5.00161 -4.23697 0
M  V30 19435 H 1754.17 -3.43102 -4.91977 0
M  V30 19436 H 1755.85 -4.00242 -5.08346 0
M  V30 19437 N 1755.98 1.20536 -1.01532 0
M  V30 19438 C 1757.26 1.85545 -0.619063 0
M  V30 19439 C 1757.64 1.90816 0.902916 0
M  V30 19440 O 1756.99 1.41506 1.79411 0
M  V30 19441 C 1757.2 3.25252 -1.26539 0
M  V30 19442 C 1758.55 4.01547 -1.38003 0
M  V30 19443 O 1759.57 3.34601 -1.22151 0
M  V30 19444 O 1758.43 5.21436 -1.63605 0
M  V30 19445 H 1755.52 0.798985 -0.21343 0
M  V30 19446 H 1758.07 1.28136 -1.11262 0
M  V30 19447 H 1756.84 3.16174 -2.30542 0
M  V30 19448 H 1756.46 3.90292 -0.758833 0
M  V30 19449 N 1757.46 0.791395 1.36289 0
M  V30 19450 C 1758.74 0.288602 1.93459 0
M  V30 19451 C 1759.12 -1.21953 1.7231 0
M  V30 19452 O 1758.47 -2.01194 1.0832 0
M  V30 19453 C 1758.68 0.683392 3.42244 0
M  V30 19454 C 1760.02 0.664255 4.19372 0
M  V30 19455 O 1761.05 0.623988 3.50692 0
M  V30 19456 O 1759.91 0.708926 5.41882 0
M  V30 19457 H 1757 0.0719305 0.823866 0
M  V30 19458 H 1759.55 0.874071 1.45458 0
M  V30 19459 H 1758.32 1.72344 3.51302 0
M  V30 19460 H 1757.94 0.0719128 3.97535 0
M  V30 19461 N 1758.94 -1.47929 0.54358 0
M  V30 19462 C 1760.18 -2.04393 0.0166462 0
M  V30 19463 C 1760.54 -1.41025 -1.30291 0
M  V30 19464 O 1761.74 -1.88456 -1.91671 0
M  V30 19465 C 1760.02 -3.5729 -0.0888261 0
M  V30 19466 S 1761.57 -4.35162 -0.563857 0
M  V30 19467 H 1758.39 -0.710757 0.0185863 0
M  V30 19468 H 1760.99 -1.81471 0.727226 0
M  V30 19469 H 1759.7 -4.00938 0.876155 0
M  V30 19470 H 1759.23 -3.84687 -0.823374 0
M  V30 19471 H 1761.24 -4.6138 -1.82601 0
M  V30 19472 N 1760.42 -0.27936 -1.55104 0
M  V30 19473 C 1761.36 0.606268 -2.22695 0
M  V30 19474 C 1762.33 1.14646 -1.20189 0
M  V30 19475 O 1763.52 1.19498 -1.48744 0
M  V30 19476 C 1760.66 1.78256 -2.95497 0
M  V30 19477 C 1759.77 1.27582 -4.12731 0
M  V30 19478 C 1758.91 2.41425 -4.73167 0
M  V30 19479 C 1757.95 1.87775 -5.82586 0
M  V30 19480 N 1757.08 2.95108 -6.37068 0
M  V30 19481 H 1761.92 0.0232427 -2.97991 0
M  V30 19482 H 1759.46 -0.000294714 -1.471 0
M  V30 19483 H 1761.42 2.47406 -3.35925 0
M  V30 19484 H 1760.05 2.33755 -2.22617 0
M  V30 19485 H 1759.1 0.477281 -3.77394 0
M  V30 19486 H 1760.41 0.842897 -4.91627 0
M  V30 19487 H 1759.57 3.18561 -5.16337 0
M  V30 19488 H 1758.31 2.88035 -3.93557 0
M  V30 19489 H 1757.31 1.0912 -5.38862 0
M  V30 19490 H 1758.54 1.42096 -6.64067 0
M  V30 19491 H 1756.48 3.41091 -5.60351 0
M  V30 19492 H 1756.4 2.56246 -7.11248 0
M  V30 19493 H 1757.67 3.72206 -6.84896 0
M  V30 19494 N 1761.9 1.57599 -0.0067085 0
M  V30 19495 C 1762.84 2.08842 0.982532 0
M  V30 19496 C 1763.81 0.985339 1.33717 0
M  V30 19497 O 1765 1.25818 1.43438 0
M  V30 19498 C 1762.14 2.60188 2.26708 0
M  V30 19499 C 1761.25 3.84422 1.97087 0
M  V30 19500 C 1760.39 4.24244 3.19672 0
M  V30 19501 C 1759.42 5.41297 2.85769 0
M  V30 19502 N 1758.56 5.76381 4.00911 0
M  V30 19503 H 1763.4 2.93092 0.538618 0
M  V30 19504 H 1760.94 1.44885 0.254293 0
M  V30 19505 H 1762.9 2.88038 3.01811 0
M  V30 19506 H 1761.53 1.78802 2.68756 0
M  V30 19507 H 1760.58 3.63439 1.12323 0
M  V30 19508 H 1761.89 4.6962 1.68102 0
M  V30 19509 H 1761.04 4.53413 4.03115 0
M  V30 19510 H 1759.78 3.37769 3.518 0
M  V30 19511 H 1758.79 5.11846 2.00734 0
M  V30 19512 H 1760.01 6.29454 2.54881 0
M  V30 19513 H 1757.96 4.92863 4.32923 0
M  V30 19514 H 1757.88 6.56168 3.75473 0
M  V30 19515 H 1759.14 6.10144 4.85123 0
M  V30 19516 N 1763.37 -0.266145 1.55336 0
M  V30 19517 C 1764.28 -1.35103 1.91793 0
M  V30 19518 C 1765.3 -1.5368 0.815985 0
M  V30 19519 O 1766.48 -1.67675 1.11567 0
M  V30 19520 C 1763.54 -2.68905 2.1884 0
M  V30 19521 C 1762.6 -2.59015 3.42359 0
M  V30 19522 C 1761.83 -3.86437 3.68106 0
M  V30 19523 O 1762.06 -4.87436 2.96247 0
M  V30 19524 O 1760.99 -3.86227 4.61641 0
M  V30 19525 H 1764.82 -1.07181 2.84158 0
M  V30 19526 H 1762.4 -0.465262 1.41971 0
M  V30 19527 H 1764.28 -3.48008 2.3763 0
M  V30 19528 H 1762.96 -2.96599 1.29656 0
M  V30 19529 H 1761.87 -1.78264 3.28896 0
M  V30 19530 H 1763.2 -2.3627 4.31784 0
M  V30 19531 N 1764.85 -1.48386 -0.530967 0
M  V30 19532 C 1766.27 -1.34485 -0.859412 0
M  V30 19533 C 1766.47 -0.355124 -1.98346 0
M  V30 19534 O 1765.52 0.224012 -2.51504 0
M  V30 19535 C 1766.84 -2.74488 -1.22787 0
M  V30 19536 C 1768.38 -2.82969 -1.33781 0
M  V30 19537 C 1768.86 -4.23673 -1.7397 0
M  V30 19538 N 1770.35 -4.26341 -1.81074 0
M  V30 19539 C 1771.09 -5.32149 -2.13554 0
M  V30 19540 N 1770.58 -6.48235 -2.44464 0
M  V30 19541 N 1772.37 -5.19542 -2.14551 0
M  V30 19542 H 1764.53 -2.11352 0.210713 0
M  V30 19543 H 1766.79 -0.947472 0.0316283 0
M  V30 19544 H 1766.49 -3.4847 -0.475552 0
M  V30 19545 H 1766.37 -3.0795 -2.17823 0
M  V30 19546 H 1768.76 -2.09244 -2.08089 0
M  V30 19547 H 1768.84 -2.53129 -0.368677 0
M  V30 19548 H 1768.48 -4.97914 -1.00222 0
M  V30 19549 H 1768.41 -4.50956 -2.71931 0
M  V30 19550 H 1770.9 -3.42606 -1.59467 0
M  V30 19551 H 1771.21 -7.24712 -2.6835 0
M  V30 19552 H 1769.56 -6.51512 -2.41986 0
M  V30 19553 H 1772.75 -4.27868 -1.89859 0
M  V30 19554 H 1772.92 -6.02103 -2.39532 0
M  V30 19555 N 1766.33 0.779763 -1.36958 0
M  V30 19556 C 1767.24 1.92394 -1.34245 0
M  V30 19557 C 1768.26 1.72292 -0.243187 0
M  V30 19558 O 1769.43 1.95665 -0.477211 0
M  V30 19559 C 1766.5 3.27402 -1.14057 0
M  V30 19560 C 1765.56 3.60213 -2.33548 0
M  V30 19561 C 1764.79 4.88779 -2.14314 0
M  V30 19562 O 1765.01 5.59231 -1.12327 0
M  V30 19563 O 1763.95 5.20469 -3.02316 0
M  V30 19564 H 1767.77 1.97633 -2.30596 0
M  V30 19565 H 1765.36 0.921386 -1.17605 0
M  V30 19566 H 1767.24 4.08172 -1.04755 0
M  V30 19567 H 1765.92 3.23033 -0.207744 0
M  V30 19568 H 1764.82 2.7971 -2.48421 0
M  V30 19569 H 1766.16 3.69317 -3.25371 0
M  V30 19570 N 1767.81 1.21396 1.00503 0
M  V30 19571 C 1769.05 1.0327 1.74537 0
M  V30 19572 C 1769.39 -0.432746 1.89317 0
M  V30 19573 O 1768.66 -1.32111 1.42747 0
M  V30 19574 C 1768.94 1.73045 3.15797 0
M  V30 19575 C 1768.8 3.27108 3.0874 0
M  V30 19576 C 1770.12 1.47298 4.14718 0
M  V30 19577 H 1767.24 0.376563 0.633537 0
M  V30 19578 H 1769.88 1.49571 1.17169 0
M  V30 19579 H 1768.03 1.33682 3.64776 0
M  V30 19580 H 1769.7 3.75839 2.67475 0
M  V30 19581 H 1767.94 3.57413 2.45843 0
M  V30 19582 H 1768.61 3.71096 4.08646 0
M  V30 19583 H 1771.09 1.81468 3.74444 0
M  V30 19584 H 1769.97 1.98633 5.11699 0
M  V30 19585 H 1770.23 0.402981 4.4026 0
M  V30 19586 N 1769.29 -1.19996 1.0217 0
M  V30 19587 C 1770.22 -2.22392 0.55446 0
M  V30 19588 C 1771.23 -1.58636 -0.36586 0
M  V30 19589 O 1772.42 -1.77751 -0.163394 0
M  V30 19590 C 1769.52 -3.38235 -0.212234 0
M  V30 19591 C 1768.69 -4.31578 0.711253 0
M  V30 19592 C 1767.75 -5.26199 -0.00876314 0
M  V30 19593 O 1766.78 -5.65863 0.615435 0
M  V30 19594 N 1767.98 -5.66169 -1.28192 0
M  V30 19595 H 1770.74 -2.63107 1.43509 0
M  V30 19596 H 1768.31 -1.34589 0.899853 0
M  V30 19597 H 1770.3 -3.98542 -0.703282 0
M  V30 19598 H 1768.87 -2.96369 -0.994205 0
M  V30 19599 H 1768.09 -3.69161 1.38252 0
M  V30 19600 H 1769.38 -4.90861 1.33915 0
M  V30 19601 H 1768.77 -5.35966 -1.8099 0
M  V30 19602 H 1767.33 -6.28762 -1.7176 0
M  V30 19603 N 1770.76 -0.798611 -1.35867 0
M  V30 19604 C 1771.67 -0.204758 -2.33705 0
M  V30 19605 C 1772.69 0.648001 -1.61484 0
M  V30 19606 O 1773.87 0.561628 -1.93411 0
M  V30 19607 C 1770.93 0.643225 -3.40681 0
M  V30 19608 C 1769.99 -0.229099 -4.28688 0
M  V30 19609 C 1769.22 0.578508 -5.30555 0
M  V30 19610 O 1769.45 1.81382 -5.40793 0
M  V30 19611 O 1768.38 -0.0264291 -6.01894 0
M  V30 19612 H 1772.21 -1.01392 -2.86275 0
M  V30 19613 H 1769.79 -0.560242 -1.38498 0
M  V30 19614 H 1771.67 1.12648 -4.06065 0
M  V30 19615 H 1770.35 1.43012 -2.90395 0
M  V30 19616 H 1769.26 -0.759314 -3.66313 0
M  V30 19617 H 1770.59 -0.979736 -4.82351 0
M  V30 19618 N 1772.24 1.47639 -0.551417 0
M  V30 19619 C 1773.15 2.33722 0.202799 0
M  V30 19620 C 1774.17 1.47832 0.917699 0
M  V30 19621 O 1775.34 1.80772 0.887885 0
M  V30 19622 C 1772.41 3.24408 1.22313 0
M  V30 19623 C 1771.47 4.26184 0.51628 0
M  V30 19624 C 1770.7 5.12537 1.488 0
M  V30 19625 O 1770.93 5.01241 2.72238 0
M  V30 19626 O 1769.86 5.93269 1.01566 0
M  V30 19627 H 1773.69 2.99503 -0.50317 0
M  V30 19628 H 1771.27 1.46104 -0.312093 0
M  V30 19629 H 1773.15 3.80441 1.81225 0
M  V30 19630 H 1771.83 2.61262 1.91112 0
M  V30 19631 H 1770.73 3.73927 -0.113886 0
M  V30 19632 H 1772.07 4.92028 -0.130158 0
M  V30 19633 N 1773.72 0.287581 1.54954 0
M  V30 19634 C 1774.95 -0.331442 2.04735 0
M  V30 19635 C 1775.37 -1.47752 1.16409 0
M  V30 19636 O 1774.73 -1.80545 0.165297 0
M  V30 19637 C 1774.78 -0.778123 3.52105 0
M  V30 19638 O 1773.88 -1.88422 3.66839 0
M  V30 19639 H 1773.22 -0.0666173 0.66065 0
M  V30 19640 H 1775.75 0.425516 2.00126 0
M  V30 19641 H 1775.76 -1.07054 3.93705 0
M  V30 19642 H 1774.44 0.0603184 4.15856 0
M  V30 19643 H 1773.01 -1.59338 3.37144 0
M  V30 19644 N 1775.2 -1.57593 0.0150662 0
M  V30 19645 C 1776.11 -2.12807 -0.987437 0
M  V30 19646 C 1777.12 -1.07691 -1.3667 0
M  V30 19647 O 1778.3 -1.39674 -1.45097 0
M  V30 19648 C 1775.37 -2.63276 -2.2558 0
M  V30 19649 C 1774.43 -3.83053 -1.93827 0
M  V30 19650 C 1773.66 -4.31106 -3.14616 0
M  V30 19651 O 1773.88 -3.78405 -4.26809 0
M  V30 19652 O 1772.82 -5.23104 -2.97734 0
M  V30 19653 H 1776.64 -2.98715 -0.548015 0
M  V30 19654 H 1774.23 -1.47991 -0.20469 0
M  V30 19655 H 1776.11 -2.95869 -3.00066 0
M  V30 19656 H 1774.78 -1.80459 -2.68731 0
M  V30 19657 H 1773.69 -3.55409 -1.1677 0
M  V30 19658 H 1775.02 -4.6699 -1.55502 0
M  V30 19659 N 1776.68 0.257904 -1.55475 0
M  V30 19660 C 1777.59 1.34084 -1.92506 0
M  V30 19661 C 1778.6 1.53246 -0.824123 0
M  V30 19662 O 1779.78 1.67081 -1.12455 0
M  V30 19663 C 1776.84 2.67741 -2.20263 0
M  V30 19664 C 1775.9 2.57196 -3.43728 0
M  V30 19665 C 1775.14 3.84479 -3.7015 0
M  V30 19666 O 1775.36 4.85858 -2.98827 0
M  V30 19667 O 1774.29 3.83774 -4.63682 0
M  V30 19668 H 1778.12 1.05672 -2.84723 0
M  V30 19669 H 1775.71 0.457726 -1.42215 0
M  V30 19670 H 1777.59 3.46743 -2.39473 0
M  V30 19671 H 1776.26 2.95907 -1.31227 0
M  V30 19672 H 1775.17 1.76518 -3.29837 0
M  V30 19673 H 1776.5 2.33977 -4.33031 0
M  V30 19674 N 1778.15 1.48666 0.52309 0
M  V30 19675 C 1779.06 1.66396 1.65377 0
M  V30 19676 C 1780.08 0.546469 1.65196 0
M  V30 19677 O 1781.26 0.818413 1.84022 0
M  V30 19678 C 1778.32 1.70602 3.01821 0
M  V30 19679 C 1777.38 2.94028 3.12803 0
M  V30 19680 C 1776.62 2.98024 4.42739 0
M  V30 19681 O 1776.84 2.10232 5.30244 0
M  V30 19682 O 1775.77 3.90266 4.58231 0
M  V30 19683 H 1779.6 2.62138 1.53354 0
M  V30 19684 H 1777.18 1.32148 0.696948 0
M  V30 19685 H 1779.07 1.75849 3.82956 0
M  V30 19686 H 1777.74 0.780346 3.14153 0
M  V30 19687 H 1776.65 2.9431 2.30938 0
M  V30 19688 H 1777.98 3.86003 3.0539 0
M  V30 19689 N 1779.63 -0.772489 1.37369 0
M  V30 19690 C 1780.86 -1.56671 1.35901 0
M  V30 19691 C 1781.28 -1.88024 -0.0535538 0
M  V30 19692 O 1780.64 -1.49174 -1.03038 0
M  V30 19693 C 1780.69 -2.85417 2.20384 0
M  V30 19694 O 1779.79 -3.79761 1.60796 0
M  V30 19695 H 1779.13 -0.474596 0.464386 0
M  V30 19696 H 1781.66 -0.956162 1.80883 0
M  V30 19697 H 1781.67 -3.34527 2.33571 0
M  V30 19698 H 1780.35 -2.61926 3.2306 0
M  V30 19699 H 1778.93 -3.38403 1.56645 0
M  V30 19700 N 1781.11 -1.21927 -0.998575 0
M  V30 19701 C 1782.02 -1.00049 -2.12197 0
M  V30 19702 C 1783.04 0.0494414 -1.7393 0
M  V30 19703 O 1784.21 -0.142033 -2.00899 0
M  V30 19704 C 1781.28 -0.574871 -3.41901 0
M  V30 19705 C 1780.34 -1.69776 -3.94303 0
M  V30 19706 C 1779.57 -1.29236 -5.17816 0
M  V30 19707 O 1779.79 -0.168709 -5.7015 0
M  V30 19708 O 1778.73 -2.10671 -5.63827 0
M  V30 19709 H 1782.55 -1.94154 -2.33534 0
M  V30 19710 H 1780.14 -1.00472 -1.10571 0
M  V30 19711 H 1782.02 -0.347603 -4.19964 0
M  V30 19712 H 1780.7 0.337389 -3.21937 0
M  V30 19713 H 1779.6 -1.9795 -3.17438 0
M  V30 19714 H 1780.94 -2.58768 -4.18688 0
M  V30 19715 N 1782.59 1.19452 -1.02805 0
M  V30 19716 C 1783.5 2.2631 -0.618147 0
M  V30 19717 C 1784.51 1.70449 0.349712 0
M  V30 19718 O 1785.69 2.00325 0.207801 0
M  V30 19719 C 1782.76 3.46691 0.0255242 0
M  V30 19720 C 1781.82 4.17735 -0.98973 0
M  V30 19721 C 1781.05 5.32369 -0.376681 0
M  V30 19722 O 1781.27 5.64467 0.820584 0
M  V30 19723 O 1780.21 5.9178 -1.09911 0
M  V30 19724 H 1784.03 2.63611 -1.50807 0
M  V30 19725 H 1781.62 1.2629 -0.798192 0
M  V30 19726 H 1783.5 4.19643 0.384464 0
M  V30 19727 H 1782.17 3.1124 0.889467 0
M  V30 19728 H 1781.08 3.46906 -1.40024 0
M  V30 19729 H 1782.41 4.57155 -1.82402 0
M  V30 19730 N 1784.07 0.805805 1.35442 0
M  V30 19731 C 1784.98 0.217149 2.33593 0
M  V30 19732 C 1785.99 -0.639428 1.61825 0
M  V30 19733 O 1787.17 -0.551363 1.93706 0
M  V30 19734 C 1784.23 -0.625149 3.41017 0
M  V30 19735 C 1783.29 0.25183 4.28561 0
M  V30 19736 C 1782.53 -0.550363 5.30855 0
M  V30 19737 O 1782.75 -1.78511 5.41747 0
M  V30 19738 O 1781.68 0.0583487 6.01872 0
M  V30 19739 H 1785.51 1.02909 2.85733 0
M  V30 19740 H 1783.1 0.567579 1.38199 0
M  V30 19741 H 1784.98 -1.10493 4.06656 0
M  V30 19742 H 1783.65 -1.4147 2.91149 0
M  V30 19743 H 1782.56 0.77873 3.65905 0
M  V30 19744 H 1783.89 1.0053 4.81824 0
M  V30 19745 N 1785.54 -1.47344 0.559239 0
M  V30 19746 C 1786.77 -2.07364 0.0388864 0
M  V30 19747 C 1787.19 -1.40886 -1.2463 0
M  V30 19748 O 1786.55 -0.48454 -1.74705 0
M  V30 19749 C 1786.6 -3.60336 -0.137894 0
M  V30 19750 O 1785.7 -3.94555 -1.2 0
M  V30 19751 H 1785.05 -0.661942 0.0522363 0
M  V30 19752 H 1787.58 -1.89333 0.7755 0
M  V30 19753 H 1787.59 -4.06483 -0.351462 0
M  V30 19754 H 1786.26 -4.08118 0.800776 0
M  V30 19755 H 1784.84 -3.6015 -0.966757 0
M  V30 19756 N 1787.02 -0.295795 -1.54799 0
M  V30 19757 C 1787.93 0.592206 -2.27002 0
M  V30 19758 C 1788.95 1.1528 -1.30332 0
M  V30 19759 O 1790.12 1.1787 -1.63305 0
M  V30 19760 C 1787.19 1.75027 -2.99277 0
M  V30 19761 C 1786.25 1.22427 -4.11473 0
M  V30 19762 C 1785.48 2.32714 -4.80291 0
M  V30 19763 O 1785.71 3.52506 -4.48437 0
M  V30 19764 O 1784.64 1.997 -5.67806 0
M  V30 19765 H 1788.47 0.00666048 -3.03699 0
M  V30 19766 H 1786.05 -0.0624413 -1.49269 0
M  V30 19767 H 1787.93 2.42508 -3.44627 0
M  V30 19768 H 1786.61 2.32252 -2.25479 0
M  V30 19769 H 1785.52 0.515337 -3.70534 0
M  V30 19770 H 1786.85 0.697518 -4.87233 0
M  V30 19771 N 1788.5 1.57583 -0.0234236 0
M  V30 19772 C 1789.41 2.13328 0.976138 0
M  V30 19773 C 1790.43 1.08414 1.36097 0
M  V30 19774 O 1791.6 1.40441 1.44354 0
M  V30 19775 C 1788.67 2.64469 2.24181 0
M  V30 19776 C 1787.73 3.84076 1.91793 0
M  V30 19777 C 1786.96 4.32768 3.12326 0
M  V30 19778 O 1787.19 3.80663 4.24797 0
M  V30 19779 O 1786.12 5.24676 2.94956 0
M  V30 19780 H 1789.95 2.99001 0.532166 0
M  V30 19781 H 1787.53 1.48098 0.196838 0
M  V30 19782 H 1789.41 2.97456 2.98492 0
M  V30 19783 H 1788.09 1.81881 2.6777 0
M  V30 19784 H 1786.99 3.56023 1.14883 0
M  V30 19785 H 1788.33 4.67808 1.53024 0
M  V30 19786 N 1789.98 -0.249655 1.5561 0
M  V30 19787 C 1790.89 -1.33061 1.93215 0
M  V30 19788 C 1791.91 -1.52806 0.832239 0
M  V30 19789 O 1793.08 -1.66482 1.13339 0
M  V30 19790 C 1790.15 -2.66569 2.2168 0
M  V30 19791 C 1789.21 -2.5537 3.45087 0
M  V30 19792 C 1788.44 -3.82511 3.72184 0
M  V30 19793 O 1788.66 -4.84267 3.014 0
M  V30 19794 O 1787.6 -3.81309 4.65711 0
M  V30 19795 H 1791.42 -1.04161 2.85279 0
M  V30 19796 H 1789.01 -0.450177 1.42456 0
M  V30 19797 H 1790.89 -3.45468 2.41308 0
M  V30 19798 H 1789.57 -2.95207 1.32794 0
M  V30 19799 H 1788.47 -1.74766 3.30768 0
M  V30 19800 H 1789.81 -2.31677 4.34266 0
M  V30 19801 N 1791.46 -1.48941 -0.515198 0
M  V30 19802 C 1792.68 -1.61656 -1.29931 0
M  V30 19803 C 1793.11 -0.282529 -1.85966 0
M  V30 19804 O 1792.47 0.747914 -1.65154 0
M  V30 19805 C 1792.51 -2.6774 -2.41553 0
M  V30 19806 O 1791.62 -2.25926 -3.45009 0
M  V30 19807 H 1790.96 -0.541561 -0.384197 0
M  V30 19808 H 1793.49 -1.95032 -0.618349 0
M  V30 19809 H 1793.5 -2.89471 -2.87525 0
M  V30 19810 H 1792.17 -3.64582 -2.00131 0
M  V30 19811 H 1790.75 -2.14469 -3.05053 0
M  V30 19812 N 1792.94 0.765193 -1.37777 0
M  V30 19813 C 1793.85 1.90959 -1.36278 0
M  V30 19814 C 1794.86 1.72025 -0.261448 0
M  V30 19815 O 1796.04 1.95148 -0.497937 0
M  V30 19816 C 1793.1 3.26174 -1.17523 0
M  V30 19817 C 1792.16 3.57716 -2.37356 0
M  V30 19818 C 1791.4 4.86479 -2.19486 0
M  V30 19819 O 1791.62 5.58008 -1.18252 0
M  V30 19820 O 1790.55 5.17234 -3.0782 0
M  V30 19821 H 1794.38 1.95176 -2.3268 0
M  V30 19822 H 1791.96 0.90886 -1.18575 0
M  V30 19823 H 1793.85 4.07038 -1.09078 0
M  V30 19824 H 1792.52 3.22794 -0.241994 0
M  V30 19825 H 1791.43 2.7706 -2.51374 0
M  V30 19826 H 1792.76 3.65845 -3.29269 0
M  V30 19827 N 1794.41 1.22455 0.992094 0
M  V30 19828 C 1795.32 1.01173 2.11663 0
M  V30 19829 C 1796.34 -0.0402168 1.73954 0
M  V30 19830 O 1797.52 0.152685 2.0082 0
M  V30 19831 C 1794.58 0.592995 3.41591 0
M  V30 19832 C 1793.64 1.71865 3.93397 0
M  V30 19833 C 1792.87 1.3198 5.17124 0
M  V30 19834 O 1793.1 0.198943 5.70053 0
M  V30 19835 O 1792.03 2.13658 5.62702 0
M  V30 19836 H 1795.86 1.9539 2.32501 0
M  V30 19837 H 1793.44 1.01056 1.10036 0
M  V30 19838 H 1795.32 0.36987 4.19774 0
M  V30 19839 H 1794 -0.320311 3.22111 0
M  V30 19840 H 1792.91 1.9963 3.16384 0
M  V30 19841 H 1794.24 2.60985 4.1731 0
M  V30 19842 N 1795.89 -1.18905 1.03437 0
M  V30 19843 C 1796.8 -2.25979 0.63014 0
M  V30 19844 C 1797.82 -1.70633 -0.340668 0
M  V30 19845 O 1798.99 -2.00432 -0.197174 0
M  V30 19846 C 1796.06 -3.46699 -0.00713795 0
M  V30 19847 C 1795.12 -4.17205 1.01187 0
M  V30 19848 C 1794.35 -5.32162 0.404909 0
M  V30 19849 O 1794.58 -5.64894 -0.790638 0
M  V30 19850 O 1793.51 -5.91188 1.13048 0
M  V30 19851 H 1797.34 -2.62808 1.52203 0
M  V30 19852 H 1794.92 -1.25865 0.804878 0
M  V30 19853 H 1796.8 -4.1984 -0.362204 0
M  V30 19854 H 1795.48 -3.11707 -0.872948 0
M  V30 19855 H 1794.38 -3.46159 1.41862 0
M  V30 19856 H 1795.72 -4.56181 1.84823 0
M  V30 19857 N 1797.37 -0.812977 -1.35013 0
M  V30 19858 C 1798.59 -0.407969 -2.03348 0
M  V30 19859 C 1799.02 0.975148 -1.60849 0
M  V30 19860 O 1798.38 1.63267 -0.788256 0
M  V30 19861 C 1798.43 -0.506754 -3.57022 0
M  V30 19862 O 1797.53 0.477322 -4.09628 0
M  V30 19863 H 1796.87 -0.169416 -0.642023 0
M  V30 19864 H 1799.4 -1.10064 -1.72474 0
M  V30 19865 H 1799.41 -0.378883 -4.06237 0
M  V30 19866 H 1798.09 -1.51557 -3.87302 0
M  V30 19867 H 1796.66 0.309161 -3.71616 0
M  V30 19868 N 1798.85 1.47045 -0.567045 0
M  V30 19869 C 1799.76 2.33924 0.177998 0
M  V30 19870 C 1800.77 1.48797 0.901967 0
M  V30 19871 O 1801.95 1.81704 0.868662 0
M  V30 19872 C 1799.01 3.25687 1.18865 0
M  V30 19873 C 1798.08 4.26708 0.471049 0
M  V30 19874 C 1797.31 5.14087 1.43355 0
M  V30 19875 O 1797.53 5.041 2.66907 0
M  V30 19876 O 1796.47 5.94313 0.952674 0
M  V30 19877 H 1800.29 2.98952 -0.534907 0
M  V30 19878 H 1797.88 1.45765 -0.327571 0
M  V30 19879 H 1799.76 3.82342 1.7718 0
M  V30 19880 H 1798.43 2.63274 1.8833 0
M  V30 19881 H 1797.34 3.73785 -0.153539 0
M  V30 19882 H 1798.67 4.91862 -0.182337 0
M  V30 19883 N 1800.33 0.304 1.5464 0
M  V30 19884 C 1801.24 -0.580159 2.27313 0
M  V30 19885 C 1802.25 -1.14588 1.30941 0
M  V30 19886 O 1803.43 -1.17002 1.63928 0
M  V30 19887 C 1800.49 -1.73437 3.00201 0
M  V30 19888 C 1799.55 -1.20243 4.12116 0
M  V30 19889 C 1798.79 -2.30164 4.81519 0
M  V30 19890 O 1799.01 -3.50123 4.503 0
M  V30 19891 O 1797.94 -1.96686 5.68857 0
M  V30 19892 H 1801.77 0.00944552 3.03699 0
M  V30 19893 H 1799.35 0.0703565 1.49234 0
M  V30 19894 H 1801.24 -2.40677 3.45908 0
M  V30 19895 H 1799.91 -2.31053 2.26708 0
M  V30 19896 H 1798.82 -0.495679 3.70802 0
M  V30 19897 H 1800.15 -0.67167 4.87596 0
M  V30 19898 N 1801.8 -1.57568 0.0317802 0
M  V30 19899 C 1802.71 -2.13842 -0.964811 0
M  V30 19900 C 1803.73 -1.09134 -1.3552 0
M  V30 19901 O 1804.91 -1.41205 -1.43608 0
M  V30 19902 C 1801.97 -2.65654 -2.22775 0
M  V30 19903 C 1801.03 -3.85087 -1.89753 0
M  V30 19904 C 1800.26 -4.34419 -3.10026 0
M  V30 19905 O 1800.49 -3.8291 -4.22772 0
M  V30 19906 O 1799.42 -5.26233 -2.92169 0
M  V30 19907 H 1803.25 -2.99279 -0.516302 0
M  V30 19908 H 1800.83 -1.482 -0.188982 0
M  V30 19909 H 1802.71 -2.99035 -2.96911 0
M  V30 19910 H 1801.39 -1.83299 -2.66802 0
M  V30 19911 H 1800.3 -3.56628 -1.12994 0
M  V30 19912 H 1801.63 -4.68613 -1.50541 0
M  V30 19913 N 1803.28 0.241399 -1.5574 0
M  V30 19914 C 1804.51 0.99028 -1.82231 0
M  V30 19915 C 1804.93 1.77949 -0.609559 0
M  V30 19916 O 1804.29 1.75843 0.44148 0
M  V30 19917 C 1804.34 1.89947 -3.06516 0
M  V30 19918 O 1803.44 2.99201 -2.83818 0
M  V30 19919 H 1802.78 0.281488 -0.601382 0
M  V30 19920 H 1805.31 0.260721 -2.02932 0
M  V30 19921 H 1805.32 2.31308 -3.36096 0
M  V30 19922 H 1804 1.31924 -3.94422 0
M  V30 19923 H 1802.58 2.61929 -2.6542 0
M  V30 19924 N 1804.76 1.49212 0.507292 0
M  V30 19925 C 1805.67 1.68141 1.63603 0
M  V30 19926 C 1806.69 0.563959 1.64607 0
M  V30 19927 O 1807.86 0.837885 1.83143 0
M  V30 19928 C 1804.93 1.73793 2.99995 0
M  V30 19929 C 1803.99 2.9733 3.09667 0
M  V30 19930 C 1803.22 3.02703 4.39553 0
M  V30 19931 O 1803.44 2.15844 5.27985 0
M  V30 19932 O 1802.38 3.95105 4.54066 0
M  V30 19933 H 1806.2 2.63749 1.50565 0
M  V30 19934 H 1803.79 1.32879 0.682893 0
M  V30 19935 H 1805.67 1.79901 3.81069 0
M  V30 19936 H 1804.35 0.813622 3.13308 0
M  V30 19937 H 1803.25 2.96743 2.27804 0
M  V30 19938 H 1804.59 3.8922 3.01278 0
M  V30 19939 N 1806.24 -0.757876 1.38181 0
M  V30 19940 C 1807.15 -1.90234 1.37289 0
M  V30 19941 C 1808.16 -1.71883 0.270567 0
M  V30 19942 O 1809.34 -1.94881 0.508279 0
M  V30 19943 C 1806.41 -3.25546 1.19251 0
M  V30 19944 C 1805.47 -3.56452 2.39249 0
M  V30 19945 C 1804.7 -4.85308 2.22063 0
M  V30 19946 O 1804.92 -5.57373 1.2121 0
M  V30 19947 O 1803.86 -5.15594 3.10558 0
M  V30 19948 H 1807.68 -1.9394 2.33711 0
M  V30 19949 H 1805.27 -0.902559 1.19056 0
M  V30 19950 H 1807.15 -4.06454 1.11235 0
M  V30 19951 H 1805.82 -3.22661 0.259109 0
M  V30 19952 H 1804.73 -2.75723 2.52839 0
M  V30 19953 H 1806.06 -3.64094 3.31205 0
M  V30 19954 N 1807.72 -1.22979 -0.985586 0
M  V30 19955 C 1808.63 -1.02294 -2.11124 0
M  V30 19956 C 1809.64 0.030991 -1.73972 0
M  V30 19957 O 1810.82 -0.163333 -2.00737 0
M  V30 19958 C 1807.88 -0.611102 -3.41272 0
M  V30 19959 C 1806.94 -1.73949 -3.9248 0
M  V30 19960 C 1806.18 -1.34721 -5.16417 0
M  V30 19961 O 1806.4 -0.229171 -5.69939 0
M  V30 19962 O 1805.33 -2.16639 -5.61561 0
M  V30 19963 H 1809.16 -1.9662 -2.31461 0
M  V30 19964 H 1806.75 -1.01639 -1.09499 0
M  V30 19965 H 1808.63 -0.392127 -4.19572 0
M  V30 19966 H 1807.3 0.303224 -3.22277 0
M  V30 19967 H 1806.21 -2.01305 -3.1532 0
M  V30 19968 H 1807.54 -2.63194 -4.1592 0
M  V30 19969 N 1809.19 1.18355 -1.04066 0
M  V30 19970 C 1810.42 1.92816 -0.763979 0
M  V30 19971 C 1810.84 1.75658 0.672749 0
M  V30 19972 O 1810.2 1.06671 1.46598 0
M  V30 19973 C 1810.25 3.42267 -1.13516 0
M  V30 19974 O 1809.35 4.11576 -0.260646 0
M  V30 19975 H 1808.7 0.601532 -0.281167 0
M  V30 19976 H 1811.23 1.50087 -1.3905 0
M  V30 19977 H 1811.24 3.92973 -1.09709 0
M  V30 19978 H 1809.91 3.54076 -2.18181 0
M  V30 19979 H 1808.49 3.71174 -0.358342 0
M  V30 19980 N 1810.67 0.820125 1.3458 0
M  V30 19981 C 1811.58 0.241913 2.33349 0
M  V30 19982 C 1812.6 -0.622228 1.62494 0
M  V30 19983 O 1813.77 -0.530787 1.9428 0
M  V30 19984 C 1810.84 -0.588944 3.41661 0
M  V30 19985 C 1809.9 0.29727 4.2827 0
M  V30 19986 C 1809.13 -0.494028 5.31409 0
M  V30 19987 O 1809.36 -1.72755 5.4361 0
M  V30 19988 O 1808.29 0.122182 6.01776 0
M  V30 19989 H 1812.12 1.05934 2.84626 0
M  V30 19990 H 1809.7 0.582205 1.37589 0
M  V30 19991 H 1811.58 -1.06174 4.07805 0
M  V30 19992 H 1810.26 -1.38374 2.92633 0
M  V30 19993 H 1809.17 0.817495 3.65059 0
M  V30 19994 H 1810.5 1.05635 4.80731 0
M  V30 19995 N 1812.15 -1.46743 0.574835 0
M  V30 19996 C 1813.06 -2.34015 -0.16559 0
M  V30 19997 C 1814.08 -1.49273 -0.894064 0
M  V30 19998 O 1815.25 -1.82162 -0.859013 0
M  V30 19999 C 1812.32 -3.26313 -1.17136 0
M  V30 20000 C 1811.38 -4.26952 -0.448413 0
M  V30 20001 C 1810.61 -5.1484 -1.40627 0
M  V30 20002 O 1810.83 -5.05508 -2.6423 0
M  V30 20003 O 1809.77 -5.9481 -0.921143 0
M  V30 20004 H 1813.59 -2.98664 0.550754 0
M  V30 20005 H 1811.18 -1.45589 0.335297 0
M  V30 20006 H 1813.06 -3.83276 -1.75149 0
M  V30 20007 H 1811.74 -2.64269 -1.86931 0
M  V30 20008 H 1810.64 -3.73698 0.17336 0
M  V30 20009 H 1811.98 -4.91759 0.208419 0
M  V30 20010 N 1813.63 -0.312197 -1.54477 0
M  V30 20011 C 1814.54 0.568096 -2.27618 0
M  V30 20012 C 1815.55 1.13892 -1.31547 0
M  V30 20013 O 1816.73 1.16131 -1.64546 0
M  V30 20014 C 1813.8 1.71843 -3.01116 0
M  V30 20015 C 1812.86 1.18056 -4.12748 0
M  V30 20016 C 1812.09 2.27607 -4.82733 0
M  V30 20017 O 1812.31 3.4773 -4.52151 0
M  V30 20018 O 1811.25 1.93667 -5.69892 0
M  V30 20019 H 1815.07 -0.0255513 -3.03689 0
M  V30 20020 H 1812.66 -0.0782698 -1.49195 0
M  V30 20021 H 1814.54 2.38839 -3.4718 0
M  V30 20022 H 1813.21 2.29847 -2.2793 0
M  V30 20023 H 1812.12 0.476007 -3.71059 0
M  V30 20024 H 1813.45 0.645802 -4.87945 0
M  V30 20025 N 1815.11 1.57549 -0.040136 0
M  V30 20026 C 1816.33 1.96967 0.649517 0
M  V30 20027 C 1816.76 0.917056 1.64231 0
M  V30 20028 O 1816.11 -0.120899 1.80896 0
M  V30 20029 C 1816.16 3.35471 1.32256 0
M  V30 20030 O 1815.27 3.32615 2.43806 0
M  V30 20031 H 1814.61 0.641933 0.169758 0
M  V30 20032 H 1817.14 2.04329 -0.105261 0
M  V30 20033 H 1817.15 3.71951 1.6768 0
M  V30 20034 H 1815.82 4.11623 0.594895 0
M  V30 20035 H 1814.4 3.07867 2.10411 0
M  V30 20036 N 1816.58 -0.233136 1.55866 0
M  V30 20037 C 1817.49 -1.31004 1.94615 0
M  V30 20038 C 1818.51 -1.51915 0.848399 0
M  V30 20039 O 1819.69 -1.6527 1.15098 0
M  V30 20040 C 1816.75 -2.64203 2.24494 0
M  V30 20041 C 1815.81 -2.51695 3.47776 0
M  V30 20042 C 1815.05 -3.78542 3.7622 0
M  V30 20043 O 1815.27 -4.81043 3.06519 0
M  V30 20044 O 1814.2 -3.76348 4.69729 0
M  V30 20045 H 1818.03 -1.01129 2.86368 0
M  V30 20046 H 1815.61 -0.435043 1.42926 0
M  V30 20047 H 1817.5 -3.42889 2.44959 0
M  V30 20048 H 1816.17 -2.93782 1.35918 0
M  V30 20049 H 1815.08 -1.71248 3.32603 0
M  V30 20050 H 1816.41 -2.27058 4.36698 0
M  V30 20051 N 1818.06 -1.49479 -0.499372 0
M  V30 20052 C 1818.97 -1.69006 -1.62709 0
M  V30 20053 C 1819.99 -0.572681 -1.64306 0
M  V30 20054 O 1821.17 -0.847586 -1.82696 0
M  V30 20055 C 1818.23 -1.75382 -2.99069 0
M  V30 20056 C 1817.29 -2.98968 -3.08086 0
M  V30 20057 C 1816.52 -3.0503 -4.37941 0
M  V30 20058 O 1816.75 -2.18641 -5.26832 0
M  V30 20059 O 1815.68 -3.97507 -4.51964 0
M  V30 20060 H 1819.51 -2.64544 -1.49164 0
M  V30 20061 H 1817.09 -1.3324 -0.675836 0
M  V30 20062 H 1818.97 -1.81919 -3.8011 0
M  V30 20063 H 1817.65 -0.830226 -3.12872 0
M  V30 20064 H 1816.56 -2.97947 -2.26227 0
M  V30 20065 H 1817.89 -3.90812 -2.9921 0
M  V30 20066 N 1819.54 0.750537 -1.38581 0
M  V30 20067 C 1820.45 1.89503 -1.38296 0
M  V30 20068 C 1821.47 1.71738 -0.279678 0
M  V30 20069 O 1822.64 1.94608 -0.518607 0
M  V30 20070 C 1819.71 3.24909 -1.20976 0
M  V30 20071 C 1818.77 3.55178 -2.41136 0
M  V30 20072 C 1818 4.84124 -2.24633 0
M  V30 20073 O 1818.23 5.56722 -1.24164 0
M  V30 20074 O 1817.16 5.1394 -3.13288 0
M  V30 20075 H 1820.99 1.92698 -2.34737 0
M  V30 20076 H 1818.57 0.896233 -1.19533 0
M  V30 20077 H 1820.45 4.05858 -1.13389 0
M  V30 20078 H 1819.13 3.22519 -0.276217 0
M  V30 20079 H 1818.03 2.74378 -2.54298 0
M  V30 20080 H 1819.37 3.62332 -3.33131 0
M  V30 20081 N 1821.02 1.235 0.979051 0
M  V30 20082 C 1822.24 1.09551 1.76106 0
M  V30 20083 C 1822.67 -0.348792 1.84838 0
M  V30 20084 O 1822.03 -1.25231 1.31099 0
M  V30 20085 C 1822.08 1.7272 3.16544 0
M  V30 20086 O 1821.18 0.990263 4.00334 0
M  V30 20087 H 1820.52 0.383909 0.541766 0
M  V30 20088 H 1823.05 1.63581 1.22892 0
M  V30 20089 H 1823.06 1.78014 3.67117 0
M  V30 20090 H 1821.74 2.77813 3.09504 0
M  V30 20091 H 1820.31 1.01436 3.58839 0
M  V30 20092 N 1822.5 -1.17802 1.04693 0
M  V30 20093 C 1823.41 -2.25298 0.654072 0
M  V30 20094 C 1824.42 -1.70984 -0.32255 0
M  V30 20095 O 1825.6 -2.0063 -0.175904 0
M  V30 20096 C 1822.66 -3.46687 0.0296345 0
M  V30 20097 C 1821.73 -4.16108 1.05606 0
M  V30 20098 C 1820.96 -5.31702 0.461329 0
M  V30 20099 O 1821.18 -5.65701 -0.730679 0
M  V30 20100 O 1820.12 -5.89956 1.19312 0
M  V30 20101 H 1823.94 -2.61179 1.54982 0
M  V30 20102 H 1821.53 -1.25005 0.818182 0
M  V30 20103 H 1823.41 -4.20201 -0.317654 0
M  V30 20104 H 1822.08 -3.12615 -0.839839 0
M  V30 20105 H 1820.99 -3.44635 1.45526 0
M  V30 20106 H 1822.32 -4.54195 1.89651 0
M  V30 20107 N 1823.98 -0.827251 -1.34143 0
M  V30 20108 C 1824.89 -0.254285 -2.33218 0
M  V30 20109 C 1825.9 0.613602 -1.62822 0
M  V30 20110 O 1827.08 0.520477 -1.94558 0
M  V30 20111 C 1824.14 0.570817 -3.41969 0
M  V30 20112 C 1823.2 -0.319978 -4.28106 0
M  V30 20113 C 1822.44 0.465839 -5.31663 0
M  V30 20114 O 1822.66 1.6987 -5.44518 0
M  V30 20115 O 1821.59 -0.154094 -6.01703 0
M  V30 20116 H 1825.42 -1.07441 -2.8406 0
M  V30 20117 H 1823 -0.589493 -1.37278 0
M  V30 20118 H 1824.89 1.04009 -4.08363 0
M  V30 20119 H 1823.56 1.3682 -2.93363 0
M  V30 20120 H 1822.47 -0.836843 -3.6462 0
M  V30 20121 H 1823.8 -1.08183 -4.80164 0
M  V30 20122 N 1825.45 1.46436 -0.582609 0
M  V30 20123 C 1826.36 2.34099 0.153178 0
M  V30 20124 C 1827.38 1.49745 0.886135 0
M  V30 20125 O 1828.56 1.82615 0.849341 0
M  V30 20126 C 1825.62 3.26929 1.15404 0
M  V30 20127 C 1824.68 4.27183 0.425764 0
M  V30 20128 C 1823.91 5.15578 1.37895 0
M  V30 20129 O 1824.14 5.06903 2.61545 0
M  V30 20130 O 1823.07 5.9529 0.889585 0
M  V30 20131 H 1826.9 2.98368 -0.566585 0
M  V30 20132 H 1824.48 1.45409 -0.343013 0
M  V30 20133 H 1826.36 3.842 1.73114 0
M  V30 20134 H 1825.04 2.65257 1.85527 0
M  V30 20135 H 1823.95 3.73601 -0.193175 0
M  V30 20136 H 1825.28 4.91641 -0.234496 0
M  V30 20137 N 1826.93 0.320385 1.54309 0
M  V30 20138 C 1828.16 -0.28794 2.05391 0
M  V30 20139 C 1828.58 -1.45249 1.19517 0
M  V30 20140 O 1827.94 -1.80154 0.203556 0
M  V30 20141 C 1827.99 -0.703261 3.53676 0
M  V30 20142 O 1827.09 -1.80598 3.70753 0
M  V30 20143 H 1826.43 -0.052589 0.661914 0
M  V30 20144 H 1828.96 0.46787 1.99179 0
M  V30 20145 H 1828.97 -0.986793 3.95887 0
M  V30 20146 H 1827.65 0.148514 4.15635 0
M  V30 20147 H 1826.22 -1.5215 3.40448 0
M  V30 20148 N 1828.41 -1.57525 0.0484906 0
M  V30 20149 C 1829.32 -2.14854 -0.942076 0
M  V30 20150 C 1830.34 -1.10565 -1.34355 0
M  V30 20151 O 1831.51 -1.4272 -1.42102 0
M  V30 20152 C 1828.58 -2.68002 -2.19945 0
M  V30 20153 C 1827.64 -3.87078 -1.85658 0
M  V30 20154 C 1826.87 -4.37682 -3.05401 0
M  V30 20155 O 1827.09 -3.87373 -4.18687 0
M  V30 20156 O 1826.03 -5.29302 -2.86571 0
M  V30 20157 H 1829.85 -2.9981 -0.48453 0
M  V30 20158 H 1827.44 -1.48392 -0.173252 0
M  V30 20159 H 1829.32 -3.02167 -2.93722 0
M  V30 20160 H 1828 -1.86118 -2.64843 0
M  V30 20161 H 1826.9 -3.57806 -1.09205 0
M  V30 20162 H 1828.24 -4.70184 -1.45562 0
M  V30 20163 N 1829.89 0.224867 -1.55988 0
M  V30 20164 C 1830.8 1.2997 -1.95307 0
M  V30 20165 C 1831.81 1.51463 -0.856444 0
M  V30 20166 O 1832.99 1.64658 -1.15973 0
M  V30 20167 C 1830.05 2.63009 -2.25892 0
M  V30 20168 C 1829.12 2.49847 -3.49106 0
M  V30 20169 C 1828.35 3.76541 -3.78223 0
M  V30 20170 O 1828.57 4.7941 -3.09066 0
M  V30 20171 O 1827.51 3.73852 -4.71718 0
M  V30 20172 H 1831.33 0.996093 -2.869 0
M  V30 20173 H 1828.92 0.427457 -1.43154 0
M  V30 20174 H 1830.8 3.41586 -2.46774 0
M  V30 20175 H 1829.47 2.93057 -1.37474 0
M  V30 20176 H 1828.38 1.69482 -3.33507 0
M  V30 20177 H 1829.71 2.24739 -4.37896 0
M  V30 20178 N 1831.37 1.49742 0.491438 0
M  V30 20179 C 1832.28 1.69866 1.6181 0
M  V30 20180 C 1833.29 0.581386 1.64 0
M  V30 20181 O 1834.47 0.857263 1.82244 0
M  V30 20182 C 1831.53 1.76965 2.98135 0
M  V30 20183 C 1830.59 3.00597 3.06496 0
M  V30 20184 C 1829.83 3.07348 4.36317 0
M  V30 20185 O 1830.05 2.21432 5.25665 0
M  V30 20186 O 1828.98 3.99898 4.4985 0
M  V30 20187 H 1832.81 2.65332 1.47759 0
M  V30 20188 H 1830.39 1.33596 0.668761 0
M  V30 20189 H 1832.28 1.83932 3.7914 0
M  V30 20190 H 1830.95 0.846807 3.12427 0
M  V30 20191 H 1829.86 2.99142 2.24643 0
M  V30 20192 H 1831.19 3.92393 2.97133 0
M  V30 20193 N 1832.84 -0.743177 1.38977 0
M  V30 20194 C 1834.07 -1.53753 1.39193 0
M  V30 20195 C 1834.49 -1.88095 -0.0136591 0
M  V30 20196 O 1833.85 -1.51326 -0.998508 0
M  V30 20197 C 1833.9 -2.80679 2.26389 0
M  V30 20198 O 1833 -3.76265 1.68815 0
M  V30 20199 H 1832.35 -0.464639 0.474349 0
M  V30 20200 H 1834.88 -0.917579 1.82871 0
M  V30 20201 H 1834.89 -3.29498 2.40614 0
M  V30 20202 H 1833.56 -2.55014 3.28543 0
M  V30 20203 H 1832.14 -3.35004 1.63788 0
M  V30 20204 N 1834.32 -1.24018 -0.972487 0
M  V30 20205 C 1835.23 -1.04527 -2.10027 0
M  V30 20206 C 1836.25 0.0125372 -1.73995 0
M  V30 20207 O 1837.42 -0.184615 -2.00552 0
M  V30 20208 C 1834.49 -0.647264 -3.40604 0
M  V30 20209 C 1833.55 -1.78102 -3.90613 0
M  V30 20210 C 1832.78 -1.4019 -5.14959 0
M  V30 20211 O 1833.01 -0.289608 -5.69664 0
M  V30 20212 O 1831.94 -2.22583 -5.59232 0
M  V30 20213 H 1835.77 -1.99064 -2.29363 0
M  V30 20214 H 1833.35 -1.02794 -1.08414 0
M  V30 20215 H 1835.23 -0.436606 -4.19132 0
M  V30 20216 H 1833.91 0.269025 -3.2258 0
M  V30 20217 H 1832.82 -2.04638 -3.13168 0
M  V30 20218 H 1834.15 -2.67591 -4.13105 0
M  V30 20219 N 1835.8 1.17245 -1.05316 0
M  V30 20220 C 1836.71 2.24948 -0.666011 0
M  V30 20221 C 1837.73 1.71153 0.313478 0
M  V30 20222 O 1838.9 2.00721 0.165262 0
M  V30 20223 C 1835.97 3.46667 -0.0480198 0
M  V30 20224 C 1835.03 4.15542 -1.07812 0
M  V30 20225 C 1834.26 5.3145 -0.48952 0
M  V30 20226 O 1834.48 5.6608 0.700668 0
M  V30 20227 O 1833.42 5.89315 -1.22439 0
M  V30 20228 H 1837.24 2.60353 -1.56365 0
M  V30 20229 H 1834.83 1.24569 -0.8248 0
M  V30 20230 H 1836.71 4.20364 0.295366 0
M  V30 20231 H 1835.39 3.13056 0.823248 0
M  V30 20232 H 1834.29 3.43858 -1.47351 0
M  V30 20233 H 1835.63 4.53183 -1.92057 0
M  V30 20234 N 1837.28 0.834353 1.33702 0
M  V30 20235 C 1838.19 0.266649 2.3308 0
M  V30 20236 C 1839.2 -0.604958 1.63145 0
M  V30 20237 O 1840.38 -0.510151 1.94832 0
M  V30 20238 C 1837.45 -0.552673 3.42267 0
M  V30 20239 C 1836.51 0.342677 4.2793 0
M  V30 20240 C 1835.74 -0.437637 5.31903 0
M  V30 20241 O 1835.96 -1.6698 5.45412 0
M  V30 20242 O 1834.9 0.186001 6.01613 0
M  V30 20243 H 1838.72 1.08946 2.83486 0
M  V30 20244 H 1836.31 0.596765 1.36964 0
M  V30 20245 H 1838.19 -1.01842 4.08908 0
M  V30 20246 H 1836.86 -1.35263 2.94085 0
M  V30 20247 H 1835.77 0.856168 3.64171 0
M  V30 20248 H 1837.1 1.10728 4.79583 0
M  V30 20249 N 1838.76 -1.46125 0.590367 0
M  V30 20250 C 1839.98 -2.07234 0.0828625 0
M  V30 20251 C 1840.41 -1.43498 -1.21614 0
M  V30 20252 O 1839.76 -0.521488 -1.73638 0
M  V30 20253 C 1839.81 -3.60548 -0.0614302 0
M  V30 20254 O 1838.92 -3.97012 -1.11603 0
M  V30 20255 H 1838.26 -0.660685 0.0662654 0
M  V30 20256 H 1840.79 -1.87646 0.815486 0
M  V30 20257 H 1840.8 -4.07137 -0.265161 0
M  V30 20258 H 1839.47 -4.06328 0.887164 0
M  V30 20259 H 1838.05 -3.6212 -0.890146 0
M  V30 20260 N 1840.23 -0.328564 -1.54137 0
M  V30 20261 C 1841.14 0.543922 -2.28207 0
M  V30 20262 C 1842.16 1.1249 -1.32748 0
M  V30 20263 O 1843.34 1.1438 -1.65769 0
M  V30 20264 C 1840.4 1.6864 -3.02922 0
M  V30 20265 C 1839.46 1.13672 -4.13977 0
M  V30 20266 C 1838.7 2.22474 -4.85119 0
M  V30 20267 O 1838.92 3.42914 -4.55813 0
M  V30 20268 O 1837.85 1.87611 -5.71914 0
M  V30 20269 H 1841.68 -0.0577601 -3.03645 0
M  V30 20270 H 1839.26 -0.0940895 -1.49103 0
M  V30 20271 H 1841.15 2.35143 -3.49693 0
M  V30 20272 H 1839.82 2.27417 -2.30355 0
M  V30 20273 H 1838.73 0.436625 -3.71543 0
M  V30 20274 H 1840.06 0.594012 -4.88602 0
M  V30 20275 N 1841.71 1.57497 -0.0568439 0
M  V30 20276 C 1842.62 2.1535 0.930668 0
M  V30 20277 C 1843.64 1.11276 1.33767 0
M  V30 20278 O 1844.81 1.43472 1.41343 0
M  V30 20279 C 1841.88 2.69165 2.18521 0
M  V30 20280 C 1840.94 3.88057 1.83603 0
M  V30 20281 C 1840.17 4.39296 3.03076 0
M  V30 20282 O 1840.4 3.89588 4.16627 0
M  V30 20283 O 1839.33 5.30814 2.8376 0
M  V30 20284 H 1843.16 3.00063 0.468623 0
M  V30 20285 H 1840.74 1.48482 0.16538 0
M  V30 20286 H 1842.62 3.03721 2.92116 0
M  V30 20287 H 1841.3 1.8752 2.63852 0
M  V30 20288 H 1840.21 3.5838 1.07306 0
M  V30 20289 H 1841.54 4.70949 1.43066 0
M  V30 20290 N 1843.19 -0.216591 1.56105 0
M  V30 20291 C 1844.1 -1.28933 1.95994 0
M  V30 20292 C 1845.12 -1.51007 0.864464 0
M  V30 20293 O 1846.29 -1.6404 1.16845 0
M  V30 20294 C 1843.36 -2.61807 2.27284 0
M  V30 20295 C 1842.42 -2.47992 3.50426 0
M  V30 20296 C 1841.65 -3.7453 3.80214 0
M  V30 20297 O 1841.87 -4.77765 3.11604 0
M  V30 20298 O 1840.81 -3.71345 4.73694 0
M  V30 20299 H 1844.63 -0.980864 2.87424 0
M  V30 20300 H 1842.22 -0.419859 1.43379 0
M  V30 20301 H 1844.1 -3.40272 2.48582 0
M  V30 20302 H 1842.78 -2.92324 1.39026 0
M  V30 20303 H 1841.68 -1.67711 3.34401 0
M  V30 20304 H 1843.02 -2.22413 4.39082 0
M  V30 20305 N 1844.67 -1.5 -0.48349 0
M  V30 20306 C 1845.89 -1.64376 -1.26473 0
M  V30 20307 C 1846.32 -0.321912 -1.85325 0
M  V30 20308 O 1845.68 0.712714 -1.66704 0
M  V30 20309 C 1845.72 -2.72803 -2.35819 0
M  V30 20310 O 1844.83 -2.33194 -3.40139 0
M  V30 20311 H 1844.17 -0.549589 -0.372624 0
M  V30 20312 H 1846.7 -1.963 -0.57684 0
M  V30 20313 H 1846.71 -2.95505 -2.8132 0
M  V30 20314 H 1845.38 -3.68745 -1.92353 0
M  V30 20315 H 1843.96 -2.20891 -3.00436 0
M  V30 20316 N 1846.15 0.735796 -1.39369 0
M  V30 20317 C 1847.06 1.88026 -1.40298 0
M  V30 20318 C 1848.07 1.71431 -0.297878 0
M  V30 20319 O 1849.25 1.94047 -0.539219 0
M  V30 20320 C 1846.31 3.23607 -1.24415 0
M  V30 20321 C 1845.37 3.52601 -2.4489 0
M  V30 20322 C 1844.61 4.81714 -2.29755 0
M  V30 20323 O 1844.83 5.55374 -1.30061 0
M  V30 20324 O 1843.76 5.10588 -3.18722 0
M  V30 20325 H 1847.59 1.90197 -2.36767 0
M  V30 20326 H 1845.18 0.883504 -1.20476 0
M  V30 20327 H 1847.06 4.04633 -1.17688 0
M  V30 20328 H 1845.73 3.22208 -0.310409 0
M  V30 20329 H 1844.64 2.71665 -2.57194 0
M  V30 20330 H 1845.97 3.58778 -3.36955 0
M  V30 20331 N 1847.63 1.24532 0.965897 0
M  V30 20332 C 1848.54 1.0564 2.09469 0
M  V30 20333 C 1849.55 -0.00330962 1.74 0
M  V30 20334 O 1850.73 0.195248 2.00451 0
M  V30 20335 C 1847.79 0.665318 3.40256 0
M  V30 20336 C 1846.85 1.80171 3.89663 0
M  V30 20337 C 1846.09 1.42919 5.14208 0
M  V30 20338 O 1846.31 0.319815 5.69503 0
M  V30 20339 O 1845.24 2.25546 5.58044 0
M  V30 20340 H 1849.07 2.00277 2.28304 0
M  V30 20341 H 1846.65 1.03368 1.07868 0
M  V30 20342 H 1848.54 0.458827 4.18895 0
M  V30 20343 H 1847.21 -0.251914 3.22718 0
M  V30 20344 H 1846.12 2.06296 3.12078 0
M  V30 20345 H 1847.45 2.69778 4.11681 0
M  V30 20346 N 1849.1 -1.16685 1.05936 0
M  V30 20347 C 1850.01 -2.24591 0.677931 0
M  V30 20348 C 1851.03 -1.71317 -0.304397 0
M  V30 20349 O 1852.21 -2.00806 -0.154615 0
M  V30 20350 C 1849.27 -3.46636 0.0664037 0
M  V30 20351 C 1848.33 -4.14964 1.10014 0
M  V30 20352 C 1847.56 -5.31183 0.517697 0
M  V30 20353 O 1847.79 -5.66444 -0.670637 0
M  V30 20354 O 1846.72 -5.88657 1.25563 0
M  V30 20355 H 1850.55 -2.5952 1.57743 0
M  V30 20356 H 1848.13 -1.2413 0.831395 0
M  V30 20357 H 1850.01 -4.20514 -0.273069 0
M  V30 20358 H 1848.69 -3.13489 -0.806634 0
M  V30 20359 H 1847.6 -3.43072 1.49173 0
M  V30 20360 H 1848.93 -4.52158 1.94458 0
M  V30 20361 N 1850.58 -0.841432 -1.33258 0
M  V30 20362 C 1851.81 -0.45101 -2.02437 0
M  V30 20363 C 1852.23 0.940811 -1.62881 0
M  V30 20364 O 1851.59 1.61559 -0.82271 0
M  V30 20365 C 1851.64 -0.58237 -3.55866 0
M  V30 20366 O 1850.74 0.390326 -4.10549 0
M  V30 20367 H 1850.08 -0.182996 -0.638285 0
M  V30 20368 H 1852.61 -1.13697 -1.701 0
M  V30 20369 H 1852.62 -0.464967 -4.05342 0
M  V30 20370 H 1851.3 -1.59739 -3.84 0
M  V30 20371 H 1849.87 0.230266 -3.72188 0
M  V30 20372 N 1852.06 1.4581 -0.598108 0
M  V30 20373 C 1852.97 2.34249 0.12834 0
M  V30 20374 C 1853.99 1.50677 0.870202 0
M  V30 20375 O 1855.16 1.83505 0.829924 0
M  V30 20376 C 1852.23 3.28135 1.1193 0
M  V30 20377 C 1851.29 4.27611 0.380432 0
M  V30 20378 C 1850.52 5.17012 1.32419 0
M  V30 20379 O 1850.74 5.09648 2.56154 0
M  V30 20380 O 1849.68 5.962 0.826397 0
M  V30 20381 H 1853.5 2.9775 -0.598199 0
M  V30 20382 H 1851.09 1.45037 -0.358416 0
M  V30 20383 H 1852.97 3.86014 1.6903 0
M  V30 20384 H 1851.65 2.6721 1.82703 0
M  V30 20385 H 1850.55 3.73375 -0.23279 0
M  V30 20386 H 1851.89 4.91365 -0.286627 0
M  V30 20387 N 1853.54 0.336733 1.53961 0
M  V30 20388 C 1854.45 -0.531812 2.28493 0
M  V30 20389 C 1855.46 -1.11784 1.33343 0
M  V30 20390 O 1856.64 -1.13499 1.66373 0
M  V30 20391 C 1853.7 -1.67031 3.03812 0
M  V30 20392 C 1852.77 -1.11475 4.14574 0
M  V30 20393 C 1852 -2.19898 4.86292 0
M  V30 20394 O 1852.22 -3.40492 4.57625 0
M  V30 20395 O 1851.16 -1.84576 5.72901 0
M  V30 20396 H 1854.98 0.0738624 3.0361 0
M  V30 20397 H 1852.57 0.101996 1.49051 0
M  V30 20398 H 1854.45 -2.33286 3.50936 0
M  V30 20399 H 1853.12 -2.26192 2.31558 0
M  V30 20400 H 1852.03 -0.416915 3.7177 0
M  V30 20401 H 1853.36 -0.568092 4.88911 0
M  V30 20402 N 1855.02 -1.57465 0.0651956 0
M  V30 20403 C 1855.93 -2.15841 -0.919235 0
M  V30 20404 C 1856.94 -1.11984 -1.33175 0
M  V30 20405 O 1858.12 -1.44219 -1.4058 0
M  V30 20406 C 1855.18 -2.7032 -2.1709 0
M  V30 20407 C 1854.24 -3.89026 -1.81542 0
M  V30 20408 C 1853.48 -4.40897 -3.00742 0
M  V30 20409 O 1853.7 -3.91792 -4.14555 0
M  V30 20410 O 1852.63 -5.32312 -2.80941 0
M  V30 20411 H 1856.46 -3.00307 -0.452704 0
M  V30 20412 H 1854.04 -1.48567 -0.157504 0
M  V30 20413 H 1855.93 -3.05266 -2.90501 0
M  V30 20414 H 1854.6 -1.88917 -2.62854 0
M  V30 20415 H 1853.51 -3.58944 -1.05404 0
M  V30 20416 H 1854.84 -4.71701 -1.40567 0
M  V30 20417 N 1856.49 0.20831 -1.56217 0
M  V30 20418 C 1857.72 0.951404 -1.84291 0
M  V30 20419 C 1858.14 1.76616 -0.647168 0
M  V30 20420 O 1857.5 1.7674 0.404081 0
M  V30 20421 C 1857.55 1.83403 -3.10477 0
M  V30 20422 O 1856.65 2.93113 -2.90101 0
M  V30 20423 H 1855.99 0.268668 -0.607218 0
M  V30 20424 H 1858.52 0.217618 -2.03439 0
M  V30 20425 H 1858.53 2.24127 -3.40927 0
M  V30 20426 H 1857.21 1.23528 -3.97132 0
M  V30 20427 H 1855.79 2.5624 -2.70916 0
M  V30 20428 N 1857.97 1.50255 0.475528 0
M  V30 20429 C 1858.88 1.71573 1.6 0
M  V30 20430 C 1859.9 0.598748 1.63374 0
M  V30 20431 O 1861.07 0.876544 1.81325 0
M  V30 20432 C 1858.14 1.80117 2.96241 0
M  V30 20433 C 1857.2 3.03831 3.03291 0
M  V30 20434 C 1856.43 3.11958 4.33033 0
M  V30 20435 O 1856.66 2.26995 5.23287 0
M  V30 20436 O 1855.59 4.04647 4.45583 0
M  V30 20437 H 1859.42 2.66884 1.44937 0
M  V30 20438 H 1857 1.34298 0.654553 0
M  V30 20439 H 1858.88 1.87943 3.77167 0
M  V30 20440 H 1857.56 0.879896 3.11512 0
M  V30 20441 H 1856.46 3.01508 2.21458 0
M  V30 20442 H 1857.8 3.95523 2.92955 0
M  V30 20443 N 1859.45 -0.728395 1.39758 0
M  V30 20444 C 1860.36 -1.87279 1.41293 0
M  V30 20445 C 1861.38 -1.71271 0.306965 0
M  V30 20446 O 1862.55 -1.93759 0.549502 0
M  V30 20447 C 1859.62 -3.22943 1.2613 0
M  V30 20448 C 1858.68 -3.51297 2.46756 0
M  V30 20449 C 1857.91 -4.80489 2.32307 0
M  V30 20450 O 1858.13 -5.54676 1.33005 0
M  V30 20451 O 1857.07 -5.08891 3.21425 0
M  V30 20452 H 1860.89 -1.88939 2.37773 0
M  V30 20453 H 1858.48 -0.877103 1.20943 0
M  V30 20454 H 1860.36 -4.04003 1.19832 0
M  V30 20455 H 1859.04 -3.22039 0.327492 0
M  V30 20456 H 1857.94 -2.70298 2.58631 0
M  V30 20457 H 1859.28 -3.56986 3.38853 0
M  V30 20458 N 1860.93 -1.25042 -0.959279 0
M  V30 20459 C 1861.84 -1.06749 -2.08906 0
M  V30 20460 C 1862.85 -0.00591805 -1.73999 0
M  V30 20461 O 1864.03 -0.205876 -2.00345 0
M  V30 20462 C 1861.09 -0.683353 -3.39899 0
M  V30 20463 C 1860.16 -1.82235 -3.88702 0
M  V30 20464 C 1859.39 -1.45644 -5.13443 0
M  V30 20465 O 1859.61 -0.350012 -5.69325 0
M  V30 20466 O 1858.55 -2.28502 -5.5684 0
M  V30 20467 H 1862.37 -2.01485 -2.27238 0
M  V30 20468 H 1859.96 -1.03938 -1.07318 0
M  V30 20469 H 1861.84 -0.481036 -4.18645 0
M  V30 20470 H 1860.51 0.234796 -3.22847 0
M  V30 20471 H 1859.42 -2.07948 -3.10979 0
M  V30 20472 H 1860.75 -2.71957 -4.10244 0
M  V30 20473 N 1862.41 1.16121 -1.06553 0
M  V30 20474 C 1863.63 1.91152 -0.804706 0
M  V30 20475 C 1864.06 1.77045 0.635338 0
M  V30 20476 O 1863.41 1.09757 1.44302 0
M  V30 20477 C 1863.46 3.39782 -1.20751 0
M  V30 20478 O 1862.57 4.1093 -0.347889 0
M  V30 20479 H 1861.91 0.595433 -0.293863 0
M  V30 20480 H 1864.44 1.47104 -1.42203 0
M  V30 20481 H 1864.45 3.90558 -1.1802 0
M  V30 20482 H 1863.12 3.49369 -2.25642 0
M  V30 20483 H 1861.7 3.70331 -0.436993 0
M  V30 20484 N 1863.88 0.848487 1.3281 0
M  V30 20485 C 1864.79 0.291355 2.32784 0
M  V30 20486 C 1865.81 -0.587621 1.63777 0
M  V30 20487 O 1866.99 -0.489458 1.95362 0
M  V30 20488 C 1864.05 -0.51634 3.42834 0
M  V30 20489 C 1863.11 0.388046 4.27543 0
M  V30 20490 C 1862.35 -0.381197 5.32337 0
M  V30 20491 O 1862.57 -1.61186 5.47152 0
M  V30 20492 O 1861.5 0.2498 6.01381 0
M  V30 20493 H 1865.33 1.11947 2.82315 0
M  V30 20494 H 1862.91 0.611259 1.36323 0
M  V30 20495 H 1864.8 -0.974995 4.09966 0
M  V30 20496 H 1863.47 -1.32136 2.95503 0
M  V30 20497 H 1862.38 0.894745 3.63243 0
M  V30 20498 H 1863.71 1.15808 4.78382 0
M  V30 20499 N 1865.36 -1.4549 0.605832 0
M  V30 20500 C 1866.27 -2.34313 -0.115915 0
M  V30 20501 C 1867.29 -1.51136 -0.862199 0
M  V30 20502 O 1868.46 -1.83943 -0.820181 0
M  V30 20503 C 1865.53 -3.28724 -1.10188 0
M  V30 20504 C 1864.59 -4.27807 -0.357749 0
M  V30 20505 C 1863.82 -5.17707 -1.29675 0
M  V30 20506 O 1864.05 -5.10999 -2.53448 0
M  V30 20507 O 1862.98 -5.9663 -0.794767 0
M  V30 20508 H 1866.81 -2.97429 0.613981 0
M  V30 20509 H 1864.39 -1.44845 0.366103 0
M  V30 20510 H 1866.27 -3.86905 -1.6698 0
M  V30 20511 H 1864.95 -2.68175 -1.81284 0
M  V30 20512 H 1863.86 -3.73246 0.252588 0
M  V30 20513 H 1865.19 -4.91206 0.312682 0
M  V30 20514 N 1866.84 -0.344893 -1.5378 0
M  V30 20515 C 1867.75 0.519687 -2.28772 0
M  V30 20516 C 1868.77 1.11076 -1.33934 0
M  V30 20517 O 1869.94 1.12615 -1.66972 0
M  V30 20518 C 1867.01 1.65417 -3.04693 0
M  V30 20519 C 1866.07 1.09275 -4.1516 0
M  V30 20520 C 1865.3 2.17316 -4.87452 0
M  V30 20521 O 1865.52 3.38061 -4.59425 0
M  V30 20522 O 1864.46 1.81535 -5.73872 0
M  V30 20523 H 1868.28 -0.0899625 -3.03567 0
M  V30 20524 H 1865.87 -0.109899 -1.48995 0
M  V30 20525 H 1867.75 2.31421 -3.52168 0
M  V30 20526 H 1866.43 2.24961 -2.32754 0
M  V30 20527 H 1865.33 0.397193 -3.71985 0
M  V30 20528 H 1866.67 0.542156 -4.89205 0
M  V30 20529 N 1868.32 1.57428 -0.0735454 0
M  V30 20530 C 1869.54 1.98301 0.607591 0
M  V30 20531 C 1869.97 0.951686 1.62248 0
M  V30 20532 O 1869.33 -0.0825008 1.81112 0
M  V30 20533 C 1869.37 3.38201 1.2511 0
M  V30 20534 O 1868.48 3.37711 2.36696 0
M  V30 20535 H 1867.82 0.64539 0.156104 0
M  V30 20536 H 1870.35 2.0406 -0.148578 0
M  V30 20537 H 1870.36 3.75424 1.59753 0
M  V30 20538 H 1869.03 4.12793 0.50745 0
M  V30 20539 H 1867.61 3.1226 2.03833 0
M  V30 20540 N 1869.8 -0.200022 1.56326 0
M  V30 20541 C 1870.71 -1.26847 1.9735 0
M  V30 20542 C 1871.72 -1.50081 0.880432 0
M  V30 20543 O 1872.9 -1.62792 1.18578 0
M  V30 20544 C 1869.96 -2.59382 2.30048 0
M  V30 20545 C 1869.02 -2.44262 3.53036 0
M  V30 20546 C 1868.26 -3.70476 3.84165 0
M  V30 20547 O 1868.48 -4.74433 3.16654 0
M  V30 20548 O 1867.41 -3.663 4.77606 0
M  V30 20549 H 1871.24 -0.950324 2.88449 0
M  V30 20550 H 1868.83 -0.404628 1.43816 0
M  V30 20551 H 1870.71 -3.37616 2.52177 0
M  V30 20552 H 1869.38 -2.90833 1.42119 0
M  V30 20553 H 1868.29 -1.64154 3.36161 0
M  V30 20554 H 1869.62 -2.17744 4.41416 0
M  V30 20555 N 1871.27 -1.50505 -0.467553 0
M  V30 20556 C 1872.18 -1.72419 -1.59087 0
M  V30 20557 C 1873.2 -0.607403 -1.63054 0
M  V30 20558 O 1874.38 -0.886148 -1.80857 0
M  V30 20559 C 1871.44 -1.81686 -2.95281 0
M  V30 20560 C 1870.5 -3.05435 -3.01675 0
M  V30 20561 C 1869.74 -3.1425 -4.31373 0
M  V30 20562 O 1869.96 -2.29766 -5.22076 0
M  V30 20563 O 1868.89 -4.07005 -4.43431 0
M  V30 20564 H 1872.72 -2.67649 -1.43519 0
M  V30 20565 H 1870.3 -1.34643 -0.647422 0
M  V30 20566 H 1872.19 -1.89941 -3.76165 0
M  V30 20567 H 1870.86 -0.896404 -3.11041 0
M  V30 20568 H 1869.77 -3.02678 -2.19856 0
M  V30 20569 H 1871.1 -3.97071 -2.90853 0
M  V30 20570 N 1872.75 0.720973 -1.40142 0
M  V30 20571 C 1873.66 1.86527 -1.42284 0
M  V30 20572 C 1874.68 1.71106 -0.316044 0
M  V30 20573 O 1875.85 1.93465 -0.55977 0
M  V30 20574 C 1872.92 3.2227 -1.27841 0
M  V30 20575 C 1871.98 3.49984 -2.48616 0
M  V30 20576 C 1871.21 4.7925 -2.34852 0
M  V30 20577 O 1871.44 5.53963 -1.35945 0
M  V30 20578 O 1870.37 5.07179 -3.24119 0
M  V30 20579 H 1874.2 1.87675 -2.38771 0
M  V30 20580 H 1871.78 0.870677 -1.21407 0
M  V30 20581 H 1873.66 4.03362 -1.21973 0
M  V30 20582 H 1872.34 3.21861 -0.344566 0
M  V30 20583 H 1871.25 2.68922 -2.60061 0
M  V30 20584 H 1872.58 3.55184 -3.40742 0
M  V30 20585 N 1874.23 1.25549 0.952634 0
M  V30 20586 C 1875.46 1.13262 1.73743 0
M  V30 20587 C 1875.88 -0.309507 1.85536 0
M  V30 20588 O 1875.24 -1.22422 1.33726 0
M  V30 20589 C 1875.29 1.79395 3.12809 0
M  V30 20590 O 1874.39 1.07496 3.98144 0
M  V30 20591 H 1873.73 0.395314 0.5335 0
M  V30 20592 H 1876.26 1.66151 1.19394 0
M  V30 20593 H 1876.27 1.85761 3.63259 0
M  V30 20594 H 1874.95 2.84316 3.03542 0
M  V30 20595 H 1873.52 1.09025 3.56606 0
M  V30 20596 N 1875.71 -1.15554 1.07168 0
M  V30 20597 C 1876.99 -1.8238 0.706884 0
M  V30 20598 C 1877.37 -1.94906 -0.810848 0
M  V30 20599 O 1876.71 -1.49905 -1.72455 0
M  V30 20600 C 1876.92 -3.18844 1.41913 0
M  V30 20601 C 1878.27 -3.94506 1.57004 0
M  V30 20602 O 1879.3 -3.28392 1.37976 0
M  V30 20603 O 1878.15 -5.13036 1.88297 0
M  V30 20604 H 1875.25 -0.787892 0.251307 0
M  V30 20605 H 1877.79 -1.22681 1.17249 0
M  V30 20606 H 1876.57 -3.04814 2.45365 0
M  V30 20607 H 1876.19 -3.86227 0.944182 0
M  V30 20608 N 1877.19 -0.855519 -1.32358 0
M  V30 20609 C 1878.1 -0.303696 -2.32626 0
M  V30 20610 C 1879.11 0.578927 -1.64087 0
M  V30 20611 O 1880.29 0.479091 -1.95619 0
M  V30 20612 C 1877.35 0.498152 -3.43103 0
M  V30 20613 C 1876.42 -0.410714 -4.27331 0
M  V30 20614 C 1875.65 0.35296 -5.32532 0
M  V30 20615 O 1875.87 1.58282 -5.47999 0
M  V30 20616 O 1874.81 -0.281689 -6.0124 0
M  V30 20617 H 1878.63 -1.13443 -2.81717 0
M  V30 20618 H 1876.22 -0.618479 -1.35997 0
M  V30 20619 H 1878.1 0.95324 -4.10477 0
M  V30 20620 H 1876.77 1.30567 -2.96199 0
M  V30 20621 H 1875.68 -0.913997 -3.62763 0
M  V30 20622 H 1877.01 -1.18344 -4.77761 0
M  V30 20623 N 1878.67 1.45167 -0.61354 0
M  V30 20624 C 1879.58 2.34372 0.103487 0
M  V30 20625 C 1880.59 1.51591 0.854172 0
M  V30 20626 O 1881.77 1.84375 0.810414 0
M  V30 20627 C 1878.83 3.29304 1.08443 0
M  V30 20628 C 1877.89 4.2799 0.335056 0
M  V30 20629 C 1877.13 5.18387 1.26928 0
M  V30 20630 O 1877.35 5.12336 2.50734 0
M  V30 20631 O 1876.28 5.97043 0.763115 0
M  V30 20632 H 1880.11 2.97099 -0.629746 0
M  V30 20633 H 1877.69 1.44649 -0.373779 0
M  V30 20634 H 1879.58 3.87785 1.64926 0
M  V30 20635 H 1878.25 2.69133 1.79859 0
M  V30 20636 H 1877.16 3.73107 -0.272378 0
M  V30 20637 H 1878.49 4.91033 -0.338727 0
M  V30 20638 N 1880.14 0.353044 1.53595 0
M  V30 20639 C 1881.09 -0.499326 2.25334 0
M  V30 20640 C 1882.06 -1.08781 1.25522 0
M  V30 20641 O 1883.25 -1.12265 1.54276 0
M  V30 20642 C 1880.39 -1.63955 3.03666 0
M  V30 20643 C 1879.5 -1.07745 4.18348 0
M  V30 20644 C 1878.63 -2.18575 4.84147 0
M  V30 20645 C 1877.67 -1.59765 5.90882 0
M  V30 20646 N 1876.81 -2.64376 6.50423 0
M  V30 20647 H 1881.65 0.118959 2.97762 0
M  V30 20648 H 1879.19 0.0704777 1.46931 0
M  V30 20649 H 1881.14 -2.31097 3.47347 0
M  V30 20650 H 1879.77 -2.22868 2.33516 0
M  V30 20651 H 1878.83 -0.296678 3.79241 0
M  V30 20652 H 1880.14 -0.607375 4.95088 0
M  V30 20653 H 1879.29 -2.93563 5.30948 0
M  V30 20654 H 1878.03 -2.68929 4.06852 0
M  V30 20655 H 1877.04 -0.832863 5.43455 0
M  V30 20656 H 1878.26 -1.10251 6.70091 0
M  V30 20657 H 1876.21 -3.13968 5.75986 0
M  V30 20658 H 1876.12 -2.22019 7.22664 0
M  V30 20659 H 1877.39 -3.39105 7.01875 0
M  V30 20660 N 1881.62 -1.57387 0.0818932 0
M  V30 20661 C 1882.57 -2.14508 -0.899386 0
M  V30 20662 C 1883.56 -1.08453 -1.30132 0
M  V30 20663 O 1884.77 -1.26818 -1.27739 0
M  V30 20664 H 1881.14 -0.686024 -0.308018 0
M  V30 20665 H 1883.12 -2.95804 -0.392786 0
M  V30 20666 C 1881.86 -2.72963 -2.15375 0
M  V30 20667 H 1881.19 -3.54248 -1.85333 0
M  V30 20668 H 1882.63 -3.16515 -2.82125 0
M  V30 20669 C 1881.09 -1.68212 -2.91901 0
M  V30 20670 O 1881.62 -1.11314 -3.85969 0
M  V30 20671 N 1879.82 -1.3901 -2.55195 0
M  V30 20672 H 1879.37 -1.85468 -1.78771 0
M  V30 20673 H 1879.33 -0.691582 -3.06699 0
M  V30 20674 N 1883.1 0.191729 -1.56429 0
M  V30 20675 C 1884.33 0.927708 -1.84936 0
M  V30 20676 C 1884.74 1.76708 -0.664809 0
M  V30 20677 O 1884.1 1.78783 0.366436 0
M  V30 20678 C 1884.15 1.82113 -3.12277 0
M  V30 20679 O 1883.87 1.01564 -4.26165 0
M  V30 20680 C 1885.37 2.6685 -3.53986 0
M  V30 20681 H 1882.59 0.270514 -0.614055 0
M  V30 20682 H 1885.14 0.197968 -2.0354 0
M  V30 20683 H 1883.29 2.50445 -2.9556 0
M  V30 20684 H 1883.71 1.62478 -4.987 0
M  V30 20685 H 1885.18 3.25189 -4.46045 0
M  V30 20686 H 1885.66 3.40725 -2.77134 0
M  V30 20687 H 1886.26 2.03884 -3.73245 0
M  V30 20688 N 1884.58 1.50751 0.459565 0
M  V30 20689 C 1885.8 1.66367 1.23842 0
M  V30 20690 C 1886.23 0.351355 1.84789 0
M  V30 20691 O 1885.59 -0.686103 1.67816 0
M  V30 20692 C 1885.63 2.76521 2.31449 0
M  V30 20693 O 1884.74 2.38576 3.36386 0
M  V30 20694 H 1884.08 0.555447 0.363833 0
M  V30 20695 H 1886.61 1.97193 0.545538 0
M  V30 20696 H 1886.62 2.99943 2.76583 0
M  V30 20697 H 1885.29 3.71759 1.86462 0
M  V30 20698 H 1883.87 2.25643 2.96883 0
M  V30 20699 N 1886.06 -0.713531 1.40522 0
M  V30 20700 C 1887.3 -1.47052 1.38637 0
M  V30 20701 C 1887.62 -1.94998 -0.00984474 0
M  V30 20702 O 1886.89 -1.70486 -0.964959 0
M  V30 20703 H 1885.47 -0.545577 0.51025 0
M  V30 20704 H 1888.14 -0.84572 1.75595 0
M  V30 20705 H 1887.23 -2.34237 2.06251 0
M  V30 20706 N 1887.53 -1.26053 -0.945962 0
M  V30 20707 C 1888.46 -1.09687 -2.06134 0
M  V30 20708 C 1889.44 -0.00341513 -1.701 0
M  V30 20709 O 1890.63 -0.174559 -1.93414 0
M  V30 20710 C 1887.76 -0.724007 -3.3967 0
M  V30 20711 C 1886.71 -1.76866 -3.89747 0
M  V30 20712 C 1886.04 -1.25025 -5.19878 0
M  V30 20713 C 1887.34 -3.16923 -4.15159 0
M  V30 20714 H 1889.03 -2.02986 -2.20084 0
M  V30 20715 H 1886.58 -0.977346 -1.05754 0
M  V30 20716 H 1888.53 -0.596411 -4.17158 0
M  V30 20717 H 1887.26 0.244695 -3.25682 0
M  V30 20718 H 1885.92 -1.88485 -3.14435 0
M  V30 20719 H 1885.56 -0.271527 -5.02267 0
M  V30 20720 H 1885.26 -1.94853 -5.54352 0
M  V30 20721 H 1886.79 -1.13523 -5.99954 0
M  V30 20722 H 1888.2 -3.08409 -4.83277 0
M  V30 20723 H 1886.6 -3.84299 -4.60906 0
M  V30 20724 H 1887.67 -3.63337 -3.21114 0
M  V30 20725 N 1889.01 1.14984 -1.07779 0
M  V30 20726 C 1890.26 1.86148 -0.804777 0
M  V30 20727 C 1890.59 1.82364 0.667615 0
M  V30 20728 O 1889.87 1.24982 1.4903 0
M  V30 20729 C 1890.15 3.35067 -1.31916 0
M  V30 20730 C 1890 3.4746 -2.85642 0
M  V30 20731 C 1891.32 4.29961 -0.939217 0
M  V30 20732 H 1888.44 0.675899 -0.293818 0
M  V30 20733 H 1891.08 1.35065 -1.33632 0
M  V30 20734 H 1889.23 3.78702 -0.867011 0
M  V30 20735 H 1890.9 3.12658 -3.3918 0
M  V30 20736 H 1889.15 2.88878 -3.23623 0
M  V30 20737 H 1889.82 4.52109 -3.16704 0
M  V30 20738 H 1892.29 3.94309 -1.3289 0
M  V30 20739 H 1891.17 5.32633 -1.32641 0
M  V30 20740 H 1891.43 4.4183 0.15442 0
M  V30 20741 N 1890.49 0.862526 1.31902 0
M  V30 20742 C 1891.44 0.284531 2.26218 0
M  V30 20743 C 1892.42 -0.57415 1.50307 0
M  V30 20744 O 1893.62 -0.422246 1.7189 0
M  V30 20745 C 1890.74 -0.5194 3.39348 0
M  V30 20746 C 1889.83 0.352108 4.22636 0
M  V30 20747 N 1890.22 1.44208 4.84807 0
M  V30 20748 C 1888.52 0.143232 4.4577 0
M  V30 20749 C 1889.22 1.97889 5.47005 0
M  V30 20750 N 1888.2 1.27694 5.28389 0
M  V30 20751 H 1892 1.1177 2.71817 0
M  V30 20752 H 1889.51 0.709483 1.46083 0
M  V30 20753 H 1891.51 -0.94995 4.05933 0
M  V30 20754 H 1890.17 -1.35027 2.95293 0
M  V30 20755 H 1891.18 1.82501 4.84679 0
M  V30 20756 H 1887.86 -0.652289 4.12373 0
M  V30 20757 H 1889.25 2.89298 6.06429 0
M  V30 20758 N 1891.97 -1.4484 0.62123 0
M  V30 20759 C 1893.38 -1.57016 0.286009 0
M  V30 20760 C 1893.58 -1.6104 -1.21113 0
M  V30 20761 O 1892.64 -1.54807 -1.99477 0
M  V30 20762 C 1893.95 -2.84652 0.969209 0
M  V30 20763 C 1895.5 -2.98349 0.946414 0
M  V30 20764 C 1895.98 -4.28773 1.60989 0
M  V30 20765 N 1897.47 -4.35564 1.57601 0
M  V30 20766 C 1898.2 -5.3518 2.0584 0
M  V30 20767 N 1897.7 -6.41256 2.62226 0
M  V30 20768 N 1899.49 -5.26625 1.96527 0
M  V30 20769 H 1891.64 -1.40471 1.59316 0
M  V30 20770 H 1893.91 -0.672493 0.668174 0
M  V30 20771 H 1893.61 -2.87629 2.02392 0
M  V30 20772 H 1893.49 -3.7386 0.500859 0
M  V30 20773 H 1895.87 -2.94931 -0.0997935 0
M  V30 20774 H 1895.95 -2.10516 1.45316 0
M  V30 20775 H 1895.6 -4.3295 2.65549 0
M  V30 20776 H 1895.53 -5.15447 1.07805 0
M  V30 20777 H 1898.02 -3.59519 1.16424 0
M  V30 20778 H 1898.33 -7.13536 2.96792 0
M  V30 20779 H 1896.68 -6.41969 2.66272 0
M  V30 20780 H 1899.87 -4.42664 1.52206 0
M  V30 20781 H 1900.04 -6.04107 2.34434 0
M  V30 20782 N 1893.45 -0.361184 -1.53405 0
M  V30 20783 C 1894.86 -0.00994785 -1.59597 0
M  V30 20784 C 1895.06 1.47156 -1.37649 0
M  V30 20785 O 1894.12 2.23259 -1.17947 0
M  V30 20786 C 1895.43 -0.461942 -2.97131 0
M  V30 20787 C 1896.98 -0.415787 -3.10226 0
M  V30 20788 C 1897.45 -0.843524 -4.50165 0
M  V30 20789 N 1898.95 -0.798408 -4.56267 0
M  V30 20790 C 1899.68 -1.10112 -5.62728 0
M  V30 20791 N 1899.18 -1.47288 -6.76962 0
M  V30 20792 N 1900.97 -1.0242 -5.5269 0
M  V30 20793 H 1893.12 -1.32601 -1.65924 0
M  V30 20794 H 1895.38 -0.541705 -0.777985 0
M  V30 20795 H 1895.09 -1.49559 -3.18316 0
M  V30 20796 H 1894.96 0.15373 -3.76887 0
M  V30 20797 H 1897.35 0.608719 -2.88754 0
M  V30 20798 H 1897.43 -1.0669 -2.32489 0
M  V30 20799 H 1897.08 -1.86612 -4.72375 0
M  V30 20800 H 1897.01 -0.16971 -5.26326 0
M  V30 20801 H 1899.5 -0.524463 -3.74243 0
M  V30 20802 H 1899.81 -1.68824 -7.54134 0
M  V30 20803 H 1898.15 -1.51149 -6.78365 0
M  V30 20804 H 1901.35 -0.732979 -4.62326 0
M  V30 20805 H 1901.52 -1.26344 -6.35564 0
M  V30 20806 N 1894.92 1.57341 -0.0902386 0
M  V30 20807 C 1895.87 2.14982 0.887997 0
M  V30 20808 C 1896.87 1.09142 1.29555 0
M  V30 20809 O 1898.07 1.27494 1.27064 0
M  V30 20810 H 1894.45 0.687648 0.304376 0
M  V30 20811 H 1896.42 2.96008 0.377094 0
M  V30 20812 C 1895.17 2.74101 2.13925 0
M  V30 20813 H 1894.49 3.55226 1.83452 0
M  V30 20814 H 1895.93 3.18007 2.80442 0
M  V30 20815 C 1894.39 1.69757 2.91005 0
M  V30 20816 O 1894.92 1.13359 3.85373 0
M  V30 20817 N 1893.13 1.40362 2.54454 0
M  V30 20818 H 1892.67 1.86414 1.77785 0
M  V30 20819 H 1892.63 0.707837 3.06328 0
M  V30 20820 N 1896.4 -0.183431 1.56529 0
M  V30 20821 C 1897.64 -0.908628 1.83094 0
M  V30 20822 C 1898.01 -1.79952 0.669429 0
M  V30 20823 O 1899.21 -2.56139 0.81524 0
M  V30 20824 C 1897.48 -1.69353 3.14729 0
M  V30 20825 S 1899.04 -2.46915 3.62737 0
M  V30 20826 H 1895.86 -0.304549 0.642472 0
M  V30 20827 H 1898.46 -0.171145 1.94749 0
M  V30 20828 H 1897.16 -1.02987 3.97268 0
M  V30 20829 H 1896.69 -2.47261 3.05983 0
M  V30 20830 H 1898.71 -3.71359 3.29101 0
M  V30 20831 N 1897.88 -1.50992 -0.451564 0
M  V30 20832 C 1898.83 -1.71277 -1.54703 0
M  V30 20833 C 1899.8 -0.554233 -1.56581 0
M  V30 20834 O 1900.98 -0.787053 -1.73811 0
M  V30 20835 C 1898.12 -1.83078 -2.92535 0
M  V30 20836 C 1897.24 -3.10559 -3.00295 0
M  V30 20837 C 1896.37 -3.13039 -4.29162 0
M  V30 20838 C 1895.41 -4.34893 -4.30737 0
M  V30 20839 N 1894.55 -4.35002 -5.51106 0
M  V30 20840 H 1899.39 -2.64791 -1.3671 0
M  V30 20841 H 1896.92 -1.31243 -0.664356 0
M  V30 20842 H 1898.88 -1.87901 -3.7249 0
M  V30 20843 H 1897.51 -0.929851 -3.09117 0
M  V30 20844 H 1896.56 -3.15113 -2.13091 0
M  V30 20845 H 1897.88 -4.00503 -2.9732 0
M  V30 20846 H 1897.03 -3.167 -5.17481 0
M  V30 20847 H 1895.77 -2.20959 -4.34774 0
M  V30 20848 H 1894.77 -4.31423 -3.40814 0
M  V30 20849 H 1896 -5.28221 -4.26801 0
M  V30 20850 H 1893.94 -3.45785 -5.57466 0
M  V30 20851 H 1893.86 -5.18738 -5.49952 0
M  V30 20852 H 1895.13 -4.42836 -6.41496 0
M  V30 20853 N 1899.36 0.706069 -1.40899 0
M  V30 20854 C 1900.31 1.82011 -1.41918 0
M  V30 20855 C 1901.28 1.6381 -0.274879 0
M  V30 20856 O 1902.46 1.84809 -0.474366 0
M  V30 20857 C 1899.6 3.19805 -1.29687 0
M  V30 20858 C 1898.71 3.49512 -2.53901 0
M  V30 20859 C 1897.85 4.76863 -2.34041 0
M  V30 20860 C 1896.89 4.99504 -3.53783 0
M  V30 20861 N 1896.02 6.18074 -3.33059 0
M  V30 20862 H 1900.86 1.80474 -2.37135 0
M  V30 20863 H 1898.4 0.881471 -1.17765 0
M  V30 20864 H 1900.36 3.99389 -1.206 0
M  V30 20865 H 1898.99 3.20546 -0.380837 0
M  V30 20866 H 1898.04 2.64411 -2.73479 0
M  V30 20867 H 1899.35 3.62147 -3.43002 0
M  V30 20868 H 1898.51 5.64482 -2.22361 0
M  V30 20869 H 1897.25 4.66454 -1.42379 0
M  V30 20870 H 1896.25 4.10336 -3.65929 0
M  V30 20871 H 1897.48 5.11779 -4.46385 0
M  V30 20872 H 1895.42 6.08898 -2.44088 0
M  V30 20873 H 1895.34 6.3143 -4.15731 0
M  V30 20874 H 1896.61 7.08456 -3.25131 0
M  V30 20875 N 1900.84 1.26553 0.939264 0
M  V30 20876 C 1901.75 1.10059 2.07181 0
M  V30 20877 C 1902.76 0.033599 1.73968 0
M  V30 20878 O 1903.94 0.237723 1.99992 0
M  V30 20879 C 1901 0.737342 3.38769 0
M  V30 20880 C 1900.06 1.88395 3.85753 0
M  V30 20881 C 1899.3 1.53794 5.11061 0
M  V30 20882 O 1899.52 0.440543 5.68696 0
M  V30 20883 O 1898.45 2.37332 5.53134 0
M  V30 20884 H 1902.28 2.05075 2.24004 0
M  V30 20885 H 1899.87 1.05633 1.05651 0
M  V30 20886 H 1901.75 0.547578 4.17827 0
M  V30 20887 H 1900.42 -0.183404 3.2318 0
M  V30 20888 H 1899.33 2.1287 3.07632 0
M  V30 20889 H 1900.66 2.78449 4.05865 0
M  V30 20890 N 1902.31 -1.14411 1.08387 0
M  V30 20891 C 1903.26 -2.19489 0.713668 0
M  V30 20892 C 1904.23 -1.63368 -0.300036 0
M  V30 20893 O 1905.42 -1.8991 -0.184088 0
M  V30 20894 C 1902.56 -3.44859 0.128925 0
M  V30 20895 C 1901.67 -4.15132 1.19538 0
M  V30 20896 C 1900.8 -5.28084 0.574521 0
M  V30 20897 C 1899.84 -5.9019 1.62303 0
M  V30 20898 N 1898.98 -6.94593 1.02398 0
M  V30 20899 H 1903.82 -2.50505 1.61404 0
M  V30 20900 H 1901.36 -1.23014 0.806595 0
M  V30 20901 H 1903.32 -4.16578 -0.227814 0
M  V30 20902 H 1901.95 -3.14327 -0.734757 0
M  V30 20903 H 1901 -3.41804 1.66955 0
M  V30 20904 H 1902.31 -4.57387 1.98994 0
M  V30 20905 H 1901.46 -6.06473 0.166017 0
M  V30 20906 H 1900.2 -4.8705 -0.251701 0
M  V30 20907 H 1899.21 -5.10505 2.0412 0
M  V30 20908 H 1900.43 -6.33299 2.45172 0
M  V30 20909 H 1898.38 -6.55635 0.218849 0
M  V30 20910 H 1898.3 -7.35332 1.75564 0
M  V30 20911 H 1899.56 -7.76857 0.641327 0
M  V30 20912 N 1903.79 -0.869509 -1.31443 0
M  V30 20913 C 1904.74 -0.323034 -2.28528 0
M  V30 20914 C 1905.71 0.578245 -1.5571 0
M  V30 20915 O 1906.89 0.509983 -1.83858 0
M  V30 20916 C 1904.03 0.469861 -3.41886 0
M  V30 20917 C 1903.15 -0.458883 -4.29556 0
M  V30 20918 C 1902.28 0.348092 -5.30058 0
M  V30 20919 C 1901.32 -0.577109 -6.09373 0
M  V30 20920 N 1900.46 0.193589 -7.01833 0
M  V30 20921 H 1905.3 -1.15614 -2.74659 0
M  V30 20922 H 1902.84 -0.581526 -1.35117 0
M  V30 20923 H 1904.79 0.945338 -4.06349 0
M  V30 20924 H 1903.42 1.26767 -2.96867 0
M  V30 20925 H 1902.48 -1.05281 -3.65541 0
M  V30 20926 H 1903.79 -1.16833 -4.84924 0
M  V30 20927 H 1902.94 0.886098 -6.00194 0
M  V30 20928 H 1901.68 1.09083 -4.75344 0
M  V30 20929 H 1900.69 -1.12687 -5.38128 0
M  V30 20930 H 1901.91 -1.31869 -6.66174 0
M  V30 20931 H 1899.86 0.919147 -6.49529 0
M  V30 20932 H 1899.77 -0.456525 -7.5462 0
M  V30 20933 H 1901.04 0.71284 -7.76234 0
M  V30 20934 N 1905.27 1.44508 -0.628902 0
M  V30 20935 C 1906.5 2.0613 -0.139308 0
M  V30 20936 C 1906.91 1.47055 1.19044 0
M  V30 20937 O 1906.25 0.587051 1.74067 0
M  V30 20938 C 1906.31 3.59462 0.0521977 0
M  V30 20939 C 1905.98 4.4099 -1.19904 0
M  V30 20940 C 1906.97 4.74613 -2.12222 0
M  V30 20941 C 1904.66 4.81401 -1.43383 0
M  V30 20942 C 1906.65 5.47528 -3.26332 0
M  V30 20943 C 1904.34 5.54065 -2.5779 0
M  V30 20944 C 1905.34 5.87047 -3.49091 0
M  V30 20945 O 1905.03 6.58233 -4.61503 0
M  V30 20946 H 1904.76 0.671728 -0.0758762 0
M  V30 20947 H 1907.31 1.86402 -0.862745 0
M  V30 20948 H 1905.54 3.77671 0.830756 0
M  V30 20949 H 1907.23 4.02857 0.496066 0
M  V30 20950 H 1908 4.43933 -1.95316 0
M  V30 20951 H 1903.88 4.5515 -0.73209 0
M  V30 20952 H 1907.42 5.7319 -3.97617 0
M  V30 20953 H 1903.32 5.8416 -2.7464 0
M  V30 20954 H 1904.09 6.767 -4.60456 0
M  V30 20955 N 1906.75 0.369315 1.53212 0
M  V30 20956 C 1907.7 -0.490481 2.2737 0
M  V30 20957 C 1908.69 -1.08021 1.30491 0
M  V30 20958 O 1909.9 -1.02298 1.48105 0
M  V30 20959 H 1906.27 -0.176899 0.730897 0
M  V30 20960 H 1908.24 0.156696 2.97988 0
M  V30 20961 C 1906.99 -1.61628 3.0785 0
M  V30 20962 H 1906.32 -1.1718 3.82242 0
M  V30 20963 H 1907.76 -2.19252 3.62911 0
M  V30 20964 C 1906.21 -2.56077 2.18921 0
M  V30 20965 O 1906.74 -3.58988 1.80251 0
M  V30 20966 N 1904.95 -2.25352 1.83479 0
M  V30 20967 H 1904.5 -1.41701 2.15124 0
M  V30 20968 H 1904.46 -2.888 1.24264 0
M  V30 20969 N 1908.23 -1.57291 0.0985816 0
M  V30 20970 C 1909.18 -2.1545 -0.876584 0
M  V30 20971 C 1910.17 -1.09827 -1.28974 0
M  V30 20972 O 1911.38 -1.28166 -1.26386 0
M  V30 20973 H 1907.75 -0.689252 -0.300725 0
M  V30 20974 H 1909.72 -2.96204 -0.36139 0
M  V30 20975 C 1908.47 -2.75232 -2.12468 0
M  V30 20976 H 1907.79 -3.56194 -1.81565 0
M  V30 20977 H 1909.23 -3.19489 -2.78752 0
M  V30 20978 C 1907.69 -1.71298 -2.90101 0
M  V30 20979 O 1908.22 -1.15402 -3.84767 0
M  V30 20980 N 1906.43 -1.41709 -2.53706 0
M  V30 20981 H 1905.98 -1.87354 -1.76794 0
M  V30 20982 H 1905.93 -0.724072 -3.05949 0
M  V30 20983 N 1909.71 0.175127 -1.56624 0
M  V30 20984 C 1910.95 0.890605 -1.81418 0
M  V30 20985 C 1911.27 1.82946 -0.674958 0
M  V30 20986 O 1910.54 1.93504 0.305439 0
M  V30 20987 H 1909.12 0.331864 -0.669235 0
M  V30 20988 H 1911.79 0.175855 -1.94105 0
M  V30 20989 H 1910.88 1.46979 -2.75325 0
M  V30 20990 N 1911.18 1.5123 0.44355 0
M  V30 20991 C 1912.09 1.74928 1.56324 0
M  V30 20992 C 1913.11 0.633267 1.62067 0
M  V30 20993 O 1914.29 0.914808 1.79425 0
M  V30 20994 C 1911.35 1.86361 2.92354 0
M  V30 20995 C 1910.41 3.10196 2.96778 0
M  V30 20996 C 1909.64 3.21073 4.26319 0
M  V30 20997 O 1909.87 2.38043 5.18355 0
M  V30 20998 O 1908.8 4.14008 4.369 0
M  V30 20999 H 1912.63 2.69898 1.39243 0
M  V30 21000 H 1910.21 1.35656 0.62592 0
M  V30 21001 H 1912.09 1.95901 3.73096 0
M  V30 21002 H 1910.77 0.945775 3.09575 0
M  V30 21003 H 1909.68 3.06138 2.15013 0
M  V30 21004 H 1911.01 4.01648 2.84499 0
M  V30 21005 N 1912.66 -0.698586 1.41271 0
M  V30 21006 C 1913.59 -1.82505 1.4565 0
M  V30 21007 C 1914.57 -1.67149 0.315497 0
M  V30 21008 O 1915.76 -1.86926 0.526518 0
M  V30 21009 C 1912.89 -3.20616 1.33502 0
M  V30 21010 C 1911.84 -3.50672 2.45383 0
M  V30 21011 C 1911.17 -4.88107 2.18302 0
M  V30 21012 C 1912.47 -3.49952 3.87725 0
M  V30 21013 H 1914.16 -1.79098 2.39926 0
M  V30 21014 H 1911.71 -0.860237 1.15481 0
M  V30 21015 H 1913.66 -3.9913 1.35179 0
M  V30 21016 H 1912.38 -3.24642 0.357101 0
M  V30 21017 H 1911.04 -2.74507 2.42984 0
M  V30 21018 H 1910.69 -4.88755 1.1886 0
M  V30 21019 H 1910.39 -5.09182 2.9327 0
M  V30 21020 H 1911.92 -5.68934 2.21689 0
M  V30 21021 H 1913.33 -4.18476 3.91855 0
M  V30 21022 H 1911.73 -3.82559 4.62351 0
M  V30 21023 H 1912.8 -2.48988 4.16093 0
M  V30 21024 N 1914.14 -1.27049 -0.93254 0
M  V30 21025 C 1915.05 -1.11156 -2.06595 0
M  V30 21026 C 1916.07 -0.0428245 -1.73947 0
M  V30 21027 O 1917.24 -0.248326 -1.99863 0
M  V30 21028 C 1914.31 -0.755297 -3.38373 0
M  V30 21029 C 1913.37 -1.90439 -3.84749 0
M  V30 21030 C 1912.6 -1.56502 -5.10238 0
M  V30 21031 O 1912.82 -0.470696 -5.68455 0
M  V30 21032 O 1911.76 -2.40262 -5.51868 0
M  V30 21033 H 1915.58 -2.0626 -2.22914 0
M  V30 21034 H 1913.17 -1.06191 -1.05089 0
M  V30 21035 H 1915.05 -0.569728 -4.17531 0
M  V30 21036 H 1913.73 0.166262 -3.23273 0
M  V30 21037 H 1912.63 -2.14498 -3.06499 0
M  V30 21038 H 1913.97 -2.80598 -4.04383 0
M  V30 21039 N 1915.62 1.13835 -1.08993 0
M  V30 21040 C 1916.53 2.22715 -0.73724 0
M  V30 21041 C 1917.54 1.72064 0.258869 0
M  V30 21042 O 1918.72 2.01145 0.101321 0
M  V30 21043 C 1915.78 3.46338 -0.158285 0
M  V30 21044 C 1914.85 4.11902 -1.20977 0
M  V30 21045 C 1914.08 5.29624 -0.658349 0
M  V30 21046 O 1914.3 5.68023 0.520219 0
M  V30 21047 O 1913.24 5.85121 -1.41126 0
M  V30 21048 H 1917.06 2.55247 -1.64568 0
M  V30 21049 H 1914.65 1.21882 -0.864013 0
M  V30 21050 H 1916.53 4.2109 0.161481 0
M  V30 21051 H 1915.2 3.15517 0.723235 0
M  V30 21052 H 1914.11 3.38996 -1.58216 0
M  V30 21053 H 1915.44 4.46843 -2.06378 0
M  V30 21054 N 1917.1 0.876467 1.3098 0
M  V30 21055 C 1918.33 0.504582 2.00344 0
M  V30 21056 C 1918.73 -0.909186 1.65923 0
M  V30 21057 O 1918.08 -1.60812 0.887988 0
M  V30 21058 C 1918.14 0.589519 3.54634 0
M  V30 21059 C 1917.8 1.96607 4.12547 0
M  V30 21060 C 1918.8 2.9344 4.29172 0
M  V30 21061 C 1916.48 2.26914 4.48124 0
M  V30 21062 C 1918.48 4.18721 4.80574 0
M  V30 21063 C 1916.17 3.52443 4.99227 0
M  V30 21064 C 1917.16 4.48161 5.15403 0
M  V30 21065 O 1916.85 5.71464 5.65406 0
M  V30 21066 H 1916.58 0.194422 0.647438 0
M  V30 21067 H 1919.14 1.18126 1.68034 0
M  V30 21068 H 1917.37 -0.144102 3.86431 0
M  V30 21069 H 1919.06 0.230131 4.05247 0
M  V30 21070 H 1919.82 2.71335 4.01998 0
M  V30 21071 H 1915.7 1.53184 4.34805 0
M  V30 21072 H 1919.25 4.9344 4.93115 0
M  V30 21073 H 1915.14 3.74389 5.25836 0
M  V30 21074 H 1915.91 5.73727 5.83764 0
M  V30 21075 N 1918.57 -1.44173 0.636557 0
M  V30 21076 C 1919.8 -2.06053 0.150237 0
M  V30 21077 C 1920.21 -1.47684 -1.18263 0
M  V30 21078 O 1919.55 -0.596274 -1.73753 0
M  V30 21079 C 1919.62 -3.59485 -0.0331338 0
M  V30 21080 C 1919.28 -4.40348 1.22241 0
M  V30 21081 C 1920.28 -4.73481 2.14736 0
M  V30 21082 C 1917.96 -4.80633 1.45934 0
M  V30 21083 C 1919.96 -5.45789 3.29231 0
M  V30 21084 C 1917.64 -5.5269 2.60725 0
M  V30 21085 C 1918.64 -5.85188 3.52199 0
M  V30 21086 O 1918.33 -6.55776 4.64987 0
M  V30 21087 H 1918.06 -0.671316 0.0794375 0
M  V30 21088 H 1920.62 -1.85942 0.872618 0
M  V30 21089 H 1918.85 -3.78106 -0.810716 0
M  V30 21090 H 1920.53 -4.03115 -0.474694 0
M  V30 21091 H 1921.3 -4.42891 1.97668 0
M  V30 21092 H 1917.18 -4.54755 0.756218 0
M  V30 21093 H 1920.72 -5.71073 4.00651 0
M  V30 21094 H 1916.62 -5.82695 2.77734 0
M  V30 21095 H 1917.39 -6.74248 4.64038 0
M  V30 21096 N 1920.05 -0.377435 -1.53014 0
M  V30 21097 C 1921 0.463415 -2.261 0
M  V30 21098 C 1921.97 1.06771 -1.27237 0
M  V30 21099 O 1923.15 1.09797 -1.56043 0
M  V30 21100 C 1920.29 1.59103 -3.06236 0
M  V30 21101 C 1919.41 1.01076 -4.20009 0
M  V30 21102 C 1918.54 2.10845 -4.87563 0
M  V30 21103 C 1917.58 1.50345 -5.93349 0
M  V30 21104 N 1916.72 2.53995 -6.54546 0
M  V30 21105 H 1921.56 -0.166315 -2.97536 0
M  V30 21106 H 1919.09 -0.0938442 -1.468 0
M  V30 21107 H 1921.05 2.25542 -3.5098 0
M  V30 21108 H 1919.68 2.19125 -2.37032 0
M  V30 21109 H 1918.73 0.236306 -3.79665 0
M  V30 21110 H 1920.05 0.528534 -4.95992 0
M  V30 21111 H 1919.2 2.85079 -5.35551 0
M  V30 21112 H 1917.94 2.62423 -4.11079 0
M  V30 21113 H 1916.94 0.746299 -5.44711 0
M  V30 21114 H 1918.17 0.995763 -6.7176 0
M  V30 21115 H 1916.12 3.04765 -5.80908 0
M  V30 21116 H 1916.03 2.10494 -7.26105 0
M  V30 21117 H 1917.3 3.27896 -7.07181 0
M  V30 21118 N 1921.53 1.57237 -0.106922 0
M  V30 21119 C 1922.44 2.18202 0.861685 0
M  V30 21120 C 1923.46 1.15476 1.30159 0
M  V30 21121 O 1924.63 1.47896 1.36707 0
M  V30 21122 C 1921.7 2.7598 2.09847 0
M  V30 21123 C 1920.76 3.93702 1.71164 0
M  V30 21124 C 1919.99 4.48716 2.88946 0
M  V30 21125 O 1920.21 4.02645 4.04021 0
M  V30 21126 O 1919.15 5.39573 2.66729 0
M  V30 21127 H 1922.97 3.01402 0.372924 0
M  V30 21128 H 1920.56 1.48933 0.118058 0
M  V30 21129 H 1922.44 3.12861 2.82305 0
M  V30 21130 H 1921.12 1.9582 2.57753 0
M  V30 21131 H 1920.02 3.61613 0.958499 0
M  V30 21132 H 1921.36 4.75262 1.28011 0
M  V30 21133 N 1923.01 -0.166818 1.56715 0
M  V30 21134 C 1923.96 -1.20646 1.96757 0
M  V30 21135 C 1924.93 -1.43751 0.832153 0
M  V30 21136 O 1926.11 -1.56416 1.09264 0
M  V30 21137 C 1923.25 -2.53971 2.3365 0
M  V30 21138 C 1922.36 -2.38207 3.60391 0
M  V30 21139 C 1921.5 -3.6443 3.86476 0
M  V30 21140 C 1920.54 -3.43618 5.0655 0
M  V30 21141 N 1919.67 -4.61923 5.28746 0
M  V30 21142 H 1924.51 -0.857983 2.85382 0
M  V30 21143 H 1922.05 -0.412238 1.41206 0
M  V30 21144 H 1924.01 -3.31684 2.53064 0
M  V30 21145 H 1922.64 -2.86805 1.48131 0
M  V30 21146 H 1921.69 -1.51648 3.48866 0
M  V30 21147 H 1923 -2.18777 4.48261 0
M  V30 21148 H 1922.16 -4.50578 4.06282 0
M  V30 21149 H 1920.9 -3.86844 2.9699 0
M  V30 21150 H 1919.9 -2.55858 4.86638 0
M  V30 21151 H 1921.13 -3.22623 5.97571 0
M  V30 21152 H 1919.07 -4.84547 4.42211 0
M  V30 21153 H 1918.99 -4.45423 6.10848 0
M  V30 21154 H 1920.26 -5.4934 5.53033 0
M  V30 21155 N 1924.49 -1.51463 -0.435524 0
M  V30 21156 C 1925.42 -1.69104 -1.54715 0
M  V30 21157 C 1926.43 -0.571681 -1.52432 0
M  V30 21158 O 1927.62 -0.846054 -1.57176 0
M  V30 21159 C 1924.72 -1.69217 -2.9363 0
M  V30 21160 C 1923.89 -2.97766 -3.20397 0
M  V30 21161 C 1922.95 -2.90043 -4.39046 0
M  V30 21162 O 1921.98 -3.63985 -4.37611 0
M  V30 21163 N 1923.18 -2.06018 -5.42712 0
M  V30 21164 H 1925.95 -2.64998 -1.39985 0
M  V30 21165 H 1923.51 -1.49371 -0.624486 0
M  V30 21166 H 1925.5 -1.61616 -3.71029 0
M  V30 21167 H 1924.07 -0.809085 -3.01948 0
M  V30 21168 H 1923.29 -3.19222 -2.31282 0
M  V30 21169 H 1924.58 -3.82857 -3.35109 0
M  V30 21170 H 1923.97 -1.45324 -5.46715 0
M  V30 21171 H 1922.53 -2.04295 -6.18956 0
M  V30 21172 N 1925.96 0.691085 -1.4164 0
M  V30 21173 C 1926.91 1.82625 -1.44051 0
M  V30 21174 C 1927.91 1.66388 -0.318032 0
M  V30 21175 O 1929.11 1.73194 -0.490276 0
M  V30 21176 H 1925.49 0.601889 -0.450815 0
M  V30 21177 H 1927.46 1.77709 -2.39713 0
M  V30 21178 C 1926.21 3.20676 -1.34395 0
M  V30 21179 H 1925.53 3.3379 -2.20056 0
M  V30 21180 H 1926.97 4.0017 -1.40143 0
M  V30 21181 C 1925.43 3.36852 -0.0568027 0
M  V30 21182 O 1925.96 3.91562 0.896762 0
M  V30 21183 N 1924.17 2.90593 0.0207452 0
M  V30 21184 H 1923.71 2.46257 -0.755995 0
M  V30 21185 H 1923.67 3.01794 0.88136 0
M  V30 21186 N 1927.44 1.27542 0.925789 0
M  V30 21187 C 1928.35 1.1225 2.06002 0
M  V30 21188 C 1929.37 0.0520487 1.73922 0
M  V30 21189 O 1930.54 0.258921 1.99729 0
M  V30 21190 C 1927.61 0.773231 3.37967 0
M  V30 21191 C 1926.67 1.92476 3.83733 0
M  V30 21192 C 1925.9 1.59206 5.09401 0
M  V30 21193 O 1926.13 0.500836 5.68197 0
M  V30 21194 O 1925.06 2.43185 5.50586 0
M  V30 21195 H 1928.89 2.07439 2.21817 0
M  V30 21196 H 1926.47 1.06747 1.04525 0
M  V30 21197 H 1928.35 0.591863 4.17223 0
M  V30 21198 H 1927.03 -0.149116 3.23356 0
M  V30 21199 H 1925.94 2.1612 3.05357 0
M  V30 21200 H 1927.27 2.82738 4.02889 0
M  V30 21201 N 1928.92 -1.13255 1.09595 0
M  V30 21202 C 1929.83 -2.22321 0.74904 0
M  V30 21203 C 1930.85 -1.72198 -0.24974 0
M  V30 21204 O 1932.02 -2.01196 -0.090652 0
M  V30 21205 C 1929.09 -3.4625 0.17665 0
M  V30 21206 C 1928.15 -4.11254 1.2316 0
M  V30 21207 C 1927.38 -5.29267 0.686427 0
M  V30 21208 O 1927.6 -5.68291 -0.490088 0
M  V30 21209 O 1926.54 -5.84365 1.44227 0
M  V30 21210 H 1930.36 -2.5437 1.6592 0
M  V30 21211 H 1927.95 -1.21422 0.870465 0
M  V30 21212 H 1929.83 -4.2117 -0.139147 0
M  V30 21213 H 1928.51 -3.15896 -0.706492 0
M  V30 21214 H 1927.41 -3.38152 1.60012 0
M  V30 21215 H 1928.75 -4.45743 2.08745 0
M  V30 21216 N 1930.4 -0.883401 -1.30514 0
M  V30 21217 C 1931.63 -0.515199 -2.00073 0
M  V30 21218 C 1932.04 0.900374 -1.66403 0
M  V30 21219 O 1931.38 1.60339 -0.896503 0
M  V30 21220 C 1931.44 -0.608317 -3.54316 0
M  V30 21221 C 1931.11 -1.98792 -4.11498 0
M  V30 21222 C 1932.1 -2.95712 -4.2761 0
M  V30 21223 C 1929.79 -2.29288 -4.46914 0
M  V30 21224 C 1931.78 -4.21264 -4.78347 0
M  V30 21225 C 1929.47 -3.55086 -4.9735 0
M  V30 21226 C 1930.47 -4.50888 -5.13019 0
M  V30 21227 O 1930.15 -5.74455 -5.62367 0
M  V30 21228 H 1929.89 -0.197853 -0.646398 0
M  V30 21229 H 1932.44 -1.19015 -1.67405 0
M  V30 21230 H 1930.67 0.123606 -3.86502 0
M  V30 21231 H 1932.36 -0.251619 -4.05119 0
M  V30 21232 H 1933.13 -2.73463 -4.00553 0
M  V30 21233 H 1929 -1.55488 -4.33987 0
M  V30 21234 H 1932.55 -4.96048 -4.90492 0
M  V30 21235 H 1928.45 -3.77172 -5.23843 0
M  V30 21236 H 1929.21 -5.76814 -5.80713 0
M  V30 21237 N 1931.88 1.43833 -0.644194 0
M  V30 21238 C 1933.12 2.01914 -0.153927 0
M  V30 21239 C 1933.45 1.50758 1.22891 0
M  V30 21240 O 1932.71 0.687354 1.83232 0
M  V30 21241 C 1933.01 3.57249 -0.103941 0
M  V30 21242 C 1932.67 4.27713 -1.42731 0
M  V30 21243 C 1931.33 4.46679 -1.78972 0
M  V30 21244 C 1933.69 4.67695 -2.30024 0
M  V30 21245 C 1931.01 5.0289 -3.0219 0
M  V30 21246 C 1933.37 5.2527 -3.52525 0
M  V30 21247 C 1932.03 5.42453 -3.88974 0
M  V30 21248 H 1931.3 0.738856 -0.0563257 0
M  V30 21249 H 1933.95 1.72428 -0.833108 0
M  V30 21250 H 1932.25 3.86224 0.65866 0
M  V30 21251 H 1933.95 3.99935 0.292124 0
M  V30 21252 H 1930.54 4.1329 -1.1353 0
M  V30 21253 H 1934.72 4.52743 -2.03317 0
M  V30 21254 H 1929.98 5.14379 -3.3049 0
M  V30 21255 H 1934.15 5.55198 -4.2039 0
M  V30 21256 H 1931.78 5.85775 -4.84532 0
M  V30 21257 N 1933.35 0.385544 1.52811 0
M  V30 21258 C 1934.63 -0.255227 1.93928 0
M  V30 21259 C 1935.01 -1.64683 1.32071 0
M  V30 21260 O 1934.36 -2.23242 0.487363 0
M  V30 21261 C 1934.57 -0.285363 3.47831 0
M  V30 21262 C 1935.92 -0.516126 4.21451 0
M  V30 21263 O 1936.94 -0.365732 3.54317 0
M  V30 21264 O 1935.8 -0.810503 5.40456 0
M  V30 21265 H 1932.89 -0.157694 0.811826 0
M  V30 21266 H 1935.44 0.439779 1.63903 0
M  V30 21267 H 1934.21 0.68954 3.85177 0
M  V30 21268 H 1933.84 -1.02545 3.84149 0
M  V30 21269 N 1934.83 -1.57178 0.115259 0
M  V30 21270 C 1935.74 -2.18656 -0.850101 0
M  V30 21271 C 1936.76 -1.16164 -1.29545 0
M  V30 21272 O 1937.93 -1.48619 -1.35921 0
M  V30 21273 C 1935 -2.77089 -2.0838 0
M  V30 21274 C 1934.06 -3.94604 -1.69074 0
M  V30 21275 C 1933.29 -4.50242 -2.86563 0
M  V30 21276 O 1933.52 -4.04782 -4.0188 0
M  V30 21277 O 1932.45 -5.4098 -2.63864 0
M  V30 21278 H 1936.28 -3.01595 -0.356934 0
M  V30 21279 H 1933.86 -1.48993 -0.110158 0
M  V30 21280 H 1935.74 -3.14353 -2.80642 0
M  V30 21281 H 1934.42 -1.97184 -2.56711 0
M  V30 21282 H 1933.33 -3.62116 -0.939308 0
M  V30 21283 H 1934.66 -4.75934 -1.25489 0
M  V30 21284 N 1936.31 0.158505 -1.56801 0
M  V30 21285 C 1937.22 1.2157 -2.00644 0
M  V30 21286 C 1938.24 1.47694 -0.919914 0
M  V30 21287 O 1939.41 1.59591 -1.22853 0
M  V30 21288 C 1936.48 2.53191 -2.36844 0
M  V30 21289 C 1935.54 2.34816 -3.59389 0
M  V30 21290 C 1934.77 3.60161 -3.93853 0
M  V30 21291 O 1935 4.65871 -3.29121 0
M  V30 21292 O 1933.93 3.53508 -4.8715 0
M  V30 21293 H 1937.76 0.873512 -2.90867 0
M  V30 21294 H 1935.34 0.366356 -1.44839 0
M  V30 21295 H 1937.22 3.30812 -2.6104 0
M  V30 21296 H 1935.9 2.86963 -1.4978 0
M  V30 21297 H 1934.8 1.55184 -3.40395 0
M  V30 21298 H 1936.14 2.05964 -4.47034 0
M  V30 21299 N 1937.79 1.51692 0.427485 0
M  V30 21300 C 1939.02 1.68424 1.19653 0
M  V30 21301 C 1939.43 0.385349 1.85234 0
M  V30 21302 O 1938.77 -0.646942 1.71931 0
M  V30 21303 C 1938.83 2.75033 2.31511 0
M  V30 21304 C 1938.5 4.1734 1.86216 0
M  V30 21305 C 1939.49 5.01794 1.3601 0
M  V30 21306 C 1937.18 4.63488 1.93608 0
M  V30 21307 C 1939.17 6.30461 0.937946 0
M  V30 21308 C 1936.86 5.92149 1.51004 0
M  V30 21309 C 1937.86 6.75464 1.0118 0
M  V30 21310 O 1937.55 8.01718 0.591843 0
M  V30 21311 H 1937.28 0.568142 0.36632 0
M  V30 21312 H 1939.83 1.98929 0.511527 0
M  V30 21313 H 1938.06 2.39865 3.03318 0
M  V30 21314 H 1939.75 2.80546 2.9334 0
M  V30 21315 H 1940.52 4.6734 1.29686 0
M  V30 21316 H 1936.4 3.98755 2.31334 0
M  V30 21317 H 1939.94 6.95441 0.548362 0
M  V30 21318 H 1935.84 6.26116 1.57001 0
M  V30 21319 H 1936.6 8.15355 0.716808 0
M  V30 21320 N 1939.27 -0.683564 1.42004 0
M  V30 21321 C 1940.52 -1.43934 1.413 0
M  V30 21322 C 1940.83 -1.95578 0.0296606 0
M  V30 21323 O 1942.04 -2.71316 -0.0999859 0
M  V30 21324 C 1940.49 -2.60331 2.48507 0
M  V30 21325 C 1940.1 -2.15424 3.92806 0
M  V30 21326 C 1941.84 -3.37895 2.56957 0
M  V30 21327 C 1939.75 -3.28851 4.91539 0
M  V30 21328 H 1938.68 -0.540693 0.525516 0
M  V30 21329 H 1941.33 -0.740914 1.67877 0
M  V30 21330 H 1939.71 -3.325 2.15081 0
M  V30 21331 H 1940.89 -1.50466 4.35542 0
M  V30 21332 H 1939.2 -1.50822 3.88126 0
M  V30 21333 H 1941.8 -4.22355 3.27903 0
M  V30 21334 H 1942.14 -3.83896 1.61027 0
M  V30 21335 H 1942.68 -2.72791 2.89534 0
M  V30 21336 H 1939.41 -2.87851 5.88916 0
M  V30 21337 H 1938.93 -3.92619 4.53443 0
M  V30 21338 H 1940.61 -3.9445 5.12853 0
M  V30 21339 N 1940.75 -1.28031 -0.919012 0
M  V30 21340 C 1941.99 -1.14258 -1.66217 0
M  V30 21341 C 1942.31 0.309269 -1.9314 0
M  V30 21342 O 1943.51 0.568038 -2.65491 0
M  V30 21343 C 1941.97 -1.99702 -2.99411 0
M  V30 21344 C 1941.58 -3.49596 -2.80155 0
M  V30 21345 C 1943.32 -1.94601 -3.77267 0
M  V30 21346 C 1941.23 -4.27209 -4.08958 0
M  V30 21347 H 1940.16 -0.424009 -0.623484 0
M  V30 21348 H 1942.81 -1.52521 -1.02028 0
M  V30 21349 H 1941.19 -1.5429 -3.64706 0
M  V30 21350 H 1942.37 -4.02929 -2.23574 0
M  V30 21351 H 1940.68 -3.56167 -2.15718 0
M  V30 21352 H 1943.28 -2.49859 -4.72731 0
M  V30 21353 H 1943.62 -0.92157 -4.05971 0
M  V30 21354 H 1944.15 -2.37954 -3.18783 0
M  V30 21355 H 1940.89 -5.30212 -3.8543 0
M  V30 21356 H 1940.41 -3.7865 -4.65171 0
M  V30 21357 H 1942.09 -4.36847 -4.77256 0
M  V30 21358 N 1942.22 1.12672 -1.10194 0
M  V30 21359 C 1943.16 2.18045 -0.706344 0
M  V30 21360 C 1944.17 1.60779 0.25571 0
M  V30 21361 O 1945.36 1.78454 0.0405568 0
M  V30 21362 C 1942.46 3.38893 -0.021273 0
M  V30 21363 C 1941.63 4.25654 -1.00687 0
M  V30 21364 C 1940.69 5.2501 -0.353745 0
M  V30 21365 O 1939.72 5.60279 -1.00378 0
M  V30 21366 N 1940.92 5.73655 0.888851 0
M  V30 21367 H 1943.68 2.52596 -1.61293 0
M  V30 21368 H 1941.24 1.28071 -0.990431 0
M  V30 21369 H 1943.24 4.0244 0.427064 0
M  V30 21370 H 1941.81 3.02513 0.787681 0
M  V30 21371 H 1941.03 3.5876 -1.63354 0
M  V30 21372 H 1942.31 4.8047 -1.67411 0
M  V30 21373 H 1941.71 5.4716 1.43638 0
M  V30 21374 H 1940.27 6.39101 1.28038 0
M  V30 21375 N 1943.7 0.89031 1.30043 0
M  V30 21376 C 1944.93 0.525833 2.00623 0
M  V30 21377 C 1945.35 -0.87971 1.66261 0
M  V30 21378 O 1944.71 -1.58394 0.882105 0
M  V30 21379 C 1944.76 0.714046 3.5346 0
M  V30 21380 O 1943.86 -0.237685 4.11714 0
M  V30 21381 H 1943.2 0.20656 0.631054 0
M  V30 21382 H 1945.73 1.19932 1.65763 0
M  V30 21383 H 1945.74 0.615086 4.03337 0
M  V30 21384 H 1944.42 1.73881 3.77807 0
M  V30 21385 H 1942.99 -0.0919722 3.72787 0
M  V30 21386 N 1945.18 -1.43489 0.651812 0
M  V30 21387 C 1946.13 -2.30764 -0.0406423 0
M  V30 21388 C 1947.1 -1.44669 -0.816091 0
M  V30 21389 O 1948.28 -1.73541 -0.792978 0
M  V30 21390 C 1945.42 -3.30232 -1.00206 0
M  V30 21391 C 1944.53 -4.31425 -0.222857 0
M  V30 21392 C 1943.67 -5.17975 -1.17794 0
M  V30 21393 C 1942.71 -6.10862 -0.389096 0
M  V30 21394 N 1941.85 -6.90041 -1.2957 0
M  V30 21395 H 1946.69 -2.89431 0.709482 0
M  V30 21396 H 1944.22 -1.42585 0.361636 0
M  V30 21397 H 1946.18 -3.86408 -1.57306 0
M  V30 21398 H 1944.81 -2.73217 -1.71907 0
M  V30 21399 H 1943.86 -3.77554 0.464409 0
M  V30 21400 H 1945.17 -4.97268 0.390608 0
M  V30 21401 H 1944.33 -5.7877 -1.81962 0
M  V30 21402 H 1943.07 -4.52254 -1.82532 0
M  V30 21403 H 1942.07 -5.49156 0.265943 0
M  V30 21404 H 1943.3 -6.78625 0.253855 0
M  V30 21405 H 1941.24 -6.2697 -1.9299 0
M  V30 21406 H 1941.16 -7.52401 -0.736762 0
M  V30 21407 H 1942.43 -7.55342 -1.92557 0
M  V30 21408 N 1946.66 -0.393643 -1.52605 0
M  V30 21409 C 1947.57 0.446642 -2.30309 0
M  V30 21410 C 1948.58 1.06758 -1.374 0
M  V30 21411 O 1949.76 1.07246 -1.70471 0
M  V30 21412 C 1946.82 1.5564 -3.09802 0
M  V30 21413 C 1945.89 0.960113 -4.18426 0
M  V30 21414 C 1945.12 2.01698 -4.94119 0
M  V30 21415 O 1945.34 3.23273 -4.69947 0
M  V30 21416 O 1944.28 1.63186 -5.79357 0
M  V30 21417 H 1948.1 -0.186494 -3.03127 0
M  V30 21418 H 1945.69 -0.157245 -1.4857 0
M  V30 21419 H 1947.57 2.201 -3.59352 0
M  V30 21420 H 1946.24 2.17442 -2.39793 0
M  V30 21421 H 1945.15 0.278648 -3.73061 0
M  V30 21422 H 1946.48 0.386245 -4.90682 0
M  V30 21423 N 1948.14 1.57115 -0.123593 0
M  V30 21424 C 1949.09 2.12114 0.836157 0
M  V30 21425 C 1950.07 1.04305 1.22512 0
M  V30 21426 O 1951.26 1.3053 1.19545 0
M  V30 21427 C 1948.39 2.72776 2.08442 0
M  V30 21428 C 1947.48 3.87673 1.71962 0
M  V30 21429 N 1947.87 4.9453 1.0618 0
M  V30 21430 C 1946.17 3.97942 2.0139 0
M  V30 21431 C 1946.87 5.74861 0.889393 0
M  V30 21432 N 1945.84 5.24838 1.41586 0
M  V30 21433 H 1949.64 2.92108 0.324092 0
M  V30 21434 H 1947.16 1.62209 0.0787292 0
M  V30 21435 H 1949.16 3.10525 2.78172 0
M  V30 21436 H 1947.82 1.94247 2.60188 0
M  V30 21437 H 1948.83 5.12797 0.725245 0
M  V30 21438 H 1945.5 3.30461 2.5515 0
M  V30 21439 H 1946.89 6.70866 0.372697 0
M  V30 21440 N 1949.61 -0.150187 1.56883 0
M  V30 21441 C 1950.56 -1.20473 1.9897 0
M  V30 21442 C 1951.56 -1.44651 0.881609 0
M  V30 21443 O 1952.76 -1.44982 1.06678 0
M  V30 21444 H 1949.14 -0.405449 0.633336 0
M  V30 21445 H 1951.11 -0.823043 2.86825 0
M  V30 21446 C 1949.86 -2.53135 2.38365 0
M  V30 21447 H 1949.18 -2.3536 3.23181 0
M  V30 21448 H 1950.62 -3.25558 2.71639 0
M  V30 21449 C 1949.08 -3.13444 1.23509 0
M  V30 21450 O 1949.61 -3.98133 0.534101 0
M  V30 21451 N 1947.81 -2.72846 1.00016 0
M  V30 21452 H 1947.36 -2.04076 1.57196 0
M  V30 21453 H 1947.32 -3.13531 0.233557 0
M  V30 21454 N 1951.09 -1.51916 -0.419434 0
M  V30 21455 C 1952.32 -1.69302 -1.1893 0
M  V30 21456 C 1952.74 -0.398024 -1.84557 0
M  V30 21457 O 1952.09 0.625083 -1.71461 0
M  V30 21458 C 1952.14 -2.82139 -2.26009 0
M  V30 21459 O 1951.86 -4.06623 -1.63064 0
M  V30 21460 C 1953.37 -3.10947 -3.15954 0
M  V30 21461 H 1950.59 -0.567657 -0.357781 0
M  V30 21462 H 1953.13 -1.98424 -0.494807 0
M  V30 21463 H 1951.28 -2.55565 -2.91144 0
M  V30 21464 H 1951.7 -4.69423 -2.33971 0
M  V30 21465 H 1953.17 -3.93438 -3.87183 0
M  V30 21466 H 1953.65 -2.24078 -3.77738 0
M  V30 21467 H 1954.26 -3.39246 -2.56499 0
M  V30 21468 N 1952.57 0.676023 -1.42365 0
M  V30 21469 C 1953.5 1.80165 -1.48536 0
M  V30 21470 C 1954.48 1.66625 -0.342049 0
M  V30 21471 O 1955.67 1.86065 -0.55619 0
M  V30 21472 C 1952.8 3.18451 -1.38586 0
M  V30 21473 C 1951.75 3.46724 -2.50931 0
M  V30 21474 C 1951.08 4.84572 -2.2604 0
M  V30 21475 C 1952.38 3.4374 -3.93243 0
M  V30 21476 H 1954.07 1.75258 -2.42745 0
M  V30 21477 H 1951.62 0.841756 -1.16835 0
M  V30 21478 H 1953.57 3.96929 -1.41511 0
M  V30 21479 H 1952.29 3.24033 -0.408703 0
M  V30 21480 H 1950.95 2.70607 -2.47321 0
M  V30 21481 H 1950.6 4.86802 -1.2662 0
M  V30 21482 H 1950.3 5.04452 -3.01334 0
M  V30 21483 H 1951.82 5.65336 -2.30712 0
M  V30 21484 H 1953.24 4.12189 -3.98463 0
M  V30 21485 H 1951.64 3.75155 -4.68379 0
M  V30 21486 H 1952.71 2.42337 -4.20001 0
M  V30 21487 N 1954.05 1.28517 0.912209 0
M  V30 21488 C 1955 1.12437 2.03619 0
M  V30 21489 C 1955.99 0.0432331 1.69345 0
M  V30 21490 O 1957.2 0.202116 1.78862 0
M  V30 21491 H 1953.57 0.34694 0.667185 0
M  V30 21492 H 1955.54 2.07625 2.14323 0
M  V30 21493 C 1954.29 0.804603 3.38262 0
M  V30 21494 H 1953.61 1.62849 3.65131 0
M  V30 21495 H 1955.05 0.732055 4.17633 0
M  V30 21496 C 1953.51 -0.491715 3.33292 0
M  V30 21497 O 1954.04 -1.52155 3.71768 0
M  V30 21498 N 1952.25 -0.493007 2.86388 0
M  V30 21499 H 1951.8 0.34549 2.55273 0
M  V30 21500 H 1951.75 -1.36038 2.83445 0
M  V30 21501 N 1955.53 -1.12086 1.1079 0
M  V30 21502 C 1956.75 -1.87493 0.874862 0
M  V30 21503 C 1957.17 -1.79834 -0.574907 0
M  V30 21504 O 1956.53 -1.17483 -1.39657 0
M  V30 21505 C 1956.58 -3.36566 1.3193 0
M  V30 21506 O 1956.3 -3.4405 2.71222 0
M  V30 21507 C 1957.8 -4.289 1.12069 0
M  V30 21508 H 1955.02 -0.593122 0.313764 0
M  V30 21509 H 1957.56 -1.41803 1.4735 0
M  V30 21510 H 1955.72 -3.79787 0.764254 0
M  V30 21511 H 1956.13 -4.36824 2.90319 0
M  V30 21512 H 1957.61 -5.31768 1.48076 0
M  V30 21513 H 1958.08 -4.3916 0.0596432 0
M  V30 21514 H 1958.69 -3.91465 1.66238 0
M  V30 21515 N 1957 -0.897194 -1.29569 0
M  V30 21516 C 1958.25 -0.521834 -1.95661 0
M  V30 21517 C 1958.58 0.931396 -1.70749 0
M  V30 21518 O 1957.83 1.67507 -1.01192 0
M  V30 21519 C 1958.13 -0.757743 -3.49275 0
M  V30 21520 C 1957.8 -2.18794 -3.94259 0
M  V30 21521 C 1956.46 -2.57901 -4.06252 0
M  V30 21522 C 1958.81 -3.11942 -4.17542 0
M  V30 21523 C 1956.14 -3.89341 -4.38897 0
M  V30 21524 C 1958.49 -4.42928 -4.51661 0
M  V30 21525 C 1957.16 -4.81911 -4.61864 0
M  V30 21526 H 1956.43 -0.190953 -0.715974 0
M  V30 21527 H 1959.07 -1.13537 -1.54212 0
M  V30 21528 H 1957.38 -0.0612622 -3.91752 0
M  V30 21529 H 1959.08 -0.446734 -3.98504 0
M  V30 21530 H 1955.67 -1.87443 -3.85439 0
M  V30 21531 H 1959.85 -2.82944 -4.07745 0
M  V30 21532 H 1955.11 -4.19269 -4.44998 0
M  V30 21533 H 1959.28 -5.15133 -4.68627 0
M  V30 21534 H 1956.91 -5.83797 -4.86914 0
M  V30 21535 N 1958.48 1.43142 -0.659413 0
M  V30 21536 C 1959.89 1.84958 -0.254412 0
M  V30 21537 C 1960.24 1.552 1.20031 0
M  V30 21538 O 1959.37 1.00407 1.91696 0
M  V30 21539 C 1959.96 3.35731 -0.454961 0
M  V30 21540 C 1958.52 3.76256 -0.104223 0
M  V30 21541 C 1957.67 2.66828 -0.754849 0
M  V30 21542 H 1960.62 1.33206 -0.862657 0
M  V30 21543 H 1960.64 3.79334 0.297654 0
M  V30 21544 H 1960.15 3.57359 -1.51381 0
M  V30 21545 H 1958.26 3.60239 0.951785 0
M  V30 21546 H 1958.37 4.76115 -0.534009 0
M  V30 21547 H 1956.73 2.54009 -0.187526 0
M  V30 21548 H 1957.52 2.91283 -1.81685 0
M  V30 21549 N 1959.96 0.40173 1.52394 0
M  V30 21550 C 1960.91 -0.442142 2.28359 0
M  V30 21551 C 1961.9 -1.05228 1.32753 0
M  V30 21552 O 1963.11 -0.991332 1.50242 0
M  V30 21553 H 1959.48 -0.161356 0.734485 0
M  V30 21554 H 1961.45 0.219869 2.97589 0
M  V30 21555 C 1960.2 -1.55062 3.11209 0
M  V30 21556 H 1959.53 -1.09046 3.84642 0
M  V30 21557 H 1960.97 -2.11505 3.6748 0
M  V30 21558 C 1959.43 -2.51376 2.24303 0
M  V30 21559 O 1959.96 -3.55084 1.87825 0
M  V30 21560 N 1958.16 -2.2141 1.88218 0
M  V30 21561 H 1957.71 -1.37106 2.18082 0
M  V30 21562 H 1957.67 -2.861 1.30362 0
M  V30 21563 N 1961.44 -1.57047 0.131923 0
M  V30 21564 C 1962.37 -2.11735 -0.851089 0
M  V30 21565 C 1963.35 -1.03702 -1.25239 0
M  V30 21566 O 1964.53 -1.31438 -1.35116 0
M  V30 21567 C 1961.66 -2.62468 -2.14075 0
M  V30 21568 C 1960.71 -3.82508 -1.88653 0
M  V30 21569 S 1961.54 -5.24266 -1.09112 0
M  V30 21570 C 1962.7 -5.78377 -2.3923 0
M  V30 21571 H 1962.93 -2.94784 -0.385975 0
M  V30 21572 H 1960.46 -1.54182 -0.0820933 0
M  V30 21573 H 1962.42 -2.92351 -2.88169 0
M  V30 21574 H 1961.08 -1.79578 -2.57703 0
M  V30 21575 H 1960.27 -4.16198 -2.84245 0
M  V30 21576 H 1959.88 -3.53308 -1.22675 0
M  V30 21577 H 1962.17 -5.8889 -3.34985 0
M  V30 21578 H 1963.11 -6.76223 -2.10066 0
M  V30 21579 H 1963.52 -5.06523 -2.49189 0
M  V30 21580 N 1962.92 0.141865 -1.5696 0
M  V30 21581 C 1963.88 1.15896 -1.97739 0
M  V30 21582 C 1964.88 1.3558 -0.864556 0
M  V30 21583 O 1966.07 1.32485 -1.13107 0
M  V30 21584 C 1963.2 2.51822 -2.29779 0
M  V30 21585 H 1964.39 0.808993 -2.88782 0
M  V30 21586 H 1961.95 0.385387 -1.51474 0
M  V30 21587 H 1962.68 2.91781 -1.41543 0
M  V30 21588 H 1962.47 2.38894 -3.10921 0
M  V30 21589 H 1963.96 3.25066 -2.62148 0
M  V30 21590 N 1964.39 1.52136 0.411372 0
M  V30 21591 C 1965.32 1.78277 1.50796 0
M  V30 21592 C 1966.31 0.633643 1.57857 0
M  V30 21593 O 1967.49 0.879011 1.73168 0
M  V30 21594 C 1964.62 1.93142 2.88641 0
M  V30 21595 C 1963.57 3.08727 2.96431 0
M  V30 21596 C 1962.9 3.08812 4.36508 0
M  V30 21597 C 1964.2 4.48228 2.68122 0
M  V30 21598 H 1965.89 2.70102 1.29171 0
M  V30 21599 H 1963.44 1.29971 0.619965 0
M  V30 21600 H 1965.39 2.10012 3.65339 0
M  V30 21601 H 1964.12 0.979869 3.11554 0
M  V30 21602 H 1962.78 2.91604 2.22177 0
M  V30 21603 H 1962.42 2.11383 4.56428 0
M  V30 21604 H 1962.12 3.86444 4.42645 0
M  V30 21605 H 1963.65 3.27809 5.15144 0
M  V30 21606 H 1965.06 4.65568 3.34544 0
M  V30 21607 H 1963.46 5.27761 2.85638 0
M  V30 21608 H 1964.53 4.56478 1.63572 0
M  V30 21609 N 1965.87 -0.668464 1.42721 0
M  V30 21610 C 1966.82 -1.80311 1.46938 0
M  V30 21611 C 1967.82 -1.65861 0.344463 0
M  V30 21612 O 1969.02 -1.72392 0.517768 0
M  V30 21613 H 1965.4 -0.59464 0.460333 0
M  V30 21614 H 1967.37 -1.73872 2.4251 0
M  V30 21615 C 1966.12 -3.18498 1.3948 0
M  V30 21616 H 1965.44 -3.30246 2.25338 0
M  V30 21617 H 1966.88 -3.9789 1.46492 0
M  V30 21618 C 1965.34 -3.36719 0.110386 0
M  V30 21619 O 1965.87 -3.92939 -0.834354 0
M  V30 21620 N 1964.07 -2.90589 0.0254882 0
M  V30 21621 H 1963.62 -2.45023 0.795077 0
M  V30 21622 H 1963.58 -3.03158 -0.833236 0
M  V30 21623 N 1967.35 -1.28999 -0.905381 0
M  V30 21624 C 1968.26 -1.15513 -2.04191 0
M  V30 21625 C 1969.28 -0.0797116 -1.73817 0
M  V30 21626 O 1970.45 -0.290664 -1.99292 0
M  V30 21627 C 1967.52 -0.826901 -3.36695 0
M  V30 21628 C 1966.58 -1.98557 -3.80623 0
M  V30 21629 C 1965.81 -1.6729 -5.06803 0
M  V30 21630 O 1966.04 -0.591168 -5.67328 0
M  V30 21631 O 1964.97 -2.51914 -5.46647 0
M  V30 21632 H 1968.8 -2.10942 -2.18488 0
M  V30 21633 H 1966.38 -1.08397 -1.02813 0
M  V30 21634 H 1968.26 -0.658165 -4.16228 0
M  V30 21635 H 1966.94 0.0976541 -3.23553 0
M  V30 21636 H 1965.84 -2.20951 -3.0188 0
M  V30 21637 H 1967.18 -2.89112 -3.9834 0
M  V30 21638 N 1968.83 1.11497 -1.11383 0
M  V30 21639 C 1970.11 1.79631 -0.774086 0
M  V30 21640 C 1970.49 1.97781 0.737951 0
M  V30 21641 O 1969.83 1.56202 1.66773 0
M  V30 21642 C 1970.04 3.13357 -1.53649 0
M  V30 21643 C 1971.39 3.88407 -1.71538 0
M  V30 21644 O 1972.42 3.23045 -1.50069 0
M  V30 21645 O 1971.28 5.05694 -2.07209 0
M  V30 21646 H 1968.37 0.778022 -0.280376 0
M  V30 21647 H 1970.92 1.18245 -1.21722 0
M  V30 21648 H 1969.69 2.95498 -2.56509 0
M  V30 21649 H 1969.31 3.82456 -1.08688 0
M  V30 21650 N 1970.31 0.904053 1.29092 0
M  V30 21651 C 1971.55 0.532203 1.95381 0
M  V30 21652 C 1971.88 -0.922327 1.71241 0
M  V30 21653 O 1971.14 -1.66968 1.02079 0
M  V30 21654 C 1971.44 0.776255 3.48868 0
M  V30 21655 C 1971.1 2.20882 3.93093 0
M  V30 21656 C 1969.76 2.60052 4.04878 0
M  V30 21657 C 1972.12 3.14152 4.15882 0
M  V30 21658 C 1969.44 3.91663 4.36826 0
M  V30 21659 C 1971.8 4.45317 4.49306 0
M  V30 21660 C 1970.46 4.84354 4.59301 0
M  V30 21661 H 1969.73 0.194747 0.714951 0
M  V30 21662 H 1972.38 1.14354 1.53608 0
M  V30 21663 H 1970.68 0.0820369 3.91714 0
M  V30 21664 H 1972.38 0.467861 3.98261 0
M  V30 21665 H 1968.97 1.89485 3.84439 0
M  V30 21666 H 1973.15 2.85103 4.06239 0
M  V30 21667 H 1968.41 4.21623 4.42769 0
M  V30 21668 H 1972.58 5.17611 4.65888 0
M  V30 21669 H 1970.21 5.86371 4.83811 0
M  V30 21670 N 1971.79 -1.4279 0.666995 0
M  V30 21671 C 1973.2 -1.56027 0.335817 0
M  V30 21672 C 1973.4 -1.64812 -1.15928 0
M  V30 21673 O 1972.46 -1.61074 -1.94451 0
M  V30 21674 C 1973.77 -2.81425 1.05928 0
M  V30 21675 C 1975.32 -2.95187 1.04085 0
M  V30 21676 C 1975.79 -4.23435 1.74548 0
M  V30 21677 N 1977.28 -4.3033 1.71379 0
M  V30 21678 C 1978.02 -5.2836 2.22762 0
M  V30 21679 N 1977.52 -6.32589 2.82494 0
M  V30 21680 N 1979.31 -5.20106 2.13182 0
M  V30 21681 H 1971.46 -1.35332 1.63704 0
M  V30 21682 H 1973.72 -0.650895 0.689231 0
M  V30 21683 H 1973.43 -2.81044 2.1144 0
M  V30 21684 H 1973.3 -3.72077 0.619546 0
M  V30 21685 H 1975.69 -2.95099 -0.00591289 0
M  V30 21686 H 1975.77 -2.05786 1.5194 0
M  V30 21687 H 1975.41 -4.24283 2.79189 0
M  V30 21688 H 1975.34 -5.11756 1.24149 0
M  V30 21689 H 1977.84 -3.55633 1.27803 0
M  V30 21690 H 1978.15 -7.03733 3.19343 0
M  V30 21691 H 1976.49 -6.33173 2.86561 0
M  V30 21692 H 1979.68 -4.37597 1.66211 0
M  V30 21693 H 1979.86 -5.96343 2.53534 0
M  V30 21694 N 1973.26 -0.409806 -1.52179 0
M  V30 21695 C 1974.68 -0.0607174 -1.59484 0
M  V30 21696 C 1974.88 1.42703 -1.42261 0
M  V30 21697 O 1973.94 2.19394 -1.24991 0
M  V30 21698 C 1975.25 -0.556238 -2.95511 0
M  V30 21699 C 1976.8 -0.514272 -3.08746 0
M  V30 21700 C 1977.27 -0.986314 -4.47254 0
M  V30 21701 N 1978.76 -0.943162 -4.53496 0
M  V30 21702 C 1979.5 -1.27959 -5.5894 0
M  V30 21703 N 1978.99 -1.6875 -6.71934 0
M  V30 21704 N 1980.79 -1.19951 -5.49152 0
M  V30 21705 H 1972.94 -1.37813 -1.61621 0
M  V30 21706 H 1975.2 -0.566181 -0.760357 0
M  V30 21707 H 1974.91 -1.5961 -3.13397 0
M  V30 21708 H 1974.78 0.033749 -3.77185 0
M  V30 21709 H 1977.17 0.516546 -2.90544 0
M  V30 21710 H 1977.25 -1.14032 -2.28977 0
M  V30 21711 H 1976.89 -2.01546 -4.66199 0
M  V30 21712 H 1976.82 -0.337071 -5.2552 0
M  V30 21713 H 1979.31 -0.64326 -3.72385 0
M  V30 21714 H 1979.63 -1.9273 -7.48381 0
M  V30 21715 H 1977.97 -1.72654 -6.73213 0
M  V30 21716 H 1981.16 -0.879693 -4.5976 0
M  V30 21717 H 1981.34 -1.465 -6.31222 0
M  V30 21718 N 1974.74 1.56975 -0.14025 0
M  V30 21719 C 1975.65 2.19981 0.815207 0
M  V30 21720 C 1976.67 1.18211 1.2768 0
M  V30 21721 O 1977.84 1.50762 1.33539 0
M  V30 21722 C 1974.91 2.80369 2.03946 0
M  V30 21723 C 1973.97 3.97244 1.62774 0
M  V30 21724 C 1973.2 4.54744 2.79363 0
M  V30 21725 O 1973.43 4.11124 3.9539 0
M  V30 21726 O 1972.36 5.45109 2.55224 0
M  V30 21727 H 1976.19 3.02125 0.308908 0
M  V30 21728 H 1973.77 1.4915 0.0864409 0
M  V30 21729 H 1975.65 3.18778 2.75606 0
M  V30 21730 H 1974.33 2.01243 2.53541 0
M  V30 21731 H 1973.23 3.63564 0.88158 0
M  V30 21732 H 1974.57 4.7787 1.17901 0
M  V30 21733 N 1976.22 -0.133539 1.57033 0
M  V30 21734 C 1977.47 -0.843859 1.8408 0
M  V30 21735 C 1977.79 -1.80556 0.723177 0
M  V30 21736 O 1977.05 -1.93588 -0.286718 0
M  V30 21737 C 1977.35 -1.64036 3.17533 0
M  V30 21738 C 1977.01 -0.82425 4.43302 0
M  V30 21739 C 1975.68 -0.599146 4.77455 0
M  V30 21740 C 1978.03 -0.254425 5.20579 0
M  V30 21741 C 1975.36 0.206272 5.86337 0
M  V30 21742 C 1977.71 0.538105 6.30307 0
M  V30 21743 C 1976.37 0.773661 6.63001 0
M  V30 21744 H 1975.64 -0.30879 0.673595 0
M  V30 21745 H 1978.29 -0.106868 1.91202 0
M  V30 21746 H 1976.59 -2.44784 3.05921 0
M  V30 21747 H 1978.29 -2.19367 3.35677 0
M  V30 21748 H 1974.88 -1.00978 4.16535 0
M  V30 21749 H 1979.07 -0.415584 4.94557 0
M  V30 21750 H 1974.32 0.398139 6.10102 0
M  V30 21751 H 1978.5 0.986708 6.89374 0
M  V30 21752 H 1976.12 1.3996 7.47205 0
M  V30 21753 N 1977.7 -1.52352 -0.403298 0
M  V30 21754 C 1978.65 -1.72493 -1.49098 0
M  V30 21755 C 1979.63 -0.578865 -1.50126 0
M  V30 21756 O 1980.82 -0.836158 -1.56005 0
M  V30 21757 C 1977.95 -1.88429 -2.86966 0
M  V30 21758 C 1977.04 -3.08924 -2.90562 0
M  V30 21759 N 1977.43 -4.3153 -2.63848 0
M  V30 21760 C 1975.73 -3.08877 -3.21731 0
M  V30 21761 C 1976.43 -5.1304 -2.74163 0
M  V30 21762 N 1975.4 -4.48413 -3.07289 0
M  V30 21763 H 1979.21 -2.64925 -1.27248 0
M  V30 21764 H 1976.72 -1.50465 -0.611079 0
M  V30 21765 H 1978.72 -2.00976 -3.65259 0
M  V30 21766 H 1977.38 -0.97201 -3.0981 0
M  V30 21767 H 1978.39 -4.59905 -2.38134 0
M  V30 21768 H 1975.07 -2.27408 -3.50131 0
M  V30 21769 H 1976.46 -6.20734 -2.57174 0
M  V30 21770 N 1979.18 0.660885 -1.43074 0
M  V30 21771 C 1980.12 1.79529 -1.47892 0
M  V30 21772 C 1981.12 1.65676 -0.353254 0
M  V30 21773 O 1982.32 1.72115 -0.526903 0
M  V30 21774 H 1978.7 0.592191 -0.46348 0
M  V30 21775 H 1980.67 1.72584 -2.43428 0
M  V30 21776 C 1979.42 3.17753 -1.41167 0
M  V30 21777 H 1978.74 3.29047 -2.27087 0
M  V30 21778 H 1980.18 3.97107 -1.486 0
M  V30 21779 C 1978.64 3.36656 -0.128241 0
M  V30 21780 O 1979.17 3.93376 0.813504 0
M  V30 21781 N 1977.38 2.90571 -0.0408985 0
M  V30 21782 H 1976.92 2.44598 -0.808059 0
M  V30 21783 H 1976.88 3.03595 0.817147 0
M  V30 21784 N 1980.65 1.29477 0.898527 0
M  V30 21785 C 1981.9 1.16888 1.64378 0
M  V30 21786 C 1982.22 -0.278503 1.93607 0
M  V30 21787 O 1983.42 -0.525728 2.66361 0
M  V30 21788 C 1981.88 2.0444 2.96196 0
M  V30 21789 C 1981.49 3.54008 2.74558 0
M  V30 21790 C 1983.23 2.00578 3.74124 0
M  V30 21791 C 1981.14 4.33661 4.0211 0
M  V30 21792 H 1980.07 0.433875 0.616659 0
M  V30 21793 H 1982.72 1.54125 0.995881 0
M  V30 21794 H 1981.1 1.60073 3.62205 0
M  V30 21795 H 1982.27 4.06435 2.17135 0
M  V30 21796 H 1980.59 3.59553 2.10025 0
M  V30 21797 H 1983.19 2.57348 4.68696 0
M  V30 21798 H 1983.53 0.98604 4.04454 0
M  V30 21799 H 1984.06 2.42995 3.14957 0
M  V30 21800 H 1980.8 5.36276 3.76946 0
M  V30 21801 H 1980.32 3.86003 4.59088 0
M  V30 21802 H 1982 4.44385 4.70246 0
M  V30 21803 N 1982.13 -1.10905 1.11972 0
M  V30 21804 C 1983.06 -2.19168 0.805461 0
M  V30 21805 C 1984.04 -1.68557 -0.228623 0
M  V30 21806 O 1985.23 -1.93987 -0.0908778 0
M  V30 21807 C 1982.36 -3.4637 0.253951 0
M  V30 21808 C 1981.31 -4.10228 1.22054 0
M  V30 21809 C 1980.64 -5.32072 0.529483 0
M  V30 21810 C 1981.94 -4.54506 2.57336 0
M  V30 21811 H 1983.63 -2.45713 1.71071 0
M  V30 21812 H 1981.18 -1.18096 0.823969 0
M  V30 21813 H 1983.13 -4.21394 0.0218576 0
M  V30 21814 H 1981.86 -3.19301 -0.68662 0
M  V30 21815 H 1980.51 -3.37204 1.43836 0
M  V30 21816 H 1980.16 -5.01276 -0.416074 0
M  V30 21817 H 1979.86 -5.75748 1.17422 0
M  V30 21818 H 1981.39 -6.09831 0.306313 0
M  V30 21819 H 1982.8 -5.20826 2.3961 0
M  V30 21820 H 1981.2 -5.09015 3.17842 0
M  V30 21821 H 1982.27 -3.67671 3.16143 0
M  V30 21822 N 1983.61 -0.910886 -1.2861 0
M  V30 21823 C 1984.84 -0.557684 -1.99761 0
M  V30 21824 C 1985.26 0.853148 -1.67639 0
M  V30 21825 O 1984.62 1.5697 -0.907192 0
M  V30 21826 C 1984.67 -0.770188 -3.52279 0
M  V30 21827 O 1983.77 0.172155 -4.12041 0
M  V30 21828 H 1983.11 -0.216573 -0.627688 0
M  V30 21829 H 1985.64 -1.22554 -1.63834 0
M  V30 21830 H 1985.65 -0.679176 -4.02307 0
M  V30 21831 H 1984.33 -1.79869 -3.74993 0
M  V30 21832 H 1982.9 0.0326535 -3.72886 0
M  V30 21833 N 1985.09 1.42434 -0.674558 0
M  V30 21834 C 1986.34 2.00765 -0.193936 0
M  V30 21835 C 1986.65 1.53957 1.20651 0
M  V30 21836 O 1987.86 2.04705 1.78348 0
M  V30 21837 C 1986.31 3.58682 -0.295862 0
M  V30 21838 C 1985.92 4.14478 -1.70034 0
M  V30 21839 C 1987.66 4.24313 0.12606 0
M  V30 21840 C 1985.57 5.64758 -1.75505 0
M  V30 21841 H 1984.5 0.75086 -0.0687443 0
M  V30 21842 H 1987.15 1.6316 -0.839705 0
M  V30 21843 H 1985.53 3.9379 0.417795 0
M  V30 21844 H 1986.71 3.90831 -2.44106 0
M  V30 21845 H 1985.02 3.61298 -2.07009 0
M  V30 21846 H 1987.62 5.34596 0.105331 0
M  V30 21847 H 1987.96 3.99775 1.16127 0
M  V30 21848 H 1988.5 3.94164 -0.536581 0
M  V30 21849 H 1985.24 5.94094 -2.77007 0
M  V30 21850 H 1984.76 5.90397 -1.05788 0
M  V30 21851 H 1986.43 6.29172 -1.50838 0
M  V30 21852 N 1986.57 0.417871 1.51959 0
M  V30 21853 C 1987.52 -0.420841 2.24082 0
M  V30 21854 C 1988.5 -1.00627 1.25551 0
M  V30 21855 O 1989.69 -0.927636 1.50745 0
M  V30 21856 C 1986.82 -1.5322 3.07211 0
M  V30 21857 C 1985.91 -0.957122 4.13159 0
M  V30 21858 N 1986.3 -0.109467 5.05682 0
M  V30 21859 C 1984.6 -1.22673 4.28797 0
M  V30 21860 C 1985.3 0.211436 5.81316 0
M  V30 21861 N 1984.27 -0.399968 5.42127 0
M  V30 21862 H 1988.08 0.232982 2.92975 0
M  V30 21863 H 1985.59 0.228798 1.6078 0
M  V30 21864 H 1987.59 -2.14574 3.57441 0
M  V30 21865 H 1986.25 -2.18856 2.39859 0
M  V30 21866 H 1987.26 0.25551 5.17269 0
M  V30 21867 H 1983.93 -1.88203 3.72674 0
M  V30 21868 H 1985.32 0.900024 6.65845 0
M  V30 21869 N 1988.04 -1.56898 0.148573 0
M  V30 21870 C 1988.95 -2.2041 -0.80353 0
M  V30 21871 C 1989.97 -1.18886 -1.27052 0
M  V30 21872 O 1991.15 -1.51468 -1.32738 0
M  V30 21873 C 1988.21 -2.81447 -2.02456 0
M  V30 21874 C 1987.27 -3.98102 -1.60665 0
M  V30 21875 C 1986.51 -4.56219 -2.76948 0
M  V30 21876 O 1986.73 -4.13215 -3.93204 0
M  V30 21877 O 1985.66 -5.46455 -2.52329 0
M  V30 21878 H 1989.49 -3.02284 -0.292881 0
M  V30 21879 H 1987.07 -1.49193 -0.0785299 0
M  V30 21880 H 1988.96 -3.20235 -2.73911 0
M  V30 21881 H 1987.63 -2.02585 -2.5247 0
M  V30 21882 H 1986.54 -3.64027 -0.862287 0
M  V30 21883 H 1987.87 -4.78489 -1.15365 0
M  V30 21884 N 1989.52 0.125209 -1.57102 0
M  V30 21885 C 1990.8 0.864033 -1.75482 0
M  V30 21886 C 1991.18 1.98355 -0.722399 0
M  V30 21887 O 1990.53 2.27075 0.254784 0
M  V30 21888 C 1990.74 1.38644 -3.20279 0
M  V30 21889 C 1992.09 1.84125 -3.82601 0
M  V30 21890 O 1993.11 1.48338 -3.23843 0
M  V30 21891 O 1991.97 2.50194 -4.85866 0
M  V30 21892 H 1989.06 0.409865 -0.718289 0
M  V30 21893 H 1991.61 0.109434 -1.69347 0
M  V30 21894 H 1990.38 0.582938 -3.86933 0
M  V30 21895 H 1990 2.20393 -3.30927 0
M  V30 21896 N 1991 1.52564 0.395213 0
M  V30 21897 C 1992.23 1.71173 1.16222 0
M  V30 21898 C 1992.64 0.427335 1.839 0
M  V30 21899 O 1992 -0.597726 1.72434 0
M  V30 21900 C 1992.05 2.85698 2.21492 0
M  V30 21901 O 1991.77 4.09165 1.56574 0
M  V30 21902 C 1993.27 3.15934 3.10967 0
M  V30 21903 H 1990.49 0.573277 0.348705 0
M  V30 21904 H 1993.04 1.99186 0.463177 0
M  V30 21905 H 1991.19 2.60165 2.87042 0
M  V30 21906 H 1991.61 4.73086 2.26473 0
M  V30 21907 H 1993.08 3.99548 3.80874 0
M  V30 21908 H 1993.56 2.30059 3.74125 0
M  V30 21909 H 1994.16 3.43284 2.5107 0
M  V30 21910 N 1992.48 -0.653289 1.43422 0
M  V30 21911 C 1993.76 -1.41051 1.35513 0
M  V30 21912 C 1994.14 -2.111 0.00290798 0
M  V30 21913 O 1993.48 -2.04786 -1.01365 0
M  V30 21914 C 1993.69 -2.39526 2.53827 0
M  V30 21915 C 1995.04 -3.03528 2.96911 0
M  V30 21916 O 1996.07 -2.49854 2.53873 0
M  V30 21917 O 1994.92 -4.00843 3.71466 0
M  V30 21918 H 1992.02 -0.630186 0.535532 0
M  V30 21919 H 1994.56 -0.680203 1.55471 0
M  V30 21920 H 1993.34 -1.86712 3.43881 0
M  V30 21921 H 1992.96 -3.20007 2.35968 0
M  V30 21922 N 1993.96 -1.29952 -0.891648 0
M  V30 21923 C 1994.89 -1.18331 -2.01296 0
M  V30 21924 C 1995.87 -0.0755571 -1.69932 0
M  V30 21925 O 1997.05 -0.256435 -1.92499 0
M  V30 21926 C 1994.18 -0.867421 -3.36293 0
M  V30 21927 C 1993.14 -1.93237 -3.81894 0
M  V30 21928 C 1992.46 -1.46962 -5.14107 0
M  V30 21929 C 1993.76 -3.34246 -4.01344 0
M  V30 21930 H 1995.46 -2.12138 -2.11276 0
M  V30 21931 H 1993 -1.02132 -1.01514 0
M  V30 21932 H 1994.96 -0.772806 -4.14253 0
M  V30 21933 H 1993.68 0.106342 -3.26427 0
M  V30 21934 H 1992.34 -2.01651 -3.06157 0
M  V30 21935 H 1991.99 -0.484311 -5.00663 0
M  V30 21936 H 1991.69 -2.1819 -5.45589 0
M  V30 21937 H 1993.21 -1.38866 -5.94599 0
M  V30 21938 H 1994.62 -3.28629 -4.69762 0
M  V30 21939 H 1993.02 -4.03502 -4.44192 0
M  V30 21940 H 1994.09 -3.76629 -3.05415 0
M  V30 21941 N 1995.44 1.1031 -1.12559 0
M  V30 21942 C 1996.37 2.15925 -0.738365 0
M  V30 21943 C 1997.35 1.60324 0.271099 0
M  V30 21944 O 1998.53 1.87779 0.164746 0
M  V30 21945 C 1995.66 3.38572 -0.0930976 0
M  V30 21946 C 1994.7 4.1287 -1.06959 0
M  V30 21947 S 1995.54 4.68269 -2.59777 0
M  V30 21948 C 1996.69 5.94227 -1.96584 0
M  V30 21949 H 1996.93 2.48437 -1.63298 0
M  V30 21950 H 1994.46 1.22118 -0.94481 0
M  V30 21951 H 1996.42 4.09592 0.272822 0
M  V30 21952 H 1995.08 3.04296 0.778647 0
M  V30 21953 H 1994.27 5.00815 -0.565756 0
M  V30 21954 H 1993.87 3.47668 -1.37852 0
M  V30 21955 H 1996.16 6.64727 -1.30938 0
M  V30 21956 H 1997.11 6.49275 -2.82574 0
M  V30 21957 H 1997.52 5.46318 -1.42114 0
M  V30 21958 N 1996.91 0.917694 1.28125 0
M  V30 21959 C 1997.82 0.414339 2.30912 0
M  V30 21960 C 1998.84 -0.49998 1.66662 0
M  V30 21961 O 2000.02 -0.385213 1.97682 0
M  V30 21962 C 1997.08 -0.333886 3.45089 0
M  V30 21963 C 1996.14 0.614131 4.24885 0
M  V30 21964 C 1995.37 -0.0984806 5.33609 0
M  V30 21965 O 1995.6 -1.31956 5.54927 0
M  V30 21966 O 1994.53 0.568228 5.99212 0
M  V30 21967 H 1998.36 1.26755 2.75984 0
M  V30 21968 H 1995.94 0.682661 1.32891 0
M  V30 21969 H 1997.82 -0.756311 4.14557 0
M  V30 21970 H 1996.5 -1.16286 3.02091 0
M  V30 21971 H 1995.41 1.08603 3.57989 0
M  V30 21972 H 1996.74 1.41003 4.71571 0
M  V30 21973 N 1998.39 -1.42074 0.682102 0
M  V30 21974 C 1999.32 -2.33489 0.0224223 0
M  V30 21975 C 2000.3 -1.51082 -0.781557 0
M  V30 21976 O 2001.49 -1.79662 -0.737243 0
M  V30 21977 C 1998.62 -3.34773 -0.92434 0
M  V30 21978 C 1997.57 -4.2739 -0.228431 0
M  V30 21979 C 1996.9 -5.1894 -1.28863 0
M  V30 21980 C 1998.2 -5.14539 0.897035 0
M  V30 21981 H 1999.89 -2.88901 0.785898 0
M  V30 21982 H 1997.44 -1.38913 0.379376 0
M  V30 21983 H 1999.39 -3.97641 -1.39497 0
M  V30 21984 H 1998.11 -2.77681 -1.71932 0
M  V30 21985 H 1996.77 -3.65927 0.222034 0
M  V30 21986 H 1996.42 -4.5817 -2.07579 0
M  V30 21987 H 1996.12 -5.81736 -0.828084 0
M  V30 21988 H 1997.65 -5.84683 -1.76005 0
M  V30 21989 H 1999.06 -5.71051 0.507296 0
M  V30 21990 H 1997.46 -5.86206 1.28383 0
M  V30 21991 H 1998.53 -4.52505 1.74263 0
M  V30 21992 N 1999.87 -0.425924 -1.51735 0
M  V30 21993 C 2000.82 0.391248 -2.2746 0
M  V30 21994 C 2001.79 1.02669 -1.30569 0
M  V30 21995 O 2002.97 1.04777 -1.59457 0
M  V30 21996 C 2000.11 1.4928 -3.11142 0
M  V30 21997 C 1999.22 0.876622 -4.23012 0
M  V30 21998 C 1998.36 1.95227 -4.94024 0
M  V30 21999 C 1997.4 1.31392 -5.97832 0
M  V30 22000 N 1996.54 2.33043 -6.62296 0
M  V30 22001 H 2001.38 -0.26089 -2.96856 0
M  V30 22002 H 1998.91 -0.1405 -1.46427 0
M  V30 22003 H 2000.87 2.14262 -3.57977 0
M  V30 22004 H 1999.5 2.11473 -2.43884 0
M  V30 22005 H 1998.55 0.115399 -3.80225 0
M  V30 22006 H 1999.86 0.370471 -4.97422 0
M  V30 22007 H 1999.02 2.67897 -5.44349 0
M  V30 22008 H 1997.76 2.49212 -4.19219 0
M  V30 22009 H 1996.76 0.572626 -5.4681 0
M  V30 22010 H 1997.99 0.781544 -6.74588 0
M  V30 22011 H 1995.93 2.86129 -5.9031 0
M  V30 22012 H 1995.85 1.87287 -7.32434 0
M  V30 22013 H 1997.12 3.05231 -7.17255 0
M  V30 22014 N 2001.35 1.56817 -0.156891 0
M  V30 22015 C 2002.76 1.58349 0.199431 0
M  V30 22016 C 2002.96 1.17163 1.63937 0
M  V30 22017 O 2002.02 0.87651 2.36799 0
M  V30 22018 C 2003.33 3.00622 -0.0682996 0
M  V30 22019 C 2004.88 3.13 -0.00536951 0
M  V30 22020 C 2005.36 4.57339 -0.245899 0
M  V30 22021 N 2006.85 4.62797 -0.19317 0
M  V30 22022 C 2007.58 5.72308 -0.353652 0
M  V30 22023 N 2007.08 6.90431 -0.5724 0
M  V30 22024 N 2008.87 5.61349 -0.290563 0
M  V30 22025 H 2001.02 1.8188 -1.09697 0
M  V30 22026 H 2003.28 0.842304 -0.435002 0
M  V30 22027 H 2002.99 3.3518 -1.06524 0
M  V30 22028 H 2002.86 3.71616 0.646647 0
M  V30 22029 H 2005.25 2.78277 0.98213 0
M  V30 22030 H 2005.33 2.44472 -0.752801 0
M  V30 22031 H 2004.98 4.92768 -1.23054 0
M  V30 22032 H 2004.91 5.24007 0.521974 0
M  V30 22033 H 2007.4 3.77889 -0.0291566 0
M  V30 22034 H 2007.71 7.69761 -0.684694 0
M  V30 22035 H 2006.06 6.92328 -0.608841 0
M  V30 22036 H 2009.25 4.67945 -0.120361 0
M  V30 22037 H 2009.42 6.46644 -0.419064 0
M  V30 22038 N 2002.83 -0.116876 1.57166 0
M  V30 22039 C 2004.07 -0.822873 1.84151 0
M  V30 22040 C 2004.39 -1.80944 0.742867 0
M  V30 22041 O 2005.59 -2.56177 0.89919 0
M  V30 22042 C 2004.05 -1.51414 3.26499 0
M  V30 22043 C 2003.66 -0.568446 4.44379 0
M  V30 22044 C 2005.4 -2.20514 3.62731 0
M  V30 22045 C 2003.31 -1.26306 5.77755 0
M  V30 22046 H 2002.24 -0.311047 0.686852 0
M  V30 22047 H 2004.89 -0.0756323 1.83344 0
M  V30 22048 H 2003.27 -2.30807 3.21782 0
M  V30 22049 H 2004.45 0.192429 4.60398 0
M  V30 22050 H 2002.76 0.0157058 4.16397 0
M  V30 22051 H 2005.36 -2.73177 4.5965 0
M  V30 22052 H 2005.7 -2.98411 2.90269 0
M  V30 22053 H 2006.23 -1.48006 3.69241 0
M  V30 22054 H 2002.97 -0.525332 6.53392 0
M  V30 22055 H 2002.49 -1.99589 5.65618 0
M  V30 22056 H 2004.17 -1.79566 6.21583 0
M  V30 22057 N 2004.3 -1.52772 -0.387116 0
M  V30 22058 C 2005.23 -1.80654 -1.47941 0
M  V30 22059 C 2006.21 -0.658677 -1.56829 0
M  V30 22060 O 2007.4 -0.906449 -1.71747 0
M  V30 22061 C 2004.53 -1.97709 -2.85532 0
M  V30 22062 C 2003.48 -3.13404 -2.91482 0
M  V30 22063 C 2002.81 -3.15717 -4.3154 0
M  V30 22064 C 2004.11 -4.52437 -2.60957 0
M  V30 22065 H 2005.8 -2.72123 -1.24858 0
M  V30 22066 H 2003.35 -1.30941 -0.59921 0
M  V30 22067 H 2005.3 -2.15798 -3.61952 0
M  V30 22068 H 2004.03 -1.02931 -3.09956 0
M  V30 22069 H 2002.69 -2.95102 -2.1751 0
M  V30 22070 H 2002.33 -2.18618 -4.53007 0
M  V30 22071 H 2002.03 -3.93437 -4.36441 0
M  V30 22072 H 2003.56 -3.35963 -5.09864 0
M  V30 22073 H 2004.97 -4.70831 -3.27095 0
M  V30 22074 H 2003.37 -5.32238 -2.77205 0
M  V30 22075 H 2004.44 -4.59022 -1.5629 0
M  V30 22076 N 2005.78 0.645673 -1.43767 0
M  V30 22077 C 2007.01 1.43095 -1.49021 0
M  V30 22078 C 2007.42 1.88885 -0.109072 0
M  V30 22079 O 2006.76 1.60563 0.89248 0
M  V30 22080 C 2006.82 2.694 -2.38042 0
M  V30 22081 C 2006.49 2.45501 -3.85458 0
M  V30 22082 C 2007.49 2.08245 -4.76372 0
M  V30 22083 C 2005.17 2.59592 -4.3002 0
M  V30 22084 C 2007.16 1.85388 -6.09844 0
M  V30 22085 C 2004.85 2.36349 -5.63544 0
M  V30 22086 C 2005.85 1.99304 -6.53274 0
M  V30 22087 O 2005.54 1.7631 -7.84328 0
M  V30 22088 H 2005.27 0.445803 -0.508169 0
M  V30 22089 H 2007.82 0.798192 -1.89257 0
M  V30 22090 H 2006.05 3.35262 -1.92707 0
M  V30 22091 H 2007.74 3.31369 -2.34413 0
M  V30 22092 H 2008.51 1.96929 -4.4322 0
M  V30 22093 H 2004.39 2.87399 -3.60448 0
M  V30 22094 H 2007.93 1.56397 -6.79842 0
M  V30 22095 H 2003.83 2.4727 -5.96261 0
M  V30 22096 H 2004.6 1.90674 -7.95981 0
M  V30 22097 N 2007.26 1.30423 0.884744 0
M  V30 22098 C 2008.21 1.1673 2.01188 0
M  V30 22099 C 2009.2 0.0791439 1.69215 0
M  V30 22100 O 2010.41 0.24001 1.78393 0
M  V30 22101 H 2006.78 0.361014 0.659676 0
M  V30 22102 H 2008.75 2.12124 2.09871 0
M  V30 22103 C 2007.5 0.876173 3.3648 0
M  V30 22104 H 2006.83 1.70557 3.61594 0
M  V30 22105 H 2008.27 0.820477 4.15986 0
M  V30 22106 C 2006.72 -0.420908 3.3426 0
M  V30 22107 O 2007.25 -1.44235 3.74912 0
M  V30 22108 N 2005.46 -0.432149 2.87369 0
M  V30 22109 H 2005.01 0.399559 2.54482 0
M  V30 22110 H 2004.97 -1.29995 2.86267 0
M  V30 22111 N 2008.74 -1.09711 1.13142 0
M  V30 22112 C 2009.67 -2.18301 0.828662 0
M  V30 22113 C 2010.65 -1.6879 -0.210733 0
M  V30 22114 O 2011.83 -1.94073 -0.0702977 0
M  V30 22115 C 2008.96 -3.46081 0.290674 0
M  V30 22116 C 2007.92 -4.0891 1.26398 0
M  V30 22117 C 2007.24 -5.3148 0.585887 0
M  V30 22118 C 2008.54 -4.51751 2.62142 0
M  V30 22119 H 2010.24 -2.43885 1.73668 0
M  V30 22120 H 2007.78 -1.17216 0.836449 0
M  V30 22121 H 2009.74 -4.21347 0.0665509 0
M  V30 22122 H 2008.46 -3.20011 -0.652716 0
M  V30 22123 H 2007.12 -3.3566 1.47405 0
M  V30 22124 H 2006.77 -5.01689 -0.362883 0
M  V30 22125 H 2006.47 -5.7447 1.23522 0
M  V30 22126 H 2007.99 -6.09472 0.370976 0
M  V30 22127 H 2009.41 -5.18255 2.45121 0
M  V30 22128 H 2007.8 -5.05615 3.23223 0
M  V30 22129 H 2008.87 -3.64297 3.20025 0
M  V30 22130 N 2010.22 -0.924476 -1.27637 0
M  V30 22131 C 2011.46 -0.563219 -1.9451 0
M  V30 22132 C 2011.79 0.894968 -1.72686 0
M  V30 22133 O 2011.05 1.65323 -1.04722 0
M  V30 22134 C 2011.35 -0.831659 -3.47589 0
M  V30 22135 C 2011.01 -2.27108 -3.89529 0
M  V30 22136 C 2009.67 -2.6646 -4.0069 0
M  V30 22137 C 2012.03 -3.20729 -4.10832 0
M  V30 22138 C 2009.35 -3.98563 -4.3054 0
M  V30 22139 C 2011.71 -4.52409 -4.42164 0
M  V30 22140 C 2010.37 -4.91599 -4.51538 0
M  V30 22141 H 2009.64 -0.206096 -0.711762 0
M  V30 22142 H 2012.29 -1.16783 -1.51769 0
M  V30 22143 H 2010.59 -0.144345 -3.91534 0
M  V30 22144 H 2012.29 -0.531162 -3.97467 0
M  V30 22145 H 2008.88 -1.95577 -3.81376 0
M  V30 22146 H 2013.06 -2.9153 -4.01652 0
M  V30 22147 H 2008.32 -4.28614 -4.36005 0
M  V30 22148 H 2012.49 -5.24957 -4.57595 0
M  V30 22149 H 2010.12 -5.93994 -4.74421 0
M  V30 22150 N 2011.69 1.41711 -0.689627 0
M  V30 22151 C 2012.62 2.33474 -0.0348045 0
M  V30 22152 C 2013.61 1.51494 0.773533 0
M  V30 22153 O 2014.79 1.8005 0.727705 0
M  V30 22154 C 2011.92 3.35259 0.906573 0
M  V30 22155 C 2010.87 4.27505 0.205762 0
M  V30 22156 C 2010.2 5.19616 1.26109 0
M  V30 22157 C 2011.5 5.14056 -0.92431 0
M  V30 22158 H 2013.19 2.88481 -0.801208 0
M  V30 22159 H 2010.74 1.3871 -0.386738 0
M  V30 22160 H 2012.69 3.98375 1.37386 0
M  V30 22161 H 2011.42 2.78589 1.70457 0
M  V30 22162 H 2010.08 3.65804 -0.241437 0
M  V30 22163 H 2009.72 4.59264 2.05147 0
M  V30 22164 H 2009.42 5.82167 0.797221 0
M  V30 22165 H 2010.95 5.85609 1.72901 0
M  V30 22166 H 2012.36 5.70774 -0.537573 0
M  V30 22167 H 2010.76 5.85517 -1.3149 0
M  V30 22168 H 2011.83 4.51574 -1.7666 0
M  V30 22169 N 2013.17 0.433965 1.51507 0
M  V30 22170 C 2014.08 -0.385423 2.31412 0
M  V30 22171 C 2015.1 -1.03078 1.40182 0
M  V30 22172 O 2016.27 -1.02688 1.73254 0
M  V30 22173 C 2013.34 -1.47371 3.13819 0
M  V30 22174 C 2012.4 -0.848838 4.20824 0
M  V30 22175 C 2011.63 -1.88527 4.99293 0
M  V30 22176 O 2011.86 -3.107 4.78353 0
M  V30 22177 O 2010.79 -1.47768 5.83479 0
M  V30 22178 H 2014.62 0.266798 3.02526 0
M  V30 22179 H 2012.2 0.19658 1.48101 0
M  V30 22180 H 2014.08 -2.10495 3.65061 0
M  V30 22181 H 2012.76 -2.11008 2.45474 0
M  V30 22182 H 2011.67 -0.179639 3.73668 0
M  V30 22183 H 2013 -0.256013 4.91534 0
M  V30 22184 N 2014.65 -1.56732 0.165206 0
M  V30 22185 C 2015.88 -2.00777 -0.487041 0
M  V30 22186 C 2016.29 -1.04447 -1.57758 0
M  V30 22187 O 2015.63 -0.0363979 -1.83664 0
M  V30 22188 C 2015.69 -3.41252 -1.1308 0
M  V30 22189 C 2015.36 -4.56635 -0.182666 0
M  V30 22190 C 2016.35 -5.16465 0.596665 0
M  V30 22191 C 2014.04 -5.02236 -0.0802703 0
M  V30 22192 C 2016.03 -6.2032 1.46565 0
M  V30 22193 C 2013.72 -6.05942 0.792308 0
M  V30 22194 C 2014.72 -6.64855 1.56386 0
M  V30 22195 O 2014.41 -7.66551 2.42187 0
M  V30 22196 H 2014.14 -0.663451 -0.129647 0
M  V30 22197 H 2016.69 -2.03719 0.262233 0
M  V30 22198 H 2014.92 -3.35204 -1.92808 0
M  V30 22199 H 2016.61 -3.6929 -1.68463 0
M  V30 22200 H 2017.38 -4.82121 0.527694 0
M  V30 22201 H 2013.26 -4.56097 -0.670586 0
M  V30 22202 H 2016.8 -6.66232 2.06834 0
M  V30 22203 H 2012.7 -6.39712 0.862504 0
M  V30 22204 H 2013.47 -7.83849 2.35635 0
M  V30 22205 N 2016.13 0.10854 -1.57226 0
M  V30 22206 C 2017.08 1.15155 -2.02094 0
M  V30 22207 C 2018.07 1.42263 -0.919651 0
M  V30 22208 O 2019.28 1.42102 -1.10485 0
M  V30 22209 H 2015.65 0.388515 -0.643863 0
M  V30 22210 H 2017.62 0.746707 -2.88906 0
M  V30 22211 C 2016.37 2.46727 -2.44992 0
M  V30 22212 H 2015.69 2.26708 -3.29307 0
M  V30 22213 H 2017.13 3.18242 -2.80175 0
M  V30 22214 C 2015.59 3.10059 -1.31776 0
M  V30 22215 O 2016.12 3.96577 -0.639471 0
M  V30 22216 N 2014.33 2.70099 -1.07215 0
M  V30 22217 H 2013.88 1.99837 -1.62552 0
M  V30 22218 H 2013.83 3.12802 -0.316602 0
M  V30 22219 N 2017.61 1.52975 0.379009 0
M  V30 22220 C 2019.02 1.60338 0.956477 0
M  V30 22221 C 2019.37 0.462422 1.90673 0
M  V30 22222 O 2018.49 -0.413093 2.12421 0
M  V30 22223 C 2019.09 2.90615 1.74151 0
M  V30 22224 C 2017.65 3.00358 2.26853 0
M  V30 22225 C 2016.79 2.55532 1.07697 0
M  V30 22226 H 2019.75 1.57909 0.158228 0
M  V30 22227 H 2019.77 2.77662 2.60161 0
M  V30 22228 H 2019.28 3.73636 1.04965 0
M  V30 22229 H 2017.38 2.21895 2.99321 0
M  V30 22230 H 2017.49 4.05188 2.55655 0
M  V30 22231 H 2015.86 2.10088 1.43997 0
M  V30 22232 H 2016.64 3.40958 0.400297 0
M  V30 22233 N 2019.08 -0.63804 1.44107 0
M  V30 22234 C 2020.03 -1.74386 1.46879 0
M  V30 22235 C 2021.02 -1.57366 0.335387 0
M  V30 22236 O 2022.21 -1.6722 0.580223 0
M  V30 22237 C 2019.34 -3.13044 1.40919 0
M  V30 22238 C 2018.43 -3.35559 2.59347 0
M  V30 22239 N 2018.82 -3.28473 3.84628 0
M  V30 22240 C 2017.11 -3.66332 2.54395 0
M  V30 22241 C 2017.82 -3.51487 4.635 0
M  V30 22242 N 2016.79 -3.74029 3.94465 0
M  V30 22243 H 2020.59 -1.67355 2.41598 0
M  V30 22244 H 2018.11 -0.840261 1.38973 0
M  V30 22245 H 2020.1 -3.92337 1.40988 0
M  V30 22246 H 2018.76 -3.21246 0.472328 0
M  V30 22247 H 2019.78 -3.07545 4.16697 0
M  V30 22248 H 2016.45 -3.81557 1.69471 0
M  V30 22249 H 2017.84 -3.51659 5.72526 0
M  V30 22250 N 2020.56 -1.3089 -0.877815 0
M  V30 22251 C 2021.5 -1.12206 -1.98709 0
M  V30 22252 C 2022.47 -0.0277064 -1.62576 0
M  V30 22253 O 2023.66 -0.182634 -1.87613 0
M  V30 22254 C 2020.78 -0.712811 -3.31114 0
M  V30 22255 C 2019.83 -1.80907 -3.86232 0
M  V30 22256 S 2020.66 -3.41295 -4.12647 0
M  V30 22257 C 2021.82 -3.02289 -5.48062 0
M  V30 22258 H 2022.05 -2.06114 -2.14253 0
M  V30 22259 H 2019.59 -1.15286 -1.02706 0
M  V30 22260 H 2021.54 -0.483431 -4.07643 0
M  V30 22261 H 2020.2 0.207029 -3.13417 0
M  V30 22262 H 2019.4 -1.47517 -4.81928 0
M  V30 22263 H 2019 -1.9931 -3.16467 0
M  V30 22264 H 2021.29 -2.50695 -6.29411 0
M  V30 22265 H 2022.23 -3.9692 -5.86396 0
M  V30 22266 H 2022.64 -2.39953 -5.10963 0
M  V30 22267 N 2022.04 1.0911 -1.13723 0
M  V30 22268 C 2022.99 2.17927 -0.813066 0
M  V30 22269 C 2023.98 1.68143 0.205993 0
M  V30 22270 O 2025.19 1.7989 0.0628131 0
M  V30 22271 H 2021.56 0.710911 -0.245171 0
M  V30 22272 H 2023.53 2.42497 -1.7389 0
M  V30 22273 C 2022.28 3.46412 -0.298989 0
M  V30 22274 H 2021.61 3.85091 -1.07447 0
M  V30 22275 H 2023.05 4.23856 -0.110638 0
M  V30 22276 C 2021.51 3.22454 0.975967 0
M  V30 22277 O 2022.04 3.45385 2.05115 0
M  V30 22278 N 2020.24 2.76039 0.908345 0
M  V30 22279 H 2019.79 2.57579 0.0332379 0
M  V30 22280 H 2019.75 2.60387 1.76199 0
M  V30 22281 N 2023.52 0.931232 1.27145 0
M  V30 22282 C 2024.47 0.423636 2.2871 0
M  V30 22283 C 2025.46 -0.493886 1.62041 0
M  V30 22284 O 2026.67 -0.373198 1.76089 0
M  V30 22285 H 2023.04 0.118436 0.742615 0
M  V30 22286 H 2025.01 1.29297 2.68933 0
M  V30 22287 C 2023.76 -0.305051 3.46359 0
M  V30 22288 H 2023.08 0.391786 3.97876 0
M  V30 22289 H 2024.52 -0.62459 4.19374 0
M  V30 22290 C 2022.98 -1.5193 3.00697 0
M  V30 22291 O 2023.51 -2.61795 3.04674 0
M  V30 22292 N 2021.72 -1.37237 2.56153 0
M  V30 22293 H 2021.27 -0.478522 2.53116 0
M  V30 22294 H 2021.22 -2.18605 2.25963 0
M  V30 22295 N 2025 -1.41343 0.697132 0
M  V30 22296 C 2025.94 -2.30777 0.0327941 0
M  V30 22297 C 2026.91 -1.47192 -0.769652 0
M  V30 22298 O 2028.1 -1.75976 -0.737366 0
M  V30 22299 C 2025.24 -3.33252 -0.896488 0
M  V30 22300 C 2024.35 -4.31915 -0.0854899 0
M  V30 22301 C 2023.49 -5.2146 -1.01256 0
M  V30 22302 C 2022.53 -6.11791 -0.194558 0
M  V30 22303 N 2021.66 -6.93813 -1.07551 0
M  V30 22304 H 2026.5 -2.87027 0.801203 0
M  V30 22305 H 2024.04 -1.41363 0.406815 0
M  V30 22306 H 2026 -3.91216 -1.44933 0
M  V30 22307 H 2024.63 -2.78548 -1.63128 0
M  V30 22308 H 2023.68 -3.75886 0.58429 0
M  V30 22309 H 2024.99 -4.95774 0.548612 0
M  V30 22310 H 2024.15 -5.84266 -1.63457 0
M  V30 22311 H 2022.89 -4.57832 -1.68051 0
M  V30 22312 H 2021.89 -5.48032 0.440518 0
M  V30 22313 H 2023.12 -6.77474 0.469626 0
M  V30 22314 H 2021.06 -6.32792 -1.72946 0
M  V30 22315 H 2020.98 -7.54364 -0.497018 0
M  V30 22316 H 2022.25 -7.61086 -1.68429 0
M  V30 22317 N 2026.48 -0.441993 -1.51275 0
M  V30 22318 C 2027.41 0.40297 -2.2563 0
M  V30 22319 C 2028.42 0.982305 -1.29825 0
M  V30 22320 O 2029.61 0.875653 -1.55546 0
M  V30 22321 C 2026.71 1.57618 -3.00016 0
M  V30 22322 C 2025.88 1.11489 -4.22953 0
M  V30 22323 C 2024.94 2.15876 -4.79879 0
M  V30 22324 O 2023.97 1.75121 -5.41591 0
M  V30 22325 N 2025.17 3.48408 -4.64319 0
M  V30 22326 H 2027.93 -0.234323 -2.98783 0
M  V30 22327 H 2025.5 -0.271138 -1.59613 0
M  V30 22328 H 2027.49 2.27084 -3.34985 0
M  V30 22329 H 2026.06 2.11873 -2.29845 0
M  V30 22330 H 2025.28 0.247136 -3.93425 0
M  V30 22331 H 2026.57 0.78415 -5.02721 0
M  V30 22332 H 2025.96 3.84249 -4.15173 0
M  V30 22333 H 2024.52 4.13755 -5.03637 0
M  V30 22334 N 2027.95 1.56642 -0.173515 0
M  V30 22335 C 2028.9 2.1807 0.755917 0
M  V30 22336 C 2029.87 1.12136 1.22534 0
M  V30 22337 O 2031.06 1.40296 1.29312 0
M  V30 22338 C 2028.2 2.82726 1.97888 0
M  V30 22339 C 2027.31 4.03127 1.55282 0
M  V30 22340 C 2026.44 4.55703 2.72962 0
M  V30 22341 C 2025.48 5.68509 2.26857 0
M  V30 22342 N 2024.62 6.15585 3.37638 0
M  V30 22343 H 2029.46 2.97147 0.225305 0
M  V30 22344 H 2027 1.46763 0.0994783 0
M  V30 22345 H 2028.95 3.18371 2.69621 0
M  V30 22346 H 2027.58 2.0625 2.48316 0
M  V30 22347 H 2026.64 3.73288 0.732154 0
M  V30 22348 H 2027.95 4.84777 1.17441 0
M  V30 22349 H 2027.1 4.93541 3.52849 0
M  V30 22350 H 2025.84 3.73115 3.14065 0
M  V30 22351 H 2024.85 5.3022 1.45418 0
M  V30 22352 H 2026.07 6.529 1.8681 0
M  V30 22353 H 2024.02 5.35925 3.78312 0
M  V30 22354 H 2023.93 6.9223 3.03897 0
M  V30 22355 H 2025.2 6.58074 4.17803 0
M  V30 22356 N 2029.43 -0.1002 1.57281 0
M  V30 22357 C 2030.39 -1.10612 2.00743 0
M  V30 22358 C 2031.39 -1.33241 0.900199 0
M  V30 22359 O 2032.58 -1.2944 1.1658 0
M  V30 22360 C 2029.72 -2.45642 2.36375 0
M  V30 22361 H 2030.91 -0.732144 2.90826 0
M  V30 22362 H 2028.46 -0.345091 1.52443 0
M  V30 22363 H 2029.2 -2.87925 1.4923 0
M  V30 22364 H 2028.98 -2.30567 3.17146 0
M  V30 22365 H 2030.47 -3.18002 2.70674 0
M  V30 22366 N 2030.91 -1.53174 -0.370891 0
M  V30 22367 C 2031.82 -1.82187 -1.478 0
M  V30 22368 C 2032.84 -0.70987 -1.58861 0
M  V30 22369 O 2034.01 -0.999372 -1.74856 0
M  V30 22370 C 2031.08 -2.00097 -2.83129 0
M  V30 22371 C 2030.14 -3.24002 -2.8164 0
M  V30 22372 C 2029.37 -3.41048 -4.10514 0
M  V30 22373 O 2029.59 -2.62503 -5.06407 0
M  V30 22374 O 2028.53 -4.34381 -4.16649 0
M  V30 22375 H 2032.35 -2.76234 -1.26207 0
M  V30 22376 H 2029.94 -1.38488 -0.560483 0
M  V30 22377 H 2031.82 -2.13479 -3.63324 0
M  V30 22378 H 2030.5 -1.0924 -3.0471 0
M  V30 22379 H 2029.4 -3.16048 -2.00162 0
M  V30 22380 H 2030.74 -4.14764 -2.65012 0
M  V30 22381 N 2032.39 0.630389 -1.44443 0
M  V30 22382 C 2033.32 1.75348 -1.54192 0
M  V30 22383 C 2034.3 1.65453 -0.394887 0
M  V30 22384 O 2035.48 1.84201 -0.615103 0
M  V30 22385 C 2032.61 3.13881 -1.48647 0
M  V30 22386 C 2031.57 3.38566 -2.61835 0
M  V30 22387 C 2030.89 4.77136 -2.41341 0
M  V30 22388 C 2032.19 3.31055 -4.0398 0
M  V30 22389 H 2033.89 1.67446 -2.48198 0
M  V30 22390 H 2031.43 0.804159 -1.19454 0
M  V30 22391 H 2033.39 3.92226 -1.54068 0
M  V30 22392 H 2032.11 3.22568 -0.511585 0
M  V30 22393 H 2030.77 2.62602 -2.55805 0
M  V30 22394 H 2030.42 4.82527 -1.42043 0
M  V30 22395 H 2030.12 4.9461 -3.1723 0
M  V30 22396 H 2031.64 5.57709 -2.48581 0
M  V30 22397 H 2033.06 3.99304 -4.11375 0
M  V30 22398 H 2031.45 3.60064 -4.80077 0
M  V30 22399 H 2032.52 2.28852 -4.27498 0
M  V30 22400 N 2033.87 1.31354 0.870861 0
M  V30 22401 C 2035.14 1.11627 1.6062 0
M  V30 22402 C 2035.52 -0.329351 2.08515 0
M  V30 22403 O 2034.87 -1.3233 1.86282 0
M  V30 22404 C 2035.08 2.12968 2.76488 0
M  V30 22405 C 2036.43 2.45442 3.46473 0
M  V30 22406 O 2037.45 2.11388 2.86694 0
M  V30 22407 O 2036.31 3.03753 4.54309 0
M  V30 22408 H 2033.41 0.429682 0.706614 0
M  V30 22409 H 2035.95 1.42829 0.916402 0
M  V30 22410 H 2034.72 3.10212 2.38504 0
M  V30 22411 H 2034.35 1.82666 3.53156 0
M  V30 22412 N 2035.34 -1.08505 1.143 0
M  V30 22413 C 2036.29 -2.15397 0.829011 0
M  V30 22414 C 2037.26 -1.64728 -0.213016 0
M  V30 22415 O 2038.45 -1.90619 -0.0831625 0
M  V30 22416 C 2035.59 -3.43691 0.311546 0
M  V30 22417 C 2034.7 -4.08212 1.41375 0
M  V30 22418 C 2033.83 -5.24296 0.853639 0
M  V30 22419 C 2032.87 -5.80757 1.93359 0
M  V30 22420 N 2032.01 -6.88188 1.39073 0
M  V30 22421 H 2036.85 -2.41597 1.74456 0
M  V30 22422 H 2034.39 -1.18566 0.870668 0
M  V30 22423 H 2036.34 -4.17199 -0.00667521 0
M  V30 22424 H 2034.97 -3.17779 -0.567106 0
M  V30 22425 H 2034.03 -3.32474 1.84839 0
M  V30 22426 H 2035.34 -4.46196 2.2296 0
M  V30 22427 H 2034.49 -6.0474 0.487261 0
M  V30 22428 H 2033.23 -4.877 0.00682778 0
M  V30 22429 H 2032.24 -4.98967 2.30893 0
M  V30 22430 H 2033.46 -6.19412 2.78398 0
M  V30 22431 H 2031.41 -6.53553 0.566079 0
M  V30 22432 H 2031.32 -7.24992 2.14296 0
M  V30 22433 H 2032.59 -7.72366 1.05222 0
M  V30 22434 N 2036.82 -0.937962 -1.26649 0
M  V30 22435 C 2037.77 -0.443717 -2.26495 0
M  V30 22436 C 2038.74 0.494894 -1.58556 0
M  V30 22437 O 2039.92 0.411807 -1.86303 0
M  V30 22438 C 2037.06 0.287974 -3.43896 0
M  V30 22439 C 2036.18 -0.685936 -4.2652 0
M  V30 22440 C 2035.31 0.0666303 -5.31158 0
M  V30 22441 C 2034.35 -0.899313 -6.05457 0
M  V30 22442 N 2033.49 -0.17871 -7.01873 0
M  V30 22443 H 2038.33 -1.3001 -2.68144 0
M  V30 22444 H 2035.86 -0.652331 -1.31845 0
M  V30 22445 H 2037.82 0.728613 -4.10788 0
M  V30 22446 H 2036.45 1.10852 -3.03169 0
M  V30 22447 H 2035.5 -1.24509 -3.59446 0
M  V30 22448 H 2036.82 -1.42373 -4.7805 0
M  V30 22449 H 2035.97 0.566702 -6.04047 0
M  V30 22450 H 2034.71 0.837326 -4.80458 0
M  V30 22451 H 2033.71 -1.41054 -5.31398 0
M  V30 22452 H 2034.94 -1.66996 -6.58247 0
M  V30 22453 H 2032.89 0.573553 -6.53488 0
M  V30 22454 H 2032.8 -0.855891 -7.51139 0
M  V30 22455 H 2034.07 0.300374 -7.78921 0
M  V30 22456 N 2038.3 1.40971 -0.704618 0
M  V30 22457 C 2039.55 2.0108 -0.239427 0
M  V30 22458 C 2039.87 1.55835 1.16386 0
M  V30 22459 O 2039.13 0.76445 1.80152 0
M  V30 22460 C 2039.43 3.56487 -0.255368 0
M  V30 22461 C 2039.09 4.21275 -1.60743 0
M  V30 22462 C 2037.76 4.38686 -1.97756 0
M  V30 22463 C 2040.11 4.57518 -2.49654 0
M  V30 22464 C 2037.44 4.8962 -3.23247 0
M  V30 22465 C 2039.79 5.09846 -3.74486 0
M  V30 22466 C 2038.45 5.25468 -4.11631 0
M  V30 22467 H 2037.72 0.735802 -0.0876124 0
M  V30 22468 H 2040.37 1.6874 -0.905491 0
M  V30 22469 H 2038.67 3.8867 0.494257 0
M  V30 22470 H 2040.37 4.00814 0.122235 0
M  V30 22471 H 2036.96 4.08103 -1.30957 0
M  V30 22472 H 2041.15 4.43712 -2.22336 0
M  V30 22473 H 2036.4 4.99899 -3.52009 0
M  V30 22474 H 2040.58 5.36868 -4.4356 0
M  V30 22475 H 2038.2 5.64697 -5.08941 0
M  V30 22476 N 2039.78 0.45001 1.51039 0
M  V30 22477 C 2041 -0.112834 2.07093 0
M  V30 22478 C 2041.43 -1.34598 1.31397 0
M  V30 22479 O 2040.79 -1.7778 0.355505 0
M  V30 22480 C 2040.83 -0.400989 3.58364 0
M  V30 22481 O 2039.94 -1.48527 3.84725 0
M  V30 22482 H 2039.28 0.00369778 0.66399 0
M  V30 22483 H 2041.81 0.634991 1.94497 0
M  V30 22484 H 2041.82 -0.647726 4.02826 0
M  V30 22485 H 2040.49 0.500232 4.12881 0
M  V30 22486 H 2039.07 -1.2275 3.52118 0
M  V30 22487 N 2041.26 -1.56548 0.18182 0
M  V30 22488 C 2042.17 -2.22065 -0.756597 0
M  V30 22489 C 2043.18 -1.21554 -1.24501 0
M  V30 22490 O 2044.36 -1.5425 -1.29495 0
M  V30 22491 C 2041.42 -2.85678 -1.9644 0
M  V30 22492 C 2040.48 -4.0142 -1.52185 0
M  V30 22493 C 2039.72 -4.61991 -2.67209 0
M  V30 22494 O 2039.94 -4.21463 -3.8435 0
M  V30 22495 O 2038.87 -5.51685 -2.40682 0
M  V30 22496 H 2042.7 -3.02838 -0.228696 0
M  V30 22497 H 2040.29 -1.49326 -0.0468661 0
M  V30 22498 H 2042.17 -3.25973 -2.67057 0
M  V30 22499 H 2040.84 -2.07894 -2.48116 0
M  V30 22500 H 2039.75 -3.65774 -0.784878 0
M  V30 22501 H 2041.08 -4.80828 -1.0519 0
M  V30 22502 N 2042.73 0.0918577 -1.57332 0
M  V30 22503 C 2043.67 1.14242 -1.97545 0
M  V30 22504 C 2044.65 1.38665 -0.849166 0
M  V30 22505 O 2045.83 1.52371 -1.10974 0
M  V30 22506 C 2042.96 2.49094 -2.29499 0
M  V30 22507 C 2042 2.40932 -3.51929 0
M  V30 22508 S 2042.84 1.82272 -5.03525 0
M  V30 22509 C 2043.99 3.18742 -5.3866 0
M  V30 22510 H 2044.22 0.799633 -2.86344 0
M  V30 22511 H 2041.76 0.299658 -1.51464 0
M  V30 22512 H 2043.72 3.26674 -2.48585 0
M  V30 22513 H 2042.38 2.80541 -1.41264 0
M  V30 22514 H 2041.57 3.40331 -3.7174 0
M  V30 22515 H 2041.17 1.71483 -3.3237 0
M  V30 22516 H 2043.46 4.15022 -5.35503 0
M  V30 22517 H 2044.41 3.03732 -6.3965 0
M  V30 22518 H 2044.81 3.18423 -4.66119 0
M  V30 22519 N 2044.21 1.53368 0.362763 0
M  V30 22520 C 2045.16 1.80679 1.46485 0
M  V30 22521 C 2046.15 0.676074 1.55324 0
M  V30 22522 O 2047.36 0.859068 1.58177 0
M  V30 22523 H 2043.74 0.572116 0.488044 0
M  V30 22524 H 2045.71 2.72919 1.20656 0
M  V30 22525 C 2044.46 2.01611 2.83281 0
M  V30 22526 H 2043.78 2.88059 2.7724 0
M  V30 22527 H 2045.22 2.24696 3.59566 0
M  V30 22528 C 2043.68 0.796023 3.27361 0
M  V30 22529 O 2044.21 -0.0139218 4.01698 0
M  V30 22530 N 2042.41 0.618665 2.83938 0
M  V30 22531 H 2041.96 1.27892 2.2361 0
M  V30 22532 H 2041.92 -0.196265 3.13787 0
M  V30 22533 N 2045.69 -0.62272 1.44776 0
M  V30 22534 C 2046.94 -1.38415 1.4822 0
M  V30 22535 C 2047.27 -1.93844 0.117595 0
M  V30 22536 O 2046.54 -1.7416 -0.865935 0
M  V30 22537 C 2046.83 -2.54325 2.54933 0
M  V30 22538 C 2046.68 -2.04192 4.00782 0
M  V30 22539 C 2048 -3.56495 2.58069 0
M  V30 22540 H 2045.12 -0.501939 0.539654 0
M  V30 22541 H 2047.76 -0.703347 1.76502 0
M  V30 22542 H 2045.91 -3.12403 2.30947 0
M  V30 22543 H 2047.58 -1.50879 4.35928 0
M  V30 22544 H 2045.83 -1.35308 4.12158 0
M  V30 22545 H 2046.5 -2.87679 4.7111 0
M  V30 22546 H 2048.97 -3.08232 2.79522 0
M  V30 22547 H 2047.85 -4.35106 3.34625 0
M  V30 22548 H 2048.11 -4.11119 1.62583 0
M  V30 22549 N 2047.17 -1.31814 -0.863883 0
M  V30 22550 C 2048.41 -1.22028 -1.61979 0
M  V30 22551 C 2048.75 0.219661 -1.92954 0
M  V30 22552 O 2048.02 1.15428 -1.56546 0
M  V30 22553 C 2048.31 -2.0707 -2.94608 0
M  V30 22554 C 2048.16 -3.59395 -2.70473 0
M  V30 22555 C 2049.48 -1.92477 -3.95779 0
M  V30 22556 H 2046.6 -0.444641 -0.587762 0
M  V30 22557 H 2049.24 -1.61666 -0.998202 0
M  V30 22558 H 2047.39 -1.73395 -3.47659 0
M  V30 22559 H 2049.06 -4.03237 -2.24048 0
M  V30 22560 H 2047.3 -3.82521 -2.04597 0
M  V30 22561 H 2047.97 -4.14213 -3.64871 0
M  V30 22562 H 2050.45 -2.21959 -3.51957 0
M  V30 22563 H 2049.33 -2.54272 -4.86453 0
M  V30 22564 H 2049.59 -0.889783 -4.33053 0
M  V30 22565 N 2048.65 1.07897 -1.14873 0
M  V30 22566 C 2049.6 2.13167 -0.808951 0
M  V30 22567 C 2050.58 1.59598 0.204268 0
M  V30 22568 O 2051.77 1.76999 0.00583521 0
M  V30 22569 C 2048.9 3.4204 -0.293859 0
M  V30 22570 C 2047.99 4.02477 -1.33691 0
M  V30 22571 N 2048.38 4.37248 -2.54259 0
M  V30 22572 C 2046.68 4.29877 -1.18835 0
M  V30 22573 C 2047.38 4.85066 -3.2107 0
M  V30 22574 N 2046.35 4.83493 -2.48466 0
M  V30 22575 H 2050.16 2.37876 -1.72604 0
M  V30 22576 H 2047.67 1.25281 -1.03336 0
M  V30 22577 H 2049.67 4.16888 -0.0321146 0
M  V30 22578 H 2048.33 3.18777 0.617359 0
M  V30 22579 H 2049.34 4.28112 -2.91446 0
M  V30 22580 H 2046.01 4.16141 -0.336571 0
M  V30 22581 H 2047.4 5.21307 -4.23897 0
M  V30 22582 N 2050.12 0.944665 1.2615 0
M  V30 22583 C 2051.06 0.414303 2.25424 0
M  V30 22584 C 2052.07 -0.464345 1.56037 0
M  V30 22585 O 2053.26 -0.274229 1.76381 0
M  V30 22586 C 2050.36 -0.423331 3.36246 0
M  V30 22587 C 2049.53 0.439977 4.35182 0
M  V30 22588 C 2048.59 -0.337801 5.25115 0
M  V30 22589 O 2047.62 0.260373 5.68604 0
M  V30 22590 N 2048.82 -1.63346 5.57044 0
M  V30 22591 H 2051.58 1.26775 2.71566 0
M  V30 22592 H 2049.14 0.813928 1.39953 0
M  V30 22593 H 2051.14 -0.951131 3.93364 0
M  V30 22594 H 2049.71 -1.17759 2.89571 0
M  V30 22595 H 2048.93 1.14896 3.77084 0
M  V30 22596 H 2050.21 1.02957 4.98274 0
M  V30 22597 H 2049.61 -2.14152 5.23599 0
M  V30 22598 H 2048.17 -2.10743 6.16791 0
M  V30 22599 N 2051.6 -1.40596 0.712085 0
M  V30 22600 C 2052.85 -2.00181 0.247097 0
M  V30 22601 C 2053.16 -1.57102 -1.16526 0
M  V30 22602 O 2054.37 -2.09361 -1.72858 0
M  V30 22603 C 2052.83 -3.57771 0.390856 0
M  V30 22604 C 2052.43 -4.09825 1.80964 0
M  V30 22605 C 2054.18 -4.24498 -0.0135164 0
M  V30 22606 C 2052.09 -5.59907 1.90417 0
M  V30 22607 H 2051.02 -0.748773 0.0886278 0
M  V30 22608 H 2053.67 -1.60876 0.882669 0
M  V30 22609 H 2052.05 -3.94759 -0.313241 0
M  V30 22610 H 2053.22 -3.84221 2.54383 0
M  V30 22611 H 2051.54 -3.55682 2.16516 0
M  V30 22612 H 2054.13 -5.34688 0.0364444 0
M  V30 22613 H 2054.48 -4.02714 -1.05487 0
M  V30 22614 H 2055.01 -3.92603 0.640898 0
M  V30 22615 H 2051.75 -5.86541 2.92661 0
M  V30 22616 H 2051.27 -5.87385 1.21404 0
M  V30 22617 H 2052.95 -6.24951 1.67466 0
M  V30 22618 N 2053.08 -0.458013 -1.50798 0
M  V30 22619 C 2054.01 0.333063 -2.31112 0
M  V30 22620 C 2054.99 1.00231 -1.37433 0
M  V30 22621 O 2056.18 1.00199 -1.66354 0
M  V30 22622 C 2053.31 1.4229 -3.16814 0
M  V30 22623 C 2052.26 0.875993 -4.1894 0
M  V30 22624 C 2051.59 2.06313 -4.93294 0
M  V30 22625 C 2052.89 -0.103786 -5.22197 0
M  V30 22626 H 2054.58 -0.337222 -2.97495 0
M  V30 22627 H 2052.13 -0.163622 -1.43067 0
M  V30 22628 H 2054.08 1.98369 -3.7179 0
M  V30 22629 H 2052.8 2.12177 -2.48291 0
M  V30 22630 H 2051.46 0.337263 -3.65045 0
M  V30 22631 H 2051.11 2.74868 -4.21256 0
M  V30 22632 H 2050.81 1.70348 -5.62366 0
M  V30 22633 H 2052.33 2.62908 -5.511 0
M  V30 22634 H 2053.75 0.367392 -5.72122 0
M  V30 22635 H 2052.15 -0.377048 -5.98914 0
M  V30 22636 H 2053.22 -1.03392 -4.73749 0
M  V30 22637 N 2054.56 1.56449 -0.190119 0
M  V30 22638 C 2055.51 2.20194 0.749479 0
M  V30 22639 C 2056.5 1.1716 1.22352 0
M  V30 22640 O 2057.71 1.35317 1.18699 0
M  V30 22641 H 2054.08 0.705613 0.260028 0
M  V30 22642 H 2056.05 2.97807 0.18808 0
M  V30 22643 C 2054.8 2.87151 1.9606 0
M  V30 22644 H 2054.13 3.66174 1.60489 0
M  V30 22645 H 2055.57 3.35198 2.5965 0
M  V30 22646 C 2054.02 1.87921 2.7962 0
M  V30 22647 O 2054.55 1.37638 3.77384 0
M  V30 22648 N 2052.76 1.5626 2.45013 0
M  V30 22649 H 2052.31 1.97343 1.6557 0
M  V30 22650 H 2052.27 0.901217 3.01207 0
M  V30 22651 N 2056.04 -0.0835127 1.57379 0
M  V30 22652 C 2057.27 -0.796949 1.9061 0
M  V30 22653 C 2057.68 -1.72229 0.78318 0
M  V30 22654 O 2057.02 -1.81948 -0.2531 0
M  V30 22655 C 2057.08 -1.65376 3.19204 0
M  V30 22656 C 2056.74 -0.899027 4.4807 0
M  V30 22657 C 2057.74 -0.223567 5.19419 0
M  V30 22658 C 2055.43 -0.869673 4.94714 0
M  V30 22659 C 2057.42 0.47115 6.35656 0
M  V30 22660 C 2055.11 -0.171178 6.1086 0
M  V30 22661 C 2056.11 0.498044 6.81182 0
M  V30 22662 O 2055.79 1.18531 7.95114 0
M  V30 22663 H 2055.53 -0.232443 0.63478 0
M  V30 22664 H 2058.08 -0.0616418 2.05307 0
M  V30 22665 H 2056.31 -2.43159 3.00684 0
M  V30 22666 H 2058 -2.24481 3.38176 0
M  V30 22667 H 2058.76 -0.237628 4.84418 0
M  V30 22668 H 2054.64 -1.38002 4.3986 0
M  V30 22669 H 2058.19 0.994067 6.90481 0
M  V30 22670 H 2054.08 -0.155003 6.45314 0
M  V30 22671 H 2054.85 1.09339 8.11164 0
M  V30 22672 N 2057.52 -1.53558 -0.354624 0
M  V30 22673 C 2058.43 -1.83745 -1.4586 0
M  V30 22674 C 2059.44 -0.72668 -1.58099 0
M  V30 22675 O 2060.62 -1.01786 -1.73786 0
M  V30 22676 C 2057.68 -2.03089 -2.80991 0
M  V30 22677 C 2056.74 -3.26971 -2.78187 0
M  V30 22678 C 2055.98 -3.45383 -4.06874 0
M  V30 22679 O 2056.2 -2.6786 -5.03594 0
M  V30 22680 O 2055.13 -4.38776 -4.12019 0
M  V30 22681 H 2058.96 -2.77557 -1.23271 0
M  V30 22682 H 2056.54 -1.39075 -0.545763 0
M  V30 22683 H 2058.43 -2.17321 -3.6104 0
M  V30 22684 H 2057.1 -1.12466 -3.03534 0
M  V30 22685 H 2056.01 -3.18153 -1.96798 0
M  V30 22686 H 2057.34 -4.17552 -2.60598 0
M  V30 22687 N 2058.99 0.615033 -1.45104 0
M  V30 22688 C 2059.9 1.75459 -1.55728 0
M  V30 22689 C 2060.92 1.6829 -0.442095 0
M  V30 22690 O 2062.1 1.88779 -0.701735 0
M  V30 22691 C 2059.16 3.11899 -1.51394 0
M  V30 22692 C 2058.22 3.30578 -2.73892 0
M  V30 22693 C 2057.45 4.60509 -2.69754 0
M  V30 22694 O 2057.68 5.42353 -1.76662 0
M  V30 22695 O 2056.61 4.81739 -3.60848 0
M  V30 22696 H 2060.44 1.69447 -2.52035 0
M  V30 22697 H 2058.02 0.778221 -1.27531 0
M  V30 22698 H 2059.9 3.93203 -1.51557 0
M  V30 22699 H 2058.58 3.18418 -0.582365 0
M  V30 22700 H 2057.49 2.48891 -2.79292 0
M  V30 22701 H 2058.82 3.2893 -3.6615 0
M  V30 22702 N 2060.47 1.3227 0.85688 0
M  V30 22703 C 2061.89 1.11212 1.14473 0
M  V30 22704 C 2062.09 -0.108857 2.01206 0
M  V30 22705 O 2061.14 -0.7944 2.39678 0
M  V30 22706 C 2062.46 2.39046 1.82421 0
M  V30 22707 C 2064 2.44782 1.95066 0
M  V30 22708 C 2064.48 3.72531 2.66429 0
M  V30 22709 N 2065.97 3.735 2.73956 0
M  V30 22710 C 2066.71 4.69049 3.29819 0
M  V30 22711 N 2066.2 5.74963 3.86509 0
M  V30 22712 N 2067.99 4.5655 3.27901 0
M  V30 22713 H 2060.15 2.10557 0.279231 0
M  V30 22714 H 2062.41 0.929507 0.186337 0
M  V30 22715 H 2062.11 3.28299 1.26145 0
M  V30 22716 H 2061.99 2.49838 2.82596 0
M  V30 22717 H 2064.38 1.5599 2.50502 0
M  V30 22718 H 2064.46 2.37944 0.938939 0
M  V30 22719 H 2064.1 4.61696 2.11658 0
M  V30 22720 H 2064.03 3.76639 3.68036 0
M  V30 22721 H 2066.52 2.96945 2.33735 0
M  V30 22722 H 2066.83 6.43931 4.27285 0
M  V30 22723 H 2065.18 5.7872 3.84848 0
M  V30 22724 H 2068.37 3.72973 2.82858 0
M  V30 22725 H 2068.54 5.31189 3.71136 0
M  V30 22726 N 2061.95 -1.07287 1.15444 0
M  V30 22727 C 2063.2 -1.79277 0.924257 0
M  V30 22728 C 2063.51 -1.8771 -0.549932 0
M  V30 22729 O 2064.72 -2.56229 -0.897718 0
M  V30 22730 C 2063.17 -3.22168 1.60424 0
M  V30 22731 C 2062.78 -3.21934 3.11549 0
M  V30 22732 C 2064.53 -3.98763 1.45563 0
M  V30 22733 C 2062.43 -4.59482 3.72331 0
M  V30 22734 H 2061.36 -0.671898 0.342153 0
M  V30 22735 H 2064.01 -1.20415 1.38465 0
M  V30 22736 H 2062.4 -3.81227 1.07154 0
M  V30 22737 H 2063.57 -2.72516 3.7158 0
M  V30 22738 H 2061.88 -2.58836 3.26179 0
M  V30 22739 H 2064.48 -5.00423 1.88364 0
M  V30 22740 H 2064.82 -4.14343 0.403205 0
M  V30 22741 H 2065.36 -3.46201 1.95933 0
M  V30 22742 H 2062.1 -4.49106 4.77476 0
M  V30 22743 H 2061.62 -5.09135 3.17083 0
M  V30 22744 H 2063.3 -5.2845 3.73296 0
M  V30 22745 N 2063.43 -0.951342 -1.25647 0
M  V30 22746 C 2064.84 -0.655246 -1.45529 0
M  V30 22747 C 2065.04 0.788272 -1.85441 0
M  V30 22748 O 2064.1 1.5639 -1.98238 0
M  V30 22749 C 2065.41 -1.62536 -2.52987 0
M  V30 22750 C 2066.96 -1.63618 -2.6683 0
M  V30 22751 C 2067.44 -2.59385 -3.77469 0
M  V30 22752 N 2068.93 -2.57731 -3.84876 0
M  V30 22753 C 2069.66 -3.28512 -4.69966 0
M  V30 22754 N 2069.16 -4.08754 -5.59367 0
M  V30 22755 N 2070.95 -3.17415 -4.63901 0
M  V30 22756 H 2063.1 -1.88424 -0.980317 0
M  V30 22757 H 2065.36 -0.8103 -0.492055 0
M  V30 22758 H 2065.07 -2.65628 -2.3051 0
M  V30 22759 H 2064.94 -1.38531 -3.5084 0
M  V30 22760 H 2067.33 -0.61246 -2.88674 0
M  V30 22761 H 2067.41 -1.91681 -1.69387 0
M  V30 22762 H 2067.06 -3.61882 -3.56376 0
M  V30 22763 H 2066.99 -2.28608 -4.7439 0
M  V30 22764 H 2069.48 -1.99473 -3.20966 0
M  V30 22765 H 2069.79 -4.5969 -6.21212 0
M  V30 22766 H 2068.14 -4.12853 -5.59086 0
M  V30 22767 H 2071.33 -2.54201 -3.93064 0
M  V30 22768 H 2071.5 -3.72843 -5.29992 0
M  V30 22769 N 2064.91 1.40216 -0.719531 0
M  V30 22770 C 2065.84 2.28192 -0.0185278 0
M  V30 22771 C 2066.82 1.43553 0.763632 0
M  V30 22772 O 2068 1.72961 0.749443 0
M  V30 22773 C 2065.13 3.24179 0.981108 0
M  V30 22774 C 2064.17 4.25518 0.289289 0
M  V30 22775 S 2065.01 5.26351 -0.985661 0
M  V30 22776 C 2066.16 6.25899 0.011772 0
M  V30 22777 H 2066.4 2.87299 -0.764643 0
M  V30 22778 H 2063.93 1.45709 -0.510709 0
M  V30 22779 H 2065.89 3.80005 1.55262 0
M  V30 22780 H 2064.55 2.64122 1.69995 0
M  V30 22781 H 2063.74 4.93045 1.04512 0
M  V30 22782 H 2063.34 3.73411 -0.209776 0
M  V30 22783 H 2065.63 6.72054 0.857313 0
M  V30 22784 H 2066.58 7.0529 -0.630218 0
M  V30 22785 H 2066.99 5.63238 0.377261 0
M  V30 22786 N 2066.38 0.466004 1.50553 0
M  V30 22787 C 2067.61 -0.0884484 2.06411 0
M  V30 22788 C 2068.02 -1.34509 1.33057 0
M  V30 22789 O 2067.36 -1.79472 0.391869 0
M  V30 22790 C 2067.43 -0.44758 3.56703 0
M  V30 22791 C 2067.09 0.70631 4.51509 0
M  V30 22792 C 2068.09 1.58687 4.9509 0
M  V30 22793 C 2065.77 0.895191 4.94259 0
M  V30 22794 C 2067.77 2.64076 5.80123 0
M  V30 22795 C 2065.45 1.95231 5.79075 0
M  V30 22796 C 2066.45 2.82346 6.21908 0
M  V30 22797 O 2066.14 3.86239 7.05035 0
M  V30 22798 H 2065.87 0.00147065 0.675998 0
M  V30 22799 H 2068.43 0.652308 1.94767 0
M  V30 22800 H 2066.66 -1.24145 3.66231 0
M  V30 22801 H 2068.34 -0.93652 3.94948 0
M  V30 22802 H 2069.11 1.45261 4.62736 0
M  V30 22803 H 2064.99 0.226608 4.60443 0
M  V30 22804 H 2068.53 3.32103 6.13476 0
M  V30 22805 H 2064.43 2.08666 6.10843 0
M  V30 22806 H 2065.2 3.83166 7.23275 0
M  V30 22807 N 2067.86 -1.56346 0.198413 0
M  V30 22808 C 2068.77 -2.22855 -0.733001 0
M  V30 22809 C 2069.79 -1.22868 -1.23205 0
M  V30 22810 O 2070.96 -1.55615 -1.27852 0
M  V30 22811 C 2068.03 -2.87746 -1.93399 0
M  V30 22812 C 2067.09 -4.03012 -1.47919 0
M  V30 22813 C 2066.32 -4.64799 -2.62293 0
M  V30 22814 O 2066.55 -4.25516 -3.79859 0
M  V30 22815 O 2065.48 -5.54206 -2.34817 0
M  V30 22816 H 2069.31 -3.03063 -0.196563 0
M  V30 22817 H 2066.89 -1.49368 -0.0310254 0
M  V30 22818 H 2068.77 -3.28788 -2.63584 0
M  V30 22819 H 2067.45 -2.10514 -2.45897 0
M  V30 22820 H 2066.35 -3.66586 -0.746038 0
M  V30 22821 H 2067.69 -4.81917 -1.00084 0
M  V30 22822 N 2069.34 0.0751653 -1.57421 0
M  V30 22823 C 2070.25 1.10763 -2.06806 0
M  V30 22824 C 2071.27 1.4261 -0.99691 0
M  V30 22825 O 2072.44 1.52854 -1.31139 0
M  V30 22826 C 2069.51 2.40281 -2.49932 0
M  V30 22827 C 2068.57 2.15435 -3.7133 0
M  V30 22828 C 2067.8 3.38777 -4.1239 0
M  V30 22829 O 2068.02 4.4777 -3.53353 0
M  V30 22830 O 2066.96 3.27189 -5.05204 0
M  V30 22831 H 2070.78 0.718102 -2.95088 0
M  V30 22832 H 2068.37 0.289065 -1.46577 0
M  V30 22833 H 2070.25 3.16509 -2.78208 0
M  V30 22834 H 2068.93 2.7862 -1.64781 0
M  V30 22835 H 2067.83 1.36922 -3.48142 0
M  V30 22836 H 2069.17 1.81978 -4.57324 0
M  V30 22837 N 2070.82 1.53744 0.346476 0
M  V30 22838 C 2071.77 1.82222 1.44561 0
M  V30 22839 C 2072.76 0.69251 1.54598 0
M  V30 22840 O 2073.97 0.875797 1.57257 0
M  V30 22841 H 2070.34 0.577261 0.481948 0
M  V30 22842 H 2072.31 2.74183 1.17755 0
M  V30 22843 C 2071.06 2.04604 2.81127 0
M  V30 22844 H 2070.38 2.90983 2.74169 0
M  V30 22845 H 2071.82 2.28497 3.57162 0
M  V30 22846 C 2070.28 0.830699 3.26498 0
M  V30 22847 O 2070.81 0.0286844 4.0169 0
M  V30 22848 N 2069.02 0.648746 2.83266 0
M  V30 22849 H 2068.57 1.30257 2.22241 0
M  V30 22850 H 2068.52 -0.162972 3.13977 0
M  V30 22851 N 2072.3 -0.607329 1.45428 0
M  V30 22852 C 2073.26 -1.69997 1.53732 0
M  V30 22853 C 2074.26 -1.55304 0.416799 0
M  V30 22854 O 2075.45 -1.60367 0.680287 0
M  V30 22855 C 2072.58 -3.09267 1.43411 0
M  V30 22856 H 2073.77 -1.64001 2.51085 0
M  V30 22857 H 2071.33 -0.82308 1.32872 0
M  V30 22858 H 2072.06 -3.2084 0.47243 0
M  V30 22859 H 2071.85 -3.2134 2.24685 0
M  V30 22860 H 2073.34 -3.88855 1.52255 0
M  V30 22861 N 2073.77 -1.32722 -0.849853 0
M  V30 22862 C 2074.74 -1.21991 -1.94038 0
M  V30 22863 C 2075.74 -0.141727 -1.60174 0
M  V30 22864 O 2076.93 -0.392477 -1.69721 0
M  V30 22865 C 2074.06 -0.877223 -3.2942 0
M  V30 22866 H 2075.25 -2.18913 -2.04981 0
M  V30 22867 H 2072.81 -1.16623 -1.04062 0
M  V30 22868 H 2073.54 0.0899704 -3.24175 0
M  V30 22869 H 2073.33 -1.65681 -3.55376 0
M  V30 22870 H 2074.82 -0.826588 -4.09338 0
M  V30 22871 N 2075.25 1.06673 -1.16011 0
M  V30 22872 C 2076.67 1.31515 -0.90421 0
M  V30 22873 C 2076.87 1.96524 0.445021 0
M  V30 22874 O 2075.92 2.22945 1.18541 0
M  V30 22875 C 2077.24 2.19955 -2.05037 0
M  V30 22876 C 2078.79 2.33384 -2.08569 0
M  V30 22877 C 2079.26 3.25176 -3.22528 0
M  V30 22878 N 2080.75 3.32759 -3.2222 0
M  V30 22879 C 2081.49 4.03866 -4.07038 0
M  V30 22880 N 2080.98 4.77529 -5.01934 0
M  V30 22881 N 2082.78 3.99877 -3.95037 0
M  V30 22882 H 2074.93 0.628672 -2.02883 0
M  V30 22883 H 2077.19 0.339704 -0.885045 0
M  V30 22884 H 2076.9 1.79458 -3.02469 0
M  V30 22885 H 2076.77 3.20521 -1.98862 0
M  V30 22886 H 2079.16 2.7313 -1.11732 0
M  V30 22887 H 2079.24 1.32499 -2.1881 0
M  V30 22888 H 2078.88 2.86147 -4.19622 0
M  V30 22889 H 2078.81 4.26031 -3.09524 0
M  V30 22890 H 2081.3 2.80259 -2.53502 0
M  V30 22891 H 2081.62 5.29302 -5.6308 0
M  V30 22892 H 2079.96 4.76522 -5.05917 0
M  V30 22893 H 2083.15 3.41446 -3.20207 0
M  V30 22894 H 2083.32 4.55027 -4.61361 0
M  V30 22895 N 2076.73 0.957992 1.25141 0
M  V30 22896 C 2077.98 0.613378 1.92567 0
M  V30 22897 C 2078.3 -0.852805 1.75363 0
M  V30 22898 O 2077.57 -1.60775 1.11929 0
M  V30 22899 H 2076.15 0.223867 0.712666 0
M  V30 22900 H 2078.81 1.21696 1.52237 0
M  V30 22901 H 2077.91 0.845594 3.00427 0
M  V30 22902 N 2078.21 -1.39832 0.726957 0
M  V30 22903 C 2079.62 -1.54462 0.401692 0
M  V30 22904 C 2079.82 -1.6958 -1.08834 0
M  V30 22905 O 2078.88 -1.69177 -1.87444 0
M  V30 22906 C 2080.19 -2.76679 1.17769 0
M  V30 22907 C 2081.74 -2.90507 1.16511 0
M  V30 22908 C 2082.22 -4.1565 1.9235 0
M  V30 22909 N 2083.71 -4.22674 1.89476 0
M  V30 22910 C 2084.44 -5.18437 2.44971 0
M  V30 22911 N 2083.94 -6.20038 3.0907 0
M  V30 22912 N 2085.73 -5.10596 2.3505 0
M  V30 22913 H 2077.88 -1.28266 1.69297 0
M  V30 22914 H 2080.15 -0.621077 0.716217 0
M  V30 22915 H 2079.85 -2.71823 2.2317 0
M  V30 22916 H 2079.73 -3.69115 0.776799 0
M  V30 22917 H 2082.11 -2.94859 0.119254 0
M  V30 22918 H 2082.19 -1.99157 1.60531 0
M  V30 22919 H 2081.84 -4.1206 2.96933 0
M  V30 22920 H 2081.77 -5.0603 1.45743 0
M  V30 22921 H 2084.26 -3.49892 1.42772 0
M  V30 22922 H 2084.57 -6.89555 3.48903 0
M  V30 22923 H 2082.92 -6.20449 3.13158 0
M  V30 22924 H 2086.11 -4.30154 1.84622 0
M  V30 22925 H 2086.28 -5.85053 2.78599 0
M  V30 22926 N 2079.69 -0.473982 -1.50304 0
M  V30 22927 C 2080.62 0.308532 -2.31453 0
M  V30 22928 C 2081.6 0.987678 -1.38488 0
M  V30 22929 O 2082.78 0.984294 -1.67408 0
M  V30 22930 C 2079.91 1.38921 -3.18305 0
M  V30 22931 C 2078.87 0.831509 -4.19845 0
M  V30 22932 C 2078.19 2.0107 -4.95454 0
M  V30 22933 C 2079.49 -0.159166 -5.22057 0
M  V30 22934 H 2081.19 -0.368757 -2.9712 0
M  V30 22935 H 2078.73 -0.178787 -1.42886 0
M  V30 22936 H 2080.69 1.94415 -3.73873 0
M  V30 22937 H 2079.41 2.09531 -2.50528 0
M  V30 22938 H 2078.07 0.298526 -3.65383 0
M  V30 22939 H 2077.72 2.70384 -4.24148 0
M  V30 22940 H 2077.42 1.64374 -5.64141 0
M  V30 22941 H 2078.94 2.57048 -5.53858 0
M  V30 22942 H 2080.35 0.306691 -5.72479 0
M  V30 22943 H 2078.75 -0.440549 -5.98481 0
M  V30 22944 H 2079.82 -1.08411 -4.72626 0
M  V30 22945 N 2081.16 1.56239 -0.206702 0
M  V30 22946 C 2082.11 2.20977 0.726082 0
M  V30 22947 C 2083.11 1.18451 1.21102 0
M  V30 22948 O 2084.31 1.36568 1.17257 0
M  V30 22949 H 2080.69 0.708331 0.252529 0
M  V30 22950 H 2082.66 2.97989 0.156483 0
M  V30 22951 C 2081.41 2.89215 1.93003 0
M  V30 22952 H 2080.73 3.67855 1.56597 0
M  V30 22953 H 2082.17 3.37933 2.56081 0
M  V30 22954 C 2080.63 1.90876 2.77611 0
M  V30 22955 O 2081.16 1.41633 3.75903 0
M  V30 22956 N 2079.37 1.5885 2.43341 0
M  V30 22957 H 2078.91 1.99088 1.63468 0
M  V30 22958 H 2078.87 0.933114 3.00234 0
M  V30 22959 N 2082.64 -0.0668159 1.57458 0
M  V30 22960 C 2083.87 -0.777815 1.91723 0
M  V30 22961 C 2084.29 -1.70866 0.803128 0
M  V30 22962 O 2083.64 -1.8113 -0.223207 0
M  V30 22963 C 2083.69 -1.56722 3.25761 0
M  V30 22964 O 2083.41 -0.673779 4.32888 0
M  V30 22965 C 2084.92 -2.37877 3.74071 0
M  V30 22966 H 2082.14 -0.220863 0.633609 0
M  V30 22967 H 2084.68 -0.0355987 2.04469 0
M  V30 22968 H 2082.83 -2.26166 3.14527 0
M  V30 22969 H 2083.25 -1.22335 5.10034 0
M  V30 22970 H 2084.72 -2.88716 4.70476 0
M  V30 22971 H 2085.2 -3.17625 3.03334 0
M  V30 22972 H 2085.81 -1.73579 3.88266 0
M  V30 22973 N 2084.12 -1.53926 -0.338317 0
M  V30 22974 C 2085.37 -1.71678 -1.07957 0
M  V30 22975 C 2085.7 -0.481294 -1.88141 0
M  V30 22976 O 2084.98 0.521709 -1.87372 0
M  V30 22977 C 2085.26 -2.98347 -2.01646 0
M  V30 22978 C 2085.11 -4.32114 -1.24889 0
M  V30 22979 C 2086.43 -3.20708 -3.01388 0
M  V30 22980 H 2083.55 -0.62468 -0.39108 0
M  V30 22981 H 2086.19 -1.86604 -0.357623 0
M  V30 22982 H 2084.34 -2.85752 -2.63207 0
M  V30 22983 H 2086.01 -4.56568 -0.659021 0
M  V30 22984 H 2084.26 -4.30287 -0.550962 0
M  V30 22985 H 2084.93 -5.16935 -1.93604 0
M  V30 22986 H 2087.4 -3.32667 -2.49943 0
M  V30 22987 H 2086.28 -4.10723 -3.6414 0
M  V30 22988 H 2086.54 -2.37246 -3.7305 0
M  V30 22989 N 2085.6 0.599608 -1.45748 0
M  V30 22990 C 2086.85 1.35451 -1.49452 0
M  V30 22991 C 2087.16 1.95072 -0.143637 0
M  V30 22992 O 2088.37 2.71437 -0.0583691 0
M  V30 22993 C 2086.82 2.454 -2.63262 0
M  V30 22994 C 2086.43 1.92156 -4.04698 0
M  V30 22995 C 2088.18 3.22339 -2.7622 0
M  V30 22996 C 2086.08 2.99633 -5.09876 0
M  V30 22997 H 2085.01 0.509134 -0.556146 0
M  V30 22998 H 2087.66 0.641777 -1.71911 0
M  V30 22999 H 2086.05 3.19395 -2.34101 0
M  V30 23000 H 2087.22 1.24817 -4.43574 0
M  V30 23001 H 2085.53 1.27937 -3.96259 0
M  V30 23002 H 2088.13 4.02519 -3.5197 0
M  V30 23003 H 2088.47 3.73854 -1.83135 0
M  V30 23004 H 2089.01 2.55446 -3.04946 0
M  V30 23005 H 2085.75 2.53026 -6.04697 0
M  V30 23006 H 2085.27 3.65514 -4.75562 0
M  V30 23007 H 2086.95 3.63878 -5.34978 0
M  V30 23008 N 2087.08 1.33171 0.842803 0
M  V30 23009 C 2088.01 1.2572 1.96766 0
M  V30 23010 C 2088.99 0.138574 1.69535 0
M  V30 23011 O 2090.17 0.327704 1.91415 0
M  V30 23012 C 2087.3 0.991637 3.32842 0
M  V30 23013 C 2086.26 2.07278 3.74459 0
M  V30 23014 C 2085.58 1.65942 5.08299 0
M  V30 23015 C 2086.88 3.48911 3.88662 0
M  V30 23016 H 2088.58 2.19834 2.03257 0
M  V30 23017 H 2086.12 1.05829 0.976533 0
M  V30 23018 H 2088.08 0.926021 4.111 0
M  V30 23019 H 2086.8 0.0148823 3.26597 0
M  V30 23020 H 2085.46 2.12875 2.98462 0
M  V30 23021 H 2085.11 0.669795 4.98521 0
M  V30 23022 H 2084.81 2.38288 5.37115 0
M  V30 23023 H 2086.33 1.60839 5.89036 0
M  V30 23024 H 2087.75 3.45837 4.57241 0
M  V30 23025 H 2086.14 4.1971 4.2891 0
M  V30 23026 H 2087.21 3.87705 2.91226 0
M  V30 23027 N 2088.56 -1.06056 1.16576 0
M  V30 23028 C 2089.83 -1.75733 0.858908 0
M  V30 23029 C 2090.21 -2.01077 -0.642746 0
M  V30 23030 O 2089.56 -1.63981 -1.5913 0
M  V30 23031 C 2089.77 -3.0567 1.68425 0
M  V30 23032 C 2091.12 -3.7978 1.89874 0
M  V30 23033 O 2092.14 -3.15517 1.65311 0
M  V30 23034 O 2091 -4.95232 2.311 0
M  V30 23035 H 2088.1 -0.763759 0.317177 0
M  V30 23036 H 2090.64 -1.12303 1.27225 0
M  V30 23037 H 2089.41 -2.82923 2.70315 0
M  V30 23038 H 2089.04 -3.76835 1.26811 0
M  V30 23039 N 2090.03 -0.964615 -1.24631 0
M  V30 23040 C 2091.44 -0.664103 -1.74489 0
M  V30 23041 C 2091.8 0.820273 -1.7823 0
M  V30 23042 O 2090.92 1.64185 -1.40969 0
M  V30 23043 C 2091.52 -1.1988 -3.16882 0
M  V30 23044 C 2090.07 -0.948248 -3.6426 0
M  V30 23045 C 2089.22 -1.33594 -2.42998 0
M  V30 23046 H 2092.17 -1.14029 -1.10377 0
M  V30 23047 H 2092.19 -0.563605 -3.76303 0
M  V30 23048 H 2091.71 -2.27916 -3.14128 0
M  V30 23049 H 2089.81 0.116719 -3.72417 0
M  V30 23050 H 2089.92 -1.59173 -4.51886 0
M  V30 23051 H 2088.28 -0.754319 -2.43274 0
M  V30 23052 H 2089.07 -2.42573 -2.42927 0
M  V30 23053 N 2091.51 1.39445 -0.734362 0
M  V30 23054 C 2092.76 1.99762 -0.278913 0
M  V30 23055 C 2093.07 1.58936 1.14012 0
M  V30 23056 O 2094.28 2.12085 1.69506 0
M  V30 23057 C 2092.74 3.57104 -0.447725 0
M  V30 23058 C 2092.34 4.06894 -1.87461 0
M  V30 23059 C 2094.09 4.24466 -0.0540192 0
M  V30 23060 C 2091.99 5.56806 -1.993 0
M  V30 23061 H 2090.92 0.747268 -0.100529 0
M  V30 23062 H 2093.58 1.59452 -0.908151 0
M  V30 23063 H 2091.96 3.95208 0.250399 0
M  V30 23064 H 2093.13 3.80126 -2.60463 0
M  V30 23065 H 2091.45 3.52193 -2.22147 0
M  V30 23066 H 2094.04 5.34562 -0.121504 0
M  V30 23067 H 2094.39 4.04341 0.990665 0
M  V30 23068 H 2094.92 3.91534 -0.703277 0
M  V30 23069 H 2091.66 5.8181 -3.01955 0
M  V30 23070 H 2091.18 5.85379 -1.30734 0
M  V30 23071 H 2092.86 6.22208 -1.77387 0
M  V30 23072 N 2092.99 0.481946 1.5005 0
M  V30 23073 C 2094.24 -0.0710199 2.01575 0
M  V30 23074 C 2094.55 -1.39798 1.36806 0
M  V30 23075 O 2095.76 -2.03653 1.79549 0
M  V30 23076 C 2094.21 -0.177064 3.59464 0
M  V30 23077 C 2093.82 1.14212 4.33197 0
M  V30 23078 C 2095.57 -0.681409 4.18995 0
M  V30 23079 C 2093.47 0.999274 5.82897 0
M  V30 23080 H 2092.4 -0.0303162 0.75339 0
M  V30 23081 H 2095.05 0.618487 1.72763 0
M  V30 23082 H 2093.44 -0.930598 3.8491 0
M  V30 23083 H 2094.61 1.90745 4.19467 0
M  V30 23084 H 2092.92 1.57841 3.85325 0
M  V30 23085 H 2095.52 -0.805484 5.28598 0
M  V30 23086 H 2095.86 -1.6755 3.81094 0
M  V30 23087 H 2096.4 0.015045 3.97797 0
M  V30 23088 H 2093.14 1.96706 6.2529 0
M  V30 23089 H 2092.66 0.274505 5.99172 0
M  V30 23090 H 2094.34 0.670265 6.43519 0
M  V30 23091 N 2094.47 -1.56127 0.214985 0
M  V30 23092 C 2095.7 -2.02519 -0.423533 0
M  V30 23093 C 2096.11 -1.0949 -1.5381 0
M  V30 23094 O 2095.47 -0.103303 -1.82207 0
M  V30 23095 C 2095.52 -3.48484 -0.961313 0
M  V30 23096 O 2095.24 -4.37965 0.108806 0
M  V30 23097 C 2096.74 -4.10489 -1.67373 0
M  V30 23098 H 2093.96 -0.662835 -0.104359 0
M  V30 23099 H 2096.5 -2.01828 0.329517 0
M  V30 23100 H 2094.66 -3.49811 -1.66466 0
M  V30 23101 H 2095.07 -5.23673 -0.294413 0
M  V30 23102 H 2096.55 -5.14412 -2.00209 0
M  V30 23103 H 2097.02 -3.55102 -2.58455 0
M  V30 23104 H 2097.63 -4.12992 -1.01575 0
M  V30 23105 N 2095.95 0.0584645 -1.57492 0
M  V30 23106 C 2097.19 0.755071 -1.87896 0
M  V30 23107 C 2097.52 1.769 -0.808499 0
M  V30 23108 O 2096.78 1.94736 0.194028 0
M  V30 23109 C 2097.07 1.48699 -3.24998 0
M  V30 23110 C 2096.74 0.611806 -4.4673 0
M  V30 23111 C 2095.4 0.370663 -4.7977 0
M  V30 23112 C 2097.75 0.00576081 -5.212 0
M  V30 23113 C 2095.08 -0.485786 -5.84685 0
M  V30 23114 C 2097.43 -0.838219 -6.27022 0
M  V30 23115 C 2096.1 -1.08911 -6.58555 0
M  V30 23116 H 2095.37 0.2763 -0.68756 0
M  V30 23117 H 2098.02 0.0155215 -1.91494 0
M  V30 23118 H 2096.32 2.2991 -3.17252 0
M  V30 23119 H 2098.02 2.03101 -3.45761 0
M  V30 23120 H 2094.61 0.809892 -4.20878 0
M  V30 23121 H 2098.79 0.179152 -4.95977 0
M  V30 23122 H 2094.05 -0.688773 -6.07508 0
M  V30 23123 H 2098.22 -1.31449 -6.83882 0
M  V30 23124 H 2095.85 -1.7545 -7.39676 0
M  V30 23125 N 2097.42 1.54103 0.330149 0
M  V30 23126 C 2098.37 1.83745 1.4262 0
M  V30 23127 C 2099.37 0.708869 1.53855 0
M  V30 23128 O 2100.57 0.892427 1.56319 0
M  V30 23129 H 2096.95 0.58234 0.475799 0
M  V30 23130 H 2098.92 2.75417 1.1484 0
M  V30 23131 C 2097.67 2.07574 2.78941 0
M  V30 23132 H 2096.99 2.93875 2.71068 0
M  V30 23133 H 2098.43 2.32273 3.54719 0
M  V30 23134 C 2096.89 0.865282 3.25599 0
M  V30 23135 O 2097.42 0.0712874 4.01637 0
M  V30 23136 N 2095.62 0.678754 2.82562 0
M  V30 23137 H 2095.17 1.32607 2.20847 0
M  V30 23138 H 2095.13 -0.129662 3.14133 0
M  V30 23139 N 2098.9 -0.59187 1.46064 0
M  V30 23140 C 2100.15 -1.3524 1.51122 0
M  V30 23141 C 2100.48 -1.93551 0.158686 0
M  V30 23142 O 2099.76 -1.75958 -0.828798 0
M  V30 23143 C 2100.04 -2.48861 2.6027 0
M  V30 23144 C 2099.89 -1.95645 4.05023 0
M  V30 23145 C 2101.21 -3.50941 2.65572 0
M  V30 23146 H 2098.33 -0.49038 0.550179 0
M  V30 23147 H 2100.97 -0.66575 1.77954 0
M  V30 23148 H 2099.12 -3.07434 2.37521 0
M  V30 23149 H 2100.79 -1.41599 4.3903 0
M  V30 23150 H 2099.04 -1.26535 4.14935 0
M  V30 23151 H 2099.71 -2.77621 4.77107 0
M  V30 23152 H 2102.18 -3.02233 2.85997 0
M  V30 23153 H 2101.06 -4.27911 3.43779 0
M  V30 23154 H 2101.32 -4.07578 1.71267 0
M  V30 23155 N 2100.38 -1.33616 -0.835729 0
M  V30 23156 C 2101.63 -1.24597 -1.58614 0
M  V30 23157 C 2101.94 0.185813 -1.94715 0
M  V30 23158 O 2103.15 0.398045 -2.68566 0
M  V30 23159 C 2101.6 -2.18339 -2.86105 0
M  V30 23160 C 2101.21 -3.66705 -2.57355 0
M  V30 23161 C 2102.96 -2.182 -3.64128 0
M  V30 23162 C 2100.86 -4.52352 -3.80962 0
M  V30 23163 H 2099.79 -0.462802 -0.595256 0
M  V30 23164 H 2102.44 -1.58701 -0.921212 0
M  V30 23165 H 2100.83 -1.77172 -3.54156 0
M  V30 23166 H 2102 -4.16331 -1.97496 0
M  V30 23167 H 2100.32 -3.69164 -1.92631 0
M  V30 23168 H 2102.91 -2.79417 -4.55884 0
M  V30 23169 H 2103.26 -1.17789 -3.99289 0
M  V30 23170 H 2103.79 -2.57745 -3.03005 0
M  V30 23171 H 2100.53 -5.5365 -3.5093 0
M  V30 23172 H 2100.05 -4.07467 -4.40149 0
M  V30 23173 H 2101.73 -4.66315 -4.48508 0
M  V30 23174 N 2101.86 1.05436 -1.17136 0
M  V30 23175 C 2103.11 1.78394 -0.958224 0
M  V30 23176 C 2103.43 1.87604 0.513324 0
M  V30 23177 O 2102.69 1.37034 1.39715 0
M  V30 23178 C 2102.99 3.22452 -1.54141 0
M  V30 23179 C 2102.65 3.33305 -3.03675 0
M  V30 23180 C 2101.32 3.35974 -3.44492 0
M  V30 23181 C 2103.67 3.34521 -3.99681 0
M  V30 23182 C 2101 3.37485 -4.79918 0
M  V30 23183 C 2103.35 3.37571 -5.35004 0
M  V30 23184 C 2102.01 3.38526 -5.75288 0
M  V30 23185 H 2101.28 0.652789 -0.350639 0
M  V30 23186 H 2103.93 1.23935 -1.45988 0
M  V30 23187 H 2102.23 3.79821 -0.961417 0
M  V30 23188 H 2103.93 3.77518 -1.35208 0
M  V30 23189 H 2100.52 3.31939 -2.71136 0
M  V30 23190 H 2104.7 3.31662 -3.69207 0
M  V30 23191 H 2099.96 3.36533 -5.10446 0
M  V30 23192 H 2104.13 3.3746 -6.09175 0
M  V30 23193 H 2101.76 3.3945 -6.80204 0
M  V30 23194 N 2103.34 0.971211 1.24118 0
M  V30 23195 C 2104.58 0.633768 1.91906 0
M  V30 23196 C 2104.91 -0.834157 1.76258 0
M  V30 23197 O 2104.18 -1.59579 1.13628 0
M  V30 23198 H 2102.76 0.231413 0.710251 0
M  V30 23199 H 2105.42 1.23304 1.50938 0
M  V30 23200 H 2104.51 0.877411 2.99513 0
M  V30 23201 N 2104.81 -1.39054 0.741747 0
M  V30 23202 C 2106.09 -1.94374 0.218671 0
M  V30 23203 C 2106.47 -1.67801 -1.28086 0
M  V30 23204 O 2105.82 -1.00997 -2.04968 0
M  V30 23205 C 2106.03 -3.44485 0.559566 0
M  V30 23206 C 2107.38 -4.21494 0.512635 0
M  V30 23207 O 2108.4 -3.52713 0.497155 0
M  V30 23208 O 2107.26 -5.44086 0.513112 0
M  V30 23209 H 2104.35 -0.825923 0.0421827 0
M  V30 23210 H 2106.9 -1.48515 0.821064 0
M  V30 23211 H 2105.67 -3.57287 1.59567 0
M  V30 23212 H 2105.3 -3.97536 -0.0714489 0
M  V30 23213 N 2106.29 -0.489897 -1.49792 0
M  V30 23214 C 2107.57 0.121028 -1.95225 0
M  V30 23215 C 2107.95 1.55194 -1.43101 0
M  V30 23216 O 2107.3 2.19354 -0.639992 0
M  V30 23217 C 2107.51 0.045071 -3.48971 0
M  V30 23218 C 2108.86 0.224571 -4.24006 0
M  V30 23219 O 2109.88 0.120781 -3.55995 0
M  V30 23220 O 2108.74 0.436269 -5.44756 0
M  V30 23221 H 2105.83 0.101395 -0.820761 0
M  V30 23222 H 2108.38 -0.551643 -1.60484 0
M  V30 23223 H 2107.15 -0.953242 -3.79512 0
M  V30 23224 H 2106.77 0.758377 -3.903 0
M  V30 23225 N 2107.77 1.56011 -0.223262 0
M  V30 23226 C 2109 2.0274 0.412787 0
M  V30 23227 C 2109.41 1.10304 1.53227 0
M  V30 23228 O 2108.77 0.112965 1.8215 0
M  V30 23229 C 2108.82 3.48989 0.942818 0
M  V30 23230 O 2108.54 4.37901 -0.132031 0
M  V30 23231 C 2110.04 4.11371 1.65194 0
M  V30 23232 H 2107.26 0.663379 0.100842 0
M  V30 23233 H 2109.81 2.0165 -0.340215 0
M  V30 23234 H 2107.96 3.50689 1.64609 0
M  V30 23235 H 2108.38 5.23822 0.266637 0
M  V30 23236 H 2109.85 5.15467 1.97479 0
M  V30 23237 H 2110.33 3.56468 2.56568 0
M  V30 23238 H 2110.93 4.13525 0.993831 0
M  V30 23239 N 2109.25 -0.0501116 1.5752 0
M  V30 23240 C 2110.18 -1.08964 2.00504 0
M  V30 23241 C 2111.16 -1.36365 0.885632 0
M  V30 23242 O 2112.34 -1.49375 1.14975 0
M  V30 23243 C 2109.47 -2.42922 2.36023 0
M  V30 23244 C 2108.52 -2.31517 3.58193 0
M  V30 23245 S 2109.35 -1.68858 5.0818 0
M  V30 23246 C 2110.51 -3.04349 5.46921 0
M  V30 23247 H 2110.74 -0.723433 2.88364 0
M  V30 23248 H 2108.27 -0.259394 1.52205 0
M  V30 23249 H 2110.23 -3.19968 2.57159 0
M  V30 23250 H 2108.89 -2.76697 1.48653 0
M  V30 23251 H 2108.08 -3.30356 3.80632 0
M  V30 23252 H 2107.69 -1.6261 3.36799 0
M  V30 23253 H 2109.98 -4.00678 5.46318 0
M  V30 23254 H 2110.92 -2.86666 6.47478 0
M  V30 23255 H 2111.33 -3.05953 4.74398 0
M  V30 23256 N 2110.73 -1.54276 -0.321972 0
M  V30 23257 C 2111.97 -1.72557 -1.05973 0
M  V30 23258 C 2112.3 -0.500117 -1.8796 0
M  V30 23259 O 2111.56 0.518125 -1.88717 0
M  V30 23260 C 2111.86 -2.95429 -2.01138 0
M  V30 23261 C 2111.52 -4.30124 -1.35293 0
M  V30 23262 C 2110.18 -4.66743 -1.17066 0
M  V30 23263 C 2112.54 -5.13709 -0.880472 0
M  V30 23264 C 2109.86 -5.84545 -0.502454 0
M  V30 23265 C 2112.22 -6.32196 -0.226079 0
M  V30 23266 C 2110.88 -6.67492 -0.0316775 0
M  V30 23267 H 2110.15 -0.631432 -0.387782 0
M  V30 23268 H 2112.8 -1.88517 -0.336709 0
M  V30 23269 H 2111.1 -2.74163 -2.79896 0
M  V30 23270 H 2112.8 -3.06767 -2.58253 0
M  V30 23271 H 2109.39 -4.01314 -1.50481 0
M  V30 23272 H 2113.57 -4.85934 -1.00907 0
M  V30 23273 H 2108.83 -6.1045 -0.340653 0
M  V30 23274 H 2113 -6.96243 0.148004 0
M  V30 23275 H 2110.63 -7.58631 0.488125 0
M  V30 23276 N 2112.2 0.584116 -1.46376 0
M  V30 23277 C 2113.15 1.69328 -1.56833 0
M  V30 23278 C 2114.12 1.60891 -0.412719 0
M  V30 23279 O 2115.31 1.80124 -0.629286 0
M  V30 23280 C 2112.45 3.07663 -1.56324 0
M  V30 23281 C 2111.56 3.26736 -2.82609 0
M  V30 23282 C 2110.69 4.55312 -2.73613 0
M  V30 23283 C 2109.73 4.67723 -3.94844 0
M  V30 23284 N 2108.87 5.87624 -3.84243 0
M  V30 23285 H 2113.71 1.59727 -2.51577 0
M  V30 23286 H 2111.25 0.778493 -1.24811 0
M  V30 23287 H 2113.21 3.87731 -1.54014 0
M  V30 23288 H 2111.84 3.16165 -0.651131 0
M  V30 23289 H 2110.89 2.40283 -2.94904 0
M  V30 23290 H 2112.2 3.31775 -3.72461 0
M  V30 23291 H 2111.35 5.43606 -2.69401 0
M  V30 23292 H 2110.09 4.52709 -1.81399 0
M  V30 23293 H 2109.1 3.77847 -3.99389 0
M  V30 23294 H 2110.32 4.72106 -4.88152 0
M  V30 23295 H 2108.27 5.86021 -2.94814 0
M  V30 23296 H 2108.19 5.93925 -4.67749 0
M  V30 23297 H 2109.45 6.78352 -3.84003 0
M  V30 23298 N 2113.68 1.34058 0.828631 0
M  V30 23299 C 2114.93 1.26093 1.58451 0
M  V30 23300 C 2115.26 -0.170623 1.9375 0
M  V30 23301 O 2114.51 -1.13044 1.59748 0
M  V30 23302 C 2114.81 2.09161 2.89804 0
M  V30 23303 C 2114.48 3.58234 2.73823 0
M  V30 23304 C 2113.14 3.98873 2.69172 0
M  V30 23305 C 2115.49 4.52919 2.57903 0
M  V30 23306 C 2112.82 5.32398 2.46514 0
M  V30 23307 C 2115.17 5.86617 2.36777 0
M  V30 23308 C 2113.84 6.26426 2.30534 0
M  V30 23309 H 2113.11 0.461406 0.579815 0
M  V30 23310 H 2115.75 1.65745 0.959215 0
M  V30 23311 H 2114.06 1.62319 3.56595 0
M  V30 23312 H 2115.76 2.00349 3.47363 0
M  V30 23313 H 2112.35 3.25973 2.7828 0
M  V30 23314 H 2116.53 4.22423 2.60523 0
M  V30 23315 H 2111.79 5.62268 2.40135 0
M  V30 23316 H 2115.96 6.5958 2.23444 0
M  V30 23317 H 2113.59 7.29826 2.12738 0
M  V30 23318 N 2115.16 -1.04814 1.17694 0
M  V30 23319 C 2116.41 -1.77277 0.962076 0
M  V30 23320 C 2116.72 -1.88834 -0.509992 0
M  V30 23321 O 2117.93 -2.58075 -0.843166 0
M  V30 23322 C 2116.39 -3.18693 1.67221 0
M  V30 23323 C 2115.99 -3.15253 3.18308 0
M  V30 23324 C 2117.74 -3.95585 1.53988 0
M  V30 23325 C 2115.64 -4.51481 3.81993 0
M  V30 23326 H 2114.57 -0.66449 0.356328 0
M  V30 23327 H 2117.23 -1.17451 1.40988 0
M  V30 23328 H 2115.61 -3.78868 1.15216 0
M  V30 23329 H 2116.78 -2.64573 3.77277 0
M  V30 23330 H 2115.1 -2.51859 3.31596 0
M  V30 23331 H 2117.69 -4.96315 1.98937 0
M  V30 23332 H 2118.04 -4.13394 0.491003 0
M  V30 23333 H 2118.57 -3.41967 2.03232 0
M  V30 23334 H 2115.31 -4.38877 4.86895 0
M  V30 23335 H 2114.83 -5.02295 3.27811 0
M  V30 23336 H 2116.51 -5.20413 3.84421 0
M  V30 23337 N 2116.64 -0.977779 -1.23601 0
M  V30 23338 C 2117.92 -0.561714 -1.87361 0
M  V30 23339 C 2118.3 0.961166 -1.87949 0
M  V30 23340 O 2117.64 1.83678 -1.35922 0
M  V30 23341 C 2117.85 -1.16478 -3.28989 0
M  V30 23342 C 2119.2 -1.2559 -4.05601 0
M  V30 23343 O 2120.23 -1.11804 -3.38199 0
M  V30 23344 O 2119.09 -1.47493 -5.2622 0
M  V30 23345 H 2116.18 -0.18876 -0.80517 0
M  V30 23346 H 2118.73 -1.07269 -1.31497 0
M  V30 23347 H 2117.5 -2.20711 -3.23114 0
M  V30 23348 H 2117.12 -0.638457 -3.9244 0
M  V30 23349 N 2118.12 1.38658 -0.749111 0
M  V30 23350 C 2119.03 2.34291 -0.120373 0
M  V30 23351 C 2120.04 1.59043 0.705796 0
M  V30 23352 O 2121.22 1.9126 0.63099 0
M  V30 23353 C 2118.28 3.38141 0.765626 0
M  V30 23354 C 2117.35 4.29236 -0.0744037 0
M  V30 23355 C 2116.58 5.28125 0.769401 0
M  V30 23356 O 2116.8 5.33902 2.0076 0
M  V30 23357 O 2115.74 6.01598 0.190576 0
M  V30 23358 H 2119.56 2.89744 -0.910056 0
M  V30 23359 H 2117.15 1.40428 -0.509948 0
M  V30 23360 H 2119.03 4.0174 1.27214 0
M  V30 23361 H 2117.7 2.8505 1.53388 0
M  V30 23362 H 2116.61 3.68812 -0.626761 0
M  V30 23363 H 2117.94 4.85569 -0.805208 0
M  V30 23364 O 2119.63 0.639498 1.48299 0
M  V30 23365 H 2120.33 0.160835 1.93031 0
M  V30 END ATOM
M  V30 BEGIN BOND
M  V30 END BOND
M  V30 END CTAB
M  END
$$$$
