drugbank_target|Q8I4R5 Rhoptry neck protein 3 (DB11638)
 OpenBabel12092121113D

  0  0  0     0  0            999 V3000
M  V30 BEGIN CTAB
M  V30 COUNTS 37322 37747 0 0 0
M  V30 BEGIN ATOM
M  V30 1 H -0.908 1.98254 -0.117106 0
M  V30 2 N 0 1.576 0 0
M  V30 3 C 0.933 2.03868 1.02534 0
M  V30 4 C 1.911 0.928543 1.3348 0
M  V30 5 O 3.095 1.19667 1.45644 0
M  V30 6 C 0.222 2.43627 2.35294 0
M  V30 7 C -0.732 3.65373 2.2001 0
M  V30 8 S 0.101 5.13292 1.52614 0
M  V30 9 C 1.257 5.56322 2.86805 0
M  V30 10 H 1.49 2.90518 0.631377 0
M  V30 11 H -0.977 1.52953 0.210867 0
M  V30 12 H 0.981 2.67203 3.11629 0
M  V30 13 H -0.358 1.57376 2.7183 0
M  V30 14 H -1.165 3.90944 3.18086 0
M  V30 15 H -1.563 3.418 1.51819 0
M  V30 16 H 0.729 5.58782 3.83104 0
M  V30 17 H 1.672 6.56266 2.65933 0
M  V30 18 H 2.08 4.83886 2.90714 0
M  V30 19 N 1.4781 -0.272755 1.55222 0
M  V30 20 C 2.4261 -1.35705 1.88909 0
M  V30 21 C 3.4201 -1.5112 0.765456 0
M  V30 22 O 4.6261 -1.52901 0.949802 0
M  V30 23 H 1.0011 -0.453868 0.59959 0
M  V30 24 H 2.9721 -1.04544 2.79487 0
M  V30 25 C 1.7211 -2.71049 2.17779 0
M  V30 26 H 1.0441 -2.59979 3.03728 0
M  V30 27 H 2.4841 -3.45858 2.45272 0
M  V30 28 C 0.9431 -3.22165 0.985473 0
M  V30 29 O 1.4731 -4.01096 0.220233 0
M  V30 30 N -0.3209 -2.7985 0.783108 0
M  V30 31 H -0.7739 -2.15775 1.40708 0
M  V30 32 H -0.8159 -3.14397 -0.0130392 0
M  V30 33 N 2.9562 -1.48159 -0.537278 0
M  V30 34 C 3.9032 -1.62138 -1.64256 0
M  V30 35 C 4.8732 -0.463668 -1.59497 0
M  V30 36 O 6.0582 -0.686241 -1.78032 0
M  V30 37 C 3.1982 -1.66028 -3.02537 0
M  V30 38 C 2.3112 -2.92855 -3.17585 0
M  V30 39 C 1.4462 -2.87952 -4.46382 0
M  V30 40 C 0.4852 -4.09516 -4.54932 0
M  V30 41 N -0.3778 -4.02733 -5.75109 0
M  V30 42 H 4.4622 -2.56529 -1.51647 0
M  V30 43 H 1.9992 -1.27224 -0.738414 0
M  V30 44 H 3.9572 -1.66265 -3.82638 0
M  V30 45 H 2.5872 -0.751331 -3.13934 0
M  V30 46 H 1.6392 -3.02395 -2.30784 0
M  V30 47 H 2.9512 -3.82822 -3.19764 0
M  V30 48 H 2.1052 -2.8655 -5.34765 0
M  V30 49 H 0.8442 -1.95702 -4.46712 0
M  V30 50 H -0.1508 -4.11201 -3.64957 0
M  V30 51 H 1.0742 -5.02917 -4.56346 0
M  V30 52 H -0.9798 -3.13299 -5.76351 0
M  V30 53 H -1.0628 -4.86397 -5.78752 0
M  V30 54 H 0.2052 -4.05379 -6.65799 0
M  V30 55 N 4.4343 0.785586 -1.36625 0
M  V30 56 C 5.6643 1.5722 -1.34036 0
M  V30 57 C 6.0723 1.89033 0.0795062 0
M  V30 58 O 5.4153 1.50881 1.04789 0
M  V30 59 C 5.4773 2.91759 -2.10041 0
M  V30 60 C 5.1413 2.82654 -3.59104 0
M  V30 61 C 6.1383 2.54634 -4.53274 0
M  V30 62 C 3.8233 3.01111 -4.02042 0
M  V30 63 C 5.8173 2.45177 -5.88359 0
M  V30 64 C 3.5043 2.91276 -5.37216 0
M  V30 65 C 4.5023 2.63348 -6.30188 0
M  V30 66 O 4.1903 2.53514 -7.6288 0
M  V30 67 H 3.9223 0.494177 -0.461265 0
M  V30 68 H 6.4763 0.982632 -1.8037 0
M  V30 69 H 4.7063 3.52781 -1.58375 0
M  V30 70 H 6.3953 3.53059 -2.00261 0
M  V30 71 H 7.1613 2.40073 -4.21414 0
M  V30 72 H 3.0403 3.21854 -3.30047 0
M  V30 73 H 6.5843 2.23299 -6.60896 0
M  V30 74 H 2.4813 3.054 -5.68684 0
M  V30 75 H 3.2493 2.68967 -7.73045 0
M  V30 76 N 5.9124 1.20967 1.01018 0
M  V30 77 C 7.1584 1.0353 1.7508 0
M  V30 78 C 7.5134 -0.42734 1.87594 0
M  V30 79 O 6.8064 -1.31298 1.3954 0
M  V30 80 C 7.0004 1.65997 3.16512 0
M  V30 81 C 6.8294 3.18184 3.17788 0
M  V30 82 C 5.5994 3.87198 3.24662 0
M  V30 83 C 7.7974 4.15334 3.03319 0
M  V30 84 N 5.7794 5.26618 3.15509 0
M  V30 85 C 7.1504 5.41472 3.02007 0
M  V30 86 C 9.2054 4.06449 2.87583 0
M  V30 87 C 7.9084 6.5975 2.86571 0
M  V30 88 C 9.9344 5.24357 2.73503 0
M  V30 89 C 9.2964 6.49404 2.72862 0
M  V30 90 H 5.3954 0.433137 0.651089 0
M  V30 91 H 7.9794 1.5324 1.20107 0
M  V30 92 H 6.1504 1.18863 3.69765 0
M  V30 93 H 7.8824 1.41816 3.79039 0
M  V30 94 H 4.6374 3.38093 3.31648 0
M  V30 95 H 5.0614 5.99626 3.14289 0
M  V30 96 H 9.7034 3.10573 2.86887 0
M  V30 97 H 7.4214 7.55792 2.86015 0
M  V30 98 H 11.0074 5.19299 2.62334 0
M  V30 99 H 9.8874 7.39105 2.62093 0
M  V30 100 N 7.3905 -1.2043 1.01659 0
M  V30 101 C 8.3205 -2.25466 0.607226 0
M  V30 102 C 9.3015 -1.65853 -0.377716 0
M  V30 103 O 10.4865 -1.92409 -0.263149 0
M  V30 104 C 7.6165 -3.47256 -0.0552949 0
M  V30 105 C 6.5705 -4.19462 0.850632 0
M  V30 106 C 5.8965 -5.34673 0.0538859 0
M  V30 107 C 7.1965 -4.75603 2.15868 0
M  V30 108 H 8.8905 -2.59962 1.48526 0
M  V30 109 H 6.4365 -1.2496 0.715605 0
M  V30 110 H 8.3895 -4.19917 -0.353233 0
M  V30 111 H 7.1135 -3.11924 -0.968045 0
M  V30 112 H 5.7725 -3.48667 1.13257 0
M  V30 113 H 5.4205 -4.95585 -0.860514 0
M  V30 114 H 5.1205 -5.83913 0.657192 0
M  V30 115 H 6.6445 -6.10138 -0.237598 0
M  V30 116 H 8.0585 -5.40083 1.92311 0
M  V30 117 H 6.4555 -5.3528 2.71284 0
M  V30 118 H 7.5255 -3.94346 2.82169 0
M  V30 119 N 8.8686 -0.792821 -1.36206 0
M  V30 120 C 10.0986 -0.378275 -2.03107 0
M  V30 121 C 10.5066 1.01119 -1.59911 0
M  V30 122 O 9.8496 1.66052 -0.785658 0
M  V30 123 C 9.9116 -0.366535 -3.57627 0
M  V30 124 C 9.5756 -1.70416 -4.24037 0
M  V30 125 C 10.5726 -2.6602 -4.46687 0
M  V30 126 C 8.2576 -1.98439 -4.6144 0
M  V30 127 C 10.2516 -3.8784 -5.05825 0
M  V30 128 C 7.9386 -3.20525 -5.20295 0
M  V30 129 C 8.9366 -4.15044 -5.42427 0
M  V30 130 O 8.6246 -5.34978 -6.00045 0
M  V30 131 H 8.3566 -0.153543 -0.658332 0
M  V30 132 H 10.9106 -1.07383 -1.75094 0
M  V30 133 H 9.1406 0.385539 -3.84773 0
M  V30 134 H 10.8296 0.0238088 -4.05893 0
M  V30 135 H 11.5956 -2.45658 -4.18183 0
M  V30 136 H 7.4746 -1.25686 -4.43536 0
M  V30 137 H 11.0186 -4.61628 -5.23015 0
M  V30 138 H 6.9156 -3.40764 -5.48225 0
M  V30 139 H 7.6836 -5.36088 -6.18508 0
M  V30 140 N 10.3467 1.47872 -0.545128 0
M  V30 141 C 11.5957 2.01695 -0.0145033 0
M  V30 142 C 11.9087 1.42609 1.33873 0
M  V30 143 O 13.1147 1.88021 1.95858 0
M  V30 144 C 11.5707 3.59892 0.0245068 0
M  V30 145 C 11.1787 4.27966 -1.32475 0
M  V30 146 C 12.9227 4.21507 0.50316 0
M  V30 147 C 10.8297 5.78136 -1.2455 0
M  V30 148 H 9.7597 0.753998 -0.00165172 0
M  V30 149 H 12.4107 1.69985 -0.691175 0
M  V30 150 H 10.7927 3.88509 0.766575 0
M  V30 151 H 11.9667 4.11003 -2.08357 0
M  V30 152 H 10.2817 3.78286 -1.74036 0
M  V30 153 H 12.8787 5.31538 0.580656 0
M  V30 154 H 13.2217 3.87855 1.51243 0
M  V30 155 H 13.7547 3.97376 -0.183681 0
M  V30 156 H 10.4937 6.16388 -2.23039 0
M  V30 157 H 10.0137 5.97469 -0.528282 0
M  V30 158 H 11.6927 6.40099 -0.942488 0
M  V30 159 N 11.8248 0.280983 1.55075 0
M  V30 160 C 12.7878 -0.590896 2.21452 0
M  V30 161 C 13.7878 -1.07682 1.19421 0
M  V30 162 O 14.9778 -0.97605 1.44288 0
M  V30 163 C 12.1098 -1.81587 2.88511 0
M  V30 164 H 13.3028 -0.0112554 2.99898 0
M  V30 165 H 10.8558 0.0316438 1.56268 0
M  V30 166 H 11.5908 -2.43587 2.14093 0
M  V30 167 H 11.3758 -1.4753 3.63287 0
M  V30 168 H 12.8658 -2.43575 3.39206 0
M  V30 169 N 13.3029 -1.57598 0.00835791 0
M  V30 170 C 14.5329 -1.94931 -0.684496 0
M  V30 171 C 14.9409 -0.882233 -1.67372 0
M  V30 172 O 14.2839 0.146621 -1.83114 0
M  V30 173 C 14.3459 -3.283 -1.4649 0
M  V30 174 C 14.0099 -4.52548 -0.63634 0
M  V30 175 C 15.0069 -5.19839 0.0795586 0
M  V30 176 C 12.6919 -4.98942 -0.579849 0
M  V30 177 C 14.6859 -6.3183 0.840843 0
M  V30 178 C 12.3729 -6.10819 0.185155 0
M  V30 179 C 13.3709 -6.77121 0.894227 0
M  V30 180 O 13.0589 -7.86853 1.64673 0
M  V30 181 H 12.7909 -0.647249 -0.19505 0
M  V30 182 H 15.3449 -2.05318 0.0581272 0
M  V30 183 H 13.5749 -3.14345 -2.2522 0
M  V30 184 H 15.2639 -3.50685 -2.04389 0
M  V30 185 H 16.0299 -4.84979 0.0451202 0
M  V30 186 H 11.9089 -4.47155 -1.1213 0
M  V30 187 H 15.4529 -6.83513 1.39483 0
M  V30 188 H 11.3499 -6.4512 0.221384 0
M  V30 189 H 12.1179 -8.03412 1.56432 0
M  V30 190 N 14.781 0.264519 -1.55364 0
M  V30 191 C 16.027 0.99646 -1.76631 0
M  V30 192 C 16.36 1.85632 -0.570478 0
M  V30 193 O 15.635 1.89647 0.43175 0
M  V30 194 C 15.918 1.87187 -3.07625 0
M  V30 195 C 15.771 1.04138 -4.37579 0
M  V30 196 C 17.09 2.85749 -3.34717 0
M  V30 197 H 14.209 0.360841 -0.642622 0
M  V30 198 H 16.851 0.268218 -1.88097 0
M  V30 199 H 15.001 2.49279 -2.9798 0
M  V30 200 H 16.673 0.440517 -4.59192 0
M  V30 201 H 14.916 0.345115 -4.32425 0
M  V30 202 H 15.587 1.68729 -5.2558 0
M  V30 203 H 18.063 2.33793 -3.4421 0
M  V30 204 H 16.939 3.44136 -4.27623 0
M  V30 205 H 17.2 3.61311 -2.54768 0
M  V30 206 N 16.2591 1.48442 0.529413 0
M  V30 207 C 17.4891 1.59919 1.30804 0
M  V30 208 C 17.8971 0.258792 1.87422 0
M  V30 209 O 17.2401 -0.762096 1.67146 0
M  V30 210 C 17.3021 2.58693 2.49636 0
M  V30 211 C 16.9661 4.03745 2.14101 0
M  V30 212 C 17.9631 4.9141 1.6974 0
M  V30 213 C 15.6481 4.49285 2.24607 0
M  V30 214 C 17.6421 6.22645 1.36351 0
M  V30 215 C 15.3291 5.8054 1.9083 0
M  V30 216 C 16.3271 6.67043 1.46773 0
M  V30 217 O 16.0151 7.95856 1.1344 0
M  V30 218 H 15.7471 0.541981 0.404021 0
M  V30 219 H 18.3011 1.95 0.645309 0
M  V30 220 H 16.5311 2.18734 3.18892 0
M  V30 221 H 18.2201 2.59999 3.11698 0
M  V30 222 H 18.9861 4.57465 1.61094 0
M  V30 223 H 14.8651 3.82142 2.57854 0
M  V30 224 H 18.4091 6.90119 1.01891 0
M  V30 225 H 14.3061 6.14022 1.99117 0
M  V30 226 H 15.0741 8.08613 1.26832 0
M  V30 227 N 17.7372 -0.778329 1.37039 0
M  V30 228 C 18.6672 -1.90546 1.34962 0
M  V30 229 C 19.6482 -1.68681 0.219274 0
M  V30 230 O 20.8332 -1.89634 0.418624 0
M  V30 231 C 17.9632 -3.27734 1.14925 0
M  V30 232 C 16.9172 -3.64147 2.24902 0
M  V30 233 C 16.2432 -4.99806 1.89996 0
M  V30 234 C 17.5432 -3.71579 3.67051 0
M  V30 235 H 19.2372 -1.92541 2.29277 0
M  V30 236 H 16.7832 -0.924948 1.10366 0
M  V30 237 H 18.7362 -4.06215 1.12104 0
M  V30 238 H 17.4602 -3.26154 0.170631 0
M  V30 239 H 16.1192 -2.8797 2.26868 0
M  V30 240 H 15.7672 -4.94759 0.906796 0
M  V30 241 H 15.4672 -5.25139 2.63634 0
M  V30 242 H 16.9912 -5.80694 1.88749 0
M  V30 243 H 18.4052 -4.40227 3.67251 0
M  V30 244 H 16.8022 -4.08405 4.39688 0
M  V30 245 H 17.8722 -2.72404 4.01154 0
M  V30 246 N 19.2153 -1.21501 -1.00376 0
M  V30 247 C 20.1453 -0.999478 -2.11028 0
M  V30 248 C 21.1263 0.0759671 -1.6993 0
M  V30 249 O 22.3113 -0.0841106 -1.94018 0
M  V30 250 C 19.4413 -0.564709 -3.42678 0
M  V30 251 C 18.3953 -1.58486 -3.97576 0
M  V30 252 C 17.7213 -1.00628 -5.25146 0
M  V30 253 C 19.0213 -2.97204 -4.29496 0
M  V30 254 H 20.7153 -1.92495 -2.29317 0
M  V30 255 H 18.2613 -0.92693 -1.102 0
M  V30 256 H 20.2143 -0.401091 -4.19487 0
M  V30 257 H 18.9383 0.396411 -3.24185 0
M  V30 258 H 17.5973 -1.73606 -3.22888 0
M  V30 259 H 17.2453 -0.0368439 -5.02987 0
M  V30 260 H 16.9453 -1.68771 -5.62841 0
M  V30 261 H 18.4693 -0.854015 -6.04598 0
M  V30 262 H 19.8833 -2.8552 -4.97143 0
M  V30 263 H 18.2803 -3.62372 -4.78338 0
M  V30 264 H 19.3503 -3.47956 -3.3772 0
M  V30 265 N 20.6934 1.19889 -1.02296 0
M  V30 266 C 21.6234 2.25141 -0.619174 0
M  V30 267 C 22.6044 1.66051 0.368915 0
M  V30 268 O 23.7894 1.92546 0.252941 0
M  V30 269 C 20.9194 3.4728 0.0368783 0
M  V30 270 C 19.8734 4.19005 -0.872865 0
M  V30 271 C 19.1994 5.34637 -0.0822402 0
M  V30 272 C 20.4994 4.74452 -2.18387 0
M  V30 273 H 22.1934 2.59171 -1.49903 0
M  V30 274 H 19.7394 1.24579 -0.722222 0
M  V30 275 H 21.6924 4.20098 0.330958 0
M  V30 276 H 20.4164 3.12433 0.95149 0
M  V30 277 H 19.0754 3.48061 -1.15105 0
M  V30 278 H 18.7234 4.96034 0.83422 0
M  V30 279 H 18.4234 5.83557 -0.688149 0
M  V30 280 H 19.9474 6.10255 0.205238 0
M  V30 281 H 21.3614 5.39055 -1.95172 0
M  V30 282 H 19.7584 5.33834 -2.74119 0
M  V30 283 H 20.8284 3.92844 -2.84257 0
M  V30 284 N 22.1715 0.800033 1.35784 0
M  V30 285 C 23.1195 0.193851 2.31791 0
M  V30 286 C 24.1135 -0.652744 1.56319 0
M  V30 287 O 25.3195 -0.546641 1.71499 0
M  V30 288 H 21.6945 0.04392 0.750716 0
M  V30 289 H 23.6655 1.01883 2.80468 0
M  V30 290 C 22.4145 -0.648338 3.41602 0
M  V30 291 H 21.7375 -0.00624665 3.998 0
M  V30 292 H 23.1775 -1.03898 4.11073 0
M  V30 293 C 21.6365 -1.8111 2.84079 0
M  V30 294 O 22.1665 -2.90825 2.77099 0
M  V30 295 N 20.3725 -1.62056 2.41218 0
M  V30 296 H 19.9195 -0.728123 2.47095 0
M  V30 297 H 19.8775 -2.40013 2.03079 0
M  V30 298 N 23.6496 -1.47581 0.552962 0
M  V30 299 C 24.8986 -2.01684 0.0251995 0
M  V30 300 C 25.2116 -1.43317 -1.33115 0
M  V30 301 O 26.4176 -1.89057 -1.94858 0
M  V30 302 C 24.8736 -3.599 -0.00542052 0
M  V30 303 C 24.4816 -4.27257 1.34742 0
M  V30 304 C 26.2256 -4.21768 -0.4808 0
M  V30 305 C 24.1326 -5.77467 1.27614 0
M  V30 306 H 23.0626 -0.753979 0.00565033 0
M  V30 307 H 25.7136 -1.69616 0.70018 0
M  V30 308 H 24.0956 -3.88911 -0.745961 0
M  V30 309 H 25.2696 -4.09893 2.10534 0
M  V30 310 H 23.5846 -3.77358 1.76039 0
M  V30 311 H 26.1816 -5.31838 -0.55246 0
M  V30 312 H 26.5246 -3.88651 -1.49184 0
M  V30 313 H 27.0576 -3.97273 0.204752 0
M  V30 314 H 23.7966 -6.15196 2.26304 0
M  V30 315 H 23.3166 -5.9718 0.55996 0
M  V30 316 H 24.9956 -6.3959 0.976421 0
M  V30 317 N 25.1277 -0.289203 -1.54924 0
M  V30 318 C 26.0577 0.58549 -2.2604 0
M  V30 319 C 27.0387 1.14753 -1.25562 0
M  V30 320 O 28.2237 1.17906 -1.54311 0
M  V30 321 C 25.3537 1.76305 -2.99222 0
M  V30 322 C 24.3077 1.33191 -4.06748 0
M  V30 323 C 23.6337 2.5937 -4.6758 0
M  V30 324 C 24.9337 0.471775 -5.20165 0
M  V30 325 H 26.6277 -0.00763532 -2.99399 0
M  V30 326 H 24.1737 -0.00511229 -1.43999 0
M  V30 327 H 26.1267 2.38097 -3.47689 0
M  V30 328 H 24.8507 2.38223 -2.23422 0
M  V30 329 H 23.5097 0.737121 -3.59113 0
M  V30 330 H 23.1577 3.19576 -3.88433 0
M  V30 331 H 22.8577 2.31228 -5.40192 0
M  V30 332 H 24.3817 3.21985 -5.18804 0
M  V30 333 H 25.7957 0.995056 -5.64599 0
M  V30 334 H 24.1927 0.284639 -5.99425 0
M  V30 335 H 25.2627 -0.506041 -4.82252 0
M  V30 336 N 26.6058 1.57591 -0.0167156 0
M  V30 337 C 27.8308 1.9598 0.67872 0
M  V30 338 C 28.2558 0.892546 1.65575 0
M  V30 339 O 27.6138 -0.147772 1.80697 0
M  V30 340 C 27.6618 3.33468 1.37227 0
M  V30 341 O 26.7658 3.28954 2.48722 0
M  V30 342 H 26.1068 0.639339 0.17928 0
M  V30 343 H 28.6368 2.04463 -0.0748802 0
M  V30 344 H 28.6468 3.69417 1.7319 0
M  V30 345 H 27.3218 4.10694 0.656007 0
M  V30 346 H 25.8988 3.04705 2.14963 0
M  V30 347 N 28.0839 -0.256276 1.55502 0
M  V30 348 C 29.0309 -1.31714 1.89526 0
M  V30 349 C 30.0009 -1.4828 0.748479 0
M  V30 350 O 31.1859 -1.62416 1.00128 0
M  V30 351 C 28.3259 -2.66933 2.18725 0
M  V30 352 C 27.4389 -2.58452 3.4616 0
M  V30 353 C 26.5739 -3.85961 3.64976 0
M  V30 354 C 25.6129 -3.72059 4.86044 0
M  V30 355 N 24.7499 -4.9144 5.01429 0
M  V30 356 H 29.5899 -1.01998 2.80001 0
M  V30 357 H 27.1269 -0.492413 1.38613 0
M  V30 358 H 29.0849 -3.4563 2.33657 0
M  V30 359 H 27.7149 -2.94816 1.31466 0
M  V30 360 H 26.7669 -1.71374 3.3961 0
M  V30 361 H 28.0789 -2.44085 4.34999 0
M  V30 362 H 27.2329 -4.73101 3.79816 0
M  V30 363 H 25.9719 -4.03215 2.74353 0
M  V30 364 H 24.9769 -2.83302 4.7119 0
M  V30 365 H 26.2019 -3.56309 5.78118 0
M  V30 366 H 24.1479 -5.09072 4.13741 0
M  V30 367 H 24.0649 -4.79668 5.84341 0
M  V30 368 H 25.3329 -5.80104 5.20672 0
M  V30 369 N 29.562 -1.4872 -0.521534 0
M  V30 370 C 30.802 -1.58771 -1.28729 0
M  V30 371 C 31.166 -0.259394 -1.9024 0
M  V30 372 O 32.367 -0.234942 -2.67771 0
M  V30 373 C 30.638 -2.70039 -2.34124 0
M  V30 374 S 32.197 -2.9991 -3.20312 0
M  V30 375 H 29.015 -0.560251 -0.437767 0
M  V30 376 H 31.617 -1.86283 -0.593188 0
M  V30 377 H 30.321 -3.65101 -1.87429 0
M  V30 378 H 29.852 -2.44455 -3.08229 0
M  V30 379 H 31.867 -2.39855 -4.34378 0
M  V30 380 N 31.0401 0.771051 -1.3745 0
M  V30 381 C 31.9881 1.90574 -1.33358 0
M  V30 382 C 32.9821 1.67936 -0.22224 0
M  V30 383 O 34.1881 1.75717 -0.390304 0
M  V30 384 H 30.5631 0.626714 -0.415612 0
M  V30 385 H 32.5341 1.91142 -2.29144 0
M  V30 386 C 31.2831 3.27845 -1.15813 0
M  V30 387 H 30.6061 3.45842 -2.00583 0
M  V30 388 H 32.0461 4.07538 -1.17 0
M  V30 389 C 30.5051 3.36625 0.136165 0
M  V30 390 O 31.0351 3.85785 1.11949 0
M  V30 391 N 29.2411 2.89997 0.187099 0
M  V30 392 H 28.7881 2.50182 -0.613753 0
M  V30 393 H 28.7461 2.96252 1.05272 0
M  V30 394 N 32.5182 1.22032 0.997298 0
M  V30 395 C 33.4652 0.986467 2.08656 0
M  V30 396 C 34.4352 -0.0902671 1.65855 0
M  V30 397 O 35.6202 0.0584294 1.90711 0
M  V30 398 C 32.7602 0.565569 3.40434 0
M  V30 399 C 31.8732 1.71259 3.96604 0
M  V30 400 C 31.0082 1.24011 5.16522 0
M  V30 401 C 30.0472 2.35896 5.64818 0
M  V30 402 N 29.1842 1.89726 6.7598 0
M  V30 403 H 34.0242 1.91892 2.27994 0
M  V30 404 H 31.5612 0.956199 1.11782 0
M  V30 405 H 33.5192 0.302738 4.161 0
M  V30 406 H 32.1492 -0.329879 3.2111 0
M  V30 407 H 31.2012 2.08986 3.17851 0
M  V30 408 H 32.5132 2.55436 4.28432 0
M  V30 409 H 31.6672 0.934395 5.99461 0
M  V30 410 H 30.4062 0.368487 4.86306 0
M  V30 411 H 29.4112 2.67261 4.8047 0
M  V30 412 H 30.6362 3.23567 5.97061 0
M  V30 413 H 28.5822 1.0492 6.47555 0
M  V30 414 H 28.4992 2.67471 7.07103 0
M  V30 415 H 29.7672 1.62211 7.62435 0
M  V30 416 N 33.9963 -1.19345 1.0293 0
M  V30 417 C 35.2453 -1.88363 0.721256 0
M  V30 418 C 35.5583 -1.80514 -0.753254 0
M  V30 419 O 36.7643 -2.44788 -1.17436 0
M  V30 420 C 35.2203 -3.37872 1.23978 0
M  V30 421 C 34.8283 -3.54278 2.74211 0
M  V30 422 C 36.5723 -4.12365 1.00775 0
M  V30 423 C 34.4793 -4.97682 3.19479 0
M  V30 424 H 33.4093 -0.705484 0.266098 0
M  V30 425 H 36.0603 -1.34928 1.24365 0
M  V30 426 H 34.4423 -3.90707 0.6453 0
M  V30 427 H 35.6163 -3.11769 3.39318 0
M  V30 428 H 33.9313 -2.93174 2.95699 0
M  V30 429 H 36.5283 -5.18119 1.32123 0
M  V30 430 H 36.8713 -4.16263 -0.0554308 0
M  V30 431 H 37.4043 -3.65668 1.56625 0
M  V30 432 H 34.1433 -4.98945 4.25128 0
M  V30 433 H 33.6633 -5.4095 2.591 0
M  V30 434 H 35.3423 -5.66337 3.12845 0
M  V30 435 N 35.4744 -0.807222 -1.35358 0
M  V30 436 C 36.3844 -0.219594 -2.3357 0
M  V30 437 C 37.4004 0.637734 -1.61892 0
M  V30 438 O 38.5764 0.549336 -1.93763 0
M  V30 439 C 35.6414 0.62158 -3.41083 0
M  V30 440 C 34.7024 -0.256315 -4.28534 0
M  V30 441 C 33.9354 0.544807 -5.30912 0
M  V30 442 O 34.1584 1.77944 -5.41934 0
M  V30 443 O 33.0924 -0.0646478 -6.01865 0
M  V30 444 H 36.9184 -1.03208 -2.85625 0
M  V30 445 H 34.5034 -0.569025 -1.38139 0
M  V30 446 H 36.3854 1.10067 -4.06772 0
M  V30 447 H 35.0604 1.41165 -2.91297 0
M  V30 448 H 33.9674 -0.782559 -3.65823 0
M  V30 449 H 35.3004 -1.01034 -4.81719 0
M  V30 450 N 36.9525 1.47285 -0.560781 0
M  V30 451 C 37.9005 2.31756 0.197942 0
M  V30 452 C 38.8945 1.43146 0.905854 0
M  V30 453 O 40.1005 1.59891 0.826733 0
M  V30 454 H 36.4755 0.747438 0.0827049 0
M  V30 455 H 38.4465 2.9359 -0.533629 0
M  V30 456 C 37.1955 3.25874 1.21249 0
M  V30 457 H 36.5185 3.94023 0.67719 0
M  V30 458 H 37.9585 3.87803 1.71419 0
M  V30 459 C 36.4175 2.49651 2.26221 0
M  V30 460 O 36.9475 2.24355 3.33208 0
M  V30 461 N 35.1535 2.10597 2.00243 0
M  V30 462 H 34.7005 2.31369 1.13252 0
M  V30 463 H 34.6585 1.59913 2.70694 0
M  V30 464 N 38.4306 0.297415 1.54768 0
M  V30 465 C 39.3786 -0.596051 2.24833 0
M  V30 466 C 40.3726 -1.13992 1.25308 0
M  V30 467 O 41.5786 -1.09098 1.4317 0
M  V30 468 H 37.9536 -0.210814 0.721846 0
M  V30 469 H 39.9246 0.0174667 2.98395 0
M  V30 470 C 38.6736 -1.75818 2.99972 0
M  V30 471 H 37.9966 -1.3489 3.76357 0
M  V30 472 H 39.4366 -2.35949 3.52284 0
M  V30 473 C 37.8956 -2.66014 2.06732 0
M  V30 474 O 38.4256 -3.67009 1.63302 0
M  V30 475 N 36.6316 -2.33669 1.72763 0
M  V30 476 H 36.1786 -1.51586 2.08277 0
M  V30 477 H 36.1366 -2.94285 1.10652 0
M  V30 478 N 39.9087 -1.5758 0.0250728 0
M  V30 479 C 40.8567 -2.11125 -0.97617 0
M  V30 480 C 41.8507 -1.03689 -1.33959 0
M  V30 481 O 43.0567 -1.22128 -1.3223 0
M  V30 482 H 39.4317 -0.674468 -0.332561 0
M  V30 483 H 41.4027 -2.94194 -0.499223 0
M  V30 484 C 40.1517 -2.65017 -2.2508 0
M  V30 485 H 39.4747 -3.47333 -1.9799 0
M  V30 486 H 40.9147 -3.06133 -2.93357 0
M  V30 487 C 39.3737 -1.57574 -2.97779 0
M  V30 488 O 39.9037 -0.973203 -3.89733 0
M  V30 489 N 38.1097 -1.29716 -2.60043 0
M  V30 490 H 37.6567 -1.789 -1.85345 0
M  V30 491 H 37.6147 -0.58051 -3.08994 0
M  V30 492 N 41.3868 0.248026 -1.55636 0
M  V30 493 C 42.3348 1.32683 -1.91045 0
M  V30 494 C 43.3288 1.49883 -0.789401 0
M  V30 495 O 44.5348 1.51371 -0.974007 0
M  V30 496 H 40.9098 0.444272 -0.606734 0
M  V30 497 H 42.8808 1.00085 -2.81115 0
M  V30 498 C 41.6298 2.6755 -2.22064 0
M  V30 499 H 40.9528 2.55114 -3.07826 0
M  V30 500 H 42.3928 3.41912 -2.50743 0
M  V30 501 C 40.8518 3.20556 -1.0366 0
M  V30 502 O 41.3818 4.00695 -0.284016 0
M  V30 503 N 39.5878 2.78568 -0.82753 0
M  V30 504 H 39.1348 2.1351 -1.44123 0
M  V30 505 H 39.0928 3.14378 -0.0369803 0
M  V30 506 N 42.8649 1.48995 0.513639 0
M  V30 507 C 43.8119 1.6473 1.61656 0
M  V30 508 C 44.7819 0.488984 1.58739 0
M  V30 509 O 45.9669 0.714478 1.76918 0
M  V30 510 C 43.1069 1.7082 2.99858 0
M  V30 511 C 42.2199 2.9787 3.12885 0
M  V30 512 C 41.3549 2.95017 4.41744 0
M  V30 513 C 40.3939 4.16702 4.48359 0
M  V30 514 N 39.5309 4.11832 5.68629 0
M  V30 515 H 44.3709 2.58909 1.47547 0
M  V30 516 H 41.9079 1.28382 0.71808 0
M  V30 517 H 43.8659 1.72331 3.79944 0
M  V30 518 H 42.4959 0.801181 3.12699 0
M  V30 519 H 41.5479 3.06029 2.25944 0
M  V30 520 H 42.8599 3.8786 3.13633 0
M  V30 521 H 42.0139 2.95021 5.30139 0
M  V30 522 H 40.7529 2.02784 4.43542 0
M  V30 523 H 39.7579 4.16955 3.58369 0
M  V30 524 H 40.9829 5.10113 4.48287 0
M  V30 525 H 38.9289 3.22428 5.71293 0
M  V30 526 H 38.8459 4.95543 5.7094 0
M  V30 527 H 40.1139 4.1592 6.59266 0
M  V30 528 N 44.343 -0.763751 1.37857 0
M  V30 529 C 45.589 -1.52483 1.33704 0
M  V30 530 C 45.922 -1.94051 -0.0759612 0
M  V30 531 O 45.197 -1.64675 -1.03501 0
M  V30 532 C 45.48 -2.78441 2.28348 0
M  V30 533 C 45.333 -2.43075 3.78463 0
M  V30 534 C 46.652 -3.80415 2.21298 0
M  V30 535 H 43.771 -0.553169 0.487005 0
M  V30 536 H 46.413 -0.875562 1.68624 0
M  V30 537 H 44.563 -3.33842 1.987 0
M  V30 538 H 46.235 -1.93527 4.18742 0
M  V30 539 H 44.478 -1.75666 3.96641 0
M  V30 540 H 45.149 -3.33149 4.40132 0
M  V30 541 H 47.625 -3.34527 2.47449 0
M  V30 542 H 46.501 -4.66257 2.89647 0
M  V30 543 H 46.762 -4.25262 1.20849 0
M  V30 544 N 45.8211 -1.22559 -0.990812 0
M  V30 545 C 46.7681 -0.997519 -2.0813 0
M  V30 546 C 47.7381 0.0814702 -1.659 0
M  V30 547 O 48.9231 -0.0685424 -1.90677 0
M  V30 548 C 46.0631 -0.583615 -3.40129 0
M  V30 549 C 45.1761 -1.7336 -3.9569 0
M  V30 550 C 44.3111 -1.26748 -5.15857 0
M  V30 551 C 43.3501 -2.38888 -5.63559 0
M  V30 552 N 42.4871 -1.93308 -6.74964 0
M  V30 553 H 47.3271 -1.93099 -2.26973 0
M  V30 554 H 44.8641 -0.962114 -1.11273 0
M  V30 555 H 46.8221 -0.324801 -4.15934 0
M  V30 556 H 45.4521 0.312845 -3.2128 0
M  V30 557 H 44.5041 -2.10669 -3.16738 0
M  V30 558 H 45.8161 -2.57704 -4.27071 0
M  V30 559 H 44.9701 -0.966173 -5.98957 0
M  V30 560 H 43.7091 -0.394272 -4.86104 0
M  V30 561 H 42.7141 -2.69805 -4.79046 0
M  V30 562 H 43.9391 -3.26728 -5.95336 0
M  V30 563 H 41.8851 -1.08352 -6.4699 0
M  V30 564 H 41.8021 -2.71217 -7.05675 0
M  V30 565 H 43.0701 -1.66252 -7.61564 0
M  V30 566 N 47.2992 1.18797 -1.03562 0
M  V30 567 C 48.2472 2.24297 -0.615905 0
M  V30 568 C 49.2412 1.65643 0.354808 0
M  V30 569 O 50.4472 1.78618 0.22265 0
M  V30 570 H 46.8222 0.729909 -0.180934 0
M  V30 571 H 48.7932 2.5701 -1.5162 0
M  V30 572 C 47.5422 3.47698 0.0104735 0
M  V30 573 H 46.8652 3.93125 -0.727509 0
M  V30 574 H 48.3052 4.23159 0.266995 0
M  V30 575 C 46.7642 3.12489 1.25905 0
M  V30 576 O 47.2942 3.25761 2.35038 0
M  V30 577 N 45.5002 2.6686 1.15039 0
M  V30 578 H 45.0472 2.56261 0.262328 0
M  V30 579 H 45.0052 2.43674 1.98672 0
M  V30 580 N 48.7773 0.814389 1.34928 0
M  V30 581 C 49.7073 0.244827 2.32213 0
M  V30 582 C 50.6883 -0.634024 1.57842 0
M  V30 583 O 51.8733 -0.562676 1.8587 0
M  V30 584 C 49.0033 -0.601106 3.42058 0
M  V30 585 C 47.9573 0.179896 4.27622 0
M  V30 586 C 47.2833 -0.788237 5.28858 0
M  V30 587 C 48.5833 1.38329 5.03649 0
M  V30 588 H 50.2773 1.05763 2.80097 0
M  V30 589 H 47.8233 0.510029 1.34665 0
M  V30 590 H 49.7763 -1.00968 4.09125 0
M  V30 591 H 48.5003 -1.44688 2.92802 0
M  V30 592 H 47.1593 0.569739 3.62146 0
M  V30 593 H 46.8073 -1.62973 4.75866 0
M  V30 594 H 46.5073 -0.269942 5.8698 0
M  V30 595 H 48.0313 -1.19485 5.98795 0
M  V30 596 H 49.4453 1.04918 5.63618 0
M  V30 597 H 47.8423 1.83662 5.71304 0
M  V30 598 H 48.9123 2.16592 4.33839 0
M  V30 599 N 50.2554 -1.46986 0.568584 0
M  V30 600 C 51.4834 -2.0683 0.0539956 0
M  V30 601 C 51.8984 -1.41953 -1.24478 0
M  V30 602 O 51.2554 -0.519933 -1.74937 0
M  V30 603 C 51.3064 -3.61254 -0.133362 0
M  V30 604 O 51.0274 -4.237 1.11399 0
M  V30 605 C 52.5284 -4.37992 -0.683927 0
M  V30 606 H 49.7484 -0.669058 0.0510141 0
M  V30 607 H 52.2924 -1.88824 0.785234 0
M  V30 608 H 50.4474 -3.78735 -0.81477 0
M  V30 609 H 50.8614 -5.16388 0.91888 0
M  V30 610 H 52.3354 -5.46684 -0.764263 0
M  V30 611 H 52.8124 -4.05058 -1.69778 0
M  V30 612 H 53.4184 -4.25283 -0.0378494 0
M  V30 613 N 51.7335 -0.305618 -1.54608 0
M  V30 614 C 52.9795 0.302746 -2.00528 0
M  V30 615 C 53.3125 1.53184 -1.19367 0
M  V30 616 O 52.5875 1.92598 -0.271321 0
M  V30 617 C 52.8705 0.654756 -3.54097 0
M  V30 618 C 52.7235 -0.583793 -4.45995 0
M  V30 619 C 54.0425 1.47947 -4.14487 0
M  V30 620 H 51.1615 0.108564 -0.72896 0
M  V30 621 H 53.8035 -0.418634 -1.85331 0
M  V30 622 H 51.9535 1.26935 -3.67178 0
M  V30 623 H 53.6255 -1.22224 -4.44814 0
M  V30 624 H 51.8685 -1.21615 -4.16404 0
M  V30 625 H 52.5395 -0.293287 -5.5122 0
M  V30 626 H 55.0155 0.96013 -4.04871 0
M  V30 627 H 53.8915 1.69454 -5.22088 0
M  V30 628 H 54.1525 2.47011 -3.66658 0
M  V30 629 N 53.2116 1.57565 -0.0334293 0
M  V30 630 C 54.4416 1.95996 0.653398 0
M  V30 631 C 54.8496 0.908749 1.65947 0
M  V30 632 O 54.1926 -0.117471 1.83324 0
M  V30 633 C 54.2546 3.30589 1.41249 0
M  V30 634 C 53.9186 4.53503 0.564263 0
M  V30 635 C 54.9156 5.19647 -0.16225 0
M  V30 636 C 52.6006 4.99801 0.500398 0
M  V30 637 C 54.5946 6.30412 -0.941255 0
M  V30 638 C 52.2816 6.10448 -0.282308 0
M  V30 639 C 53.2796 6.75612 -1.00184 0
M  V30 640 O 52.9676 7.84134 -1.77171 0
M  V30 641 H 52.6996 0.65027 0.184728 0
M  V30 642 H 55.2536 2.05199 -0.0907841 0
M  V30 643 H 53.4836 3.17888 2.20191 0
M  V30 644 H 55.1726 3.53892 1.98784 0
M  V30 645 H 55.9386 4.84846 -0.12227 0
M  V30 646 H 51.8176 4.48883 1.05002 0
M  V30 647 H 55.3616 6.81208 -1.50339 0
M  V30 648 H 51.2586 6.44686 -0.323989 0
M  V30 649 H 52.0266 8.00822 -1.69194 0
M  V30 650 N 54.6897 -0.239769 1.55765 0
M  V30 651 C 55.6377 -1.31668 1.91745 0
M  V30 652 C 56.6317 -1.49462 0.797338 0
M  V30 653 O 57.8377 -1.50852 0.982021 0
M  V30 654 H 54.2127 -0.441048 0.609082 0
M  V30 655 H 56.1837 -0.985923 2.81642 0
M  V30 656 C 54.9327 -2.66368 2.2348 0
M  V30 657 H 54.2557 -2.53478 3.09175 0
M  V30 658 H 55.6957 -3.40578 2.52553 0
M  V30 659 C 54.1547 -3.20002 1.05359 0
M  V30 660 O 54.6847 -4.00538 0.305261 0
M  V30 661 N 52.8907 -2.78126 0.842292 0
M  V30 662 H 52.4377 -2.12742 1.45253 0
M  V30 663 H 52.3957 -3.14354 0.053652 0
M  V30 664 N 56.1678 -1.49265 -0.50573 0
M  V30 665 C 57.1158 -1.66065 -1.62866 0
M  V30 666 C 58.1098 -0.526636 -1.61006 0
M  V30 667 O 59.3158 -0.706126 -1.65571 0
M  V30 668 H 55.6908 -0.52356 -0.539805 0
M  V30 669 H 57.6618 -2.60329 -1.45848 0
M  V30 670 C 56.4108 -1.74008 -3.01026 0
M  V30 671 H 55.7338 -2.6064 -3.03161 0
M  V30 672 H 57.1738 -1.89798 -3.79147 0
M  V30 673 C 55.6328 -0.483868 -3.33407 0
M  V30 674 O 56.1628 0.392548 -3.99777 0
M  V30 675 N 54.3688 -0.348236 -2.88506 0
M  V30 676 H 53.9158 -1.06242 -2.34671 0
M  V30 677 H 53.8738 0.491204 -3.10539 0
M  V30 678 N 57.6459 0.756429 -1.3826 0
M  V30 679 C 58.9229 1.50584 -1.24835 0
M  V30 680 C 59.3029 2.10556 0.151485 0
M  V30 681 O 58.6509 1.96825 1.1607 0
M  V30 682 C 58.8609 2.57448 -2.3563 0
M  V30 683 C 60.2089 3.24429 -2.73917 0
M  V30 684 O 61.2329 2.67751 -2.34921 0
M  V30 685 O 60.0919 4.26937 -3.41156 0
M  V30 686 H 57.1859 0.667664 -0.48801 0
M  V30 687 H 59.7319 0.792083 -1.5008 0
M  V30 688 H 58.5039 2.11362 -3.29305 0
M  V30 689 H 58.1269 3.36408 -2.11933 0
M  V30 690 N 59.124 1.23083 0.984299 0
M  V30 691 C 60.373 1.05466 1.71929 0
M  V30 692 C 60.686 -0.409211 1.91272 0
M  V30 693 O 61.892 -0.705226 2.62181 0
M  V30 694 C 60.348 1.83874 3.09384 0
M  V30 695 C 59.956 3.34566 2.97943 0
M  V30 696 C 61.7 1.74734 3.8687 0
M  V30 697 C 59.607 4.05381 4.30605 0
M  V30 698 H 58.537 0.391039 0.644674 0
M  V30 699 H 61.188 1.47013 1.09815 0
M  V30 700 H 59.57 1.35131 3.72231 0
M  V30 701 H 60.744 3.90767 2.44209 0
M  V30 702 H 59.059 3.44476 2.33934 0
M  V30 703 H 61.656 2.24957 4.85076 0
M  V30 704 H 61.999 0.709372 4.10212 0
M  V30 705 H 62.532 2.21067 3.30717 0
M  V30 706 H 59.271 5.09467 4.1246 0
M  V30 707 H 58.791 3.53967 4.84218 0
M  V30 708 H 60.47 4.11458 4.99311 0
M  V30 709 N 60.6021 -1.18246 1.0419 0
M  V30 710 C 61.8501 -1.87886 0.744543 0
M  V30 711 C 62.1711 -1.8082 -0.730006 0
M  V30 712 O 61.4411 -1.22736 -1.52685 0
M  V30 713 H 60.0211 -0.695556 0.272417 0
M  V30 714 H 62.6831 -1.43494 1.31892 0
M  V30 715 H 61.7791 -2.9389 1.05049 0
M  V30 716 N 62.0802 -0.821533 -1.34494 0
M  V30 717 C 63.0122 -0.199946 -2.28326 0
M  V30 718 C 64.0252 0.609377 -1.50965 0
M  V30 719 O 65.2142 0.439285 -1.7301 0
M  V30 720 C 62.3142 0.738431 -3.30757 0
M  V30 721 C 61.4872 -0.0277632 -4.37391 0
M  V30 722 C 60.5462 0.831332 -5.19591 0
M  V30 723 O 59.5722 0.276822 -5.68526 0
M  V30 724 N 60.7742 2.15132 -5.39165 0
M  V30 725 H 63.5392 -1.00609 -2.82308 0
M  V30 726 H 61.1002 -0.678366 -1.47003 0
M  V30 727 H 63.0922 1.31773 -3.82646 0
M  V30 728 H 61.6622 1.44533 -2.7718 0
M  V30 729 H 60.8822 -0.788359 -3.86236 0
M  V30 730 H 62.1702 -0.555251 -5.05761 0
M  V30 731 H 61.5682 2.62559 -5.01078 0
M  V30 732 H 60.1252 2.6795 -5.94177 0
M  V30 733 N 63.5583 1.46682 -0.576371 0
M  V30 734 C 64.7883 2.06498 -0.0648694 0
M  V30 735 C 65.1963 1.42665 1.24271 0
M  V30 736 O 64.5393 0.523886 1.76071 0
M  V30 737 C 64.6013 3.5904 0.181816 0
M  V30 738 C 64.2653 4.45028 -1.0392 0
M  V30 739 C 65.2623 4.81959 -1.94966 0
M  V30 740 C 62.9473 4.86259 -1.25927 0
M  V30 741 C 64.9413 5.58942 -3.06371 0
M  V30 742 C 62.6283 5.63002 -2.37638 0
M  V30 743 C 63.6263 5.99257 -3.2769 0
M  V30 744 O 63.3143 6.7445 -4.37461 0
M  V30 745 H 63.0463 0.674028 -0.0515987 0
M  V30 746 H 65.6003 1.89393 -0.794951 0
M  V30 747 H 63.8303 3.74429 0.966436 0
M  V30 748 H 65.5193 4.00806 0.641047 0
M  V30 749 H 66.2853 4.50689 -1.79177 0
M  V30 750 H 62.1643 4.57494 -0.567448 0
M  V30 751 H 65.7083 5.87158 -3.76684 0
M  V30 752 H 61.6053 5.93686 -2.53392 0
M  V30 753 H 62.3733 6.92867 -4.35749 0
M  V30 754 N 65.0364 0.313813 1.54444 0
M  V30 755 C 66.2834 -0.291675 2.00388 0
M  V30 756 C 66.6114 -1.52904 1.2021 0
M  V30 757 O 65.8664 -1.93833 0.269707 0
M  V30 758 C 66.1654 -0.680386 3.50864 0
M  V30 759 C 65.8314 0.456699 4.48581 0
M  V30 760 C 64.4934 0.768824 4.75018 0
M  V30 761 C 66.8454 1.22098 5.06697 0
M  V30 762 C 64.1734 1.84812 5.56831 0
M  V30 763 C 66.5254 2.29029 5.89685 0
M  V30 764 C 65.1894 2.60834 6.14428 0
M  V30 765 H 64.4594 -0.106732 0.733273 0
M  V30 766 H 67.1064 0.43557 1.86481 0
M  V30 767 H 65.4114 -1.48791 3.62448 0
M  V30 768 H 67.1084 -1.16026 3.83847 0
M  V30 769 H 63.6984 0.203337 4.28117 0
M  V30 770 H 67.8824 0.993096 4.86263 0
M  V30 771 H 63.1384 2.09912 5.74236 0
M  V30 772 H 67.3124 2.887 6.33739 0
M  V30 773 H 64.9394 3.44596 6.77612 0
M  V30 774 N 66.5145 -1.57545 0.0417849 0
M  V30 775 C 67.4615 -2.10977 -0.935805 0
M  V30 776 C 68.4315 -1.01486 -1.31491 0
M  V30 777 O 69.6165 -1.2898 -1.40602 0
M  V30 778 C 66.7565 -2.65169 -2.2086 0
M  V30 779 C 65.8695 -3.88714 -1.88482 0
M  V30 780 C 65.0045 -4.31254 -3.1015 0
M  V30 781 C 64.0435 -5.47524 -2.7365 0
M  V30 782 N 63.1805 -5.85162 -3.87982 0
M  V30 783 H 68.0205 -2.94218 -0.473249 0
M  V30 784 H 65.5575 -1.45415 -0.221981 0
M  V30 785 H 67.5155 -2.94685 -2.95325 0
M  V30 786 H 66.1455 -1.8474 -2.64709 0
M  V30 787 H 65.1975 -3.65849 -1.04205 0
M  V30 788 H 66.5095 -4.73245 -1.57608 0
M  V30 789 H 65.6635 -4.62273 -3.92923 0
M  V30 790 H 64.4025 -3.45516 -3.44195 0
M  V30 791 H 63.4075 -5.16187 -1.89291 0
M  V30 792 H 64.6325 -6.34971 -2.40807 0
M  V30 793 H 62.5785 -5.02377 -4.21846 0
M  V30 794 H 62.4955 -6.64362 -3.60775 0
M  V30 795 H 63.7635 -6.20791 -4.71422 0
M  V30 796 N 67.9926 0.231505 -1.5589 0
M  V30 797 C 68.9396 1.28682 -1.91598 0
M  V30 798 C 69.9096 1.47071 -0.771974 0
M  V30 799 O 71.0946 1.60802 -1.027 0
M  V30 800 C 68.2346 2.6342 -2.22944 0
M  V30 801 C 67.3476 2.52912 -3.50228 0
M  V30 802 C 66.4826 3.80106 -3.7107 0
M  V30 803 C 65.5216 3.64279 -4.91902 0
M  V30 804 N 64.6586 4.834 -5.09184 0
M  V30 805 H 69.4986 0.975305 -2.81588 0
M  V30 806 H 67.0356 0.470299 -1.39379 0
M  V30 807 H 68.9936 3.41869 -2.39126 0
M  V30 808 H 67.6236 2.92687 -1.36139 0
M  V30 809 H 66.6756 1.6595 -3.42294 0
M  V30 810 H 67.9876 2.37133 -4.38827 0
M  V30 811 H 67.1416 4.66999 -3.87295 0
M  V30 812 H 65.8806 3.98799 -2.80733 0
M  V30 813 H 64.8856 2.7577 -4.75637 0
M  V30 814 H 66.1106 3.47067 -5.83714 0
M  V30 815 H 64.0566 5.02425 -4.21788 0
M  V30 816 H 63.9736 4.70311 -5.91898 0
M  V30 817 H 65.2416 5.71747 -5.29835 0
M  V30 818 N 69.4707 1.49531 0.497807 0
M  V30 819 C 70.4177 1.66436 1.59899 0
M  V30 820 C 71.3877 0.505793 1.58212 0
M  V30 821 O 72.5727 0.733202 1.7615 0
M  V30 822 C 69.7127 1.7399 2.98029 0
M  V30 823 C 68.8257 3.01172 3.09708 0
M  V30 824 C 67.9607 2.99686 4.38591 0
M  V30 825 C 66.9997 4.21434 4.43914 0
M  V30 826 N 66.1367 4.1784 5.64229 0
M  V30 827 H 70.9767 2.60459 1.44793 0
M  V30 828 H 68.5137 1.29137 0.704423 0
M  V30 829 H 70.4717 1.76352 3.78095 0
M  V30 830 H 69.1017 0.834301 3.11832 0
M  V30 831 H 68.1537 3.08408 2.22685 0
M  V30 832 H 69.4657 3.91165 3.09502 0
M  V30 833 H 68.6197 3.00628 5.2698 0
M  V30 834 H 67.3587 2.07477 4.41367 0
M  V30 835 H 66.3637 4.20733 3.53926 0
M  V30 836 H 67.5887 5.14839 4.42851 0
M  V30 837 H 65.5347 3.28469 5.67841 0
M  V30 838 H 65.4517 5.01571 5.65652 0
M  V30 839 H 66.7197 4.22889 6.54817 0
M  V30 840 N 70.9488 -0.749086 1.3866 0
M  V30 841 C 72.2258 -1.4992 1.25632 0
M  V30 842 C 72.6058 -2.10633 -0.140317 0
M  V30 843 O 71.9538 -1.97437 -1.15025 0
M  V30 844 C 72.1638 -2.56195 2.36992 0
M  V30 845 C 73.5118 -3.22972 2.75634 0
M  V30 846 O 74.5358 -2.66502 2.36337 0
M  V30 847 O 73.3948 -4.25122 3.43415 0
M  V30 848 H 70.4888 -0.665067 0.491544 0
M  V30 849 H 73.0348 -0.784113 1.50498 0
M  V30 850 H 71.8068 -2.09612 3.30422 0
M  V30 851 H 71.4298 -3.35279 2.13714 0
M  V30 852 N 72.4269 -1.23603 -0.977757 0
M  V30 853 C 73.6759 -1.06377 -1.71368 0
M  V30 854 C 73.9889 0.399062 -1.91486 0
M  V30 855 O 75.1949 0.691312 -2.62551 0
M  V30 856 C 73.6509 -1.85512 -3.08404 0
M  V30 857 C 73.2589 -3.36141 -2.96164 0
M  V30 858 C 75.0029 -1.76783 -3.85938 0
M  V30 859 C 72.9099 -4.07659 -4.28449 0
M  V30 860 H 71.8399 -0.394452 -0.642591 0
M  V30 861 H 74.4909 -1.47594 -1.09034 0
M  V30 862 H 72.8729 -1.37103 -3.71509 0
M  V30 863 H 74.0469 -3.92056 -2.42133 0
M  V30 864 H 72.3619 -3.45712 -2.32104 0
M  V30 865 H 74.9589 -2.27526 -4.83876 0
M  V30 866 H 75.3019 -0.731116 -4.0983 0
M  V30 867 H 75.8349 -2.22818 -3.2954 0
M  V30 868 H 72.5739 -5.11648 -4.09752 0
M  V30 869 H 72.0939 -3.5653 -4.82334 0
M  V30 870 H 73.7729 -4.141 -4.97122 0
M  V30 871 N 73.905 1.17692 -1.04816 0
M  V30 872 C 74.837 2.21103 -0.603822 0
M  V30 873 C 75.85 1.59411 0.33046 0
M  V30 874 O 77.039 1.7807 0.12379 0
M  V30 875 C 74.139 3.38623 0.136898 0
M  V30 876 C 73.312 4.29888 -0.807137 0
M  V30 877 C 72.371 5.26088 -0.10836 0
M  V30 878 O 71.397 5.64353 -0.741232 0
M  V30 879 N 72.599 5.68882 1.15558 0
M  V30 880 H 75.364 2.59848 -1.49329 0
M  V30 881 H 72.925 1.32553 -0.929587 0
M  V30 882 H 74.917 4.00009 0.614401 0
M  V30 883 H 73.487 2.98508 0.927993 0
M  V30 884 H 72.707 3.65993 -1.46434 0
M  V30 885 H 73.995 4.87759 -1.44807 0
M  V30 886 H 73.393 5.39861 1.69015 0
M  V30 887 H 71.95 6.32429 1.57722 0
M  V30 888 N 75.3831 0.828654 1.34056 0
M  V30 889 C 76.6231 0.425394 1.99924 0
M  V30 890 C 76.9871 -0.994294 1.64249 0
M  V30 891 O 78.1881 -1.50074 2.23005 0
M  V30 892 C 76.4591 0.628071 3.51838 0
M  V30 893 S 78.0181 0.318511 4.37642 0
M  V30 894 H 74.8361 0.160465 0.692656 0
M  V30 895 H 77.4381 1.07572 1.63244 0
M  V30 896 H 76.1421 1.66089 3.7529 0
M  V30 897 H 75.6731 -0.0367799 3.93383 0
M  V30 898 H 77.6881 -0.865632 4.88591 0
M  V30 899 N 76.8612 -1.46375 0.584142 0
M  V30 900 C 77.8082 -2.30323 -0.148286 0
M  V30 901 C 78.7782 -1.40703 -0.882713 0
M  V30 902 O 79.9632 -1.69651 -0.873099 0
M  V30 903 C 77.1032 -3.25196 -1.15507 0
M  V30 904 C 76.2162 -4.29915 -0.423943 0
M  V30 905 C 75.3512 -5.11914 -1.41838 0
M  V30 906 C 74.3902 -6.08381 -0.673736 0
M  V30 907 N 73.5272 -6.83242 -1.6163 0
M  V30 908 H 78.3672 -2.92427 0.573644 0
M  V30 909 H 75.9042 -1.44118 0.294703 0
M  V30 910 H 77.8622 -3.78646 -1.75166 0
M  V30 911 H 76.4922 -2.64898 -1.8447 0
M  V30 912 H 75.5442 -3.7931 0.287714 0
M  V30 913 H 76.8562 -4.98549 0.158128 0
M  V30 914 H 76.0102 -5.69648 -2.08773 0
M  V30 915 H 74.7492 -4.43243 -2.03438 0
M  V30 916 H 73.7542 -5.49799 0.00938483 0
M  V30 917 H 74.9792 -6.79071 -0.0631082 0
M  V30 918 H 72.9252 -6.1728 -2.22038 0
M  V30 919 H 72.8422 -7.48144 -1.08707 0
M  V30 920 H 74.1102 -7.45534 -2.27596 0
M  V30 921 N 78.3393 -0.321999 -1.54275 0
M  V30 922 C 79.2893 0.560185 -2.21011 0
M  V30 923 C 80.2733 1.08283 -1.19011 0
M  V30 924 O 81.4653 1.02011 -1.44647 0
M  V30 925 C 78.5943 1.72137 -2.97025 0
M  V30 926 C 77.6803 1.21369 -4.06363 0
M  V30 927 N 78.0713 0.425566 -5.04007 0
M  V30 928 C 76.3693 1.49255 -4.20284 0
M  V30 929 C 77.0703 0.152601 -5.815 0
M  V30 930 N 76.0463 0.738294 -5.38563 0
M  V30 931 H 79.8483 -0.049265 -2.93859 0
M  V30 932 H 77.3623 -0.127779 -1.61897 0
M  V30 933 H 79.3593 2.36512 -3.43319 0
M  V30 934 H 78.0193 2.33431 -2.25699 0
M  V30 935 H 79.0303 0.068551 -5.17855 0
M  V30 936 H 75.7073 2.11145 -3.60172 0
M  V30 937 H 77.0973 -0.481764 -6.70171 0
M  V30 938 N 79.8174 1.5752 -0.0501392 0
M  V30 939 C 80.7674 2.07981 0.934231 0
M  V30 940 C 81.7514 0.984745 1.27246 0
M  V30 941 O 82.9434 1.24809 1.25506 0
M  V30 942 C 80.0724 2.62751 2.20945 0
M  V30 943 C 79.1584 3.79225 1.89865 0
M  V30 944 N 79.5494 4.89036 1.29142 0
M  V30 945 C 77.8474 3.88111 2.19741 0
M  V30 946 C 78.5484 5.70084 1.15669 0
M  V30 947 N 77.5244 5.17659 1.65923 0
M  V30 948 H 81.3264 2.90277 0.460053 0
M  V30 949 H 78.8404 1.61665 0.15434 0
M  V30 950 H 80.8374 2.97205 2.9236 0
M  V30 951 H 79.4974 1.81894 2.6897 0
M  V30 952 H 80.5084 5.08854 0.963756 0
M  V30 953 H 77.1854 3.18194 2.70293 0
M  V30 954 H 78.5754 6.68395 0.685356 0
M  V30 955 N 81.2955 -0.223234 1.56011 0
M  V30 956 C 82.5445 -0.945912 1.78144 0
M  V30 957 C 82.8575 -1.85567 0.618396 0
M  V30 958 O 84.0635 -2.61688 0.723318 0
M  V30 959 C 82.5195 -1.73216 3.15475 0
M  V30 960 C 82.1275 -0.868619 4.39499 0
M  V30 961 C 83.8715 -2.44615 3.46935 0
M  V30 962 C 81.7785 -1.65212 5.67855 0
M  V30 963 H 80.7085 -0.356929 0.664167 0
M  V30 964 H 83.3595 -0.199845 1.82409 0
M  V30 965 H 81.7415 -2.52107 3.05382 0
M  V30 966 H 82.9155 -0.120366 4.60643 0
M  V30 967 H 81.2305 -0.26683 4.15544 0
M  V30 968 H 83.8275 -3.03732 4.40058 0
M  V30 969 H 84.1705 -3.17417 2.69355 0
M  V30 970 H 84.7035 -1.72715 3.58349 0
M  V30 971 H 81.4425 -0.967407 6.48322 0
M  V30 972 H 80.9625 -2.37503 5.50774 0
M  V30 973 H 82.6415 -2.21322 6.07968 0
M  V30 974 N 82.7736 -1.49793 -0.48987 0
M  V30 975 C 83.6836 -1.70036 -1.61632 0
M  V30 976 C 84.6996 -0.583102 -1.63939 0
M  V30 977 O 85.8756 -0.859169 -1.82154 0
M  V30 978 C 82.9406 -1.77277 -2.97949 0
M  V30 979 C 82.0016 -3.00918 -3.06181 0
M  V30 980 C 81.2346 -3.07804 -4.35996 0
M  V30 981 O 81.4576 -2.21982 -5.25433 0
M  V30 982 O 80.3916 -4.00369 -4.49431 0
M  V30 983 H 84.2176 -2.65486 -1.47482 0
M  V30 984 H 81.8026 -1.33666 -0.667362 0
M  V30 985 H 83.6846 -1.84329 -3.78947 0
M  V30 986 H 82.3596 -0.850076 -3.12339 0
M  V30 987 H 81.2666 -2.99377 -2.2433 0
M  V30 988 H 82.5996 -3.92704 -2.96723 0
M  V30 989 N 84.2517 0.741722 -1.39055 0
M  V30 990 C 85.5007 1.49656 -1.35225 0
M  V30 991 C 85.8137 1.95533 0.0512708 0
M  V30 992 O 87.0197 2.7067 0.212138 0
M  V30 993 C 85.4757 2.70389 -2.37525 0
M  V30 994 C 85.0837 2.31489 -3.83558 0
M  V30 995 C 86.8277 3.48236 -2.42759 0
M  V30 996 C 84.7347 3.48903 -4.77515 0
M  V30 997 H 83.6647 0.56197 -0.502699 0
M  V30 998 H 86.3157 0.809727 -1.64668 0
M  V30 999 H 84.6977 3.41113 -2.01142 0
M  V30 1000 H 85.8717 1.68354 -4.28945 0
M  V30 1001 H 84.1867 1.66749 -3.81554 0
M  V30 1002 H 86.7837 4.35558 -3.1015 0
M  V30 1003 H 87.1267 3.90229 -1.45008 0
M  V30 1004 H 87.6597 2.84535 -2.78002 0
M  V30 1005 H 84.3987 3.11966 -5.76504 0
M  V30 1006 H 83.9187 4.11041 -4.36813 0
M  V30 1007 H 85.5977 4.15328 -4.96096 0
M  V30 1008 N 85.7298 1.2412 0.971189 0
M  V30 1009 C 86.6778 1.02812 2.08644 0
M  V30 1010 C 87.6718 -0.0358403 1.69362 0
M  V30 1011 O 88.8778 0.118429 1.7961 0
M  V30 1012 H 85.2528 0.315428 0.682649 0
M  V30 1013 H 87.2238 1.97397 2.23779 0
M  V30 1014 C 85.9728 0.645874 3.41649 0
M  V30 1015 H 85.2958 1.45632 3.72332 0
M  V30 1016 H 86.7358 0.536366 4.20594 0
M  V30 1017 C 85.1948 -0.646713 3.30635 0
M  V30 1018 O 85.7248 -1.69338 3.64263 0
M  V30 1019 N 83.9308 -0.626115 2.83775 0
M  V30 1020 H 83.4778 0.225988 2.56607 0
M  V30 1021 H 83.4358 -1.49117 2.76788 0
M  V30 1022 N 87.2079 -1.17134 1.05439 0
M  V30 1023 C 88.1399 -2.2078 0.615539 0
M  V30 1024 C 89.1529 -1.59584 -0.322001 0
M  V30 1025 O 90.3419 -1.78133 -0.114344 0
M  V30 1026 C 87.4419 -3.38691 -0.118938 0
M  V30 1027 C 86.6149 -4.29454 0.829924 0
M  V30 1028 C 85.6739 -5.26024 0.136258 0
M  V30 1029 O 84.6999 -5.63952 0.77115 0
M  V30 1030 N 85.9019 -5.69487 -1.1254 0
M  V30 1031 H 88.6669 -2.59052 1.50705 0
M  V30 1032 H 86.2279 -1.32058 0.936603 0
M  V30 1033 H 88.2199 -4.00329 -0.593179 0
M  V30 1034 H 86.7899 -2.98996 -0.91215 0
M  V30 1035 H 86.0099 -3.65211 1.48373 0
M  V30 1036 H 87.2979 -4.86984 1.47392 0
M  V30 1037 H 86.6959 -5.4075 -1.6615 0
M  V30 1038 H 85.2529 -6.33257 -1.54366 0
M  V30 1039 N 88.686 -0.835752 -1.33615 0
M  V30 1040 C 89.963 -0.352017 -1.92406 0
M  V30 1041 C 90.343 1.16225 -1.76224 0
M  V30 1042 O 89.691 1.97526 -1.14873 0
M  V30 1043 C 89.901 -0.795485 -3.39813 0
M  V30 1044 C 91.249 -0.801703 -4.16963 0
M  V30 1045 O 92.273 -0.738889 -3.48452 0
M  V30 1046 O 91.132 -0.886607 -5.3926 0
M  V30 1047 H 88.226 -0.0989641 -0.821057 0
M  V30 1048 H 90.772 -0.921397 -1.42507 0
M  V30 1049 H 89.544 -1.83795 -3.45449 0
M  V30 1050 H 89.167 -0.202505 -3.97084 0
M  V30 1051 N 90.1641 1.46063 -0.591896 0
M  V30 1052 C 91.3891 2.07226 -0.0850314 0
M  V30 1053 C 91.8141 1.43625 1.21463 0
M  V30 1054 O 91.1721 0.523305 1.73583 0
M  V30 1055 C 91.2201 3.60554 0.0576567 0
M  V30 1056 O 90.3241 3.97128 1.11188 0
M  V30 1057 H 89.6651 0.660615 -0.0669568 0
M  V30 1058 H 92.1951 1.8756 -0.81745 0
M  V30 1059 H 92.2051 4.07165 0.2609 0
M  V30 1060 H 90.8801 4.06235 -0.891416 0
M  V30 1061 H 89.4571 3.62213 0.886356 0
M  V30 1062 N 91.6422 0.330177 1.54103 0
M  V30 1063 C 92.5902 -0.548226 2.26047 0
M  V30 1064 C 93.5842 -1.11309 1.27698 0
M  V30 1065 O 94.7902 -1.06036 1.45452 0
M  V30 1066 H 91.1652 -0.195456 0.726155 0
M  V30 1067 H 93.1362 0.0807567 2.98291 0
M  V30 1068 C 91.8852 -1.69415 3.03634 0
M  V30 1069 H 91.2082 -1.26876 3.79134 0
M  V30 1070 H 92.6482 -2.28423 3.5721 0
M  V30 1071 C 91.1072 -2.61569 2.12328 0
M  V30 1072 O 91.6372 -3.63462 1.7105 0
M  V30 1073 N 89.8432 -2.29952 1.77681 0
M  V30 1074 H 89.3902 -1.47134 2.11446 0
M  V30 1075 H 89.3482 -2.91871 1.16869 0
M  V30 1076 N 93.1203 -1.57491 0.0584922 0
M  V30 1077 C 94.0703 -2.08474 -0.923188 0
M  V30 1078 C 95.0543 -0.991479 -1.26722 0
M  V30 1079 O 96.2463 -1.25473 -1.24842 0
M  V30 1080 C 93.3753 -2.6392 -2.19548 0
M  V30 1081 C 92.4613 -3.80227 -1.87852 0
M  V30 1082 N 92.8523 -4.89714 -1.26546 0
M  V30 1083 C 91.1503 -3.89271 -2.17679 0
M  V30 1084 C 91.8513 -5.70689 -1.12644 0
M  V30 1085 N 90.8273 -5.18531 -1.63176 0
M  V30 1086 H 94.6293 -2.90517 -0.444653 0
M  V30 1087 H 92.1433 -1.61745 -0.145764 0
M  V30 1088 H 94.1403 -2.98752 -2.9078 0
M  V30 1089 H 92.8003 -1.83318 -2.68001 0
M  V30 1090 H 93.8113 -5.09358 -0.936757 0
M  V30 1091 H 90.4883 -3.19623 -2.68602 0
M  V30 1092 H 91.8783 -6.6875 -0.6499 0
M  V30 1093 N 94.5984 0.214957 -1.56127 0
M  V30 1094 C 95.5464 1.28601 -1.93816 0
M  V30 1095 C 96.5404 1.48175 -0.821016 0
M  V30 1096 O 97.7464 1.49271 -1.0059 0
M  V30 1097 H 94.1214 0.431302 -0.616022 0
M  V30 1098 H 96.0924 0.940991 -2.83175 0
M  V30 1099 C 94.8414 2.62779 -2.27689 0
M  V30 1100 H 94.1644 2.48527 -3.13168 0
M  V30 1101 H 95.6044 3.36517 -2.57939 0
M  V30 1102 C 94.0634 3.18285 -1.10436 0
M  V30 1103 O 94.5934 4.00002 -0.368945 0
M  V30 1104 N 92.7994 2.7675 -0.886433 0
M  V30 1105 H 92.3464 2.10404 -1.48619 0
M  V30 1106 H 92.3044 3.14229 -0.103656 0
M  V30 1107 N 96.0765 1.50051 0.48192 0
M  V30 1108 C 96.9865 1.7089 1.60728 0
M  V30 1109 C 98.0025 0.591788 1.63627 0
M  V30 1110 O 99.1785 0.868817 1.81696 0
M  V30 1111 C 96.2435 1.78855 2.97005 0
M  V30 1112 C 95.3045 3.02537 3.04581 0
M  V30 1113 C 94.5375 3.10112 4.34357 0
M  V30 1114 O 94.7605 2.24765 5.24249 0
M  V30 1115 O 93.6945 4.02747 4.47301 0
M  V30 1116 H 97.5205 2.66264 1.46072 0
M  V30 1117 H 95.1055 1.34018 0.660264 0
M  V30 1118 H 96.9875 1.86336 3.77964 0
M  V30 1119 H 95.6625 0.866628 3.11883 0
M  V30 1120 H 94.5695 3.00563 2.22739 0
M  V30 1121 H 95.9025 3.94272 2.94636 0
M  V30 1122 N 97.5546 -0.734337 1.39446 0
M  V30 1123 C 98.7846 -1.52137 1.39778 0
M  V30 1124 C 99.1926 -1.89198 -0.00929312 0
M  V30 1125 O 98.5356 -1.54666 -0.991168 0
M  V30 1126 C 98.5976 -2.83762 2.20724 0
M  V30 1127 C 98.2616 -2.69131 3.69347 0
M  V30 1128 C 99.2586 -2.37635 4.62413 0
M  V30 1129 C 96.9436 -2.85982 4.1294 0
M  V30 1130 C 98.9376 -2.23172 5.97054 0
M  V30 1131 C 96.6246 -2.71137 5.47657 0
M  V30 1132 C 97.6226 -2.39777 6.39528 0
M  V30 1133 O 97.3106 -2.25026 7.71763 0
M  V30 1134 H 97.0426 -0.476717 0.479288 0
M  V30 1135 H 99.5966 -0.915012 1.83893 0
M  V30 1136 H 97.8266 -3.4666 1.71359 0
M  V30 1137 H 99.5156 -3.45383 2.13226 0
M  V30 1138 H 100.282 -2.24267 4.30034 0
M  V30 1139 H 96.1606 -3.09383 3.41765 0
M  V30 1140 H 99.7046 -1.98617 6.68728 0
M  V30 1141 H 95.6016 -2.84083 5.79626 0
M  V30 1142 H 96.3696 -2.40091 7.82495 0
M  V30 1143 N 99.0327 -1.24633 -0.964593 0
M  V30 1144 C 100.258 -1.11596 -1.74818 0
M  V30 1145 C 100.683 0.32723 -1.85232 0
M  V30 1146 O 100.041 1.23695 -1.32549 0
M  V30 1147 C 100.089 -1.76397 -3.1451 0
M  V30 1148 O 99.1927 -1.03685 -3.99153 0
M  V30 1149 H 98.5337 -0.390196 -0.537255 0
M  V30 1150 H 101.064 -1.65002 -1.20977 0
M  V30 1151 H 101.074 -1.8228 -3.65018 0
M  V30 1152 H 99.7487 -2.81401 -3.06246 0
M  V30 1153 H 98.3257 -1.05611 -3.57632 0
M  V30 1154 N 100.511 1.16574 -1.06058 0
M  V30 1155 C 101.758 1.87047 -0.775873 0
M  V30 1156 C 102.086 1.81562 0.697534 0
M  V30 1157 O 101.341 1.22445 1.52662 0
M  V30 1158 C 101.64 3.36195 -1.21275 0
M  V30 1159 C 101.306 3.6188 -2.68986 0
M  V30 1160 C 99.9678 3.68599 -3.09335 0
M  V30 1161 C 102.32 3.72648 -3.64394 0
M  V30 1162 C 99.6478 3.83584 -4.43937 0
M  V30 1163 C 102 3.89154 -4.98741 0
M  V30 1164 C 100.664 3.94114 -5.3873 0
M  V30 1165 H 99.9338 0.684452 -0.283912 0
M  V30 1166 H 102.581 1.37853 -1.32925 0
M  V30 1167 H 100.886 3.87505 -0.578528 0
M  V30 1168 H 102.583 3.89103 -0.969542 0
M  V30 1169 H 99.1728 3.57281 -2.36744 0
M  V30 1170 H 103.357 3.66769 -3.34356 0
M  V30 1171 H 98.6128 3.85677 -4.74409 0
M  V30 1172 H 102.787 3.96427 -5.72554 0
M  V30 1173 H 100.414 4.05478 -6.43033 0
M  V30 1174 N 101.989 0.842826 1.3317 0
M  V30 1175 C 102.919 0.294028 2.31641 0
M  V30 1176 C 103.9 -0.600401 1.59151 0
M  V30 1177 O 105.085 -0.523124 1.87022 0
M  V30 1178 C 102.215 -0.528416 3.43257 0
M  V30 1179 C 101.169 0.27056 4.27144 0
M  V30 1180 C 100.495 -0.675881 5.30411 0
M  V30 1181 C 101.795 1.48981 5.00602 0
M  V30 1182 H 103.489 1.11681 2.77791 0
M  V30 1183 H 101.035 0.538478 1.33553 0
M  V30 1184 H 102.988 -0.922674 4.11175 0
M  V30 1185 H 101.712 -1.38445 2.95805 0
M  V30 1186 H 100.371 0.646427 3.60856 0
M  V30 1187 H 100.019 -1.52842 4.79216 0
M  V30 1188 H 99.7189 -0.145374 5.8742 0
M  V30 1189 H 101.243 -1.06757 6.01195 0
M  V30 1190 H 102.657 1.16849 5.61266 0
M  V30 1191 H 101.054 1.95739 5.6728 0
M  V30 1192 H 102.124 2.25746 4.29147 0
M  V30 1193 N 103.467 -1.45747 0.599634 0
M  V30 1194 C 104.692 -2.07178 0.0960198 0
M  V30 1195 C 105.117 -1.44268 -1.207 0
M  V30 1196 O 104.475 -0.532503 -1.73303 0
M  V30 1197 C 104.523 -3.60579 -0.0385348 0
M  V30 1198 O 103.627 -3.97713 -1.0908 0
M  V30 1199 H 102.968 -0.660251 0.0704593 0
M  V30 1200 H 105.498 -1.87124 0.827385 0
M  V30 1201 H 105.508 -4.07298 -0.239304 0
M  V30 1202 H 104.183 -4.05756 0.912947 0
M  V30 1203 H 102.76 -3.62678 -0.867135 0
M  V30 1204 N 104.945 -0.338344 -1.53925 0
M  V30 1205 C 105.875 0.51328 -2.27789 0
M  V30 1206 C 106.856 1.107 -1.29149 0
M  V30 1207 O 108.041 1.12937 -1.57984 0
M  V30 1208 C 105.171 1.66697 -3.04679 0
M  V30 1209 C 104.125 1.20183 -4.1078 0
M  V30 1210 C 103.451 2.44363 -4.75595 0
M  V30 1211 C 104.751 0.30605 -5.21403 0
M  V30 1212 H 106.445 -0.102883 -2.99223 0
M  V30 1213 H 103.991 -0.0509219 -1.4391 0
M  V30 1214 H 105.944 2.26915 -3.55088 0
M  V30 1215 H 104.668 2.30995 -2.30887 0
M  V30 1216 H 103.327 0.622499 -3.61276 0
M  V30 1217 H 102.975 3.07057 -3.98403 0
M  V30 1218 H 102.675 2.13925 -5.47275 0
M  V30 1219 H 104.199 3.05317 -5.28786 0
M  V30 1220 H 105.613 0.814929 -5.67478 0
M  V30 1221 H 104.01 0.0937929 -6.00027 0
M  V30 1222 H 105.08 -0.65921 -4.80398 0
M  V30 1223 N 106.423 1.57458 -0.0668435 0
M  V30 1224 C 107.37 2.12439 0.902122 0
M  V30 1225 C 108.34 1.03565 1.2986 0
M  V30 1226 O 109.525 1.312 1.38532 0
M  V30 1227 C 106.665 2.6865 2.16614 0
M  V30 1228 C 105.778 3.91663 1.82274 0
M  V30 1229 C 104.913 4.36134 3.0325 0
M  V30 1230 C 103.952 5.51808 2.64904 0
M  V30 1231 N 103.089 5.9126 3.78624 0
M  V30 1232 H 107.929 2.94934 0.426382 0
M  V30 1233 H 105.466 1.4575 0.198819 0
M  V30 1234 H 107.424 2.99346 2.90599 0
M  V30 1235 H 106.054 1.88928 2.61737 0
M  V30 1236 H 105.106 3.6746 0.983719 0
M  V30 1237 H 106.418 4.75693 1.50059 0
M  V30 1238 H 105.572 4.68465 3.85519 0
M  V30 1239 H 104.311 3.50948 3.38655 0
M  V30 1240 H 103.316 5.19133 1.81055 0
M  V30 1241 H 104.541 6.38722 2.30675 0
M  V30 1242 H 102.487 5.09024 4.138 0
M  V30 1243 H 102.404 6.70018 3.5016 0
M  V30 1244 H 103.672 6.28212 4.61486 0
M  V30 1245 N 107.901 -0.206675 1.56239 0
M  V30 1246 C 108.864 -1.23976 1.92776 0
M  V30 1247 C 109.864 -1.39041 0.807729 0
M  V30 1248 O 111.054 -1.37051 1.0753 0
M  V30 1249 C 108.186 -2.61112 2.19165 0
M  V30 1250 H 109.379 -0.927764 2.85189 0
M  V30 1251 H 106.932 -0.447718 1.4975 0
M  V30 1252 H 107.667 -2.97386 1.29352 0
M  V30 1253 H 107.452 -2.51552 3.00772 0
M  V30 1254 H 108.942 -3.35633 2.48476 0
M  V30 1255 N 109.379 -1.50304 -0.473955 0
M  V30 1256 C 110.604 -1.65175 -1.25427 0
M  V30 1257 C 111.029 -0.333673 -1.85117 0
M  V30 1258 O 110.387 0.702114 -1.67153 0
M  V30 1259 C 110.435 -2.74295 -2.34082 0
M  V30 1260 O 109.539 -2.35349 -3.38651 0
M  V30 1261 H 108.88 -0.551944 -0.369126 0
M  V30 1262 H 111.41 -1.96662 -0.564364 0
M  V30 1263 H 111.42 -2.97285 -2.79438 0
M  V30 1264 H 110.095 -3.69959 -1.90008 0
M  V30 1265 H 108.672 -2.22794 -2.99027 0
M  V30 1266 N 110.857 0.726932 -1.39834 0
M  V30 1267 C 112.082 1.52121 -1.40976 0
M  V30 1268 C 112.507 1.88098 -0.00826029 0
M  V30 1269 O 111.865 1.52479 0.980807 0
M  V30 1270 C 111.913 2.78021 -2.29644 0
M  V30 1271 O 111.017 3.74272 -1.73188 0
M  V30 1272 H 110.358 0.45908 -0.479731 0
M  V30 1273 H 112.888 0.896207 -1.83927 0
M  V30 1274 H 112.898 3.26671 -2.44438 0
M  V30 1275 H 111.573 2.51169 -3.31492 0
M  V30 1276 H 110.15 3.33073 -1.6768 0
M  V30 1277 N 112.336 1.25143 0.95797 0
M  V30 1278 C 113.585 1.0909 1.69654 0
M  V30 1279 C 113.898 -0.368548 1.92097 0
M  V30 1280 O 115.104 -0.649455 2.63618 0
M  V30 1281 C 113.56 1.90395 3.05414 0
M  V30 1282 C 113.168 3.4081 2.90779 0
M  V30 1283 C 114.912 1.82901 3.83076 0
M  V30 1284 C 112.819 4.14423 4.21909 0
M  V30 1285 H 111.749 0.404625 0.636235 0
M  V30 1286 H 114.4 1.4931 1.06672 0
M  V30 1287 H 112.782 1.42996 3.69281 0
M  V30 1288 H 113.956 3.95859 2.35865 0
M  V30 1289 H 112.271 3.49361 2.26575 0
M  V30 1290 H 114.868 2.35196 4.80195 0
M  V30 1291 H 115.211 0.796224 4.08615 0
M  V30 1292 H 115.744 2.28033 3.25954 0
M  V30 1293 H 112.483 5.18102 4.01561 0
M  V30 1294 H 112.003 3.64159 4.76601 0
M  V30 1295 H 113.682 4.21956 4.90471 0
M  V30 1296 N 113.814 -1.1601 1.06675 0
M  V30 1297 C 115.061 -1.86633 0.785781 0
M  V30 1298 C 115.389 -1.81929 -0.687896 0
M  V30 1299 O 114.644 -1.23253 -1.52011 0
M  V30 1300 C 114.943 -3.35547 1.23057 0
M  V30 1301 C 114.609 -3.60448 2.70902 0
M  V30 1302 C 113.271 -3.66954 3.11285 0
M  V30 1303 C 115.623 -3.7071 3.66365 0
M  V30 1304 C 112.951 -3.81225 4.45965 0
M  V30 1305 C 115.303 -3.86503 5.00797 0
M  V30 1306 C 113.967 -3.91252 5.40813 0
M  V30 1307 H 113.237 -0.682937 0.287538 0
M  V30 1308 H 115.884 -1.37146 1.33654 0
M  V30 1309 H 114.189 -3.87193 0.59907 0
M  V30 1310 H 115.886 -3.88583 0.990163 0
M  V30 1311 H 112.476 -3.56021 2.38636 0
M  V30 1312 H 116.66 -3.64991 3.36296 0
M  V30 1313 H 111.916 -3.83155 4.76447 0
M  V30 1314 H 116.09 -3.93385 5.74649 0
M  V30 1315 H 113.717 -4.02062 6.45174 0
M  V30 1316 N 115.292 -0.849877 -1.32721 0
M  V30 1317 C 116.24 -0.279745 -2.30912 0
M  V30 1318 C 117.234 0.594278 -1.58634 0
M  V30 1319 O 118.44 0.482613 -1.73409 0
M  V30 1320 H 114.815 -0.0717521 -0.748569 0
M  V30 1321 H 116.786 -1.12222 -2.76494 0
M  V30 1322 C 115.535 0.521108 -3.43773 0
M  V30 1323 H 114.858 -0.142141 -3.99547 0
M  V30 1324 H 116.298 0.885693 -4.14646 0
M  V30 1325 C 114.757 1.70442 -2.90605 0
M  V30 1326 O 115.287 2.8034 -2.87702 0
M  V30 1327 N 113.493 1.52991 -2.47067 0
M  V30 1328 H 113.04 0.635914 -2.49628 0
M  V30 1329 H 112.998 2.32311 -2.11847 0
M  V30 1330 N 116.77 1.45427 -0.607355 0
M  V30 1331 C 117.702 2.2871 0.149752 0
M  V30 1332 C 118.715 1.39937 0.831958 0
M  V30 1333 O 119.904 1.64313 0.697385 0
M  V30 1334 C 117.004 3.15673 1.23304 0
M  V30 1335 C 116.177 4.32722 0.637996 0
M  V30 1336 C 115.236 5.00895 1.61215 0
M  V30 1337 O 114.262 5.57697 1.13854 0
M  V30 1338 N 115.464 5.00159 2.94655 0
M  V30 1339 H 118.229 2.94328 -0.564882 0
M  V30 1340 H 115.79 1.55612 -0.446823 0
M  V30 1341 H 117.782 3.58144 1.88454 0
M  V30 1342 H 116.352 2.51965 1.8502 0
M  V30 1343 H 115.572 3.93734 -0.191572 0
M  V30 1344 H 116.86 5.08321 0.220665 0
M  V30 1345 H 116.258 4.553 3.35735 0
M  V30 1346 H 114.815 5.46495 3.55228 0
M  V30 1347 N 118.248 0.346503 1.53744 0
M  V30 1348 C 119.478 -0.250047 2.05081 0
M  V30 1349 C 119.886 -1.44529 1.22098 0
M  V30 1350 O 119.229 -1.81992 0.249917 0
M  V30 1351 C 119.291 -0.725934 3.52094 0
M  V30 1352 C 118.955 0.350053 4.55657 0
M  V30 1353 C 119.952 1.19372 5.0601 0
M  V30 1354 C 117.637 0.504827 4.99757 0
M  V30 1355 C 119.631 2.17768 5.99046 0
M  V30 1356 C 117.318 1.49218 5.92602 0
M  V30 1357 C 118.316 2.32706 6.42135 0
M  V30 1358 O 118.004 3.2976 7.33153 0
M  V30 1359 H 117.736 -0.0515469 0.674032 0
M  V30 1360 H 120.29 0.497559 1.99282 0
M  V30 1361 H 118.52 -1.52483 3.55367 0
M  V30 1362 H 120.209 -1.24336 3.86388 0
M  V30 1363 H 120.975 1.08525 4.72702 0
M  V30 1364 H 116.854 -0.135178 4.60802 0
M  V30 1365 H 120.398 2.82971 6.37631 0
M  V30 1366 H 116.295 1.6012 6.25325 0
M  V30 1367 H 117.063 3.25265 7.51096 0
M  V30 1368 N 119.726 -1.57421 0.075193 0
M  V30 1369 C 120.956 -1.97659 -0.601203 0
M  V30 1370 C 121.364 -0.952427 -1.63479 0
M  V30 1371 O 120.707 0.0688241 -1.83571 0
M  V30 1372 C 120.769 -3.34218 -1.32434 0
M  V30 1373 C 120.433 -4.5484 -0.443826 0
M  V30 1374 C 121.43 -5.19034 0.299969 0
M  V30 1375 C 119.115 -5.00952 -0.367709 0
M  V30 1376 C 121.109 -6.27695 1.10807 0
M  V30 1377 C 118.796 -6.09484 0.444058 0
M  V30 1378 C 119.794 -6.72719 1.18061 0
M  V30 1379 O 119.482 -7.79161 1.97898 0
M  V30 1380 H 119.214 -0.65494 -0.167422 0
M  V30 1381 H 121.768 -2.04886 0.145157 0
M  V30 1382 H 119.998 -3.23615 -2.11685 0
M  V30 1383 H 121.687 -3.59038 -1.89331 0
M  V30 1384 H 122.453 -4.84351 0.250776 0
M  V30 1385 H 118.332 -4.51509 -0.930638 0
M  V30 1386 H 121.876 -6.76982 1.68347 0
M  V30 1387 H 117.773 -6.43601 0.494803 0
M  V30 1388 H 118.541 -7.96055 1.90367 0
M  V30 1389 N 121.204 0.198386 -1.56346 0
M  V30 1390 C 122.45 0.920648 -1.80698 0
M  V30 1391 C 122.783 1.83045 -0.648697 0
M  V30 1392 O 122.058 1.91308 0.350925 0
M  V30 1393 C 122.341 1.73971 -3.15287 0
M  V30 1394 C 122.194 0.85485 -4.41602 0
M  V30 1395 C 123.513 2.71296 -3.46535 0
M  V30 1396 H 120.632 0.333261 -0.657348 0
M  V30 1397 H 123.274 0.188198 -1.89066 0
M  V30 1398 H 121.424 2.36416 -3.08285 0
M  V30 1399 H 123.096 0.245362 -4.60647 0
M  V30 1400 H 121.339 0.161398 -4.335 0
M  V30 1401 H 122.01 1.46286 -5.32264 0
M  V30 1402 H 124.486 2.18983 -3.53816 0
M  V30 1403 H 123.362 3.2569 -4.41834 0
M  V30 1404 H 123.623 3.5018 -2.69864 0
M  V30 1405 N 122.682 1.50554 0.465978 0
M  V30 1406 C 123.645 1.69233 1.54574 0
M  V30 1407 C 124.645 0.562901 1.50626 0
M  V30 1408 O 125.835 0.830016 1.53155 0
M  V30 1409 C 122.967 1.7223 2.94193 0
M  V30 1410 H 124.16 2.65571 1.39327 0
M  V30 1411 H 121.713 1.40111 0.692711 0
M  V30 1412 H 122.448 0.77603 3.14878 0
M  V30 1413 H 122.233 2.54285 2.98466 0
M  V30 1414 H 123.723 1.88618 3.72576 0
M  V30 1415 N 124.16 -0.719506 1.40217 0
M  V30 1416 C 125.107 -1.83359 1.40172 0
M  V30 1417 C 126.077 -1.64065 0.259206 0
M  V30 1418 O 127.262 -1.85254 0.456677 0
M  V30 1419 C 124.402 -3.2103 1.26624 0
M  V30 1420 C 123.515 -3.51923 2.50548 0
M  V30 1421 C 122.65 -4.79079 2.29471 0
M  V30 1422 C 121.689 -5.02863 3.48992 0
M  V30 1423 N 120.826 -6.2123 3.27135 0
M  V30 1424 H 125.666 -1.82733 2.35399 0
M  V30 1425 H 123.203 -0.892688 1.16917 0
M  V30 1426 H 125.161 -4.00524 1.16776 0
M  V30 1427 H 123.791 -3.20895 0.350176 0
M  V30 1428 H 122.843 -2.67014 2.70939 0
M  V30 1429 H 124.155 -3.6541 3.39525 0
M  V30 1430 H 123.309 -5.66582 2.16955 0
M  V30 1431 H 122.048 -4.67794 1.37913 0
M  V30 1432 H 121.053 -4.13816 3.6199 0
M  V30 1433 H 122.278 -5.16023 4.41472 0
M  V30 1434 H 120.224 -6.11204 2.38256 0
M  V30 1435 H 120.141 -6.35375 4.09675 0
M  V30 1436 H 121.409 -7.11532 3.18344 0
M  V30 1437 N 125.638 -1.25649 -0.95132 0
M  V30 1438 C 126.568 -1.08808 -2.06599 0
M  V30 1439 C 127.549 0.00382547 -1.701 0
M  V30 1440 O 128.734 -0.166325 -1.93486 0
M  V30 1441 C 125.864 -0.709542 -3.39975 0
M  V30 1442 C 124.818 -1.75206 -3.90496 0
M  V30 1443 C 124.144 -1.22811 -5.20405 0
M  V30 1444 C 125.444 -3.15153 -4.16504 0
M  V30 1445 H 127.138 -2.02048 -2.20946 0
M  V30 1446 H 124.684 -0.972835 -1.06169 0
M  V30 1447 H 126.637 -0.578649 -4.17408 0
M  V30 1448 H 125.361 0.258556 -3.25575 0
M  V30 1449 H 124.02 -1.87145 -3.15234 0
M  V30 1450 H 123.668 -0.250145 -5.02378 0
M  V30 1451 H 123.368 -1.92492 -5.55176 0
M  V30 1452 H 124.892 -1.10968 -6.00432 0
M  V30 1453 H 126.306 -3.06349 -4.84586 0
M  V30 1454 H 124.703 -3.82333 -4.62538 0
M  V30 1455 H 125.773 -3.61966 -3.22658 0
M  V30 1456 N 127.117 1.15442 -1.07289 0
M  V30 1457 C 128.366 1.85557 -0.790669 0
M  V30 1458 C 128.679 1.83186 0.685739 0
M  V30 1459 O 129.885 2.48977 1.0827 0
M  V30 1460 C 128.341 3.33038 -1.36433 0
M  V30 1461 C 127.949 3.43856 -2.8717 0
M  V30 1462 C 129.693 4.0834 -1.1601 0
M  V30 1463 C 127.6 4.85482 -3.3773 0
M  V30 1464 H 126.53 0.695122 -0.292098 0
M  V30 1465 H 129.181 1.30219 -1.29287 0
M  V30 1466 H 127.563 3.88043 -0.789864 0
M  V30 1467 H 128.737 2.98961 -3.50655 0
M  V30 1468 H 127.052 2.81998 -3.06376 0
M  V30 1469 H 129.649 5.12859 -1.51262 0
M  V30 1470 H 129.992 4.16182 -0.0991007 0
M  V30 1471 H 130.525 3.59603 -1.70089 0
M  V30 1472 H 127.264 4.82823 -4.43353 0
M  V30 1473 H 126.784 5.30961 -2.78999 0
M  V30 1474 H 128.463 5.54335 -3.33648 0
M  V30 1475 N 128.595 0.856903 1.32268 0
M  V30 1476 C 129.543 0.291987 2.3076 0
M  V30 1477 C 130.537 -0.585857 1.58947 0
M  V30 1478 O 131.743 -0.47341 1.73663 0
M  V30 1479 H 128.118 0.075721 0.748178 0
M  V30 1480 H 130.089 1.13687 2.75895 0
M  V30 1481 C 128.838 -0.502869 3.44044 0
M  V30 1482 H 128.161 0.163328 3.99466 0
M  V30 1483 H 129.601 -0.863691 4.1511 0
M  V30 1484 C 128.06 -1.68898 2.91505 0
M  V30 1485 O 128.59 -2.78811 2.89184 0
M  V30 1486 N 126.796 -1.51679 2.47875 0
M  V30 1487 H 126.343 -0.622666 2.49961 0
M  V30 1488 H 126.301 -2.31184 2.13076 0
M  V30 1489 N 130.073 -1.45103 0.615059 0
M  V30 1490 C 131.301 -2.06553 0.11977 0
M  V30 1491 C 131.716 -1.45842 -1.19898 0
M  V30 1492 O 131.073 -0.575325 -1.73194 0
M  V30 1493 C 131.124 -3.61495 -0.018364 0
M  V30 1494 O 130.845 -4.19942 1.24822 0
M  V30 1495 C 132.346 -4.39947 -0.544237 0
M  V30 1496 H 129.566 -0.667096 0.0722739 0
M  V30 1497 H 132.11 -1.8623 0.84491 0
M  V30 1498 H 130.265 -3.81135 -0.693865 0
M  V30 1499 H 130.679 -5.13204 1.0827 0
M  V30 1500 H 132.153 -5.48838 -0.589953 0
M  V30 1501 H 132.63 -4.10255 -1.56805 0
M  V30 1502 H 133.236 -4.25188 0.0974703 0
M  V30 1503 N 131.551 -0.354651 -1.53558 0
M  V30 1504 C 132.481 0.489091 -2.2832 0
M  V30 1505 C 133.462 1.09324 -1.30316 0
M  V30 1506 O 134.647 1.11255 -1.59173 0
M  V30 1507 C 131.777 1.63456 -3.0643 0
M  V30 1508 C 130.731 1.1582 -4.12031 0
M  V30 1509 C 130.057 2.39305 -4.7816 0
M  V30 1510 C 131.357 0.250731 -5.21698 0
M  V30 1511 H 133.051 -0.134614 -2.99097 0
M  V30 1512 H 130.597 -0.0661826 -1.43848 0
M  V30 1513 H 132.55 2.23136 -3.57475 0
M  V30 1514 H 131.274 2.28533 -2.33325 0
M  V30 1515 H 129.933 0.584146 -3.61916 0
M  V30 1516 H 129.581 3.02814 -4.01637 0
M  V30 1517 H 129.281 2.08109 -5.49513 0
M  V30 1518 H 130.805 2.99691 -5.31994 0
M  V30 1519 H 132.219 0.754695 -5.68311 0
M  V30 1520 H 130.616 0.0301468 -6.00092 0
M  V30 1521 H 131.686 -0.710125 -4.79672 0
M  V30 1522 N 133.029 1.57378 -0.0835403 0
M  V30 1523 C 133.959 2.1641 0.87686 0
M  V30 1524 C 134.94 1.09429 1.30228 0
M  V30 1525 O 136.125 1.37516 1.37124 0
M  V30 1526 C 133.255 2.73517 2.14022 0
M  V30 1527 C 132.209 3.85769 1.85381 0
M  V30 1528 C 131.535 4.29529 3.18448 0
M  V30 1529 C 132.835 5.09486 1.14984 0
M  V30 1530 H 134.529 2.96914 0.385059 0
M  V30 1531 H 132.075 1.42823 0.18377 0
M  V30 1532 H 134.028 3.13463 2.81636 0
M  V30 1533 H 132.752 1.90252 2.65465 0
M  V30 1534 H 131.411 3.46345 1.20169 0
M  V30 1535 H 131.059 3.43169 3.67755 0
M  V30 1536 H 130.759 5.05204 3.00071 0
M  V30 1537 H 132.283 4.72099 3.8724 0
M  V30 1538 H 133.697 5.46674 1.72687 0
M  V30 1539 H 132.094 5.90515 1.06826 0
M  V30 1540 H 133.164 4.84724 0.130749 0
M  V30 1541 N 134.507 -0.190092 1.56449 0
M  V30 1542 C 135.737 -0.92443 1.84764 0
M  V30 1543 C 136.145 -1.77146 0.664529 0
M  V30 1544 O 135.488 -1.79812 -0.375957 0
M  V30 1545 C 135.55 -1.86651 3.07248 0
M  V30 1546 C 135.214 -1.20094 4.40938 0
M  V30 1547 C 136.211 -0.575445 5.16706 0
M  V30 1548 C 133.896 -1.2033 4.87674 0
M  V30 1549 C 135.89 0.0388111 6.37388 0
M  V30 1550 C 133.577 -0.585214 6.08291 0
M  V30 1551 C 134.575 0.0347578 6.82991 0
M  V30 1552 O 134.263 0.643147 8.01323 0
M  V30 1553 H 133.995 -0.274974 0.617548 0
M  V30 1554 H 136.549 -0.200788 2.04416 0
M  V30 1555 H 134.779 -2.62998 2.83494 0
M  V30 1556 H 136.468 -2.46907 3.22167 0
M  V30 1557 H 137.234 -0.565728 4.81689 0
M  V30 1558 H 133.113 -1.67526 4.29484 0
M  V30 1559 H 136.657 0.523329 6.95634 0
M  V30 1560 H 132.554 -0.592451 6.42775 0
M  V30 1561 H 133.322 0.540545 8.16713 0
M  V30 1562 N 135.985 -1.50799 -0.457987 0
M  V30 1563 C 137.401 -1.38515 -0.792819 0
M  V30 1564 C 137.601 -0.451409 -1.96379 0
M  V30 1565 O 136.657 0.10112 -2.52297 0
M  V30 1566 C 137.97 -2.80149 -1.09258 0
M  V30 1567 C 139.518 -2.89156 -1.19825 0
M  V30 1568 C 139.993 -4.31651 -1.53106 0
M  V30 1569 N 141.484 -4.34662 -1.60072 0
M  V30 1570 C 142.219 -5.41928 -1.87354 0
M  V30 1571 N 141.715 -6.59384 -2.12568 0
M  V30 1572 N 143.508 -5.29385 -1.88965 0
M  V30 1573 H 135.659 -2.10073 0.313511 0
M  V30 1574 H 137.922 -0.944803 0.0777862 0
M  V30 1575 H 137.628 -3.50374 -0.305084 0
M  V30 1576 H 137.502 -3.18204 -2.02549 0
M  V30 1577 H 139.889 -2.19141 -1.97639 0
M  V30 1578 H 139.97 -2.54626 -0.244821 0
M  V30 1579 H 139.614 -5.02208 -0.758266 0
M  V30 1580 H 139.544 -4.63678 -2.49621 0
M  V30 1581 H 142.035 -3.49973 -1.42573 0
M  V30 1582 H 142.348 -7.36934 -2.32696 0
M  V30 1583 H 140.693 -6.62535 -2.09933 0
M  V30 1584 H 143.884 -4.36616 -1.68772 0
M  V30 1585 H 144.057 -6.13066 -2.09891 0
M  V30 1586 N 137.463 0.71206 -1.40597 0
M  V30 1587 C 138.711 1.46907 -1.38791 0
M  V30 1588 C 139.032 1.94998 0.00780391 0
M  V30 1589 O 138.302 1.70587 0.963174 0
M  V30 1590 H 136.882 0.545043 -0.51082 0
M  V30 1591 H 139.544 0.843882 -1.75683 0
M  V30 1592 H 138.64 2.34021 -2.06496 0
M  V30 1593 N 138.941 1.26152 0.944643 0
M  V30 1594 C 140.188 1.11492 1.69044 0
M  V30 1595 C 140.516 -0.342366 1.91463 0
M  V30 1596 O 139.771 -1.26812 1.49054 0
M  V30 1597 C 140.07 1.82541 3.07268 0
M  V30 1598 C 139.736 3.32445 3.04616 0
M  V30 1599 C 138.398 3.73337 3.036 0
M  V30 1600 C 140.75 4.28171 2.97185 0
M  V30 1601 C 138.078 5.08348 2.92915 0
M  V30 1602 C 140.43 5.63218 2.88041 0
M  V30 1603 C 139.094 6.03426 2.85366 0
M  V30 1604 H 138.364 0.407977 0.618576 0
M  V30 1605 H 141.011 1.56551 1.10291 0
M  V30 1606 H 139.316 1.29941 3.69625 0
M  V30 1607 H 141.013 1.68642 3.63815 0
M  V30 1608 H 137.603 2.99915 3.06185 0
M  V30 1609 H 141.787 3.97563 2.97081 0
M  V30 1610 H 137.043 5.38667 2.89219 0
M  V30 1611 H 141.217 6.37078 2.81254 0
M  V30 1612 H 138.844 7.07999 2.76842 0
M  V30 1613 N 140.419 -1.14872 1.07899 0
M  V30 1614 C 141.369 -2.17809 0.674027 0
M  V30 1615 C 142.353 -1.58008 -0.303699 0
M  V30 1616 O 143.545 -1.76616 -0.11654 0
M  V30 1617 C 140.674 -3.43208 0.0793318 0
M  V30 1618 C 139.76 -4.10051 1.08253 0
M  V30 1619 N 140.151 -4.52296 2.2641 0
M  V30 1620 C 138.449 -4.36469 0.917124 0
M  V30 1621 C 139.15 -5.04199 2.901 0
M  V30 1622 N 138.126 -4.98088 2.17736 0
M  V30 1623 H 141.928 -2.48207 1.57386 0
M  V30 1624 H 139.442 -1.315 0.952976 0
M  V30 1625 H 141.439 -4.16272 -0.228719 0
M  V30 1626 H 140.099 -3.14291 -0.815551 0
M  V30 1627 H 141.11 -4.45504 2.64096 0
M  V30 1628 H 137.787 -4.17432 0.0756078 0
M  V30 1629 H 139.177 -5.46802 3.90458 0
M  V30 1630 N 141.898 -0.863906 -1.31812 0
M  V30 1631 C 142.828 -0.330843 -2.31144 0
M  V30 1632 C 143.809 0.575005 -1.60087 0
M  V30 1633 O 144.994 0.493304 -1.8783 0
M  V30 1634 C 142.124 0.47374 -3.44054 0
M  V30 1635 C 141.078 -0.338481 -4.26659 0
M  V30 1636 C 140.404 0.591412 -5.31419 0
M  V30 1637 C 141.704 -1.56926 -4.98168 0
M  V30 1638 H 143.398 -1.16086 -2.75979 0
M  V30 1639 H 140.944 -0.559657 -1.32679 0
M  V30 1640 H 142.897 0.857143 -4.12591 0
M  V30 1641 H 141.621 1.33721 -2.9797 0
M  V30 1642 H 140.28 -0.703754 -3.59782 0
M  V30 1643 H 139.928 1.45199 -4.81587 0
M  V30 1644 H 139.628 0.0519022 -5.87577 0
M  V30 1645 H 141.152 0.97179 -6.02817 0
M  V30 1646 H 142.566 -1.25764 -5.59336 0
M  V30 1647 H 140.963 -2.04739 -5.64094 0
M  V30 1648 H 142.033 -2.32544 -4.25501 0
M  V30 1649 N 143.376 1.44774 -0.622745 0
M  V30 1650 C 144.324 2.32387 0.0994683 0
M  V30 1651 C 145.318 1.46859 0.844326 0
M  V30 1652 O 146.524 1.63254 0.758174 0
M  V30 1653 H 142.899 0.750273 0.0509291 0
M  V30 1654 H 144.87 2.91062 -0.65767 0
M  V30 1655 C 143.619 3.30723 1.07319 0
M  V30 1656 H 142.942 3.96541 0.509462 0
M  V30 1657 H 144.382 3.94725 1.54817 0
M  V30 1658 C 142.841 2.59021 2.15429 0
M  V30 1659 O 143.371 2.38286 3.23393 0
M  V30 1660 N 141.577 2.189 1.91131 0
M  V30 1661 H 141.124 2.35964 1.03337 0
M  V30 1662 H 141.082 1.71251 2.63668 0
M  V30 1663 N 144.854 0.36279 1.53368 0
M  V30 1664 C 146.1 -0.228113 2.01513 0
M  V30 1665 C 146.433 -1.48648 1.2497 0
M  V30 1666 O 145.708 -1.91459 0.342616 0
M  V30 1667 C 145.991 -0.522884 3.56284 0
M  V30 1668 C 145.844 0.74892 4.43521 0
M  V30 1669 C 147.163 -1.32461 4.19693 0
M  V30 1670 H 144.282 -0.0814343 0.732487 0
M  V30 1671 H 146.924 0.48713 1.83649 0
M  V30 1672 H 145.074 -1.1322 3.71636 0
M  V30 1673 H 146.746 1.38648 4.39971 0
M  V30 1674 H 144.989 1.36986 4.11603 0
M  V30 1675 H 145.66 0.497667 5.49752 0
M  V30 1676 H 148.136 -0.809203 4.08156 0
M  V30 1677 H 147.012 -1.49961 5.28018 0
M  V30 1678 H 147.273 -2.33232 3.75573 0
M  V30 1679 N 146.332 -1.57332 0.0918853 0
M  V30 1680 C 147.562 -1.98286 -0.580205 0
M  V30 1681 C 147.97 -0.969713 -1.6246 0
M  V30 1682 O 147.313 0.0493501 -1.83634 0
M  V30 1683 C 147.375 -3.35603 -1.28882 0
M  V30 1684 C 147.039 -4.55285 -0.395559 0
M  V30 1685 C 148.036 -5.18687 0.355002 0
M  V30 1686 C 145.721 -5.01314 -0.314556 0
M  V30 1687 C 147.715 -6.26484 1.17458 0
M  V30 1688 C 145.402 -6.08979 0.508677 0
M  V30 1689 C 146.4 -6.71429 1.2519 0
M  V30 1690 O 146.088 -7.77018 2.06151 0
M  V30 1691 H 145.82 -0.656678 -0.160466 0
M  V30 1692 H 148.374 -2.04721 0.16688 0
M  V30 1693 H 146.604 -3.25842 -2.08241 0
M  V30 1694 H 148.293 -3.61026 -1.85512 0
M  V30 1695 H 149.059 -4.84058 0.302134 0
M  V30 1696 H 144.938 -4.5247 -0.882697 0
M  V30 1697 H 148.482 -6.75159 1.75518 0
M  V30 1698 H 144.379 -6.4304 0.563037 0
M  V30 1699 H 145.147 -7.93991 1.98799 0
M  V30 1700 N 147.81 0.181792 -1.56548 0
M  V30 1701 C 149.057 0.900097 -1.81396 0
M  V30 1702 C 149.385 1.82695 -0.667281 0
M  V30 1703 O 148.64 1.92614 0.346146 0
M  V30 1704 C 148.939 1.73728 -3.12335 0
M  V30 1705 C 148.605 0.960255 -4.40556 0
M  V30 1706 C 147.267 0.745766 -4.75386 0
M  V30 1707 C 149.619 0.414477 -5.19549 0
M  V30 1708 C 146.947 -0.0257694 -5.86694 0
M  V30 1709 C 149.299 -0.343916 -6.31664 0
M  V30 1710 C 147.963 -0.569301 -6.65068 0
M  V30 1711 H 147.233 0.329369 -0.663775 0
M  V30 1712 H 149.88 0.165647 -1.90782 0
M  V30 1713 H 148.185 2.54081 -2.98245 0
M  V30 1714 H 149.882 2.29591 -3.28769 0
M  V30 1715 H 146.472 1.13746 -4.13231 0
M  V30 1716 H 150.656 0.567554 -4.93044 0
M  V30 1717 H 145.912 -0.210233 -6.11038 0
M  V30 1718 H 150.086 -0.774133 -6.92084 0
M  V30 1719 H 147.713 -1.16903 -7.51158 0
M  V30 1720 N 149.288 1.51039 0.449983 0
M  V30 1721 C 150.238 1.67824 1.54335 0
M  V30 1722 C 151.222 0.5324 1.51836 0
M  V30 1723 O 152.414 0.787762 1.58503 0
M  V30 1724 C 149.543 1.7951 2.92628 0
M  V30 1725 C 148.629 2.99838 2.9993 0
M  V30 1726 N 149.02 4.23207 2.77001 0
M  V30 1727 C 147.318 2.98832 3.31082 0
M  V30 1728 C 148.019 5.04361 2.89818 0
M  V30 1729 N 146.995 4.38746 3.2094 0
M  V30 1730 H 150.797 2.60884 1.35339 0
M  V30 1731 H 148.311 1.48513 0.657085 0
M  V30 1732 H 150.308 1.89642 3.7127 0
M  V30 1733 H 148.968 0.876227 3.12654 0
M  V30 1734 H 149.979 4.5236 2.52172 0
M  V30 1735 H 146.656 2.16527 3.56963 0
M  V30 1736 H 148.046 6.12528 2.76151 0
M  V30 1737 N 150.766 -0.704594 1.40972 0
M  V30 1738 C 151.713 -1.81862 1.42109 0
M  V30 1739 C 152.683 -1.63781 0.276593 0
M  V30 1740 O 153.868 -1.84759 0.4763 0
M  V30 1741 C 151.008 -3.19669 1.30022 0
M  V30 1742 C 150.121 -3.49246 2.54267 0
M  V30 1743 C 149.256 -4.76618 2.3454 0
M  V30 1744 C 148.295 -4.99133 3.54306 0
M  V30 1745 N 147.432 -6.17726 3.33706 0
M  V30 1746 H 152.272 -1.80226 2.37324 0
M  V30 1747 H 149.809 -0.880238 1.17857 0
M  V30 1748 H 151.767 -3.99263 1.21018 0
M  V30 1749 H 150.397 -3.20506 0.384192 0
M  V30 1750 H 149.449 -2.64125 2.73756 0
M  V30 1751 H 150.761 -3.61788 3.43381 0
M  V30 1752 H 149.915 -5.64249 2.22952 0
M  V30 1753 H 148.654 -4.66305 1.42867 0
M  V30 1754 H 147.659 -4.09953 3.66359 0
M  V30 1755 H 148.884 -5.11311 4.4692 0
M  V30 1756 H 146.83 -6.08642 2.44725 0
M  V30 1757 H 146.747 -6.30995 4.16391 0
M  V30 1758 H 148.015 -7.08115 3.25873 0
M  V30 1759 N 152.244 -1.26651 -0.937939 0
M  V30 1760 C 153.192 -1.08308 -2.05845 0
M  V30 1761 C 154.186 -0.0090757 -1.69398 0
M  V30 1762 O 155.392 -0.166007 -1.79233 0
M  V30 1763 H 151.767 -0.333416 -0.674046 0
M  V30 1764 H 153.738 -2.03261 -2.18467 0
M  V30 1765 C 152.487 -0.736229 -3.39816 0
M  V30 1766 H 151.81 -1.55453 -3.6834 0
M  V30 1767 H 153.25 -0.64769 -4.19024 0
M  V30 1768 C 151.709 0.558824 -3.32233 0
M  V30 1769 O 152.239 1.59621 -3.68624 0
M  V30 1770 N 150.445 0.550657 -2.85335 0
M  V30 1771 H 149.992 -0.293943 -2.55917 0
M  V30 1772 H 149.95 1.41726 -2.80644 0
M  V30 1773 N 153.722 1.14298 -1.08507 0
M  V30 1774 C 154.968 1.85633 -0.816581 0
M  V30 1775 C 155.301 1.82784 0.656021 0
M  V30 1776 O 154.576 1.25926 1.48233 0
M  V30 1777 C 154.859 3.34223 -1.34041 0
M  V30 1778 C 154.712 3.45639 -2.87843 0
M  V30 1779 C 156.031 4.29356 -0.9665 0
M  V30 1780 H 153.15 0.67402 -0.298104 0
M  V30 1781 H 155.792 1.34214 -1.34487 0
M  V30 1782 H 153.942 3.78144 -0.89104 0
M  V30 1783 H 155.614 3.10498 -3.41158 0
M  V30 1784 H 153.857 2.86817 -3.25451 0
M  V30 1785 H 154.528 4.50089 -3.19569 0
M  V30 1786 H 157.004 3.93457 -1.35391 0
M  V30 1787 H 155.88 5.3178 -1.3602 0
M  V30 1788 H 156.141 4.41919 0.126362 0
M  V30 1789 N 155.201 0.870884 1.31352 0
M  V30 1790 C 156.164 0.332243 2.26779 0
M  V30 1791 C 157.164 -0.517302 1.52252 0
M  V30 1792 O 158.354 -0.326477 1.71113 0
M  V30 1793 C 155.486 -0.528066 3.36785 0
M  V30 1794 H 156.679 1.17469 2.75937 0
M  V30 1795 H 154.232 0.64655 1.423 0
M  V30 1796 H 154.967 -1.39167 2.92922 0
M  V30 1797 H 154.752 0.0802582 3.92018 0
M  V30 1798 H 156.242 -0.897179 4.07849 0
M  V30 1799 N 156.679 -1.44442 0.630414 0
M  V30 1800 C 157.612 -2.27862 -0.124247 0
M  V30 1801 C 158.59 -1.38495 -0.851931 0
M  V30 1802 O 159.774 -1.67935 -0.856166 0
M  V30 1803 C 156.901 -3.17407 -1.18197 0
M  V30 1804 C 155.947 -4.22875 -0.554892 0
M  V30 1805 S 156.78 -5.31485 0.654489 0
M  V30 1806 C 157.936 -6.246 -0.40326 0
M  V30 1807 H 158.169 -2.91519 0.583435 0
M  V30 1808 H 155.702 -1.48618 0.418565 0
M  V30 1809 H 157.66 -3.69549 -1.78728 0
M  V30 1810 H 156.321 -2.52971 -1.86184 0
M  V30 1811 H 155.514 -4.85542 -1.35148 0
M  V30 1812 H 155.116 -3.73992 -0.0242105 0
M  V30 1813 H 157.408 -6.65375 -1.27602 0
M  V30 1814 H 158.351 -7.07851 0.187813 0
M  V30 1815 H 158.759 -5.59775 -0.728837 0
M  V30 1816 N 158.157 -0.370918 -1.53173 0
M  V30 1817 C 159.387 0.217389 -2.05453 0
M  V30 1818 C 159.795 1.42568 -1.24382 0
M  V30 1819 O 159.138 1.81571 -0.278839 0
M  V30 1820 C 159.2 0.669827 -3.53205 0
M  V30 1821 C 158.864 -0.4225 -4.55043 0
M  V30 1822 C 159.861 -1.27407 -5.04047 0
M  V30 1823 C 157.546 -0.58427 -4.9889 0
M  V30 1824 C 159.54 -2.27271 -5.95505 0
M  V30 1825 C 157.227 -1.58627 -5.90153 0
M  V30 1826 C 158.225 -2.42892 -6.38351 0
M  V30 1827 O 157.913 -3.41382 -7.27814 0
M  V30 1828 H 157.645 0.0408171 -0.674767 0
M  V30 1829 H 160.199 -0.5292 -1.98466 0
M  V30 1830 H 158.429 1.4681 -3.57748 0
M  V30 1831 H 160.118 1.18173 -3.88317 0
M  V30 1832 H 160.884 -1.16031 -4.70916 0
M  V30 1833 H 156.763 0.061851 -4.60959 0
M  V30 1834 H 160.307 -2.93079 -6.33049 0
M  V30 1835 H 156.204 -1.70048 -6.22699 0
M  V30 1836 H 156.972 -3.37173 -7.45826 0
M  V30 1837 N 159.635 1.57281 -0.100228 0
M  V30 1838 C 160.545 2.17833 0.870965 0
M  V30 1839 C 161.561 1.14921 1.30649 0
M  V30 1840 O 162.737 1.47313 1.37335 0
M  V30 1841 C 159.802 2.75085 2.1102 0
M  V30 1842 C 158.863 3.9297 1.72838 0
M  V30 1843 C 158.096 4.47482 2.90854 0
M  V30 1844 O 158.319 4.00922 4.05731 0
M  V30 1845 O 157.253 5.38433 2.69023 0
M  V30 1846 H 161.079 3.0124 0.38575 0
M  V30 1847 H 158.664 1.48881 0.124397 0
M  V30 1848 H 160.546 3.11656 2.83634 0
M  V30 1849 H 159.221 1.94721 2.58584 0
M  V30 1850 H 158.128 3.61201 0.973883 0
M  V30 1851 H 159.461 4.74713 1.30033 0
M  V30 1852 N 161.113 -0.173488 1.56642 0
M  V30 1853 C 162.338 -0.910149 1.86363 0
M  V30 1854 C 162.763 -1.75132 0.686318 0
M  V30 1855 O 162.121 -1.77595 -0.364643 0
M  V30 1856 C 162.169 -1.76447 3.14482 0
M  V30 1857 O 161.273 -2.86584 2.96553 0
M  V30 1858 H 160.614 -0.255086 0.613047 0
M  V30 1859 H 163.144 -0.172283 2.03873 0
M  V30 1860 H 163.154 -2.16483 3.45831 0
M  V30 1861 H 161.829 -1.14658 3.99783 0
M  V30 1862 H 160.406 -2.50146 2.76553 0
M  V30 1863 N 162.591 -1.51276 -0.441967 0
M  V30 1864 C 163.838 -1.63715 -1.19179 0
M  V30 1865 C 164.166 -0.351175 -1.91303 0
M  V30 1866 O 163.421 0.664524 -1.84072 0
M  V30 1867 C 163.72 -2.78746 -2.23686 0
M  V30 1868 C 163.386 -4.18189 -1.68607 0
M  V30 1869 C 162.048 -4.56125 -1.53308 0
M  V30 1870 C 164.4 -5.05222 -1.28062 0
M  V30 1871 C 161.728 -5.78804 -0.959317 0
M  V30 1872 C 164.08 -6.28476 -0.721162 0
M  V30 1873 C 162.744 -6.65188 -0.55504 0
M  V30 1874 H 162.014 -0.599076 -0.436106 0
M  V30 1875 H 164.661 -1.85296 -0.48351 0
M  V30 1876 H 162.966 -2.51369 -3.00535 0
M  V30 1877 H 164.663 -2.8557 -2.81515 0
M  V30 1878 H 161.253 -3.88277 -1.8149 0
M  V30 1879 H 165.437 -4.76524 -1.38704 0
M  V30 1880 H 160.693 -6.05899 -0.81833 0
M  V30 1881 H 164.867 -6.95259 -0.398458 0
M  V30 1882 H 162.494 -7.60123 -0.108311 0
M  V30 1883 N 164.069 0.697108 -1.41344 0
M  V30 1884 C 165.294 1.49096 -1.44171 0
M  V30 1885 C 165.719 1.88038 -0.0481568 0
M  V30 1886 O 165.077 1.54525 0.948243 0
M  V30 1887 C 165.125 2.73088 -2.3549 0
M  V30 1888 O 164.229 3.70514 -1.81088 0
M  V30 1889 H 163.57 0.448801 -0.489361 0
M  V30 1890 H 166.1 0.856992 -1.85787 0
M  V30 1891 H 166.11 3.21413 -2.51312 0
M  V30 1892 H 164.785 2.44081 -3.36745 0
M  V30 1893 H 163.362 3.29441 -1.74708 0
M  V30 1894 N 165.547 1.27147 0.931209 0
M  V30 1895 C 166.963 1.04475 1.20653 0
M  V30 1896 C 167.163 -0.223885 2.00252 0
M  V30 1897 O 166.219 -0.930332 2.34736 0
M  V30 1898 C 167.532 2.28209 1.95809 0
M  V30 1899 C 169.08 2.33211 2.08762 0
M  V30 1900 C 169.555 3.56665 2.87323 0
M  V30 1901 N 171.046 3.57201 2.94892 0
M  V30 1902 C 171.781 4.49395 3.56134 0
M  V30 1903 N 171.277 5.51889 4.18796 0
M  V30 1904 N 173.07 4.37026 3.53504 0
M  V30 1905 H 165.221 2.08612 0.399333 0
M  V30 1906 H 167.484 0.917312 0.239253 0
M  V30 1907 H 167.19 3.20538 1.44736 0
M  V30 1908 H 167.064 2.33247 2.96438 0
M  V30 1909 H 169.451 1.41391 2.59023 0
M  V30 1910 H 169.532 2.32178 1.07364 0
M  V30 1911 H 169.176 4.4882 2.37746 0
M  V30 1912 H 169.106 3.54948 3.88998 0
M  V30 1913 H 171.597 2.83074 2.50354 0
M  V30 1914 H 171.91 6.18409 4.63454 0
M  V30 1915 H 170.255 5.55735 4.17353 0
M  V30 1916 H 173.446 3.56166 3.03749 0
M  V30 1917 H 173.619 5.09067 4.00942 0
M  V30 1918 N 167.025 -1.13721 1.09112 0
M  V30 1919 C 168.253 -1.88773 0.846899 0
M  V30 1920 C 168.668 -1.7896 -0.601572 0
M  V30 1921 O 168.025 -1.15394 -1.41388 0
M  V30 1922 C 168.076 -3.3849 1.26913 0
M  V30 1923 O 167.797 -3.48043 2.66079 0
M  V30 1924 C 169.298 -4.30518 1.05682 0
M  V30 1925 H 166.518 -0.59772 0.304914 0
M  V30 1926 H 169.062 -1.43977 1.45227 0
M  V30 1927 H 167.217 -3.80881 0.707723 0
M  V30 1928 H 167.631 -4.4109 2.83795 0
M  V30 1929 H 169.105 -5.3391 1.40156 0
M  V30 1930 H 169.582 -4.392 -0.00563416 0
M  V30 1931 H 170.188 -3.93893 1.60402 0
M  V30 1932 N 168.503 -0.877838 -1.30888 0
M  V30 1933 C 169.451 -0.328662 -2.30266 0
M  V30 1934 C 170.445 0.560496 -1.59859 0
M  V30 1935 O 171.651 0.445722 -1.74394 0
M  V30 1936 H 168.026 -0.0876142 -0.746879 0
M  V30 1937 H 169.997 -1.18061 -2.74051 0
M  V30 1938 C 168.746 0.448071 -3.44801 0
M  V30 1939 H 168.069 -0.226859 -3.99156 0
M  V30 1940 H 169.509 0.797541 -4.16432 0
M  V30 1941 C 167.968 1.64239 -2.94155 0
M  V30 1942 O 168.498 2.74175 -2.93583 0
M  V30 1943 N 166.704 1.47716 -2.50256 0
M  V30 1944 H 166.251 0.582821 -2.5092 0
M  V30 1945 H 166.209 2.27765 -2.16727 0
M  V30 1946 N 169.982 1.44106 -0.638065 0
M  V30 1947 C 171.229 2.01978 -0.14533 0
M  V30 1948 C 171.557 1.50234 1.23532 0
M  V30 1949 O 170.812 0.679548 1.83523 0
M  V30 1950 C 171.111 3.5729 -0.0887327 0
M  V30 1951 C 170.777 4.28317 -1.40909 0
M  V30 1952 C 169.439 4.47437 -1.77069 0
M  V30 1953 C 171.791 4.6867 -2.28031 0
M  V30 1954 C 169.119 5.04171 -3.00047 0
M  V30 1955 C 171.471 5.26766 -3.50286 0
M  V30 1956 C 170.135 5.44104 -3.86661 0
M  V30 1957 H 169.405 0.739089 -0.0531801 0
M  V30 1958 H 172.052 1.72781 -0.825761 0
M  V30 1959 H 170.357 3.8594 0.675095 0
M  V30 1960 H 172.054 3.99807 0.309145 0
M  V30 1961 H 168.644 4.1377 -1.1177 0
M  V30 1962 H 172.828 4.53604 -2.01388 0
M  V30 1963 H 168.084 5.15782 -3.28298 0
M  V30 1964 H 172.258 5.56983 -4.18023 0
M  V30 1965 H 169.885 5.87832 -4.82034 0
M  V30 1966 N 171.46 0.379036 1.52974 0
M  V30 1967 C 172.707 -0.206421 2.01445 0
M  V30 1968 C 173.035 -1.47668 1.26587 0
M  V30 1969 O 172.29 -1.92514 0.351675 0
M  V30 1970 C 172.589 -0.53096 3.53434 0
M  V30 1971 C 172.255 0.646546 4.46241 0
M  V30 1972 C 170.917 0.969604 4.7133 0
M  V30 1973 C 173.269 1.43479 5.01062 0
M  V30 1974 C 170.597 2.08263 5.48492 0
M  V30 1975 C 172.949 2.53834 5.7944 0
M  V30 1976 C 171.613 2.86659 6.02812 0
M  V30 1977 H 170.883 -0.0755349 0.73714 0
M  V30 1978 H 173.53 0.514271 1.84465 0
M  V30 1979 H 171.835 -1.33285 3.68432 0
M  V30 1980 H 173.532 -0.996417 3.88423 0
M  V30 1981 H 170.122 0.384734 4.2687 0
M  V30 1982 H 174.306 1.19844 4.81613 0
M  V30 1983 H 169.562 2.34078 5.64816 0
M  V30 1984 H 173.736 3.15319 6.20924 0
M  V30 1985 H 171.363 3.73026 6.62387 0
M  V30 1986 N 172.938 -1.57226 0.108567 0
M  V30 1987 C 174.185 -1.94833 -0.551943 0
M  V30 1988 C 174.513 -0.991204 -1.67348 0
M  V30 1989 O 173.768 -0.0131878 -1.95696 0
M  V30 1990 C 174.067 -3.38911 -1.13463 0
M  V30 1991 C 173.733 -4.50696 -0.135509 0
M  V30 1992 C 172.395 -4.80998 0.139252 0
M  V30 1993 C 174.747 -5.18333 0.545957 0
M  V30 1994 C 172.075 -5.76259 1.10194 0
M  V30 1995 C 174.427 -6.14627 1.49721 0
M  V30 1996 C 173.091 -6.43327 1.78006 0
M  V30 1997 H 172.361 -0.712944 -0.20197 0
M  V30 1998 H 175.008 -1.90582 0.18726 0
M  V30 1999 H 173.313 -3.39805 -1.95037 0
M  V30 2000 H 175.01 -3.65317 -1.65362 0
M  V30 2001 H 171.6 -4.27087 -0.359846 0
M  V30 2002 H 175.784 -4.95087 0.346842 0
M  V30 2003 H 171.04 -5.96804 1.32795 0
M  V30 2004 H 175.214 -6.66126 2.03099 0
M  V30 2005 H 172.841 -7.1695 2.52759 0
M  V30 2006 N 174.416 0.165178 -1.56732 0
M  V30 2007 C 175.646 0.894919 -1.86212 0
M  V30 2008 C 176.054 1.76066 -0.692627 0
M  V30 2009 O 175.397 1.80387 0.347303 0
M  V30 2010 C 175.459 1.8174 -3.10179 0
M  V30 2011 C 175.123 1.13064 -4.42793 0
M  V30 2012 C 176.12 0.493169 -5.17556 0
M  V30 2013 C 173.805 1.12556 -4.89527 0
M  V30 2014 C 175.799 -0.140209 -6.37246 0
M  V30 2015 C 173.486 0.488366 -6.09145 0
M  V30 2016 C 174.484 -0.143411 -6.82849 0
M  V30 2017 O 174.172 -0.77055 -8.00199 0
M  V30 2018 H 173.904 0.265114 -0.621844 0
M  V30 2019 H 176.458 0.168242 -2.0471 0
M  V30 2020 H 174.688 2.58455 -2.87642 0
M  V30 2021 H 176.377 2.4175 -3.26055 0
M  V30 2022 H 177.143 0.489023 -4.82528 0
M  V30 2023 H 173.022 1.60672 -4.32094 0
M  V30 2024 H 176.566 -0.633932 -6.94714 0
M  V30 2025 H 172.463 0.490116 -6.43637 0
M  V30 2026 H 173.231 -0.670408 -8.1575 0
M  V30 2027 N 175.894 1.51508 0.433938 0
M  V30 2028 C 176.824 1.76016 1.53429 0
M  V30 2029 C 177.805 0.610112 1.58782 0
M  V30 2030 O 178.99 0.853177 1.74455 0
M  V30 2031 C 176.12 1.88831 2.9148 0
M  V30 2032 C 175.074 3.04288 3.00987 0
M  V30 2033 C 174.4 3.0229 4.4105 0
M  V30 2034 C 175.7 4.44193 2.74754 0
M  V30 2035 H 177.394 2.68152 1.33171 0
M  V30 2036 H 174.94 1.29035 0.639214 0
M  V30 2037 H 176.893 2.04559 3.6842 0
M  V30 2038 H 175.617 0.933455 3.12976 0
M  V30 2039 H 174.276 2.8827 2.26486 0
M  V30 2040 H 173.924 2.04576 4.59519 0
M  V30 2041 H 173.624 3.79822 4.4834 0
M  V30 2042 H 175.148 3.20116 5.1996 0
M  V30 2043 H 176.562 4.60544 3.41426 0
M  V30 2044 H 174.959 5.23457 2.9345 0
M  V30 2045 H 176.029 4.53996 1.70339 0
M  V30 2046 N 177.372 -0.689602 1.41712 0
M  V30 2047 C 178.6 -1.47827 1.44758 0
M  V30 2048 C 179.015 -1.88721 0.0545703 0
M  V30 2049 O 178.372 -1.57176 -0.927463 0
M  V30 2050 C 178.423 -2.73698 2.3616 0
M  V30 2051 O 178.144 -2.34524 3.7004 0
M  V30 2052 C 179.645 -3.67389 2.48072 0
M  V30 2053 H 176.865 -0.455357 0.49284 0
M  V30 2054 H 179.409 -0.848574 1.86063 0
M  V30 2055 H 177.564 -3.32891 1.98148 0
M  V30 2056 H 177.978 -3.15701 4.18847 0
M  V30 2057 H 179.452 -4.52475 3.16181 0
M  V30 2058 H 179.929 -4.12284 1.51388 0
M  V30 2059 H 180.535 -3.14097 2.86746 0
M  V30 2060 N 178.85 -1.27639 -0.924453 0
M  V30 2061 C 180.099 -1.13549 -1.66702 0
M  V30 2062 C 180.412 0.317487 -1.93006 0
M  V30 2063 O 181.618 0.579333 -2.65247 0
M  V30 2064 C 180.074 -1.98426 -3.00259 0
M  V30 2065 C 179.682 -3.484 -2.81641 0
M  V30 2066 C 181.426 -1.92993 -3.78092 0
M  V30 2067 C 179.333 -4.25464 -4.10773 0
M  V30 2068 H 178.263 -0.421351 -0.625283 0
M  V30 2069 H 180.914 -1.52085 -1.02676 0
M  V30 2070 H 179.296 -1.52736 -3.6536 0
M  V30 2071 H 180.47 -4.01973 -2.25287 0
M  V30 2072 H 178.785 -3.55245 -2.17232 0
M  V30 2073 H 181.382 -2.47844 -4.7379 0
M  V30 2074 H 181.725 -0.904281 -4.0636 0
M  V30 2075 H 182.258 -2.36595 -3.19793 0
M  V30 2076 H 178.997 -5.28566 -3.87683 0
M  V30 2077 H 178.517 -3.76667 -4.66779 0
M  V30 2078 H 180.196 -4.34812 -4.79111 0
M  V30 2079 N 180.328 1.1314 -1.09713 0
M  V30 2080 C 181.258 2.20748 -0.761102 0
M  V30 2081 C 182.239 1.68061 0.262566 0
M  V30 2082 O 183.424 1.93765 0.129977 0
M  V30 2083 C 180.554 3.46812 -0.184054 0
M  V30 2084 C 179.508 4.12606 -1.13757 0
M  V30 2085 C 178.834 5.33031 -0.422083 0
M  V30 2086 C 180.134 4.59603 -2.48118 0
M  V30 2087 H 181.828 2.49113 -1.66082 0
M  V30 2088 H 179.374 1.19734 -0.799987 0
M  V30 2089 H 181.327 4.21353 0.0631215 0
M  V30 2090 H 180.051 3.17851 0.750868 0
M  V30 2091 H 178.71 3.40036 -1.37007 0
M  V30 2092 H 178.358 5.00335 0.517072 0
M  V30 2093 H 178.058 5.77999 -1.05788 0
M  V30 2094 H 179.582 6.10325 -0.183277 0
M  V30 2095 H 180.996 5.25552 -2.29059 0
M  V30 2096 H 179.393 5.15321 -3.07514 0
M  V30 2097 H 180.463 3.73971 -3.08665 0
M  V30 2098 N 181.806 0.884767 1.30421 0
M  V30 2099 C 182.754 0.340869 2.30089 0
M  V30 2100 C 183.748 -0.55201 1.60154 0
M  V30 2101 O 184.954 -0.436467 1.74628 0
M  V30 2102 H 181.329 0.0915739 0.746404 0
M  V30 2103 H 183.3 1.19513 2.73421 0
M  V30 2104 C 182.049 -0.429779 3.45034 0
M  V30 2105 H 181.372 0.248024 3.9903 0
M  V30 2106 H 182.812 -0.775445 4.16849 0
M  V30 2107 C 181.271 -1.62677 2.95022 0
M  V30 2108 O 181.801 -2.72614 2.95033 0
M  V30 2109 N 180.007 -1.46387 2.51036 0
M  V30 2110 H 179.554 -0.569506 2.51226 0
M  V30 2111 H 179.512 -2.26612 2.17932 0
M  V30 2112 N 183.284 -1.43765 0.645699 0
M  V30 2113 C 184.231 -2.30745 -0.0504648 0
M  V30 2114 C 185.201 -1.4432 -0.822241 0
M  V30 2115 O 186.386 -1.73202 -0.800358 0
M  V30 2116 C 183.526 -3.29802 -1.0161 0
M  V30 2117 C 182.639 -4.31326 -0.241219 0
M  V30 2118 C 181.774 -5.17469 -1.19998 0
M  V30 2119 C 180.813 -6.10691 -0.415094 0
M  V30 2120 N 179.95 -6.89483 -1.32506 0
M  V30 2121 H 184.79 -2.8973 0.697155 0
M  V30 2122 H 182.327 -1.42738 0.355563 0
M  V30 2123 H 184.285 -3.85734 -1.58949 0
M  V30 2124 H 182.915 -2.72483 -1.73069 0
M  V30 2125 H 181.967 -3.77749 0.448334 0
M  V30 2126 H 183.279 -4.9743 0.369437 0
M  V30 2127 H 182.433 -5.7799 -1.84424 0
M  V30 2128 H 181.172 -4.51473 -1.84455 0
M  V30 2129 H 180.177 -5.49265 0.242565 0
M  V30 2130 H 181.402 -6.78727 0.224966 0
M  V30 2131 H 179.348 -6.26142 -1.95657 0
M  V30 2132 H 179.265 -7.52081 -0.768783 0
M  V30 2133 H 180.533 -7.54516 -1.9577 0
M  V30 2134 N 184.763 -0.387143 -1.52771 0
M  V30 2135 C 185.71 0.449048 -2.26389 0
M  V30 2136 C 186.68 1.05961 -1.27912 0
M  V30 2137 O 187.865 1.08804 -1.56737 0
M  V30 2138 C 185.005 1.57155 -3.0724 0
M  V30 2139 C 184.118 0.984066 -4.20643 0
M  V30 2140 C 183.253 2.07745 -4.88892 0
M  V30 2141 C 182.292 1.46574 -5.94292 0
M  V30 2142 N 181.429 2.49834 -6.56146 0
M  V30 2143 H 186.269 -0.185205 -2.97424 0
M  V30 2144 H 183.806 -0.103164 -1.46738 0
M  V30 2145 H 185.764 2.23309 -3.52405 0
M  V30 2146 H 184.394 2.17615 -2.38419 0
M  V30 2147 H 183.446 0.212193 -3.79808 0
M  V30 2148 H 184.758 0.497029 -4.96318 0
M  V30 2149 H 183.912 2.81673 -5.3735 0
M  V30 2150 H 182.651 2.59807 -4.12737 0
M  V30 2151 H 181.656 0.711696 -5.45174 0
M  V30 2152 H 182.881 0.953088 -6.72379 0
M  V30 2153 H 180.827 3.0107 -5.82832 0
M  V30 2154 H 180.744 2.05879 -7.27427 0
M  V30 2155 H 182.012 3.23399 -7.09249 0
M  V30 2156 N 186.241 1.57166 -0.116904 0
M  V30 2157 C 187.189 2.16457 0.851418 0
M  V30 2158 C 188.183 1.11323 1.27686 0
M  V30 2159 O 189.389 1.2963 1.24884 0
M  V30 2160 H 185.764 0.69271 0.292672 0
M  V30 2161 H 187.735 2.96605 0.32685 0
M  V30 2162 C 186.484 2.77689 2.09246 0
M  V30 2163 H 185.807 3.58285 1.77402 0
M  V30 2164 H 187.247 3.22716 2.7501 0
M  V30 2165 C 185.706 1.74667 2.88085 0
M  V30 2166 O 186.236 1.19877 3.83396 0
M  V30 2167 N 184.442 1.44656 2.52038 0
M  V30 2168 H 183.989 1.89402 1.74599 0
M  V30 2169 H 183.947 0.759675 3.05084 0
M  V30 2170 N 187.719 -0.156864 1.56817 0
M  V30 2171 C 188.965 -0.872416 1.83076 0
M  V30 2172 C 189.298 -1.81261 0.697001 0
M  V30 2173 O 188.573 -1.92171 -0.30008 0
M  V30 2174 C 188.856 -1.65551 3.19789 0
M  V30 2175 C 188.709 -0.737467 4.43713 0
M  V30 2176 C 190.028 -2.62012 3.53606 0
M  V30 2177 H 187.147 -0.315715 0.665953 0
M  V30 2178 H 189.789 -0.138004 1.89498 0
M  V30 2179 H 187.939 -2.28159 3.14445 0
M  V30 2180 H 189.611 -0.123143 4.61136 0
M  V30 2181 H 187.854 -0.0464067 4.33775 0
M  V30 2182 H 188.525 -1.32122 5.35955 0
M  V30 2183 H 191.001 -2.09525 3.59497 0
M  V30 2184 H 189.877 -3.13861 4.50314 0
M  V30 2185 H 190.138 -3.42902 2.79053 0
M  V30 2186 N 189.197 -1.51736 -0.425897 0
M  V30 2187 C 190.144 -1.73875 -1.51776 0
M  V30 2188 C 191.114 -0.580702 -1.55618 0
M  V30 2189 O 192.299 -0.81641 -1.72451 0
M  V30 2190 C 189.439 -1.88012 -2.89388 0
M  V30 2191 C 188.552 -3.15606 -2.94986 0
M  V30 2192 C 187.687 -3.20271 -4.23793 0
M  V30 2193 C 186.726 -4.42134 -4.23302 0
M  V30 2194 N 185.863 -4.44284 -5.43651 0
M  V30 2195 H 190.703 -2.67071 -1.32201 0
M  V30 2196 H 188.24 -1.32351 -0.642008 0
M  V30 2197 H 190.198 -1.9419 -3.69251 0
M  V30 2198 H 188.828 -0.98213 -3.07496 0
M  V30 2199 H 187.88 -3.18681 -2.07717 0
M  V30 2200 H 189.192 -4.05486 -2.90486 0
M  V30 2201 H 188.346 -3.25428 -5.12036 0
M  V30 2202 H 187.085 -2.28299 -4.30965 0
M  V30 2203 H 186.09 -4.3714 -3.3345 0
M  V30 2204 H 187.315 -5.35382 -4.17783 0
M  V30 2205 H 185.261 -3.55188 -5.51523 0
M  V30 2206 H 185.178 -5.27988 -5.41078 0
M  V30 2207 H 186.446 -4.53649 -6.33895 0
M  V30 2208 N 190.675 0.682077 -1.42076 0
M  V30 2209 C 191.622 1.79578 -1.44984 0
M  V30 2210 C 192.592 1.6332 -0.302614 0
M  V30 2211 O 193.777 1.83978 -0.505633 0
M  V30 2212 C 190.917 3.1756 -1.35091 0
M  V30 2213 C 190.03 3.45156 -2.59791 0
M  V30 2214 C 189.165 4.72826 -2.42093 0
M  V30 2215 C 188.204 4.93433 -3.62202 0
M  V30 2216 N 187.341 6.12338 -3.43491 0
M  V30 2217 H 192.181 1.76427 -2.40161 0
M  V30 2218 H 189.718 0.861376 -1.19242 0
M  V30 2219 H 191.676 3.97287 -1.27354 0
M  V30 2220 H 190.306 3.19854 -0.435133 0
M  V30 2221 H 189.358 2.59736 -2.77923 0
M  V30 2222 H 190.67 3.5628 -3.49094 0
M  V30 2223 H 189.824 5.60631 -2.319 0
M  V30 2224 H 188.563 4.63973 -1.50268 0
M  V30 2225 H 187.568 4.04073 -3.72834 0
M  V30 2226 H 188.793 5.04136 -4.54998 0
M  V30 2227 H 186.739 6.04672 -2.54377 0
M  V30 2228 H 186.656 6.2429 -4.26377 0
M  V30 2229 H 187.924 7.02841 -3.37097 0
M  V30 2230 N 192.153 1.28127 0.917671 0
M  V30 2231 C 193.402 1.14432 1.66097 0
M  V30 2232 C 193.715 -0.307247 1.93172 0
M  V30 2233 O 194.921 -0.565259 2.65551 0
M  V30 2234 C 193.377 2.00015 2.99202 0
M  V30 2235 C 192.985 3.49889 2.79789 0
M  V30 2236 C 194.729 1.94996 3.77064 0
M  V30 2237 C 192.636 4.27636 4.08511 0
M  V30 2238 H 191.566 0.424662 0.62304 0
M  V30 2239 H 194.217 1.52628 1.01868 0
M  V30 2240 H 192.599 1.54672 3.64544 0
M  V30 2241 H 193.773 4.03162 2.23152 0
M  V30 2242 H 192.088 3.56392 2.15345 0
M  V30 2243 H 194.685 2.50354 4.72469 0
M  V30 2244 H 195.028 0.925819 4.05875 0
M  V30 2245 H 195.561 2.38287 3.18534 0
M  V30 2246 H 192.3 5.30615 3.84874 0
M  V30 2247 H 191.82 3.79137 4.64774 0
M  V30 2248 H 193.499 4.37346 4.76799 0
M  V30 2249 N 193.631 -1.12557 1.10312 0
M  V30 2250 C 194.877 -1.84311 0.846011 0
M  V30 2251 C 195.21 -1.83805 -0.626859 0
M  V30 2252 O 194.485 -1.28268 -1.46211 0
M  V30 2253 C 194.768 -3.32048 1.39341 0
M  V30 2254 C 194.621 -3.41016 2.93305 0
M  V30 2255 C 195.94 -4.27764 1.03468 0
M  V30 2256 H 193.059 -0.669192 0.30879 0
M  V30 2257 H 195.701 -1.32057 1.36605 0
M  V30 2258 H 193.851 -3.76678 0.951087 0
M  V30 2259 H 195.523 -3.05031 3.46055 0
M  V30 2260 H 193.766 -2.81603 3.29973 0
M  V30 2261 H 194.437 -4.44948 3.26689 0
M  V30 2262 H 196.913 -3.91253 1.41633 0
M  V30 2263 H 195.789 -5.29549 1.44463 0
M  V30 2264 H 196.05 -4.42064 -0.0560404 0
M  V30 2265 N 195.109 -0.891671 -1.2995 0
M  V30 2266 C 196.056 -0.361736 -2.27948 0
M  V30 2267 C 197.026 0.551761 -1.56668 0
M  V30 2268 O 198.211 0.478736 -1.84696 0
M  V30 2269 C 195.351 0.411825 -3.42634 0
M  V30 2270 C 194.464 -0.531651 -4.28716 0
M  V30 2271 C 193.599 0.258167 -5.30572 0
M  V30 2272 C 192.638 -0.680349 -6.08307 0
M  V30 2273 N 191.775 0.0745613 -7.0206 0
M  V30 2274 H 196.615 -1.20254 -2.72659 0
M  V30 2275 H 194.152 -0.604352 -1.34112 0
M  V30 2276 H 196.11 0.876304 -4.07893 0
M  V30 2277 H 194.74 1.21715 -2.98974 0
M  V30 2278 H 193.792 -1.11463 -3.63703 0
M  V30 2279 H 195.104 -1.25038 -4.82874 0
M  V30 2280 H 194.258 0.784204 -6.0161 0
M  V30 2281 H 192.997 1.01008 -4.77126 0
M  V30 2282 H 192.002 -1.21796 -5.3614 0
M  V30 2283 H 193.227 -1.43145 -6.63842 0
M  V30 2284 H 191.173 0.808883 -6.50994 0
M  V30 2285 H 191.09 -0.584409 -7.53738 0
M  V30 2286 H 192.358 0.581123 -7.77331 0
M  V30 2287 N 196.587 1.43421 -0.653314 0
M  V30 2288 C 197.836 2.01032 -0.164076 0
M  V30 2289 C 198.149 1.52147 1.22926 0
M  V30 2290 O 199.355 2.02031 1.81371 0
M  V30 2291 C 197.811 3.59082 -0.24252 0
M  V30 2292 C 197.419 4.1696 -1.63855 0
M  V30 2293 C 199.163 4.24079 0.18911 0
M  V30 2294 C 197.07 5.67304 -1.67092 0
M  V30 2295 H 196 0.751798 -0.0575769 0
M  V30 2296 H 198.651 1.6439 -0.815362 0
M  V30 2297 H 197.033 3.93125 0.476276 0
M  V30 2298 H 198.207 3.94416 -2.38271 0
M  V30 2299 H 196.522 3.64335 -2.01616 0
M  V30 2300 H 199.119 5.34381 0.184775 0
M  V30 2301 H 199.462 3.98005 1.22056 0
M  V30 2302 H 199.995 3.94918 -0.477938 0
M  V30 2303 H 196.734 5.98145 -2.68146 0
M  V30 2304 H 196.254 5.91904 -0.970014 0
M  V30 2305 H 197.933 6.31344 -1.4147 0
M  V30 2306 N 198.065 0.39524 1.52563 0
M  V30 2307 C 199.314 -0.186321 2.00838 0
M  V30 2308 C 199.627 -1.47402 1.28577 0
M  V30 2309 O 200.833 -2.13599 1.67593 0
M  V30 2310 C 199.289 -0.382595 3.57861 0
M  V30 2311 C 198.897 0.892202 4.39026 0
M  V30 2312 C 200.641 -0.9202 4.14406 0
M  V30 2313 C 198.548 0.66388 5.87662 0
M  V30 2314 H 197.478 -0.0734041 0.750418 0
M  V30 2315 H 200.129 0.518552 1.76021 0
M  V30 2316 H 198.511 -1.14946 3.7895 0
M  V30 2317 H 199.685 1.66414 4.29701 0
M  V30 2318 H 198 1.35519 3.9373 0
M  V30 2319 H 200.597 -1.10683 5.23119 0
M  V30 2320 H 200.94 -1.89096 3.70875 0
M  V30 2321 H 201.473 -0.212751 3.97231 0
M  V30 2322 H 198.212 1.6058 6.35527 0
M  V30 2323 H 197.732 -0.0690193 5.9976 0
M  V30 2324 H 199.411 0.300699 6.46301 0
M  V30 2325 N 199.544 -1.57102 0.125237 0
M  V30 2326 C 200.769 -2.0019 -0.542101 0
M  V30 2327 C 201.194 -1.00449 -1.59034 0
M  V30 2328 O 200.552 0.0229423 -1.81285 0
M  V30 2329 C 200.6 -3.42129 -1.13929 0
M  V30 2330 O 199.704 -3.45307 -2.2547 0
M  V30 2331 H 199.045 -0.650171 -0.134812 0
M  V30 2332 H 201.575 -2.03461 0.215553 0
M  V30 2333 H 201.585 -3.80471 -1.4733 0
M  V30 2334 H 200.26 -4.14237 -0.371531 0
M  V30 2335 H 198.837 -3.1879 -1.93462 0
M  V30 2336 N 201.022 0.148545 -1.56898 0
M  V30 2337 C 201.969 1.18345 -1.98149 0
M  V30 2338 C 202.939 1.42772 -0.848848 0
M  V30 2339 O 204.124 1.55132 -1.11079 0
M  V30 2340 C 201.264 2.51231 -2.36594 0
M  V30 2341 C 200.377 2.33991 -3.63142 0
M  V30 2342 C 199.512 3.59902 -3.90697 0
M  V30 2343 C 198.551 3.37692 -5.1052 0
M  V30 2344 N 197.688 4.5573 -5.34092 0
M  V30 2345 H 202.528 0.82467 -2.86362 0
M  V30 2346 H 200.065 0.395756 -1.41676 0
M  V30 2347 H 202.023 3.28713 -2.56912 0
M  V30 2348 H 200.653 2.85059 -1.51463 0
M  V30 2349 H 199.705 1.47572 -3.50609 0
M  V30 2350 H 201.017 2.13539 -4.5078 0
M  V30 2351 H 200.171 4.45813 -4.11505 0
M  V30 2352 H 198.91 3.83357 -3.01477 0
M  V30 2353 H 197.915 2.5017 -4.89587 0
M  V30 2354 H 199.14 3.15637 -6.0129 0
M  V30 2355 H 197.086 4.79361 -4.47827 0
M  V30 2356 H 197.003 4.38274 -6.15996 0
M  V30 2357 H 198.271 5.42858 -5.59397 0
M  V30 2358 N 202.5 1.5196 0.417844 0
M  V30 2359 C 203.463 1.74065 1.49111 0
M  V30 2360 C 204.463 0.610537 1.48758 0
M  V30 2361 O 205.653 0.87832 1.50437 0
M  V30 2362 C 202.785 1.81502 2.88565 0
M  V30 2363 H 203.978 2.69869 1.30807 0
M  V30 2364 H 201.531 1.42244 0.647785 0
M  V30 2365 H 202.266 0.875813 3.1225 0
M  V30 2366 H 202.051 2.63651 2.90225 0
M  V30 2367 H 203.541 2.00376 3.66387 0
M  V30 2368 N 203.978 -0.674533 1.42435 0
M  V30 2369 C 204.888 -1.81751 1.48337 0
M  V30 2370 C 205.904 -1.69975 0.372099 0
M  V30 2371 O 207.08 -1.91521 0.62304 0
M  V30 2372 C 204.145 -3.17895 1.38361 0
M  V30 2373 C 203.206 -3.41625 2.59982 0
M  V30 2374 C 202.439 -4.71274 2.50473 0
M  V30 2375 O 202.662 -5.49197 1.54075 0
M  V30 2376 O 201.596 -4.96254 3.4061 0
M  V30 2377 H 205.422 -1.79728 2.44809 0
M  V30 2378 H 203.007 -0.830312 1.24202 0
M  V30 2379 H 204.889 -3.99136 1.35161 0
M  V30 2380 H 203.564 -3.20555 0.450144 0
M  V30 2381 H 202.471 -2.60231 2.68757 0
M  V30 2382 H 203.804 -3.43796 3.52229 0
M  V30 2383 N 205.456 -1.28612 -0.910864 0
M  V30 2384 C 206.872 -1.06381 -1.18976 0
M  V30 2385 C 207.072 0.191998 -2.00583 0
M  V30 2386 O 206.128 0.892869 -2.36187 0
M  V30 2387 C 207.441 -2.31295 -1.92154 0
M  V30 2388 C 208.989 -2.36503 -2.05025 0
M  V30 2389 C 209.464 -3.61191 -2.81612 0
M  V30 2390 N 210.955 -3.61847 -2.89172 0
M  V30 2391 C 211.69 -4.55004 -3.4894 0
M  V30 2392 N 211.186 -5.58482 -4.09963 0
M  V30 2393 N 212.979 -4.42594 -3.46506 0
M  V30 2394 H 205.13 -2.09221 -0.366094 0
M  V30 2395 H 207.393 -0.921003 -0.224629 0
M  V30 2396 H 207.099 -3.228 -1.39618 0
M  V30 2397 H 206.973 -2.37934 -2.9269 0
M  V30 2398 H 209.36 -1.45494 -2.5674 0
M  V30 2399 H 209.441 -2.33857 -1.03657 0
M  V30 2400 H 209.085 -4.52545 -2.30576 0
M  V30 2401 H 209.015 -3.61092 -3.83302 0
M  V30 2402 H 211.506 -2.87022 -2.45819 0
M  V30 2403 H 211.819 -6.25704 -4.53557 0
M  V30 2404 H 210.164 -5.62305 -4.08459 0
M  V30 2405 H 213.355 -3.60953 -2.98045 0
M  V30 2406 H 213.528 -5.15381 -3.92793 0
M  V30 2407 N 206.934 1.1197 -1.10907 0
M  V30 2408 C 208.159 1.87942 -0.877064 0
M  V30 2409 C 208.584 1.79341 0.567314 0
M  V30 2410 O 207.942 1.15184 1.40009 0
M  V30 2411 C 207.99 3.34926 -1.33629 0
M  V30 2412 O 207.094 4.09303 -0.504447 0
M  V30 2413 H 206.435 0.583785 -0.316371 0
M  V30 2414 H 208.965 1.4157 -1.47712 0
M  V30 2415 H 208.975 3.8577 -1.32837 0
M  V30 2416 H 207.65 3.40504 -2.3881 0
M  V30 2417 H 206.227 3.68393 -0.577993 0
M  V30 2418 N 208.412 0.89855 1.29475 0
M  V30 2419 C 209.637 0.538561 2.00285 0
M  V30 2420 C 210.062 -0.869135 1.66816 0
M  V30 2421 O 209.42 -1.57831 0.892145 0
M  V30 2422 C 209.468 0.736475 3.52999 0
M  V30 2423 O 208.572 -0.211537 4.11857 0
M  V30 2424 H 207.913 0.210563 0.62973 0
M  V30 2425 H 210.443 1.20982 1.64998 0
M  V30 2426 H 210.453 0.640685 4.02938 0
M  V30 2427 H 209.128 1.76276 3.76696 0
M  V30 2428 H 207.705 -0.0682991 3.72837 0
M  V30 2429 N 209.89 -1.43072 0.660911 0
M  V30 2430 C 210.838 -2.32569 -0.0378199 0
M  V30 2431 C 211.832 -1.49046 -0.805092 0
M  V30 2432 O 213.038 -1.65206 -0.714624 0
M  V30 2433 H 209.413 -0.75136 -0.031019 0
M  V30 2434 H 211.384 -2.89216 0.734609 0
M  V30 2435 C 210.133 -3.33453 -0.985124 0
M  V30 2436 H 209.456 -3.97752 -0.404147 0
M  V30 2437 H 210.896 -3.98691 -1.44297 0
M  V30 2438 C 209.355 -2.64642 -2.08486 0
M  V30 2439 O 209.885 -2.46776 -3.16961 0
M  V30 2440 N 208.091 -2.23891 -1.8526 0
M  V30 2441 H 207.638 -2.38621 -0.970449 0
M  V30 2442 H 207.596 -1.78181 -2.59034 0
M  V30 2443 N 211.368 -0.403325 -1.52352 0
M  V30 2444 C 212.315 0.425011 -2.26853 0
M  V30 2445 C 213.285 1.04598 -1.29029 0
M  V30 2446 O 214.47 1.07135 -1.57882 0
M  V30 2447 C 211.61 1.53888 -3.08889 0
M  V30 2448 C 210.723 0.939396 -4.21663 0
M  V30 2449 C 209.858 2.02547 -4.91068 0
M  V30 2450 C 208.897 1.40263 -5.95813 0
M  V30 2451 N 208.034 2.4286 -6.58759 0
M  V30 2452 H 212.874 -0.21674 -2.97211 0
M  V30 2453 H 210.411 -0.118722 -1.4662 0
M  V30 2454 H 212.369 2.19558 -3.54753 0
M  V30 2455 H 210.999 2.15074 -2.40714 0
M  V30 2456 H 210.051 0.171898 -3.80011 0
M  V30 2457 H 211.363 0.44436 -4.96817 0
M  V30 2458 H 210.517 2.75958 -5.40308 0
M  V30 2459 H 209.256 2.55415 -4.15469 0
M  V30 2460 H 208.261 0.653833 -5.45898 0
M  V30 2461 H 209.486 0.881719 -6.73352 0
M  V30 2462 H 207.432 2.94871 -5.85992 0
M  V30 2463 H 207.349 1.98152 -7.2957 0
M  V30 2464 H 208.617 3.15858 -7.12639 0
M  V30 2465 N 212.846 1.57033 -0.133567 0
M  V30 2466 C 214.262 1.58035 0.222944 0
M  V30 2467 C 214.462 1.14713 1.6566 0
M  V30 2468 O 213.518 0.841218 2.38075 0
M  V30 2469 C 214.831 3.00691 -0.0236116 0
M  V30 2470 C 216.379 3.12973 0.0411512 0
M  V30 2471 C 216.854 4.57654 -0.177899 0
M  V30 2472 N 218.345 4.63033 -0.124365 0
M  V30 2473 C 219.08 5.72771 -0.268553 0
M  V30 2474 N 218.576 6.91206 -0.46972 0
M  V30 2475 N 220.369 5.61718 -0.2071 0
M  V30 2476 H 212.52 1.8349 -1.06981 0
M  V30 2477 H 214.783 0.848677 -0.422436 0
M  V30 2478 H 214.489 3.36726 -1.0153 0
M  V30 2479 H 214.363 3.70614 0.701808 0
M  V30 2480 H 216.75 2.76787 1.02338 0
M  V30 2481 H 216.831 2.45564 -0.716383 0
M  V30 2482 H 216.475 4.94542 -1.15717 0
M  V30 2483 H 216.405 5.23173 0.599797 0
M  V30 2484 H 218.896 3.7789 0.027011 0
M  V30 2485 H 219.209 7.70693 -0.570212 0
M  V30 2486 H 217.554 6.93156 -0.505876 0
M  V30 2487 H 220.745 4.68072 -0.0507986 0
M  V30 2488 H 220.918 6.47195 -0.322909 0
M  V30 2489 N 214.325 -0.140222 1.56975 0
M  V30 2490 C 215.272 -1.17292 1.98774 0
M  V30 2491 C 216.242 -1.4232 0.856408 0
M  V30 2492 O 217.427 -1.54541 1.119 0
M  V30 2493 C 214.567 -2.49973 2.37923 0
M  V30 2494 C 213.68 -2.32062 3.64378 0
M  V30 2495 C 212.815 -3.57825 3.926 0
M  V30 2496 C 211.854 -3.3498 5.12303 0
M  V30 2497 N 210.991 -4.52891 5.36502 0
M  V30 2498 H 215.831 -0.809472 2.86795 0
M  V30 2499 H 213.368 -0.388237 1.41884 0
M  V30 2500 H 215.326 -3.27346 2.58652 0
M  V30 2501 H 213.956 -2.84252 1.52972 0
M  V30 2502 H 213.008 -1.45711 3.51387 0
M  V30 2503 H 214.32 -2.11145 4.51906 0
M  V30 2504 H 213.474 -4.43624 4.13863 0
M  V30 2505 H 212.213 -3.81753 3.03506 0
M  V30 2506 H 211.218 -2.4757 4.90906 0
M  V30 2507 H 212.443 -3.12444 6.02956 0
M  V30 2508 H 210.389 -4.76979 4.50363 0
M  V30 2509 H 210.306 -4.35001 6.18312 0
M  V30 2510 H 211.574 -5.39884 5.62268 0
M  V30 2511 N 215.803 -1.52179 -0.40978 0
M  V30 2512 C 217.05 -1.66206 -1.15679 0
M  V30 2513 C 217.378 -0.391674 -1.90516 0
M  V30 2514 O 216.633 0.62533 -1.8544 0
M  V30 2515 C 216.932 -2.83428 -2.17723 0
M  V30 2516 C 216.598 -4.21672 -1.59699 0
M  V30 2517 C 215.26 -4.59274 -1.43599 0
M  V30 2518 C 217.612 -5.07825 -1.17317 0
M  V30 2519 C 214.94 -5.80709 -0.836328 0
M  V30 2520 C 217.292 -6.29864 -0.587691 0
M  V30 2521 C 215.956 -6.66216 -0.413818 0
M  V30 2522 H 215.226 -0.608192 -0.423301 0
M  V30 2523 H 217.873 -1.86279 -0.444097 0
M  V30 2524 H 216.178 -2.57687 -2.95135 0
M  V30 2525 H 217.875 -2.91477 -2.75394 0
M  V30 2526 H 214.465 -3.9204 -1.73213 0
M  V30 2527 H 218.649 -4.79359 -1.28565 0
M  V30 2528 H 213.905 -6.07498 -0.689626 0
M  V30 2529 H 218.079 -6.95948 -0.250894 0
M  V30 2530 H 215.706 -7.60182 0.0529471 0
M  V30 2531 N 217.281 0.66697 -1.42791 0
M  V30 2532 C 218.229 1.80157 -1.47127 0
M  V30 2533 C 219.223 1.65825 -0.346199 0
M  V30 2534 O 220.429 1.72338 -0.519572 0
M  V30 2535 H 216.804 0.594158 -0.460956 0
M  V30 2536 H 218.775 1.73619 -2.42692 0
M  V30 2537 C 217.524 3.18351 -1.39813 0
M  V30 2538 H 216.847 3.3001 -2.25684 0
M  V30 2539 H 218.287 3.97736 -1.46908 0
M  V30 2540 C 216.746 3.36707 -0.11391 0
M  V30 2541 O 217.276 3.93027 0.830241 0
M  V30 2542 N 215.482 2.90586 -0.0285295 0
M  V30 2543 H 215.029 2.4494 -0.79764 0
M  V30 2544 H 214.987 3.03245 0.830063 0
M  V30 2545 N 218.759 1.29093 0.90403 0
M  V30 2546 C 220.005 1.16986 1.65656 0
M  V30 2547 C 220.338 -0.278925 1.92186 0
M  V30 2548 O 219.613 -1.2019 1.5292 0
M  V30 2549 C 219.896 1.97908 3.0084 0
M  V30 2550 C 219.749 3.50903 2.81403 0
M  V30 2551 C 221.068 1.80208 4.01513 0
M  V30 2552 H 218.187 0.426346 0.601164 0
M  V30 2553 H 220.829 1.58518 1.04747 0
M  V30 2554 H 218.979 1.62616 3.52829 0
M  V30 2555 H 220.651 3.96153 2.36348 0
M  V30 2556 H 218.894 3.76045 2.1627 0
M  V30 2557 H 219.565 4.02791 3.77443 0
M  V30 2558 H 222.041 2.11025 3.58619 0
M  V30 2559 H 220.917 2.39184 4.94047 0
M  V30 2560 H 221.178 0.756119 4.35586 0
M  V30 2561 N 220.237 -1.11381 1.11499 0
M  V30 2562 C 221.484 -1.83132 0.864231 0
M  V30 2563 C 221.812 -1.84683 -0.610114 0
M  V30 2564 O 221.067 -1.29589 -1.46646 0
M  V30 2565 C 221.366 -3.30026 1.37177 0
M  V30 2566 C 221.032 -3.48634 2.85946 0
M  V30 2567 C 219.694 -3.53421 3.26569 0
M  V30 2568 C 222.046 -3.54837 3.81759 0
M  V30 2569 C 219.374 -3.61967 4.61733 0
M  V30 2570 C 221.726 -3.64915 5.1674 0
M  V30 2571 C 220.39 -3.67962 5.5692 0
M  V30 2572 H 219.66 -0.670127 0.316245 0
M  V30 2573 H 222.307 -1.31354 1.3935 0
M  V30 2574 H 220.612 -3.84304 0.762753 0
M  V30 2575 H 222.309 -3.84034 1.15408 0
M  V30 2576 H 218.899 -3.45579 2.53521 0
M  V30 2577 H 223.083 -3.50399 3.51474 0
M  V30 2578 H 218.339 -3.62603 4.92269 0
M  V30 2579 H 222.513 -3.68658 5.90816 0
M  V30 2580 H 220.14 -3.74336 6.61647 0
M  V30 2581 N 221.715 -0.905404 -1.28997 0
M  V30 2582 C 222.662 -0.385892 -2.27551 0
M  V30 2583 C 223.632 0.535113 -1.57244 0
M  V30 2584 O 224.817 0.459119 -1.85194 0
M  V30 2585 C 221.957 0.375461 -3.43051 0
M  V30 2586 C 221.07 -0.577092 -4.28128 0
M  V30 2587 C 220.205 0.201879 -5.30816 0
M  V30 2588 C 219.244 -0.744829 -6.07551 0
M  V30 2589 N 218.381 9.42587e-05 -7.021 0
M  V30 2590 H 223.221 -1.23139 -2.71368 0
M  V30 2591 H 220.758 -0.618542 -1.33463 0
M  V30 2592 H 222.716 0.832992 -4.088 0
M  V30 2593 H 221.346 1.18537 -3.00248 0
M  V30 2594 H 220.398 -1.15315 -3.62501 0
M  V30 2595 H 221.71 -1.30152 -4.8152 0
M  V30 2596 H 220.864 0.720351 -6.02408 0
M  V30 2597 H 219.603 0.959413 -4.7817 0
M  V30 2598 H 218.608 -1.27475 -5.34818 0
M  V30 2599 H 219.833 -1.50178 -6.62286 0
M  V30 2600 H 217.779 0.739791 -6.51815 0
M  V30 2601 H 217.696 -0.664321 -7.53076 0
M  V30 2602 H 218.964 0.498644 -7.77903 0
M  V30 2603 N 223.193 1.4272 -0.668489 0
M  V30 2604 C 224.14 2.30796 0.0137489 0
M  V30 2605 C 225.11 1.4561 0.799177 0
M  V30 2606 O 226.295 1.74453 0.772702 0
M  V30 2607 C 223.435 3.31377 0.963507 0
M  V30 2608 C 222.548 4.31655 0.172569 0
M  V30 2609 C 221.683 5.19312 1.1175 0
M  V30 2610 C 220.722 6.11274 0.317886 0
M  V30 2611 N 219.859 6.91504 1.2152 0
M  V30 2612 H 224.699 2.88585 -0.743161 0
M  V30 2613 H 222.236 1.42154 -0.378226 0
M  V30 2614 H 224.194 3.88214 1.52792 0
M  V30 2615 H 222.824 2.75202 1.68712 0
M  V30 2616 H 221.876 3.76988 -0.508374 0
M  V30 2617 H 223.188 4.96779 -0.448527 0
M  V30 2618 H 222.342 5.80851 1.75206 0
M  V30 2619 H 221.081 4.5435 1.77249 0
M  V30 2620 H 220.086 5.48809 -0.329918 0
M  V30 2621 H 221.311 6.78283 -0.332917 0
M  V30 2622 H 219.257 6.29176 1.85671 0
M  V30 2623 H 219.174 7.53209 0.649036 0
M  V30 2624 H 220.442 7.57535 1.83742 0
M  V30 2625 N 224.671 0.411399 1.52136 0
M  V30 2626 C 225.901 -0.16284 2.05957 0
M  V30 2627 C 226.309 -1.3922 1.28119 0
M  V30 2628 O 225.652 -1.80768 0.326881 0
M  V30 2629 C 225.714 -0.575946 3.54856 0
M  V30 2630 C 225.378 0.542998 4.53763 0
M  V30 2631 C 226.375 1.40726 5.00492 0
M  V30 2632 C 224.06 0.716337 4.97166 0
M  V30 2633 C 226.054 2.4298 5.8927 0
M  V30 2634 C 223.741 1.74218 5.8574 0
M  V30 2635 C 224.739 2.59731 6.31687 0
M  V30 2636 O 224.427 3.60558 7.18507 0
M  V30 2637 H 224.159 -0.0229125 0.675612 0
M  V30 2638 H 226.713 0.581634 1.96993 0
M  V30 2639 H 224.943 -1.37274 3.61515 0
M  V30 2640 H 226.632 -1.07836 3.91313 0
M  V30 2641 H 227.398 1.28476 4.67674 0
M  V30 2642 H 223.277 0.0603857 4.6096 0
M  V30 2643 H 226.821 3.0976 6.25055 0
M  V30 2644 H 222.718 1.86498 6.17971 0
M  V30 2645 H 223.486 3.56829 7.36624 0
M  V30 2646 N 226.149 -1.5696 0.141893 0
M  V30 2647 C 227.079 -2.19516 -0.795936 0
M  V30 2648 C 228.06 -1.14187 -1.26077 0
M  V30 2649 O 229.245 -1.42511 -1.31925 0
M  V30 2650 C 226.375 -2.81272 -2.03723 0
M  V30 2651 C 225.329 -3.92384 -1.70936 0
M  V30 2652 C 224.655 -4.41052 -3.02287 0
M  V30 2653 C 225.955 -5.13403 -0.959954 0
M  V30 2654 H 227.649 -2.98138 -0.274596 0
M  V30 2655 H 225.195 -1.43406 -0.130636 0
M  V30 2656 H 227.148 -3.237 -2.69808 0
M  V30 2657 H 225.872 -1.99973 -2.58221 0
M  V30 2658 H 224.531 -3.50566 -1.07232 0
M  V30 2659 H 224.179 -3.56582 -3.54765 0
M  V30 2660 H 223.879 -5.15993 -2.81114 0
M  V30 2661 H 225.403 -4.86146 -3.69451 0
M  V30 2662 H 226.817 -5.52706 -1.52279 0
M  V30 2663 H 225.214 -5.94073 -0.848357 0
M  V30 2664 H 226.284 -4.84875 0.0492434 0
M  V30 2665 N 227.627 0.131896 -1.57047 0
M  V30 2666 C 228.876 0.84044 -1.83356 0
M  V30 2667 C 229.189 1.81646 -0.725535 0
M  V30 2668 O 230.395 2.57025 -0.874659 0
M  V30 2669 C 228.851 1.54528 -3.25037 0
M  V30 2670 C 228.459 0.610902 -4.43815 0
M  V30 2671 C 230.203 2.23972 -3.60606 0
M  V30 2672 C 228.11 1.31823 -5.76521 0
M  V30 2673 H 227.04 0.317599 -0.683847 0
M  V30 2674 H 229.691 0.0931561 -1.83263 0
M  V30 2675 H 228.073 2.33873 -3.19561 0
M  V30 2676 H 229.247 -0.148407 -4.60561 0
M  V30 2677 H 227.562 0.0241016 -4.16393 0
M  V30 2678 H 230.159 2.77558 -4.57018 0
M  V30 2679 H 230.502 3.01173 -2.87403 0
M  V30 2680 H 231.035 1.51529 -3.6781 0
M  V30 2681 H 227.774 0.587771 -6.52859 0
M  V30 2682 H 227.294 2.04987 -5.63685 0
M  V30 2683 H 228.973 1.855 -6.19838 0
M  V30 2684 N 229.106 1.52395 0.401703 0
M  V30 2685 C 230.331 1.70972 1.17403 0
M  V30 2686 C 230.756 0.421615 1.83314 0
M  V30 2687 O 230.114 -0.621564 1.70312 0
M  V30 2688 C 230.162 2.85151 2.20728 0
M  V30 2689 O 229.266 2.51238 3.27037 0
M  V30 2690 H 228.607 0.568927 0.342372 0
M  V30 2691 H 231.137 1.99131 0.469891 0
M  V30 2692 H 231.147 3.10279 2.64936 0
M  V30 2693 H 229.822 3.78603 1.7214 0
M  V30 2694 H 228.399 2.36808 2.88057 0
M  V30 2695 N 230.584 -0.659388 1.43143 0
M  V30 2696 C 231.494 -1.80167 1.50256 0
M  V30 2697 C 232.51 -1.69571 0.390106 0
M  V30 2698 O 233.686 -1.90849 0.643319 0
M  V30 2699 C 230.751 -3.16409 1.41725 0
M  V30 2700 C 229.812 -3.38848 2.63591 0
M  V30 2701 C 229.045 -4.68591 2.55458 0
M  V30 2702 O 229.268 -5.47532 1.59891 0
M  V30 2703 O 228.202 -4.92614 3.45854 0
M  V30 2704 H 232.028 -1.77121 2.46702 0
M  V30 2705 H 229.613 -0.817092 1.25076 0
M  V30 2706 H 231.495 -3.9768 1.39387 0
M  V30 2707 H 230.17 -3.20059 0.484118 0
M  V30 2708 H 229.077 -2.57366 2.71502 0
M  V30 2709 H 230.41 -3.4004 3.55856 0
M  V30 2710 N 232.062 -1.29571 -0.897171 0
M  V30 2711 C 233.309 -1.17689 -1.6479 0
M  V30 2712 C 233.637 0.27107 -1.92602 0
M  V30 2713 O 232.892 1.21193 -1.53658 0
M  V30 2714 C 233.191 -1.9382 -3.00281 0
M  V30 2715 C 232.857 -3.43522 -2.92068 0
M  V30 2716 C 231.519 -3.84348 -2.89535 0
M  V30 2717 C 233.871 -4.38906 -2.81089 0
M  V30 2718 C 231.199 -5.18869 -2.73846 0
M  V30 2719 C 233.551 -5.73521 -2.66939 0
M  V30 2720 C 232.215 -6.13601 -2.62774 0
M  V30 2721 H 231.485 -0.430654 -0.603008 0
M  V30 2722 H 234.132 -1.60536 -1.04404 0
M  V30 2723 H 232.437 -1.4357 -3.64547 0
M  V30 2724 H 234.134 -1.82028 -3.57305 0
M  V30 2725 H 230.724 -3.11072 -2.94842 0
M  V30 2726 H 234.908 -4.08315 -2.82121 0
M  V30 2727 H 230.164 -5.4903 -2.69027 0
M  V30 2728 H 234.338 -6.47078 -2.57416 0
M  V30 2729 H 231.965 -7.17786 -2.50375 0
M  V30 2730 N 233.54 1.10788 -1.12088 0
M  V30 2731 C 234.817 1.79136 -0.785476 0
M  V30 2732 C 235.197 1.98246 0.725377 0
M  V30 2733 O 234.545 1.57258 1.65778 0
M  V30 2734 C 234.755 3.12375 -1.55636 0
M  V30 2735 C 236.103 3.8731 -1.74001 0
M  V30 2736 O 237.127 3.22085 -1.52117 0
M  V30 2737 O 235.986 5.04369 -2.10415 0
M  V30 2738 H 233.08 0.776226 -0.285311 0
M  V30 2739 H 235.626 1.1747 -1.2247 0
M  V30 2740 H 234.398 2.93863 -2.5838 0
M  V30 2741 H 234.021 3.81758 -1.11114 0
M  V30 2742 N 235.018 0.912232 1.28515 0
M  V30 2743 C 236.248 0.559604 1.98877 0
M  V30 2744 C 236.656 -0.863113 1.68366 0
M  V30 2745 O 235.999 -1.58304 0.931969 0
M  V30 2746 C 236.061 0.68703 3.52874 0
M  V30 2747 C 235.725 2.07901 4.06972 0
M  V30 2748 C 236.722 3.05157 4.20922 0
M  V30 2749 C 234.407 2.39178 4.417 0
M  V30 2750 C 236.401 4.31806 4.68852 0
M  V30 2751 C 234.088 3.66068 4.89324 0
M  V30 2752 C 235.086 4.62195 5.02856 0
M  V30 2753 O 234.774 5.86829 5.49442 0
M  V30 2754 H 234.506 0.212191 0.641834 0
M  V30 2755 H 237.06 1.22712 1.64715 0
M  V30 2756 H 235.29 -0.0375486 3.86682 0
M  V30 2757 H 236.979 0.341727 4.04459 0
M  V30 2758 H 237.745 2.82311 3.94367 0
M  V30 2759 H 233.624 1.65109 4.30418 0
M  V30 2760 H 237.168 5.06842 4.79329 0
M  V30 2761 H 233.065 3.88739 5.15318 0
M  V30 2762 H 233.833 5.89597 5.6773 0
M  V30 2763 N 236.496 -1.42363 0.676048 0
M  V30 2764 C 237.907 -1.84649 0.275948 0
M  V30 2765 C 238.258 -1.56588 -1.18214 0
M  V30 2766 O 237.383 -1.02634 -1.90513 0
M  V30 2767 C 237.978 -3.35178 0.494053 0
M  V30 2768 C 236.537 -3.76109 0.148061 0
M  V30 2769 C 235.684 -2.65931 0.785891 0
M  V30 2770 H 238.635 -1.32192 0.878121 0
M  V30 2771 H 238.656 -3.79655 -0.25343 0
M  V30 2772 H 238.168 -3.55571 1.55535 0
M  V30 2773 H 236.269 -3.61323 -0.909742 0
M  V30 2774 H 236.382 -4.7546 0.589454 0
M  V30 2775 H 234.746 -2.53773 0.217113 0
M  V30 2776 H 235.529 -2.89146 1.85067 0
M  V30 2777 N 237.974 -0.419461 -1.51915 0
M  V30 2778 C 238.922 0.415502 -2.28859 0
M  V30 2779 C 239.916 1.03674 -1.3397 0
M  V30 2780 O 241.122 0.973757 -1.51387 0
M  V30 2781 H 237.497 0.152786 -0.736315 0
M  V30 2782 H 239.468 -0.254531 -2.97312 0
M  V30 2783 C 238.217 1.51425 -3.12995 0
M  V30 2784 H 237.54 1.04556 -3.85886 0
M  V30 2785 H 238.98 2.07208 -3.6992 0
M  V30 2786 C 237.439 2.48745 -2.27217 0
M  V30 2787 O 237.969 3.52871 -1.9195 0
M  V30 2788 N 236.175 2.19202 -1.90785 0
M  V30 2789 H 235.722 1.34556 -2.19664 0
M  V30 2790 H 235.68 2.84561 -1.33687 0
M  V30 2791 N 239.452 1.56882 -0.150215 0
M  V30 2792 C 240.699 1.96228 0.500093 0
M  V30 2793 C 241.027 1.03522 1.64661 0
M  V30 2794 O 240.282 0.0650683 1.95592 0
M  V30 2795 C 240.581 3.41801 1.04437 0
M  V30 2796 C 240.247 4.50897 0.0159671 0
M  V30 2797 C 238.909 4.8046 -0.266731 0
M  V30 2798 C 241.261 5.16703 -0.683192 0
M  V30 2799 C 238.589 5.73135 -1.25434 0
M  V30 2800 C 240.941 6.10441 -1.65964 0
M  V30 2801 C 239.605 6.38382 -1.95 0
M  V30 2802 H 238.875 0.718048 0.182997 0
M  V30 2803 H 241.522 1.90019 -0.237724 0
M  V30 2804 H 239.827 3.44857 1.85959 0
M  V30 2805 H 241.524 3.69573 1.55618 0
M  V30 2806 H 238.114 4.27891 0.246485 0
M  V30 2807 H 242.298 4.93993 -0.477983 0
M  V30 2808 H 237.554 5.93074 -1.48571 0
M  V30 2809 H 241.728 6.60507 -2.20689 0
M  V30 2810 H 239.355 7.09996 -2.71679 0
M  V30 2811 N 240.93 -0.123565 1.57115 0
M  V30 2812 C 241.84 -1.17074 2.033 0
M  V30 2813 C 242.856 -1.4561 0.952559 0
M  V30 2814 O 244.032 -1.56817 1.26374 0
M  V30 2815 C 241.097 -2.47857 2.42421 0
M  V30 2816 C 240.158 -2.26758 3.64526 0
M  V30 2817 C 239.391 -3.51305 4.01771 0
M  V30 2818 O 239.614 -4.5843 3.39409 0
M  V30 2819 O 238.548 -3.42578 4.94898 0
M  V30 2820 H 242.374 -0.808555 2.92739 0
M  V30 2821 H 239.959 -0.334027 1.45618 0
M  V30 2822 H 241.841 -3.2492 2.68338 0
M  V30 2823 H 240.516 -2.83558 1.5613 0
M  V30 2824 H 239.423 -1.47569 3.43765 0
M  V30 2825 H 240.756 -1.95963 4.51508 0
M  V30 2826 N 242.408 -1.52605 -0.393616 0
M  V30 2827 C 243.657 -1.66649 -1.13627 0
M  V30 2828 C 243.97 -0.410364 -1.91247 0
M  V30 2829 O 245.176 -0.430854 -2.68059 0
M  V30 2830 C 243.632 -2.9449 -2.06891 0
M  V30 2831 C 243.24 -4.27266 -1.34714 0
M  V30 2832 C 244.984 -3.17899 -2.81319 0
M  V30 2833 C 242.891 -5.46217 -2.26717 0
M  V30 2834 H 241.821 -0.62084 -0.427871 0
M  V30 2835 H 244.472 -1.791 -0.399428 0
M  V30 2836 H 242.854 -2.75774 -2.84191 0
M  V30 2837 H 244.028 -4.56518 -0.626714 0
M  V30 2838 H 242.343 -4.10081 -0.722643 0
M  V30 2839 H 244.94 -4.03949 -3.50328 0
M  V30 2840 H 245.283 -2.32777 -3.45139 0
M  V30 2841 H 245.816 -3.37159 -2.11113 0
M  V30 2842 H 242.555 -6.33733 -1.67521 0
M  V30 2843 H 242.075 -5.21283 -2.96689 0
M  V30 2844 H 243.754 -5.7991 -2.86903 0
M  V30 2845 N 243.887 0.651787 -1.4349 0
M  V30 2846 C 245.164 1.40909 -1.35661 0
M  V30 2847 C 245.544 2.11099 -0.00511733 0
M  V30 2848 O 244.892 2.04892 1.0115 0
M  V30 2849 C 245.102 2.3926 -2.54078 0
M  V30 2850 C 246.45 3.03217 -2.97228 0
M  V30 2851 O 247.474 2.49588 -2.54135 0
M  V30 2852 O 246.333 4.00455 -3.71885 0
M  V30 2853 H 243.427 0.629625 -0.536191 0
M  V30 2854 H 245.973 0.678575 -1.55542 0
M  V30 2855 H 244.745 1.86352 -3.44076 0
M  V30 2856 H 244.368 3.1976 -2.36303 0
M  V30 2857 N 245.365 1.30045 0.890287 0
M  V30 2858 C 246.642 1.09227 1.62262 0
M  V30 2859 C 247.022 -0.360305 2.08002 0
M  V30 2860 O 246.37 -1.35084 1.84295 0
M  V30 2861 C 246.58 2.08835 2.79623 0
M  V30 2862 C 247.928 2.40266 3.50082 0
M  V30 2863 O 248.952 2.07104 2.89804 0
M  V30 2864 O 247.811 2.96967 4.58773 0
M  V30 2865 H 244.905 0.419132 0.712922 0
M  V30 2866 H 247.451 1.41451 0.937529 0
M  V30 2867 H 246.223 3.06633 2.43089 0
M  V30 2868 H 245.846 1.77397 3.55832 0
M  V30 2869 N 246.843 -1.10192 1.12674 0
M  V30 2870 C 248.071 -1.85983 0.906527 0
M  V30 2871 C 248.486 -1.80783 -0.544333 0
M  V30 2872 O 247.843 -1.19834 -1.37645 0
M  V30 2873 C 247.894 -3.34281 1.37618 0
M  V30 2874 O 247.615 -3.39401 2.77017 0
M  V30 2875 C 249.116 -4.26938 1.19325 0
M  V30 2876 H 246.336 -0.587716 0.323775 0
M  V30 2877 H 248.88 -1.39284 1.49734 0
M  V30 2878 H 247.035 -3.78436 0.828539 0
M  V30 2879 H 247.449 -4.31838 2.97684 0
M  V30 2880 H 248.923 -5.29181 1.57071 0
M  V30 2881 H 249.4 -4.38995 0.134097 0
M  V30 2882 H 250.006 -3.8859 1.72852 0
M  V30 2883 N 248.321 -0.919034 -1.28029 0
M  V30 2884 C 249.567 -0.555757 -1.95036 0
M  V30 2885 C 249.9 0.899198 -1.72128 0
M  V30 2886 O 249.175 1.64023 -1.04531 0
M  V30 2887 C 249.458 -0.872024 -3.49382 0
M  V30 2888 C 249.311 -2.3801 -3.81669 0
M  V30 2889 C 250.63 -0.37185 -4.38526 0
M  V30 2890 H 247.749 -0.203386 -0.708381 0
M  V30 2891 H 250.391 -1.14924 -1.51303 0
M  V30 2892 H 248.541 -0.366946 -3.86763 0
M  V30 2893 H 250.213 -2.9562 -3.54128 0
M  V30 2894 H 248.456 -2.83289 -3.28526 0
M  V30 2895 H 249.127 -2.55192 -4.8947 0
M  V30 2896 H 251.603 -0.804602 -4.08247 0
M  V30 2897 H 250.479 -0.622173 -5.45362 0
M  V30 2898 H 250.74 0.727934 -4.36066 0
M  V30 2899 N 249.799 1.42003 -0.683588 0
M  V30 2900 C 250.746 2.30798 -0.0107309 0
M  V30 2901 C 251.716 1.4645 0.783688 0
M  V30 2902 O 252.901 1.75263 0.754156 0
M  V30 2903 C 250.041 3.3238 0.928306 0
M  V30 2904 C 249.154 4.31814 0.126776 0
M  V30 2905 C 248.289 5.20468 1.06236 0
M  V30 2906 C 247.328 6.11577 0.253035 0
M  V30 2907 N 246.465 6.92754 1.14179 0
M  V30 2908 H 251.305 2.8778 -0.773727 0
M  V30 2909 H 248.842 1.41745 -0.393283 0
M  V30 2910 H 250.8 3.89813 1.48666 0
M  V30 2911 H 249.43 2.76976 1.65783 0
M  V30 2912 H 248.482 3.76427 -0.54833 0
M  V30 2913 H 249.794 4.96276 -0.501192 0
M  V30 2914 H 248.948 5.82677 1.69035 0
M  V30 2915 H 247.687 4.56204 1.7242 0
M  V30 2916 H 246.692 5.48428 -0.388108 0
M  V30 2917 H 247.917 6.77892 -0.404839 0
M  V30 2918 H 245.863 6.3111 1.78987 0
M  V30 2919 H 245.78 7.53855 0.569111 0
M  V30 2920 H 247.048 7.59441 1.75697 0
M  V30 2921 N 251.277 0.427512 1.51691 0
M  V30 2922 C 252.225 -0.403359 2.29076 0
M  V30 2923 C 253.219 -1.02962 1.34518 0
M  V30 2924 O 254.425 -0.965715 1.51901 0
M  V30 2925 H 250.8 -0.148879 0.737115 0
M  V30 2926 H 252.771 0.270295 2.97173 0
M  V30 2927 C 251.52 -1.49763 3.13794 0
M  V30 2928 H 250.843 -1.02508 3.86435 0
M  V30 2929 H 252.283 -2.05244 3.71014 0
M  V30 2930 C 250.742 -2.47536 2.28533 0
M  V30 2931 O 251.272 -3.51848 1.93819 0
M  V30 2932 N 249.478 -2.18187 1.91945 0
M  V30 2933 H 249.025 -1.33389 2.20375 0
M  V30 2934 H 248.983 -2.83848 1.35195 0
M  V30 2935 N 252.755 -1.56801 0.158532 0
M  V30 2936 C 253.665 -2.20916 -0.789518 0
M  V30 2937 C 254.681 -1.1969 -1.26294 0
M  V30 2938 O 255.857 -1.52308 -1.31773 0
M  V30 2939 C 252.922 -2.82727 -2.00665 0
M  V30 2940 C 251.983 -3.99114 -1.58134 0
M  V30 2941 C 251.216 -4.57968 -2.74045 0
M  V30 2942 O 251.439 -4.15704 -3.90572 0
M  V30 2943 O 250.373 -5.48047 -2.48855 0
M  V30 2944 H 254.199 -3.02464 -0.273681 0
M  V30 2945 H 251.784 -1.4924 -0.0690548 0
M  V30 2946 H 253.666 -3.21968 -2.71872 0
M  V30 2947 H 252.341 -2.04184 -2.51179 0
M  V30 2948 H 251.248 -3.64567 -0.839155 0
M  V30 2949 H 252.581 -4.79212 -1.12325 0
M  V30 2950 N 254.233 0.115231 -1.57178 0
M  V30 2951 C 255.166 1.17166 -1.95825 0
M  V30 2952 C 256.144 1.39912 -0.828463 0
M  V30 2953 O 257.328 1.54004 -1.08697 0
M  V30 2954 C 254.455 2.52478 -2.25771 0
M  V30 2955 C 253.501 2.46136 -3.48309 0
M  V30 2956 S 254.334 1.89736 -5.0076 0
M  V30 2957 C 255.49 3.26713 -5.33863 0
M  V30 2958 H 255.723 0.842103 -2.85124 0
M  V30 2959 H 253.256 0.322136 -1.51002 0
M  V30 2960 H 255.214 3.30332 -2.43702 0
M  V30 2961 H 253.875 2.82609 -1.37079 0
M  V30 2962 H 253.068 3.45819 -3.66641 0
M  V30 2963 H 252.67 1.76404 -3.29784 0
M  V30 2964 H 254.962 4.22935 -5.29275 0
M  V30 2965 H 255.905 3.13205 -6.35065 0
M  V30 2966 H 256.313 3.25316 -4.61335 0
M  V30 2967 N 255.711 1.52812 0.385517 0
M  V30 2968 C 256.659 1.78482 1.49155 0
M  V30 2969 C 257.653 0.652914 1.56312 0
M  V30 2970 O 258.859 0.835464 1.59436 0
M  V30 2971 H 255.234 0.5648 0.496493 0
M  V30 2972 H 257.205 2.71095 1.24699 0
M  V30 2973 C 255.954 1.97378 2.86247 0
M  V30 2974 H 255.277 2.83907 2.81491 0
M  V30 2975 H 256.717 2.19327 3.62866 0
M  V30 2976 C 255.176 0.74728 3.28508 0
M  V30 2977 O 255.706 -0.0736232 4.01633 0
M  V30 2978 N 253.912 0.576396 2.84826 0
M  V30 2979 H 253.459 1.24555 2.25486 0
M  V30 2980 H 253.417 -0.24288 3.1346 0
M  V30 2981 N 257.189 -0.644168 1.43834 0
M  V30 2982 C 258.121 -1.76955 1.45669 0
M  V30 2983 C 259.134 -1.58956 0.351666 0
M  V30 2984 O 260.323 -1.6751 0.616644 0
M  V30 2985 C 257.423 -3.14507 1.26248 0
M  V30 2986 C 256.596 -3.59083 2.49757 0
M  V30 2987 C 255.655 -4.75467 2.25427 0
M  V30 2988 O 254.681 -4.84444 2.98836 0
M  V30 2989 N 255.883 -5.66289 1.27661 0
M  V30 2990 H 258.648 -1.75856 2.42682 0
M  V30 2991 H 256.209 -0.828312 1.39106 0
M  V30 2992 H 258.201 -3.90067 1.0784 0
M  V30 2993 H 256.771 -3.10325 0.376478 0
M  V30 2994 H 255.991 -2.7387 2.8353 0
M  V30 2995 H 257.279 -3.85613 3.31934 0
M  V30 2996 H 256.677 -5.61718 0.670064 0
M  V30 2997 H 255.234 -6.41533 1.15234 0
M  V30 2998 N 258.668 -1.30515 -0.883378 0
M  V30 2999 C 259.631 -1.1701 -1.97082 0
M  V30 3000 C 260.631 -0.10089 -1.60483 0
M  V30 3001 O 261.821 -0.349127 -1.70666 0
M  V30 3002 C 258.953 -0.793045 -3.31547 0
M  V30 3003 H 260.146 -2.13622 -2.10489 0
M  V30 3004 H 257.699 -1.13935 -1.06998 0
M  V30 3005 H 258.434 0.172499 -3.23841 0
M  V30 3006 H 258.219 -1.56576 -3.5948 0
M  V30 3007 H 259.709 -0.722073 -4.1131 0
M  V30 3008 N 260.146 1.09593 -1.13257 0
M  V30 3009 C 261.395 1.81105 -0.887917 0
M  V30 3010 C 261.708 1.86563 0.587672 0
M  V30 3011 O 262.914 2.54367 0.949204 0
M  V30 3012 C 261.37 3.25338 -1.53895 0
M  V30 3013 C 260.978 3.28151 -3.04994 0
M  V30 3014 C 262.722 4.01617 -1.37492 0
M  V30 3015 C 260.629 4.66897 -3.6299 0
M  V30 3016 H 259.559 0.678661 -0.328534 0
M  V30 3017 H 262.21 1.23183 -1.36008 0
M  V30 3018 H 260.592 3.8331 -0.994446 0
M  V30 3019 H 261.766 2.79953 -3.66009 0
M  V30 3020 H 260.081 2.65361 -3.20893 0
M  V30 3021 H 262.678 5.04119 -1.78235 0
M  V30 3022 H 263.021 4.15072 -0.31957 0
M  V30 3023 H 263.554 3.50082 -1.88912 0
M  V30 3024 H 260.293 4.58643 -4.68323 0
M  V30 3025 H 259.813 5.15426 -3.06752 0
M  V30 3026 H 261.492 5.3587 -3.62563 0
M  V30 3027 N 261.624 0.925811 1.2754 0
M  V30 3028 C 262.554 0.440748 2.29303 0
M  V30 3029 C 263.535 -0.497971 1.62648 0
M  V30 3030 O 264.72 -0.403126 1.8997 0
M  V30 3031 C 261.85 -0.309048 3.45922 0
M  V30 3032 C 260.804 0.54166 4.24559 0
M  V30 3033 C 260.13 -0.337191 5.33636 0
M  V30 3034 C 261.43 1.80516 4.90114 0
M  V30 3035 H 263.124 1.29121 2.70126 0
M  V30 3036 H 260.67 0.622323 1.29858 0
M  V30 3037 H 262.623 -0.659315 4.1621 0
M  V30 3038 H 261.347 -1.19352 3.04011 0
M  V30 3039 H 260.006 0.874609 3.56014 0
M  V30 3040 H 259.654 -1.22056 4.87966 0
M  V30 3041 H 259.354 0.228497 5.87156 0
M  V30 3042 H 260.878 -0.683072 6.06767 0
M  V30 3043 H 262.292 1.52307 5.52698 0
M  V30 3044 H 260.689 2.3142 5.53683 0
M  V30 3045 H 261.759 2.52581 4.13921 0
M  V30 3046 N 263.102 -1.41638 0.69111 0
M  V30 3047 C 264.348 -2.01598 0.220519 0
M  V30 3048 C 264.681 -1.54594 -1.17535 0
M  V30 3049 O 263.956 -0.755177 -1.79241 0
M  V30 3050 C 264.239 -3.59062 0.273243 0
M  V30 3051 C 264.092 -4.16203 1.70573 0
M  V30 3052 C 265.411 -4.38546 -0.369457 0
M  V30 3053 H 262.53 -0.732468 0.0816045 0
M  V30 3054 H 265.172 -1.68445 0.878986 0
M  V30 3055 H 263.322 -3.87435 -0.287411 0
M  V30 3056 H 264.994 -3.98722 2.31989 0
M  V30 3057 H 263.237 -3.71414 2.2413 0
M  V30 3058 H 263.908 -5.25358 1.69419 0
M  V30 3059 H 266.384 -4.1596 0.107977 0
M  V30 3060 H 265.26 -5.48069 -0.302002 0
M  V30 3061 H 265.521 -4.17662 -1.44951 0
M  V30 3062 N 264.58 -0.43555 -1.51462 0
M  V30 3063 C 265.81 0.130053 -2.0619 0
M  V30 3064 C 266.218 1.37164 -1.30317 0
M  V30 3065 O 265.561 1.80225 -0.355598 0
M  V30 3066 C 265.623 0.519418 -3.55728 0
M  V30 3067 C 265.287 -0.615119 -4.52841 0
M  V30 3068 C 266.284 -1.48671 -4.9819 0
M  V30 3069 C 263.969 -0.795341 -4.95963 0
M  V30 3070 C 265.963 -2.52324 -5.8533 0
M  V30 3071 C 263.65 -1.83514 -5.82894 0
M  V30 3072 C 264.648 -2.69748 -6.27475 0
M  V30 3073 O 264.336 -3.71944 -7.1268 0
M  V30 3074 H 264.068 0.0121612 -0.675891 0
M  V30 3075 H 266.622 -0.6129 -1.96043 0
M  V30 3076 H 264.852 1.31505 -3.63653 0
M  V30 3077 H 266.541 1.01597 -3.92979 0
M  V30 3078 H 267.307 -1.359 -4.65571 0
M  V30 3079 H 263.186 -0.133713 -4.60806 0
M  V30 3080 H 266.73 -3.19665 -6.20048 0
M  V30 3081 H 262.627 -1.96306 -6.14926 0
M  V30 3082 H 263.395 -3.68503 -7.30854 0
M  V30 3083 N 266.058 1.56714 -0.166846 0
M  V30 3084 C 267.005 2.17746 0.765193 0
M  V30 3085 C 267.975 1.11614 1.23011 0
M  V30 3086 O 269.16 1.39745 1.29908 0
M  V30 3087 C 266.3 2.81882 1.9909 0
M  V30 3088 C 265.413 4.02462 1.56997 0
M  V30 3089 C 264.548 4.54537 2.749 0
M  V30 3090 C 263.587 5.67538 2.29275 0
M  V30 3091 N 262.724 6.14142 3.40255 0
M  V30 3092 H 267.564 2.97048 0.237952 0
M  V30 3093 H 265.101 1.4672 0.105725 0
M  V30 3094 H 267.059 3.17221 2.70974 0
M  V30 3095 H 265.689 2.05191 2.49192 0
M  V30 3096 H 264.741 3.72973 0.748037 0
M  V30 3097 H 266.053 4.84273 1.19503 0
M  V30 3098 H 265.207 4.92035 3.54946 0
M  V30 3099 H 263.946 3.71774 3.1565 0
M  V30 3100 H 262.951 5.29597 1.47674 0
M  V30 3101 H 264.176 6.52099 1.89588 0
M  V30 3102 H 262.122 5.3431 3.8059 0
M  V30 3103 H 262.039 6.9093 3.06841 0
M  V30 3104 H 263.307 6.56289 4.206 0
M  V30 3105 N 267.536 -0.106894 1.57237 0
M  V30 3106 C 268.483 -1.13049 2.01217 0
M  V30 3107 C 269.453 -1.40471 0.886403 0
M  V30 3108 O 270.638 -1.52133 1.15153 0
M  V30 3109 C 267.778 -2.4487 2.43172 0
M  V30 3110 C 266.891 -2.24281 3.69218 0
M  V30 3111 C 266.026 -3.49417 4.00101 0
M  V30 3112 C 265.065 -3.24038 5.19294 0
M  V30 3113 N 264.202 -4.41409 5.45988 0
M  V30 3114 H 269.042 -0.748456 2.88448 0
M  V30 3115 H 266.579 -0.358054 1.42676 0
M  V30 3116 H 268.537 -3.21786 2.65537 0
M  V30 3117 H 267.167 -2.80944 1.58967 0
M  V30 3118 H 266.219 -1.38224 3.54398 0
M  V30 3119 H 267.531 -2.01512 4.56283 0
M  V30 3120 H 266.685 -4.34746 4.2318 0
M  V30 3121 H 265.424 -3.75229 3.11535 0
M  V30 3122 H 264.429 -2.37102 4.96047 0
M  V30 3123 H 265.654 -2.99584 6.09447 0
M  V30 3124 H 263.6 -4.67319 4.60379 0
M  V30 3125 H 263.517 -4.21788 6.274 0
M  V30 3126 H 264.785 -5.27836 5.73593 0
M  V30 3127 N 269.014 -1.53014 -0.377408 0
M  V30 3128 C 269.977 -1.77957 -1.44444 0
M  V30 3129 C 270.977 -0.649763 -1.47087 0
M  V30 3130 O 272.167 -0.917897 -1.48055 0
M  V30 3131 C 269.299 -1.89089 -2.83651 0
M  V30 3132 H 270.492 -2.73243 -1.23606 0
M  V30 3133 H 268.045 -1.43912 -0.609844 0
M  V30 3134 H 268.78 -0.958293 -3.09818 0
M  V30 3135 H 268.565 -2.71254 -2.83132 0
M  V30 3136 H 270.055 -2.1002 -3.60945 0
M  V30 3137 N 270.492 0.636531 -1.44174 0
M  V30 3138 C 271.439 1.74875 -1.50624 0
M  V30 3139 C 272.409 1.62275 -0.35442 0
M  V30 3140 O 273.594 1.82276 -0.563908 0
M  V30 3141 C 270.734 3.13102 -1.45125 0
M  V30 3142 C 269.847 3.36717 -2.7064 0
M  V30 3143 C 268.982 4.64885 -2.57013 0
M  V30 3144 C 268.021 4.8166 -3.77717 0
M  V30 3145 N 267.158 6.01101 -3.62798 0
M  V30 3146 H 271.998 1.68697 -2.45653 0
M  V30 3147 H 269.535 0.823004 -1.21922 0
M  V30 3148 H 271.493 3.93034 -1.39929 0
M  V30 3149 H 270.123 3.18308 -0.536671 0
M  V30 3150 H 269.175 2.50763 -2.86046 0
M  V30 3151 H 270.487 3.44993 -3.60252 0
M  V30 3152 H 269.641 5.52969 -2.49619 0
M  V30 3153 H 268.38 4.58957 -1.64953 0
M  V30 3154 H 267.385 3.92007 -3.85501 0
M  V30 3155 H 268.61 4.89406 -4.70807 0
M  V30 3156 H 266.556 5.96273 -2.73486 0
M  V30 3157 H 266.473 6.10409 -4.46023 0
M  V30 3158 H 267.741 6.91761 -3.59286 0
M  V30 3159 N 271.97 1.30982 0.876444 0
M  V30 3160 C 273.195 1.23373 1.66715 0
M  V30 3161 C 273.62 -0.19885 1.87046 0
M  V30 3162 O 272.978 -1.1427 1.40756 0
M  V30 3163 C 273.026 1.97644 3.01611 0
M  V30 3164 O 272.13 1.30935 3.91062 0
M  V30 3165 H 271.471 0.426279 0.509099 0
M  V30 3166 H 274.001 1.72944 1.09323 0
M  V30 3167 H 274.011 2.06992 3.51594 0
M  V30 3168 H 272.686 3.01829 2.86133 0
M  V30 3169 H 271.263 1.29996 3.49507 0
M  V30 3170 N 273.449 -1.08991 1.13837 0
M  V30 3171 C 274.726 -1.77863 0.813876 0
M  V30 3172 C 275.106 -1.99375 -0.693746 0
M  V30 3173 O 274.454 -1.59875 -1.63255 0
M  V30 3174 C 274.664 -3.0986 1.60586 0
M  V30 3175 C 276.012 -3.84493 1.8014 0
M  V30 3176 O 277.036 -3.19624 1.57222 0
M  V30 3177 O 275.895 -5.00957 2.18413 0
M  V30 3178 H 272.989 -0.771589 0.297624 0
M  V30 3179 H 275.535 -1.15507 1.24323 0
M  V30 3180 H 274.307 -2.89715 2.63022 0
M  V30 3181 H 273.93 -3.79942 1.17173 0
M  V30 3182 N 274.927 -0.932562 -1.27047 0
M  V30 3183 C 276.152 -0.591474 -1.98787 0
M  V30 3184 C 276.577 0.824601 -1.69062 0
M  V30 3185 O 275.935 1.5541 -0.933677 0
M  V30 3186 C 275.983 -0.829808 -3.50922 0
M  V30 3187 O 275.087 0.102266 -4.12273 0
M  V30 3188 H 274.428 -0.227185 -0.623926 0
M  V30 3189 H 276.958 -1.25314 -1.61733 0
M  V30 3190 H 276.968 -0.747292 -4.01098 0
M  V30 3191 H 275.643 -1.86201 -3.7189 0
M  V30 3192 H 274.22 -0.0305761 -3.72887 0
M  V30 3193 N 276.405 1.4127 -0.698611 0
M  V30 3194 C 277.635 2.05205 -0.239644 0
M  V30 3195 C 278.043 1.52684 1.11733 0
M  V30 3196 O 277.386 0.671222 1.70998 0
M  V30 3197 C 277.448 3.59289 -0.123126 0
M  V30 3198 C 277.112 4.34619 -1.41263 0
M  V30 3199 C 278.109 4.63701 -2.35111 0
M  V30 3200 C 275.794 4.73837 -1.66684 0
M  V30 3201 C 277.788 5.30966 -3.52639 0
M  V30 3202 C 275.475 5.40837 -2.84498 0
M  V30 3203 C 276.473 5.69329 -3.77298 0
M  V30 3204 O 276.161 6.34949 -4.93047 0
M  V30 3205 H 275.893 0.66723 -0.108537 0
M  V30 3206 H 278.447 1.81974 -0.952602 0
M  V30 3207 H 276.677 3.81272 0.645628 0
M  V30 3208 H 278.366 4.04797 0.299056 0
M  V30 3209 H 279.132 4.33882 -2.16729 0
M  V30 3210 H 275.011 4.51039 -0.953135 0
M  V30 3211 H 278.555 5.53121 -4.25091 0
M  V30 3212 H 274.452 5.70075 -3.02795 0
M  V30 3213 H 275.22 6.53445 -4.92902 0
M  V30 3214 N 277.883 0.443576 1.51229 0
M  V30 3215 C 279.129 -0.11321 2.03085 0
M  V30 3216 C 279.484 -1.39841 1.32145 0
M  V30 3217 O 278.777 -1.86723 0.429542 0
M  V30 3218 C 278.971 -0.380579 3.55368 0
M  V30 3219 C 278.8 0.877157 4.41062 0
M  V30 3220 C 277.57 1.4125 4.85156 0
M  V30 3221 C 279.768 1.76503 4.83064 0
M  V30 3222 N 277.75 2.62213 5.55083 0
M  V30 3223 C 279.121 2.82067 5.52122 0
M  V30 3224 C 281.176 1.7787 4.65045 0
M  V30 3225 C 279.879 3.88952 6.05069 0
M  V30 3226 C 281.905 2.83694 5.18914 0
M  V30 3227 C 281.267 3.87978 5.87922 0
M  V30 3228 H 277.366 -0.00210178 0.781997 0
M  V30 3229 H 279.95 0.605641 1.85041 0
M  V30 3230 H 278.121 -1.06847 3.73414 0
M  V30 3231 H 279.853 -0.929274 3.93887 0
M  V30 3232 H 276.608 0.965542 4.63653 0
M  V30 3233 H 277.032 3.23568 5.9467 0
M  V30 3234 H 281.674 0.985744 4.11148 0
M  V30 3235 H 279.392 4.69082 6.58018 0
M  V30 3236 H 282.978 2.85702 5.06819 0
M  V30 3237 H 281.858 4.68517 6.28857 0
M  V30 3238 N 279.361 -1.56624 0.175154 0
M  V30 3239 C 280.586 -2.01813 -0.478137 0
M  V30 3240 C 281.011 -1.05457 -1.55757 0
M  V30 3241 O 280.369 -0.0347439 -1.81267 0
M  V30 3242 C 280.417 -3.45581 -1.02987 0
M  V30 3243 O 279.521 -3.52305 -2.14371 0
M  V30 3244 H 278.862 -0.65413 -0.114059 0
M  V30 3245 H 281.392 -2.02673 0.280173 0
M  V30 3246 H 281.402 -3.84965 -1.35151 0
M  V30 3247 H 280.077 -4.1521 -0.239556 0
M  V30 3248 H 278.654 -3.24783 -1.83222 0
M  V30 3249 N 280.839 0.0985539 -1.57292 0
M  V30 3250 C 282.085 0.803867 -1.86188 0
M  V30 3251 C 282.418 1.78549 -0.763794 0
M  V30 3252 O 281.693 1.93153 0.22855 0
M  V30 3253 C 281.976 1.53568 -3.25713 0
M  V30 3254 C 281.829 0.572277 -4.46145 0
M  V30 3255 C 283.148 2.48708 -3.63087 0
M  V30 3256 H 280.267 0.290781 -0.677211 0
M  V30 3257 H 282.909 0.0675783 -1.8988 0
M  V30 3258 H 281.059 2.16332 -3.22696 0
M  V30 3259 H 282.731 -0.0480894 -4.61275 0
M  V30 3260 H 280.974 -0.114618 -4.33649 0
M  V30 3261 H 281.645 1.12139 -5.40489 0
M  V30 3262 H 284.121 1.96039 -3.67026 0
M  V30 3263 H 282.997 2.96932 -4.61652 0
M  V30 3264 H 283.258 3.32309 -2.91588 0
M  V30 3265 N 282.317 1.53212 0.369288 0
M  V30 3266 C 283.25 1.74166 1.4745 0
M  V30 3267 C 284.228 0.589923 1.51521 0
M  V30 3268 O 285.412 0.822078 1.69629 0
M  V30 3269 C 282.539 1.81711 2.8583 0
M  V30 3270 C 281.585 3.03649 2.99499 0
M  V30 3271 S 282.418 4.63242 2.6864 0
M  V30 3272 C 283.574 4.7363 4.09177 0
M  V30 3273 H 283.807 2.67636 1.29454 0
M  V30 3274 H 281.34 1.43754 0.563396 0
M  V30 3275 H 283.298 1.86743 3.65564 0
M  V30 3276 H 281.959 0.89299 3.01139 0
M  V30 3277 H 281.152 3.05526 4.00836 0
M  V30 3278 H 280.754 2.9671 2.27683 0
M  V30 3279 H 283.046 4.53456 5.03372 0
M  V30 3280 H 283.989 5.75682 4.12306 0
M  V30 3281 H 284.397 4.02295 3.96004 0
M  V30 3282 N 283.795 -0.628877 1.44509 0
M  V30 3283 C 285.072 -1.38733 1.37886 0
M  V30 3284 C 285.452 -2.11065 0.0387008 0
M  V30 3285 O 284.8 -2.06476 -0.97878 0
M  V30 3286 C 285.01 -2.35188 2.57852 0
M  V30 3287 C 286.358 -2.9845 3.02014 0
M  V30 3288 O 287.382 -2.45513 2.58073 0
M  V30 3289 O 286.241 -3.94487 3.78209 0
M  V30 3290 H 283.335 -0.621015 0.54614 0
M  V30 3291 H 285.881 -0.653744 1.56602 0
M  V30 3292 H 284.653 -1.80855 3.46998 0
M  V30 3293 H 284.276 -3.1596 2.4136 0
M  V30 3294 N 285.273 -1.31445 -0.869486 0
M  V30 3295 C 286.236 -1.19094 -1.9583 0
M  V30 3296 C 287.236 -0.117906 -1.60367 0
M  V30 3297 O 288.426 -0.367208 -1.70286 0
M  V30 3298 C 285.558 -0.828165 -3.30688 0
M  V30 3299 H 286.751 -2.15842 -2.08212 0
M  V30 3300 H 284.304 -1.15063 -1.05784 0
M  V30 3301 H 285.039 0.138142 -3.24006 0
M  V30 3302 H 284.824 -1.6038 -3.578 0
M  V30 3303 H 286.314 -0.765658 -4.10521 0
M  V30 3304 N 286.751 1.08385 -1.14413 0
M  V30 3305 C 287.681 2.17321 -0.854044 0
M  V30 3306 C 288.662 1.69024 0.191049 0
M  V30 3307 O 289.847 1.94141 0.0476779 0
M  V30 3308 C 286.977 3.45719 -0.330983 0
M  V30 3309 C 285.931 4.07409 -1.31155 0
M  V30 3310 C 285.257 5.30762 -0.64778 0
M  V30 3311 C 286.557 4.48665 -2.67388 0
M  V30 3312 H 288.251 2.41845 -1.76498 0
M  V30 3313 H 285.797 1.16233 -0.850051 0
M  V30 3314 H 287.75 4.21241 -0.115645 0
M  V30 3315 H 286.474 3.2075 0.615381 0
M  V30 3316 H 285.133 3.33919 -1.51306 0
M  V30 3317 H 284.781 5.02078 0.304398 0
M  V30 3318 H 284.481 5.72992 -1.30207 0
M  V30 3319 H 286.005 6.08998 -0.441972 0
M  V30 3320 H 287.419 5.15364 -2.51143 0
M  V30 3321 H 285.816 5.01814 -3.29093 0
M  V30 3322 H 286.886 3.60543 -3.24248 0
M  V30 3323 N 288.23 0.939286 1.26551 0
M  V30 3324 C 289.177 0.446088 2.26448 0
M  V30 3325 C 290.147 -0.493234 1.58608 0
M  V30 3326 O 291.332 -0.409857 1.86346 0
M  V30 3327 C 288.472 -0.284375 3.43926 0
M  V30 3328 C 287.585 0.690399 4.26448 0
M  V30 3329 C 286.72 -0.0610712 5.31165 0
M  V30 3330 C 285.759 0.905649 6.05363 0
M  V30 3331 N 284.896 0.186055 7.01853 0
M  V30 3332 H 289.736 1.30291 2.68008 0
M  V30 3333 H 287.273 0.65371 1.31776 0
M  V30 3334 H 289.231 -0.724313 4.10864 0
M  V30 3335 H 287.861 -1.10535 3.03285 0
M  V30 3336 H 286.913 1.24885 3.59316 0
M  V30 3337 H 288.225 1.42873 4.779 0
M  V30 3338 H 287.379 -0.56038 6.04106 0
M  V30 3339 H 286.118 -0.832297 4.80546 0
M  V30 3340 H 285.123 1.4161 5.3125 0
M  V30 3341 H 286.348 1.67685 6.58072 0
M  V30 3342 H 284.294 -0.566714 6.53548 0
M  V30 3343 H 284.211 0.863752 7.51049 0
M  V30 3344 H 285.479 -0.292221 7.78952 0
M  V30 3345 N 289.708 -1.40897 0.706093 0
M  V30 3346 C 290.655 -2.30751 0.0474474 0
M  V30 3347 C 291.625 -1.47678 -0.76029 0
M  V30 3348 O 292.81 -1.76441 -0.726177 0
M  V30 3349 C 289.95 -3.33815 -0.875309 0
M  V30 3350 C 289.063 -4.31961 -0.0580623 0
M  V30 3351 C 288.198 -5.22093 -0.979425 0
M  V30 3352 C 287.237 -6.11902 -0.155706 0
M  V30 3353 N 286.374 -6.94482 -1.03144 0
M  V30 3354 H 291.214 -2.86513 0.819413 0
M  V30 3355 H 288.751 -1.41102 0.415783 0
M  V30 3356 H 290.709 -3.92129 -1.42446 0
M  V30 3357 H 289.339 -2.79579 -1.61356 0
M  V30 3358 H 288.391 -3.75507 0.608147 0
M  V30 3359 H 289.703 -4.95415 0.580082 0
M  V30 3360 H 288.857 -5.85292 -1.59744 0
M  V30 3361 H 287.596 -4.5889 -1.65141 0
M  V30 3362 H 286.601 -5.47742 0.475309 0
M  V30 3363 H 287.826 -6.77162 0.512635 0
M  V30 3364 H 285.772 -6.33877 -1.68924 0
M  V30 3365 H 285.689 -7.54665 -0.449108 0
M  V30 3366 H 286.957 -7.6214 -1.63593 0
M  V30 3367 N 291.186 -0.45159 -1.50991 0
M  V30 3368 C 292.463 0.170707 -1.94854 0
M  V30 3369 C 292.843 1.58788 -1.39103 0
M  V30 3370 O 292.191 2.20913 -0.583921 0
M  V30 3371 C 292.401 0.133929 -3.48743 0
M  V30 3372 C 293.749 0.33248 -4.23296 0
M  V30 3373 O 294.773 0.211403 -3.55572 0
M  V30 3374 O 293.632 0.57486 -5.43468 0
M  V30 3375 H 290.726 0.122264 -0.817912 0
M  V30 3376 H 293.272 -0.510594 -1.61836 0
M  V30 3377 H 292.044 -0.856283 -3.81816 0
M  V30 3378 H 291.667 0.857529 -3.88242 0
M  V30 3379 N 292.664 1.56529 -0.183458 0
M  V30 3380 C 293.912 1.96855 0.457452 0
M  V30 3381 C 294.233 1.07104 1.62953 0
M  V30 3382 O 293.503 0.139887 1.954 0
M  V30 3383 H 292.083 0.72693 0.171992 0
M  V30 3384 H 294.745 1.93056 -0.267476 0
M  V30 3385 H 293.841 3.01423 0.809368 0
M  V30 3386 N 294.142 -0.090211 1.57342 0
M  V30 3387 C 295.072 -1.10976 2.05443 0
M  V30 3388 C 296.053 -1.41482 0.944284 0
M  V30 3389 O 297.238 -1.51428 1.21586 0
M  V30 3390 C 294.368 -2.42831 2.48295 0
M  V30 3391 C 293.322 -2.26721 3.63018 0
M  V30 3392 C 292.648 -3.63796 3.91863 0
M  V30 3393 C 293.948 -1.7037 4.93732 0
M  V30 3394 H 295.642 -0.709564 2.9087 0
M  V30 3395 H 293.188 -0.339874 1.39932 0
M  V30 3396 H 295.141 -3.14431 2.80555 0
M  V30 3397 H 293.865 -2.84795 1.59873 0
M  V30 3398 H 292.524 -1.57565 3.31012 0
M  V30 3399 H 292.172 -4.03297 3.00601 0
M  V30 3400 H 291.872 -3.53861 4.69101 0
M  V30 3401 H 293.396 -4.36855 4.26603 0
M  V30 3402 H 294.81 -2.31816 5.24342 0
M  V30 3403 H 293.207 -1.71181 5.75167 0
M  V30 3404 H 294.277 -0.663542 4.80339 0
M  V30 3405 N 295.62 -1.53406 -0.361157 0
M  V30 3406 C 296.55 -1.83136 -1.44857 0
M  V30 3407 C 297.531 -0.685174 -1.5569 0
M  V30 3408 O 298.716 -0.93544 -1.70186 0
M  V30 3409 C 295.846 -2.02522 -2.82138 0
M  V30 3410 C 294.8 -3.18302 -2.86126 0
M  V30 3411 C 294.126 -3.22989 -4.26125 0
M  V30 3412 C 295.426 -4.56796 -2.53248 0
M  V30 3413 H 297.12 -2.74201 -1.20226 0
M  V30 3414 H 294.666 -1.31938 -0.576922 0
M  V30 3415 H 296.619 -2.21904 -3.58241 0
M  V30 3416 H 295.343 -1.08172 -3.08166 0
M  V30 3417 H 294.002 -2.98747 -2.12475 0
M  V30 3418 H 293.65 -2.26267 -4.49235 0
M  V30 3419 H 293.35 -4.00781 -4.29708 0
M  V30 3420 H 294.874 -3.44559 -5.04094 0
M  V30 3421 H 296.288 -4.7631 -3.19064 0
M  V30 3422 H 294.685 -5.36862 -2.68141 0
M  V30 3423 H 295.755 -4.61606 -1.48484 0
M  V30 3424 N 297.098 0.621204 -1.44841 0
M  V30 3425 C 298.028 1.74366 -1.55303 0
M  V30 3426 C 299.009 1.65199 -0.405385 0
M  V30 3427 O 300.194 1.83807 -0.626787 0
M  V30 3428 C 297.324 3.12931 -1.50637 0
M  V30 3429 C 296.278 3.36896 -2.63979 0
M  V30 3430 C 295.604 4.75594 -2.44366 0
M  V30 3431 C 296.904 3.28483 -4.06074 0
M  V30 3432 H 298.598 1.65867 -2.49256 0
M  V30 3433 H 296.144 0.796558 -1.19962 0
M  V30 3434 H 298.097 3.9124 -1.56555 0
M  V30 3435 H 296.821 3.22237 -0.532057 0
M  V30 3436 H 295.48 2.60972 -2.57467 0
M  V30 3437 H 295.128 4.81616 -1.45105 0
M  V30 3438 H 294.828 4.92586 -3.20364 0
M  V30 3439 H 296.352 5.5612 -2.52117 0
M  V30 3440 H 297.766 3.96684 -4.13902 0
M  V30 3441 H 296.163 3.57008 -4.82354 0
M  V30 3442 H 297.233 2.26133 -4.28943 0
M  V30 3443 N 298.576 1.31904 0.862503 0
M  V30 3444 C 299.539 1.20131 1.95195 0
M  V30 3445 C 300.539 0.126409 1.60302 0
M  V30 3446 O 301.729 0.376234 1.70089 0
M  V30 3447 C 298.861 0.845691 3.30244 0
M  V30 3448 H 300.054 2.16943 2.07064 0
M  V30 3449 H 297.607 1.15622 1.05172 0
M  V30 3450 H 298.342 -0.120957 3.24074 0
M  V30 3451 H 298.127 1.62276 3.56944 0
M  V30 3452 H 299.617 0.787418 4.10109 0
M  V30 3453 N 300.054 -1.07777 1.14986 0
M  V30 3454 C 301.47 -1.32373 0.891596 0
M  V30 3455 C 301.67 -1.9609 -0.463788 0
M  V30 3456 O 300.726 -2.21801 -1.20667 0
M  V30 3457 C 302.039 -2.21905 2.02925 0
M  V30 3458 C 303.587 -2.35367 2.06329 0
M  V30 3459 C 304.062 -3.28245 3.19405 0
M  V30 3460 N 305.553 -3.35824 3.19024 0
M  V30 3461 C 306.288 -4.07739 4.03158 0
M  V30 3462 N 305.784 -4.82306 4.97346 0
M  V30 3463 N 307.577 -4.03635 3.91197 0
M  V30 3464 H 299.728 -0.648039 2.02273 0
M  V30 3465 H 301.991 -0.348149 0.881757 0
M  V30 3466 H 301.697 -1.82342 3.0074 0
M  V30 3467 H 301.571 -3.22407 1.95789 0
M  V30 3468 H 303.958 -2.74186 1.09116 0
M  V30 3469 H 304.039 -1.34585 2.17533 0
M  V30 3470 H 303.683 -2.90146 4.16867 0
M  V30 3471 H 303.613 -4.28971 3.05437 0
M  V30 3472 H 306.104 -2.8267 2.50811 0
M  V30 3473 H 306.417 -5.34661 5.57994 0
M  V30 3474 H 304.762 -4.81337 5.01338 0
M  V30 3475 H 307.953 -3.44491 3.16928 0
M  V30 3476 H 308.126 -4.59417 4.5699 0
M  V30 3477 N 301.532 -0.945985 -1.26051 0
M  V30 3478 C 302.76 -0.613025 -1.9761 0
M  V30 3479 C 303.175 0.813035 -1.70397 0
M  V30 3480 O 302.532 1.54274 -0.974979 0
M  V30 3481 C 302.583 -0.85159 -3.51326 0
M  V30 3482 O 302.304 -2.22157 -3.77595 0
M  V30 3483 C 303.805 -0.529831 -4.40122 0
M  V30 3484 H 301.025 -0.230593 -0.630133 0
M  V30 3485 H 303.569 -1.268 -1.60443 0
M  V30 3486 H 301.724 -0.243151 -3.86636 0
M  V30 3487 H 302.138 -2.2852 -4.721 0
M  V30 3488 H 303.612 -0.747348 -5.46917 0
M  V30 3489 H 304.089 0.535341 -4.35925 0
M  V30 3490 H 304.695 -1.11721 -4.10364 0
M  V30 3491 N 303.011 1.40521 -0.713556 0
M  V30 3492 C 304.258 2.00923 -0.25219 0
M  V30 3493 C 304.586 1.56571 1.15395 0
M  V30 3494 O 303.841 0.775874 1.79663 0
M  V30 3495 C 304.14 3.56317 -0.278 0
M  V30 3496 C 303.806 4.20246 -1.63415 0
M  V30 3497 C 302.468 4.37422 -2.00538 0
M  V30 3498 C 304.82 4.55923 -2.52554 0
M  V30 3499 C 302.148 4.87558 -3.2635 0
M  V30 3500 C 304.5 5.07458 -3.77716 0
M  V30 3501 C 303.164 5.22843 -4.14959 0
M  V30 3502 H 302.434 0.735231 -0.0922829 0
M  V30 3503 H 305.081 1.68161 -0.916188 0
M  V30 3504 H 303.386 3.88976 0.469567 0
M  V30 3505 H 305.083 4.00883 0.0967819 0
M  V30 3506 H 301.673 4.07263 -1.33546 0
M  V30 3507 H 305.857 4.42291 -2.25149 0
M  V30 3508 H 301.113 4.97654 -3.55176 0
M  V30 3509 H 305.287 5.34041 -4.4696 0
M  V30 3510 H 302.914 5.61454 -5.12516 0
M  V30 3511 N 304.489 0.459591 1.5075 0
M  V30 3512 C 305.419 -0.330644 2.31147 0
M  V30 3513 C 306.4 -1.00087 1.37538 0
M  V30 3514 O 307.585 -1.00025 1.66459 0
M  V30 3515 C 304.715 -1.41958 3.16962 0
M  V30 3516 C 303.669 -0.871608 4.19031 0
M  V30 3517 C 302.995 -2.05797 4.9351 0
M  V30 3518 C 304.295 0.109251 5.22186 0
M  V30 3519 H 305.989 0.340336 2.97459 0
M  V30 3520 H 303.535 0.165119 1.4305 0
M  V30 3521 H 305.488 -1.9798 3.71997 0
M  V30 3522 H 304.212 -2.11917 2.48513 0
M  V30 3523 H 302.871 -0.333442 3.6508 0
M  V30 3524 H 302.519 -2.74427 4.21544 0
M  V30 3525 H 302.219 -1.6976 5.62544 0
M  V30 3526 H 303.743 -2.62331 5.51375 0
M  V30 3527 H 305.157 -0.361405 5.7216 0
M  V30 3528 H 303.554 0.383316 5.98875 0
M  V30 3529 H 304.624 1.03887 4.73641 0
M  V30 3530 N 305.967 -1.56429 0.191757 0
M  V30 3531 C 307.192 -2.02309 -0.456706 0
M  V30 3532 C 307.617 -1.07103 -1.5463 0
M  V30 3533 O 306.975 -0.0539677 -1.8122 0
M  V30 3534 C 307.023 -3.46654 -0.993159 0
M  V30 3535 O 306.127 -3.54559 -2.10622 0
M  V30 3536 H 305.468 -0.655303 -0.107114 0
M  V30 3537 H 307.998 -2.02364 0.301653 0
M  V30 3538 H 308.008 -3.86377 -1.31061 0
M  V30 3539 H 306.683 -4.1544 -0.195504 0
M  V30 3540 H 305.26 -3.26708 -1.79767 0
M  V30 3541 N 307.445 0.0818655 -1.57387 0
M  V30 3542 C 308.691 0.784074 -1.8703 0
M  V30 3543 C 309.024 1.77729 -0.782689 0
M  V30 3544 O 308.299 1.93384 0.208051 0
M  V30 3545 C 308.582 1.50105 -3.27323 0
M  V30 3546 C 308.435 0.524925 -4.46727 0
M  V30 3547 C 309.754 2.44843 -3.65705 0
M  V30 3548 H 306.873 0.283582 -0.680257 0
M  V30 3549 H 309.515 0.0474352 -1.89941 0
M  V30 3550 H 307.665 2.12897 -3.24972 0
M  V30 3551 H 309.337 -0.0970111 -4.61198 0
M  V30 3552 H 307.58 -0.160606 -4.33503 0
M  V30 3553 H 308.251 1.064 -5.41648 0
M  V30 3554 H 310.727 1.92135 -3.69085 0
M  V30 3555 H 309.603 2.92018 -4.64776 0
M  V30 3556 H 309.864 3.29197 -2.95096 0
M  V30 3557 N 308.923 1.53595 0.353017 0
M  V30 3558 C 310.148 1.7462 1.11904 0
M  V30 3559 C 310.573 0.479721 1.8188 0
M  V30 3560 O 309.931 -0.567066 1.72204 0
M  V30 3561 C 309.979 2.92029 2.11545 0
M  V30 3562 O 309.083 2.61516 3.18878 0
M  V30 3563 H 308.424 0.579531 0.324099 0
M  V30 3564 H 310.954 2.00525 0.406301 0
M  V30 3565 H 310.964 3.18551 2.5493 0
M  V30 3566 H 309.639 3.83888 1.60008 0
M  V30 3567 H 308.216 2.45852 2.80377 0
M  V30 3568 N 310.401 -0.613514 1.45168 0
M  V30 3569 C 311.648 -1.37268 1.48875 0
M  V30 3570 C 311.976 -1.94077 0.128161 0
M  V30 3571 O 311.231 -1.75178 -0.872416 0
M  V30 3572 C 311.53 -2.54347 2.51083 0
M  V30 3573 C 311.196 -2.1572 3.95949 0
M  V30 3574 C 309.858 -2.04899 4.35396 0
M  V30 3575 C 312.21 -1.85485 4.87078 0
M  V30 3576 C 309.538 -1.62057 5.63875 0
M  V30 3577 C 311.89 -1.4413 6.15962 0
M  V30 3578 C 310.554 -1.31863 6.54346 0
M  V30 3579 H 309.824 -0.502299 0.544773 0
M  V30 3580 H 312.471 -0.694021 1.78481 0
M  V30 3581 H 310.776 -3.27524 2.15024 0
M  V30 3582 H 312.473 -3.12577 2.51191 0
M  V30 3583 H 309.063 -2.25066 3.64751 0
M  V30 3584 H 313.247 -1.92745 4.57343 0
M  V30 3585 H 308.503 -1.51177 5.92415 0
M  V30 3586 H 312.677 -1.19778 6.86022 0
M  V30 3587 H 310.304 -0.984392 7.538 0
M  V30 3588 N 311.879 -1.3236 -0.855495 0
M  V30 3589 C 313.125 -1.23054 -1.612 0
M  V30 3590 C 313.458 0.207404 -1.93089 0
M  V30 3591 O 312.733 1.14432 -1.57275 0
M  V30 3592 C 313.016 -2.08937 -2.93287 0
M  V30 3593 C 312.869 -3.61105 -2.68185 0
M  V30 3594 C 314.188 -1.94986 -3.94549 0
M  V30 3595 H 311.307 -0.448364 -0.584926 0
M  V30 3596 H 313.949 -1.62297 -0.987917 0
M  V30 3597 H 312.099 -1.75599 -3.46551 0
M  V30 3598 H 313.771 -4.04652 -2.21483 0
M  V30 3599 H 312.014 -3.83813 -2.02164 0
M  V30 3600 H 312.685 -4.16522 -3.62234 0
M  V30 3601 H 315.161 -2.24189 -3.5054 0
M  V30 3602 H 314.037 -2.57356 -4.84829 0
M  V30 3603 H 314.298 -0.917263 -4.3248 0
M  V30 3604 N 313.357 1.07166 -1.15556 0
M  V30 3605 C 314.289 2.14341 -0.811815 0
M  V30 3606 C 315.302 1.61835 0.177015 0
M  V30 3607 O 316.491 1.78439 -0.0464996 0
M  V30 3608 C 313.591 3.38387 -0.186481 0
M  V30 3609 C 312.764 4.20238 -1.21321 0
M  V30 3610 C 311.823 5.2266 -0.609302 0
M  V30 3611 O 310.849 5.54719 -1.27576 0
M  V30 3612 N 312.051 5.77306 0.608099 0
M  V30 3613 H 314.816 2.44431 -1.73417 0
M  V30 3614 H 312.377 1.23089 -1.0517 0
M  V30 3615 H 314.369 4.04044 0.230339 0
M  V30 3616 H 312.939 3.05994 0.639249 0
M  V30 3617 H 312.159 3.50369 -1.80652 0
M  V30 3618 H 313.447 4.71736 -1.90638 0
M  V30 3619 H 312.845 5.53513 1.1679 0
M  V30 3620 H 311.402 6.44583 0.96725 0
M  V30 3621 N 314.835 0.952656 1.25548 0
M  V30 3622 C 316.06 0.623025 1.97821 0
M  V30 3623 C 316.485 -0.7976 1.70352 0
M  V30 3624 O 315.843 -1.53905 0.958283 0
M  V30 3625 C 315.891 0.885532 3.49558 0
M  V30 3626 O 314.995 -0.0366641 4.12384 0
M  V30 3627 H 314.336 0.237082 0.620232 0
M  V30 3628 H 316.866 1.27871 1.59719 0
M  V30 3629 H 316.876 0.811009 3.99858 0
M  V30 3630 H 315.551 1.92094 3.6888 0
M  V30 3631 H 314.128 0.0898954 3.72792 0
M  V30 3632 N 316.313 -1.40141 0.720998 0
M  V30 3633 C 317.243 -2.33339 0.0867621 0
M  V30 3634 C 318.224 -1.53178 -0.739622 0
M  V30 3635 O 319.409 -1.81625 -0.687449 0
M  V30 3636 C 316.539 -3.37194 -0.831728 0
M  V30 3637 C 315.493 -4.27857 -0.110558 0
M  V30 3638 C 314.819 -5.22294 -1.14513 0
M  V30 3639 C 316.119 -5.11872 1.0385 0
M  V30 3640 H 317.813 -2.86626 0.865219 0
M  V30 3641 H 315.359 -1.37814 0.417516 0
M  V30 3642 H 317.312 -4.01335 -1.28485 0
M  V30 3643 H 316.036 -2.82314 -1.64214 0
M  V30 3644 H 314.695 -3.65176 0.322797 0
M  V30 3645 H 314.343 -4.63717 -1.94874 0
M  V30 3646 H 314.043 -5.83797 -0.667446 0
M  V30 3647 H 315.567 -5.89312 -1.59824 0
M  V30 3648 H 316.981 -5.69436 0.664482 0
M  V30 3649 H 315.378 -5.82445 1.4449 0
M  V30 3650 H 316.448 -4.4753 1.86668 0
M  V30 3651 N 317.792 -0.46758 -1.50504 0
M  V30 3652 C 319.208 -0.121533 -1.59137 0
M  V30 3653 C 319.408 1.3717 -1.47603 0
M  V30 3654 O 318.464 2.14464 -1.33272 0
M  V30 3655 C 319.777 -0.6686 -2.93173 0
M  V30 3656 C 321.325 -0.631716 -3.06559 0
M  V30 3657 C 321.8 -1.15627 -4.43164 0
M  V30 3658 N 323.291 -1.11553 -4.49567 0
M  V30 3659 C 324.026 -1.49195 -5.5365 0
M  V30 3660 N 323.522 -1.94269 -6.65005 0
M  V30 3661 N 325.315 -1.4082 -5.44175 0
M  V30 3662 H 317.466 -1.4388 -1.56245 0
M  V30 3663 H 319.729 -0.594784 -0.738198 0
M  V30 3664 H 319.435 -1.71453 -3.07078 0
M  V30 3665 H 319.309 -0.11021 -3.77039 0
M  V30 3666 H 321.696 0.405297 -2.92304 0
M  V30 3667 H 321.777 -1.22687 -2.24458 0
M  V30 3668 H 321.421 -2.1919 -4.58168 0
M  V30 3669 H 321.351 -0.537365 -5.23851 0
M  V30 3670 H 323.842 -0.784895 -3.69659 0
M  V30 3671 H 324.155 -2.21148 -7.40482 0
M  V30 3672 H 322.5 -1.98219 -6.66134 0
M  V30 3673 H 325.691 -1.0545 -4.56068 0
M  V30 3674 H 325.864 -1.70481 -6.25172 0
M  V30 3675 N 319.27 1.56325 -0.20005 0
M  V30 3676 C 320.518 1.97329 0.436547 0
M  V30 3677 C 320.839 1.08826 1.61808 0
M  V30 3678 O 320.109 0.160604 1.95241 0
M  V30 3679 H 318.689 0.728714 0.164272 0
M  V30 3680 H 321.351 1.92761 -0.287937 0
M  V30 3681 H 320.447 3.02264 0.777353 0
M  V30 3682 N 320.748 -0.0735177 1.57428 0
M  V30 3683 C 321.997 -0.771809 1.86349 0
M  V30 3684 C 322.31 -1.78828 0.792452 0
M  V30 3685 O 323.516 -2.53602 0.96945 0
M  V30 3686 C 321.972 -1.42358 3.30548 0
M  V30 3687 C 321.58 -0.445761 4.45777 0
M  V30 3688 C 323.324 -2.10434 3.6867 0
M  V30 3689 C 321.231 -1.10335 5.81016 0
M  V30 3690 H 320.161 -0.291999 0.695164 0
M  V30 3691 H 322.812 -0.0250749 1.83483 0
M  V30 3692 H 321.194 -2.21852 3.28021 0
M  V30 3693 H 322.368 0.319239 4.59693 0
M  V30 3694 H 320.683 0.130457 4.16196 0
M  V30 3695 H 323.28 -2.60405 4.67004 0
M  V30 3696 H 323.623 -2.90298 2.98383 0
M  V30 3697 H 324.156 -1.37773 3.7318 0
M  V30 3698 H 320.895 -0.345061 6.54591 0
M  V30 3699 H 320.415 -1.83925 5.70904 0
M  V30 3700 H 322.094 -1.62367 6.26295 0
M  V30 3701 N 322.226 -1.5378 -0.344866 0
M  V30 3702 C 323.475 -1.7018 -1.08267 0
M  V30 3703 C 323.788 -0.471 -1.89845 0
M  V30 3704 O 324.994 -0.515917 -2.66553 0
M  V30 3705 C 323.45 -3.00923 -1.97417 0
M  V30 3706 C 323.058 -4.31335 -1.21053 0
M  V30 3707 C 324.802 -3.26688 -2.71063 0
M  V30 3708 C 322.709 -5.53153 -2.09225 0
M  V30 3709 H 321.639 -0.634138 -0.407903 0
M  V30 3710 H 324.29 -1.8028 -0.342246 0
M  V30 3711 H 322.672 -2.84676 -2.75274 0
M  V30 3712 H 323.846 -4.58281 -0.481159 0
M  V30 3713 H 322.161 -4.12173 -0.591813 0
M  V30 3714 H 324.758 -4.1489 -3.37299 0
M  V30 3715 H 325.101 -2.43639 -3.37558 0
M  V30 3716 H 325.634 -3.43705 -2.0028 0
M  V30 3717 H 322.373 -6.38741 -1.47274 0
M  V30 3718 H 321.893 -5.30458 -2.79955 0
M  V30 3719 H 323.572 -5.88744 -2.68308 0
M  V30 3720 N 323.704 0.605807 -1.45491 0
M  V30 3721 C 324.952 1.36207 -1.49305 0
M  V30 3722 C 325.273 1.94519 -0.136863 0
M  V30 3723 O 324.543 1.77261 0.833983 0
M  V30 3724 H 323.123 0.50565 -0.549843 0
M  V30 3725 H 325.785 0.711239 -1.81459 0
M  V30 3726 H 324.881 2.18058 -2.23287 0
M  V30 3727 N 325.182 1.32811 0.848464 0
M  V30 3728 C 326.112 1.24882 1.97299 0
M  V30 3729 C 327.093 0.131357 1.69592 0
M  V30 3730 O 328.278 0.319553 1.91553 0
M  V30 3731 C 325.408 0.97746 3.33261 0
M  V30 3732 C 324.362 2.05682 3.75338 0
M  V30 3733 C 323.688 1.63777 5.09 0
M  V30 3734 C 324.988 3.47254 3.90144 0
M  V30 3735 H 326.682 2.18966 2.04191 0
M  V30 3736 H 324.228 1.05413 0.981029 0
M  V30 3737 H 326.181 0.908513 4.1149 0
M  V30 3738 H 324.905 0.000980011 3.266 0
M  V30 3739 H 323.564 2.11603 2.99366 0
M  V30 3740 H 323.212 0.648569 4.98801 0
M  V30 3741 H 322.912 2.36 5.38124 0
M  V30 3742 H 324.436 1.5833 5.89715 0
M  V30 3743 H 325.85 3.43888 4.58709 0
M  V30 3744 H 324.247 4.1788 4.30693 0
M  V30 3745 H 325.317 3.86462 2.92874 0
M  V30 3746 N 326.66 -1.06551 1.16123 0
M  V30 3747 C 327.909 -1.78687 0.935622 0
M  V30 3748 C 328.222 -1.88056 -0.538001 0
M  V30 3749 O 329.428 -2.56794 -0.88143 0
M  V30 3750 C 327.884 -3.21143 1.62466 0
M  V30 3751 C 327.492 -3.19949 3.13587 0
M  V30 3752 C 329.236 -3.9783 1.48092 0
M  V30 3753 C 327.143 -4.57108 3.75241 0
M  V30 3754 H 326.073 -0.669712 0.346412 0
M  V30 3755 H 328.724 -1.19534 1.39226 0
M  V30 3756 H 327.106 -3.80539 1.09572 0
M  V30 3757 H 328.28 -2.70151 3.73303 0
M  V30 3758 H 326.595 -2.5676 3.27816 0
M  V30 3759 H 329.192 -4.99217 1.91538 0
M  V30 3760 H 329.535 -4.14078 0.429507 0
M  V30 3761 H 330.068 -3.4495 1.98127 0
M  V30 3762 H 326.807 -4.46065 4.80319 0
M  V30 3763 H 326.327 -5.07111 3.20309 0
M  V30 3764 H 328.006 -5.26069 3.76644 0
M  V30 3765 N 328.138 -0.959301 -1.25041 0
M  V30 3766 C 329.086 -0.474437 -2.2771 0
M  V30 3767 C 330.08 0.457697 -1.631 0
M  V30 3768 O 331.286 0.333912 -1.76876 0
M  V30 3769 H 327.661 -0.134936 -0.739795 0
M  V30 3770 H 329.632 -1.35251 -2.65988 0
M  V30 3771 C 328.381 0.227884 -3.46952 0
M  V30 3772 H 327.704 -0.480248 -3.96905 0
M  V30 3773 H 329.144 0.531091 -4.20661 0
M  V30 3774 C 327.603 1.452 -3.04004 0
M  V30 3775 O 328.133 2.54949 -3.10426 0
M  V30 3776 N 326.339 1.31502 -2.59144 0
M  V30 3777 H 325.886 0.422065 -2.54119 0
M  V30 3778 H 325.844 2.13521 -2.30773 0
M  V30 3779 N 329.616 1.39756 -0.72842 0
M  V30 3780 C 330.566 2.2792 -0.0603424 0
M  V30 3781 C 331.55 1.43922 0.719399 0
M  V30 3782 O 332.742 1.66895 0.589489 0
M  V30 3783 C 329.871 3.32582 0.851104 0
M  V30 3784 C 328.957 4.24049 0.0658641 0
M  V30 3785 N 329.348 4.96653 -0.957578 0
M  V30 3786 C 327.646 4.45013 0.296509 0
M  V30 3787 C 328.347 5.63836 -1.43052 0
M  V30 3788 N 327.323 5.38397 -0.750315 0
M  V30 3789 H 331.125 2.81504 -0.84455 0
M  V30 3790 H 328.639 1.5236 -0.562155 0
M  V30 3791 H 330.636 3.94603 1.34514 0
M  V30 3792 H 329.296 2.80558 1.63454 0
M  V30 3793 H 330.307 5.00297 -1.33877 0
M  V30 3794 H 326.984 4.03943 1.05527 0
M  V30 3795 H 328.374 6.31974 -2.28163 0
M  V30 3796 N 331.094 0.475555 1.50254 0
M  V30 3797 C 332.041 -0.316293 2.28622 0
M  V30 3798 C 333.011 -0.983227 1.33873 0
M  V30 3799 O 334.196 -0.994805 1.62814 0
M  V30 3800 C 331.336 -1.38975 3.1588 0
M  V30 3801 C 330.449 -0.737146 4.25664 0
M  V30 3802 C 329.584 -1.78887 5.00173 0
M  V30 3803 C 328.623 -1.11676 6.01826 0
M  V30 3804 N 327.76 -2.11154 6.69596 0
M  V30 3805 H 332.6 0.358297 2.95838 0
M  V30 3806 H 330.137 0.188541 1.45887 0
M  V30 3807 H 332.095 -2.02383 3.64825 0
M  V30 3808 H 330.725 -2.03344 2.50701 0
M  V30 3809 H 329.777 0.0096065 3.80399 0
M  V30 3810 H 331.089 -0.206816 4.98371 0
M  V30 3811 H 330.243 -2.49865 5.52859 0
M  V30 3812 H 328.982 -2.35302 4.27182 0
M  V30 3813 H 327.987 -0.392633 5.48396 0
M  V30 3814 H 329.212 -0.55945 6.76792 0
M  V30 3815 H 327.158 -2.66577 5.99394 0
M  V30 3816 H 327.075 -1.63118 7.38193 0
M  V30 3817 H 328.343 -2.81497 7.26897 0
M  V30 3818 N 332.573 -1.56217 0.208337 0
M  V30 3819 C 333.503 -2.22694 -0.702116 0
M  V30 3820 C 334.484 -1.19432 -1.2112 0
M  V30 3821 O 335.669 -1.47978 -1.25762 0
M  V30 3822 C 332.799 -2.8966 -1.9161 0
M  V30 3823 C 331.753 -3.9928 -1.5414 0
M  V30 3824 C 331.079 -4.53476 -2.83308 0
M  V30 3825 C 332.379 -5.17012 -0.741339 0
M  V30 3826 H 334.073 -2.99034 -0.147898 0
M  V30 3827 H 331.619 -1.43831 -0.0696951 0
M  V30 3828 H 333.572 -3.34852 -2.55836 0
M  V30 3829 H 332.296 -2.10746 -2.49507 0
M  V30 3830 H 330.955 -3.54799 -0.922668 0
M  V30 3831 H 330.603 -3.71308 -3.39322 0
M  V30 3832 H 330.303 -5.27451 -2.58976 0
M  V30 3833 H 331.827 -5.01378 -3.485 0
M  V30 3834 H 333.241 -5.58667 -1.28699 0
M  V30 3835 H 331.638 -5.97137 -0.595627 0
M  V30 3836 H 332.708 -4.8423 0.254851 0
M  V30 3837 N 334.051 0.0651679 -1.57465 0
M  V30 3838 C 335.3 0.761916 -1.86756 0
M  V30 3839 C 335.613 1.78406 -0.801925 0
M  V30 3840 O 336.819 2.53084 -0.982885 0
M  V30 3841 C 335.275 1.40603 -3.31299 0
M  V30 3842 C 334.883 0.422115 -4.46007 0
M  V30 3843 C 336.627 2.08476 -3.69781 0
M  V30 3844 C 334.534 1.07252 -5.81593 0
M  V30 3845 H 333.464 0.288308 -0.696702 0
M  V30 3846 H 336.115 0.015344 -1.83494 0
M  V30 3847 H 334.497 2.20109 -3.29193 0
M  V30 3848 H 335.671 -0.343613 -4.59517 0
M  V30 3849 H 333.986 -0.152527 -4.16121 0
M  V30 3850 H 336.583 2.57925 -4.68379 0
M  V30 3851 H 336.926 2.88712 -2.99919 0
M  V30 3852 H 337.459 1.35792 -3.73905 0
M  V30 3853 H 334.198 0.310342 -6.54765 0
M  V30 3854 H 333.718 1.80895 -5.71872 0
M  V30 3855 H 335.397 1.59043 -6.27148 0
M  V30 3856 N 335.529 1.53961 0.336706 0
M  V30 3857 C 336.806 1.62171 1.09361 0
M  V30 3858 C 337.186 0.447263 2.06307 0
M  V30 3859 O 336.534 -0.559802 2.21537 0
M  V30 3860 C 336.744 2.98565 1.80721 0
M  V30 3861 C 338.092 3.54157 2.34218 0
M  V30 3862 O 339.116 3.00784 1.90807 0
M  V30 3863 O 337.975 4.47528 3.13657 0
M  V30 3864 H 335.069 0.6562 0.503319 0
M  V30 3865 H 337.615 1.66307 0.33765 0
M  V30 3866 H 336.387 3.75482 1.10132 0
M  V30 3867 H 336.01 2.9805 2.63158 0
M  V30 3868 N 337.007 -0.598083 1.45811 0
M  V30 3869 C 337.937 -1.71873 1.58057 0
M  V30 3870 C 338.918 -1.64533 0.431615 0
M  V30 3871 O 340.103 -1.82787 0.65595 0
M  V30 3872 C 337.233 -3.10495 1.55597 0
M  V30 3873 C 336.187 -3.32654 2.69305 0
M  V30 3874 C 335.513 -4.71646 2.51902 0
M  V30 3875 C 336.813 -3.21981 4.11248 0
M  V30 3876 H 338.507 -1.61881 2.51863 0
M  V30 3877 H 336.053 -0.777372 1.21214 0
M  V30 3878 H 338.006 -3.88699 1.6276 0
M  V30 3879 H 336.73 -3.2135 0.583255 0
M  V30 3880 H 335.389 -2.56843 2.61586 0
M  V30 3881 H 335.037 -4.79246 1.52748 0
M  V30 3882 H 334.737 -4.87426 3.2816 0
M  V30 3883 H 336.261 -5.52038 2.60933 0
M  V30 3884 H 337.675 -3.90049 4.20161 0
M  V30 3885 H 336.072 -3.49289 4.87972 0
M  V30 3886 H 337.142 -2.1928 4.32486 0
M  V30 3887 N 338.485 -1.33259 -0.841409 0
M  V30 3888 C 339.725 -1.25902 -1.61022 0
M  V30 3889 C 340.089 0.173325 -1.91216 0
M  V30 3890 O 341.29 0.370824 -2.6623 0
M  V30 3891 C 339.561 -2.10735 -2.88662 0
M  V30 3892 S 341.12 -2.20541 -3.79351 0
M  V30 3893 H 337.938 -0.447958 -0.552137 0
M  V30 3894 H 340.54 -1.68263 -0.995382 0
M  V30 3895 H 339.244 -3.1384 -2.64448 0
M  V30 3896 H 338.775 -1.69201 -3.55154 0
M  V30 3897 H 340.79 -1.36462 -4.77067 0
M  V30 3898 N 339.963 1.05934 -1.16686 0
M  V30 3899 C 341.21 1.788 -0.950622 0
M  V30 3900 C 341.538 1.87384 0.521305 0
M  V30 3901 O 340.793 1.36438 1.40297 0
M  V30 3902 C 341.092 3.23105 -1.52767 0
M  V30 3903 C 340.758 3.34594 -3.02254 0
M  V30 3904 C 339.42 3.37437 -3.43059 0
M  V30 3905 C 341.772 3.36219 -3.98254 0
M  V30 3906 C 339.1 3.39525 -4.78477 0
M  V30 3907 C 341.452 3.39845 -5.33562 0
M  V30 3908 C 340.116 3.40971 -5.73842 0
M  V30 3909 H 339.386 0.654275 -0.347857 0
M  V30 3910 H 342.033 1.24555 -1.45459 0
M  V30 3911 H 340.338 3.80227 -0.94524 0
M  V30 3912 H 342.035 3.7809 -1.336 0
M  V30 3913 H 338.625 3.3309 -2.6972 0
M  V30 3914 H 342.809 3.33231 -3.67792 0
M  V30 3915 H 338.065 3.38703 -5.09009 0
M  V30 3916 H 342.239 3.4005 -6.07733 0
M  V30 3917 H 339.866 3.42342 -6.78753 0
M  V30 3918 N 341.441 0.965919 1.2453 0
M  V30 3919 C 342.669 0.644385 1.96609 0
M  V30 3920 C 343.084 -0.785823 1.71669 0
M  V30 3921 O 342.441 -1.52703 0.999399 0
M  V30 3922 C 342.492 0.907375 3.49927 0
M  V30 3923 O 342.213 2.28136 3.74013 0
M  V30 3924 C 343.714 0.599784 4.39224 0
M  V30 3925 H 340.934 0.240588 0.626385 0
M  V30 3926 H 343.478 1.29337 1.58405 0
M  V30 3927 H 341.633 0.304631 3.862 0
M  V30 3928 H 342.047 2.36002 4.68405 0
M  V30 3929 H 343.521 0.834263 5.45659 0
M  V30 3930 H 343.998 -0.465921 4.36722 0
M  V30 3931 H 344.604 1.18235 4.08535 0
M  V30 3932 N 342.919 -1.39368 0.735821 0
M  V30 3933 C 343.867 -2.32443 0.0855131 0
M  V30 3934 C 344.861 -1.53104 -0.724954 0
M  V30 3935 O 346.067 -1.68762 -0.626047 0
M  V30 3936 H 342.442 -0.751948 0.00885257 0
M  V30 3937 H 344.413 -2.84916 0.886883 0
M  V30 3938 C 343.162 -3.38206 -0.806983 0
M  V30 3939 H 342.485 -3.99335 -0.19274 0
M  V30 3940 H 343.925 -4.05779 -1.2296 0
M  V30 3941 C 342.384 -2.75321 -1.94165 0
M  V30 3942 O 342.914 -2.63231 -3.03435 0
M  V30 3943 N 341.12 -2.33396 -1.73132 0
M  V30 3944 H 340.667 -2.4343 -0.842596 0
M  V30 3945 H 340.625 -1.91661 -2.49225 0
M  V30 3946 N 344.397 -0.483516 -1.5 0
M  V30 3947 C 345.36 0.292965 -2.2732 0
M  V30 3948 C 346.36 0.909499 -1.32608 0
M  V30 3949 O 347.55 0.776745 -1.55924 0
M  V30 3950 C 344.682 1.41854 -3.09984 0
M  V30 3951 H 345.875 -0.385289 -2.97415 0
M  V30 3952 H 343.428 -0.237942 -1.54478 0
M  V30 3953 H 344.163 2.13148 -2.44414 0
M  V30 3954 H 343.948 0.982114 -3.79601 0
M  V30 3955 H 345.438 1.96597 -3.68429 0
M  V30 3956 N 345.875 1.56104 -0.216619 0
M  V30 3957 C 347.105 2.02269 0.420802 0
M  V30 3958 C 347.513 1.09575 1.5424 0
M  V30 3959 O 346.856 0.0967308 1.83445 0
M  V30 3960 C 346.918 3.44784 1.01806 0
M  V30 3961 C 346.582 4.56988 0.0325154 0
M  V30 3962 C 347.579 5.14225 -0.766055 0
M  V30 3963 C 345.264 5.02228 -0.0848092 0
M  V30 3964 C 347.258 6.15169 -1.6687 0
M  V30 3965 C 344.945 6.03011 -0.990994 0
M  V30 3966 C 345.943 6.59357 -1.78149 0
M  V30 3967 O 345.631 7.58179 -2.67245 0
M  V30 3968 H 345.363 0.667353 0.107776 0
M  V30 3969 H 347.917 2.02747 -0.329034 0
M  V30 3970 H 346.147 3.41359 1.81689 0
M  V30 3971 H 347.836 3.74626 1.56237 0
M  V30 3972 H 348.602 4.80126 -0.685836 0
M  V30 3973 H 344.481 4.58054 0.520349 0
M  V30 3974 H 348.025 6.59076 -2.28615 0
M  V30 3975 H 343.922 6.36532 -1.07225 0
M  V30 3976 H 344.69 7.75682 -2.61265 0
M  V30 3977 N 347.353 -0.0568162 1.57498 0
M  V30 3978 C 348.599 -0.75422 1.88253 0
M  V30 3979 C 348.932 -1.76461 0.810865 0
M  V30 3980 O 348.207 -1.93691 -0.177259 0
M  V30 3981 C 348.49 -1.44878 3.2967 0
M  V30 3982 C 348.343 -0.453789 4.47505 0
M  V30 3983 C 349.662 -2.38994 3.69554 0
M  V30 3984 H 346.781 -0.272724 0.684683 0
M  V30 3985 H 349.423 -0.0172113 1.89992 0
M  V30 3986 H 347.573 -2.077 3.28318 0
M  V30 3987 H 349.245 0.170371 4.60985 0
M  V30 3988 H 347.488 0.229552 4.33192 0
M  V30 3989 H 348.159 -0.977699 5.43273 0
M  V30 3990 H 350.635 -1.86239 3.72095 0
M  V30 3991 H 349.511 -2.84587 4.69363 0
M  V30 3992 H 349.772 -3.24461 3.00296 0
M  V30 3993 N 348.832 -1.54138 -0.328536 0
M  V30 3994 C 350.079 -1.72105 -1.06706 0
M  V30 3995 C 350.407 -0.492111 -1.88171 0
M  V30 3996 O 349.662 0.526153 -1.88494 0
M  V30 3997 C 349.961 -2.9457 -2.02393 0
M  V30 3998 C 349.627 -4.29544 -1.37122 0
M  V30 3999 C 348.289 -4.6624 -1.19052 0
M  V30 4000 C 350.641 -5.1333 -0.902331 0
M  V30 4001 C 347.969 -5.84325 -0.527331 0
M  V30 4002 C 350.321 -6.32094 -0.252988 0
M  V30 4003 C 348.985 -6.67473 -0.0600901 0
M  V30 4004 H 348.255 -0.629775 -0.390466 0
M  V30 4005 H 350.902 -1.88372 -0.34473 0
M  V30 4006 H 349.207 -2.72969 -2.81061 0
M  V30 4007 H 350.904 -3.05665 -2.59557 0
M  V30 4008 H 347.494 -4.0067 -1.52188 0
M  V30 4009 H 351.678 -4.855 -1.02974 0
M  V30 4010 H 346.934 -6.103 -0.366634 0
M  V30 4011 H 351.108 -6.96299 0.118366 0
M  V30 4012 H 348.735 -7.58832 0.455828 0
M  V30 4013 N 350.31 0.590341 -1.46126 0
M  V30 4014 C 351.258 1.72105 -1.5647 0
M  V30 4015 C 352.252 1.63756 -0.433612 0
M  V30 4016 O 353.458 1.69342 -0.610194 0
M  V30 4017 H 349.833 0.568889 -0.491802 0
M  V30 4018 H 351.804 1.6051 -2.51553 0
M  V30 4019 C 350.553 3.10493 -1.56491 0
M  V30 4020 H 349.876 3.17583 -2.4286 0
M  V30 4021 H 351.316 3.8939 -1.67785 0
M  V30 4022 C 349.775 3.3563 -0.292231 0
M  V30 4023 O 350.305 3.96875 0.620739 0
M  V30 4024 N 348.511 2.90026 -0.182523 0
M  V30 4025 H 348.058 2.40367 -0.926356 0
M  V30 4026 H 348.016 3.07218 0.668152 0
M  V30 4027 N 351.788 1.33704 0.83433 0
M  V30 4028 C 352.738 1.20899 1.93306 0
M  V30 4029 C 353.722 0.110783 1.60518 0
M  V30 4030 O 354.914 0.339331 1.73717 0
M  V30 4031 C 352.043 0.955018 3.29749 0
M  V30 4032 C 351.129 2.09587 3.68692 0
M  V30 4033 N 351.52 3.34621 3.79292 0
M  V30 4034 C 349.818 2.00358 3.98463 0
M  V30 4035 C 350.519 4.09472 4.13167 0
M  V30 4036 N 349.495 3.37954 4.25779 0
M  V30 4037 H 353.297 2.15665 1.99664 0
M  V30 4038 H 350.811 1.25777 1.02732 0
M  V30 4039 H 352.808 0.844208 4.08263 0
M  V30 4040 H 351.468 0.0159317 3.24696 0
M  V30 4041 H 352.479 3.69313 3.63082 0
M  V30 4042 H 349.156 1.14137 4.01596 0
M  V30 4043 H 350.546 5.17391 4.28668 0
M  V30 4044 N 353.266 -1.05314 1.17247 0
M  V30 4045 C 354.512 -1.78557 0.961513 0
M  V30 4046 C 354.845 -1.87419 -0.508697 0
M  V30 4047 O 354.12 -1.37307 -1.37757 0
M  V30 4048 C 354.403 -3.22514 1.60176 0
M  V30 4049 C 354.256 -3.21673 3.14399 0
M  V30 4050 C 355.575 -4.20318 1.30463 0
M  V30 4051 H 352.694 -0.6482 0.350723 0
M  V30 4052 H 355.336 -1.23102 1.44727 0
M  V30 4053 H 353.486 -3.69867 1.18871 0
M  V30 4054 H 355.158 -2.82405 3.64753 0
M  V30 4055 H 353.401 -2.60048 3.47214 0
M  V30 4056 H 354.072 -4.23271 3.54324 0
M  V30 4057 H 356.548 -3.81454 1.66229 0
M  V30 4058 H 355.424 -5.19289 1.77848 0
M  V30 4059 H 355.685 -4.41526 0.22521 0
M  V30 4060 N 354.744 -0.972509 -1.24016 0
M  V30 4061 C 355.707 -0.511403 -2.23422 0
M  V30 4062 C 356.707 0.394679 -1.55881 0
M  V30 4063 O 357.897 0.189469 -1.73167 0
M  V30 4064 C 355.029 0.258769 -3.39916 0
M  V30 4065 H 356.222 -1.39024 -2.6573 0
M  V30 4066 H 353.775 -0.757585 -1.36713 0
M  V30 4067 H 354.51 1.1545 -3.03054 0
M  V30 4068 H 354.295 -0.391522 -3.9014 0
M  V30 4069 H 355.785 0.570244 -4.13688 0
M  V30 4070 N 356.222 1.38976 -0.743202 0
M  V30 4071 C 357.447 2.05161 -0.303936 0
M  V30 4072 C 357.872 1.55677 1.05576 0
M  V30 4073 O 357.23 0.704131 1.67068 0
M  V30 4074 C 357.278 3.59138 -0.324373 0
M  V30 4075 O 356.382 4.06668 0.685204 0
M  V30 4076 H 355.723 0.649815 -0.136518 0
M  V30 4077 H 358.253 1.77852 -1.01142 0
M  V30 4078 H 358.263 4.07639 -0.171618 0
M  V30 4079 H 356.938 3.94515 -1.31647 0
M  V30 4080 H 355.515 3.69561 0.497913 0
M  V30 4081 N 357.7 0.491464 1.49741 0
M  V30 4082 C 358.947 -0.0564256 2.02421 0
M  V30 4083 C 359.275 -1.37872 1.37192 0
M  V30 4084 O 358.53 -1.89375 0.493508 0
M  V30 4085 C 358.829 -0.267329 3.56399 0
M  V30 4086 C 358.495 0.975775 4.40215 0
M  V30 4087 C 357.157 1.31655 4.62839 0
M  V30 4088 C 359.509 1.80251 4.89039 0
M  V30 4089 C 356.837 2.48375 5.31532 0
M  V30 4090 C 359.189 2.96116 5.59015 0
M  V30 4091 C 357.853 3.30585 5.79888 0
M  V30 4092 H 357.123 -0.0206476 0.740712 0
M  V30 4093 H 359.77 0.649686 1.80143 0
M  V30 4094 H 358.075 -1.05588 3.77304 0
M  V30 4095 H 359.772 -0.705549 3.94744 0
M  V30 4096 H 356.362 0.700315 4.2284 0
M  V30 4097 H 360.546 1.55239 4.71396 0
M  V30 4098 H 355.802 2.7533 5.45897 0
M  V30 4099 H 359.976 3.60509 5.95824 0
M  V30 4100 H 357.603 4.21132 6.32892 0
M  V30 4101 N 359.178 -1.55987 0.224894 0
M  V30 4102 C 360.455 -1.90232 -0.455083 0
M  V30 4103 C 360.835 -1.14269 -1.77499 0
M  V30 4104 O 360.183 -0.253079 -2.27094 0
M  V30 4105 C 360.393 -3.42993 -0.644758 0
M  V30 4106 C 361.741 -4.13821 -0.950669 0
M  V30 4107 O 362.765 -3.4861 -0.731423 0
M  V30 4108 O 361.624 -5.29128 -1.36695 0
M  V30 4109 H 358.718 -0.79108 -0.241084 0
M  V30 4110 H 361.264 -1.67581 0.267327 0
M  V30 4111 H 360.036 -3.90252 0.28613 0
M  V30 4112 H 359.659 -3.71434 -1.41853 0
M  V30 4113 N 360.656 0.0484629 -1.57525 0
M  V30 4114 C 361.603 1.05504 -2.05275 0
M  V30 4115 C 362.573 1.37084 -0.937927 0
M  V30 4116 O 363.758 1.47754 -1.2072 0
M  V30 4117 C 360.898 2.35676 -2.52093 0
M  V30 4118 C 360.011 2.10423 -3.77288 0
M  V30 4119 C 359.146 3.34327 -4.12794 0
M  V30 4120 C 358.185 3.04542 -5.30962 0
M  V30 4121 N 357.322 4.20841 -5.61994 0
M  V30 4122 H 362.162 0.640885 -2.91027 0
M  V30 4123 H 359.699 0.304854 -1.43906 0
M  V30 4124 H 361.657 3.11709 -2.77297 0
M  V30 4125 H 360.287 2.7485 -1.69285 0
M  V30 4126 H 359.339 1.24976 -3.59284 0
M  V30 4127 H 360.651 1.84438 -4.63448 0
M  V30 4128 H 359.805 4.1874 -4.39024 0
M  V30 4129 H 358.544 3.63408 -3.25247 0
M  V30 4130 H 357.549 2.18528 -5.04505 0
M  V30 4131 H 358.774 2.76758 -6.20146 0
M  V30 4132 H 356.72 4.4991 -4.77406 0
M  V30 4133 H 356.637 3.98212 -6.42622 0
M  V30 4134 H 357.905 5.06184 -5.92789 0
M  V30 4135 N 362.134 1.5431 0.320358 0
M  V30 4136 C 363.064 1.86912 1.3995 0
M  V30 4137 C 364.045 0.726211 1.53819 0
M  V30 4138 O 365.23 0.980233 1.67646 0
M  V30 4139 C 362.36 2.09932 2.7667 0
M  V30 4140 C 361.314 3.25776 2.77586 0
M  V30 4141 C 360.64 3.34173 4.17412 0
M  V30 4142 C 361.94 4.6335 2.41048 0
M  V30 4143 H 363.634 2.77292 1.12914 0
M  V30 4144 H 361.18 1.33421 0.541738 0
M  V30 4145 H 363.133 2.31324 3.52232 0
M  V30 4146 H 361.857 1.16304 3.0519 0
M  V30 4147 H 360.516 3.04276 2.04479 0
M  V30 4148 H 360.164 2.38098 4.43078 0
M  V30 4149 H 359.864 4.12033 4.18931 0
M  V30 4150 H 361.388 3.57803 4.94782 0
M  V30 4151 H 362.802 4.84602 3.06324 0
M  V30 4152 H 361.199 5.43782 2.53813 0
M  V30 4153 H 362.269 4.65381 1.36193 0
M  V30 4154 N 363.613 -0.582584 1.46437 0
M  V30 4155 C 364.862 -1.337 1.5102 0
M  V30 4156 C 365.175 -1.94891 0.166359 0
M  V30 4157 O 366.381 -2.71351 0.0899954 0
M  V30 4158 C 364.837 -2.42315 2.66104 0
M  V30 4159 C 364.445 -1.87427 4.06909 0
M  V30 4160 C 366.189 -3.19099 2.79958 0
M  V30 4161 C 364.096 -2.93672 5.13333 0
M  V30 4162 H 363.026 -0.502619 0.562041 0
M  V30 4163 H 365.677 -0.621701 1.72647 0
M  V30 4164 H 364.059 -3.16645 2.37807 0
M  V30 4165 H 365.233 -1.19639 4.44998 0
M  V30 4166 H 363.548 -1.2331 3.97723 0
M  V30 4167 H 366.145 -3.9839 3.56636 0
M  V30 4168 H 366.488 -3.71695 1.87479 0
M  V30 4169 H 367.021 -2.51875 3.07902 0
M  V30 4170 H 363.76 -2.45962 6.07604 0
M  V30 4171 H 363.28 -3.59948 4.79789 0
M  V30 4172 H 364.959 -3.5762 5.39182 0
M  V30 4173 N 365.091 -1.34144 -0.827227 0
M  V30 4174 C 366.024 -1.19707 -1.94282 0
M  V30 4175 C 367.002 -0.0897256 -1.62352 0
M  V30 4176 O 368.186 -0.254095 -1.8678 0
M  V30 4177 C 365.313 -0.838646 -3.28153 0
M  V30 4178 C 364.359 -1.95514 -3.79047 0
M  V30 4179 S 365.192 -3.56793 -3.99323 0
M  V30 4180 C 366.348 -3.22983 -5.36127 0
M  V30 4181 H 366.581 -2.1414 -2.06231 0
M  V30 4182 H 364.114 -1.19121 -0.982321 0
M  V30 4183 H 366.072 -0.638637 -4.05502 0
M  V30 4184 H 364.733 0.0872776 -3.13979 0
M  V30 4185 H 363.926 -1.658 -4.75948 0
M  V30 4186 H 363.528 -2.11241 -3.08631 0
M  V30 4187 H 365.82 -2.74531 -6.19386 0
M  V30 4188 H 366.763 -4.19008 -5.70822 0
M  V30 4189 H 367.171 -2.59276 -5.01434 0
M  V30 4190 N 366.569 1.04691 -1.17803 0
M  V30 4191 C 367.517 2.14665 -0.895635 0
M  V30 4192 C 368.511 1.68806 0.141679 0
M  V30 4193 O 369.717 1.79999 -0.00587914 0
M  V30 4194 H 366.092 0.701038 -0.272121 0
M  V30 4195 H 368.063 2.35685 -1.83017 0
M  V30 4196 C 366.812 3.45019 -0.430962 0
M  V30 4197 H 366.135 3.8071 -1.22064 0
M  V30 4198 H 367.575 4.23125 -0.272301 0
M  V30 4199 C 366.034 3.25943 0.852207 0
M  V30 4200 O 366.564 3.5296 1.91786 0
M  V30 4201 N 364.77 2.79304 0.802346 0
M  V30 4202 H 364.317 2.57518 -0.0650788 0
M  V30 4203 H 364.275 2.66921 1.66134 0
M  V30 4204 N 368.047 0.979072 1.23499 0
M  V30 4205 C 368.995 0.510604 2.26926 0
M  V30 4206 C 369.989 -0.431691 1.63807 0
M  V30 4207 O 371.195 -0.30573 1.77385 0
M  V30 4208 H 367.57 0.146688 0.737554 0
M  V30 4209 H 369.541 1.39466 2.63803 0
M  V30 4210 C 368.29 -0.172658 3.47271 0
M  V30 4211 H 367.613 0.543331 3.96091 0
M  V30 4212 H 369.053 -0.464101 4.21452 0
M  V30 4213 C 367.512 -1.40345 3.06276 0
M  V30 4214 O 368.042 -2.49978 3.14442 0
M  V30 4215 N 366.248 -1.27362 2.61203 0
M  V30 4216 H 365.795 -0.381584 2.54758 0
M  V30 4217 H 365.753 -2.09822 2.34141 0
M  V30 4218 N 369.525 -1.3858 0.750561 0
M  V30 4219 C 370.774 -1.99424 0.302172 0
M  V30 4220 C 371.087 -1.60254 -1.12152 0
M  V30 4221 O 372.293 -2.14046 -1.67023 0
M  V30 4222 C 370.749 -3.56558 0.489307 0
M  V30 4223 C 370.357 -4.04682 1.92189 0
M  V30 4224 C 372.101 -4.24374 0.103478 0
M  V30 4225 C 370.008 -5.54446 2.05775 0
M  V30 4226 H 368.938 -0.746046 0.10923 0
M  V30 4227 H 371.589 -1.58383 0.92667 0
M  V30 4228 H 369.971 -3.95472 -0.204329 0
M  V30 4229 H 371.145 -3.77065 2.64875 0
M  V30 4230 H 369.46 -3.4958 2.26236 0
M  V30 4231 H 372.057 -5.34384 0.183787 0
M  V30 4232 H 372.4 -4.05468 -0.943481 0
M  V30 4233 H 372.933 -3.90688 0.748854 0
M  V30 4234 H 369.672 -5.78252 3.08714 0
M  V30 4235 H 369.192 -5.83816 1.37546 0
M  V30 4236 H 370.871 -6.20099 1.84626 0
M  V30 4237 N 371.003 -0.499398 -1.49478 0
M  V30 4238 C 372.25 0.0456899 -2.02448 0
M  V30 4239 C 372.578 1.37142 -1.37921 0
M  V30 4240 O 371.833 1.89111 -0.503544 0
M  V30 4241 C 372.132 0.248424 -3.56536 0
M  V30 4242 C 371.798 -0.999107 -4.39692 0
M  V30 4243 C 370.46 -1.34108 -4.62135 0
M  V30 4244 C 372.812 -1.82842 -4.88076 0
M  V30 4245 C 370.14 -2.51191 -5.30208 0
M  V30 4246 C 372.492 -2.99076 -5.57437 0
M  V30 4247 C 371.156 -3.33655 -5.78127 0
M  V30 4248 H 370.426 0.0167191 -0.740811 0
M  V30 4249 H 373.073 -0.65923 -1.79795 0
M  V30 4250 H 371.378 1.03586 -3.77859 0
M  V30 4251 H 373.075 0.684605 -3.95113 0
M  V30 4252 H 369.665 -0.722729 -4.22463 0
M  V30 4253 H 373.849 -1.57737 -4.70566 0
M  V30 4254 H 369.105 -2.78221 -5.44429 0
M  V30 4255 H 373.279 -3.63664 -5.93904 0
M  V30 4256 H 370.906 -4.24483 -6.30649 0
M  V30 4257 N 372.481 1.55866 -0.233164 0
M  V30 4258 C 373.729 1.9821 0.394593 0
M  V30 4259 C 374.05 1.12234 1.59463 0
M  V30 4260 O 373.32 0.201981 1.94856 0
M  V30 4261 H 371.9 0.732034 0.148778 0
M  V30 4262 H 374.562 1.92107 -0.32876 0
M  V30 4263 H 373.658 3.03845 0.713063 0
M  V30 4264 N 373.959 -0.0401083 1.57549 0
M  V30 4265 C 375.205 -0.734211 1.89043 0
M  V30 4266 C 375.538 -1.75591 0.829535 0
M  V30 4267 O 374.813 -1.93868 -0.156706 0
M  V30 4268 C 375.096 -1.41374 3.31188 0
M  V30 4269 C 374.949 -0.406299 4.47961 0
M  V30 4270 C 376.268 -2.35061 3.72068 0
M  V30 4271 H 373.387 -0.265447 0.687537 0
M  V30 4272 H 376.029 0.00294087 1.9 0
M  V30 4273 H 374.179 -2.04206 3.30503 0
M  V30 4274 H 375.851 0.219255 4.60779 0
M  V30 4275 H 374.094 0.275485 4.32924 0
M  V30 4276 H 374.765 -0.920022 5.44279 0
M  V30 4277 H 377.241 -1.82282 3.74049 0
M  V30 4278 H 376.117 -2.79593 4.72355 0
M  V30 4279 H 376.378 -3.21258 3.0372 0
M  V30 4280 N 375.437 -1.54477 -0.31217 0
M  V30 4281 C 376.686 -1.72438 -1.04633 0
M  V30 4282 C 376.999 -0.511163 -1.88803 0
M  V30 4283 O 378.205 -0.572341 -2.65399 0
M  V30 4284 C 376.661 -3.05043 -1.9099 0
M  V30 4285 C 376.269 -4.33806 -1.11877 0
M  V30 4286 C 378.013 -3.32364 -2.64073 0
M  V30 4287 C 375.92 -5.57467 -1.97445 0
M  V30 4288 H 374.85 -0.642647 -0.394361 0
M  V30 4289 H 377.501 -1.80966 -0.303929 0
M  V30 4290 H 375.883 -2.90451 -2.69173 0
M  V30 4291 H 377.057 -4.59199 -0.383843 0
M  V30 4292 H 375.372 -4.13336 -0.504252 0
M  V30 4293 H 377.969 -4.21951 -3.28423 0
M  V30 4294 H 378.312 -2.50745 -3.32314 0
M  V30 4295 H 378.845 -3.47875 -1.92944 0
M  V30 4296 H 375.584 -6.41722 -1.33692 0
M  V30 4297 H 375.104 -5.36277 -2.6864 0
M  V30 4298 H 376.783 -5.94303 -2.5576 0
M  V30 4299 N 376.915 0.57481 -1.46744 0
M  V30 4300 C 377.848 1.69827 -1.52427 0
M  V30 4301 C 378.826 1.58151 -0.377744 0
M  V30 4302 O 380.01 1.79257 -0.58303 0
M  V30 4303 C 377.137 3.07943 -1.41027 0
M  V30 4304 C 376.183 3.38116 -2.59961 0
M  V30 4305 S 377.016 3.29313 -4.22272 0
M  V30 4306 C 378.172 4.69953 -4.13394 0
M  V30 4307 H 378.405 1.64748 -2.47478 0
M  V30 4308 H 375.938 0.754203 -1.34726 0
M  V30 4309 H 377.896 3.87619 -1.35137 0
M  V30 4310 H 376.557 3.10504 -0.473909 0
M  V30 4311 H 375.75 4.38762 -2.47999 0
M  V30 4312 H 375.352 2.66024 -2.62882 0
M  V30 4313 H 377.644 5.60517 -3.80562 0
M  V30 4314 H 378.587 4.86972 -5.14066 0
M  V30 4315 H 378.995 4.47174 -3.44522 0
M  V30 4316 N 378.394 1.34581 0.820102 0
M  V30 4317 C 379.619 1.30333 1.61332 0
M  V30 4318 C 380.044 -0.119339 1.87721 0
M  V30 4319 O 379.402 -1.08197 1.45475 0
M  V30 4320 C 379.45 2.10258 2.92957 0
M  V30 4321 O 378.554 1.47404 3.85157 0
M  V30 4322 H 377.895 0.447488 0.490561 0
M  V30 4323 H 380.425 1.77425 1.01889 0
M  V30 4324 H 380.435 2.21718 3.42498 0
M  V30 4325 H 379.11 3.13693 2.73074 0
M  V30 4326 H 377.687 1.44703 3.43679 0
M  V30 4327 N 379.872 -1.04064 1.18357 0
M  V30 4328 C 381.102 -1.80654 1.00238 0
M  V30 4329 C 381.51 -1.83713 -0.452362 0
M  V30 4330 O 380.853 -1.27135 -1.32599 0
M  V30 4331 C 380.915 -3.27582 1.48088 0
M  V30 4332 C 380.579 -3.48184 2.96002 0
M  V30 4333 C 381.576 -3.39372 3.93856 0
M  V30 4334 C 379.261 -3.7478 3.34433 0
M  V30 4335 C 381.255 -3.5686 5.28138 0
M  V30 4336 C 378.942 -3.91915 4.68877 0
M  V30 4337 C 379.94 -3.82956 5.65539 0
M  V30 4338 O 379.628 -3.996 6.97549 0
M  V30 4339 H 379.36 -0.575751 0.354241 0
M  V30 4340 H 381.914 -1.32044 1.57333 0
M  V30 4341 H 380.144 -3.77161 0.853588 0
M  V30 4342 H 381.833 -3.8573 1.2636 0
M  V30 4343 H 382.599 -3.18789 3.65511 0
M  V30 4344 H 378.478 -3.80852 2.59756 0
M  V30 4345 H 382.022 -3.49783 6.03571 0
M  V30 4346 H 377.919 -4.11992 4.96923 0
M  V30 4347 H 378.687 -4.1676 7.04452 0
M  V30 4348 N 381.35 -0.985608 -1.22978 0
M  V30 4349 C 382.596 -0.65836 -1.91816 0
M  V30 4350 C 382.929 0.806692 -1.76653 0
M  V30 4351 O 382.204 1.58252 -1.13078 0
M  V30 4352 C 382.487 -1.056 -3.44268 0
M  V30 4353 C 382.34 -2.57906 -3.68516 0
M  V30 4354 C 383.659 -0.603781 -4.35939 0
M  V30 4355 H 380.778 -0.24065 -0.696604 0
M  V30 4356 H 383.42 -1.22783 -1.44998 0
M  V30 4357 H 381.57 -0.571445 -3.84274 0
M  V30 4358 H 383.242 -3.13976 -3.3796 0
M  V30 4359 H 381.485 -3.00305 -3.13048 0
M  V30 4360 H 382.156 -2.80779 -4.75255 0
M  V30 4361 H 384.632 -1.01987 -4.03408 0
M  V30 4362 H 383.508 -0.910383 -5.41298 0
M  V30 4363 H 383.769 0.495761 -4.39312 0
M  V30 4364 N 382.828 1.3818 -0.7579 0
M  V30 4365 C 384.075 2.00019 -0.315985 0
M  V30 4366 C 384.403 1.60163 1.10355 0
M  V30 4367 O 383.658 0.83264 1.77103 0
M  V30 4368 C 383.957 3.55252 -0.391218 0
M  V30 4369 C 383.623 4.14834 -1.76702 0
M  V30 4370 C 382.285 4.30821 -2.14353 0
M  V30 4371 C 384.637 4.47658 -2.66931 0
M  V30 4372 C 381.965 4.76928 -3.41696 0
M  V30 4373 C 384.317 4.95184 -3.93669 0
M  V30 4374 C 382.981 5.09377 -4.31383 0
M  V30 4375 H 382.251 0.731923 -0.115627 0
M  V30 4376 H 384.898 1.65161 -0.969223 0
M  V30 4377 H 383.203 3.90273 0.34558 0
M  V30 4378 H 384.9 4.00988 -0.030805 0
M  V30 4379 H 381.49 4.02808 -1.46435 0
M  V30 4380 H 385.674 4.34904 -2.39106 0
M  V30 4381 H 380.93 4.86103 -3.70829 0
M  V30 4382 H 385.104 5.19551 -4.63724 0
M  V30 4383 H 382.731 5.44865 -5.30119 0
M  V30 4384 N 384.306 0.507319 1.49211 0
M  V30 4385 C 385.253 -0.267728 2.29242 0
M  V30 4386 C 386.223 -0.954609 1.35928 0
M  V30 4387 O 387.408 -0.960046 1.64887 0
M  V30 4388 C 384.548 -1.32243 3.18756 0
M  V30 4389 C 383.661 -0.64669 4.27132 0
M  V30 4390 C 382.796 -1.68238 5.03855 0
M  V30 4391 C 381.835 -0.98885 6.0406 0
M  V30 4392 N 380.972 -1.96903 6.73924 0
M  V30 4393 H 385.812 0.420968 2.95012 0
M  V30 4394 H 383.349 0.219443 1.45454 0
M  V30 4395 H 385.307 -1.94599 3.69036 0
M  V30 4396 H 383.937 -1.97981 2.54958 0
M  V30 4397 H 382.989 0.0902926 3.80293 0
M  V30 4398 H 384.301 -0.101058 4.98698 0
M  V30 4399 H 383.455 -2.38081 5.58034 0
M  V30 4400 H 382.194 -2.26187 4.32077 0
M  V30 4401 H 381.199 -0.276222 5.49106 0
M  V30 4402 H 382.424 -0.415767 6.77826 0
M  V30 4403 H 380.37 -2.53803 6.04913 0
M  V30 4404 H 380.287 -1.47423 7.41487 0
M  V30 4405 H 381.555 -2.66015 7.32705 0
M  V30 4406 N 385.784 -1.5574 0.241426 0
M  V30 4407 C 387.009 -2.0366 -0.392111 0
M  V30 4408 C 387.434 -1.11969 -1.51144 0
M  V30 4409 O 386.792 -0.111594 -1.80956 0
M  V30 4410 C 386.84 -3.49638 -0.882371 0
M  V30 4411 O 385.944 -3.6108 -1.99235 0
M  V30 4412 H 385.285 -0.658379 -0.0862122 0
M  V30 4413 H 387.815 -2.01302 0.365881 0
M  V30 4414 H 387.825 -3.90351 -1.18702 0
M  V30 4415 H 386.5 -4.15852 -0.0632361 0
M  V30 4416 H 385.077 -3.32262 -1.69282 0
M  V30 4417 N 387.262 0.0317525 -1.57568 0
M  V30 4418 C 388.192 1.03274 -2.0942 0
M  V30 4419 C 389.173 1.3788 -0.996143 0
M  V30 4420 O 390.358 1.46811 -1.27122 0
M  V30 4421 C 387.488 2.33448 -2.57137 0
M  V30 4422 C 386.442 2.13091 -3.71182 0
M  V30 4423 C 385.768 3.49001 -4.05095 0
M  V30 4424 C 387.068 1.51928 -4.99715 0
M  V30 4425 H 388.762 0.60112 -2.93303 0
M  V30 4426 H 386.308 0.287705 -1.41097 0
M  V30 4427 H 388.261 3.03802 -2.92032 0
M  V30 4428 H 386.985 2.78665 -1.70333 0
M  V30 4429 H 385.644 1.45171 -3.36632 0
M  V30 4430 H 385.292 3.91862 -3.15362 0
M  V30 4431 H 384.992 3.36207 -4.81911 0
M  V30 4432 H 386.516 4.20721 -4.42522 0
M  V30 4433 H 387.93 2.12196 -5.32584 0
M  V30 4434 H 386.327 1.49716 -5.81124 0
M  V30 4435 H 387.397 0.484811 -4.8247 0
M  V30 4436 N 388.74 1.54641 0.303973 0
M  V30 4437 C 389.67 1.88386 1.3796 0
M  V30 4438 C 390.651 0.742485 1.5304 0
M  V30 4439 O 391.836 0.997959 1.66597 0
M  V30 4440 C 388.966 2.12854 2.74427 0
M  V30 4441 C 387.92 3.28702 2.74115 0
M  V30 4442 C 387.246 3.38582 4.13844 0
M  V30 4443 C 388.546 4.65881 2.3612 0
M  V30 4444 H 390.24 2.78474 1.09966 0
M  V30 4445 H 387.786 1.33988 0.527556 0
M  V30 4446 H 389.739 2.35047 3.49758 0
M  V30 4447 H 388.463 1.19535 3.03939 0
M  V30 4448 H 387.122 3.06428 2.0124 0
M  V30 4449 H 386.77 2.42784 4.40528 0
M  V30 4450 H 386.47 4.16453 4.14537 0
M  V30 4451 H 387.994 3.63031 4.90959 0
M  V30 4452 H 389.408 4.87823 3.01167 0
M  V30 4453 H 387.805 5.46444 2.48031 0
M  V30 4454 H 388.875 4.66799 1.3125 0
M  V30 4455 N 390.218 -0.567019 1.47046 0
M  V30 4456 C 391.148 -1.68482 1.61667 0
M  V30 4457 C 392.129 -1.6358 0.466418 0
M  V30 4458 O 393.314 -1.81354 0.694574 0
M  V30 4459 C 390.444 -3.07124 1.62148 0
M  V30 4460 C 389.398 -3.26867 2.76301 0
M  V30 4461 C 388.724 -4.66196 2.61849 0
M  V30 4462 C 390.024 -3.13186 4.17986 0
M  V30 4463 H 391.718 -1.56502 2.5524 0
M  V30 4464 H 389.264 -0.751486 1.22836 0
M  V30 4465 H 391.217 -3.8516 1.70968 0
M  V30 4466 H 389.941 -3.2004 0.651287 0
M  V30 4467 H 388.6 -2.51237 2.66975 0
M  V30 4468 H 388.248 -4.75898 1.62879 0
M  V30 4469 H 387.948 -4.80356 3.38425 0
M  V30 4470 H 389.472 -5.46379 2.72584 0
M  V30 4471 H 390.886 -3.81049 4.2834 0
M  V30 4472 H 389.283 -3.3886 4.95272 0
M  V30 4473 H 390.353 -2.10057 4.3704 0
M  V30 4474 N 391.696 -1.35014 -0.812953 0
M  V30 4475 C 392.943 -1.27931 -1.56971 0
M  V30 4476 C 393.271 0.148034 -1.93936 0
M  V30 4477 O 392.526 1.11175 -1.61054 0
M  V30 4478 C 392.825 -2.12524 -2.87347 0
M  V30 4479 C 392.491 -3.61401 -2.6963 0
M  V30 4480 C 391.153 -4.01983 -2.64506 0
M  V30 4481 C 393.505 -4.55894 -2.52607 0
M  V30 4482 C 390.833 -5.35235 -2.40293 0
M  V30 4483 C 393.185 -5.89336 -2.29925 0
M  V30 4484 C 391.849 -6.2907 -2.23219 0
M  V30 4485 H 391.119 -0.468131 -0.574399 0
M  V30 4486 H 393.766 -1.66851 -0.939836 0
M  V30 4487 H 392.071 -1.66463 -3.54679 0
M  V30 4488 H 393.768 -2.04383 -3.45005 0
M  V30 4489 H 390.358 -3.29193 -2.74463 0
M  V30 4490 H 394.542 -4.25431 -2.55583 0
M  V30 4491 H 389.798 -5.65028 -2.33566 0
M  V30 4492 H 393.972 -6.62139 -2.15743 0
M  V30 4493 H 391.599 -7.32256 -2.04219 0
M  V30 4494 N 393.175 1.03435 -1.18907 0
M  V30 4495 C 394.422 1.76743 -0.988334 0
M  V30 4496 C 394.75 1.88447 0.481441 0
M  V30 4497 O 394.005 1.39383 1.37371 0
M  V30 4498 C 394.304 3.19792 -1.59586 0
M  V30 4499 C 393.97 3.28108 -3.09283 0
M  V30 4500 C 392.632 3.30084 -3.5014 0
M  V30 4501 C 394.984 3.27696 -4.05296 0
M  V30 4502 C 392.312 3.29299 -4.85571 0
M  V30 4503 C 394.664 3.28451 -5.4065 0
M  V30 4504 C 393.328 3.28723 -5.80946 0
M  V30 4505 H 392.598 0.64675 -0.361657 0
M  V30 4506 H 395.245 1.21442 -1.48068 0
M  V30 4507 H 393.55 3.78136 -1.02568 0
M  V30 4508 H 395.247 3.75171 -1.41589 0
M  V30 4509 H 391.837 3.27294 -2.76725 0
M  V30 4510 H 396.021 3.25354 -3.74778 0
M  V30 4511 H 391.277 3.2783 -5.16079 0
M  V30 4512 H 395.451 3.27082 -6.14809 0
M  V30 4513 H 393.078 3.27868 -6.85862 0
M  V30 4514 N 394.653 0.992116 1.22453 0
M  V30 4515 C 395.883 0.684949 1.94915 0
M  V30 4516 C 396.291 -0.754292 1.73514 0
M  V30 4517 O 395.634 -1.52056 1.03076 0
M  V30 4518 C 395.696 0.910054 3.47791 0
M  V30 4519 C 395.36 2.33363 3.92926 0
M  V30 4520 C 396.357 3.31308 4.00663 0
M  V30 4521 C 394.042 2.66785 4.25595 0
M  V30 4522 C 396.036 4.6075 4.40441 0
M  V30 4523 C 393.723 3.96446 4.65053 0
M  V30 4524 C 394.721 4.9324 4.72444 0
M  V30 4525 O 394.409 6.20584 5.1101 0
M  V30 4526 H 394.141 0.25258 0.62704 0
M  V30 4527 H 396.695 1.32939 1.56577 0
M  V30 4528 H 394.925 0.208443 3.86138 0
M  V30 4529 H 396.614 0.598257 4.01467 0
M  V30 4530 H 397.38 3.0682 3.75615 0
M  V30 4531 H 393.259 1.92148 4.19047 0
M  V30 4532 H 396.803 5.363 4.46126 0
M  V30 4533 H 392.7 4.20724 4.89552 0
M  V30 4534 H 393.468 6.24509 5.29085 0
M  V30 4535 N 396.131 -1.37776 0.765217 0
M  V30 4536 C 397.542 -1.82521 0.392819 0
M  V30 4537 C 397.893 -1.63789 -1.08017 0
M  V30 4538 O 397.018 -1.14542 -1.83601 0
M  V30 4539 C 397.613 -3.31358 0.706214 0
M  V30 4540 C 396.172 -3.74406 0.386952 0
M  V30 4541 C 395.319 -2.60394 0.953422 0
M  V30 4542 H 398.27 -1.2634 0.960412 0
M  V30 4543 H 398.291 -3.80498 -0.0114706 0
M  V30 4544 H 397.803 -3.44959 1.77833 0
M  V30 4545 H 395.904 -3.66377 -0.678112 0
M  V30 4546 H 396.017 -4.70749 0.890636 0
M  V30 4547 H 394.381 -2.51878 0.378064 0
M  V30 4548 H 395.164 -2.76791 2.03081 0
M  V30 4549 N 397.609 -0.515225 -1.4894 0
M  V30 4550 C 398.539 0.244628 -2.32215 0
M  V30 4551 C 399.52 0.949136 -1.41157 0
M  V30 4552 O 400.705 0.937783 -1.70057 0
M  V30 4553 C 397.835 1.30096 -3.22013 0
M  V30 4554 C 396.789 0.715486 -4.21977 0
M  V30 4555 C 396.115 1.87339 -5.00808 0
M  V30 4556 C 397.415 -0.302982 -5.2142 0
M  V30 4557 H 399.109 -0.450501 -2.95991 0
M  V30 4558 H 396.655 -0.218098 -1.42339 0
M  V30 4559 H 398.608 1.84037 -3.79089 0
M  V30 4560 H 397.332 2.02547 -2.56207 0
M  V30 4561 H 395.991 0.197715 -3.66066 0
M  V30 4562 H 395.639 2.58592 -4.31438 0
M  V30 4563 H 395.339 1.48764 -5.68457 0
M  V30 4564 H 396.863 2.41686 -5.60732 0
M  V30 4565 H 398.277 0.148802 -5.73107 0
M  V30 4566 H 396.674 -0.60532 -5.97039 0
M  V30 4567 H 397.744 -1.21395 -4.69459 0
M  V30 4568 N 399.087 1.5561 -0.249682 0
M  V30 4569 C 400.336 1.98187 0.37479 0
M  V30 4570 C 400.649 1.14111 1.58865 0
M  V30 4571 O 401.855 1.46714 2.28445 0
M  V30 4572 C 400.311 3.52661 0.718192 0
M  V30 4573 C 399.919 4.45481 -0.474428 0
M  V30 4574 C 401.663 4.03888 1.3067 0
M  V30 4575 C 399.57 5.91303 -0.107026 0
M  V30 4576 H 398.5 0.740159 0.143808 0
M  V30 4577 H 401.151 1.80125 -0.350336 0
M  V30 4578 H 399.533 3.66429 1.50152 0
M  V30 4579 H 400.707 4.43473 -1.25172 0
M  V30 4580 H 399.022 4.04751 -0.978052 0
M  V30 4581 H 401.619 5.10358 1.59496 0
M  V30 4582 H 401.962 3.51401 2.23211 0
M  V30 4583 H 402.495 3.93457 0.586211 0
M  V30 4584 H 399.234 6.47833 -0.999642 0
M  V30 4585 H 398.754 5.9644 0.634013 0
M  V30 4586 H 400.433 6.46258 0.309807 0
M  V30 4587 N 400.565 -0.0233959 1.57583 0
M  V30 4588 C 401.814 -0.712133 1.8871 0
M  V30 4589 C 402.127 -1.76217 0.848944 0
M  V30 4590 O 403.333 -2.50389 1.04964 0
M  V30 4591 C 401.789 -1.3177 3.3491 0
M  V30 4592 C 401.397 -0.303715 4.46969 0
M  V30 4593 C 403.141 -1.98598 3.75179 0
M  V30 4594 C 401.048 -0.917945 5.84233 0
M  V30 4595 H 399.978 -0.269735 0.704101 0
M  V30 4596 H 402.629 0.0333114 1.8347 0
M  V30 4597 H 401.011 -2.11304 3.34913 0
M  V30 4598 H 402.185 0.465325 4.58445 0
M  V30 4599 H 400.5 0.2628 4.1557 0
M  V30 4600 H 403.097 -2.45416 4.75053 0
M  V30 4601 H 403.44 -2.80659 3.07468 0
M  V30 4602 H 403.973 -1.25831 3.77374 0
M  V30 4603 H 400.712 -0.136633 6.55358 0
M  V30 4604 H 400.232 -1.65669 5.76467 0
M  V30 4605 H 401.911 -1.4236 6.31144 0
M  V30 4606 N 402.043 -1.548 -0.295768 0
M  V30 4607 C 403.454 -1.65274 -0.868411 0
M  V30 4608 C 403.805 -0.56481 -1.87894 0
M  V30 4609 O 402.93 0.29767 -2.14343 0
M  V30 4610 C 403.525 -2.99603 -1.58188 0
M  V30 4611 C 402.084 -3.12181 -2.10286 0
M  V30 4612 C 401.231 -2.6098 -0.93727 0
M  V30 4613 H 404.182 -1.58534 -0.0726422 0
M  V30 4614 H 404.203 -2.91319 -2.44772 0
M  V30 4615 H 403.715 -3.78764 -0.846151 0
M  V30 4616 H 401.816 -2.3775 -2.8689 0
M  V30 4617 H 401.929 -4.18415 -2.33379 0
M  V30 4618 H 400.293 -2.17564 -1.32431 0
M  V30 4619 H 401.076 -3.42623 -0.215414 0
M  V30 4620 N 403.521 0.559213 -1.47345 0
M  V30 4621 C 404.768 1.31648 -1.53867 0
M  V30 4622 C 405.096 1.93468 -0.200104 0
M  V30 4623 O 404.351 1.78295 0.806799 0
M  V30 4624 C 404.65 2.44853 -2.6035 0
M  V30 4625 C 404.316 2.00876 -4.03683 0
M  V30 4626 C 402.978 1.88599 -4.42701 0
M  V30 4627 C 405.33 1.67279 -4.93626 0
M  V30 4628 C 402.658 1.41017 -5.69501 0
M  V30 4629 C 405.01 1.21169 -6.20887 0
M  V30 4630 C 403.674 1.07487 -6.58789 0
M  V30 4631 H 402.944 0.481734 -0.56304 0
M  V30 4632 H 405.591 0.627301 -1.80934 0
M  V30 4633 H 403.896 3.19318 -2.27032 0
M  V30 4634 H 405.593 3.03039 -2.62619 0
M  V30 4635 H 402.183 2.11374 -3.72853 0
M  V30 4636 H 406.367 1.75638 -4.64182 0
M  V30 4637 H 401.623 1.29086 -5.97618 0
M  V30 4638 H 405.797 0.942345 -6.89995 0
M  V30 4639 H 403.424 0.703946 -7.56934 0
M  V30 4640 N 404.999 1.35443 0.805782 0
M  V30 4641 C 406.415 1.15499 1.10146 0
M  V30 4642 C 406.615 -0.0319975 2.01475 0
M  V30 4643 O 405.671 -0.70236 2.42535 0
M  V30 4644 C 406.984 2.45833 1.73166 0
M  V30 4645 C 408.532 2.52047 1.85583 0
M  V30 4646 C 409.007 3.82427 2.52019 0
M  V30 4647 N 410.498 3.83682 2.59504 0
M  V30 4648 C 411.233 4.81294 3.11679 0
M  V30 4649 N 410.729 5.89294 3.64287 0
M  V30 4650 N 412.522 4.6873 3.1024 0
M  V30 4651 H 404.673 2.11469 0.198678 0
M  V30 4652 H 406.936 0.93594 0.150731 0
M  V30 4653 H 406.642 3.32874 1.13526 0
M  V30 4654 H 406.516 2.6044 2.72857 0
M  V30 4655 H 408.903 1.65435 2.44367 0
M  V30 4656 H 408.984 2.41354 0.847455 0
M  V30 4657 H 408.628 4.69437 1.93885 0
M  V30 4658 H 408.558 3.90409 3.53395 0
M  V30 4659 H 411.049 3.05648 2.22234 0
M  V30 4660 H 411.362 6.59768 4.02401 0
M  V30 4661 H 409.707 5.92985 3.62483 0
M  V30 4662 H 412.898 3.83496 2.68419 0
M  V30 4663 H 413.071 5.44965 3.50596 0
M  V30 4664 N 406.477 -1.02803 1.19454 0
M  V30 4665 C 407.725 -1.75869 0.995722 0
M  V30 4666 C 408.046 -1.89138 -0.474543 0
M  V30 4667 O 407.316 -1.42558 -1.34366 0
M  V30 4668 H 405.896 -0.651511 0.365435 0
M  V30 4669 H 408.558 -1.24004 1.50363 0
M  V30 4670 H 407.654 -2.76661 1.44447 0
M  V30 4671 N 407.956 -0.998596 -1.21925 0
M  V30 4672 C 408.919 -0.558679 -2.22287 0
M  V30 4673 C 409.919 0.361525 -1.56683 0
M  V30 4674 O 411.109 0.152695 -1.73529 0
M  V30 4675 C 408.241 0.18661 -3.40389 0
M  V30 4676 H 409.434 -1.4463 -2.62721 0
M  V30 4677 H 406.987 -0.786413 -1.35075 0
M  V30 4678 H 407.722 1.08996 -3.05435 0
M  V30 4679 H 407.507 -0.474188 -3.89222 0
M  V30 4680 H 408.997 0.482367 -4.14805 0
M  V30 4681 N 409.434 1.37368 -0.772513 0
M  V30 4682 C 410.681 1.99673 -0.337182 0
M  V30 4683 C 411.009 1.61324 1.0865 0
M  V30 4684 O 410.264 0.851377 1.7621 0
M  V30 4685 C 410.563 3.54817 -0.428876 0
M  V30 4686 C 410.229 4.12936 -1.81092 0
M  V30 4687 C 408.891 4.28523 -2.1891 0
M  V30 4688 C 411.243 4.44801 -2.71664 0
M  V30 4689 C 408.571 4.73277 -3.46735 0
M  V30 4690 C 410.923 4.90981 -3.98899 0
M  V30 4691 C 409.587 5.04773 -4.36761 0
M  V30 4692 H 408.857 0.730656 -0.123384 0
M  V30 4693 H 411.504 1.64124 -0.986686 0
M  V30 4694 H 409.809 3.90618 0.304167 0
M  V30 4695 H 411.506 4.00933 -0.0733334 0
M  V30 4696 H 408.096 4.01233 -1.50699 0
M  V30 4697 H 412.28 4.32344 -2.43706 0
M  V30 4698 H 407.536 4.82142 -3.75964 0
M  V30 4699 H 411.71 5.14603 -4.69208 0
M  V30 4700 H 409.337 5.39211 -5.35868 0
M  V30 4701 N 410.912 0.523116 1.48665 0
M  V30 4702 C 411.875 -0.232592 2.28017 0
M  V30 4703 C 412.875 -0.874021 1.34972 0
M  V30 4704 O 414.065 -0.735132 1.57929 0
M  V30 4705 C 411.197 -1.33586 3.13636 0
M  V30 4706 H 412.39 0.464008 2.96289 0
M  V30 4707 H 409.943 0.278816 1.53793 0
M  V30 4708 H 410.678 -2.06593 2.4998 0
M  V30 4709 H 410.463 -0.881125 3.82071 0
M  V30 4710 H 411.953 -1.86759 3.73511 0
M  V30 4711 N 412.39 -1.55475 0.257931 0
M  V30 4712 C 413.637 -1.99207 -0.363728 0
M  V30 4713 C 413.965 -1.1462 -1.57139 0
M  V30 4714 O 413.22 -0.199653 -1.94679 0
M  V30 4715 C 413.519 -3.48183 -0.806433 0
M  V30 4716 C 413.185 -4.49936 0.294684 0
M  V30 4717 C 411.847 -4.77481 0.597076 0
M  V30 4718 C 414.199 -5.10769 1.03751 0
M  V30 4719 C 411.527 -5.63132 1.64618 0
M  V30 4720 C 413.879 -5.97558 2.07622 0
M  V30 4721 C 412.543 -6.23432 2.38514 0
M  V30 4722 H 411.813 -0.728949 -0.133097 0
M  V30 4723 H 414.46 -1.8793 0.368059 0
M  V30 4724 H 412.765 -3.56848 -1.61761 0
M  V30 4725 H 414.462 -3.79415 -1.29789 0
M  V30 4726 H 411.052 -4.28572 0.0488649 0
M  V30 4727 H 415.236 -4.89527 0.817149 0
M  V30 4728 H 410.492 -5.8143 1.89074 0
M  V30 4729 H 414.666 -6.43735 2.65666 0
M  V30 4730 H 412.293 -6.89594 3.19943 0
M  V30 4731 N 413.868 0.0150385 -1.57593 0
M  V30 4732 C 414.831 0.995996 -2.06428 0
M  V30 4733 C 415.831 1.2818 -0.970903 0
M  V30 4734 O 417.021 1.22949 -1.23406 0
M  V30 4735 C 414.153 2.32506 -2.49307 0
M  V30 4736 H 415.346 0.573873 -2.94358 0
M  V30 4737 H 412.899 0.262186 -1.54085 0
M  V30 4738 H 413.634 2.79438 -1.64575 0
M  V30 4739 H 413.419 2.13087 -3.29145 0
M  V30 4740 H 414.909 3.02906 -2.87468 0
M  V30 4741 N 415.346 1.54954 0.287554 0
M  V30 4742 C 416.595 1.74081 1.01877 0
M  V30 4743 C 416.908 0.541135 1.87966 0
M  V30 4744 O 418.114 0.614491 2.64455 0
M  V30 4745 C 416.57 3.08042 1.86113 0
M  V30 4746 C 416.178 4.35531 1.04961 0
M  V30 4747 C 417.922 3.36523 2.58752 0
M  V30 4748 C 415.829 5.60538 1.88551 0
M  V30 4749 H 414.759 0.64884 0.384087 0
M  V30 4750 H 417.41 1.81426 0.275101 0
M  V30 4751 H 415.792 2.94696 2.64519 0
M  V30 4752 H 416.966 4.59751 0.31074 0
M  V30 4753 H 415.281 4.14085 0.43843 0
M  V30 4754 H 417.878 4.27122 3.21668 0
M  V30 4755 H 418.221 2.56 3.28283 0
M  V30 4756 H 418.754 3.50901 1.87386 0
M  V30 4757 H 415.493 6.43767 1.23466 0
M  V30 4758 H 415.013 5.40483 2.60074 0
M  V30 4759 H 416.692 5.98297 2.46273 0
M  V30 4760 N 416.824 -0.551391 1.4764 0
M  V30 4761 C 418.049 -1.33837 1.58437 0
M  V30 4762 C 418.474 -1.866 0.237063 0
M  V30 4763 O 417.832 -1.6328 -0.787994 0
M  V30 4764 C 417.88 -2.48014 2.61766 0
M  V30 4765 O 416.984 -3.50419 2.1744 0
M  V30 4766 H 416.325 -0.397299 0.532024 0
M  V30 4767 H 418.855 -0.665759 1.93465 0
M  V30 4768 H 418.865 -2.94503 2.82369 0
M  V30 4769 H 417.54 -2.08969 3.5959 0
M  V30 4770 H 416.117 -3.10196 2.06961 0
M  V30 4771 N 418.302 -1.35869 -0.798587 0
M  V30 4772 C 419.265 -1.29307 -1.89242 0
M  V30 4773 C 420.265 -0.202747 -1.59517 0
M  V30 4774 O 421.455 -0.456957 -1.681 0
M  V30 4775 C 418.587 -1.00229 -3.25833 0
M  V30 4776 H 419.78 -2.26576 -1.96478 0
M  V30 4777 H 417.333 -1.20509 -0.995358 0
M  V30 4778 H 418.068 -0.033801 -3.24282 0
M  V30 4779 H 417.853 -1.79121 -3.48795 0
M  V30 4780 H 419.343 -0.98219 -4.05885 0
M  V30 4781 N 419.78 1.02168 -1.19998 0
M  V30 4782 C 421.027 1.75685 -1.00702 0
M  V30 4783 C 421.355 1.88947 0.461426 0
M  V30 4784 O 420.61 1.40832 1.35885 0
M  V30 4785 C 420.909 3.18081 -1.62969 0
M  V30 4786 C 420.575 3.24809 -3.12746 0
M  V30 4787 C 419.237 3.26352 -3.53621 0
M  V30 4788 C 421.589 3.23379 -4.08749 0
M  V30 4789 C 418.917 3.2413 -4.89036 0
M  V30 4790 C 421.269 3.22698 -5.44104 0
M  V30 4791 C 419.933 3.22542 -5.84399 0
M  V30 4792 H 419.203 0.642877 -0.368496 0
M  V30 4793 H 421.85 1.19865 -1.49348 0
M  V30 4794 H 420.155 3.77027 -1.06573 0
M  V30 4795 H 421.852 3.73648 -1.45561 0
M  V30 4796 H 418.442 3.2434 -2.80181 0
M  V30 4797 H 422.626 3.21361 -3.78207 0
M  V30 4798 H 417.882 3.22338 -5.19527 0
M  V30 4799 H 422.056 3.20543 -6.18244 0
M  V30 4800 H 419.683 3.20575 -6.89301 0
M  V30 4801 N 421.258 1.00505 1.21394 0
M  V30 4802 C 422.498 0.696149 1.9218 0
M  V30 4803 C 422.862 -0.759099 1.76357 0
M  V30 4804 O 424.063 -1.17998 2.41516 0
M  V30 4805 C 422.334 1.10571 3.39866 0
M  V30 4806 S 423.893 0.91702 4.29111 0
M  V30 4807 H 420.711 0.254147 0.664026 0
M  V30 4808 H 423.313 1.28988 1.46909 0
M  V30 4809 H 422.017 2.16096 3.489 0
M  V30 4810 H 421.548 0.504268 3.90155 0
M  V30 4811 H 423.563 -0.185855 4.95852 0
M  V30 4812 N 422.737 -1.36956 0.779787 0
M  V30 4813 C 423.986 -1.98738 0.344405 0
M  V30 4814 C 424.299 -1.62596 -1.08728 0
M  V30 4815 O 425.505 -2.1754 -1.62445 0
M  V30 4816 C 423.961 -3.5544 0.564829 0
M  V30 4817 C 423.569 -4.00514 2.0073 0
M  V30 4818 C 425.313 -4.24059 0.193471 0
M  V30 4819 C 423.22 -5.49957 2.17489 0
M  V30 4820 H 422.15 -0.743561 0.12503 0
M  V30 4821 H 424.801 -1.56381 0.960057 0
M  V30 4822 H 423.183 -3.95817 -0.120397 0
M  V30 4823 H 424.357 -3.71362 2.72814 0
M  V30 4824 H 422.672 -3.44703 2.336 0
M  V30 4825 H 425.269 -5.33874 0.297097 0
M  V30 4826 H 425.612 -4.07378 -0.857263 0
M  V30 4827 H 426.145 -3.89012 0.831556 0
M  V30 4828 H 422.884 -5.71574 3.2091 0
M  V30 4829 H 422.404 -5.80767 1.49899 0
M  V30 4830 H 424.083 -6.16043 1.97738 0
M  V30 4831 N 424.215 -0.530993 -1.48385 0
M  V30 4832 C 425.443 -0.00134122 -2.069 0
M  V30 4833 C 425.858 1.2805 -1.3874 0
M  V30 4834 O 425.215 1.76204 -0.475244 0
M  V30 4835 C 425.266 0.225256 -3.60798 0
M  V30 4836 O 424.987 -1.0058 -4.26398 0
M  V30 4837 C 426.488 0.795172 -4.3611 0
M  V30 4838 H 423.708 -0.0339704 -0.67014 0
M  V30 4839 H 426.252 -0.736926 -1.90761 0
M  V30 4840 H 424.407 0.910891 -3.76539 0
M  V30 4841 H 424.821 -0.787165 -5.1856 0
M  V30 4842 H 426.295 0.903143 -5.44562 0
M  V30 4843 H 426.772 1.80031 -4.00606 0
M  V30 4844 H 427.378 0.146069 -4.25049 0
M  V30 4845 N 425.693 1.55336 -0.266172 0
M  V30 4846 C 426.625 2.19544 0.658247 0
M  V30 4847 C 427.638 1.17746 1.12427 0
M  V30 4848 O 428.827 1.44517 1.04772 0
M  V30 4849 C 425.927 2.80032 1.9088 0
M  V30 4850 C 425.1 4.07436 1.59106 0
M  V30 4851 C 424.159 4.52056 2.69317 0
M  V30 4852 O 423.185 5.18023 2.35883 0
M  V30 4853 N 424.387 4.21448 3.99201 0
M  V30 4854 H 427.152 2.99503 0.108754 0
M  V30 4855 H 424.713 1.61667 -0.0869059 0
M  V30 4856 H 426.705 3.06831 2.63888 0
M  V30 4857 H 425.275 2.04119 2.36758 0
M  V30 4858 H 424.495 3.88021 0.695243 0
M  V30 4859 H 425.783 4.90462 1.35367 0
M  V30 4860 H 425.181 3.68528 4.29189 0
M  V30 4861 H 423.738 4.53039 4.68614 0
M  V30 4862 N 427.171 -0.0066808 1.57599 0
M  V30 4863 C 428.101 -0.999296 2.11036 0
M  V30 4864 C 429.082 -1.36278 1.01795 0
M  V30 4865 O 430.267 -1.4477 1.29442 0
M  V30 4866 C 427.397 -2.29328 2.60818 0
M  V30 4867 C 426.351 -2.07159 3.74525 0
M  V30 4868 C 425.677 -3.42512 4.10596 0
M  V30 4869 C 426.977 -1.43959 5.02069 0
M  V30 4870 H 428.671 -0.554382 2.94223 0
M  V30 4871 H 426.217 -0.265221 1.41536 0
M  V30 4872 H 428.17 -2.99117 2.96828 0
M  V30 4873 H 426.894 -2.7592 1.74745 0
M  V30 4874 H 425.553 -1.39797 3.38899 0
M  V30 4875 H 425.201 -3.86795 3.21556 0
M  V30 4876 H 424.901 -3.28498 4.87199 0
M  V30 4877 H 426.425 -4.13628 4.4916 0
M  V30 4878 H 427.839 -2.03696 5.35893 0
M  V30 4879 H 426.236 -1.40452 5.83432 0
M  V30 4880 H 427.306 -0.407992 4.83181 0
M  V30 4881 N 428.649 -1.55105 -0.279332 0
M  V30 4882 C 429.897 -1.75066 -1.00977 0
M  V30 4883 C 430.218 -0.551276 -1.87045 0
M  V30 4884 O 429.488 0.433984 -1.91032 0
M  V30 4885 H 428.068 -0.645578 -0.375816 0
M  V30 4886 H 430.73 -1.92497 -0.305089 0
M  V30 4887 H 429.826 -2.64894 -1.65038 0
M  V30 4888 N 430.127 0.543554 -1.4793 0
M  V30 4889 C 431.074 1.64942 -1.6144 0
M  V30 4890 C 432.044 1.59692 -0.456903 0
M  V30 4891 O 433.229 1.78321 -0.678688 0
M  V30 4892 C 430.369 3.03238 -1.64744 0
M  V30 4893 C 429.482 3.18823 -2.91506 0
M  V30 4894 C 428.617 4.47599 -2.86057 0
M  V30 4895 C 427.656 4.56664 -4.07584 0
M  V30 4896 N 426.793 5.76811 -4.00292 0
M  V30 4897 H 431.633 1.52733 -2.55884 0
M  V30 4898 H 429.17 0.7438 -1.2691 0
M  V30 4899 H 431.128 3.83339 -1.64641 0
M  V30 4900 H 429.758 3.1425 -0.738017 0
M  V30 4901 H 428.81 2.32064 -3.01414 0
M  V30 4902 H 430.122 3.21384 -3.81463 0
M  V30 4903 H 429.276 5.35975 -2.84281 0
M  V30 4904 H 428.015 4.47538 -1.93807 0
M  V30 4905 H 427.02 3.66697 -4.09651 0
M  V30 4906 H 428.245 4.58474 -5.00978 0
M  V30 4907 H 426.191 5.77673 -3.10853 0
M  V30 4908 H 426.108 5.80808 -4.8394 0
M  V30 4909 H 427.376 6.67512 -4.02553 0
M  V30 4910 N 431.605 1.3629 0.791371 0
M  V30 4911 C 432.854 1.29742 1.54434 0
M  V30 4912 C 433.167 -0.121729 1.95221 0
M  V30 4913 O 434.373 -0.309579 2.69729 0
M  V30 4914 C 432.829 2.27623 2.78776 0
M  V30 4915 C 432.437 3.74963 2.45166 0
M  V30 4916 C 434.181 2.30047 3.56761 0
M  V30 4917 C 432.088 4.64626 3.65891 0
M  V30 4918 H 431.018 0.482113 0.579727 0
M  V30 4919 H 433.669 1.61642 0.868565 0
M  V30 4920 H 432.051 1.88714 3.48142 0
M  V30 4921 H 433.225 4.22596 1.83709 0
M  V30 4922 H 431.54 3.75295 1.80396 0
M  V30 4923 H 434.137 2.94247 4.46456 0
M  V30 4924 H 434.48 1.30846 3.95203 0
M  V30 4925 H 435.013 2.67563 2.94372 0
M  V30 4926 H 431.752 5.64883 3.32547 0
M  V30 4927 H 431.272 4.2171 4.26521 0
M  V30 4928 H 432.951 4.80801 4.32943 0
M  V30 4929 N 433.083 -1.0153 1.20538 0
M  V30 4930 C 434.329 -1.75408 1.01783 0
M  V30 4931 C 434.662 -1.88943 -0.448814 0
M  V30 4932 O 433.937 -1.4162 -1.33319 0
M  V30 4933 C 434.22 -3.17255 1.70356 0
M  V30 4934 C 434.073 -3.11508 3.24473 0
M  V30 4935 C 435.392 -4.15955 1.43769 0
M  V30 4936 H 432.511 -0.636713 0.371167 0
M  V30 4937 H 435.153 -1.18436 1.4857 0
M  V30 4938 H 433.303 -3.65898 1.30578 0
M  V30 4939 H 434.975 -2.70658 3.73553 0
M  V30 4940 H 433.218 -2.4887 3.55311 0
M  V30 4941 H 433.889 -4.11784 3.67611 0
M  V30 4942 H 436.365 -3.75973 1.7828 0
M  V30 4943 H 435.241 -5.13368 1.94279 0
M  V30 4944 H 435.502 -4.40586 0.365564 0
M  V30 4945 N 434.561 -1.01147 -1.20859 0
M  V30 4946 C 435.808 -0.697865 -1.90095 0
M  V30 4947 C 436.136 0.772014 -1.78522 0
M  V30 4948 O 435.391 1.57595 -1.16027 0
M  V30 4949 C 435.69 -1.0727 -3.40922 0
M  V30 4950 C 435.356 -2.53792 -3.72693 0
M  V30 4951 C 434.018 -2.93829 -3.81075 0
M  V30 4952 C 436.37 -3.48674 -3.87397 0
M  V30 4953 C 433.698 -4.27696 -4.01613 0
M  V30 4954 C 436.05 -4.82223 -4.09444 0
M  V30 4955 C 434.714 -5.21973 -4.16054 0
M  V30 4956 H 433.984 -0.255367 -0.695607 0
M  V30 4957 H 436.631 -1.27111 -1.43231 0
M  V30 4958 H 434.936 -0.417799 -3.89566 0
M  V30 4959 H 436.633 -0.807818 -3.92779 0
M  V30 4960 H 433.223 -2.21768 -3.66765 0
M  V30 4961 H 437.407 -3.18904 -3.80281 0
M  V30 4962 H 432.663 -4.58055 -4.04964 0
M  V30 4963 H 436.837 -5.55672 -4.19763 0
M  V30 4964 H 434.464 -6.25717 -4.31721 0
M  V30 4965 N 436.039 1.36541 -0.78704 0
M  V30 4966 C 437.002 2.28413 -0.189778 0
M  V30 4967 C 438.002 1.48719 0.611499 0
M  V30 4968 O 439.192 1.68737 0.432842 0
M  V30 4969 C 436.324 3.32824 0.737638 0
M  V30 4970 H 437.517 2.82743 -0.999831 0
M  V30 4971 H 435.07 1.46065 -0.556298 0
M  V30 4972 H 435.805 2.83646 1.57212 0
M  V30 4973 H 435.59 3.91752 0.165044 0
M  V30 4974 H 437.08 4.0144 1.15047 0
M  V30 4975 N 437.518 0.538854 1.48102 0
M  V30 4976 C 438.767 0.0059532 2.01699 0
M  V30 4977 C 439.08 -1.34476 1.42041 0
M  V30 4978 O 440.286 -1.96653 1.87189 0
M  V30 4979 C 438.742 -0.0397627 3.59878 0
M  V30 4980 C 438.35 1.30659 4.28523 0
M  V30 4981 C 440.094 -0.521024 4.2129 0
M  V30 4982 C 438.001 1.22098 5.78659 0
M  V30 4983 H 436.931 -0.00154456 0.753998 0
M  V30 4984 H 439.582 0.683963 1.70277 0
M  V30 4985 H 437.964 -0.783037 3.88181 0
M  V30 4986 H 439.138 2.06613 4.11883 0
M  V30 4987 H 437.453 1.7243 3.79021 0
M  V30 4988 H 440.05 -0.603184 5.31287 0
M  V30 4989 H 440.393 -1.52885 3.8721 0
M  V30 4990 H 440.926 0.166834 3.9745 0
M  V30 4991 H 437.665 2.20424 6.17328 0
M  V30 4992 H 437.185 0.50295 5.97688 0
M  V30 4993 H 438.864 0.915345 6.40492 0
M  V30 4994 N 438.996 -1.55193 0.274407 0
M  V30 4995 C 440.226 -2.03692 -0.345442 0
M  V30 4996 C 440.634 -1.15224 -1.50067 0
M  V30 4997 O 439.977 -0.164749 -1.8296 0
M  V30 4998 C 440.039 -3.48325 -0.88939 0
M  V30 4999 C 439.703 -4.56794 0.137115 0
M  V30 5000 C 440.7 -5.11028 0.956378 0
M  V30 5001 C 438.385 -5.01568 0.27115 0
M  V30 5002 C 440.379 -6.08552 1.89587 0
M  V30 5003 C 438.066 -5.98918 1.21412 0
M  V30 5004 C 439.064 -6.52291 2.02498 0
M  V30 5005 O 438.752 -7.47738 2.952 0
M  V30 5006 H 438.484 -0.670893 -0.0829332 0
M  V30 5007 H 441.038 -2.01387 0.404056 0
M  V30 5008 H 439.268 -3.47867 -1.68895 0
M  V30 5009 H 440.957 -3.80167 -1.42225 0
M  V30 5010 H 441.723 -4.7725 0.863559 0
M  V30 5011 H 437.602 -4.5967 -0.349987 0
M  V30 5012 H 441.146 -6.50137 2.52918 0
M  V30 5013 H 437.043 -6.32114 1.30776 0
M  V30 5014 H 437.811 -7.65451 2.89874 0
M  V30 5015 N 440.474 -0.00167713 -1.576 0
M  V30 5016 C 441.421 0.989195 -2.08527 0
M  V30 5017 C 442.391 1.34031 -0.981065 0
M  V30 5018 O 443.576 1.43839 -1.2536 0
M  V30 5019 C 440.716 2.27537 -2.59463 0
M  V30 5020 C 439.829 1.98314 -3.83791 0
M  V30 5021 C 438.964 3.21025 -4.23222 0
M  V30 5022 C 438.003 2.87495 -5.40382 0
M  V30 5023 N 437.14 4.02749 -5.75098 0
M  V30 5024 H 441.98 0.547973 -2.92919 0
M  V30 5025 H 439.517 0.258917 -1.44803 0
M  V30 5026 H 441.475 3.02729 -2.87073 0
M  V30 5027 H 440.105 2.69325 -1.77943 0
M  V30 5028 H 439.157 1.13482 -3.63078 0
M  V30 5029 H 440.469 1.69601 -4.69081 0
M  V30 5030 H 439.623 4.04561 -4.52123 0
M  V30 5031 H 438.362 3.52877 -3.36644 0
M  V30 5032 H 437.367 2.02367 -5.11202 0
M  V30 5033 H 438.592 2.56889 -6.28637 0
M  V30 5034 H 436.538 4.34494 -4.91478 0
M  V30 5035 H 436.455 3.77566 -6.54966 0
M  V30 5036 H 437.723 4.87068 -6.08592 0
M  V30 5037 N 441.952 1.55251 0.271103 0
M  V30 5038 C 442.9 1.89054 1.35504 0
M  V30 5039 C 443.894 0.767064 1.51038 0
M  V30 5040 O 445.1 0.951429 1.528 0
M  V30 5041 H 441.475 0.600072 0.45323 0
M  V30 5042 H 443.446 2.79598 1.04247 0
M  V30 5043 C 442.195 2.18068 2.70817 0
M  V30 5044 H 441.518 3.04005 2.59656 0
M  V30 5045 H 442.958 2.4564 3.45597 0
M  V30 5046 C 441.417 0.988901 3.2206 0
M  V30 5047 O 441.947 0.224501 4.01072 0
M  V30 5048 N 440.153 0.786085 2.79766 0
M  V30 5049 H 439.7 1.40937 2.15626 0
M  V30 5050 H 439.658 -0.00969349 3.14399 0
M  V30 5051 N 443.43 -0.535701 1.48216 0
M  V30 5052 C 444.36 -1.65014 1.65204 0
M  V30 5053 C 445.341 -1.62554 0.501011 0
M  V30 5054 O 446.526 -1.7984 0.732886 0
M  V30 5055 C 443.656 -3.03616 1.68626 0
M  V30 5056 C 442.61 -3.20932 2.83172 0
M  V30 5057 C 441.936 -4.60537 2.71679 0
M  V30 5058 C 443.236 -3.04249 4.24535 0
M  V30 5059 H 444.93 -1.51053 2.58502 0
M  V30 5060 H 442.476 -0.725262 1.24402 0
M  V30 5061 H 444.429 -3.81446 1.79099 0
M  V30 5062 H 443.153 -3.18587 0.719026 0
M  V30 5063 H 441.812 -2.45517 2.72244 0
M  V30 5064 H 441.46 -4.72336 1.72937 0
M  V30 5065 H 441.16 -4.73069 3.48538 0
M  V30 5066 H 442.684 -5.40475 2.84112 0
M  V30 5067 H 444.098 -3.71877 4.36326 0
M  V30 5068 H 442.495 -3.28278 5.02348 0
M  V30 5069 H 443.565 -2.00739 4.41397 0
M  V30 5070 N 444.908 -1.36708 -0.784132 0
M  V30 5071 C 446.324 -1.17237 -1.08294 0
M  V30 5072 C 446.524 -5.93947e-05 -2.015 0
M  V30 5073 O 445.58 0.663686 -2.43622 0
M  V30 5074 C 446.893 -2.48557 -1.69233 0
M  V30 5075 C 448.441 -2.54968 -1.8155 0
M  V30 5076 C 448.916 -3.86388 -2.45904 0
M  V30 5077 N 450.407 -3.87762 -2.53367 0
M  V30 5078 C 451.142 -4.86191 -3.03983 0
M  V30 5079 N 450.638 -5.95015 -3.54866 0
M  V30 5080 N 452.431 -4.73606 -3.02743 0
M  V30 5081 H 444.582 -2.11758 -0.16501 0
M  V30 5082 H 446.845 -0.93822 -0.135822 0
M  V30 5083 H 446.551 -3.34638 -1.08215 0
M  V30 5084 H 446.425 -2.64748 -2.68679 0
M  V30 5085 H 448.812 -1.69302 -2.41704 0
M  V30 5086 H 448.893 -2.42672 -0.80895 0
M  V30 5087 H 448.537 -4.72462 -1.86392 0
M  V30 5088 H 448.467 -3.95982 -3.4714 0
M  V30 5089 H 450.958 -3.09145 -2.17343 0
M  V30 5090 H 451.271 -6.66086 -3.91854 0
M  V30 5091 H 449.616 -5.98676 -3.53003 0
M  V30 5092 H 452.807 -3.87717 -2.62284 0
M  V30 5093 H 452.98 -5.50473 -3.41881 0
M  V30 5094 N 446.386 1.0089 -1.21074 0
M  V30 5095 C 447.318 2.09737 -0.924291 0
M  V30 5096 C 448.331 1.62546 0.0909809 0
M  V30 5097 O 449.52 1.77942 -0.141021 0
M  V30 5098 C 446.62 3.36922 -0.36559 0
M  V30 5099 C 445.793 4.13216 -1.43426 0
M  V30 5100 C 444.852 5.18696 -0.885496 0
M  V30 5101 O 443.878 5.47176 -1.56801 0
M  V30 5102 N 445.08 5.79718 0.301227 0
M  V30 5103 H 447.845 2.34895 -1.8613 0
M  V30 5104 H 445.406 1.17341 -1.11546 0
M  V30 5105 H 447.398 4.04697 0.0158407 0
M  V30 5106 H 445.968 3.08952 0.476149 0
M  V30 5107 H 445.188 3.40301 -1.9897 0
M  V30 5108 H 446.476 4.60967 -2.15376 0
M  V30 5109 H 445.874 5.58926 0.872849 0
M  V30 5110 H 444.431 6.48804 0.624211 0
M  V30 5111 N 447.864 1.01787 1.20321 0
M  V30 5112 C 448.794 0.609625 2.25401 0
M  V30 5113 C 449.775 -0.375951 1.65893 0
M  V30 5114 O 450.96 -0.261101 1.92437 0
M  V30 5115 C 448.09 -0.0515995 3.47262 0
M  V30 5116 C 447.044 0.855095 4.19371 0
M  V30 5117 C 446.37 0.0595757 5.34667 0
M  V30 5118 C 447.67 2.16374 4.75373 0
M  V30 5119 H 449.364 1.48803 2.59804 0
M  V30 5120 H 446.91 0.716934 1.24884 0
M  V30 5121 H 448.863 -0.348764 4.19954 0
M  V30 5122 H 447.587 -0.964726 3.12027 0
M  V30 5123 H 446.246 1.13628 3.48546 0
M  V30 5124 H 445.894 -0.85524 4.95676 0
M  V30 5125 H 445.594 0.663406 5.83843 0
M  V30 5126 H 447.118 -0.231105 6.10162 0
M  V30 5127 H 448.532 1.92885 5.39878 0
M  V30 5128 H 446.929 2.71853 5.34991 0
M  V30 5129 H 447.999 2.82589 3.94045 0
M  V30 5130 N 449.342 -1.36122 0.79427 0
M  V30 5131 C 450.572 -2.03067 0.380437 0
M  V30 5132 C 450.98 -1.60018 -1.00949 0
M  V30 5133 O 450.323 -0.787425 -1.65968 0
M  V30 5134 C 450.385 -3.57587 0.37034 0
M  V30 5135 C 450.049 -4.23855 1.70867 0
M  V30 5136 C 451.046 -4.46404 2.66496 0
M  V30 5137 C 448.731 -4.61229 1.9893 0
M  V30 5138 C 450.725 -5.05412 3.88378 0
M  V30 5139 C 448.412 -5.19953 3.21079 0
M  V30 5140 C 449.41 -5.41985 4.15621 0
M  V30 5141 O 449.098 -5.99475 5.35616 0
M  V30 5142 H 448.83 -0.658168 0.154243 0
M  V30 5143 H 451.384 -1.7498 1.0757 0
M  V30 5144 H 449.614 -3.84814 -0.381444 0
M  V30 5145 H 451.303 -4.05895 -0.0194894 0
M  V30 5146 H 452.069 -4.17921 2.46103 0
M  V30 5147 H 447.948 -4.43402 1.26158 0
M  V30 5148 H 451.492 -5.22524 4.62185 0
M  V30 5149 H 447.389 -5.47862 3.41347 0
M  V30 5150 H 448.157 -6.17937 5.36745 0
M  V30 5151 N 450.82 -0.546701 -1.47814 0
M  V30 5152 C 452.236 -0.205717 -1.58269 0
M  V30 5153 C 452.436 1.29153 -1.54667 0
M  V30 5154 O 451.492 2.07098 -1.44453 0
M  V30 5155 C 452.805 -0.823065 -2.89216 0
M  V30 5156 C 454.353 -0.793328 -3.02779 0
M  V30 5157 C 454.828 -1.38955 -4.36412 0
M  V30 5158 N 456.319 -1.35227 -4.43021 0
M  V30 5159 C 457.054 -1.78333 -5.44963 0
M  V30 5160 N 456.55 -2.29246 -6.53772 0
M  V30 5161 N 458.343 -1.69467 -5.35945 0
M  V30 5162 H 450.494 -1.5196 -1.48398 0
M  V30 5163 H 452.757 -0.633078 -0.705632 0
M  V30 5164 H 452.463 -1.8749 -2.97558 0
M  V30 5165 H 452.337 -0.309915 -3.75925 0
M  V30 5166 H 454.724 0.249784 -2.94041 0
M  V30 5167 H 454.805 -1.34412 -2.17639 0
M  V30 5168 H 454.449 -2.43168 -4.45906 0
M  V30 5169 H 454.379 -0.814291 -5.20266 0
M  V30 5170 H 456.87 -0.979739 -3.64979 0
M  V30 5171 H 457.183 -2.60089 -7.27718 0
M  V30 5172 H 455.528 -2.3325 -6.5469 0
M  V30 5173 H 458.719 -1.29477 -4.49837 0
M  V30 5174 H 458.892 -2.03381 -6.15256 0
M  V30 5175 N 452.299 1.55045 -0.282633 0
M  V30 5176 C 453.548 1.98938 0.332667 0
M  V30 5177 C 453.861 1.17455 1.56409 0
M  V30 5178 O 455.067 1.51527 2.25282 0
M  V30 5179 C 453.523 3.54105 0.643226 0
M  V30 5180 C 453.131 4.44374 -0.568814 0
M  V30 5181 C 454.875 4.06569 1.22074 0
M  V30 5182 C 452.782 5.90943 -0.232426 0
M  V30 5183 H 451.712 0.743043 0.128075 0
M  V30 5184 H 454.363 1.79341 -0.388464 0
M  V30 5185 H 452.745 3.69532 1.42346 0
M  V30 5186 H 453.919 4.40718 -1.34551 0
M  V30 5187 H 452.234 4.02585 -1.06369 0
M  V30 5188 H 454.831 5.13626 1.48635 0
M  V30 5189 H 455.174 3.56057 2.15707 0
M  V30 5190 H 455.707 3.94612 0.502621 0
M  V30 5191 H 452.446 6.45567 -1.13683 0
M  V30 5192 H 451.966 5.9765 0.507357 0
M  V30 5193 H 453.645 6.4677 0.172657 0
M  V30 5194 N 453.777 0.010035 1.57597 0
M  V30 5195 C 455.002 -0.687021 1.95691 0
M  V30 5196 C 455.427 -1.65952 0.885519 0
M  V30 5197 O 454.785 -1.80633 -0.15543 0
M  V30 5198 C 454.833 -1.3864 3.32884 0
M  V30 5199 O 453.937 -2.50115 3.27897 0
M  V30 5200 H 453.278 -0.181989 0.638573 0
M  V30 5201 H 455.808 0.0662122 2.04493 0
M  V30 5202 H 455.818 -1.74754 3.6868 0
M  V30 5203 H 454.493 -0.673411 4.10412 0
M  V30 5204 H 453.07 -2.16253 3.03791 0
M  V30 5205 N 455.255 -1.55392 -0.262866 0
M  V30 5206 C 456.485 -1.80251 -1.00961 0
M  V30 5207 C 456.893 -0.58117 -1.80053 0
M  V30 5208 O 456.236 0.459427 -1.77862 0
M  V30 5209 C 456.298 -2.98207 -2.00781 0
M  V30 5210 C 455.962 -4.34856 -1.40533 0
M  V30 5211 C 456.959 -5.13459 -0.815853 0
M  V30 5212 C 454.644 -4.8153 -1.42948 0
M  V30 5213 C 456.638 -6.36875 -0.258562 0
M  V30 5214 C 454.325 -6.04899 -0.868334 0
M  V30 5215 C 455.323 -6.8241 -0.283884 0
M  V30 5216 O 455.011 -8.03451 0.268644 0
M  V30 5217 H 454.743 -0.604049 -0.303482 0
M  V30 5218 H 457.297 -2.03257 -0.295926 0
M  V30 5219 H 455.527 -2.70917 -2.75936 0
M  V30 5220 H 457.216 -3.10299 -2.61667 0
M  V30 5221 H 457.982 -4.78526 -0.789812 0
M  V30 5222 H 453.861 -4.21201 -1.87378 0
M  V30 5223 H 457.405 -6.97318 0.198257 0
M  V30 5224 H 453.302 -6.39312 -0.891649 0
M  V30 5225 H 454.07 -8.18346 0.158974 0
M  V30 5226 N 456.733 0.527833 -1.48498 0
M  V30 5227 C 458.149 0.856571 -1.34666 0
M  V30 5228 C 458.349 1.98271 -0.35931 0
M  V30 5229 O 457.405 2.51551 0.218703 0
M  V30 5230 C 458.718 1.22207 -2.74747 0
M  V30 5231 C 460.266 1.33183 -2.83251 0
M  V30 5232 C 460.741 1.73075 -4.24039 0
M  V30 5233 N 462.232 1.80174 -4.26722 0
M  V30 5234 C 462.967 2.1243 -5.32598 0
M  V30 5235 N 462.463 2.43096 -6.4875 0
M  V30 5236 N 464.256 2.13454 -5.19994 0
M  V30 5237 H 456.407 -0.215174 -2.11307 0
M  V30 5238 H 458.67 -0.0336281 -0.947403 0
M  V30 5239 H 458.376 0.468195 -3.4857 0
M  V30 5240 H 458.25 2.17173 -3.08409 0
M  V30 5241 H 460.637 2.07647 -2.09683 0
M  V30 5242 H 460.718 0.363333 -2.53206 0
M  V30 5243 H 460.362 0.991712 -4.98124 0
M  V30 5244 H 460.292 2.70979 -4.51529 0
M  V30 5245 H 462.783 1.58744 -3.42942 0
M  V30 5246 H 463.096 2.6682 -7.25277 0
M  V30 5247 H 461.441 2.40611 -6.52021 0
M  V30 5248 H 464.632 1.88956 -4.28268 0
M  V30 5249 H 464.805 2.38261 -6.02608 0
M  V30 5250 N 458.211 1.37122 0.776871 0
M  V30 5251 C 459.158 1.3247 1.88998 0
M  V30 5252 C 460.128 0.191143 1.64997 0
M  V30 5253 O 461.313 0.379683 1.86984 0
M  V30 5254 C 458.453 1.13241 3.25992 0
M  V30 5255 C 457.566 2.35782 3.61982 0
M  V30 5256 C 456.701 2.09465 4.88158 0
M  V30 5257 C 455.74 3.279 5.16864 0
M  V30 5258 N 454.877 3.01167 6.34226 0
M  V30 5259 H 459.717 2.27642 1.9231 0
M  V30 5260 H 457.254 1.13125 0.94027 0
M  V30 5261 H 459.212 1.00115 4.0501 0
M  V30 5262 H 457.842 0.217186 3.22069 0
M  V30 5263 H 456.894 2.59666 2.77989 0
M  V30 5264 H 458.206 3.24125 3.79137 0
M  V30 5265 H 457.36 1.93341 5.75069 0
M  V30 5266 H 456.099 1.18452 4.73097 0
M  V30 5267 H 455.104 3.44569 4.2843 0
M  V30 5268 H 456.329 4.19757 5.33836 0
M  V30 5269 H 454.275 2.12779 6.20533 0
M  V30 5270 H 454.192 3.83052 6.51772 0
M  V30 5271 H 455.46 2.88649 7.24087 0
M  V30 5272 N 459.689 -1.00246 1.21608 0
M  V30 5273 C 460.938 -1.73476 1.02902 0
M  V30 5274 C 461.251 -1.90643 -0.437561 0
M  V30 5275 O 462.457 -2.61105 -0.74407 0
M  V30 5276 C 460.913 -3.12079 1.79261 0
M  V30 5277 C 460.521 -3.02877 3.30106 0
M  V30 5278 C 462.265 -3.89421 1.68972 0
M  V30 5279 C 460.172 -4.36575 3.98944 0
M  V30 5280 H 459.102 -0.650408 0.381425 0
M  V30 5281 H 461.753 -1.11985 1.45367 0
M  V30 5282 H 460.135 -3.74196 1.2959 0
M  V30 5283 H 461.309 -2.49983 3.87098 0
M  V30 5284 H 459.624 -2.39022 3.40965 0
M  V30 5285 H 462.221 -4.88362 2.17731 0
M  V30 5286 H 462.564 -4.1122 0.648397 0
M  V30 5287 H 463.097 -3.33963 2.16133 0
M  V30 5288 H 459.836 -4.19978 5.03288 0
M  V30 5289 H 459.356 -4.8942 3.4674 0
M  V30 5290 H 461.035 -5.05364 4.04 0
M  V30 5291 N 461.167 -1.02423 -1.1978 0
M  V30 5292 C 462.397 -0.736387 -1.93031 0
M  V30 5293 C 462.805 0.708023 -1.75453 0
M  V30 5294 O 462.148 1.4927 -1.07071 0
M  V30 5295 C 462.21 -1.00194 -3.45255 0
M  V30 5296 C 461.874 -2.43698 -3.86601 0
M  V30 5297 C 462.871 -3.41814 -3.91738 0
M  V30 5298 C 460.556 -2.77975 -4.18372 0
M  V30 5299 C 462.55 -4.72265 -4.28071 0
M  V30 5300 C 460.237 -4.08636 -4.54378 0
M  V30 5301 C 461.235 -5.05592 -4.59201 0
M  V30 5302 O 460.923 -6.33914 -4.94376 0
M  V30 5303 H 460.655 -0.269116 -0.620123 0
M  V30 5304 H 463.209 -1.37043 -1.52998 0
M  V30 5305 H 461.439 -0.310747 -3.85449 0
M  V30 5306 H 463.128 -0.704488 -3.9974 0
M  V30 5307 H 463.894 -3.16671 -3.67348 0
M  V30 5308 H 459.773 -2.0319 -4.13805 0
M  V30 5309 H 463.317 -5.4794 -4.3175 0
M  V30 5310 H 459.214 -4.33556 -4.78226 0
M  V30 5311 H 459.982 -6.38317 -5.12341 0
M  V30 5312 N 462.645 1.35699 -0.801477 0
M  V30 5313 C 463.87 2.03687 -0.390678 0
M  V30 5314 C 464.295 1.60015 0.988778 0
M  V30 5315 O 463.653 0.774357 1.63931 0
M  V30 5316 C 463.701 3.57439 -0.476404 0
M  V30 5317 O 462.805 4.09208 0.512106 0
M  V30 5318 H 462.146 0.64344 -0.163956 0
M  V30 5319 H 464.676 1.73403 -1.08594 0
M  V30 5320 H 464.686 4.06544 -0.344357 0
M  V30 5321 H 463.361 3.88576 -1.48262 0
M  V30 5322 H 461.938 3.7134 0.340721 0
M  V30 5323 N 464.123 0.554532 1.47522 0
M  V30 5324 C 465.372 0.0273458 2.01681 0
M  V30 5325 C 465.685 -1.32962 1.43459 0
M  V30 5326 O 466.891 -1.94657 1.89265 0
M  V30 5327 C 465.347 -0.00159057 3.599 0
M  V30 5328 C 464.955 1.35197 4.27113 0
M  V30 5329 C 466.699 -0.476311 4.21819 0
M  V30 5330 C 464.606 1.28229 5.77331 0
M  V30 5331 H 463.536 0.00645269 0.753972 0
M  V30 5332 H 466.187 0.701985 1.69542 0
M  V30 5333 H 464.569 -0.741821 3.8899 0
M  V30 5334 H 465.743 2.1097 4.09668 0
M  V30 5335 H 464.058 1.76441 3.77171 0
M  V30 5336 H 466.655 -0.5468 5.31897 0
M  V30 5337 H 466.998 -1.4877 3.8881 0
M  V30 5338 H 467.531 0.20898 3.97251 0
M  V30 5339 H 464.27 2.26959 6.14955 0
M  V30 5340 H 463.79 0.566314 5.97121 0
M  V30 5341 H 465.469 0.983226 6.39485 0
M  V30 5342 N 465.601 -1.54893 0.290851 0
M  V30 5343 C 466.847 -2.0023 -0.321867 0
M  V30 5344 C 467.18 -1.179 -1.54316 0
M  V30 5345 O 466.455 -0.25293 -1.92848 0
M  V30 5346 C 466.738 -3.53456 -0.688515 0
M  V30 5347 C 466.591 -4.46532 0.541209 0
M  V30 5348 C 467.91 -4.13057 -1.51895 0
M  V30 5349 H 465.029 -0.727891 -0.115515 0
M  V30 5350 H 467.671 -1.85722 0.400931 0
M  V30 5351 H 465.821 -3.6595 -1.30433 0
M  V30 5352 H 467.493 -4.4596 1.17973 0
M  V30 5353 H 465.736 -4.17545 1.17636 0
M  V30 5354 H 466.407 -5.51475 0.240675 0
M  V30 5355 H 468.883 -4.03937 -0.99872 0
M  V30 5356 H 467.759 -5.20448 -1.74429 0
M  V30 5357 H 468.02 -3.64284 -2.50498 0
M  V30 5358 N 467.08 -0.0183926 -1.57589 0
M  V30 5359 C 468.01 0.965596 -2.12599 0
M  V30 5360 C 468.991 1.34641 -1.0395 0
M  V30 5361 O 470.176 1.42693 -1.31729 0
M  V30 5362 C 467.306 2.25149 -2.64434 0
M  V30 5363 C 466.26 2.01175 -3.77773 0
M  V30 5364 C 465.586 3.35937 -4.15994 0
M  V30 5365 C 466.886 1.35953 -5.04296 0
M  V30 5366 H 468.58 0.507504 -2.95067 0
M  V30 5367 H 466.126 0.242671 -1.41941 0
M  V30 5368 H 468.079 2.94357 -3.01549 0
M  V30 5369 H 466.803 2.73105 -1.79112 0
M  V30 5370 H 465.462 1.34388 -3.4108 0
M  V30 5371 H 465.11 3.81631 -3.27669 0
M  V30 5372 H 464.81 3.20705 -4.92364 0
M  V30 5373 H 466.334 4.0643 -4.55683 0
M  V30 5374 H 467.748 1.95144 -5.39065 0
M  V30 5375 H 466.145 1.31152 -5.85593 0
M  V30 5376 H 467.215 0.331071 -4.83768 0
M  V30 5377 N 468.558 1.5553 0.254621 0
M  V30 5378 C 469.505 1.89666 1.31512 0
M  V30 5379 C 470.475 0.750057 1.482 0
M  V30 5380 O 471.66 1.00301 1.62309 0
M  V30 5381 C 468.8 2.19009 2.667 0
M  V30 5382 C 467.913 3.46435 2.58083 0
M  V30 5383 C 467.048 3.65386 3.85573 0
M  V30 5384 C 466.087 4.8644 3.71541 0
M  V30 5385 N 465.224 5.01952 4.90906 0
M  V30 5386 H 470.064 2.80109 1.017 0
M  V30 5387 H 467.601 1.38666 0.490938 0
M  V30 5388 H 469.559 2.34025 3.45381 0
M  V30 5389 H 468.189 1.31779 2.94676 0
M  V30 5390 H 467.241 3.39792 1.71013 0
M  V30 5391 H 468.553 4.35258 2.43622 0
M  V30 5392 H 467.707 3.80319 4.72697 0
M  V30 5393 H 466.446 2.74781 4.02922 0
M  V30 5394 H 465.451 4.71491 2.82801 0
M  V30 5395 H 466.676 5.78497 3.55694 0
M  V30 5396 H 464.622 4.14283 5.08631 0
M  V30 5397 H 464.539 5.84851 4.79046 0
M  V30 5398 H 465.807 5.21289 5.7955 0
M  V30 5399 N 470.036 -0.519951 1.48776 0
M  V30 5400 C 471.282 -1.27711 1.57536 0
M  V30 5401 C 471.615 -1.92547 0.252866 0
M  V30 5402 O 470.89 -1.7979 -0.742021 0
M  V30 5403 C 471.173 -2.35875 2.72094 0
M  V30 5404 C 471.026 -1.75664 4.1408 0
M  V30 5405 C 472.345 -3.37575 2.82367 0
M  V30 5406 H 469.464 -0.462971 0.573434 0
M  V30 5407 H 472.106 -0.578194 1.80989 0
M  V30 5408 H 470.256 -2.95488 2.52228 0
M  V30 5409 H 471.928 -1.20025 4.45412 0
M  V30 5410 H 470.171 -1.06154 4.20611 0
M  V30 5411 H 470.842 -2.54029 4.90075 0
M  V30 5412 H 473.318 -2.87929 3.00393 0
M  V30 5413 H 472.194 -4.1064 3.64233 0
M  V30 5414 H 472.455 -3.98743 1.90936 0
M  V30 5415 N 471.514 -1.37532 -0.769588 0
M  V30 5416 C 472.461 -1.3347 -1.88293 0
M  V30 5417 C 473.431 -0.199891 -1.64893 0
M  V30 5418 O 474.616 -0.389594 -1.8678 0
M  V30 5419 C 471.756 -1.14968 -3.25387 0
M  V30 5420 C 470.869 -2.37698 -3.60727 0
M  V30 5421 C 470.004 -2.12051 -4.8704 0
M  V30 5422 C 469.043 -3.30636 -5.15117 0
M  V30 5423 N 468.18 -3.04527 -6.3262 0
M  V30 5424 H 473.02 -2.28658 -1.911 0
M  V30 5425 H 470.557 -1.13622 -0.934257 0
M  V30 5426 H 472.515 -1.02261 -4.04473 0
M  V30 5427 H 471.145 -0.234263 -3.21949 0
M  V30 5428 H 470.197 -2.61137 -2.76608 0
M  V30 5429 H 471.509 -3.26131 -3.77413 0
M  V30 5430 H 470.663 -1.96388 -5.74035 0
M  V30 5431 H 469.402 -1.20959 -4.72462 0
M  V30 5432 H 468.407 -3.46836 -4.26597 0
M  V30 5433 H 469.632 -4.22582 -5.31603 0
M  V30 5434 H 467.578 -2.16067 -6.19396 0
M  V30 5435 H 467.495 -3.86503 -6.49732 0
M  V30 5436 H 468.763 -2.92485 -7.22546 0
M  V30 5437 N 472.992 0.995999 -1.22138 0
M  V30 5438 C 473.922 2.10387 -1.01289 0
M  V30 5439 C 474.903 1.69975 0.0651454 0
M  V30 5440 O 476.088 1.9396 -0.0964628 0
M  V30 5441 C 473.218 3.42312 -0.586517 0
M  V30 5442 C 472.172 3.96558 -1.61014 0
M  V30 5443 C 471.498 5.24494 -1.0397 0
M  V30 5444 C 472.798 4.27595 -2.99933 0
M  V30 5445 H 474.492 2.28086 -1.93951 0
M  V30 5446 H 472.038 1.09607 -0.933928 0
M  V30 5447 H 473.991 4.19223 -0.427793 0
M  V30 5448 H 472.715 3.24431 0.375761 0
M  V30 5449 H 471.374 3.21776 -1.75658 0
M  V30 5450 H 471.022 5.02953 -0.0688703 0
M  V30 5451 H 470.722 5.61755 -1.72352 0
M  V30 5452 H 472.246 6.04042 -0.892494 0
M  V30 5453 H 473.66 4.95315 -2.8868 0
M  V30 5454 H 472.057 4.76021 -3.6541 0
M  V30 5455 H 473.127 3.35498 -3.50099 0
M  V30 5456 N 474.47 1.03057 1.19235 0
M  V30 5457 C 475.886 0.747947 1.40989 0
M  V30 5458 C 476.086 -0.666752 1.90149 0
M  V30 5459 O 475.142 -1.43249 2.07933 0
M  V30 5460 C 476.455 1.7855 2.41951 0
M  V30 5461 C 478.003 1.80524 2.55695 0
M  V30 5462 C 478.478 2.83243 3.59913 0
M  V30 5463 N 479.969 2.8207 3.67411 0
M  V30 5464 C 480.704 3.58204 4.47747 0
M  V30 5465 N 480.2 4.44057 5.31775 0
M  V30 5466 N 481.993 3.46738 4.42413 0
M  V30 5467 H 474.144 1.94367 0.856468 0
M  V30 5468 H 476.407 0.840412 0.438647 0
M  V30 5469 H 476.113 2.79973 2.12857 0
M  V30 5470 H 475.987 1.6092 3.41152 0
M  V30 5471 H 478.374 0.79778 2.84112 0
M  V30 5472 H 478.455 2.02229 1.56643 0
M  V30 5473 H 478.099 3.84161 3.32239 0
M  V30 5474 H 478.029 2.58795 4.5862 0
M  V30 5475 H 480.52 2.19803 3.074 0
M  V30 5476 H 480.833 4.98884 5.90199 0
M  V30 5477 H 479.178 4.48129 5.3123 0
M  V30 5478 H 482.369 2.79077 3.75811 0
M  V30 5479 H 482.542 4.06322 5.04783 0
M  V30 5480 N 475.948 -1.35272 0.808662 0
M  V30 5481 C 476.896 -2.31663 0.208606 0
M  V30 5482 C 477.89 -1.56731 -0.642778 0
M  V30 5483 O 479.096 -1.71843 -0.53571 0
M  V30 5484 H 475.471 -0.750421 0.0486993 0
M  V30 5485 H 477.442 -2.79814 1.03666 0
M  V30 5486 C 476.191 -3.42008 -0.626573 0
M  V30 5487 H 475.514 -3.99795 0.0192103 0
M  V30 5488 H 476.954 -4.11727 -1.01278 0
M  V30 5489 C 475.413 -2.85226 -1.79298 0
M  V30 5490 O 475.943 -2.78945 -2.89055 0
M  V30 5491 N 474.149 -2.42245 -1.60516 0
M  V30 5492 H 473.696 -2.47554 -0.712375 0
M  V30 5493 H 473.654 -2.04603 -2.38715 0
M  V30 5494 N 477.426 -0.562348 -1.47226 0
M  V30 5495 C 478.336 0.185466 -2.33866 0
M  V30 5496 C 479.352 0.906713 -1.48508 0
M  V30 5497 O 480.528 0.874458 -1.81425 0
M  V30 5498 C 477.593 1.19904 -3.25306 0
M  V30 5499 C 476.654 0.484669 -4.26555 0
M  V30 5500 C 475.887 1.44996 -5.13626 0
M  V30 5501 O 476.11 2.68515 -5.03245 0
M  V30 5502 O 475.044 0.971642 -5.94006 0
M  V30 5503 H 478.87 -0.525361 -2.99121 0
M  V30 5504 H 476.455 -0.322916 -1.45868 0
M  V30 5505 H 478.337 1.78399 -3.81774 0
M  V30 5506 H 477.012 1.8917 -2.62672 0
M  V30 5507 H 475.919 -0.141605 -3.73832 0
M  V30 5508 H 477.252 -0.166634 -4.91918 0
M  V30 5509 N 478.904 1.54736 -0.299062 0
M  V30 5510 C 480.315 1.8569 0.193971 0
M  V30 5511 C 480.666 1.22101 1.53577 0
M  V30 5512 O 479.791 0.51799 2.10109 0
M  V30 5513 C 480.386 3.36895 0.358733 0
M  V30 5514 C 478.945 3.67887 0.795986 0
M  V30 5515 C 478.092 2.77131 -0.096807 0
M  V30 5516 H 481.043 1.49934 -0.520134 0
M  V30 5517 H 481.064 3.61294 1.19361 0
M  V30 5518 H 480.576 3.83148 -0.617998 0
M  V30 5519 H 478.677 3.27151 1.78334 0
M  V30 5520 H 478.79 4.75114 0.616718 0
M  V30 5521 H 477.154 2.51153 0.423581 0
M  V30 5522 H 477.937 3.26204 -1.06986 0
M  V30 5523 N 480.382 0.0267497 1.57577 0
M  V30 5524 C 481.292 -0.971633 2.13533 0
M  V30 5525 C 482.308 -1.35868 1.08701 0
M  V30 5526 O 483.484 -1.44058 1.40746 0
M  V30 5527 C 480.549 -2.23622 2.64941 0
M  V30 5528 C 479.61 -1.90982 3.8448 0
M  V30 5529 C 478.843 -3.11411 4.33427 0
M  V30 5530 O 479.066 -4.23992 3.81558 0
M  V30 5531 O 478 -2.93848 5.25297 0
M  V30 5532 H 481.826 -0.525853 2.99113 0
M  V30 5533 H 479.411 -0.193712 1.48139 0
M  V30 5534 H 481.293 -2.97864 2.98086 0
M  V30 5535 H 479.968 -2.67386 1.82446 0
M  V30 5536 H 478.875 -1.14132 3.56265 0
M  V30 5537 H 480.208 -1.52036 4.6813 0
M  V30 5538 N 481.861 -1.55662 -0.24637 0
M  V30 5539 C 482.791 -1.93377 -1.30873 0
M  V30 5540 C 483.772 -0.798773 -1.50179 0
M  V30 5541 O 484.957 -1.0591 -1.62778 0
M  V30 5542 C 482.087 -2.22893 -2.66338 0
M  V30 5543 C 481.041 -3.38649 -2.61727 0
M  V30 5544 C 480.367 -3.53708 -4.00992 0
M  V30 5545 C 481.667 -4.74323 -2.18666 0
M  V30 5546 H 483.361 -2.82363 -0.995552 0
M  V30 5547 H 480.907 -1.35854 -0.477464 0
M  V30 5548 H 482.86 -2.47866 -3.40794 0
M  V30 5549 H 481.584 -1.30733 -2.99293 0
M  V30 5550 H 480.243 -3.13685 -1.89729 0
M  V30 5551 H 479.891 -2.58967 -4.31214 0
M  V30 5552 H 479.591 -4.31551 -3.98795 0
M  V30 5553 H 481.115 -3.81003 -4.77147 0
M  V30 5554 H 482.529 -4.98665 -2.82854 0
M  V30 5555 H 480.926 -5.55273 -2.27579 0
M  V30 5556 H 481.996 -4.71349 -1.13834 0
M  V30 5557 N 483.339 0.512053 -1.4905 0
M  V30 5558 C 484.286 1.6148 -1.64902 0
M  V30 5559 C 485.256 1.58687 -0.490673 0
M  V30 5560 O 486.441 1.76842 -0.71636 0
M  V30 5561 C 483.581 2.99676 -1.71139 0
M  V30 5562 C 482.694 3.12568 -2.98203 0
M  V30 5563 C 481.829 4.4143 -2.95487 0
M  V30 5564 C 480.868 4.47916 -4.17179 0
M  V30 5565 N 480.005 5.68191 -4.12437 0
M  V30 5566 H 484.845 1.47271 -2.59066 0
M  V30 5567 H 482.382 0.716713 -1.28459 0
M  V30 5568 H 484.34 3.79761 -1.72736 0
M  V30 5569 H 482.97 3.12614 -0.804508 0
M  V30 5570 H 482.022 2.25618 -3.06269 0
M  V30 5571 H 483.334 3.1322 -3.88194 0
M  V30 5572 H 482.488 5.29825 -2.95585 0
M  V30 5573 H 481.227 4.43326 -2.03256 0
M  V30 5574 H 480.232 3.57925 -4.17337 0
M  V30 5575 H 481.457 4.47744 -5.1059 0
M  V30 5576 H 479.403 5.7095 -3.23036 0
M  V30 5577 H 479.32 5.70413 -4.96151 0
M  V30 5578 H 480.588 6.58823 -4.16621 0
M  V30 5579 N 484.817 1.37938 0.762283 0
M  V30 5580 C 485.764 1.34467 1.87583 0
M  V30 5581 C 486.734 0.208633 1.64785 0
M  V30 5582 O 487.919 0.399494 1.86571 0
M  V30 5583 C 485.059 1.16692 3.24772 0
M  V30 5584 C 484.172 2.39608 3.59461 0
M  V30 5585 C 483.307 2.14631 4.85908 0
M  V30 5586 C 482.346 3.33364 5.13357 0
M  V30 5587 N 481.483 3.07877 6.30996 0
M  V30 5588 H 486.323 2.29669 1.89885 0
M  V30 5589 H 483.86 1.14116 0.928219 0
M  V30 5590 H 485.818 1.04405 4.03925 0
M  V30 5591 H 484.448 0.251333 3.2182 0
M  V30 5592 H 483.5 2.626 2.75219 0
M  V30 5593 H 484.812 3.28128 3.75678 0
M  V30 5594 H 483.966 1.99429 5.72986 0
M  V30 5595 H 482.705 1.23463 4.71814 0
M  V30 5596 H 481.71 3.49094 4.24751 0
M  V30 5597 H 482.935 4.25395 5.29354 0
M  V30 5598 H 480.881 2.19348 6.18241 0
M  V30 5599 H 480.798 3.89944 6.47673 0
M  V30 5600 H 482.066 2.96313 7.20985 0
M  V30 5601 N 486.295 -0.989507 1.22664 0
M  V30 5602 C 487.525 -1.7624 1.0781 0
M  V30 5603 C 487.933 -1.85466 -0.374036 0
M  V30 5604 O 487.276 -1.32645 -1.27087 0
M  V30 5605 C 487.338 -3.21007 1.61849 0
M  V30 5606 C 487.002 -3.35316 3.10503 0
M  V30 5607 C 487.999 -3.22362 4.07896 0
M  V30 5608 C 485.684 -3.60258 3.50028 0
M  V30 5609 C 487.678 -3.34139 5.42798 0
M  V30 5610 C 485.365 -3.71676 4.85078 0
M  V30 5611 C 486.363 -3.58625 5.81272 0
M  V30 5612 O 486.051 -3.69655 7.1387 0
M  V30 5613 H 485.783 -0.560209 0.378341 0
M  V30 5614 H 488.337 -1.25252 1.62792 0
M  V30 5615 H 486.567 -3.73202 1.01279 0
M  V30 5616 H 488.256 -3.80024 1.42606 0
M  V30 5617 H 489.022 -3.03 3.78703 0
M  V30 5618 H 484.901 -3.69492 2.75675 0
M  V30 5619 H 488.445 -3.23869 6.17863 0
M  V30 5620 H 484.342 -3.90545 5.1395 0
M  V30 5621 H 485.11 -3.86507 7.21495 0
M  V30 5622 N 487.773 -1.03688 -1.18687 0
M  V30 5623 C 488.736 -0.629115 -2.20397 0
M  V30 5624 C 489.736 0.311495 -1.57754 0
M  V30 5625 O 490.926 0.0974107 -1.73927 0
M  V30 5626 C 488.058 0.0782231 -3.4081 0
M  V30 5627 H 489.251 -1.52915 -2.57987 0
M  V30 5628 H 486.804 -0.828988 -1.32505 0
M  V30 5629 H 487.539 0.992233 -3.08748 0
M  V30 5630 H 487.324 -0.597776 -3.87517 0
M  V30 5631 H 488.814 0.350156 -4.16129 0
M  V30 5632 N 489.251 1.34841 -0.815825 0
M  V30 5633 C 490.184 2.27504 -0.178062 0
M  V30 5634 C 491.162 1.48542 0.661373 0
M  V30 5635 O 492.346 1.77779 0.626653 0
M  V30 5636 C 489.473 3.30246 0.752002 0
M  V30 5637 C 488.519 4.26499 -0.00899172 0
M  V30 5638 S 489.352 5.18169 -1.35134 0
M  V30 5639 C 490.508 6.24449 -0.42596 0
M  V30 5640 H 490.741 2.81248 -0.963684 0
M  V30 5641 H 488.274 1.41781 -0.611355 0
M  V30 5642 H 490.232 3.89933 1.28308 0
M  V30 5643 H 488.893 2.75363 1.51109 0
M  V30 5644 H 488.086 4.99146 0.697766 0
M  V30 5645 H 487.688 3.7103 -0.470396 0
M  V30 5646 H 489.98 6.76404 0.385234 0
M  V30 5647 H 490.923 6.99156 -1.1219 0
M  V30 5648 H 491.331 5.64497 -0.0175461 0
M  V30 5649 N 490.729 0.570148 1.46925 0
M  V30 5650 C 491.676 -0.170257 2.30171 0
M  V30 5651 C 492.646 -0.896099 1.39855 0
M  V30 5652 O 493.831 -0.889248 1.68811 0
M  V30 5653 C 490.971 -1.18605 3.24079 0
M  V30 5654 C 490.084 -0.464947 4.29491 0
M  V30 5655 C 489.219 -1.46716 5.10537 0
M  V30 5656 C 488.258 -0.731758 6.0771 0
M  V30 5657 N 487.395 -1.68142 6.81669 0
M  V30 5658 H 492.235 0.545713 2.92961 0
M  V30 5659 H 489.772 0.280938 1.44392 0
M  V30 5660 H 491.73 -1.78771 3.76957 0
M  V30 5661 H 490.36 -1.86989 2.63125 0
M  V30 5662 H 489.412 0.251506 3.79568 0
M  V30 5663 H 490.724 0.110548 4.98677 0
M  V30 5664 H 489.878 -2.14199 5.6763 0
M  V30 5665 H 488.617 -2.07658 4.41282 0
M  V30 5666 H 487.622 -0.0430787 5.49783 0
M  V30 5667 H 488.847 -0.127904 6.7898 0
M  V30 5668 H 486.793 -2.27918 6.15134 0
M  V30 5669 H 486.71 -1.15841 7.47072 0
M  V30 5670 H 487.978 -2.347 7.43328 0
M  V30 5671 N 492.207 -1.54576 0.307264 0
M  V30 5672 C 493.137 -2.26708 -0.55907 0
M  V30 5673 C 494.118 -1.26893 -1.1328 0
M  V30 5674 O 495.303 -1.55677 -1.16097 0
M  V30 5675 C 492.433 -3.01259 -1.72801 0
M  V30 5676 C 491.387 -4.08275 -1.28435 0
M  V30 5677 C 490.713 -4.70575 -2.53895 0
M  V30 5678 C 492.013 -5.2068 -0.411038 0
M  V30 5679 H 493.707 -2.9937 0.042576 0
M  V30 5680 H 491.253 -1.43983 0.0219173 0
M  V30 5681 H 493.206 -3.50444 -2.34023 0
M  V30 5682 H 491.93 -2.26187 -2.356 0
M  V30 5683 H 490.589 -3.59949 -0.695161 0
M  V30 5684 H 490.237 -3.92136 -3.15021 0
M  V30 5685 H 489.937 -5.42854 -2.24908 0
M  V30 5686 H 491.461 -5.22527 -3.15908 0
M  V30 5687 H 492.875 -5.65721 -0.929097 0
M  V30 5688 H 491.272 -5.99716 -0.214664 0
M  V30 5689 H 492.342 -4.81629 0.562287 0
M  V30 5690 N 493.685 -0.035106 -1.57561 0
M  V30 5691 C 494.615 0.942993 -2.13612 0
M  V30 5692 C 495.596 1.33531 -1.05373 0
M  V30 5693 O 496.781 1.41287 -1.33235 0
M  V30 5694 C 493.911 2.22332 -2.66807 0
M  V30 5695 C 492.865 1.97156 -3.79886 0
M  V30 5696 C 492.191 3.31506 -4.19533 0
M  V30 5697 C 493.491 1.30596 -5.05709 0
M  V30 5698 H 495.185 0.476179 -2.95589 0
M  V30 5699 H 492.731 0.227602 -1.4219 0
M  V30 5700 H 494.684 2.91142 -3.04654 0
M  V30 5701 H 493.408 2.7119 -1.81999 0
M  V30 5702 H 492.067 1.30763 -3.42486 0
M  V30 5703 H 491.715 3.78134 -3.31698 0
M  V30 5704 H 491.415 3.15465 -4.95738 0
M  V30 5705 H 492.939 4.01574 -4.59968 0
M  V30 5706 H 494.353 1.89416 -5.41105 0
M  V30 5707 H 492.75 1.24934 -5.86951 0
M  V30 5708 H 493.82 0.279742 -4.84092 0
M  V30 5709 N 495.163 1.55791 0.238111 0
M  V30 5710 C 496.393 1.81834 0.980809 0
M  V30 5711 C 496.801 0.609741 1.79106 0
M  V30 5712 O 496.144 -0.431073 1.78571 0
M  V30 5713 C 496.206 3.01363 1.96011 0
M  V30 5714 C 495.87 4.37037 1.33597 0
M  V30 5715 C 496.867 5.14692 0.734063 0
M  V30 5716 C 494.552 4.83743 1.3527 0
M  V30 5717 C 496.546 6.37206 0.157208 0
M  V30 5718 C 494.233 6.06204 0.77199 0
M  V30 5719 C 495.231 6.82775 0.175282 0
M  V30 5720 O 494.919 8.02922 -0.396432 0
M  V30 5721 H 494.651 0.6088 0.293834 0
M  V30 5722 H 497.205 2.03702 0.263552 0
M  V30 5723 H 495.435 2.75273 2.71591 0
M  V30 5724 H 497.124 3.14422 2.56697 0
M  V30 5725 H 497.89 4.79722 0.713582 0
M  V30 5726 H 493.769 4.24129 1.80653 0
M  V30 5727 H 497.313 6.96915 -0.30917 0
M  V30 5728 H 493.21 6.4065 0.789828 0
M  V30 5729 H 493.978 8.17989 -0.289145 0
M  V30 5730 N 496.642 -0.504142 1.49319 0
M  V30 5731 C 497.89 -1.25598 1.58334 0
M  V30 5732 C 498.211 -1.93114 0.270538 0
M  V30 5733 O 497.481 -1.82585 -0.709891 0
M  V30 5734 H 496.061 -0.466571 0.58337 0
M  V30 5735 H 498.723 -0.584547 1.85928 0
M  V30 5736 H 497.819 -2.02159 2.37778 0
M  V30 5737 N 498.12 -1.38341 -0.754957 0
M  V30 5738 C 499.397 -1.24995 -1.50451 0
M  V30 5739 C 499.777 0.149244 -2.10572 0
M  V30 5740 O 499.125 1.15861 -1.96948 0
M  V30 5741 C 499.335 -2.35904 -2.57197 0
M  V30 5742 C 500.683 -2.74262 -3.24138 0
M  V30 5743 O 501.707 -2.35205 -2.67501 0
M  V30 5744 O 500.566 -3.4161 -4.26574 0
M  V30 5745 H 497.66 -0.48872 -0.667144 0
M  V30 5746 H 500.206 -1.50165 -0.790486 0
M  V30 5747 H 498.978 -3.2953 -2.11011 0
M  V30 5748 H 498.601 -2.12291 -3.36182 0
M  V30 5749 N 499.598 0.982988 -1.23187 0
M  V30 5750 C 500.561 2.05649 -1.01198 0
M  V30 5751 C 501.561 1.6078 0.0252464 0
M  V30 5752 O 502.751 1.72878 -0.214243 0
M  V30 5753 C 499.883 3.36744 -0.530656 0
M  V30 5754 H 501.076 2.2659 -1.96461 0
M  V30 5755 H 498.629 1.15602 -1.05195 0
M  V30 5756 H 499.364 3.21492 0.425873 0
M  V30 5757 H 499.149 3.7065 -1.2791 0
M  V30 5758 H 500.639 4.15705 -0.397366 0
M  V30 5759 N 501.076 1.04316 1.18135 0
M  V30 5760 C 502.006 0.657299 2.24058 0
M  V30 5761 C 502.987 -0.340678 1.66654 0
M  V30 5762 O 504.172 -0.220223 1.92947 0
M  V30 5763 C 501.302 0.0220715 3.47293 0
M  V30 5764 C 500.256 0.943857 4.17463 0
M  V30 5765 C 499.582 0.172973 5.3442 0
M  V30 5766 C 500.882 2.26409 4.70677 0
M  V30 5767 H 502.576 1.5428 2.56589 0
M  V30 5768 H 500.122 0.743263 1.23335 0
M  V30 5769 H 502.075 -0.259607 4.206 0
M  V30 5770 H 500.799 -0.898323 3.14003 0
M  V30 5771 H 499.458 1.20996 3.46057 0
M  V30 5772 H 499.106 -0.749907 4.97379 0
M  V30 5773 H 498.806 0.787098 5.82304 0
M  V30 5774 H 500.33 -0.101628 6.10515 0
M  V30 5775 H 501.744 2.04294 5.35665 0
M  V30 5776 H 500.141 2.8314 5.29105 0
M  V30 5777 H 501.211 2.90883 3.87962 0
M  V30 5778 N 502.554 -1.34406 0.822964 0
M  V30 5779 C 503.803 -1.97542 0.407458 0
M  V30 5780 C 504.116 -1.65973 -1.035 0
M  V30 5781 O 505.322 -2.22598 -1.55442 0
M  V30 5782 C 503.778 -3.53463 0.677623 0
M  V30 5783 C 503.386 -3.93925 2.1337 0
M  V30 5784 C 505.13 -4.23229 0.328284 0
M  V30 5785 C 503.037 -5.42759 2.34876 0
M  V30 5786 H 501.967 -0.739207 0.148623 0
M  V30 5787 H 504.618 -1.53248 1.00932 0
M  V30 5788 H 503 -3.96 0.00558965 0
M  V30 5789 H 504.174 -3.62494 2.8449 0
M  V30 5790 H 502.489 -3.37097 2.44448 0
M  V30 5791 H 505.086 -5.32659 0.466794 0
M  V30 5792 H 505.429 -4.09899 -0.727224 0
M  V30 5793 H 505.962 -3.86169 0.954896 0
M  V30 5794 H 502.701 -5.61075 3.38932 0
M  V30 5795 H 502.221 -5.75704 1.68299 0
M  V30 5796 H 503.9 -6.0944 2.17236 0
M  V30 5797 N 504.032 -0.577932 -1.46621 0
M  V30 5798 C 504.965 0.206312 -2.27265 0
M  V30 5799 C 505.943 0.901306 -1.35334 0
M  V30 5800 O 507.127 0.916151 -1.64739 0
M  V30 5801 C 504.254 1.29563 -3.1294 0
M  V30 5802 C 503.3 0.706981 -4.206 0
M  V30 5803 S 504.133 -0.462459 -5.33499 0
M  V30 5804 C 505.289 0.628171 -6.2274 0
M  V30 5805 H 505.522 -0.477961 -2.93433 0
M  V30 5806 H 503.055 -0.364715 -1.50031 0
M  V30 5807 H 505.013 1.91935 -3.62865 0
M  V30 5808 H 503.674 1.95183 -2.46095 0
M  V30 5809 H 502.867 1.52565 -4.80354 0
M  V30 5810 H 502.469 0.159022 -3.73662 0
M  V30 5811 H 504.761 1.51506 -6.60342 0
M  V30 5812 H 505.704 0.0674961 -7.08068 0
M  V30 5813 H 506.112 0.930167 -5.56784 0
M  V30 5814 N 505.51 1.54411 -0.315457 0
M  V30 5815 C 506.759 1.99599 0.290395 0
M  V30 5816 C 507.072 1.20746 1.53882 0
M  V30 5817 O 508.278 1.56272 2.22017 0
M  V30 5818 C 506.734 3.5539 0.56797 0
M  V30 5819 C 506.342 4.43068 -0.662945 0
M  V30 5820 C 508.086 4.09067 1.13422 0
M  V30 5821 C 505.993 5.90317 -0.357722 0
M  V30 5822 H 504.923 0.745592 0.112286 0
M  V30 5823 H 507.574 1.78477 -0.426418 0
M  V30 5824 H 505.956 3.72468 1.34476 0
M  V30 5825 H 507.13 4.37765 -1.43869 0
M  V30 5826 H 505.445 4.00238 -1.14884 0
M  V30 5827 H 508.042 5.16663 1.37707 0
M  V30 5828 H 508.385 3.60552 2.08106 0
M  V30 5829 H 508.918 3.95589 0.418805 0
M  V30 5830 H 505.657 6.4301 -1.27351 0
M  V30 5831 H 505.177 5.98592 0.380472 0
M  V30 5832 H 506.856 6.4699 0.0354284 0
M  V30 5833 N 506.988 0.0434614 1.5754 0
M  V30 5834 C 508.216 -0.641835 1.96693 0
M  V30 5835 C 508.631 -1.64832 0.920652 0
M  V30 5836 O 507.988 -1.82247 -0.095993 0
M  V30 5837 C 508.039 -1.33557 3.35924 0
M  V30 5838 O 507.76 -0.369403 4.3654 0
M  V30 5839 C 509.261 -2.11135 3.89791 0
M  V30 5840 H 506.481 -0.176013 0.647503 0
M  V30 5841 H 509.025 0.107478 2.04217 0
M  V30 5842 H 507.18 -2.03617 3.29574 0
M  V30 5843 H 507.594 -0.863674 5.1734 0
M  V30 5844 H 509.068 -2.55107 4.89514 0
M  V30 5845 H 509.545 -2.95634 3.24803 0
M  V30 5846 H 510.151 -1.46002 3.99454 0
M  V30 5847 N 508.466 -1.55915 -0.229846 0
M  V30 5848 C 509.413 -1.91734 -1.28478 0
M  V30 5849 C 510.383 -0.773539 -1.46988 0
M  V30 5850 O 511.568 -1.02871 -1.60693 0
M  V30 5851 C 508.708 -2.23224 -2.63182 0
M  V30 5852 C 507.821 -3.50497 -2.52539 0
M  V30 5853 C 506.956 -3.71474 -3.79711 0
M  V30 5854 C 505.995 -4.92289 -3.63755 0
M  V30 5855 N 505.132 -5.09698 -4.82858 0
M  V30 5856 H 509.972 -2.81692 -0.972308 0
M  V30 5857 H 507.509 -1.39429 -0.468815 0
M  V30 5858 H 509.467 -2.3949 -3.41614 0
M  V30 5859 H 508.097 -1.36451 -2.92542 0
M  V30 5860 H 507.149 -3.4247 -1.65585 0
M  V30 5861 H 508.461 -4.39079 -2.36666 0
M  V30 5862 H 507.615 -3.87791 -4.66586 0
M  V30 5863 H 506.354 -2.81157 -3.985 0
M  V30 5864 H 505.359 -4.7593 -2.75264 0
M  V30 5865 H 506.584 -5.84083 -3.46445 0
M  V30 5866 H 504.53 -4.22322 -5.01976 0
M  V30 5867 H 504.447 -5.92399 -4.69681 0
M  V30 5868 H 505.715 -5.30443 -5.71183 0
M  V30 5869 N 509.944 0.496216 -1.49584 0
M  V30 5870 C 511.193 1.24668 -1.58558 0
M  V30 5871 C 511.506 1.9359 -0.279703 0
M  V30 5872 O 512.712 2.70365 -0.248048 0
M  V30 5873 C 511.168 2.26388 -2.79779 0
M  V30 5874 C 510.776 1.63384 -4.17145 0
M  V30 5875 C 512.52 3.02233 -2.98086 0
M  V30 5876 C 510.427 2.63243 -5.29582 0
M  V30 5877 H 509.357 0.468995 -0.590389 0
M  V30 5878 H 512.008 0.519985 -1.75978 0
M  V30 5879 H 510.39 3.02241 -2.55863 0
M  V30 5880 H 511.564 0.93491 -4.51216 0
M  V30 5881 H 509.879 0.999121 -4.04236 0
M  V30 5882 H 512.476 3.76919 -3.79257 0
M  V30 5883 H 512.819 3.60132 -2.08831 0
M  V30 5884 H 513.352 2.33495 -3.22063 0
M  V30 5885 H 510.091 2.10119 -6.20911 0
M  V30 5886 H 509.611 3.31363 -4.99959 0
M  V30 5887 H 511.29 3.25575 -5.59115 0
M  V30 5888 N 511.423 1.38739 0.74761 0
M  V30 5889 C 512.669 1.3648 1.50814 0
M  V30 5890 C 513.024 -0.0431982 1.92351 0
M  V30 5891 O 512.317 -1.0071 1.62997 0
M  V30 5892 C 512.511 2.25992 2.7688 0
M  V30 5893 C 512.34 3.75354 2.47668 0
M  V30 5894 C 511.11 4.44348 2.40589 0
M  V30 5895 C 513.308 4.67642 2.14046 0
M  V30 5896 N 511.29 5.79114 2.03715 0
M  V30 5897 C 512.661 5.90965 1.87512 0
M  V30 5898 C 514.716 4.55787 2.00407 0
M  V30 5899 C 513.419 7.03759 1.48714 0
M  V30 5900 C 515.445 5.68491 1.63011 0
M  V30 5901 C 514.807 6.90879 1.37353 0
M  V30 5902 H 510.906 0.554695 0.551214 0
M  V30 5903 H 513.49 1.7418 0.870033 0
M  V30 5904 H 511.661 1.9047 3.3849 0
M  V30 5905 H 513.393 2.14815 3.42982 0
M  V30 5906 H 510.148 3.97634 2.57262 0
M  V30 5907 H 510.572 6.504 1.87906 0
M  V30 5908 H 515.214 3.61712 2.18916 0
M  V30 5909 H 512.932 7.97746 1.28945 0
M  V30 5910 H 516.518 5.613 1.53081 0
M  V30 5911 H 515.398 7.76609 1.08848 0
M  V30 5912 N 512.901 -0.976442 1.23707 0
M  V30 5913 C 513.848 -2.06952 1.02174 0
M  V30 5914 C 514.818 -1.65984 -0.0621034 0
M  V30 5915 O 516.003 -1.90584 0.0907906 0
M  V30 5916 C 513.143 -3.39425 0.62327 0
M  V30 5917 C 512.256 -3.9364 1.77966 0
M  V30 5918 C 511.391 -5.14343 1.3276 0
M  V30 5919 C 510.43 -5.60733 2.45449 0
M  V30 5920 N 509.567 -6.72662 2.01172 0
M  V30 5921 H 514.407 -2.24704 1.95734 0
M  V30 5922 H 511.944 -1.10143 0.975034 0
M  V30 5923 H 513.902 -4.15526 0.37332 0
M  V30 5924 H 512.532 -3.21624 -0.275329 0
M  V30 5925 H 511.584 -3.14258 2.14351 0
M  V30 5926 H 512.896 -4.24035 2.62671 0
M  V30 5927 H 512.05 -5.97789 1.03601 0
M  V30 5928 H 510.789 -4.8561 0.450975 0
M  V30 5929 H 509.794 -4.75865 2.75378 0
M  V30 5930 H 511.019 -5.91483 3.33654 0
M  V30 5931 H 508.965 -6.45681 1.15895 0
M  V30 5932 H 508.882 -7.02462 2.79434 0
M  V30 5933 H 510.15 -7.59572 1.75129 0
M  V30 5934 N 514.379 -1.04941 -1.1758 0
M  V30 5935 C 515.309 -0.669172 -2.23706 0
M  V30 5936 C 516.29 0.331835 -1.66832 0
M  V30 5937 O 517.475 0.209988 -1.93061 0
M  V30 5938 C 514.605 -0.0404889 -3.47276 0
M  V30 5939 C 513.559 -0.965983 -4.16957 0
M  V30 5940 C 512.885 -0.201312 -5.34321 0
M  V30 5941 C 514.185 -2.28902 -4.69469 0
M  V30 5942 H 515.879 -1.55639 -2.55767 0
M  V30 5943 H 513.425 -0.749793 -1.22939 0
M  V30 5944 H 515.378 0.237298 -4.20731 0
M  V30 5945 H 514.102 0.881658 -3.14475 0
M  V30 5946 H 512.761 -1.22829 -3.45411 0
M  V30 5947 H 512.409 0.723519 -4.97769 0
M  V30 5948 H 512.109 -0.817968 -5.81879 0
M  V30 5949 H 513.633 0.0692499 -6.10561 0
M  V30 5950 H 515.047 -2.07132 -5.34574 0
M  V30 5951 H 513.444 -2.85942 -5.27596 0
M  V30 5952 H 514.514 -2.92937 -3.86414 0
M  V30 5953 N 515.857 1.33968 -0.830081 0
M  V30 5954 C 517.082 2.02813 -0.433796 0
M  V30 5955 C 517.507 1.62076 0.954614 0
M  V30 5956 O 516.865 0.808955 1.62252 0
M  V30 5957 C 516.913 3.56348 -0.552115 0
M  V30 5958 O 516.017 4.10202 0.425191 0
M  V30 5959 H 515.358 0.639817 -0.177567 0
M  V30 5960 H 517.888 1.7106 -1.12248 0
M  V30 5961 H 517.898 4.05722 -0.430513 0
M  V30 5962 H 516.573 3.85344 -1.56471 0
M  V30 5963 H 515.15 3.71979 0.261878 0
M  V30 5964 N 517.335 0.585699 1.46312 0
M  V30 5965 C 518.565 0.0780166 2.06453 0
M  V30 5966 C 518.973 -1.2336 1.43454 0
M  V30 5967 O 518.316 -1.75734 0.535086 0
M  V30 5968 C 518.378 -0.158951 3.59148 0
M  V30 5969 C 518.042 1.06752 4.44357 0
M  V30 5970 C 519.039 1.98031 4.80708 0
M  V30 5971 C 516.724 1.2902 4.85447 0
M  V30 5972 C 518.718 3.09924 5.5698 0
M  V30 5973 C 516.405 2.41218 5.61478 0
M  V30 5974 C 517.403 3.31499 5.97158 0
M  V30 5975 O 517.091 4.41747 6.71651 0
M  V30 5976 H 516.823 0.0558894 0.673686 0
M  V30 5977 H 519.377 0.806994 1.88883 0
M  V30 5978 H 517.607 -0.942575 3.75037 0
M  V30 5979 H 519.296 -0.615513 4.01206 0
M  V30 5980 H 520.062 1.82043 4.49539 0
M  V30 5981 H 515.941 0.596567 4.57124 0
M  V30 5982 H 519.485 3.80415 5.84748 0
M  V30 5983 H 515.382 2.57167 5.9206 0
M  V30 5984 H 516.15 4.40152 6.90079 0
M  V30 5985 N 518.813 -1.54241 0.323641 0
M  V30 5986 C 520.059 -2.00867 -0.279323 0
M  V30 5987 C 520.392 -1.21146 -1.5178 0
M  V30 5988 O 519.667 -0.29378 -1.92269 0
M  V30 5989 C 519.95 -3.54837 -0.613387 0
M  V30 5990 C 519.803 -4.45284 0.635803 0
M  V30 5991 C 521.122 -4.16186 -1.43099 0
M  V30 5992 H 518.241 -0.730177 -0.100049 0
M  V30 5993 H 520.883 -1.84829 0.440235 0
M  V30 5994 H 519.033 -3.68634 -1.22641 0
M  V30 5995 H 520.705 -4.43357 1.27406 0
M  V30 5996 H 518.948 -4.14956 1.26466 0
M  V30 5997 H 519.619 -5.5084 0.357597 0
M  V30 5998 H 522.095 -4.05964 -0.912814 0
M  V30 5999 H 520.971 -5.24031 -1.6335 0
M  V30 6000 H 521.232 -3.69516 -2.42715 0
M  V30 6001 N 520.291 -0.0518155 -1.57515 0
M  V30 6002 C 521.239 0.940195 -2.12751 0
M  V30 6003 C 522.233 1.3218 -1.05948 0
M  V30 6004 O 523.439 1.30138 -1.24355 0
M  V30 6005 H 519.814 0.321066 -0.680015 0
M  V30 6006 H 521.785 0.449217 -2.94999 0
M  V30 6007 C 520.534 2.2055 -2.68799 0
M  V30 6008 H 519.857 1.92066 -3.50643 0
M  V30 6009 H 521.297 2.88119 -3.11068 0
M  V30 6010 C 519.756 2.95061 -1.62605 0
M  V30 6011 O 520.286 3.88025 -1.03921 0
M  V30 6012 N 518.492 2.57804 -1.34111 0
M  V30 6013 H 518.039 1.82281 -1.8202 0
M  V30 6014 H 517.997 3.07964 -0.632872 0
M  V30 6015 N 521.769 1.56035 0.221574 0
M  V30 6016 C 523.015 1.79312 0.947372 0
M  V30 6017 C 523.348 0.621453 1.83988 0
M  V30 6018 O 522.623 -0.379287 1.90766 0
M  V30 6019 C 522.906 3.1267 1.78633 0
M  V30 6020 C 522.759 4.40284 0.920312 0
M  V30 6021 C 524.078 3.4247 2.7641 0
M  V30 6022 H 521.197 0.652328 0.342982 0
M  V30 6023 H 523.839 1.88765 0.216244 0
M  V30 6024 H 521.989 3.04741 2.40967 0
M  V30 6025 H 523.661 4.60232 0.313718 0
M  V30 6026 H 521.904 4.33212 0.225734 0
M  V30 6027 H 522.575 5.30033 1.54171 0
M  V30 6028 H 525.051 3.50526 2.24211 0
M  V30 6029 H 523.927 4.3695 3.32213 0
M  V30 6030 H 524.188 2.64635 3.54148 0
M  V30 6031 N 523.247 -0.488276 1.49845 0
M  V30 6032 C 524.472 -1.26997 1.63971 0
M  V30 6033 C 524.897 -1.85427 0.315994 0
M  V30 6034 O 524.255 -1.66475 -0.718032 0
M  V30 6035 C 524.303 -2.36689 2.72049 0
M  V30 6036 O 523.407 -3.40882 2.32107 0
M  V30 6037 H 522.748 -0.374376 0.548396 0
M  V30 6038 H 525.278 -0.583104 1.96115 0
M  V30 6039 H 525.288 -2.82262 2.94605 0
M  V30 6040 H 523.963 -1.93529 3.68129 0
M  V30 6041 H 522.54 -3.01139 2.19931 0
M  V30 6042 N 524.725 -1.39134 -0.740242 0
M  V30 6043 C 525.635 -1.39697 -1.88473 0
M  V30 6044 C 526.651 -0.292403 -1.71526 0
M  V30 6045 O 527.827 -0.533021 -1.94219 0
M  V30 6046 C 524.892 -1.23382 -3.24003 0
M  V30 6047 C 523.953 -2.43763 -3.53381 0
M  V30 6048 C 523.186 -2.28216 -4.82445 0
M  V30 6049 O 523.409 -1.28288 -5.55786 0
M  V30 6050 O 522.343 -3.1709 -5.11603 0
M  V30 6051 H 526.169 -2.36159 -1.90952 0
M  V30 6052 H 523.754 -1.20194 -0.887346 0
M  V30 6053 H 525.636 -1.16395 -4.05006 0
M  V30 6054 H 524.311 -0.300121 -3.22306 0
M  V30 6055 H 523.218 -2.56325 -2.72485 0
M  V30 6056 H 524.551 -3.35808 -3.59852 0
M  V30 6057 N 526.204 0.969867 -1.24223 0
M  V30 6058 C 527.154 2.04913 -0.999732 0
M  V30 6059 C 528.138 1.60795 0.0580636 0
M  V30 6060 O 529.33 1.76317 -0.155392 0
M  V30 6061 C 526.459 3.37942 -0.604154 0
M  V30 6062 C 525.545 3.88628 -1.69791 0
M  V30 6063 N 525.936 4.12274 -2.93025 0
M  V30 6064 C 524.234 4.17268 -1.57492 0
M  V30 6065 C 524.935 4.53808 -3.63914 0
M  V30 6066 N 523.911 4.58855 -2.91468 0
M  V30 6067 H 527.713 2.21168 -1.93551 0
M  V30 6068 H 525.227 1.15349 -1.14317 0
M  V30 6069 H 527.224 4.14863 -0.411665 0
M  V30 6070 H 525.884 3.23075 0.324465 0
M  V30 6071 H 526.895 3.99789 -3.29225 0
M  V30 6072 H 523.572 4.11346 -0.714175 0
M  V30 6073 H 524.962 4.80534 -4.69614 0
M  V30 6074 N 527.682 1.05563 1.17022 0
M  V30 6075 C 528.612 0.681026 2.23348 0
M  V30 6076 C 529.593 -0.322983 1.67005 0
M  V30 6077 O 530.778 -0.199746 1.9317 0
M  V30 6078 C 527.908 0.0589053 3.4725 0
M  V30 6079 C 526.862 0.988082 4.16438 0
M  V30 6080 C 526.188 0.229646 5.34207 0
M  V30 6081 C 527.488 2.31388 4.68249 0
M  V30 6082 H 529.182 1.56993 2.54938 0
M  V30 6083 H 526.728 0.756302 1.2254 0
M  V30 6084 H 528.681 -0.214982 4.20851 0
M  V30 6085 H 527.405 -0.864968 3.14938 0
M  V30 6086 H 526.064 1.24659 3.44754 0
M  V30 6087 H 525.712 -0.697111 4.98146 0
M  V30 6088 H 525.412 0.848815 5.81437 0
M  V30 6089 H 526.936 -0.0368694 6.10589 0
M  V30 6090 H 528.35 2.09964 5.33468 0
M  V30 6091 H 526.747 2.88736 5.26072 0
M  V30 6092 H 527.817 2.94982 3.84855 0
M  V30 6093 N 529.16 -1.33526 0.837174 0
M  V30 6094 C 530.108 -2.31168 0.257698 0
M  V30 6095 C 531.102 -1.5806 -0.609388 0
M  V30 6096 O 532.308 -1.72941 -0.499139 0
M  V30 6097 H 528.683 -0.74922 0.0646058 0
M  V30 6098 H 530.654 -2.77552 1.09578 0
M  V30 6099 C 529.403 -3.4326 -0.553887 0
M  V30 6100 H 528.726 -3.99665 0.104008 0
M  V30 6101 H 530.166 -4.13782 -0.925219 0
M  V30 6102 C 528.625 -2.88965 -1.73207 0
M  V30 6103 O 529.155 -2.85013 -2.83073 0
M  V30 6104 N 527.361 -2.45596 -1.55342 0
M  V30 6105 H 526.908 -2.49009 -0.659705 0
M  V30 6106 H 526.866 -2.0962 -2.34322 0
M  V30 6107 N 530.638 -0.59345 -1.46 0
M  V30 6108 C 531.886 -0.082988 -2.0193 0
M  V30 6109 C 532.207 1.28569 -1.46612 0
M  V30 6110 O 531.477 1.84629 -0.654909 0
M  V30 6111 H 530.057 -0.0276882 -0.746487 0
M  V30 6112 H 532.719 -0.771657 -1.78973 0
M  V30 6113 H 531.815 -0.022079 -3.12092 0
M  V30 6114 N 532.116 1.54067 -0.331816 0
M  V30 6115 C 533.063 2.24623 0.530372 0
M  V30 6116 C 534.033 1.24009 1.10503 0
M  V30 6117 O 535.218 1.52712 1.14384 0
M  V30 6118 C 532.358 3.01374 1.68129 0
M  V30 6119 C 531.471 4.16821 1.13507 0
M  V30 6120 C 530.606 4.81085 2.25234 0
M  V30 6121 C 529.645 5.88621 1.67903 0
M  V30 6122 N 528.782 6.46713 2.73326 0
M  V30 6123 H 533.622 2.97898 -0.0778607 0
M  V30 6124 H 531.159 1.47014 -0.0501965 0
M  V30 6125 H 533.117 3.44125 2.35868 0
M  V30 6126 H 531.747 2.30419 2.26069 0
M  V30 6127 H 530.799 3.78796 0.348979 0
M  V30 6128 H 532.111 4.94203 0.675633 0
M  V30 6129 H 531.265 5.26846 3.00862 0
M  V30 6130 H 530.004 4.03102 2.74518 0
M  V30 6131 H 529.009 5.42254 0.907773 0
M  V30 6132 H 530.234 6.68506 1.19487 0
M  V30 6133 H 528.18 5.71599 3.21886 0
M  V30 6134 H 528.097 7.19532 2.3197 0
M  V30 6135 H 529.365 6.97129 3.48758 0
M  V30 6136 N 533.594 0.0601682 1.57485 0
M  V30 6137 C 534.542 -0.928899 2.13247 0
M  V30 6138 C 535.536 -1.31616 1.06647 0
M  V30 6139 O 536.742 -1.29476 1.25043 0
M  V30 6140 H 533.117 -0.317455 0.681708 0
M  V30 6141 H 535.088 -0.433566 2.95233 0
M  V30 6142 C 533.837 -2.19121 2.69965 0
M  V30 6143 H 533.16 -1.90204 3.51657 0
M  V30 6144 H 534.6 -2.86465 3.12592 0
M  V30 6145 C 533.059 -2.94195 1.64168 0
M  V30 6146 O 533.589 -3.87468 1.05978 0
M  V30 6147 N 531.795 -2.57089 1.35476 0
M  V30 6148 H 531.342 -1.81314 1.82984 0
M  V30 6149 H 531.3 -3.07624 0.649196 0
M  V30 6150 N 535.072 -1.5615 -0.213296 0
M  V30 6151 C 536.318 -1.79812 -0.937849 0
M  V30 6152 C 536.651 -0.631201 -1.83656 0
M  V30 6153 O 535.926 0.369165 -1.90964 0
M  V30 6154 C 536.209 -3.13613 -1.76972 0
M  V30 6155 C 536.062 -4.40766 -0.89695 0
M  V30 6156 C 537.381 -3.43931 -2.7459 0
M  V30 6157 H 534.5 -0.654138 -0.339518 0
M  V30 6158 H 537.142 -1.88877 -0.20623 0
M  V30 6159 H 535.292 -3.06015 -2.39347 0
M  V30 6160 H 536.964 -4.60392 -0.289306 0
M  V30 6161 H 535.207 -4.33326 -0.202756 0
M  V30 6162 H 535.878 -5.30843 -1.51358 0
M  V30 6163 H 538.354 -3.5171 -2.22349 0
M  V30 6164 H 537.23 -4.38706 -3.29891 0
M  V30 6165 H 537.491 -2.6651 -3.52739 0
M  V30 6166 N 536.55 0.480323 -1.50102 0
M  V30 6167 C 537.78 1.25475 -1.64133 0
M  V30 6168 C 538.188 1.8647 -0.320272 0
M  V30 6169 O 537.531 1.69561 0.70673 0
M  V30 6170 C 537.593 2.40996 -2.6676 0
M  V30 6171 C 537.257 2.00711 -4.10565 0
M  V30 6172 C 538.254 1.53492 -4.96725 0
M  V30 6173 C 535.939 2.09714 -4.56427 0
M  V30 6174 C 537.933 1.15806 -6.26792 0
M  V30 6175 C 535.62 1.7164 -5.86501 0
M  V30 6176 C 536.618 1.24763 -6.71508 0
M  V30 6177 O 536.306 0.872122 -7.99155 0
M  V30 6178 H 536.038 0.385983 -0.554971 0
M  V30 6179 H 538.592 0.580848 -1.97016 0
M  V30 6180 H 536.822 3.11528 -2.291 0
M  V30 6181 H 538.511 3.02981 -2.70106 0
M  V30 6182 H 539.277 1.45966 -4.62514 0
M  V30 6183 H 535.156 2.4515 -3.90413 0
M  V30 6184 H 538.7 0.791465 -6.93096 0
M  V30 6185 H 534.597 1.78822 -6.20236 0
M  V30 6186 H 535.365 1.00178 -8.12346 0
M  V30 6187 N 538.028 1.39524 0.732853 0
M  V30 6188 C 539.439 1.32905 1.31122 0
M  V30 6189 C 539.79 -0.00558708 1.96199 0
M  V30 6190 O 538.915 -0.907706 1.96443 0
M  V30 6191 C 539.51 2.40704 2.38426 0
M  V30 6192 C 538.069 2.37599 2.91931 0
M  V30 6193 C 537.216 2.2248 1.65523 0
M  V30 6194 H 540.167 1.49581 0.530207 0
M  V30 6195 H 540.188 2.07616 3.18867 0
M  V30 6196 H 539.7 3.37829 1.91033 0
M  V30 6197 H 537.801 1.44119 3.43599 0
M  V30 6198 H 537.914 3.32538 3.44899 0
M  V30 6199 H 536.278 1.69691 1.8994 0
M  V30 6200 H 537.061 3.21577 1.20178 0
M  V30 6201 N 539.506 -0.963266 1.24736 0
M  V30 6202 C 540.755 -1.70115 1.08369 0
M  V30 6203 C 541.068 -1.91939 -0.376688 0
M  V30 6204 O 542.274 -2.6334 -0.660624 0
M  V30 6205 C 540.73 -3.06218 1.89099 0
M  V30 6206 C 540.338 -2.92221 3.39574 0
M  V30 6207 C 542.082 -3.83848 1.81275 0
M  V30 6208 C 539.989 -4.23662 4.12631 0
M  V30 6209 H 538.919 -0.637944 0.401924 0
M  V30 6210 H 541.57 -1.07304 1.48856 0
M  V30 6211 H 539.952 -3.69884 1.41429 0
M  V30 6212 H 541.126 -2.37541 3.94856 0
M  V30 6213 H 539.441 -2.28054 3.48397 0
M  V30 6214 H 542.038 -4.81188 2.33158 0
M  V30 6215 H 542.381 -4.08949 0.778895 0
M  V30 6216 H 542.914 -3.26918 2.26649 0
M  V30 6217 H 539.653 -4.03753 5.16395 0
M  V30 6218 H 539.173 -4.78141 3.62135 0
M  V30 6219 H 540.852 -4.92256 4.19873 0
M  V30 6220 N 540.985 -1.06182 -1.16461 0
M  V30 6221 C 541.915 -0.692861 -2.22984 0
M  V30 6222 C 542.896 0.314122 -1.67174 0
M  V30 6223 O 544.081 0.189499 -1.93273 0
M  V30 6224 C 541.211 -0.07732 -3.47214 0
M  V30 6225 C 540.165 -1.01015 -4.15909 0
M  V30 6226 C 539.491 -0.257973 -5.34077 0
M  V30 6227 C 540.791 -2.33868 -4.67015 0
M  V30 6228 H 542.485 -1.58343 -2.54102 0
M  V30 6229 H 540.031 -0.76279 -1.22137 0
M  V30 6230 H 541.984 0.19266 -4.20959 0
M  V30 6231 H 540.708 0.848254 -3.15392 0
M  V30 6232 H 539.367 -1.26486 -3.44088 0
M  V30 6233 H 539.015 0.670684 -4.98509 0
M  V30 6234 H 538.715 -0.879638 -5.80979 0
M  V30 6235 H 540.239 0.00448788 -6.106 0
M  V30 6236 H 541.653 -2.1279 -5.32347 0
M  V30 6237 H 540.05 -2.91522 -5.24533 0
M  V30 6238 H 541.12 -2.97019 -3.83286 0
M  V30 6239 N 542.463 1.3308 -0.844243 0
M  V30 6240 C 543.411 2.31028 -0.269954 0
M  V30 6241 C 544.405 1.58381 0.600997 0
M  V30 6242 O 545.611 1.73203 0.48996 0
M  V30 6243 H 541.986 0.748866 -0.0685782 0
M  V30 6244 H 543.957 2.76967 -1.11049 0
M  V30 6245 C 542.706 3.43549 0.535676 0
M  V30 6246 H 542.029 3.99604 -0.125202 0
M  V30 6247 H 543.469 4.14267 0.903262 0
M  V30 6248 C 541.928 2.8988 1.71672 0
M  V30 6249 O 542.458 2.86511 2.81557 0
M  V30 6250 N 540.664 2.46416 1.54037 0
M  V30 6251 H 540.211 2.49356 0.64649 0
M  V30 6252 H 540.169 2.1086 2.33207 0
M  V30 6253 N 543.941 0.601185 1.45683 0
M  V30 6254 C 544.889 -0.133955 2.32214 0
M  V30 6255 C 545.883 -0.866034 1.45589 0
M  V30 6256 O 547.089 -0.782326 1.6211 0
M  V30 6257 H 543.464 -0.0620613 0.749435 0
M  V30 6258 H 545.435 0.614389 2.92007 0
M  V30 6259 C 544.184 -1.12216 3.29094 0
M  V30 6260 H 543.507 -0.568273 3.95741 0
M  V30 6261 H 544.947 -1.60659 3.92383 0
M  V30 6262 C 543.406 -2.19251 2.55794 0
M  V30 6263 O 543.936 -3.26894 2.33459 0
M  V30 6264 N 542.142 -1.9436 2.16039 0
M  V30 6265 H 541.689 -1.06829 2.34404 0
M  V30 6266 H 541.647 -2.66181 1.67318 0
M  V30 6267 N 545.419 -1.53889 0.339982 0
M  V30 6268 C 546.349 -2.27843 -0.510856 0
M  V30 6269 C 547.33 -1.29267 -1.10563 0
M  V30 6270 O 548.515 -1.58104 -1.12768 0
M  V30 6271 C 545.645 -3.04857 -1.66372 0
M  V30 6272 C 544.599 -4.10907 -1.19746 0
M  V30 6273 C 543.925 -4.75855 -2.43857 0
M  V30 6274 C 545.225 -5.21435 -0.300501 0
M  V30 6275 H 546.919 -2.99212 0.106067 0
M  V30 6276 H 544.465 -1.43904 0.0524533 0
M  V30 6277 H 546.418 -3.5533 -2.26537 0
M  V30 6278 H 545.142 -2.31133 -2.30749 0
M  V30 6279 H 543.801 -3.61342 -0.618654 0
M  V30 6280 H 543.449 -3.9873 -3.06633 0
M  V30 6281 H 543.149 -5.47502 -2.13343 0
M  V30 6282 H 544.673 -5.2911 -3.04754 0
M  V30 6283 H 546.087 -5.67565 -0.80889 0
M  V30 6284 H 544.484 -6.00036 -0.0874076 0
M  V30 6285 H 545.554 -4.80328 0.664321 0
M  V30 6286 N 546.897 -0.0685191 -1.57451 0
M  V30 6287 C 548.144 0.601348 -1.93365 0
M  V30 6288 C 548.472 1.69816 -0.948294 0
M  V30 6289 O 547.727 1.95666 0.0366199 0
M  V30 6290 C 548.026 1.22051 -3.35914 0
M  V30 6291 C 547.692 0.250165 -4.50205 0
M  V30 6292 C 546.354 -0.0167954 -4.81197 0
M  V30 6293 C 548.706 -0.413867 -5.19554 0
M  V30 6294 C 546.034 -0.95493 -5.78876 0
M  V30 6295 C 548.386 -1.3403 -6.18238 0
M  V30 6296 C 547.05 -1.61576 -6.47649 0
M  V30 6297 H 546.32 0.220049 -0.707573 0
M  V30 6298 H 548.967 -0.138697 -1.90997 0
M  V30 6299 H 547.272 2.03622 -3.34732 0
M  V30 6300 H 548.969 1.74605 -3.6099 0
M  V30 6301 H 545.559 0.468421 -4.26033 0
M  V30 6302 H 549.743 -0.220733 -4.95809 0
M  V30 6303 H 544.999 -1.17563 -5.99991 0
M  V30 6304 H 549.173 -1.86081 -6.71079 0
M  V30 6305 H 546.8 -2.34431 -7.2315 0
M  V30 6306 N 548.375 1.56261 0.205012 0
M  V30 6307 C 549.285 1.96944 1.27476 0
M  V30 6308 C 550.301 0.875636 1.50362 0
M  V30 6309 O 551.477 1.18058 1.6317 0
M  V30 6310 C 548.542 2.29219 2.60115 0
M  V30 6311 C 547.603 3.52255 2.45387 0
M  V30 6312 C 546.836 3.8298 3.71701 0
M  V30 6313 O 547.059 3.15138 4.75441 0
M  V30 6314 O 545.993 4.76435 3.67823 0
M  V30 6315 H 549.819 2.88144 0.959527 0
M  V30 6316 H 547.404 1.43686 0.409217 0
M  V30 6317 H 549.286 2.51098 3.3842 0
M  V30 6318 H 547.961 1.4119 2.91285 0
M  V30 6319 H 546.868 3.35635 1.65227 0
M  V30 6320 H 548.201 4.40719 2.19152 0
M  V30 6321 N 549.853 -0.472356 1.50355 0
M  V30 6322 C 550.8 -1.57051 1.69126 0
M  V30 6323 C 551.77 -1.5733 0.532574 0
M  V30 6324 O 552.955 -1.7488 0.762994 0
M  V30 6325 C 550.095 -2.95033 1.79024 0
M  V30 6326 C 549.208 -3.04552 3.06386 0
M  V30 6327 C 548.343 -4.33441 3.07087 0
M  V30 6328 C 547.382 -4.36697 4.28908 0
M  V30 6329 N 546.519 -5.57056 4.27356 0
M  V30 6330 H 551.359 -1.40351 2.62879 0
M  V30 6331 H 548.896 -0.682403 1.30314 0
M  V30 6332 H 550.854 -3.75048 1.82744 0
M  V30 6333 H 549.484 -3.10371 0.887109 0
M  V30 6334 H 548.536 -2.17419 3.12143 0
M  V30 6335 H 549.848 -3.02818 3.96362 0
M  V30 6336 H 549.002 -5.21801 3.09529 0
M  V30 6337 H 547.741 -4.37782 2.14939 0
M  V30 6338 H 546.746 -3.46734 4.2668 0
M  V30 6339 H 547.971 -4.34049 5.22282 0
M  V30 6340 H 545.917 -5.62184 3.3806 0
M  V30 6341 H 545.834 -5.57058 5.111 0
M  V30 6342 H 547.102 -6.47545 4.33942 0
M  V30 6343 N 551.331 -1.39911 -0.725443 0
M  V30 6344 C 552.279 -1.39552 -1.86086 0
M  V30 6345 C 553.273 -0.277334 -1.67114 0
M  V30 6346 O 554.479 -0.447865 -1.74339 0
M  V30 6347 H 550.854 -0.435993 -0.612711 0
M  V30 6348 H 552.825 -2.35305 -1.83505 0
M  V30 6349 C 551.574 -1.26529 -3.2386 0
M  V30 6350 H 550.897 -2.11845 -3.3906 0
M  V30 6351 H 552.337 -1.30336 -4.03471 0
M  V30 6352 C 550.796 0.0254168 -3.3689 0
M  V30 6353 O 551.326 0.992048 -3.89257 0
M  V30 6354 N 549.532 0.0916528 -2.90455 0
M  V30 6355 H 549.079 -0.695675 -2.48028 0
M  V30 6356 H 549.037 0.954745 -2.99553 0
M  V30 6357 N 552.809 0.956637 -1.25245 0
M  V30 6358 C 553.739 2.07058 -1.07931 0
M  V30 6359 C 554.72 1.70096 0.0110361 0
M  V30 6360 O 555.905 1.93555 -0.158121 0
M  V30 6361 C 553.035 3.40272 -0.695124 0
M  V30 6362 C 551.989 3.91235 -1.73549 0
M  V30 6363 C 551.315 5.20921 -1.20604 0
M  V30 6364 C 552.615 4.17837 -3.13385 0
M  V30 6365 H 554.309 2.218 -2.01109 0
M  V30 6366 H 551.855 1.06581 -0.968326 0
M  V30 6367 H 553.808 4.1765 -0.560949 0
M  V30 6368 H 552.532 3.25462 0.272355 0
M  V30 6369 H 551.191 3.16025 -1.85807 0
M  V30 6370 H 550.839 5.02479 -0.228846 0
M  V30 6371 H 550.539 5.55987 -1.90136 0
M  V30 6372 H 552.063 6.00897 -1.08421 0
M  V30 6373 H 553.477 4.8588 -3.04292 0
M  V30 6374 H 551.874 4.64154 -3.80369 0
M  V30 6375 H 552.944 3.2419 -3.60595 0
M  V30 6376 N 554.287 1.06798 1.15896 0
M  V30 6377 C 555.535 0.786211 1.8618 0
M  V30 6378 C 555.856 -0.689547 1.82401 0
M  V30 6379 O 555.126 -1.49913 1.26107 0
M  V30 6380 H 553.706 0.287843 0.689315 0
M  V30 6381 H 556.368 1.35055 1.40521 0
M  V30 6382 H 555.464 1.1157 2.91477 0
M  V30 6383 N 555.766 -1.3263 0.851289 0
M  V30 6384 C 556.994 -2.01563 0.466899 0
M  V30 6385 C 557.409 -1.63996 -0.935447 0
M  V30 6386 O 556.766 -0.85957 -1.6099 0
M  V30 6387 C 556.817 -3.56613 0.592433 0
M  V30 6388 O 556.538 -3.92828 1.93954 0
M  V30 6389 C 558.039 -4.42818 0.206612 0
M  V30 6390 H 555.259 -0.645307 0.183902 0
M  V30 6391 H 557.803 -1.69285 1.1473 0
M  V30 6392 H 555.958 -3.87379 -0.0401936 0
M  V30 6393 H 556.372 -4.87545 1.9339 0
M  V30 6394 H 557.846 -5.50918 0.345462 0
M  V30 6395 H 558.323 -4.30844 -0.85264 0
M  V30 6396 H 558.929 -4.17434 0.814176 0
M  V30 6397 N 557.244 -0.608902 -1.45362 0
M  V30 6398 C 558.492 -0.104401 -2.0183 0
M  V30 6399 C 558.813 1.27007 -1.47967 0
M  V30 6400 O 558.083 1.83924 -0.674455 0
M  V30 6401 H 556.663 -0.0356042 -0.746151 0
M  V30 6402 H 559.325 -0.790596 -1.78145 0
M  V30 6403 H 558.421 -0.0551793 -3.12051 0
M  V30 6404 N 558.722 1.53707 -0.348139 0
M  V30 6405 C 559.969 2.00988 0.246966 0
M  V30 6406 C 560.297 1.23586 1.50189 0
M  V30 6407 O 559.552 0.312817 1.93184 0
M  V30 6408 C 559.851 3.52292 0.602061 0
M  V30 6409 C 559.517 4.47453 -0.556509 0
M  V30 6410 C 558.179 4.73188 -0.874446 0
M  V30 6411 C 560.531 5.03851 -1.33354 0
M  V30 6412 C 557.859 5.52577 -1.9717 0
M  V30 6413 C 560.211 5.84437 -2.42108 0
M  V30 6414 C 558.875 6.08465 -2.74456 0
M  V30 6415 H 558.145 0.735469 0.0903712 0
M  V30 6416 H 560.792 1.85464 -0.477001 0
M  V30 6417 H 559.097 3.65672 1.40681 0
M  V30 6418 H 560.794 3.86337 1.07447 0
M  V30 6419 H 557.384 4.27558 -0.298652 0
M  V30 6420 H 561.568 4.8393 -1.10117 0
M  V30 6421 H 556.824 5.69418 -2.22651 0
M  V30 6422 H 560.998 6.27151 -3.02745 0
M  V30 6423 H 558.625 6.69768 -3.59604 0
M  V30 6424 N 560.2 0.0768682 1.57412 0
M  V30 6425 C 561.447 -0.591085 1.93681 0
M  V30 6426 C 561.775 -1.69311 0.957286 0
M  V30 6427 O 561.03 -1.95682 -0.0262428 0
M  V30 6428 C 561.329 -1.20268 3.36557 0
M  V30 6429 C 560.995 -0.226286 4.50332 0
M  V30 6430 C 559.657 0.0423142 4.81181 0
M  V30 6431 C 562.009 0.441415 5.19327 0
M  V30 6432 C 559.337 0.985616 5.78362 0
M  V30 6433 C 561.689 1.37307 6.17519 0
M  V30 6434 C 560.353 1.65009 6.46783 0
M  V30 6435 H 559.623 -0.216293 0.70873 0
M  V30 6436 H 562.27 0.148824 1.90921 0
M  V30 6437 H 560.575 -2.01844 3.35807 0
M  V30 6438 H 562.272 -1.72688 3.61911 0
M  V30 6439 H 558.862 -0.445821 4.26275 0
M  V30 6440 H 563.046 0.247023 4.95685 0
M  V30 6441 H 558.302 1.20743 5.99359 0
M  V30 6442 H 562.476 1.89637 6.70083 0
M  V30 6443 H 560.103 2.38263 7.21897 0
M  V30 6444 N 561.678 -1.56367 -0.196722 0
M  V30 6445 C 562.955 -1.71359 -0.943159 0
M  V30 6446 C 563.335 -0.631192 -2.01443 0
M  V30 6447 O 562.683 0.358071 -2.25677 0
M  V30 6448 C 562.893 -3.13623 -1.53106 0
M  V30 6449 C 564.241 -3.73806 -2.01381 0
M  V30 6450 O 565.265 -3.16742 -1.62951 0
M  V30 6451 O 564.124 -4.73951 -2.7209 0
M  V30 6452 H 561.218 -0.698851 -0.442195 0
M  V30 6453 H 563.764 -1.68672 -0.186547 0
M  V30 6454 H 562.536 -3.83873 -0.758785 0
M  V30 6455 H 562.159 -3.20532 -2.35255 0
M  V30 6456 N 563.156 0.464375 -1.50603 0
M  V30 6457 C 564.403 1.21596 -1.61928 0
M  V30 6458 C 564.731 1.91804 -0.322737 0
M  V30 6459 O 563.986 1.83065 0.691776 0
M  V30 6460 C 564.285 2.278 -2.75394 0
M  V30 6461 C 563.951 1.74797 -4.1564 0
M  V30 6462 C 562.613 1.60063 -4.53799 0
M  V30 6463 C 564.965 1.35548 -5.03266 0
M  V30 6464 C 562.293 1.04514 -5.77316 0
M  V30 6465 C 564.645 0.814381 -6.27336 0
M  V30 6466 C 563.309 0.653726 -6.64291 0
M  V30 6467 H 562.579 0.444951 -0.592536 0
M  V30 6468 H 565.226 0.510964 -1.84557 0
M  V30 6469 H 563.531 3.04233 -2.46879 0
M  V30 6470 H 565.228 2.85723 -2.81359 0
M  V30 6471 H 561.818 1.87234 -3.8554 0
M  V30 6472 H 566.002 1.45763 -4.74412 0
M  V30 6473 H 561.258 0.908186 -6.04617 0
M  V30 6474 H 565.432 0.501626 -6.94591 0
M  V30 6475 H 563.059 0.22114 -7.59878 0
M  V30 6476 N 564.634 1.40294 0.718013 0
M  V30 6477 C 565.859 1.41941 1.5122 0
M  V30 6478 C 566.284 0.0202371 1.88089 0
M  V30 6479 O 565.642 -0.971078 1.53101 0
M  V30 6480 C 565.69 2.3141 2.76554 0
M  V30 6481 O 564.794 1.75567 3.73162 0
M  V30 6482 H 564.135 0.482644 0.456016 0
M  V30 6483 H 566.665 1.84494 0.884478 0
M  V30 6484 H 566.675 2.46513 3.25108 0
M  V30 6485 H 565.35 3.33085 2.49053 0
M  V30 6486 H 563.927 1.69798 3.31999 0
M  V30 6487 N 566.112 -0.949982 1.2575 0
M  V30 6488 C 567.06 -2.06869 1.06339 0
M  V30 6489 C 568.054 -1.69399 -0.00708901 0
M  V30 6490 O 569.26 -1.79383 0.148897 0
M  V30 6491 H 565.635 -0.677197 0.326969 0
M  V30 6492 H 567.606 -2.20396 2.01167 0
M  V30 6493 C 566.355 -3.40503 0.703769 0
M  V30 6494 H 565.678 -3.69807 1.51931 0
M  V30 6495 H 567.118 -4.19623 0.607677 0
M  V30 6496 C 565.577 -3.31685 -0.5905 0
M  V30 6497 O 566.107 -3.67085 -1.63131 0
M  V30 6498 N 564.313 -2.84797 -0.577859 0
M  V30 6499 H 563.86 -2.56186 0.26951 0
M  V30 6500 H 563.818 -2.79279 -1.44398 0
M  V30 6501 N 567.59 -1.07411 -1.15328 0
M  V30 6502 C 568.815 -0.818856 -1.90551 0
M  V30 6503 C 569.24 0.622194 -1.77512 0
M  V30 6504 O 568.598 1.43484 -1.10824 0
M  V30 6505 C 568.646 -1.23267 -3.38877 0
M  V30 6506 O 567.75 -0.378345 -4.10661 0
M  V30 6507 H 567.091 -0.29827 -0.593238 0
M  V30 6508 H 569.621 -1.43289 -1.46046 0
M  V30 6509 H 569.631 -1.20912 -3.89672 0
M  V30 6510 H 568.306 -2.28226 -3.47686 0
M  V30 6511 H 566.883 -0.464437 -3.69996 0
M  V30 6512 N 569.068 1.32177 -0.85831 0
M  V30 6513 C 569.998 2.31282 -0.321041 0
M  V30 6514 C 570.979 1.59841 0.581786 0
M  V30 6515 O 572.164 1.87619 0.501262 0
M  V30 6516 C 569.294 3.4385 0.48832 0
M  V30 6517 C 568.248 4.26799 -0.320391 0
M  V30 6518 C 567.574 5.31164 0.613934 0
M  V30 6519 C 568.874 4.98829 -1.54813 0
M  V30 6520 H 570.568 2.76469 -1.14915 0
M  V30 6521 H 568.114 1.32916 -0.554028 0
M  V30 6522 H 570.067 4.12224 0.874626 0
M  V30 6523 H 568.791 2.97401 1.34983 0
M  V30 6524 H 567.45 3.60077 -0.688497 0
M  V30 6525 H 567.098 4.80967 1.47239 0
M  V30 6526 H 566.798 5.8755 0.0768097 0
M  V30 6527 H 568.322 6.024 0.997336 0
M  V30 6528 H 569.736 5.59864 -1.23392 0
M  V30 6529 H 568.133 5.64957 -2.02346 0
M  V30 6530 H 569.203 4.26483 -2.30739 0
M  V30 6531 N 570.547 0.616602 1.45037 0
M  V30 6532 C 571.794 0.115331 2.02171 0
M  V30 6533 C 572.122 -1.25748 1.48383 0
M  V30 6534 O 571.377 -1.84511 0.652229 0
M  V30 6535 C 571.676 0.0356829 3.57382 0
M  V30 6536 C 571.342 1.34535 4.30362 0
M  V30 6537 C 570.004 1.70408 4.50016 0
M  V30 6538 C 572.356 2.21049 4.72003 0
M  V30 6539 C 569.684 2.92529 5.0857 0
M  V30 6540 C 572.036 3.42427 5.31908 0
M  V30 6541 C 570.7 3.78541 5.49784 0
M  V30 6542 H 569.97 0.0422024 0.739797 0
M  V30 6543 H 572.617 0.80002 1.73988 0
M  V30 6544 H 570.922 -0.732314 3.84895 0
M  V30 6545 H 572.619 -0.368463 3.99304 0
M  V30 6546 H 569.209 1.05615 4.15383 0
M  V30 6547 H 573.393 1.94632 4.56544 0
M  V30 6548 H 568.649 3.20605 5.20598 0
M  V30 6549 H 572.823 4.09709 5.63127 0
M  V30 6550 H 570.45 4.73255 5.94923 0
M  V30 6551 N 572.025 -1.5352 0.356285 0
M  V30 6552 C 572.972 -2.25439 -0.494569 0
M  V30 6553 C 573.942 -1.25752 -1.08516 0
M  V30 6554 O 575.127 -1.54513 -1.1194 0
M  V30 6555 C 572.267 -3.04011 -1.63313 0
M  V30 6556 C 571.38 -4.18574 -1.06862 0
M  V30 6557 C 570.515 -4.84607 -2.17552 0
M  V30 6558 C 569.554 -5.91218 -1.58518 0
M  V30 6559 N 568.691 -6.50979 -2.63003 0
M  V30 6560 H 573.531 -2.97737 0.125244 0
M  V30 6561 H 571.068 -1.46916 0.0735789 0
M  V30 6562 H 573.026 -3.47834 -2.30363 0
M  V30 6563 H 571.656 -2.33986 -2.22374 0
M  V30 6564 H 570.708 -3.79303 -0.288672 0
M  V30 6565 H 572.02 -4.95215 -0.596924 0
M  V30 6566 H 571.174 -5.31566 -2.92442 0
M  V30 6567 H 569.913 -4.07418 -2.6807 0
M  V30 6568 H 568.918 -5.4363 -0.821391 0
M  V30 6569 H 570.143 -6.70322 -1.08836 0
M  V30 6570 H 568.089 -5.76648 -3.12751 0
M  V30 6571 H 568.006 -7.23131 -2.20493 0
M  V30 6572 H 569.274 -7.02589 -3.37623 0
M  V30 6573 N 573.503 -0.0852151 -1.57369 0
M  V30 6574 C 574.733 0.588605 -1.98038 0
M  V30 6575 C 575.141 1.62869 -0.962817 0
M  V30 6576 O 574.484 1.83611 0.057134 0
M  V30 6577 C 574.546 1.30303 -3.35054 0
M  V30 6578 C 574.21 0.414855 -4.55113 0
M  V30 6579 C 575.207 -0.333011 -5.18832 0
M  V30 6580 C 572.892 0.335804 -5.01176 0
M  V30 6581 C 574.886 -1.14801 -6.26976 0
M  V30 6582 C 572.573 -0.482857 -6.09189 0
M  V30 6583 C 573.571 -1.22342 -6.71953 0
M  V30 6584 O 573.259 -2.02855 -7.77885 0
M  V30 6585 H 572.991 0.163249 -0.655992 0
M  V30 6586 H 575.545 -0.1582 -2.0479 0
M  V30 6587 H 573.775 2.0962 -3.24956 0
M  V30 6588 H 575.464 1.87041 -3.60237 0
M  V30 6589 H 576.23 -0.281611 -4.84182 0
M  V30 6590 H 572.109 0.901869 -4.52092 0
M  V30 6591 H 575.653 -1.72654 -6.75897 0
M  V30 6592 H 571.55 -0.535773 -6.43273 0
M  V30 6593 H 572.318 -1.95432 -7.94826 0
M  V30 6594 N 574.981 1.5647 0.188427 0
M  V30 6595 C 576.227 1.81281 0.909124 0
M  V30 6596 C 576.56 0.66034 1.82628 0
M  V30 6597 O 575.835 -0.338737 1.91528 0
M  V30 6598 C 576.118 3.16388 1.7196 0
M  V30 6599 C 575.971 4.42137 0.826714 0
M  V30 6600 C 577.29 3.48256 2.69083 0
M  V30 6601 H 574.409 0.659457 0.329068 0
M  V30 6602 H 577.051 1.89182 0.176156 0
M  V30 6603 H 575.201 3.09784 2.34448 0
M  V30 6604 H 576.873 4.60794 0.216025 0
M  V30 6605 H 575.116 4.33594 0.133792 0
M  V30 6606 H 575.787 5.33184 1.42893 0
M  V30 6607 H 578.263 3.55203 2.16726 0
M  V30 6608 H 577.139 4.43899 3.2287 0
M  V30 6609 H 577.4 2.72088 3.48455 0
M  V30 6610 N 576.459 -0.456382 1.50847 0
M  V30 6611 C 577.392 -1.57177 1.65441 0
M  V30 6612 C 578.37 -1.54649 0.502224 0
M  V30 6613 O 579.554 -1.74057 0.723633 0
M  V30 6614 C 576.681 -2.95763 1.65052 0
M  V30 6615 C 575.727 -3.16389 2.86007 0
M  V30 6616 S 576.56 -2.94716 4.47105 0
M  V30 6617 C 577.716 -4.35617 4.49432 0
M  V30 6618 H 577.949 -1.44561 2.59787 0
M  V30 6619 H 575.482 -0.644758 1.40293 0
M  V30 6620 H 577.44 -3.75654 1.65512 0
M  V30 6621 H 576.101 -3.05756 0.719153 0
M  V30 6622 H 575.294 -4.17667 2.82081 0
M  V30 6623 H 574.896 -2.44293 2.8319 0
M  V30 6624 H 577.188 -5.28503 4.239 0
M  V30 6625 H 578.131 -4.44582 5.51137 0
M  V30 6626 H 578.539 -4.18382 3.78967 0
M  V30 6627 N 577.937 -1.40673 -0.710563 0
M  V30 6628 C 578.885 -1.41517 -1.84596 0
M  V30 6629 C 579.879 -0.295043 -1.66811 0
M  V30 6630 O 581.085 -0.466331 -1.73854 0
M  V30 6631 H 577.46 -0.442467 -0.608052 0
M  V30 6632 H 579.431 -2.37238 -1.80999 0
M  V30 6633 C 578.18 -1.29957 -3.225 0
M  V30 6634 H 577.503 -2.15429 -3.36794 0
M  V30 6635 H 578.943 -1.34608 -4.02066 0
M  V30 6636 C 577.402 -0.0103164 -3.36898 0
M  V30 6637 O 577.932 0.950707 -3.90288 0
M  V30 6638 N 576.138 0.0608409 -2.90536 0
M  V30 6639 H 575.685 -0.721943 -2.47277 0
M  V30 6640 H 575.643 0.92292 -3.00549 0
M  V30 6641 N 579.415 0.9433 -1.26252 0
M  V30 6642 C 580.645 1.72117 -1.14277 0
M  V30 6643 C 581.053 1.86726 0.304944 0
M  V30 6644 O 580.396 1.3727 1.22076 0
M  V30 6645 C 580.458 3.14778 -1.73651 0
M  V30 6646 C 580.122 3.23561 -3.22734 0
M  V30 6647 C 581.119 3.07001 -4.19579 0
M  V30 6648 C 578.804 3.47019 -3.63157 0
M  V30 6649 C 580.798 3.13763 -5.54826 0
M  V30 6650 C 578.485 3.53416 -4.98538 0
M  V30 6651 C 579.483 3.36804 -5.94182 0
M  V30 6652 O 579.171 3.42906 -7.27098 0
M  V30 6653 H 578.903 0.545781 -0.398873 0
M  V30 6654 H 581.457 1.19123 -1.67328 0
M  V30 6655 H 579.687 3.69186 -1.1506 0
M  V30 6656 H 581.376 3.74469 -1.56613 0
M  V30 6657 H 582.142 2.88736 -3.89688 0
M  V30 6658 H 578.021 3.59006 -2.89199 0
M  V30 6659 H 581.565 3.00714 -6.29458 0
M  V30 6660 H 577.462 3.71201 -5.28091 0
M  V30 6661 H 578.23 3.59463 -7.35342 0
M  V30 6662 N 580.893 1.08022 1.14757 0
M  V30 6663 C 581.823 0.728248 2.21853 0
M  V30 6664 C 582.804 -0.287486 1.67653 0
M  V30 6665 O 583.989 -0.158727 1.9355 0
M  V30 6666 C 581.119 0.132549 3.47047 0
M  V30 6667 C 580.073 1.07619 4.14249 0
M  V30 6668 C 579.399 0.342907 5.33599 0
M  V30 6669 C 580.699 2.41268 4.63235 0
M  V30 6670 H 582.393 1.62365 2.51551 0
M  V30 6671 H 579.939 0.782125 1.20908 0
M  V30 6672 H 581.892 -0.125665 4.21213 0
M  V30 6673 H 580.616 -0.797971 3.16702 0
M  V30 6674 H 579.275 1.31944 3.42033 0
M  V30 6675 H 578.923 -0.59129 4.99513 0
M  V30 6676 H 578.623 0.971955 5.79506 0
M  V30 6677 H 580.147 0.0926538 6.1053 0
M  V30 6678 H 581.561 2.21232 5.28894 0
M  V30 6679 H 579.958 2.9983 5.19829 0
M  V30 6680 H 581.028 3.03079 3.78512 0
M  V30 6681 N 582.371 -1.3172 0.865308 0
M  V30 6682 C 583.281 -2.32394 0.320935 0
M  V30 6683 C 584.297 -1.64511 -0.566746 0
M  V30 6684 O 585.473 -1.95969 -0.464575 0
M  V30 6685 C 582.538 -3.43462 -0.472701 0
M  V30 6686 C 581.599 -4.27015 0.442385 0
M  V30 6687 C 580.832 -5.32779 -0.313469 0
M  V30 6688 O 581.055 -5.49158 -1.54214 0
M  V30 6689 O 579.989 -6.01015 0.326257 0
M  V30 6690 H 583.815 -2.80868 1.15528 0
M  V30 6691 H 581.4 -1.35535 0.628545 0
M  V30 6692 H 583.282 -4.11172 -0.922781 0
M  V30 6693 H 581.957 -2.97159 -1.28367 0
M  V30 6694 H 580.864 -3.62075 0.940866 0
M  V30 6695 H 582.197 -4.76871 1.21882 0
M  V30 6696 N 583.85 -0.624285 -1.44708 0
M  V30 6697 C 584.76 0.0861083 -2.34442 0
M  V30 6698 C 585.776 0.84291 -1.5222 0
M  V30 6699 O 586.952 0.796723 -1.84971 0
M  V30 6700 C 584.017 1.05999 -3.30099 0
M  V30 6701 C 583.077 0.303316 -4.28227 0
M  V30 6702 C 582.311 1.23081 -5.19314 0
M  V30 6703 O 582.534 2.46929 -5.14181 0
M  V30 6704 O 581.468 0.71883 -5.97592 0
M  V30 6705 H 585.293 -0.651756 -2.96624 0
M  V30 6706 H 582.879 -0.384493 -1.44368 0
M  V30 6707 H 584.76 1.62046 -3.88997 0
M  V30 6708 H 583.436 1.77859 -2.70459 0
M  V30 6709 H 582.343 -0.300033 -3.72895 0
M  V30 6710 H 583.676 -0.375123 -4.90768 0
M  V30 6711 N 585.328 1.53329 -0.364422 0
M  V30 6712 C 586.577 2.00421 0.226747 0
M  V30 6713 C 586.89 1.25581 1.49963 0
M  V30 6714 O 588.096 1.63256 2.16933 0
M  V30 6715 C 586.552 3.57017 0.454618 0
M  V30 6716 C 586.16 4.40734 -0.803568 0
M  V30 6717 C 587.904 4.12468 1.00351 0
M  V30 6718 C 585.811 5.8888 -0.545345 0
M  V30 6719 H 584.741 0.748787 0.0885082 0
M  V30 6720 H 587.392 1.7703 -0.482983 0
M  V30 6721 H 585.774 3.76558 1.22558 0
M  V30 6722 H 586.948 4.32967 -1.57723 0
M  V30 6723 H 585.263 3.96381 -1.27559 0
M  V30 6724 H 587.86 5.20783 1.212 0
M  V30 6725 H 588.203 3.6699 1.9653 0
M  V30 6726 H 588.736 3.96721 0.29274 0
M  V30 6727 H 585.475 6.38633 -1.47743 0
M  V30 6728 H 584.995 5.99499 0.189842 0
M  V30 6729 H 586.674 6.46776 -0.170425 0
M  V30 6730 N 586.806 0.0935595 1.57322 0
M  V30 6731 C 587.754 -0.883457 2.15169 0
M  V30 6732 C 588.748 -1.29324 1.09415 0
M  V30 6733 O 589.954 -1.26795 1.27762 0
M  V30 6734 H 586.329 -0.302923 0.688289 0
M  V30 6735 H 588.3 -0.370845 2.96087 0
M  V30 6736 C 587.049 -2.13345 2.74552 0
M  V30 6737 H 586.372 -1.82702 3.55612 0
M  V30 6738 H 587.812 -2.7977 3.18598 0
M  V30 6739 C 586.271 -2.90646 1.70371 0
M  V30 6740 O 586.801 -3.85133 1.14173 0
M  V30 6741 N 585.007 -2.54157 1.40899 0
M  V30 6742 H 584.554 -1.77391 1.86789 0
M  V30 6743 H 584.512 -3.06178 0.714301 0
M  V30 6744 N 588.284 -1.56567 -0.180126 0
M  V30 6745 C 589.214 -1.98753 -1.22553 0
M  V30 6746 C 590.195 -0.86175 -1.46656 0
M  V30 6747 O 591.38 -1.12719 -1.58139 0
M  V30 6748 C 588.51 -2.33988 -2.56645 0
M  V30 6749 C 587.464 -3.49445 -2.47128 0
M  V30 6750 C 586.79 -3.70397 -3.8563 0
M  V30 6751 C 588.09 -4.83171 -1.98352 0
M  V30 6752 H 589.784 -2.86332 -0.874896 0
M  V30 6753 H 587.33 -1.37757 -0.419414 0
M  V30 6754 H 589.283 -2.62097 -3.29974 0
M  V30 6755 H 588.007 -1.43309 -2.93479 0
M  V30 6756 H 586.666 -3.2145 -1.76254 0
M  V30 6757 H 586.314 -2.77023 -4.19842 0
M  V30 6758 H 586.014 -4.48077 -3.80132 0
M  V30 6759 H 587.538 -4.00897 -4.60558 0
M  V30 6760 H 588.952 -5.10213 -2.61449 0
M  V30 6761 H 587.349 -5.64425 -2.03823 0
M  V30 6762 H 588.419 -4.75753 -0.937402 0
M  V30 6763 N 589.762 0.448376 -1.51087 0
M  V30 6764 C 590.692 1.55102 -1.74544 0
M  V30 6765 C 591.673 1.59357 -0.594932 0
M  V30 6766 O 592.858 1.75261 -0.836491 0
M  V30 6767 C 589.988 2.93268 -1.86041 0
M  V30 6768 C 588.942 3.03877 -3.01402 0
M  V30 6769 C 588.268 4.43914 -2.98068 0
M  V30 6770 C 589.568 2.7898 -4.41551 0
M  V30 6771 H 591.262 1.35724 -2.66869 0
M  V30 6772 H 588.808 0.651498 -1.28419 0
M  V30 6773 H 590.761 3.70356 -2.01034 0
M  V30 6774 H 589.485 3.13853 -0.903548 0
M  V30 6775 H 588.144 2.29227 -2.86096 0
M  V30 6776 H 587.792 4.6145 -2.00182 0
M  V30 6777 H 587.492 4.51944 -3.75527 0
M  V30 6778 H 589.016 5.22991 -3.1514 0
M  V30 6779 H 590.43 3.45805 -4.57265 0
M  V30 6780 H 588.827 2.98431 -5.20633 0
M  V30 6781 H 589.897 1.74663 -4.5235 0
M  V30 6782 N 591.24 1.41047 0.703093 0
M  V30 6783 C 592.188 1.42494 1.83843 0
M  V30 6784 C 593.182 0.303885 1.66652 0
M  V30 6785 O 594.388 0.475544 1.73605 0
M  V30 6786 H 590.763 0.445685 0.605697 0
M  V30 6787 H 592.734 2.38194 1.79739 0
M  V30 6788 C 591.483 1.31666 3.21807 0
M  V30 6789 H 590.806 2.17212 3.35647 0
M  V30 6790 H 592.246 1.36738 4.01346 0
M  V30 6791 C 590.705 0.0281828 3.36888 0
M  V30 6792 O 591.235 -0.929995 3.90786 0
M  V30 6793 N 589.441 -0.0454322 2.90564 0
M  V30 6794 H 588.988 0.735046 2.4689 0
M  V30 6795 H 588.946 -0.906968 3.01034 0
M  V30 6796 N 592.718 -0.936591 1.26751 0
M  V30 6797 C 593.681 -2.01752 1.08761 0
M  V30 6798 C 594.681 -1.60763 0.0344435 0
M  V30 6799 O 595.871 -1.71963 0.278258 0
M  V30 6800 C 593.003 -3.34543 0.655271 0
M  V30 6801 H 594.196 -2.19143 2.04735 0
M  V30 6802 H 591.749 -1.11618 1.09413 0
M  V30 6803 H 592.484 -3.22851 -0.30626 0
M  V30 6804 H 592.269 -3.65647 1.41578 0
M  V30 6805 H 593.759 -4.13944 0.551378 0
M  V30 6806 N 594.196 -1.08629 -1.14182 0
M  V30 6807 C 595.143 -0.718299 -2.19338 0
M  V30 6808 C 596.113 0.296587 -1.63431 0
M  V30 6809 O 597.298 0.180079 -1.89948 0
M  V30 6810 C 594.438 -0.136203 -3.44831 0
M  V30 6811 C 593.551 -1.20414 -4.14879 0
M  V30 6812 C 592.686 -0.585666 -5.27962 0
M  V30 6813 C 591.725 -1.63548 -5.89846 0
M  V30 6814 N 590.862 -1.03864 -6.94375 0
M  V30 6815 H 595.702 -1.61932 -2.50164 0
M  V30 6816 H 593.239 -0.80919 -1.22844 0
M  V30 6817 H 595.197 0.219021 -4.16625 0
M  V30 6818 H 593.827 0.728121 -3.14481 0
M  V30 6819 H 592.879 -1.67676 -3.41451 0
M  V30 6820 H 594.191 -1.99959 -4.56966 0
M  V30 6821 H 593.345 -0.178818 -6.06436 0
M  V30 6822 H 592.084 0.24142 -4.87102 0
M  V30 6823 H 591.089 -2.05197 -5.10073 0
M  V30 6824 H 592.314 -2.46509 -6.3278 0
M  V30 6825 H 590.26 -0.232687 -6.55587 0
M  V30 6826 H 590.177 -1.77116 -7.3496 0
M  V30 6827 H 591.445 -0.657724 -7.7672 0
M  V30 6828 N 595.674 1.31259 -0.872281 0
M  V30 6829 C 596.899 2.0133 -0.498099 0
M  V30 6830 C 597.324 1.65031 0.902568 0
M  V30 6831 O 596.682 0.860164 1.59596 0
M  V30 6832 C 596.73 3.54411 -0.665205 0
M  V30 6833 O 595.834 4.11347 0.294473 0
M  V30 6834 H 595.175 0.633844 -0.197832 0
M  V30 6835 H 597.705 1.67402 -1.17633 0
M  V30 6836 H 597.715 4.04147 -0.559373 0
M  V30 6837 H 596.39 3.80171 -1.68651 0
M  V30 6838 H 594.967 3.72624 0.143403 0
M  V30 6839 N 597.152 0.631951 1.44375 0
M  V30 6840 C 598.398 0.13697 2.02337 0
M  V30 6841 C 598.731 -1.23826 1.49602 0
M  V30 6842 O 598.006 -1.8221 0.680415 0
M  V30 6843 C 598.289 0.124536 3.59885 0
M  V30 6844 C 598.142 1.53217 4.229 0
M  V30 6845 C 599.461 -0.550481 4.36644 0
M  V30 6846 H 596.58 0.051247 0.735216 0
M  V30 6847 H 599.222 0.808581 1.71936 0
M  V30 6848 H 597.372 -0.44737 3.85916 0
M  V30 6849 H 599.044 2.15303 4.07973 0
M  V30 6850 H 597.287 2.0858 3.80364 0
M  V30 6851 H 597.958 1.4755 5.31914 0
M  V30 6852 H 600.434 -0.0641154 4.16051 0
M  V30 6853 H 599.31 -0.528371 5.46351 0
M  V30 6854 H 599.571 -1.62097 4.11311 0
M  V30 6855 N 598.631 -1.53133 0.372548 0
M  V30 6856 C 599.908 -1.93704 -0.271693 0
M  V30 6857 C 600.288 -1.30667 -1.65799 0
M  V30 6858 O 599.636 -0.46838 -2.23648 0
M  V30 6859 C 599.846 -3.47576 -0.314903 0
M  V30 6860 C 601.194 -4.20998 -0.551912 0
M  V30 6861 O 602.218 -3.53994 -0.39582 0
M  V30 6862 O 601.077 -5.39748 -0.85639 0
M  V30 6863 H 598.171 -0.810457 -0.164586 0
M  V30 6864 H 600.717 -1.6427 0.425838 0
M  V30 6865 H 599.489 -3.85749 0.656792 0
M  V30 6866 H 599.112 -3.83264 -1.05804 0
M  V30 6867 N 600.109 -0.101901 -1.5727 0
M  V30 6868 C 601.355 0.561027 -1.94885 0
M  V30 6869 C 601.688 1.6741 -0.984258 0
M  V30 6870 O 600.963 1.94491 -0.0184767 0
M  V30 6871 C 601.246 1.10982 -3.42571 0
M  V30 6872 C 601.099 0.00133418 -4.498 0
M  V30 6873 C 602.418 2.00608 -3.9172 0
M  V30 6874 H 599.537 0.202467 -0.708644 0
M  V30 6875 H 602.179 -0.173992 -1.89202 0
M  V30 6876 H 600.329 1.73621 -3.47546 0
M  V30 6877 H 602.001 -0.63322 -4.56933 0
M  V30 6878 H 600.244 -0.664143 -4.28686 0
M  V30 6879 H 600.915 0.426253 -5.50352 0
M  V30 6880 H 603.391 1.47864 -3.88941 0
M  V30 6881 H 602.267 2.3593 -4.95609 0
M  V30 6882 H 602.528 2.92608 -3.3141 0
M  V30 6883 N 601.587 1.56661 0.17182 0
M  V30 6884 C 602.497 1.99604 1.2327 0
M  V30 6885 C 603.513 0.907333 1.4847 0
M  V30 6886 O 604.689 1.21492 1.60629 0
M  V30 6887 C 601.754 2.34685 2.55194 0
M  V30 6888 C 600.815 3.57381 2.3786 0
M  V30 6889 C 600.048 3.90779 3.63494 0
M  V30 6890 O 600.271 3.25152 4.6865 0
M  V30 6891 O 599.205 4.84129 3.57634 0
M  V30 6892 H 603.031 2.90114 0.898192 0
M  V30 6893 H 600.616 1.44522 0.378647 0
M  V30 6894 H 602.498 2.5822 3.33017 0
M  V30 6895 H 601.173 1.47336 2.88225 0
M  V30 6896 H 600.08 3.39064 1.5807 0
M  V30 6897 H 601.413 4.45268 2.09754 0
M  V30 6898 N 603.065 -0.440357 1.51323 0
M  V30 6899 C 604.012 -1.53429 1.72419 0
M  V30 6900 C 604.982 -1.56165 0.565826 0
M  V30 6901 O 606.167 -1.73222 0.799917 0
M  V30 6902 C 603.307 -2.91169 1.85242 0
M  V30 6903 C 602.42 -2.97985 3.12777 0
M  V30 6904 C 601.555 -4.26829 3.16212 0
M  V30 6905 C 600.594 -4.27501 4.38074 0
M  V30 6906 N 599.731 -5.47866 4.39076 0
M  V30 6907 H 604.571 -1.34743 2.65797 0
M  V30 6908 H 602.108 -0.654608 1.31732 0
M  V30 6909 H 604.066 -3.71087 1.90658 0
M  V30 6910 H 602.696 -3.0842 0.952744 0
M  V30 6911 H 601.748 -2.10749 3.16685 0
M  V30 6912 H 603.06 -2.94342 4.02696 0
M  V30 6913 H 602.214 -5.15118 3.20527 0
M  V30 6914 H 600.953 -4.33124 2.24176 0
M  V30 6915 H 599.958 -3.37606 4.33938 0
M  V30 6916 H 601.183 -4.22873 5.31371 0
M  V30 6917 H 599.129 -5.54887 3.49909 0
M  V30 6918 H 599.046 -5.46091 5.22801 0
M  V30 6919 H 600.314 -6.38195 4.4758 0
M  V30 6920 N 604.543 -1.41418 -0.695603 0
M  V30 6921 C 605.453 -1.45622 -1.83933 0
M  V30 6922 C 606.469 -0.346825 -1.70508 0
M  V30 6923 O 607.645 -0.59454 -1.92424 0
M  V30 6924 C 604.71 -1.33627 -3.19914 0
M  V30 6925 C 603.771 -2.54882 -3.45447 0
M  V30 6926 C 603.004 -2.43449 -4.7494 0
M  V30 6927 O 603.227 -1.45905 -5.51424 0
M  V30 6928 O 602.161 -3.33206 -5.01256 0
M  V30 6929 H 605.987 -2.42114 -1.83342 0
M  V30 6930 H 603.572 -1.22956 -0.848658 0
M  V30 6931 H 605.454 -1.29221 -4.01098 0
M  V30 6932 H 604.129 -0.402508 -3.21188 0
M  V30 6933 H 603.036 -2.64865 -2.64192 0
M  V30 6934 H 604.369 -3.47087 -3.48987 0
M  V30 6935 N 606.021 0.929856 -1.27246 0
M  V30 6936 C 606.951 2.04722 -1.12299 0
M  V30 6937 C 607.932 1.70082 -0.0250464 0
M  V30 6938 O 609.117 1.93176 -0.199141 0
M  V30 6939 C 606.247 3.38721 -0.767145 0
M  V30 6940 C 605.201 3.87466 -1.81808 0
M  V30 6941 C 604.527 5.18246 -1.31626 0
M  V30 6942 C 605.827 4.11095 -3.22177 0
M  V30 6943 H 607.521 2.17485 -2.05769 0
M  V30 6944 H 605.067 1.04503 -0.990715 0
M  V30 6945 H 607.02 4.16366 -0.649413 0
M  V30 6946 H 605.744 3.25967 0.203259 0
M  V30 6947 H 604.403 3.12012 -1.92468 0
M  V30 6948 H 604.051 5.01881 -0.335378 0
M  V30 6949 H 603.751 5.51829 -2.01887 0
M  V30 6950 H 605.275 5.98462 -1.21143 0
M  V30 6951 H 606.689 4.79316 -3.1453 0
M  V30 6952 H 605.086 4.55982 -3.90129 0
M  V30 6953 H 606.156 3.16468 -3.67391 0
M  V30 6954 N 607.499 1.09233 1.13605 0
M  V30 6955 C 608.748 0.82205 1.84188 0
M  V30 6956 C 609.061 -0.654548 1.84323 0
M  V30 6957 O 610.267 -1.04029 2.50779 0
M  V30 6958 C 608.723 1.42066 3.30674 0
M  V30 6959 C 608.331 2.92965 3.38933 0
M  V30 6960 C 610.075 1.22924 4.06313 0
M  V30 6961 C 607.982 3.45922 4.79679 0
M  V30 6962 H 606.912 0.303854 0.690064 0
M  V30 6963 H 609.563 1.31479 1.28006 0
M  V30 6964 H 607.945 0.855613 3.86646 0
M  V30 6965 H 609.119 3.55679 2.92966 0
M  V30 6966 H 607.434 3.11118 2.76757 0
M  V30 6967 H 610.031 1.59945 5.10217 0
M  V30 6968 H 610.374 0.169726 4.15954 0
M  V30 6969 H 610.907 1.76168 3.56665 0
M  V30 6970 H 607.646 4.51484 4.75229 0
M  V30 6971 H 607.166 2.87971 5.26149 0
M  V30 6972 H 608.845 3.43009 5.48592 0
M  V30 6973 N 608.977 -1.30795 0.87923 0
M  V30 6974 C 609.907 -2.30742 0.357796 0
M  V30 6975 C 610.888 -1.60747 -0.556283 0
M  V30 6976 O 612.073 -1.88393 -0.47135 0
M  V30 6977 C 609.203 -3.44583 -0.433555 0
M  V30 6978 C 608.157 -4.26235 0.388251 0
M  V30 6979 C 607.483 -5.32073 -0.529352 0
M  V30 6980 C 608.783 -4.96303 1.62729 0
M  V30 6981 H 610.477 -2.74605 1.19299 0
M  V30 6982 H 608.023 -1.32017 0.575104 0
M  V30 6983 H 609.976 -4.13563 -0.808934 0
M  V30 6984 H 608.7 -2.99511 -1.30234 0
M  V30 6985 H 607.359 -3.58936 0.745695 0
M  V30 6986 H 607.007 -4.83249 -1.39569 0
M  V30 6987 H 606.707 -5.87598 0.0166741 0
M  V30 6988 H 608.231 -6.0391 -0.901373 0
M  V30 6989 H 609.645 -5.5783 1.32283 0
M  V30 6990 H 608.042 -5.61666 2.11309 0
M  V30 6991 H 609.112 -4.22758 2.37494 0
M  V30 6992 N 610.455 -0.639598 -1.44038 0
M  V30 6993 C 611.403 0.0723409 -2.32487 0
M  V30 6994 C 612.397 0.827129 -1.47834 0
M  V30 6995 O 613.603 0.73907 -1.64127 0
M  V30 6996 H 609.978 0.0421696 -0.750817 0
M  V30 6997 H 611.949 -0.691593 -2.90275 0
M  V30 6998 C 610.698 1.03452 -3.31953 0
M  V30 6999 H 610.021 0.46315 -3.97108 0
M  V30 7000 H 611.461 1.502 -3.96505 0
M  V30 7001 C 609.92 2.12392 -2.61518 0
M  V30 7002 O 610.45 3.2059 -2.42044 0
M  V30 7003 N 608.656 1.88563 -2.21116 0
M  V30 7004 H 608.203 1.00577 -2.37154 0
M  V30 7005 H 608.161 2.61651 -1.74316 0
M  V30 7006 N 611.933 1.52934 -0.380664 0
M  V30 7007 C 613.349 1.59571 -0.0302429 0
M  V30 7008 C 613.549 1.39509 1.45394 0
M  V30 7009 O 612.605 1.20777 2.21741 0
M  V30 7010 C 613.918 2.96519 -0.499691 0
M  V30 7011 C 615.466 3.09672 -0.455204 0
M  V30 7012 C 615.941 4.49056 -0.900703 0
M  V30 7013 N 617.432 4.55215 -0.856367 0
M  V30 7014 C 618.167 5.61282 -1.17259 0
M  V30 7015 N 617.663 6.75035 -1.55885 0
M  V30 7016 N 619.456 5.51343 -1.0944 0
M  V30 7017 H 611.607 1.64224 -1.347 0
M  V30 7018 H 613.87 0.771033 -0.551554 0
M  V30 7019 H 613.576 3.16388 -1.53595 0
M  V30 7020 H 613.45 3.77052 0.105789 0
M  V30 7021 H 615.837 2.89504 0.571949 0
M  V30 7022 H 615.918 2.31113 -1.09638 0
M  V30 7023 H 615.562 4.69964 -1.92604 0
M  V30 7024 H 615.492 5.26068 -0.236629 0
M  V30 7025 H 617.983 3.73546 -0.572013 0
M  V30 7026 H 618.296 7.51926 -1.784 0
M  V30 7027 H 616.641 6.76388 -1.59764 0
M  V30 7028 H 619.832 4.61356 -0.791713 0
M  V30 7029 H 620.005 6.33905 -1.34417 0
M  V30 7030 N 613.412 0.11024 1.57214 0
M  V30 7031 C 614.362 -0.854147 2.11396 0
M  V30 7032 C 615.346 -1.23394 1.03261 0
M  V30 7033 O 616.538 -1.20649 1.2951 0
M  V30 7034 C 613.667 -2.10752 2.70995 0
M  V30 7035 C 612.753 -1.75249 3.86198 0
M  V30 7036 N 613.144 -1.10377 4.9361 0
M  V30 7037 C 611.442 -2.04763 3.96217 0
M  V30 7038 C 612.143 -0.938199 5.74084 0
M  V30 7039 N 611.119 -1.46039 5.23616 0
M  V30 7040 H 614.921 -0.348897 2.91822 0
M  V30 7041 H 612.435 -0.0925071 1.62136 0
M  V30 7042 H 614.432 -2.80801 3.0815 0
M  V30 7043 H 613.092 -2.61829 1.9203 0
M  V30 7044 H 614.103 -0.768785 5.12162 0
M  V30 7045 H 610.78 -2.57948 3.28282 0
M  V30 7046 H 612.17 -0.429678 6.70525 0
M  V30 7047 N 614.89 -1.56749 -0.16351 0
M  V30 7048 C 615.838 -1.97939 -1.22159 0
M  V30 7049 C 616.832 -0.869288 -1.45395 0
M  V30 7050 O 618.038 -1.05443 -1.45883 0
M  V30 7051 H 614.413 -0.629869 -0.410815 0
M  V30 7052 H 616.384 -2.86115 -0.847381 0
M  V30 7053 C 615.133 -2.36206 -2.55151 0
M  V30 7054 H 614.456 -3.2117 -2.38097 0
M  V30 7055 H 615.896 -2.68863 -3.27854 0
M  V30 7056 C 614.355 -1.20841 -3.14482 0
M  V30 7057 O 614.885 -0.500258 -3.98573 0
M  V30 7058 N 613.091 -0.976943 -2.73686 0
M  V30 7059 H 612.638 -1.55457 -2.05404 0
M  V30 7060 H 612.596 -0.206912 -3.13718 0
M  V30 7061 N 616.368 0.432326 -1.51554 0
M  V30 7062 C 617.615 1.18134 -1.64471 0
M  V30 7063 C 617.943 1.91076 -0.363349 0
M  V30 7064 O 617.198 1.84492 0.65279 0
M  V30 7065 C 617.497 2.21907 -2.80164 0
M  V30 7066 C 617.163 1.65941 -4.19255 0
M  V30 7067 C 615.825 1.50401 -4.57092 0
M  V30 7068 C 618.177 1.24843 -5.06027 0
M  V30 7069 C 615.505 0.922443 -5.79403 0
M  V30 7070 C 617.857 0.68113 -6.28922 0
M  V30 7071 C 616.521 0.512673 -6.65528 0
M  V30 7072 H 615.791 0.432283 -0.601841 0
M  V30 7073 H 618.438 0.471701 -1.856 0
M  V30 7074 H 616.743 2.98928 -2.53277 0
M  V30 7075 H 618.44 2.79691 -2.87357 0
M  V30 7076 H 615.03 1.79014 -3.89425 0
M  V30 7077 H 619.214 1.35667 -4.77397 0
M  V30 7078 H 614.47 0.779733 -6.06408 0
M  V30 7079 H 618.644 0.35418 -6.95499 0
M  V30 7080 H 616.271 0.0599084 -7.60176 0
M  V30 7081 N 617.846 1.41785 0.688094 0
M  V30 7082 C 618.793 1.44221 1.80191 0
M  V30 7083 C 619.763 0.295688 1.63447 0
M  V30 7084 O 620.948 0.49783 1.84191 0
M  V30 7085 C 618.088 1.33743 3.1813 0
M  V30 7086 C 617.201 2.58325 3.46254 0
M  V30 7087 C 616.336 2.40086 4.73848 0
M  V30 7088 C 615.375 3.60107 4.94964 0
M  V30 7089 N 614.512 3.40892 6.13789 0
M  V30 7090 H 619.352 2.39411 1.77444 0
M  V30 7091 H 616.889 1.18876 0.866423 0
M  V30 7092 H 618.847 1.25669 3.97823 0
M  V30 7093 H 617.477 0.42157 3.20035 0
M  V30 7094 H 616.529 2.7682 2.60912 0
M  V30 7095 H 617.841 3.4758 3.57756 0
M  V30 7096 H 616.995 2.29522 5.61609 0
M  V30 7097 H 615.734 1.483 4.64606 0
M  V30 7098 H 614.739 3.71118 4.05649 0
M  V30 7099 H 615.964 4.52857 5.06061 0
M  V30 7100 H 613.91 2.51812 6.05745 0
M  V30 7101 H 613.827 4.23727 6.26092 0
M  V30 7102 H 615.095 3.34114 7.04264 0
M  V30 7103 N 619.324 -0.923095 1.27737 0
M  V30 7104 C 620.254 -2.04124 1.13383 0
M  V30 7105 C 621.235 -1.70066 0.0340658 0
M  V30 7106 O 622.42 -1.93068 0.209383 0
M  V30 7107 C 619.55 -3.3831 0.785097 0
M  V30 7108 C 618.504 -3.86496 1.8386 0
M  V30 7109 C 617.83 -5.1754 1.34373 0
M  V30 7110 C 619.13 -4.09381 3.24353 0
M  V30 7111 H 620.824 -2.1639 2.06919 0
M  V30 7112 H 618.37 -1.03976 0.996243 0
M  V30 7113 H 620.323 -4.16016 0.671485 0
M  V30 7114 H 619.047 -3.2607 -0.185969 0
M  V30 7115 H 617.706 -3.10987 1.9412 0
M  V30 7116 H 617.354 -5.01696 0.361989 0
M  V30 7117 H 617.054 -5.50751 2.04811 0
M  V30 7118 H 618.578 -5.97811 1.24315 0
M  V30 7119 H 619.992 -4.77641 3.17067 0
M  V30 7120 H 618.389 -4.53906 3.92542 0
M  V30 7121 H 619.459 -3.14515 3.69064 0
M  V30 7122 N 620.802 -1.09834 -1.13024 0
M  V30 7123 C 621.732 -0.763451 -2.20666 0
M  V30 7124 C 622.713 0.260778 -1.68089 0
M  V30 7125 O 623.898 0.127915 -1.93778 0
M  V30 7126 C 621.028 -0.187744 -3.46792 0
M  V30 7127 C 619.982 -1.14196 -4.12484 0
M  V30 7128 C 619.308 -0.427755 -5.32986 0
M  V30 7129 C 620.608 -2.48607 -4.59338 0
M  V30 7130 H 622.302 -1.66347 -2.48936 0
M  V30 7131 H 619.848 -0.801261 -1.19649 0
M  V30 7132 H 621.801 0.0586375 -4.21359 0
M  V30 7133 H 620.525 0.747485 -3.17931 0
M  V30 7134 H 619.184 -1.37369 -3.3989 0
M  V30 7135 H 618.832 0.511747 -5.0039 0
M  V30 7136 H 618.532 -1.06403 -5.77886 0
M  V30 7137 H 620.056 -0.189772 -6.10305 0
M  V30 7138 H 621.47 -2.29618 -5.25308 0
M  V30 7139 H 619.867 -3.08062 -5.14993 0
M  V30 7140 H 620.937 -3.09062 -3.73642 0
M  V30 7141 N 622.28 1.30327 -0.886154 0
M  V30 7142 C 623.21 2.30549 -0.370028 0
M  V30 7143 C 624.191 1.61039 0.547751 0
M  V30 7144 O 625.376 1.8864 0.461353 0
M  V30 7145 C 622.506 3.44808 0.415275 0
M  V30 7146 C 621.46 4.26024 -0.41085 0
M  V30 7147 C 620.786 5.32347 0.501128 0
M  V30 7148 C 622.086 4.95433 -1.65359 0
M  V30 7149 H 623.78 2.73969 -1.20754 0
M  V30 7150 H 621.326 1.3171 -0.582097 0
M  V30 7151 H 623.279 4.13986 0.78699 0
M  V30 7152 H 622.003 3.00197 1.28644 0
M  V30 7153 H 620.662 3.58535 -0.764719 0
M  V30 7154 H 620.31 4.83982 1.37004 0
M  V30 7155 H 620.01 5.87581 -0.0478356 0
M  V30 7156 H 621.534 6.0438 0.869333 0
M  V30 7157 H 622.948 5.5712 -1.35239 0
M  V30 7158 H 621.345 5.60537 -2.14284 0
M  V30 7159 H 622.415 4.21493 -2.39733 0
M  V30 7160 N 623.758 0.647228 1.43697 0
M  V30 7161 C 624.705 -0.0480092 2.3075 0
M  V30 7162 C 625.675 -0.820705 1.44408 0
M  V30 7163 O 626.86 -0.798515 1.73287 0
M  V30 7164 C 624 -1.01259 3.2991 0
M  V30 7165 C 623.113 -0.236629 4.31351 0
M  V30 7166 C 622.248 -1.19447 5.17596 0
M  V30 7167 C 621.287 -0.408595 6.10735 0
M  V30 7168 N 620.424 -1.31772 6.89623 0
M  V30 7169 H 625.264 0.700238 2.89656 0
M  V30 7170 H 622.801 0.357082 1.427 0
M  V30 7171 H 624.759 -1.58538 3.85903 0
M  V30 7172 H 623.389 -1.72778 2.72667 0
M  V30 7173 H 622.441 0.452353 3.77701 0
M  V30 7174 H 623.753 0.374731 4.9739 0
M  V30 7175 H 622.907 -1.83809 5.78186 0
M  V30 7176 H 621.646 -1.83975 4.51669 0
M  V30 7177 H 620.651 0.24841 5.49239 0
M  V30 7178 H 621.876 0.232188 6.78703 0
M  V30 7179 H 619.822 -1.94991 6.2635 0
M  V30 7180 H 619.739 -0.760779 7.52162 0
M  V30 7181 H 621.007 -1.94967 7.54724 0
M  V30 7182 N 625.236 -1.5273 0.388769 0
M  V30 7183 C 626.485 -2.00757 -0.194833 0
M  V30 7184 C 626.798 -1.27951 -1.47946 0
M  V30 7185 O 628.004 -1.66686 -2.14308 0
M  V30 7186 C 626.46 -3.57695 -0.397762 0
M  V30 7187 C 626.068 -4.394 0.873583 0
M  V30 7188 C 627.812 -4.14012 -0.937759 0
M  V30 7189 C 625.719 -5.87938 0.638962 0
M  V30 7190 H 624.649 -0.750101 -0.0765845 0
M  V30 7191 H 627.3 -1.76239 0.511086 0
M  V30 7192 H 625.682 -3.7846 -1.16552 0
M  V30 7193 H 626.856 -4.30403 1.64591 0
M  V30 7194 H 625.171 -3.94301 1.33849 0
M  V30 7195 H 627.768 -5.22645 -1.12899 0
M  V30 7196 H 628.111 -3.7007 -1.90666 0
M  V30 7197 H 628.644 -3.97137 -0.229588 0
M  V30 7198 H 625.383 -6.36202 1.57885 0
M  V30 7199 H 624.903 -5.99726 -0.094443 0
M  V30 7200 H 626.582 -6.46423 0.273299 0
M  V30 7201 N 626.714 -0.118576 -1.57153 0
M  V30 7202 C 627.644 0.828436 -2.1831 0
M  V30 7203 C 628.625 1.27758 -1.12303 0
M  V30 7204 O 629.81 1.34026 -1.40537 0
M  V30 7205 C 626.94 2.07876 -2.78217 0
M  V30 7206 C 625.894 1.76742 -3.89803 0
M  V30 7207 C 625.22 3.08801 -4.36516 0
M  V30 7208 C 626.52 1.03606 -5.11921 0
M  V30 7209 H 628.214 0.318824 -2.97698 0
M  V30 7210 H 625.76 0.151911 -1.43196 0
M  V30 7211 H 627.713 2.74584 -3.19659 0
M  V30 7212 H 626.437 2.61161 -1.96118 0
M  V30 7213 H 625.096 1.12424 -3.48936 0
M  V30 7214 H 624.744 3.6002 -3.51276 0
M  V30 7215 H 624.444 2.88743 -5.11763 0
M  V30 7216 H 625.968 3.76627 -4.80608 0
M  V30 7217 H 627.382 1.60467 -5.50385 0
M  V30 7218 H 625.779 0.936454 -5.92748 0
M  V30 7219 H 626.849 0.0227421 -4.84895 0
M  V30 7220 N 628.193 1.56834 0.155195 0
M  V30 7221 C 629.14 1.97646 1.19184 0
M  V30 7222 C 630.11 0.842788 1.4313 0
M  V30 7223 O 631.295 1.1042 1.55602 0
M  V30 7224 C 628.435 2.35527 2.52232 0
M  V30 7225 C 627.548 3.62147 2.35529 0
M  V30 7226 C 626.683 3.89167 3.61555 0
M  V30 7227 C 625.722 5.09084 3.39853 0
M  V30 7228 N 624.859 5.32156 4.5799 0
M  V30 7229 H 629.699 2.8601 0.836802 0
M  V30 7230 H 627.236 1.41507 0.401758 0
M  V30 7231 H 629.194 2.55516 3.29799 0
M  V30 7232 H 627.824 1.50253 2.85699 0
M  V30 7233 H 626.876 3.4998 1.49057 0
M  V30 7234 H 628.188 4.49871 2.15448 0
M  V30 7235 H 627.342 4.09611 4.47553 0
M  V30 7236 H 626.081 2.9985 3.84632 0
M  V30 7237 H 625.086 4.88522 2.52243 0
M  V30 7238 H 626.311 5.99947 3.18183 0
M  V30 7239 H 624.257 4.45791 4.81255 0
M  V30 7240 H 624.174 6.14133 4.40882 0
M  V30 7241 H 625.442 5.57091 5.45225 0
M  V30 7242 N 629.671 -0.424282 1.51781 0
M  V30 7243 C 630.92 -1.16961 1.64326 0
M  V30 7244 C 631.233 -1.92035 0.371749 0
M  V30 7245 O 632.439 -2.68873 0.37676 0
M  V30 7246 C 630.895 -2.12782 2.90262 0
M  V30 7247 C 630.503 -1.43295 4.24465 0
M  V30 7248 C 632.247 -2.87667 3.12166 0
M  V30 7249 C 630.154 -2.37676 5.41538 0
M  V30 7250 H 629.084 -0.440293 0.612093 0
M  V30 7251 H 631.735 -0.435431 1.78259 0
M  V30 7252 H 630.117 -2.8969 2.69992 0
M  V30 7253 H 631.291 -0.718564 4.55163 0
M  V30 7254 H 629.606 -0.805118 4.08542 0
M  V30 7255 H 632.203 -3.58395 3.96808 0
M  V30 7256 H 632.546 -3.49758 2.25776 0
M  V30 7257 H 633.079 -2.17863 3.32837 0
M  V30 7258 H 629.818 -1.80255 6.30229 0
M  V30 7259 H 629.338 -3.07132 5.15199 0
M  V30 7260 H 631.017 -2.98529 5.74012 0
M  V30 7261 N 631.149 -1.42148 -0.680565 0
M  V30 7262 C 632.377 -1.45696 -1.46902 0
M  V30 7263 C 632.792 -0.0665858 -1.88683 0
M  V30 7264 O 632.149 0.917436 -1.57764 0
M  V30 7265 C 632.2 -2.37898 -2.72188 0
M  V30 7266 O 631.921 -3.71526 -2.32163 0
M  V30 7267 C 633.422 -2.50407 -3.65802 0
M  V30 7268 H 630.642 -0.495729 -0.45221 0
M  V30 7269 H 633.186 -1.866 -0.836709 0
M  V30 7270 H 631.341 -2.00263 -3.31622 0
M  V30 7271 H 631.755 -4.20849 -3.13027 0
M  V30 7272 H 633.229 -3.19056 -4.50452 0
M  V30 7273 H 633.706 -1.5401 -4.11312 0
M  V30 7274 H 634.312 -2.8874 -3.12265 0
M  V30 7275 N 632.627 0.916307 -1.28225 0
M  V30 7276 C 633.574 2.01841 -1.11932 0
M  V30 7277 C 634.544 1.66091 -0.0171604 0
M  V30 7278 O 635.729 1.89934 -0.181617 0
M  V30 7279 C 632.869 3.36065 -0.784504 0
M  V30 7280 C 631.982 3.847 -1.96544 0
M  V30 7281 C 631.117 5.07423 -1.57149 0
M  V30 7282 C 630.156 5.48384 -2.71922 0
M  V30 7283 N 629.293 6.62298 -2.33037 0
M  V30 7284 H 634.133 2.1511 -2.06232 0
M  V30 7285 H 631.67 1.05366 -1.02647 0
M  V30 7286 H 633.628 4.13272 -0.571148 0
M  V30 7287 H 632.258 3.22571 0.121565 0
M  V30 7288 H 631.31 3.03673 -2.291 0
M  V30 7289 H 632.622 4.1102 -2.82603 0
M  V30 7290 H 631.776 5.92165 -1.32004 0
M  V30 7291 H 630.515 4.82906 -0.682153 0
M  V30 7292 H 629.52 4.62184 -2.97768 0
M  V30 7293 H 630.745 5.7489 -3.61494 0
M  V30 7294 H 628.691 6.39416 -1.4657 0
M  V30 7295 H 628.608 6.8833 -3.12631 0
M  V30 7296 H 629.876 7.50352 -2.11169 0
M  V30 7297 N 634.105 1.10431 1.1244 0
M  V30 7298 C 635.052 0.753103 2.18167 0
M  V30 7299 C 636.022 -0.270549 1.63882 0
M  V30 7300 O 637.207 -0.149837 1.90211 0
M  V30 7301 C 634.347 0.191046 3.44571 0
M  V30 7302 C 633.46 1.26999 4.12911 0
M  V30 7303 C 632.595 0.669586 5.26963 0
M  V30 7304 C 631.634 1.72912 5.87169 0
M  V30 7305 N 630.771 1.14898 6.92635 0
M  V30 7306 H 635.611 1.65892 2.47556 0
M  V30 7307 H 633.148 0.828631 1.21541 0
M  V30 7308 H 635.106 -0.152712 4.1692 0
M  V30 7309 H 633.736 -0.677997 3.15599 0
M  V30 7310 H 632.788 1.73087 3.3874 0
M  V30 7311 H 634.1 2.07204 4.53727 0
M  V30 7312 H 633.254 0.275274 6.06075 0
M  V30 7313 H 631.993 -0.163895 4.87425 0
M  V30 7314 H 630.998 2.13286 5.06744 0
M  V30 7315 H 632.223 2.56544 6.28778 0
M  V30 7316 H 630.169 0.336956 6.55134 0
M  V30 7317 H 630.086 1.88786 7.32049 0
M  V30 7318 H 631.354 0.78121 7.75576 0
M  V30 7319 N 635.583 -1.29855 0.893053 0
M  V30 7320 C 636.808 -2.00512 0.530066 0
M  V30 7321 C 637.233 -1.66446 -0.876199 0
M  V30 7322 O 636.591 -0.885446 -1.58207 0
M  V30 7323 C 636.639 -3.53308 0.721505 0
M  V30 7324 O 635.743 -4.11764 -0.228994 0
M  V30 7325 H 635.084 -0.630617 0.207891 0
M  V30 7326 H 637.614 -1.6551 1.20282 0
M  V30 7327 H 637.624 -4.03206 0.623599 0
M  V30 7328 H 636.299 -3.77439 1.74678 0
M  V30 7329 H 634.876 -3.72805 -0.0841034 0
M  V30 7330 N 637.061 -0.65484 -1.43351 0
M  V30 7331 C 637.991 0.0221809 -2.33489 0
M  V30 7332 C 638.972 0.810272 -1.49561 0
M  V30 7333 O 640.157 0.771426 -1.78221 0
M  V30 7334 C 637.287 0.988117 -3.32947 0
M  V30 7335 C 636.241 0.310026 -4.26876 0
M  V30 7336 C 635.567 1.38752 -5.16384 0
M  V30 7337 C 636.867 -0.798589 -5.16159 0
M  V30 7338 H 638.561 -0.730571 -2.9035 0
M  V30 7339 H 636.107 -0.352773 -1.39612 0
M  V30 7340 H 638.06 1.47067 -3.94904 0
M  V30 7341 H 636.784 1.77205 -2.74346 0
M  V30 7342 H 635.443 -0.152097 -3.66284 0
M  V30 7343 H 635.091 2.16293 -4.54121 0
M  V30 7344 H 634.791 0.939051 -5.80048 0
M  V30 7345 H 636.315 1.87141 -5.81215 0
M  V30 7346 H 637.729 -0.398126 -5.71916 0
M  V30 7347 H 636.126 -1.17163 -5.88552 0
M  V30 7348 H 637.196 -1.65588 -4.55751 0
M  V30 7349 N 638.539 1.52521 -0.396863 0
M  V30 7350 C 639.469 2.29582 0.425941 0
M  V30 7351 C 640.45 1.33281 1.05689 0
M  V30 7352 O 641.635 1.62181 1.06823 0
M  V30 7353 C 638.765 3.10821 1.54943 0
M  V30 7354 C 637.719 4.15069 1.04413 0
M  V30 7355 C 637.045 4.84578 2.26028 0
M  V30 7356 C 638.345 5.22191 0.106767 0
M  V30 7357 H 640.039 2.98612 -0.217045 0
M  V30 7358 H 637.585 1.43611 -0.105826 0
M  V30 7359 H 639.538 3.63492 2.13193 0
M  V30 7360 H 638.262 2.39538 2.22011 0
M  V30 7361 H 636.921 3.63389 0.484118 0
M  V30 7362 H 636.569 4.09835 2.91623 0
M  V30 7363 H 636.269 5.55043 1.92876 0
M  V30 7364 H 637.793 5.40056 2.84906 0
M  V30 7365 H 639.207 5.70176 0.597685 0
M  V30 7366 H 637.604 5.99947 -0.135352 0
M  V30 7367 H 638.674 4.77531 -0.842134 0
M  V30 7368 N 640.017 0.126909 1.57088 0
M  V30 7369 C 641.247 -0.535892 1.99529 0
M  V30 7370 C 641.655 -1.60259 1.00566 0
M  V30 7371 O 640.998 -1.83698 -0.00843269 0
M  V30 7372 C 641.06 -1.21374 3.38391 0
M  V30 7373 C 640.724 -0.294044 4.56053 0
M  V30 7374 C 641.721 0.470454 5.17767 0
M  V30 7375 C 639.406 -0.202808 5.0189 0
M  V30 7376 C 641.4 1.31384 6.23712 0
M  V30 7377 C 639.087 0.644203 6.07695 0
M  V30 7378 C 640.085 1.40115 6.68473 0
M  V30 7379 O 639.773 2.23408 7.72233 0
M  V30 7380 H 639.505 -0.145799 0.66009 0
M  V30 7381 H 642.059 0.212441 2.04298 0
M  V30 7382 H 640.289 -2.00931 3.30399 0
M  V30 7383 H 641.978 -1.77424 3.65069 0
M  V30 7384 H 642.744 0.409884 4.83265 0
M  V30 7385 H 638.623 -0.781688 4.54324 0
M  V30 7386 H 642.167 1.90514 6.71081 0
M  V30 7387 H 638.064 0.706137 6.41626 0
M  V30 7388 H 638.832 2.16436 7.89365 0
M  V30 7389 N 641.495 -1.56914 -0.146875 0
M  V30 7390 C 642.405 -2.0154 -1.20079 0
M  V30 7391 C 643.421 -0.930838 -1.47008 0
M  V30 7392 O 644.597 -1.24032 -1.58676 0
M  V30 7393 C 641.662 -2.38715 -2.51428 0
M  V30 7394 C 640.723 -3.6112 -2.32145 0
M  V30 7395 C 639.956 -3.96512 -3.57231 0
M  V30 7396 O 640.179 -3.32566 -4.63418 0
M  V30 7397 O 639.113 -4.89758 -3.49887 0
M  V30 7398 H 642.939 -2.91506 -0.851924 0
M  V30 7399 H 640.524 -1.45106 -0.355607 0
M  V30 7400 H 642.406 -2.63485 -3.28867 0
M  V30 7401 H 641.081 -1.51903 -2.85845 0
M  V30 7402 H 639.988 -3.41536 -1.52656 0
M  V30 7403 H 641.321 -4.48549 -2.02644 0
M  V30 7404 N 642.974 0.416227 -1.52004 0
M  V30 7405 C 643.884 1.53147 -1.77717 0
M  V30 7406 C 644.9 1.609 -0.662368 0
M  V30 7407 O 646.076 1.77747 -0.946991 0
M  V30 7408 C 643.141 2.88948 -1.91598 0
M  V30 7409 C 642.202 2.9114 -3.15493 0
M  V30 7410 C 641.435 4.20464 -3.28703 0
M  V30 7411 O 641.658 5.13981 -2.47345 0
M  V30 7412 O 640.592 4.29368 -4.21813 0
M  V30 7413 H 644.418 1.34357 -2.72363 0
M  V30 7414 H 642.003 0.601373 -1.36762 0
M  V30 7415 H 643.885 3.69505 -2.02593 0
M  V30 7416 H 642.56 3.07821 -1.00141 0
M  V30 7417 H 641.467 2.09461 -3.09962 0
M  V30 7418 H 642.8 2.77216 -4.06709 0
M  V30 7419 N 644.452 1.42507 0.673017 0
M  V30 7420 C 645.677 1.4668 1.46627 0
M  V30 7421 C 646.102 0.080066 1.8793 0
M  V30 7422 O 645.46 -0.921879 1.56112 0
M  V30 7423 C 645.508 2.40091 2.69051 0
M  V30 7424 O 644.612 1.8735 3.67387 0
M  V30 7425 H 643.953 0.496908 0.44043 0
M  V30 7426 H 646.483 1.87215 0.825334 0
M  V30 7427 H 646.493 2.56731 3.17101 0
M  V30 7428 H 645.168 3.4084 2.3833 0
M  V30 7429 H 643.745 1.80274 3.26429 0
M  V30 7430 N 645.93 -0.909495 1.28709 0
M  V30 7431 C 647.16 -1.69027 1.188 0
M  V30 7432 C 647.568 -1.87469 -0.255329 0
M  V30 7433 O 646.911 -1.40458 -1.18394 0
M  V30 7434 C 646.973 -3.10064 1.81936 0
M  V30 7435 C 646.637 -3.14891 3.31199 0
M  V30 7436 C 647.634 -2.95768 4.27571 0
M  V30 7437 C 645.319 -3.37269 3.7223 0
M  V30 7438 C 647.313 -2.98942 5.6295 0
M  V30 7439 C 645 -3.40074 5.07733 0
M  V30 7440 C 645.998 -3.20932 6.02903 0
M  V30 7441 O 645.686 -3.23507 7.35934 0
M  V30 7442 H 645.418 -0.535014 0.413203 0
M  V30 7443 H 647.972 -1.14645 1.70428 0
M  V30 7444 H 646.202 -3.66005 1.24808 0
M  V30 7445 H 647.891 -3.70185 1.66486 0
M  V30 7446 H 648.657 -2.78302 3.97206 0
M  V30 7447 H 644.536 -3.51212 2.98615 0
M  V30 7448 H 648.08 -2.83919 6.37209 0
M  V30 7449 H 643.977 -3.5707 5.37747 0
M  V30 7450 H 644.745 -3.3984 7.44615 0
M  V30 7451 N 647.408 -1.11026 -1.11852 0
M  V30 7452 C 648.341 -0.708501 -2.16923 0
M  V30 7453 C 649.319 0.293196 -1.59935 0
M  V30 7454 O 650.503 0.190641 -1.87533 0
M  V30 7455 C 647.63 -0.0463705 -3.38668 0
M  V30 7456 C 646.676 -1.01252 -4.14307 0
M  V30 7457 S 647.509 -2.53291 -4.71809 0
M  V30 7458 C 648.665 -1.88366 -5.96883 0
M  V30 7459 H 648.898 -1.59854 -2.50667 0
M  V30 7460 H 646.431 -0.927869 -1.2341 0
M  V30 7461 H 648.389 0.329314 -4.09177 0
M  V30 7462 H 647.05 0.820562 -3.03192 0
M  V30 7463 H 646.243 -0.496596 -5.01548 0
M  V30 7464 H 645.845 -1.33042 -3.49537 0
M  V30 7465 H 648.137 -1.21753 -6.6647 0
M  V30 7466 H 649.08 -2.73588 -6.53112 0
M  V30 7467 H 649.488 -1.34562 -5.48227 0
M  V30 7468 N 648.886 1.2938 -0.899927 0
M  V30 7469 C 649.833 2.27713 -0.376243 0
M  V30 7470 C 650.803 1.57016 0.541774 0
M  V30 7471 O 651.988 1.84997 0.466966 0
M  V30 7472 C 649.128 3.42889 0.39 0
M  V30 7473 C 648.241 4.28369 -0.558938 0
M  V30 7474 C 647.376 5.30726 0.224379 0
M  V30 7475 C 646.415 6.07862 -0.719068 0
M  V30 7476 N 645.552 7.02094 0.0298569 0
M  V30 7477 H 650.392 2.71888 -1.21988 0
M  V30 7478 H 647.929 1.33724 -0.612879 0
M  V30 7479 H 649.887 4.08443 0.850314 0
M  V30 7480 H 648.517 2.99743 1.19809 0
M  V30 7481 H 647.569 3.62986 -1.13777 0
M  V30 7482 H 648.881 4.82068 -1.2811 0
M  V30 7483 H 648.035 6.02098 0.745881 0
M  V30 7484 H 646.774 4.77759 0.979674 0
M  V30 7485 H 645.779 5.35353 -1.25207 0
M  V30 7486 H 647.004 6.62917 -1.4737 0
M  V30 7487 H 644.95 6.51496 0.767415 0
M  V30 7488 H 644.867 7.5335 -0.632391 0
M  V30 7489 H 646.135 7.77685 0.531615 0
M  V30 7490 N 650.364 0.662433 1.43002 0
M  V30 7491 C 651.613 0.176873 2.00923 0
M  V30 7492 C 651.926 -1.21954 1.52927 0
M  V30 7493 O 653.132 -1.80081 2.03182 0
M  V30 7494 C 651.588 0.265379 3.5892 0
M  V30 7495 C 651.196 1.66507 4.15908 0
M  V30 7496 C 652.94 -0.162103 4.2419 0
M  V30 7497 C 650.847 1.707 5.66229 0
M  V30 7498 H 649.777 0.0623627 0.751417 0
M  V30 7499 H 652.428 0.825813 1.63868 0
M  V30 7500 H 650.81 -0.451235 3.93421 0
M  V30 7501 H 651.984 2.40777 3.92891 0
M  V30 7502 H 650.299 2.03932 3.63044 0
M  V30 7503 H 652.896 -0.150745 5.34487 0
M  V30 7504 H 653.239 -1.19519 3.98774 0
M  V30 7505 H 653.772 0.503075 3.94606 0
M  V30 7506 H 650.511 2.7195 5.96426 0
M  V30 7507 H 650.031 1.00768 5.91275 0
M  V30 7508 H 651.71 1.45487 6.3043 0
M  V30 7509 N 651.842 -1.52309 0.404946 0
M  V30 7510 C 653.067 -2.06666 -0.1743 0
M  V30 7511 C 653.492 -1.27341 -1.38441 0
M  V30 7512 O 652.85 -0.302539 -1.78758 0
M  V30 7513 C 652.898 -3.57014 -0.507262 0
M  V30 7514 O 652.002 -3.80144 -1.59889 0
M  V30 7515 H 651.343 -0.663807 -0.0160273 0
M  V30 7516 H 653.873 -1.96297 0.576937 0
M  V30 7517 H 653.883 -4.00724 -0.767098 0
M  V30 7518 H 652.558 -4.14184 0.377368 0
M  V30 7519 H 651.135 -3.48316 -1.33155 0
M  V30 7520 N 653.32 -0.135238 -1.57019 0
M  V30 7521 C 654.566 0.519563 -1.96032 0
M  V30 7522 C 654.899 1.65284 -1.01955 0
M  V30 7523 O 654.174 1.94408 -0.059727 0
M  V30 7524 C 654.457 1.0369 -3.44848 0
M  V30 7525 C 654.31 -0.0940754 -4.49702 0
M  V30 7526 C 655.629 1.92254 -3.95887 0
M  V30 7527 H 652.748 0.18739 -0.712779 0
M  V30 7528 H 655.39 -0.214086 -1.8879 0
M  V30 7529 H 653.54 1.66209 -3.5115 0
M  V30 7530 H 655.212 -0.73 -4.55487 0
M  V30 7531 H 653.455 -0.754924 -4.27181 0
M  V30 7532 H 654.126 0.309419 -5.51132 0
M  V30 7533 H 656.602 1.39581 -3.9199 0
M  V30 7534 H 655.478 2.25364 -5.00502 0
M  V30 7535 H 655.739 2.85513 -3.37543 0
M  V30 7536 N 654.798 1.5699 0.138552 0
M  V30 7537 C 655.761 1.97984 1.15478 0
M  V30 7538 C 656.761 0.867416 1.35398 0
M  V30 7539 O 657.951 1.13387 1.32246 0
M  V30 7540 C 655.083 2.3031 2.51337 0
M  V30 7541 H 656.276 2.88953 0.802896 0
M  V30 7542 H 653.829 1.51555 0.382189 0
M  V30 7543 H 654.564 1.42159 2.91481 0
M  V30 7544 H 654.349 3.11425 2.38237 0
M  V30 7545 H 655.839 2.62834 3.24512 0
M  V30 7546 N 656.276 -0.40816 1.52223 0
M  V30 7547 C 657.224 -1.51788 1.76248 0
M  V30 7548 C 658.218 -1.57264 0.629638 0
M  V30 7549 O 659.424 -1.60659 0.811704 0
M  V30 7550 H 655.799 -0.504823 0.557367 0
M  V30 7551 H 657.77 -1.2871 2.69214 0
M  V30 7552 C 656.519 -2.89145 1.93107 0
M  V30 7553 H 655.842 -2.85674 2.79697 0
M  V30 7554 H 657.282 -3.66082 2.13916 0
M  V30 7555 C 655.741 -3.29581 0.698431 0
M  V30 7556 O 656.271 -4.01479 -0.133238 0
M  V30 7557 N 654.477 -2.85651 0.53405 0
M  V30 7558 H 654.024 -2.2731 1.21194 0
M  V30 7559 H 653.982 -3.13065 -0.289387 0
M  V30 7560 N 657.755 -1.42862 -0.66545 0
M  V30 7561 C 658.685 -1.49867 -1.79059 0
M  V30 7562 C 659.666 -0.354394 -1.66367 0
M  V30 7563 O 660.851 -0.569969 -1.85647 0
M  V30 7564 C 657.981 -1.40943 -3.17415 0
M  V30 7565 C 656.935 -2.53495 -3.44854 0
M  V30 7566 C 656.261 -2.29626 -4.82883 0
M  V30 7567 C 657.561 -3.95781 -3.40815 0
M  V30 7568 H 659.255 -2.44037 -1.73453 0
M  V30 7569 H 656.801 -1.17456 -0.833071 0
M  V30 7570 H 658.754 -1.4445 -3.95869 0
M  V30 7571 H 657.478 -0.432716 -3.23721 0
M  V30 7572 H 656.137 -2.4932 -2.68766 0
M  V30 7573 H 655.785 -1.30226 -4.8585 0
M  V30 7574 H 655.485 -3.05065 -5.02204 0
M  V30 7575 H 657.009 -2.34897 -5.63609 0
M  V30 7576 H 658.423 -4.01508 -4.09224 0
M  V30 7577 H 656.82 -4.71148 -3.71672 0
M  V30 7578 H 657.89 -4.21786 -2.39216 0
M  V30 7579 N 659.233 0.902656 -1.29189 0
M  V30 7580 C 660.163 2.02294 -1.16616 0
M  V30 7581 C 661.144 1.6999 -0.0611175 0
M  V30 7582 O 662.329 1.9271 -0.240072 0
M  V30 7583 C 659.459 3.37018 -0.83882 0
M  V30 7584 C 658.413 3.83522 -1.89986 0
M  V30 7585 C 657.739 5.15337 -1.42589 0
M  V30 7586 C 659.039 4.04169 -3.30824 0
M  V30 7587 H 660.733 2.13071 -2.10336 0
M  V30 7588 H 658.279 1.02378 -1.01266 0
M  V30 7589 H 660.232 4.14895 -0.737584 0
M  V30 7590 H 658.956 3.26325 0.134071 0
M  V30 7591 H 657.615 3.07859 -1.99043 0
M  V30 7592 H 657.263 5.01056 -0.441759 0
M  V30 7593 H 656.963 5.47423 -2.13547 0
M  V30 7594 H 658.487 5.95758 -1.3381 0
M  V30 7595 H 659.901 4.72537 -3.24626 0
M  V30 7596 H 658.298 4.47604 -3.99713 0
M  V30 7597 H 659.368 3.08604 -3.74021 0
M  V30 7598 N 660.711 1.11618 1.11262 0
M  V30 7599 C 661.939 0.888739 1.8684 0
M  V30 7600 C 662.354 -0.561558 1.80255 0
M  V30 7601 O 661.711 -1.38782 1.18515 0
M  V30 7602 C 661.762 1.34422 3.35579 0
M  V30 7603 O 661.483 2.73766 3.42029 0
M  V30 7604 C 662.984 1.15246 4.28058 0
M  V30 7605 H 660.204 0.318152 0.590779 0
M  V30 7606 H 662.748 1.48398 1.40707 0
M  V30 7607 H 660.903 0.79239 3.7921 0
M  V30 7608 H 661.317 2.9355 4.34659 0
M  V30 7609 H 662.791 1.52015 5.30656 0
M  V30 7610 H 663.268 0.0922007 4.39103 0
M  V30 7611 H 663.874 1.69136 3.90222 0
M  V30 7612 N 662.189 -1.289 0.906776 0
M  V30 7613 C 663.136 -2.2751 0.388313 0
M  V30 7614 C 664.106 -1.57301 -0.533439 0
M  V30 7615 O 665.291 -1.85243 -0.457148 0
M  V30 7616 C 662.431 -3.43091 -0.37181 0
M  V30 7617 C 661.544 -4.28066 0.581647 0
M  V30 7618 C 660.679 -5.30837 -0.19623 0
M  V30 7619 C 659.718 -6.07472 0.751294 0
M  V30 7620 N 658.855 -7.021 0.00737727 0
M  V30 7621 H 663.695 -2.71237 1.23428 0
M  V30 7622 H 661.232 -1.33397 0.619962 0
M  V30 7623 H 663.19 -4.08888 -0.828641 0
M  V30 7624 H 661.82 -3.00374 -1.18218 0
M  V30 7625 H 660.872 -3.62378 1.157 0
M  V30 7626 H 662.184 -4.81382 1.30665 0
M  V30 7627 H 661.338 -6.02485 -0.71394 0
M  V30 7628 H 660.077 -4.78272 -0.954324 0
M  V30 7629 H 659.082 -5.34682 1.28044 0
M  V30 7630 H 660.307 -6.62126 1.50883 0
M  V30 7631 H 658.253 -6.51894 -0.732854 0
M  V30 7632 H 658.17 -7.53004 0.672334 0
M  V30 7633 H 659.438 -7.77956 -0.490365 0
M  V30 7634 N 663.667 -0.670007 -1.42649 0
M  V30 7635 C 664.914 -0.190286 -2.01604 0
M  V30 7636 C 665.242 1.20155 -1.52948 0
M  V30 7637 O 664.497 1.81964 -0.72026 0
M  V30 7638 C 664.796 -0.168298 -3.57004 0
M  V30 7639 C 664.462 -1.50415 -4.25072 0
M  V30 7640 C 663.124 -1.86992 -4.43382 0
M  V30 7641 C 665.476 -2.38414 -4.63474 0
M  V30 7642 C 662.804 -3.11203 -4.97363 0
M  V30 7643 C 665.156 -3.61933 -5.18833 0
M  V30 7644 C 663.82 -3.98685 -5.35356 0
M  V30 7645 H 663.09 -0.0696305 -0.737721 0
M  V30 7646 H 665.737 -0.864044 -1.70899 0
M  V30 7647 H 664.042 0.588958 -3.87348 0
M  V30 7648 H 665.739 0.22001 -4.00396 0
M  V30 7649 H 662.329 -1.20959 -4.11177 0
M  V30 7650 H 666.513 -2.11442 -4.49006 0
M  V30 7651 H 661.769 -3.39705 -5.08341 0
M  V30 7652 H 665.943 -4.30326 -5.47533 0
M  V30 7653 H 663.57 -4.95009 -5.76949 0
M  V30 7654 N 665.145 1.52092 -0.413018 0
M  V30 7655 C 666.375 2.05974 0.160648 0
M  V30 7656 C 666.783 1.28267 1.39084 0
M  V30 7657 O 666.126 0.328805 1.80733 0
M  V30 7658 C 666.188 3.54918 0.572169 0
M  V30 7659 C 665.852 4.53705 -0.547826 0
M  V30 7660 C 666.849 5.00342 -1.41259 0
M  V30 7661 C 664.534 4.97089 -0.721627 0
M  V30 7662 C 666.528 5.89011 -2.43607 0
M  V30 7663 C 664.215 5.85554 -1.74841 0
M  V30 7664 C 665.213 6.3141 -2.60403 0
M  V30 7665 O 664.901 7.18123 -3.61323 0
M  V30 7666 H 664.633 0.675636 0.0221936 0
M  V30 7667 H 667.187 1.96931 -0.58373 0
M  V30 7668 H 665.417 3.61661 1.36889 0
M  V30 7669 H 667.106 3.91428 1.0742 0
M  V30 7670 H 667.872 4.67537 -1.28974 0
M  V30 7671 H 663.751 4.60954 -0.0652911 0
M  V30 7672 H 667.295 6.24725 -3.10425 0
M  V30 7673 H 663.192 6.17773 -1.87156 0
M  V30 7674 H 663.96 7.36244 -3.57613 0
M  V30 7675 N 666.623 0.143563 1.56945 0
M  V30 7676 C 667.851 -0.515447 2.00377 0
M  V30 7677 C 668.266 -1.58643 1.02361 0
M  V30 7678 O 667.623 -1.82489 0.0201039 0
M  V30 7679 C 667.674 -1.11923 3.43737 0
M  V30 7680 O 667.395 -0.0910318 4.38005 0
M  V30 7681 C 668.896 -1.85918 4.02429 0
M  V30 7682 H 666.116 -0.134478 0.657386 0
M  V30 7683 H 668.66 0.237135 2.0312 0
M  V30 7684 H 666.815 -1.82245 3.41856 0
M  V30 7685 H 667.229 -0.532916 5.21786 0
M  V30 7686 H 668.703 -2.2346 5.04747 0
M  V30 7687 H 669.18 -2.7438 3.42947 0
M  V30 7688 H 669.786 -1.20303 4.07931 0
M  V30 7689 N 668.101 -1.57061 -0.130224 0
M  V30 7690 C 669.031 -2.02552 -1.16168 0
M  V30 7691 C 670.012 -0.907971 -1.4384 0
M  V30 7692 O 671.197 -1.17693 -1.54473 0
M  V30 7693 C 668.327 -2.42035 -2.49071 0
M  V30 7694 C 667.281 -3.5713 -2.35886 0
M  V30 7695 C 666.607 -3.82478 -3.7365 0
M  V30 7696 C 667.907 -4.89236 -1.8288 0
M  V30 7697 H 669.601 -2.8897 -0.783359 0
M  V30 7698 H 667.147 -1.39021 -0.375376 0
M  V30 7699 H 669.1 -2.72462 -3.21469 0
M  V30 7700 H 667.824 -1.52573 -2.88771 0
M  V30 7701 H 666.483 -3.26895 -1.65938 0
M  V30 7702 H 666.131 -2.9024 -4.10816 0
M  V30 7703 H 665.831 -4.59944 -3.65685 0
M  V30 7704 H 667.355 -4.15347 -4.47571 0
M  V30 7705 H 668.769 -5.18272 -2.45085 0
M  V30 7706 H 667.166 -5.70624 -1.85763 0
M  V30 7707 H 668.236 -4.78494 -0.785571 0
M  V30 7708 N 669.579 0.400081 -1.52437 0
M  V30 7709 C 670.828 1.14332 -1.66166 0
M  V30 7710 C 671.141 1.91419 -0.402253 0
M  V30 7711 O 672.347 2.6824 -0.419487 0
M  V30 7712 C 670.803 2.08137 -2.9361 0
M  V30 7713 C 670.411 1.36524 -4.26691 0
M  V30 7714 C 672.155 2.82664 -3.16703 0
M  V30 7715 C 670.062 2.29031 -5.45251 0
M  V30 7716 H 668.992 0.430499 -0.61902 0
M  V30 7717 H 671.643 0.407017 -1.78929 0
M  V30 7718 H 670.025 2.85358 -2.74567 0
M  V30 7719 H 671.199 0.646061 -4.56249 0
M  V30 7720 H 669.514 0.74002 -4.09771 0
M  V30 7721 H 672.111 3.52037 -4.0246 0
M  V30 7722 H 672.454 3.46122 -2.31312 0
M  V30 7723 H 672.987 2.12541 -3.36261 0
M  V30 7724 H 669.726 1.70206 -6.33017 0
M  V30 7725 H 669.246 2.98896 -5.2002 0
M  V30 7726 H 670.925 2.89359 -5.78689 0
M  V30 7727 N 671.057 1.43213 0.657864 0
M  V30 7728 C 671.987 1.50815 1.78262 0
M  V30 7729 C 672.968 0.363211 1.66177 0
M  V30 7730 O 674.153 0.579806 1.85343 0
M  V30 7731 C 671.283 1.42625 3.16663 0
M  V30 7732 C 670.237 2.5532 3.43505 0
M  V30 7733 C 669.563 2.32184 4.81658 0
M  V30 7734 C 670.863 3.97583 3.38711 0
M  V30 7735 H 672.557 2.44954 1.72157 0
M  V30 7736 H 670.103 1.17896 0.82683 0
M  V30 7737 H 672.056 1.46548 3.95097 0
M  V30 7738 H 670.78 0.449877 3.23487 0
M  V30 7739 H 669.439 2.50742 2.6744 0
M  V30 7740 H 669.087 1.32801 4.85153 0
M  V30 7741 H 668.787 3.07724 5.00579 0
M  V30 7742 H 670.311 2.37883 5.62356 0
M  V30 7743 H 671.725 4.03673 4.07089 0
M  V30 7744 H 670.122 4.73112 3.69168 0
M  V30 7745 H 671.192 4.23049 2.36976 0
M  V30 7746 N 672.536 -0.895792 1.29666 0
M  V30 7747 C 673.782 -1.64908 1.18039 0
M  V30 7748 C 674.115 -1.9236 -0.266682 0
M  V30 7749 O 673.39 -1.53682 -1.19214 0
M  V30 7750 C 673.673 -2.99574 1.99819 0
M  V30 7751 C 673.526 -2.79163 3.52687 0
M  V30 7752 C 674.845 -4.00358 1.82761 0
M  V30 7753 H 671.964 -0.598437 0.430165 0
M  V30 7754 H 674.606 -1.03736 1.59182 0
M  V30 7755 H 672.756 -3.51786 1.64859 0
M  V30 7756 H 674.428 -2.33821 3.9765 0
M  V30 7757 H 672.671 -2.13871 3.77414 0
M  V30 7758 H 673.342 -3.74871 4.05186 0
M  V30 7759 H 675.818 -3.57268 2.13304 0
M  V30 7760 H 674.694 -4.92514 2.42325 0
M  V30 7761 H 674.955 -4.35096 0.783839 0
M  V30 7762 N 674.014 -1.12206 -1.10668 0
M  V30 7763 C 674.962 -0.782918 -2.19028 0
M  V30 7764 C 675.956 0.229175 -1.67843 0
M  V30 7765 O 677.162 0.0876295 -1.79787 0
M  V30 7766 H 673.537 -0.235339 -0.714227 0
M  V30 7767 H 675.508 -1.70527 -2.44874 0
M  V30 7768 C 674.257 -0.25116 -3.46792 0
M  V30 7769 H 673.58 -1.02123 -3.86537 0
M  V30 7770 H 675.02 -0.0521409 -4.23968 0
M  V30 7771 C 673.479 1.02037 -3.21076 0
M  V30 7772 O 674.009 2.09862 -3.42522 0
M  V30 7773 N 672.215 0.946348 -2.74759 0
M  V30 7774 H 671.762 0.068777 -2.57508 0
M  V30 7775 H 671.72 1.79775 -2.57931 0
M  V30 7776 N 675.492 1.28418 -0.913599 0
M  V30 7777 C 676.741 1.94265 -0.542572 0
M  V30 7778 C 677.054 1.72709 0.918207 0
M  V30 7779 O 678.26 2.32778 1.39738 0
M  V30 7780 C 676.716 3.47956 -0.919507 0
M  V30 7781 C 676.324 3.78291 -2.4 0
M  V30 7782 C 678.068 4.19962 -0.619057 0
M  V30 7783 C 675.975 5.2529 -2.71707 0
M  V30 7784 H 674.905 0.727213 -0.199192 0
M  V30 7785 H 677.556 1.45931 -1.11249 0
M  V30 7786 H 675.938 3.9502 -0.278372 0
M  V30 7787 H 677.112 3.42035 -3.08786 0
M  V30 7788 H 675.427 3.19456 -2.67089 0
M  V30 7789 H 678.024 5.28178 -0.832623 0
M  V30 7790 H 678.367 4.13935 0.443126 0
M  V30 7791 H 678.9 3.78674 -1.21865 0
M  V30 7792 H 675.639 5.36394 -3.76778 0
M  V30 7793 H 675.159 5.62743 -2.07559 0
M  V30 7794 H 676.838 5.93027 -2.58703 0
M  V30 7795 N 676.97 0.677563 1.42291 0
M  V30 7796 C 677.88 0.000962654 2.346 0
M  V30 7797 C 678.896 -0.785833 1.55244 0
M  V30 7798 O 680.072 -0.727523 1.87801 0
M  V30 7799 C 677.137 -0.936746 3.33805 0
M  V30 7800 C 676.198 -0.144173 4.29058 0
M  V30 7801 C 675.431 -1.03722 5.23524 0
M  V30 7802 O 675.654 -2.27675 5.22992 0
M  V30 7803 O 674.588 -0.496542 5.99848 0
M  V30 7804 H 678.414 0.761397 2.94001 0
M  V30 7805 H 675.999 0.43781 1.42841 0
M  V30 7806 H 677.881 -1.47497 3.94744 0
M  V30 7807 H 676.556 -1.67698 2.76874 0
M  V30 7808 H 675.463 0.438224 3.71524 0
M  V30 7809 H 676.796 0.55701 4.89038 0
M  V30 7810 N 678.448 -1.51871 0.421078 0
M  V30 7811 C 679.398 -2.24171 -0.416111 0
M  V30 7812 C 680.382 -1.25763 -1.00362 0
M  V30 7813 O 681.574 -1.5094 -0.924452 0
M  V30 7814 C 678.703 -3.07533 -1.52571 0
M  V30 7815 C 677.789 -4.1336 -0.948399 0
M  V30 7816 N 678.18 -5.05704 -0.0987933 0
M  V30 7817 C 676.478 -4.29055 -1.21768 0
M  V30 7818 C 677.179 -5.8127 0.223705 0
M  V30 7819 N 676.155 -5.4221 -0.388524 0
M  V30 7820 H 679.957 -2.92925 0.239166 0
M  V30 7821 H 677.471 -1.60732 0.232191 0
M  V30 7822 H 679.468 -3.57893 -2.13819 0
M  V30 7823 H 678.128 -2.4032 -2.18349 0
M  V30 7824 H 679.139 -5.17214 0.266428 0
M  V30 7825 H 675.816 -3.73071 -1.87416 0
M  V30 7826 H 677.206 -6.65653 0.914076 0
M  V30 7827 N 679.926 -0.151884 -1.56866 0
M  V30 7828 C 681.175 0.497992 -1.95456 0
M  V30 7829 C 681.488 1.6569 -1.03953 0
M  V30 7830 O 682.694 2.37173 -1.32142 0
M  V30 7831 C 681.15 0.93732 -3.4748 0
M  V30 7832 C 680.758 -0.194921 -4.47576 0
M  V30 7833 C 682.502 1.55671 -3.94926 0
M  V30 7834 C 680.409 0.26295 -5.90815 0
M  V30 7835 H 679.339 0.189811 -0.729717 0
M  V30 7836 H 681.99 -0.237011 -1.81963 0
M  V30 7837 H 680.372 1.72773 -3.56322 0
M  V30 7838 H 681.546 -0.971951 -4.50433 0
M  V30 7839 H 679.861 -0.72303 -4.10075 0
M  V30 7840 H 682.458 1.91099 -4.99385 0
M  V30 7841 H 682.801 2.44748 -3.36755 0
M  V30 7842 H 683.334 0.831109 -3.89021 0
M  V30 7843 H 680.073 -0.592568 -6.52816 0
M  V30 7844 H 679.593 1.00575 -5.91308 0
M  V30 7845 H 681.272 0.713333 -6.43056 0
M  V30 7846 N 681.404 1.57128 0.121893 0
M  V30 7847 C 682.629 1.89254 0.848385 0
M  V30 7848 C 683.054 0.743527 1.72781 0
M  V30 7849 O 682.412 -0.306056 1.78698 0
M  V30 7850 C 682.46 3.20113 1.66012 0
M  V30 7851 O 681.564 3.05815 2.76679 0
M  V30 7852 H 680.905 0.621103 0.234793 0
M  V30 7853 H 683.435 2.0433 0.10516 0
M  V30 7854 H 683.445 3.52761 2.04996 0
M  V30 7855 H 682.12 4.03336 1.01452 0
M  V30 7856 H 680.697 2.84627 2.40918 0
M  V30 7857 N 682.882 -0.391992 1.52647 0
M  V30 7858 C 683.829 -1.47866 1.77213 0
M  V30 7859 C 684.799 -1.54286 0.615223 0
M  V30 7860 O 685.984 -1.7059 0.854622 0
M  V30 7861 C 683.124 -2.85129 1.94411 0
M  V30 7862 C 682.237 -2.87883 3.22098 0
M  V30 7863 C 681.372 -4.16553 3.29631 0
M  V30 7864 C 680.411 -4.13348 4.51453 0
M  V30 7865 N 679.548 -5.33619 4.56284 0
M  V30 7866 H 684.388 -1.26219 2.6995 0
M  V30 7867 H 681.925 -0.612367 1.33748 0
M  V30 7868 H 683.883 -3.64833 2.02367 0
M  V30 7869 H 682.513 -3.05232 1.05038 0
M  V30 7870 H 681.565 -2.00567 3.23229 0
M  V30 7871 H 682.877 -2.81382 4.11856 0
M  V30 7872 H 682.031 -5.0466 3.36753 0
M  V30 7873 H 680.77 -4.25773 2.37842 0
M  V30 7874 H 679.775 -3.23629 4.44459 0
M  V30 7875 H 681 -4.05754 5.44555 0
M  V30 7876 H 678.946 -5.43474 3.67385 0
M  V30 7877 H 678.863 -5.29182 5.3991 0
M  V30 7878 H 680.131 -6.23632 4.67657 0
M  V30 7879 N 684.36 -1.4356 -0.65026 0
M  V30 7880 C 685.29 -1.51758 -1.77459 0
M  V30 7881 C 686.271 -0.372019 -1.65982 0
M  V30 7882 O 687.456 -0.589627 -1.85033 0
M  V30 7883 C 684.586 -1.44302 -3.15902 0
M  V30 7884 C 683.54 -2.57138 -3.42146 0
M  V30 7885 C 682.866 -2.34735 -4.8042 0
M  V30 7886 C 684.166 -3.99373 -3.36598 0
M  V30 7887 H 685.86 -2.45863 -1.70855 0
M  V30 7888 H 683.406 -1.18333 -0.820566 0
M  V30 7889 H 685.359 -1.48641 -3.94314 0
M  V30 7890 H 684.083 -0.467026 -3.23244 0
M  V30 7891 H 682.742 -2.52157 -2.66106 0
M  V30 7892 H 682.39 -1.35372 -4.84441 0
M  V30 7893 H 682.09 -3.10375 -4.9894 0
M  V30 7894 H 683.614 -2.40862 -5.61086 0
M  V30 7895 H 685.028 -4.05826 -4.04942 0
M  V30 7896 H 683.425 -4.75063 -3.66654 0
M  V30 7897 H 684.495 -4.243 -2.34729 0
M  V30 7898 N 685.838 0.888903 -1.30139 0
M  V30 7899 C 686.786 2.0156 -1.16088 0
M  V30 7900 C 687.78 1.69239 -0.0737413 0
M  V30 7901 O 688.986 1.78468 -0.234313 0
M  V30 7902 H 685.361 0.660825 -0.358907 0
M  V30 7903 H 687.332 2.10547 -2.11453 0
M  V30 7904 C 686.081 3.36758 -0.865426 0
M  V30 7905 H 685.404 3.62137 -1.69402 0
M  V30 7906 H 686.844 4.16246 -0.807192 0
M  V30 7907 C 685.303 3.34124 0.431577 0
M  V30 7908 O 685.833 3.7445 1.45431 0
M  V30 7909 N 684.039 2.87229 0.441321 0
M  V30 7910 H 683.586 2.54609 -0.391433 0
M  V30 7911 H 683.544 2.8585 1.30909 0
M  V30 7912 N 687.317 1.12792 1.10072 0
M  V30 7913 C 688.728 0.899346 1.63611 0
M  V30 7914 C 689.079 -0.565547 1.87872 0
M  V30 7915 O 688.204 -1.43081 1.62348 0
M  V30 7916 C 688.799 1.62608 2.97227 0
M  V30 7917 C 687.358 1.44356 3.47618 0
M  V30 7918 C 686.505 1.65958 2.22156 0
M  V30 7919 H 689.456 1.28216 0.935223 0
M  V30 7920 H 689.477 1.0793 3.64872 0
M  V30 7921 H 688.989 2.69221 2.79538 0
M  V30 7922 H 687.09 0.400148 3.70445 0
M  V30 7923 H 687.203 2.20218 4.25489 0
M  V30 7924 H 685.567 1.08395 2.30484 0
M  V30 7925 H 686.35 2.73877 2.06993 0
M  V30 7926 N 688.795 -1.27931 0.920396 0
M  V30 7927 C 689.742 -2.27085 0.412422 0
M  V30 7928 C 690.712 -1.57858 -0.516725 0
M  V30 7929 O 691.897 -1.85717 -0.437475 0
M  V30 7930 C 689.037 -3.43466 -0.335399 0
M  V30 7931 C 688.15 -4.27425 0.627017 0
M  V30 7932 C 687.285 -5.31016 -0.139916 0
M  V30 7933 C 686.324 -6.06641 0.815683 0
M  V30 7934 N 685.461 -7.02052 0.0818439 0
M  V30 7935 H 690.301 -2.69913 1.26298 0
M  V30 7936 H 687.838 -1.32732 0.634076 0
M  V30 7937 H 689.796 -4.09744 -0.785226 0
M  V30 7938 H 688.426 -3.01611 -1.15025 0
M  V30 7939 H 687.478 -3.6113 1.19537 0
M  V30 7940 H 688.79 -4.79969 1.35763 0
M  V30 7941 H 687.944 -6.03208 -0.649998 0
M  V30 7942 H 686.683 -4.79257 -0.903543 0
M  V30 7943 H 685.688 -5.33294 1.33708 0
M  V30 7944 H 686.913 -6.60489 1.57897 0
M  V30 7945 H 684.859 -6.52634 -0.663671 0
M  V30 7946 H 684.776 -7.52249 0.752163 0
M  V30 7947 H 686.044 -7.78432 -0.407825 0
M  V30 7948 N 690.273 -0.685099 -1.4193 0
M  V30 7949 C 691.183 -0.013404 -2.34596 0
M  V30 7950 C 692.199 0.777589 -1.55658 0
M  V30 7951 O 693.375 0.717553 -1.88184 0
M  V30 7952 C 690.44 0.919031 -3.34297 0
M  V30 7953 C 689.501 0.121417 -4.29128 0
M  V30 7954 C 688.734 1.00944 -5.24067 0
M  V30 7955 O 688.957 2.24898 -5.24192 0
M  V30 7956 O 687.891 0.464724 -6.00103 0
M  V30 7957 H 691.717 -0.776978 -2.93593 0
M  V30 7958 H 689.302 -0.445379 -1.42607 0
M  V30 7959 H 691.184 1.45402 -3.9552 0
M  V30 7960 H 689.859 1.66228 -2.77759 0
M  V30 7961 H 688.766 -0.45792 -3.71287 0
M  V30 7962 H 690.099 -0.582937 -4.88736 0
M  V30 7963 N 691.751 1.51645 -0.429126 0
M  V30 7964 C 692.701 2.24388 0.404217 0
M  V30 7965 C 693.685 1.26294 0.996933 0
M  V30 7966 O 694.877 1.51428 0.916434 0
M  V30 7967 C 692.006 3.08338 1.50938 0
M  V30 7968 C 691.092 4.13857 0.926464 0
M  V30 7969 N 691.483 5.05749 0.0719732 0
M  V30 7970 C 689.781 4.29695 1.19491 0
M  V30 7971 C 690.482 5.81143 -0.254528 0
M  V30 7972 N 689.458 5.42408 0.359763 0
M  V30 7973 H 693.26 2.92794 -0.254697 0
M  V30 7974 H 690.774 1.60606 -0.240712 0
M  V30 7975 H 692.771 3.59022 2.11918 0
M  V30 7976 H 691.431 2.41475 2.17072 0
M  V30 7977 H 692.442 5.17066 -0.293854 0
M  V30 7978 H 689.119 3.74059 1.85434 0
M  V30 7979 H 690.509 6.65159 -0.949365 0
M  V30 7980 N 693.229 0.160201 1.56784 0
M  V30 7981 C 694.476 -0.487588 1.96542 0
M  V30 7982 C 694.804 -1.63999 1.04569 0
M  V30 7983 O 694.059 -1.95546 0.0775211 0
M  V30 7984 C 694.358 -1.02259 3.42459 0
M  V30 7985 C 694.024 0.0127436 4.50898 0
M  V30 7986 C 692.686 0.297318 4.80281 0
M  V30 7987 C 695.038 0.716078 5.16257 0
M  V30 7988 C 692.366 1.29081 5.72324 0
M  V30 7989 C 694.718 1.69847 6.09372 0
M  V30 7990 C 693.382 1.99061 6.37127 0
M  V30 7991 H 692.652 -0.178421 0.719199 0
M  V30 7992 H 695.299 0.249818 1.89864 0
M  V30 7993 H 693.604 -1.8376 3.46034 0
M  V30 7994 H 695.301 -1.53261 3.70556 0
M  V30 7995 H 691.891 -0.219235 4.28039 0
M  V30 7996 H 696.075 0.509428 4.93679 0
M  V30 7997 H 691.331 1.52344 5.92116 0
M  V30 7998 H 695.505 2.2489 6.59088 0
M  V30 7999 H 693.132 2.76194 7.08252 0
M  V30 8000 N 694.707 -1.5719 -0.113559 0
M  V30 8001 C 695.937 -1.89053 -0.833212 0
M  V30 8002 C 696.345 -0.750139 -1.73694 0
M  V30 8003 O 695.688 0.287808 -1.81431 0
M  V30 8004 C 695.75 -3.15986 -1.71443 0
M  V30 8005 C 695.414 -4.46271 -0.984449 0
M  V30 8006 C 696.411 -5.18897 -0.322741 0
M  V30 8007 C 694.096 -4.92963 -0.964011 0
M  V30 8008 C 696.09 -6.3644 0.349646 0
M  V30 8009 C 693.777 -6.10422 -0.287828 0
M  V30 8010 C 694.775 -6.82009 0.36784 0
M  V30 8011 O 694.463 -7.97233 1.03322 0
M  V30 8012 H 694.195 -0.630225 -0.244526 0
M  V30 8013 H 696.749 -2.05152 -0.100847 0
M  V30 8014 H 694.979 -2.95984 -2.48858 0
M  V30 8015 H 696.668 -3.33826 -2.309 0
M  V30 8016 H 697.434 -4.83875 -0.330114 0
M  V30 8017 H 693.313 -4.37143 -1.46379 0
M  V30 8018 H 696.857 -6.92254 0.861996 0
M  V30 8019 H 692.754 -6.449 -0.278237 0
M  V30 8020 H 693.522 -8.13105 0.938247 0
M  V30 8021 N 696.185 0.383891 -1.52853 0
M  V30 8022 C 697.133 1.48965 -1.7864 0
M  V30 8023 C 698.127 1.56242 -0.654577 0
M  V30 8024 O 699.333 1.59347 -0.83716 0
M  V30 8025 H 695.708 0.495892 -0.565328 0
M  V30 8026 H 697.679 1.24411 -2.71228 0
M  V30 8027 C 696.428 2.86036 -1.97683 0
M  V30 8028 H 695.751 2.81188 -2.84206 0
M  V30 8029 H 697.191 3.62632 -2.19713 0
M  V30 8030 C 695.65 3.28428 -0.750776 0
M  V30 8031 O 696.18 4.0164 0.0693491 0
M  V30 8032 N 694.386 2.84765 -0.579427 0
M  V30 8033 H 693.933 2.25353 -1.24795 0
M  V30 8034 H 693.891 3.13486 0.239544 0
M  V30 8035 N 697.663 1.43903 0.642637 0
M  V30 8036 C 698.94 1.36556 1.40043 0
M  V30 8037 C 699.32 0.0185588 2.11092 0
M  V30 8038 O 698.668 -0.998438 2.05532 0
M  V30 8039 C 698.878 2.55596 2.37638 0
M  V30 8040 C 700.226 2.99153 3.01318 0
M  V30 8041 O 701.25 2.55719 2.47965 0
M  V30 8042 O 700.109 3.74427 3.98078 0
M  V30 8043 H 697.203 0.540189 0.626198 0
M  V30 8044 H 699.749 1.55971 0.668657 0
M  V30 8045 H 698.521 3.45256 1.84158 0
M  V30 8046 H 698.144 2.38334 3.18249 0
M  V30 8047 N 699.141 -0.881989 1.30609 0
M  V30 8048 C 700.071 -2.00413 1.1982 0
M  V30 8049 C 701.052 -1.69871 0.0881538 0
M  V30 8050 O 702.237 -1.92304 0.2707 0
M  V30 8051 C 699.367 -3.35641 0.89233 0
M  V30 8052 C 698.321 -3.80451 1.96064 0
M  V30 8053 C 697.647 -5.13003 1.5077 0
M  V30 8054 C 698.947 -3.98855 3.37213 0
M  V30 8055 H 700.641 -2.09698 2.13699 0
M  V30 8056 H 698.187 -1.00754 1.02882 0
M  V30 8057 H 700.14 -4.13669 0.803497 0
M  V30 8058 H 698.864 -3.26497 -0.0821381 0
M  V30 8059 H 697.523 -3.04654 2.03916 0
M  V30 8060 H 697.171 -5.0029 0.521417 0
M  V30 8061 H 696.871 -5.43956 2.22229 0
M  V30 8062 H 698.395 -5.93554 1.43271 0
M  V30 8063 H 699.809 -4.67312 3.32103 0
M  V30 8064 H 698.206 -4.41188 4.06784 0
M  V30 8065 H 699.276 -3.02614 3.78883 0
M  V30 8066 N 700.619 -1.13374 -1.09472 0
M  V30 8067 C 701.896 -0.806329 -1.78207 0
M  V30 8068 C 702.276 0.702191 -1.99079 0
M  V30 8069 O 701.624 1.63931 -1.59182 0
M  V30 8070 C 701.834 -1.59271 -3.10538 0
M  V30 8071 C 703.182 -1.78509 -3.85253 0
M  V30 8072 O 704.206 -1.55866 -3.20288 0
M  V30 8073 O 703.065 -2.16287 -5.01879 0
M  V30 8074 H 700.159 -0.29435 -0.772843 0
M  V30 8075 H 702.705 -1.23833 -1.16033 0
M  V30 8076 H 701.477 -2.61792 -2.90828 0
M  V30 8077 H 701.1 -1.15562 -3.80436 0
M  V30 8078 N 702.098 1.27442 -0.927168 0
M  V30 8079 C 703.046 2.28844 -0.416333 0
M  V30 8080 C 704.04 1.61882 0.499057 0
M  V30 8081 O 705.246 1.75969 0.378817 0
M  V30 8082 H 701.621 0.742989 -0.116065 0
M  V30 8083 H 703.592 2.69344 -1.28438 0
M  V30 8084 C 702.341 3.4626 0.316107 0
M  V30 8085 H 701.664 3.97999 -0.379082 0
M  V30 8086 H 703.104 4.19173 0.637975 0
M  V30 8087 C 701.563 3.00211 1.5289 0
M  V30 8088 O 702.093 3.03837 2.62766 0
M  V30 8089 N 700.299 2.55713 1.38054 0
M  V30 8090 H 699.846 2.52962 0.4866 0
M  V30 8091 H 699.804 2.25264 2.19325 0
M  V30 8092 N 703.576 0.692616 1.41565 0
M  V30 8093 C 704.486 0.0258451 2.34586 0
M  V30 8094 C 705.502 -0.769324 1.56069 0
M  V30 8095 O 706.678 -0.707563 1.88562 0
M  V30 8096 C 703.743 -0.901289 3.3478 0
M  V30 8097 C 702.804 -0.0986579 4.29187 0
M  V30 8098 C 702.037 -0.981634 5.24595 0
M  V30 8099 O 702.26 -2.22115 5.25377 0
M  V30 8100 O 701.194 -0.432892 6.00341 0
M  V30 8101 H 705.02 0.792537 2.93177 0
M  V30 8102 H 702.605 0.452935 1.42369 0
M  V30 8103 H 704.487 -1.43302 3.96286 0
M  V30 8104 H 703.162 -1.64752 2.78637 0
M  V30 8105 H 702.069 0.477604 3.71039 0
M  V30 8106 H 703.402 0.608848 4.8842 0
M  V30 8107 N 705.054 -1.51416 0.437162 0
M  V30 8108 C 706.301 -2.02086 -0.129364 0
M  V30 8109 C 706.629 -1.32133 -1.42728 0
M  V30 8110 O 705.884 -0.424916 -1.91031 0
M  V30 8111 C 706.183 -3.55203 -0.39564 0
M  V30 8112 C 705.849 -4.43447 0.81644 0
M  V30 8113 C 704.511 -4.67285 1.14884 0
M  V30 8114 C 706.863 -4.95219 1.62503 0
M  V30 8115 C 704.191 -5.40141 2.29052 0
M  V30 8116 C 706.543 -5.69327 2.7577 0
M  V30 8117 C 705.207 -5.91429 3.09464 0
M  V30 8118 H 704.477 -0.739486 -0.0473375 0
M  V30 8119 H 707.124 -1.82368 0.584321 0
M  V30 8120 H 705.429 -3.73252 -1.19121 0
M  V30 8121 H 707.126 -3.91944 -0.847399 0
M  V30 8122 H 703.716 -4.2509 0.547422 0
M  V30 8123 H 707.9 -4.76686 1.38144 0
M  V30 8124 H 703.156 -5.55468 2.55471 0
M  V30 8125 H 707.33 -6.08433 3.38795 0
M  V30 8126 H 704.957 -6.47662 3.98042 0
M  V30 8127 N 706.532 -0.168513 -1.56696 0
M  V30 8128 C 707.479 0.762875 -2.17828 0
M  V30 8129 C 708.449 1.22892 -1.11745 0
M  V30 8130 O 709.634 1.29759 -1.39883 0
M  V30 8131 C 706.774 1.9879 -2.82093 0
M  V30 8132 C 705.887 1.56568 -4.02629 0
M  V30 8133 C 705.022 2.74416 -4.54829 0
M  V30 8134 C 704.061 2.28671 -5.67782 0
M  V30 8135 N 703.198 3.39602 -6.14504 0
M  V30 8136 H 708.038 0.23479 -2.97074 0
M  V30 8137 H 705.575 0.104163 -1.46731 0
M  V30 8138 H 707.533 2.70636 -3.17509 0
M  V30 8139 H 706.163 2.48973 -2.05456 0
M  V30 8140 H 705.215 0.744067 -3.73052 0
M  V30 8141 H 706.527 1.18988 -4.844 0
M  V30 8142 H 705.681 3.54423 -4.92412 0
M  V30 8143 H 704.42 3.15254 -3.7211 0
M  V30 8144 H 703.425 1.4711 -5.29753 0
M  V30 8145 H 704.65 1.88894 -6.52301 0
M  V30 8146 H 702.596 3.80021 -5.34715 0
M  V30 8147 H 702.513 3.06105 -6.91257 0
M  V30 8148 H 703.781 4.19902 -6.56737 0
M  V30 8149 N 708.01 1.57248 0.105221 0
M  V30 8150 C 708.96 1.9777 1.1345 0
M  V30 8151 C 709.944 0.854654 1.36325 0
M  V30 8152 O 711.136 1.11844 1.37186 0
M  V30 8153 C 708.265 2.39717 2.45745 0
M  V30 8154 C 707.351 3.58686 2.26286 0
M  V30 8155 N 707.742 4.73942 1.76671 0
M  V30 8156 C 706.04 3.64586 2.56891 0
M  V30 8157 C 706.741 5.55923 1.71245 0
M  V30 8158 N 705.717 4.98803 2.16093 0
M  V30 8159 H 709.519 2.84336 0.743664 0
M  V30 8160 H 707.033 1.59359 0.312787 0
M  V30 8161 H 709.03 2.66971 3.20206 0
M  V30 8162 H 707.69 1.54523 2.85574 0
M  V30 8163 H 708.701 4.9689 1.46016 0
M  V30 8164 H 705.378 2.90031 3.00314 0
M  V30 8165 H 706.768 6.58398 1.34022 0
M  V30 8166 N 709.488 -0.375779 1.53054 0
M  V30 8167 C 710.737 -1.11674 1.67964 0
M  V30 8168 C 711.05 -1.90755 0.432655 0
M  V30 8169 O 712.256 -2.67538 0.462109 0
M  V30 8170 C 710.712 -2.0344 2.96884 0
M  V30 8171 C 710.32 -1.29719 4.28809 0
M  V30 8172 C 712.064 -2.7759 3.2116 0
M  V30 8173 C 709.971 -2.20327 5.48826 0
M  V30 8174 H 708.901 -0.420597 0.625791 0
M  V30 8175 H 711.552 -0.378499 1.79554 0
M  V30 8176 H 709.934 -2.80953 2.79072 0
M  V30 8177 H 711.108 -0.573394 4.57219 0
M  V30 8178 H 709.423 -0.674735 4.10897 0
M  V30 8179 H 712.02 -3.4559 4.0801 0
M  V30 8180 H 712.363 -3.42399 2.36789 0
M  V30 8181 H 712.896 -2.07164 3.396 0
M  V30 8182 H 709.635 -1.60113 6.35645 0
M  V30 8183 H 709.155 -2.90585 5.2471 0
M  V30 8184 H 710.834 -2.80116 5.83219 0
M  V30 8185 N 710.966 -1.44241 -0.634997 0
M  V30 8186 C 712.196 -1.50078 -1.41987 0
M  V30 8187 C 712.604 -0.123072 -1.88799 0
M  V30 8188 O 711.947 0.880552 -1.6122 0
M  V30 8189 C 712.009 -2.40033 -2.67628 0
M  V30 8190 C 711.673 -3.87268 -2.42637 0
M  V30 8191 C 712.67 -4.77902 -2.04708 0
M  V30 8192 C 710.355 -4.31933 -2.56396 0
M  V30 8193 C 712.349 -6.11202 -1.80862 0
M  V30 8194 C 710.036 -5.65281 -2.32164 0
M  V30 8195 C 711.034 -6.54734 -1.94455 0
M  V30 8196 O 710.722 -7.85613 -1.7049 0
M  V30 8197 H 710.454 -0.51146 -0.442023 0
M  V30 8198 H 713.008 -1.89843 -0.784138 0
M  V30 8199 H 711.238 -1.95188 -3.33824 0
M  V30 8200 H 712.927 -2.36863 -3.29622 0
M  V30 8201 H 713.693 -4.44668 -1.93638 0
M  V30 8202 H 709.572 -3.62569 -2.84719 0
M  V30 8203 H 713.116 -6.80983 -1.51353 0
M  V30 8204 H 709.013 -5.98078 -2.42843 0
M  V30 8205 H 709.781 -7.97373 -1.84767 0
M  V30 8206 N 712.444 0.87505 -1.31075 0
M  V30 8207 C 713.376 1.98773 -1.14114 0
M  V30 8208 C 714.389 1.62595 -0.0816119 0
M  V30 8209 O 715.578 1.75449 -0.32861 0
M  V30 8210 C 712.678 3.31159 -0.720224 0
M  V30 8211 C 711.851 3.9571 -1.86366 0
M  V30 8212 C 710.91 5.06407 -1.42965 0
M  V30 8213 O 709.936 5.27501 -2.13848 0
M  V30 8214 N 711.138 5.79649 -0.314194 0
M  V30 8215 H 713.903 2.1387 -2.09951 0
M  V30 8216 H 711.464 1.04873 -1.23342 0
M  V30 8217 H 713.456 4.0259 -0.412687 0
M  V30 8218 H 712.026 3.12257 0.146396 0
M  V30 8219 H 711.246 3.17324 -2.33879 0
M  V30 8220 H 712.534 4.35576 -2.62966 0
M  V30 8221 H 711.932 5.65025 0.276228 0
M  V30 8222 H 710.489 6.51766 -0.0661641 0
M  V30 8223 N 713.922 1.13953 1.08869 0
M  V30 8224 C 715.199 0.815768 1.77777 0
M  V30 8225 C 715.579 -0.691624 1.99449 0
M  V30 8226 O 714.927 -1.63085 1.60049 0
M  V30 8227 C 715.137 1.60916 3.09689 0
M  V30 8228 C 716.485 1.80549 3.84301 0
M  V30 8229 O 717.509 1.57562 3.19457 0
M  V30 8230 O 716.368 2.18946 5.00724 0
M  V30 8231 H 713.462 0.298445 0.771271 0
M  V30 8232 H 716.008 1.24446 1.15374 0
M  V30 8233 H 714.78 2.6333 2.89435 0
M  V30 8234 H 714.403 1.17578 3.79817 0
M  V30 8235 N 715.4 -1.26948 0.933913 0
M  V30 8236 C 716.332 -2.25768 0.395137 0
M  V30 8237 C 717.345 -1.55637 -0.477585 0
M  V30 8238 O 718.534 -1.76142 -0.289204 0
M  V30 8239 C 715.634 -3.35874 -0.451882 0
M  V30 8240 C 714.807 -4.3554 0.40299 0
M  V30 8241 C 713.866 -5.24809 -0.3824 0
M  V30 8242 O 712.892 -5.68805 0.212057 0
M  V30 8243 N 714.094 -5.55636 -1.68072 0
M  V30 8244 H 716.859 -2.72634 1.24463 0
M  V30 8245 H 714.42 -1.40639 0.802008 0
M  V30 8246 H 716.412 -3.92542 -0.984516 0
M  V30 8247 H 714.982 -2.8856 -1.20215 0
M  V30 8248 H 714.202 -3.78047 1.11688 0
M  V30 8249 H 715.49 -4.99131 0.987201 0
M  V30 8250 H 714.888 -5.2176 -2.18592 0
M  V30 8251 H 713.445 -6.14978 -2.15975 0
M  V30 8252 N 716.879 -0.700114 -1.41195 0
M  V30 8253 C 717.812 0.0129614 -2.28196 0
M  V30 8254 C 718.79 0.783367 -1.42486 0
M  V30 8255 O 719.974 0.773238 -1.71911 0
M  V30 8256 C 717.101 1.02575 -3.22794 0
M  V30 8257 C 716.147 0.347977 -4.25078 0
M  V30 8258 S 716.98 -0.912938 -5.27661 0
M  V30 8259 C 718.136 0.0981362 -6.25823 0
M  V30 8260 H 718.369 -0.724927 -2.88326 0
M  V30 8261 H 715.902 -0.490554 -1.464 0
M  V30 8262 H 717.86 1.60491 -3.77826 0
M  V30 8263 H 716.521 1.73624 -2.61751 0
M  V30 8264 H 715.714 1.11305 -4.91556 0
M  V30 8265 H 715.316 -0.15823 -3.73665 0
M  V30 8266 H 717.608 0.949965 -6.70807 0
M  V30 8267 H 718.551 -0.532838 -7.06092 0
M  V30 8268 H 718.959 0.454944 -5.62664 0
M  V30 8269 N 718.357 1.51182 -0.445186 0
M  V30 8270 C 719.604 2.02152 0.118645 0
M  V30 8271 C 719.932 1.32888 1.42025 0
M  V30 8272 O 719.187 0.435041 1.90803 0
M  V30 8273 C 719.486 3.55408 0.376797 0
M  V30 8274 C 719.152 4.43008 -0.839945 0
M  V30 8275 C 717.814 4.66669 -1.17361 0
M  V30 8276 C 720.166 4.9435 -1.65127 0
M  V30 8277 C 717.494 5.38919 -2.31913 0
M  V30 8278 C 719.846 5.67857 -2.78786 0
M  V30 8279 C 718.51 5.89779 -3.12597 0
M  V30 8280 H 717.78 0.739727 0.0434152 0
M  V30 8281 H 720.427 1.82055 -0.593984 0
M  V30 8282 H 718.732 3.73879 1.1714 0
M  V30 8283 H 720.429 3.92388 0.826602 0
M  V30 8284 H 717.019 4.24793 -0.569958 0
M  V30 8285 H 721.203 4.75947 -1.4067 0
M  V30 8286 H 716.459 5.54105 -2.58413 0
M  V30 8287 H 720.633 6.06628 -3.42017 0
M  V30 8288 H 718.26 6.45542 -4.01471 0
M  V30 8289 N 719.835 0.176821 1.56605 0
M  V30 8290 C 720.745 -0.763682 2.21822 0
M  V30 8291 C 721.761 -1.24889 1.21156 0
M  V30 8292 O 722.937 -1.29987 1.53836 0
M  V30 8293 C 720.002 -1.97352 2.8505 0
M  V30 8294 C 719.063 -1.53466 4.00932 0
M  V30 8295 C 718.296 -2.68682 4.61135 0
M  V30 8296 O 718.519 -3.85694 4.20234 0
M  V30 8297 O 717.453 -2.42442 5.50913 0
M  V30 8298 H 721.279 -0.238363 3.02763 0
M  V30 8299 H 718.864 -0.0516331 1.49311 0
M  V30 8300 H 720.746 -2.68096 3.25119 0
M  V30 8301 H 719.421 -2.48779 2.07101 0
M  V30 8302 H 718.328 -0.796551 3.65521 0
M  V30 8303 H 719.661 -1.06724 4.8049 0
M  V30 8304 N 721.313 -1.57302 -0.09688 0
M  V30 8305 C 722.243 -2.0497 -1.11846 0
M  V30 8306 C 723.224 -0.938278 -1.41882 0
M  V30 8307 O 724.409 -1.20943 -1.51942 0
M  V30 8308 C 721.539 -2.47264 -2.43881 0
M  V30 8309 C 720.493 -3.62053 -2.28257 0
M  V30 8310 C 719.819 -3.90318 -3.65453 0
M  V30 8311 C 721.119 -4.93005 -1.72461 0
M  V30 8312 H 722.813 -2.90567 -0.721888 0
M  V30 8313 H 720.359 -1.39786 -0.345803 0
M  V30 8314 H 722.312 -2.7922 -3.15617 0
M  V30 8315 H 721.036 -1.58664 -2.8547 0
M  V30 8316 H 719.695 -3.30341 -1.58967 0
M  V30 8317 H 719.343 -2.98889 -4.04567 0
M  V30 8318 H 719.043 -4.67597 -3.55846 0
M  V30 8319 H 720.567 -4.24747 -4.3866 0
M  V30 8320 H 721.981 -5.23354 -2.34036 0
M  V30 8321 H 720.378 -5.74436 -1.73618 0
M  V30 8322 H 721.448 -4.80053 -0.683898 0
M  V30 8323 N 722.791 0.367657 -1.53252 0
M  V30 8324 C 724.038 1.11052 -1.69333 0
M  V30 8325 C 724.366 1.89363 -0.444064 0
M  V30 8326 O 723.621 1.87094 0.573953 0
M  V30 8327 C 723.92 2.09825 -2.89324 0
M  V30 8328 C 723.586 1.4801 -4.25915 0
M  V30 8329 C 722.248 1.30879 -4.6306 0
M  V30 8330 C 724.6 1.03268 -5.10867 0
M  V30 8331 C 721.928 0.675868 -5.82794 0
M  V30 8332 C 724.28 0.41377 -6.31245 0
M  V30 8333 C 722.944 0.229939 -6.67104 0
M  V30 8334 H 722.214 0.406367 -0.619634 0
M  V30 8335 H 724.861 0.392558 -1.87433 0
M  V30 8336 H 723.166 2.87917 -2.65728 0
M  V30 8337 H 724.863 2.67252 -2.98961 0
M  V30 8338 H 721.453 1.62336 -3.96667 0
M  V30 8339 H 725.637 1.15297 -4.82722 0
M  V30 8340 H 720.893 0.521833 -6.09169 0
M  V30 8341 H 725.067 0.0588768 -6.96375 0
M  V30 8342 H 722.694 -0.262562 -7.59746 0
M  V30 8343 N 724.269 1.44576 0.627338 0
M  V30 8344 C 725.518 1.46837 1.38281 0
M  V30 8345 C 725.831 0.10635 1.95311 0
M  V30 8346 O 727.037 0.00651084 2.71499 0
M  V30 8347 C 725.493 2.58527 2.50384 0
M  V30 8348 C 725.101 4.00953 1.99851 0
M  V30 8349 C 726.845 2.70013 3.27557 0
M  V30 8350 C 724.752 5.0406 3.09318 0
M  V30 8351 H 723.682 0.546319 0.519664 0
M  V30 8352 H 726.333 1.70654 0.674497 0
M  V30 8353 H 724.715 2.27957 3.23808 0
M  V30 8354 H 725.889 4.41108 1.33267 0
M  V30 8355 H 724.204 3.93743 1.35482 0
M  V30 8356 H 726.801 3.44217 4.09168 0
M  V30 8357 H 727.144 1.75961 3.77284 0
M  V30 8358 H 727.677 3.00011 2.61224 0
M  V30 8359 H 724.416 5.99753 2.6453 0
M  V30 8360 H 723.936 4.68493 3.74532 0
M  V30 8361 H 725.615 5.2793 3.74031 0
M  V30 8362 N 725.747 -0.868086 1.31537 0
M  V30 8363 C 726.679 -1.98165 1.15166 0
M  V30 8364 C 727.692 -1.6255 0.0902335 0
M  V30 8365 O 728.881 -1.75272 0.33791 0
M  V30 8366 C 725.981 -3.30772 0.737776 0
M  V30 8367 C 725.154 -3.94716 1.88462 0
M  V30 8368 C 724.213 -5.05641 1.45648 0
M  V30 8369 O 723.239 -5.2636 2.16642 0
M  V30 8370 N 724.441 -5.79474 0.34493 0
M  V30 8371 H 727.206 -2.12754 2.11083 0
M  V30 8372 H 724.767 -1.04217 1.23897 0
M  V30 8373 H 726.759 -4.02366 0.434032 0
M  V30 8374 H 725.329 -3.1233 -0.129834 0
M  V30 8375 H 724.549 -3.16079 2.35558 0
M  V30 8376 H 725.837 -4.34175 2.65273 0
M  V30 8377 H 725.235 -5.65164 -0.246259 0
M  V30 8378 H 723.792 -6.51722 0.100728 0
M  V30 8379 N 727.225 -1.14528 -1.08264 0
M  V30 8380 C 728.172 -0.833556 -2.15222 0
M  V30 8381 C 729.142 0.209539 -1.64773 0
M  V30 8382 O 730.327 0.0791388 -1.90636 0
M  V30 8383 C 727.467 -0.318799 -3.43624 0
M  V30 8384 C 726.58 -1.42237 -4.07913 0
M  V30 8385 C 725.715 -0.864704 -5.24115 0
M  V30 8386 C 724.754 -1.94585 -5.80347 0
M  V30 8387 N 723.891 -1.40525 -6.87893 0
M  V30 8388 H 728.731 -1.74965 -2.41228 0
M  V30 8389 H 726.268 -0.873169 -1.18381 0
M  V30 8390 H 728.226 -0.00213088 -4.172 0
M  V30 8391 H 726.856 0.560397 -3.17898 0
M  V30 8392 H 725.908 -1.8554 -3.32083 0
M  V30 8393 H 727.22 -2.23901 -4.45724 0
M  V30 8394 H 726.374 -0.500025 -6.04636 0
M  V30 8395 H 725.113 -0.0171219 -4.87697 0
M  V30 8396 H 724.118 -2.31946 -4.98479 0
M  V30 8397 H 725.343 -2.79704 -6.18823 0
M  V30 8398 H 723.289 -0.579873 -6.53432 0
M  V30 8399 H 723.206 -2.15825 -7.24538 0
M  V30 8400 H 724.474 -1.06852 -7.72142 0
M  V30 8401 N 728.703 1.26451 -0.940633 0
M  V30 8402 C 729.952 1.93071 -0.583656 0
M  V30 8403 C 730.265 1.74618 0.881366 0
M  V30 8404 O 731.471 2.35689 1.34769 0
M  V30 8405 C 729.927 3.45927 -0.993106 0
M  V30 8406 C 729.535 3.73115 -2.4797 0
M  V30 8407 C 731.279 4.18554 -0.707998 0
M  V30 8408 C 729.186 5.19408 -2.82788 0
M  V30 8409 H 728.116 0.722824 -0.214572 0
M  V30 8410 H 730.767 1.43538 -1.1432 0
M  V30 8411 H 729.149 3.94341 -0.362099 0
M  V30 8412 H 730.323 3.35408 -3.15971 0
M  V30 8413 H 728.638 3.13719 -2.73805 0
M  V30 8414 H 731.235 5.26293 -0.94447 0
M  V30 8415 H 731.578 4.14782 0.355225 0
M  V30 8416 H 732.111 3.76003 -1.2987 0
M  V30 8417 H 728.85 5.28281 -3.88071 0
M  V30 8418 H 728.37 5.58214 -2.19449 0
M  V30 8419 H 730.049 5.87407 -2.71224 0
M  V30 8420 N 730.181 0.707592 1.40822 0
M  V30 8421 C 731.406 0.251626 2.05868 0
M  V30 8422 C 731.831 -1.09503 1.5294 0
M  V30 8423 O 731.189 -1.68806 0.661385 0
M  V30 8424 C 731.237 0.23287 3.59847 0
M  V30 8425 O 730.341 -0.788477 4.04792 0
M  V30 8426 H 729.682 0.119936 0.653078 0
M  V30 8427 H 732.212 0.96583 1.80369 0
M  V30 8428 H 732.222 0.0678204 4.07944 0
M  V30 8429 H 730.897 1.21565 3.97737 0
M  V30 8430 H 729.474 -0.591802 3.68174 0
M  V30 8431 N 731.66 -1.50943 0.453197 0
M  V30 8432 C 732.885 -2.07116 -0.108463 0
M  V30 8433 C 733.31 -1.31681 -1.3432 0
M  V30 8434 O 732.668 -0.359256 -1.77705 0
M  V30 8435 C 732.716 -3.58447 -0.393424 0
M  V30 8436 O 731.82 -3.85038 -1.47714 0
M  V30 8437 H 731.161 -0.66398 0.0050993 0
M  V30 8438 H 733.691 -1.94362 0.639095 0
M  V30 8439 H 733.701 -4.02961 -0.639222 0
M  V30 8440 H 732.376 -4.12774 0.508946 0
M  V30 8441 H 730.953 -3.52376 -1.22006 0
M  V30 8442 N 733.138 -0.185124 -1.56509 0
M  V30 8443 C 734.415 0.503348 -1.89013 0
M  V30 8444 C 734.795 1.80349 -1.09715 0
M  V30 8445 O 734.143 2.27665 -0.195203 0
M  V30 8446 C 734.353 0.731839 -3.41241 0
M  V30 8447 C 735.701 1.05568 -4.11267 0
M  V30 8448 O 736.725 0.819906 -3.46635 0
M  V30 8449 O 735.584 1.50116 -5.25478 0
M  V30 8450 H 732.678 0.261139 -0.784688 0
M  V30 8451 H 735.224 -0.224592 -1.68207 0
M  V30 8452 H 733.996 -0.18672 -3.90854 0
M  V30 8453 H 733.619 1.5126 -3.67704 0
M  V30 8454 N 734.616 1.57351 0.0885366 0
M  V30 8455 C 735.865 1.85604 0.789556 0
M  V30 8456 C 736.178 0.775352 1.79576 0
M  V30 8457 O 737.384 0.945206 2.54515 0
M  V30 8458 C 735.84 3.29175 1.45506 0
M  V30 8459 C 735.448 4.45331 0.488278 0
M  V30 8460 C 737.192 3.66646 2.13942 0
M  V30 8461 C 735.099 5.79937 1.15874 0
M  V30 8462 H 734.029 0.692346 0.298619 0
M  V30 8463 H 736.68 1.83451 0.0425821 0
M  V30 8464 H 735.062 3.25889 2.24972 0
M  V30 8465 H 736.236 4.59977 -0.275359 0
M  V30 8466 H 734.551 4.16301 -0.0907363 0
M  V30 8467 H 737.148 4.64498 2.6485 0
M  V30 8468 H 737.491 2.956 2.93132 0
M  V30 8469 H 738.024 3.71848 1.41328 0
M  V30 8470 H 734.763 6.54232 0.407508 0
M  V30 8471 H 734.283 5.69123 1.89364 0
M  V30 8472 H 735.962 6.24718 1.68336 0
M  V30 8473 N 736.094 -0.359525 1.53444 0
M  V30 8474 C 737.34 -1.10315 1.70172 0
M  V30 8475 C 737.673 -1.88788 0.455287 0
M  V30 8476 O 736.948 -1.86635 -0.547514 0
M  V30 8477 C 737.231 -2.05744 2.95536 0
M  V30 8478 C 737.084 -1.3084 4.3035 0
M  V30 8479 C 738.403 -3.05784 3.16518 0
M  V30 8480 H 735.522 -0.399662 0.619225 0
M  V30 8481 H 738.164 -0.383338 1.86093 0
M  V30 8482 H 736.314 -2.67125 2.82093 0
M  V30 8483 H 737.986 -0.721959 4.55615 0
M  V30 8484 H 736.229 -0.610283 4.29486 0
M  V30 8485 H 736.9 -2.00718 5.14214 0
M  V30 8486 H 739.376 -2.5451 3.29187 0
M  V30 8487 H 738.252 -3.69772 4.05659 0
M  V30 8488 H 738.513 -3.76289 2.32076 0
M  V30 8489 N 737.572 -1.44907 -0.619662 0
M  V30 8490 C 738.988 -1.29046 -0.939107 0
M  V30 8491 C 739.188 -0.23462 -2.00129 0
M  V30 8492 O 738.244 0.37558 -2.49691 0
M  V30 8493 C 739.557 -2.66567 -1.39149 0
M  V30 8494 C 741.105 -2.74368 -1.50635 0
M  V30 8495 C 741.58 -4.12386 -1.99253 0
M  V30 8496 N 743.071 -4.1462 -2.06506 0
M  V30 8497 C 743.806 -5.18272 -2.4532 0
M  V30 8498 N 743.302 -6.32278 -2.83189 0
M  V30 8499 N 745.095 -5.05628 -2.45554 0
M  V30 8500 H 737.246 -2.12239 0.0826135 0
M  V30 8501 H 739.509 -0.947652 -0.0256829 0
M  V30 8502 H 739.215 -3.4496 -0.685254 0
M  V30 8503 H 739.089 -2.94224 -2.36034 0
M  V30 8504 H 741.476 -1.96287 -2.20353 0
M  V30 8505 H 741.557 -2.50439 -0.520963 0
M  V30 8506 H 741.201 -4.90947 -1.30127 0
M  V30 8507 H 741.131 -4.33699 -2.98684 0
M  V30 8508 H 743.622 -3.32343 -1.79878 0
M  V30 8509 H 743.935 -7.07172 -3.11652 0
M  V30 8510 H 742.28 -6.35699 -2.80913 0
M  V30 8511 H 745.471 -4.15613 -2.15367 0
M  V30 8512 H 745.644 -5.86529 -2.75478 0
M  V30 8513 N 739.05 0.861098 -1.31996 0
M  V30 8514 C 739.997 1.96912 -1.20392 0
M  V30 8515 C 740.967 1.65869 -0.0875899 0
M  V30 8516 O 742.152 1.88992 -0.262011 0
M  V30 8517 C 739.292 3.32435 -0.926335 0
M  V30 8518 C 738.405 3.76018 -2.12684 0
M  V30 8519 C 737.54 5.00301 -1.78529 0
M  V30 8520 C 736.579 5.36357 -2.94937 0
M  V30 8521 N 735.716 6.51818 -2.60917 0
M  V30 8522 H 740.556 2.06169 -2.1517 0
M  V30 8523 H 738.093 1.00917 -1.07024 0
M  V30 8524 H 740.051 4.10478 -0.745917 0
M  V30 8525 H 738.681 3.22796 -0.0153578 0
M  V30 8526 H 737.733 2.93683 -2.41774 0
M  V30 8527 H 739.045 3.98664 -2.99781 0
M  V30 8528 H 738.199 5.86034 -1.57001 0
M  V30 8529 H 736.938 4.79578 -0.886356 0
M  V30 8530 H 735.943 4.49139 -3.17103 0
M  V30 8531 H 737.168 5.59041 -3.85552 0
M  V30 8532 H 735.114 6.32624 -1.73558 0
M  V30 8533 H 735.031 6.7445 -3.41544 0
M  V30 8534 H 736.299 7.4072 -2.42804 0
M  V30 8535 N 740.528 1.15101 1.07655 0
M  V30 8536 C 741.939 0.933848 1.61667 0
M  V30 8537 C 742.29 -0.525569 1.8903 0
M  V30 8538 O 741.415 -1.39605 1.65346 0
M  V30 8539 C 742.01 1.68876 2.93711 0
M  V30 8540 C 740.569 1.51697 3.44478 0
M  V30 8541 C 739.716 1.70633 2.18586 0
M  V30 8542 H 742.667 1.30171 0.907816 0
M  V30 8543 H 742.688 1.15645 3.625 0
M  V30 8544 H 742.2 2.7509 2.73764 0
M  V30 8545 H 740.301 0.478635 3.69513 0
M  V30 8546 H 740.414 2.29194 4.20722 0
M  V30 8547 H 738.778 1.13259 2.28132 0
M  V30 8548 H 739.561 2.78206 2.01137 0
M  V30 8549 N 742.006 -1.2595 0.947325 0
M  V30 8550 C 743.253 -1.93463 0.598178 0
M  V30 8551 C 743.581 -1.74271 -0.863705 0
M  V30 8552 O 742.836 -1.07684 -1.63409 0
M  V30 8553 C 743.135 -3.46034 0.894158 0
M  V30 8554 C 742.801 -3.85373 2.3409 0
M  V30 8555 C 741.463 -3.95823 2.73637 0
M  V30 8556 C 743.815 -4.04986 3.2808 0
M  V30 8557 C 741.143 -4.23288 4.06257 0
M  V30 8558 C 743.495 -4.3394 4.60303 0
M  V30 8559 C 742.159 -4.42606 4.99656 0
M  V30 8560 H 741.429 -0.707933 0.218889 0
M  V30 8561 H 744.076 -1.4964 1.19499 0
M  V30 8562 H 742.381 -3.9121 0.214874 0
M  V30 8563 H 744.078 -3.96445 0.602698 0
M  V30 8564 H 740.668 -3.7779 2.02417 0
M  V30 8565 H 744.852 -3.96333 2.9872 0
M  V30 8566 H 740.108 -4.28211 4.36401 0
M  V30 8567 H 744.282 -4.48061 5.33118 0
M  V30 8568 H 741.909 -4.63641 6.02446 0
M  V30 8569 N 743.484 -0.715051 -1.40445 0
M  V30 8570 C 744.733 -0.251322 -2.00128 0
M  V30 8571 C 745.046 1.16194 -1.57347 0
M  V30 8572 O 746.252 1.72416 -2.09726 0
M  V30 8573 C 744.708 -0.398407 -3.57688 0
M  V30 8574 C 744.316 -1.81828 -4.09442 0
M  V30 8575 C 746.06 0.00455625 -4.245 0
M  V30 8576 C 743.967 -1.91598 -5.59503 0
M  V30 8577 H 742.897 -0.0902081 -0.748584 0
M  V30 8578 H 745.548 -0.886062 -1.6069 0
M  V30 8579 H 743.93 0.304908 -3.94824 0
M  V30 8580 H 745.104 -2.55193 -3.83684 0
M  V30 8581 H 743.419 -2.17266 -3.55225 0
M  V30 8582 H 746.016 -0.0477303 -5.34679 0
M  V30 8583 H 746.359 1.04636 -4.02935 0
M  V30 8584 H 746.892 -0.649184 -3.92467 0
M  V30 8585 H 743.631 -2.93898 -5.85922 0
M  V30 8586 H 743.151 -1.22644 -5.87127 0
M  V30 8587 H 744.83 -1.68785 -6.24596 0
M  V30 8588 N 744.962 1.50701 -0.461195 0
M  V30 8589 C 745.909 2.2831 0.338094 0
M  V30 8590 C 746.879 1.32928 0.995957 0
M  V30 8591 O 748.064 1.61857 1.0103 0
M  V30 8592 C 745.204 3.14539 1.41983 0
M  V30 8593 C 744.317 4.24942 0.77773 0
M  V30 8594 C 743.452 4.98443 1.83652 0
M  V30 8595 C 742.491 6.00733 1.17413 0
M  V30 8596 N 741.628 6.6755 2.17533 0
M  V30 8597 H 746.468 2.96167 -0.330051 0
M  V30 8598 H 744.005 1.4606 -0.174611 0
M  V30 8599 H 745.963 3.62877 2.05855 0
M  V30 8600 H 744.593 2.48749 2.05727 0
M  V30 8601 H 743.645 3.80391 0.0266924 0
M  V30 8602 H 744.957 4.98151 0.254362 0
M  V30 8603 H 744.111 5.50449 2.55129 0
M  V30 8604 H 742.85 4.24917 2.39367 0
M  V30 8605 H 741.855 5.47997 0.444944 0
M  V30 8606 H 743.08 6.76227 0.624006 0
M  V30 8607 H 741.026 5.96823 2.72284 0
M  V30 8608 H 740.943 7.36603 1.70154 0
M  V30 8609 H 742.211 7.24178 2.88421 0
M  V30 8610 N 746.441 0.193421 1.56409 0
M  V30 8611 C 747.857 -0.162447 1.58771 0
M  V30 8612 C 748.057 -1.6116 1.20954 0
M  V30 8613 O 747.113 -2.3469 0.931497 0
M  V30 8614 C 748.426 0.138391 3.00381 0
M  V30 8615 C 749.974 0.0783649 3.12902 0
M  V30 8616 C 750.449 0.352491 4.56642 0
M  V30 8617 N 751.94 0.30105 4.62221 0
M  V30 8618 C 752.675 0.487028 5.71328 0
M  V30 8619 N 752.171 0.733265 6.88909 0
M  V30 8620 N 753.964 0.4214 5.60518 0
M  V30 8621 H 746.115 1.13909 1.79272 0
M  V30 8622 H 748.378 0.454528 0.83193 0
M  V30 8623 H 748.084 1.14312 3.32604 0
M  V30 8624 H 747.958 -0.559804 3.73023 0
M  V30 8625 H 750.345 -0.916963 2.80492 0
M  V30 8626 H 750.426 0.809611 2.4265 0
M  V30 8627 H 750.07 1.34513 4.89764 0
M  V30 8628 H 750 -0.399624 5.25081 0
M  V30 8629 H 752.491 0.117279 3.77718 0
M  V30 8630 H 752.804 0.86403 7.67955 0
M  V30 8631 H 751.149 0.770138 6.9072 0
M  V30 8632 H 754.34 0.229461 4.67537 0
M  V30 8633 H 754.513 0.569758 6.4549 0
M  V30 8634 N 747.919 -1.57396 -0.0801906 0
M  V30 8635 C 748.867 -2.04136 -1.11495 0
M  V30 8636 C 749.861 -0.945137 -1.40583 0
M  V30 8637 O 751.067 -1.13028 -1.40088 0
M  V30 8638 H 747.442 -0.65076 -0.37685 0
M  V30 8639 H 749.413 -2.90205 -0.694526 0
M  V30 8640 C 748.162 -2.49399 -2.42272 0
M  V30 8641 H 747.485 -3.33339 -2.20737 0
M  V30 8642 H 748.925 -2.85864 -3.13142 0
M  V30 8643 C 747.384 -1.37341 -3.07635 0
M  V30 8644 O 747.914 -0.710829 -3.95361 0
M  V30 8645 N 746.12 -1.12064 -2.68123 0
M  V30 8646 H 745.667 -1.66126 -1.96875 0
M  V30 8647 H 745.625 -0.372916 -3.12181 0
M  V30 8648 N 749.397 0.351382 -1.53633 0
M  V30 8649 C 750.646 1.08988 -1.69719 0
M  V30 8650 C 750.959 1.90043 -0.462948 0
M  V30 8651 O 752.165 2.66769 -0.504613 0
M  V30 8652 C 750.621 1.98691 -3.00083 0
M  V30 8653 C 750.229 1.22881 -4.30818 0
M  V30 8654 C 751.973 2.72446 -3.25536 0
M  V30 8655 C 749.88 2.11568 -5.52262 0
M  V30 8656 H 748.81 0.410588 -0.632403 0
M  V30 8657 H 751.461 0.349886 -1.80133 0
M  V30 8658 H 749.843 2.76478 -2.83506 0
M  V30 8659 H 751.017 0.500582 -4.58073 0
M  V30 8660 H 749.332 0.60928 -4.11918 0
M  V30 8661 H 751.929 3.39055 -4.13456 0
M  V30 8662 H 752.272 3.38588 -2.42206 0
M  V30 8663 H 752.805 2.01735 -3.42852 0
M  V30 8664 H 749.544 1.4998 -6.38111 0
M  V30 8665 H 749.064 2.82201 -5.29266 0
M  V30 8666 H 750.743 2.70802 -5.87601 0
M  V30 8667 N 750.875 1.45233 0.611969 0
M  V30 8668 C 752.123 1.48727 1.36838 0
M  V30 8669 C 752.444 0.128616 1.94575 0
M  V30 8670 O 751.714 -0.84149 1.76906 0
M  V30 8671 H 750.294 0.547695 0.507976 0
M  V30 8672 H 752.956 1.81156 0.718925 0
M  V30 8673 H 752.052 2.2236 2.19003 0
M  V30 8674 N 752.353 -0.854086 1.3245 0
M  V30 8675 C 753.769 -1.14238 1.11453 0
M  V30 8676 C 753.969 -2.01228 -0.10461 0
M  V30 8677 O 753.025 -2.39845 -0.789339 0
M  V30 8678 C 754.338 -1.81916 2.39431 0
M  V30 8679 C 755.886 -1.94549 2.45193 0
M  V30 8680 C 756.361 -2.65642 3.73093 0
M  V30 8681 N 757.852 -2.73167 3.74078 0
M  V30 8682 C 758.587 -3.28828 4.69744 0
M  V30 8683 N 758.083 -3.85295 5.75778 0
M  V30 8684 N 759.876 -3.26936 4.57241 0
M  V30 8685 H 752.027 -0.274786 2.10615 0
M  V30 8686 H 754.29 -0.184375 0.929898 0
M  V30 8687 H 753.996 -1.25452 3.28565 0
M  V30 8688 H 753.87 -2.82068 2.50434 0
M  V30 8689 H 756.257 -2.50172 1.56518 0
M  V30 8690 H 756.338 -0.933914 2.38142 0
M  V30 8691 H 755.982 -2.10683 4.62142 0
M  V30 8692 H 755.912 -3.6724 3.77415 0
M  V30 8693 H 758.403 -2.33108 2.97438 0
M  V30 8694 H 758.716 -4.25925 6.44832 0
M  V30 8695 H 757.061 -3.83625 5.79531 0
M  V30 8696 H 760.252 -2.8207 3.7357 0
M  V30 8697 H 760.425 -3.70014 5.31971 0
M  V30 8698 N 753.831 -1.1567 -1.07043 0
M  V30 8699 C 755.08 -0.928039 -1.79082 0
M  V30 8700 C 755.393 0.545968 -1.87826 0
M  V30 8701 O 756.599 0.892308 -2.56418 0
M  V30 8702 C 755.055 -1.61103 -3.21829 0
M  V30 8703 C 754.663 -3.12228 -3.21275 0
M  V30 8704 C 756.407 -1.46404 -3.98455 0
M  V30 8705 C 754.314 -3.733 -4.58695 0
M  V30 8706 H 753.244 -0.34357 -0.671175 0
M  V30 8707 H 755.895 -1.38718 -1.20123 0
M  V30 8708 H 754.277 -1.07958 -3.81 0
M  V30 8709 H 755.451 -3.72155 -2.71731 0
M  V30 8710 H 753.766 -3.26725 -2.58147 0
M  V30 8711 H 756.363 -1.8942 -5.00024 0
M  V30 8712 H 756.706 -0.41195 -4.14257 0
M  V30 8713 H 757.239 -1.96663 -3.45787 0
M  V30 8714 H 753.978 -4.78423 -4.48098 0
M  V30 8715 H 753.498 -3.18157 -5.08465 0
M  V30 8716 H 755.177 -3.7441 -5.27661 0
M  V30 8717 N 755.309 1.25446 -0.953992 0
M  V30 8718 C 756.586 1.884 -0.525823 0
M  V30 8719 C 756.966 1.86079 0.996891 0
M  V30 8720 O 756.314 1.32389 1.8624 0
M  V30 8721 C 756.524 3.31154 -1.10172 0
M  V30 8722 C 757.872 4.07926 -1.17819 0
M  V30 8723 O 758.896 3.40273 -1.05323 0
M  V30 8724 O 757.755 5.28942 -1.37415 0
M  V30 8725 H 754.849 0.808629 -0.173345 0
M  V30 8726 H 757.395 1.33522 -1.04738 0
M  V30 8727 H 756.167 3.27271 -2.14499 0
M  V30 8728 H 755.79 3.93588 -0.56338 0
M  V30 8729 N 756.787 0.722489 1.40064 0
M  V30 8730 C 757.734 0.0743738 2.3068 0
M  V30 8731 C 758.704 -0.743004 1.48555 0
M  V30 8732 O 759.889 -0.705536 1.77276 0
M  V30 8733 C 757.029 -0.836292 3.34814 0
M  V30 8734 C 756.142 -0.00764663 4.31999 0
M  V30 8735 C 755.277 -0.918428 5.232 0
M  V30 8736 C 754.316 -0.0842838 6.12042 0
M  V30 8737 N 753.453 -0.950316 6.95639 0
M  V30 8738 H 758.293 0.852794 2.85537 0
M  V30 8739 H 755.83 0.432222 1.40607 0
M  V30 8740 H 757.788 -1.3786 3.93765 0
M  V30 8741 H 756.418 -1.58082 2.81443 0
M  V30 8742 H 755.47 0.651928 3.74772 0
M  V30 8743 H 756.782 0.63786 4.94705 0
M  V30 8744 H 755.936 -1.52902 5.87116 0
M  V30 8745 H 754.675 -1.59774 4.60786 0
M  V30 8746 H 753.68 0.5392 5.4715 0
M  V30 8747 H 754.905 0.591628 6.76518 0
M  V30 8748 H 752.851 -1.61515 6.35806 0
M  V30 8749 H 752.768 -0.361004 7.55138 0
M  V30 8750 H 754.036 -1.54687 7.63997 0
M  V30 8751 N 758.265 -1.50454 0.469181 0
M  V30 8752 C 759.513 -2.01916 -0.0862982 0
M  V30 8753 C 759.834 -1.35337 -1.40388 0
M  V30 8754 O 759.104 -0.498096 -1.89462 0
M  V30 8755 H 757.684 -0.746185 -0.0348825 0
M  V30 8756 H 760.346 -1.84804 0.619167 0
M  V30 8757 H 759.442 -3.11182 -0.239189 0
M  V30 8758 N 759.743 -0.201713 -1.56304 0
M  V30 8759 C 760.968 0.443815 -2.02596 0
M  V30 8760 C 761.393 1.53945 -1.08086 0
M  V30 8761 O 760.751 1.81182 -0.0655056 0
M  V30 8762 C 760.799 0.971066 -3.47279 0
M  V30 8763 O 759.903 2.0836 -3.55893 0
M  V30 8764 H 759.244 0.10294 -0.655972 0
M  V30 8765 H 761.774 -0.314533 -2.02168 0
M  V30 8766 H 761.784 1.28598 -3.87204 0
M  V30 8767 H 760.459 0.169048 -4.15556 0
M  V30 8768 H 759.036 1.77683 -3.27846 0
M  V30 8769 N 761.222 1.57436 0.0718424 0
M  V30 8770 C 762.471 1.86431 0.769826 0
M  V30 8771 C 762.784 0.794355 1.78744 0
M  V30 8772 O 763.99 0.972148 2.53499 0
M  V30 8773 C 762.446 3.307 1.42006 0
M  V30 8774 C 762.054 4.45824 0.441017 0
M  V30 8775 C 763.798 3.68894 2.10041 0
M  V30 8776 C 761.705 5.81134 1.09717 0
M  V30 8777 H 760.635 0.695474 0.291259 0
M  V30 8778 H 763.286 1.83485 0.0231224 0
M  V30 8779 H 761.668 3.28257 2.21502 0
M  V30 8780 H 762.842 4.59659 -0.32413 0
M  V30 8781 H 761.157 4.16181 -0.134886 0
M  V30 8782 H 763.754 4.67281 2.59908 0
M  V30 8783 H 764.097 2.98692 2.89981 0
M  V30 8784 H 764.63 3.73326 1.37376 0
M  V30 8785 H 761.369 6.54628 0.338095 0
M  V30 8786 H 760.889 5.711 1.83317 0
M  V30 8787 H 762.568 6.26468 1.617 0
M  V30 8788 N 762.7 -0.34323 1.53817 0
M  V30 8789 C 763.61 -1.44493 1.84821 0
M  V30 8790 C 764.626 -1.57556 0.738381 0
M  V30 8791 O 765.802 -1.73026 1.03072 0
M  V30 8792 C 762.867 -2.79478 2.05166 0
M  V30 8793 C 761.928 -2.75756 3.29025 0
M  V30 8794 C 761.161 -4.04302 3.4839 0
M  V30 8795 O 761.384 -5.01595 2.71586 0
M  V30 8796 O 760.318 -4.08754 4.41819 0
M  V30 8797 H 764.144 -1.21209 2.78464 0
M  V30 8798 H 761.729 -0.535437 1.39476 0
M  V30 8799 H 763.611 -3.59419 2.19991 0
M  V30 8800 H 762.286 -3.02692 1.14713 0
M  V30 8801 H 761.193 -1.94434 3.19603 0
M  V30 8802 H 762.526 -2.57495 4.19472 0
M  V30 8803 N 764.178 -1.45556 -0.604258 0
M  V30 8804 C 765.108 -1.57327 -1.72541 0
M  V30 8805 C 766.089 -0.424637 -1.64714 0
M  V30 8806 O 767.274 -0.648196 -1.83063 0
M  V30 8807 C 764.404 -1.54279 -3.11152 0
M  V30 8808 C 763.358 -2.67893 -3.33792 0
M  V30 8809 C 762.684 -2.499 -4.72709 0
M  V30 8810 C 763.984 -4.0988 -3.23722 0
M  V30 8811 H 765.678 -2.51175 -1.62947 0
M  V30 8812 H 763.224 -1.20884 -0.782504 0
M  V30 8813 H 765.177 -1.6111 -3.89386 0
M  V30 8814 H 763.901 -0.569627 -3.21594 0
M  V30 8815 H 762.56 -2.60495 -2.57949 0
M  V30 8816 H 762.208 -1.50715 -4.79889 0
M  V30 8817 H 761.908 -3.26091 -4.88813 0
M  V30 8818 H 763.432 -2.5859 -5.5314 0
M  V30 8819 H 764.846 -4.18503 -3.91826 0
M  V30 8820 H 763.243 -4.86487 -3.51355 0
M  V30 8821 H 764.313 -4.31553 -2.21111 0
M  V30 8822 N 765.656 0.84705 -1.32902 0
M  V30 8823 C 766.884 1.63403 -1.26913 0
M  V30 8824 C 767.299 1.88108 0.161483 0
M  V30 8825 O 766.656 1.45546 1.10103 0
M  V30 8826 C 766.707 2.98896 -2.03331 0
M  V30 8827 O 766.428 2.75281 -3.40811 0
M  V30 8828 C 767.929 3.93335 -2.04457 0
M  V30 8829 H 765.149 0.508701 -0.437566 0
M  V30 8830 H 767.693 1.05567 -1.75145 0
M  V30 8831 H 765.848 3.53356 -1.58802 0
M  V30 8832 H 766.262 3.61504 -3.8002 0
M  V30 8833 H 767.736 4.85647 -2.62394 0
M  V30 8834 H 768.213 4.26885 -1.03274 0
M  V30 8835 H 768.819 3.44812 -2.48967 0
M  V30 8836 N 767.134 1.16236 1.06428 0
M  V30 8837 C 768.064 0.890807 2.1584 0
M  V30 8838 C 769.045 -0.162333 1.69324 0
M  V30 8839 O 770.23 -0.0147191 1.94194 0
M  V30 8840 C 767.36 0.389615 3.45108 0
M  V30 8841 C 766.314 1.38051 4.05125 0
M  V30 8842 C 765.64 0.737773 5.29586 0
M  V30 8843 C 766.94 2.74965 4.44062 0
M  V30 8844 H 768.634 1.80577 2.38814 0
M  V30 8845 H 766.18 0.869657 1.14774 0
M  V30 8846 H 768.133 0.187127 4.20984 0
M  V30 8847 H 766.857 -0.560851 3.21748 0
M  V30 8848 H 765.516 1.56952 3.31303 0
M  V30 8849 H 765.164 -0.219135 5.02522 0
M  V30 8850 H 764.864 1.39914 5.70699 0
M  V30 8851 H 766.388 0.545275 6.0816 0
M  V30 8852 H 767.802 2.59855 5.11027 0
M  V30 8853 H 766.199 3.37563 4.96156 0
M  V30 8854 H 767.269 3.30321 3.54987 0
M  V30 8855 N 768.612 -1.24939 0.960631 0
M  V30 8856 C 769.575 -2.239 0.49006 0
M  V30 8857 C 770.575 -1.55497 -0.409535 0
M  V30 8858 O 771.765 -1.72978 -0.205984 0
M  V30 8859 C 768.897 -3.39654 -0.291193 0
M  V30 8860 H 770.09 -2.67044 1.36482 0
M  V30 8861 H 767.643 -1.37429 0.744505 0
M  V30 8862 H 768.378 -3.01939 -1.18336 0
M  V30 8863 H 768.163 -3.90496 0.354276 0
M  V30 8864 H 769.653 -4.13125 -0.609693 0
M  V30 8865 N 770.09 -0.729906 -1.39679 0
M  V30 8866 C 771.02 -0.101618 -2.33279 0
M  V30 8867 C 772.001 0.729854 -1.53646 0
M  V30 8868 O 773.186 0.67587 -1.82059 0
M  V30 8869 C 770.316 0.81024 -3.37716 0
M  V30 8870 C 769.27 0.0833126 -4.27919 0
M  V30 8871 C 768.596 1.11185 -5.23012 0
M  V30 8872 C 769.896 -1.07107 -5.112 0
M  V30 8873 H 771.59 -0.883452 -2.86069 0
M  V30 8874 H 769.136 -0.426283 -1.37546 0
M  V30 8875 H 771.089 1.25927 -4.02145 0
M  V30 8876 H 769.813 1.62413 -2.83354 0
M  V30 8877 H 768.472 -0.346043 -3.64963 0
M  V30 8878 H 768.12 1.91917 -4.64948 0
M  V30 8879 H 767.82 0.63026 -5.8421 0
M  V30 8880 H 769.344 1.56068 -5.90318 0
M  V30 8881 H 770.758 -0.700726 -5.69002 0
M  V30 8882 H 769.155 -1.48196 -5.81514 0
M  V30 8883 H 770.225 -1.89513 -4.46332 0
M  V30 8884 N 771.568 1.50203 -0.477153 0
M  V30 8885 C 772.817 2.01551 0.0774548 0
M  V30 8886 C 773.13 1.36359 1.40234 0
M  V30 8887 O 774.336 1.78898 2.04225 0
M  V30 8888 C 772.792 3.59406 0.188539 0
M  V30 8889 C 772.4 4.3356 -1.12828 0
M  V30 8890 C 774.144 4.18776 0.694782 0
M  V30 8891 C 772.051 5.83213 -0.98066 0
M  V30 8892 H 770.981 0.75329 0.0327212 0
M  V30 8893 H 773.632 1.72959 -0.612969 0
M  V30 8894 H 772.014 3.84611 0.942881 0
M  V30 8895 H 773.188 4.20074 -1.89405 0
M  V30 8896 H 771.503 3.85827 -1.5661 0
M  V30 8897 H 774.1 5.28338 0.822356 0
M  V30 8898 H 774.443 3.80557 1.68766 0
M  V30 8899 H 774.976 3.978 -0.00234519 0
M  V30 8900 H 771.715 6.25914 -1.94709 0
M  V30 8901 H 771.235 5.99256 -0.255375 0
M  V30 8902 H 772.914 6.4373 -0.649717 0
M  V30 8903 N 773.046 0.209999 1.56195 0
M  V30 8904 C 773.993 -0.704854 2.19774 0
M  V30 8905 C 774.963 -1.19886 1.14964 0
M  V30 8906 O 776.148 -1.26005 1.43274 0
M  V30 8907 C 773.288 -1.91241 2.87265 0
M  V30 8908 C 772.401 -1.45838 4.06639 0
M  V30 8909 C 771.536 -2.6226 4.61945 0
M  V30 8910 C 770.575 -2.13537 5.73645 0
M  V30 8911 N 769.712 -3.2319 6.23292 0
M  V30 8912 H 774.552 -0.155944 2.97592 0
M  V30 8913 H 772.089 -0.0652235 1.46955 0
M  V30 8914 H 774.047 -2.62123 3.24573 0
M  V30 8915 H 772.677 -2.43439 2.11985 0
M  V30 8916 H 771.729 -0.644897 3.74894 0
M  V30 8917 H 773.041 -1.06103 4.87384 0
M  V30 8918 H 772.195 -3.41243 5.01636 0
M  V30 8919 H 770.934 -3.05278 3.80338 0
M  V30 8920 H 769.939 -1.33013 5.33468 0
M  V30 8921 H 771.164 -1.71533 6.57079 0
M  V30 8922 H 769.11 -3.65711 5.44602 0
M  V30 8923 H 769.027 -2.8767 6.99129 0
M  V30 8924 H 770.295 -4.02342 6.67639 0
M  V30 8925 N 774.524 -1.57472 -0.0634922 0
M  V30 8926 C 775.77 -1.87932 -0.762194 0
M  V30 8927 C 776.103 -0.803377 -1.76804 0
M  V30 8928 O 775.378 0.185468 -1.93614 0
M  V30 8929 C 775.661 -3.29053 -1.46275 0
M  V30 8930 C 775.514 -4.47309 -0.472755 0
M  V30 8931 C 776.833 -3.68537 -2.40558 0
M  V30 8932 H 773.952 -0.683521 -0.275624 0
M  V30 8933 H 776.594 -1.89983 -0.0252651 0
M  V30 8934 H 774.744 -3.27435 -2.0909 0
M  V30 8935 H 776.416 -4.61053 0.150828 0
M  V30 8936 H 774.659 -4.33286 0.211187 0
M  V30 8937 H 775.33 -5.42853 -1.00072 0
M  V30 8938 H 777.806 -3.71302 -1.87814 0
M  V30 8939 H 776.682 -4.68152 -2.86574 0
M  V30 8940 H 776.943 -2.98917 -3.25731 0
M  V30 8941 N 776.003 0.335068 -1.53997 0
M  V30 8942 C 776.95 1.41187 -1.82579 0
M  V30 8943 C 777.92 1.51897 -0.672061 0
M  V30 8944 O 779.105 1.673 -0.917346 0
M  V30 8945 C 776.245 2.77717 -2.0486 0
M  V30 8946 C 775.358 2.7573 -3.32561 0
M  V30 8947 C 774.493 4.04032 -3.44864 0
M  V30 8948 C 773.532 3.96308 -4.66483 0
M  V30 8949 N 772.669 5.16317 -4.75774 0
M  V30 8950 H 777.509 1.16113 -2.74448 0
M  V30 8951 H 775.046 0.562305 -1.35928 0
M  V30 8952 H 777.004 3.57071 -2.15768 0
M  V30 8953 H 775.634 3.01124 -1.16294 0
M  V30 8954 H 774.686 1.88432 -3.3045 0
M  V30 8955 H 775.998 2.65902 -4.22016 0
M  V30 8956 H 775.152 4.91814 -3.55251 0
M  V30 8957 H 773.891 4.16652 -2.53481 0
M  V30 8958 H 772.896 3.06911 -4.56164 0
M  V30 8959 H 774.121 3.85263 -5.5924 0
M  V30 8960 H 772.067 5.29464 -3.87303 0
M  V30 8961 H 771.984 5.08779 -5.59178 0
M  V30 8962 H 773.252 6.05846 -4.9048 0
M  V30 8963 N 777.481 1.45874 0.596531 0
M  V30 8964 C 778.411 1.5824 1.71705 0
M  V30 8965 C 779.392 0.433366 1.64487 0
M  V30 8966 O 780.577 0.657895 1.82717 0
M  V30 8967 C 777.707 1.55927 3.10329 0
M  V30 8968 C 776.661 2.69659 3.32367 0
M  V30 8969 C 775.987 2.52403 4.71377 0
M  V30 8970 C 777.287 4.11591 3.21544 0
M  V30 8971 H 778.981 2.52035 1.61613 0
M  V30 8972 H 776.527 1.21297 0.776082 0
M  V30 8973 H 778.48 1.63173 3.88526 0
M  V30 8974 H 777.204 0.586674 3.21288 0
M  V30 8975 H 775.863 2.61859 2.56564 0
M  V30 8976 H 775.511 1.53258 4.79083 0
M  V30 8977 H 775.211 3.28679 4.87077 0
M  V30 8978 H 776.735 2.6152 5.5176 0
M  V30 8979 H 778.149 4.20576 3.89601 0
M  V30 8980 H 776.546 4.88344 3.4877 0
M  V30 8981 H 777.616 4.32719 2.1882 0
M  V30 8982 N 778.959 -0.83999 1.33349 0
M  V30 8983 C 779.889 -1.965 1.26135 0
M  V30 8984 C 780.87 -1.69505 0.142152 0
M  V30 8985 O 782.055 -1.91346 0.331743 0
M  V30 8986 C 779.185 -3.32632 0.99866 0
M  V30 8987 C 778.139 -3.74021 2.08068 0
M  V30 8988 C 777.465 -5.07947 1.67014 0
M  V30 8989 C 778.765 -3.87925 3.49731 0
M  V30 8990 H 780.459 -2.02793 2.20262 0
M  V30 8991 H 778.005 -0.974297 1.06035 0
M  V30 8992 H 779.958 -4.10903 0.934696 0
M  V30 8993 H 778.682 -3.26593 0.0217759 0
M  V30 8994 H 777.341 -2.98012 2.13505 0
M  V30 8995 H 776.989 -4.98378 0.680316 0
M  V30 8996 H 776.689 -5.36611 2.39422 0
M  V30 8997 H 778.213 -5.88695 1.62082 0
M  V30 8998 H 779.627 -4.5651 3.46802 0
M  V30 8999 H 778.024 -4.28023 4.20614 0
M  V30 9000 H 779.094 -2.90407 3.88319 0
M  V30 9001 N 780.437 -1.16799 -1.0581 0
M  V30 9002 C 781.387 -0.847231 -2.11674 0
M  V30 9003 C 782.371 0.175476 -1.5994 0
M  V30 9004 O 783.563 -0.0260602 -1.76981 0
M  V30 9005 C 780.692 -0.355446 -3.41455 0
M  V30 9006 C 779.778 -1.40922 -4.00002 0
M  V30 9007 N 780.169 -2.62096 -4.32596 0
M  V30 9008 C 778.467 -1.26562 -4.27666 0
M  V30 9009 C 779.168 -3.29759 -4.79201 0
M  V30 9010 N 778.144 -2.57138 -4.78938 0
M  V30 9011 H 781.946 -1.76862 -2.34727 0
M  V30 9012 H 779.46 -1.05577 -1.23399 0
M  V30 9013 H 781.457 -0.107231 -4.16762 0
M  V30 9014 H 780.117 0.559817 -3.19838 0
M  V30 9015 H 781.128 -2.99113 -4.22791 0
M  V30 9016 H 777.805 -0.411503 -4.15467 0
M  V30 9017 H 779.195 -4.33222 -5.13584 0
M  V30 9018 N 781.915 1.24427 -0.967243 0
M  V30 9019 C 783.145 1.96256 -0.64554 0
M  V30 9020 C 783.553 1.71959 0.789098 0
M  V30 9021 O 782.896 0.999913 1.54102 0
M  V30 9022 C 782.958 3.49553 -0.839798 0
M  V30 9023 C 782.622 3.97548 -2.25399 0
M  V30 9024 C 783.619 4.07257 -3.23168 0
M  V30 9025 C 781.304 4.30884 -2.58156 0
M  V30 9026 C 783.298 4.49635 -4.51782 0
M  V30 9027 C 780.985 4.72946 -3.86996 0
M  V30 9028 C 781.983 4.82286 -4.83621 0
M  V30 9029 O 781.671 5.23409 -6.10162 0
M  V30 9030 H 781.403 0.632002 -0.239895 0
M  V30 9031 H 783.957 1.59224 -1.29757 0
M  V30 9032 H 782.187 3.86479 -0.130603 0
M  V30 9033 H 783.876 4.02591 -0.517249 0
M  V30 9034 H 784.642 3.8172 -2.9919 0
M  V30 9035 H 780.521 4.22833 -1.83666 0
M  V30 9036 H 784.065 4.5684 -5.27203 0
M  V30 9037 H 779.962 4.9793 -4.10775 0
M  V30 9038 H 780.73 5.4156 -6.13722 0
M  V30 9039 N 783.393 0.737304 1.3929 0
M  V30 9040 C 784.34 0.0988364 2.30588 0
M  V30 9041 C 785.31 -0.727206 1.49335 0
M  V30 9042 O 786.495 -0.686694 1.78014 0
M  V30 9043 C 783.635 -0.800734 3.35682 0
M  V30 9044 C 782.748 0.0381731 4.31983 0
M  V30 9045 C 781.883 -0.862884 5.24145 0
M  V30 9046 C 780.922 -0.0193639 6.12097 0
M  V30 9047 N 780.059 -0.87648 6.96608 0
M  V30 9048 H 784.899 0.883031 2.84617 0
M  V30 9049 H 782.436 0.447111 1.4014 0
M  V30 9050 H 784.394 -1.33676 3.95205 0
M  V30 9051 H 783.024 -1.55088 2.83103 0
M  V30 9052 H 782.076 0.691641 3.74059 0
M  V30 9053 H 783.388 0.690294 4.94 0
M  V30 9054 H 782.542 -1.46667 5.88705 0
M  V30 9055 H 781.281 -1.54878 4.62454 0
M  V30 9056 H 780.286 0.597202 5.46547 0
M  V30 9057 H 781.511 0.663348 6.75852 0
M  V30 9058 H 779.457 -1.54762 6.37483 0
M  V30 9059 H 779.374 -0.280892 7.55478 0
M  V30 9060 H 780.642 -1.46575 7.65595 0
M  V30 9061 N 784.871 -1.49948 0.485112 0
M  V30 9062 C 786.282 -1.8667 0.0334041 0
M  V30 9063 C 786.633 -1.3988 -1.37579 0
M  V30 9064 O 785.758 -0.769788 -2.02245 0
M  V30 9065 C 786.353 -3.38757 0.0538426 0
M  V30 9066 C 784.912 -3.74839 -0.342453 0
M  V30 9067 C 784.059 -2.73894 0.433281 0
M  V30 9068 H 787.01 -1.42492 0.698699 0
M  V30 9069 H 787.031 -3.73132 -0.745146 0
M  V30 9070 H 786.543 -3.72782 1.07959 0
M  V30 9071 H 784.644 -3.46419 -1.37203 0
M  V30 9072 H 784.757 -4.79088 -0.0340503 0
M  V30 9073 H 783.121 -2.54441 -0.114849 0
M  V30 9074 H 783.904 -3.10763 1.45881 0
M  V30 9075 N 786.349 -0.21828 -1.56081 0
M  V30 9076 C 787.577 0.419258 -2.02608 0
M  V30 9077 C 787.992 1.53578 -1.09814 0
M  V30 9078 O 787.349 1.82185 -0.107149 0
M  V30 9079 C 787.4 0.953955 -3.48686 0
M  V30 9080 O 787.121 -0.11805 -4.37941 0
M  V30 9081 C 788.622 1.66506 -4.10841 0
M  V30 9082 H 785.842 0.10296 -0.663054 0
M  V30 9083 H 788.386 -0.333776 -2.01758 0
M  V30 9084 H 786.541 1.65727 -3.50162 0
M  V30 9085 H 786.955 0.283359 -5.23734 0
M  V30 9086 H 788.429 1.99123 -5.14834 0
M  V30 9087 H 788.906 2.57705 -3.55647 0
M  V30 9088 H 789.512 1.00703 -4.13206 0
M  V30 9089 N 787.827 1.57504 0.0551401 0
M  V30 9090 C 788.757 2.07864 1.06372 0
M  V30 9091 C 789.738 0.975565 1.39344 0
M  V30 9092 O 790.923 1.24929 1.48682 0
M  V30 9093 C 788.053 2.53643 2.3724 0
M  V30 9094 C 787.007 3.67978 2.18578 0
M  V30 9095 C 786.333 3.9987 3.54976 0
M  V30 9096 C 787.633 4.97405 1.59329 0
M  V30 9097 H 789.327 2.92379 0.644595 0
M  V30 9098 H 786.873 1.40654 0.308619 0
M  V30 9099 H 788.826 2.8749 3.08103 0
M  V30 9100 H 787.55 1.66177 2.81163 0
M  V30 9101 H 786.209 3.3444 1.50152 0
M  V30 9102 H 785.857 3.0951 3.965 0
M  V30 9103 H 785.557 4.76867 3.43324 0
M  V30 9104 H 787.081 4.36228 4.27244 0
M  V30 9105 H 788.495 5.29375 2.20078 0
M  V30 9106 H 786.892 5.78837 1.58327 0
M  V30 9107 H 787.962 4.81697 0.55638 0
M  V30 9108 N 789.305 -0.326896 1.54172 0
M  V30 9109 C 790.253 -1.42232 1.84046 0
M  V30 9110 C 791.247 -1.53705 0.712115 0
M  V30 9111 O 792.453 -1.56131 0.895724 0
M  V30 9112 H 788.828 -0.474568 0.583343 0
M  V30 9113 H 790.799 -1.14259 2.75658 0
M  V30 9114 C 789.548 -2.78502 2.08163 0
M  V30 9115 H 788.871 -2.70447 2.94446 0
M  V30 9116 H 790.311 -3.54228 2.33021 0
M  V30 9117 C 788.77 -3.25415 0.872152 0
M  V30 9118 O 789.3 -4.01621 0.0797648 0
M  V30 9119 N 787.506 -2.82418 0.684716 0
M  V30 9120 H 787.053 -2.20566 1.33072 0
M  V30 9121 H 787.011 -3.14159 -0.123031 0
M  V30 9122 N 790.784 -1.46188 -0.588786 0
M  V30 9123 C 791.732 -1.56653 -1.71938 0
M  V30 9124 C 792.726 -0.435354 -1.6371 0
M  V30 9125 O 793.932 -0.611996 -1.69277 0
M  V30 9126 H 790.307 -0.492408 -0.568365 0
M  V30 9127 H 792.278 -2.51724 -1.60242 0
M  V30 9128 C 791.027 -1.56822 -3.10326 0
M  V30 9129 H 790.35 -2.43198 -3.17325 0
M  V30 9130 H 791.79 -1.68199 -3.89211 0
M  V30 9131 C 790.249 -0.295802 -3.35599 0
M  V30 9132 O 790.779 0.616515 -3.96941 0
M  V30 9133 N 788.985 -0.185609 -2.90007 0
M  V30 9134 H 788.532 -0.928914 -2.40269 0
M  V30 9135 H 788.49 0.664883 -3.07289 0
M  V30 9136 N 792.262 0.832906 -1.33792 0
M  V30 9137 C 793.673 1.40489 -1.22963 0
M  V30 9138 C 794.024 1.95633 0.149026 0
M  V30 9139 O 793.149 1.8928 1.04891 0
M  V30 9140 C 793.744 2.55387 -2.22627 0
M  V30 9141 C 792.303 3.08522 -2.15618 0
M  V30 9142 C 791.45 1.81347 -2.09782 0
M  V30 9143 H 794.401 0.638156 -1.45304 0
M  V30 9144 H 794.422 3.33193 -1.83746 0
M  V30 9145 H 793.934 2.15222 -3.22957 0
M  V30 9146 H 792.035 3.53217 -1.18611 0
M  V30 9147 H 792.148 3.6829 -3.0643 0
M  V30 9148 H 790.512 2.01839 -1.55349 0
M  V30 9149 H 791.295 1.43369 -3.1193 0
M  V30 9150 N 793.74 1.17359 1.05189 0
M  V30 9151 C 794.97 0.985099 1.81602 0
M  V30 9152 C 795.378 -0.469872 1.83273 0
M  V30 9153 O 794.721 -1.33806 1.25864 0
M  V30 9154 C 794.783 1.44956 3.2898 0
M  V30 9155 C 794.447 2.92666 3.50993 0
M  V30 9156 C 795.444 3.906 3.43115 0
M  V30 9157 C 793.129 3.30841 3.77954 0
M  V30 9158 C 795.123 5.24709 3.61883 0
M  V30 9159 C 792.81 4.65116 3.96371 0
M  V30 9160 C 793.808 5.61859 3.88335 0
M  V30 9161 O 793.496 6.93704 4.06238 0
M  V30 9162 H 793.228 0.348731 0.579105 0
M  V30 9163 H 795.782 1.56066 1.33539 0
M  V30 9164 H 794.012 0.817559 3.77959 0
M  V30 9165 H 795.701 1.22674 3.86919 0
M  V30 9166 H 796.467 3.62453 3.22262 0
M  V30 9167 H 792.346 2.5611 3.83313 0
M  V30 9168 H 795.89 6.00205 3.55527 0
M  V30 9169 H 791.787 4.92969 4.16715 0
M  V30 9170 H 792.555 7.00443 4.23463 0
M  V30 9171 N 795.218 -1.23913 0.973828 0
M  V30 9172 C 796.443 -1.96735 0.656511 0
M  V30 9173 C 796.868 -1.71682 -0.768571 0
M  V30 9174 O 796.226 -0.984267 -1.52256 0
M  V30 9175 C 796.274 -3.48004 0.944735 0
M  V30 9176 O 795.378 -4.12387 0.0333357 0
M  V30 9177 H 794.719 -0.616119 0.247575 0
M  V30 9178 H 797.249 -1.57525 1.30564 0
M  V30 9179 H 797.259 -3.98424 0.87876 0
M  V30 9180 H 795.934 -3.65567 1.98328 0
M  V30 9181 H 794.511 -3.72585 0.153157 0
M  V30 9182 N 796.696 -0.74468 -1.38897 0
M  V30 9183 C 797.921 -0.306119 -2.05128 0
M  V30 9184 C 798.346 1.0541 -1.55789 0
M  V30 9185 O 797.704 1.66993 -0.705909 0
M  V30 9186 C 797.752 -0.328195 -3.59103 0
M  V30 9187 O 796.856 0.680876 -4.06741 0
M  V30 9188 H 796.197 -0.137209 -0.649669 0
M  V30 9189 H 798.727 -1.01331 -1.77745 0
M  V30 9190 H 798.737 -0.175956 -4.0762 0
M  V30 9191 H 797.412 -1.32067 -3.94374 0
M  V30 9192 H 795.989 0.49398 -3.69614 0
M  V30 9193 N 798.174 1.49689 -0.493057 0
M  V30 9194 C 799.104 2.31826 0.279073 0
M  V30 9195 C 800.085 1.39733 0.969987 0
M  V30 9196 O 801.27 1.68646 0.962925 0
M  V30 9197 C 798.4 3.20046 1.34862 0
M  V30 9198 C 797.354 4.20869 0.77805 0
M  V30 9199 C 796.68 4.97971 1.94753 0
M  V30 9200 C 797.98 5.21813 -0.225543 0
M  V30 9201 H 799.674 2.96627 -0.406512 0
M  V30 9202 H 797.22 1.42647 -0.196943 0
M  V30 9203 H 799.173 3.76315 1.89645 0
M  V30 9204 H 797.897 2.53172 2.06328 0
M  V30 9205 H 796.556 3.65733 0.252036 0
M  V30 9206 H 796.204 4.27552 2.64969 0
M  V30 9207 H 795.904 5.66186 1.57187 0
M  V30 9208 H 797.428 5.57082 2.49984 0
M  V30 9209 H 798.842 5.72823 0.233864 0
M  V30 9210 H 797.239 5.97872 -0.516622 0
M  V30 9211 H 798.309 4.71209 -1.14412 0
M  V30 9212 N 799.652 0.226554 1.55963 0
M  V30 9213 C 800.882 -0.407915 2.02533 0
M  V30 9214 C 801.29 -1.53539 1.10554 0
M  V30 9215 O 800.633 -1.8338 0.108409 0
M  V30 9216 C 800.695 -0.996081 3.45425 0
M  V30 9217 C 800.359 -0.00341651 4.57 0
M  V30 9218 C 801.356 0.798782 5.13727 0
M  V30 9219 C 799.041 0.116786 5.02164 0
M  V30 9220 C 801.035 1.70784 6.14094 0
M  V30 9221 C 798.722 1.02937 6.02368 0
M  V30 9222 C 799.72 1.82344 6.5821 0
M  V30 9223 O 799.408 2.72067 7.56462 0
M  V30 9224 H 799.14 -0.103524 0.668026 0
M  V30 9225 H 801.694 0.341937 2.02534 0
M  V30 9226 H 799.924 -1.79512 3.42509 0
M  V30 9227 H 801.613 -1.53848 3.75614 0
M  V30 9228 H 802.379 0.716393 4.7968 0
M  V30 9229 H 798.258 -0.491172 4.58376 0
M  V30 9230 H 801.802 2.32807 6.57607 0
M  V30 9231 H 797.699 1.11276 6.35836 0
M  V30 9232 H 798.467 2.66199 7.74003 0
M  V30 9233 N 801.13 -1.57531 -0.0467866 0
M  V30 9234 C 802.377 -1.88451 -0.74112 0
M  V30 9235 C 802.705 -0.821592 -1.76296 0
M  V30 9236 O 801.96 0.179585 -1.94874 0
M  V30 9237 C 802.259 -3.26091 -1.46285 0
M  V30 9238 C 801.925 -4.47171 -0.578669 0
M  V30 9239 C 800.587 -4.80032 -0.335083 0
M  V30 9240 C 802.939 -5.2119 0.0328809 0
M  V30 9241 C 800.267 -5.84309 0.529121 0
M  V30 9242 C 802.619 -6.26383 0.884684 0
M  V30 9243 C 801.283 -6.57729 1.1379 0
M  V30 9244 H 800.553 -0.68959 -0.271195 0
M  V30 9245 H 803.2 -1.915 -0.00132378 0
M  V30 9246 H 801.505 -3.18948 -2.27551 0
M  V30 9247 H 803.202 -3.47258 -2.00532 0
M  V30 9248 H 799.792 -4.21467 -0.778666 0
M  V30 9249 H 803.976 -4.96096 -0.142375 0
M  V30 9250 H 799.232 -6.06981 0.733794 0
M  V30 9251 H 803.406 -6.82888 1.36516 0
M  V30 9252 H 801.033 -7.38355 1.80929 0
M  V30 9253 N 802.608 0.318715 -1.54344 0
M  V30 9254 C 803.885 1.07461 -1.63437 0
M  V30 9255 C 804.265 2.05771 -0.47131 0
M  V30 9256 O 803.613 2.22175 0.53391 0
M  V30 9257 C 803.823 1.77224 -3.00654 0
M  V30 9258 C 805.171 2.30069 -3.56866 0
M  V30 9259 O 806.195 1.87284 -3.0299 0
M  V30 9260 O 805.054 3.08412 -4.51159 0
M  V30 9261 H 802.148 0.495627 -0.66203 0
M  V30 9262 H 804.694 0.318218 -1.6669 0
M  V30 9263 H 803.466 1.05742 -3.76742 0
M  V30 9264 H 803.089 2.59662 -3.01101 0
M  V30 9265 N 804.086 1.46499 0.581025 0
M  V30 9266 C 804.996 1.59778 1.71779 0
M  V30 9267 C 806.012 0.481223 1.67213 0
M  V30 9268 O 807.188 0.74557 1.87091 0
M  V30 9269 C 804.253 1.58626 3.08283 0
M  V30 9270 C 803.314 2.81527 3.241 0
M  V30 9271 C 802.547 2.80421 4.54092 0
M  V30 9272 O 802.77 1.89262 5.38085 0
M  V30 9273 O 801.704 3.71984 4.73193 0
M  V30 9274 H 805.53 2.55918 1.63523 0
M  V30 9275 H 803.115 1.29311 0.748267 0
M  V30 9276 H 804.997 1.60686 3.89561 0
M  V30 9277 H 803.672 0.656467 3.16973 0
M  V30 9278 H 802.579 2.85021 2.42309 0
M  V30 9279 H 803.912 3.73721 3.20302 0
M  V30 9280 N 805.565 -0.825799 1.34232 0
M  V30 9281 C 806.513 -1.95792 1.25572 0
M  V30 9282 C 807.507 -1.68695 0.154404 0
M  V30 9283 O 808.713 -1.77147 0.319196 0
M  V30 9284 H 805.088 -0.642949 0.390027 0
M  V30 9285 H 807.059 -2.00219 2.21258 0
M  V30 9286 C 805.808 -3.32245 1.02511 0
M  V30 9287 H 805.131 -3.53642 1.86487 0
M  V30 9288 H 806.571 -4.1192 1.00487 0
M  V30 9289 C 805.03 -3.35803 -0.27167 0
M  V30 9290 O 805.56 -3.80962 -1.274 0
M  V30 9291 N 803.766 -2.89008 -0.303778 0
M  V30 9292 H 803.313 -2.52451 0.512464 0
M  V30 9293 H 803.271 -2.9177 -1.17121 0
M  V30 9294 N 807.043 -1.17915 -1.04565 0
M  V30 9295 C 807.973 -0.925033 -2.14395 0
M  V30 9296 C 808.954 0.135375 -1.6956 0
M  V30 9297 O 810.139 -0.0161774 -1.94193 0
M  V30 9298 C 807.269 -0.444469 -3.44444 0
M  V30 9299 C 806.223 -1.44478 -4.02877 0
M  V30 9300 C 805.549 -0.821933 -5.28345 0
M  V30 9301 C 806.849 -2.81995 -4.39632 0
M  V30 9302 H 808.543 -1.84354 -2.35911 0
M  V30 9303 H 806.089 -0.887806 -1.13375 0
M  V30 9304 H 808.042 -0.254078 -4.20633 0
M  V30 9305 H 806.766 0.509592 -3.226 0
M  V30 9306 H 805.425 -1.62203 -3.28764 0
M  V30 9307 H 805.073 0.139161 -5.02807 0
M  V30 9308 H 804.773 -1.48976 -5.68401 0
M  V30 9309 H 806.297 -0.641959 -6.07216 0
M  V30 9310 H 807.711 -2.67952 -5.06828 0
M  V30 9311 H 806.108 -3.45414 -4.90723 0
M  V30 9312 H 807.178 -3.35927 -3.49687 0
M  V30 9313 N 808.521 1.23394 -0.980386 0
M  V30 9314 C 809.468 2.24859 -0.520298 0
M  V30 9315 C 810.438 1.60144 0.440821 0
M  V30 9316 O 811.623 1.87593 0.348369 0
M  V30 9317 C 808.763 3.44675 0.171145 0
M  V30 9318 C 807.876 4.23947 -0.830233 0
M  V30 9319 C 807.011 5.31079 -0.113597 0
M  V30 9320 C 806.05 6.02058 -1.10419 0
M  V30 9321 N 805.187 7.00862 -0.416709 0
M  V30 9322 H 810.027 2.63579 -1.39032 0
M  V30 9323 H 807.564 1.29556 -0.696682 0
M  V30 9324 H 809.522 4.13024 0.588838 0
M  V30 9325 H 808.152 3.06755 1.00504 0
M  V30 9326 H 807.204 3.55016 -1.36631 0
M  V30 9327 H 808.516 4.72945 -1.58508 0
M  V30 9328 H 807.67 6.05622 0.36146 0
M  V30 9329 H 806.409 4.83022 0.673854 0
M  V30 9330 H 805.414 5.26307 -1.59 0
M  V30 9331 H 806.639 6.52203 -1.8923 0
M  V30 9332 H 804.585 6.55057 0.351535 0
M  V30 9333 H 804.502 7.47804 -1.11021 0
M  V30 9334 H 805.77 7.79492 0.0359606 0
M  V30 9335 N 809.999 0.752036 1.385 0
M  V30 9336 C 810.946 0.123288 2.3047 0
M  V30 9337 C 811.916 -0.711326 1.50098 0
M  V30 9338 O 813.101 -0.667775 1.78733 0
M  V30 9339 C 810.241 -0.765085 3.36512 0
M  V30 9340 C 809.354 0.0839885 4.31918 0
M  V30 9341 C 808.489 -0.807243 5.25031 0
M  V30 9342 C 807.528 0.0455583 6.12083 0
M  V30 9343 N 806.665 -0.802547 6.97498 0
M  V30 9344 H 811.505 0.913169 2.83664 0
M  V30 9345 H 809.042 0.46195 1.39658 0
M  V30 9346 H 811 -1.29476 3.966 0
M  V30 9347 H 809.63 -1.52077 2.84732 0
M  V30 9348 H 808.682 0.731276 3.73305 0
M  V30 9349 H 809.994 0.74265 4.9324 0
M  V30 9350 H 809.148 -1.40414 5.90228 0
M  V30 9351 H 807.887 -1.49964 4.64071 0
M  V30 9352 H 806.892 0.655137 5.45883 0
M  V30 9353 H 808.117 0.734994 6.75111 0
M  V30 9354 H 806.063 -1.47992 6.39089 0
M  V30 9355 H 805.98 -0.200747 7.55733 0
M  V30 9356 H 807.248 -1.38447 7.67107 0
M  V30 9357 N 811.477 -1.49425 0.500989 0
M  V30 9358 C 812.409 -2.27037 -0.314159 0
M  V30 9359 C 813.422 -1.33578 -0.930626 0
M  V30 9360 O 814.611 -1.58861 -0.813968 0
M  V30 9361 C 811.711 -3.05968 -1.45729 0
M  V30 9362 C 810.884 -4.27 -0.948135 0
M  V30 9363 C 809.943 -4.87977 -1.96888 0
M  V30 9364 O 808.969 -5.48044 -1.53743 0
M  V30 9365 N 810.171 -4.77627 -3.29928 0
M  V30 9366 H 812.936 -2.97634 0.351336 0
M  V30 9367 H 810.497 -1.58427 0.333536 0
M  V30 9368 H 812.489 -3.43634 -2.1377 0
M  V30 9369 H 811.059 -2.37978 -2.02695 0
M  V30 9370 H 810.279 -3.94091 -0.0926311 0
M  V30 9371 H 811.567 -5.0541 -0.586362 0
M  V30 9372 H 810.965 -4.29926 -3.67669 0
M  V30 9373 H 809.522 -5.19478 -3.93682 0
M  V30 9374 N 812.955 -0.234822 -1.55841 0
M  V30 9375 C 813.885 0.664217 -2.23854 0
M  V30 9376 C 814.866 1.19076 -1.2147 0
M  V30 9377 O 816.051 1.23232 -1.50091 0
M  V30 9378 C 813.181 1.86666 -2.9287 0
M  V30 9379 C 812.135 1.47341 -4.01839 0
M  V30 9380 C 811.461 2.75571 -4.58219 0
M  V30 9381 C 812.761 0.653479 -5.18196 0
M  V30 9382 H 814.455 0.0971213 -2.99242 0
M  V30 9383 H 812.001 0.0452724 -1.43929 0
M  V30 9384 H 813.954 2.50116 -3.39146 0
M  V30 9385 H 812.678 2.45894 -2.1495 0
M  V30 9386 H 811.337 0.862314 -3.56314 0
M  V30 9387 H 810.985 3.32971 -3.77014 0
M  V30 9388 H 810.685 2.49987 -5.31771 0
M  V30 9389 H 812.209 3.39939 -5.07221 0
M  V30 9390 H 813.623 1.19198 -5.60771 0
M  V30 9391 H 812.02 0.494188 -5.98062 0
M  V30 9392 H 813.09 -0.337004 -4.83728 0
M  V30 9393 N 814.433 1.57553 0.0384317 0
M  V30 9394 C 815.381 2.07021 1.06043 0
M  V30 9395 C 816.375 0.982078 1.38028 0
M  V30 9396 O 817.581 1.16702 1.37042 0
M  V30 9397 H 813.956 0.660522 0.359464 0
M  V30 9398 H 815.927 2.91944 0.617339 0
M  V30 9399 C 814.676 2.55734 2.35574 0
M  V30 9400 H 813.999 3.39074 2.11822 0
M  V30 9401 H 815.439 2.94066 3.05452 0
M  V30 9402 C 813.898 1.45449 3.03885 0
M  V30 9403 O 814.428 0.815402 3.93337 0
M  V30 9404 N 812.634 1.19134 2.65058 0
M  V30 9405 H 812.181 1.71288 1.92401 0
M  V30 9406 H 812.139 0.455554 3.11082 0
M  V30 9407 N 815.911 -0.310526 1.54511 0
M  V30 9408 C 817.141 -1.06456 1.77061 0
M  V30 9409 C 817.549 -1.81755 0.525528 0
M  V30 9410 O 816.892 -1.76365 -0.513904 0
M  V30 9411 C 816.954 -2.09856 2.91892 0
M  V30 9412 C 816.618 -1.53838 4.30329 0
M  V30 9413 C 817.615 -0.973358 5.10707 0
M  V30 9414 C 815.3 -1.57688 4.76906 0
M  V30 9415 C 817.294 -0.454283 6.35779 0
M  V30 9416 C 814.981 -1.05393 6.01943 0
M  V30 9417 C 815.979 -0.493595 6.81214 0
M  V30 9418 O 815.667 0.0214506 8.03897 0
M  V30 9419 H 815.399 -0.321913 0.594431 0
M  V30 9420 H 817.953 -0.358289 2.02251 0
M  V30 9421 H 816.183 -2.84137 2.62304 0
M  V30 9422 H 817.872 -2.71085 3.02106 0
M  V30 9423 H 818.638 -0.936588 4.75871 0
M  V30 9424 H 814.517 -2.00242 4.1524 0
M  V30 9425 H 818.061 -0.0162657 6.97598 0
M  V30 9426 H 813.958 -1.08782 6.36268 0
M  V30 9427 H 814.726 -0.0927478 8.18447 0
M  V30 9428 N 817.389 -1.46805 -0.573248 0
M  V30 9429 C 818.352 -1.57655 -1.66366 0
M  V30 9430 C 819.352 -0.452905 -1.5429 0
M  V30 9431 O 820.542 -0.717502 -1.58737 0
M  V30 9432 C 817.674 -1.50584 -3.05839 0
M  V30 9433 H 818.867 -2.54842 -1.581 0
M  V30 9434 H 816.42 -1.34756 -0.791868 0
M  V30 9435 H 817.155 -0.547127 -3.19651 0
M  V30 9436 H 816.94 -2.32118 -3.16012 0
M  V30 9437 H 818.43 -1.61282 -3.85199 0
M  V30 9438 N 818.867 0.818669 -1.34668 0
M  V30 9439 C 820.114 1.57512 -1.27264 0
M  V30 9440 C 820.442 1.93871 0.156254 0
M  V30 9441 O 819.697 1.60582 1.11857 0
M  V30 9442 C 819.996 2.88245 -2.11304 0
M  V30 9443 C 819.662 2.71159 -3.60255 0
M  V30 9444 C 818.324 2.66207 -4.00858 0
M  V30 9445 C 820.676 2.54538 -4.54819 0
M  V30 9446 C 818.004 2.4256 -5.34211 0
M  V30 9447 C 820.356 2.32421 -5.88356 0
M  V30 9448 C 819.02 2.25884 -6.28118 0
M  V30 9449 H 818.29 0.576378 -0.465692 0
M  V30 9450 H 820.937 0.9469 -1.66451 0
M  V30 9451 H 819.242 3.55381 -1.64958 0
M  V30 9452 H 820.939 3.45869 -2.02919 0
M  V30 9453 H 817.529 2.75856 -3.28027 0
M  V30 9454 H 821.713 2.57384 -4.24343 0
M  V30 9455 H 816.969 2.35959 -5.64033 0
M  V30 9456 H 821.143 2.18548 -6.61218 0
M  V30 9457 H 818.77 2.07322 -7.31383 0
M  V30 9458 N 820.346 1.18468 1.03938 0
M  V30 9459 C 821.293 0.912859 2.1198 0
M  V30 9460 C 822.263 -0.14824 1.65437 0
M  V30 9461 O 823.448 -0.008331 1.90798 0
M  V30 9462 C 820.588 0.446114 3.42204 0
M  V30 9463 C 819.701 1.57278 4.02353 0
M  V30 9464 C 818.836 1.05863 5.20544 0
M  V30 9465 C 817.875 2.1599 5.72726 0
M  V30 9466 N 817.012 1.65959 6.82204 0
M  V30 9467 H 821.852 1.83798 2.34569 0
M  V30 9468 H 819.389 0.916504 1.15059 0
M  V30 9469 H 821.347 0.15697 4.16905 0
M  V30 9470 H 819.977 -0.442025 3.19759 0
M  V30 9471 H 819.029 1.97737 3.24968 0
M  V30 9472 H 820.341 2.40289 4.37107 0
M  V30 9473 H 819.495 0.724087 6.02364 0
M  V30 9474 H 818.234 0.198116 4.87297 0
M  V30 9475 H 817.239 2.50287 4.89527 0
M  V30 9476 H 818.464 3.02479 6.08016 0
M  V30 9477 H 816.41 0.82199 6.5083 0
M  V30 9478 H 816.327 2.42567 7.16029 0
M  V30 9479 H 817.595 1.35436 7.67644 0
M  V30 9480 N 821.824 -1.22873 0.986916 0
M  V30 9481 C 822.754 -2.2688 0.552064 0
M  V30 9482 C 823.735 -1.64883 -0.418048 0
M  V30 9483 O 824.92 -1.9171 -0.30999 0
M  V30 9484 C 822.05 -3.47018 -0.139959 0
M  V30 9485 C 821.004 -4.21411 0.748091 0
M  V30 9486 C 820.33 -5.34645 -0.0765132 0
M  V30 9487 C 821.63 -4.80726 2.04206 0
M  V30 9488 H 823.324 -2.63507 1.42143 0
M  V30 9489 H 820.87 -1.26668 0.68492 0
M  V30 9490 H 822.823 -4.18931 -0.455527 0
M  V30 9491 H 821.547 -3.0947 -1.04382 0
M  V30 9492 H 820.206 -3.51325 1.04721 0
M  V30 9493 H 819.854 -4.93339 -0.981109 0
M  V30 9494 H 819.554 -5.85342 0.514606 0
M  V30 9495 H 821.078 -6.09377 -0.386313 0
M  V30 9496 H 822.492 -5.44612 1.79083 0
M  V30 9497 H 820.889 -5.41737 2.5815 0
M  V30 9498 H 821.959 -4.01109 2.72469 0
M  V30 9499 N 823.302 -0.75937 -1.38099 0
M  V30 9500 C 824.551 -0.314864 -1.99227 0
M  V30 9501 C 824.864 1.1113 -1.60964 0
M  V30 9502 O 826.07 1.65657 -2.15105 0
M  V30 9503 C 824.526 -0.512001 -3.56239 0
M  V30 9504 C 824.134 -1.94762 -4.0345 0
M  V30 9505 C 825.878 -0.130497 -4.24299 0
M  V30 9506 C 823.785 -2.09301 -5.53125 0
M  V30 9507 H 822.715 -0.113978 -0.745335 0
M  V30 9508 H 825.366 -0.936736 -1.57789 0
M  V30 9509 H 823.748 0.179144 -3.95595 0
M  V30 9510 H 824.922 -2.67271 -3.75371 0
M  V30 9511 H 823.237 -2.28457 -3.48133 0
M  V30 9512 H 825.834 -0.21781 -5.34256 0
M  V30 9513 H 826.177 0.917644 -4.0606 0
M  V30 9514 H 826.71 -0.773716 -3.90203 0
M  V30 9515 H 823.449 -3.1239 -5.76275 0
M  V30 9516 H 822.969 -1.41261 -5.82928 0
M  V30 9517 H 824.648 -1.88571 -6.1891 0
M  V30 9518 N 824.78 1.49157 -0.508906 0
M  V30 9519 C 826.029 2.0167 0.0346854 0
M  V30 9520 C 826.342 1.39302 1.37311 0
M  V30 9521 O 827.548 1.83189 2.00385 0
M  V30 9522 C 826.004 3.59725 0.112261 0
M  V30 9523 C 825.612 4.31069 -1.21999 0
M  V30 9524 C 827.356 4.20155 0.605798 0
M  V30 9525 C 825.263 5.81001 -1.10415 0
M  V30 9526 H 824.193 0.753814 0.0167355 0
M  V30 9527 H 826.844 1.7162 -0.649518 0
M  V30 9528 H 825.226 3.86525 0.861087 0
M  V30 9529 H 826.4 4.15962 -1.98273 0
M  V30 9530 H 824.715 3.82418 -1.64759 0
M  V30 9531 H 827.312 5.29964 0.710102 0
M  V30 9532 H 827.655 3.84051 1.60656 0
M  V30 9533 H 828.188 3.97705 -0.0867239 0
M  V30 9534 H 824.927 6.21643 -2.07941 0
M  V30 9535 H 824.447 5.9858 -0.382428 0
M  V30 9536 H 826.126 6.42207 -0.786116 0
M  V30 9537 N 826.258 0.243083 1.55714 0
M  V30 9538 C 827.507 -0.383188 1.98027 0
M  V30 9539 C 827.82 -1.59347 1.13436 0
M  V30 9540 O 829.026 -2.29065 1.45745 0
M  V30 9541 C 827.482 -0.733135 3.52354 0
M  V30 9542 C 827.09 0.455539 4.45678 0
M  V30 9543 C 828.834 -1.32381 4.03331 0
M  V30 9544 C 826.741 0.0819591 5.91343 0
M  V30 9545 H 825.671 -0.146944 0.739543 0
M  V30 9546 H 828.322 0.342697 1.80272 0
M  V30 9547 H 826.704 -1.51704 3.65789 0
M  V30 9548 H 827.878 1.23291 4.44 0
M  V30 9549 H 826.193 0.960886 4.05162 0
M  V30 9550 H 828.79 -1.61658 5.09677 0
M  V30 9551 H 829.133 -2.24698 3.50452 0
M  V30 9552 H 829.666 -0.602885 3.93205 0
M  V30 9553 H 826.405 0.972171 6.48251 0
M  V30 9554 H 825.925 -0.659291 5.96166 0
M  V30 9555 H 827.604 -0.3372 6.46121 0
M  V30 9556 N 827.736 -1.57571 -0.0300757 0
M  V30 9557 C 828.984 -1.88852 -0.719666 0
M  V30 9558 C 829.305 -0.840645 -1.75949 0
M  V30 9559 O 828.575 0.125854 -1.95495 0
M  V30 9560 H 827.155 -0.696965 -0.268792 0
M  V30 9561 H 829.817 -1.949 0.00373285 0
M  V30 9562 H 828.913 -2.87695 -1.20987 0
M  V30 9563 N 829.214 0.302327 -1.54673 0
M  V30 9564 C 830.439 1.06103 -1.78205 0
M  V30 9565 C 830.864 1.80204 -0.53926 0
M  V30 9566 O 830.222 1.73975 0.510142 0
M  V30 9567 C 830.27 2.01829 -2.98827 0
M  V30 9568 O 829.374 3.10108 -2.71858 0
M  V30 9569 H 828.715 0.30487 -0.589873 0
M  V30 9570 H 831.245 0.340153 -2.01753 0
M  V30 9571 H 831.255 2.44319 -3.2676 0
M  V30 9572 H 829.93 1.473 -3.88942 0
M  V30 9573 H 828.507 2.72142 -2.54937 0
M  V30 9574 N 830.692 1.47107 0.565454 0
M  V30 9575 C 831.92 1.56909 1.3486 0
M  V30 9576 C 832.335 0.216312 1.87557 0
M  V30 9577 O 831.692 -0.789168 1.64555 0
M  V30 9578 C 831.743 2.58776 2.52423 0
M  V30 9579 O 831.464 3.888 2.01906 0
M  V30 9580 C 832.965 2.78683 3.44747 0
M  V30 9581 H 830.185 0.530096 0.411387 0
M  V30 9582 H 832.729 1.92658 0.685782 0
M  V30 9583 H 830.884 2.25983 3.1466 0
M  V30 9584 H 831.298 4.44393 2.78595 0
M  V30 9585 H 832.772 3.53842 4.23674 0
M  V30 9586 H 833.249 1.86208 3.97773 0
M  V30 9587 H 833.855 3.12641 2.88333 0
M  V30 9588 N 832.17 -0.811516 1.35101 0
M  V30 9589 C 833.395 -1.60499 1.31358 0
M  V30 9590 C 833.82 -1.87793 -0.107383 0
M  V30 9591 O 833.178 -1.46161 -1.07268 0
M  V30 9592 C 833.226 -2.91612 2.12119 0
M  V30 9593 O 832.33 -3.84211 1.49853 0
M  V30 9594 H 831.671 -0.487702 0.450603 0
M  V30 9595 H 834.201 -1.00758 1.7807 0
M  V30 9596 H 834.211 -3.4108 2.23894 0
M  V30 9597 H 832.886 -2.71071 3.15426 0
M  V30 9598 H 831.463 -3.42751 1.46889 0
M  V30 9599 N 833.648 -1.19017 -1.03309 0
M  V30 9600 C 834.897 -0.984542 -1.76039 0
M  V30 9601 C 835.21 0.485937 -1.89468 0
M  V30 9602 O 836.416 0.810278 -2.59127 0
M  V30 9603 C 834.872 -1.71261 -3.1654 0
M  V30 9604 C 834.48 -3.22291 -3.11179 0
M  V30 9605 C 836.224 -1.59007 -3.93595 0
M  V30 9606 C 834.131 -3.87704 -4.46587 0
M  V30 9607 H 833.061 -0.364749 -0.659905 0
M  V30 9608 H 835.712 -1.4247 -1.15649 0
M  V30 9609 H 834.094 -1.20025 -3.77373 0
M  V30 9610 H 835.268 -3.80611 -2.59753 0
M  V30 9611 H 833.583 -3.34772 -2.47622 0
M  V30 9612 H 836.18 -2.05232 -4.93745 0
M  V30 9613 H 836.523 -0.543534 -4.12736 0
M  V30 9614 H 837.056 -2.07564 -3.39355 0
M  V30 9615 H 833.795 -4.92437 -4.3265 0
M  V30 9616 H 833.315 -3.34172 -4.98085 0
M  V30 9617 H 834.994 -3.91008 -5.15482 0
M  V30 9618 N 835.127 1.22348 -0.993418 0
M  V30 9619 C 836.376 1.90422 -0.665019 0
M  V30 9620 C 836.689 1.78199 0.806512 0
M  V30 9621 O 837.895 2.41193 1.24652 0
M  V30 9622 C 836.351 3.41403 -1.13893 0
M  V30 9623 C 835.959 3.62262 -2.63572 0
M  V30 9624 C 837.703 4.15175 -0.884884 0
M  V30 9625 C 835.61 5.06947 -3.04564 0
M  V30 9626 H 834.54 0.713073 -0.245037 0
M  V30 9627 H 837.191 1.3856 -1.20305 0
M  V30 9628 H 835.573 3.9245 -0.529027 0
M  V30 9629 H 836.747 3.21705 -3.29913 0
M  V30 9630 H 835.062 3.01824 -2.86865 0
M  V30 9631 H 837.659 5.21813 -1.16684 0
M  V30 9632 H 838.002 4.15915 0.178982 0
M  V30 9633 H 838.535 3.70157 -1.45701 0
M  V30 9634 H 835.274 5.11346 -4.10128 0
M  V30 9635 H 834.794 5.48404 -2.42927 0
M  V30 9636 H 836.473 5.75374 -2.95894 0
M  V30 9637 N 836.605 0.766683 1.37694 0
M  V30 9638 C 837.568 0.155849 2.2867 0
M  V30 9639 C 838.568 -0.633509 1.47795 0
M  V30 9640 O 839.758 -0.457844 1.68076 0
M  V30 9641 C 836.89 -0.786965 3.31692 0
M  V30 9642 H 838.083 0.957748 2.84196 0
M  V30 9643 H 835.636 0.534554 1.46875 0
M  V30 9644 H 836.371 -1.61406 2.8128 0
M  V30 9645 H 836.156 -0.223182 3.91464 0
M  V30 9646 H 837.646 -1.20994 3.99688 0
M  V30 9647 N 838.083 -1.48885 0.516809 0
M  V30 9648 C 839.308 -2.0739 -0.0205201 0
M  V30 9649 C 839.733 -1.37259 -1.28614 0
M  V30 9650 O 839.091 -0.434304 -1.76021 0
M  V30 9651 C 839.139 -3.59793 -0.24104 0
M  V30 9652 O 838.243 -3.90957 -1.31251 0
M  V30 9653 H 837.584 -0.663167 0.0332564 0
M  V30 9654 H 840.114 -1.91477 0.720956 0
M  V30 9655 H 840.124 -4.0531 -0.467737 0
M  V30 9656 H 838.799 -4.10244 0.68356 0
M  V30 9657 H 837.376 -3.57234 -1.06951 0
M  V30 9658 N 839.561 -0.251338 -1.55583 0
M  V30 9659 C 840.491 0.640437 -2.24545 0
M  V30 9660 C 841.472 1.17781 -1.22726 0
M  V30 9661 O 842.657 1.21633 -1.5139 0
M  V30 9662 C 839.787 1.8355 -2.94834 0
M  V30 9663 C 838.741 1.4307 -4.03379 0
M  V30 9664 C 838.067 2.70695 -4.61116 0
M  V30 9665 C 839.367 0.59848 -5.1886 0
M  V30 9666 H 841.061 0.0653772 -2.99329 0
M  V30 9667 H 838.607 0.0300042 -1.43969 0
M  V30 9668 H 840.56 2.46505 -3.4178 0
M  V30 9669 H 839.284 2.43601 -2.17546 0
M  V30 9670 H 837.943 0.824474 -3.57209 0
M  V30 9671 H 837.591 3.28954 -3.80524 0
M  V30 9672 H 837.291 2.44332 -5.34393 0
M  V30 9673 H 838.815 3.34541 -5.10798 0
M  V30 9674 H 840.229 1.13244 -5.62004 0
M  V30 9675 H 838.626 0.430728 -5.98552 0
M  V30 9676 H 839.696 -0.38829 -4.83343 0
M  V30 9677 N 841.039 1.57585 0.0217189 0
M  V30 9678 C 842.002 2.06004 1.00474 0
M  V30 9679 C 843.002 0.965461 1.2859 0
M  V30 9680 O 844.192 1.22884 1.23471 0
M  V30 9681 C 841.324 2.48319 2.33561 0
M  V30 9682 H 842.517 2.94112 0.586346 0
M  V30 9683 H 840.07 1.53973 0.268716 0
M  V30 9684 H 840.805 1.63389 2.80133 0
M  V30 9685 H 840.59 3.28239 2.1448 0
M  V30 9686 H 842.08 2.86181 3.04122 0
M  V30 9687 N 842.517 -0.29412 1.54831 0
M  V30 9688 C 843.465 -1.38296 1.87021 0
M  V30 9689 C 844.459 -1.5216 0.744557 0
M  V30 9690 O 845.665 -1.54196 0.92864 0
M  V30 9691 H 842.04 -0.462088 0.593278 0
M  V30 9692 H 844.011 -1.08386 2.7802 0
M  V30 9693 C 842.76 -2.74024 2.14023 0
M  V30 9694 H 842.083 -2.6414 3.00117 0
M  V30 9695 H 843.523 -3.49205 2.40482 0
M  V30 9696 C 841.982 -3.23492 0.940982 0
M  V30 9697 O 842.512 -4.01361 0.164937 0
M  V30 9698 N 840.718 -2.80902 0.744467 0
M  V30 9699 H 840.265 -2.17694 1.37721 0
M  V30 9700 H 840.223 -3.14349 -0.0563652 0
M  V30 9701 N 843.995 -1.47404 -0.557645 0
M  V30 9702 C 845.225 -1.57393 -1.33832 0
M  V30 9703 C 845.633 -0.222978 -1.87881 0
M  V30 9704 O 844.976 0.793854 -1.65661 0
M  V30 9705 C 845.038 -2.53882 -2.54528 0
M  V30 9706 C 844.702 -3.99585 -2.21767 0
M  V30 9707 C 845.699 -4.88082 -1.79087 0
M  V30 9708 C 843.384 -4.44917 -2.3314 0
M  V30 9709 C 845.378 -6.1993 -1.48209 0
M  V30 9710 C 843.065 -5.76793 -2.01874 0
M  V30 9711 C 844.063 -6.64121 -1.59476 0
M  V30 9712 O 843.751 -7.93546 -1.28607 0
M  V30 9713 H 843.483 -0.534172 -0.41429 0
M  V30 9714 H 846.037 -1.93733 -0.682404 0
M  V30 9715 H 844.267 -2.12609 -3.23009 0
M  V30 9716 H 845.956 -2.54003 -3.16603 0
M  V30 9717 H 846.722 -4.54307 -1.69794 0
M  V30 9718 H 842.601 -3.77152 -2.65099 0
M  V30 9719 H 846.145 -6.88049 -1.15043 0
M  V30 9720 H 842.042 -6.1011 -2.10799 0
M  V30 9721 H 842.81 -8.06046 -1.42241 0
M  V30 9722 N 845.473 0.80434 -1.35529 0
M  V30 9723 C 846.721 1.55845 -1.28673 0
M  V30 9724 C 847.042 1.94511 0.137976 0
M  V30 9725 O 846.312 1.63775 1.07492 0
M  V30 9726 H 844.892 0.577931 -0.473291 0
M  V30 9727 H 847.554 0.959293 -1.69657 0
M  V30 9728 H 846.65 2.47285 -1.90411 0
M  V30 9729 N 846.951 1.19563 1.02676 0
M  V30 9730 C 847.861 0.950691 2.14474 0
M  V30 9731 C 848.877 -0.0900219 1.73767 0
M  V30 9732 O 850.053 0.0951063 2.01175 0
M  V30 9733 C 847.118 0.494917 3.43149 0
M  V30 9734 C 846.179 1.60527 3.98158 0
M  V30 9735 C 845.412 1.17115 5.20692 0
M  V30 9736 O 845.635 0.0355937 5.70389 0
M  V30 9737 O 844.569 1.97454 5.68591 0
M  V30 9738 H 848.395 1.88651 2.38001 0
M  V30 9739 H 845.98 0.978635 1.12885 0
M  V30 9740 H 847.862 0.249492 4.20661 0
M  V30 9741 H 846.537 -0.412434 3.21062 0
M  V30 9742 H 845.444 1.90487 3.21971 0
M  V30 9743 H 846.777 2.48925 4.24614 0
M  V30 9744 N 848.429 -1.21819 0.999893 0
M  V30 9745 C 849.845 -1.42847 0.711824 0
M  V30 9746 C 850.045 -1.88391 -0.714928 0
M  V30 9747 O 849.101 -2.0422 -1.48494 0
M  V30 9748 C 850.414 -2.46417 1.72334 0
M  V30 9749 C 851.962 -2.60207 1.73958 0
M  V30 9750 C 852.437 -3.67005 2.73992 0
M  V30 9751 N 853.928 -3.7447 2.72628 0
M  V30 9752 C 854.663 -4.56718 3.46693 0
M  V30 9753 N 854.159 -5.42904 4.3038 0
M  V30 9754 N 855.952 -4.51094 3.35366 0
M  V30 9755 H 848.103 -0.905656 1.92124 0
M  V30 9756 H 850.366 -0.459893 0.828977 0
M  V30 9757 H 850.072 -2.19914 2.74465 0
M  V30 9758 H 849.946 -3.45137 1.52186 0
M  V30 9759 H 852.333 -2.8605 0.725217 0
M  V30 9760 H 852.414 -1.61739 1.98177 0
M  V30 9761 H 852.058 -3.41908 3.75582 0
M  V30 9762 H 851.988 -4.65058 2.4704 0
M  V30 9763 H 854.479 -3.12895 2.11909 0
M  V30 9764 H 854.792 -6.02704 4.83702 0
M  V30 9765 H 853.137 -5.42463 4.34464 0
M  V30 9766 H 856.328 -3.82791 2.69423 0
M  V30 9767 H 856.501 -5.1496 3.93344 0
M  V30 9768 N 849.908 -0.773975 -1.37286 0
M  V30 9769 C 851.138 -0.350249 -2.03609 0
M  V30 9770 C 851.546 1.03313 -1.58502 0
M  V30 9771 O 850.889 1.67118 -0.7627 0
M  V30 9772 C 850.951 -0.317215 -3.58098 0
M  V30 9773 C 850.615 -1.64556 -4.26345 0
M  V30 9774 C 851.612 -2.59839 -4.50311 0
M  V30 9775 C 849.297 -1.92061 -4.64131 0
M  V30 9776 C 851.291 -3.80833 -5.11122 0
M  V30 9777 C 848.978 -3.13325 -5.24663 0
M  V30 9778 C 849.976 -4.0753 -5.48095 0
M  V30 9779 O 849.664 -5.26658 -6.0736 0
M  V30 9780 H 849.396 -0.144456 -0.660385 0
M  V30 9781 H 851.95 -1.0496 -1.76557 0
M  V30 9782 H 850.18 0.438528 -3.84205 0
M  V30 9783 H 851.869 0.0797428 -4.05822 0
M  V30 9784 H 852.635 -2.39872 -4.21529 0
M  V30 9785 H 848.514 -1.19562 -4.45226 0
M  V30 9786 H 852.058 -4.54377 -5.29327 0
M  V30 9787 H 847.955 -3.33177 -5.52869 0
M  V30 9788 H 848.723 -5.27513 -6.25837 0
M  V30 9789 N 851.386 1.48609 -0.524698 0
M  V30 9790 C 852.634 2.02097 0.0112991 0
M  V30 9791 C 852.955 1.40455 1.35268 0
M  V30 9792 O 852.225 0.56807 1.87483 0
M  V30 9793 H 850.805 0.746966 0.00716426 0
M  V30 9794 H 853.467 1.82378 -0.687329 0
M  V30 9795 H 852.563 3.11855 0.123531 0
M  V30 9796 N 852.864 0.259585 1.55447 0
M  V30 9797 C 854.11 -0.362143 1.9954 0
M  V30 9798 C 854.443 -1.5666 1.14767 0
M  V30 9799 O 853.718 -1.93319 0.214025 0
M  V30 9800 C 854.001 -0.759588 3.51998 0
M  V30 9801 C 853.854 0.451134 4.47532 0
M  V30 9802 C 855.173 -1.60186 4.09913 0
M  V30 9803 H 852.292 -0.130157 0.725416 0
M  V30 9804 H 854.934 0.363431 1.86492 0
M  V30 9805 H 853.084 -1.3778 3.63248 0
M  V30 9806 H 854.756 1.08965 4.48246 0
M  V30 9807 H 852.999 1.092 4.19831 0
M  V30 9808 H 853.67 0.129518 5.51848 0
M  V30 9809 H 856.146 -1.0799 4.01842 0
M  V30 9810 H 855.022 -1.84879 5.16828 0
M  V30 9811 H 855.283 -2.57787 3.59163 0
M  V30 9812 N 854.342 -1.57594 -0.0133615 0
M  V30 9813 C 855.272 -2.10611 -1.00823 0
M  V30 9814 C 856.253 -1.01217 -1.36708 0
M  V30 9815 O 857.438 -1.28827 -1.45318 0
M  V30 9816 C 854.568 -2.59844 -2.30431 0
M  V30 9817 C 853.522 -3.73644 -2.08745 0
M  V30 9818 C 852.848 -4.09141 -3.4425 0
M  V30 9819 C 854.148 -5.01454 -1.46086 0
M  V30 9820 H 855.842 -2.93985 -0.566849 0
M  V30 9821 H 853.388 -1.41423 -0.271219 0
M  V30 9822 H 855.341 -2.95557 -3.00373 0
M  V30 9823 H 854.065 -1.73573 -2.76658 0
M  V30 9824 H 852.724 -3.38303 -1.41232 0
M  V30 9825 H 852.372 -3.19914 -3.88155 0
M  V30 9826 H 852.072 -4.85802 -3.3056 0
M  V30 9827 H 853.596 -4.47402 -4.15528 0
M  V30 9828 H 855.01 -5.35024 -2.05966 0
M  V30 9829 H 853.407 -5.82832 -1.42924 0
M  V30 9830 H 854.477 -4.83003 -0.428471 0
M  V30 9831 N 855.82 0.285905 -1.54985 0
M  V30 9832 C 856.767 1.35306 -1.86978 0
M  V30 9833 C 857.737 1.49682 -0.720046 0
M  V30 9834 O 858.922 1.64297 -0.970107 0
M  V30 9835 C 856.062 2.71059 -2.13591 0
M  V30 9836 C 855.175 2.6501 -3.41165 0
M  V30 9837 C 854.31 3.92856 -3.57544 0
M  V30 9838 C 853.349 3.81266 -4.78855 0
M  V30 9839 N 852.486 5.00919 -4.9196 0
M  V30 9840 H 857.326 1.07323 -2.78003 0
M  V30 9841 H 854.863 0.518776 -1.37649 0
M  V30 9842 H 856.821 3.50026 -2.27019 0
M  V30 9843 H 855.451 2.97271 -1.25816 0
M  V30 9844 H 854.503 1.77824 -3.36278 0
M  V30 9845 H 855.815 2.52342 -4.30262 0
M  V30 9846 H 854.969 4.80263 -3.70718 0
M  V30 9847 H 853.708 4.08377 -2.66608 0
M  V30 9848 H 852.713 2.92243 -4.65698 0
M  V30 9849 H 853.938 3.67277 -5.71213 0
M  V30 9850 H 851.884 5.16875 -4.03951 0
M  V30 9851 H 851.801 4.90732 -5.75081 0
M  V30 9852 H 853.069 5.89935 -5.09507 0
M  V30 9853 N 857.298 1.47698 0.54982 0
M  V30 9854 C 858.23 1.56806 1.67166 0
M  V30 9855 C 859.243 0.453709 1.5635 0
M  V30 9856 O 860.432 0.723663 1.63173 0
M  V30 9857 C 857.532 1.4632 3.05686 0
M  V30 9858 C 856.705 2.72452 3.42182 0
M  V30 9859 C 855.764 2.55698 4.59897 0
M  V30 9860 O 854.79 3.29534 4.64108 0
M  V30 9861 N 855.992 1.64009 5.56849 0
M  V30 9862 H 858.757 2.53545 1.59797 0
M  V30 9863 H 856.318 1.44171 0.736635 0
M  V30 9864 H 858.31 1.32835 3.82279 0
M  V30 9865 H 856.88 0.57634 3.07241 0
M  V30 9866 H 856.1 3.00644 2.54964 0
M  V30 9867 H 857.388 3.56172 3.63344 0
M  V30 9868 H 856.786 1.03186 5.5621 0
M  V30 9869 H 855.343 1.56473 6.3274 0
M  V30 9870 N 858.776 -0.797141 1.35954 0
M  V30 9871 C 860.016 -1.56795 1.31128 0
M  V30 9872 C 860.38 -1.91683 -0.110364 0
M  V30 9873 O 861.581 -2.67305 -0.283093 0
M  V30 9874 C 859.852 -2.81577 2.20111 0
M  V30 9875 S 861.411 -3.71895 2.32894 0
M  V30 9876 H 858.229 -0.53711 0.465869 0
M  V30 9877 H 860.831 -0.939522 1.71445 0
M  V30 9878 H 859.535 -2.53986 3.22365 0
M  V30 9879 H 859.066 -3.49399 1.80786 0
M  V30 9880 H 861.081 -4.72322 1.52073 0
M  V30 9881 N 860.254 -1.20106 -1.0204 0
M  V30 9882 C 861.665 -1.00992 -1.57027 0
M  V30 9883 C 862.016 0.434782 -1.91322 0
M  V30 9884 O 861.141 1.31557 -1.71819 0
M  V30 9885 C 861.736 -1.82697 -2.85319 0
M  V30 9886 C 860.295 -1.67959 -3.36848 0
M  V30 9887 C 859.442 -1.80868 -2.10195 0
M  V30 9888 H 862.393 -1.34354 -0.844676 0
M  V30 9889 H 862.414 -1.32809 -3.5657 0
M  V30 9890 H 861.926 -2.87839 -2.60328 0
M  V30 9891 H 860.027 -0.654389 -3.66809 0
M  V30 9892 H 860.14 -2.49006 -4.09308 0
M  V30 9893 H 858.504 -1.24015 -2.22469 0
M  V30 9894 H 859.287 -2.87486 -1.87635 0
M  V30 9895 N 861.732 1.21287 -1.00634 0
M  V30 9896 C 862.662 2.25973 -0.588089 0
M  V30 9897 C 863.643 1.65527 0.391764 0
M  V30 9898 O 864.828 1.92179 0.279452 0
M  V30 9899 C 861.958 3.47197 0.0847336 0
M  V30 9900 C 860.912 4.20168 -0.815039 0
M  V30 9901 C 860.238 5.34699 -0.00855393 0
M  V30 9902 C 861.538 4.77416 -2.11828 0
M  V30 9903 H 863.232 2.61212 -1.46317 0
M  V30 9904 H 860.778 1.25563 -0.704985 0
M  V30 9905 H 862.731 4.19602 0.388821 0
M  V30 9906 H 861.455 3.11092 0.994456 0
M  V30 9907 H 860.114 3.49614 -1.10297 0
M  V30 9908 H 859.762 4.94837 0.902499 0
M  V30 9909 H 859.462 5.84449 -0.607664 0
M  V30 9910 H 860.986 6.09914 0.289317 0
M  V30 9911 H 862.4 5.41694 -1.87725 0
M  V30 9912 H 860.797 5.37561 -2.66736 0
M  V30 9913 H 861.867 3.96724 -2.78816 0
M  V30 9914 N 863.21 0.781244 1.36873 0
M  V30 9915 C 864.487 0.274217 1.93668 0
M  V30 9916 C 864.867 -1.2323 1.71399 0
M  V30 9917 O 864.215 -2.01993 1.06822 0
M  V30 9918 C 864.425 0.657939 3.42742 0
M  V30 9919 C 865.773 0.63307 4.19854 0
M  V30 9920 O 866.797 0.597909 3.51146 0
M  V30 9921 O 865.656 0.668636 5.42394 0
M  V30 9922 H 862.75 0.0658059 0.824378 0
M  V30 9923 H 865.296 0.863238 1.46104 0
M  V30 9924 H 864.068 1.69728 3.52573 0
M  V30 9925 H 863.691 0.0423678 3.97577 0
M  V30 9926 N 864.689 -1.48329 0.532571 0
M  V30 9927 C 865.938 -2.017 -0.00259705 0
M  V30 9928 C 866.251 -1.41469 -1.35077 0
M  V30 9929 O 867.457 -1.86354 -1.97445 0
M  V30 9930 C 865.913 -3.59858 -0.0550179 0
M  V30 9931 C 865.521 -4.29073 1.28842 0
M  V30 9932 C 867.265 -4.21066 -0.538878 0
M  V30 9933 C 865.172 -5.79171 1.19644 0
M  V30 9934 H 864.102 -0.753985 -0.00474081 0
M  V30 9935 H 866.753 -1.70565 0.676739 0
M  V30 9936 H 865.135 -3.87846 -0.799486 0
M  V30 9937 H 866.309 -4.12755 2.04865 0
M  V30 9938 H 864.624 -3.79748 1.70822 0
M  V30 9939 H 867.221 -5.31026 -0.6257 0
M  V30 9940 H 867.564 -3.86559 -1.54525 0
M  V30 9941 H 868.097 -3.97517 0.149984 0
M  V30 9942 H 864.836 -6.18257 2.17805 0
M  V30 9943 H 864.356 -5.97895 0.477609 0
M  V30 9944 H 866.035 -6.40875 0.888186 0
M  V30 9945 N 866.167 -0.267825 -1.55308 0
M  V30 9946 C 867.413 0.351556 -1.9973 0
M  V30 9947 C 867.746 1.56049 -1.15596 0
M  V30 9948 O 867.021 1.93203 -0.224274 0
M  V30 9949 C 867.304 0.74091 -3.52395 0
M  V30 9950 C 867.157 -0.474861 -4.47286 0
M  V30 9951 C 868.476 1.5801 -4.10756 0
M  V30 9952 H 865.595 0.126308 -0.726096 0
M  V30 9953 H 868.237 -0.373316 -1.86296 0
M  V30 9954 H 866.387 1.35851 -3.63973 0
M  V30 9955 H 868.059 -1.1134 -4.47662 0
M  V30 9956 H 866.302 -1.11425 -4.19246 0
M  V30 9957 H 866.973 -0.158782 -5.51772 0
M  V30 9958 H 869.449 1.05857 -4.0241 0
M  V30 9959 H 868.325 1.82135 -5.17801 0
M  V30 9960 H 868.586 2.55878 -3.60526 0
M  V30 9961 N 867.645 1.57599 0.00500368 0
M  V30 9962 C 868.592 2.08106 0.998025 0
M  V30 9963 C 869.562 0.975374 1.34446 0
M  V30 9964 O 870.747 1.24749 1.44369 0
M  V30 9965 C 867.887 2.58496 2.28635 0
M  V30 9966 C 867 3.82947 1.99939 0
M  V30 9967 C 866.135 4.21857 3.22816 0
M  V30 9968 C 865.174 5.39159 2.89783 0
M  V30 9969 N 864.311 5.73386 4.05183 0
M  V30 9970 H 869.151 2.92684 0.560385 0
M  V30 9971 H 866.688 1.44692 0.265053 0
M  V30 9972 H 868.646 2.85787 3.03943 0
M  V30 9973 H 867.276 1.768 2.70077 0
M  V30 9974 H 866.328 3.62594 1.1502 0
M  V30 9975 H 867.64 4.68358 1.71588 0
M  V30 9976 H 866.794 4.50404 4.06474 0
M  V30 9977 H 865.533 3.35145 3.54301 0
M  V30 9978 H 864.538 5.1034 2.04532 0
M  V30 9979 H 865.763 6.27543 2.59551 0
M  V30 9980 H 863.709 4.89632 4.36574 0
M  V30 9981 H 863.626 6.53359 3.80339 0
M  V30 9982 H 864.894 6.06522 4.89644 0
M  V30 9983 N 869.123 -0.277682 1.55134 0
M  V30 9984 C 870.071 -1.36305 1.88478 0
M  V30 9985 C 871.065 -1.51362 0.760654 0
M  V30 9986 O 872.271 -1.53202 0.944943 0
M  V30 9987 H 868.646 -0.45577 0.598146 0
M  V30 9988 H 870.617 -1.05431 2.79154 0
M  V30 9989 C 869.366 -2.71739 2.16918 0
M  V30 9990 H 868.689 -2.60942 3.02901 0
M  V30 9991 H 870.129 -3.46635 2.44172 0
M  V30 9992 C 868.588 -3.22476 0.975239 0
M  V30 9993 O 869.118 -4.01164 0.207497 0
M  V30 9994 N 867.324 -2.80097 0.774219 0
M  V30 9995 H 866.871 -2.16221 1.40022 0
M  V30 9996 H 866.829 -3.14392 -0.023021 0
M  V30 9997 N 870.601 -1.47988 -0.541979 0
M  V30 9998 C 871.531 -1.64503 -1.65713 0
M  V30 9999 C 872.512 -0.494116 -1.62765 0
M  V30 10000 O 873.697 -0.725256 -1.80149 0
M  V30 10001 C 870.827 -1.67337 -3.04328 0
M  V30 10002 C 869.781 -2.81809 -3.2213 0
M  V30 10003 C 869.107 -2.69724 -4.61685 0
M  V30 10004 C 870.407 -4.23241 -3.06046 0
M  V30 10005 H 872.101 -2.5786 -1.52147 0
M  V30 10006 H 869.647 -1.24094 -0.730529 0
M  V30 10007 H 871.6 -1.77481 -3.82202 0
M  V30 10008 H 870.324 -0.705514 -3.18889 0
M  V30 10009 H 868.983 -2.71201 -2.46669 0
M  V30 10010 H 868.631 -1.70934 -4.73065 0
M  V30 10011 H 868.331 -3.4653 -4.74543 0
M  V30 10012 H 869.855 -2.81818 -5.41674 0
M  V30 10013 H 871.269 -4.34746 -3.73723 0
M  V30 10014 H 869.666 -5.00952 -3.30405 0
M  V30 10015 H 870.736 -4.40543 -2.02609 0
M  V30 10016 N 872.079 0.78992 -1.36375 0
M  V30 10017 C 873.027 1.92394 -1.30719 0
M  V30 10018 C 874.021 1.68226 -0.199076 0
M  V30 10019 O 875.227 1.76239 -0.366051 0
M  V30 10020 H 871.602 0.632382 -0.406936 0
M  V30 10021 H 873.573 1.94282 -2.26488 0
M  V30 10022 C 872.322 3.2941 -1.11284 0
M  V30 10023 H 871.645 3.48573 -1.95798 0
M  V30 10024 H 873.085 4.09111 -1.11373 0
M  V30 10025 C 871.544 3.36405 0.182543 0
M  V30 10026 O 872.074 3.84206 1.17255 0
M  V30 10027 N 870.28 2.89712 0.227046 0
M  V30 10028 H 869.827 2.51004 -0.579217 0
M  V30 10029 H 869.785 2.94773 1.09344 0
M  V30 10030 N 873.557 1.20646 1.01402 0
M  V30 10031 C 874.489 0.915392 2.10127 0
M  V30 10032 C 875.502 -0.0978705 1.62506 0
M  V30 10033 O 876.691 0.133477 1.78 0
M  V30 10034 C 873.791 0.351304 3.37074 0
M  V30 10035 C 872.964 1.41673 4.13821 0
M  V30 10036 C 872.023 0.8635 5.19067 0
M  V30 10037 O 871.049 1.54481 5.47836 0
M  V30 10038 N 872.251 -0.325799 5.79585 0
M  V30 10039 H 875.016 1.85132 2.35682 0
M  V30 10040 H 872.577 1.11048 1.17813 0
M  V30 10041 H 874.569 -0.032996 4.04687 0
M  V30 10042 H 873.139 -0.489242 3.08748 0
M  V30 10043 H 872.359 1.97526 3.41141 0
M  V30 10044 H 873.647 2.1342 4.61876 0
M  V30 10045 H 873.045 -0.896534 5.58551 0
M  V30 10046 H 871.602 -0.651708 6.48534 0
M  V30 10047 N 875.035 -1.20752 1.01276 0
M  V30 10048 C 875.967 -2.22798 0.537917 0
M  V30 10049 C 876.98 -1.5836 -0.377638 0
M  V30 10050 O 878.169 -1.77624 -0.176599 0
M  V30 10051 C 875.269 -3.38068 -0.237364 0
M  V30 10052 C 874.442 -4.32095 0.679161 0
M  V30 10053 C 873.501 -5.26178 -0.0478676 0
M  V30 10054 O 872.527 -5.66305 0.573366 0
M  V30 10055 N 873.729 -5.65201 -1.32396 0
M  V30 10056 H 876.494 -2.64166 1.4155 0
M  V30 10057 H 874.055 -1.35254 0.889826 0
M  V30 10058 H 876.047 -3.98009 -0.73288 0
M  V30 10059 H 874.617 -2.95622 -1.0162 0
M  V30 10060 H 873.837 -3.70179 1.35505 0
M  V30 10061 H 875.125 -4.91842 1.30263 0
M  V30 10062 H 874.523 -5.34606 -1.84968 0
M  V30 10063 H 873.08 -6.27468 -1.76428 0
M  V30 10064 N 876.513 -0.788492 -1.36457 0
M  V30 10065 C 877.753 -0.365855 -2.01099 0
M  V30 10066 C 878.117 1.04262 -1.61225 0
M  V30 10067 O 879.318 1.56628 -2.18451 0
M  V30 10068 C 877.589 -0.523344 -3.53548 0
M  V30 10069 S 879.148 -0.188448 -4.38395 0
M  V30 10070 H 875.966 -0.139832 -0.697114 0
M  V30 10071 H 878.568 -1.02678 -1.66365 0
M  V30 10072 H 877.272 -1.54874 -3.80055 0
M  V30 10073 H 876.803 0.153547 -3.931 0
M  V30 10074 H 878.818 1.0103 -4.85806 0
M  V30 10075 N 877.991 1.48044 -0.54043 0
M  V30 10076 C 878.901 2.33565 0.220163 0
M  V30 10077 C 879.917 1.47146 0.928659 0
M  V30 10078 O 881.093 1.80107 0.901295 0
M  V30 10079 C 878.158 3.2349 1.2472 0
M  V30 10080 C 877.219 4.25789 0.547938 0
M  V30 10081 C 876.452 5.11417 1.52605 0
M  V30 10082 O 876.675 4.99204 2.75956 0
M  V30 10083 O 875.609 5.92498 1.05972 0
M  V30 10084 H 879.435 2.99868 -0.480898 0
M  V30 10085 H 877.02 1.46332 -0.301226 0
M  V30 10086 H 878.902 3.79084 1.84047 0
M  V30 10087 H 877.577 2.59835 1.93048 0
M  V30 10088 H 876.484 3.74001 -0.0860941 0
M  V30 10089 H 877.817 4.92111 -0.0935896 0
M  V30 10090 N 879.47 0.276058 1.55163 0
M  V30 10091 C 880.7 -0.343274 2.03728 0
M  V30 10092 C 881.108 -1.49945 1.15383 0
M  V30 10093 O 880.451 -1.82942 0.166696 0
M  V30 10094 C 880.513 -0.885683 3.48419 0
M  V30 10095 C 880.177 0.141976 4.56779 0
M  V30 10096 C 881.174 0.961816 5.10926 0
M  V30 10097 C 878.859 0.276487 5.01538 0
M  V30 10098 C 880.853 1.90234 6.0835 0
M  V30 10099 C 878.54 1.22049 5.98788 0
M  V30 10100 C 879.538 2.03192 6.52075 0
M  V30 10101 O 879.226 2.95996 7.47423 0
M  V30 10102 H 878.958 -0.0822192 0.670981 0
M  V30 10103 H 881.512 0.406199 2.01343 0
M  V30 10104 H 879.742 -1.68524 3.48047 0
M  V30 10105 H 881.431 -1.4182 3.80318 0
M  V30 10106 H 882.197 0.868637 4.77158 0
M  V30 10107 H 878.076 -0.345095 4.59707 0
M  V30 10108 H 881.62 2.5361 6.49867 0
M  V30 10109 H 877.517 1.31448 6.31974 0
M  V30 10110 H 878.285 2.90688 7.65142 0
M  V30 10111 N 880.948 -1.576 0.00335426 0
M  V30 10112 C 882.194 -1.90996 -0.681799 0
M  V30 10113 C 882.527 -0.877643 -1.73237 0
M  V30 10114 O 881.802 0.103183 -1.94226 0
M  V30 10115 C 882.085 -3.34961 -1.32187 0
M  V30 10116 C 881.938 -4.48911 -0.28261 0
M  V30 10117 C 883.257 -3.78408 -2.24711 0
M  V30 10118 H 880.376 -0.694596 -0.246386 0
M  V30 10119 H 883.018 -1.89919 0.055336 0
M  V30 10120 H 881.168 -3.36008 -1.95014 0
M  V30 10121 H 882.84 -4.59999 0.346241 0
M  V30 10122 H 881.083 -4.32 0.394768 0
M  V30 10123 H 881.754 -5.46609 -0.769576 0
M  V30 10124 H 884.23 -3.78934 -1.71897 0
M  V30 10125 H 883.106 -4.79885 -2.66461 0
M  V30 10126 H 883.367 -3.12464 -3.1276 0
M  V30 10127 N 882.426 0.269451 -1.5528 0
M  V30 10128 C 883.651 1.02299 -1.80415 0
M  V30 10129 C 884.076 1.7902 -0.577363 0
M  V30 10130 O 883.434 1.75018 0.473125 0
M  V30 10131 C 883.482 1.95445 -3.0304 0
M  V30 10132 O 882.586 3.04271 -2.78375 0
M  V30 10133 H 881.927 0.292289 -0.596207 0
M  V30 10134 H 884.457 0.297282 -2.02429 0
M  V30 10135 H 884.467 2.37333 -3.31869 0
M  V30 10136 H 883.142 1.39017 -3.91978 0
M  V30 10137 H 881.719 2.66673 -2.60653 0
M  V30 10138 N 883.904 1.48273 0.534124 0
M  V30 10139 C 885.151 1.56079 1.29017 0
M  V30 10140 C 885.479 0.232912 1.931 0
M  V30 10141 O 884.734 -0.77642 1.79639 0
M  V30 10142 C 885.033 2.64468 2.40398 0
M  V30 10143 C 884.699 4.07034 1.93995 0
M  V30 10144 C 883.361 4.45838 1.81058 0
M  V30 10145 C 885.713 4.96395 1.58877 0
M  V30 10146 C 883.041 5.71812 1.31331 0
M  V30 10147 C 885.393 6.22854 1.10614 0
M  V30 10148 C 884.057 6.60518 0.962895 0
M  V30 10149 H 883.327 0.571135 0.472108 0
M  V30 10150 H 885.974 1.81973 0.5965 0
M  V30 10151 H 884.279 2.32419 3.15418 0
M  V30 10152 H 885.976 2.67725 2.98537 0
M  V30 10153 H 882.566 3.76387 2.05015 0
M  V30 10154 H 886.75 4.67096 1.67734 0
M  V30 10155 H 882.006 5.99722 1.18924 0
M  V30 10156 H 886.18 6.91495 0.825095 0
M  V30 10157 H 883.807 7.58019 0.575369 0
M  V30 10158 N 885.382 -0.782676 1.36792 0
M  V30 10159 C 886.292 -1.92679 1.33835 0
M  V30 10160 C 887.308 -1.72344 0.23952 0
M  V30 10161 O 888.484 -1.95766 0.473045 0
M  V30 10162 C 885.549 -3.27644 1.1336 0
M  V30 10163 C 884.61 -3.6071 2.32781 0
M  V30 10164 C 883.843 -4.89234 2.13273 0
M  V30 10165 O 884.066 -5.59468 1.11136 0
M  V30 10166 O 883 -5.21112 3.01208 0
M  V30 10167 H 886.826 -1.98124 2.30175 0
M  V30 10168 H 884.411 -0.923887 1.17408 0
M  V30 10169 H 886.293 -4.08394 1.03886 0
M  V30 10170 H 884.968 -3.23076 0.200868 0
M  V30 10171 H 883.875 -2.80238 2.47825 0
M  V30 10172 H 885.208 -3.70008 3.24584 0
M  V30 10173 N 886.86 -1.21182 -1.00761 0
M  V30 10174 C 888.109 -1.02166 -1.73911 0
M  V30 10175 C 888.422 0.445638 -1.90456 0
M  V30 10176 O 889.628 0.755132 -2.60787 0
M  V30 10177 C 888.084 -1.77936 -3.12837 0
M  V30 10178 C 887.692 -3.28819 -3.04273 0
M  V30 10179 C 889.436 -1.67319 -3.90134 0
M  V30 10180 C 887.343 -3.97089 -4.38262 0
M  V30 10181 H 886.273 -0.378665 -0.652019 0
M  V30 10182 H 888.924 -1.44891 -1.12601 0
M  V30 10183 H 887.306 -1.28003 -3.74742 0
M  V30 10184 H 888.48 -3.86035 -2.51622 0
M  V30 10185 H 886.795 -3.39949 -2.40465 0
M  V30 10186 H 889.392 -2.15659 -4.8928 0
M  V30 10187 H 889.735 -0.630959 -4.11491 0
M  V30 10188 H 890.268 -2.14716 -3.34876 0
M  V30 10189 H 887.007 -5.01503 -4.22107 0
M  V30 10190 H 886.527 -3.44662 -4.90885 0
M  V30 10191 H 888.206 -4.01854 -5.07072 0
M  V30 10192 N 888.338 1.20213 -1.01915 0
M  V30 10193 C 889.285 2.2309 -0.591571 0
M  V30 10194 C 890.255 1.61465 0.389649 0
M  V30 10195 O 891.44 1.88606 0.288511 0
M  V30 10196 C 888.58 3.45045 0.0614028 0
M  V30 10197 C 887.693 4.21091 -0.964688 0
M  V30 10198 C 886.828 5.30448 -0.282499 0
M  V30 10199 C 885.867 5.98241 -1.29517 0
M  V30 10200 N 885.004 6.99182 -0.639472 0
M  V30 10201 H 889.844 2.59023 -1.47347 0
M  V30 10202 H 887.381 1.27274 -0.737547 0
M  V30 10203 H 889.339 4.14688 0.45714 0
M  V30 10204 H 887.969 3.09797 0.906937 0
M  V30 10205 H 887.021 3.50489 -1.47857 0
M  V30 10206 H 888.333 4.67662 -1.73475 0
M  V30 10207 H 887.487 6.06466 0.168603 0
M  V30 10208 H 886.226 4.84922 0.519843 0
M  V30 10209 H 885.231 5.20982 -1.75663 0
M  V30 10210 H 886.456 6.45853 -2.09884 0
M  V30 10211 H 884.402 6.55844 0.142955 0
M  V30 10212 H 884.319 7.43893 -1.34756 0
M  V30 10213 H 885.587 7.79212 -0.212047 0
M  V30 10214 N 889.816 0.795718 1.36037 0
M  V30 10215 C 890.763 0.196548 2.29962 0
M  V30 10216 C 891.733 -0.663213 1.52285 0
M  V30 10217 O 892.918 -0.610574 1.80767 0
M  V30 10218 C 890.058 -0.657639 3.38776 0
M  V30 10219 C 889.171 0.221358 4.31433 0
M  V30 10220 C 888.306 -0.6398 5.27333 0
M  V30 10221 C 887.345 0.240265 6.11628 0
M  V30 10222 N 886.482 -0.580237 6.99698 0
M  V30 10223 H 891.322 1.00295 2.80615 0
M  V30 10224 H 888.859 0.506147 1.38118 0
M  V30 10225 H 890.817 -1.16793 4.00519 0
M  V30 10226 H 889.447 -1.42941 2.89426 0
M  V30 10227 H 888.499 0.84967 3.70789 0
M  V30 10228 H 889.811 0.899195 4.90628 0
M  V30 10229 H 888.965 -1.21566 5.94396 0
M  V30 10230 H 887.704 -1.35124 4.68607 0
M  V30 10231 H 886.709 0.828474 5.43522 0
M  V30 10232 H 887.934 0.949403 6.72431 0
M  V30 10233 H 885.88 -1.27585 6.43473 0
M  V30 10234 H 885.797 0.0397853 7.5599 0
M  V30 10235 H 887.065 -1.13972 7.71123 0
M  V30 10236 N 891.294 -1.47756 0.548274 0
M  V30 10237 C 892.224 -2.32702 -0.19284 0
M  V30 10238 C 893.205 -1.43237 -0.917457 0
M  V30 10239 O 894.39 -1.72103 -0.89967 0
M  V30 10240 C 891.52 -3.24831 -1.22891 0
M  V30 10241 C 890.474 -4.23466 -0.621312 0
M  V30 10242 C 889.8 -5.04856 -1.76137 0
M  V30 10243 C 891.1 -5.20616 0.419055 0
M  V30 10244 H 892.794 -2.94914 0.516323 0
M  V30 10245 H 890.34 -1.41818 0.24975 0
M  V30 10246 H 892.293 -3.83094 -1.75547 0
M  V30 10247 H 891.017 -2.60656 -1.9679 0
M  V30 10248 H 889.676 -3.66416 -0.116123 0
M  V30 10249 H 889.324 -4.37091 -2.48918 0
M  V30 10250 H 889.024 -5.71629 -1.36065 0
M  V30 10251 H 890.548 -5.65976 -2.29136 0
M  V30 10252 H 891.962 -5.73296 -0.0211034 0
M  V30 10253 H 890.359 -5.95543 0.738163 0
M  V30 10254 H 891.429 -4.66638 1.31822 0
M  V30 10255 N 892.772 -0.284283 -1.55015 0
M  V30 10256 C 894.021 0.33055 -1.98973 0
M  V30 10257 C 894.334 1.56284 -1.17621 0
M  V30 10258 O 895.54 2.2512 -1.51767 0
M  V30 10259 C 893.996 0.639457 -3.54174 0
M  V30 10260 C 893.604 -0.573543 -4.44313 0
M  V30 10261 C 895.348 1.21641 -4.06699 0
M  V30 10262 C 893.255 -0.238715 -5.90918 0
M  V30 10263 H 892.185 0.127285 -0.743179 0
M  V30 10264 H 894.836 -0.390372 -1.793 0
M  V30 10265 H 893.218 1.41953 -3.69683 0
M  V30 10266 H 894.392 -1.3502 -4.40575 0
M  V30 10267 H 892.707 -1.06797 -4.02472 0
M  V30 10268 H 895.304 1.48088 -5.13784 0
M  V30 10269 H 895.647 2.15328 -3.56286 0
M  V30 10270 H 896.18 0.498422 -3.94665 0
M  V30 10271 H 892.919 -1.1437 -6.45445 0
M  V30 10272 H 892.439 0.500997 -5.97704 0
M  V30 10273 H 894.118 0.165774 -6.46788 0
M  V30 10274 N 894.251 1.57596 -0.0117121 0
M  V30 10275 C 895.498 1.91071 0.670667 0
M  V30 10276 C 895.826 0.886457 1.73125 0
M  V30 10277 O 895.081 -0.107135 1.95407 0
M  V30 10278 C 895.38 3.31296 1.34082 0
M  V30 10279 C 895.046 4.49011 0.412305 0
M  V30 10280 C 893.708 4.80945 0.156691 0
M  V30 10281 C 896.06 5.20709 -0.226294 0
M  V30 10282 C 893.388 5.81943 -0.745619 0
M  V30 10283 C 895.74 6.22668 -1.11655 0
M  V30 10284 C 894.404 6.53053 -1.38123 0
M  V30 10285 H 893.674 0.69918 0.245415 0
M  V30 10286 H 896.321 1.91373 -0.0697511 0
M  V30 10287 H 894.626 3.27174 2.15557 0
M  V30 10288 H 896.323 3.54461 1.87506 0
M  V30 10289 H 892.913 4.24067 0.621705 0
M  V30 10290 H 897.097 4.96282 -0.0418456 0
M  V30 10291 H 892.353 6.03839 -0.958566 0
M  V30 10292 H 896.527 6.77351 -1.61767 0
M  V30 10293 H 894.154 7.31132 -2.08208 0
M  V30 10294 N 895.729 -0.261212 1.5542 0
M  V30 10295 C 897.14 -0.83138 1.67167 0
M  V30 10296 C 897.491 -1.8659 0.606525 0
M  V30 10297 O 896.616 -2.14953 -0.24985 0
M  V30 10298 C 897.211 -1.51475 3.03052 0
M  V30 10299 C 895.77 -2.0328 3.16787 0
M  V30 10300 C 894.917 -0.878903 2.63003 0
M  V30 10301 H 897.868 -0.0373102 1.58656 0
M  V30 10302 H 897.889 -2.38222 2.96699 0
M  V30 10303 H 897.401 -0.76157 3.80554 0
M  V30 10304 H 895.502 -2.81523 2.44082 0
M  V30 10305 H 895.615 -2.24001 4.2351 0
M  V30 10306 H 893.979 -1.27551 2.2046 0
M  V30 10307 H 894.762 -0.13904 3.43018 0
M  V30 10308 N 897.207 -1.48554 -0.526253 0
M  V30 10309 C 898.456 -1.56014 -1.27837 0
M  V30 10310 C 898.769 -0.240643 -1.94114 0
M  V30 10311 O 899.975 -0.193525 -2.70809 0
M  V30 10312 C 898.431 -2.75161 -2.31979 0
M  V30 10313 C 898.039 -4.13768 -1.71755 0
M  V30 10314 C 899.783 -2.91936 -3.08178 0
M  V30 10315 C 897.69 -5.24171 -2.7386 0
M  V30 10316 H 896.62 -0.58082 -0.480795 0
M  V30 10317 H 899.271 -1.74895 -0.555335 0
M  V30 10318 H 897.653 -2.49722 -3.07335 0
M  V30 10319 H 898.827 -4.49241 -1.02563 0
M  V30 10320 H 897.142 -4.02141 -1.08036 0
M  V30 10321 H 899.739 -3.71586 -3.84484 0
M  V30 10322 H 900.082 -2.01533 -3.64267 0
M  V30 10323 H 900.615 -3.17294 -2.39937 0
M  V30 10324 H 897.354 -6.16552 -2.22586 0
M  V30 10325 H 896.874 -4.93181 -3.41368 0
M  V30 10326 H 898.553 -5.52442 -3.36774 0
M  V30 10327 N 898.685 0.775411 -1.37205 0
M  V30 10328 C 899.633 1.90996 -1.32752 0
M  V30 10329 C 900.627 1.68006 -0.216907 0
M  V30 10330 O 901.833 1.7584 -0.384723 0
M  V30 10331 H 898.208 0.62803 -0.413621 0
M  V30 10332 H 900.179 1.91869 -2.28536 0
M  V30 10333 C 898.928 3.28211 -1.14772 0
M  V30 10334 H 898.251 3.46477 -1.99484 0
M  V30 10335 H 899.691 4.07907 -1.15706 0
M  V30 10336 C 898.15 3.3658 0.146852 0
M  V30 10337 O 898.68 3.85428 1.13173 0
M  V30 10338 N 896.886 2.89936 0.196305 0
M  V30 10339 H 896.433 2.50375 -0.605807 0
M  V30 10340 H 896.391 2.95916 1.06212 0
M  V30 10341 N 900.163 1.21714 1.00117 0
M  V30 10342 C 901.412 1.03087 1.73367 0
M  V30 10343 C 901.725 -0.435532 1.90689 0
M  V30 10344 O 902.931 -0.741291 2.61184 0
M  V30 10345 C 901.387 1.79593 3.11888 0
M  V30 10346 C 900.995 3.30428 3.02525 0
M  V30 10347 C 902.739 1.69386 3.89241 0
M  V30 10348 C 900.646 3.99408 4.3615 0
M  V30 10349 H 899.576 0.382117 0.650002 0
M  V30 10350 H 902.227 1.45486 1.11831 0
M  V30 10351 H 900.609 1.29988 3.74058 0
M  V30 10352 H 901.783 3.87364 2.49571 0
M  V30 10353 H 900.098 3.4122 2.38659 0
M  V30 10354 H 902.695 2.18251 4.8813 0
M  V30 10355 H 903.038 0.652773 4.1115 0
M  V30 10356 H 903.571 2.16489 3.33733 0
M  V30 10357 H 900.31 5.03735 4.19442 0
M  V30 10358 H 899.83 3.47261 4.8905 0
M  V30 10359 H 901.509 4.04537 5.04934 0
M  V30 10360 N 901.641 -1.19671 1.02551 0
M  V30 10361 C 902.888 -1.89268 0.720002 0
M  V30 10362 C 903.216 -1.79411 -0.751127 0
M  V30 10363 O 902.471 -1.17859 -1.5623 0
M  V30 10364 C 902.77 -3.39647 1.11241 0
M  V30 10365 C 902.436 -3.69706 2.58125 0
M  V30 10366 C 901.098 -3.7762 2.98256 0
M  V30 10367 C 903.45 -3.83301 3.53171 0
M  V30 10368 C 900.778 -3.96594 4.32354 0
M  V30 10369 C 903.13 -4.03788 4.86968 0
M  V30 10370 C 901.794 -4.09934 5.26793 0
M  V30 10371 H 901.064 -0.692579 0.263467 0
M  V30 10372 H 903.711 -1.41738 1.28774 0
M  V30 10373 H 902.016 -3.89052 0.463234 0
M  V30 10374 H 903.713 -3.91809 0.853602 0
M  V30 10375 H 900.303 -3.64152 2.26033 0
M  V30 10376 H 904.487 -3.76534 3.2332 0
M  V30 10377 H 899.743 -3.9959 4.6275 0
M  V30 10378 H 903.917 -4.1325 5.60533 0
M  V30 10379 H 901.544 -4.24389 6.30712 0
M  V30 10380 N 903.119 -0.802921 -1.35613 0
M  V30 10381 C 904.365 -0.382141 -1.99167 0
M  V30 10382 C 904.698 1.04704 -1.63556 0
M  V30 10383 O 903.973 1.72578 -0.89706 0
M  V30 10384 C 904.256 -0.561493 -3.55695 0
M  V30 10385 C 904.109 -2.03534 -4.01116 0
M  V30 10386 C 905.428 0.0151135 -4.40097 0
M  V30 10387 H 902.547 -0.140322 -0.723518 0
M  V30 10388 H 905.189 -1.01177 -1.6082 0
M  V30 10389 H 903.339 -0.0255083 -3.88492 0
M  V30 10390 H 905.011 -2.63343 -3.78746 0
M  V30 10391 H 903.254 -2.5331 -3.52159 0
M  V30 10392 H 903.925 -2.11173 -5.1001 0
M  V30 10393 H 906.401 -0.442582 -4.1374 0
M  V30 10394 H 905.277 -0.140316 -5.48721 0
M  V30 10395 H 905.538 1.10848 -4.27978 0
M  V30 10396 N 904.597 1.47463 -0.556102 0
M  V30 10397 C 905.545 2.31692 0.205299 0
M  V30 10398 C 906.539 1.42857 0.910394 0
M  V30 10399 O 907.745 1.59628 0.831806 0
M  V30 10400 H 904.12 0.747172 0.0850775 0
M  V30 10401 H 906.091 2.93758 -0.524305 0
M  V30 10402 C 904.84 3.25487 1.22283 0
M  V30 10403 H 904.163 3.93806 0.689697 0
M  V30 10404 H 905.603 3.87257 1.7265 0
M  V30 10405 C 904.062 2.48931 2.27013 0
M  V30 10406 O 904.592 2.23296 3.33919 0
M  V30 10407 N 902.798 2.0996 2.00911 0
M  V30 10408 H 902.345 2.31008 1.13986 0
M  V30 10409 H 902.303 1.59053 2.712 0
M  V30 10410 N 906.075 0.2925 1.54862 0
M  V30 10411 C 907.005 -0.580677 2.26165 0
M  V30 10412 C 907.986 -1.14485 1.25806 0
M  V30 10413 O 909.171 -1.17577 1.54562 0
M  V30 10414 C 906.301 -1.75668 2.99596 0
M  V30 10415 C 905.255 -1.32325 4.07031 0
M  V30 10416 C 904.581 -2.58374 4.68131 0
M  V30 10417 C 905.881 -0.460703 5.20264 0
M  V30 10418 H 907.575 0.0140075 2.99397 0
M  V30 10419 H 905.121 0.00817706 1.43998 0
M  V30 10420 H 907.074 -2.37356 3.48195 0
M  V30 10421 H 905.798 -2.37747 2.23928 0
M  V30 10422 H 904.457 -0.729477 3.59269 0
M  V30 10423 H 904.105 -3.18749 3.89112 0
M  V30 10424 H 903.805 -2.30078 5.40683 0
M  V30 10425 H 905.329 -3.2088 5.19489 0
M  V30 10426 H 906.743 -0.983037 5.64809 0
M  V30 10427 H 905.14 -0.271881 5.99484 0
M  V30 10428 H 906.21 0.516304 4.82143 0
M  V30 10429 N 907.553 -1.57587 0.0200696 0
M  V30 10430 C 908.483 -2.12702 -0.963333 0
M  V30 10431 C 909.464 -1.04094 -1.34531 0
M  V30 10432 O 910.649 -1.31881 -1.42552 0
M  V30 10433 C 907.779 -2.64673 -2.24868 0
M  V30 10434 C 906.733 -3.77987 -2.00772 0
M  V30 10435 C 906.059 -4.16351 -3.35494 0
M  V30 10436 C 907.359 -5.0444 -1.35416 0
M  V30 10437 H 909.053 -2.95121 -0.504363 0
M  V30 10438 H 906.599 -1.41966 -0.24116 0
M  V30 10439 H 908.552 -3.01862 -2.94036 0
M  V30 10440 H 907.276 -1.79403 -2.72914 0
M  V30 10441 H 905.935 -3.41223 -1.34025 0
M  V30 10442 H 905.583 -3.28075 -3.81282 0
M  V30 10443 H 905.283 -4.92705 -3.20181 0
M  V30 10444 H 906.807 -4.56115 -4.05945 0
M  V30 10445 H 908.221 -5.39273 -1.94571 0
M  V30 10446 H 906.618 -5.85732 -1.30529 0
M  V30 10447 H 907.688 -4.83803 -0.325923 0
M  V30 10448 N 909.032 0.252966 -1.55557 0
M  V30 10449 C 910.281 0.979736 -1.76307 0
M  V30 10450 C 910.594 1.86714 -0.582871 0
M  V30 10451 O 911.8 2.6302 -0.673247 0
M  V30 10452 C 910.256 1.79205 -3.12112 0
M  V30 10453 C 909.864 0.952333 -4.37761 0
M  V30 10454 C 911.608 2.51191 -3.42203 0
M  V30 10455 C 909.515 1.76018 -5.64599 0
M  V30 10456 H 908.445 0.369538 -0.657235 0
M  V30 10457 H 911.096 0.234619 -1.81994 0
M  V30 10458 H 909.478 2.57888 -3.00515 0
M  V30 10459 H 910.652 0.208251 -4.60329 0
M  V30 10460 H 908.967 0.346082 -4.14959 0
M  V30 10461 H 911.564 3.12074 -4.34182 0
M  V30 10462 H 911.907 3.22499 -2.63249 0
M  V30 10463 H 912.44 1.79523 -3.54988 0
M  V30 10464 H 909.179 1.09095 -6.46358 0
M  V30 10465 H 908.699 2.4797 -5.46142 0
M  V30 10466 H 910.378 2.32884 -6.03634 0
M  V30 10467 N 910.51 1.48831 0.518367 0
M  V30 10468 C 911.921 1.50842 1.10016 0
M  V30 10469 C 912.272 0.284744 1.94123 0
M  V30 10470 O 911.397 -0.607088 2.0771 0
M  V30 10471 C 911.992 2.73329 2.00191 0
M  V30 10472 C 910.551 2.78175 2.53566 0
M  V30 10473 C 909.698 2.4452 1.30786 0
M  V30 10474 H 912.649 1.55779 0.303073 0
M  V30 10475 H 912.67 2.52506 2.84642 0
M  V30 10476 H 912.182 3.62374 1.3895 0
M  V30 10477 H 910.283 1.93368 3.18496 0
M  V30 10478 H 910.396 3.79905 2.91906 0
M  V30 10479 H 908.76 1.95924 1.62744 0
M  V30 10480 H 909.543 3.35819 0.712797 0
M  V30 10481 N 911.988 -0.768124 1.37614 0
M  V30 10482 C 912.918 -1.89537 1.36374 0
M  V30 10483 C 913.899 -1.68513 0.231803 0
M  V30 10484 O 915.084 -1.89318 0.432705 0
M  V30 10485 C 912.214 -3.26871 1.17358 0
M  V30 10486 C 911.168 -3.62466 2.27602 0
M  V30 10487 C 910.494 -4.9838 1.93705 0
M  V30 10488 C 911.794 -3.68841 3.69802 0
M  V30 10489 H 913.488 -1.90832 2.30702 0
M  V30 10490 H 911.034 -0.91672 1.11051 0
M  V30 10491 H 912.987 -4.05371 1.15119 0
M  V30 10492 H 911.711 -3.26018 0.194865 0
M  V30 10493 H 910.37 -2.86276 2.29002 0
M  V30 10494 H 910.018 -4.94071 0.943539 0
M  V30 10495 H 909.718 -5.23165 2.6753 0
M  V30 10496 H 911.242 -5.79276 1.93059 0
M  V30 10497 H 912.656 -4.37485 3.70513 0
M  V30 10498 H 911.053 -4.05126 4.42711 0
M  V30 10499 H 912.123 -2.69415 4.03167 0
M  V30 10500 N 913.466 -1.22244 -0.994698 0
M  V30 10501 C 914.713 -1.04591 -1.73398 0
M  V30 10502 C 915.041 0.419223 -1.89928 0
M  V30 10503 O 914.296 1.32714 -1.43824 0
M  V30 10504 C 914.595 -1.70014 -3.14372 0
M  V30 10505 C 914.261 -3.19903 -3.17762 0
M  V30 10506 C 912.923 -3.60803 -3.18394 0
M  V30 10507 C 915.275 -4.15851 -3.14194 0
M  V30 10508 C 912.603 -4.96135 -3.13157 0
M  V30 10509 C 914.955 -5.51157 -3.10498 0
M  V30 10510 C 913.619 -5.91439 -3.09445 0
M  V30 10511 H 912.889 -0.382725 -0.63451 0
M  V30 10512 H 915.536 -1.51981 -1.16508 0
M  V30 10513 H 913.841 -1.14945 -3.7456 0
M  V30 10514 H 915.538 -1.53848 -3.70313 0
M  V30 10515 H 912.128 -2.87336 -3.18019 0
M  V30 10516 H 916.312 -3.85272 -3.12857 0
M  V30 10517 H 911.568 -5.26578 -3.10685 0
M  V30 10518 H 915.742 -6.2523 -3.06692 0
M  V30 10519 H 913.369 -6.96271 -3.05141 0
M  V30 10520 N 914.944 1.19125 -1.03184 0
M  V30 10521 C 915.874 2.24675 -0.635889 0
M  V30 10522 C 916.855 1.66321 0.356565 0
M  V30 10523 O 918.04 1.92728 0.238625 0
M  V30 10524 C 915.17 3.47298 0.011069 0
M  V30 10525 C 914.124 4.18345 -0.903979 0
M  V30 10526 C 913.45 5.34561 -0.12197 0
M  V30 10527 C 914.75 4.72816 -2.21907 0
M  V30 10528 H 916.444 2.5805 -1.51825 0
M  V30 10529 H 913.99 1.24039 -0.73146 0
M  V30 10530 H 915.943 4.20333 0.299729 0
M  V30 10531 H 914.667 3.13131 0.928245 0
M  V30 10532 H 913.326 3.47196 -1.17688 0
M  V30 10533 H 912.974 4.9664 0.797334 0
M  V30 10534 H 912.674 5.83029 -0.731498 0
M  V30 10535 H 914.198 6.10391 0.159881 0
M  V30 10536 H 915.612 5.3759 -1.99173 0
M  V30 10537 H 914.009 5.31782 -2.78078 0
M  V30 10538 H 915.079 3.9072 -2.87168 0
M  V30 10539 N 916.422 0.810101 1.35185 0
M  V30 10540 C 917.833 0.452616 1.81131 0
M  V30 10541 C 918.184 -1.02573 1.67252 0
M  V30 10542 O 917.309 -1.79735 1.20516 0
M  V30 10543 C 917.904 0.814775 3.28857 0
M  V30 10544 C 916.463 0.509839 3.72931 0
M  V30 10545 C 915.61 1.03852 2.57119 0
M  V30 10546 H 918.561 1.00143 1.23114 0
M  V30 10547 H 918.582 0.113635 3.8033 0
M  V30 10548 H 918.094 1.89078 3.38926 0
M  V30 10549 H 916.195 -0.557289 3.68409 0
M  V30 10550 H 916.308 1.04493 4.67566 0
M  V30 10551 H 914.672 0.460671 2.50499 0
M  V30 10552 H 915.455 2.12071 2.69964 0
M  V30 10553 N 917.9 -1.47166 0.563914 0
M  V30 10554 C 919.13 -2.06546 0.0473599 0
M  V30 10555 C 919.538 -1.41607 -1.25476 0
M  V30 10556 O 918.881 -0.50894 -1.76509 0
M  V30 10557 C 918.943 -3.58873 -0.212249 0
M  V30 10558 C 918.607 -4.45893 1.00144 0
M  V30 10559 C 919.604 -4.83594 1.90873 0
M  V30 10560 C 917.289 -4.87309 1.218 0
M  V30 10561 C 919.283 -5.61519 3.01621 0
M  V30 10562 C 916.97 -5.64997 2.32856 0
M  V30 10563 C 917.968 -6.02013 3.22597 0
M  V30 10564 O 917.656 -6.78135 4.31727 0
M  V30 10565 H 917.388 -0.674441 0.0458823 0
M  V30 10566 H 919.942 -1.9006 0.778865 0
M  V30 10567 H 918.172 -3.73596 -0.998145 0
M  V30 10568 H 919.861 -4.00248 -0.675005 0
M  V30 10569 H 920.627 -4.52192 1.7535 0
M  V30 10570 H 916.506 -4.57959 0.528641 0
M  V30 10571 H 920.05 -5.90331 3.71693 0
M  V30 10572 H 915.947 -5.95813 2.48349 0
M  V30 10573 H 916.715 -6.96537 4.29859 0
M  V30 10574 N 919.378 -0.300708 -1.54705 0
M  V30 10575 C 920.655 0.361757 -1.92226 0
M  V30 10576 C 921.035 1.71714 -1.2279 0
M  V30 10577 O 920.383 2.2559 -0.363542 0
M  V30 10578 C 920.593 0.476699 -3.45729 0
M  V30 10579 C 921.941 0.7477 -4.17965 0
M  V30 10580 O 922.965 0.560521 -3.51762 0
M  V30 10581 O 921.824 1.10724 -5.35166 0
M  V30 10582 H 918.918 0.202213 -0.801897 0
M  V30 10583 H 921.464 -0.348746 -1.66078 0
M  V30 10584 H 920.236 -0.476132 -3.88392 0
M  V30 10585 H 919.859 1.23568 -3.77911 0
M  V30 10586 N 920.856 1.57574 -0.0284266 0
M  V30 10587 C 922.133 1.83064 0.688979 0
M  V30 10588 C 922.513 0.91219 1.90374 0
M  V30 10589 O 921.861 -0.0323672 2.28477 0
M  V30 10590 C 922.071 3.32262 1.06785 0
M  V30 10591 C 923.419 3.98717 1.45978 0
M  V30 10592 O 924.443 3.36753 1.16085 0
M  V30 10593 O 923.302 5.07927 2.01673 0
M  V30 10594 H 920.396 0.7548 0.337944 0
M  V30 10595 H 922.942 1.69607 -0.0560555 0
M  V30 10596 H 921.714 3.90772 0.203235 0
M  V30 10597 H 921.337 3.50823 1.87107 0
M  V30 10598 N 922.334 -0.244713 1.55689 0
M  V30 10599 C 923.58 -0.973886 1.77886 0
M  V30 10600 C 923.913 -1.8489 0.594071 0
M  V30 10601 O 923.188 -1.90182 -0.407564 0
M  V30 10602 C 923.471 -1.83255 3.09983 0
M  V30 10603 C 923.324 -0.985571 4.3887 0
M  V30 10604 C 924.643 -2.81464 3.38329 0
M  V30 10605 H 921.762 -0.352629 0.647165 0
M  V30 10606 H 924.404 -0.244243 1.88424 0
M  V30 10607 H 922.554 -2.45464 3.01131 0
M  V30 10608 H 924.226 -0.382005 4.59716 0
M  V30 10609 H 922.469 -0.29002 4.32829 0
M  V30 10610 H 923.14 -1.62022 5.27686 0
M  V30 10611 H 925.616 -2.2939 3.47159 0
M  V30 10612 H 924.492 -3.38663 4.31971 0
M  V30 10613 H 924.753 -3.58037 2.59349 0
M  V30 10614 N 923.813 -1.49104 -0.510467 0
M  V30 10615 C 924.743 -1.67981 -1.62187 0
M  V30 10616 C 925.724 -0.528529 -1.6168 0
M  V30 10617 O 926.909 -0.763305 -1.7857 0
M  V30 10618 C 924.039 -1.73755 -3.0071 0
M  V30 10619 C 922.993 -2.88579 -3.1608 0
M  V30 10620 C 922.319 -2.79457 -4.5586 0
M  V30 10621 C 923.619 -4.29638 -2.97 0
M  V30 10622 H 925.313 -2.61029 -1.46643 0
M  V30 10623 H 922.859 -1.25615 -0.704042 0
M  V30 10624 H 924.812 -1.85548 -3.78352 0
M  V30 10625 H 923.536 -0.772996 -3.17321 0
M  V30 10626 H 922.195 -2.76372 -2.40861 0
M  V30 10627 H 921.843 -1.80929 -4.69333 0
M  V30 10628 H 921.543 -3.56518 -4.67086 0
M  V30 10629 H 923.067 -2.93245 -5.35574 0
M  V30 10630 H 924.481 -4.42575 -3.64418 0
M  V30 10631 H 922.878 -5.07847 -3.19704 0
M  V30 10632 H 923.948 -4.44741 -1.93219 0
M  V30 10633 N 925.291 0.760815 -1.38019 0
M  V30 10634 C 926.537 1.52198 -1.34028 0
M  V30 10635 C 926.87 1.94067 0.0718309 0
M  V30 10636 O 926.145 1.64895 1.0315 0
M  V30 10637 C 926.428 2.77954 -2.2894 0
M  V30 10638 C 926.281 2.42269 -3.7898 0
M  V30 10639 C 927.6 3.79943 -2.22107 0
M  V30 10640 H 924.719 0.552131 -0.488181 0
M  V30 10641 H 927.361 0.871971 -1.6881 0
M  V30 10642 H 925.511 3.33419 -1.9941 0
M  V30 10643 H 927.183 1.92635 -4.19153 0
M  V30 10644 H 925.426 1.74822 -3.97014 0
M  V30 10645 H 926.097 3.32211 -4.4084 0
M  V30 10646 H 928.573 3.34 -2.4816 0
M  V30 10647 H 927.449 4.6564 -2.90639 0
M  V30 10648 H 927.71 4.25004 -1.21753 0
M  V30 10649 N 926.769 1.22769 0.988202 0
M  V30 10650 C 928.046 0.9635 1.70223 0
M  V30 10651 C 928.426 -0.520102 2.04593 0
M  V30 10652 O 927.774 -1.48934 1.73295 0
M  V30 10653 C 927.984 1.86583 2.94937 0
M  V30 10654 C 929.332 2.12469 3.67616 0
M  V30 10655 O 930.356 1.84069 3.04954 0
M  V30 10656 O 929.215 2.60595 4.80367 0
M  V30 10657 H 926.309 0.362737 0.743203 0
M  V30 10658 H 928.855 1.33776 1.04412 0
M  V30 10659 H 927.627 2.86913 2.66077 0
M  V30 10660 H 927.25 1.49344 3.68486 0
M  V30 10661 N 928.247 -1.18576 1.03814 0
M  V30 10662 C 929.194 -2.2212 0.626988 0
M  V30 10663 C 930.164 -1.62064 -0.363912 0
M  V30 10664 O 931.349 -1.89041 -0.258469 0
M  V30 10665 C 928.489 -3.45099 -0.00650133 0
M  V30 10666 C 927.602 -4.19503 1.03156 0
M  V30 10667 C 926.737 -5.29932 0.366852 0
M  V30 10668 C 925.776 -5.96104 1.39018 0
M  V30 10669 N 924.913 -6.98076 0.750625 0
M  V30 10670 H 929.753 -2.56646 1.51449 0
M  V30 10671 H 927.29 -1.26084 0.757702 0
M  V30 10672 H 929.248 -4.15363 -0.391108 0
M  V30 10673 H 927.878 -3.11201 -0.857536 0
M  V30 10674 H 926.93 -3.48092 1.53414 0
M  V30 10675 H 928.242 -4.64843 1.80893 0
M  V30 10676 H 927.396 -6.06657 -0.0720979 0
M  V30 10677 H 926.135 -4.85687 -0.442631 0
M  V30 10678 H 925.14 -5.18122 1.8393 0
M  V30 10679 H 926.365 -6.42432 2.20132 0
M  V30 10680 H 924.311 -6.55989 -0.0385981 0
M  V30 10681 H 924.228 -7.41655 1.46574 0
M  V30 10682 H 925.496 -7.78776 0.335986 0
M  V30 10683 N 929.725 -0.817259 -1.34754 0
M  V30 10684 C 930.673 -0.223352 -2.31525 0
M  V30 10685 C 931.667 0.632785 -1.57137 0
M  V30 10686 O 932.873 0.524757 -1.72181 0
M  V30 10687 H 929.248 -0.0534765 -0.750096 0
M  V30 10688 H 931.219 -1.05446 -2.79148 0
M  V30 10689 C 929.968 0.604784 -3.424 0
M  V30 10690 H 929.291 -0.0446664 -3.99775 0
M  V30 10691 H 930.731 0.986543 -4.12363 0
M  V30 10692 C 929.19 1.77478 -2.86362 0
M  V30 10693 O 929.72 2.87273 -2.8078 0
M  V30 10694 N 927.926 1.58971 -2.43263 0
M  V30 10695 H 927.473 0.696598 -2.48003 0
M  V30 10696 H 927.431 2.37408 -2.06119 0
M  V30 10697 N 931.203 1.46865 -0.571711 0
M  V30 10698 C 932.452 2.01636 -0.050881 0
M  V30 10699 C 932.765 1.45001 1.31279 0
M  V30 10700 O 933.971 1.91523 1.92435 0
M  V30 10701 C 932.427 3.59877 -0.0404114 0
M  V30 10702 C 932.035 4.25506 -1.40172 0
M  V30 10703 C 933.779 4.22346 0.42705 0
M  V30 10704 C 931.686 5.75795 -1.34958 0
M  V30 10705 H 930.616 0.753846 -0.0152514 0
M  V30 10706 H 933.267 1.68711 -0.721723 0
M  V30 10707 H 931.649 3.89829 0.696374 0
M  V30 10708 H 932.823 4.07178 -2.15737 0
M  V30 10709 H 931.138 3.75086 -1.8083 0
M  V30 10710 H 933.735 5.32499 0.484688 0
M  V30 10711 H 934.078 3.9052 1.44222 0
M  V30 10712 H 934.611 3.9698 -0.255326 0
M  V30 10713 H 931.35 6.12265 -2.3412 0
M  V30 10714 H 930.87 5.96419 -0.635962 0
M  V30 10715 H 932.549 6.38294 -1.05779 0
M  V30 10716 N 932.681 0.308908 1.54543 0
M  V30 10717 C 933.93 -0.298854 1.99474 0
M  V30 10718 C 934.243 -1.54393 1.20093 0
M  V30 10719 O 935.449 -2.22677 1.55329 0
M  V30 10720 C 933.905 -0.58303 3.55146 0
M  V30 10721 C 933.513 0.644157 4.43345 0
M  V30 10722 C 935.257 -1.15155 4.08582 0
M  V30 10723 C 933.164 0.332694 5.90463 0
M  V30 10724 H 932.094 -0.115445 0.74511 0
M  V30 10725 H 934.745 0.418848 1.78656 0
M  V30 10726 H 933.127 -1.36053 3.71894 0
M  V30 10727 H 934.301 1.42012 4.38371 0
M  V30 10728 H 932.616 1.13186 4.00722 0
M  V30 10729 H 935.213 -1.39896 5.16075 0
M  V30 10730 H 935.556 -2.09632 3.59667 0
M  V30 10731 H 936.089 -0.435571 3.95408 0
M  V30 10732 H 932.828 1.24624 6.43544 0
M  V30 10733 H 932.348 -0.405844 5.98425 0
M  V30 10734 H 934.027 -0.0628545 6.46969 0
M  V30 10735 N 934.159 -1.57557 0.0367827 0
M  V30 10736 C 935.436 -1.83427 -0.679261 0
M  V30 10737 C 935.816 -0.922274 -1.89888 0
M  V30 10738 O 935.164 0.02025 -2.28491 0
M  V30 10739 C 935.374 -3.32823 -1.05022 0
M  V30 10740 C 936.722 -3.99486 -1.43861 0
M  V30 10741 O 937.746 -3.37364 -1.14297 0
M  V30 10742 O 936.605 -5.0899 -1.98977 0
M  V30 10743 H 933.699 -0.756581 -0.333936 0
M  V30 10744 H 936.245 -1.69575 0.0650494 0
M  V30 10745 H 935.017 -3.90874 -0.182509 0
M  V30 10746 H 934.64 -3.5181 -1.85244 0
M  V30 10747 N 935.637 0.236453 -1.55816 0
M  V30 10748 C 936.547 1.31418 -1.94336 0
M  V30 10749 C 937.563 1.52095 -0.845164 0
M  V30 10750 O 938.739 1.65515 -1.14746 0
M  V30 10751 C 935.804 2.6468 -2.23932 0
M  V30 10752 C 934.865 2.52435 -3.47239 0
M  V30 10753 C 934.098 3.79342 -3.75414 0
M  V30 10754 O 934.321 4.81694 -3.05495 0
M  V30 10755 O 933.255 3.77347 -4.68927 0
M  V30 10756 H 937.081 1.01739 -2.86152 0
M  V30 10757 H 934.666 0.438084 -1.42833 0
M  V30 10758 H 936.548 3.4341 -2.44228 0
M  V30 10759 H 935.223 2.94071 -1.35292 0
M  V30 10760 H 934.13 1.71955 -3.32238 0
M  V30 10761 H 935.463 2.27987 -4.36214 0
M  V30 10762 N 937.115 1.49373 0.502552 0
M  V30 10763 C 938.361 1.59016 1.25864 0
M  V30 10764 C 938.694 0.27532 1.92238 0
M  V30 10765 O 937.969 -0.720988 1.80643 0
M  V30 10766 C 938.252 2.74828 2.32683 0
M  V30 10767 C 938.105 4.16102 1.7082 0
M  V30 10768 C 939.424 2.86288 3.34256 0
M  V30 10769 H 936.543 0.578798 0.456248 0
M  V30 10770 H 939.185 1.81651 0.557032 0
M  V30 10771 H 937.335 2.5566 2.92524 0
M  V30 10772 H 939.007 4.46782 1.14818 0
M  V30 10773 H 937.25 4.21822 1.01238 0
M  V30 10774 H 937.921 4.93006 2.48292 0
M  V30 10775 H 940.397 3.03733 2.84404 0
M  V30 10776 H 939.273 3.69001 4.06362 0
M  V30 10777 H 939.534 1.95576 3.96488 0
M  V30 10778 N 938.594 -0.753485 1.38421 0
M  V30 10779 C 939.541 -1.86723 1.35659 0
M  V30 10780 C 940.511 -1.64648 0.219121 0
M  V30 10781 O 941.696 -1.86313 0.411366 0
M  V30 10782 C 938.836 -3.24023 1.18758 0
M  V30 10783 C 937.949 -3.57928 2.41892 0
M  V30 10784 C 937.084 -4.84532 2.17721 0
M  V30 10785 C 936.123 -5.11224 3.36626 0
M  V30 10786 N 935.26 -6.29023 3.11889 0
M  V30 10787 H 940.1 -1.88419 2.30873 0
M  V30 10788 H 937.637 -0.920934 1.14705 0
M  V30 10789 H 939.595 -4.03252 1.06974 0
M  V30 10790 H 938.225 -3.21654 0.27182 0
M  V30 10791 H 937.277 -2.73541 2.64347 0
M  V30 10792 H 938.589 -3.73581 3.30513 0
M  V30 10793 H 937.743 -5.71704 2.03074 0
M  V30 10794 H 936.482 -4.71018 1.26465 0
M  V30 10795 H 935.487 -4.2252 3.51791 0
M  V30 10796 H 936.712 -5.26635 4.28757 0
M  V30 10797 H 934.658 -6.16832 2.2328 0
M  V30 10798 H 934.575 -6.45177 3.9406 0
M  V30 10799 H 935.843 -7.19083 3.00898 0
M  V30 10800 N 940.072 -1.23292 -0.981677 0
M  V30 10801 C 941.019 -1.01296 -2.07383 0
M  V30 10802 C 941.989 0.069139 -1.65956 0
M  V30 10803 O 943.174 -0.0827108 -1.90621 0
M  V30 10804 C 940.314 -0.608876 -3.39686 0
M  V30 10805 C 939.427 -1.76296 -3.9439 0
M  V30 10806 C 938.562 -1.30578 -5.14901 0
M  V30 10807 C 937.601 -2.4307 -5.61768 0
M  V30 10808 N 936.738 -1.98319 -6.73509 0
M  V30 10809 H 941.578 -1.9478 -2.25532 0
M  V30 10810 H 939.115 -0.970356 -1.10555 0
M  V30 10811 H 941.073 -0.355702 -4.15681 0
M  V30 10812 H 939.703 0.288961 -3.21504 0
M  V30 10813 H 938.755 -2.13017 -3.15163 0
M  V30 10814 H 940.067 -2.60871 -4.25145 0
M  V30 10815 H 939.221 -1.01066 -5.98223 0
M  V30 10816 H 937.96 -0.430386 -4.85797 0
M  V30 10817 H 936.965 -2.73358 -4.77028 0
M  V30 10818 H 938.19 -3.31144 -5.92892 0
M  V30 10819 H 936.136 -1.13157 -6.46167 0
M  V30 10820 H 936.053 -2.76454 -7.0364 0
M  V30 10821 H 937.321 -1.71907 -7.60308 0
M  V30 10822 N 941.55 1.18024 -1.04442 0
M  V30 10823 C 942.797 1.88098 -0.750022 0
M  V30 10824 C 943.125 1.80583 0.722489 0
M  V30 10825 O 942.38 1.20329 1.54335 0
M  V30 10826 C 942.679 3.37834 -1.16631 0
M  V30 10827 C 942.345 3.65553 -2.63974 0
M  V30 10828 C 941.007 3.72827 -3.04226 0
M  V30 10829 C 943.359 3.77634 -3.59224 0
M  V30 10830 C 940.687 3.89666 -4.38608 0
M  V30 10831 C 943.039 3.9599 -4.9333 0
M  V30 10832 C 941.703 4.01501 -5.33248 0
M  V30 10833 H 940.973 0.6883 -0.274452 0
M  V30 10834 H 943.62 1.39671 -1.31012 0
M  V30 10835 H 941.925 3.88266 -0.525071 0
M  V30 10836 H 943.622 3.90402 -0.915827 0
M  V30 10837 H 940.212 3.6051 -2.31798 0
M  V30 10838 H 944.396 3.71342 -3.2927 0
M  V30 10839 H 939.652 3.92178 -4.69048 0
M  V30 10840 H 943.826 4.0428 -5.67037 0
M  V30 10841 H 941.453 4.14301 -6.37384 0
M  V30 10842 N 943.028 0.824394 1.34319 0
M  V30 10843 C 944.275 0.413167 1.9824 0
M  V30 10844 C 944.603 -1.02412 1.65354 0
M  V30 10845 O 943.858 -1.72831 0.91803 0
M  V30 10846 C 944.157 0.564024 3.52921 0
M  V30 10847 C 943.823 1.96725 4.05722 0
M  V30 10848 C 942.485 2.35111 4.19853 0
M  V30 10849 C 944.837 2.88447 4.34106 0
M  V30 10850 C 942.165 3.64551 4.59695 0
M  V30 10851 C 944.517 4.17353 4.75394 0
M  V30 10852 C 943.181 4.55714 4.8773 0
M  V30 10853 H 942.451 0.151188 0.725412 0
M  V30 10854 H 945.098 1.04863 1.60238 0
M  V30 10855 H 943.403 -0.154816 3.91494 0
M  V30 10856 H 945.1 0.226347 4.00361 0
M  V30 10857 H 941.69 1.65908 3.95187 0
M  V30 10858 H 945.874 2.60034 4.22725 0
M  V30 10859 H 941.13 3.94097 4.67437 0
M  V30 10860 H 945.304 4.88512 4.96315 0
M  V30 10861 H 942.931 5.56064 5.1836 0
M  V30 10862 N 944.506 -1.46559 0.579492 0
M  V30 10863 C 945.454 -2.3199 -0.168413 0
M  V30 10864 C 946.448 -1.44288 -0.887551 0
M  V30 10865 O 947.654 -1.60931 -0.806305 0
M  V30 10866 H 944.029 -0.748431 -0.0731799 0
M  V30 10867 H 946 -2.92886 0.570973 0
M  V30 10868 C 944.749 -3.27392 -1.1709 0
M  V30 10869 H 944.072 -3.94853 -0.626958 0
M  V30 10870 H 945.512 -3.89955 -1.66467 0
M  V30 10871 C 943.971 -2.52511 -2.23024 0
M  V30 10872 O 944.501 -2.2858 -3.30324 0
M  V30 10873 N 942.707 -2.1313 -1.97545 0
M  V30 10874 H 942.254 -2.32793 -1.10297 0
M  V30 10875 H 942.212 -1.63348 -2.68635 0
M  V30 10876 N 945.984 -0.3171 -1.54377 0
M  V30 10877 C 947.23 0.287836 -2.00747 0
M  V30 10878 C 947.563 1.52292 -1.20502 0
M  V30 10879 O 946.838 1.92391 -0.285626 0
M  V30 10880 C 947.121 0.628423 -3.54574 0
M  V30 10881 C 946.974 -0.616922 -4.45549 0
M  V30 10882 C 948.293 1.44862 -4.15575 0
M  V30 10883 H 945.412 0.103144 -0.729747 0
M  V30 10884 H 948.054 -0.432396 -1.85014 0
M  V30 10885 H 946.204 1.24203 -3.68111 0
M  V30 10886 H 947.876 -1.25526 -4.43893 0
M  V30 10887 H 946.119 -1.24706 -4.15489 0
M  V30 10888 H 946.79 -0.334243 -5.50987 0
M  V30 10889 H 949.266 0.930015 -4.05574 0
M  V30 10890 H 948.142 1.6557 -5.23333 0
M  V30 10891 H 948.403 2.44279 -3.68484 0
M  V30 10892 N 947.462 1.57535 -0.0451378 0
M  V30 10893 C 948.711 1.91628 0.629415 0
M  V30 10894 C 949.024 0.924754 1.72359 0
M  V30 10895 O 950.23 1.15751 2.45589 0
M  V30 10896 C 948.686 3.40322 1.17084 0
M  V30 10897 C 948.294 4.47867 0.109101 0
M  V30 10898 C 950.038 3.83458 1.82099 0
M  V30 10899 C 947.945 5.87671 0.663072 0
M  V30 10900 H 946.875 0.715163 0.238868 0
M  V30 10901 H 949.526 1.83151 -0.113046 0
M  V30 10902 H 947.908 3.43783 1.96543 0
M  V30 10903 H 949.082 4.55988 -0.664201 0
M  V30 10904 H 947.397 4.14034 -0.443227 0
M  V30 10905 H 949.994 4.85273 2.2453 0
M  V30 10906 H 950.337 3.19379 2.67026 0
M  V30 10907 H 950.87 3.82488 1.09305 0
M  V30 10908 H 947.609 6.55332 -0.148423 0
M  V30 10909 H 947.129 5.83124 1.4045 0
M  V30 10910 H 948.808 6.36737 1.14785 0
M  V30 10911 N 948.94 -0.228186 1.55939 0
M  V30 10912 C 950.189 -0.951563 1.77843 0
M  V30 10913 C 950.502 -1.85763 0.612501 0
M  V30 10914 O 951.708 -2.61916 0.715006 0
M  V30 10915 C 950.164 -1.74216 3.14923 0
M  V30 10916 C 949.772 -0.882569 4.39221 0
M  V30 10917 C 951.516 -2.45715 3.46156 0
M  V30 10918 C 949.423 -1.67014 5.67327 0
M  V30 10919 H 948.353 -0.359035 0.663031 0
M  V30 10920 H 951.004 -0.205636 1.82344 0
M  V30 10921 H 949.386 -2.53075 3.0458 0
M  V30 10922 H 950.56 -0.13499 4.60602 0
M  V30 10923 H 948.875 -0.280022 4.15457 0
M  V30 10924 H 951.472 -3.05127 4.39092 0
M  V30 10925 H 951.815 -3.1827 2.68346 0
M  V30 10926 H 952.348 -1.73852 3.57799 0
M  V30 10927 H 949.087 -0.987985 6.48012 0
M  V30 10928 H 948.607 -2.3925 5.50018 0
M  V30 10929 H 950.286 -2.23252 6.07262 0
M  V30 10930 N 950.418 -1.49637 -0.494624 0
M  V30 10931 C 951.695 -1.4995 -1.25596 0
M  V30 10932 C 952.075 -0.230805 -2.09834 0
M  V30 10933 O 951.423 0.786625 -2.14533 0
M  V30 10934 C 951.633 -2.78204 -2.10721 0
M  V30 10935 C 952.981 -3.27946 -2.69698 0
M  V30 10936 O 954.005 -2.79365 -2.20984 0
M  V30 10937 O 952.864 -4.12571 -3.58395 0
M  V30 10938 H 949.958 -0.60044 -0.568684 0
M  V30 10939 H 952.504 -1.61906 -0.508371 0
M  V30 10940 H 951.276 -3.62029 -1.48494 0
M  V30 10941 H 950.899 -2.69139 -2.92661 0
M  V30 10942 N 951.896 0.746133 -1.38819 0
M  V30 10943 C 953.124 1.53539 -1.38685 0
M  V30 10944 C 953.539 1.88788 0.0215039 0
M  V30 10945 O 952.896 1.53312 0.990031 0
M  V30 10946 C 952.947 2.8299 -2.24942 0
M  V30 10947 O 952.668 2.49242 -3.60292 0
M  V30 10948 C 954.169 3.77085 -2.3307 0
M  V30 10949 H 951.389 0.474842 -0.474095 0
M  V30 10950 H 953.933 0.922844 -1.82493 0
M  V30 10951 H 952.088 3.40603 -1.84576 0
M  V30 10952 H 952.502 3.32319 -4.05789 0
M  V30 10953 H 953.976 4.64845 -2.97696 0
M  V30 10954 H 954.453 4.18049 -1.34655 0
M  V30 10955 H 955.059 3.25394 -2.73859 0
M  V30 10956 N 953.375 1.23811 0.975125 0
M  V30 10957 C 954.652 0.9815 1.69192 0
M  V30 10958 C 955.032 -0.498373 2.05133 0
M  V30 10959 O 954.38 -1.47087 1.74864 0
M  V30 10960 C 954.59 1.89701 2.92941 0
M  V30 10961 C 955.938 2.16357 3.65342 0
M  V30 10962 O 956.962 1.87293 3.02985 0
M  V30 10963 O 955.821 2.65675 4.77576 0
M  V30 10964 H 952.915 0.370599 0.739314 0
M  V30 10965 H 955.461 1.34876 1.02988 0
M  V30 10966 H 954.233 2.89719 2.63018 0
M  V30 10967 H 953.856 1.53244 3.66881 0
M  V30 10968 N 954.853 -1.17469 1.05066 0
M  V30 10969 C 956.13 -1.83625 0.673872 0
M  V30 10970 C 956.51 -1.93412 -0.845871 0
M  V30 10971 O 955.858 -1.4677 -1.75131 0
M  V30 10972 C 956.068 -3.21352 1.36139 0
M  V30 10973 C 957.416 -3.97274 1.49863 0
M  V30 10974 O 958.44 -3.30827 1.3203 0
M  V30 10975 O 957.299 -5.16349 1.79013 0
M  V30 10976 H 954.393 -0.792297 0.237055 0
M  V30 10977 H 956.939 -1.24776 1.15017 0
M  V30 10978 H 955.711 -3.0919 2.39827 0
M  V30 10979 H 955.334 -3.87867 0.874364 0
M  V30 10980 N 956.331 -0.831506 -1.3388 0
M  V30 10981 C 957.556 -0.435954 -2.02766 0
M  V30 10982 C 957.981 0.952889 -1.62178 0
M  V30 10983 O 957.339 1.62166 -0.810681 0
M  V30 10984 C 957.387 -0.555907 -3.56289 0
M  V30 10985 O 956.491 0.420826 -4.10247 0
M  V30 10986 H 955.832 -0.178248 -0.639628 0
M  V30 10987 H 958.362 -1.1243 -1.70941 0
M  V30 10988 H 958.372 -0.434831 -4.05676 0
M  V30 10989 H 957.047 -1.56881 -3.85177 0
M  V30 10990 H 955.624 0.257919 -3.72007 0
M  V30 10991 N 957.809 1.4625 -0.587256 0
M  V30 10992 C 959.039 2.06444 -0.0802135 0
M  V30 10993 C 959.447 1.43585 1.23207 0
M  V30 10994 O 958.79 0.536956 1.75677 0
M  V30 10995 C 958.852 3.59165 0.155129 0
M  V30 10996 C 958.516 4.44243 -1.07225 0
M  V30 10997 C 959.513 4.80497 -1.98542 0
M  V30 10998 C 957.198 4.8531 -1.29537 0
M  V30 10999 C 959.192 5.56649 -3.10516 0
M  V30 11000 C 956.879 5.61221 -2.41815 0
M  V30 11001 C 957.877 5.96805 -3.32134 0
M  V30 11002 O 957.565 6.71181 -4.42461 0
M  V30 11003 H 957.297 0.673626 -0.0566063 0
M  V30 11004 H 959.851 1.88797 -0.809004 0
M  V30 11005 H 958.081 3.75137 0.938583 0
M  V30 11006 H 959.77 4.01271 0.611243 0
M  V30 11007 H 960.536 4.49345 -1.82522 0
M  V30 11008 H 956.415 4.5706 -0.601431 0
M  V30 11009 H 959.959 5.84343 -3.81037 0
M  V30 11010 H 955.856 5.91786 -2.57797 0
M  V30 11011 H 956.624 6.8961 -4.40886 0
M  V30 11012 N 959.287 0.325282 1.54207 0
M  V30 11013 C 960.217 -0.532574 2.27345 0
M  V30 11014 C 961.198 -1.11791 1.28206 0
M  V30 11015 O 962.383 -1.14272 1.57021 0
M  V30 11016 C 959.513 -1.69274 3.03255 0
M  V30 11017 C 958.467 -1.23662 4.09746 0
M  V30 11018 C 957.793 -2.48386 4.73506 0
M  V30 11019 C 959.093 -0.350244 5.21124 0
M  V30 11020 H 960.787 0.0775108 2.993 0
M  V30 11021 H 958.333 0.0387193 1.43948 0
M  V30 11022 H 960.286 -2.29917 3.53152 0
M  V30 11023 H 959.01 -2.32944 2.28921 0
M  V30 11024 H 957.669 -0.653106 3.60735 0
M  V30 11025 H 957.317 -3.10424 3.95786 0
M  V30 11026 H 957.017 -2.18558 5.45441 0
M  V30 11027 H 958.541 -3.09789 5.26178 0
M  V30 11028 H 959.955 -0.863011 5.66767 0
M  V30 11029 H 958.352 -0.14466 5.99926 0
M  V30 11030 H 959.422 0.618457 4.8094 0
M  V30 11031 N 960.765 -1.57509 0.0534917 0
M  V30 11032 C 961.697 -2.08616 -0.949322 0
M  V30 11033 C 962.71 -1.01446 -1.27328 0
M  V30 11034 O 963.899 -1.29007 -1.23367 0
M  V30 11035 C 960.999 -2.51622 -2.27024 0
M  V30 11036 C 960.172 -3.82154 -2.12785 0
M  V30 11037 C 959.231 -4.11448 -3.2802 0
M  V30 11038 O 958.257 -4.81333 -3.03822 0
M  V30 11039 N 959.459 -3.63543 -4.52567 0
M  V30 11040 H 962.224 -2.95275 -0.5131 0
M  V30 11041 H 959.785 -1.61355 -0.132693 0
M  V30 11042 H 961.777 -2.68293 -3.02986 0
M  V30 11043 H 960.347 -1.70198 -2.62205 0
M  V30 11044 H 959.567 -3.75041 -1.21399 0
M  V30 11045 H 960.855 -4.67629 -2.00501 0
M  V30 11046 H 960.253 -3.07051 -4.75117 0
M  V30 11047 H 958.81 -3.85448 -5.25617 0
M  V30 11048 N 962.243 0.219913 -1.56058 0
M  V30 11049 C 963.19 1.27254 -1.92549 0
M  V30 11050 C 964.16 1.46493 -0.782883 0
M  V30 11051 O 965.345 1.60035 -1.03892 0
M  V30 11052 C 962.485 2.61756 -2.24896 0
M  V30 11053 C 961.598 2.50302 -3.52098 0
M  V30 11054 C 960.733 3.77338 -3.73884 0
M  V30 11055 C 959.772 3.60613 -4.94595 0
M  V30 11056 N 958.909 4.79603 -5.12763 0
M  V30 11057 H 963.749 0.954352 -2.82305 0
M  V30 11058 H 961.286 0.459928 -1.39725 0
M  V30 11059 H 963.244 3.40082 -2.4166 0
M  V30 11060 H 961.874 2.91668 -1.38311 0
M  V30 11061 H 960.926 1.63401 -3.43517 0
M  V30 11062 H 962.238 2.33866 -4.40577 0
M  V30 11063 H 961.392 4.64108 -3.90754 0
M  V30 11064 H 960.131 3.96702 -2.83689 0
M  V30 11065 H 959.136 2.72228 -4.77674 0
M  V30 11066 H 960.361 3.42719 -5.86277 0
M  V30 11067 H 958.307 4.99277 -4.2551 0
M  V30 11068 H 958.224 4.65899 -5.95377 0
M  V30 11069 H 959.492 5.67794 -5.34069 0
M  V30 11070 N 963.721 1.49897 0.486681 0
M  V30 11071 C 964.951 1.63599 1.2617 0
M  V30 11072 C 965.359 0.312365 1.86604 0
M  V30 11073 O 964.702 -0.713911 1.6926 0
M  V30 11074 C 964.764 2.65736 2.42125 0
M  V30 11075 C 964.428 4.09711 2.0245 0
M  V30 11076 C 965.425 4.9607 1.55596 0
M  V30 11077 C 963.11 4.55534 2.11647 0
M  V30 11078 C 965.104 6.26295 1.18462 0
M  V30 11079 C 962.791 5.85768 1.74124 0
M  V30 11080 C 963.789 6.70973 1.27608 0
M  V30 11081 O 963.477 7.98778 0.905991 0
M  V30 11082 H 963.209 0.55333 0.388332 0
M  V30 11083 H 965.763 1.96768 0.589195 0
M  V30 11084 H 963.993 2.27778 3.12497 0
M  V30 11085 H 965.682 2.68819 3.04123 0
M  V30 11086 H 966.448 4.61891 1.47925 0
M  V30 11087 H 962.327 3.8937 2.46803 0
M  V30 11088 H 965.871 6.92754 0.820839 0
M  V30 11089 H 961.768 6.19473 1.8145 0
M  V30 11090 H 962.536 8.11914 1.03621 0
M  V30 11091 N 965.199 -0.738761 1.39212 0
M  V30 11092 C 966.132 -1.86135 1.32018 0
M  V30 11093 C 967.11 -1.61432 0.194512 0
M  V30 11094 O 968.294 -1.84746 0.374331 0
M  V30 11095 C 965.421 -3.22044 1.04907 0
M  V30 11096 C 964.467 -3.65612 2.19613 0
M  V30 11097 S 965.3 -3.75418 3.81866 0
M  V30 11098 C 966.456 -5.14122 3.56972 0
M  V30 11099 H 966.689 -1.91954 2.27027 0
M  V30 11100 H 964.222 -0.903244 1.25223 0
M  V30 11101 H 966.18 -4.00524 0.899491 0
M  V30 11102 H 964.841 -3.13886 0.115918 0
M  V30 11103 H 964.034 -4.64232 1.96227 0
M  V30 11104 H 963.636 -2.94327 2.30755 0
M  V30 11105 H 965.928 -6.00339 3.14005 0
M  V30 11106 H 966.871 -5.42535 4.55039 0
M  V30 11107 H 967.279 -4.8362 2.91156 0
M  V30 11108 N 966.677 -1.24326 -0.968545 0
M  V30 11109 C 967.624 -1.0349 -2.06297 0
M  V30 11110 C 968.594 0.0515333 -1.6602 0
M  V30 11111 O 969.779 -0.102924 -1.90522 0
M  V30 11112 C 966.919 -0.64487 -3.39021 0
M  V30 11113 C 966.032 -1.80469 -3.92498 0
M  V30 11114 C 965.167 -1.36032 -5.13487 0
M  V30 11115 C 964.206 -2.49014 -5.59159 0
M  V30 11116 N 963.343 -2.05451 -6.71367 0
M  V30 11117 H 968.183 -1.97161 -2.23454 0
M  V30 11118 H 965.72 -0.982028 -1.0952 0
M  V30 11119 H 967.678 -0.399771 -4.1528 0
M  V30 11120 H 966.308 0.254845 -3.21792 0
M  V30 11121 H 965.36 -2.16348 -3.12886 0
M  V30 11122 H 966.672 -2.65365 -4.22354 0
M  V30 11123 H 965.826 -1.07405 -5.97117 0
M  V30 11124 H 964.565 -0.481887 -4.85313 0
M  V30 11125 H 963.57 -2.78402 -4.74102 0
M  V30 11126 H 964.795 -3.37413 -5.89346 0
M  V30 11127 H 962.741 -1.20004 -6.4493 0
M  V30 11128 H 962.658 -2.83901 -7.00668 0
M  V30 11129 H 963.926 -1.79962 -7.58442 0
M  V30 11130 N 968.156 1.1691 -1.05688 0
M  V30 11131 C 969.384 1.91204 -0.790485 0
M  V30 11132 C 969.799 1.77095 0.654434 0
M  V30 11133 O 969.156 1.11146 1.44751 0
M  V30 11134 C 969.207 3.42108 -1.16808 0
M  V30 11135 O 968.928 3.55788 -2.55629 0
M  V30 11136 C 970.429 4.33466 -0.92855 0
M  V30 11137 H 967.649 0.606508 -0.287035 0
M  V30 11138 H 970.193 1.48225 -1.40888 0
M  V30 11139 H 968.348 3.82814 -0.59434 0
M  V30 11140 H 968.762 4.49321 -2.70575 0
M  V30 11141 H 970.236 5.37836 -1.24245 0
M  V30 11142 H 970.713 4.38989 0.136016 0
M  V30 11143 H 971.319 3.98481 -1.48638 0
M  V30 11144 N 969.634 0.838594 1.33437 0
M  V30 11145 C 970.862 0.447644 2.01999 0
M  V30 11146 C 971.277 -0.951053 1.63096 0
M  V30 11147 O 970.634 -1.61802 0.844169 0
M  V30 11148 C 970.685 0.558378 3.57162 0
M  V30 11149 O 970.406 1.90196 3.94661 0
M  V30 11150 C 971.907 0.164348 4.42995 0
M  V30 11151 H 969.127 0.177736 0.647032 0
M  V30 11152 H 971.671 1.13109 1.70372 0
M  V30 11153 H 969.826 -0.0771563 3.87323 0
M  V30 11154 H 970.24 1.88729 4.89369 0
M  V30 11155 H 971.714 0.292876 5.51222 0
M  V30 11156 H 972.191 -0.893713 4.30011 0
M  V30 11157 H 972.797 0.774306 4.18192 0
M  V30 11158 N 971.112 -1.45937 0.595003 0
M  V30 11159 C 972.361 -2.01529 0.0829531 0
M  V30 11160 C 972.674 -1.47071 -1.28955 0
M  V30 11161 O 973.88 -1.94561 -1.89363 0
M  V30 11162 C 972.336 -3.59767 0.0976597 0
M  V30 11163 C 971.944 -4.23223 1.46924 0
M  V30 11164 C 973.688 -4.22972 -0.359805 0
M  V30 11165 C 971.595 -5.73576 1.44101 0
M  V30 11166 H 970.525 -0.753508 0.0272425 0
M  V30 11167 H 973.176 -1.67541 0.748473 0
M  V30 11168 H 971.558 -3.90888 -0.634268 0
M  V30 11169 H 972.732 -4.03695 2.22187 0
M  V30 11170 H 971.047 -3.72161 1.86775 0
M  V30 11171 H 973.644 -5.33202 -0.39991 0
M  V30 11172 H 973.987 -3.92765 -1.37991 0
M  V30 11173 H 974.52 -3.96523 0.31845 0
M  V30 11174 H 971.259 -6.08462 2.43831 0
M  V30 11175 H 970.779 -5.95332 0.730767 0
M  V30 11176 H 972.458 -6.36531 1.1592 0
M  V30 11177 N 972.59 -0.333456 -1.54032 0
M  V30 11178 C 973.538 0.543414 -2.26163 0
M  V30 11179 C 974.532 1.11037 -1.27934 0
M  V30 11180 O 975.738 1.05727 -1.45677 0
M  V30 11181 H 972.113 0.19391 -0.726569 0
M  V30 11182 H 974.084 -0.0871052 -2.98273 0
M  V30 11183 C 972.833 1.68769 -3.03994 0
M  V30 11184 H 972.156 1.26069 -3.79403 0
M  V30 11185 H 973.596 2.27662 -3.57695 0
M  V30 11186 C 972.055 2.61117 -2.12884 0
M  V30 11187 O 972.585 3.63097 -1.71823 0
M  V30 11188 N 970.791 2.29573 -1.7817 0
M  V30 11189 H 970.338 1.46684 -2.11759 0
M  V30 11190 H 970.296 2.91622 -1.1749 0
M  V30 11191 N 974.068 1.57479 -0.061844 0
M  V30 11192 C 975.296 1.97429 0.618837 0
M  V30 11193 C 975.711 0.939826 1.63746 0
M  V30 11194 O 975.068 -0.0747173 1.82347 0
M  V30 11195 C 975.119 3.3746 1.29628 0
M  V30 11196 O 974.84 4.36941 0.318431 0
M  V30 11197 C 976.341 3.92228 2.06572 0
M  V30 11198 H 973.561 0.649513 0.168444 0
M  V30 11199 H 976.105 2.04078 -0.131303 0
M  V30 11200 H 974.26 3.31928 1.99757 0
M  V30 11201 H 974.674 5.18313 0.803239 0
M  V30 11202 H 976.148 4.92458 2.49377 0
M  V30 11203 H 976.625 3.28231 2.91824 0
M  V30 11204 H 977.231 4.01131 1.4133 0
M  V30 11205 N 975.546 -0.211634 1.56173 0
M  V30 11206 C 976.795 -0.932647 1.78842 0
M  V30 11207 C 977.108 -1.85103 0.63217 0
M  V30 11208 O 978.314 -2.61143 0.742746 0
M  V30 11209 C 976.77 -1.70866 3.16753 0
M  V30 11210 C 976.378 -0.835934 4.40132 0
M  V30 11211 C 978.122 -2.4203 3.48743 0
M  V30 11212 C 976.029 -1.60987 5.69067 0
M  V30 11213 H 974.959 -0.351983 0.666801 0
M  V30 11214 H 977.61 -0.186284 1.82552 0
M  V30 11215 H 975.992 -2.4983 3.07247 0
M  V30 11216 H 977.166 -0.0861298 4.60719 0
M  V30 11217 H 975.481 -0.235941 4.15731 0
M  V30 11218 H 978.078 -3.00453 4.42303 0
M  V30 11219 H 978.421 -3.15406 2.71707 0
M  V30 11220 H 978.954 -1.70048 3.59623 0
M  V30 11221 H 975.693 -0.9192 6.49023 0
M  V30 11222 H 975.213 -2.33403 5.52524 0
M  V30 11223 H 976.892 -2.16798 6.09596 0
M  V30 11224 N 977.024 -1.50153 -0.478725 0
M  V30 11225 C 978.44 -1.3741 -0.811833 0
M  V30 11226 C 978.64 -0.424303 -1.96982 0
M  V30 11227 O 977.696 0.13588 -2.52134 0
M  V30 11228 C 979.009 -2.78616 -1.13108 0
M  V30 11229 C 980.557 -2.87477 -1.23798 0
M  V30 11230 C 981.032 -4.295 -1.5904 0
M  V30 11231 N 982.523 -4.32415 -1.66047 0
M  V30 11232 C 983.258 -5.39295 -1.94805 0
M  V30 11233 N 982.754 -6.56392 -2.21635 0
M  V30 11234 N 984.547 -5.26731 -1.96243 0
M  V30 11235 H 976.698 -2.10486 0.284531 0
M  V30 11236 H 978.961 -0.945786 0.0647585 0
M  V30 11237 H 978.667 -3.49921 -0.35334 0
M  V30 11238 H 978.541 -3.15382 -2.06915 0
M  V30 11239 H 980.928 -2.16396 -2.00641 0
M  V30 11240 H 981.009 -2.54264 -0.279888 0
M  V30 11241 H 980.653 -5.01115 -0.827404 0
M  V30 11242 H 980.583 -4.60194 -2.55987 0
M  V30 11243 H 983.074 -3.47975 -1.47383 0
M  V30 11244 H 983.387 -7.33658 -2.4283 0
M  V30 11245 H 981.732 -6.59579 -2.19043 0
M  V30 11246 H 984.923 -4.34249 -1.74773 0
M  V30 11247 H 985.096 -6.10115 -2.1832 0
M  V30 11248 N 978.502 0.731368 -1.39602 0
M  V30 11249 C 979.449 1.84541 -1.38612 0
M  V30 11250 C 980.419 1.64279 -0.245287 0
M  V30 11251 O 981.604 1.85635 -0.440954 0
M  V30 11252 C 978.744 3.22092 -1.23897 0
M  V30 11253 C 977.857 3.54034 -2.47555 0
M  V30 11254 C 976.992 4.81007 -2.25402 0
M  V30 11255 C 976.031 5.05804 -3.44716 0
M  V30 11256 N 975.168 6.23981 -3.21857 0
M  V30 11257 H 980.008 1.84722 -2.33841 0
M  V30 11258 H 977.545 0.902569 -1.16156 0
M  V30 11259 H 979.503 4.01499 -1.13376 0
M  V30 11260 H 978.133 3.2118 -0.322958 0
M  V30 11261 H 977.185 2.69301 -2.68665 0
M  V30 11262 H 978.497 3.68275 -3.36415 0
M  V30 11263 H 977.651 5.68401 -2.12143 0
M  V30 11264 H 976.39 4.68946 -1.33943 0
M  V30 11265 H 975.395 4.1687 -3.58468 0
M  V30 11266 H 976.62 5.19747 -4.37081 0
M  V30 11267 H 974.566 6.13202 -2.33065 0
M  V30 11268 H 974.483 6.38826 -4.04274 0
M  V30 11269 H 975.751 7.14205 -3.123 0
M  V30 11270 N 979.98 1.24838 0.961938 0
M  V30 11271 C 981.205 1.11967 1.7458 0
M  V30 11272 C 981.63 -0.323287 1.85301 0
M  V30 11273 O 980.988 -1.23412 1.32812 0
M  V30 11274 C 981.036 1.77066 3.14134 0
M  V30 11275 O 980.14 1.04534 3.98932 0
M  V30 11276 H 979.481 0.391338 0.536424 0
M  V30 11277 H 982.011 1.65259 1.20626 0
M  V30 11278 H 982.021 1.83056 3.64629 0
M  V30 11279 H 980.696 2.82052 3.05646 0
M  V30 11280 H 979.273 1.06372 3.57407 0
M  V30 11281 N 981.458 -1.16348 1.06306 0
M  V30 11282 C 982.405 -2.20741 0.673962 0
M  V30 11283 C 983.375 -1.628 -0.329454 0
M  V30 11284 O 984.56 -1.89547 -0.218313 0
M  V30 11285 C 981.7 -3.45036 0.0667008 0
M  V30 11286 C 980.813 -4.17221 1.12031 0
M  V30 11287 C 979.948 -5.29034 0.479176 0
M  V30 11288 C 978.987 -5.93021 1.51631 0
M  V30 11289 N 978.124 -6.96327 0.898528 0
M  V30 11290 H 982.964 -2.53376 1.56859 0
M  V30 11291 H 980.501 -1.24449 0.784276 0
M  V30 11292 H 982.459 -4.16099 -0.302916 0
M  V30 11293 H 981.089 -3.1295 -0.791333 0
M  V30 11294 H 980.141 -3.4476 1.60763 0
M  V30 11295 H 981.453 -4.60902 1.90712 0
M  V30 11296 H 980.607 -6.06674 0.0565993 0
M  V30 11297 H 979.346 -4.86517 -0.33951 0
M  V30 11298 H 978.351 -5.14104 1.94878 0
M  V30 11299 H 979.576 -6.37618 2.3371 0
M  V30 11300 H 977.522 -6.55923 0.100555 0
M  V30 11301 H 977.439 -7.38379 1.62272 0
M  V30 11302 H 978.707 -7.77888 0.5011 0
M  V30 11303 N 982.937 -0.845659 -1.3299 0
M  V30 11304 C 984.214 -0.366306 -1.92139 0
M  V30 11305 C 984.594 1.14912 -1.77083 0
M  V30 11306 O 983.942 1.96667 -1.16338 0
M  V30 11307 C 984.152 -0.820716 -3.39213 0
M  V30 11308 C 985.5 -0.832667 -4.16355 0
M  V30 11309 O 986.524 -0.764764 -3.47893 0
M  V30 11310 O 985.383 -0.926658 -5.38586 0
M  V30 11311 H 982.477 -0.105063 -0.820299 0
M  V30 11312 H 985.023 -0.931962 -1.41819 0
M  V30 11313 H 983.795 -1.86357 -3.44074 0
M  V30 11314 H 983.418 -0.232009 -3.96923 0
M  V30 11315 N 984.415 1.45619 -0.602734 0
M  V30 11316 C 985.345 2.33258 0.106342 0
M  V30 11317 C 986.326 1.46543 0.863664 0
M  V30 11318 O 987.511 1.75324 0.835175 0
M  V30 11319 C 984.641 3.29168 1.10751 0
M  V30 11320 C 983.595 4.25481 0.463717 0
M  V30 11321 C 982.921 5.11046 1.57278 0
M  V30 11322 C 984.221 5.18702 -0.61199 0
M  V30 11323 H 985.915 2.92795 -0.625423 0
M  V30 11324 H 983.461 1.40793 -0.302213 0
M  V30 11325 H 985.414 3.89346 1.61208 0
M  V30 11326 H 984.138 2.6778 1.8698 0
M  V30 11327 H 982.797 3.66595 -0.0199496 0
M  V30 11328 H 982.445 4.46029 2.32524 0
M  V30 11329 H 982.145 5.76286 1.14755 0
M  V30 11330 H 983.669 5.74091 2.07972 0
M  V30 11331 H 985.083 5.72979 -0.191686 0
M  V30 11332 H 983.48 5.92393 -0.958686 0
M  V30 11333 H 984.55 4.61424 -1.4905 0
M  V30 11334 N 985.893 0.34162 1.53853 0
M  V30 11335 C 987.17 -0.310664 1.93117 0
M  V30 11336 C 987.55 -1.68398 1.273 0
M  V30 11337 O 986.898 -2.24546 0.423225 0
M  V30 11338 C 987.108 -0.384867 3.46871 0
M  V30 11339 C 988.456 -0.636621 4.198 0
M  V30 11340 O 989.48 -0.467061 3.53125 0
M  V30 11341 O 988.339 -0.964962 5.37913 0
M  V30 11342 H 985.433 -0.180881 0.806977 0
M  V30 11343 H 987.979 0.392656 1.65095 0
M  V30 11344 H 986.751 0.57894 3.86994 0
M  V30 11345 H 986.374 -1.13505 3.81054 0
M  V30 11346 N 987.371 -1.57444 0.0701946 0
M  V30 11347 C 988.62 -1.92605 -0.598849 0
M  V30 11348 C 988.933 -0.952058 -1.70866 0
M  V30 11349 O 990.139 -1.19643 -2.43716 0
M  V30 11350 C 988.595 -3.42142 -1.11655 0
M  V30 11351 C 988.203 -4.47984 -0.0378355 0
M  V30 11352 C 989.947 -3.86307 -1.75975 0
M  V30 11353 C 987.854 -5.88652 -0.569495 0
M  V30 11354 H 986.784 -0.718873 -0.22746 0
M  V30 11355 H 989.435 -1.82948 0.14217 0
M  V30 11356 H 987.817 -3.46866 -1.91049 0
M  V30 11357 H 988.991 -4.54874 0.736661 0
M  V30 11358 H 987.306 -4.13277 0.50904 0
M  V30 11359 H 989.903 -4.88784 -2.16782 0
M  V30 11360 H 990.246 -3.23587 -2.61911 0
M  V30 11361 H 990.779 -3.84179 -1.03206 0
M  V30 11362 H 987.518 -6.55013 0.252662 0
M  V30 11363 H 987.038 -5.85285 -1.31155 0
M  V30 11364 H 988.717 -6.38482 -1.04641 0
M  V30 11365 N 988.849 0.203349 -1.56283 0
M  V30 11366 C 989.797 1.27157 -1.94766 0
M  V30 11367 C 990.791 1.4756 -0.832005 0
M  V30 11368 O 991.997 1.48519 -1.01696 0
M  V30 11369 H 988.372 0.426712 -0.61921 0
M  V30 11370 H 990.343 0.919921 -2.83866 0
M  V30 11371 C 989.092 2.6108 -2.29636 0
M  V30 11372 H 988.415 2.46193 -3.15006 0
M  V30 11373 H 989.855 3.34591 -2.60433 0
M  V30 11374 C 988.314 3.17456 -1.12799 0
M  V30 11375 O 988.844 3.99717 -0.398661 0
M  V30 11376 N 987.05 2.76084 -0.906975 0
M  V30 11377 H 986.597 2.09294 -1.50179 0
M  V30 11378 H 986.555 3.14143 -0.127005 0
M  V30 11379 N 990.327 1.50405 0.470755 0
M  V30 11380 C 991.275 1.6982 1.58946 0
M  V30 11381 C 992.269 0.56407 1.59733 0
M  V30 11382 O 993.475 0.744576 1.63878 0
M  V30 11383 H 989.85 0.536016 0.527438 0
M  V30 11384 H 991.821 2.63662 1.39732 0
M  V30 11385 C 990.57 1.80986 2.96883 0
M  V30 11386 H 989.893 2.67645 2.96996 0
M  V30 11387 H 991.333 1.98596 3.74614 0
M  V30 11388 C 989.792 0.561551 3.32187 0
M  V30 11389 O 990.322 -0.299136 4.00585 0
M  V30 11390 N 988.528 0.415476 2.87615 0
M  V30 11391 H 988.075 1.11691 2.32127 0
M  V30 11392 H 988.033 -0.418592 3.11601 0
M  V30 11393 N 991.805 -0.723954 1.39988 0
M  V30 11394 C 993.051 -1.48591 1.38017 0
M  V30 11395 C 993.384 -1.94189 -0.0203522 0
M  V30 11396 O 992.659 -1.67572 -0.987422 0
M  V30 11397 C 992.942 -2.71786 2.36229 0
M  V30 11398 C 992.795 -2.32136 3.8527 0
M  V30 11399 C 994.114 -3.73921 2.32102 0
M  V30 11400 H 991.233 -0.538993 0.502648 0
M  V30 11401 H 993.875 -0.826908 1.71062 0
M  V30 11402 H 992.025 -3.28015 2.0818 0
M  V30 11403 H 993.697 -1.81454 4.24113 0
M  V30 11404 H 991.94 -1.64234 4.01509 0
M  V30 11405 H 992.611 -3.20406 4.49493 0
M  V30 11406 H 995.087 -3.27303 2.56928 0
M  V30 11407 H 993.963 -4.5777 3.02882 0
M  V30 11408 H 994.224 -4.21627 1.32979 0
M  V30 11409 N 993.283 -1.25346 -0.955304 0
M  V30 11410 C 994.231 -1.05461 -2.07318 0
M  V30 11411 C 995.225 0.0142699 -1.69394 0
M  V30 11412 O 996.431 -0.141292 -1.79445 0
M  V30 11413 H 992.806 -0.324095 -0.678577 0
M  V30 11414 H 994.777 -2.00231 -2.21247 0
M  V30 11415 C 993.526 -0.689329 -3.40798 0
M  V30 11416 H 992.849 -1.50362 -3.70447 0
M  V30 11417 H 994.289 -0.589883 -4.19877 0
M  V30 11418 C 992.748 0.604556 -3.31431 0
M  V30 11419 O 993.278 1.64686 -3.6639 0
M  V30 11420 N 991.484 0.589927 -2.84549 0
M  V30 11421 H 991.031 -0.258647 -2.56298 0
M  V30 11422 H 990.989 1.4558 -2.78664 0
M  V30 11423 N 994.761 1.15782 -1.06922 0
M  V30 11424 C 995.991 1.90079 -0.809545 0
M  V30 11425 C 996.399 1.78028 0.640523 0
M  V30 11426 O 995.742 1.12692 1.45073 0
M  V30 11427 C 995.804 3.41179 -1.13302 0
M  V30 11428 C 995.468 3.77015 -2.5828 0
M  V30 11429 C 996.465 3.78403 -3.56521 0
M  V30 11430 C 994.15 4.07455 -2.93745 0
M  V30 11431 C 996.144 4.09729 -4.88264 0
M  V30 11432 C 993.831 4.38446 -4.25686 0
M  V30 11433 C 994.829 4.39564 -5.22755 0
M  V30 11434 O 994.517 4.69814 -6.52326 0
M  V30 11435 H 994.249 0.609397 -0.292595 0
M  V30 11436 H 996.803 1.47654 -1.42784 0
M  V30 11437 H 995.033 3.83982 -0.457676 0
M  V30 11438 H 996.722 3.96759 -0.856586 0
M  V30 11439 H 997.488 3.54991 -3.30464 0
M  V30 11440 H 993.367 4.05746 -2.1884 0
M  V30 11441 H 996.911 4.10516 -5.64023 0
M  V30 11442 H 992.808 4.61325 -4.51497 0
M  V30 11443 H 993.576 4.87598 -6.57412 0
M  V30 11444 N 996.239 0.8527 1.3254 0
M  V30 11445 C 997.149 0.298744 2.3269 0
M  V30 11446 C 998.165 -0.582418 1.63963 0
M  V30 11447 O 999.341 -0.483253 1.95516 0
M  V30 11448 C 996.406 -0.505453 3.42996 0
M  V30 11449 C 995.467 0.401618 4.27417 0
M  V30 11450 C 994.7 -0.364294 5.32455 0
M  V30 11451 O 994.923 -1.59448 5.47661 0
M  V30 11452 O 993.857 0.268892 6.01299 0
M  V30 11453 H 997.683 1.12843 2.81958 0
M  V30 11454 H 995.268 0.615584 1.36128 0
M  V30 11455 H 997.15 -0.961974 4.10273 0
M  V30 11456 H 995.825 -1.31197 2.95921 0
M  V30 11457 H 994.732 0.906274 3.62957 0
M  V30 11458 H 996.065 1.17327 4.78012 0
M  V30 11459 N 997.718 -1.45297 0.610449 0
M  V30 11460 C 998.628 -2.34349 -0.108475 0
M  V30 11461 C 999.644 -1.51409 -0.857397 0
M  V30 11462 O 1000.82 -1.84202 -0.814337 0
M  V30 11463 C 997.885 -3.29072 -1.09144 0
M  V30 11464 C 996.946 -4.27918 -0.344165 0
M  V30 11465 C 996.179 -5.18116 -1.28031 0
M  V30 11466 O 996.402 -5.11802 -2.51824 0
M  V30 11467 O 995.336 -5.96879 -0.775821 0
M  V30 11468 H 999.162 -2.97232 0.623421 0
M  V30 11469 H 996.747 -1.44728 0.3707 0
M  V30 11470 H 998.629 -3.87433 -1.65751 0
M  V30 11471 H 997.304 -2.68749 -1.80431 0
M  V30 11472 H 996.211 -3.73164 0.264437 0
M  V30 11473 H 997.544 -4.91104 0.328275 0
M  V30 11474 N 999.196 -0.349774 -1.5367 0
M  V30 11475 C 1000.11 0.512421 -2.28935 0
M  V30 11476 C 1001.12 1.1065 -1.34286 0
M  V30 11477 O 1002.3 1.12084 -1.67329 0
M  V30 11478 C 999.363 1.64449 -3.05217 0
M  V30 11479 C 998.424 1.07956 -4.15505 0
M  V30 11480 C 997.657 2.15768 -4.88139 0
M  V30 11481 O 997.88 3.366 -4.60496 0
M  V30 11482 O 996.814 1.79712 -5.74445 0
M  V30 11483 H 1000.64 -0.0996001 -3.03537 0
M  V30 11484 H 998.225 -0.114629 -1.4896 0
M  V30 11485 H 1000.11 2.30302 -3.52901 0
M  V30 11486 H 998.782 2.24221 -2.33467 0
M  V30 11487 H 997.689 0.385381 -3.7211 0
M  V30 11488 H 999.022 0.526621 -4.89375 0
M  V30 11489 N 1000.67 1.57404 -0.0785433 0
M  V30 11490 C 1001.61 2.08724 0.922464 0
M  V30 11491 C 1002.58 0.993912 1.28686 0
M  V30 11492 O 1003.77 1.26776 1.39499 0
M  V30 11493 C 1000.9 2.55051 2.2286 0
M  V30 11494 C 999.942 3.75884 2.01528 0
M  V30 11495 S 1000.77 5.2026 1.26844 0
M  V30 11496 C 1001.93 5.69924 2.58723 0
M  V30 11497 H 1002.16 2.93304 0.485807 0
M  V30 11498 H 999.697 1.53814 0.134377 0
M  V30 11499 H 1001.65 2.82402 2.97926 0
M  V30 11500 H 1000.32 1.70727 2.63649 0
M  V30 11501 H 999.509 4.06311 2.98207 0
M  V30 11502 H 999.111 3.48941 1.34596 0
M  V30 11503 H 1001.4 5.7718 3.5478 0
M  V30 11504 H 1002.35 6.68704 2.32897 0
M  V30 11505 H 1002.75 4.97773 2.66237 0
M  V30 11506 N 1002.15 -0.195058 1.56388 0
M  V30 11507 C 1003.06 -1.26219 1.97752 0
M  V30 11508 C 1004.08 -1.49801 0.885192 0
M  V30 11509 O 1005.25 -1.62415 1.19094 0
M  V30 11510 C 1002.32 -2.5865 2.3087 0
M  V30 11511 C 1001.38 -2.4314 3.5381 0
M  V30 11512 C 1000.61 -3.69255 3.85339 0
M  V30 11513 O 1000.84 -4.73425 3.18159 0
M  V30 11514 O 999.77 -3.64782 4.78767 0
M  V30 11515 H 1003.6 -0.941161 2.88749 0
M  V30 11516 H 1001.18 -0.40006 1.43944 0
M  V30 11517 H 1003.06 -3.36814 2.53247 0
M  V30 11518 H 1001.74 -2.9038 1.43042 0
M  V30 11519 H 1000.64 -1.63086 3.3668 0
M  V30 11520 H 1001.98 -2.16341 4.42105 0
M  V30 11521 N 1003.63 -1.50653 -0.462772 0
M  V30 11522 C 1004.58 -1.70122 -1.55971 0
M  V30 11523 C 1005.55 -0.542581 -1.56988 0
M  V30 11524 O 1006.73 -0.774114 -1.74391 0
M  V30 11525 C 1003.87 -1.80899 -2.93887 0
M  V30 11526 C 1002.98 -3.08318 -3.02595 0
M  V30 11527 C 1002.12 -3.09841 -4.31477 0
M  V30 11528 C 1001.16 -4.3168 -4.33957 0
M  V30 11529 N 1000.3 -4.30894 -5.54323 0
M  V30 11530 H 1005.14 -2.63768 -1.38674 0
M  V30 11531 H 1002.67 -1.30746 -0.674091 0
M  V30 11532 H 1004.63 -1.85128 -3.73876 0
M  V30 11533 H 1003.26 -0.906854 -3.098 0
M  V30 11534 H 1002.31 -3.13521 -2.15427 0
M  V30 11535 H 1003.62 -3.98282 -3.00288 0
M  V30 11536 H 1002.78 -3.12845 -5.1982 0
M  V30 11537 H 1001.52 -2.17722 -4.36404 0
M  V30 11538 H 1000.52 -4.28879 -3.4401 0
M  V30 11539 H 1001.75 -5.25035 -4.30715 0
M  V30 11540 H 999.694 -3.41633 -5.6002 0
M  V30 11541 H 999.611 -5.14636 -5.53792 0
M  V30 11542 H 1000.88 -4.38056 -6.44769 0
M  V30 11543 N 1005.11 0.71652 -1.4037 0
M  V30 11544 C 1006.36 1.47193 -1.37903 0
M  V30 11545 C 1006.67 1.95593 0.0159939 0
M  V30 11546 O 1007.88 2.71009 0.163282 0
M  V30 11547 C 1006.33 2.6606 -2.42363 0
M  V30 11548 C 1005.94 2.24533 -3.87671 0
M  V30 11549 C 1007.68 3.438 -2.49001 0
M  V30 11550 C 1005.59 3.40234 -4.8373 0
M  V30 11551 H 1004.52 0.552811 -0.512753 0
M  V30 11552 H 1007.17 0.779894 -1.66102 0
M  V30 11553 H 1005.55 3.37429 -2.07262 0
M  V30 11554 H 1006.73 1.6059 -4.31911 0
M  V30 11555 H 1005.04 1.59839 -3.845 0
M  V30 11556 H 1007.64 4.29893 -3.17956 0
M  V30 11557 H 1007.98 3.8755 -1.52023 0
M  V30 11558 H 1008.52 2.79474 -2.83088 0
M  V30 11559 H 1005.26 3.01517 -5.82037 0
M  V30 11560 H 1004.78 4.03095 -4.44156 0
M  V30 11561 H 1006.45 4.06312 -5.03507 0
M  V30 11562 N 1006.59 1.25851 0.948643 0
M  V30 11563 C 1007.83 1.11119 1.69648 0
M  V30 11564 C 1008.17 -0.345995 1.91093 0
M  V30 11565 O 1007.44 -1.25467 1.48621 0
M  V30 11566 C 1007.72 1.87261 3.0758 0
M  V30 11567 C 1007.58 3.40842 2.93507 0
M  V30 11568 C 1008.9 1.6605 4.07573 0
M  V30 11569 H 1006.01 0.405052 0.615713 0
M  V30 11570 H 1008.66 1.54756 1.10229 0
M  V30 11571 H 1006.81 1.50172 3.58303 0
M  V30 11572 H 1008.48 3.87641 2.50064 0
M  V30 11573 H 1006.72 3.68248 2.29294 0
M  V30 11574 H 1007.39 3.89339 3.91305 0
M  V30 11575 H 1009.87 1.98348 3.65783 0
M  V30 11576 H 1008.74 2.21753 5.02113 0
M  V30 11577 H 1009.01 0.603256 4.37965 0
M  V30 11578 N 1008.06 -1.15214 1.07534 0
M  V30 11579 C 1009.31 -1.86319 0.800814 0
M  V30 11580 C 1009.64 -1.82221 -0.671494 0
M  V30 11581 O 1008.92 -1.24664 -1.49295 0
M  V30 11582 C 1009.2 -3.35347 1.31203 0
M  V30 11583 C 1009.05 -3.48067 2.84902 0
M  V30 11584 C 1010.37 -4.3016 0.930064 0
M  V30 11585 H 1007.49 -0.676523 0.292379 0
M  V30 11586 H 1010.13 -1.35349 1.33344 0
M  V30 11587 H 1008.28 -3.78886 0.858949 0
M  V30 11588 H 1009.96 -3.13379 3.38514 0
M  V30 11589 H 1008.2 -2.89566 3.23008 0
M  V30 11590 H 1008.87 -4.52782 3.15741 0
M  V30 11591 H 1011.35 -3.94591 1.3205 0
M  V30 11592 H 1010.22 -5.32914 1.31507 0
M  V30 11593 H 1010.48 -4.41796 -0.163824 0
M  V30 11594 N 1009.54 -0.859717 -1.32086 0
M  V30 11595 C 1010.47 -0.265258 -2.2766 0
M  V30 11596 C 1011.49 0.565889 -1.52648 0
M  V30 11597 O 1012.68 0.389554 -1.74197 0
M  V30 11598 C 1009.78 0.643397 -3.32737 0
M  V30 11599 C 1008.95 -0.153024 -4.37132 0
M  V30 11600 C 1008.01 0.682176 -5.21759 0
M  V30 11601 O 1007.03 0.113878 -5.69086 0
M  V30 11602 N 1008.24 1.99602 -5.45105 0
M  V30 11603 H 1011 -1.08653 -2.79311 0
M  V30 11604 H 1008.56 -0.720191 -1.45 0
M  V30 11605 H 1010.55 1.20759 -3.86263 0
M  V30 11606 H 1009.12 1.36535 -2.81206 0
M  V30 11607 H 1008.34 -0.898657 -3.8382 0
M  V30 11608 H 1009.63 -0.699877 -5.03963 0
M  V30 11609 H 1009.03 2.481 -5.08393 0
M  V30 11610 H 1007.59 2.50823 -6.01607 0
M  V30 11611 N 1011.02 1.44971 -0.618145 0
M  V30 11612 C 1011.93 2.34403 0.0960457 0
M  V30 11613 C 1012.95 1.51862 0.849355 0
M  V30 11614 O 1014.12 1.84632 0.804557 0
M  V30 11615 C 1011.19 3.29646 1.07397 0
M  V30 11616 C 1010.25 4.28095 0.321466 0
M  V30 11617 C 1009.48 5.18787 1.25281 0
M  V30 11618 O 1009.7 5.1313 2.49106 0
M  V30 11619 O 1008.64 5.97282 0.744156 0
M  V30 11620 H 1012.46 2.96898 -0.639176 0
M  V30 11621 H 1010.05 1.44529 -0.37837 0
M  V30 11622 H 1011.93 3.88307 1.63694 0
M  V30 11623 H 1010.61 2.69702 1.79004 0
M  V30 11624 H 1009.51 3.73019 -0.284223 0
M  V30 11625 H 1010.85 4.90923 -0.354315 0
M  V30 11626 N 1012.5 0.357919 1.53482 0
M  V30 11627 C 1013.46 -0.479797 2.24122 0
M  V30 11628 C 1014.46 -1.01596 1.24639 0
M  V30 11629 O 1015.65 -0.902928 1.48973 0
M  V30 11630 C 1012.78 -1.66983 2.97203 0
M  V30 11631 H 1013.98 0.138219 2.99581 0
M  V30 11632 H 1011.53 0.109484 1.55916 0
M  V30 11633 H 1012.26 -2.32615 2.25966 0
M  V30 11634 H 1012.05 -1.29242 3.70188 0
M  V30 11635 H 1013.54 -2.26367 3.50924 0
M  V30 11636 N 1013.98 -1.5736 0.0868897 0
M  V30 11637 C 1014.93 -2.10105 -0.885435 0
M  V30 11638 C 1015.91 -1.01417 -1.24913 0
M  V30 11639 O 1017.1 -1.27704 -1.22558 0
M  V30 11640 C 1014.23 -2.67837 -2.14752 0
M  V30 11641 C 1013.32 -3.83553 -1.80963 0
M  V30 11642 N 1013.71 -4.91917 -1.17693 0
M  V30 11643 C 1012.01 -3.93134 -2.10622 0
M  V30 11644 C 1012.71 -5.72628 -1.02332 0
M  V30 11645 N 1011.68 -5.2139 -1.53796 0
M  V30 11646 H 1015.49 -2.91272 -0.392179 0
M  V30 11647 H 1013 -1.61981 -0.116566 0
M  V30 11648 H 1015 -3.03948 -2.85344 0
M  V30 11649 H 1013.66 -1.88122 -2.64651 0
M  V30 11650 H 1014.67 -5.10964 -0.844731 0
M  V30 11651 H 1011.34 -3.24416 -2.62793 0
M  V30 11652 H 1012.73 -6.69813 -0.529171 0
M  V30 11653 N 1015.45 0.186762 -1.56489 0
M  V30 11654 C 1016.4 1.23141 -1.95205 0
M  V30 11655 C 1017.37 1.44799 -0.81378 0
M  V30 11656 O 1018.56 1.57795 -1.07263 0
M  V30 11657 C 1015.7 2.56926 -2.30397 0
M  V30 11658 C 1014.81 2.42777 -3.57328 0
M  V30 11659 C 1013.94 3.69323 -3.81804 0
M  V30 11660 C 1012.98 3.50041 -5.02133 0
M  V30 11661 N 1012.12 4.68619 -5.2282 0
M  V30 11662 H 1016.96 0.894256 -2.84266 0
M  V30 11663 H 1014.5 0.430187 -1.40669 0
M  V30 11664 H 1016.46 3.3488 -2.4882 0
M  V30 11665 H 1015.09 2.88668 -1.44466 0
M  V30 11666 H 1014.14 1.56078 -3.46906 0
M  V30 11667 H 1015.45 2.24468 -4.45439 0
M  V30 11668 H 1014.6 4.55715 -4.00511 0
M  V30 11669 H 1013.34 3.90595 -2.92039 0
M  V30 11670 H 1012.35 2.62034 -4.8334 0
M  V30 11671 H 1013.57 3.30206 -5.93414 0
M  V30 11672 H 1011.52 4.90139 -4.36005 0
M  V30 11673 H 1011.44 4.53165 -6.05126 0
M  V30 11674 H 1012.7 5.56338 -5.45993 0
M  V30 11675 N 1016.93 1.50896 0.454776 0
M  V30 11676 C 1018.18 1.6294 1.20741 0
M  V30 11677 C 1018.51 0.336339 1.91265 0
M  V30 11678 O 1017.79 -0.663153 1.82846 0
M  V30 11679 C 1018.07 2.82092 2.23822 0
M  V30 11680 C 1017.92 4.21326 1.57495 0
M  V30 11681 C 1019.24 2.96777 3.24979 0
M  V30 11682 H 1016.36 0.59302 0.437603 0
M  V30 11683 H 1019 1.83331 0.498959 0
M  V30 11684 H 1017.15 2.64837 2.84243 0
M  V30 11685 H 1018.82 4.50209 1.00546 0
M  V30 11686 H 1017.07 4.24829 0.877664 0
M  V30 11687 H 1017.74 5.00656 2.32482 0
M  V30 11688 H 1020.21 3.12627 2.74597 0
M  V30 11689 H 1019.09 3.81742 3.94416 0
M  V30 11690 H 1019.35 2.08091 3.90065 0
M  V30 11691 N 1018.41 -0.709066 1.40748 0
M  V30 11692 C 1019.66 -1.4646 1.38681 0
M  V30 11693 C 1019.97 -1.95599 -0.0056209 0
M  V30 11694 O 1021.18 -2.71091 -0.148907 0
M  V30 11695 C 1019.63 -2.64771 2.43771 0
M  V30 11696 C 1019.24 -2.22474 3.88856 0
M  V30 11697 C 1020.99 -3.42475 2.50821 0
M  V30 11698 C 1018.89 -3.37663 4.85528 0
M  V30 11699 H 1017.82 -0.550084 0.515678 0
M  V30 11700 H 1020.47 -0.771074 1.66513 0
M  V30 11701 H 1018.86 -3.36325 2.09048 0
M  V30 11702 H 1020.03 -1.58297 4.32757 0
M  V30 11703 H 1018.35 -1.57798 3.85342 0
M  V30 11704 H 1020.94 -4.28201 3.20232 0
M  V30 11705 H 1021.29 -3.86738 1.54076 0
M  V30 11706 H 1021.82 -2.77969 2.84567 0
M  V30 11707 H 1018.56 -2.98426 5.83628 0
M  V30 11708 H 1018.08 -4.00734 4.46287 0
M  V30 11709 H 1019.76 -4.03636 5.05655 0
M  V30 11710 N 1019.89 -1.26353 -0.941956 0
M  V30 11711 C 1020.8 -1.09618 -2.07415 0
M  V30 11712 C 1021.82 -0.0298963 -1.73974 0
M  V30 11713 O 1022.99 -0.233466 -2.00042 0
M  V30 11714 C 1020.06 -0.73013 -3.38925 0
M  V30 11715 C 1019.12 -1.87574 -3.86153 0
M  V30 11716 C 1018.35 -1.52706 -5.11387 0
M  V30 11717 O 1018.57 -0.428438 -5.68789 0
M  V30 11718 O 1017.51 -2.36154 -5.53638 0
M  V30 11719 H 1021.33 -2.04598 -2.2444 0
M  V30 11720 H 1018.92 -1.05407 -1.05876 0
M  V30 11721 H 1020.8 -0.538684 -4.17943 0
M  V30 11722 H 1019.48 0.190282 -3.2314 0
M  V30 11723 H 1018.38 -2.12214 -3.08084 0
M  V30 11724 H 1019.72 -2.77585 -4.06457 0
M  V30 11725 N 1021.37 1.14642 -1.08144 0
M  V30 11726 C 1022.28 2.23257 -0.720668 0
M  V30 11727 C 1023.29 1.71866 0.271648 0
M  V30 11728 O 1024.47 2.01064 0.116266 0
M  V30 11729 C 1021.53 3.46447 -0.132542 0
M  V30 11730 C 1020.6 4.12789 -1.17913 0
M  V30 11731 C 1019.83 5.30099 -0.618971 0
M  V30 11732 O 1020.05 5.6762 0.562418 0
M  V30 11733 O 1018.99 5.86154 -1.36774 0
M  V30 11734 H 1022.81 2.56463 -1.62667 0
M  V30 11735 H 1020.4 1.22521 -0.854932 0
M  V30 11736 H 1022.28 4.20959 0.19277 0
M  V30 11737 H 1020.95 3.14971 0.746662 0
M  V30 11738 H 1019.86 3.40163 -1.55693 0
M  V30 11739 H 1021.19 4.48365 -2.03051 0
M  V30 11740 N 1022.85 0.866709 1.31628 0
M  V30 11741 C 1024.09 0.472185 1.96095 0
M  V30 11742 C 1024.41 -0.979873 1.69286 0
M  V30 11743 O 1025.61 -1.48039 2.27589 0
M  V30 11744 C 1024.07 0.793468 3.51044 0
M  V30 11745 C 1023.68 2.26206 3.86697 0
M  V30 11746 C 1025.42 0.467255 4.21921 0
M  V30 11747 C 1023.33 2.52593 5.34743 0
M  V30 11748 H 1022.26 0.172846 0.733921 0
M  V30 11749 H 1024.91 1.05916 1.49847 0
M  V30 11750 H 1023.29 0.135783 3.95767 0
M  V30 11751 H 1024.47 2.96254 3.52945 0
M  V30 11752 H 1022.78 2.55399 3.28877 0
M  V30 11753 H 1025.38 0.641669 5.30836 0
M  V30 11754 H 1025.72 -0.592065 4.12068 0
M  V30 11755 H 1026.25 1.08134 3.82821 0
M  V30 11756 H 1022.99 3.57196 5.49628 0
M  V30 11757 H 1022.51 1.87136 5.6986 0
M  V30 11758 H 1024.19 2.37156 6.01968 0
M  V30 11759 N 1024.32 -1.44642 0.625825 0
M  V30 11760 C 1025.27 -2.32408 -0.0945221 0
M  V30 11761 C 1026.27 -1.47038 -0.841198 0
M  V30 11762 O 1027.47 -1.63415 -0.754698 0
M  V30 11763 H 1023.85 -0.75038 -0.0493321 0
M  V30 11764 H 1025.82 -2.90922 0.663863 0
M  V30 11765 C 1024.57 -3.30951 -1.06615 0
M  V30 11766 H 1023.89 -3.96648 -0.501021 0
M  V30 11767 H 1025.33 -3.95054 -1.53976 0
M  V30 11768 C 1023.79 -2.59479 -2.14877 0
M  V30 11769 O 1024.32 -2.38974 -3.22885 0
M  V30 11770 N 1022.52 -2.19307 -1.90665 0
M  V30 11771 H 1022.07 -2.36184 -1.02835 0
M  V30 11772 H 1022.03 -1.71811 -2.63303 0
M  V30 11773 N 1025.8 -0.366053 -1.5329 0
M  V30 11774 C 1026.75 0.480205 -2.25749 0
M  V30 11775 C 1027.72 1.07713 -1.2644 0
M  V30 11776 O 1028.9 1.10953 -1.55222 0
M  V30 11777 C 1026.04 1.61374 -3.05045 0
M  V30 11778 C 1025.16 1.04194 -4.19246 0
M  V30 11779 C 1024.29 2.14462 -4.85983 0
M  V30 11780 C 1023.33 1.5475 -5.92215 0
M  V30 11781 N 1022.47 2.58852 -6.52641 0
M  V30 11782 H 1027.31 -0.144199 -2.97651 0
M  V30 11783 H 1024.84 -0.0829321 -1.46866 0
M  V30 11784 H 1026.8 2.28144 -3.49294 0
M  V30 11785 H 1025.43 2.2088 -2.35397 0
M  V30 11786 H 1024.48 0.264514 -3.79479 0
M  V30 11787 H 1025.8 0.565379 -4.95585 0
M  V30 11788 H 1024.95 2.89051 -5.33418 0
M  V30 11789 H 1023.69 2.6547 -4.09117 0
M  V30 11790 H 1022.69 0.786759 -5.44142 0
M  V30 11791 H 1023.92 1.04566 -6.71001 0
M  V30 11792 H 1021.87 3.09073 -5.78627 0
M  V30 11793 H 1021.78 2.15884 -7.24521 0
M  V30 11794 H 1023.05 3.33142 -7.04724 0
M  V30 11795 N 1027.28 1.57312 -0.0952337 0
M  V30 11796 C 1028.19 2.17556 0.877877 0
M  V30 11797 C 1029.21 1.14505 1.31014 0
M  V30 11798 O 1030.38 1.46876 1.37802 0
M  V30 11799 C 1027.45 2.74413 2.11892 0
M  V30 11800 C 1026.51 3.92419 1.74085 0
M  V30 11801 C 1025.74 4.46556 2.92273 0
M  V30 11802 O 1025.96 3.99631 4.07002 0
M  V30 11803 O 1024.9 5.37576 2.70732 0
M  V30 11804 H 1028.72 3.01116 0.395312 0
M  V30 11805 H 1026.31 1.48841 0.129123 0
M  V30 11806 H 1028.19 3.10754 2.84622 0
M  V30 11807 H 1026.87 1.93899 2.59201 0
M  V30 11808 H 1025.77 3.6089 0.985346 0
M  V30 11809 H 1027.11 4.74298 1.31539 0
M  V30 11810 N 1028.76 -0.17846 1.56586 0
M  V30 11811 C 1030.17 -0.529957 1.50544 0
M  V30 11812 C 1030.37 -1.85015 0.798237 0
M  V30 11813 O 1029.43 -2.49983 0.355639 0
M  V30 11814 C 1030.74 -0.569314 2.95261 0
M  V30 11815 C 1032.29 -0.657008 3.06027 0
M  V30 11816 C 1032.77 -0.727323 4.52188 0
M  V30 11817 N 1034.26 -0.790406 4.56406 0
M  V30 11818 C 1034.99 -0.865265 5.66834 0
M  V30 11819 N 1034.49 -0.901398 6.86911 0
M  V30 11820 N 1036.28 -0.903736 5.54787 0
M  V30 11821 H 1028.43 0.687304 2.00972 0
M  V30 11822 H 1030.69 0.246936 0.915274 0
M  V30 11823 H 1030.4 0.331934 3.5013 0
M  V30 11824 H 1030.27 -1.41828 3.4952 0
M  V30 11825 H 1032.66 -1.54868 2.51197 0
M  V30 11826 H 1032.74 0.218495 2.54865 0
M  V30 11827 H 1032.39 0.160067 5.07648 0
M  V30 11828 H 1032.32 -1.61887 5.01099 0
M  V30 11829 H 1034.81 -0.771054 3.6995 0
M  V30 11830 H 1035.12 -0.959494 7.6682 0
M  V30 11831 H 1033.47 -0.869795 6.89536 0
M  V30 11832 H 1036.66 -0.872459 4.59898 0
M  V30 11833 H 1036.83 -0.958615 6.4087 0
M  V30 11834 N 1030.24 -1.51135 -0.446768 0
M  V30 11835 C 1031.65 -1.39101 -0.782504 0
M  V30 11836 C 1031.85 -0.46599 -1.96038 0
M  V30 11837 O 1030.91 0.0823679 -2.52366 0
M  V30 11838 C 1032.22 -2.80953 -1.07173 0
M  V30 11839 C 1033.77 -2.90038 -1.17673 0
M  V30 11840 C 1034.24 -4.32777 -1.49894 0
M  V30 11841 N 1035.73 -4.3584 -1.56837 0
M  V30 11842 C 1036.47 -5.43305 -1.83322 0
M  V30 11843 N 1035.97 -6.60945 -2.07662 0
M  V30 11844 N 1037.76 -5.30775 -1.85026 0
M  V30 11845 H 1029.91 -2.09835 0.329114 0
M  V30 11846 H 1032.17 -0.944199 0.0848054 0
M  V30 11847 H 1031.88 -3.50591 -0.279037 0
M  V30 11848 H 1031.75 -3.197 -2.00179 0
M  V30 11849 H 1034.14 -2.20603 -1.96005 0
M  V30 11850 H 1034.22 -2.54801 -0.225892 0
M  V30 11851 H 1033.86 -5.02757 -0.720924 0
M  V30 11852 H 1033.79 -4.6552 -2.46168 0
M  V30 11853 H 1036.29 -3.51023 -1.39968 0
M  V30 11854 H 1036.6 -7.38643 -2.27214 0
M  V30 11855 H 1034.94 -6.64077 -2.05003 0
M  V30 11856 H 1038.13 -4.37858 -1.65523 0
M  V30 11857 H 1038.31 -6.14609 -2.05329 0
M  V30 11858 N 1031.71 0.701592 -1.41122 0
M  V30 11859 C 1032.68 1.79733 -1.42227 0
M  V30 11860 C 1033.68 1.57708 -0.313831 0
M  V30 11861 O 1034.87 1.64492 -0.573423 0
M  V30 11862 C 1032 3.18024 -1.22775 0
M  V30 11863 H 1033.19 1.80148 -2.39764 0
M  V30 11864 H 1030.74 0.908624 -1.27176 0
M  V30 11865 H 1031.48 3.23252 -0.260552 0
M  V30 11866 H 1031.26 3.35411 -2.0308 0
M  V30 11867 H 1032.75 3.98021 -1.2637 0
M  V30 11868 N 1033.19 1.2685 0.935242 0
M  V30 11869 C 1034.42 1.15645 1.72165 0
M  V30 11870 C 1034.84 -0.283909 1.85945 0
M  V30 11871 O 1034.2 -1.20567 1.354 0
M  V30 11872 C 1034.25 1.83689 3.10307 0
M  V30 11873 O 1033.35 1.12972 3.96625 0
M  V30 11874 H 1032.69 0.402629 0.528002 0
M  V30 11875 H 1035.22 1.67781 1.17093 0
M  V30 11876 H 1035.23 1.90749 3.60664 0
M  V30 11877 H 1033.91 2.88472 2.99595 0
M  V30 11878 H 1032.48 1.13929 3.5507 0
M  V30 11879 N 1034.67 -1.14067 1.0875 0
M  V30 11880 C 1035.92 -1.85185 0.819317 0
M  V30 11881 C 1036.25 -1.8314 -0.654969 0
M  V30 11882 O 1035.5 -1.25974 -1.49763 0
M  V30 11883 C 1035.8 -3.33273 1.29089 0
M  V30 11884 C 1035.47 -3.55504 2.77359 0
M  V30 11885 C 1034.13 -3.61279 3.17853 0
M  V30 11886 C 1036.48 -3.64041 3.72992 0
M  V30 11887 C 1033.81 -3.73119 4.52768 0
M  V30 11888 C 1036.16 -3.77407 5.07687 0
M  V30 11889 C 1034.82 -3.81433 5.47782 0
M  V30 11890 H 1034.09 -0.67764 0.299809 0
M  V30 11891 H 1036.74 -1.34713 1.36106 0
M  V30 11892 H 1035.05 -3.86049 0.668811 0
M  V30 11893 H 1036.74 -3.86734 1.06009 0
M  V30 11894 H 1033.33 -3.51659 2.45019 0
M  V30 11895 H 1037.52 -3.58866 3.42825 0
M  V30 11896 H 1032.77 -3.74499 4.83281 0
M  V30 11897 H 1036.95 -3.82956 5.81651 0
M  V30 11898 H 1034.57 -3.9036 6.52321 0
M  V30 11899 N 1036.15 -0.873678 -1.31166 0
M  V30 11900 C 1037.1 -0.330288 -2.28424 0
M  V30 11901 C 1038.07 0.573299 -1.55893 0
M  V30 11902 O 1039.25 0.504143 -1.84019 0
M  V30 11903 C 1036.39 0.459004 -3.42034 0
M  V30 11904 C 1035.5 -0.472519 -4.29408 0
M  V30 11905 C 1034.64 0.331261 -5.30166 0
M  V30 11906 C 1033.68 -0.596453 -6.09187 0
M  V30 11907 N 1032.81 0.171305 -7.01891 0
M  V30 11908 H 1037.65 -1.16485 -2.7429 0
M  V30 11909 H 1035.19 -0.585813 -1.34932 0
M  V30 11910 H 1037.15 0.932432 -4.06647 0
M  V30 11911 H 1035.78 1.25824 -2.97268 0
M  V30 11912 H 1034.83 -1.06441 -3.65205 0
M  V30 11913 H 1036.14 -1.18372 -4.84551 0
M  V30 11914 H 1035.3 0.867038 -6.00473 0
M  V30 11915 H 1034.04 1.07573 -4.75688 0
M  V30 11916 H 1033.04 -1.14395 -5.37767 0
M  V30 11917 H 1034.27 -1.33983 -6.65752 0
M  V30 11918 H 1032.21 0.89852 -6.49817 0
M  V30 11919 H 1032.13 -0.480481 -7.54472 0
M  V30 11920 H 1033.4 0.688192 -7.76456 0
M  V30 11921 N 1037.63 1.44308 -0.633487 0
M  V30 11922 C 1038.87 2.02023 -0.138917 0
M  V30 11923 C 1039.2 1.49841 1.24008 0
M  V30 11924 O 1038.46 0.673718 1.83738 0
M  V30 11925 C 1038.76 3.57316 -0.0773886 0
M  V30 11926 C 1038.42 4.28762 -1.39548 0
M  V30 11927 C 1037.08 4.47997 -1.75648 0
M  V30 11928 C 1039.44 4.69391 -2.26542 0
M  V30 11929 C 1036.76 5.05121 -2.98445 0
M  V30 11930 C 1039.12 5.27876 -3.48612 0
M  V30 11931 C 1037.78 5.45329 -3.84932 0
M  V30 11932 H 1037.05 0.739254 -0.0508333 0
M  V30 11933 H 1039.7 1.73043 -0.820271 0
M  V30 11934 H 1038 3.85724 0.687345 0
M  V30 11935 H 1039.7 3.99706 0.321837 0
M  V30 11936 H 1036.29 4.14122 -1.10456 0
M  V30 11937 H 1040.47 4.54241 -1.99946 0
M  V30 11938 H 1035.73 5.16821 -3.26658 0
M  V30 11939 H 1039.9 5.58307 -4.16253 0
M  V30 11940 H 1037.53 5.8936 -4.80166 0
M  V30 11941 N 1039.1 0.374177 1.53094 0
M  V30 11942 C 1040.04 -0.503065 2.23611 0
M  V30 11943 C 1041.05 -1.03915 1.25321 0
M  V30 11944 O 1042.24 -0.944064 1.51492 0
M  V30 11945 C 1039.34 -1.70825 2.92698 0
M  V30 11946 C 1038.51 -1.30217 4.17567 0
M  V30 11947 C 1037.57 -2.37036 4.69788 0
M  V30 11948 O 1036.6 -1.99069 5.33254 0
M  V30 11949 N 1037.8 -3.68743 4.4834 0
M  V30 11950 H 1040.56 0.101013 2.9953 0
M  V30 11951 H 1038.12 0.199778 1.60663 0
M  V30 11952 H 1040.12 -2.41779 3.24538 0
M  V30 11953 H 1038.69 -2.219 2.2018 0
M  V30 11954 H 1037.91 -0.422121 3.91933 0
M  V30 11955 H 1039.19 -1.00728 4.9873 0
M  V30 11956 H 1038.59 -4.0236 3.97647 0
M  V30 11957 H 1037.15 -4.35776 4.84709 0
M  V30 11958 N 1040.58 -1.57259 0.103575 0
M  V30 11959 C 1041.86 -1.86143 -0.600852 0
M  V30 11960 C 1042.24 -1.00198 -1.85805 0
M  V30 11961 O 1041.59 -0.0766791 -2.28371 0
M  V30 11962 C 1041.8 -3.36978 -0.908108 0
M  V30 11963 C 1043.15 -4.05228 -1.26788 0
M  V30 11964 O 1044.17 -3.41908 -0.998859 0
M  V30 11965 O 1043.03 -5.16971 -1.7721 0
M  V30 11966 H 1040.12 -0.770064 -0.301547 0
M  V30 11967 H 1042.67 -1.69147 0.136914 0
M  V30 11968 H 1041.44 -3.91296 -0.0165615 0
M  V30 11969 H 1041.06 -3.5935 -1.70156 0
M  V30 11970 N 1042.06 0.170153 -1.56679 0
M  V30 11971 C 1043.31 0.886592 -1.8206 0
M  V30 11972 C 1043.64 1.82194 -0.680839 0
M  V30 11973 O 1042.89 1.92866 0.331822 0
M  V30 11974 C 1043.19 1.71402 -3.13618 0
M  V30 11975 C 1042.86 0.927489 -4.41258 0
M  V30 11976 C 1041.52 0.710417 -4.75927 0
M  V30 11977 C 1043.87 0.375855 -5.19843 0
M  V30 11978 C 1041.2 -0.0693691 -5.86659 0
M  V30 11979 C 1043.55 -0.390849 -6.31391 0
M  V30 11980 C 1042.21 -0.61871 -6.64626 0
M  V30 11981 H 1041.48 0.324427 -0.666204 0
M  V30 11982 H 1044.13 0.151464 -1.909 0
M  V30 11983 H 1042.44 2.51858 -3.00125 0
M  V30 11984 H 1044.13 2.27141 -3.30466 0
M  V30 11985 H 1040.72 1.10672 -4.14065 0
M  V30 11986 H 1044.91 0.530897 -4.93452 0
M  V30 11987 H 1040.16 -0.255637 -6.10865 0
M  V30 11988 H 1044.34 -0.825544 -6.9149 0
M  V30 11989 H 1041.96 -1.22482 -7.50268 0
M  V30 11990 N 1043.54 1.5137 0.438746 0
M  V30 11991 C 1044.78 1.64211 1.19006 0
M  V30 11992 C 1045.12 0.356607 1.90898 0
M  V30 11993 O 1044.39 -0.643722 1.83539 0
M  V30 11994 C 1044.68 2.8445 2.20817 0
M  V30 11995 C 1044.53 4.22972 1.53018 0
M  V30 11996 C 1045.85 3.00207 3.21813 0
M  V30 11997 H 1042.97 0.597628 0.431288 0
M  V30 11998 H 1045.61 1.8385 0.479487 0
M  V30 11999 H 1043.76 2.67836 2.81418 0
M  V30 12000 H 1045.43 4.5125 0.957654 0
M  V30 12001 H 1043.67 4.25736 0.832556 0
M  V30 12002 H 1044.34 5.03094 2.27158 0
M  V30 12003 H 1046.82 3.15522 2.71266 0
M  V30 12004 H 1045.7 3.85904 3.90345 0
M  V30 12005 H 1045.96 2.12216 3.87836 0
M  V30 12006 N 1045.02 -0.694098 1.41492 0
M  V30 12007 C 1046.26 -1.4563 1.41137 0
M  V30 12008 C 1046.6 -1.94189 0.0208428 0
M  V30 12009 O 1045.87 -1.69628 -0.951655 0
M  V30 12010 C 1046.15 -2.66714 2.41941 0
M  V30 12011 C 1046.01 -2.23912 3.90107 0
M  V30 12012 C 1047.33 -3.68913 2.39981 0
M  V30 12013 H 1044.44 -0.52821 0.513968 0
M  V30 12014 H 1047.09 -0.790437 1.72778 0
M  V30 12015 H 1045.24 -3.23525 2.1509 0
M  V30 12016 H 1046.91 -1.72417 4.27867 0
M  V30 12017 H 1045.15 -1.5568 4.04903 0
M  V30 12018 H 1045.82 -3.108 4.56188 0
M  V30 12019 H 1048.3 -3.21779 2.63813 0
M  V30 12020 H 1047.17 -4.51242 3.12524 0
M  V30 12021 H 1047.44 -4.18711 1.41892 0
M  V30 12022 N 1046.49 -1.27344 -0.928501 0
M  V30 12023 C 1047.44 -1.10001 -2.029 0
M  V30 12024 C 1048.41 -0.00131084 -1.661 0
M  V30 12025 O 1049.6 -0.163485 -1.90098 0
M  V30 12026 C 1046.74 -0.7524 -3.36798 0
M  V30 12027 C 1045.85 -1.92865 -3.86558 0
M  V30 12028 C 1044.98 -1.52299 -5.08899 0
M  V30 12029 C 1044.02 -2.66677 -5.50953 0
M  V30 12030 N 1043.16 -2.26706 -6.64491 0
M  V30 12031 H 1048 -2.0417 -2.17068 0
M  V30 12032 H 1045.54 -1.01637 -1.0634 0
M  V30 12033 H 1047.5 -0.531687 -4.13798 0
M  V30 12034 H 1046.13 0.15234 -3.2244 0
M  V30 12035 H 1045.18 -2.26192 -3.05845 0
M  V30 12036 H 1046.49 -2.78668 -4.13698 0
M  V30 12037 H 1045.64 -1.26348 -5.93398 0
M  V30 12038 H 1044.38 -0.636042 -4.83535 0
M  V30 12039 H 1043.39 -2.93344 -4.65004 0
M  V30 12040 H 1044.61 -3.55992 -5.78313 0
M  V30 12041 H 1042.56 -1.40462 -6.40786 0
M  V30 12042 H 1042.48 -3.06049 -6.91281 0
M  V30 12043 H 1043.74 -2.04 -7.52333 0
M  V30 12044 N 1047.97 1.13488 -1.09353 0
M  V30 12045 C 1048.88 2.2248 -0.744307 0
M  V30 12046 C 1049.9 1.72145 0.253404 0
M  V30 12047 O 1051.07 2.01176 0.0949339 0
M  V30 12048 C 1048.14 3.46286 -0.16928 0
M  V30 12049 C 1047.2 4.11516 -1.22284 0
M  V30 12050 C 1046.43 5.29412 -0.675161 0
M  V30 12051 O 1046.66 5.68185 0.502182 0
M  V30 12052 O 1045.59 5.8467 -1.42983 0
M  V30 12053 H 1049.42 2.54723 -1.65378 0
M  V30 12054 H 1047 1.21607 -0.867879 0
M  V30 12055 H 1048.88 4.2114 0.14811 0
M  V30 12056 H 1047.56 3.15745 0.713214 0
M  V30 12057 H 1046.47 3.38492 -1.59292 0
M  V30 12058 H 1047.8 4.46186 -2.07796 0
M  V30 12059 N 1049.45 0.880621 1.30701 0
M  V30 12060 C 1050.73 0.41712 1.91101 0
M  V30 12061 C 1051.11 -1.10177 1.80067 0
M  V30 12062 O 1050.46 -1.93513 1.21511 0
M  V30 12063 C 1050.67 0.910364 3.36917 0
M  V30 12064 C 1052.01 0.942764 4.14001 0
M  V30 12065 O 1053.04 0.856733 3.45743 0
M  V30 12066 O 1051.9 1.06913 5.3594 0
M  V30 12067 H 1048.99 0.126775 0.817225 0
M  V30 12068 H 1051.54 0.969236 1.39298 0
M  V30 12069 H 1050.31 1.95414 3.39012 0
M  V30 12070 H 1049.93 0.337164 3.96168 0
M  V30 12071 N 1050.93 -1.4397 0.641131 0
M  V30 12072 C 1052.15 -2.06818 0.155318 0
M  V30 12073 C 1052.58 -1.47665 -1.16519 0
M  V30 12074 O 1051.94 -0.58192 -1.71707 0
M  V30 12075 C 1051.99 -3.60542 0.0647537 0
M  V30 12076 O 1051.09 -4.00674 -0.976447 0
M  V30 12077 H 1050.43 -0.657962 0.0893404 0
M  V30 12078 H 1052.96 -1.84678 0.88064 0
M  V30 12079 H 1052.97 -4.07816 -0.122552 0
M  V30 12080 H 1051.65 -4.02975 1.02878 0
M  V30 12081 H 1050.22 -3.65013 -0.762905 0
M  V30 12082 N 1052.41 -0.382291 -1.52893 0
M  V30 12083 C 1053.65 0.202433 -2.01787 0
M  V30 12084 C 1053.99 1.47044 -1.26853 0
M  V30 12085 O 1053.26 1.91007 -0.366969 0
M  V30 12086 C 1053.54 0.477471 -3.5692 0
M  V30 12087 C 1053.4 -0.805339 -4.42532 0
M  V30 12088 C 1054.72 1.27106 -4.21346 0
M  V30 12089 H 1051.84 0.0720998 -0.733465 0
M  V30 12090 H 1054.48 -0.510478 -1.83014 0
M  V30 12091 H 1052.63 1.08478 -3.73048 0
M  V30 12092 H 1054.3 -1.4424 -4.3817 0
M  V30 12093 H 1052.54 -1.42216 -4.09826 0
M  V30 12094 H 1053.21 -0.567635 -5.49074 0
M  V30 12095 H 1055.69 0.757161 -4.09153 0
M  V30 12096 H 1054.57 1.43225 -5.29885 0
M  V30 12097 H 1054.83 2.28431 -3.78513 0
M  V30 12098 N 1053.89 1.57202 -0.111913 0
M  V30 12099 C 1055.13 1.95239 0.548607 0
M  V30 12100 C 1055.46 0.994897 1.6678 0
M  V30 12101 O 1054.74 0.0308603 1.94476 0
M  V30 12102 C 1055.02 3.43271 1.08798 0
M  V30 12103 C 1054.88 4.49792 -0.0273064 0
M  V30 12104 C 1056.19 3.92989 1.98109 0
M  V30 12105 H 1053.31 0.709919 0.197951 0
M  V30 12106 H 1055.96 1.89087 -0.186036 0
M  V30 12107 H 1054.11 3.48644 1.71404 0
M  V30 12108 H 1055.78 4.56521 -0.662302 0
M  V30 12109 H 1054.02 4.28254 -0.691426 0
M  V30 12110 H 1054.69 5.50612 0.391201 0
M  V30 12111 H 1057.17 3.89875 1.45385 0
M  V30 12112 H 1056.04 4.97101 2.32769 0
M  V30 12113 H 1056.3 3.33267 2.90492 0
M  V30 12114 N 1055.36 -0.161842 1.56767 0
M  V30 12115 C 1056.29 -1.20226 2.0017 0
M  V30 12116 C 1057.27 -1.4564 0.878807 0
M  V30 12117 O 1058.46 -1.56813 1.14557 0
M  V30 12118 C 1055.59 -2.53897 2.36968 0
M  V30 12119 C 1054.54 -2.43033 3.52305 0
M  V30 12120 C 1053.87 -3.81281 3.74872 0
M  V30 12121 C 1055.17 -1.927 4.85453 0
M  V30 12122 H 1056.86 -0.84142 2.87333 0
M  V30 12123 H 1054.41 -0.403309 1.38237 0
M  V30 12124 H 1056.36 -3.26893 2.6593 0
M  V30 12125 H 1055.09 -2.91787 1.46724 0
M  V30 12126 H 1053.75 -1.7249 3.23485 0
M  V30 12127 H 1053.39 -4.1658 2.81904 0
M  V30 12128 H 1053.09 -3.74877 4.52483 0
M  V30 12129 H 1054.62 -4.55848 4.06245 0
M  V30 12130 H 1056.03 -2.55477 5.13229 0
M  V30 12131 H 1054.43 -1.97222 5.66766 0
M  V30 12132 H 1055.5 -0.881816 4.76814 0
M  V30 12133 N 1056.84 -1.516 -0.430713 0
M  V30 12134 C 1058.07 -1.68169 -1.20011 0
M  V30 12135 C 1058.48 -0.381406 -1.85316 0
M  V30 12136 O 1057.82 0.6506 -1.71793 0
M  V30 12137 C 1057.88 -2.7454 -2.32095 0
M  V30 12138 C 1057.55 -4.16942 -1.87104 0
M  V30 12139 C 1058.55 -5.01503 -1.37078 0
M  V30 12140 C 1056.23 -4.63075 -1.94594 0
M  V30 12141 C 1058.22 -6.3026 -0.951362 0
M  V30 12142 C 1055.91 -5.91827 -1.52264 0
M  V30 12143 C 1056.91 -6.75247 -1.02618 0
M  V30 12144 O 1056.6 -8.01591 -0.608905 0
M  V30 12145 H 1056.33 -0.567361 -0.367528 0
M  V30 12146 H 1058.88 -1.98819 -0.515759 0
M  V30 12147 H 1057.11 -2.39219 -3.03828 0
M  V30 12148 H 1058.8 -2.79921 -2.93937 0
M  V30 12149 H 1059.57 -4.67063 -1.30681 0
M  V30 12150 H 1055.45 -3.98262 -2.32182 0
M  V30 12151 H 1058.99 -6.95323 -0.563163 0
M  V30 12152 H 1054.89 -6.2578 -1.58333 0
M  V30 12153 H 1055.66 -8.15201 -0.73416 0
M  V30 12154 N 1058.32 0.686584 -1.41858 0
M  V30 12155 C 1059.27 1.82167 -1.4463 0
M  V30 12156 C 1060.26 1.66286 -0.323313 0
M  V30 12157 O 1061.47 1.73038 -0.495773 0
M  V30 12158 H 1057.84 0.600454 -0.452724 0
M  V30 12159 H 1059.81 1.76947 -2.40276 0
M  V30 12160 C 1058.56 3.20248 -1.35412 0
M  V30 12161 H 1057.89 3.33089 -2.21115 0
M  V30 12162 H 1059.33 3.99723 -1.41413 0
M  V30 12163 C 1057.78 3.36832 -0.0674972 0
M  V30 12164 O 1058.31 3.91845 0.884325 0
M  V30 12165 N 1056.52 2.90598 0.011519 0
M  V30 12166 H 1056.07 2.46016 -0.76381 0
M  V30 12167 H 1056.03 3.02072 0.871774 0
M  V30 12168 N 1059.8 1.27835 0.921735 0
M  V30 12169 C 1060.74 1.11075 2.02314 0
M  V30 12170 C 1061.71 0.0101195 1.66097 0
M  V30 12171 O 1062.9 0.173564 1.90009 0
M  V30 12172 C 1060.04 0.770251 3.36394 0
M  V30 12173 C 1059.15 1.94912 3.8553 0
M  V30 12174 C 1058.29 1.54996 5.08084 0
M  V30 12175 C 1057.33 2.69595 5.49531 0
M  V30 12176 N 1056.46 2.30227 6.6328 0
M  V30 12177 H 1061.3 2.05319 2.15982 0
M  V30 12178 H 1058.84 1.022 1.058 0
M  V30 12179 H 1060.8 0.553624 4.1351 0
M  V30 12180 H 1059.43 -0.135238 3.22517 0
M  V30 12181 H 1058.48 2.27811 3.04641 0
M  V30 12182 H 1059.79 2.80858 4.12214 0
M  V30 12183 H 1058.95 1.29493 5.9272 0
M  V30 12184 H 1057.69 0.661676 4.83191 0
M  V30 12185 H 1056.69 2.95806 4.63442 0
M  V30 12186 H 1057.92 3.59054 5.76417 0
M  V30 12187 H 1055.86 1.43858 6.40032 0
M  V30 12188 H 1055.78 3.09711 6.89649 0
M  V30 12189 H 1057.05 2.07987 7.5124 0
M  V30 12190 N 1061.28 -1.12907 1.09954 0
M  V30 12191 C 1062.5 -1.88679 0.861099 0
M  V30 12192 C 1062.93 -1.78853 -0.582499 0
M  V30 12193 O 1062.28 -1.13992 -1.4098 0
M  V30 12194 C 1062.33 -3.36047 1.30785 0
M  V30 12195 O 1061.44 -4.09716 0.469728 0
M  V30 12196 H 1060.78 -0.586447 0.31141 0
M  V30 12197 H 1063.31 -1.42818 1.46507 0
M  V30 12198 H 1063.32 -3.86882 1.29562 0
M  V30 12199 H 1061.99 -3.42516 2.35914 0
M  V30 12200 H 1060.57 -3.6887 0.54674 0
M  V30 12201 N 1062.75 -0.88754 -1.30232 0
M  V30 12202 C 1064 -0.506277 -1.95656 0
M  V30 12203 C 1064.32 0.948191 -1.70395 0
M  V30 12204 O 1063.59 1.66701 -1.02895 0
M  V30 12205 H 1062.17 -0.184235 -0.723924 0
M  V30 12206 H 1064.83 -1.13118 -1.58715 0
M  V30 12207 H 1063.93 -0.678673 -3.04632 0
M  V30 12208 N 1064.23 1.43628 -0.648757 0
M  V30 12209 C 1065.48 2.01083 -0.157692 0
M  V30 12210 C 1065.79 1.51756 1.23408 0
M  V30 12211 O 1067 2.01455 1.82012 0
M  V30 12212 C 1065.46 3.59157 -0.231118 0
M  V30 12213 C 1065.06 4.17478 -1.6253 0
M  V30 12214 C 1066.81 4.24016 0.202573 0
M  V30 12215 C 1064.72 5.67832 -1.6529 0
M  V30 12216 H 1063.65 0.751977 -0.0551897 0
M  V30 12217 H 1066.3 1.64648 -0.810139 0
M  V30 12218 H 1064.68 3.92972 0.488755 0
M  V30 12219 H 1065.85 3.9517 -2.37017 0
M  V30 12220 H 1064.17 3.64973 -2.00459 0
M  V30 12221 H 1066.76 5.34319 0.20174 0
M  V30 12222 H 1067.11 3.97616 1.23319 0
M  V30 12223 H 1067.64 3.95068 -0.465398 0
M  V30 12224 H 1064.38 5.98994 -2.66246 0
M  V30 12225 H 1063.9 5.92209 -0.951217 0
M  V30 12226 H 1065.58 6.3179 -1.39465 0
M  V30 12227 N 1065.71 0.390394 1.52688 0
M  V30 12228 C 1066.64 -0.479319 2.24132 0
M  V30 12229 C 1067.66 -1.0258 1.26416 0
M  V30 12230 O 1068.84 -0.927943 1.52484 0
M  V30 12231 C 1065.94 -1.67711 2.94493 0
M  V30 12232 C 1065.12 -1.2578 4.18925 0
M  V30 12233 C 1064.18 -2.3204 4.72275 0
M  V30 12234 O 1063.2 -1.93402 5.35336 0
M  V30 12235 N 1064.4 -3.63967 4.52226 0
M  V30 12236 H 1067.17 0.132777 2.99406 0
M  V30 12237 H 1064.73 0.216807 1.60442 0
M  V30 12238 H 1066.72 -2.38323 3.27084 0
M  V30 12239 H 1065.29 -2.19552 2.22521 0
M  V30 12240 H 1064.51 -0.380528 3.92359 0
M  V30 12241 H 1065.8 -0.954329 4.9977 0
M  V30 12242 H 1065.2 -3.98119 4.01892 0
M  V30 12243 H 1063.76 -4.30611 4.89303 0
M  V30 12244 N 1067.19 -1.57141 0.120249 0
M  V30 12245 C 1068.42 -1.993 -0.544346 0
M  V30 12246 C 1068.83 -0.998858 -1.60684 0
M  V30 12247 O 1068.17 0.0162197 -1.83693 0
M  V30 12248 C 1068.23 -3.37874 -1.22808 0
M  V30 12249 C 1067.9 -4.55924 -0.313374 0
M  V30 12250 C 1068.89 -5.17962 0.448501 0
M  V30 12251 C 1066.58 -5.018 -0.224082 0
M  V30 12252 C 1068.57 -6.24264 1.28739 0
M  V30 12253 C 1066.26 -6.07963 0.618437 0
M  V30 12254 C 1067.26 -6.69061 1.3728 0
M  V30 12255 O 1066.94 -7.73173 2.20133 0
M  V30 12256 H 1066.68 -0.659466 -0.148596 0
M  V30 12257 H 1069.23 -2.04387 0.203779 0
M  V30 12258 H 1067.46 -3.29545 -2.02329 0
M  V30 12259 H 1069.15 -3.64314 -1.7897 0
M  V30 12260 H 1069.92 -4.83434 0.389395 0
M  V30 12261 H 1065.79 -4.53989 -0.80094 0
M  V30 12262 H 1069.34 -6.71883 1.87667 0
M  V30 12263 H 1065.24 -6.4192 0.678932 0
M  V30 12264 H 1066 -7.90276 2.13088 0
M  V30 12265 N 1068.67 0.153526 -1.5685 0
M  V30 12266 C 1069.89 0.886343 -1.87507 0
M  V30 12267 C 1070.32 1.74244 -0.708565 0
M  V30 12268 O 1069.67 1.78045 0.341997 0
M  V30 12269 C 1069.72 1.72428 -3.16703 0
M  V30 12270 O 1068.83 2.82784 -3.00178 0
M  V30 12271 H 1068.17 0.247259 -0.616246 0
M  V30 12272 H 1070.7 0.146306 -2.04076 0
M  V30 12273 H 1070.71 2.12062 -3.4856 0
M  V30 12274 H 1069.38 1.09558 -4.01211 0
M  V30 12275 H 1067.96 2.46604 -2.79716 0
M  V30 12276 N 1070.14 1.51827 0.422667 0
M  V30 12277 C 1071.39 1.6522 1.17084 0
M  V30 12278 C 1071.72 0.375508 1.90841 0
M  V30 12279 O 1070.97 -0.641029 1.84903 0
M  V30 12280 C 1071.27 2.81572 2.20119 0
M  V30 12281 C 1070.94 4.20303 1.63268 0
M  V30 12282 C 1069.6 4.5804 1.47488 0
M  V30 12283 C 1071.95 5.06812 1.21618 0
M  V30 12284 C 1069.28 5.79979 0.885531 0
M  V30 12285 C 1071.63 6.29343 0.641071 0
M  V30 12286 C 1070.3 6.65841 0.470286 0
M  V30 12287 H 1069.57 0.604581 0.428442 0
M  V30 12288 H 1072.21 1.85896 0.459874 0
M  V30 12289 H 1070.52 2.55175 2.97309 0
M  V30 12290 H 1072.22 2.89132 2.77856 0
M  V30 12291 H 1068.81 3.90557 1.76531 0
M  V30 12292 H 1072.99 4.78251 1.32624 0
M  V30 12293 H 1068.25 6.06892 0.741105 0
M  V30 12294 H 1072.42 6.9571 0.309888 0
M  V30 12295 H 1070.05 7.60199 0.0115038 0
M  V30 12296 N 1071.62 -0.679052 1.4222 0
M  V30 12297 C 1072.57 -1.79269 1.45366 0
M  V30 12298 C 1073.54 -1.63255 0.306089 0
M  V30 12299 O 1074.72 -1.8387 0.509548 0
M  V30 12300 C 1071.86 -3.17272 1.35766 0
M  V30 12301 C 1070.98 -3.44603 2.60525 0
M  V30 12302 C 1070.11 -4.7231 2.43098 0
M  V30 12303 C 1069.15 -4.92661 3.63251 0
M  V30 12304 N 1068.29 -6.11606 3.44794 0
M  V30 12305 H 1073.13 -1.75916 2.40536 0
M  V30 12306 H 1070.67 -0.858836 1.19425 0
M  V30 12307 H 1072.62 -3.97015 1.282 0
M  V30 12308 H 1071.25 -3.1976 0.441939 0
M  V30 12309 H 1070.31 -2.59144 2.78475 0
M  V30 12310 H 1071.62 -3.55536 3.49851 0
M  V30 12311 H 1070.77 -5.60136 2.33093 0
M  V30 12312 H 1069.51 -4.63652 1.51255 0
M  V30 12313 H 1068.52 -4.03278 3.73693 0
M  V30 12314 H 1069.74 -5.03167 4.5607 0
M  V30 12315 H 1067.69 -6.04129 2.55663 0
M  V30 12316 H 1067.6 -6.23381 4.27705 0
M  V30 12317 H 1068.87 -7.02122 3.38592 0
M  V30 12318 N 1073.1 -1.28322 -0.914942 0
M  V30 12319 C 1074.35 -1.15407 -1.66396 0
M  V30 12320 C 1074.68 0.297587 -1.9221 0
M  V30 12321 O 1073.93 1.23299 -1.51973 0
M  V30 12322 C 1074.23 -1.89663 -3.02924 0
M  V30 12323 C 1073.9 -3.39464 -2.96774 0
M  V30 12324 C 1072.56 -3.80321 -2.94804 0
M  V30 12325 C 1074.91 -4.3499 -2.87111 0
M  V30 12326 C 1072.24 -5.15046 -2.8097 0
M  V30 12327 C 1074.59 -5.69788 -2.74818 0
M  V30 12328 C 1073.25 -6.09921 -2.71205 0
M  V30 12329 H 1072.52 -0.422303 -0.608885 0
M  V30 12330 H 1075.17 -1.59082 -1.06607 0
M  V30 12331 H 1073.48 -1.38533 -3.66491 0
M  V30 12332 H 1075.17 -1.77087 -3.59779 0
M  V30 12333 H 1071.76 -3.06979 -2.99101 0
M  V30 12334 H 1075.95 -4.04389 -2.87721 0
M  V30 12335 H 1071.2 -5.45271 -2.76568 0
M  V30 12336 H 1075.38 -6.43469 -2.66309 0
M  V30 12337 H 1073 -7.14267 -2.60243 0
M  V30 12338 N 1074.58 1.12322 -1.10551 0
M  V30 12339 C 1075.86 1.80201 -0.760715 0
M  V30 12340 C 1076.24 1.97228 0.752628 0
M  V30 12341 O 1075.58 1.54958 1.67929 0
M  V30 12342 C 1075.79 3.14491 -1.51316 0
M  V30 12343 C 1077.14 3.89671 -1.68647 0
M  V30 12344 O 1078.17 3.24151 -1.47664 0
M  V30 12345 O 1077.02 5.0722 -2.03445 0
M  V30 12346 H 1074.12 0.780084 -0.274587 0
M  V30 12347 H 1076.66 1.19147 -1.20839 0
M  V30 12348 H 1075.44 2.97396 -2.54306 0
M  V30 12349 H 1075.06 3.83253 -1.05842 0
M  V30 12350 N 1076.06 0.894434 1.2976 0
M  V30 12351 C 1077.01 0.339611 2.25457 0
M  V30 12352 C 1077.99 -0.537326 1.51663 0
M  V30 12353 O 1079.18 -0.380204 1.72868 0
M  V30 12354 C 1076.31 -0.436494 3.40514 0
M  V30 12355 C 1075.4 0.455065 4.21651 0
M  V30 12356 N 1075.79 1.55988 4.81146 0
M  V30 12357 C 1074.09 0.251893 4.45288 0
M  V30 12358 C 1074.79 2.1117 5.42017 0
M  V30 12359 N 1073.76 1.40541 5.25118 0
M  V30 12360 H 1077.57 1.18365 2.69011 0
M  V30 12361 H 1075.08 0.744895 1.44309 0
M  V30 12362 H 1077.08 -0.850678 4.08129 0
M  V30 12363 H 1075.74 -1.27786 2.98498 0
M  V30 12364 H 1076.75 1.94266 4.80084 0
M  V30 12365 H 1073.42 -0.551536 4.13841 0
M  V30 12366 H 1074.81 3.04 5.99194 0
M  V30 12367 N 1077.53 -1.43282 0.656365 0
M  V30 12368 C 1078.46 -2.33492 -0.0196962 0
M  V30 12369 C 1079.45 -1.49647 -0.80868 0
M  V30 12370 O 1080.63 -1.78303 -0.769529 0
M  V30 12371 C 1077.76 -3.33052 -0.984574 0
M  V30 12372 C 1076.71 -4.26908 -0.305483 0
M  V30 12373 C 1076.04 -5.16531 -1.38202 0
M  V30 12374 C 1077.34 -5.16073 0.804081 0
M  V30 12375 H 1079.03 -2.90272 0.733661 0
M  V30 12376 H 1076.58 -1.39574 0.354259 0
M  V30 12377 H 1078.53 -3.9506 -1.46647 0
M  V30 12378 H 1077.26 -2.74535 -1.76913 0
M  V30 12379 H 1075.92 -3.66268 0.155995 0
M  V30 12380 H 1075.56 -4.54351 -2.1581 0
M  V30 12381 H 1075.26 -5.80148 -0.932878 0
M  V30 12382 H 1076.79 -5.81414 -1.86522 0
M  V30 12383 H 1078.2 -5.71873 0.404212 0
M  V30 12384 H 1076.6 -5.88427 1.17789 0
M  V30 12385 H 1077.67 -4.55574 1.66073 0
M  V30 12386 N 1079.01 -0.398486 -1.52479 0
M  V30 12387 C 1079.96 0.447001 -2.28264 0
M  V30 12388 C 1080.96 1.05511 -1.32529 0
M  V30 12389 O 1082.16 0.994528 -1.5003 0
M  V30 12390 H 1078.54 0.162919 -0.73414 0
M  V30 12391 H 1080.51 -0.213534 -2.97635 0
M  V30 12392 C 1079.26 1.55724 -3.10879 0
M  V30 12393 H 1078.58 1.09864 -3.84409 0
M  V30 12394 H 1080.02 2.12286 -3.67029 0
M  V30 12395 C 1078.48 2.51853 -2.23768 0
M  V30 12396 O 1079.01 3.55483 -1.87069 0
M  V30 12397 N 1077.21 2.2181 -1.87746 0
M  V30 12398 H 1076.76 1.3757 -2.17789 0
M  V30 12399 H 1076.72 2.86376 -1.29753 0
M  V30 12400 N 1080.49 1.57075 -0.12858 0
M  V30 12401 C 1081.91 1.57964 0.227961 0
M  V30 12402 C 1082.11 1.14186 1.66023 0
M  V30 12403 O 1081.16 0.833655 2.38341 0
M  V30 12404 C 1082.48 3.00697 -0.0140648 0
M  V30 12405 C 1084.02 3.12958 0.0510876 0
M  V30 12406 C 1084.5 4.57709 -0.163368 0
M  V30 12407 N 1085.99 4.6307 -0.109663 0
M  V30 12408 C 1086.73 5.72853 -0.250366 0
M  V30 12409 N 1086.22 6.91351 -0.447772 0
M  V30 12410 N 1088.01 5.61781 -0.189265 0
M  V30 12411 H 1080.17 1.83829 -1.06398 0
M  V30 12412 H 1082.43 0.850014 -0.419739 0
M  V30 12413 H 1082.13 3.37047 -1.00461 0
M  V30 12414 H 1082.01 3.70389 0.713571 0
M  V30 12415 H 1084.4 2.7646 1.03216 0
M  V30 12416 H 1084.48 2.4579 -0.708583 0
M  V30 12417 H 1084.12 4.94907 -1.14146 0
M  V30 12418 H 1084.05 5.2298 0.616405 0
M  V30 12419 H 1086.54 3.7788 0.0390086 0
M  V30 12420 H 1086.85 7.70871 -0.54574 0
M  V30 12421 H 1085.2 6.93314 -0.483866 0
M  V30 12422 H 1088.39 4.68086 -0.0359374 0
M  V30 12423 H 1088.56 6.47294 -0.302359 0
M  V30 12424 N 1081.97 -0.145205 1.5693 0
M  V30 12425 C 1082.92 -1.17923 1.98401 0
M  V30 12426 C 1083.89 -1.42591 0.851885 0
M  V30 12427 O 1085.07 -1.54896 1.11409 0
M  V30 12428 C 1082.21 -2.50727 2.37128 0
M  V30 12429 C 1081.32 -2.33218 3.63639 0
M  V30 12430 C 1080.46 -3.5907 3.91462 0
M  V30 12431 C 1079.5 -3.36605 5.11237 0
M  V30 12432 N 1078.64 -4.54592 5.35061 0
M  V30 12433 H 1083.48 -0.818573 2.86537 0
M  V30 12434 H 1081.01 -0.392739 1.4176 0
M  V30 12435 H 1082.97 -3.28165 2.57611 0
M  V30 12436 H 1081.6 -2.84736 1.52069 0
M  V30 12437 H 1080.65 -1.46826 3.50922 0
M  V30 12438 H 1081.96 -2.12579 4.51234 0
M  V30 12439 H 1081.12 -4.44936 4.12453 0
M  V30 12440 H 1079.86 -3.82715 3.02293 0
M  V30 12441 H 1078.86 -2.49127 4.90118 0
M  V30 12442 H 1080.09 -3.14357 6.01961 0
M  V30 12443 H 1078.03 -4.78406 4.48847 0
M  V30 12444 H 1077.95 -4.36962 6.16928 0
M  V30 12445 H 1079.22 -5.41666 5.60551 0
M  V30 12446 N 1083.45 -1.52049 -0.414609 0
M  V30 12447 C 1084.36 -1.7788 -1.52958 0
M  V30 12448 C 1085.37 -0.66408 -1.60829 0
M  V30 12449 O 1086.55 -0.948882 -1.77646 0
M  V30 12450 C 1083.61 -1.91906 -2.88744 0
M  V30 12451 C 1082.68 -3.15803 -2.90804 0
M  V30 12452 C 1081.91 -3.29151 -4.20114 0
M  V30 12453 O 1082.13 -2.47892 -5.13718 0
M  V30 12454 O 1081.07 -4.2227 -4.28919 0
M  V30 12455 H 1084.89 -2.72506 -1.34067 0
M  V30 12456 H 1082.48 -1.36826 -0.599918 0
M  V30 12457 H 1084.36 -2.02986 -3.6929 0
M  V30 12458 H 1083.03 -1.00468 -3.07714 0
M  V30 12459 H 1081.94 -3.10185 -2.09131 0
M  V30 12460 H 1083.27 -4.07004 -2.76783 0
M  V30 12461 N 1084.93 0.6715 -1.42579 0
M  V30 12462 C 1086.2 1.42766 -1.33706 0
M  V30 12463 C 1086.58 2.11086 0.0239748 0
M  V30 12464 O 1085.93 2.03479 1.03964 0
M  V30 12465 C 1086.14 2.42739 -2.50756 0
M  V30 12466 C 1087.49 3.07284 -2.93021 0
M  V30 12467 O 1088.51 2.53066 -2.50671 0
M  V30 12468 O 1087.37 4.05541 -3.66331 0
M  V30 12469 H 1084.47 0.636955 -0.527463 0
M  V30 12470 H 1087.01 0.699946 -1.54593 0
M  V30 12471 H 1085.78 1.91076 -3.41476 0
M  V30 12472 H 1085.41 3.22986 -2.31874 0
M  V30 12473 N 1086.4 1.28806 0.908124 0
M  V30 12474 C 1087.65 1.16287 1.65781 0
M  V30 12475 C 1087.98 -0.287389 1.92365 0
M  V30 12476 O 1087.23 -1.22491 1.52625 0
M  V30 12477 C 1087.53 1.91267 3.01914 0
M  V30 12478 C 1087.2 3.41033 2.9497 0
M  V30 12479 C 1085.86 3.81879 2.92783 0
M  V30 12480 C 1088.21 4.36507 2.848 0
M  V30 12481 C 1085.54 5.16529 2.78235 0
M  V30 12482 C 1087.89 5.71237 2.71792 0
M  V30 12483 C 1086.56 6.11351 2.67967 0
M  V30 12484 H 1085.83 0.425526 0.606637 0
M  V30 12485 H 1088.47 1.59646 1.05762 0
M  V30 12486 H 1086.78 1.40474 3.65752 0
M  V30 12487 H 1088.48 1.78992 3.58835 0
M  V30 12488 H 1085.07 3.08561 2.97469 0
M  V30 12489 H 1089.25 4.05909 2.85573 0
M  V30 12490 H 1084.51 5.4673 2.73672 0
M  V30 12491 H 1088.68 6.44872 2.62892 0
M  V30 12492 H 1086.31 7.15637 2.56451 0
M  V30 12493 N 1087.88 -1.11734 1.11145 0
M  V30 12494 C 1088.81 -2.16847 0.710809 0
M  V30 12495 C 1089.79 -1.59966 -0.291494 0
M  V30 12496 O 1090.98 -1.87554 -0.188645 0
M  V30 12497 C 1088.1 -3.38663 0.0499744 0
M  V30 12498 C 1087.15 -4.14199 1.01693 0
M  V30 12499 S 1087.98 -4.7154 2.53793 0
M  V30 12500 C 1089.14 -5.96682 1.89001 0
M  V30 12501 H 1089.37 -2.50497 1.60121 0
M  V30 12502 H 1086.9 -1.23311 0.929182 0
M  V30 12503 H 1088.86 -4.09212 -0.324959 0
M  V30 12504 H 1087.52 -3.03279 -0.817335 0
M  V30 12505 H 1086.72 -5.01494 0.501933 0
M  V30 12506 H 1086.32 -3.49395 1.33414 0
M  V30 12507 H 1088.61 -6.6634 1.22462 0
M  V30 12508 H 1089.55 -6.52821 2.74282 0
M  V30 12509 H 1089.96 -5.48084 1.35145 0
M  V30 12510 N 1089.36 -0.901303 -1.29284 0
M  V30 12511 C 1090.78 -0.597634 -1.47988 0
M  V30 12512 C 1090.98 0.860434 -1.82205 0
M  V30 12513 O 1090.03 1.64049 -1.91948 0
M  V30 12514 C 1091.34 -1.52484 -2.5917 0
M  V30 12515 C 1092.89 -1.53021 -2.73045 0
M  V30 12516 C 1093.37 -2.44373 -3.87357 0
M  V30 12517 N 1094.86 -2.42429 -3.94693 0
M  V30 12518 C 1095.59 -3.09817 -4.82495 0
M  V30 12519 N 1095.09 -3.86489 -5.74976 0
M  V30 12520 N 1096.88 -2.98966 -4.76 0
M  V30 12521 H 1089.03 -1.84432 -1.0535 0
M  V30 12522 H 1091.3 -0.790367 -0.523473 0
M  V30 12523 H 1091 -2.56378 -2.40756 0
M  V30 12524 H 1090.88 -1.24657 -3.56006 0
M  V30 12525 H 1093.26 -0.498709 -2.90855 0
M  V30 12526 H 1093.34 -1.84886 -1.76779 0
M  V30 12527 H 1092.99 -3.47618 -3.70302 0
M  V30 12528 H 1092.92 -2.09817 -4.82995 0
M  V30 12529 H 1095.41 -1.86724 -3.28546 0
M  V30 12530 H 1095.72 -4.34959 -6.38773 0
M  V30 12531 H 1094.07 -3.90596 -5.74857 0
M  V30 12532 H 1097.26 -2.38581 -4.02737 0
M  V30 12533 H 1097.43 -3.51758 -5.44215 0
M  V30 12534 N 1090.84 1.42931 -0.663954 0
M  V30 12535 C 1092.09 2.00904 -0.179011 0
M  V30 12536 C 1092.4 1.53056 1.21791 0
M  V30 12537 O 1093.61 2.03374 1.79865 0
M  V30 12538 C 1092.06 3.58892 -0.269198 0
M  V30 12539 C 1091.67 4.15731 -1.66949 0
M  V30 12540 C 1093.41 4.24207 0.157589 0
M  V30 12541 C 1091.32 5.66047 -1.71303 0
M  V30 12542 H 1090.25 0.75135 -0.0631623 0
M  V30 12543 H 1092.9 1.6378 -0.827556 0
M  V30 12544 H 1091.28 3.93469 0.447048 0
M  V30 12545 H 1092.46 3.92634 -2.41195 0
M  V30 12546 H 1090.77 3.62826 -2.04318 0
M  V30 12547 H 1093.37 5.34503 0.145057 0
M  V30 12548 H 1093.71 3.98901 1.19095 0
M  V30 12549 H 1094.25 3.94552 -0.507274 0
M  V30 12550 H 1090.98 5.96136 -2.72584 0
M  V30 12551 H 1090.5 5.91167 -1.01398 0
M  V30 12552 H 1092.18 6.30275 -1.46158 0
M  V30 12553 N 1092.32 0.406567 1.52266 0
M  V30 12554 C 1093.56 -0.171391 2.00971 0
M  V30 12555 C 1093.88 -1.46443 1.29668 0
M  V30 12556 O 1095.08 -2.12348 1.69176 0
M  V30 12557 C 1093.54 -0.35599 3.58135 0
M  V30 12558 C 1093.15 0.924803 4.38351 0
M  V30 12559 C 1094.89 -0.889378 4.15079 0
M  V30 12560 C 1092.8 0.707534 5.87152 0
M  V30 12561 H 1091.73 -0.0678253 0.750943 0
M  V30 12562 H 1094.38 0.531619 1.7563 0
M  V30 12563 H 1092.76 -1.12127 3.79794 0
M  V30 12564 H 1093.94 1.69603 4.28452 0
M  V30 12565 H 1092.25 1.38442 3.92712 0
M  V30 12566 H 1094.85 -1.06792 5.23927 0
M  V30 12567 H 1095.19 -1.86334 3.7227 0
M  V30 12568 H 1095.72 -0.183224 3.97378 0
M  V30 12569 H 1092.46 1.65299 6.34316 0
M  V30 12570 H 1091.98 -0.024446 5.99795 0
M  V30 12571 H 1093.66 0.348721 6.4606 0
M  V30 12572 N 1093.79 -1.57004 0.136909 0
M  V30 12573 C 1095.04 -1.9541 -0.51569 0
M  V30 12574 C 1095.36 -1.02219 -1.66061 0
M  V30 12575 O 1094.63 -0.0818172 -1.95729 0
M  V30 12576 H 1093.21 -0.721504 -0.193497 0
M  V30 12577 H 1095.88 -1.93765 0.210046 0
M  V30 12578 H 1094.97 -2.98887 -0.898494 0
M  V30 12579 N 1095.27 0.136881 -1.57004 0
M  V30 12580 C 1096.5 0.866405 -1.88436 0
M  V30 12581 C 1096.92 1.73483 -0.727006 0
M  V30 12582 O 1096.28 1.78398 0.323094 0
M  V30 12583 C 1096.33 1.69059 -3.18514 0
M  V30 12584 O 1095.43 2.79584 -3.03161 0
M  V30 12585 H 1094.77 0.240709 -0.618834 0
M  V30 12586 H 1097.3 0.124653 -2.0422 0
M  V30 12587 H 1097.31 2.08353 -3.50789 0
M  V30 12588 H 1095.99 1.05296 -4.0235 0
M  V30 12589 H 1094.57 2.43623 -2.82315 0
M  V30 12590 N 1096.75 1.52266 0.40654 0
M  V30 12591 C 1097.98 1.70057 1.1732 0
M  V30 12592 C 1098.39 0.41084 1.84686 0
M  V30 12593 O 1097.73 -0.623187 1.72806 0
M  V30 12594 C 1097.79 2.78197 2.27698 0
M  V30 12595 C 1097.46 4.19866 1.80447 0
M  V30 12596 C 1098.45 5.03621 1.29082 0
M  V30 12597 C 1096.14 4.66112 1.87202 0
M  V30 12598 C 1098.13 6.31694 0.850973 0
M  V30 12599 C 1095.82 5.94174 1.42829 0
M  V30 12600 C 1096.82 6.76794 0.918621 0
M  V30 12601 O 1096.51 8.02458 0.481302 0
M  V30 12602 H 1096.24 0.573137 0.358455 0
M  V30 12603 H 1098.79 1.99615 0.484064 0
M  V30 12604 H 1097.02 2.44022 2.99983 0
M  V30 12605 H 1098.71 2.84562 2.89446 0
M  V30 12606 H 1099.48 4.69083 1.23234 0
M  V30 12607 H 1095.36 4.01905 2.25816 0
M  V30 12608 H 1098.9 6.96131 0.452471 0
M  V30 12609 H 1094.8 6.2822 1.48358 0
M  V30 12610 H 1095.57 8.16266 0.604376 0
M  V30 12611 N 1098.23 -0.663929 1.42933 0
M  V30 12612 C 1099.16 -1.78946 1.43217 0
M  V30 12613 C 1100.17 -1.59426 0.329727 0
M  V30 12614 O 1101.36 -1.68344 0.5935 0
M  V30 12615 C 1098.46 -3.16217 1.21902 0
M  V30 12616 C 1097.64 -3.6249 2.44785 0
M  V30 12617 C 1096.69 -4.78529 2.18853 0
M  V30 12618 O 1095.72 -4.88516 2.92131 0
M  V30 12619 N 1096.92 -5.67994 1.19845 0
M  V30 12620 H 1099.69 -1.79184 2.40236 0
M  V30 12621 H 1097.25 -0.847404 1.37952 0
M  V30 12622 H 1099.24 -3.91517 1.02454 0
M  V30 12623 H 1097.81 -3.10814 0.333676 0
M  V30 12624 H 1097.03 -2.77751 2.79729 0
M  V30 12625 H 1098.32 -3.90151 3.26588 0
M  V30 12626 H 1097.72 -5.62588 0.59259 0
M  V30 12627 H 1096.27 -6.4306 1.06382 0
M  V30 12628 N 1099.71 -1.29285 -0.901281 0
M  V30 12629 C 1100.95 -1.17165 -1.65162 0
M  V30 12630 C 1101.28 0.277184 -1.92515 0
M  V30 12631 O 1100.54 1.2168 -1.53273 0
M  V30 12632 C 1100.84 -1.92865 -3.00895 0
M  V30 12633 C 1100.5 -3.42593 -2.93157 0
M  V30 12634 C 1099.16 -3.83426 -2.90754 0
M  V30 12635 C 1101.52 -4.38011 -2.82481 0
M  V30 12636 C 1098.84 -5.17997 -2.75492 0
M  V30 12637 C 1101.2 -5.7267 -2.68759 0
M  V30 12638 C 1099.86 -6.12764 -2.64721 0
M  V30 12639 H 1099.13 -0.428737 -0.604372 0
M  V30 12640 H 1101.78 -1.60204 -1.04914 0
M  V30 12641 H 1100.08 -1.42412 -3.65001 0
M  V30 12642 H 1101.78 -1.80893 -3.57881 0
M  V30 12643 H 1098.37 -3.10134 -2.95829 0
M  V30 12644 H 1102.55 -4.07417 -2.83416 0
M  V30 12645 H 1097.81 -5.48173 -2.70769 0
M  V30 12646 H 1101.98 -6.46258 -2.59469 0
M  V30 12647 H 1099.61 -7.16987 -2.52652 0
M  V30 12648 N 1101.18 1.11143 -1.11736 0
M  V30 12649 C 1102.13 2.17274 -0.778513 0
M  V30 12650 C 1103.1 1.64186 0.251405 0
M  V30 12651 O 1104.29 1.90373 0.127629 0
M  V30 12652 C 1101.43 3.44324 -0.231246 0
M  V30 12653 C 1100.54 4.114 -1.31809 0
M  V30 12654 C 1099.67 5.26146 -0.73104 0
M  V30 12655 C 1098.71 5.85112 -1.79752 0
M  V30 12656 N 1097.85 6.91247 -1.22973 0
M  V30 12657 H 1102.69 2.45603 -1.68769 0
M  V30 12658 H 1100.23 1.20565 -0.842759 0
M  V30 12659 H 1102.19 4.1707 0.104045 0
M  V30 12660 H 1100.82 3.16369 0.641119 0
M  V30 12661 H 1099.87 3.36697 -1.77029 0
M  V30 12662 H 1101.18 4.51278 -2.12485 0
M  V30 12663 H 1100.33 6.05713 -0.345987 0
M  V30 12664 H 1099.07 4.87583 0.107 0
M  V30 12665 H 1098.08 5.0422 -2.19185 0
M  V30 12666 H 1099.3 6.25741 -2.63865 0
M  V30 12667 H 1097.25 6.54696 -0.41339 0
M  V30 12668 H 1097.17 7.29796 -1.97316 0
M  V30 12669 H 1098.43 7.74611 -0.87167 0
M  V30 12670 N 1102.66 0.908147 1.28804 0
M  V30 12671 C 1103.61 0.382315 2.29437 0
M  V30 12672 C 1104.6 -0.523033 1.61123 0
M  V30 12673 O 1105.81 -0.404898 1.75387 0
M  V30 12674 H 1102.19 0.105022 0.74463 0
M  V30 12675 H 1104.16 1.24425 2.71221 0
M  V30 12676 C 1102.91 -0.367475 3.45753 0
M  V30 12677 H 1102.23 0.319957 3.98518 0
M  V30 12678 H 1103.67 -0.700131 4.1818 0
M  V30 12679 C 1102.13 -1.57329 2.97908 0
M  V30 12680 O 1102.66 -2.67248 2.99902 0
M  V30 12681 N 1100.86 -1.41835 2.53636 0
M  V30 12682 H 1100.41 -0.524099 2.52212 0
M  V30 12683 H 1100.37 -2.22645 2.21984 0
M  V30 12684 N 1104.14 -1.42577 0.671525 0
M  V30 12685 C 1105.55 -1.84736 0.270084 0
M  V30 12686 C 1105.9 -1.56212 -1.18711 0
M  V30 12687 O 1105.03 -1.02028 -1.90838 0
M  V30 12688 C 1105.62 -3.35334 0.483409 0
M  V30 12689 C 1104.18 -3.76154 0.136119 0
M  V30 12690 C 1103.33 -2.66179 0.777444 0
M  V30 12691 H 1106.28 -1.3247 0.873919 0
M  V30 12692 H 1106.3 -3.79573 -0.265483 0
M  V30 12693 H 1105.81 -3.56063 1.54405 0
M  V30 12694 H 1103.91 -3.61033 -0.921209 0
M  V30 12695 H 1104.03 -4.75645 0.574356 0
M  V30 12696 H 1102.39 -2.53841 0.209055 0
M  V30 12697 H 1103.17 -2.89732 1.84148 0
M  V30 12698 N 1105.62 -0.414636 -1.52048 0
M  V30 12699 C 1106.87 0.16073 -2.01059 0
M  V30 12700 C 1107.18 1.45753 -1.30443 0
M  V30 12701 O 1108.39 2.11448 -1.703 0
M  V30 12702 C 1106.84 0.336993 -3.58319 0
M  V30 12703 C 1106.45 -0.948037 -4.37854 0
M  V30 12704 C 1108.19 0.867353 -4.15545 0
M  V30 12705 C 1106.1 -0.738662 -5.86769 0
M  V30 12706 H 1105.03 0.0638419 -0.751292 0
M  V30 12707 H 1107.68 -0.540925 -1.75346 0
M  V30 12708 H 1106.06 1.10111 -3.80383 0
M  V30 12709 H 1107.24 -1.71873 -4.27547 0
M  V30 12710 H 1105.55 -1.40522 -3.91972 0
M  V30 12711 H 1108.15 1.04012 -5.24486 0
M  V30 12712 H 1108.49 1.84358 -3.73253 0
M  V30 12713 H 1109.03 0.162148 -3.97469 0
M  V30 12714 H 1105.77 -1.6866 -6.3343 0
M  V30 12715 H 1105.29 -0.00736294 -5.998 0
M  V30 12716 H 1106.96 -0.382978 -6.45866 0
M  V30 12717 N 1107.1 1.56929 -0.145233 0
M  V30 12718 C 1108.34 1.95681 0.50532 0
M  V30 12719 C 1108.67 1.03098 1.65516 0
M  V30 12720 O 1107.94 0.0921961 1.95683 0
M  V30 12721 H 1106.52 0.72252 0.189668 0
M  V30 12722 H 1109.18 1.93651 -0.220318 0
M  V30 12723 H 1108.27 2.99359 0.882631 0
M  V30 12724 N 1108.58 -0.128553 1.57075 0
M  V30 12725 C 1109.81 -0.851214 1.8825 0
M  V30 12726 C 1110.21 -1.74402 0.733531 0
M  V30 12727 O 1109.56 -1.81149 -0.305108 0
M  V30 12728 C 1109.62 -1.74451 3.14336 0
M  V30 12729 C 1109.28 -1.02699 4.45311 0
M  V30 12730 C 1110.28 -0.37224 5.18566 0
M  V30 12731 C 1107.96 -1.01101 4.9202 0
M  V30 12732 C 1109.96 0.2889 6.36745 0
M  V30 12733 C 1107.65 -0.346063 6.10119 0
M  V30 12734 C 1108.64 0.302744 6.82329 0
M  V30 12735 O 1108.33 0.9571 7.98182 0
M  V30 12736 H 1108.06 -0.250529 0.627863 0
M  V30 12737 H 1110.62 -0.120418 2.05047 0
M  V30 12738 H 1108.85 -2.51671 2.93596 0
M  V30 12739 H 1110.54 -2.34075 3.31608 0
M  V30 12740 H 1111.3 -0.376271 4.83538 0
M  V30 12741 H 1107.18 -1.50543 4.35727 0
M  V30 12742 H 1110.73 0.795901 6.93045 0
M  V30 12743 H 1106.62 -0.339762 6.44605 0
M  V30 12744 H 1107.39 0.860616 8.13963 0
M  V30 12745 N 1110.05 -1.5248 -0.398459 0
M  V30 12746 C 1110.99 -1.72826 -1.50545 0
M  V30 12747 C 1112 -0.608683 -1.50993 0
M  V30 12748 O 1113.19 -0.88413 -1.55066 0
M  V30 12749 C 1110.29 -1.76327 -2.89417 0
M  V30 12750 C 1109.46 -3.05491 -3.1304 0
M  V30 12751 C 1108.52 -3.00663 -4.31843 0
M  V30 12752 O 1107.55 -3.74548 -4.28605 0
M  V30 12753 N 1108.75 -2.19191 -5.37527 0
M  V30 12754 H 1111.51 -2.68333 -1.33482 0
M  V30 12755 H 1109.07 -1.5085 -0.587875 0
M  V30 12756 H 1111.07 -1.70616 -3.66977 0
M  V30 12757 H 1109.64 -0.882476 -2.99885 0
M  V30 12758 H 1108.86 -3.24767 -2.23428 0
M  V30 12759 H 1110.14 -3.90915 -3.25673 0
M  V30 12760 H 1109.54 -1.58613 -5.43009 0
M  V30 12761 H 1108.1 -2.19328 -6.1379 0
M  V30 12762 N 1111.53 0.65634 -1.43283 0
M  V30 12763 C 1112.76 1.44408 -1.48168 0
M  V30 12764 C 1113.17 1.88542 -0.0986016 0
M  V30 12765 O 1112.53 1.59298 0.890527 0
M  V30 12766 C 1112.58 2.68111 -2.42484 0
M  V30 12767 O 1112.3 2.25824 -3.75413 0
M  V30 12768 C 1113.8 3.61499 -2.56579 0
M  V30 12769 H 1111.02 0.443731 -0.503333 0
M  V30 12770 H 1113.57 0.804917 -1.87993 0
M  V30 12771 H 1111.72 3.28175 -2.05863 0
M  V30 12772 H 1112.14 3.05839 -4.26102 0
M  V30 12773 H 1113.61 4.44972 -3.26655 0
M  V30 12774 H 1114.09 4.08639 -1.60969 0
M  V30 12775 H 1114.69 3.07319 -2.93998 0
M  V30 12776 N 1113.01 1.29761 0.894412 0
M  V30 12777 C 1114.23 1.21064 1.68399 0
M  V30 12778 C 1114.66 -0.224608 1.86754 0
M  V30 12779 O 1114.02 -1.16199 1.39167 0
M  V30 12780 C 1114.07 1.93468 3.04306 0
M  V30 12781 O 1113.17 1.25533 3.9283 0
M  V30 12782 H 1112.51 0.419223 0.514925 0
M  V30 12783 H 1115.04 1.71421 1.11696 0
M  V30 12784 H 1115.05 2.02127 3.54413 0
M  V30 12785 H 1113.73 2.97857 2.90265 0
M  V30 12786 H 1112.3 1.25168 3.51266 0
M  V30 12787 N 1114.49 -1.10549 1.12324 0
M  V30 12788 C 1115.42 -2.16657 0.747826 0
M  V30 12789 C 1116.43 -1.61238 -0.224981 0
M  V30 12790 O 1117.62 -1.78499 -0.00649408 0
M  V30 12791 C 1114.72 -3.38791 0.0859421 0
M  V30 12792 C 1113.89 -4.23655 1.08792 0
M  V30 12793 C 1112.95 -5.24239 0.453871 0
M  V30 12794 O 1111.98 -5.58262 1.11052 0
M  V30 12795 N 1113.18 -5.75246 -0.779215 0
M  V30 12796 H 1115.95 -2.49472 1.66084 0
M  V30 12797 H 1113.51 -1.26157 1.01469 0
M  V30 12798 H 1115.5 -4.03182 -0.350186 0
M  V30 12799 H 1114.07 -3.03961 -0.729807 0
M  V30 12800 H 1113.29 -3.55578 1.70171 0
M  V30 12801 H 1114.58 -4.77187 1.76549 0
M  V30 12802 H 1113.98 -5.49802 -1.3317 0
M  V30 12803 H 1112.53 -6.41428 -1.15818 0
M  V30 12804 N 1115.97 -0.914965 -1.28321 0
M  V30 12805 C 1116.9 -0.421292 -2.29668 0
M  V30 12806 C 1117.88 0.511743 -1.6222 0
M  V30 12807 O 1119.06 0.419218 -1.89621 0
M  V30 12808 C 1116.19 0.338364 -3.45648 0
M  V30 12809 C 1115.15 -0.505646 -4.25003 0
M  V30 12810 C 1114.47 0.382421 -5.33331 0
M  V30 12811 C 1115.77 -1.76354 -4.91626 0
M  V30 12812 H 1117.47 -1.26826 -2.71211 0
M  V30 12813 H 1115.01 -0.611291 -1.30381 0
M  V30 12814 H 1116.96 0.694578 -4.15636 0
M  V30 12815 H 1115.69 1.21925 -3.02988 0
M  V30 12816 H 1114.35 -0.844395 -3.56743 0
M  V30 12817 H 1114 1.26189 -4.86914 0
M  V30 12818 H 1113.7 -0.17871 -5.87328 0
M  V30 12819 H 1115.22 0.73449 -6.06166 0
M  V30 12820 H 1116.63 -1.47616 -5.5397 0
M  V30 12821 H 1115.03 -2.26717 -5.55625 0
M  V30 12822 H 1116.1 -2.49063 -4.16048 0
M  V30 12823 N 1117.44 1.42219 -0.679077 0
M  V30 12824 C 1118.69 2.01777 -0.20342 0
M  V30 12825 C 1119.02 1.53592 1.18841 0
M  V30 12826 O 1118.3 0.739954 1.79875 0
M  V30 12827 C 1118.58 3.59281 -0.242791 0
M  V30 12828 C 1118.43 4.17634 -1.67038 0
M  V30 12829 C 1119.75 4.38218 0.406624 0
M  V30 12830 H 1116.87 0.733134 -0.0753916 0
M  V30 12831 H 1119.51 1.69185 -0.864673 0
M  V30 12832 H 1117.66 3.87178 0.320248 0
M  V30 12833 H 1119.34 4.00674 -2.286 0
M  V30 12834 H 1117.58 3.73301 -2.20973 0
M  V30 12835 H 1118.25 5.26776 -1.64958 0
M  V30 12836 H 1120.73 4.16036 -0.0727077 0
M  V30 12837 H 1119.6 5.47793 0.348457 0
M  V30 12838 H 1119.86 4.16418 1.48487 0
M  V30 12839 N 1118.92 0.422693 1.51826 0
M  V30 12840 C 1120.17 -0.148641 2.01954 0
M  V30 12841 C 1120.5 -1.43982 1.30765 0
M  V30 12842 O 1119.75 -1.91428 0.406668 0
M  V30 12843 C 1120.05 -0.429516 3.5481 0
M  V30 12844 C 1119.72 0.774088 4.44206 0
M  V30 12845 C 1118.38 1.1042 4.6836 0
M  V30 12846 C 1120.73 1.5777 4.96747 0
M  V30 12847 C 1118.06 2.23887 5.42302 0
M  V30 12848 C 1120.41 2.70325 5.71933 0
M  V30 12849 C 1119.07 3.03807 5.94355 0
M  V30 12850 H 1118.34 -0.0543917 0.739001 0
M  V30 12851 H 1120.99 0.566892 1.82917 0
M  V30 12852 H 1119.3 -1.22678 3.72099 0
M  V30 12853 H 1120.99 -0.884761 3.91118 0
M  V30 12854 H 1117.58 0.506834 4.25593 0
M  V30 12855 H 1121.77 1.33589 4.77983 0
M  V30 12856 H 1117.02 2.50159 5.5788 0
M  V30 12857 H 1121.2 3.32974 6.11638 0
M  V30 12858 H 1118.82 3.91844 6.51431 0
M  V30 12859 N 1120.4 -1.5685 0.153553 0
M  V30 12860 C 1121.31 -2.20664 -0.796528 0
M  V30 12861 C 1122.33 -1.19289 -1.26674 0
M  V30 12862 O 1123.5 -1.51889 -1.32256 0
M  V30 12863 C 1120.57 -2.82088 -2.01561 0
M  V30 12864 C 1119.63 -3.9861 -1.59401 0
M  V30 12865 C 1118.86 -4.57096 -2.75498 0
M  V30 12866 O 1119.08 -4.14462 -3.9189 0
M  V30 12867 O 1118.02 -5.47254 -2.50593 0
M  V30 12868 H 1121.84 -3.02376 -0.283282 0
M  V30 12869 H 1119.43 -1.49218 -0.0737927 0
M  V30 12870 H 1121.31 -3.21103 -2.72893 0
M  V30 12871 H 1119.99 -2.03385 -2.51826 0
M  V30 12872 H 1118.89 -3.64299 -0.850725 0
M  V30 12873 H 1120.23 -4.78853 -1.13845 0
M  V30 12874 N 1121.88 0.120221 -1.57141 0
M  V30 12875 C 1123.29 0.677497 -1.73974 0
M  V30 12876 C 1123.64 1.80371 -0.772055 0
M  V30 12877 O 1122.76 2.16329 0.0553062 0
M  V30 12878 C 1123.36 1.23575 -3.1546 0
M  V30 12879 C 1121.92 1.73933 -3.33803 0
M  V30 12880 C 1121.07 0.638542 -2.69848 0
M  V30 12881 H 1124.02 -0.105685 -1.58348 0
M  V30 12882 H 1124.04 2.10542 -3.16942 0
M  V30 12883 H 1123.55 0.415851 -3.85866 0
M  V30 12884 H 1121.65 2.58404 -2.68437 0
M  V30 12885 H 1121.76 1.84961 -4.41957 0
M  V30 12886 H 1120.13 1.07185 -2.31049 0
M  V30 12887 H 1120.91 -0.170356 -3.42877 0
M  V30 12888 N 1123.36 1.52689 0.390367 0
M  V30 12889 C 1124.29 1.73622 1.49626 0
M  V30 12890 C 1125.3 0.616682 1.50668 0
M  V30 12891 O 1126.49 0.892341 1.54595 0
M  V30 12892 C 1123.59 1.77859 2.88477 0
M  V30 12893 C 1122.76 3.07146 3.11416 0
M  V30 12894 C 1121.82 3.02949 4.30242 0
M  V30 12895 O 1120.85 3.76816 4.26613 0
M  V30 12896 N 1122.05 2.22039 5.36357 0
M  V30 12897 H 1124.82 2.69037 1.32057 0
M  V30 12898 H 1122.38 1.51159 0.579867 0
M  V30 12899 H 1124.37 1.72559 3.66067 0
M  V30 12900 H 1122.94 0.898367 2.99413 0
M  V30 12901 H 1122.16 3.25947 2.21703 0
M  V30 12902 H 1123.45 3.92637 3.23595 0
M  V30 12903 H 1122.84 1.6149 5.4216 0
M  V30 12904 H 1121.4 2.2258 6.12619 0
M  V30 12905 N 1124.83 -0.648732 1.43629 0
M  V30 12906 C 1125.78 -1.78269 1.49409 0
M  V30 12907 C 1126.78 -1.6537 0.367288 0
M  V30 12908 O 1127.98 -1.71663 0.541476 0
M  V30 12909 H 1124.36 -0.58824 0.468484 0
M  V30 12910 H 1126.33 -1.70514 2.44883 0
M  V30 12911 C 1125.08 -3.16545 1.43856 0
M  V30 12912 H 1124.4 -3.2711 2.29868 0
M  V30 12913 H 1125.84 -3.95833 1.51961 0
M  V30 12914 C 1124.3 -3.36535 0.156779 0
M  V30 12915 O 1124.83 -3.94052 -0.780124 0
M  V30 12916 N 1123.04 -2.90526 0.0655319 0
M  V30 12917 H 1122.58 -2.43904 0.828768 0
M  V30 12918 H 1122.54 -3.04277 -0.791379 0
M  V30 12919 N 1126.31 -1.30234 -0.887518 0
M  V30 12920 C 1127.26 -1.16302 -2.01436 0
M  V30 12921 C 1128.25 -0.0755422 -1.69231 0
M  V30 12922 O 1129.46 -0.236213 -1.78443 0
M  V30 12923 H 1125.84 -0.35961 -0.660443 0
M  V30 12924 H 1127.81 -2.11677 -2.10322 0
M  V30 12925 C 1126.56 -0.869009 -3.36665 0
M  V30 12926 H 1125.88 -1.69787 -3.61956 0
M  V30 12927 H 1127.32 -0.811621 -4.16159 0
M  V30 12928 C 1125.78 0.428021 -3.3417 0
M  V30 12929 O 1126.31 1.45033 -3.74604 0
M  V30 12930 N 1124.51 0.438264 -2.87276 0
M  V30 12931 H 1124.06 -0.394142 -2.54567 0
M  V30 12932 H 1124.02 1.30604 -2.85989 0
M  V30 12933 N 1127.79 1.09952 -1.12909 0
M  V30 12934 C 1128.74 2.14591 -0.77037 0
M  V30 12935 C 1129.72 1.59204 0.233021 0
M  V30 12936 O 1130.92 1.7696 0.0377599 0
M  V30 12937 C 1128.05 3.42514 -0.232117 0
M  V30 12938 C 1127.13 4.04823 -1.26409 0
M  V30 12939 N 1127.52 4.41763 -2.46331 0
M  V30 12940 C 1125.82 4.31951 -1.11062 0
M  V30 12941 C 1126.52 4.90778 -3.12269 0
M  V30 12942 N 1125.5 4.87896 -2.39704 0
M  V30 12943 H 1129.3 2.40951 -1.68285 0
M  V30 12944 H 1126.81 1.27125 -1.0106 0
M  V30 12945 H 1128.81 4.16878 0.0430853 0
M  V30 12946 H 1127.47 3.17612 0.674757 0
M  V30 12947 H 1128.48 4.33299 -2.83677 0
M  V30 12948 H 1125.16 4.16681 -0.261456 0
M  V30 12949 H 1126.55 5.28868 -4.14425 0
M  V30 12950 N 1129.27 0.921757 1.27833 0
M  V30 12951 C 1130.52 0.55493 1.93916 0
M  V30 12952 C 1130.83 -0.907191 1.7329 0
M  V30 12953 O 1132.04 -1.38253 2.33663 0
M  V30 12954 C 1130.49 0.941644 3.47363 0
M  V30 12955 C 1130.1 2.42404 3.76755 0
M  V30 12956 C 1131.84 0.645785 4.19559 0
M  V30 12957 C 1129.75 2.75046 5.23549 0
M  V30 12958 H 1128.68 0.203818 0.72593 0
M  V30 12959 H 1131.33 1.12176 1.4522 0
M  V30 12960 H 1129.71 0.303519 3.94835 0
M  V30 12961 H 1130.89 3.10957 3.40062 0
M  V30 12962 H 1129.2 2.69118 3.17749 0
M  V30 12963 H 1131.8 0.866237 5.27637 0
M  V30 12964 H 1132.14 -0.41676 4.14209 0
M  V30 12965 H 1132.68 1.24274 3.7789 0
M  V30 12966 H 1129.42 3.80186 5.33984 0
M  V30 12967 H 1128.94 2.11138 5.6141 0
M  V30 12968 H 1130.61 2.62474 5.91368 0
M  V30 12969 N 1130.75 -1.41857 0.686609 0
M  V30 12970 C 1131.99 -2.0097 0.213378 0
M  V30 12971 C 1132.32 -1.54618 -1.1882 0
M  V30 12972 O 1131.59 -0.772916 -1.80008 0
M  V30 12973 H 1130.17 -0.743134 0.0758968 0
M  V30 12974 H 1132.83 -1.73609 0.885763 0
M  V30 12975 H 1131.92 -3.11296 0.223826 0
M  V30 12976 N 1132.22 -0.430739 -1.51599 0
M  V30 12977 C 1133.45 0.139197 -2.06932 0
M  V30 12978 C 1133.87 1.3626 -1.29672 0
M  V30 12979 O 1133.23 1.78219 -0.332836 0
M  V30 12980 C 1133.28 0.446593 -3.57824 0
M  V30 12981 O 1132.38 1.53414 -3.82803 0
M  V30 12982 H 1131.73 0.00475812 -0.663983 0
M  V30 12983 H 1134.26 -0.610171 -1.9529 0
M  V30 12984 H 1134.27 0.698972 -4.01968 0
M  V30 12985 H 1132.94 -0.447613 -4.13484 0
M  V30 12986 H 1131.52 1.27224 -3.50526 0
M  V30 12987 N 1133.7 1.56767 -0.161869 0
M  V30 12988 C 1134.63 2.20511 0.767918 0
M  V30 12989 C 1135.61 1.15783 1.24612 0
M  V30 12990 O 1136.8 1.44179 1.301 0
M  V30 12991 C 1133.93 2.83844 2.00125 0
M  V30 12992 C 1132.88 3.94528 1.65926 0
M  V30 12993 C 1132.21 4.44866 2.96646 0
M  V30 12994 C 1133.51 5.14583 0.894497 0
M  V30 12995 H 1135.2 2.98464 0.236607 0
M  V30 12996 H 1132.75 1.43561 0.112363 0
M  V30 12997 H 1134.7 3.27109 2.65664 0
M  V30 12998 H 1133.43 2.03246 2.55654 0
M  V30 12999 H 1132.08 3.51904 1.02759 0
M  V30 13000 H 1131.73 3.61071 3.50196 0
M  V30 13001 H 1131.43 5.19531 2.74521 0
M  V30 13002 H 1132.96 4.90812 3.6323 0
M  V30 13003 H 1134.37 5.54601 1.45228 0
M  V30 13004 H 1132.77 5.95105 0.772636 0
M  V30 13005 H 1133.84 4.84773 -0.110986 0
M  V30 13006 N 1135.18 -0.111886 1.57202 0
M  V30 13007 C 1136.11 -1.16749 1.96074 0
M  V30 13008 C 1137.09 -1.39735 0.831438 0
M  V30 13009 O 1138.28 -1.53772 1.09025 0
M  V30 13010 C 1135.4 -2.51996 2.26308 0
M  V30 13011 C 1134.45 -2.45394 3.48832 0
M  V30 13012 S 1135.28 -1.8867 5.01163 0
M  V30 13013 C 1136.44 -3.25576 5.34557 0
M  V30 13014 H 1136.67 -0.836033 2.85303 0
M  V30 13015 H 1134.2 -0.318922 1.5107 0
M  V30 13016 H 1136.16 -3.29813 2.44405 0
M  V30 13017 H 1134.82 -2.82317 1.3768 0
M  V30 13018 H 1134.02 -3.45038 3.67376 0
M  V30 13019 H 1133.62 -1.75702 3.30159 0
M  V30 13020 H 1135.91 -4.21807 5.30174 0
M  V30 13021 H 1136.85 -3.11853 6.35731 0
M  V30 13022 H 1137.26 -3.24333 4.62026 0
M  V30 13023 N 1136.66 -1.52894 -0.382264 0
M  V30 13024 C 1137.9 -1.68515 -1.12829 0
M  V30 13025 C 1138.24 -0.427211 -1.89443 0
M  V30 13026 O 1137.51 0.57516 -1.85801 0
M  V30 13027 C 1137.8 -2.92449 -2.10108 0
M  V30 13028 C 1137.65 -4.2836 -1.37214 0
M  V30 13029 C 1138.97 -3.11944 -3.1045 0
M  V30 13030 H 1136.09 -0.613223 -0.408811 0
M  V30 13031 H 1138.73 -1.85503 -0.410921 0
M  V30 13032 H 1136.88 -2.78097 -2.71283 0
M  V30 13033 H 1138.55 -4.54493 -0.789516 0
M  V30 13034 H 1136.79 -4.28532 -0.673973 0
M  V30 13035 H 1137.46 -5.11178 -2.0833 0
M  V30 13036 H 1139.94 -3.25372 -2.59369 0
M  V30 13037 H 1138.82 -4.00125 -3.75754 0
M  V30 13038 H 1139.08 -2.26465 -3.79692 0
M  V30 13039 N 1138.14 0.641106 -1.43971 0
M  V30 13040 C 1139.39 1.39807 -1.4594 0
M  V30 13041 C 1139.71 1.94795 -0.0893874 0
M  V30 13042 O 1138.98 1.75175 0.876962 0
M  V30 13043 H 1137.56 0.518908 -0.537349 0
M  V30 13044 H 1140.22 0.755278 -1.79671 0
M  V30 13045 H 1139.31 2.23439 -2.17903 0
M  V30 13046 N 1139.62 1.30703 0.880598 0
M  V30 13047 C 1140.84 1.22843 1.67106 0
M  V30 13048 C 1141.27 -0.204788 1.86982 0
M  V30 13049 O 1140.62 -1.14716 1.40392 0
M  V30 13050 C 1140.67 1.96685 3.02237 0
M  V30 13051 O 1139.78 1.29693 3.91476 0
M  V30 13052 H 1139.12 0.424661 0.51045 0
M  V30 13053 H 1141.65 1.72596 1.09871 0
M  V30 13054 H 1141.66 2.05874 3.52249 0
M  V30 13055 H 1140.33 3.00919 2.8709 0
M  V30 13056 H 1138.91 1.28886 3.49918 0
M  V30 13057 N 1141.09 -1.09351 1.1349 0
M  V30 13058 C 1142.04 -2.18099 0.808426 0
M  V30 13059 C 1143.04 -1.68099 -0.209571 0
M  V30 13060 O 1144.24 -1.79877 -0.0666417 0
M  V30 13061 H 1140.62 -0.711432 0.243658 0
M  V30 13062 H 1142.59 -2.42867 1.73373 0
M  V30 13063 C 1141.34 -3.46475 0.291615 0
M  V30 13064 H 1140.66 -3.85319 1.06627 0
M  V30 13065 H 1142.1 -4.23878 0.101616 0
M  V30 13066 C 1140.56 -3.22245 -0.982827 0
M  V30 13067 O 1141.09 -3.44947 -2.0585 0
M  V30 13068 N 1139.29 -2.75845 -0.914218 0
M  V30 13069 H 1138.84 -2.57571 -0.03872 0
M  V30 13070 H 1138.8 -2.60011 -1.76753 0
M  V30 13071 N 1142.57 -0.928524 -1.27343 0
M  V30 13072 C 1143.52 -0.426873 -2.26818 0
M  V30 13073 C 1144.49 0.506663 -1.58184 0
M  V30 13074 O 1145.67 0.425641 -1.85992 0
M  V30 13075 C 1142.81 0.313523 -3.43673 0
M  V30 13076 C 1141.93 -0.65422 -4.27018 0
M  V30 13077 C 1141.06 0.106102 -5.31094 0
M  V30 13078 C 1140.1 -0.854293 -6.06109 0
M  V30 13079 N 1139.24 -0.126545 -7.01986 0
M  V30 13080 H 1144.08 -1.28014 -2.69103 0
M  V30 13081 H 1141.61 -0.642515 -1.32326 0
M  V30 13082 H 1143.57 0.75912 -4.10236 0
M  V30 13083 H 1142.2 1.13102 -3.02337 0
M  V30 13084 H 1141.25 -1.21834 -3.60362 0
M  V30 13085 H 1142.57 -1.38817 -4.79094 0
M  V30 13086 H 1141.72 0.611577 -6.0361 0
M  V30 13087 H 1140.46 0.873009 -4.79823 0
M  V30 13088 H 1139.46 -1.37101 -5.32432 0
M  V30 13089 H 1140.69 -1.621 -6.5947 0
M  V30 13090 H 1138.64 0.622102 -6.53044 0
M  V30 13091 H 1138.55 -0.800046 -7.51755 0
M  V30 13092 H 1139.82 0.358251 -7.78676 0
M  V30 13093 N 1144.05 1.41491 -0.694123 0
M  V30 13094 C 1145 2.32594 -0.0164704 0
M  V30 13095 C 1145.99 1.50884 0.770086 0
M  V30 13096 O 1147.2 1.66829 0.675871 0
M  V30 13097 H 1143.57 0.751879 0.0134743 0
M  V30 13098 H 1145.54 2.87423 -0.80191 0
M  V30 13099 C 1144.29 3.35661 0.90703 0
M  V30 13100 H 1143.62 3.98587 0.311205 0
M  V30 13101 H 1145.06 4.0195 1.34952 0
M  V30 13102 C 1143.51 2.69436 2.02253 0
M  V30 13103 O 1144.04 2.54107 3.11115 0
M  V30 13104 N 1142.25 2.28154 1.79984 0
M  V30 13105 H 1141.8 2.40821 0.914492 0
M  V30 13106 H 1141.76 1.84178 2.54805 0
M  V30 13107 N 1145.53 0.438773 1.51369 0
M  V30 13108 C 1146.76 -0.125847 2.06517 0
M  V30 13109 C 1147.17 -1.36336 1.30606 0
M  V30 13110 O 1146.53 -1.78792 0.36603 0
M  V30 13111 C 1146.58 -0.446619 3.5873 0
M  V30 13112 O 1146.3 0.741781 4.31775 0
M  V30 13113 C 1147.8 -1.06175 4.30397 0
M  V30 13114 H 1145.02 -0.00728868 0.67096 0
M  V30 13115 H 1147.56 0.618267 1.9493 0
M  V30 13116 H 1145.72 -1.14064 3.70227 0
M  V30 13117 H 1146.13 0.466907 5.22418 0
M  V30 13118 H 1147.61 -1.23619 5.3798 0
M  V30 13119 H 1148.08 -2.04317 3.88782 0
M  V30 13120 H 1148.69 -0.40708 4.23347 0
M  V30 13121 N 1147.01 -1.56678 0.170181 0
M  V30 13122 C 1148.25 -1.96849 -0.475064 0
M  V30 13123 C 1148.58 -1.05611 -1.6333 0
M  V30 13124 O 1147.84 -0.0899708 -1.95493 0
M  V30 13125 C 1148.13 -3.43103 -1.00076 0
M  V30 13126 C 1147.8 -4.50881 0.0414538 0
M  V30 13127 C 1146.46 -4.80082 0.327894 0
M  V30 13128 C 1148.81 -5.15791 0.748936 0
M  V30 13129 C 1146.14 -5.71491 1.32722 0
M  V30 13130 C 1148.49 -6.08278 1.73724 0
M  V30 13131 C 1147.16 -6.35847 2.03114 0
M  V30 13132 H 1146.43 -0.72032 -0.173838 0
M  V30 13133 H 1149.08 -1.89701 0.261903 0
M  V30 13134 H 1147.38 -3.47197 -1.81553 0
M  V30 13135 H 1149.08 -3.71525 -1.50899 0
M  V30 13136 H 1145.67 -4.2817 -0.191976 0
M  V30 13137 H 1149.85 -4.93344 0.540852 0
M  V30 13138 H 1145.11 -5.91134 1.56112 0
M  V30 13139 H 1149.28 -6.57643 2.29082 0
M  V30 13140 H 1146.91 -7.06479 2.80698 0
M  V30 13141 N 1148.48 0.103547 -1.57259 0
M  V30 13142 C 1149.76 0.839768 -1.76656 0
M  V30 13143 C 1150.14 1.9734 -0.749666 0
M  V30 13144 O 1149.49 2.27405 0.223466 0
M  V30 13145 C 1149.7 1.34218 -3.22159 0
M  V30 13146 C 1151.05 1.78835 -3.85102 0
M  V30 13147 O 1152.07 1.43861 -3.25857 0
M  V30 13148 O 1150.93 2.43474 -4.89267 0
M  V30 13149 H 1148.02 0.399928 -0.723869 0
M  V30 13150 H 1150.57 0.0860857 -1.69482 0
M  V30 13151 H 1149.34 0.52956 -3.877 0
M  V30 13152 H 1148.96 2.15811 -3.33933 0
M  V30 13153 N 1149.96 1.53094 0.37415 0
M  V30 13154 C 1151.21 1.68527 1.11548 0
M  V30 13155 C 1151.53 0.435253 1.9008 0
M  V30 13156 O 1150.8 -0.550594 1.88003 0
M  V30 13157 H 1149.38 0.621255 0.41479 0
M  V30 13158 H 1152.04 1.90258 0.422844 0
M  V30 13159 H 1151.14 2.54248 1.81009 0
M  V30 13160 N 1151.44 -0.633461 1.44309 0
M  V30 13161 C 1152.39 -1.74554 1.50995 0
M  V30 13162 C 1153.36 -1.62199 0.357873 0
M  V30 13163 O 1154.54 -1.82156 0.567787 0
M  V30 13164 C 1151.68 -3.12792 1.45791 0
M  V30 13165 C 1150.79 -3.3614 2.71356 0
M  V30 13166 C 1149.93 -4.64337 2.58002 0
M  V30 13167 C 1148.97 -4.80855 3.78741 0
M  V30 13168 N 1148.11 -6.00327 3.64077 0
M  V30 13169 H 1152.95 -1.68174 2.46011 0
M  V30 13170 H 1150.48 -0.820407 1.22097 0
M  V30 13171 H 1152.44 -3.92735 1.40765 0
M  V30 13172 H 1151.07 -3.18193 0.543445 0
M  V30 13173 H 1150.12 -2.50154 2.86579 0
M  V30 13174 H 1151.43 -3.44226 3.60985 0
M  V30 13175 H 1150.59 -5.52437 2.50795 0
M  V30 13176 H 1149.33 -4.58605 1.65929 0
M  V30 13177 H 1148.33 -3.91185 3.86334 0
M  V30 13178 H 1149.56 -4.88403 4.71847 0
M  V30 13179 H 1147.5 -5.9569 2.74754 0
M  V30 13180 H 1147.42 -6.09459 4.47321 0
M  V30 13181 H 1148.69 -6.90995 3.60758 0
M  V30 13182 N 1152.92 -1.31168 -0.873655 0
M  V30 13183 C 1153.85 -1.21094 -1.99646 0
M  V30 13184 C 1154.83 -0.0989684 -1.69812 0
M  V30 13185 O 1156.01 -0.282939 -1.92128 0
M  V30 13186 C 1153.14 -0.913684 -3.35066 0
M  V30 13187 C 1152.1 -1.98482 -3.79195 0
M  V30 13188 C 1151.42 -1.54033 -5.12033 0
M  V30 13189 C 1152.72 -3.39745 -3.96699 0
M  V30 13190 H 1154.42 -2.1503 -2.08333 0
M  V30 13191 H 1151.96 -1.03521 -1.00097 0
M  V30 13192 H 1153.92 -0.829821 -4.13149 0
M  V30 13193 H 1152.64 0.0613471 -3.26542 0
M  V30 13194 H 1151.3 -2.05851 -3.03349 0
M  V30 13195 H 1150.95 -0.553261 -4.99948 0
M  V30 13196 H 1150.65 -2.25688 -5.4253 0
M  V30 13197 H 1152.17 -1.47047 -5.92629 0
M  V30 13198 H 1153.59 -3.35071 -4.65188 0
M  V30 13199 H 1151.98 -4.09585 -4.38589 0
M  V30 13200 H 1153.05 -3.80802 -3.00196 0
M  V30 13201 N 1154.4 1.08748 -1.14068 0
M  V30 13202 C 1155.62 1.85353 -0.930532 0
M  V30 13203 C 1156.05 1.80892 0.515717 0
M  V30 13204 O 1155.4 1.19146 1.36652 0
M  V30 13205 C 1155.45 3.30962 -1.43167 0
M  V30 13206 O 1154.56 4.0769 -0.621468 0
M  V30 13207 H 1153.9 0.574485 -0.332962 0
M  V30 13208 H 1156.43 1.37282 -1.51707 0
M  V30 13209 H 1156.44 3.81807 -1.43832 0
M  V30 13210 H 1155.11 3.33524 -2.48464 0
M  V30 13211 H 1153.69 3.66587 -0.683267 0
M  V30 13212 N 1155.87 0.935264 1.26849 0
M  V30 13213 C 1157.12 0.580548 1.94313 0
M  V30 13214 C 1157.45 -0.877205 1.73259 0
M  V30 13215 O 1156.73 -1.62679 1.06611 0
M  V30 13216 C 1157.01 0.916445 3.48243 0
M  V30 13217 C 1156.86 2.42851 3.78607 0
M  V30 13218 C 1158.18 0.427665 4.38017 0
M  V30 13219 H 1155.3 0.21239 0.705733 0
M  V30 13220 H 1157.94 1.16841 1.49827 0
M  V30 13221 H 1156.09 0.416169 3.86265 0
M  V30 13222 H 1157.77 3.00106 3.50335 0
M  V30 13223 H 1156.01 2.8745 3.24892 0
M  V30 13224 H 1156.68 2.61405 4.8618 0
M  V30 13225 H 1159.16 0.856525 4.07189 0
M  V30 13226 H 1158.03 0.691571 5.44526 0
M  V30 13227 H 1158.29 -0.672344 4.36958 0
M  V30 13228 N 1157.35 -1.41121 0.701616 0
M  V30 13229 C 1158.59 -2.02993 0.239383 0
M  V30 13230 C 1158.96 -1.5439 -1.1414 0
M  V30 13231 O 1160.16 -2.08229 -1.69982 0
M  V30 13232 C 1158.43 -3.56128 0.301232 0
M  V30 13233 S 1159.99 -4.38716 -0.0860681 0
M  V30 13234 H 1156.81 -0.704494 0.0959645 0
M  V30 13235 H 1159.41 -1.72461 0.920736 0
M  V30 13236 H 1158.11 -3.88996 1.30805 0
M  V30 13237 H 1157.64 -3.91371 -0.399069 0
M  V30 13238 H 1159.66 -4.78537 -1.31212 0
M  V30 13239 N 1158.83 -0.446794 -1.51134 0
M  V30 13240 C 1159.78 0.378002 -2.24845 0
M  V30 13241 C 1160.76 0.982126 -1.27448 0
M  V30 13242 O 1161.96 0.8987 -1.52487 0
M  V30 13243 C 1159.09 1.4733 -3.10079 0
M  V30 13244 C 1158.17 0.878102 -4.1491 0
M  V30 13245 N 1158.56 0.0129452 -5.05798 0
M  V30 13246 C 1156.86 1.14468 -4.3106 0
M  V30 13247 C 1157.56 -0.322333 -5.80806 0
M  V30 13248 N 1156.54 0.296438 -5.42791 0
M  V30 13249 H 1160.34 -0.28885 -2.92477 0
M  V30 13250 H 1157.85 -0.259439 -1.60314 0
M  V30 13251 H 1159.85 2.07713 -3.6147 0
M  V30 13252 H 1158.51 2.14239 -2.43992 0
M  V30 13253 H 1159.52 -0.354177 -5.16688 0
M  V30 13254 H 1156.2 1.81056 -3.76198 0
M  V30 13255 H 1157.59 -1.02693 -6.64006 0
M  V30 13256 N 1160.31 1.56586 -0.178487 0
M  V30 13257 C 1161.24 2.14168 0.787856 0
M  V30 13258 C 1162.22 1.07374 1.22105 0
M  V30 13259 O 1163.4 1.35391 1.31154 0
M  V30 13260 C 1160.53 2.68708 2.06189 0
M  V30 13261 C 1159.58 3.8794 1.77215 0
M  V30 13262 S 1160.41 5.27274 0.935002 0
M  V30 13263 C 1161.57 5.85224 2.21954 0
M  V30 13264 H 1161.8 2.958 0.298293 0
M  V30 13265 H 1159.33 1.54357 0.0362853 0
M  V30 13266 H 1161.29 3.00777 2.79363 0
M  V30 13267 H 1159.95 1.87149 2.52258 0
M  V30 13268 H 1159.14 4.24453 2.71764 0
M  V30 13269 H 1158.75 3.56795 1.12132 0
M  V30 13270 H 1161.04 5.98575 3.17355 0
M  V30 13271 H 1161.98 6.82162 1.89898 0
M  V30 13272 H 1162.39 5.13697 2.34042 0
M  V30 13273 N 1161.79 -0.095206 1.57312 0
M  V30 13274 C 1163.03 -0.804335 1.87909 0
M  V30 13275 C 1163.39 -1.75907 0.769465 0
M  V30 13276 O 1164.59 -2.51155 0.957846 0
M  V30 13277 C 1162.86 -1.51405 3.23746 0
M  V30 13278 S 1164.42 -2.26147 3.76036 0
M  V30 13279 H 1161.24 -0.267976 0.658567 0
M  V30 13280 H 1163.84 -0.0614682 1.95403 0
M  V30 13281 H 1162.55 -0.805066 4.02426 0
M  V30 13282 H 1162.08 -2.29681 3.1939 0
M  V30 13283 H 1164.09 -3.52284 3.49443 0
M  V30 13284 N 1163.26 -1.53291 -0.366026 0
M  V30 13285 C 1164.49 -1.73108 -1.1277 0
M  V30 13286 C 1164.9 -0.459662 -1.83531 0
M  V30 13287 O 1164.25 0.577151 -1.74398 0
M  V30 13288 C 1164.31 -2.84137 -2.20242 0
M  V30 13289 C 1163.97 -4.24503 -1.69252 0
M  V30 13290 C 1164.97 -5.06866 -1.15684 0
M  V30 13291 C 1162.65 -4.70912 -1.74778 0
M  V30 13292 C 1164.65 -6.33728 -0.683191 0
M  V30 13293 C 1162.33 -5.97752 -1.27025 0
M  V30 13294 C 1163.33 -6.78992 -0.738858 0
M  V30 13295 O 1163.02 -8.03452 -0.268375 0
M  V30 13296 H 1162.75 -0.582439 -0.343134 0
M  V30 13297 H 1165.31 -2.00828 -0.430969 0
M  V30 13298 H 1163.54 -2.5189 -2.93408 0
M  V30 13299 H 1165.23 -2.92136 -2.818 0
M  V30 13300 H 1165.99 -4.72185 -1.10753 0
M  V30 13301 H 1161.87 -4.07751 -2.15081 0
M  V30 13302 H 1165.41 -6.97086 -0.267746 0
M  V30 13303 H 1161.31 -6.31933 -1.31649 0
M  V30 13304 H 1162.08 -8.17581 -0.387745 0
M  V30 13305 N 1164.74 0.6258 -1.44643 0
M  V30 13306 C 1165.69 1.73751 -1.51919 0
M  V30 13307 C 1166.66 1.62007 -0.36647 0
M  V30 13308 O 1167.84 1.81852 -0.577439 0
M  V30 13309 C 1164.98 3.12015 -1.47448 0
M  V30 13310 C 1164.1 3.34696 -2.73135 0
M  V30 13311 C 1163.23 4.62962 -2.6046 0
M  V30 13312 C 1162.27 4.7884 -3.81286 0
M  V30 13313 N 1161.41 5.98388 -3.67255 0
M  V30 13314 H 1166.25 1.66867 -2.46899 0
M  V30 13315 H 1163.79 0.813921 -1.22531 0
M  V30 13316 H 1165.74 3.91983 -1.42846 0
M  V30 13317 H 1164.37 3.179 -0.560312 0
M  V30 13318 H 1163.43 2.4863 -2.87901 0
M  V30 13319 H 1164.74 3.42306 -3.62806 0
M  V30 13320 H 1163.89 5.51099 -2.53722 0
M  V30 13321 H 1162.63 4.57719 -1.68359 0
M  V30 13322 H 1161.64 3.89131 -3.88403 0
M  V30 13323 H 1162.86 4.85893 -4.74431 0
M  V30 13324 H 1160.81 5.94224 -2.77909 0
M  V30 13325 H 1160.72 6.07078 -4.50547 0
M  V30 13326 H 1161.99 6.89072 -3.64417 0
M  V30 13327 N 1166.22 1.31629 0.866686 0
M  V30 13328 C 1167.13 1.21524 2.00671 0
M  V30 13329 C 1168.15 0.131277 1.73504 0
M  V30 13330 O 1169.32 0.349699 1.98341 0
M  V30 13331 C 1166.39 0.926491 3.34091 0
M  V30 13332 C 1165.45 2.09769 3.7456 0
M  V30 13333 C 1164.68 1.82262 5.01614 0
M  V30 13334 O 1164.9 0.759329 5.65323 0
M  V30 13335 O 1163.84 2.68031 5.38928 0
M  V30 13336 H 1167.66 2.17335 2.1213 0
M  V30 13337 H 1165.25 1.11401 0.995499 0
M  V30 13338 H 1167.13 0.78144 4.14091 0
M  V30 13339 H 1165.81 -0.00155829 3.237 0
M  V30 13340 H 1164.71 2.29816 2.95187 0
M  V30 13341 H 1166.05 3.0081 3.89582 0
M  V30 13342 N 1167.7 -1.08142 1.14644 0
M  V30 13343 C 1168.98 -1.77254 0.827071 0
M  V30 13344 C 1169.36 -1.99885 -0.67891 0
M  V30 13345 O 1168.7 -1.61084 -1.62062 0
M  V30 13346 C 1168.91 -3.08658 1.62884 0
M  V30 13347 C 1170.26 -3.83143 1.82993 0
M  V30 13348 O 1171.29 -3.18447 1.59593 0
M  V30 13349 O 1170.15 -4.9932 2.2213 0
M  V30 13350 H 1167.24 -0.769356 0.30335 0
M  V30 13351 H 1169.79 -1.1458 1.25178 0
M  V30 13352 H 1168.56 -2.87753 2.65168 0
M  V30 13353 H 1168.18 -3.79061 1.19994 0
M  V30 13354 N 1169.18 -0.941978 -1.26351 0
M  V30 13355 C 1170.45 -0.507822 -1.88893 0
M  V30 13356 C 1170.83 1.0146 -1.85119 0
M  V30 13357 O 1170.18 1.87495 -1.30606 0
M  V30 13358 C 1170.39 -1.07007 -3.3219 0
M  V30 13359 C 1171.74 -1.13922 -4.09032 0
M  V30 13360 O 1172.76 -1.02072 -3.41262 0
M  V30 13361 O 1171.62 -1.32362 -5.30229 0
M  V30 13362 H 1168.72 -0.165621 -0.810246 0
M  V30 13363 H 1171.26 -1.03459 -1.34515 0
M  V30 13364 H 1170.04 -2.11366 -3.29302 0
M  V30 13365 H 1169.66 -0.525797 -3.94108 0
M  V30 13366 N 1170.66 1.40747 -0.709091 0
M  V30 13367 C 1171.93 1.94831 -0.173246 0
M  V30 13368 C 1172.31 1.64766 1.31967 0
M  V30 13369 O 1171.66 0.961853 2.07269 0
M  V30 13370 C 1171.87 3.45697 -0.479013 0
M  V30 13371 C 1173.22 4.22576 -0.414122 0
M  V30 13372 O 1174.24 3.53778 -0.414699 0
M  V30 13373 O 1173.1 5.45135 -0.385986 0
M  V30 13374 H 1170.2 0.826683 -0.0228947 0
M  V30 13375 H 1172.74 1.50391 -0.786178 0
M  V30 13376 H 1171.51 3.60914 -1.51185 0
M  V30 13377 H 1171.14 3.97261 0.164211 0
M  V30 13378 N 1172.13 0.454803 1.50895 0
M  V30 13379 C 1173.36 -0.106259 2.07128 0
M  V30 13380 C 1173.78 -1.3418 1.31823 0
M  V30 13381 O 1173.14 -1.77667 0.361147 0
M  V30 13382 C 1173.19 -0.389609 3.58489 0
M  V30 13383 O 1172.29 -1.47305 3.85195 0
M  V30 13384 H 1171.63 0.00580588 0.663975 0
M  V30 13385 H 1174.16 0.641163 1.94294 0
M  V30 13386 H 1174.17 -0.634934 4.03029 0
M  V30 13387 H 1172.85 0.513338 4.1272 0
M  V30 13388 H 1171.43 -1.21631 3.52506 0
M  V30 13389 N 1173.61 -1.56489 0.186789 0
M  V30 13390 C 1174.54 -2.21705 -0.732739 0
M  V30 13391 C 1175.52 -1.17751 -1.22755 0
M  V30 13392 O 1176.71 -1.46231 -1.27789 0
M  V30 13393 C 1173.84 -2.86992 -1.95584 0
M  V30 13394 C 1172.79 -3.97118 -1.59628 0
M  V30 13395 C 1172.12 -4.49529 -2.89531 0
M  V30 13396 C 1173.42 -5.15941 -0.812518 0
M  V30 13397 H 1175.11 -2.98802 -0.189094 0
M  V30 13398 H 1172.66 -1.43722 -0.0895099 0
M  V30 13399 H 1174.61 -3.31295 -2.60426 0
M  V30 13400 H 1173.33 -2.07287 -2.52388 0
M  V30 13401 H 1171.99 -3.53494 -0.971475 0
M  V30 13402 H 1171.64 -3.66596 -3.44407 0
M  V30 13403 H 1171.34 -5.23832 -2.66221 0
M  V30 13404 H 1172.87 -4.96528 -3.55376 0
M  V30 13405 H 1174.28 -5.56841 -1.36386 0
M  V30 13406 H 1172.68 -5.96259 -0.677862 0
M  V30 13407 H 1173.75 -4.84535 0.188095 0
M  V30 13408 N 1175.09 0.086862 -1.5736 0
M  V30 13409 C 1176.34 0.790008 -1.8678 0
M  V30 13410 C 1176.67 1.77977 -0.777042 0
M  V30 13411 O 1175.94 1.93317 0.21419 0
M  V30 13412 C 1176.23 1.51143 -3.26845 0
M  V30 13413 C 1176.08 0.539106 -4.46558 0
M  V30 13414 C 1177.4 2.46003 -3.64926 0
M  V30 13415 H 1174.52 0.285741 -0.679354 0
M  V30 13416 H 1177.16 0.0534655 -1.89925 0
M  V30 13417 H 1175.31 2.13928 -3.24295 0
M  V30 13418 H 1176.98 -0.0823679 -4.61226 0
M  V30 13419 H 1175.22 -0.146842 -4.33551 0
M  V30 13420 H 1175.9 1.0812 -5.41308 0
M  V30 13421 H 1178.37 1.93306 -3.68473 0
M  V30 13422 H 1177.25 2.93493 -4.63846 0
M  V30 13423 H 1177.51 3.30133 -2.94049 0
M  V30 13424 N 1176.57 1.53483 0.357892 0
M  V30 13425 C 1177.81 1.70289 1.10134 0
M  V30 13426 C 1178.15 0.457296 1.88739 0
M  V30 13427 O 1177.42 -0.545527 1.86693 0
M  V30 13428 C 1177.7 2.95755 2.05429 0
M  V30 13429 C 1177.56 4.30489 1.30382 0
M  V30 13430 C 1178.88 3.16844 3.05447 0
M  V30 13431 H 1176 0.61965 0.399003 0
M  V30 13432 H 1178.64 1.86133 0.381357 0
M  V30 13433 H 1176.79 2.82377 2.66825 0
M  V30 13434 H 1178.46 4.55692 0.71711 0
M  V30 13435 H 1176.7 4.2955 0.605712 0
M  V30 13436 H 1177.37 5.14427 2.00171 0
M  V30 13437 H 1179.85 3.29458 2.54159 0
M  V30 13438 H 1178.73 4.06053 3.69341 0
M  V30 13439 H 1178.99 2.32476 3.76041 0
M  V30 13440 N 1178.05 -0.61812 1.44973 0
M  V30 13441 C 1179.32 -1.37705 1.38913 0
M  V30 13442 C 1179.7 -2.1103 0.054385 0
M  V30 13443 O 1179.05 -2.07197 -0.963409 0
M  V30 13444 C 1179.26 -2.33265 2.59593 0
M  V30 13445 C 1180.61 -2.96197 3.04224 0
M  V30 13446 O 1181.63 -2.43589 2.59891 0
M  V30 13447 O 1180.49 -3.91666 3.8113 0
M  V30 13448 H 1177.59 -0.61694 0.55074 0
M  V30 13449 H 1180.13 -0.642088 1.57084 0
M  V30 13450 H 1178.9 -1.78271 3.48332 0
M  V30 13451 H 1178.53 -3.14158 2.43702 0
M  V30 13452 N 1179.52 -1.32087 -0.859693 0
M  V30 13453 C 1180.49 -1.20546 -1.94939 0
M  V30 13454 C 1181.49 -0.12982 -1.60275 0
M  V30 13455 O 1182.68 -0.379853 -1.70008 0
M  V30 13456 C 1179.81 -0.852717 -3.30063 0
M  V30 13457 H 1181 -2.17384 -2.06602 0
M  V30 13458 H 1178.55 -1.15846 -1.04926 0
M  V30 13459 H 1179.29 0.114059 -3.24099 0
M  V30 13460 H 1179.07 -1.63035 -3.56598 0
M  V30 13461 H 1180.56 -0.796145 -4.09941 0
M  V30 13462 N 1181 1.07532 -1.15215 0
M  V30 13463 C 1182.25 1.79474 -0.920439 0
M  V30 13464 C 1182.56 1.87593 0.553926 0
M  V30 13465 O 1183.77 2.56037 0.903169 0
M  V30 13466 C 1182.23 3.22509 -1.59738 0
M  V30 13467 C 1181.83 3.22596 -3.10863 0
M  V30 13468 C 1183.58 3.99072 -1.44714 0
M  V30 13469 C 1181.48 4.60273 -3.71352 0
M  V30 13470 H 1180.41 0.672625 -0.340722 0
M  V30 13471 H 1183.07 1.2071 -1.38208 0
M  V30 13472 H 1181.45 3.81454 -1.06342 0
M  V30 13473 H 1182.62 2.73306 -3.70999 0
M  V30 13474 H 1180.94 2.5953 -3.25627 0
M  V30 13475 H 1183.53 5.00823 -1.87299 0
M  V30 13476 H 1183.88 4.14428 -0.394386 0
M  V30 13477 H 1184.41 3.46617 -1.95195 0
M  V30 13478 H 1181.15 4.50122 -4.76519 0
M  V30 13479 H 1180.67 5.09809 -3.15998 0
M  V30 13480 H 1182.35 5.29243 -3.7217 0
M  V30 13481 N 1182.48 0.948665 1.2585 0
M  V30 13482 C 1183.73 0.600236 1.934 0
M  V30 13483 C 1184.06 -0.86185 1.74363 0
M  V30 13484 O 1183.31 -1.63294 1.07858 0
M  V30 13485 C 1183.61 0.89784 3.45939 0
M  V30 13486 C 1183.28 2.345 3.85124 0
M  V30 13487 C 1181.94 2.74058 3.95532 0
M  V30 13488 C 1184.29 3.2851 4.04636 0
M  V30 13489 C 1181.62 4.06707 4.22855 0
M  V30 13490 C 1183.97 4.60764 4.3345 0
M  V30 13491 C 1182.63 5.00127 4.42074 0
M  V30 13492 H 1181.9 0.219642 0.707699 0
M  V30 13493 H 1184.55 1.19658 1.49513 0
M  V30 13494 H 1182.86 0.219037 3.91187 0
M  V30 13495 H 1184.55 0.606916 3.96381 0
M  V30 13496 H 1181.14 2.02819 3.77574 0
M  V30 13497 H 1185.33 2.99141 3.96015 0
M  V30 13498 H 1180.58 4.36856 4.27746 0
M  V30 13499 H 1184.76 5.33594 4.47493 0
M  V30 13500 H 1182.38 6.02939 4.63 0
M  V30 13501 N 1183.96 -1.40369 0.716545 0
M  V30 13502 C 1185.18 -2.05704 0.264729 0
M  V30 13503 C 1185.61 -1.53634 -1.08527 0
M  V30 13504 O 1184.97 -0.67212 -1.68381 0
M  V30 13505 C 1185.01 -3.59692 0.255778 0
M  V30 13506 O 1184.12 -4.05286 -0.762686 0
M  V30 13507 H 1183.46 -0.652301 0.124092 0
M  V30 13508 H 1185.99 -1.7975 0.977295 0
M  V30 13509 H 1186 -4.07892 0.0937944 0
M  V30 13510 H 1184.67 -3.96955 1.24095 0
M  V30 13511 H 1183.25 -3.68543 -0.568347 0
M  V30 13512 N 1185.44 -0.462799 -1.50652 0
M  V30 13513 C 1186.69 0.0966838 -2.01468 0
M  V30 13514 C 1187 1.41529 -1.35014 0
M  V30 13515 O 1188.2 2.05923 -1.76941 0
M  V30 13516 C 1186.66 0.222826 -3.5921 0
M  V30 13517 C 1186.27 -1.08686 -4.34616 0
M  V30 13518 C 1188.01 0.734711 -4.18094 0
M  V30 13519 C 1185.92 -0.924964 -5.84122 0
M  V30 13520 H 1184.85 0.0399078 -0.752943 0
M  V30 13521 H 1187.5 -0.596437 -1.73536 0
M  V30 13522 H 1185.88 0.979539 -3.83694 0
M  V30 13523 H 1187.06 -1.85388 -4.21862 0
M  V30 13524 H 1185.37 -1.52922 -3.87303 0
M  V30 13525 H 1187.97 0.872734 -5.2753 0
M  V30 13526 H 1188.31 1.72389 -3.7893 0
M  V30 13527 H 1188.84 0.0356139 -3.97784 0
M  V30 13528 H 1185.58 -1.88727 -6.27744 0
M  V30 13529 H 1185.1 -0.198181 -5.99473 0
M  V30 13530 H 1186.78 -0.588262 -6.4432 0
M  V30 13531 N 1186.91 1.56388 -0.195085 0
M  V30 13532 C 1187.84 2.22091 0.720971 0
M  V30 13533 C 1188.83 1.184 1.22128 0
M  V30 13534 O 1190.01 1.46907 1.27012 0
M  V30 13535 C 1187.14 2.88025 1.94059 0
M  V30 13536 C 1186.09 3.97959 1.5752 0
M  V30 13537 C 1185.42 4.51058 2.87143 0
M  V30 13538 C 1186.72 5.16365 0.785145 0
M  V30 13539 H 1188.41 2.98898 0.173245 0
M  V30 13540 H 1185.96 1.43767 0.0818868 0
M  V30 13541 H 1187.91 3.32671 2.58666 0
M  V30 13542 H 1186.64 2.08623 2.51285 0
M  V30 13543 H 1185.3 3.54004 0.952715 0
M  V30 13544 H 1184.94 3.68418 3.42458 0
M  V30 13545 H 1184.64 5.25237 2.63439 0
M  V30 13546 H 1186.17 4.98406 3.52738 0
M  V30 13547 H 1187.58 5.57556 1.33431 0
M  V30 13548 H 1185.98 5.9661 0.646231 0
M  V30 13549 H 1187.05 4.84428 -0.213789 0
M  V30 13550 N 1188.39 -0.0785156 1.57404 0
M  V30 13551 C 1189.64 -0.774884 1.88061 0
M  V30 13552 C 1189.99 -1.75525 0.787966 0
M  V30 13553 O 1189.29 -1.90462 -0.208514 0
M  V30 13554 C 1189.48 -1.52826 3.23078 0
M  V30 13555 C 1189.31 -0.62236 4.45373 0
M  V30 13556 C 1188.08 -0.261831 5.04621 0
M  V30 13557 C 1190.28 0.077964 5.14241 0
M  V30 13558 N 1188.26 0.650492 6.10444 0
M  V30 13559 C 1189.63 0.847727 6.14177 0
M  V30 13560 C 1191.69 0.150143 4.97674 0
M  V30 13561 C 1190.39 1.68295 6.99335 0
M  V30 13562 C 1192.41 0.972321 5.83352 0
M  V30 13563 C 1191.78 1.73015 6.82821 0
M  V30 13564 H 1187.88 -0.259194 0.737796 0
M  V30 13565 H 1190.46 -0.0366796 1.94665 0
M  V30 13566 H 1188.63 -2.23723 3.17494 0
M  V30 13567 H 1190.36 -2.17311 3.41406 0
M  V30 13568 H 1187.12 -0.613197 4.69614 0
M  V30 13569 H 1187.54 1.0997 6.68009 0
M  V30 13570 H 1192.18 -0.421423 4.20695 0
M  V30 13571 H 1189.9 2.26552 7.75693 0
M  V30 13572 H 1193.49 1.03106 5.72591 0
M  V30 13573 H 1192.37 2.35609 7.47969 0
M  V30 13574 N 1189.87 -1.5367 -0.349747 0
M  V30 13575 C 1191.1 -1.74858 -1.11532 0
M  V30 13576 C 1191.52 -0.483591 -1.81777 0
M  V30 13577 O 1190.88 0.563399 -1.72324 0
M  V30 13578 C 1190.93 -2.92479 -2.10923 0
M  V30 13579 O 1190.03 -2.62194 -3.18321 0
M  V30 13580 H 1189.37 -0.580219 -0.322865 0
M  V30 13581 H 1191.9 -2.00611 -0.402033 0
M  V30 13582 H 1191.91 -3.19093 -2.54252 0
M  V30 13583 H 1190.59 -3.84228 -1.59191 0
M  V30 13584 H 1189.16 -2.46448 -2.79853 0
M  V30 13585 N 1191.35 0.610423 -1.45298 0
M  V30 13586 C 1192.57 1.40112 -1.52917 0
M  V30 13587 C 1193 1.87404 -0.161696 0
M  V30 13588 O 1192.36 1.59973 0.853135 0
M  V30 13589 C 1192.4 2.58359 -2.51561 0
M  V30 13590 O 1191.51 3.58895 -2.03146 0
M  V30 13591 H 1190.85 0.41841 -0.515586 0
M  V30 13592 H 1193.38 0.743159 -1.90626 0
M  V30 13593 H 1193.39 3.0564 -2.70275 0
M  V30 13594 H 1192.06 2.23286 -3.50879 0
M  V30 13595 H 1190.64 3.18282 -1.94296 0
M  V30 13596 N 1192.83 1.32541 0.852676 0
M  V30 13597 C 1194.07 1.22971 1.60383 0
M  V30 13598 C 1194.4 -0.208009 1.93887 0
M  V30 13599 O 1193.67 -1.13326 1.59794 0
M  V30 13600 H 1192.25 0.452149 0.594618 0
M  V30 13601 H 1194.91 1.66089 1.01983 0
M  V30 13602 H 1194 1.81373 2.53989 0
M  V30 13603 N 1194.3 -1.0692 1.15784 0
M  V30 13604 C 1195.55 -1.78983 0.929944 0
M  V30 13605 C 1195.87 -1.87884 -0.543969 0
M  V30 13606 O 1197.07 -2.56513 -0.889578 0
M  V30 13607 C 1195.53 -3.21657 1.61446 0
M  V30 13608 C 1195.14 -3.20943 3.12569 0
M  V30 13609 C 1196.88 -3.98299 1.46828 0
M  V30 13610 C 1194.79 -4.58298 3.73788 0
M  V30 13611 H 1193.72 -0.670809 0.344284 0
M  V30 13612 H 1196.37 -1.19975 1.38846 0
M  V30 13613 H 1194.75 -3.80885 1.08364 0
M  V30 13614 H 1195.92 -2.71334 3.72444 0
M  V30 13615 H 1194.24 -2.57799 3.26999 0
M  V30 13616 H 1196.84 -4.99822 1.89952 0
M  V30 13617 H 1197.18 -4.14213 0.416358 0
M  V30 13618 H 1197.71 -3.45577 1.97031 0
M  V30 13619 H 1194.45 -4.47588 4.789 0
M  V30 13620 H 1193.97 -5.08126 3.18698 0
M  V30 13621 H 1195.65 -5.27262 3.74972 0
M  V30 13622 N 1195.78 -0.955326 -1.25345 0
M  V30 13623 C 1197.06 -0.527828 -1.88344 0
M  V30 13624 C 1197.44 0.994911 -1.86185 0
M  V30 13625 O 1196.79 1.86099 -1.32587 0
M  V30 13626 C 1197 -1.10525 -3.31037 0
M  V30 13627 C 1198.35 -1.18253 -4.07801 0
M  V30 13628 O 1199.37 -1.05685 -3.4016 0
M  V30 13629 O 1198.23 -1.37978 -5.28795 0
M  V30 13630 H 1195.32 -0.174206 -0.808444 0
M  V30 13631 H 1197.87 -1.0488 -1.3341 0
M  V30 13632 H 1196.64 -2.14847 -3.27042 0
M  V30 13633 H 1196.26 -0.567568 -3.93528 0
M  V30 13634 N 1197.26 1.39987 -0.723979 0
M  V30 13635 C 1198.68 1.54547 -0.398403 0
M  V30 13636 C 1198.88 1.69348 1.09194 0
M  V30 13637 O 1197.93 1.68778 1.87804 0
M  V30 13638 C 1199.25 2.76929 -1.1718 0
M  V30 13639 C 1200.79 2.90754 -1.15893 0
M  V30 13640 C 1201.27 4.16059 -1.91465 0
M  V30 13641 N 1202.76 4.23076 -1.88576 0
M  V30 13642 C 1203.5 5.18957 -2.43867 0
M  V30 13643 N 1202.99 6.20695 -3.0775 0
M  V30 13644 N 1204.78 5.11095 -2.33962 0
M  V30 13645 H 1196.94 1.28626 -1.69024 0
M  V30 13646 H 1199.2 0.6226 -0.714894 0
M  V30 13647 H 1198.9 2.72298 -2.22591 0
M  V30 13648 H 1198.78 3.69279 -0.768941 0
M  V30 13649 H 1201.17 2.94884 -0.112978 0
M  V30 13650 H 1201.25 1.99498 -1.60107 0
M  V30 13651 H 1200.89 4.12691 -2.96055 0
M  V30 13652 H 1200.82 5.06339 -1.44665 0
M  V30 13653 H 1203.31 3.50195 -1.42027 0
M  V30 13654 H 1203.62 6.90296 -3.47435 0
M  V30 13655 H 1201.97 6.21114 -3.11837 0
M  V30 13656 H 1205.16 4.30546 -1.83706 0
M  V30 13657 H 1205.33 5.85644 -2.77353 0
M  V30 13658 N 1198.74 0.470782 1.50404 0
M  V30 13659 C 1199.99 -0.084316 2.02324 0
M  V30 13660 C 1200.31 -1.39749 1.35279 0
M  V30 13661 O 1199.57 -1.90037 0.467364 0
M  V30 13662 C 1199.87 -0.316419 3.55997 0
M  V30 13663 C 1199.53 0.915017 4.41518 0
M  V30 13664 C 1198.2 1.25265 4.6461 0
M  V30 13665 C 1200.55 1.73494 4.91477 0
M  V30 13666 C 1197.88 2.41027 5.34905 0
M  V30 13667 C 1200.23 2.88384 5.63043 0
M  V30 13668 C 1198.89 3.22562 5.84389 0
M  V30 13669 H 1198.16 -0.0308534 0.740357 0
M  V30 13670 H 1200.81 0.624799 1.81021 0
M  V30 13671 H 1199.11 -1.10778 3.75813 0
M  V30 13672 H 1200.81 -0.759882 3.93734 0
M  V30 13673 H 1197.4 0.641977 4.23765 0
M  V30 13674 H 1201.59 1.48728 4.73491 0
M  V30 13675 H 1196.84 2.67781 5.49639 0
M  V30 13676 H 1201.02 3.52264 6.00735 0
M  V30 13677 H 1198.64 4.1237 6.38635 0
M  V30 13678 N 1200.22 -1.56282 0.203376 0
M  V30 13679 C 1201.44 -2.02643 -0.441658 0
M  V30 13680 C 1201.87 -1.0825 -1.5383 0
M  V30 13681 O 1201.23 -0.0674337 -1.81175 0
M  V30 13682 C 1201.27 -3.47382 -0.967369 0
M  V30 13683 O 1200.38 -3.56115 -2.07981 0
M  V30 13684 H 1199.72 -0.656081 -0.102242 0
M  V30 13685 H 1202.25 -2.02134 0.316684 0
M  V30 13686 H 1202.26 -3.8734 -1.28186 0
M  V30 13687 H 1200.93 -4.15574 -0.164625 0
M  V30 13688 H 1199.51 -3.28035 -1.77334 0
M  V30 13689 N 1201.7 0.070167 -1.57444 0
M  V30 13690 C 1202.66 1.06761 -2.02817 0
M  V30 13691 C 1203.66 1.31498 -0.925462 0
M  V30 13692 O 1204.85 1.27192 -1.19029 0
M  V30 13693 C 1201.98 2.41086 -2.41019 0
M  V30 13694 H 1203.17 0.67651 -2.9217 0
M  V30 13695 H 1200.73 0.315936 -1.53074 0
M  V30 13696 H 1201.46 2.85025 -1.54697 0
M  V30 13697 H 1201.25 2.24472 -3.21488 0
M  V30 13698 H 1202.74 3.12778 -2.76694 0
M  V30 13699 N 1203.17 1.53854 0.341593 0
M  V30 13700 C 1204.42 1.71194 1.08162 0
M  V30 13701 C 1204.75 0.47614 1.88582 0
M  V30 13702 O 1204 -0.542115 1.88041 0
M  V30 13703 C 1204.3 2.92844 2.04884 0
M  V30 13704 C 1203.97 4.28366 1.40759 0
M  V30 13705 C 1202.63 4.65214 1.23 0
M  V30 13706 C 1204.98 5.12546 0.945819 0
M  V30 13707 C 1202.31 5.83857 0.576852 0
M  V30 13708 C 1204.66 6.31857 0.306568 0
M  V30 13709 C 1203.33 6.67398 0.116677 0
M  V30 13710 H 1202.6 0.626442 0.395792 0
M  V30 13711 H 1205.24 1.88073 0.360688 0
M  V30 13712 H 1203.55 2.70576 2.83365 0
M  V30 13713 H 1205.25 3.03454 2.62139 0
M  V30 13714 H 1201.84 3.99366 1.5558 0
M  V30 13715 H 1206.02 4.84609 1.07087 0
M  V30 13716 H 1201.28 6.09967 0.418363 0
M  V30 13717 H 1205.45 6.96375 -0.0593285 0
M  V30 13718 H 1203.08 7.59191 -0.391477 0
M  V30 13719 N 1204.65 -0.602709 1.4562 0
M  V30 13720 C 1205.9 -1.35769 1.49163 0
M  V30 13721 C 1206.21 -1.95102 0.139485 0
M  V30 13722 O 1207.42 -2.71449 0.0525919 0
M  V30 13723 C 1205.88 -2.45959 2.62739 0
M  V30 13724 C 1205.48 -1.93017 4.04288 0
M  V30 13725 C 1207.23 -3.22926 2.75534 0
M  V30 13726 C 1205.13 -3.00718 5.09237 0
M  V30 13727 H 1204.06 -0.510317 0.555061 0
M  V30 13728 H 1206.72 -0.645434 1.71774 0
M  V30 13729 H 1205.1 -3.19892 2.3342 0
M  V30 13730 H 1206.27 -1.2576 4.43307 0
M  V30 13731 H 1204.59 -1.2878 3.95986 0
M  V30 13732 H 1207.18 -4.03267 3.51112 0
M  V30 13733 H 1207.53 -3.74243 1.82339 0
M  V30 13734 H 1208.06 -2.56095 3.04402 0
M  V30 13735 H 1204.8 -2.54312 6.04157 0
M  V30 13736 H 1204.32 -3.66526 4.74783 0
M  V30 13737 H 1206 -3.65016 5.34202 0
M  V30 13738 N 1206.13 -1.32992 -0.845635 0
M  V30 13739 C 1207.38 -1.24065 -1.60044 0
M  V30 13740 C 1207.7 0.195282 -1.93517 0
M  V30 13741 O 1206.96 1.1507 -1.58296 0
M  V30 13742 C 1207.26 -2.05454 -2.92444 0
M  V30 13743 C 1206.92 -3.54718 -2.78362 0
M  V30 13744 C 1205.59 -3.95413 -2.74229 0
M  V30 13745 C 1207.94 -4.49598 -2.63649 0
M  V30 13746 C 1205.27 -5.29216 -2.53274 0
M  V30 13747 C 1207.62 -5.83554 -2.44228 0
M  V30 13748 C 1206.28 -6.2344 -2.38493 0
M  V30 13749 H 1205.55 -0.453985 -0.585644 0
M  V30 13750 H 1208.2 -1.6451 -0.980244 0
M  V30 13751 H 1206.5 -1.57765 -3.58633 0
M  V30 13752 H 1208.2 -1.95909 -3.49887 0
M  V30 13753 H 1204.79 -3.22403 -2.82409 0
M  V30 13754 H 1208.98 -4.19072 -2.65881 0
M  V30 13755 H 1204.23 -5.59164 -2.47275 0
M  V30 13756 H 1208.41 -6.56681 -2.31825 0
M  V30 13757 H 1206.03 -7.27058 -2.22015 0
M  V30 13758 N 1207.61 1.06304 -1.1635 0
M  V30 13759 C 1208.57 2.11947 -0.872419 0
M  V30 13760 C 1209.57 1.60253 0.132534 0
M  V30 13761 O 1210.76 1.73922 -0.0983441 0
M  V30 13762 C 1207.89 3.39536 -0.304646 0
M  V30 13763 H 1209.09 2.39201 -1.80894 0
M  V30 13764 H 1206.64 1.22367 -0.972419 0
M  V30 13765 H 1207.37 3.17931 0.639565 0
M  V30 13766 H 1207.16 3.78363 -1.02878 0
M  V30 13767 H 1208.65 4.17431 -0.118936 0
M  V30 13768 N 1209.09 0.96196 1.24836 0
M  V30 13769 C 1210.31 0.637709 1.97353 0
M  V30 13770 C 1210.74 -0.784919 1.7094 0
M  V30 13771 O 1210.09 -1.53188 0.969694 0
M  V30 13772 C 1210.14 0.911485 3.4889 0
M  V30 13773 O 1209.25 -0.00601668 4.124 0
M  V30 13774 H 1208.59 0.241685 0.618453 0
M  V30 13775 H 1211.12 1.29055 1.58764 0
M  V30 13776 H 1211.13 0.840702 3.99245 0
M  V30 13777 H 1209.8 1.9483 3.67442 0
M  V30 13778 H 1208.38 0.117597 3.72715 0
M  V30 13779 N 1210.56 -1.39601 0.731392 0
M  V30 13780 C 1211.81 -2.00586 0.277756 0
M  V30 13781 C 1212.14 -1.58027 -1.13391 0
M  V30 13782 O 1211.39 -0.798691 -1.7866 0
M  V30 13783 C 1211.69 -3.55934 0.323352 0
M  V30 13784 C 1211.36 -4.18131 1.68753 0
M  V30 13785 C 1210.02 -4.34833 2.06092 0
M  V30 13786 C 1212.37 -4.5267 2.58339 0
M  V30 13787 C 1209.7 -4.83362 3.32532 0
M  V30 13788 C 1212.05 -5.02607 3.84148 0
M  V30 13789 C 1210.72 -5.17517 4.21584 0
M  V30 13790 H 1209.99 -0.733996 0.101638 0
M  V30 13791 H 1212.63 -1.66981 0.937528 0
M  V30 13792 H 1210.94 -3.89542 -0.419995 0
M  V30 13793 H 1212.64 -4.00974 -0.0457235 0
M  V30 13794 H 1209.23 -4.0553 1.38722 0
M  V30 13795 H 1213.41 -4.39388 2.30763 0
M  V30 13796 H 1208.67 -4.93091 3.61485 0
M  V30 13797 H 1212.84 -5.28306 4.53724 0
M  V30 13798 H 1210.47 -5.54882 5.19625 0
M  V30 13799 N 1212.04 -0.478751 -1.50152 0
M  V30 13800 C 1213.29 0.07531 -2.01559 0
M  V30 13801 C 1213.6 1.40089 -1.36508 0
M  V30 13802 O 1214.81 2.04035 -1.79115 0
M  V30 13803 C 1213.27 0.184714 -3.59426 0
M  V30 13804 C 1212.87 -1.13289 -4.33439 0
M  V30 13805 C 1214.62 0.690326 -4.18849 0
M  V30 13806 C 1212.53 -0.986866 -5.83108 0
M  V30 13807 H 1211.46 0.0319196 -0.753324 0
M  V30 13808 H 1214.11 -0.614809 -1.72894 0
M  V30 13809 H 1212.49 0.938788 -3.84711 0
M  V30 13810 H 1213.66 -1.89852 -4.19872 0
M  V30 13811 H 1211.98 -1.57021 -3.8566 0
M  V30 13812 H 1214.57 0.816733 -5.28426 0
M  V30 13813 H 1214.92 1.68361 -3.80737 0
M  V30 13814 H 1215.45 -0.00657846 -3.97799 0
M  V30 13815 H 1212.19 -1.95375 -6.25707 0
M  V30 13816 H 1211.71 -0.261752 -5.99229 0
M  V30 13817 H 1213.39 -0.656567 -6.4366 0
M  V30 13818 N 1213.52 1.56172 -0.211661 0
M  V30 13819 C 1214.77 1.97648 0.421871 0
M  V30 13820 C 1215.09 1.10026 1.60995 0
M  V30 13821 O 1214.36 0.175109 1.95116 0
M  V30 13822 H 1212.94 0.729914 0.158852 0
M  V30 13823 H 1215.6 1.92542 -0.302254 0
M  V30 13824 H 1214.7 3.02834 0.754868 0
M  V30 13825 N 1215 -0.0618163 1.57479 0
M  V30 13826 C 1215.96 -1.05684 2.0338 0
M  V30 13827 C 1216.96 -1.31006 0.932423 0
M  V30 13828 O 1218.15 -1.26559 1.19702 0
M  V30 13829 C 1215.28 -2.39805 2.42294 0
M  V30 13830 H 1216.48 -0.661006 2.92525 0
M  V30 13831 H 1214.03 -0.307814 1.53239 0
M  V30 13832 H 1214.76 -2.84201 1.56207 0
M  V30 13833 H 1214.55 -2.22764 3.22674 0
M  V30 13834 H 1216.04 -3.11307 2.78349 0
M  V30 13835 N 1216.48 -1.54033 -0.333429 0
M  V30 13836 C 1217.72 -1.72019 -1.07411 0
M  V30 13837 C 1218.06 -0.487265 -1.87988 0
M  V30 13838 O 1217.33 0.515757 -1.87537 0
M  V30 13839 C 1217.61 -2.98986 -2.00698 0
M  V30 13840 C 1217.47 -4.32509 -1.23517 0
M  V30 13841 C 1218.79 -3.21663 -3.00368 0
M  V30 13842 H 1215.9 -0.625919 -0.389094 0
M  V30 13843 H 1218.55 -1.86717 -0.351697 0
M  V30 13844 H 1216.7 -2.86586 -2.62298 0
M  V30 13845 H 1218.37 -4.56775 -0.644522 0
M  V30 13846 H 1216.61 -4.3046 -0.537298 0
M  V30 13847 H 1217.28 -5.17547 -1.91962 0
M  V30 13848 H 1219.76 -3.33459 -2.48886 0
M  V30 13849 H 1218.63 -4.11877 -3.62834 0
M  V30 13850 H 1218.9 -2.3843 -3.72295 0
M  V30 13851 N 1217.95 0.594978 -1.45938 0
M  V30 13852 C 1218.9 1.70489 -1.5557 0
M  V30 13853 C 1219.87 1.61193 -0.400751 0
M  V30 13854 O 1221.06 1.80587 -0.615882 0
M  V30 13855 C 1218.2 3.08817 -1.54033 0
M  V30 13856 C 1217.31 3.28827 -2.80173 0
M  V30 13857 C 1216.44 4.57333 -2.70222 0
M  V30 13858 C 1215.48 4.70644 -3.91357 0
M  V30 13859 N 1214.62 5.90463 -3.79865 0
M  V30 13860 H 1219.46 1.61593 -2.50383 0
M  V30 13861 H 1217 0.787747 -1.24229 0
M  V30 13862 H 1218.96 3.88865 -1.51129 0
M  V30 13863 H 1217.59 3.1664 -0.627617 0
M  V30 13864 H 1216.64 2.42467 -2.9311 0
M  V30 13865 H 1217.95 3.34534 -3.69985 0
M  V30 13866 H 1217.1 5.45593 -2.65354 0
M  V30 13867 H 1215.84 4.54045 -1.7803 0
M  V30 13868 H 1214.85 3.80805 -3.9657 0
M  V30 13869 H 1216.07 4.75721 -4.8463 0
M  V30 13870 H 1214.02 5.88196 -2.90451 0
M  V30 13871 H 1213.94 5.97385 -4.63322 0
M  V30 13872 H 1215.2 6.81187 -3.78952 0
M  V30 13873 N 1219.43 1.33438 0.838571 0
M  V30 13874 C 1220.36 1.19552 1.9555 0
M  V30 13875 C 1221.38 0.12642 1.62308 0
M  V30 13876 O 1222.57 0.376868 1.74476 0
M  V30 13877 C 1219.67 0.811273 3.29046 0
M  V30 13878 C 1218.84 1.97207 3.9042 0
M  V30 13879 C 1217.9 1.56875 5.02271 0
M  V30 13880 O 1216.92 2.28314 5.21403 0
M  V30 13881 N 1218.13 0.473924 5.78562 0
M  V30 13882 H 1220.89 2.15769 2.07999 0
M  V30 13883 H 1218.45 1.26187 1.01432 0
M  V30 13884 H 1220.44 0.523553 4.01299 0
M  V30 13885 H 1219.01 -0.0602291 3.12542 0
M  V30 13886 H 1218.23 2.4254 3.10754 0
M  V30 13887 H 1219.52 2.74878 4.28158 0
M  V30 13888 H 1218.92 -0.120306 5.65572 0
M  V30 13889 H 1217.48 0.245877 6.51336 0
M  V30 13890 N 1220.91 -1.05686 1.16912 0
M  V30 13891 C 1222.14 -1.82282 0.978811 0
M  V30 13892 C 1222.55 -1.8278 -0.472972 0
M  V30 13893 O 1221.91 -1.25143 -1.32836 0
M  V30 13894 C 1221.96 -3.28623 1.50629 0
M  V30 13895 O 1221.68 -3.28269 2.90122 0
M  V30 13896 C 1223.18 -4.21927 1.35987 0
M  V30 13897 H 1220.4 -0.574558 0.346588 0
M  V30 13898 H 1222.95 -1.33301 1.55084 0
M  V30 13899 H 1221.1 -3.74893 0.976404 0
M  V30 13900 H 1221.52 -4.19824 3.14401 0
M  V30 13901 H 1222.99 -5.2261 1.77716 0
M  V30 13902 H 1223.47 -4.38131 0.30626 0
M  V30 13903 H 1224.07 -3.81508 1.87968 0
M  V30 13904 N 1222.39 -0.968567 -1.24324 0
M  V30 13905 C 1223.62 -0.647628 -1.96187 0
M  V30 13906 C 1224.03 0.787267 -1.72043 0
M  V30 13907 O 1223.37 1.53996 -1.00155 0
M  V30 13908 C 1223.43 -0.843517 -3.49464 0
M  V30 13909 C 1223.1 -2.25822 -3.97308 0
M  V30 13910 C 1224.09 -3.23602 -4.06913 0
M  V30 13911 C 1221.78 -2.58614 -4.30609 0
M  V30 13912 C 1223.77 -4.5226 -4.49154 0
M  V30 13913 C 1221.46 -3.87499 -4.72534 0
M  V30 13914 C 1222.46 -4.84134 -4.81771 0
M  V30 13915 O 1222.14 -6.10719 -5.2276 0
M  V30 13916 H 1221.88 -0.240568 -0.631746 0
M  V30 13917 H 1224.43 -1.29926 -1.59086 0
M  V30 13918 H 1222.66 -0.134716 -3.86465 0
M  V30 13919 H 1224.35 -0.521533 -4.02536 0
M  V30 13920 H 1225.12 -2.99596 -3.81402 0
M  V30 13921 H 1220.99 -1.84116 -4.22637 0
M  V30 13922 H 1224.54 -5.27689 -4.56279 0
M  V30 13923 H 1220.44 -4.11305 -4.97492 0
M  V30 13924 H 1221.2 -6.14298 -5.40906 0
M  V30 13925 N 1223.87 1.39211 -0.738786 0
M  V30 13926 C 1224.82 2.27869 -0.0772787 0
M  V30 13927 C 1225.8 1.44452 0.708683 0
M  V30 13928 O 1226.99 1.67329 0.57707 0
M  V30 13929 C 1224.12 3.33206 0.826364 0
M  V30 13930 C 1223.21 4.24086 0.034349 0
M  V30 13931 N 1223.6 4.95928 -0.99446 0
M  V30 13932 C 1221.9 4.45221 0.26343 0
M  V30 13933 C 1222.6 5.62757 -1.47238 0
M  V30 13934 N 1221.57 5.37824 -0.790305 0
M  V30 13935 H 1225.38 2.80869 -0.865447 0
M  V30 13936 H 1222.89 1.51938 -0.573462 0
M  V30 13937 H 1224.89 3.95592 1.31578 0
M  V30 13938 H 1223.55 2.81765 1.61365 0
M  V30 13939 H 1224.56 4.99289 -1.37591 0
M  V30 13940 H 1221.23 4.04717 1.02522 0
M  V30 13941 H 1222.62 6.30261 -2.32853 0
M  V30 13942 N 1225.34 0.486708 1.49896 0
M  V30 13943 C 1226.28 -0.335809 2.26727 0
M  V30 13944 C 1227.29 -0.94333 1.32684 0
M  V30 13945 O 1228.48 -0.82909 1.58077 0
M  V30 13946 C 1225.58 -1.48642 3.04563 0
M  V30 13947 C 1224.75 -0.988837 4.26076 0
M  V30 13948 C 1223.81 -2.01535 4.86076 0
M  V30 13949 O 1222.84 -1.58966 5.46552 0
M  V30 13950 N 1224.04 -3.34471 4.74457 0
M  V30 13951 H 1226.8 0.322919 2.97955 0
M  V30 13952 H 1224.36 0.318403 1.58738 0
M  V30 13953 H 1226.36 -2.17039 3.41579 0
M  V30 13954 H 1224.93 -2.04956 2.36033 0
M  V30 13955 H 1224.15 -0.130232 3.93985 0
M  V30 13956 H 1225.43 -0.634562 5.04827 0
M  V30 13957 H 1224.83 -3.71755 4.26398 0
M  V30 13958 H 1223.39 -3.98621 5.15698 0
M  V30 13959 N 1226.82 -1.56058 0.219941 0
M  V30 13960 C 1228.07 -1.97869 -0.411383 0
M  V30 13961 C 1228.39 -1.10878 -1.60409 0
M  V30 13962 O 1227.66 -0.185454 -1.9502 0
M  V30 13963 H 1226.24 -0.730747 -0.154979 0
M  V30 13964 H 1228.9 -1.92379 0.312461 0
M  V30 13965 H 1228 -3.0323 -0.738798 0
M  V30 13966 N 1228.3 0.053464 -1.57509 0
M  V30 13967 C 1229.53 0.761533 -1.92375 0
M  V30 13968 C 1229.94 1.70179 -0.817585 0
M  V30 13969 O 1229.3 1.81313 0.207843 0
M  V30 13970 C 1229.35 1.53954 -3.27078 0
M  V30 13971 O 1229.07 0.637054 -4.33443 0
M  V30 13972 C 1230.57 2.34697 -3.76075 0
M  V30 13973 H 1227.79 0.215483 -0.635459 0
M  V30 13974 H 1230.34 0.0182624 -2.04492 0
M  V30 13975 H 1228.49 2.23492 -3.16434 0
M  V30 13976 H 1228.91 1.18006 -5.11053 0
M  V30 13977 H 1230.38 2.84716 -4.72906 0
M  V30 13978 H 1230.86 3.15041 -3.06016 0
M  V30 13979 H 1231.46 1.70281 -3.89724 0
M  V30 13980 N 1229.78 1.54207 0.325255 0
M  V30 13981 C 1231 1.7661 1.08736 0
M  V30 13982 C 1231.43 0.512449 1.80985 0
M  V30 13983 O 1230.79 -0.535913 1.73198 0
M  V30 13984 C 1230.84 2.95797 2.06243 0
M  V30 13985 O 1229.94 2.67225 3.14109 0
M  V30 13986 H 1229.28 0.585282 0.313593 0
M  V30 13987 H 1231.81 2.01225 0.370066 0
M  V30 13988 H 1231.82 3.23097 2.49143 0
M  V30 13989 H 1230.5 3.86712 1.53058 0
M  V30 13990 H 1229.07 2.50869 2.75897 0
M  V30 13991 N 1231.26 -0.58723 1.46251 0
M  V30 13992 C 1232.5 -1.34549 1.52539 0
M  V30 13993 C 1232.86 -1.91622 0.172885 0
M  V30 13994 O 1232.15 -1.73267 -0.81787 0
M  V30 13995 C 1232.35 -2.49776 2.5563 0
M  V30 13996 C 1232.17 -2.03991 4.00772 0
M  V30 13997 C 1230.94 -1.89216 4.68535 0
M  V30 13998 C 1233.14 -1.60227 4.88704 0
M  V30 13999 N 1231.12 -1.37454 5.98314 0
M  V30 14000 C 1232.5 -1.20024 6.08271 0
M  V30 14001 C 1234.55 -1.48004 4.75394 0
M  V30 14002 C 1233.25 -0.688163 7.16001 0
M  V30 14003 C 1235.28 -0.981991 5.8319 0
M  V30 14004 C 1234.64 -0.589721 7.01927 0
M  V30 14005 H 1230.74 -0.485499 0.613037 0
M  V30 14006 H 1233.32 -0.669117 1.82841 0
M  V30 14007 H 1231.5 -3.14983 2.27245 0
M  V30 14008 H 1233.23 -3.16715 2.5194 0
M  V30 14009 H 1229.98 -2.11025 4.23988 0
M  V30 14010 H 1230.41 -1.13748 6.67376 0
M  V30 14011 H 1235.05 -1.76951 3.8399 0
M  V30 14012 H 1232.77 -0.386268 8.07176 0
M  V30 14013 H 1236.35 -0.891387 5.74931 0
M  V30 14014 H 1235.23 -0.210279 7.83918 0
M  V30 14015 N 1232.74 -1.33881 -0.831482 0
M  V30 14016 C 1233.68 -1.24748 -1.94182 0
M  V30 14017 C 1234.65 -0.124516 -1.65633 0
M  V30 14018 O 1235.84 -0.304045 -1.88362 0
M  V30 14019 C 1232.98 -1.00016 -3.30289 0
M  V30 14020 C 1232.09 -2.21007 -3.71187 0
M  V30 14021 C 1231.23 -1.89629 -4.962 0
M  V30 14022 C 1230.26 -3.06811 -5.29654 0
M  V30 14023 N 1229.4 -2.75372 -6.45844 0
M  V30 14024 H 1234.24 -2.19709 -2.01325 0
M  V30 14025 H 1231.78 -1.09245 -0.985081 0
M  V30 14026 H 1233.74 -0.837167 -4.08714 0
M  V30 14027 H 1232.37 -0.0872582 -3.22682 0
M  V30 14028 H 1231.42 -2.48256 -2.88224 0
M  V30 14029 H 1232.73 -3.08587 -3.91887 0
M  V30 14030 H 1231.88 -1.70016 -5.82391 0
M  V30 14031 H 1230.62 -0.992964 -4.77485 0
M  V30 14032 H 1229.63 -3.27029 -4.41964 0
M  V30 14033 H 1230.85 -3.97909 -5.50314 0
M  V30 14034 H 1228.8 -1.87607 -6.28601 0
M  V30 14035 H 1228.72 -3.56483 -6.66675 0
M  V30 14036 H 1229.98 -2.59244 -7.35128 0
M  V30 14037 N 1234.21 1.05064 -1.1747 0
M  V30 14038 C 1235.63 1.30256 -0.922248 0
M  V30 14039 C 1235.83 1.97119 0.417896 0
M  V30 14040 O 1234.89 2.24557 1.15457 0
M  V30 14041 C 1236.2 2.17109 -2.08049 0
M  V30 14042 C 1237.75 2.30487 -2.11766 0
M  V30 14043 C 1238.22 3.20701 -3.26979 0
M  V30 14044 N 1239.71 3.28287 -3.26775 0
M  V30 14045 C 1240.45 3.98218 -4.12565 0
M  V30 14046 N 1239.94 4.70567 -5.08467 0
M  V30 14047 N 1241.74 3.94395 -4.00511 0
M  V30 14048 H 1233.89 0.600653 -2.0373 0
M  V30 14049 H 1236.15 0.327475 -0.889643 0
M  V30 14050 H 1235.86 1.75273 -3.04914 0
M  V30 14051 H 1235.73 3.1775 -2.03261 0
M  V30 14052 H 1238.12 2.71564 -1.15486 0
M  V30 14053 H 1238.2 1.29471 -2.20615 0
M  V30 14054 H 1237.84 2.80337 -4.23525 0
M  V30 14055 H 1237.77 4.21725 -3.15366 0
M  V30 14056 H 1240.26 2.76739 -2.5734 0
M  V30 14057 H 1240.58 5.21492 -5.70321 0
M  V30 14058 H 1238.92 4.69505 -5.12436 0
M  V30 14059 H 1242.11 3.37 -3.24882 0
M  V30 14060 H 1242.29 4.48626 -4.67588 0
M  V30 14061 N 1235.69 0.975146 1.23809 0
M  V30 14062 C 1236.65 0.516157 2.23312 0
M  V30 14063 C 1237.65 -0.39136 1.55965 0
M  V30 14064 O 1238.84 -0.185783 1.73206 0
M  V30 14065 C 1235.98 -0.251534 3.39971 0
M  V30 14066 H 1237.17 1.3959 2.65433 0
M  V30 14067 H 1234.72 0.760493 1.36551 0
M  V30 14068 H 1235.46 -1.14805 3.03299 0
M  V30 14069 H 1235.24 0.399825 3.90056 0
M  V30 14070 H 1236.73 -0.561438 4.13809 0
M  V30 14071 N 1237.17 -1.38817 0.746158 0
M  V30 14072 C 1238.1 -2.33144 0.128836 0
M  V30 14073 C 1239.08 -1.54487 -0.711873 0
M  V30 14074 O 1240.27 -1.82836 -0.654577 0
M  V30 14075 C 1237.4 -3.38639 -0.770772 0
M  V30 14076 C 1236.35 -4.27987 -0.0333669 0
M  V30 14077 C 1235.68 -5.24274 -1.05073 0
M  V30 14078 C 1236.98 -5.09915 1.13066 0
M  V30 14079 H 1238.67 -2.85019 0.916778 0
M  V30 14080 H 1236.22 -1.37039 0.442306 0
M  V30 14081 H 1238.17 -4.03587 -1.21225 0
M  V30 14082 H 1236.89 -2.8523 -1.59095 0
M  V30 14083 H 1235.55 -3.64534 0.388612 0
M  V30 14084 H 1235.2 -4.67156 -1.86478 0
M  V30 14085 H 1234.9 -5.84906 -0.562037 0
M  V30 14086 H 1236.42 -5.92099 -1.49169 0
M  V30 14087 H 1237.84 -5.68145 0.767084 0
M  V30 14088 H 1236.23 -5.79744 1.54972 0
M  V30 14089 H 1237.3 -4.4409 1.94709 0
M  V30 14090 N 1238.65 -0.49465 -1.49636 0
M  V30 14091 C 1239.87 0.051305 -2.07337 0
M  V30 14092 C 1240.3 1.30637 -1.35335 0
M  V30 14093 O 1239.66 1.76647 -0.408126 0
M  V30 14094 C 1239.7 0.294425 -3.59396 0
M  V30 14095 O 1238.81 1.3704 -3.88965 0
M  V30 14096 H 1238.15 -0.023408 -0.663587 0
M  V30 14097 H 1240.68 -0.692451 -1.92526 0
M  V30 14098 H 1240.69 0.527854 -4.04571 0
M  V30 14099 H 1239.36 -0.622583 -4.11214 0
M  V30 14100 H 1237.94 1.12242 -3.55607 0
M  V30 14101 N 1240.13 1.55939 -0.228214 0
M  V30 14102 C 1241.07 2.21957 0.69556 0
M  V30 14103 C 1242.07 1.20109 1.19458 0
M  V30 14104 O 1243.27 1.38171 1.15364 0
M  V30 14105 H 1239.65 0.711744 0.242744 0
M  V30 14106 H 1241.62 2.98177 0.115403 0
M  V30 14107 C 1240.37 2.91847 1.88999 0
M  V30 14108 H 1239.69 3.69978 1.51512 0
M  V30 14109 H 1241.13 3.4143 2.51399 0
M  V30 14110 C 1239.59 1.94683 2.74954 0
M  V30 14111 O 1240.12 1.468 3.73915 0
M  V30 14112 N 1238.33 1.62188 2.41129 0
M  V30 14113 H 1237.87 2.01322 1.60709 0
M  V30 14114 H 1237.83 0.9744 2.98919 0
M  V30 14115 N 1241.6 -0.0451101 1.57535 0
M  V30 14116 C 1242.54 -1.08327 2.00849 0
M  V30 14117 C 1243.52 -1.36083 0.889957 0
M  V30 14118 O 1244.7 -1.49009 1.15449 0
M  V30 14119 C 1241.83 -2.42171 2.36793 0
M  V30 14120 C 1240.87 -2.30378 3.58926 0
M  V30 14121 S 1241.71 -1.67244 5.08714 0
M  V30 14122 C 1242.86 -3.02611 5.47885 0
M  V30 14123 H 1243.09 -0.714274 2.88592 0
M  V30 14124 H 1240.63 -0.254561 1.52287 0
M  V30 14125 H 1242.59 -3.1915 2.58174 0
M  V30 14126 H 1241.25 -2.76224 1.49531 0
M  V30 14127 H 1240.44 -3.29146 3.81679 0
M  V30 14128 H 1240.04 -1.6154 3.37314 0
M  V30 14129 H 1242.33 -3.98941 5.47587 0
M  V30 14130 H 1243.28 -2.84609 6.48385 0
M  V30 14131 H 1243.68 -3.04445 4.75367 0
M  V30 14132 N 1243.08 -1.54377 -0.317073 0
M  V30 14133 C 1244.05 -1.83488 -1.37349 0
M  V30 14134 C 1245.05 -0.706981 -1.44424 0
M  V30 14135 O 1246.24 -0.975289 -1.44339 0
M  V30 14136 C 1243.37 -2.00074 -2.76013 0
M  V30 14137 H 1244.56 -2.77883 -1.12789 0
M  V30 14138 H 1242.11 -1.46194 -0.552902 0
M  V30 14139 H 1242.85 -1.07913 -3.05819 0
M  V30 14140 H 1242.63 -2.82155 -2.7227 0
M  V30 14141 H 1244.12 -2.24022 -3.52426 0
M  V30 14142 N 1244.56 0.579466 -1.4656 0
M  V30 14143 C 1245.97 1.1616 -1.46164 0
M  V30 14144 C 1246.32 1.95134 -0.20423 0
M  V30 14145 O 1245.45 2.05022 0.692457 0
M  V30 14146 C 1246.04 2.11322 -2.64818 0
M  V30 14147 C 1244.6 2.64852 -2.67452 0
M  V30 14148 C 1243.75 1.40786 -2.38903 0
M  V30 14149 H 1246.7 0.367229 -1.54393 0
M  V30 14150 H 1246.72 2.94839 -2.4052 0
M  V30 14151 H 1246.23 1.53815 -3.56318 0
M  V30 14152 H 1244.33 3.26219 -1.80032 0
M  V30 14153 H 1244.45 3.07366 -3.67509 0
M  V30 14154 H 1242.81 1.70707 -1.89027 0
M  V30 14155 H 1243.59 0.851049 -3.32584 0
M  V30 14156 N 1246.04 1.3432 0.824371 0
M  V30 14157 C 1247.27 1.29669 1.61226 0
M  V30 14158 C 1247.68 -0.129532 1.88355 0
M  V30 14159 O 1247.04 -1.07616 1.47394 0
M  V30 14160 C 1247.09 2.08375 2.95402 0
M  V30 14161 O 1246.81 3.45434 2.69456 0
M  V30 14162 C 1248.31 2.11103 3.89808 0
M  V30 14163 H 1245.53 0.446137 0.501201 0
M  V30 14164 H 1248.08 1.76912 1.02579 0
M  V30 14165 H 1246.23 1.64777 3.5061 0
M  V30 14166 H 1246.64 3.86101 3.55001 0
M  V30 14167 H 1248.12 2.706 4.81124 0
M  V30 14168 H 1248.6 1.10505 4.25071 0
M  V30 14169 H 1249.2 2.54784 3.40537 0
M  V30 14170 N 1247.52 -1.0444 1.18026 0
M  V30 14171 C 1248.43 -2.15862 0.918747 0
M  V30 14172 C 1249.44 -1.73614 -0.115808 0
M  V30 14173 O 1250.62 -2.01294 0.0652312 0
M  V30 14174 C 1247.68 -3.43846 0.443922 0
M  V30 14175 C 1246.74 -4.00497 1.54599 0
M  V30 14176 C 1245.98 -5.22373 1.09372 0
M  V30 14177 O 1246.2 -5.70379 -0.049085 0
M  V30 14178 O 1245.13 -5.71459 1.88992 0
M  V30 14179 H 1248.96 -2.40776 1.85097 0
M  V30 14180 H 1246.55 -1.14326 0.961769 0
M  V30 14181 H 1248.43 -4.20985 0.187017 0
M  V30 14182 H 1247.1 -3.20414 -0.460051 0
M  V30 14183 H 1246.01 -3.24764 1.85686 0
M  V30 14184 H 1247.34 -4.28262 2.42595 0
M  V30 14185 N 1248.99 -0.981699 -1.2329 0
M  V30 14186 C 1250.24 -0.651302 -1.9174 0
M  V30 14187 C 1250.57 0.815318 -1.76587 0
M  V30 14188 O 1249.82 1.60377 -1.1215 0
M  V30 14189 C 1250.12 -0.989244 -3.43437 0
M  V30 14190 C 1249.79 -2.44629 -3.78771 0
M  V30 14191 C 1248.45 -2.84449 -3.88127 0
M  V30 14192 C 1250.8 -3.39123 -3.95784 0
M  V30 14193 C 1248.13 -4.17775 -4.11923 0
M  V30 14194 C 1250.48 -4.72095 -4.21081 0
M  V30 14195 C 1249.15 -5.11672 -4.28659 0
M  V30 14196 H 1248.42 -0.238328 -0.701627 0
M  V30 14197 H 1251.06 -1.2358 -1.46288 0
M  V30 14198 H 1249.37 -0.322677 -3.90469 0
M  V30 14199 H 1251.07 -0.711796 -3.94632 0
M  V30 14200 H 1247.66 -2.12759 -3.72064 0
M  V30 14201 H 1251.84 -3.09536 -3.87945 0
M  V30 14202 H 1247.1 -4.48043 -4.16013 0
M  V30 14203 H 1251.27 -5.45271 -4.33189 0
M  V30 14204 H 1248.9 -6.15003 -4.46851 0
M  V30 14205 N 1250.47 1.3842 -0.753509 0
M  V30 14206 C 1251.7 2.04107 -0.319985 0
M  V30 14207 C 1252.11 1.56951 1.05655 0
M  V30 14208 O 1251.45 0.737807 1.68232 0
M  V30 14209 C 1251.52 3.58529 -0.26402 0
M  V30 14210 C 1251.18 4.28741 -1.58209 0
M  V30 14211 C 1252.18 4.54118 -2.53126 0
M  V30 14212 C 1249.86 4.66931 -1.8515 0
M  V30 14213 C 1251.86 5.16719 -3.73203 0
M  V30 14214 C 1249.54 5.29256 -3.05502 0
M  V30 14215 C 1250.54 5.54085 -3.99348 0
M  V30 14216 O 1250.23 6.15112 -5.17584 0
M  V30 14217 H 1249.96 0.662457 -0.134636 0
M  V30 14218 H 1252.51 1.78096 -1.02328 0
M  V30 14219 H 1250.74 3.83512 0.495516 0
M  V30 14220 H 1252.43 4.05659 0.139979 0
M  V30 14221 H 1253.2 4.25043 -2.33588 0
M  V30 14222 H 1249.08 4.46952 -1.12939 0
M  V30 14223 H 1252.62 5.36014 -4.46469 0
M  V30 14224 H 1248.52 5.57754 -3.24932 0
M  V30 14225 H 1249.29 6.33599 -5.18164 0
M  V30 14226 N 1251.95 0.502579 1.49372 0
M  V30 14227 C 1252.86 -0.279532 2.32929 0
M  V30 14228 C 1253.88 -0.965806 1.44735 0
M  V30 14229 O 1255.05 -0.946839 1.77755 0
M  V30 14230 C 1252.12 -1.32913 3.20211 0
M  V30 14231 C 1251.18 -0.656121 4.24256 0
M  V30 14232 C 1250.41 -1.65571 5.07368 0
M  V30 14233 O 1250.63 -2.88571 4.92019 0
M  V30 14234 O 1249.57 -1.21016 5.89609 0
M  V30 14235 H 1253.39 0.404427 3.00995 0
M  V30 14236 H 1250.98 0.263888 1.47051 0
M  V30 14237 H 1252.86 -1.93635 3.74277 0
M  V30 14238 H 1251.54 -1.99598 2.54837 0
M  V30 14239 H 1250.44 -0.00911489 3.74099 0
M  V30 14240 H 1251.78 -0.0316802 4.9219 0
M  V30 14241 N 1253.43 -1.55816 0.23648 0
M  V30 14242 C 1254.36 -2.16945 -0.707826 0
M  V30 14243 C 1255.34 -1.11832 -1.18036 0
M  V30 14244 O 1256.52 -1.40166 -1.26039 0
M  V30 14245 C 1253.65 -2.76175 -1.96074 0
M  V30 14246 C 1252.7 -3.9425 -1.62695 0
M  V30 14247 S 1253.53 -5.30381 -0.738663 0
M  V30 14248 C 1254.69 -5.93059 -2.00081 0
M  V30 14249 H 1254.92 -2.96703 -0.188303 0
M  V30 14250 H 1252.45 -1.54386 0.0210284 0
M  V30 14251 H 1254.41 -3.10938 -2.68007 0
M  V30 14252 H 1253.07 -1.96382 -2.45138 0
M  V30 14253 H 1252.26 -4.34247 -2.55823 0
M  V30 14254 H 1251.87 -3.6071 -0.988129 0
M  V30 14255 H 1254.16 -6.09941 -2.94921 0
M  V30 14256 H 1255.1 -6.88739 -1.64449 0
M  V30 14257 H 1255.51 -5.2203 -2.14815 0
M  V30 14258 N 1254.91 0.036755 -1.57557 0
M  V30 14259 C 1255.86 1.04744 -2.02516 0
M  V30 14260 C 1256.84 1.3248 -0.913116 0
M  V30 14261 O 1258.03 1.32194 -1.17702 0
M  V30 14262 C 1255.16 2.3509 -2.50175 0
M  V30 14263 C 1254.25 2.10478 -3.68185 0
M  V30 14264 N 1254.64 1.55899 -4.81175 0
M  V30 14265 C 1252.94 2.40797 -3.7541 0
M  V30 14266 C 1253.64 1.46913 -5.62842 0
M  V30 14267 N 1252.61 1.94202 -5.07727 0
M  V30 14268 H 1256.42 0.619342 -2.873 0
M  V30 14269 H 1253.93 0.243208 -1.60569 0
M  V30 14270 H 1255.93 3.08297 -2.8064 0
M  V30 14271 H 1254.59 2.78586 -1.66793 0
M  V30 14272 H 1255.6 1.24275 -5.02769 0
M  V30 14273 H 1252.27 2.8742 -3.02813 0
M  V30 14274 H 1253.66 1.0527 -6.63602 0
M  V30 14275 N 1256.39 1.54543 0.308881 0
M  V30 14276 C 1257.33 1.84949 1.38067 0
M  V30 14277 C 1258.3 0.697746 1.50734 0
M  V30 14278 O 1259.49 0.94561 1.65719 0
M  V30 14279 C 1256.63 2.09544 2.74199 0
M  V30 14280 C 1255.74 3.37193 2.70046 0
M  V30 14281 C 1254.88 3.51672 3.98121 0
M  V30 14282 C 1253.91 4.73143 3.88333 0
M  V30 14283 N 1253.05 4.84469 5.08167 0
M  V30 14284 H 1257.89 2.76379 1.11438 0
M  V30 14285 H 1255.43 1.36863 0.539153 0
M  V30 14286 H 1257.39 2.21798 3.53358 0
M  V30 14287 H 1256.02 1.21389 2.99106 0
M  V30 14288 H 1255.07 3.33601 1.82796 0
M  V30 14289 H 1256.38 4.26468 2.58701 0
M  V30 14290 H 1255.53 3.63548 4.85714 0
M  V30 14291 H 1254.27 2.60516 4.1229 0
M  V30 14292 H 1253.28 4.61308 2.99124 0
M  V30 14293 H 1254.5 5.65698 3.75716 0
M  V30 14294 H 1252.45 3.96234 5.22814 0
M  V30 14295 H 1252.37 5.67733 4.99215 0
M  V30 14296 H 1253.63 5.00693 5.97434 0
M  V30 14297 N 1257.86 -0.571685 1.46866 0
M  V30 14298 C 1259.11 -1.32574 1.5201 0
M  V30 14299 C 1259.43 -1.94762 0.180838 0
M  V30 14300 O 1260.63 -2.71276 0.110158 0
M  V30 14301 C 1259.09 -2.40331 2.67897 0
M  V30 14302 C 1258.7 -1.84398 4.08291 0
M  V30 14303 C 1260.44 -3.17009 2.82321 0
M  V30 14304 C 1258.35 -2.89849 5.15501 0
M  V30 14305 H 1257.28 -0.498428 0.565761 0
M  V30 14306 H 1259.93 -0.608853 1.73105 0
M  V30 14307 H 1258.31 -3.14869 2.40153 0
M  V30 14308 H 1259.48 -1.16329 4.45875 0
M  V30 14309 H 1257.8 -1.20351 3.98628 0
M  V30 14310 H 1260.4 -3.95729 3.59587 0
M  V30 14311 H 1260.74 -3.70292 1.90236 0
M  V30 14312 H 1261.27 -2.4958 3.09765 0
M  V30 14313 H 1258.01 -2.4144 6.09415 0
M  V30 14314 H 1257.53 -3.56372 4.82451 0
M  V30 14315 H 1259.21 -3.53603 5.41825 0
M  V30 14316 N 1259.34 -1.34755 -0.817236 0
M  V30 14317 C 1260.59 -1.27432 -1.57377 0
M  V30 14318 C 1260.92 0.15419 -1.93888 0
M  V30 14319 O 1260.17 1.11686 -1.60701 0
M  V30 14320 C 1260.47 -2.11611 -2.8802 0
M  V30 14321 C 1260.14 -3.60543 -2.70776 0
M  V30 14322 C 1258.8 -4.01141 -2.6578 0
M  V30 14323 C 1261.15 -4.55089 -2.54053 0
M  V30 14324 C 1258.48 -5.34469 -2.41991 0
M  V30 14325 C 1260.83 -5.88603 -2.31795 0
M  V30 14326 C 1259.49 -6.28358 -2.25215 0
M  V30 14327 H 1258.76 -0.466305 -0.575882 0
M  V30 14328 H 1261.41 -1.66552 -0.945128 0
M  V30 14329 H 1259.72 -1.65336 -3.55206 0
M  V30 14330 H 1261.41 -2.03287 -3.45652 0
M  V30 14331 H 1258 -3.2832 -2.75506 0
M  V30 14332 H 1262.19 -4.24617 -2.56932 0
M  V30 14333 H 1257.44 -5.64284 -2.35359 0
M  V30 14334 H 1261.62 -6.61451 -2.17844 0
M  V30 14335 H 1259.24 -7.31604 -2.06543 0
M  V30 14336 N 1260.82 1.03812 -1.18578 0
M  V30 14337 C 1261.75 2.11436 -0.858502 0
M  V30 14338 C 1262.73 1.61594 0.180604 0
M  V30 14339 O 1263.91 1.88408 0.058995 0
M  V30 14340 C 1261.04 3.37514 -0.283154 0
M  V30 14341 C 1260.09 4.0621 -1.29985 0
M  V30 14342 S 1260.92 4.52936 -2.85673 0
M  V30 14343 C 1262.08 5.82245 -2.29656 0
M  V30 14344 H 1262.31 2.38871 -1.76997 0
M  V30 14345 H 1259.84 1.16617 -1.01192 0
M  V30 14346 H 1261.8 4.10478 0.0422898 0
M  V30 14347 H 1260.46 3.08189 0.60647 0
M  V30 14348 H 1259.65 4.96845 -0.84621 0
M  V30 14349 H 1259.26 3.39374 -1.57166 0
M  V30 14350 H 1261.55 6.56321 -1.68074 0
M  V30 14351 H 1262.49 6.32375 -3.18602 0
M  V30 14352 H 1262.9 5.37472 -1.72581 0
M  V30 14353 N 1262.3 0.988223 1.22768 0
M  V30 14354 C 1263.57 0.577578 1.86878 0
M  V30 14355 C 1263.95 -0.945197 1.88757 0
M  V30 14356 O 1263.3 -1.82519 1.37474 0
M  V30 14357 C 1263.51 1.19263 3.2799 0
M  V30 14358 C 1264.86 1.29024 4.04522 0
M  V30 14359 O 1265.88 1.14667 3.37239 0
M  V30 14360 O 1264.74 1.51949 5.24951 0
M  V30 14361 H 1261.84 0.195579 0.803541 0
M  V30 14362 H 1264.38 1.0838 1.30582 0
M  V30 14363 H 1263.16 2.23442 3.21231 0
M  V30 14364 H 1262.78 0.671706 3.91885 0
M  V30 14365 N 1263.78 -1.38018 0.760839 0
M  V30 14366 C 1264.72 -2.30387 0.13796 0
M  V30 14367 C 1265.69 -1.50548 -0.701754 0
M  V30 14368 O 1266.88 -1.79154 -0.656381 0
M  V30 14369 C 1264.02 -3.36993 -0.743642 0
M  V30 14370 C 1263.13 -4.31856 0.111489 0
M  V30 14371 C 1262.27 -5.25534 -0.773796 0
M  V30 14372 C 1261.3 -6.12042 0.0845311 0
M  V30 14373 N 1260.44 -6.97995 -0.758118 0
M  V30 14374 H 1265.28 -2.83077 0.931212 0
M  V30 14375 H 1262.82 -1.39361 0.470833 0
M  V30 14376 H 1264.78 -3.97417 -1.26948 0
M  V30 14377 H 1263.41 -2.85695 -1.50261 0
M  V30 14378 H 1262.46 -3.72832 0.755031 0
M  V30 14379 H 1263.77 -4.92758 0.774042 0
M  V30 14380 H 1262.92 -5.9111 -1.36653 0
M  V30 14381 H 1261.66 -4.65017 -1.47006 0
M  V30 14382 H 1260.67 -5.45455 0.689883 0
M  V30 14383 H 1261.89 -6.74629 0.777966 0
M  V30 14384 H 1259.84 -6.40018 -1.4392 0
M  V30 14385 H 1259.76 -7.55846 -0.152623 0
M  V30 14386 H 1261.02 -7.67973 -1.33559 0
M  V30 14387 N 1265.25 -0.510493 -1.49103 0
M  V30 14388 C 1266.48 0.0293113 -2.07379 0
M  V30 14389 C 1266.9 1.29195 -1.36713 0
M  V30 14390 O 1266.26 1.76204 -0.426838 0
M  V30 14391 C 1266.31 0.25629 -3.59688 0
M  V30 14392 O 1265.41 1.32907 -3.90397 0
M  V30 14393 H 1264.75 -0.0304449 -0.663302 0
M  V30 14394 H 1267.28 -0.712832 -1.91781 0
M  V30 14395 H 1267.29 0.484915 -4.05108 0
M  V30 14396 H 1265.97 -0.666163 -4.1053 0
M  V30 14397 H 1264.55 1.08464 -3.56777 0
M  V30 14398 N 1266.73 1.55688 -0.24474 0
M  V30 14399 C 1267.98 1.99186 0.381167 0
M  V30 14400 C 1268.31 1.13266 1.57748 0
M  V30 14401 O 1267.59 0.195568 1.93514 0
M  V30 14402 C 1267.87 3.51257 0.793142 0
M  V30 14403 C 1267.72 4.47942 -0.408409 0
M  V30 14404 C 1269.04 4.08365 1.64091 0
M  V30 14405 H 1266.16 0.724141 0.137073 0
M  V30 14406 H 1268.8 1.8683 -0.345619 0
M  V30 14407 H 1266.95 3.61917 1.4124 0
M  V30 14408 H 1268.62 4.49265 -1.04682 0
M  V30 14409 H 1266.87 4.20854 -1.05189 0
M  V30 14410 H 1267.54 5.51946 -0.0768531 0
M  V30 14411 H 1270.01 4.00794 1.1182 0
M  V30 14412 H 1268.89 5.1504 1.89802 0
M  V30 14413 H 1269.15 3.56687 2.61202 0
M  V30 14414 N 1268.21 -0.0283989 1.57574 0
M  V30 14415 C 1269.44 -0.729772 1.93282 0
M  V30 14416 C 1269.85 -1.69384 0.842959 0
M  V30 14417 O 1269.19 -1.82722 -0.189286 0
M  V30 14418 C 1269.25 -1.54107 3.24794 0
M  V30 14419 C 1268.92 -0.741709 4.50941 0
M  V30 14420 C 1269.91 -0.0416985 5.19883 0
M  V30 14421 C 1267.6 -0.696053 4.97454 0
M  V30 14422 C 1269.59 0.693261 6.33619 0
M  V30 14423 C 1267.28 0.042651 6.11085 0
M  V30 14424 C 1268.28 0.736067 6.79022 0
M  V30 14425 O 1267.97 1.46278 7.9048 0
M  V30 14426 H 1267.7 -0.210092 0.642524 0
M  V30 14427 H 1270.25 0.0102277 2.05397 0
M  V30 14428 H 1268.48 -2.3249 3.09007 0
M  V30 14429 H 1270.17 -2.12512 3.45823 0
M  V30 14430 H 1270.94 -0.0679975 4.84952 0
M  V30 14431 H 1266.82 -1.22528 4.44419 0
M  V30 14432 H 1270.36 1.23504 6.8658 0
M  V30 14433 H 1266.26 0.0708708 6.45461 0
M  V30 14434 H 1267.02 1.37652 8.06842 0
M  V30 14435 N 1269.69 -1.54705 -0.300681 0
M  V30 14436 C 1270.94 -1.73658 -1.0338 0
M  V30 14437 C 1271.26 -0.525447 -1.87787 0
M  V30 14438 O 1270.53 0.460269 -1.90416 0
M  V30 14439 H 1269.11 -0.640338 -0.384677 0
M  V30 14440 H 1271.77 -1.92059 -0.331588 0
M  V30 14441 H 1270.86 -2.62595 -1.68672 0
M  V30 14442 N 1271.17 0.563888 -1.47167 0
M  V30 14443 C 1272.11 1.67151 -1.59152 0
M  V30 14444 C 1273.08 1.60307 -0.434852 0
M  V30 14445 O 1274.27 1.7924 -0.654049 0
M  V30 14446 C 1271.41 3.0548 -1.60549 0
M  V30 14447 C 1270.52 3.2281 -2.87085 0
M  V30 14448 C 1269.66 4.51498 -2.79862 0
M  V30 14449 C 1268.7 4.62237 -4.01252 0
M  V30 14450 N 1267.83 5.82273 -3.92305 0
M  V30 14451 H 1272.67 1.56245 -2.53755 0
M  V30 14452 H 1270.21 0.761219 -1.25872 0
M  V30 14453 H 1272.17 3.85572 -1.59343 0
M  V30 14454 H 1270.8 3.15237 -0.69464 0
M  V30 14455 H 1269.85 2.36196 -2.98188 0
M  V30 14456 H 1271.16 3.2661 -3.76997 0
M  V30 14457 H 1270.32 5.39842 -2.76867 0
M  V30 14458 H 1269.05 4.50166 -1.87621 0
M  V30 14459 H 1268.06 3.72307 -4.04558 0
M  V30 14460 H 1269.28 4.65334 -4.94612 0
M  V30 14461 H 1267.23 5.81902 -3.02862 0
M  V30 14462 H 1267.15 5.87422 -4.7589 0
M  V30 14463 H 1268.42 6.72996 -3.93315 0
M  V30 14464 N 1272.64 1.35187 0.810078 0
M  V30 14465 C 1273.55 1.29926 1.95337 0
M  V30 14466 C 1274.57 0.204748 1.72791 0
M  V30 14467 O 1275.75 0.433507 1.96679 0
M  V30 14468 C 1272.81 1.06736 3.29861 0
M  V30 14469 C 1271.87 2.25466 3.65326 0
M  V30 14470 C 1271.11 2.03373 4.93432 0
M  V30 14471 O 1271.33 0.998419 5.61594 0
M  V30 14472 O 1270.26 2.90648 5.27075 0
M  V30 14473 H 1274.09 2.26137 2.02721 0
M  V30 14474 H 1271.67 1.15523 0.947354 0
M  V30 14475 H 1273.56 0.956367 4.10404 0
M  V30 14476 H 1272.23 0.135735 3.23415 0
M  V30 14477 H 1271.14 2.42129 2.85175 0
M  V30 14478 H 1272.47 3.17063 3.76473 0
M  V30 14479 N 1274.12 -1.03182 1.19127 0
M  V30 14480 C 1275.07 -2.11394 0.926339 0
M  V30 14481 C 1276.04 -1.65528 -0.137703 0
M  V30 14482 O 1277.22 -1.908 0.00381804 0
M  V30 14483 C 1274.36 -3.41913 0.467894 0
M  V30 14484 C 1273.48 -4.01343 1.59837 0
M  V30 14485 C 1272.61 -5.1986 1.09175 0
M  V30 14486 C 1271.65 -5.71339 2.19632 0
M  V30 14487 N 1270.79 -6.81133 1.703 0
M  V30 14488 H 1275.63 -2.33393 1.85288 0
M  V30 14489 H 1273.17 -1.14473 0.923811 0
M  V30 14490 H 1275.12 -4.16796 0.183513 0
M  V30 14491 H 1273.75 -3.20034 -0.421656 0
M  V30 14492 H 1272.81 -3.23702 1.99803 0
M  V30 14493 H 1274.12 -4.35568 2.43068 0
M  V30 14494 H 1273.27 -6.0189 0.762427 0
M  V30 14495 H 1272.01 -4.87161 0.22914 0
M  V30 14496 H 1271.02 -4.87923 2.53399 0
M  V30 14497 H 1272.24 -6.06078 3.06344 0
M  V30 14498 H 1270.19 -6.50293 0.863415 0
M  V30 14499 H 1270.1 -7.1447 2.47122 0
M  V30 14500 H 1271.37 -7.66766 1.40321 0
M  V30 14501 N 1275.6 -0.99472 -1.22242 0
M  V30 14502 C 1276.83 -0.689809 -1.95592 0
M  V30 14503 C 1277.25 0.739321 -1.72961 0
M  V30 14504 O 1276.61 1.50563 -1.00997 0
M  V30 14505 C 1276.66 -1.00367 -3.46351 0
M  V30 14506 O 1275.76 -0.103326 -4.12271 0
M  V30 14507 H 1275.1 -0.257997 -0.611828 0
M  V30 14508 H 1277.63 -1.33219 -1.55286 0
M  V30 14509 H 1277.64 -0.946259 -3.96875 0
M  V30 14510 H 1276.32 -2.04504 -3.62148 0
M  V30 14511 H 1274.89 -0.216374 -3.72272 0
M  V30 14512 N 1277.08 1.37613 -0.768148 0
M  V30 14513 C 1278.01 2.28935 -0.110234 0
M  V30 14514 C 1279.02 1.48459 0.668122 0
M  V30 14515 O 1280.21 1.71154 0.506808 0
M  V30 14516 C 1277.31 3.27606 0.867598 0
M  V30 14517 C 1276.49 4.37163 0.143819 0
M  V30 14518 C 1275.54 5.15931 1.03449 0
M  V30 14519 O 1274.57 5.67003 0.499605 0
M  V30 14520 N 1275.77 5.30311 2.36114 0
M  V30 14521 H 1278.54 2.86037 -0.894585 0
M  V30 14522 H 1276.1 1.4955 -0.620185 0
M  V30 14523 H 1278.09 3.77183 1.4668 0
M  V30 14524 H 1276.66 2.71298 1.55294 0
M  V30 14525 H 1275.88 3.89031 -0.636257 0
M  V30 14526 H 1277.17 5.0755 -0.356446 0
M  V30 14527 H 1276.57 4.90394 2.82011 0
M  V30 14528 H 1275.12 5.83209 2.9105 0
M  V30 14529 N 1278.56 0.518393 1.4883 0
M  V30 14530 C 1279.5 -0.264197 2.31095 0
M  V30 14531 C 1280.5 -0.946455 1.40494 0
M  V30 14532 O 1281.7 -0.872161 1.57459 0
M  V30 14533 H 1278.08 -0.104065 0.744765 0
M  V30 14534 H 1280.05 0.449375 2.94997 0
M  V30 14535 C 1278.8 -1.30527 3.2227 0
M  V30 14536 H 1278.12 -0.789695 3.91923 0
M  V30 14537 H 1279.56 -1.82449 3.82738 0
M  V30 14538 C 1278.02 -2.33274 2.43073 0
M  V30 14539 O 1278.55 -3.39493 2.14726 0
M  V30 14540 N 1276.76 -2.06189 2.04779 0
M  V30 14541 H 1276.3 -1.19829 2.28033 0
M  V30 14542 H 1276.26 -2.7516 1.521 0
M  V30 14543 N 1280.03 -1.55556 0.252993 0
M  V30 14544 C 1281.26 -2.03196 -0.37348 0
M  V30 14545 C 1281.67 -1.13145 -1.51641 0
M  V30 14546 O 1281.02 -0.139519 -1.83169 0
M  V30 14547 C 1281.08 -3.47066 -0.937308 0
M  V30 14548 C 1280.74 -4.5694 0.0741513 0
M  V30 14549 C 1281.74 -5.12297 0.885862 0
M  V30 14550 C 1279.42 -5.01894 0.202003 0
M  V30 14551 C 1281.42 -6.11107 1.81182 0
M  V30 14552 C 1279.1 -6.00534 1.13146 0
M  V30 14553 C 1280.1 -6.5502 1.93489 0
M  V30 14554 O 1279.79 -7.51735 2.84868 0
M  V30 14555 H 1279.52 -0.669687 -0.092171 0
M  V30 14556 H 1282.08 -2.01924 0.376264 0
M  V30 14557 H 1280.31 -3.45507 -1.73672 0
M  V30 14558 H 1282 -3.78171 -1.47451 0
M  V30 14559 H 1282.76 -4.78395 0.797707 0
M  V30 14560 H 1278.64 -4.59144 -0.413301 0
M  V30 14561 H 1282.18 -6.53561 2.43935 0
M  V30 14562 H 1278.08 -6.33856 1.22052 0
M  V30 14563 H 1278.85 -7.69373 2.79298 0
M  V30 14564 N 1281.51 0.0200419 -1.57587 0
M  V30 14565 C 1282.76 0.709027 -1.89681 0
M  V30 14566 C 1283.09 1.74876 -0.851396 0
M  V30 14567 O 1282.34 1.95151 0.146483 0
M  V30 14568 C 1282.64 1.40729 -3.28527 0
M  V30 14569 C 1282.31 0.502686 -4.48089 0
M  V30 14570 C 1280.97 0.253558 -4.80532 0
M  V30 14571 C 1283.32 -0.121338 -5.21059 0
M  V30 14572 C 1280.65 -0.628221 -5.83327 0
M  V30 14573 C 1283 -0.990873 -6.24792 0
M  V30 14574 C 1281.67 -1.24937 -6.55703 0
M  V30 14575 H 1280.94 0.259451 -0.694094 0
M  V30 14576 H 1283.58 -0.03118 -1.91475 0
M  V30 14577 H 1281.89 2.22105 -3.22764 0
M  V30 14578 H 1283.58 1.94609 -3.50611 0
M  V30 14579 H 1280.17 0.707018 -4.22728 0
M  V30 14580 H 1284.36 0.0581516 -4.96266 0
M  V30 14581 H 1279.61 -0.836712 -6.05648 0
M  V30 14582 H 1283.79 -1.48087 -6.80473 0
M  V30 14583 H 1281.42 -1.93436 -7.35178 0
M  V30 14584 N 1282.99 1.54862 0.292472 0
M  V30 14585 C 1283.92 1.89406 1.36556 0
M  V30 14586 C 1284.9 0.753838 1.52484 0
M  V30 14587 O 1286.09 1.01031 1.6585 0
M  V30 14588 C 1283.22 2.14888 2.72838 0
M  V30 14589 C 1282.17 3.3073 2.71665 0
M  V30 14590 C 1281.5 3.41648 4.11316 0
M  V30 14591 C 1282.8 4.67622 2.32651 0
M  V30 14592 H 1284.49 2.79284 1.07894 0
M  V30 14593 H 1282.04 1.34377 0.517585 0
M  V30 14594 H 1283.99 2.3764 3.48002 0
M  V30 14595 H 1282.71 1.2179 3.03042 0
M  V30 14596 H 1281.37 3.07915 1.98958 0
M  V30 14597 H 1281.02 2.46051 4.38711 0
M  V30 14598 H 1280.72 4.19522 4.11431 0
M  V30 14599 H 1282.24 3.6667 4.88248 0
M  V30 14600 H 1283.66 4.90048 2.97533 0
M  V30 14601 H 1282.06 5.48272 2.43963 0
M  V30 14602 H 1283.13 4.67762 1.27777 0
M  V30 14603 N 1284.47 -0.556076 1.47464 0
M  V30 14604 C 1285.42 -1.66304 1.60036 0
M  V30 14605 C 1286.39 -1.60074 0.443348 0
M  V30 14606 O 1287.57 -1.7889 0.663545 0
M  V30 14607 C 1284.71 -3.04624 1.62167 0
M  V30 14608 C 1283.82 -3.21283 2.88793 0
M  V30 14609 C 1282.96 -4.50008 2.82252 0
M  V30 14610 C 1282 -4.60103 4.03698 0
M  V30 14611 N 1281.13 -5.80184 3.95387 0
M  V30 14612 H 1285.97 -1.54897 2.5458 0
M  V30 14613 H 1283.51 -0.754533 1.26274 0
M  V30 14614 H 1285.47 -3.84721 1.61386 0
M  V30 14615 H 1284.1 -3.14865 0.711348 0
M  V30 14616 H 1283.15 -2.34611 2.99436 0
M  V30 14617 H 1284.46 -3.24607 3.78724 0
M  V30 14618 H 1283.62 -5.38366 2.79726 0
M  V30 14619 H 1282.36 -4.49165 1.90005 0
M  V30 14620 H 1281.36 -3.70157 4.06527 0
M  V30 14621 H 1282.59 -4.62704 4.97073 0
M  V30 14622 H 1280.53 -5.80288 3.05944 0
M  V30 14623 H 1280.45 -5.8489 4.78998 0
M  V30 14624 H 1281.72 -6.709 3.96879 0
M  V30 14625 N 1285.95 -1.35615 -0.802897 0
M  V30 14626 C 1286.9 -1.28877 -1.93632 0
M  V30 14627 C 1287.89 -0.183014 -1.68408 0
M  V30 14628 O 1289.1 -0.349218 -1.7658 0
M  V30 14629 H 1285.47 -0.400883 -0.636236 0
M  V30 14630 H 1287.44 -2.24624 -1.96435 0
M  V30 14631 C 1286.19 -1.08136 -3.30457 0
M  V30 14632 H 1285.51 -1.92463 -3.50426 0
M  V30 14633 H 1286.95 -1.07464 -4.10155 0
M  V30 14634 C 1285.41 0.214635 -3.36216 0
M  V30 14635 O 1285.94 1.20916 -3.8307 0
M  V30 14636 N 1284.15 0.25468 -2.89482 0
M  V30 14637 H 1283.7 -0.555239 -2.51545 0
M  V30 14638 H 1283.65 1.12152 -2.93716 0
M  V30 14639 N 1287.43 1.02549 -1.19673 0
M  V30 14640 C 1288.67 1.75408 -0.995732 0
M  V30 14641 C 1288.99 1.89773 0.473863 0
M  V30 14642 O 1290.19 2.59638 0.793762 0
M  V30 14643 C 1288.65 3.15444 -1.73273 0
M  V30 14644 C 1288.26 3.09121 -3.24266 0
M  V30 14645 C 1290 3.92575 -1.61509 0
M  V30 14646 C 1287.91 4.44109 -3.9054 0
M  V30 14647 H 1286.84 0.657569 -0.368944 0
M  V30 14648 H 1289.49 1.14739 -1.43203 0
M  V30 14649 H 1287.87 3.76601 -1.22425 0
M  V30 14650 H 1289.05 2.57325 -3.82257 0
M  V30 14651 H 1287.36 2.45485 -3.36342 0
M  V30 14652 H 1289.96 4.92428 -2.08372 0
M  V30 14653 H 1290.3 4.12382 -0.569804 0
M  V30 14654 H 1290.83 3.38027 -2.09721 0
M  V30 14655 H 1287.57 4.29506 -4.95182 0
M  V30 14656 H 1287.09 4.95947 -3.37337 0
M  V30 14657 H 1288.77 5.12982 -3.94282 0
M  V30 14658 N 1288.9 1.00119 1.21713 0
M  V30 14659 C 1290.32 0.713343 1.42771 0
M  V30 14660 C 1290.52 -0.712923 1.88467 0
M  V30 14661 O 1289.58 -1.48277 2.04378 0
M  V30 14662 C 1290.89 1.72596 2.46234 0
M  V30 14663 C 1292.44 1.74235 2.60022 0
M  V30 14664 C 1292.91 2.74382 3.66713 0
M  V30 14665 N 1294.4 2.73027 3.7418 0
M  V30 14666 C 1295.14 3.47178 4.56349 0
M  V30 14667 N 1294.63 4.30958 5.42446 0
M  V30 14668 N 1296.43 3.35846 4.50737 0
M  V30 14669 H 1288.58 1.9222 0.903611 0
M  V30 14670 H 1290.84 0.829466 0.459011 0
M  V30 14671 H 1290.55 2.74699 2.19621 0
M  V30 14672 H 1290.42 1.52553 3.44975 0
M  V30 14673 H 1292.81 0.728261 2.85973 0
M  V30 14674 H 1292.89 1.98349 1.61528 0
M  V30 14675 H 1292.53 3.75945 3.41508 0
M  V30 14676 H 1292.46 2.47534 4.64795 0
M  V30 14677 H 1294.95 2.12242 3.12669 0
M  V30 14678 H 1295.27 4.84344 6.02189 0
M  V30 14679 H 1293.61 4.35042 5.42 0
M  V30 14680 H 1296.8 2.6983 3.82504 0
M  V30 14681 H 1296.98 3.93892 5.14541 0
M  V30 14682 N 1290.38 -1.37203 0.775435 0
M  V30 14683 C 1291.33 -2.30228 0.162388 0
M  V30 14684 C 1292.3 -1.51284 -0.685747 0
M  V30 14685 O 1293.48 -1.7984 -0.637342 0
M  V30 14686 C 1290.62 -3.37762 -0.707858 0
M  V30 14687 C 1289.74 -4.31714 0.157287 0
M  V30 14688 C 1288.87 -5.26325 -0.718012 0
M  V30 14689 C 1287.91 -6.11918 0.149442 0
M  V30 14690 N 1287.05 -6.9876 -0.684043 0
M  V30 14691 H 1291.89 -2.82073 0.961184 0
M  V30 14692 H 1289.42 -1.38854 0.485587 0
M  V30 14693 H 1291.38 -3.98741 -1.22726 0
M  V30 14694 H 1290.01 -2.87273 -1.47222 0
M  V30 14695 H 1289.06 -3.7201 0.794533 0
M  V30 14696 H 1290.38 -4.91909 0.826262 0
M  V30 14697 H 1289.53 -5.92526 -1.30376 0
M  V30 14698 H 1288.27 -4.6655 -1.42066 0
M  V30 14699 H 1287.27 -5.44692 0.747697 0
M  V30 14700 H 1288.5 -6.73766 0.849476 0
M  V30 14701 H 1286.45 -6.41508 -1.37124 0
M  V30 14702 H 1286.36 -7.55965 -0.0724464 0
M  V30 14703 H 1287.63 -7.69346 -1.25407 0
M  V30 14704 N 1291.86 -0.526279 -1.48553 0
M  V30 14705 C 1293.09 0.00522012 -2.06599 0
M  V30 14706 C 1293.5 1.29039 -1.38368 0
M  V30 14707 O 1292.84 1.77747 -0.463854 0
M  V30 14708 C 1292.9 0.303512 -3.58216 0
M  V30 14709 C 1292.57 -0.887635 -4.48297 0
M  V30 14710 C 1293.56 -1.78504 -4.88295 0
M  V30 14711 C 1291.25 -1.09359 -4.90251 0
M  V30 14712 C 1293.24 -2.87233 -5.69013 0
M  V30 14713 C 1290.93 -2.18402 -5.7074 0
M  V30 14714 C 1291.93 -3.07172 -6.10028 0
M  V30 14715 O 1291.62 -4.14329 -6.88902 0
M  V30 14716 H 1291.35 -0.0287033 -0.67539 0
M  V30 14717 H 1293.9 -0.730244 -1.91981 0
M  V30 14718 H 1292.13 1.0929 -3.70935 0
M  V30 14719 H 1293.82 0.776647 -3.98401 0
M  V30 14720 H 1294.59 -1.63785 -4.56508 0
M  V30 14721 H 1290.47 -0.411922 -4.59156 0
M  V30 14722 H 1294.01 -3.56549 -5.99599 0
M  V30 14723 H 1289.91 -2.33106 -6.0194 0
M  V30 14724 H 1290.67 -4.11993 -7.07251 0
M  V30 14725 N 1293.34 1.5542 -0.261239 0
M  V30 14726 C 1294.75 1.59327 0.0932655 0
M  V30 14727 C 1294.95 1.27846 1.55748 0
M  V30 14728 O 1294.01 1.03265 2.30418 0
M  V30 14729 C 1295.32 2.99496 -0.268856 0
M  V30 14730 C 1296.87 3.12265 -0.21433 0
M  V30 14731 C 1297.35 4.54677 -0.55069 0
M  V30 14732 N 1298.84 4.60475 -0.501723 0
M  V30 14733 C 1299.57 5.6867 -0.734961 0
M  V30 14734 N 1299.07 6.85069 -1.03209 0
M  V30 14735 N 1300.86 5.58156 -0.664696 0
M  V30 14736 H 1293.01 1.7415 -1.21595 0
M  V30 14737 H 1295.27 0.811382 -0.490268 0
M  V30 14738 H 1294.98 3.2732 -1.28664 0
M  V30 14739 H 1294.85 3.75104 0.397097 0
M  V30 14740 H 1297.24 2.84213 0.794148 0
M  V30 14741 H 1297.32 2.389 -0.914342 0
M  V30 14742 H 1296.97 4.83453 -1.55679 0
M  V30 14743 H 1296.9 5.26322 0.170959 0
M  V30 14744 H 1299.39 3.76851 -0.281387 0
M  V30 14745 H 1299.7 7.63472 -1.19709 0
M  V30 14746 H 1298.05 6.86718 -1.06971 0
M  V30 14747 H 1301.24 4.66098 -0.432513 0
M  V30 14748 H 1301.41 6.42403 -0.849857 0
M  V30 14749 N 1294.82 -0.0116844 1.57596 0
M  V30 14750 C 1296.06 -0.698958 1.90055 0
M  V30 14751 C 1296.39 -1.74422 0.860659 0
M  V30 14752 O 1295.65 -1.95226 -0.136132 0
M  V30 14753 C 1295.94 -1.38985 3.29269 0
M  V30 14754 C 1295.61 -0.478916 4.48349 0
M  V30 14755 C 1294.27 -0.228071 4.80659 0
M  V30 14756 C 1296.62 0.14897 5.20987 0
M  V30 14757 C 1293.95 0.659147 5.82986 0
M  V30 14758 C 1296.3 1.02399 6.24257 0
M  V30 14759 C 1294.97 1.28413 6.55032 0
M  V30 14760 H 1294.24 -0.255767 0.69546 0
M  V30 14761 H 1296.89 0.0413339 1.91455 0
M  V30 14762 H 1295.19 -2.2039 3.23937 0
M  V30 14763 H 1296.89 -1.92747 3.51638 0
M  V30 14764 H 1293.48 -0.68459 4.23097 0
M  V30 14765 H 1297.66 -0.0318326 4.9629 0
M  V30 14766 H 1292.92 0.86882 6.05195 0
M  V30 14767 H 1297.09 1.51694 6.79678 0
M  V30 14768 H 1294.72 1.97332 7.34142 0
M  V30 14769 N 1296.29 -1.55015 -0.284256 0
M  V30 14770 C 1297.23 -1.83517 -1.3731 0
M  V30 14771 C 1298.24 -0.719009 -1.46062 0
M  V30 14772 O 1299.43 -0.996719 -1.4808 0
M  V30 14773 C 1296.53 -1.97309 -2.7554 0
M  V30 14774 C 1295.7 -3.2787 -2.89517 0
M  V30 14775 C 1294.76 -3.31868 -4.08351 0
M  V30 14776 O 1293.79 -4.05309 -3.99642 0
M  V30 14777 N 1294.99 -2.5846 -5.19787 0
M  V30 14778 H 1297.75 -2.77495 -1.1321 0
M  V30 14779 H 1295.31 -1.54795 -0.474359 0
M  V30 14780 H 1297.31 -1.97367 -3.53311 0
M  V30 14781 H 1295.88 -1.10249 -2.92513 0
M  V30 14782 H 1295.1 -3.40445 -1.98722 0
M  V30 14783 H 1296.38 -4.13996 -2.95779 0
M  V30 14784 H 1295.78 -1.98455 -5.29747 0
M  V30 14785 H 1294.34 -2.64253 -5.9583 0
M  V30 14786 N 1297.77 0.548248 -1.47757 0
M  V30 14787 C 1299.02 1.30501 -1.54841 0
M  V30 14788 C 1299.35 1.93314 -0.214476 0
M  V30 14789 O 1298.6 1.7889 0.793526 0
M  V30 14790 C 1298.9 2.42911 -2.62162 0
M  V30 14791 C 1298.57 1.97871 -4.05164 0
M  V30 14792 C 1297.23 1.85304 -4.4409 0
M  V30 14793 C 1299.58 1.63606 -4.94856 0
M  V30 14794 C 1296.91 1.36781 -5.70533 0
M  V30 14795 C 1299.26 1.16552 -6.2177 0
M  V30 14796 C 1297.92 1.02588 -6.5957 0
M  V30 14797 H 1297.19 0.477536 -0.566604 0
M  V30 14798 H 1299.84 0.613837 -1.81395 0
M  V30 14799 H 1298.15 3.17622 -2.29398 0
M  V30 14800 H 1299.84 3.01078 -2.64864 0
M  V30 14801 H 1296.43 2.08597 -3.74413 0
M  V30 14802 H 1300.62 1.72184 -4.65474 0
M  V30 14803 H 1295.87 1.24641 -5.9856 0
M  V30 14804 H 1300.05 0.891041 -6.90676 0
M  V30 14805 H 1297.67 0.647675 -7.57436 0
M  V30 14806 N 1299.25 1.36039 0.795694 0
M  V30 14807 C 1300.47 1.33222 1.58955 0
M  V30 14808 C 1300.9 -0.0854596 1.87906 0
M  V30 14809 O 1300.26 -1.05555 1.47403 0
M  V30 14810 C 1300.31 2.15508 2.89117 0
M  V30 14811 O 1299.41 1.54327 3.82436 0
M  V30 14812 H 1298.75 0.456264 0.48241 0
M  V30 14813 H 1301.28 1.79234 0.986726 0
M  V30 14814 H 1301.29 2.2786 3.38444 0
M  V30 14815 H 1299.97 3.18568 2.67371 0
M  V30 14816 H 1298.54 1.50879 3.41013 0
M  V30 14817 N 1300.73 -1.01913 1.20215 0
M  V30 14818 C 1302.14 -1.27766 0.956459 0
M  V30 14819 C 1302.34 -1.98158 -0.365486 0
M  V30 14820 O 1301.4 -2.27539 -1.09463 0
M  V30 14821 C 1302.71 -2.11516 2.13732 0
M  V30 14822 C 1304.26 -2.24792 2.17802 0
M  V30 14823 C 1304.74 -3.11919 3.35367 0
M  V30 14824 N 1306.23 -3.19507 3.35364 0
M  V30 14825 C 1306.96 -3.8714 4.22978 0
M  V30 14826 N 1306.46 -4.5692 5.20765 0
M  V30 14827 N 1308.25 -3.83638 4.10827 0
M  V30 14828 H 1300.4 -0.546426 2.05251 0
M  V30 14829 H 1302.67 -0.303772 0.898012 0
M  V30 14830 H 1302.37 -1.67127 3.09453 0
M  V30 14831 H 1302.25 -3.12249 2.11614 0
M  V30 14832 H 1304.63 -2.68407 1.22645 0
M  V30 14833 H 1304.71 -1.23576 2.2397 0
M  V30 14834 H 1304.36 -2.6901 4.30809 0
M  V30 14835 H 1304.29 -4.13215 3.26436 0
M  V30 14836 H 1306.78 -2.69819 2.64587 0
M  V30 14837 H 1307.09 -5.06188 5.83947 0
M  V30 14838 H 1305.44 -4.55753 5.24704 0
M  V30 14839 H 1308.63 -3.28268 3.33703 0
M  V30 14840 H 1308.8 -4.36071 4.79318 0
M  V30 14841 N 1302.21 -1.00763 -1.2118 0
M  V30 14842 C 1303.45 -0.690459 -1.8994 0
M  V30 14843 C 1303.78 0.781464 -1.78656 0
M  V30 14844 O 1303.05 1.56135 -1.18316 0
M  V30 14845 H 1301.63 -0.252397 -0.703068 0
M  V30 14846 H 1304.29 -1.2773 -1.47211 0
M  V30 14847 H 1303.38 -0.96594 -2.96776 0
M  V30 14848 N 1303.68 1.3679 -0.7827 0
M  V30 14849 C 1304.91 2.04206 -0.362571 0
M  V30 14850 C 1305.33 1.58637 1.01074 0
M  V30 14851 O 1304.69 0.751692 1.64983 0
M  V30 14852 C 1304.74 3.58062 -0.4271 0
M  V30 14853 O 1303.84 4.08463 0.56845 0
M  V30 14854 H 1303.19 0.645638 -0.155073 0
M  V30 14855 H 1305.72 1.74883 -1.06194 0
M  V30 14856 H 1305.73 4.0698 -0.288298 0
M  V30 14857 H 1304.4 3.90582 -1.42893 0
M  V30 14858 H 1302.98 3.70835 0.391863 0
M  V30 14859 N 1305.16 0.53415 1.48272 0
M  V30 14860 C 1306.41 0.00157259 2.025 0
M  V30 14861 C 1306.74 -1.33886 1.41085 0
M  V30 14862 O 1305.99 -1.87884 0.547544 0
M  V30 14863 C 1306.29 -0.165144 3.57018 0
M  V30 14864 C 1305.96 1.10146 4.3724 0
M  V30 14865 C 1304.62 1.44857 4.58879 0
M  V30 14866 C 1306.97 1.94183 4.83676 0
M  V30 14867 C 1304.3 2.63497 5.24201 0
M  V30 14868 C 1306.65 3.12005 5.50305 0
M  V30 14869 C 1305.32 3.47058 5.70182 0
M  V30 14870 H 1304.59 0.00057545 0.741 0
M  V30 14871 H 1307.23 0.701014 1.78208 0
M  V30 14872 H 1305.54 -0.947384 3.80173 0
M  V30 14873 H 1307.23 -0.592202 3.96603 0
M  V30 14874 H 1303.82 0.821132 4.20661 0
M  V30 14875 H 1308.01 1.68677 4.66757 0
M  V30 14876 H 1303.26 2.90852 5.37787 0
M  V30 14877 H 1307.44 3.77426 5.85254 0
M  V30 14878 H 1305.07 4.39086 6.2057 0
M  V30 14879 N 1306.64 -1.55279 0.269478 0
M  V30 14880 C 1307.87 -2.04334 -0.355313 0
M  V30 14881 C 1308.29 -1.14677 -1.491 0
M  V30 14882 O 1307.65 -0.144215 -1.80726 0
M  V30 14883 C 1307.7 -3.51172 -0.819162 0
M  V30 14884 O 1306.8 -3.64615 -1.9269 0
M  V30 14885 H 1306.14 -0.659827 -0.0743229 0
M  V30 14886 H 1308.67 -2.00609 0.402131 0
M  V30 14887 H 1308.68 -3.92428 -1.11642 0
M  V30 14888 H 1307.36 -4.15898 0.0117821 0
M  V30 14889 H 1305.93 -3.35261 -1.63261 0
M  V30 14890 N 1308.12 0.00332656 -1.576 0
M  V30 14891 C 1309.53 0.359361 -1.55502 0
M  V30 14892 C 1309.73 1.74997 -0.998914 0
M  V30 14893 O 1308.79 2.44482 -0.631263 0
M  V30 14894 C 1310.1 0.237638 -2.9976 0
M  V30 14895 C 1311.65 0.312824 -3.11433 0
M  V30 14896 C 1312.13 0.220262 -4.5747 0
M  V30 14897 N 1313.62 0.278265 -4.62363 0
M  V30 14898 C 1314.35 0.229933 -5.72939 0
M  V30 14899 N 1313.85 0.132391 -6.92673 0
M  V30 14900 N 1315.64 0.281555 -5.61394 0
M  V30 14901 H 1307.79 -0.906404 -1.92089 0
M  V30 14902 H 1310.06 -0.347129 -0.88216 0
M  V30 14903 H 1309.76 -0.719007 -3.44272 0
M  V30 14904 H 1309.64 1.02105 -3.63118 0
M  V30 14905 H 1312.02 1.25991 -2.66852 0
M  V30 14906 H 1312.1 -0.500395 -2.50858 0
M  V30 14907 H 1311.75 -0.723267 -5.02724 0
M  V30 14908 H 1311.68 1.05192 -5.15987 0
M  V30 14909 H 1314.17 0.35512 -3.76228 0
M  V30 14910 H 1314.48 0.101317 -7.72734 0
M  V30 14911 H 1312.83 0.0980665 -6.94931 0
M  V30 14912 H 1316.02 0.355931 -4.66745 0
M  V30 14913 H 1316.19 0.240423 -6.47554 0
M  V30 14914 N 1309.6 1.55164 0.276031 0
M  V30 14915 C 1310.53 1.82758 1.36656 0
M  V30 14916 C 1311.51 0.680405 1.4768 0
M  V30 14917 O 1312.69 0.923078 1.64352 0
M  V30 14918 C 1309.82 1.98651 2.74328 0
M  V30 14919 C 1308.86 3.21192 2.80603 0
M  V30 14920 S 1309.7 4.78628 2.40156 0
M  V30 14921 C 1310.85 4.9749 3.79809 0
M  V30 14922 H 1311.09 2.74969 1.13045 0
M  V30 14923 H 1308.62 1.46896 0.4755 0
M  V30 14924 H 1310.58 2.08492 3.53612 0
M  V30 14925 H 1309.24 1.07333 2.95192 0
M  V30 14926 H 1308.43 3.29189 3.81642 0
M  V30 14927 H 1308.03 3.09926 2.09337 0
M  V30 14928 H 1310.33 4.83045 4.75051 0
M  V30 14929 H 1311.27 5.99544 3.76765 0
M  V30 14930 H 1311.68 4.25489 3.70971 0
M  V30 14931 N 1311.07 -0.540404 1.48045 0
M  V30 14932 C 1312.32 -1.29678 1.55531 0
M  V30 14933 C 1312.65 -1.93197 0.224725 0
M  V30 14934 O 1311.9 -1.79308 -0.784028 0
M  V30 14935 C 1312.2 -2.41517 2.63447 0
M  V30 14936 C 1311.87 -1.95719 4.06208 0
M  V30 14937 C 1310.53 -1.82946 4.45067 0
M  V30 14938 C 1312.88 -1.6098 4.95717 0
M  V30 14939 C 1310.21 -1.33753 5.7125 0
M  V30 14940 C 1312.56 -1.13253 6.2238 0
M  V30 14941 C 1311.23 -0.990886 6.60104 0
M  V30 14942 H 1310.5 -0.474525 0.569129 0
M  V30 14943 H 1313.14 -0.604209 1.81718 0
M  V30 14944 H 1311.45 -3.16401 2.3108 0
M  V30 14945 H 1313.15 -2.9967 2.66457 0
M  V30 14946 H 1309.74 -2.06609 3.75514 0
M  V30 14947 H 1313.92 -1.69713 4.66381 0
M  V30 14948 H 1309.18 -1.21465 5.99213 0
M  V30 14949 H 1313.35 -0.854401 6.91139 0
M  V30 14950 H 1310.98 -0.607497 7.57769 0
M  V30 14951 N 1312.55 -1.36459 -0.788468 0
M  V30 14952 C 1313.97 -1.16893 -1.08666 0
M  V30 14953 C 1314.17 0.00633808 -2.01499 0
M  V30 14954 O 1313.22 0.671417 -2.4341 0
M  V30 14955 C 1314.54 -2.48018 -1.70022 0
M  V30 14956 C 1316.09 -2.5439 -1.82358 0
M  V30 14957 C 1316.56 -3.85605 -2.47129 0
M  V30 14958 N 1318.05 -3.86956 -2.54597 0
M  V30 14959 C 1318.79 -4.85224 -3.05525 0
M  V30 14960 N 1318.28 -5.93885 -3.56753 0
M  V30 14961 N 1320.08 -4.72643 -3.04246 0
M  V30 14962 H 1312.23 -2.11705 -0.171733 0
M  V30 14963 H 1314.49 -0.937784 -0.1388 0
M  V30 14964 H 1314.2 -3.34292 -1.09277 0
M  V30 14965 H 1314.07 -2.63894 -2.69518 0
M  V30 14966 H 1316.46 -1.68534 -2.4224 0
M  V30 14967 H 1316.54 -2.42414 -0.816651 0
M  V30 14968 H 1316.18 -4.71868 -1.87891 0
M  V30 14969 H 1316.11 -3.94878 -3.48395 0
M  V30 14970 H 1318.6 -3.08453 -2.18323 0
M  V30 14971 H 1318.92 -6.64839 -3.93966 0
M  V30 14972 H 1317.26 -5.97553 -3.54902 0
M  V30 14973 H 1320.45 -3.86883 -2.63513 0
M  V30 14974 H 1320.62 -5.49385 -3.43627 0
M  V30 14975 N 1314.03 1.01274 -1.20754 0
M  V30 14976 C 1315.26 1.78524 -1.04579 0
M  V30 14977 C 1315.67 1.84409 0.404809 0
M  V30 14978 O 1315.03 1.29987 1.281 0
M  V30 14979 C 1315.08 3.22806 -1.62722 0
M  V30 14980 O 1314.8 3.17276 -3.02106 0
M  V30 14981 C 1316.3 4.16589 -1.51553 0
M  V30 14982 H 1313.52 0.561299 -0.367674 0
M  V30 14983 H 1316.07 1.27454 -1.59924 0
M  V30 14984 H 1314.22 3.71011 -1.11487 0
M  V30 14985 H 1314.64 4.07866 -3.29766 0
M  V30 14986 H 1316.11 5.15654 -1.9699 0
M  V30 14987 H 1316.59 4.36692 -0.468659 0
M  V30 14988 H 1317.19 3.74269 -2.01998 0
M  V30 14989 N 1315.51 1.01404 1.20644 0
M  V30 14990 C 1316.76 0.701909 1.89946 0
M  V30 14991 C 1317.08 -0.768212 1.78686 0
M  V30 14992 O 1316.34 -1.57348 1.16363 0
M  V30 14993 C 1316.64 1.07995 3.40693 0
M  V30 14994 C 1316.3 2.54585 3.72152 0
M  V30 14995 C 1314.97 2.94639 3.80449 0
M  V30 14996 C 1317.32 3.49497 3.86654 0
M  V30 14997 C 1314.65 4.2855 4.00702 0
M  V30 14998 C 1317 4.83093 4.08416 0
M  V30 14999 C 1315.66 5.22857 4.14942 0
M  V30 15000 H 1314.93 0.256847 0.695062 0
M  V30 15001 H 1317.58 1.27415 1.4296 0
M  V30 15002 H 1315.88 0.426089 3.89476 0
M  V30 15003 H 1317.58 0.816176 3.92606 0
M  V30 15004 H 1314.17 2.22548 3.66292 0
M  V30 15005 H 1318.36 3.19713 3.79602 0
M  V30 15006 H 1313.61 4.58916 4.03988 0
M  V30 15007 H 1317.79 5.56565 4.18579 0
M  V30 15008 H 1315.41 6.26634 4.30388 0
M  V30 15009 N 1316.99 -1.36373 0.789944 0
M  V30 15010 C 1317.92 -2.32616 0.202944 0
M  V30 15011 C 1318.9 -1.56674 -0.662364 0
M  V30 15012 O 1320.08 -1.84826 -0.596078 0
M  V30 15013 C 1317.21 -3.4092 -0.662646 0
M  V30 15014 C 1316.17 -4.27877 0.102811 0
M  V30 15015 C 1315.49 -5.27352 -0.883407 0
M  V30 15016 C 1316.79 -5.0606 1.29231 0
M  V30 15017 H 1318.49 -2.81958 1.00699 0
M  V30 15018 H 1316.03 -1.35562 0.48568 0
M  V30 15019 H 1317.99 -4.07239 -1.08324 0
M  V30 15020 H 1316.71 -2.90147 -1.4994 0
M  V30 15021 H 1315.37 -3.63114 0.504389 0
M  V30 15022 H 1315.02 -4.72853 -1.71521 0
M  V30 15023 H 1314.72 -5.86398 -0.375669 0
M  V30 15024 H 1316.24 -5.96545 -1.30256 0
M  V30 15025 H 1317.66 -5.65417 0.947446 0
M  V30 15026 H 1316.05 -5.74521 1.73338 0
M  V30 15027 H 1317.12 -4.37671 2.08739 0
M  V30 15028 N 1318.47 -0.542005 -1.47987 0
M  V30 15029 C 1319.38 0.217677 -2.33588 0
M  V30 15030 C 1320.39 0.927093 -1.47245 0
M  V30 15031 O 1321.57 0.899378 -1.80203 0
M  V30 15032 C 1318.63 1.24376 -3.23622 0
M  V30 15033 C 1317.69 0.543407 -4.25847 0
M  V30 15034 C 1316.93 1.5206 -5.11579 0
M  V30 15035 O 1317.15 2.75425 -4.99497 0
M  V30 15036 O 1316.08 1.05341 -5.9261 0
M  V30 15037 H 1319.91 -0.484089 -2.99817 0
M  V30 15038 H 1317.49 -0.302783 -1.463 0
M  V30 15039 H 1319.38 1.83644 -3.7928 0
M  V30 15040 H 1318.05 1.92772 -2.6004 0
M  V30 15041 H 1316.96 -0.090074 -3.73992 0
M  V30 15042 H 1318.29 -0.0988264 -4.92101 0
M  V30 15043 N 1319.94 1.55134 -0.277709 0
M  V30 15044 C 1320.89 2.24057 0.624594 0
M  V30 15045 C 1321.89 1.23848 1.15577 0
M  V30 15046 O 1323.09 1.41771 1.1091 0
M  V30 15047 H 1319.47 0.719106 0.219977 0
M  V30 15048 H 1321.44 2.98393 0.0204815 0
M  V30 15049 C 1320.19 2.97712 1.79618 0
M  V30 15050 H 1319.51 3.74611 1.39665 0
M  V30 15051 H 1320.95 3.49255 2.4041 0
M  V30 15052 C 1319.41 2.03332 2.68622 0
M  V30 15053 O 1319.94 1.58622 3.69056 0
M  V30 15054 N 1318.14 1.69778 2.35847 0
M  V30 15055 H 1317.69 2.06333 1.54222 0
M  V30 15056 H 1317.65 1.06901 2.95668 0
M  V30 15057 N 1321.42 0.00503138 1.57599 0
M  V30 15058 C 1322.65 -0.693231 1.95471 0
M  V30 15059 C 1323.07 -1.66233 0.880246 0
M  V30 15060 O 1322.43 -1.80582 -0.161164 0
M  V30 15061 C 1322.48 -1.39696 3.32442 0
M  V30 15062 O 1321.58 -2.51154 3.27101 0
M  V30 15063 H 1320.92 -0.184015 0.637992 0
M  V30 15064 H 1323.45 0.0597194 2.04513 0
M  V30 15065 H 1323.46 -1.75924 3.68123 0
M  V30 15066 H 1322.14 -0.686438 4.10196 0
M  V30 15067 H 1320.71 -2.17216 3.03103 0
M  V30 15068 N 1322.9 -1.55308 -0.267798 0
M  V30 15069 C 1323.83 -1.91555 -1.33525 0
M  V30 15070 C 1324.81 -0.778001 -1.51265 0
M  V30 15071 O 1326 -1.03657 -1.64222 0
M  V30 15072 C 1323.13 -2.19201 -2.69385 0
M  V30 15073 C 1322.08 -3.3501 -2.66369 0
M  V30 15074 C 1321.41 -3.48148 -4.05829 0
M  V30 15075 C 1322.71 -4.71265 -2.25182 0
M  V30 15076 H 1324.4 -2.80965 -1.03437 0
M  V30 15077 H 1321.95 -1.35183 -0.496141 0
M  V30 15078 H 1323.9 -2.43146 -3.44177 0
M  V30 15079 H 1322.62 -1.26596 -3.01067 0
M  V30 15080 H 1321.28 -3.11041 -1.94034 0
M  V30 15081 H 1320.93 -2.53 -4.34741 0
M  V30 15082 H 1320.63 -4.26014 -4.04704 0
M  V30 15083 H 1322.15 -3.74391 -4.82352 0
M  V30 15084 H 1323.57 -4.94719 -2.89699 0
M  V30 15085 H 1321.96 -5.52084 -2.3521 0
M  V30 15086 H 1323.03 -4.69735 -1.20319 0
M  V30 15087 N 1324.38 0.532545 -1.4833 0
M  V30 15088 C 1325.33 1.65832 -1.63103 0
M  V30 15089 C 1326.32 1.61929 -0.497538 0
M  V30 15090 O 1327.53 1.66817 -0.676176 0
M  V30 15091 H 1323.9 0.549152 -0.513748 0
M  V30 15092 H 1325.87 1.50515 -2.57658 0
M  V30 15093 C 1324.62 3.04113 -1.68555 0
M  V30 15094 H 1323.94 3.07809 -2.55135 0
M  V30 15095 H 1325.38 3.82506 -1.82936 0
M  V30 15096 C 1323.84 3.34225 -0.423711 0
M  V30 15097 O 1324.37 3.99005 0.464523 0
M  V30 15098 N 1322.58 2.89087 -0.296192 0
M  V30 15099 H 1322.13 2.36547 -1.01997 0
M  V30 15100 H 1322.08 3.09604 0.547082 0
M  V30 15101 N 1325.86 1.36875 0.78122 0
M  V30 15102 C 1326.8 1.31869 1.89418 0
M  V30 15103 C 1327.77 0.185904 1.65056 0
M  V30 15104 O 1328.96 0.373745 1.87104 0
M  V30 15105 C 1326.1 1.12205 3.2635 0
M  V30 15106 C 1325.21 2.34631 3.62729 0
M  V30 15107 C 1324.35 2.07914 4.8882 0
M  V30 15108 C 1323.38 3.26257 5.17902 0
M  V30 15109 N 1322.52 2.99152 6.35179 0
M  V30 15110 H 1327.36 2.2703 1.93032 0
M  V30 15111 H 1324.9 1.12826 0.943857 0
M  V30 15112 H 1326.86 0.988282 4.05326 0
M  V30 15113 H 1325.49 0.206959 3.22136 0
M  V30 15114 H 1324.54 2.58782 2.78812 0
M  V30 15115 H 1325.85 3.22919 3.80164 0
M  V30 15116 H 1325 1.91514 5.7568 0
M  V30 15117 H 1323.74 1.1695 4.7347 0
M  V30 15118 H 1322.75 3.43207 4.29522 0
M  V30 15119 H 1323.97 4.1806 5.35166 0
M  V30 15120 H 1321.92 2.10807 6.21205 0
M  V30 15121 H 1321.84 3.80981 6.52985 0
M  V30 15122 H 1323.1 2.86349 7.25 0
M  V30 15123 N 1327.33 -1.00632 1.21289 0
M  V30 15124 C 1328.58 -1.73802 1.02351 0
M  V30 15125 C 1328.9 -1.90503 -0.443611 0
M  V30 15126 O 1330.1 -2.60868 -0.752356 0
M  V30 15127 C 1328.56 -3.12647 1.78269 0
M  V30 15128 C 1328.17 -3.03923 3.29142 0
M  V30 15129 C 1329.91 -3.89956 1.67735 0
M  V30 15130 C 1327.82 -4.3784 3.97556 0
M  V30 15131 H 1326.75 -0.651616 0.379358 0
M  V30 15132 H 1329.4 -1.12446 1.45011 0
M  V30 15133 H 1327.78 -3.74605 1.28401 0
M  V30 15134 H 1328.95 -2.51211 3.86303 0
M  V30 15135 H 1327.27 -2.40103 3.40205 0
M  V30 15136 H 1329.87 -4.89051 2.1618 0
M  V30 15137 H 1330.21 -4.11423 0.635338 0
M  V30 15138 H 1330.74 -3.34647 2.15072 0
M  V30 15139 H 1327.48 -4.21573 5.01952 0
M  V30 15140 H 1327 -4.90518 3.45184 0
M  V30 15141 H 1328.68 -5.06644 4.02393 0
M  V30 15142 N 1328.81 -1.02043 -1.20104 0
M  V30 15143 C 1329.76 -0.587332 -2.25063 0
M  V30 15144 C 1330.75 0.375844 -1.65178 0
M  V30 15145 O 1331.96 0.245347 -1.7832 0
M  V30 15146 H 1328.33 -0.171637 -0.732151 0
M  V30 15147 H 1330.31 -1.48339 -2.58917 0
M  V30 15148 C 1329.05 0.0546893 -3.47657 0
M  V30 15149 H 1328.38 -0.677457 -3.94018 0
M  V30 15150 H 1329.82 0.320786 -4.22785 0
M  V30 15151 C 1328.28 1.29869 -3.10863 0
M  V30 15152 O 1328.81 2.39161 -3.22746 0
M  V30 15153 N 1327.01 1.18423 -2.65376 0
M  V30 15154 H 1326.56 0.294895 -2.55906 0
M  V30 15155 H 1326.52 2.01755 -2.41128 0
M  V30 15156 N 1330.29 1.35952 -0.797165 0
M  V30 15157 C 1331.54 1.99032 -0.373142 0
M  V30 15158 C 1331.87 1.63257 1.05723 0
M  V30 15159 O 1331.12 0.883022 1.74646 0
M  V30 15160 C 1331.42 3.53986 -0.492805 0
M  V30 15161 C 1331.09 4.09603 -1.88511 0
M  V30 15162 C 1329.75 4.24505 -2.26604 0
M  V30 15163 C 1332.1 4.39829 -2.79643 0
M  V30 15164 C 1329.43 4.66946 -3.55215 0
M  V30 15165 C 1331.78 4.83706 -4.0769 0
M  V30 15166 C 1330.44 4.96813 -4.45795 0
M  V30 15167 H 1329.71 0.728311 -0.136542 0
M  V30 15168 H 1332.36 1.62318 -1.01613 0
M  V30 15169 H 1330.67 3.91103 0.233661 0
M  V30 15170 H 1332.36 4.00735 -0.145638 0
M  V30 15171 H 1328.95 3.98449 -1.57912 0
M  V30 15172 H 1333.14 4.27878 -2.51464 0
M  V30 15173 H 1328.39 4.75282 -3.84599 0
M  V30 15174 H 1332.57 5.06057 -4.78414 0
M  V30 15175 H 1330.19 5.29458 -5.45507 0
M  V30 15176 N 1331.77 0.549846 1.47697 0
M  V30 15177 C 1333.02 0.0230503 2.02487 0
M  V30 15178 C 1333.34 -1.32382 1.42497 0
M  V30 15179 O 1332.6 -1.87293 0.567441 0
M  V30 15180 C 1332.9 -0.127268 3.57173 0
M  V30 15181 C 1332.56 1.14777 4.36047 0
M  V30 15182 C 1331.23 1.49716 4.57317 0
M  V30 15183 C 1333.58 1.99302 4.81589 0
M  V30 15184 C 1330.91 2.69042 5.21376 0
M  V30 15185 C 1333.26 3.17824 5.46965 0
M  V30 15186 C 1331.92 3.53086 5.66469 0
M  V30 15187 H 1331.19 0.00843471 0.740952 0
M  V30 15188 H 1333.84 0.719876 1.77454 0
M  V30 15189 H 1332.14 -0.907008 3.81157 0
M  V30 15190 H 1333.84 -0.550103 3.97209 0
M  V30 15191 H 1330.43 0.865703 4.19766 0
M  V30 15192 H 1334.61 1.73618 4.64942 0
M  V30 15193 H 1329.87 2.9654 5.34672 0
M  V30 15194 H 1334.04 3.83612 5.81218 0
M  V30 15195 H 1331.67 4.45643 6.15878 0
M  V30 15196 N 1333.25 -1.54984 0.285932 0
M  V30 15197 C 1334.19 -2.24385 -0.612703 0
M  V30 15198 C 1335.19 -1.24459 -1.14918 0
M  V30 15199 O 1336.39 -1.42357 -1.10156 0
M  V30 15200 H 1332.77 -0.720263 -0.21616 0
M  V30 15201 H 1334.74 -2.984 -0.00465668 0
M  V30 15202 C 1333.49 -2.98661 -1.78037 0
M  V30 15203 H 1332.81 -3.75347 -1.37676 0
M  V30 15204 H 1334.25 -3.50525 -2.38554 0
M  V30 15205 C 1332.71 -2.04754 -2.67539 0
M  V30 15206 O 1333.24 -1.60577 -3.68209 0
M  V30 15207 N 1331.45 -1.71026 -2.34944 0
M  V30 15208 H 1330.99 -2.07148 -1.53126 0
M  V30 15209 H 1330.95 -1.08467 -2.95097 0
M  V30 15210 N 1334.72 -0.0133892 -1.57594 0
M  V30 15211 C 1335.95 0.682855 -1.95836 0
M  V30 15212 C 1336.37 1.65763 -0.889049 0
M  V30 15213 O 1335.73 1.80665 0.151585 0
M  V30 15214 C 1335.78 1.37931 -3.33178 0
M  V30 15215 O 1334.88 2.49416 -3.28429 0
M  V30 15216 H 1334.23 0.180629 -0.638959 0
M  V30 15217 H 1336.76 -0.0705644 -2.04478 0
M  V30 15218 H 1336.77 1.73969 -3.69051 0
M  V30 15219 H 1335.44 0.664675 -4.10554 0
M  V30 15220 H 1334.02 2.15606 -3.04251 0
M  V30 15221 N 1336.2 1.55448 0.259558 0
M  V30 15222 C 1337.11 1.92364 1.34289 0
M  V30 15223 C 1338.13 0.822492 1.53333 0
M  V30 15224 O 1339.3 1.12277 1.672 0
M  V30 15225 C 1336.37 2.19978 2.67975 0
M  V30 15226 C 1335.43 3.43454 2.57562 0
M  V30 15227 C 1334.66 3.69741 3.84873 0
M  V30 15228 O 1334.89 2.9831 4.86176 0
M  V30 15229 O 1333.82 4.63274 3.84267 0
M  V30 15230 H 1337.65 2.8461 1.05975 0
M  V30 15231 H 1335.23 1.42167 0.459239 0
M  V30 15232 H 1337.11 2.39104 3.46998 0
M  V30 15233 H 1335.79 1.30912 2.96047 0
M  V30 15234 H 1334.7 3.29649 1.76869 0
M  V30 15235 H 1336.03 4.32782 2.34437 0
M  V30 15236 N 1337.68 -0.524672 1.4861 0
M  V30 15237 C 1338.59 -1.65554 1.6622 0
M  V30 15238 C 1339.61 -1.65254 0.54471 0
M  V30 15239 O 1340.78 -1.84109 0.816454 0
M  V30 15240 C 1337.85 -3.02003 1.7028 0
M  V30 15241 C 1336.91 -3.13116 2.93695 0
M  V30 15242 C 1336.14 -4.43055 2.97553 0
M  V30 15243 O 1336.36 -5.30468 2.09667 0
M  V30 15244 O 1335.3 -4.58646 3.89779 0
M  V30 15245 H 1339.12 -1.53633 2.61974 0
M  V30 15246 H 1336.71 -0.698354 1.32073 0
M  V30 15247 H 1338.59 -3.83143 1.75441 0
M  V30 15248 H 1337.27 -3.14236 0.777002 0
M  V30 15249 H 1336.17 -2.31251 2.94064 0
M  V30 15250 H 1337.51 -3.058 3.85677 0
M  V30 15251 N 1339.16 -1.37287 -0.77395 0
M  V30 15252 C 1340.12 -1.32699 -1.86878 0
M  V30 15253 C 1341.12 -0.231486 -1.59125 0
M  V30 15254 O 1342.31 -0.487203 -1.67248 0
M  V30 15255 C 1339.44 -1.0609 -3.23972 0
M  V30 15256 H 1340.64 -2.30083 -1.92359 0
M  V30 15257 H 1338.19 -1.22284 -0.973459 0
M  V30 15258 H 1338.92 -0.0922868 -3.24169 0
M  V30 15259 H 1338.71 -1.85383 -3.45508 0
M  V30 15260 H 1340.2 -1.05524 -4.04048 0
M  V30 15261 N 1340.64 0.999871 -1.21821 0
M  V30 15262 C 1341.89 1.73257 -1.03271 0
M  V30 15263 C 1342.2 1.90736 0.433502 0
M  V30 15264 O 1343.4 2.61263 0.738511 0
M  V30 15265 C 1341.86 3.11697 -1.79925 0
M  V30 15266 C 1341.47 3.02173 -3.3075 0
M  V30 15267 C 1343.21 3.89061 -1.698 0
M  V30 15268 C 1341.12 4.35725 -3.99872 0
M  V30 15269 H 1340.05 0.649595 -0.382809 0
M  V30 15270 H 1342.7 1.11676 -1.45605 0
M  V30 15271 H 1341.08 3.73919 -1.30386 0
M  V30 15272 H 1342.26 2.49158 -3.8763 0
M  V30 15273 H 1340.57 2.38296 -3.41473 0
M  V30 15274 H 1343.17 4.87897 -2.1877 0
M  V30 15275 H 1343.51 4.11081 -0.657148 0
M  V30 15276 H 1344.04 3.33502 -2.16844 0
M  V30 15277 H 1340.78 4.18906 -5.04181 0
M  V30 15278 H 1340.3 4.8868 -3.47781 0
M  V30 15279 H 1341.98 5.04503 -4.05075 0
M  V30 15280 N 1342.11 1.02678 1.19562 0
M  V30 15281 C 1343.36 0.717279 1.88515 0
M  V30 15282 C 1343.68 -0.757063 1.80355 0
M  V30 15283 O 1344.88 -1.17953 2.44539 0
M  V30 15284 C 1343.34 1.23265 3.38133 0
M  V30 15285 C 1342.95 2.73462 3.54856 0
M  V30 15286 C 1344.69 0.99904 4.12577 0
M  V30 15287 C 1342.6 3.18428 4.98355 0
M  V30 15288 H 1341.53 0.264608 0.706044 0
M  V30 15289 H 1344.18 1.2408 1.3519 0
M  V30 15290 H 1342.56 0.637052 3.90842 0
M  V30 15291 H 1343.73 3.38659 3.12485 0
M  V30 15292 H 1342.05 2.95079 2.93798 0
M  V30 15293 H 1344.65 1.3103 5.18397 0
M  V30 15294 H 1344.99 -0.064217 4.1625 0
M  V30 15295 H 1345.52 1.55853 3.65998 0
M  V30 15296 H 1342.26 4.24074 4.99842 0
M  V30 15297 H 1341.78 2.57958 5.41496 0
M  V30 15298 H 1343.46 3.11649 5.66996 0
M  V30 15299 N 1343.59 -1.35528 0.804364 0
M  V30 15300 C 1344.84 -1.98084 0.380196 0
M  V30 15301 C 1345.15 -1.64531 -1.05778 0
M  V30 15302 O 1346.36 -2.20435 -1.58495 0
M  V30 15303 C 1344.82 -3.54364 0.628848 0
M  V30 15304 C 1344.42 -3.96828 2.07921 0
M  V30 15305 C 1346.17 -4.23641 0.269927 0
M  V30 15306 C 1344.08 -5.45944 2.27374 0
M  V30 15307 H 1343.01 -0.741185 0.138422 0
M  V30 15308 H 1345.66 -1.54624 0.988107 0
M  V30 15309 H 1344.04 -3.9597 -0.0489837 0
M  V30 15310 H 1345.21 -3.6638 2.79467 0
M  V30 15311 H 1343.53 -3.40433 2.39779 0
M  V30 15312 H 1346.12 -5.33251 0.393344 0
M  V30 15313 H 1346.47 -4.08858 -0.783644 0
M  V30 15314 H 1347 -3.87448 0.901588 0
M  V30 15315 H 1343.74 -5.65693 3.31168 0
M  V30 15316 H 1343.26 -5.77969 1.6035 0
M  V30 15317 H 1344.94 -6.12376 2.08817 0
M  V30 15318 N 1345.07 -0.557671 -1.47404 0
M  V30 15319 C 1346 0.178019 -2.3282 0
M  V30 15320 C 1346.98 0.908318 -1.43818 0
M  V30 15321 O 1348.17 0.888693 -1.72673 0
M  V30 15322 C 1345.3 1.2082 -3.25607 0
M  V30 15323 C 1344.25 0.594335 -4.23853 0
M  V30 15324 C 1343.58 1.72919 -5.05968 0
M  V30 15325 C 1344.88 -0.452196 -5.20339 0
M  V30 15326 H 1346.57 -0.535091 -2.9458 0
M  V30 15327 H 1344.12 -0.258775 -1.41656 0
M  V30 15328 H 1346.07 1.73104 -3.84204 0
M  V30 15329 H 1344.79 1.95126 -2.61903 0
M  V30 15330 H 1343.45 0.0927898 -3.66483 0
M  V30 15331 H 1343.1 2.4613 -4.38668 0
M  V30 15332 H 1342.8 1.32422 -5.72484 0
M  V30 15333 H 1344.33 2.25527 -5.67424 0
M  V30 15334 H 1345.74 -0.0154011 -5.73298 0
M  V30 15335 H 1344.14 -0.776068 -5.95061 0
M  V30 15336 H 1345.21 -1.34791 -4.65789 0
M  V30 15337 N 1346.55 1.54831 -0.294147 0
M  V30 15338 C 1347.8 2.00298 0.317605 0
M  V30 15339 C 1348.13 1.18228 1.54064 0
M  V30 15340 O 1347.4 0.257034 1.92794 0
M  V30 15341 C 1347.69 3.53602 0.680991 0
M  V30 15342 C 1347.54 4.46416 -0.550711 0
M  V30 15343 C 1348.86 4.13379 1.51016 0
M  V30 15344 H 1345.98 0.728135 0.113965 0
M  V30 15345 H 1348.62 1.85636 -0.404883 0
M  V30 15346 H 1346.77 3.66227 1.29654 0
M  V30 15347 H 1348.44 4.45707 -1.18922 0
M  V30 15348 H 1346.68 4.17294 -1.18524 0
M  V30 15349 H 1347.36 5.51423 -0.252412 0
M  V30 15350 H 1349.83 4.04148 0.99012 0
M  V30 15351 H 1348.71 5.20818 1.73321 0
M  V30 15352 H 1348.97 3.64817 2.49722 0
M  V30 15353 N 1348.03 0.0217466 1.57585 0
M  V30 15354 C 1348.96 -0.997112 2.05263 0
M  V30 15355 C 1349.94 -1.32186 0.946873 0
M  V30 15356 O 1351.12 -1.43979 1.21665 0
M  V30 15357 C 1348.25 -2.3191 2.46851 0
M  V30 15358 C 1347.3 -2.14948 3.68375 0
M  V30 15359 S 1348.13 -1.45517 5.15349 0
M  V30 15360 C 1349.28 -2.79101 5.60226 0
M  V30 15361 H 1349.52 -0.591229 2.91362 0
M  V30 15362 H 1347.05 -0.189741 1.5323 0
M  V30 15363 H 1349.01 -3.07913 2.71477 0
M  V30 15364 H 1347.67 -2.69633 1.61112 0
M  V30 15365 H 1346.86 -3.12661 3.95296 0
M  V30 15366 H 1346.46 -1.47088 3.43862 0
M  V30 15367 H 1348.76 -3.75357 5.64015 0
M  V30 15368 H 1349.7 -2.56853 6.59873 0
M  V30 15369 H 1350.11 -2.84009 4.87851 0
M  V30 15370 N 1349.51 -1.55583 -0.251311 0
M  V30 15371 C 1350.73 -1.81597 -1.00186 0
M  V30 15372 C 1351.16 -0.598216 -1.78334 0
M  V30 15373 O 1350.51 0.452667 -1.75558 0
M  V30 15374 C 1350.56 -3.05301 -1.91895 0
M  V30 15375 O 1349.67 -2.81907 -3.01002 0
M  V30 15376 H 1349.01 -0.599578 -0.285311 0
M  V30 15377 H 1351.54 -2.02762 -0.273638 0
M  V30 15378 H 1351.55 -3.34616 -2.33444 0
M  V30 15379 H 1350.22 -3.93574 -1.34433 0
M  V30 15380 H 1348.8 -2.63747 -2.63613 0
M  V30 15381 N 1350.98 0.516783 -1.48886 0
M  V30 15382 C 1352.21 1.29628 -1.61258 0
M  V30 15383 C 1352.63 1.86744 -0.27786 0
M  V30 15384 O 1351.98 1.67061 0.734639 0
M  V30 15385 C 1352.03 2.43779 -2.66935 0
M  V30 15386 O 1351.76 1.89014 -3.95228 0
M  V30 15387 C 1353.26 3.35398 -2.89867 0
M  V30 15388 H 1350.48 0.393736 -0.543335 0
M  V30 15389 H 1353.02 0.622069 -1.94809 0
M  V30 15390 H 1351.18 3.0706 -2.36206 0
M  V30 15391 H 1351.59 2.63833 -4.53312 0
M  V30 15392 H 1353.06 4.11812 -3.6758 0
M  V30 15393 H 1353.54 3.91436 -1.99185 0
M  V30 15394 H 1354.15 2.77898 -3.21952 0
M  V30 15395 N 1352.46 1.37696 0.766659 0
M  V30 15396 C 1353.39 1.36576 1.89392 0
M  V30 15397 C 1354.37 0.233597 1.68488 0
M  V30 15398 O 1355.56 0.434719 1.89272 0
M  V30 15399 C 1352.69 1.17705 3.26746 0
M  V30 15400 C 1351.64 2.27987 3.62224 0
M  V30 15401 C 1350.97 1.94235 4.98174 0
M  V30 15402 C 1352.27 3.70195 3.68447 0
M  V30 15403 H 1353.96 2.30905 1.90587 0
M  V30 15404 H 1351.51 1.11148 0.915538 0
M  V30 15405 H 1353.46 1.15551 4.05248 0
M  V30 15406 H 1352.18 0.198334 3.25997 0
M  V30 15407 H 1350.84 2.29306 2.86032 0
M  V30 15408 H 1350.49 0.948796 4.93971 0
M  V30 15409 H 1350.19 2.68086 5.2288 0
M  V30 15410 H 1351.72 1.93676 5.7907 0
M  V30 15411 H 1353.13 3.70978 4.37091 0
M  V30 15412 H 1351.53 4.43142 4.04654 0
M  V30 15413 H 1352.6 4.03453 2.68986 0
M  V30 15414 N 1353.94 -0.993397 1.22349 0
M  V30 15415 C 1355.17 -1.76581 1.0725 0
M  V30 15416 C 1355.58 -1.85346 -0.379923 0
M  V30 15417 O 1354.92 -1.3224 -1.27508 0
M  V30 15418 C 1354.98 -3.21519 1.60829 0
M  V30 15419 C 1354.65 -3.363 3.09437 0
M  V30 15420 C 1355.64 -3.23655 4.0687 0
M  V30 15421 C 1353.33 -3.61368 3.48882 0
M  V30 15422 C 1355.32 -3.3586 5.41735 0
M  V30 15423 C 1353.01 -3.73214 4.83895 0
M  V30 15424 C 1354.01 -3.60468 5.80131 0
M  V30 15425 O 1353.7 -3.7192 7.12693 0
M  V30 15426 H 1353.43 -0.561407 0.376561 0
M  V30 15427 H 1355.98 -1.25768 1.62393 0
M  V30 15428 H 1354.21 -3.73521 1.00093 0
M  V30 15429 H 1355.9 -3.80475 1.41399 0
M  V30 15430 H 1356.67 -3.04201 3.77739 0
M  V30 15431 H 1352.55 -3.70365 2.74501 0
M  V30 15432 H 1356.09 -3.25829 6.16832 0
M  V30 15433 H 1351.99 -3.92175 5.12707 0
M  V30 15434 H 1352.75 -3.88796 7.20264 0
M  V30 15435 N 1355.42 -1.03311 -1.19015 0
M  V30 15436 C 1356.38 -0.622114 -2.20596 0
M  V30 15437 C 1357.38 0.316502 -1.57654 0
M  V30 15438 O 1358.57 0.102932 -1.73896 0
M  V30 15439 C 1355.7 0.0890432 -3.40784 0
M  V30 15440 H 1356.9 -1.52095 -2.58471 0
M  V30 15441 H 1354.45 -0.824777 -1.32767 0
M  V30 15442 H 1355.18 1.00203 -3.08431 0
M  V30 15443 H 1354.97 -0.58547 -3.87704 0
M  V30 15444 H 1356.46 0.363366 -4.16016 0
M  V30 15445 N 1356.9 1.35099 -0.81154 0
M  V30 15446 C 1357.83 2.32264 -0.239925 0
M  V30 15447 C 1358.81 1.57708 0.637354 0
M  V30 15448 O 1359.99 1.85751 0.566598 0
M  V30 15449 C 1357.12 3.41931 0.608325 0
M  V30 15450 C 1356.08 4.27659 -0.170869 0
M  V30 15451 C 1355.4 5.28691 0.799398 0
M  V30 15452 C 1356.7 5.0394 -1.37266 0
M  V30 15453 H 1358.4 2.8032 -1.05172 0
M  V30 15454 H 1355.94 1.34773 -0.507185 0
M  V30 15455 H 1357.89 4.08911 1.01832 0
M  V30 15456 H 1356.62 2.92496 1.45306 0
M  V30 15457 H 1355.28 3.62265 -0.562094 0
M  V30 15458 H 1354.93 4.75521 1.63977 0
M  V30 15459 H 1354.63 5.86921 0.282331 0
M  V30 15460 H 1356.15 5.98542 1.20749 0
M  V30 15461 H 1357.56 5.63838 -1.03728 0
M  V30 15462 H 1355.96 5.7169 -1.82456 0
M  V30 15463 H 1357.03 4.34295 -2.15676 0
M  V30 15464 N 1358.37 0.56548 1.47106 0
M  V30 15465 C 1359.6 0.0495579 2.06541 0
M  V30 15466 C 1360.01 -1.25325 1.4174 0
M  V30 15467 O 1359.35 -1.76455 0.510818 0
M  V30 15468 C 1359.42 -0.20843 3.58895 0
M  V30 15469 C 1359.08 1.00618 4.45786 0
M  V30 15470 C 1360.08 1.91387 4.83391 0
M  V30 15471 C 1357.76 1.22318 4.87179 0
M  V30 15472 C 1359.76 3.02218 5.61198 0
M  V30 15473 C 1357.44 2.33457 5.64749 0
M  V30 15474 C 1358.44 3.23238 6.0167 0
M  V30 15475 O 1358.13 4.32449 6.77675 0
M  V30 15476 H 1357.86 0.0466 0.674392 0
M  V30 15477 H 1360.42 0.780887 1.89977 0
M  V30 15478 H 1358.65 -0.994169 3.73702 0
M  V30 15479 H 1360.33 -0.670745 4.0032 0
M  V30 15480 H 1361.1 1.75831 4.52005 0
M  V30 15481 H 1356.98 0.533514 4.57902 0
M  V30 15482 H 1360.52 3.72321 5.89935 0
M  V30 15483 H 1356.42 2.48983 5.95548 0
M  V30 15484 H 1357.19 4.306 6.96079 0
M  V30 15485 N 1359.85 -1.54672 0.302354 0
M  V30 15486 C 1360.8 -2.2357 -0.573141 0
M  V30 15487 C 1361.77 -1.21878 -1.12849 0
M  V30 15488 O 1362.95 -1.50502 -1.17277 0
M  V30 15489 C 1360.09 -2.98111 -1.7385 0
M  V30 15490 C 1359.21 -4.14579 -1.21441 0
M  V30 15491 C 1358.34 -4.76699 -2.34374 0
M  V30 15492 C 1357.38 -5.8531 -1.79106 0
M  V30 15493 N 1356.52 -6.41379 -2.85618 0
M  V30 15494 H 1361.36 -2.97993 0.0209969 0
M  V30 15495 H 1358.9 -1.47083 0.0221318 0
M  V30 15496 H 1360.85 -3.39561 -2.42392 0
M  V30 15497 H 1359.48 -2.26063 -2.30425 0
M  V30 15498 H 1358.54 -3.78061 -0.421204 0
M  V30 15499 H 1359.85 -4.92824 -0.769821 0
M  V30 15500 H 1359 -5.21009 -3.10861 0
M  V30 15501 H 1357.74 -3.9779 -2.8216 0
M  V30 15502 H 1356.75 -5.40423 -1.01109 0
M  V30 15503 H 1357.97 -6.66104 -1.32222 0
M  V30 15504 H 1355.92 -5.65352 -3.32735 0
M  V30 15505 H 1355.83 -7.14974 -2.45659 0
M  V30 15506 H 1357.1 -6.90346 -3.61998 0
M  V30 15507 N 1361.33 -0.0301034 -1.57571 0
M  V30 15508 C 1362.28 0.969425 -2.11435 0
M  V30 15509 C 1363.27 1.33627 -1.04116 0
M  V30 15510 O 1364.48 1.31839 -1.2255 0
M  V30 15511 H 1360.85 0.330407 -0.675526 0
M  V30 15512 H 1362.82 0.489828 -2.94352 0
M  V30 15513 C 1361.57 2.24233 -2.65734 0
M  V30 15514 H 1360.9 1.9688 -3.47963 0
M  V30 15515 H 1362.34 2.92378 -3.07068 0
M  V30 15516 C 1360.8 2.97274 -1.58524 0
M  V30 15517 O 1361.33 3.8942 -0.985641 0
M  V30 15518 N 1359.53 2.59627 -1.30545 0
M  V30 15519 H 1359.08 1.84773 -1.79491 0
M  V30 15520 H 1359.04 3.08807 -0.590372 0
M  V30 15521 N 1362.81 1.55714 0.243056 0
M  V30 15522 C 1364.06 1.76927 0.96849 0
M  V30 15523 C 1364.37 0.594748 1.86339 0
M  V30 15524 O 1365.58 0.689981 2.62586 0
M  V30 15525 C 1364.03 3.13246 1.77214 0
M  V30 15526 C 1363.64 4.38358 0.92444 0
M  V30 15527 C 1365.38 3.43796 2.49007 0
M  V30 15528 C 1363.29 5.65708 1.7242 0
M  V30 15529 H 1362.22 0.659574 0.365346 0
M  V30 15530 H 1364.87 1.8214 0.223026 0
M  V30 15531 H 1363.25 3.02151 2.5597 0
M  V30 15532 H 1364.43 4.60452 0.178936 0
M  V30 15533 H 1362.74 4.15171 0.319653 0
M  V30 15534 H 1365.34 4.3616 3.09303 0
M  V30 15535 H 1365.68 2.65297 3.20817 0
M  V30 15536 H 1366.22 3.56124 1.77259 0
M  V30 15537 H 1362.96 6.47039 1.04978 0
M  V30 15538 H 1362.48 5.4771 2.44488 0
M  V30 15539 H 1364.15 6.05105 2.29036 0
M  V30 15540 N 1364.29 -0.50888 1.49158 0
M  V30 15541 C 1365.2 -1.63782 1.67966 0
M  V30 15542 C 1366.21 -1.64667 0.562207 0
M  V30 15543 O 1367.39 -1.83232 0.835935 0
M  V30 15544 C 1364.45 -3.00179 1.73474 0
M  V30 15545 C 1363.51 -3.09983 2.97 0
M  V30 15546 C 1362.75 -4.39875 3.02235 0
M  V30 15547 O 1362.97 -5.28214 2.15282 0
M  V30 15548 O 1361.9 -4.54486 3.94621 0
M  V30 15549 H 1365.73 -1.50846 2.63589 0
M  V30 15550 H 1363.32 -0.684306 1.32807 0
M  V30 15551 H 1365.2 -3.8126 1.79495 0
M  V30 15552 H 1363.87 -3.13394 0.810287 0
M  V30 15553 H 1362.78 -2.28119 2.965 0
M  V30 15554 H 1364.11 -3.01693 3.88899 0
M  V30 15555 N 1365.76 -1.381 -0.759346 0
M  V30 15556 C 1366.71 -1.34866 -1.87296 0
M  V30 15557 C 1367.68 -0.212139 -1.6474 0
M  V30 15558 O 1368.87 -0.403464 -1.86485 0
M  V30 15559 C 1366.01 -1.17383 -3.24523 0
M  V30 15560 C 1365.12 -2.40372 -3.5895 0
M  V30 15561 C 1364.25 -2.15665 -4.8545 0
M  V30 15562 C 1363.29 -3.34455 -5.12646 0
M  V30 15563 N 1362.43 -3.0922 -6.30339 0
M  V30 15564 H 1367.27 -2.30072 -1.89396 0
M  V30 15565 H 1364.81 -1.14314 -0.925788 0
M  V30 15566 H 1366.77 -1.05264 -4.03702 0
M  V30 15567 H 1365.4 -0.258182 -3.21766 0
M  V30 15568 H 1364.45 -2.63185 -2.74659 0
M  V30 15569 H 1365.76 -3.28926 -3.74978 0
M  V30 15570 H 1364.91 -2.00649 -5.7256 0
M  V30 15571 H 1363.65 -1.24467 -4.7155 0
M  V30 15572 H 1362.66 -3.49997 -4.24007 0
M  V30 15573 H 1363.88 -4.26521 -5.28448 0
M  V30 15574 H 1361.83 -2.20664 -6.17773 0
M  V30 15575 H 1361.75 -3.91321 -6.46841 0
M  V30 15576 H 1363.01 -2.97847 -7.20352 0
M  V30 15577 N 1367.24 0.986894 -1.22875 0
M  V30 15578 C 1368.49 1.72729 -1.05693 0
M  V30 15579 C 1368.82 1.90191 0.407121 0
M  V30 15580 O 1368.07 1.44667 1.31796 0
M  V30 15581 C 1368.37 3.13283 -1.72012 0
M  V30 15582 C 1368.04 3.15719 -3.2192 0
M  V30 15583 C 1366.7 3.1609 -3.62823 0
M  V30 15584 C 1369.05 3.11539 -4.17843 0
M  V30 15585 C 1366.38 3.09991 -4.98119 0
M  V30 15586 C 1368.73 3.06982 -5.53123 0
M  V30 15587 C 1367.4 3.05672 -5.93397 0
M  V30 15588 H 1366.67 0.63206 -0.386758 0
M  V30 15589 H 1369.31 1.15538 -1.52719 0
M  V30 15590 H 1367.62 3.7382 -1.17327 0
M  V30 15591 H 1369.31 3.69326 -1.56203 0
M  V30 15592 H 1365.9 3.16183 -2.89355 0
M  V30 15593 H 1370.09 3.10397 -3.87256 0
M  V30 15594 H 1365.34 3.07326 -5.28546 0
M  V30 15595 H 1369.52 3.02705 -6.27171 0
M  V30 15596 H 1367.15 3.00701 -6.982 0
M  V30 15597 N 1368.72 1.0394 1.18466 0
M  V30 15598 C 1370 0.65632 1.8426 0
M  V30 15599 C 1370.38 -0.864288 1.92596 0
M  V30 15600 O 1369.73 -1.76524 1.45092 0
M  V30 15601 C 1369.94 1.33067 3.22636 0
M  V30 15602 C 1371.28 1.46065 3.98686 0
M  V30 15603 O 1372.31 1.28867 3.32072 0
M  V30 15604 O 1371.17 1.74078 5.18034 0
M  V30 15605 H 1368.26 0.229484 0.794523 0
M  V30 15606 H 1370.81 1.13821 1.25868 0
M  V30 15607 H 1369.58 2.36866 3.11465 0
M  V30 15608 H 1369.2 0.837313 3.88683 0
M  V30 15609 N 1370.2 -1.34667 0.818693 0
M  V30 15610 C 1371.45 -1.9767 0.401184 0
M  V30 15611 C 1371.76 -1.65644 -1.04027 0
M  V30 15612 O 1372.97 -2.22104 -1.56148 0
M  V30 15613 C 1371.42 -3.53677 0.666398 0
M  V30 15614 C 1371.03 -3.94601 2.12119 0
M  V30 15615 C 1372.77 -4.23331 0.314845 0
M  V30 15616 C 1370.68 -5.43502 2.33151 0
M  V30 15617 H 1369.61 -0.739675 0.146275 0
M  V30 15618 H 1372.26 -1.53568 1.00445 0
M  V30 15619 H 1370.64 -3.95999 -0.00698307 0
M  V30 15620 H 1371.82 -3.63396 2.83338 0
M  V30 15621 H 1370.13 -3.37871 2.43377 0
M  V30 15622 H 1372.73 -5.32804 0.449881 0
M  V30 15623 H 1373.07 -4.09666 -0.740235 0
M  V30 15624 H 1373.61 -3.8647 0.942631 0
M  V30 15625 H 1370.35 -5.62148 3.37149 0
M  V30 15626 H 1369.87 -5.76236 1.66471 0
M  V30 15627 H 1371.54 -6.10127 2.153 0
M  V30 15628 N 1371.68 -0.573274 -1.46804 0
M  V30 15629 C 1373.09 -0.144162 -1.86143 0
M  V30 15630 C 1373.44 1.29033 -1.47801 0
M  V30 15631 O 1372.56 1.97319 -0.888494 0
M  V30 15632 C 1373.16 -0.254851 -3.3784 0
M  V30 15633 C 1371.72 0.119325 -3.76211 0
M  V30 15634 C 1370.86 -0.595115 -2.70839 0
M  V30 15635 H 1373.82 -0.782057 -1.38093 0
M  V30 15636 H 1373.84 0.522321 -3.76898 0
M  V30 15637 H 1373.35 -1.29899 -3.65715 0
M  V30 15638 H 1371.45 1.16396 -3.53953 0
M  V30 15639 H 1371.56 -0.250421 -4.78445 0
M  V30 15640 H 1369.93 -0.0364028 -2.54674 0
M  V30 15641 H 1370.71 -1.64072 -3.01555 0
M  V30 15642 N 1373.15 1.5451 -0.310553 0
M  V30 15643 C 1374.08 2.26827 0.554243 0
M  V30 15644 C 1375.07 1.27133 1.13009 0
M  V30 15645 O 1376.25 1.55923 1.15765 0
M  V30 15646 C 1373.38 3.01626 1.7216 0
M  V30 15647 C 1372.33 4.08547 1.27566 0
M  V30 15648 C 1371.66 4.71115 2.52893 0
M  V30 15649 C 1372.96 5.20766 0.399955 0
M  V30 15650 H 1374.65 2.9936 -0.0489475 0
M  V30 15651 H 1372.2 1.43978 -0.0249817 0
M  V30 15652 H 1374.15 3.50942 2.33276 0
M  V30 15653 H 1372.88 2.26688 2.35118 0
M  V30 15654 H 1371.54 3.60096 0.687499 0
M  V30 15655 H 1371.18 3.92805 3.14186 0
M  V30 15656 H 1370.88 5.43331 2.23752 0
M  V30 15657 H 1372.41 5.23198 3.14796 0
M  V30 15658 H 1373.82 5.65918 0.917054 0
M  V30 15659 H 1372.22 5.9976 0.2019 0
M  V30 15660 H 1373.29 4.81508 -0.572537 0
M  V30 15661 N 1374.63 0.0384594 1.57553 0
M  V30 15662 C 1375.58 -0.940256 2.10779 0
M  V30 15663 C 1376.55 -1.31705 1.01208 0
M  V30 15664 O 1377.74 -1.40874 1.28683 0
M  V30 15665 C 1374.88 -2.21419 2.64703 0
M  V30 15666 C 1373.99 -1.89302 3.88315 0
M  V30 15667 C 1373.12 -3.1106 4.30599 0
M  V30 15668 C 1372.16 -2.74805 5.46945 0
M  V30 15669 N 1371.3 -3.89217 5.84341 0
M  V30 15670 H 1376.14 -0.479458 2.94118 0
M  V30 15671 H 1373.68 -0.22505 1.45368 0
M  V30 15672 H 1375.63 -2.95946 2.94061 0
M  V30 15673 H 1374.26 -2.65099 1.84181 0
M  V30 15674 H 1373.32 -1.04977 3.65628 0
M  V30 15675 H 1374.63 -1.58607 4.72912 0
M  V30 15676 H 1373.78 -3.93898 4.61442 0
M  V30 15677 H 1372.52 -3.44924 3.44788 0
M  V30 15678 H 1371.53 -1.9038 5.15786 0
M  V30 15679 H 1372.75 -2.42147 6.34462 0
M  V30 15680 H 1370.7 -4.22905 5.01485 0
M  V30 15681 H 1370.61 -3.62177 6.63599 0
M  V30 15682 H 1371.88 -4.72732 6.19794 0
M  V30 15683 N 1376.11 -1.55841 -0.234795 0
M  V30 15684 C 1377.02 -1.94476 -1.31211 0
M  V30 15685 C 1378.04 -0.846782 -1.52005 0
M  V30 15686 O 1379.21 -1.14922 -1.65393 0
M  V30 15687 C 1376.28 -2.24213 -2.64442 0
M  V30 15688 C 1375.34 -3.47508 -2.52065 0
M  V30 15689 C 1374.57 -3.75817 -3.78942 0
M  V30 15690 O 1374.8 -3.06007 -4.81369 0
M  V30 15691 O 1373.73 -4.69328 -3.76848 0
M  V30 15692 H 1377.56 -2.8626 -1.01434 0
M  V30 15693 H 1375.14 -1.42879 -0.436563 0
M  V30 15694 H 1377.02 -2.44594 -3.4315 0
M  V30 15695 H 1375.7 -1.35605 -2.93927 0
M  V30 15696 H 1374.6 -3.32421 -1.71602 0
M  V30 15697 H 1375.94 -4.36457 -2.27523 0
M  V30 15698 N 1377.59 0.500963 -1.49426 0
M  V30 15699 C 1378.82 1.27911 -1.62624 0
M  V30 15700 C 1379.23 1.86439 -0.297651 0
M  V30 15701 O 1378.59 1.67831 0.716879 0
M  V30 15702 C 1378.64 2.40934 -2.69505 0
M  V30 15703 O 1378.36 1.84811 -3.97211 0
M  V30 15704 C 1379.86 3.32305 -2.93408 0
M  V30 15705 H 1377.08 0.387951 -0.547481 0
M  V30 15706 H 1379.63 0.601372 -1.95458 0
M  V30 15707 H 1377.78 3.04537 -2.39449 0
M  V30 15708 H 1378.2 2.59011 -4.56085 0
M  V30 15709 H 1379.67 4.0789 -3.71927 0
M  V30 15710 H 1380.15 3.89301 -2.03325 0
M  V30 15711 H 1380.75 2.74467 -3.24881 0
M  V30 15712 N 1379.07 1.38501 0.752011 0
M  V30 15713 C 1380.3 1.37832 1.53902 0
M  V30 15714 C 1380.71 -0.0333526 1.89171 0
M  V30 15715 O 1380.05 -1.01076 1.53393 0
M  V30 15716 C 1380.11 2.17098 2.86546 0
M  V30 15717 C 1379.77 3.65895 2.73807 0
M  V30 15718 C 1380.77 4.59353 2.43497 0
M  V30 15719 C 1378.46 4.0927 2.9121 0
M  V30 15720 C 1380.45 5.94167 2.30746 0
M  V30 15721 C 1378.14 5.44165 2.78079 0
M  V30 15722 C 1379.14 6.36427 2.47891 0
M  V30 15723 O 1378.82 7.68839 2.34822 0
M  V30 15724 H 1378.56 0.473187 0.482773 0
M  V30 15725 H 1381.11 1.82715 0.938324 0
M  V30 15726 H 1379.34 1.66936 3.48811 0
M  V30 15727 H 1381.03 2.08817 3.48067 0
M  V30 15728 H 1381.79 4.27147 2.29718 0
M  V30 15729 H 1377.67 3.37803 3.13704 0
M  V30 15730 H 1381.22 6.66148 2.07105 0
M  V30 15731 H 1377.11 5.75967 2.91432 0
M  V30 15732 H 1377.88 7.79379 2.50022 0
M  V30 15733 N 1380.55 -0.980364 1.23396 0
M  V30 15734 C 1381.49 -2.07275 1.01516 0
M  V30 15735 C 1382.46 -1.65963 -0.0673729 0
M  V30 15736 O 1383.65 -1.90612 0.0847392 0
M  V30 15737 C 1380.79 -3.39621 0.61249 0
M  V30 15738 C 1379.9 -3.94203 1.76715 0
M  V30 15739 C 1379.04 -5.14761 1.31126 0
M  V30 15740 C 1378.07 -5.61509 2.43667 0
M  V30 15741 N 1377.21 -6.73297 1.99035 0
M  V30 15742 H 1382.05 -2.25325 1.9502 0
M  V30 15743 H 1379.59 -1.10452 0.971532 0
M  V30 15744 H 1381.55 -4.15643 0.360126 0
M  V30 15745 H 1380.18 -3.21535 -0.285539 0
M  V30 15746 H 1379.23 -3.14937 2.13352 0
M  V30 15747 H 1380.54 -4.24867 2.61323 0
M  V30 15748 H 1379.69 -5.98115 1.01702 0
M  V30 15749 H 1378.43 -4.85751 0.435555 0
M  V30 15750 H 1377.44 -4.76737 2.73865 0
M  V30 15751 H 1378.66 -5.92539 3.31774 0
M  V30 15752 H 1376.61 -6.46046 1.13845 0
M  V30 15753 H 1376.53 -7.03345 2.77203 0
M  V30 15754 H 1377.79 -7.60125 1.72716 0
M  V30 15755 N 1382.02 -1.04567 -1.17913 0
M  V30 15756 C 1382.95 -0.662066 -2.23917 0
M  V30 15757 C 1383.93 0.33713 -1.66726 0
M  V30 15758 O 1385.12 0.216116 -1.92994 0
M  V30 15759 C 1382.25 -0.029463 -3.47288 0
M  V30 15760 C 1381.2 -0.95274 -4.17261 0
M  V30 15761 C 1380.53 -0.184347 -5.34382 0
M  V30 15762 C 1381.83 -2.2741 -4.70194 0
M  V30 15763 H 1383.52 -1.54826 -2.5626 0
M  V30 15764 H 1381.07 -0.745886 -1.23177 0
M  V30 15765 H 1383.02 0.250654 -4.20654 0
M  V30 15766 H 1381.75 0.891638 -3.14193 0
M  V30 15767 H 1380.41 -1.21732 -3.45799 0
M  V30 15768 H 1380.05 0.73932 -4.97537 0
M  V30 15769 H 1379.75 -0.79949 -5.82136 0
M  V30 15770 H 1381.28 0.0886344 -6.10536 0
M  V30 15771 H 1382.69 -2.05433 -5.35229 0
M  V30 15772 H 1381.09 -2.84265 -5.28501 0
M  V30 15773 H 1382.16 -2.91708 -3.87342 0
M  V30 15774 N 1383.5 1.34231 -0.825823 0
M  V30 15775 C 1384.73 2.02124 -0.427727 0
M  V30 15776 C 1385.14 1.62331 0.971869 0
M  V30 15777 O 1384.48 0.825946 1.64085 0
M  V30 15778 C 1384.54 3.56626 -0.453698 0
M  V30 15779 C 1384.21 4.19752 -1.80713 0
M  V30 15780 C 1385.21 4.40062 -2.76842 0
M  V30 15781 C 1382.89 4.5646 -2.09641 0
M  V30 15782 C 1384.88 4.9621 -4.00069 0
M  V30 15783 C 1382.57 5.12318 -3.33127 0
M  V30 15784 C 1383.57 5.32137 -4.28158 0
M  V30 15785 O 1383.26 5.86811 -5.49462 0
M  V30 15786 H 1382.99 0.654389 -0.169563 0
M  V30 15787 H 1385.54 1.72421 -1.11624 0
M  V30 15788 H 1383.77 3.856 0.291527 0
M  V30 15789 H 1385.46 4.0583 -0.075249 0
M  V30 15790 H 1386.23 4.12064 -2.5579 0
M  V30 15791 H 1382.11 4.40337 -1.36473 0
M  V30 15792 H 1385.65 5.11594 -4.74254 0
M  V30 15793 H 1381.55 5.39746 -3.54041 0
M  V30 15794 H 1382.32 6.05242 -5.51022 0
M  V30 15795 N 1384.98 0.581051 1.46498 0
M  V30 15796 C 1385.91 -0.19094 2.28403 0
M  V30 15797 C 1386.92 -0.857039 1.38415 0
M  V30 15798 O 1388.11 -0.726881 1.6303 0
M  V30 15799 C 1385.21 -1.28972 3.134 0
M  V30 15800 C 1384.39 -0.715867 4.31502 0
M  V30 15801 C 1383.45 -1.70215 4.97909 0
M  V30 15802 O 1382.47 -1.23885 5.55555 0
M  V30 15803 N 1383.67 -3.0362 4.94768 0
M  V30 15804 H 1386.44 0.511754 2.95298 0
M  V30 15805 H 1384 0.41871 1.56392 0
M  V30 15806 H 1385.99 -1.94877 3.5469 0
M  V30 15807 H 1384.56 -1.8953 2.4859 0
M  V30 15808 H 1383.78 0.120591 3.94016 0
M  V30 15809 H 1385.07 -0.312226 5.07841 0
M  V30 15810 H 1384.47 -3.43885 4.49177 0
M  V30 15811 H 1383.02 -3.65018 5.40005 0
M  V30 15812 N 1386.46 -1.54343 0.318742 0
M  V30 15813 C 1387.39 -2.21652 -0.583351 0
M  V30 15814 C 1388.4 -1.21494 -1.08366 0
M  V30 15815 O 1389.59 -1.4799 -0.998064 0
M  V30 15816 C 1386.69 -2.86349 -1.81266 0
M  V30 15817 C 1385.86 -4.12601 -1.45186 0
M  V30 15818 C 1384.92 -4.60937 -2.53818 0
M  V30 15819 O 1383.95 -5.25731 -2.18164 0
M  V30 15820 N 1385.15 -4.34755 -3.84667 0
M  V30 15821 H 1387.92 -2.99699 -0.00703539 0
M  V30 15822 H 1385.48 -1.61278 0.141728 0
M  V30 15823 H 1387.47 -3.15611 -2.53321 0
M  V30 15824 H 1386.04 -2.12037 -2.29693 0
M  V30 15825 H 1385.26 -3.90157 -0.563143 0
M  V30 15826 H 1386.55 -4.94774 -1.18642 0
M  V30 15827 H 1385.95 -3.82883 -4.16434 0
M  V30 15828 H 1384.5 -4.68683 -4.52967 0
M  V30 15829 N 1387.94 -0.0468143 -1.5753 0
M  V30 15830 C 1388.88 0.929065 -2.11275 0
M  V30 15831 C 1389.85 1.31166 -1.01905 0
M  V30 15832 O 1391.04 1.40189 -1.29428 0
M  V30 15833 C 1388.18 2.20012 -2.65873 0
M  V30 15834 C 1387.29 1.8724 -3.89314 0
M  V30 15835 C 1386.43 3.08772 -4.32242 0
M  V30 15836 C 1385.46 2.719 -5.48395 0
M  V30 15837 N 1384.6 3.86112 -5.86397 0
M  V30 15838 H 1389.44 0.463854 -2.94368 0
M  V30 15839 H 1386.98 0.217338 -1.45486 0
M  V30 15840 H 1388.94 2.94383 -2.95626 0
M  V30 15841 H 1387.57 2.64118 -1.85584 0
M  V30 15842 H 1386.62 1.03037 -3.6618 0
M  V30 15843 H 1387.93 1.56096 -4.73746 0
M  V30 15844 H 1387.08 3.91446 -4.63525 0
M  V30 15845 H 1385.82 3.4309 -3.46613 0
M  V30 15846 H 1384.83 1.87642 -5.16789 0
M  V30 15847 H 1386.05 2.38779 -6.35737 0
M  V30 15848 H 1384 4.2024 -5.03721 0
M  V30 15849 H 1383.92 3.58652 -6.65511 0
M  V30 15850 H 1385.18 4.69438 -6.22293 0
M  V30 15851 N 1389.41 1.55964 0.226527 0
M  V30 15852 C 1390.34 1.95028 1.284 0
M  V30 15853 C 1391.33 0.817833 1.49149 0
M  V30 15854 O 1392.51 1.07975 1.61416 0
M  V30 15855 C 1389.64 2.26266 2.63478 0
M  V30 15856 C 1388.59 3.41954 2.57393 0
M  V30 15857 C 1387.92 3.58786 3.96456 0
M  V30 15858 C 1389.22 4.77069 2.12608 0
M  V30 15859 H 1390.91 2.83608 0.959513 0
M  V30 15860 H 1388.46 1.36451 0.460125 0
M  V30 15861 H 1390.41 2.52186 3.3761 0
M  V30 15862 H 1389.14 1.34533 2.97604 0
M  V30 15863 H 1387.8 3.16076 1.85719 0
M  V30 15864 H 1387.44 2.64437 4.27881 0
M  V30 15865 H 1387.14 4.36595 3.93267 0
M  V30 15866 H 1388.67 3.87048 4.72256 0
M  V30 15867 H 1390.08 5.02226 2.76481 0
M  V30 15868 H 1388.48 5.58126 2.2049 0
M  V30 15869 H 1389.55 4.7276 1.07823 0
M  V30 15870 N 1390.89 -0.493031 1.4969 0
M  V30 15871 C 1392.14 -1.2433 1.58823 0
M  V30 15872 C 1392.45 -1.9353 0.283823 0
M  V30 15873 O 1393.66 -2.70311 0.253801 0
M  V30 15874 C 1392.12 -2.25792 2.8026 0
M  V30 15875 C 1391.72 -1.62496 4.17491 0
M  V30 15876 C 1393.47 -3.01598 2.98729 0
M  V30 15877 C 1391.38 -2.62115 5.30141 0
M  V30 15878 H 1390.31 -0.467738 0.591386 0
M  V30 15879 H 1392.96 -0.516238 1.76089 0
M  V30 15880 H 1391.34 -3.01696 2.56506 0
M  V30 15881 H 1392.51 -0.925305 4.51414 0
M  V30 15882 H 1390.83 -0.990516 4.04447 0
M  V30 15883 H 1393.42 -3.76111 3.80058 0
M  V30 15884 H 1393.77 -3.59687 2.09597 0
M  V30 15885 H 1394.3 -2.32809 3.2256 0
M  V30 15886 H 1391.04 -2.08797 6.21357 0
M  V30 15887 H 1390.56 -3.30298 5.00663 0
M  V30 15888 H 1392.24 -3.24385 5.59807 0
M  V30 15889 N 1392.37 -1.38898 -0.744656 0
M  V30 15890 C 1393.28 -1.39098 -1.88915 0
M  V30 15891 C 1394.3 -0.286956 -1.71617 0
M  V30 15892 O 1395.47 -0.526852 -1.94387 0
M  V30 15893 C 1392.54 -1.22352 -3.24393 0
M  V30 15894 C 1391.6 -2.4264 -3.54153 0
M  V30 15895 C 1390.83 -2.26683 -4.83167 0
M  V30 15896 O 1391.05 -1.26523 -5.56191 0
M  V30 15897 O 1389.99 -3.15464 -5.12607 0
M  V30 15898 H 1393.81 -2.35551 -1.91701 0
M  V30 15899 H 1391.4 -1.19911 -0.891158 0
M  V30 15900 H 1393.28 -1.15109 -4.05374 0
M  V30 15901 H 1391.96 -0.289886 -3.22399 0
M  V30 15902 H 1390.86 -2.55459 -2.73298 0
M  V30 15903 H 1392.2 -3.34664 -3.60917 0
M  V30 15904 N 1393.85 0.973806 -1.23914 0
M  V30 15905 C 1395.07 1.7564 -1.10296 0
M  V30 15906 C 1395.5 1.84984 0.340954 0
M  V30 15907 O 1394.86 1.31629 1.24674 0
M  V30 15908 C 1394.9 3.15809 -1.7406 0
M  V30 15909 O 1394.01 3.99911 -1.00722 0
M  V30 15910 H 1393.35 0.540133 -0.386202 0
M  V30 15911 H 1395.88 1.22197 -1.64101 0
M  V30 15912 H 1395.89 3.66359 -1.79568 0
M  V30 15913 H 1394.56 3.08324 -2.79122 0
M  V30 15914 H 1393.14 3.58405 -1.02956 0
M  V30 15915 N 1395.33 1.05191 1.17357 0
M  V30 15916 C 1396.56 0.781238 1.9126 0
M  V30 15917 C 1396.96 -0.66688 1.77057 0
M  V30 15918 O 1396.31 -1.4673 1.10526 0
M  V30 15919 C 1396.37 1.08225 3.42823 0
M  V30 15920 C 1396.03 2.52655 3.80808 0
M  V30 15921 C 1397.03 3.50864 3.83654 0
M  V30 15922 C 1394.72 2.87664 4.11771 0
M  V30 15923 C 1396.71 4.82127 4.16932 0
M  V30 15924 C 1394.4 4.1913 4.44717 0
M  V30 15925 C 1395.39 5.16172 4.47276 0
M  V30 15926 O 1395.08 6.4528 4.79447 0
M  V30 15927 H 1394.81 0.283516 0.613673 0
M  V30 15928 H 1397.37 1.40577 1.49758 0
M  V30 15929 H 1395.6 0.400623 3.84619 0
M  V30 15930 H 1397.29 0.797593 3.97987 0
M  V30 15931 H 1398.05 3.25158 3.59857 0
M  V30 15932 H 1393.93 2.12793 4.0895 0
M  V30 15933 H 1397.48 5.57867 4.18844 0
M  V30 15934 H 1393.37 4.44599 4.67976 0
M  V30 15935 H 1394.14 6.50101 4.97304 0
M  V30 15936 N 1396.8 -1.33791 0.83293 0
M  V30 15937 C 1398.03 -2.01894 0.43844 0
M  V30 15938 C 1398.44 -1.62844 -0.963247 0
M  V30 15939 O 1397.79 -0.834636 -1.63644 0
M  V30 15940 C 1397.85 -3.5638 0.472604 0
M  V30 15941 C 1397.51 -4.18788 1.82937 0
M  V30 15942 C 1398.51 -4.38588 2.79172 0
M  V30 15943 C 1396.19 -4.55342 2.12058 0
M  V30 15944 C 1398.19 -4.94081 4.02694 0
M  V30 15945 C 1395.87 -5.10544 3.35839 0
M  V30 15946 C 1396.87 -5.29859 4.30974 0
M  V30 15947 O 1396.56 -5.83889 5.52566 0
M  V30 15948 H 1396.29 -0.65348 0.173031 0
M  V30 15949 H 1398.85 -1.71827 1.12537 0
M  V30 15950 H 1397.08 -3.85749 -0.271074 0
M  V30 15951 H 1398.77 -4.05785 0.0967701 0
M  V30 15952 H 1399.53 -4.10701 2.57972 0
M  V30 15953 H 1395.41 -4.39607 1.38806 0
M  V30 15954 H 1398.95 -5.09072 4.7696 0
M  V30 15955 H 1394.85 -5.3786 3.56898 0
M  V30 15956 H 1395.62 -6.02311 5.54224 0
M  V30 15957 N 1398.28 -0.588812 -1.46187 0
M  V30 15958 C 1399.23 0.161973 -2.27424 0
M  V30 15959 C 1400.22 0.856178 -1.36229 0
M  V30 15960 O 1401.41 0.749266 -1.60359 0
M  V30 15961 C 1398.54 1.17104 -3.2271 0
M  V30 15962 C 1397.62 0.478637 -4.2139 0
M  V30 15963 N 1398.01 -0.46921 -5.03619 0
M  V30 15964 C 1396.31 0.728608 -4.40008 0
M  V30 15965 C 1397.01 -0.874455 -5.7509 0
M  V30 15966 N 1395.99 -0.222267 -5.43145 0
M  V30 15967 H 1399.79 -0.566306 -2.88392 0
M  V30 15968 H 1397.31 -0.41106 -1.57112 0
M  V30 15969 H 1399.3 1.72314 -3.79623 0
M  V30 15970 H 1397.96 1.90008 -2.63301 0
M  V30 15971 H 1398.97 -0.84504 -5.10959 0
M  V30 15972 H 1395.65 1.44375 -3.91742 0
M  V30 15973 H 1397.04 -1.65514 -6.51195 0
M  V30 15974 N 1399.76 1.54172 -0.326923 0
M  V30 15975 C 1401.01 2.00926 0.275047 0
M  V30 15976 C 1401.34 1.21469 1.51522 0
M  V30 15977 O 1400.61 0.297871 1.92206 0
M  V30 15978 C 1400.9 3.54967 0.605833 0
M  V30 15979 C 1400.75 4.45147 -0.645279 0
M  V30 15980 C 1402.07 4.16489 1.42213 0
M  V30 15981 H 1399.19 0.730389 0.098495 0
M  V30 15982 H 1401.83 1.84735 -0.444168 0
M  V30 15983 H 1399.98 3.68895 1.21857 0
M  V30 15984 H 1401.65 4.43085 -1.2835 0
M  V30 15985 H 1399.9 4.14686 -1.27349 0
M  V30 15986 H 1400.57 5.50763 -0.36932 0
M  V30 15987 H 1403.04 4.06158 0.904172 0
M  V30 15988 H 1401.92 5.24377 1.62234 0
M  V30 15989 H 1402.18 3.70032 2.41928 0
M  V30 15990 N 1401.24 0.0551678 1.57503 0
M  V30 15991 C 1402.52 -0.657808 1.84207 0
M  V30 15992 C 1402.9 -1.88798 0.944372 0
M  V30 15993 O 1402.24 -2.28499 0.00641728 0
M  V30 15994 C 1402.45 -1.0113 3.34026 0
M  V30 15995 C 1403.8 -1.39189 4.01138 0
M  V30 15996 O 1404.83 -1.10353 3.38675 0
M  V30 15997 O 1403.68 -1.93023 5.11277 0
M  V30 15998 H 1400.78 -0.325084 0.760427 0
M  V30 15999 H 1403.32 0.0848352 1.69488 0
M  V30 16000 H 1402.1 -0.13688 3.91061 0
M  V30 16001 H 1401.72 -1.81126 3.53948 0
M  V30 16002 N 1402.72 -1.56081 -0.218252 0
M  V30 16003 C 1403.66 -1.92684 -1.27049 0
M  V30 16004 C 1404.63 -0.784441 -1.46409 0
M  V30 16005 O 1405.82 -1.04062 -1.59924 0
M  V30 16006 C 1402.96 -2.25174 -2.61516 0
M  V30 16007 C 1402.07 -3.52364 -2.49927 0
M  V30 16008 C 1401.21 -3.74286 -3.7694 0
M  V30 16009 C 1400.25 -4.94979 -3.60087 0
M  V30 16010 N 1399.38 -5.13273 -4.79057 0
M  V30 16011 H 1404.22 -2.82406 -0.951347 0
M  V30 16012 H 1401.76 -1.39774 -0.458441 0
M  V30 16013 H 1403.72 -2.42022 -3.39825 0
M  V30 16014 H 1402.35 -1.38621 -2.9152 0
M  V30 16015 H 1401.4 -3.43691 -1.63036 0
M  V30 16016 H 1402.71 -4.40826 -2.33397 0
M  V30 16017 H 1401.87 -3.91248 -4.63692 0
M  V30 16018 H 1400.6 -2.84111 -3.96399 0
M  V30 16019 H 1399.61 -4.77963 -2.71719 0
M  V30 16020 H 1400.83 -5.86641 -3.42095 0
M  V30 16021 H 1398.78 -4.26041 -4.98824 0
M  V30 16022 H 1398.7 -5.95873 -4.65265 0
M  V30 16023 H 1399.97 -5.34673 -5.67226 0
M  V30 16024 N 1404.2 0.485086 -1.49949 0
M  V30 16025 C 1405.43 1.25996 -1.63733 0
M  V30 16026 C 1405.83 1.8657 -0.31435 0
M  V30 16027 O 1405.18 1.69336 0.71211 0
M  V30 16028 C 1405.24 2.41842 -2.65994 0
M  V30 16029 C 1404.9 2.02014 -4.09926 0
M  V30 16030 C 1405.9 1.55068 -4.96236 0
M  V30 16031 C 1403.58 2.11162 -4.55759 0
M  V30 16032 C 1405.58 1.17796 -6.26421 0
M  V30 16033 C 1403.27 1.73501 -5.85953 0
M  V30 16034 C 1404.26 1.26894 -6.71109 0
M  V30 16035 O 1403.95 0.89749 -7.98874 0
M  V30 16036 H 1403.68 0.387743 -0.553743 0
M  V30 16037 H 1406.24 0.5871 -1.96831 0
M  V30 16038 H 1404.47 3.12254 -2.2811 0
M  V30 16039 H 1406.16 3.03837 -2.69143 0
M  V30 16040 H 1406.92 1.47434 -4.62048 0
M  V30 16041 H 1402.8 2.46389 -3.89633 0
M  V30 16042 H 1406.35 0.813467 -6.92841 0
M  V30 16043 H 1402.24 1.8079 -6.19665 0
M  V30 16044 H 1403.01 1.02757 -8.12024 0
M  V30 16045 N 1405.67 1.39291 0.737279 0
M  V30 16046 C 1406.9 1.39844 1.53162 0
M  V30 16047 C 1407.32 -0.00568546 1.88099 0
M  V30 16048 O 1406.68 -0.992085 1.51748 0
M  V30 16049 C 1406.73 2.27577 2.79716 0
M  V30 16050 O 1405.83 1.70408 3.75546 0
M  V30 16051 H 1405.17 0.476314 0.462624 0
M  V30 16052 H 1407.7 1.83258 0.909819 0
M  V30 16053 H 1407.71 2.42009 3.28475 0
M  V30 16054 H 1406.39 3.29621 2.53619 0
M  V30 16055 H 1404.97 1.65206 3.34307 0
M  V30 16056 N 1407.15 -0.967221 1.24429 0
M  V30 16057 C 1408.1 -2.047 1.00409 0
M  V30 16058 C 1409.09 -1.60807 -0.0546412 0
M  V30 16059 O 1410.28 -1.76283 0.159145 0
M  V30 16060 C 1407.41 -3.37813 0.611345 0
M  V30 16061 C 1406.49 -3.88266 1.70618 0
M  V30 16062 N 1406.88 -4.1165 2.93901 0
M  V30 16063 C 1405.18 -4.16931 1.5838 0
M  V30 16064 C 1405.88 -4.53032 3.64879 0
M  V30 16065 N 1404.86 -4.58233 2.92444 0
M  V30 16066 H 1408.66 -2.20755 1.94021 0
M  V30 16067 H 1406.17 -1.15105 1.14562 0
M  V30 16068 H 1408.17 -4.14774 0.420493 0
M  V30 16069 H 1406.83 -3.23143 -0.317588 0
M  V30 16070 H 1407.84 -3.99087 3.30075 0
M  V30 16071 H 1404.52 -4.11193 0.722929 0
M  V30 16072 H 1405.91 -4.79533 4.70635 0
M  V30 16073 N 1408.63 -1.05812 -1.16797 0
M  V30 16074 C 1409.58 -0.634669 -2.18988 0
M  V30 16075 C 1410.56 0.332122 -1.57435 0
M  V30 16076 O 1411.76 0.148346 -1.76377 0
M  V30 16077 C 1408.88 -0.0174742 -3.43296 0
M  V30 16078 C 1407.97 -1.00847 -4.11935 0
M  V30 16079 N 1408.36 -2.18223 -4.56303 0
M  V30 16080 C 1406.66 -0.838325 -4.3805 0
M  V30 16081 C 1407.36 -2.80967 -5.09345 0
M  V30 16082 N 1406.34 -2.08725 -5.01931 0
M  V30 16083 H 1410.14 -1.52888 -2.51003 0
M  V30 16084 H 1407.65 -0.929125 -1.33195 0
M  V30 16085 H 1409.65 0.303692 -4.15792 0
M  V30 16086 H 1408.31 0.872052 -3.1277 0
M  V30 16087 H 1409.32 -2.56025 -4.5019 0
M  V30 16088 H 1406 -0.000376066 -4.175 0
M  V30 16089 H 1407.39 -3.80541 -5.53749 0
M  V30 16090 N 1410.11 1.33347 -0.840014 0
M  V30 16091 C 1411.34 2.01659 -0.449141 0
M  V30 16092 C 1411.75 1.63353 0.954597 0
M  V30 16093 O 1411.09 0.843303 1.632 0
M  V30 16094 C 1411.15 3.56124 -0.491497 0
M  V30 16095 C 1410.81 4.17812 -1.85155 0
M  V30 16096 C 1411.81 4.37101 -2.81494 0
M  V30 16097 C 1409.5 4.54211 -2.1447 0
M  V30 16098 C 1411.49 4.91938 -4.05309 0
M  V30 16099 C 1409.18 5.08756 -3.38542 0
M  V30 16100 C 1410.18 5.27566 -4.33778 0
M  V30 16101 O 1409.86 5.8095 -5.55655 0
M  V30 16102 H 1409.6 0.652553 -0.176494 0
M  V30 16103 H 1412.15 1.71228 -1.13447 0
M  V30 16104 H 1410.38 3.85887 0.250613 0
M  V30 16105 H 1412.07 4.05728 -0.118288 0
M  V30 16106 H 1412.83 4.09328 -2.60146 0
M  V30 16107 H 1408.71 4.38864 -1.41135 0
M  V30 16108 H 1412.26 5.06536 -4.79654 0
M  V30 16109 H 1408.15 5.3596 -3.59746 0
M  V30 16110 H 1408.92 5.99363 -5.5741 0
M  V30 16111 N 1411.59 0.596556 1.45873 0
M  V30 16112 C 1412.5 -0.130832 2.34235 0
M  V30 16113 C 1413.51 -0.871805 1.50584 0
M  V30 16114 O 1414.69 -0.831877 1.83417 0
M  V30 16115 C 1411.75 -1.12279 3.28016 0
M  V30 16116 C 1410.81 -0.384982 4.2757 0
M  V30 16117 C 1410.05 -1.32969 5.1687 0
M  V30 16118 O 1410.27 -2.56696 5.09375 0
M  V30 16119 O 1409.2 -0.832741 5.96112 0
M  V30 16120 H 1413.03 0.59503 2.97814 0
M  V30 16121 H 1410.61 0.356873 1.45075 0
M  V30 16122 H 1412.5 -1.6944 3.85834 0
M  V30 16123 H 1411.17 -1.82988 2.67015 0
M  V30 16124 H 1410.08 0.228816 3.734 0
M  V30 16125 H 1411.41 0.281398 4.91395 0
M  V30 16126 N 1413.06 -1.53996 0.335095 0
M  V30 16127 C 1414.29 -2.05188 -0.26563 0
M  V30 16128 C 1414.71 -1.21058 -1.44881 0
M  V30 16129 O 1414.06 -0.243919 -1.80863 0
M  V30 16130 C 1414.11 -3.54875 -0.688904 0
M  V30 16131 O 1413.84 -4.35811 0.447217 0
M  V30 16132 C 1415.34 -4.22204 -1.35123 0
M  V30 16133 H 1412.56 -0.668921 -0.0527806 0
M  V30 16134 H 1415.1 -1.98675 0.48463 0
M  V30 16135 H 1413.26 -3.61638 -1.38912 0
M  V30 16136 H 1413.67 -5.24381 0.111495 0
M  V30 16137 H 1415.14 -5.28356 -1.59823 0
M  V30 16138 H 1415.62 -3.74029 -2.30216 0
M  V30 16139 H 1416.23 -4.19611 -0.693283 0
M  V30 16140 N 1414.54 -0.0635198 -1.57472 0
M  V30 16141 C 1415.77 0.615841 -1.97208 0
M  V30 16142 C 1416.18 1.64181 -0.940281 0
M  V30 16143 O 1415.52 1.83515 0.0824321 0
M  V30 16144 C 1415.58 1.34908 -3.33227 0
M  V30 16145 C 1415.25 0.477535 -4.54498 0
M  V30 16146 C 1416.25 -0.261479 -5.19242 0
M  V30 16147 C 1413.93 0.404839 -5.00666 0
M  V30 16148 C 1415.92 -1.0615 -6.28499 0
M  V30 16149 C 1413.61 -0.398859 -6.09797 0
M  V30 16150 C 1414.61 -1.1307 -6.73576 0
M  V30 16151 O 1414.3 -1.92116 -7.80607 0
M  V30 16152 H 1414.03 0.172273 -0.65368 0
M  V30 16153 H 1416.58 -0.129963 -2.04988 0
M  V30 16154 H 1414.81 2.14078 -3.22036 0
M  V30 16155 H 1416.5 1.91988 -3.57625 0
M  V30 16156 H 1417.27 -0.214859 -4.84524 0
M  V30 16157 H 1413.15 0.964087 -4.50806 0
M  V30 16158 H 1416.69 -1.63324 -6.78212 0
M  V30 16159 H 1412.59 -0.447073 -6.4395 0
M  V30 16160 H 1413.36 -1.84459 -7.97444 0
M  V30 16161 N 1416.02 1.56195 0.209972 0
M  V30 16162 C 1417.25 1.8384 0.949228 0
M  V30 16163 C 1417.66 0.644141 1.77472 0
M  V30 16164 O 1417.02 -0.387276 1.78344 0
M  V30 16165 C 1417.07 3.10131 1.85745 0
M  V30 16166 O 1416.79 4.2495 1.06531 0
M  V30 16167 C 1418.29 3.50847 2.70963 0
M  V30 16168 H 1415.51 0.610856 0.277662 0
M  V30 16169 H 1418.06 2.03295 0.221708 0
M  V30 16170 H 1416.21 2.92618 2.53877 0
M  V30 16171 H 1416.63 4.96769 1.68287 0
M  V30 16172 H 1418.1 4.4222 3.30372 0
M  V30 16173 H 1418.58 2.73139 3.43936 0
M  V30 16174 H 1419.18 3.7084 2.08226 0
M  V30 16175 N 1417.5 -0.477127 1.50204 0
M  V30 16176 C 1418.43 -1.58405 1.71552 0
M  V30 16177 C 1419.41 -1.60463 0.564413 0
M  V30 16178 O 1420.59 -1.76826 0.802893 0
M  V30 16179 C 1417.72 -2.96765 1.8041 0
M  V30 16180 C 1416.68 -3.09573 2.95548 0
M  V30 16181 C 1416 -4.49522 2.89542 0
M  V30 16182 C 1417.3 -2.87356 4.36147 0
M  V30 16183 H 1419 -1.40792 2.64231 0
M  V30 16184 H 1416.54 -0.675886 1.27153 0
M  V30 16185 H 1418.5 -3.74125 1.9393 0
M  V30 16186 H 1417.22 -3.1552 0.843489 0
M  V30 16187 H 1415.88 -2.34645 2.81669 0
M  V30 16188 H 1415.53 -4.65186 1.91339 0
M  V30 16189 H 1415.23 -4.59028 3.66834 0
M  V30 16190 H 1416.75 -5.28909 3.05102 0
M  V30 16191 H 1418.17 -3.54469 4.50583 0
M  V30 16192 H 1416.56 -3.08313 5.14843 0
M  V30 16193 H 1417.63 -1.83264 4.48935 0
M  V30 16194 N 1418.98 -1.3968 -0.729882 0
M  V30 16195 C 1419.92 -1.3896 -1.86528 0
M  V30 16196 C 1420.92 -0.272027 -1.67202 0
M  V30 16197 O 1422.12 -0.442328 -1.74481 0
M  V30 16198 H 1418.5 -0.434045 -0.614092 0
M  V30 16199 H 1420.47 -2.34721 -1.84252 0
M  V30 16200 C 1419.22 -1.255 -3.24261 0
M  V30 16201 H 1418.54 -2.10767 -3.39731 0
M  V30 16202 H 1419.98 -1.29054 -4.03882 0
M  V30 16203 C 1418.44 0.0361127 -3.36881 0
M  V30 16204 O 1418.97 1.0044 -3.8894 0
M  V30 16205 N 1417.18 0.100874 -2.90425 0
M  V30 16206 H 1416.72 -0.687797 -2.48248 0
M  V30 16207 H 1416.68 0.964251 -2.99248 0
M  V30 16208 N 1420.45 0.960609 -1.2494 0
M  V30 16209 C 1421.7 1.69884 -1.08731 0
M  V30 16210 C 1422.02 1.92018 0.372602 0
M  V30 16211 O 1423.22 2.6348 0.655018 0
M  V30 16212 C 1421.68 3.05815 -1.8975 0
M  V30 16213 C 1421.29 2.91498 -3.40196 0
M  V30 16214 C 1423.03 3.83462 -1.82092 0
M  V30 16215 C 1420.94 4.22783 -4.13532 0
M  V30 16216 H 1419.87 0.637087 -0.403281 0
M  V30 16217 H 1422.52 1.06987 -1.49084 0
M  V30 16218 H 1420.9 3.69582 -1.42216 0
M  V30 16219 H 1422.07 2.367 -3.9536 0
M  V30 16220 H 1420.39 2.27312 -3.48882 0
M  V30 16221 H 1422.99 4.8069 -2.34181 0
M  V30 16222 H 1423.33 4.08782 -0.787597 0
M  V30 16223 H 1423.86 3.26435 -2.27344 0
M  V30 16224 H 1420.6 4.02653 -5.17253 0
M  V30 16225 H 1420.12 4.77369 -3.63152 0
M  V30 16226 H 1421.8 4.91361 -4.2092 0
M  V30 16227 N 1421.93 1.0643 1.16234 0
M  V30 16228 C 1423.35 0.78802 1.38789 0
M  V30 16229 C 1423.55 -0.612019 1.91981 0
M  V30 16230 O 1422.6 -1.37235 2.1195 0
M  V30 16231 C 1423.92 1.85406 2.36738 0
M  V30 16232 C 1425.47 1.87773 2.5042 0
M  V30 16233 C 1425.94 2.93435 3.51653 0
M  V30 16234 N 1427.43 2.92477 3.59181 0
M  V30 16235 C 1428.17 3.7088 4.37305 0
M  V30 16236 N 1427.66 4.59106 5.18839 0
M  V30 16237 N 1429.46 3.59267 4.32301 0
M  V30 16238 H 1421.61 1.9674 0.800449 0
M  V30 16239 H 1423.87 0.852631 0.414397 0
M  V30 16240 H 1423.58 2.85954 2.04751 0
M  V30 16241 H 1423.45 1.70625 3.36403 0
M  V30 16242 H 1425.84 0.878825 2.8171 0
M  V30 16243 H 1425.92 2.06633 1.50787 0
M  V30 16244 H 1425.56 3.93519 3.211 0
M  V30 16245 H 1425.49 2.71824 4.5102 0
M  V30 16246 H 1427.98 2.28517 3.00979 0
M  V30 16247 H 1428.3 5.15583 5.75668 0
M  V30 16248 H 1426.64 4.6316 5.18177 0
M  V30 16249 H 1429.83 2.89726 3.67663 0
M  V30 16250 H 1430 4.20613 4.92939 0
M  V30 16251 N 1423.41 -1.329 0.847073 0
M  V30 16252 C 1424.83 -1.50333 0.53593 0
M  V30 16253 C 1425.03 -1.78492 -0.93504 0
M  V30 16254 O 1424.08 -1.85001 -1.71846 0
M  V30 16255 C 1425.4 -2.65254 1.41636 0
M  V30 16256 C 1426.94 -2.79139 1.416 0
M  V30 16257 C 1427.42 -3.97131 2.28147 0
M  V30 16258 N 1428.91 -4.0438 2.25901 0
M  V30 16259 C 1429.64 -4.94893 2.89601 0
M  V30 16260 N 1429.14 -5.90466 3.62383 0
M  V30 16261 N 1430.93 -4.87955 2.79028 0
M  V30 16262 H 1423.08 -1.12886 1.79918 0
M  V30 16263 H 1425.35 -0.555707 0.768045 0
M  V30 16264 H 1425.05 -2.51151 2.46203 0
M  V30 16265 H 1424.93 -3.60856 1.09829 0
M  V30 16266 H 1427.31 -2.92669 0.378013 0
M  V30 16267 H 1427.4 -1.84273 1.77418 0
M  V30 16268 H 1427.04 -3.8436 3.32009 0
M  V30 16269 H 1426.97 -4.91258 1.89665 0
M  V30 16270 H 1429.46 -3.35986 1.72979 0
M  V30 16271 H 1429.77 -6.56212 4.08174 0
M  V30 16272 H 1428.12 -5.90516 3.66491 0
M  V30 16273 H 1431.31 -4.12258 2.21723 0
M  V30 16274 H 1431.48 -5.58295 3.28954 0
M  V30 16275 N 1424.89 -0.604284 -1.45555 0
M  V30 16276 C 1425.84 0.116491 -2.30506 0
M  V30 16277 C 1426.81 0.863214 -1.41908 0
M  V30 16278 O 1427.99 0.849606 -1.7084 0
M  V30 16279 C 1425.13 1.11009 -3.26758 0
M  V30 16280 C 1424.24 0.36458 -4.30459 0
M  V30 16281 C 1423.38 1.34761 -5.13822 0
M  V30 16282 C 1422.42 0.589724 -6.09253 0
M  V30 16283 N 1421.55 1.52187 -6.85408 0
M  V30 16284 H 1426.39 -0.61394 -2.91607 0
M  V30 16285 H 1423.93 -0.314561 -1.43697 0
M  V30 16286 H 1425.89 1.69925 -3.81027 0
M  V30 16287 H 1424.52 1.80797 -2.67418 0
M  V30 16288 H 1423.57 -0.340026 -3.78877 0
M  V30 16289 H 1424.88 -0.226906 -4.98284 0
M  V30 16290 H 1424.04 2.00893 -5.72474 0
M  V30 16291 H 1422.78 1.97302 -4.46008 0
M  V30 16292 H 1421.78 -0.0852486 -5.49734 0
M  V30 16293 H 1423.01 -0.0306001 -6.79093 0
M  V30 16294 H 1420.95 2.13499 -6.20286 0
M  V30 16295 H 1420.87 0.983737 -7.49572 0
M  V30 16296 H 1422.14 2.17287 -7.48603 0
M  V30 16297 N 1426.37 1.53816 -0.343257 0
M  V30 16298 C 1427.31 2.25011 0.513664 0
M  V30 16299 C 1428.28 1.24827 1.09578 0
M  V30 16300 O 1429.47 1.53558 1.13245 0
M  V30 16301 C 1426.61 3.02616 1.65885 0
M  V30 16302 C 1425.72 4.17653 1.10406 0
M  V30 16303 C 1424.86 4.82746 2.21653 0
M  V30 16304 C 1423.9 5.89853 1.63524 0
M  V30 16305 N 1423.03 6.48726 2.68512 0
M  V30 16306 H 1427.87 2.97832 -0.099997 0
M  V30 16307 H 1425.41 1.46973 -0.0611206 0
M  V30 16308 H 1427.37 3.45868 2.33304 0
M  V30 16309 H 1426 2.32092 2.2435 0
M  V30 16310 H 1425.05 3.79045 0.320819 0
M  V30 16311 H 1426.36 4.94691 0.638887 0
M  V30 16312 H 1425.52 5.29068 2.96938 0
M  V30 16313 H 1424.25 4.05131 2.71515 0
M  V30 16314 H 1423.26 5.42914 0.86745 0
M  V30 16315 H 1424.48 6.69375 1.14515 0
M  V30 16316 H 1422.43 5.73975 3.17629 0
M  V30 16317 H 1422.35 7.21236 2.26616 0
M  V30 16318 H 1423.62 6.99701 3.43567 0
M  V30 16319 N 1427.84 0.0718701 1.57436 0
M  V30 16320 C 1429.07 -0.605374 1.97532 0
M  V30 16321 C 1429.48 -1.6368 0.948974 0
M  V30 16322 O 1428.83 -1.83556 -0.0726987 0
M  V30 16323 C 1428.89 -1.33139 3.33937 0
M  V30 16324 C 1428.55 -0.453426 4.54745 0
M  V30 16325 C 1429.55 0.289012 5.19096 0
M  V30 16326 C 1427.23 -0.378282 5.00874 0
M  V30 16327 C 1429.23 1.09482 6.27927 0
M  V30 16328 C 1426.91 0.431192 6.09577 0
M  V30 16329 C 1427.91 1.16641 6.72966 0
M  V30 16330 O 1427.6 1.96253 7.79577 0
M  V30 16331 H 1427.33 -0.168804 0.654585 0
M  V30 16332 H 1429.89 0.140832 2.04917 0
M  V30 16333 H 1428.12 -2.12367 3.23167 0
M  V30 16334 H 1429.81 -1.90089 3.58638 0
M  V30 16335 H 1430.57 0.240552 4.84403 0
M  V30 16336 H 1426.45 -0.940166 4.51311 0
M  V30 16337 H 1429.99 1.66918 6.77336 0
M  V30 16338 H 1425.89 0.481217 6.43704 0
M  V30 16339 H 1426.66 1.88686 7.96455 0
M  V30 16340 N 1429.32 -1.56304 -0.201686 0
M  V30 16341 C 1430.27 -1.94901 -1.26949 0
M  V30 16342 C 1431.26 -0.833574 -1.47472 0
M  V30 16343 O 1432.47 -1.01854 -1.48411 0
M  V30 16344 H 1428.85 -0.619663 -0.426053 0
M  V30 16345 H 1430.82 -2.83964 -0.9169 0
M  V30 16346 C 1429.57 -2.29913 -2.60835 0
M  V30 16347 H 1428.89 -3.15268 -2.45858 0
M  V30 16348 H 1430.33 -2.60789 -3.34313 0
M  V30 16349 C 1428.79 -1.13136 -3.17335 0
M  V30 16350 O 1429.32 -0.402915 -3.99674 0
M  V30 16351 N 1427.52 -0.909912 -2.75987 0
M  V30 16352 H 1427.07 -1.50402 -2.09134 0
M  V30 16353 H 1427.03 -0.130348 -3.1413 0
M  V30 16354 N 1430.8 0.469154 -1.50455 0
M  V30 16355 C 1431.76 1.5493 -1.68906 0
M  V30 16356 C 1432.76 1.50744 -0.559721 0
M  V30 16357 O 1433.95 1.5333 -0.826781 0
M  V30 16358 C 1431.09 2.94556 -1.71609 0
M  V30 16359 H 1432.28 1.39887 -2.65276 0
M  V30 16360 H 1429.83 0.695667 -1.39965 0
M  V30 16361 H 1430.57 3.15041 -0.769382 0
M  V30 16362 H 1430.35 2.99002 -2.53654 0
M  V30 16363 H 1431.84 3.72973 -1.87831 0
M  V30 16364 N 1432.28 1.40065 0.722464 0
M  V30 16365 C 1433.21 1.42532 1.84951 0
M  V30 16366 C 1434.19 0.287082 1.6766 0
M  V30 16367 O 1435.37 0.494715 1.87793 0
M  V30 16368 C 1432.5 1.28041 3.22836 0
M  V30 16369 C 1431.46 2.39396 3.54787 0
M  V30 16370 C 1430.78 2.09986 4.91742 0
M  V30 16371 C 1432.08 3.81729 3.56483 0
M  V30 16372 H 1433.78 2.36851 1.83144 0
M  V30 16373 H 1431.32 1.14005 0.879714 0
M  V30 16374 H 1433.28 1.28385 4.01367 0
M  V30 16375 H 1432 0.301947 3.25201 0
M  V30 16376 H 1430.66 2.3829 2.78592 0
M  V30 16377 H 1430.31 1.10547 4.90702 0
M  V30 16378 H 1430.01 2.84586 5.14086 0
M  V30 16379 H 1431.53 2.12 5.72615 0
M  V30 16380 H 1432.95 3.84696 4.25067 0
M  V30 16381 H 1431.34 4.55791 3.90351 0
M  V30 16382 H 1432.41 4.11807 2.56014 0
M  V30 16383 N 1433.76 -0.95397 1.25448 0
M  V30 16384 C 1435 -1.70118 1.10399 0
M  V30 16385 C 1435.34 -1.90945 -0.354093 0
M  V30 16386 O 1434.61 -1.48088 -1.26096 0
M  V30 16387 C 1434.89 -3.08371 1.85955 0
M  V30 16388 C 1434.75 -2.9495 3.39595 0
M  V30 16389 C 1436.07 -4.08273 1.64321 0
M  V30 16390 H 1433.19 -0.617424 0.402438 0
M  V30 16391 H 1435.83 -1.10884 1.54288 0
M  V30 16392 H 1433.98 -3.58936 1.48651 0
M  V30 16393 H 1435.65 -2.51705 3.86578 0
M  V30 16394 H 1433.89 -2.30853 3.67273 0
M  V30 16395 H 1434.56 -3.92952 3.87676 0
M  V30 16396 H 1437.04 -3.6662 1.96796 0
M  V30 16397 H 1435.92 -5.03048 2.19622 0
M  V30 16398 H 1436.18 -4.38217 0.584685 0
M  V30 16399 N 1435.24 -1.07045 -1.15668 0
M  V30 16400 C 1436.18 -0.688004 -2.20307 0
M  V30 16401 C 1437.15 0.319081 -1.63006 0
M  V30 16402 O 1438.34 0.206239 -1.89682 0
M  V30 16403 C 1435.48 -0.0886692 -3.44986 0
M  V30 16404 C 1434.59 -1.14685 -4.16499 0
M  V30 16405 C 1433.73 -0.512852 -5.28719 0
M  V30 16406 C 1432.76 -1.55404 -5.92044 0
M  V30 16407 N 1431.9 -0.942848 -6.9574 0
M  V30 16408 H 1436.74 -1.58469 -2.52372 0
M  V30 16409 H 1434.28 -0.792184 -1.23947 0
M  V30 16410 H 1436.24 0.276415 -4.16283 0
M  V30 16411 H 1434.87 0.77139 -3.13448 0
M  V30 16412 H 1433.92 -1.62955 -3.43729 0
M  V30 16413 H 1435.23 -1.93643 -4.59678 0
M  V30 16414 H 1434.38 -0.0952274 -6.06625 0
M  V30 16415 H 1433.12 0.308524 -4.86723 0
M  V30 16416 H 1432.13 -1.98148 -5.12852 0
M  V30 16417 H 1433.35 -2.37765 -6.36117 0
M  V30 16418 H 1431.3 -0.142319 -6.55846 0
M  V30 16419 H 1431.22 -1.6697 -7.37331 0
M  V30 16420 H 1432.48 -0.550621 -7.77553 0
M  V30 16421 N 1436.71 1.32449 -0.85411 0
M  V30 16422 C 1437.94 2.01997 -0.470307 0
M  V30 16423 C 1438.36 1.63772 0.925225 0
M  V30 16424 O 1437.72 0.838089 1.60766 0
M  V30 16425 C 1437.77 3.55294 -0.616301 0
M  V30 16426 O 1436.87 4.10902 0.351133 0
M  V30 16427 H 1436.21 0.63651 -0.189079 0
M  V30 16428 H 1438.74 1.69008 -1.15315 0
M  V30 16429 H 1438.75 4.0488 -0.503624 0
M  V30 16430 H 1437.43 3.82459 -1.63396 0
M  V30 16431 H 1436.01 3.72391 0.194741 0
M  V30 16432 N 1438.19 0.611994 1.45232 0
M  V30 16433 C 1439.1 -0.105981 2.3436 0
M  V30 16434 C 1440.12 -0.855785 1.515 0
M  V30 16435 O 1441.29 -0.812376 1.84289 0
M  V30 16436 C 1438.36 -1.08794 3.29188 0
M  V30 16437 C 1437.42 -0.339611 4.27955 0
M  V30 16438 C 1436.65 -1.27479 5.18252 0
M  V30 16439 O 1436.88 -2.51279 5.12069 0
M  V30 16440 O 1435.81 -0.769469 5.96961 0
M  V30 16441 H 1439.64 0.626584 2.97166 0
M  V30 16442 H 1437.22 0.37224 1.44688 0
M  V30 16443 H 1439.1 -1.65338 3.8761 0
M  V30 16444 H 1437.78 -1.80145 2.68941 0
M  V30 16445 H 1436.68 0.268408 3.73136 0
M  V30 16446 H 1438.02 0.333501 4.91069 0
M  V30 16447 N 1439.67 -1.53632 0.351409 0
M  V30 16448 C 1440.62 -2.22041 -0.517867 0
M  V30 16449 C 1441.6 -1.21057 -1.0599 0
M  V30 16450 O 1442.8 -1.46569 -0.992298 0
M  V30 16451 C 1439.92 -3.00259 -1.66432 0
M  V30 16452 C 1439.01 -4.08607 -1.13584 0
M  V30 16453 N 1439.4 -5.04727 -0.329217 0
M  V30 16454 C 1437.7 -4.23059 -1.412 0
M  V30 16455 C 1438.4 -5.81685 -0.0415005 0
M  V30 16456 N 1437.38 -5.39875 -0.635288 0
M  V30 16457 H 1441.18 -2.93711 0.105386 0
M  V30 16458 H 1438.69 -1.61623 0.15868 0
M  V30 16459 H 1440.69 -3.47774 -2.29911 0
M  V30 16460 H 1439.35 -2.30117 -2.29077 0
M  V30 16461 H 1440.36 -5.17891 0.0303777 0
M  V30 16462 H 1437.04 -3.64139 -2.04227 0
M  V30 16463 H 1438.43 -6.69128 0.609686 0
M  V30 16464 N 1441.15 -0.0802183 -1.57396 0
M  V30 16465 C 1442.06 0.898597 -2.16708 0
M  V30 16466 C 1443.07 1.321 -1.1325 0
M  V30 16467 O 1444.25 1.39197 -1.45554 0
M  V30 16468 C 1441.31 2.14501 -2.72379 0
M  V30 16469 C 1440.38 1.77822 -3.9074 0
M  V30 16470 C 1439.61 2.96521 -4.43747 0
M  V30 16471 O 1439.83 4.10797 -3.9573 0
M  V30 16472 O 1438.77 2.75849 -5.34968 0
M  V30 16473 H 1442.59 0.424027 -3.00725 0
M  V30 16474 H 1440.18 0.14332 -1.48711 0
M  V30 16475 H 1442.06 2.87575 -3.08024 0
M  V30 16476 H 1440.73 2.61039 -1.91416 0
M  V30 16477 H 1439.64 1.01974 -3.59934 0
M  V30 16478 H 1440.97 1.36059 -4.73021 0
M  V30 16479 N 1442.63 1.56409 0.193394 0
M  V30 16480 C 1443.57 1.94681 1.23968 0
M  V30 16481 C 1444.54 0.807634 1.45143 0
M  V30 16482 O 1445.73 1.06593 1.58248 0
M  V30 16483 C 1442.87 2.29306 2.57901 0
M  V30 16484 C 1441.98 3.56296 2.4429 0
M  V30 16485 C 1441.12 3.80235 3.70938 0
M  V30 16486 C 1440.15 5.00645 3.52167 0
M  V30 16487 N 1439.29 5.20829 4.70831 0
M  V30 16488 H 1444.13 2.83884 0.906298 0
M  V30 16489 H 1441.67 1.40486 0.436146 0
M  V30 16490 H 1443.63 2.47398 3.35932 0
M  V30 16491 H 1442.26 1.43241 2.89278 0
M  V30 16492 H 1441.31 3.46241 1.57547 0
M  V30 16493 H 1442.62 4.44483 2.26354 0
M  V30 16494 H 1441.77 3.98575 4.57408 0
M  V30 16495 H 1440.51 2.90381 3.91829 0
M  V30 16496 H 1439.52 4.82225 2.64081 0
M  V30 16497 H 1440.74 5.92009 3.32719 0
M  V30 16498 H 1438.69 4.33923 4.91983 0
M  V30 16499 H 1438.61 6.03199 4.55726 0
M  V30 16500 H 1439.87 5.4363 5.58648 0
M  V30 16501 N 1444.1 -0.461169 1.50702 0
M  V30 16502 C 1445.07 -1.54032 1.69725 0
M  V30 16503 C 1446.07 -1.50445 0.567707 0
M  V30 16504 O 1447.26 -1.52889 0.834901 0
M  V30 16505 C 1444.39 -2.93642 1.73168 0
M  V30 16506 H 1445.58 -1.38478 2.66015 0
M  V30 16507 H 1443.13 -0.688235 1.40332 0
M  V30 16508 H 1443.87 -3.14629 0.786078 0
M  V30 16509 H 1443.65 -2.97652 2.55236 0
M  V30 16510 H 1445.14 -3.71972 1.89807 0
M  V30 16511 N 1445.58 -1.40446 -0.715026 0
M  V30 16512 C 1446.51 -1.36673 -1.83993 0
M  V30 16513 C 1447.53 -0.272038 -1.60511 0
M  V30 16514 O 1448.72 -0.532425 -1.70375 0
M  V30 16515 C 1445.82 -1.10423 -3.20406 0
M  V30 16516 C 1444.99 -2.31557 -3.71079 0
M  V30 16517 C 1444.05 -2.01459 -4.86108 0
M  V30 16518 O 1443.07 -2.7433 -4.9873 0
M  V30 16519 N 1444.28 -0.992899 -5.71946 0
M  V30 16520 H 1447.04 -2.3362 -1.87728 0
M  V30 16521 H 1444.6 -1.34807 -0.896586 0
M  V30 16522 H 1446.59 -0.88273 -3.94956 0
M  V30 16523 H 1445.16 -0.221408 -3.11815 0
M  V30 16524 H 1444.38 -2.69534 -2.87655 0
M  V30 16525 H 1445.67 -3.1231 -4.01671 0
M  V30 16526 H 1445.07 -0.389387 -5.64358 0
M  V30 16527 H 1443.63 -0.831299 -6.46477 0
M  V30 16528 N 1447.06 0.947303 -1.25952 0
M  V30 16529 C 1447.97 2.07878 -1.08738 0
M  V30 16530 C 1448.99 1.73985 -0.0225212 0
M  V30 16531 O 1450.16 2.00139 -0.224984 0
M  V30 16532 C 1447.23 3.39231 -0.715756 0
M  V30 16533 C 1446.29 3.86945 -1.85935 0
M  V30 16534 C 1445.52 5.1203 -1.50537 0
M  V30 16535 O 1445.74 5.68965 -0.404323 0
M  V30 16536 O 1444.68 5.54634 -2.33805 0
M  V30 16537 H 1448.5 2.25305 -2.03645 0
M  V30 16538 H 1446.09 1.06321 -1.04958 0
M  V30 16539 H 1447.97 4.18167 -0.520962 0
M  V30 16540 H 1446.65 3.23057 0.203978 0
M  V30 16541 H 1445.55 3.08981 -2.10906 0
M  V30 16542 H 1446.89 4.0763 -2.75859 0
M  V30 16543 N 1448.54 1.07657 1.15099 0
M  V30 16544 C 1449.5 0.703558 2.18135 0
M  V30 16545 C 1450.5 -0.257771 1.5872 0
M  V30 16546 O 1451.69 -0.0383211 1.74158 0
M  V30 16547 C 1448.82 0.0374978 3.40879 0
M  V30 16548 H 1450.02 1.61583 2.52648 0
M  V30 16549 H 1447.57 0.873484 1.29615 0
M  V30 16550 H 1448.3 -0.886868 3.11938 0
M  V30 16551 H 1448.09 0.728961 3.85264 0
M  V30 16552 H 1449.58 -0.208714 4.17078 0
M  V30 16553 N 1450.02 -1.31994 0.861122 0
M  V30 16554 C 1451.24 -2.01745 0.481013 0
M  V30 16555 C 1451.67 -1.6426 -0.916527 0
M  V30 16556 O 1451.02 -0.846603 -1.60319 0
M  V30 16557 C 1451.07 -3.54963 0.635134 0
M  V30 16558 O 1450.18 -4.11083 -0.329337 0
M  V30 16559 H 1449.52 -0.635499 0.192452 0
M  V30 16560 H 1452.05 -1.68394 1.1621 0
M  V30 16561 H 1452.06 -4.04607 0.525089 0
M  V30 16562 H 1450.73 -3.81587 1.65422 0
M  V30 16563 H 1449.31 -3.72489 -0.174989 0
M  V30 16564 N 1451.49 -0.619688 -1.44906 0
M  V30 16565 C 1452.43 0.130316 -2.28829 0
M  V30 16566 C 1453.44 0.820039 -1.40639 0
M  V30 16567 O 1454.63 0.683401 -1.649 0
M  V30 16568 C 1451.73 1.20618 -3.16709 0
M  V30 16569 C 1450.9 0.60121 -4.33248 0
M  V30 16570 C 1449.96 1.56954 -5.02247 0
M  V30 16571 O 1448.99 1.09112 -5.58644 0
M  V30 16572 N 1450.19 2.90395 -5.02644 0
M  V30 16573 H 1452.95 -0.589867 -2.93838 0
M  V30 16574 H 1450.51 -0.460028 -1.55227 0
M  V30 16575 H 1452.51 1.85404 -3.59732 0
M  V30 16576 H 1451.08 1.82873 -2.53528 0
M  V30 16577 H 1450.3 -0.225015 -3.93557 0
M  V30 16578 H 1451.58 0.177471 -5.0849 0
M  V30 16579 H 1450.98 3.31855 -4.58136 0
M  V30 16580 H 1449.54 3.50572 -5.49493 0
M  V30 16581 N 1452.97 1.53444 -0.359552 0
M  V30 16582 C 1454.22 2.00769 0.231564 0
M  V30 16583 C 1454.54 1.2487 1.49775 0
M  V30 16584 O 1453.81 0.360284 1.92558 0
M  V30 16585 H 1452.39 0.741732 0.0885581 0
M  V30 16586 H 1455.05 1.88785 -0.484397 0
M  V30 16587 H 1454.15 3.0865 0.462789 0
M  V30 16588 N 1454.45 0.0885642 1.57351 0
M  V30 16589 C 1455.36 -0.887092 2.17182 0
M  V30 16590 C 1456.38 -1.31498 1.13949 0
M  V30 16591 O 1457.55 -1.38424 1.4629 0
M  V30 16592 C 1454.62 -2.13053 2.73513 0
M  V30 16593 C 1453.68 -1.75747 3.91678 0
M  V30 16594 C 1452.91 -2.94163 4.45313 0
M  V30 16595 O 1453.13 -4.08693 3.97903 0
M  V30 16596 O 1452.07 -2.73008 5.36424 0
M  V30 16597 H 1455.89 -0.408073 3.00946 0
M  V30 16598 H 1453.48 -0.135431 1.48785 0
M  V30 16599 H 1455.36 -2.85937 3.09545 0
M  V30 16600 H 1454.04 -2.6002 1.92798 0
M  V30 16601 H 1452.94 -1.00064 3.60469 0
M  V30 16602 H 1454.28 -1.33549 4.73736 0
M  V30 16603 N 1455.93 -1.56509 -0.185096 0
M  V30 16604 C 1457.18 -1.80848 -0.902139 0
M  V30 16605 C 1457.5 -0.663295 -1.83372 0
M  V30 16606 O 1456.77 0.317754 -1.93306 0
M  V30 16607 H 1455.35 -0.667108 -0.336119 0
M  V30 16608 H 1458.01 -1.93989 -0.188211 0
M  V30 16609 H 1457.11 -2.74383 -1.48729 0
M  V30 16610 N 1457.41 0.45317 -1.50944 0
M  V30 16611 C 1458.35 1.54885 -1.71112 0
M  V30 16612 C 1459.32 1.56639 -0.552566 0
M  V30 16613 O 1460.51 1.73894 -0.785203 0
M  V30 16614 C 1457.65 2.92729 -1.82766 0
M  V30 16615 C 1456.76 3.00626 -3.10239 0
M  V30 16616 C 1455.9 4.29495 -3.12582 0
M  V30 16617 C 1454.94 4.312 -4.34434 0
M  V30 16618 N 1454.07 5.51568 -4.34415 0
M  V30 16619 H 1458.91 1.36992 -2.64645 0
M  V30 16620 H 1456.45 0.665753 -1.31172 0
M  V30 16621 H 1458.41 3.7269 -1.87505 0
M  V30 16622 H 1457.04 3.09216 -0.926561 0
M  V30 16623 H 1456.09 2.13426 -3.14886 0
M  V30 16624 H 1457.4 2.97746 -4.00186 0
M  V30 16625 H 1456.56 5.17817 -3.16149 0
M  V30 16626 H 1455.29 4.35009 -2.20496 0
M  V30 16627 H 1454.3 3.41272 -4.3106 0
M  V30 16628 H 1455.52 4.27363 -5.27767 0
M  V30 16629 H 1453.47 5.57834 -3.45192 0
M  V30 16630 H 1453.39 5.50504 -5.18152 0
M  V30 16631 H 1454.66 6.41966 -4.42153 0
M  V30 16632 N 1458.88 1.40823 0.707568 0
M  V30 16633 C 1460.16 1.3003 1.46122 0
M  V30 16634 C 1460.54 -0.0776873 2.10957 0
M  V30 16635 O 1459.89 -1.09109 2.00767 0
M  V30 16636 C 1460.1 2.44498 2.49042 0
M  V30 16637 C 1461.45 2.85106 3.14642 0
M  V30 16638 O 1462.47 2.44149 2.59364 0
M  V30 16639 O 1461.33 3.55892 4.14733 0
M  V30 16640 H 1458.42 0.511082 0.650172 0
M  V30 16641 H 1460.97 1.52761 0.739062 0
M  V30 16642 H 1459.74 3.36502 1.99705 0
M  V30 16643 H 1459.37 2.23579 3.28783 0
M  V30 16644 N 1460.36 -0.94061 1.26453 0
M  V30 16645 C 1461.27 -2.07298 1.09839 0
M  V30 16646 C 1462.29 -1.73971 0.0317477 0
M  V30 16647 O 1463.46 -2.00017 0.235594 0
M  V30 16648 C 1460.53 -3.38847 0.733736 0
M  V30 16649 C 1459.59 -3.85954 1.87985 0
M  V30 16650 C 1458.82 -5.11224 1.5325 0
M  V30 16651 O 1459.05 -5.68743 0.434491 0
M  V30 16652 O 1457.98 -5.53386 2.36743 0
M  V30 16653 H 1461.81 -2.24222 2.04837 0
M  V30 16654 H 1459.39 -1.05763 1.0552 0
M  V30 16655 H 1461.27 -4.17885 0.543131 0
M  V30 16656 H 1459.95 -3.2316 -0.186843 0
M  V30 16657 H 1458.86 -3.07858 2.12542 0
M  V30 16658 H 1460.19 -4.06162 2.78017 0
M  V30 16659 N 1461.84 -1.08266 -1.14527 0
M  V30 16660 C 1462.8 -0.715117 -2.17758 0
M  V30 16661 C 1463.8 0.24935 -1.58855 0
M  V30 16662 O 1464.99 0.0290846 -1.74176 0
M  V30 16663 C 1462.13 -0.055575 -3.40855 0
M  V30 16664 H 1463.32 -1.62921 -2.51787 0
M  V30 16665 H 1460.87 -0.880346 -1.2915 0
M  V30 16666 H 1461.61 0.870312 -3.12404 0
M  V30 16667 H 1461.39 -0.749382 -3.84872 0
M  V30 16668 H 1462.88 0.186592 -4.17183 0
M  V30 16669 N 1463.32 1.31536 -0.86811 0
M  V30 16670 C 1464.23 2.32326 -0.32588 0
M  V30 16671 C 1465.25 1.64632 0.563243 0
M  V30 16672 O 1466.42 1.96067 0.460403 0
M  V30 16673 C 1463.49 3.43562 0.46539 0
M  V30 16674 C 1462.55 4.26919 -0.451472 0
M  V30 16675 C 1461.78 5.32844 0.302129 0
M  V30 16676 O 1462 5.49485 1.53045 0
M  V30 16677 O 1460.94 6.00944 -0.339048 0
M  V30 16678 H 1464.76 2.80622 -1.16126 0
M  V30 16679 H 1462.35 1.35401 -0.631428 0
M  V30 16680 H 1464.23 4.11368 0.914028 0
M  V30 16681 H 1462.91 2.97432 1.27734 0
M  V30 16682 H 1461.81 3.61874 -0.948571 0
M  V30 16683 H 1463.15 4.7661 -1.22897 0
M  V30 16684 N 1464.8 0.627364 1.44575 0
M  V30 16685 C 1465.75 -0.0920488 2.32418 0
M  V30 16686 C 1466.74 -0.839633 1.47128 0
M  V30 16687 O 1467.95 -0.752958 1.63495 0
M  V30 16688 H 1464.32 -0.0485336 0.750432 0
M  V30 16689 H 1466.29 0.666959 2.90851 0
M  V30 16690 C 1465.04 -1.06262 3.31064 0
M  V30 16691 H 1464.36 -0.4968 3.96701 0
M  V30 16692 H 1465.8 -1.53556 3.95217 0
M  V30 16693 C 1464.26 -2.14601 2.59707 0
M  V30 16694 O 1464.79 -3.2263 2.39317 0
M  V30 16695 N 1463 -1.90431 2.19509 0
M  V30 16696 H 1462.55 -1.02584 2.36293 0
M  V30 16697 H 1462.5 -2.6312 1.72091 0
M  V30 16698 N 1466.28 -1.53251 0.367684 0
M  V30 16699 C 1467.24 -2.24423 -0.465516 0
M  V30 16700 C 1468.24 -1.25283 -1.00801 0
M  V30 16701 O 1469.43 -1.49545 -0.893424 0
M  V30 16702 C 1466.56 -2.9826 -1.65087 0
M  V30 16703 H 1467.75 -2.99487 0.157292 0
M  V30 16704 H 1465.31 -1.55843 0.119409 0
M  V30 16705 H 1466.04 -2.27443 -2.31171 0
M  V30 16706 H 1465.83 -3.71003 -1.26882 0
M  V30 16707 H 1467.32 -3.52358 -2.24128 0
M  V30 16708 N 1467.75 -0.0969077 -1.57302 0
M  V30 16709 C 1468.66 0.875561 -2.17649 0
M  V30 16710 C 1469.68 1.30892 -1.14645 0
M  V30 16711 O 1470.86 1.37646 -1.47022 0
M  V30 16712 C 1467.92 2.116 -2.74639 0
M  V30 16713 C 1466.98 1.73667 -3.92604 0
M  V30 16714 C 1466.21 2.91798 -4.46867 0
M  V30 16715 O 1466.44 4.06577 -4.00064 0
M  V30 16716 O 1465.37 2.70159 -5.37864 0
M  V30 16717 H 1469.2 0.392107 -3.01158 0
M  V30 16718 H 1466.78 0.127539 -1.48855 0
M  V30 16719 H 1468.66 2.84292 -3.11057 0
M  V30 16720 H 1467.34 2.58994 -1.94174 0
M  V30 16721 H 1466.25 0.981505 -3.60995 0
M  V30 16722 H 1467.58 1.31035 -4.74437 0
M  V30 16723 N 1469.23 1.56605 0.176793 0
M  V30 16724 C 1470.16 1.99014 1.2213 0
M  V30 16725 C 1471.14 0.86487 1.46472 0
M  V30 16726 O 1472.33 1.13055 1.57899 0
M  V30 16727 C 1469.46 2.34534 2.56146 0
M  V30 16728 C 1468.41 3.4997 2.46384 0
M  V30 16729 C 1467.74 3.71217 3.8484 0
M  V30 16730 C 1469.04 4.83592 1.97323 0
M  V30 16731 H 1470.73 2.86517 0.8688 0
M  V30 16732 H 1468.28 1.37846 0.416481 0
M  V30 16733 H 1470.23 2.62799 3.29416 0
M  V30 16734 H 1468.95 1.43933 2.93174 0
M  V30 16735 H 1467.61 3.21824 1.75569 0
M  V30 16736 H 1467.26 2.77916 4.19251 0
M  V30 16737 H 1466.96 4.48885 3.79178 0
M  V30 16738 H 1468.49 4.01877 4.59704 0
M  V30 16739 H 1469.9 5.10768 2.60363 0
M  V30 16740 H 1468.3 5.64858 2.02622 0
M  V30 16741 H 1469.37 4.75951 0.927275 0
M  V30 16742 N 1470.71 -0.445159 1.51182 0
M  V30 16743 C 1471.66 -1.53975 1.71931 0
M  V30 16744 C 1472.63 -1.56344 0.560865 0
M  V30 16745 O 1473.81 -1.73475 0.794414 0
M  V30 16746 C 1470.95 -2.91756 1.84316 0
M  V30 16747 C 1470.06 -2.98976 3.11829 0
M  V30 16748 C 1469.2 -4.27831 3.14855 0
M  V30 16749 C 1468.24 -4.2889 4.36715 0
M  V30 16750 N 1467.38 -5.49257 4.37334 0
M  V30 16751 H 1472.22 -1.35586 2.65368 0
M  V30 16752 H 1469.75 -0.658787 1.31523 0
M  V30 16753 H 1471.71 -3.7169 1.89479 0
M  V30 16754 H 1470.34 -3.08721 0.942947 0
M  V30 16755 H 1469.39 -2.11753 3.16014 0
M  V30 16756 H 1470.7 -2.95619 4.01759 0
M  V30 16757 H 1469.86 -5.16134 3.1889 0
M  V30 16758 H 1468.6 -4.33833 2.228 0
M  V30 16759 H 1467.6 -3.38982 4.32864 0
M  V30 16760 H 1468.83 -4.24558 5.30026 0
M  V30 16761 H 1466.77 -5.55995 3.48145 0
M  V30 16762 H 1466.69 -5.47748 5.21064 0
M  V30 16763 H 1467.96 -6.39613 4.45551 0
M  V30 16764 N 1472.19 -1.41197 -0.700089 0
M  V30 16765 C 1473.13 -1.42688 -1.81407 0
M  V30 16766 C 1474.1 -0.28182 -1.63692 0
M  V30 16767 O 1475.29 -0.482196 -1.84606 0
M  V30 16768 C 1472.43 -1.31041 -3.19252 0
M  V30 16769 C 1471.54 -2.5538 -3.48432 0
M  V30 16770 C 1470.68 -2.3606 -4.75867 0
M  V30 16771 C 1469.72 -3.55898 -4.97999 0
M  V30 16772 N 1468.85 -3.35676 -6.16657 0
M  V30 16773 H 1473.69 -2.37898 -1.79467 0
M  V30 16774 H 1471.23 -1.18137 -0.87647 0
M  V30 16775 H 1473.19 -1.22292 -3.98874 0
M  V30 16776 H 1471.82 -0.394422 -3.20381 0
M  V30 16777 H 1470.87 -2.74598 -2.6325 0
M  V30 16778 H 1472.18 -3.44535 -3.6069 0
M  V30 16779 H 1471.34 -2.24752 -5.63535 0
M  V30 16780 H 1470.08 -1.44355 -4.65846 0
M  V30 16781 H 1469.08 -3.67665 -4.08781 0
M  V30 16782 H 1470.31 -4.4855 -5.09882 0
M  V30 16783 H 1468.25 -2.46667 -6.07858 0
M  V30 16784 H 1468.17 -4.18404 -6.29662 0
M  V30 16785 H 1469.44 -3.28132 -7.07071 0
M  V30 16786 N 1473.67 0.933891 -1.2695 0
M  V30 16787 C 1475.08 1.20873 -1.0422 0
M  V30 16788 C 1475.28 2.00205 0.228112 0
M  V30 16789 O 1474.34 2.34539 0.935284 0
M  V30 16790 C 1475.65 1.9629 -2.27795 0
M  V30 16791 C 1477.2 2.09254 -2.3277 0
M  V30 16792 C 1477.67 2.88075 -3.56057 0
M  V30 16793 N 1479.16 2.95646 -3.56578 0
M  V30 16794 C 1479.9 3.57082 -4.48642 0
M  V30 16795 N 1479.4 4.1996 -5.51004 0
M  V30 16796 N 1481.19 3.54425 -4.36279 0
M  V30 16797 H 1473.34 0.403735 -2.08528 0
M  V30 16798 H 1475.6 0.241189 -0.916805 0
M  V30 16799 H 1475.31 1.45412 -3.20231 0
M  V30 16800 H 1475.18 2.9693 -2.32621 0
M  V30 16801 H 1477.57 2.5932 -1.40844 0
M  V30 16802 H 1477.65 1.07854 -2.31951 0
M  V30 16803 H 1477.29 2.38693 -4.48317 0
M  V30 16804 H 1477.22 3.89746 -3.54126 0
M  V30 16805 H 1479.72 2.50951 -2.82545 0
M  V30 16806 H 1480.03 4.64758 -6.1743 0
M  V30 16807 H 1478.37 4.18525 -5.54853 0
M  V30 16808 H 1481.56 3.045 -3.55524 0
M  V30 16809 H 1481.74 4.02016 -5.0822 0
M  V30 16810 N 1475.14 1.08871 1.13951 0
M  V30 16811 C 1476.39 0.822504 1.85372 0
M  V30 16812 C 1476.72 -0.650183 1.82993 0
M  V30 16813 O 1476 -1.4783 1.26398 0
M  V30 16814 C 1476.28 1.35107 3.33793 0
M  V30 16815 C 1476.13 2.88945 3.44719 0
M  V30 16816 C 1477.45 0.980203 4.29045 0
M  V30 16817 H 1474.57 0.300255 0.673065 0
M  V30 16818 H 1477.21 1.34914 1.33784 0
M  V30 16819 H 1475.36 0.903108 3.77857 0
M  V30 16820 H 1477.04 3.42148 3.09407 0
M  V30 16821 H 1475.28 3.26365 2.85777 0
M  V30 16822 H 1475.95 3.21004 4.49066 0
M  V30 16823 H 1478.43 1.36646 3.93023 0
M  V30 16824 H 1477.3 1.37717 5.31343 0
M  V30 16825 H 1477.56 -0.112253 4.41957 0
M  V30 16826 N 1476.62 -1.31073 0.875073 0
M  V30 16827 C 1477.53 -2.3215 0.338196 0
M  V30 16828 C 1478.55 -1.64928 -0.554504 0
M  V30 16829 O 1479.72 -1.96308 -0.449998 0
M  V30 16830 C 1476.79 -3.43804 -0.447163 0
M  V30 16831 C 1475.85 -4.26674 0.474106 0
M  V30 16832 C 1475.08 -5.32997 -0.273867 0
M  V30 16833 O 1475.31 -5.50288 -1.50129 0
M  V30 16834 O 1474.24 -6.00756 0.370913 0
M  V30 16835 H 1478.07 -2.80002 1.17612 0
M  V30 16836 H 1475.65 -1.35064 0.6386 0
M  V30 16837 H 1477.53 -4.11847 -0.892199 0
M  V30 16838 H 1476.21 -2.98105 -1.26155 0
M  V30 16839 H 1475.11 -3.61366 0.967748 0
M  V30 16840 H 1476.45 -4.75952 1.25423 0
M  V30 16841 N 1478.1 -0.635022 -1.4424 0
M  V30 16842 C 1479.05 0.0675707 -2.30701 0
M  V30 16843 C 1480.02 0.832919 -1.43707 0
M  V30 16844 O 1481.2 0.813177 -1.72604 0
M  V30 16845 C 1478.34 1.04053 -3.2904 0
M  V30 16846 C 1477.46 0.273191 -4.31135 0
M  V30 16847 C 1476.59 1.23831 -5.16565 0
M  V30 16848 C 1475.63 0.460359 -6.10366 0
M  V30 16849 N 1474.77 1.37614 -6.88481 0
M  V30 16850 H 1479.61 -0.675656 -2.90239 0
M  V30 16851 H 1477.14 -0.344971 -1.42998 0
M  V30 16852 H 1479.1 1.61805 -3.84545 0
M  V30 16853 H 1477.73 1.75084 -2.71193 0
M  V30 16854 H 1476.78 -0.420315 -3.78071 0
M  V30 16855 H 1478.1 -0.332548 -4.9769 0
M  V30 16856 H 1477.25 1.88704 -5.76607 0
M  V30 16857 H 1475.99 1.87797 -4.50093 0
M  V30 16858 H 1474.99 -0.201836 -5.49429 0
M  V30 16859 H 1476.22 -0.174639 -6.78875 0
M  V30 16860 H 1474.16 2.00294 -6.24675 0
M  V30 16861 H 1474.08 0.82452 -7.5149 0
M  V30 16862 H 1475.35 2.01359 -7.53044 0
M  V30 16863 N 1479.58 1.53054 -0.375806 0
M  V30 16864 C 1480.99 1.5958 -0.0251765 0
M  V30 16865 C 1481.19 1.39047 1.45836 0
M  V30 16866 O 1480.25 1.20073 2.22123 0
M  V30 16867 C 1481.56 2.96676 -0.490274 0
M  V30 16868 C 1483.11 3.09815 -0.44537 0
M  V30 16869 C 1483.59 4.4934 -0.886442 0
M  V30 16870 N 1485.08 4.55484 -0.84191 0
M  V30 16871 C 1485.81 5.61652 -1.15476 0
M  V30 16872 N 1485.31 6.75526 -1.53741 0
M  V30 16873 N 1487.1 5.51688 -1.07689 0
M  V30 16874 H 1479.25 1.64651 -1.34178 0
M  V30 16875 H 1481.52 0.77278 -0.549104 0
M  V30 16876 H 1481.22 3.16874 -1.52589 0
M  V30 16877 H 1481.1 3.77016 0.11776 0
M  V30 16878 H 1483.48 2.89321 0.581138 0
M  V30 16879 H 1483.56 2.3146 -1.08903 0
M  V30 16880 H 1483.21 4.70573 -1.91111 0
M  V30 16881 H 1483.14 5.26141 -0.219925 0
M  V30 16882 H 1485.63 3.73725 -0.56015 0
M  V30 16883 H 1485.94 7.52489 -1.76012 0
M  V30 16884 H 1484.29 6.76892 -1.57616 0
M  V30 16885 H 1487.48 4.61605 -0.777062 0
M  V30 16886 H 1487.65 6.34329 -1.32403 0
M  V30 16887 N 1481.06 0.105248 1.57248 0
M  V30 16888 C 1482.31 -0.555797 1.93891 0
M  V30 16889 C 1482.62 -1.68703 0.989883 0
M  V30 16890 O 1483.82 -2.40991 1.25043 0
M  V30 16891 C 1482.28 -1.04006 3.44544 0
M  V30 16892 C 1481.89 0.0619641 4.47957 0
M  V30 16893 C 1483.63 -1.67327 3.90131 0
M  V30 16894 C 1481.54 -0.438229 5.89774 0
M  V30 16895 H 1480.47 -0.211391 0.723761 0
M  V30 16896 H 1483.12 0.182887 1.82586 0
M  V30 16897 H 1481.5 -1.83275 3.51036 0
M  V30 16898 H 1482.68 0.837803 4.5312 0
M  V30 16899 H 1480.99 0.600973 4.1204 0
M  V30 16900 H 1483.59 -2.0584 4.93492 0
M  V30 16901 H 1483.93 -2.54638 3.29341 0
M  V30 16902 H 1484.46 -0.946231 3.86382 0
M  V30 16903 H 1481.2 0.398506 6.54288 0
M  V30 16904 H 1480.72 -1.18085 5.88061 0
M  V30 16905 H 1482.4 -0.903922 6.40655 0
M  V30 16906 N 1482.53 -1.56697 -0.168486 0
M  V30 16907 C 1483.48 -1.9755 -1.22787 0
M  V30 16908 C 1484.48 -0.864668 -1.4567 0
M  V30 16909 O 1485.68 -1.04979 -1.46217 0
M  V30 16910 H 1482.06 -0.628561 -0.412813 0
M  V30 16911 H 1484.03 -2.85845 -0.85646 0
M  V30 16912 C 1482.78 -2.35394 -2.559 0
M  V30 16913 H 1482.1 -3.20412 -2.39115 0
M  V30 16914 H 1483.54 -2.67821 -3.28706 0
M  V30 16915 C 1482 -1.19842 -3.14864 0
M  V30 16916 O 1482.53 -0.487601 -3.9873 0
M  V30 16917 N 1480.74 -0.968249 -2.73995 0
M  V30 16918 H 1480.28 -1.54804 -2.05897 0
M  V30 16919 H 1480.24 -0.196951 -3.13783 0
M  V30 16920 N 1484.01 0.437135 -1.51416 0
M  V30 16921 C 1485.26 1.18655 -1.64095 0
M  V30 16922 C 1485.59 1.9119 -0.35728 0
M  V30 16923 O 1484.84 1.84283 0.658644 0
M  V30 16924 C 1485.14 2.22795 -2.79458 0
M  V30 16925 C 1484.81 1.67271 -4.18726 0
M  V30 16926 C 1483.47 1.51852 -4.56612 0
M  V30 16927 C 1485.82 1.26448 -5.05629 0
M  V30 16928 C 1483.15 0.940834 -5.79107 0
M  V30 16929 C 1485.5 0.701095 -6.28703 0
M  V30 16930 C 1484.17 0.533801 -6.65362 0
M  V30 16931 H 1483.44 0.434191 -0.600466 0
M  V30 16932 H 1486.08 0.477592 -1.85449 0
M  V30 16933 H 1484.39 2.99731 -2.52327 0
M  V30 16934 H 1486.08 2.80602 -2.86467 0
M  V30 16935 H 1482.67 1.80249 -3.88855 0
M  V30 16936 H 1486.86 1.37182 -4.76964 0
M  V30 16937 H 1482.11 0.798982 -6.06157 0
M  V30 16938 H 1486.29 0.37626 -6.95383 0
M  V30 16939 H 1483.92 0.0840431 -7.60154 0
M  V30 16940 N 1485.49 1.41566 0.692592 0
M  V30 16941 C 1486.44 1.43857 1.82779 0
M  V30 16942 C 1487.43 0.316262 1.66422 0
M  V30 16943 O 1488.64 0.488433 1.73246 0
M  V30 16944 H 1485.01 0.450174 0.602368 0
M  V30 16945 H 1486.98 2.39524 1.77964 0
M  V30 16946 C 1485.73 1.34054 3.20819 0
M  V30 16947 H 1485.06 2.19701 3.34023 0
M  V30 16948 H 1486.5 1.39717 4.00319 0
M  V30 16949 C 1484.96 0.053218 3.36858 0
M  V30 16950 O 1485.49 -0.900928 3.91467 0
M  V30 16951 N 1483.69 -0.0238376 2.9059 0
M  V30 16952 H 1483.24 0.753374 2.46337 0
M  V30 16953 H 1483.2 -0.884571 3.017 0
M  V30 16954 N 1486.97 -0.927146 1.27443 0
M  V30 16955 C 1488.25 -1.65322 1.04538 0
M  V30 16956 C 1488.63 -2.06886 -0.419694 0
M  V30 16957 O 1487.97 -1.80352 -1.40304 0
M  V30 16958 C 1488.18 -2.85486 2.00746 0
M  V30 16959 C 1489.53 -3.56816 2.30147 0
M  V30 16960 O 1490.56 -2.95613 1.98724 0
M  V30 16961 O 1489.41 -4.67085 2.83714 0
M  V30 16962 H 1486.51 -0.724627 0.398554 0
M  V30 16963 H 1489.05 -0.977633 1.3871 0
M  V30 16964 H 1487.83 -2.51766 2.99549 0
M  V30 16965 H 1487.45 -3.60763 1.67139 0
M  V30 16966 N 1488.45 -1.09474 -1.13372 0
M  V30 16967 C 1489.7 -0.825968 -1.84013 0
M  V30 16968 C 1490.01 0.650623 -1.84462 0
M  V30 16969 O 1491.21 1.03495 -2.51 0
M  V30 16970 C 1489.67 -1.42769 -3.30371 0
M  V30 16971 C 1489.28 -2.93686 -3.38308 0
M  V30 16972 C 1491.02 -1.23788 -4.0605 0
M  V30 16973 C 1488.93 -3.46942 -4.78942 0
M  V30 16974 H 1487.86 -0.305322 -0.689416 0
M  V30 16975 H 1490.51 -1.31751 -1.27726 0
M  V30 16976 H 1488.89 -0.86384 -3.86463 0
M  V30 16977 H 1490.07 -3.56302 -2.92208 0
M  V30 16978 H 1488.38 -3.11706 -2.76094 0
M  V30 16979 H 1490.98 -1.61031 -5.09876 0
M  V30 16980 H 1491.32 -0.178578 -4.15917 0
M  V30 16981 H 1491.85 -1.76927 -3.56289 0
M  V30 16982 H 1488.59 -4.52495 -4.74267 0
M  V30 16983 H 1488.11 -2.8909 -5.25535 0
M  V30 16984 H 1489.79 -3.44176 -5.47861 0
M  V30 16985 N 1489.92 1.30607 -0.882012 0
M  V30 16986 C 1490.86 2.27177 -0.303861 0
M  V30 16987 C 1491.87 1.53587 0.539898 0
M  V30 16988 O 1493.06 1.74833 0.359931 0
M  V30 16989 C 1490.16 3.33781 0.586828 0
M  V30 16990 C 1489.33 4.3681 -0.227197 0
M  V30 16991 C 1488.39 5.22842 0.593519 0
M  V30 16992 O 1487.42 5.69197 0.0172694 0
M  V30 16993 N 1488.62 5.48414 1.90321 0
M  V30 16994 H 1491.38 2.77426 -1.13378 0
M  V30 16995 H 1488.94 1.43756 -0.744698 0
M  V30 16996 H 1490.94 3.88257 1.14186 0
M  V30 16997 H 1489.51 2.83483 1.31743 0
M  V30 16998 H 1488.73 3.82239 -0.963674 0
M  V30 16999 H 1490.01 5.02703 -0.785315 0
M  V30 17000 H 1489.41 5.1253 2.39435 0
M  V30 17001 H 1487.97 6.05778 2.40575 0
M  V30 17002 N 1491.4 0.642663 1.43901 0
M  V30 17003 C 1492.33 -0.0419756 2.33462 0
M  V30 17004 C 1493.31 -0.822923 1.48869 0
M  V30 17005 O 1494.5 -0.786508 1.7756 0
M  V30 17006 C 1491.63 -1.01631 3.32097 0
M  V30 17007 C 1490.58 -0.346206 4.26597 0
M  V30 17008 C 1489.91 -1.43125 5.15189 0
M  V30 17009 C 1491.21 0.754799 5.16817 0
M  V30 17010 H 1492.9 0.705929 2.90959 0
M  V30 17011 H 1490.45 0.340924 1.39906 0
M  V30 17012 H 1492.4 -1.5041 3.93643 0
M  V30 17013 H 1491.13 -1.79525 2.72834 0
M  V30 17014 H 1489.78 0.121038 3.664 0
M  V30 17015 H 1489.43 -2.20135 4.52271 0
M  V30 17016 H 1489.13 -0.988194 5.79231 0
M  V30 17017 H 1490.66 -1.92061 5.79607 0
M  V30 17018 H 1492.07 0.349624 5.72233 0
M  V30 17019 H 1490.47 1.12169 5.89524 0
M  V30 17020 H 1491.54 1.61718 4.57138 0
M  V30 17021 N 1492.88 -1.52852 0.383918 0
M  V30 17022 C 1494.11 -2.05929 -0.200216 0
M  V30 17023 C 1494.52 -1.25606 -1.40956 0
M  V30 17024 O 1493.88 -0.301336 -1.79995 0
M  V30 17025 C 1493.93 -3.56887 -0.575655 0
M  V30 17026 O 1493.65 -4.34168 0.58564 0
M  V30 17027 C 1495.15 -4.2629 -1.21623 0
M  V30 17028 H 1492.37 -0.670261 -0.0314727 0
M  V30 17029 H 1494.92 -1.97032 0.547591 0
M  V30 17030 H 1493.07 -3.65875 -1.27336 0
M  V30 17031 H 1493.49 -5.23761 0.278267 0
M  V30 17032 H 1494.96 -5.33174 -1.42933 0
M  V30 17033 H 1495.44 -3.81163 -2.182 0
M  V30 17034 H 1496.04 -4.21605 -0.559435 0
M  V30 17035 N 1494.36 -0.113586 -1.5719 0
M  V30 17036 C 1495.29 0.875741 -2.10727 0
M  V30 17037 C 1496.27 1.2644 -1.02233 0
M  V30 17038 O 1497.45 1.36641 -1.29852 0
M  V30 17039 C 1494.58 2.17123 -2.59952 0
M  V30 17040 C 1493.63 1.93105 -3.8028 0
M  V30 17041 S 1494.46 1.15223 -5.22957 0
M  V30 17042 C 1495.62 2.45963 -5.75546 0
M  V30 17043 H 1495.85 0.420351 -2.94313 0
M  V30 17044 H 1493.38 0.100081 -1.54075 0
M  V30 17045 H 1495.34 2.91561 -2.88968 0
M  V30 17046 H 1494 2.59781 -1.76558 0
M  V30 17047 H 1493.19 2.89082 -4.12853 0
M  V30 17048 H 1492.8 1.2679 -3.51853 0
M  V30 17049 H 1495.09 3.41835 -5.8494 0
M  V30 17050 H 1496.03 2.17943 -6.73726 0
M  V30 17051 H 1496.44 2.55083 -5.0358 0
M  V30 17052 N 1495.84 1.56784 0.160173 0
M  V30 17053 C 1496.75 2.00514 1.21783 0
M  V30 17054 C 1497.76 0.918341 1.47792 0
M  V30 17055 O 1498.94 1.22683 1.59721 0
M  V30 17056 C 1496 2.36575 2.53443 0
M  V30 17057 C 1495.07 3.59138 2.35198 0
M  V30 17058 C 1494.3 3.93469 3.6058 0
M  V30 17059 O 1494.52 3.28625 4.6622 0
M  V30 17060 O 1493.46 4.86774 3.54027 0
M  V30 17061 H 1497.28 2.90774 0.876607 0
M  V30 17062 H 1494.87 1.44799 0.367897 0
M  V30 17063 H 1496.75 2.60687 3.31089 0
M  V30 17064 H 1495.42 1.49474 2.87122 0
M  V30 17065 H 1494.33 3.4023 1.55546 0
M  V30 17066 H 1495.66 4.46815 2.0644 0
M  V30 17067 N 1497.32 -0.429099 1.51646 0
M  V30 17068 C 1498.59 -1.18958 1.55269 0
M  V30 17069 C 1498.97 -2.08633 0.321816 0
M  V30 17070 O 1498.32 -2.1775 -0.69261 0
M  V30 17071 C 1498.53 -1.98427 2.87102 0
M  V30 17072 C 1499.88 -2.55185 3.39361 0
M  V30 17073 O 1500.9 -2.08629 2.88708 0
M  V30 17074 O 1499.76 -3.40119 4.27763 0
M  V30 17075 H 1496.86 -0.542041 0.624596 0
M  V30 17076 H 1499.4 -0.437499 1.63964 0
M  V30 17077 H 1498.17 -1.32613 3.68143 0
M  V30 17078 H 1497.8 -2.80683 2.81608 0
M  V30 17079 N 1498.79 -1.41931 -0.685074 0
M  V30 17080 C 1499.7 -1.46985 -1.82846 0
M  V30 17081 C 1500.72 -0.359487 -1.70246 0
M  V30 17082 O 1501.9 -0.608824 -1.91977 0
M  V30 17083 C 1498.96 -1.36001 -3.18912 0
M  V30 17084 C 1498.02 -2.57442 -3.43543 0
M  V30 17085 C 1497.25 -2.46972 -4.73118 0
M  V30 17086 O 1497.48 -1.49999 -5.50324 0
M  V30 17087 O 1496.41 -3.36922 -4.98766 0
M  V30 17088 H 1500.24 -2.4347 -1.81538 0
M  V30 17089 H 1497.82 -1.23583 -0.839497 0
M  V30 17090 H 1499.7 -1.32198 -4.00127 0
M  V30 17091 H 1498.38 -0.426366 -3.2088 0
M  V30 17092 H 1497.29 -2.66821 -2.62217 0
M  V30 17093 H 1498.62 -3.49671 -3.46398 0
M  V30 17094 N 1500.27 0.920374 -1.27933 0
M  V30 17095 C 1501.52 1.67131 -1.1487 0
M  V30 17096 C 1501.85 1.91816 0.303343 0
M  V30 17097 O 1501.13 1.51379 1.22125 0
M  V30 17098 C 1501.41 3.03332 -1.94066 0
M  V30 17099 C 1501.26 2.85842 -3.47296 0
M  V30 17100 C 1502.58 4.03773 -1.75087 0
M  V30 17101 H 1499.7 0.606537 -0.418666 0
M  V30 17102 H 1502.34 1.06755 -1.57173 0
M  V30 17103 H 1500.49 3.54869 -1.58116 0
M  V30 17104 H 1502.16 2.41367 -3.93115 0
M  V30 17105 H 1500.41 2.21035 -3.73264 0
M  V30 17106 H 1501.08 3.82535 -3.97958 0
M  V30 17107 H 1503.55 3.61274 -2.06447 0
M  V30 17108 H 1502.43 4.97048 -2.32882 0
M  V30 17109 H 1502.69 4.36512 -0.700665 0
M  V30 17110 N 1501.75 1.10074 1.1279 0
M  V30 17111 C 1503 0.842118 1.84489 0
M  V30 17112 C 1503.33 -0.630737 1.83672 0
M  V30 17113 O 1502.6 -1.46481 1.27959 0
M  V30 17114 C 1502.89 1.3864 3.32342 0
M  V30 17115 C 1502.74 2.92585 3.41635 0
M  V30 17116 C 1504.06 1.02565 4.27982 0
M  V30 17117 H 1501.18 0.307376 0.669842 0
M  V30 17118 H 1503.82 1.36326 1.32345 0
M  V30 17119 H 1501.97 0.943134 3.76878 0
M  V30 17120 H 1503.64 3.4541 3.0576 0
M  V30 17121 H 1501.88 3.29378 2.82299 0
M  V30 17122 H 1502.56 3.25749 4.45636 0
M  V30 17123 H 1505.03 1.40807 3.91552 0
M  V30 17124 H 1503.91 1.43345 5.29852 0
M  V30 17125 H 1504.17 -0.0653712 4.42052 0
M  V30 17126 N 1503.23 -1.30138 0.888926 0
M  V30 17127 C 1504.64 -1.48552 0.583486 0
M  V30 17128 C 1504.84 -1.81376 -0.877781 0
M  V30 17129 O 1503.9 -1.90374 -1.65873 0
M  V30 17130 C 1505.21 -2.60613 1.50004 0
M  V30 17131 C 1506.76 -2.74493 1.50409 0
M  V30 17132 C 1507.24 -3.89672 2.40666 0
M  V30 17133 N 1508.73 -3.96988 2.38652 0
M  V30 17134 C 1509.46 -4.85429 3.05199 0
M  V30 17135 N 1508.96 -5.78638 3.80985 0
M  V30 17136 N 1510.75 -4.78831 2.9441 0
M  V30 17137 H 1502.9 -1.07105 1.83418 0
M  V30 17138 H 1505.16 -0.530991 0.785336 0
M  V30 17139 H 1504.87 -2.43191 2.54069 0
M  V30 17140 H 1504.74 -3.5718 1.21254 0
M  V30 17141 H 1507.13 -2.91318 0.470933 0
M  V30 17142 H 1507.21 -1.78535 1.83191 0
M  V30 17143 H 1506.86 -3.73603 3.44069 0
M  V30 17144 H 1506.79 -4.84975 2.05198 0
M  V30 17145 H 1509.28 -3.30313 1.83581 0
M  V30 17146 H 1509.59 -6.42894 4.28844 0
M  V30 17147 H 1507.94 -5.78558 3.85092 0
M  V30 17148 H 1511.13 -4.04995 2.34727 0
M  V30 17149 H 1511.3 -5.47547 3.46549 0
M  V30 17150 N 1504.71 -0.650285 -1.43559 0
M  V30 17151 C 1505.65 0.0550615 -2.32535 0
M  V30 17152 C 1506.65 0.81612 -1.48445 0
M  V30 17153 O 1507.85 0.726853 -1.64672 0
M  V30 17154 H 1504.23 0.0365887 -0.751109 0
M  V30 17155 H 1506.2 -0.713146 -2.89753 0
M  V30 17156 C 1504.95 1.00982 -3.32713 0
M  V30 17157 H 1504.27 0.433626 -3.97441 0
M  V30 17158 H 1505.71 1.47249 -3.9761 0
M  V30 17159 C 1504.17 2.10442 -2.63089 0
M  V30 17160 O 1504.7 3.18782 -2.44419 0
M  V30 17161 N 1502.91 1.86915 -2.22511 0
M  V30 17162 H 1502.45 0.988113 -2.37895 0
M  V30 17163 H 1502.41 2.60348 -1.76256 0
M  V30 17164 N 1506.18 1.52647 -0.392018 0
M  V30 17165 C 1507.41 2.06032 0.189293 0
M  V30 17166 C 1507.83 1.26351 1.40288 0
M  V30 17167 O 1507.18 0.310877 1.79833 0
M  V30 17168 C 1507.23 3.57187 0.55672 0
M  V30 17169 O 1506.96 4.33851 -0.608657 0
M  V30 17170 C 1508.46 4.26929 1.1936 0
M  V30 17171 H 1505.68 0.670419 0.0279177 0
M  V30 17172 H 1508.22 1.96739 -0.558033 0
M  V30 17173 H 1506.38 3.66545 1.25394 0
M  V30 17174 H 1506.79 5.23606 -0.306039 0
M  V30 17175 H 1508.26 5.33924 1.40104 0
M  V30 17176 H 1508.74 3.82315 2.16175 0
M  V30 17177 H 1509.35 4.21895 0.537069 0
M  V30 17178 N 1507.66 0.121921 1.57128 0
M  V30 17179 C 1508.61 -0.827205 2.15467 0
M  V30 17180 C 1509.58 -1.26155 1.08047 0
M  V30 17181 O 1510.76 -1.33855 1.35969 0
M  V30 17182 C 1507.9 -2.07077 2.76067 0
M  V30 17183 C 1507.02 -1.68452 3.97804 0
M  V30 17184 C 1506.15 -2.87797 4.46482 0
M  V30 17185 C 1505.19 -2.45426 5.60743 0
M  V30 17186 N 1504.33 -3.57695 6.04151 0
M  V30 17187 H 1509.17 -0.322879 2.96246 0
M  V30 17188 H 1506.71 -0.147677 1.46357 0
M  V30 17189 H 1508.66 -2.79943 3.09335 0
M  V30 17190 H 1507.29 -2.54963 1.97974 0
M  V30 17191 H 1506.35 -0.854487 3.70679 0
M  V30 17192 H 1507.66 -1.33316 4.80654 0
M  V30 17193 H 1506.81 -3.68885 4.81673 0
M  V30 17194 H 1505.55 -3.26162 3.62587 0
M  V30 17195 H 1504.56 -1.62772 5.25153 0
M  V30 17196 H 1505.78 -2.08175 6.46405 0
M  V30 17197 H 1503.73 -3.95728 5.23197 0
M  V30 17198 H 1503.64 -3.26491 6.81865 0
M  V30 17199 H 1504.91 -4.39213 6.43981 0
M  V30 17200 N 1509.14 -1.56867 -0.151857 0
M  V30 17201 C 1510.37 -1.86965 -0.879066 0
M  V30 17202 C 1510.78 -0.70756 -1.75471 0
M  V30 17203 O 1510.12 0.331966 -1.80676 0
M  V30 17204 C 1510.18 -3.11712 -1.79098 0
M  V30 17205 C 1509.85 -4.43737 -1.09298 0
M  V30 17206 C 1510.84 -5.17956 -0.449181 0
M  V30 17207 C 1508.53 -4.90465 -1.08394 0
M  V30 17208 C 1510.52 -6.37104 0.194342 0
M  V30 17209 C 1508.21 -6.09538 -0.436597 0
M  V30 17210 C 1509.21 -6.82703 0.201419 0
M  V30 17211 O 1508.9 -7.99515 0.838504 0
M  V30 17212 H 1508.63 -0.624074 -0.259822 0
M  V30 17213 H 1511.18 -2.04845 -0.150844 0
M  V30 17214 H 1509.41 -2.89828 -2.56002 0
M  V30 17215 H 1511.1 -3.28097 -2.38972 0
M  V30 17216 H 1511.87 -4.82926 -0.448012 0
M  V30 17217 H 1507.75 -4.33444 -1.56995 0
M  V30 17218 H 1511.29 -6.9415 0.69293 0
M  V30 17219 H 1507.19 -6.4403 -0.435417 0
M  V30 17220 H 1507.96 -8.15151 0.739688 0
M  V30 17221 N 1510.62 0.421051 -1.51871 0
M  V30 17222 C 1511.55 1.51928 -1.77313 0
M  V30 17223 C 1512.53 1.58258 -0.623579 0
M  V30 17224 O 1513.71 1.73724 -0.867967 0
M  V30 17225 C 1510.84 2.89865 -1.913 0
M  V30 17226 C 1509.8 2.98391 -3.06834 0
M  V30 17227 C 1509.12 4.38466 -3.06026 0
M  V30 17228 C 1510.42 2.7097 -4.46511 0
M  V30 17229 H 1512.12 1.30889 -2.69274 0
M  V30 17230 H 1509.66 0.628229 -1.29573 0
M  V30 17231 H 1511.62 3.66669 -2.07682 0
M  V30 17232 H 1510.34 3.12172 -0.960011 0
M  V30 17233 H 1509 2.24029 -2.90184 0
M  V30 17234 H 1508.65 4.57764 -2.08472 0
M  V30 17235 H 1508.35 4.45097 -3.83618 0
M  V30 17236 H 1509.87 5.17221 -3.24522 0
M  V30 17237 H 1511.29 3.37501 -4.63428 0
M  V30 17238 H 1509.68 2.88992 -5.25931 0
M  V30 17239 H 1510.75 1.66476 -4.55427 0
M  V30 17240 N 1512.1 1.42293 0.677538 0
M  V30 17241 C 1513.03 1.41503 1.80304 0
M  V30 17242 C 1514.04 0.314499 1.59733 0
M  V30 17243 O 1515.23 0.57741 1.68903 0
M  V30 17244 C 1512.33 1.18879 3.17366 0
M  V30 17245 C 1511.5 2.41314 3.6481 0
M  V30 17246 C 1510.56 2.14277 4.80595 0
M  V30 17247 O 1509.59 2.87457 4.91281 0
M  V30 17248 N 1510.79 1.14419 5.69112 0
M  V30 17249 H 1513.56 2.38515 1.81468 0
M  V30 17250 H 1511.12 1.37137 0.860529 0
M  V30 17251 H 1513.11 0.987135 3.92476 0
M  V30 17252 H 1511.68 0.304002 3.11118 0
M  V30 17253 H 1510.9 2.77066 2.80407 0
M  V30 17254 H 1512.19 3.2285 3.9325 0
M  V30 17255 H 1511.58 0.53888 5.63127 0
M  V30 17256 H 1510.14 1.00241 6.44046 0
M  V30 17257 N 1513.57 -0.913576 1.28419 0
M  V30 17258 C 1514.5 -2.03275 1.14897 0
M  V30 17259 C 1515.49 -1.70036 0.0467034 0
M  V30 17260 O 1516.67 -1.92907 0.223725 0
M  V30 17261 C 1513.8 -3.37717 0.810217 0
M  V30 17262 C 1512.75 -3.85119 1.86728 0
M  V30 17263 C 1512.08 -5.16527 1.38215 0
M  V30 17264 C 1513.38 -4.06959 3.27386 0
M  V30 17265 H 1515.07 -2.14847 2.08522 0
M  V30 17266 H 1512.62 -1.03233 1.00394 0
M  V30 17267 H 1514.57 -4.15505 0.702382 0
M  V30 17268 H 1513.3 -3.26199 -0.161732 0
M  V30 17269 H 1511.96 -3.09536 1.96426 0
M  V30 17270 H 1511.6 -5.01413 0.399263 0
M  V30 17271 H 1511.3 -5.49213 2.08898 0
M  V30 17272 H 1512.83 -5.96871 1.28754 0
M  V30 17273 H 1514.24 -4.75272 3.20608 0
M  V30 17274 H 1512.64 -4.50977 3.95904 0
M  V30 17275 H 1513.71 -3.11764 3.71391 0
M  V30 17276 N 1515.05 -1.1067 -1.12204 0
M  V30 17277 C 1515.96 -0.770221 -2.21596 0
M  V30 17278 C 1516.98 0.233297 -1.72429 0
M  V30 17279 O 1518.15 0.0714493 -2.01273 0
M  V30 17280 C 1515.22 -0.209682 -3.46065 0
M  V30 17281 C 1514.28 -1.27079 -4.1006 0
M  V30 17282 C 1513.51 -0.736899 -5.28588 0
M  V30 17283 O 1513.74 0.435838 -5.68732 0
M  V30 17284 O 1512.67 -1.49797 -5.82962 0
M  V30 17285 H 1516.5 -1.6834 -2.52776 0
M  V30 17286 H 1514.08 -0.882012 -1.20586 0
M  V30 17287 H 1515.96 0.0989516 -4.21284 0
M  V30 17288 H 1514.64 0.676316 -3.16556 0
M  V30 17289 H 1513.55 -1.63231 -3.3661 0
M  V30 17290 H 1514.88 -2.12989 -4.4373 0
M  V30 17291 N 1516.53 1.29665 -0.895815 0
M  V30 17292 C 1517.46 2.30268 -0.387151 0
M  V30 17293 C 1518.44 1.61442 0.535768 0
M  V30 17294 O 1519.63 1.88978 0.447321 0
M  V30 17295 C 1516.76 3.45107 0.389639 0
M  V30 17296 C 1515.71 4.25706 -0.442498 0
M  V30 17297 C 1515.04 5.32704 0.461552 0
M  V30 17298 C 1516.34 4.9419 -1.69036 0
M  V30 17299 H 1518.03 2.73064 -1.22786 0
M  V30 17300 H 1515.58 1.31274 -0.591869 0
M  V30 17301 H 1517.53 4.14559 0.756203 0
M  V30 17302 H 1516.25 3.01145 1.2641 0
M  V30 17303 H 1514.91 3.57957 -0.791343 0
M  V30 17304 H 1514.56 4.84987 1.33403 0
M  V30 17305 H 1514.26 5.87529 -0.0915006 0
M  V30 17306 H 1515.78 6.05009 0.824395 0
M  V30 17307 H 1517.2 5.561 -1.39376 0
M  V30 17308 H 1515.6 5.5893 -2.18444 0
M  V30 17309 H 1516.67 4.19699 -2.42859 0
M  V30 17310 N 1518.01 0.657889 1.43212 0
M  V30 17311 C 1518.94 -0.0695999 2.29094 0
M  V30 17312 C 1519.95 -0.782463 1.42763 0
M  V30 17313 O 1521.14 -0.63944 1.66654 0
M  V30 17314 C 1518.24 -1.12178 3.19796 0
M  V30 17315 C 1517.42 -0.486131 4.3469 0
M  V30 17316 C 1516.47 -1.43582 5.06232 0
M  V30 17317 O 1515.5 -0.942622 5.61341 0
M  V30 17318 N 1516.7 -2.76966 5.10167 0
M  V30 17319 H 1519.47 0.667565 2.92171 0
M  V30 17320 H 1517.03 0.501022 1.53953 0
M  V30 17321 H 1519.02 -1.75801 3.64522 0
M  V30 17322 H 1517.59 -1.76087 2.58287 0
M  V30 17323 H 1516.81 0.329281 3.92822 0
M  V30 17324 H 1518.1 -0.0425918 5.08782 0
M  V30 17325 H 1517.5 -3.19592 4.66774 0
M  V30 17326 H 1516.05 -3.3588 5.58595 0
M  V30 17327 N 1519.49 -1.52437 0.400108 0
M  V30 17328 C 1520.45 -2.2536 -0.417808 0
M  V30 17329 C 1521.45 -1.27393 -0.981204 0
M  V30 17330 O 1522.64 -1.51406 -0.861503 0
M  V30 17331 C 1519.77 -3.01695 -1.58724 0
M  V30 17332 H 1520.96 -2.99086 0.220782 0
M  V30 17333 H 1518.52 -1.55555 0.152439 0
M  V30 17334 H 1519.25 -2.32295 -2.26295 0
M  V30 17335 H 1519.04 -3.73611 -1.18984 0
M  V30 17336 H 1520.53 -3.57033 -2.16604 0
M  V30 17337 N 1520.96 -0.130252 -1.57061 0
M  V30 17338 C 1521.91 0.815767 -2.15902 0
M  V30 17339 C 1522.88 1.2558 -1.08715 0
M  V30 17340 O 1524.07 1.33132 -1.36677 0
M  V30 17341 C 1521.21 2.0561 -2.77162 0
M  V30 17342 C 1520.32 1.6634 -3.98692 0
M  V30 17343 C 1519.45 2.85425 -4.48002 0
M  V30 17344 C 1518.49 2.42449 -5.62036 0
M  V30 17345 N 1517.63 3.54486 -6.0604 0
M  V30 17346 H 1522.47 0.307164 -2.96413 0
M  V30 17347 H 1520.01 0.139913 -1.46433 0
M  V30 17348 H 1521.97 2.78298 -3.10815 0
M  V30 17349 H 1520.6 2.5391 -1.99323 0
M  V30 17350 H 1519.65 0.834817 -3.71127 0
M  V30 17351 H 1520.96 1.30765 -4.81354 0
M  V30 17352 H 1520.11 3.66325 -4.83623 0
M  V30 17353 H 1518.85 3.24235 -3.64312 0
M  V30 17354 H 1517.86 1.59985 -5.26008 0
M  V30 17355 H 1519.08 2.04744 -6.475 0
M  V30 17356 H 1517.03 3.92948 -5.25289 0
M  V30 17357 H 1516.95 3.22871 -6.83586 0
M  V30 17358 H 1518.21 4.35792 -6.46302 0
M  V30 17359 N 1522.44 1.56945 0.143535 0
M  V30 17360 C 1523.85 1.72949 0.703249 0
M  V30 17361 C 1524.21 0.745193 1.81497 0
M  V30 17362 O 1523.33 -0.0874144 2.16223 0
M  V30 17363 C 1523.93 3.1359 1.28244 0
M  V30 17364 C 1522.48 3.31184 1.78869 0
M  V30 17365 C 1521.63 2.6887 0.678531 0
M  V30 17366 H 1524.58 1.58487 -0.0821664 0
M  V30 17367 H 1524.6 3.13782 2.15224 0
M  V30 17368 H 1524.12 3.85206 0.473087 0
M  V30 17369 H 1522.22 2.64571 2.6236 0
M  V30 17370 H 1522.33 4.39163 1.91502 0
M  V30 17371 H 1520.69 2.29432 1.10603 0
M  V30 17372 H 1521.48 3.43092 -0.119437 0
M  V30 17373 N 1523.92 -0.412991 1.52093 0
M  V30 17374 C 1524.85 -1.52187 1.71382 0
M  V30 17375 C 1525.87 -1.51567 0.594247 0
M  V30 17376 O 1527.06 -1.55902 0.869293 0
M  V30 17377 C 1524.16 -2.91086 1.73557 0
M  V30 17378 C 1523.33 -3.15941 3.0249 0
M  V30 17379 C 1522.39 -4.34692 2.96529 0
M  V30 17380 O 1521.41 -4.3216 3.70441 0
M  V30 17381 N 1522.62 -5.39594 2.14052 0
M  V30 17382 H 1525.38 -1.36036 2.67047 0
M  V30 17383 H 1522.94 -0.602243 1.50282 0
M  V30 17384 H 1524.93 -3.68589 1.67106 0
M  V30 17385 H 1523.5 -3.00714 0.85382 0
M  V30 17386 H 1522.72 -2.26517 3.2262 0
M  V30 17387 H 1524.01 -3.29388 3.87789 0
M  V30 17388 H 1523.41 -5.44498 1.53424 0
M  V30 17389 H 1521.97 -6.15855 2.13461 0
M  V30 17390 N 1525.4 -1.4265 -0.669982 0
M  V30 17391 C 1526.31 -1.48916 -1.81276 0
M  V30 17392 C 1527.33 -0.377523 -1.69855 0
M  V30 17393 O 1528.5 -0.629151 -1.91321 0
M  V30 17394 C 1525.57 -1.39376 -3.17451 0
M  V30 17395 C 1524.63 -2.61072 -3.40793 0
M  V30 17396 C 1523.86 -2.51976 -4.70472 0
M  V30 17397 O 1524.08 -1.55827 -5.48702 0
M  V30 17398 O 1523.02 -3.42193 -4.95164 0
M  V30 17399 H 1526.84 -2.45382 -1.78945 0
M  V30 17400 H 1524.43 -1.24467 -0.826342 0
M  V30 17401 H 1526.31 -1.36435 -3.98702 0
M  V30 17402 H 1524.99 -0.460376 -3.20409 0
M  V30 17403 H 1523.89 -2.69587 -2.59372 0
M  V30 17404 H 1525.23 -3.53325 -3.42669 0
M  V30 17405 N 1526.88 0.906753 -1.28902 0
M  V30 17406 C 1528.29 1.18635 -1.06761 0
M  V30 17407 C 1528.49 2.00643 0.185594 0
M  V30 17408 O 1527.55 2.3647 0.885324 0
M  V30 17409 C 1528.86 1.91414 -2.31907 0
M  V30 17410 C 1530.41 2.04269 -2.37156 0
M  V30 17411 C 1530.89 2.80458 -3.62088 0
M  V30 17412 N 1532.38 2.88016 -3.62769 0
M  V30 17413 C 1533.11 3.47485 -4.56116 0
M  V30 17414 N 1532.61 4.08178 -5.59788 0
M  V30 17415 N 1534.4 3.45092 -4.43698 0
M  V30 17416 H 1526.55 0.359413 -2.09337 0
M  V30 17417 H 1528.81 0.221688 -0.921715 0
M  V30 17418 H 1528.52 1.38587 -3.23244 0
M  V30 17419 H 1528.39 2.91929 -2.38867 0
M  V30 17420 H 1530.78 2.56275 -1.46312 0
M  V30 17421 H 1530.86 1.0291 -2.34186 0
M  V30 17422 H 1530.51 2.2913 -4.53279 0
M  V30 17423 H 1530.44 3.82147 -3.62314 0
M  V30 17424 H 1532.93 2.44902 -2.87805 0
M  V30 17425 H 1533.24 4.51557 -6.27149 0
M  V30 17426 H 1531.59 4.06661 -5.63606 0
M  V30 17427 H 1534.78 2.96891 -3.61903 0
M  V30 17428 H 1534.95 3.91145 -5.16633 0
M  V30 17429 N 1528.36 1.11264 1.11616 0
M  V30 17430 C 1529.27 0.781961 2.21184 0
M  V30 17431 C 1530.28 -0.224149 1.7255 0
M  V30 17432 O 1531.46 -0.0607743 2.01308 0
M  V30 17433 C 1528.52 0.228031 3.45949 0
M  V30 17434 C 1527.58 1.29251 4.09381 0
M  V30 17435 C 1526.82 0.764921 5.2819 0
M  V30 17436 O 1527.04 -0.405671 5.68956 0
M  V30 17437 O 1525.97 1.52886 5.82159 0
M  V30 17438 H 1529.8 1.69678 2.51879 0
M  V30 17439 H 1527.38 0.888394 1.20116 0
M  V30 17440 H 1529.27 -0.0766085 4.2133 0
M  V30 17441 H 1527.94 -0.659519 3.1691 0
M  V30 17442 H 1526.85 1.65014 3.3574 0
M  V30 17443 H 1528.18 2.15339 4.42595 0
M  V30 17444 N 1529.83 -1.29188 0.902679 0
M  V30 17445 C 1530.78 -2.27632 0.381088 0
M  V30 17446 C 1531.75 -1.57131 -0.538431 0
M  V30 17447 O 1532.94 -1.85096 -0.463027 0
M  V30 17448 C 1530.08 -3.42971 -0.382701 0
M  V30 17449 C 1529.19 -4.28249 0.568054 0
M  V30 17450 C 1528.32 -5.30772 -0.213082 0
M  V30 17451 C 1527.36 -6.07707 0.732004 0
M  V30 17452 N 1526.5 -7.02098 -0.0149139 0
M  V30 17453 H 1531.34 -2.71628 1.22566 0
M  V30 17454 H 1528.88 -1.33594 0.615724 0
M  V30 17455 H 1530.83 -4.08623 -0.841619 0
M  V30 17456 H 1529.46 -2.99997 -1.19171 0
M  V30 17457 H 1528.52 -3.62743 1.14549 0
M  V30 17458 H 1529.83 -4.81794 1.29136 0
M  V30 17459 H 1528.98 -6.02255 -0.733065 0
M  V30 17460 H 1527.72 -4.77966 -0.969504 0
M  V30 17461 H 1526.73 -5.35086 1.26346 0
M  V30 17462 H 1527.95 -6.62602 1.4878 0
M  V30 17463 H 1525.9 -6.51658 -0.753548 0
M  V30 17464 H 1525.81 -7.53214 0.648423 0
M  V30 17465 H 1527.08 -7.77796 -0.515062 0
M  V30 17466 N 1531.31 -0.665475 -1.42861 0
M  V30 17467 C 1532.56 -0.181149 -2.00885 0
M  V30 17468 C 1532.87 1.21629 -1.53186 0
M  V30 17469 O 1534.08 1.79648 -2.03565 0
M  V30 17470 C 1532.54 -0.273017 -3.58863 0
M  V30 17471 C 1532.14 -1.67392 -4.15553 0
M  V30 17472 C 1533.89 0.153075 -4.24224 0
M  V30 17473 C 1531.79 -1.71905 -5.65864 0
M  V30 17474 H 1530.72 -0.0639619 -0.751282 0
M  V30 17475 H 1533.38 -0.829299 -1.63691 0
M  V30 17476 H 1531.76 0.44286 -3.93516 0
M  V30 17477 H 1532.93 -2.41613 -3.92377 0
M  V30 17478 H 1531.25 -2.04704 -3.62609 0
M  V30 17479 H 1533.84 0.139369 -5.34518 0
M  V30 17480 H 1534.19 1.1867 -3.99028 0
M  V30 17481 H 1534.72 -0.511472 -3.94498 0
M  V30 17482 H 1531.46 -2.73218 -5.95846 0
M  V30 17483 H 1530.98 -1.02027 -5.91059 0
M  V30 17484 H 1532.66 -1.46829 -6.30119 0
M  V30 17485 N 1532.79 1.52222 -0.408187 0
M  V30 17486 C 1534.04 2.00989 0.169252 0
M  V30 17487 C 1534.35 1.29824 1.46305 0
M  V30 17488 O 1535.56 1.69402 2.12168 0
M  V30 17489 C 1534.01 3.58173 0.352179 0
M  V30 17490 C 1533.62 4.38252 -0.929468 0
M  V30 17491 C 1535.37 4.15173 0.88496 0
M  V30 17492 C 1533.27 5.87077 -0.713781 0
M  V30 17493 H 1532.2 0.751015 0.0670261 0
M  V30 17494 H 1534.85 1.75574 -0.533487 0
M  V30 17495 H 1533.24 3.79913 1.11723 0
M  V30 17496 H 1534.41 4.28272 -1.70059 0
M  V30 17497 H 1532.72 3.92565 -1.38859 0
M  V30 17498 H 1535.32 5.2404 1.06235 0
M  V30 17499 H 1535.66 3.72468 1.85938 0
M  V30 17500 H 1536.2 3.97397 0.178995 0
M  V30 17501 H 1532.94 6.3414 -1.65974 0
M  V30 17502 H 1532.46 5.99797 0.0180631 0
M  V30 17503 H 1534.14 6.46022 -0.355596 0
M  V30 17504 N 1534.27 0.138579 1.5699 0
M  V30 17505 C 1535.2 -0.835134 2.13444 0
M  V30 17506 C 1536.21 -1.21657 1.08183 0
M  V30 17507 O 1537.4 -1.16211 1.35489 0
M  V30 17508 C 1534.5 -2.13086 2.63529 0
M  V30 17509 C 1533.67 -1.9181 3.931 0
M  V30 17510 C 1532.73 -3.05293 4.28582 0
M  V30 17511 O 1531.76 -2.77351 4.97056 0
M  V30 17512 N 1532.96 -4.32248 3.87482 0
M  V30 17513 H 1535.73 -0.352693 2.97617 0
M  V30 17514 H 1533.29 -0.0452536 1.61837 0
M  V30 17515 H 1535.28 -2.88036 2.84284 0
M  V30 17516 H 1533.85 -2.52619 1.84127 0
M  V30 17517 H 1533.07 -1.00943 3.81057 0
M  V30 17518 H 1534.36 -1.74923 4.77786 0
M  V30 17519 H 1533.76 -4.5782 3.32292 0
M  V30 17520 H 1532.31 -5.04006 4.13305 0
M  V30 17521 N 1535.75 -1.57019 -0.13521 0
M  V30 17522 C 1536.98 -1.87887 -0.859187 0
M  V30 17523 C 1537.38 -0.726131 -1.74711 0
M  V30 17524 O 1536.73 0.312784 -1.81018 0
M  V30 17525 C 1536.79 -3.13594 -1.75782 0
M  V30 17526 C 1536.45 -4.44872 -1.04586 0
M  V30 17527 C 1537.45 -5.18403 -0.39422 0
M  V30 17528 C 1535.13 -4.91587 -1.03185 0
M  V30 17529 C 1537.13 -6.36862 0.261905 0
M  V30 17530 C 1534.82 -6.09967 -0.371923 0
M  V30 17531 C 1535.81 -6.82451 0.273817 0
M  V30 17532 O 1535.5 -7.98581 0.923256 0
M  V30 17533 H 1535.23 -0.626795 -0.253188 0
M  V30 17534 H 1537.79 -2.04994 -0.129109 0
M  V30 17535 H 1536.02 -2.92527 -2.52913 0
M  V30 17536 H 1537.71 -3.30613 -2.35478 0
M  V30 17537 H 1538.47 -4.83374 -0.396766 0
M  V30 17538 H 1534.35 -4.35085 -1.52389 0
M  V30 17539 H 1537.9 -6.93376 0.766515 0
M  V30 17540 H 1533.79 -6.44455 -0.367084 0
M  V30 17541 H 1534.56 -8.1432 0.826104 0
M  V30 17542 N 1537.22 0.404919 -1.52309 0
M  V30 17543 C 1538.15 1.50039 -1.78915 0
M  V30 17544 C 1539.14 1.57587 -0.640329 0
M  V30 17545 O 1540.32 1.72793 -0.886344 0
M  V30 17546 C 1537.45 2.87819 -1.94364 0
M  V30 17547 C 1536.4 2.9512 -3.09981 0
M  V30 17548 C 1535.73 4.35195 -3.10659 0
M  V30 17549 C 1537.03 2.66219 -4.4936 0
M  V30 17550 H 1538.72 1.28025 -2.70647 0
M  V30 17551 H 1536.27 0.61445 -1.30233 0
M  V30 17552 H 1538.22 3.64446 -2.11559 0
M  V30 17553 H 1536.95 3.11136 -0.993067 0
M  V30 17554 H 1535.61 2.20939 -2.92543 0
M  V30 17555 H 1535.25 4.55528 -2.13316 0
M  V30 17556 H 1534.95 4.41003 -3.88317 0
M  V30 17557 H 1536.48 5.1375 -3.29989 0
M  V30 17558 H 1537.89 3.32567 -4.66982 0
M  V30 17559 H 1536.29 2.83398 -5.28967 0
M  V30 17560 H 1537.36 1.61636 -4.57167 0
M  V30 17561 N 1538.7 1.43003 0.662408 0
M  V30 17562 C 1539.93 1.47555 1.45035 0
M  V30 17563 C 1540.35 0.0906083 1.88582 0
M  V30 17564 O 1539.7 -0.897271 1.58919 0
M  V30 17565 C 1539.75 2.41345 2.69137 0
M  V30 17566 O 1539.47 3.74453 2.27413 0
M  V30 17567 C 1540.98 2.55045 3.62584 0
M  V30 17568 H 1538.2 0.501448 0.44586 0
M  V30 17569 H 1540.74 1.8765 0.812879 0
M  V30 17570 H 1538.89 2.0447 3.29045 0
M  V30 17571 H 1539.31 4.24801 3.07643 0
M  V30 17572 H 1540.78 3.24766 4.46353 0
M  V30 17573 H 1541.26 1.59235 4.09318 0
M  V30 17574 H 1541.87 2.92693 3.08563 0
M  V30 17575 N 1540.18 -0.899904 1.29381 0
M  V30 17576 C 1541.41 -1.68139 1.20053 0
M  V30 17577 C 1541.82 -1.87654 -0.241391 0
M  V30 17578 O 1541.16 -1.41334 -1.17347 0
M  V30 17579 C 1541.22 -3.08703 1.84235 0
M  V30 17580 C 1540.89 -3.12421 3.3353 0
M  V30 17581 C 1541.88 -2.92583 4.29757 0
M  V30 17582 C 1539.57 -3.34493 3.74726 0
M  V30 17583 C 1541.56 -2.94751 5.65156 0
M  V30 17584 C 1539.25 -3.36292 5.10246 0
M  V30 17585 C 1540.25 -3.16443 6.05271 0
M  V30 17586 O 1539.94 -3.18029 7.38317 0
M  V30 17587 H 1539.67 -0.531928 0.417167 0
M  V30 17588 H 1542.22 -1.13375 1.71275 0
M  V30 17589 H 1540.45 -3.65068 1.27524 0
M  V30 17590 H 1542.14 -3.68938 1.69232 0
M  V30 17591 H 1542.91 -2.75343 3.99264 0
M  V30 17592 H 1538.79 -3.48983 3.01217 0
M  V30 17593 H 1542.33 -2.79176 6.39301 0
M  V30 17594 H 1538.23 -3.53063 5.40386 0
M  V30 17595 H 1539 -3.34297 7.47119 0
M  V30 17596 N 1541.66 -1.11854 -1.11024 0
M  V30 17597 C 1542.61 -0.780825 -2.17191 0
M  V30 17598 C 1543.58 0.249657 -1.64213 0
M  V30 17599 O 1544.76 0.125603 -1.90386 0
M  V30 17600 C 1541.9 -0.23491 -3.443 0
M  V30 17601 C 1541.01 -1.32247 -4.1126 0
M  V30 17602 C 1540.15 -0.736638 -5.26068 0
M  V30 17603 C 1539.19 -1.80375 -5.8492 0
M  V30 17604 N 1538.32 -1.23709 -6.91115 0
M  V30 17605 H 1543.16 -1.69031 -2.45423 0
M  V30 17606 H 1540.7 -0.844041 -1.20476 0
M  V30 17607 H 1542.66 0.0996064 -4.17081 0
M  V30 17608 H 1541.29 0.637752 -3.16437 0
M  V30 17609 H 1540.34 -1.77387 -3.36509 0
M  V30 17610 H 1541.65 -2.12965 -4.51051 0
M  V30 17611 H 1540.81 -0.352432 -6.05675 0
M  V30 17612 H 1539.55 0.101811 -4.87594 0
M  V30 17613 H 1538.55 -2.19721 -5.03987 0
M  V30 17614 H 1539.78 -2.64531 -6.2546 0
M  V30 17615 H 1537.72 -0.420357 -6.54652 0
M  V30 17616 H 1537.64 -1.98093 -7.29586 0
M  V30 17617 H 1538.91 -0.879912 -7.74518 0
M  V30 17618 N 1543.14 1.28707 -0.909517 0
M  V30 17619 C 1544.37 1.98995 -0.555405 0
M  V30 17620 C 1544.77 1.68183 0.866665 0
M  V30 17621 O 1544.12 0.928626 1.585 0
M  V30 17622 C 1544.18 3.53018 -0.67958 0
M  V30 17623 C 1543.84 4.0741 -2.07042 0
M  V30 17624 C 1544.84 4.21565 -3.04268 0
M  V30 17625 C 1542.53 4.42204 -2.38245 0
M  V30 17626 C 1544.52 4.69762 -4.30816 0
M  V30 17627 C 1542.21 4.90095 -3.65034 0
M  V30 17628 C 1543.2 5.03831 -4.61133 0
M  V30 17629 O 1542.89 5.50679 -5.85668 0
M  V30 17630 H 1542.62 0.64228 -0.210836 0
M  V30 17631 H 1545.18 1.64974 -1.22364 0
M  V30 17632 H 1543.41 3.86673 0.0457104 0
M  V30 17633 H 1545.1 4.0453 -0.33319 0
M  V30 17634 H 1545.86 3.94962 -2.81478 0
M  V30 17635 H 1541.74 4.30766 -1.642 0
M  V30 17636 H 1545.29 4.80398 -5.0583 0
M  V30 17637 H 1541.18 5.16137 -3.8765 0
M  V30 17638 H 1541.95 5.68974 -5.88397 0
M  V30 17639 N 1544.61 0.673042 1.42506 0
M  V30 17640 C 1545.56 -0.00638067 2.30799 0
M  V30 17641 C 1546.53 -0.794524 1.45865 0
M  V30 17642 O 1547.72 -0.767129 1.74699 0
M  V30 17643 C 1544.86 -0.952923 3.31683 0
M  V30 17644 C 1543.97 -0.158787 4.31708 0
M  V30 17645 C 1543.1 -1.10092 5.19666 0
M  V30 17646 C 1542.14 -0.29837 6.11372 0
M  V30 17647 N 1541.28 -1.19312 6.91888 0
M  V30 17648 H 1546.12 0.75237 2.88346 0
M  V30 17649 H 1543.66 0.382763 1.42033 0
M  V30 17650 H 1545.62 -1.51552 3.887 0
M  V30 17651 H 1544.25 -1.67832 2.75739 0
M  V30 17652 H 1543.3 0.520406 3.76823 0
M  V30 17653 H 1544.61 0.464385 4.96634 0
M  V30 17654 H 1543.76 -1.7335 5.81407 0
M  V30 17655 H 1542.5 -1.75798 4.54914 0
M  V30 17656 H 1541.51 0.347437 5.48701 0
M  V30 17657 H 1542.73 0.354569 6.78174 0
M  V30 17658 H 1540.68 -1.83661 6.29765 0
M  V30 17659 H 1540.6 -0.624986 7.53412 0
M  V30 17660 H 1541.86 -1.81323 7.58118 0
M  V30 17661 N 1546.09 -1.52004 0.416254 0
M  V30 17662 C 1547 -2.30947 -0.412403 0
M  V30 17663 C 1548.02 -1.38969 -1.04707 0
M  V30 17664 O 1549.19 -1.72044 -1.04703 0
M  V30 17665 C 1546.26 -3.12078 -1.51024 0
M  V30 17666 C 1545.32 -4.19805 -0.897892 0
M  V30 17667 C 1544.55 -4.97059 -1.94341 0
M  V30 17668 O 1544.78 -4.74695 -3.16261 0
M  V30 17669 O 1543.71 -5.81715 -1.54567 0
M  V30 17670 H 1547.54 -3.02817 0.231473 0
M  V30 17671 H 1545.12 -1.4832 0.179283 0
M  V30 17672 H 1547 -3.6258 -2.14741 0
M  V30 17673 H 1545.68 -2.42995 -2.13858 0
M  V30 17674 H 1544.59 -3.73433 -0.223236 0
M  V30 17675 H 1545.92 -4.91201 -0.31336 0
M  V30 17676 N 1547.57 -0.146903 -1.56914 0
M  V30 17677 C 1548.82 0.504195 -1.95297 0
M  V30 17678 C 1549.13 1.66019 -1.03426 0
M  V30 17679 O 1550.34 2.37591 -1.31388 0
M  V30 17680 C 1548.79 0.948348 -3.47181 0
M  V30 17681 C 1548.4 -0.18071 -4.47635 0
M  V30 17682 C 1550.15 1.56924 -3.9443 0
M  V30 17683 C 1548.05 0.281707 -5.90729 0
M  V30 17684 H 1546.98 0.192127 -0.729111 0
M  V30 17685 H 1549.63 -0.231232 -1.82037 0
M  V30 17686 H 1548.02 1.73903 -3.55772 0
M  V30 17687 H 1549.19 -0.957645 -4.50739 0
M  V30 17688 H 1547.51 -0.710007 -4.10302 0
M  V30 17689 H 1550.1 1.92684 -4.98776 0
M  V30 17690 H 1550.45 2.45816 -3.35976 0
M  V30 17691 H 1550.98 0.843456 -3.88755 0
M  V30 17692 H 1547.72 -0.571839 -6.53001 0
M  V30 17693 H 1547.24 1.02452 -5.90985 0
M  V30 17694 H 1548.92 0.733746 -6.42826 0
M  V30 17695 N 1549.05 1.57088 0.126881 0
M  V30 17696 C 1550.46 1.73685 0.684865 0
M  V30 17697 C 1550.81 0.764401 1.80697 0
M  V30 17698 O 1549.94 -0.0644761 2.16304 0
M  V30 17699 C 1550.53 3.14933 1.24911 0
M  V30 17700 C 1549.09 3.33063 1.75346 0
M  V30 17701 C 1548.24 2.69575 0.649976 0
M  V30 17702 H 1551.19 1.58391 -0.0989715 0
M  V30 17703 H 1551.21 3.16047 2.11884 0
M  V30 17704 H 1550.72 3.85686 0.432204 0
M  V30 17705 H 1548.82 2.67339 2.59539 0
M  V30 17706 H 1548.93 4.41169 1.86833 0
M  V30 17707 H 1547.3 2.30592 1.08163 0
M  V30 17708 H 1548.08 3.42946 -0.15582 0
M  V30 17709 N 1550.53 -0.396836 1.52522 0
M  V30 17710 C 1551.47 -1.50474 1.77371 0
M  V30 17711 C 1552.47 -1.56792 0.641307 0
M  V30 17712 O 1553.67 -1.60052 0.823621 0
M  V30 17713 H 1550.05 -0.500667 0.561103 0
M  V30 17714 H 1552.02 -1.26706 2.70163 0
M  V30 17715 C 1550.77 -2.87702 1.95251 0
M  V30 17716 H 1550.09 -2.83588 2.81812 0
M  V30 17717 H 1551.53 -3.64482 2.16631 0
M  V30 17718 C 1549.99 -3.29053 0.722904 0
M  V30 17719 O 1550.52 -4.01567 -0.103398 0
M  V30 17720 N 1548.73 -2.85246 0.555263 0
M  V30 17721 H 1548.27 -2.26403 1.22879 0
M  V30 17722 H 1548.23 -3.13272 -0.266113 0
M  V30 17723 N 1552.01 -1.43353 -0.654814 0
M  V30 17724 C 1552.96 -1.44834 -1.76089 0
M  V30 17725 C 1553.94 -0.316999 -1.57746 0
M  V30 17726 O 1555.13 -0.560668 -1.67885 0
M  V30 17727 C 1552.26 -1.37256 -3.14668 0
M  V30 17728 C 1551.35 -2.55413 -3.38563 0
M  V30 17729 N 1551.74 -3.80769 -3.3294 0
M  V30 17730 C 1550.04 -2.50103 -3.69276 0
M  V30 17731 C 1550.74 -4.59366 -3.56872 0
M  V30 17732 N 1549.71 -3.90073 -3.78608 0
M  V30 17733 H 1553.51 -2.39628 -1.70164 0
M  V30 17734 H 1551.03 -1.37982 -0.856422 0
M  V30 17735 H 1553.03 -1.364 -3.93955 0
M  V30 17736 H 1551.69 -0.434805 -3.21776 0
M  V30 17737 H 1552.7 -4.13079 -3.12387 0
M  V30 17738 H 1549.37 -1.65007 -3.83509 0
M  V30 17739 H 1550.76 -5.68383 -3.58316 0
M  V30 17740 N 1553.48 0.89303 -1.29857 0
M  V30 17741 C 1554.39 2.03079 -1.17457 0
M  V30 17742 C 1555.41 1.73733 -0.0962941 0
M  V30 17743 O 1556.59 1.99005 -0.309667 0
M  V30 17744 C 1553.65 3.3589 -0.858991 0
M  V30 17745 C 1552.71 3.78711 -2.0218 0
M  V30 17746 C 1551.94 5.05184 -1.72118 0
M  V30 17747 O 1552.17 5.66738 -0.645276 0
M  V30 17748 O 1551.1 5.44218 -2.57119 0
M  V30 17749 H 1554.93 2.16465 -2.13017 0
M  V30 17750 H 1552.51 1.01774 -1.09373 0
M  V30 17751 H 1554.39 4.15582 -0.697852 0
M  V30 17752 H 1553.07 3.23631 0.0667756 0
M  V30 17753 H 1551.98 2.99758 -2.23822 0
M  V30 17754 H 1553.31 3.95563 -2.929 0
M  V30 17755 N 1554.96 1.12442 1.10429 0
M  V30 17756 C 1555.89 0.736067 2.16003 0
M  V30 17757 C 1556.87 -0.272805 1.60295 0
M  V30 17758 O 1558.06 -0.166744 1.87761 0
M  V30 17759 C 1555.18 0.0894945 3.38582 0
M  V30 17760 C 1554.23 1.0652 4.12984 0
M  V30 17761 S 1555.06 2.59279 4.68546 0
M  V30 17762 C 1556.22 1.95952 5.94436 0
M  V30 17763 H 1556.45 1.63033 2.48611 0
M  V30 17764 H 1553.98 0.94351 1.22218 0
M  V30 17765 H 1555.94 -0.27718 4.09563 0
M  V30 17766 H 1554.6 -0.781885 3.04213 0
M  V30 17767 H 1553.8 0.560426 5.00874 0
M  V30 17768 H 1553.4 1.37482 3.47814 0
M  V30 17769 H 1555.69 1.30231 6.64866 0
M  V30 17770 H 1556.63 2.81882 6.49575 0
M  V30 17771 H 1557.04 1.41533 5.46469 0
M  V30 17772 N 1556.44 -1.28223 0.91633 0
M  V30 17773 C 1557.69 -1.94865 0.550823 0
M  V30 17774 C 1558.01 -1.72113 -0.905945 0
M  V30 17775 O 1557.27 -1.03668 -1.65987 0
M  V30 17776 C 1557.57 -3.48112 0.809509 0
M  V30 17777 C 1557.23 -3.90967 2.24623 0
M  V30 17778 C 1555.9 -4.02379 2.63903 0
M  V30 17779 C 1558.25 -4.12865 3.18106 0
M  V30 17780 C 1555.58 -4.33069 3.95814 0
M  V30 17781 C 1557.93 -4.45036 4.49584 0
M  V30 17782 C 1556.59 -4.54659 4.88714 0
M  V30 17783 H 1555.86 -0.71306 0.20156 0
M  V30 17784 H 1558.51 -1.5251 1.15814 0
M  V30 17785 H 1556.81 -3.91618 0.119411 0
M  V30 17786 H 1558.51 -3.97797 0.505843 0
M  V30 17787 H 1555.1 -3.82614 1.93144 0
M  V30 17788 H 1559.29 -4.035 2.88966 0
M  V30 17789 H 1554.54 -4.38725 4.25829 0
M  V30 17790 H 1558.72 -4.60928 5.22033 0
M  V30 17791 H 1556.34 -4.78194 5.90961 0
M  V30 17792 N 1557.92 -0.68059 -1.42147 0
M  V30 17793 C 1559.33 -0.281841 -1.8456 0
M  V30 17794 C 1559.68 1.17714 -1.56965 0
M  V30 17795 O 1558.8 1.90185 -1.03241 0
M  V30 17796 C 1559.4 -0.504751 -3.35019 0
M  V30 17797 C 1557.96 -0.160067 -3.76059 0
M  V30 17798 C 1557.11 -0.794377 -2.65678 0
M  V30 17799 H 1560.06 -0.882337 -1.31911 0
M  V30 17800 H 1560.08 0.241308 -3.79734 0
M  V30 17801 H 1559.59 -1.56669 -3.55072 0
M  V30 17802 H 1557.69 0.898202 -3.61612 0
M  V30 17803 H 1557.8 -0.60463 -4.75269 0
M  V30 17804 H 1556.17 -0.225213 -2.53702 0
M  V30 17805 H 1556.95 -1.85989 -2.88553 0
M  V30 17806 N 1559.4 1.51781 -0.424309 0
M  V30 17807 C 1560.35 2.24259 0.411339 0
M  V30 17808 C 1561.33 1.25976 1.00094 0
M  V30 17809 O 1562.52 1.51136 0.921238 0
M  V30 17810 C 1559.65 3.07858 1.51917 0
M  V30 17811 C 1558.74 4.13561 0.939599 0
M  V30 17812 N 1559.13 5.05723 0.08803 0
M  V30 17813 C 1557.43 4.29314 1.20855 0
M  V30 17814 C 1558.13 5.81221 -0.236076 0
M  V30 17815 N 1557.1 5.42291 0.376983 0
M  V30 17816 H 1560.9 2.92874 -0.2454 0
M  V30 17817 H 1558.42 1.60682 -0.235612 0
M  V30 17818 H 1560.42 3.58347 2.13056 0
M  V30 17819 H 1559.08 2.40784 2.17837 0
M  V30 17820 H 1560.09 5.17156 -0.277436 0
M  V30 17821 H 1556.76 3.73469 1.86621 0
M  V30 17822 H 1558.15 6.65457 -0.928241 0
M  V30 17823 N 1560.87 0.155222 1.56834 0
M  V30 17824 C 1561.8 -0.777258 2.20184 0
M  V30 17825 C 1562.78 -1.25102 1.15254 0
M  V30 17826 O 1563.97 -1.3071 1.43627 0
M  V30 17827 C 1561.1 -2.01326 2.82993 0
M  V30 17828 C 1560.05 -1.67596 3.93822 0
M  V30 17829 C 1559.38 -2.98529 4.43604 0
M  V30 17830 C 1560.68 -0.916302 5.142 0
M  V30 17831 H 1562.37 -0.249257 2.98361 0
M  V30 17832 H 1559.92 -0.118448 1.43512 0
M  V30 17833 H 1561.87 -2.67048 3.2598 0
M  V30 17834 H 1560.6 -2.56513 2.0216 0
M  V30 17835 H 1559.26 -1.0425 3.51465 0
M  V30 17836 H 1558.9 -3.51723 3.59583 0
M  V30 17837 H 1558.6 -2.76721 5.18362 0
M  V30 17838 H 1560.13 -3.65308 4.89267 0
M  V30 17839 H 1561.54 -1.47577 5.5398 0
M  V30 17840 H 1559.94 -0.797856 5.94772 0
M  V30 17841 H 1561.01 0.0904351 4.84816 0
M  V30 17842 N 1562.35 -1.57153 -0.118549 0
M  V30 17843 C 1563.76 -1.74046 -0.675645 0
M  V30 17844 C 1564.11 -0.773974 -1.80289 0
M  V30 17845 O 1563.24 0.0530041 -2.16335 0
M  V30 17846 C 1563.83 -3.15591 -1.23239 0
M  V30 17847 C 1562.39 -3.33988 -1.73577 0
M  V30 17848 C 1561.54 -2.69916 -0.63567 0
M  V30 17849 H 1564.49 -1.58336 0.10737 0
M  V30 17850 H 1564.51 -3.17166 -2.10205 0
M  V30 17851 H 1564.02 -3.8591 -0.411744 0
M  V30 17852 H 1562.12 -2.68712 -2.58118 0
M  V30 17853 H 1562.24 -4.42154 -1.84491 0
M  V30 17854 H 1560.6 -2.31163 -1.06939 0
M  V30 17855 H 1561.38 -3.42859 0.174005 0
M  V30 17856 N 1563.83 0.388742 -1.5273 0
M  V30 17857 C 1564.78 1.47445 -1.73908 0
M  V30 17858 C 1565.76 1.49567 -0.593164 0
M  V30 17859 O 1566.96 1.552 -0.851006 0
M  V30 17860 C 1564.08 2.85155 -1.91159 0
M  V30 17861 C 1563.17 2.87601 -3.11683 0
M  V30 17862 N 1563.56 2.59718 -4.34028 0
M  V30 17863 C 1561.86 3.18769 -3.11933 0
M  V30 17864 C 1562.56 2.69254 -5.15633 0
M  V30 17865 N 1561.54 3.02996 -4.51325 0
M  V30 17866 H 1565.34 1.24714 -2.66127 0
M  V30 17867 H 1562.85 0.596694 -1.51041 0
M  V30 17868 H 1564.85 3.63325 -2.04452 0
M  V30 17869 H 1563.51 3.08868 -1.00153 0
M  V30 17870 H 1564.52 2.33735 -4.62156 0
M  V30 17871 H 1561.2 3.47946 -2.30738 0
M  V30 17872 H 1562.59 2.51239 -6.2316 0
M  V30 17873 N 1565.31 1.43698 0.647203 0
M  V30 17874 C 1566.24 1.45295 1.77262 0
M  V30 17875 C 1567.25 0.34831 1.5903 0
M  V30 17876 O 1568.44 0.613106 1.6764 0
M  V30 17877 C 1565.54 1.25584 3.14773 0
M  V30 17878 C 1564.71 2.48998 3.59609 0
M  V30 17879 C 1563.77 2.24423 4.75942 0
M  V30 17880 O 1562.8 2.97813 4.85073 0
M  V30 17881 N 1564 1.26465 5.66557 0
M  V30 17882 H 1566.77 2.42311 1.76368 0
M  V30 17883 H 1564.33 1.38931 0.831247 0
M  V30 17884 H 1566.32 1.07016 3.90294 0
M  V30 17885 H 1564.89 0.369927 3.10403 0
M  V30 17886 H 1564.11 2.82951 2.74467 0
M  V30 17887 H 1565.4 3.31119 3.86313 0
M  V30 17888 H 1564.8 0.658206 5.61858 0
M  V30 17889 H 1563.35 1.13879 6.41775 0
M  V30 17890 N 1566.79 -0.886131 1.30328 0
M  V30 17891 C 1568.03 -1.652 1.20367 0
M  V30 17892 C 1568.39 -1.90518 -0.238093 0
M  V30 17893 O 1569.59 -2.64819 -0.460926 0
M  V30 17894 C 1567.86 -2.95645 2.00821 0
M  V30 17895 S 1569.42 -3.86614 2.07545 0
M  V30 17896 H 1566.24 -0.567015 0.428969 0
M  V30 17897 H 1568.84 -1.05189 1.64789 0
M  V30 17898 H 1567.55 -2.74942 3.04688 0
M  V30 17899 H 1567.08 -3.6069 1.57056 0
M  V30 17900 H 1569.09 -4.81421 1.20199 0
M  V30 17901 N 1568.26 -1.13026 -1.09832 0
M  V30 17902 C 1569.49 -0.911137 -1.85423 0
M  V30 17903 C 1569.9 0.543325 -1.81231 0
M  V30 17904 O 1569.25 1.38768 -1.20371 0
M  V30 17905 C 1569.31 -1.31584 -3.34553 0
M  V30 17906 C 1568.97 -2.78288 -3.62498 0
M  V30 17907 C 1569.97 -3.7646 -3.58572 0
M  V30 17908 C 1567.65 -3.15346 -3.90976 0
M  V30 17909 C 1569.65 -5.09703 -3.82729 0
M  V30 17910 C 1567.33 -4.4877 -4.14788 0
M  V30 17911 C 1568.33 -5.45758 -4.10655 0
M  V30 17912 O 1568.02 -6.76775 -4.33856 0
M  V30 17913 H 1567.75 -0.325117 -0.592684 0
M  V30 17914 H 1570.31 -1.50559 -1.39718 0
M  V30 17915 H 1568.54 -0.664628 -3.80946 0
M  V30 17916 H 1570.23 -1.06986 -3.91547 0
M  V30 17917 H 1570.99 -3.49175 -3.36603 0
M  V30 17918 H 1566.87 -2.40459 -3.9332 0
M  V30 17919 H 1570.41 -5.85395 -3.79418 0
M  V30 17920 H 1566.31 -4.75781 -4.36237 0
M  V30 17921 H 1567.08 -6.82815 -4.51338 0
M  V30 17922 N 1569.74 1.27735 -0.923117 0
M  V30 17923 C 1570.99 1.9457 -0.561149 0
M  V30 17924 C 1571.32 1.72591 0.896805 0
M  V30 17925 O 1570.57 1.04546 1.65434 0
M  V30 17926 C 1570.87 3.47677 -0.827959 0
M  V30 17927 C 1570.54 3.8977 -2.26693 0
M  V30 17928 C 1569.2 4.00973 -2.66033 0
M  V30 17929 C 1571.55 4.11173 -3.20291 0
M  V30 17930 C 1568.88 4.30963 -3.98105 0
M  V30 17931 C 1571.23 4.42645 -4.51938 0
M  V30 17932 C 1569.9 4.52061 -4.91119 0
M  V30 17933 H 1569.17 0.711981 -0.205339 0
M  V30 17934 H 1571.81 1.51894 -1.16621 0
M  V30 17935 H 1570.12 3.91549 -0.140178 0
M  V30 17936 H 1571.81 3.97523 -0.526932 0
M  V30 17937 H 1568.4 3.81584 -1.95171 0
M  V30 17938 H 1572.59 4.01962 -2.91102 0
M  V30 17939 H 1567.84 4.36461 -4.28149 0
M  V30 17940 H 1572.02 4.58153 -5.2447 0
M  V30 17941 H 1569.65 4.75053 -5.93488 0
M  V30 17942 N 1571.22 0.688118 1.41784 0
M  V30 17943 C 1572.15 0.0323199 2.33478 0
M  V30 17944 C 1573.13 -0.775145 1.51412 0
M  V30 17945 O 1574.32 -0.72962 1.79973 0
M  V30 17946 C 1571.45 -0.910141 3.35162 0
M  V30 17947 C 1570.4 -0.210312 4.27483 0
M  V30 17948 C 1569.73 -1.26662 5.19481 0
M  V30 17949 C 1571.03 0.918839 5.14154 0
M  V30 17950 H 1572.72 0.798138 2.88566 0
M  V30 17951 H 1570.27 0.385262 1.38751 0
M  V30 17952 H 1572.22 -1.3781 3.98229 0
M  V30 17953 H 1570.94 -1.70754 2.78408 0
M  V30 17954 H 1569.6 0.237544 3.6583 0
M  V30 17955 H 1569.25 -2.05635 4.59046 0
M  V30 17956 H 1568.95 -0.803416 5.82082 0
M  V30 17957 H 1570.47 -1.73524 5.85424 0
M  V30 17958 H 1571.89 0.531499 5.70831 0
M  V30 17959 H 1570.29 1.30867 5.85657 0
M  V30 17960 H 1571.36 1.7618 4.51762 0
M  V30 17961 N 1572.7 -1.51554 0.432352 0
M  V30 17962 C 1573.63 -2.30514 -0.372243 0
M  V30 17963 C 1574.61 -1.35712 -1.02549 0
M  V30 17964 O 1575.79 -1.6463 -1.03009 0
M  V30 17965 C 1572.92 -3.14353 -1.47646 0
M  V30 17966 C 1571.88 -4.17392 -0.946974 0
M  V30 17967 C 1571.2 -4.89721 -2.14656 0
M  V30 17968 C 1572.5 -5.22298 0.0151377 0
M  V30 17969 H 1574.2 -2.98024 0.28668 0
M  V30 17970 H 1571.74 -1.43325 0.139315 0
M  V30 17971 H 1573.7 -3.68369 -2.04651 0
M  V30 17972 H 1572.42 -2.44654 -2.1636 0
M  V30 17973 H 1571.08 -3.6442 -0.399174 0
M  V30 17974 H 1570.73 -4.1653 -2.81978 0
M  V30 17975 H 1570.43 -5.59393 -1.79869 0
M  V30 17976 H 1571.95 -5.46559 -2.72224 0
M  V30 17977 H 1573.37 -5.71416 -0.464447 0
M  V30 17978 H 1571.76 -5.99468 0.275339 0
M  V30 17979 H 1572.83 -4.75436 0.953357 0
M  V30 17980 N 1574.18 -0.163538 -1.56749 0
M  V30 17981 C 1575.41 0.489178 -2.00725 0
M  V30 17982 C 1575.81 1.57869 -1.04279 0
M  V30 17983 O 1575.16 1.83668 -0.0344434 0
M  V30 17984 C 1575.22 1.13443 -3.41132 0
M  V30 17985 C 1574.88 0.187525 -4.56615 0
M  V30 17986 C 1575.88 -0.591169 -5.16528 0
M  V30 17987 C 1573.57 0.0856149 -5.02227 0
M  V30 17988 C 1575.56 -1.45905 -6.20476 0
M  V30 17989 C 1573.25 -0.785859 -6.06026 0
M  V30 17990 C 1574.24 -1.55678 -6.65021 0
M  V30 17991 O 1573.93 -2.41371 -7.66809 0
M  V30 17992 H 1573.66 0.130353 -0.663313 0
M  V30 17993 H 1576.22 -0.260065 -2.03747 0
M  V30 17994 H 1574.45 1.93165 -3.34999 0
M  V30 17995 H 1576.14 1.68856 -3.69111 0
M  V30 17996 H 1576.9 -0.522563 -4.82177 0
M  V30 17997 H 1572.78 0.675439 -4.56025 0
M  V30 17998 H 1576.33 -2.06125 -6.66452 0
M  V30 17999 H 1572.22 -0.855696 -6.39803 0
M  V30 18000 H 1572.99 -2.34801 -7.84099 0
M  V30 18001 N 1575.65 1.57214 0.110213 0
M  V30 18002 C 1576.88 1.8923 0.829187 0
M  V30 18003 C 1577.29 0.753834 1.73534 0
M  V30 18004 O 1576.64 -0.283946 1.81492 0
M  V30 18005 C 1576.7 3.16351 1.7077 0
M  V30 18006 C 1576.36 4.46479 0.974949 0
M  V30 18007 C 1577.36 5.18965 0.311696 0
M  V30 18008 C 1575.04 4.93167 0.953516 0
M  V30 18009 C 1577.04 6.36364 -0.363191 0
M  V30 18010 C 1574.72 6.10482 0.274836 0
M  V30 18011 C 1575.72 6.81929 -0.382355 0
M  V30 18012 O 1575.41 7.97011 -1.05019 0
M  V30 18013 H 1575.14 0.630744 0.243184 0
M  V30 18014 H 1577.7 2.05173 0.09648 0
M  V30 18015 H 1575.93 2.96513 2.48227 0
M  V30 18016 H 1577.62 3.34317 2.30189 0
M  V30 18017 H 1578.38 4.83944 0.319815 0
M  V30 18018 H 1574.26 4.37454 1.45448 0
M  V30 18019 H 1577.8 6.92069 -0.876728 0
M  V30 18020 H 1573.7 6.44958 0.26451 0
M  V30 18021 H 1574.47 8.12903 -0.95555 0
M  V30 18022 N 1577.13 -0.380637 1.52934 0
M  V30 18023 C 1578.08 -1.48584 1.78957 0
M  V30 18024 C 1579.07 -1.56103 0.657901 0
M  V30 18025 O 1580.28 -1.59169 0.84055 0
M  V30 18026 H 1576.66 -0.494687 0.566382 0
M  V30 18027 H 1578.63 -1.23833 2.71492 0
M  V30 18028 C 1577.38 -2.85615 1.98291 0
M  V30 18029 H 1576.7 -2.80583 2.84804 0
M  V30 18030 H 1578.14 -3.62164 2.20485 0
M  V30 18031 C 1576.6 -3.28267 0.757764 0
M  V30 18032 O 1577.13 -4.01654 -0.0608007 0
M  V30 18033 N 1575.33 -2.84641 0.585486 0
M  V30 18034 H 1574.88 -2.25087 1.25274 0
M  V30 18035 H 1574.84 -3.13536 -0.232871 0
M  V30 18036 N 1578.61 -1.44039 -0.639573 0
M  V30 18037 C 1579.84 -1.49626 -1.42462 0
M  V30 18038 C 1580.25 -0.117078 -1.88837 0
M  V30 18039 O 1579.59 0.885666 -1.6094 0
M  V30 18040 C 1579.65 -2.39182 -2.68388 0
M  V30 18041 C 1579.32 -3.86496 -2.43865 0
M  V30 18042 C 1580.31 -4.7725 -2.06224 0
M  V30 18043 C 1578 -4.31117 -2.57766 0
M  V30 18044 C 1579.99 -6.10625 -1.82801 0
M  V30 18045 C 1577.68 -5.64541 -2.33958 0
M  V30 18046 C 1578.68 -6.54113 -1.96533 0
M  V30 18047 O 1578.37 -7.85068 -1.72983 0
M  V30 18048 H 1578.1 -0.510054 -0.443645 0
M  V30 18049 H 1580.65 -1.89593 -0.790162 0
M  V30 18050 H 1578.88 -1.94127 -3.34442 0
M  V30 18051 H 1580.57 -2.35816 -3.30372 0
M  V30 18052 H 1581.34 -4.44051 -1.95048 0
M  V30 18053 H 1577.22 -3.61663 -2.85868 0
M  V30 18054 H 1580.76 -6.80499 -1.53514 0
M  V30 18055 H 1576.66 -5.97304 -2.44741 0
M  V30 18056 H 1577.43 -7.96782 -1.87298 0
M  V30 18057 N 1580.09 0.879207 -1.30796 0
M  V30 18058 C 1581 2.01822 -1.19604 0
M  V30 18059 C 1582.01 1.73621 -0.114715 0
M  V30 18060 O 1583.19 1.98665 -0.330757 0
M  V30 18061 C 1580.26 3.3496 -0.894569 0
M  V30 18062 C 1579.32 3.76545 -2.06185 0
M  V30 18063 C 1578.55 5.0333 -1.77467 0
M  V30 18064 O 1578.77 5.66022 -0.70535 0
M  V30 18065 O 1577.71 5.41461 -2.62876 0
M  V30 18066 H 1581.53 2.14194 -2.15301 0
M  V30 18067 H 1579.12 1.00608 -1.10446 0
M  V30 18068 H 1581 4.14818 -0.741891 0
M  V30 18069 H 1579.67 3.23684 0.0324464 0
M  V30 18070 H 1578.58 2.97367 -2.26988 0
M  V30 18071 H 1579.91 3.92434 -2.97079 0
M  V30 18072 N 1581.57 1.13606 1.09231 0
M  V30 18073 C 1582.98 0.91148 1.62938 0
M  V30 18074 C 1583.33 -0.55157 1.88287 0
M  V30 18075 O 1582.45 -1.4187 1.63407 0
M  V30 18076 C 1583.05 1.64812 2.96011 0
M  V30 18077 C 1581.61 1.46935 3.46536 0
M  V30 18078 C 1580.76 1.67605 2.20916 0
M  V30 18079 H 1583.71 1.28907 0.925669 0
M  V30 18080 H 1583.73 1.10638 3.6406 0
M  V30 18081 H 1583.24 2.71291 2.77529 0
M  V30 18082 H 1581.34 0.427667 3.70138 0
M  V30 18083 H 1581.45 2.23374 4.2384 0
M  V30 18084 H 1579.82 1.10105 2.29672 0
M  V30 18085 H 1580.6 2.75408 2.04952 0
M  V30 18086 N 1583.05 -1.27244 0.929878 0
M  V30 18087 C 1584.29 -1.94269 0.57146 0
M  V30 18088 C 1584.62 -1.73064 -0.887639 0
M  V30 18089 O 1583.88 -1.05422 -1.64878 0
M  V30 18090 C 1584.17 -3.47233 0.846386 0
M  V30 18091 C 1583.84 -3.88563 2.28757 0
M  V30 18092 C 1582.5 -3.99557 2.68156 0
M  V30 18093 C 1584.85 -4.09468 3.22467 0
M  V30 18094 C 1582.18 -4.28846 4.00385 0
M  V30 18095 C 1584.53 -4.40242 4.54279 0
M  V30 18096 C 1583.2 -4.4945 4.93509 0
M  V30 18097 H 1582.47 -0.710882 0.209112 0
M  V30 18098 H 1585.12 -1.51273 1.17425 0
M  V30 18099 H 1583.42 -3.91469 0.160941 0
M  V30 18100 H 1585.12 -3.97238 0.548006 0
M  V30 18101 H 1581.71 -3.80544 1.97192 0
M  V30 18102 H 1585.89 -4.00412 2.9323 0
M  V30 18103 H 1581.15 -4.34184 4.30458 0
M  V30 18104 H 1585.32 -4.55365 5.26892 0
M  V30 18105 H 1582.95 -4.71899 5.95999 0
M  V30 18106 N 1584.52 -0.695628 -1.41417 0
M  V30 18107 C 1585.45 -0.0447013 -2.33457 0
M  V30 18108 C 1586.43 0.767104 -1.51821 0
M  V30 18109 O 1587.62 0.720066 -1.80357 0
M  V30 18110 C 1584.75 0.892353 -3.3564 0
M  V30 18111 C 1583.7 0.187638 -4.27588 0
M  V30 18112 C 1583.03 1.23906 -5.20146 0
M  V30 18113 C 1584.33 -0.946093 -5.1366 0
M  V30 18114 H 1586.02 -0.81343 -2.88138 0
M  V30 18115 H 1583.57 -0.392614 -1.38544 0
M  V30 18116 H 1585.52 1.35696 -3.98954 0
M  V30 18117 H 1584.25 1.69275 -2.79309 0
M  V30 18118 H 1582.91 -0.256942 -3.65698 0
M  V30 18119 H 1582.55 2.03198 -4.6013 0
M  V30 18120 H 1582.25 0.772536 -5.82499 0
M  V30 18121 H 1583.78 1.70417 -5.86336 0
M  V30 18122 H 1585.19 -0.561764 -5.70541 0
M  V30 18123 H 1583.59 -1.33971 -5.84954 0
M  V30 18124 H 1584.66 -1.78573 -4.50821 0
M  V30 18125 N 1586 1.51322 -0.440383 0
M  V30 18126 C 1586.91 2.31574 0.37561 0
M  V30 18127 C 1587.93 1.40617 1.02483 0
M  V30 18128 O 1589.1 1.73688 1.01953 0
M  V30 18129 C 1586.17 3.14441 1.4604 0
M  V30 18130 C 1585.23 4.21181 0.830991 0
M  V30 18131 C 1584.46 5.00087 1.86409 0
M  V30 18132 O 1584.69 4.79666 3.08669 0
M  V30 18133 O 1583.62 5.84101 1.45293 0
M  V30 18134 H 1587.45 3.0241 -0.27962 0
M  V30 18135 H 1585.03 1.48016 -0.202857 0
M  V30 18136 H 1586.91 3.6595 2.08946 0
M  V30 18137 H 1585.59 2.46366 2.09965 0
M  V30 18138 H 1584.49 3.73741 0.163798 0
M  V30 18139 H 1585.83 4.91638 0.235174 0
M  V30 18140 N 1587.48 0.171848 1.5666 0
M  V30 18141 C 1588.43 -0.758237 2.17989 0
M  V30 18142 C 1589.4 -1.22654 1.12006 0
M  V30 18143 O 1590.58 -1.29461 1.40159 0
M  V30 18144 C 1587.72 -1.98189 2.82516 0
M  V30 18145 C 1586.83 -1.55711 4.02962 0
M  V30 18146 C 1585.97 -2.73447 4.55412 0
M  V30 18147 C 1585.01 -2.27462 5.68267 0
M  V30 18148 N 1584.15 -3.38293 6.15225 0
M  V30 18149 H 1588.99 -0.228467 2.97123 0
M  V30 18150 H 1586.52 -0.10104 1.46753 0
M  V30 18151 H 1588.48 -2.6996 3.18084 0
M  V30 18152 H 1587.11 -2.48536 2.05985 0
M  V30 18153 H 1586.16 -0.736126 3.7321 0
M  V30 18154 H 1587.47 -1.17957 4.84652 0
M  V30 18155 H 1586.63 -3.53374 4.93165 0
M  V30 18156 H 1585.37 -3.14462 3.7278 0
M  V30 18157 H 1584.37 -1.45982 5.30065 0
M  V30 18158 H 1585.6 -1.87505 6.52701 0
M  V30 18159 H 1583.54 -3.78882 5.35522 0
M  V30 18160 H 1583.46 -3.04633 6.91907 0
M  V30 18161 H 1584.73 -4.18503 6.57629 0
M  V30 18162 N 1588.96 -1.5727 -0.101874 0
M  V30 18163 C 1589.91 -2.0258 -1.14297 0
M  V30 18164 C 1590.9 -0.925674 -1.41872 0
M  V30 18165 O 1592.11 -1.11086 -1.41633 0
M  V30 18166 H 1588.48 -0.645504 -0.385782 0
M  V30 18167 H 1590.45 -2.8922 -0.734453 0
M  V30 18168 C 1589.2 -2.46036 -2.45686 0
M  V30 18169 H 1588.52 -3.30266 -2.2531 0
M  V30 18170 H 1589.96 -2.81522 -3.17051 0
M  V30 18171 C 1588.42 -1.33089 -3.09498 0
M  V30 18172 O 1588.95 -0.656277 -3.96303 0
M  V30 18173 N 1587.16 -1.08359 -2.69642 0
M  V30 18174 H 1586.71 -1.63397 -1.99146 0
M  V30 18175 H 1586.66 -0.329859 -3.12665 0
M  V30 18176 N 1590.44 0.372521 -1.53134 0
M  V30 18177 C 1591.37 1.4621 -1.82057 0
M  V30 18178 C 1592.35 1.56194 -0.673612 0
M  V30 18179 O 1593.53 1.70875 -0.922797 0
M  V30 18180 C 1590.66 2.83632 -2.00425 0
M  V30 18181 C 1589.62 2.88478 -3.16171 0
M  V30 18182 C 1588.94 4.28508 -3.19821 0
M  V30 18183 C 1590.24 2.56628 -4.54906 0
M  V30 18184 H 1591.94 1.22256 -2.73302 0
M  V30 18185 H 1589.48 0.586688 -1.31507 0
M  V30 18186 H 1591.43 3.59876 -2.19242 0
M  V30 18187 H 1590.16 3.0896 -1.05884 0
M  V30 18188 H 1588.82 2.14684 -2.97164 0
M  V30 18189 H 1588.47 4.509 -2.2293 0
M  V30 18190 H 1588.17 4.32667 -3.97584 0
M  V30 18191 H 1589.69 5.06635 -3.40813 0
M  V30 18192 H 1591.1 3.22587 -4.73931 0
M  V30 18193 H 1589.5 2.72114 -5.34859 0
M  V30 18194 H 1590.57 1.51902 -4.60493 0
M  V30 18195 N 1591.91 1.44376 0.631925 0
M  V30 18196 C 1592.86 1.47617 1.73762 0
M  V30 18197 C 1593.85 0.342055 1.57222 0
M  V30 18198 O 1595.04 0.587306 1.66972 0
M  V30 18199 C 1592.17 1.42245 3.12444 0
M  V30 18200 C 1591.25 2.60767 3.34457 0
M  V30 18201 N 1591.65 3.86017 3.2684 0
M  V30 18202 C 1589.94 2.55946 3.6525 0
M  V30 18203 C 1590.64 4.64986 3.49519 0
M  V30 18204 N 1589.62 3.96047 3.72354 0
M  V30 18205 H 1593.42 2.42305 1.6633 0
M  V30 18206 H 1590.94 1.39328 0.834362 0
M  V30 18207 H 1592.93 1.4265 3.91735 0
M  V30 18208 H 1591.59 0.485942 3.21043 0
M  V30 18209 H 1592.6 4.17997 3.05776 0
M  V30 18210 H 1589.28 1.71087 3.80835 0
M  V30 18211 H 1590.67 5.74011 3.49229 0
M  V30 18212 N 1593.39 -0.872258 1.31261 0
M  V30 18213 C 1594.64 -1.6219 1.20576 0
M  V30 18214 C 1594.96 -1.93557 -0.236769 0
M  V30 18215 O 1594.23 -1.58094 -1.15686 0
M  V30 18216 H 1592.81 -0.601265 0.443272 0
M  V30 18217 H 1595.47 -1.04438 1.64556 0
M  V30 18218 H 1594.57 -2.56653 1.77582 0
M  V30 18219 N 1594.87 -1.14184 -1.08627 0
M  V30 18220 C 1595.8 -0.849455 -2.17501 0
M  V30 18221 C 1596.78 0.194617 -1.68983 0
M  V30 18222 O 1597.97 0.0517757 -1.94131 0
M  V30 18223 C 1595.1 -0.323685 -3.45788 0
M  V30 18224 C 1594.05 -1.30294 -4.07685 0
M  V30 18225 C 1593.38 -0.636575 -5.30897 0
M  V30 18226 C 1594.68 -2.66441 -4.49229 0
M  V30 18227 H 1596.37 -1.75987 -2.42217 0
M  V30 18228 H 1593.92 -0.847595 -1.16412 0
M  V30 18229 H 1595.87 -0.106754 -4.21265 0
M  V30 18230 H 1594.59 0.62215 -3.20619 0
M  V30 18231 H 1593.25 -1.50601 -3.34238 0
M  V30 18232 H 1592.9 0.314995 -5.02013 0
M  V30 18233 H 1592.6 -1.28998 -5.73266 0
M  V30 18234 H 1594.12 -0.429117 -6.0909 0
M  V30 18235 H 1595.54 -2.50055 -5.15893 0
M  V30 18236 H 1593.93 -3.28033 -5.02508 0
M  V30 18237 H 1595 -3.23486 -3.61226 0
M  V30 18238 N 1596.35 1.26749 -0.936613 0
M  V30 18239 C 1597.26 2.30272 -0.448573 0
M  V30 18240 C 1598.27 1.67386 0.475184 0
M  V30 18241 O 1599.45 1.98232 0.355825 0
M  V30 18242 C 1596.52 3.45546 0.28262 0
M  V30 18243 C 1595.58 4.23926 -0.677138 0
M  V30 18244 C 1594.81 5.33697 0.019255 0
M  V30 18245 O 1595.03 5.56825 1.23703 0
M  V30 18246 O 1593.97 5.98302 -0.657119 0
M  V30 18247 H 1597.79 2.74072 -1.30838 0
M  V30 18248 H 1595.38 1.31863 -0.702314 0
M  V30 18249 H 1597.26 4.15635 0.694686 0
M  V30 18250 H 1595.93 3.03784 1.11789 0
M  V30 18251 H 1594.84 3.56337 -1.13906 0
M  V30 18252 H 1596.17 4.69425 -1.47988 0
M  V30 18253 N 1597.83 0.703118 1.41046 0
M  V30 18254 C 1599.07 0.236818 2.00708 0
M  V30 18255 C 1599.4 -1.17008 1.55994 0
M  V30 18256 O 1598.67 -1.79094 0.793871 0
M  V30 18257 H 1597.25 0.0845643 0.742198 0
M  V30 18258 H 1599.91 0.905964 1.72564 0
M  V30 18259 H 1599 0.260141 3.11014 0
M  V30 18260 N 1599.3 -1.51086 0.448402 0
M  V30 18261 C 1600.55 -2.02476 -0.114511 0
M  V30 18262 C 1600.88 -1.33126 -1.4139 0
M  V30 18263 O 1600.16 -0.449665 -1.89231 0
M  V30 18264 C 1600.44 -3.58659 -0.321842 0
M  V30 18265 C 1600.29 -4.38612 0.996975 0
M  V30 18266 C 1601.61 -4.26473 -1.08667 0
M  V30 18267 H 1598.73 -0.735906 -0.0401431 0
M  V30 18268 H 1601.37 -1.80622 0.589563 0
M  V30 18269 H 1599.52 -3.77411 -0.92157 0
M  V30 18270 H 1601.2 -4.31484 1.63154 0
M  V30 18271 H 1599.44 -4.03255 1.599 0
M  V30 18272 H 1600.11 -5.46087 0.805817 0
M  V30 18273 H 1602.59 -4.12058 -0.578559 0
M  V30 18274 H 1601.46 -5.35611 -1.20051 0
M  V30 18275 H 1601.72 -3.88086 -2.11758 0
M  V30 18276 N 1600.78 -0.180154 -1.56567 0
M  V30 18277 C 1602.03 0.463205 -1.97439 0
M  V30 18278 C 1602.36 1.62296 -1.06647 0
M  V30 18279 O 1601.64 1.94157 -0.115382 0
M  V30 18280 C 1601.92 0.937709 -3.47677 0
M  V30 18281 C 1601.77 -0.222835 -4.49248 0
M  V30 18282 C 1603.09 1.80836 -4.01231 0
M  V30 18283 H 1600.21 0.166899 -0.717854 0
M  V30 18284 H 1602.85 -0.268069 -1.88099 0
M  V30 18285 H 1601 1.56084 -3.55767 0
M  V30 18286 H 1602.67 -0.860155 -4.5321 0
M  V30 18287 H 1600.92 -0.876962 -4.24843 0
M  V30 18288 H 1601.59 0.151444 -5.51792 0
M  V30 18289 H 1604.06 1.28297 -3.95827 0
M  V30 18290 H 1602.94 2.10937 -5.06751 0
M  V30 18291 H 1603.2 2.75728 -3.45581 0
M  V30 18292 N 1602.26 1.57322 0.0935319 0
M  V30 18293 C 1603.49 1.90754 0.814111 0
M  V30 18294 C 1603.91 0.774571 1.71412 0
M  V30 18295 O 1603.27 -0.273775 1.79221 0
M  V30 18296 C 1603.32 3.23055 1.60211 0
M  V30 18297 O 1602.42 3.10755 2.71118 0
M  V30 18298 H 1601.76 0.625237 0.223552 0
M  V30 18299 H 1604.29 2.04486 0.068288 0
M  V30 18300 H 1604.3 3.56401 1.986 0
M  V30 18301 H 1602.98 4.05101 0.941607 0
M  V30 18302 H 1601.55 2.88926 2.35745 0
M  V30 18303 N 1603.74 -0.364395 1.53329 0
M  V30 18304 C 1604.69 -1.44645 1.79851 0
M  V30 18305 C 1605.66 -1.53151 0.642951 0
M  V30 18306 O 1606.84 -1.6902 0.885252 0
M  V30 18307 C 1603.98 -2.81575 1.99523 0
M  V30 18308 C 1603.09 -2.82026 3.27239 0
M  V30 18309 C 1602.23 -4.1054 3.37091 0
M  V30 18310 C 1601.27 -4.05138 4.58835 0
M  V30 18311 N 1600.4 -5.25303 4.65834 0
M  V30 18312 H 1605.24 -1.21329 2.72182 0
M  V30 18313 H 1602.78 -0.588143 1.34831 0
M  V30 18314 H 1604.74 -3.61124 2.08915 0
M  V30 18315 H 1603.37 -3.03288 1.10527 0
M  V30 18316 H 1602.42 -1.94704 3.26794 0
M  V30 18317 H 1603.73 -2.73907 4.16865 0
M  V30 18318 H 1602.89 -4.98504 3.45801 0
M  V30 18319 H 1601.63 -4.21413 2.45483 0
M  V30 18320 H 1600.63 -3.1556 4.50224 0
M  V30 18321 H 1601.86 -3.95866 5.51785 0
M  V30 18322 H 1599.8 -5.36759 3.77128 0
M  V30 18323 H 1599.72 -5.19358 5.49367 0
M  V30 18324 H 1600.99 -6.15096 4.78829 0
M  V30 18325 N 1605.22 -1.44709 -0.62426 0
M  V30 18326 C 1606.47 -1.47131 -1.37968 0
M  V30 18327 C 1606.78 -0.110507 -1.95288 0
M  V30 18328 O 1607.98 -0.0122892 -2.71497 0
M  V30 18329 C 1606.44 -2.59059 -2.49833 0
M  V30 18330 C 1606.05 -4.01378 -1.98997 0
M  V30 18331 C 1607.79 -2.70709 -3.26981 0
M  V30 18332 C 1605.7 -5.04717 -3.08244 0
M  V30 18333 H 1604.63 -0.547424 -0.5185 0
M  V30 18334 H 1607.28 -1.70797 -0.670863 0
M  V30 18335 H 1605.66 -2.28646 -3.23322 0
M  V30 18336 H 1606.84 -4.41391 -1.32327 0
M  V30 18337 H 1605.15 -3.9403 -1.34644 0
M  V30 18338 H 1607.75 -3.45087 -4.08435 0
M  V30 18339 H 1608.09 -1.76763 -3.76909 0
M  V30 18340 H 1608.62 -3.00566 -2.60585 0
M  V30 18341 H 1605.36 -6.00315 -2.63253 0
M  V30 18342 H 1604.88 -4.6929 -3.73534 0
M  V30 18343 H 1606.56 -5.28725 -3.72906 0
M  V30 18344 N 1606.69 0.865285 -1.31722 0
M  V30 18345 C 1607.92 1.65137 -1.24649 0
M  V30 18346 C 1608.34 1.87868 0.187391 0
M  V30 18347 O 1607.69 1.44015 1.12098 0
M  V30 18348 C 1607.75 3.0167 -1.99193 0
M  V30 18349 O 1607.47 2.79951 -3.36985 0
M  V30 18350 C 1608.97 3.96115 -1.99017 0
M  V30 18351 H 1606.19 0.514683 -0.430514 0
M  V30 18352 H 1608.73 1.07971 -1.73674 0
M  V30 18353 H 1606.89 3.55511 -1.53918 0
M  V30 18354 H 1607.3 3.66706 -3.75002 0
M  V30 18355 H 1608.77 4.89217 -2.55677 0
M  V30 18356 H 1609.25 4.28268 -0.973815 0
M  V30 18357 H 1609.86 3.4821 -2.44192 0
M  V30 18358 N 1608.17 1.14759 1.0802 0
M  V30 18359 C 1609.59 0.8888 1.32561 0
M  V30 18360 C 1609.79 -0.467926 1.95992 0
M  V30 18361 O 1608.84 -1.21135 2.21546 0
M  V30 18362 C 1610.16 2.02456 2.22333 0
M  V30 18363 C 1611.71 2.05831 2.35802 0
M  V30 18364 C 1612.18 3.18711 3.28918 0
M  V30 18365 N 1613.67 3.18315 3.36496 0
M  V30 18366 C 1614.41 4.02297 4.08589 0
M  V30 18367 N 1613.9 4.96327 4.83354 0
M  V30 18368 N 1615.7 3.90344 4.0446 0
M  V30 18369 H 1607.85 2.02135 0.652307 0
M  V30 18370 H 1610.11 0.881021 0.35001 0
M  V30 18371 H 1609.82 3.00354 1.82976 0
M  V30 18372 H 1609.69 1.95108 3.2282 0
M  V30 18373 H 1612.08 1.08537 2.74415 0
M  V30 18374 H 1612.16 2.17248 1.35044 0
M  V30 18375 H 1611.8 4.16253 2.91025 0
M  V30 18376 H 1611.73 3.04531 4.29614 0
M  V30 18377 H 1614.22 2.50214 2.83199 0
M  V30 18378 H 1614.54 5.56865 5.35837 0
M  V30 18379 H 1612.88 5.00321 4.82394 0
M  V30 18380 H 1616.07 3.162 3.45159 0
M  V30 18381 H 1616.24 4.56019 4.60381 0
M  V30 18382 N 1609.65 -1.26251 0.943322 0
M  V30 18383 C 1610.6 -2.26304 0.453315 0
M  V30 18384 C 1611.57 -1.58764 -0.488168 0
M  V30 18385 O 1612.75 -1.86476 -0.403906 0
M  V30 18386 C 1609.89 -3.44015 -0.273393 0
M  V30 18387 C 1609.01 -4.26225 0.70401 0
M  V30 18388 C 1608.14 -5.31182 -0.0441134 0
M  V30 18389 C 1607.18 -6.05071 0.924971 0
M  V30 18390 N 1606.32 -7.0179 0.208461 0
M  V30 18391 H 1611.16 -2.67591 1.31146 0
M  V30 18392 H 1608.69 -1.31567 0.657914 0
M  V30 18393 H 1610.65 -4.11094 -0.711192 0
M  V30 18394 H 1609.28 -3.03636 -1.09566 0
M  V30 18395 H 1608.33 -3.58915 1.26032 0
M  V30 18396 H 1609.65 -4.77442 1.44398 0
M  V30 18397 H 1608.8 -6.04282 -0.541091 0
M  V30 18398 H 1607.54 -4.80809 -0.816952 0
M  V30 18399 H 1606.54 -5.30795 1.43305 0
M  V30 18400 H 1607.77 -6.57533 1.69785 0
M  V30 18401 H 1605.71 -6.53725 -0.545846 0
M  V30 18402 H 1605.63 -7.5077 0.887725 0
M  V30 18403 H 1606.9 -7.79041 -0.267352 0
M  V30 18404 N 1611.13 -0.710588 -1.40671 0
M  V30 18405 C 1612.35 -0.256007 -2.05814 0
M  V30 18406 C 1612.78 1.09178 -1.53173 0
M  V30 18407 O 1612.14 1.68665 -0.664977 0
M  V30 18408 C 1612.19 -0.240528 -3.59797 0
M  V30 18409 O 1611.29 0.779859 -4.04959 0
M  V30 18410 H 1610.63 -0.121326 -0.652822 0
M  V30 18411 H 1613.16 -0.969667 -1.80163 0
M  V30 18412 H 1613.17 -0.0765027 -4.07928 0
M  V30 18413 H 1611.85 -1.22411 -3.97478 0
M  V30 18414 H 1610.42 0.583965 -3.68299 0
M  V30 18415 N 1612.61 1.50847 -0.456408 0
M  V30 18416 C 1613.85 2.02534 0.103772 0
M  V30 18417 C 1614.19 1.33874 1.40682 0
M  V30 18418 O 1613.46 0.459695 1.8899 0
M  V30 18419 C 1613.74 3.58825 0.302817 0
M  V30 18420 C 1613.6 4.38077 -1.02022 0
M  V30 18421 C 1614.92 4.27044 1.06404 0
M  V30 18422 H 1612.04 0.736108 0.0362398 0
M  V30 18423 H 1614.68 1.80306 -0.599134 0
M  V30 18424 H 1612.83 3.77895 0.901542 0
M  V30 18425 H 1614.5 4.30613 -1.6544 0
M  V30 18426 H 1612.74 4.02401 -1.62036 0
M  V30 18427 H 1613.41 5.45652 -0.834766 0
M  V30 18428 H 1615.89 4.12359 0.556698 0
M  V30 18429 H 1614.77 5.3624 1.17209 0
M  V30 18430 H 1615.03 3.89204 2.09697 0
M  V30 18431 N 1614.09 0.188454 1.56469 0
M  V30 18432 C 1615.02 -0.730379 2.21783 0
M  V30 18433 C 1616 -1.22629 1.17882 0
M  V30 18434 O 1617.18 -1.27634 1.46367 0
M  V30 18435 C 1614.31 -1.95278 2.872 0
M  V30 18436 C 1613.27 -1.59205 3.97288 0
M  V30 18437 C 1612.59 -2.89052 4.49836 0
M  V30 18438 C 1613.89 -0.807027 5.16027 0
M  V30 18439 H 1615.59 -0.185914 2.98822 0
M  V30 18440 H 1613.13 -0.0879804 1.43731 0
M  V30 18441 H 1615.08 -2.60074 3.31571 0
M  V30 18442 H 1613.81 -2.52167 2.07556 0
M  V30 18443 H 1612.47 -0.967713 3.53597 0
M  V30 18444 H 1612.12 -3.44017 3.66963 0
M  V30 18445 H 1611.82 -2.65663 5.24115 0
M  V30 18446 H 1613.34 -3.54847 4.96906 0
M  V30 18447 H 1614.75 -1.35794 5.56986 0
M  V30 18448 H 1613.15 -0.671516 5.96331 0
M  V30 18449 H 1614.22 0.193251 4.84515 0
M  V30 18450 N 1615.56 -1.5737 -0.0851874 0
M  V30 18451 C 1616.79 -1.91183 -0.803983 0
M  V30 18452 C 1617.21 -0.78365 -1.70999 0
M  V30 18453 O 1616.57 0.264266 -1.79364 0
M  V30 18454 C 1616.62 -3.239 -1.58496 0
M  V30 18455 O 1615.72 -3.12189 -2.69466 0
M  V30 18456 H 1615.06 -0.626413 -0.220233 0
M  V30 18457 H 1617.59 -2.04519 -0.0574426 0
M  V30 18458 H 1617.6 -3.5745 -1.96707 0
M  V30 18459 H 1616.28 -4.05594 -0.920111 0
M  V30 18460 H 1614.86 -2.90173 -2.3421 0
M  V30 18461 N 1617.04 0.356258 -1.53521 0
M  V30 18462 C 1618.46 0.698546 -1.43501 0
M  V30 18463 C 1618.66 1.92926 -0.581547 0
M  V30 18464 O 1617.71 2.5241 -0.0675947 0
M  V30 18465 C 1619.03 0.903047 -2.8682 0
M  V30 18466 C 1620.57 1.00247 -2.96512 0
M  V30 18467 C 1621.05 1.23938 -4.40912 0
M  V30 18468 N 1622.54 1.30687 -4.44382 0
M  V30 18469 C 1623.28 1.50745 -5.5323 0
M  V30 18470 N 1622.77 1.68058 -6.72107 0
M  V30 18471 N 1624.56 1.5319 -5.40823 0
M  V30 18472 H 1616.72 -0.453102 -2.07511 0
M  V30 18473 H 1618.98 -0.140708 -0.937499 0
M  V30 18474 H 1618.68 0.070416 -3.5163 0
M  V30 18475 H 1618.56 1.80847 -3.3102 0
M  V30 18476 H 1620.95 1.82564 -2.3185 0
M  V30 18477 H 1621.03 0.0742303 -2.55692 0
M  V30 18478 H 1620.67 0.421189 -5.06151 0
M  V30 18479 H 1620.6 2.18098 -4.79313 0
M  V30 18480 H 1623.09 1.18883 -3.58713 0
M  V30 18481 H 1623.4 1.82963 -7.50829 0
M  V30 18482 H 1621.75 1.65219 -6.75076 0
M  V30 18483 H 1624.94 1.39237 -4.46912 0
M  V30 18484 H 1625.11 1.6848 -6.25714 0
M  V30 18485 N 1618.52 1.45038 0.616577 0
M  V30 18486 C 1619.75 1.51874 1.40064 0
M  V30 18487 C 1620.16 0.147105 1.88627 0
M  V30 18488 O 1619.5 -0.85995 1.62329 0
M  V30 18489 C 1619.56 2.43421 2.64549 0
M  V30 18490 C 1619.23 3.90326 2.37685 0
M  V30 18491 C 1620.22 4.80471 1.98605 0
M  V30 18492 C 1617.91 4.35163 2.50875 0
M  V30 18493 C 1619.9 6.13456 1.73064 0
M  V30 18494 C 1617.59 5.68192 2.24947 0
M  V30 18495 C 1618.59 6.57157 1.86102 0
M  V30 18496 O 1618.28 7.87721 1.60472 0
M  V30 18497 H 1618.01 0.517048 0.435474 0
M  V30 18498 H 1620.56 1.90826 0.759899 0
M  V30 18499 H 1618.79 1.99423 3.31312 0
M  V30 18500 H 1620.48 2.41042 3.26579 0
M  V30 18501 H 1621.25 4.47098 1.87959 0
M  V30 18502 H 1617.13 3.66165 2.80078 0
M  V30 18503 H 1620.67 6.82855 1.42669 0
M  V30 18504 H 1616.57 6.01122 2.35207 0
M  V30 18505 H 1617.33 7.99661 1.74598 0
M  V30 18506 N 1620 -0.858287 1.32179 0
M  V30 18507 C 1620.93 -1.98219 1.23415 0
M  V30 18508 C 1621.91 -1.69685 0.118779 0
M  V30 18509 O 1623.09 -1.91785 0.305342 0
M  V30 18510 C 1620.22 -3.33977 0.952725 0
M  V30 18511 C 1619.18 -3.76853 2.02894 0
M  V30 18512 C 1618.5 -5.10201 1.59999 0
M  V30 18513 C 1619.8 -3.92707 3.44352 0
M  V30 18514 H 1621.5 -2.05809 2.17446 0
M  V30 18515 H 1619.04 -0.988817 1.04682 0
M  V30 18516 H 1621 -4.12152 0.87798 0
M  V30 18517 H 1619.72 -3.26592 -0.023234 0
M  V30 18518 H 1618.38 -3.00926 2.09378 0
M  V30 18519 H 1618.03 -4.99268 0.61157 0
M  V30 18520 H 1617.73 -5.39859 2.32004 0
M  V30 18521 H 1619.25 -5.90873 1.53954 0
M  V30 18522 H 1620.67 -4.61246 3.40477 0
M  V30 18523 H 1619.06 -4.33779 4.14675 0
M  V30 18524 H 1620.13 -2.95731 3.8428 0
M  V30 18525 N 1621.48 -1.1533 -1.07409 0
M  V30 18526 C 1622.42 -0.849527 -2.14597 0
M  V30 18527 C 1623.39 0.197288 -1.64924 0
M  V30 18528 O 1624.58 0.0649694 -1.90689 0
M  V30 18529 C 1621.72 -0.344327 -3.43378 0
M  V30 18530 C 1620.83 -1.45264 -4.06844 0
M  V30 18531 C 1619.97 -0.90363 -5.23458 0
M  V30 18532 C 1619 -1.98892 -5.78885 0
M  V30 18533 N 1618.14 -1.45633 -6.8683 0
M  V30 18534 H 1622.98 -1.76753 -2.39922 0
M  V30 18535 H 1620.52 -0.881942 -1.17729 0
M  V30 18536 H 1622.48 -0.0331352 -4.17187 0
M  V30 18537 H 1621.11 0.536757 -3.18306 0
M  V30 18538 H 1620.16 -1.88003 -3.30695 0
M  V30 18539 H 1621.47 -2.27207 -4.44048 0
M  V30 18540 H 1620.62 -0.544945 -6.04248 0
M  V30 18541 H 1619.36 -0.0533648 -4.87671 0
M  V30 18542 H 1618.37 -2.35644 -4.96741 0
M  V30 18543 H 1619.59 -2.84295 -6.16728 0
M  V30 18544 H 1617.54 -0.628417 -6.52983 0
M  V30 18545 H 1617.46 -2.21204 -7.22914 0
M  V30 18546 H 1618.72 -1.12587 -7.71326 0
M  V30 18547 N 1622.95 1.25748 -0.950004 0
M  V30 18548 C 1623.9 2.28056 -0.457542 0
M  V30 18549 C 1624.9 1.62756 0.469776 0
M  V30 18550 O 1626.1 1.76623 0.347016 0
M  V30 18551 H 1622.48 0.740775 -0.129447 0
M  V30 18552 H 1624.45 2.66984 -1.33275 0
M  V30 18553 C 1623.2 3.46774 0.2536 0
M  V30 18554 H 1622.52 3.9725 -0.450808 0
M  V30 18555 H 1623.96 4.20255 0.562264 0
M  V30 18556 C 1622.42 3.02919 1.4745 0
M  V30 18557 O 1622.95 3.08527 2.57243 0
M  V30 18558 N 1621.15 2.58162 1.33419 0
M  V30 18559 H 1620.7 2.53799 0.440894 0
M  V30 18560 H 1620.66 2.29184 2.15226 0
M  V30 18561 N 1624.43 0.718038 1.40292 0
M  V30 18562 C 1625.68 0.255581 2.00074 0
M  V30 18563 C 1625.99 -1.15859 1.57594 0
M  V30 18564 O 1627.2 -1.71969 2.10092 0
M  V30 18565 C 1625.66 0.406019 3.57602 0
M  V30 18566 C 1625.26 1.82699 4.09054 0
M  V30 18567 C 1627.01 0.00447854 4.245 0
M  V30 18568 C 1624.91 1.92788 5.59094 0
M  V30 18569 H 1623.84 0.0918012 0.748391 0
M  V30 18570 H 1626.5 0.88948 1.60501 0
M  V30 18571 H 1624.88 -0.296504 3.94888 0
M  V30 18572 H 1626.05 2.56009 3.8314 0
M  V30 18573 H 1624.37 2.18021 3.54761 0
M  V30 18574 H 1626.96 0.05911 5.34667 0
M  V30 18575 H 1627.31 -1.03779 4.03157 0
M  V30 18576 H 1627.84 0.657535 3.92328 0
M  V30 18577 H 1624.58 2.95145 5.85295 0
M  V30 18578 H 1624.1 1.23893 5.86865 0
M  V30 18579 H 1625.78 1.70114 6.24236 0
M  V30 18580 N 1625.91 -1.50602 0.464402 0
M  V30 18581 C 1626.86 -2.29992 -0.347337 0
M  V30 18582 C 1627.85 -1.36991 -0.996489 0
M  V30 18583 O 1629.06 -1.54213 -0.928359 0
M  V30 18584 H 1625.43 -0.740529 -0.130847 0
M  V30 18585 H 1627.4 -2.96425 0.342734 0
M  V30 18586 C 1626.15 -3.17355 -1.4206 0
M  V30 18587 H 1625.48 -3.88822 -0.930473 0
M  V30 18588 H 1626.92 -3.75912 -1.96129 0
M  V30 18589 C 1625.38 -2.34506 -2.41886 0
M  V30 18590 O 1625.91 -2.02347 -3.47014 0
M  V30 18591 N 1624.11 -1.97212 -2.13438 0
M  V30 18592 H 1623.66 -2.23564 -1.27971 0
M  V30 18593 H 1623.62 -1.42081 -2.80464 0
M  V30 18594 N 1627.39 -0.19675 -1.56367 0
M  V30 18595 C 1628.32 0.718607 -2.22167 0
M  V30 18596 C 1629.3 1.22002 -1.1853 0
M  V30 18597 O 1630.48 1.26856 -1.47042 0
M  V30 18598 C 1627.61 1.93753 -2.88231 0
M  V30 18599 C 1626.57 1.57096 -3.98127 0
M  V30 18600 C 1625.89 2.86663 -4.51363 0
M  V30 18601 C 1627.19 0.779649 -5.16448 0
M  V30 18602 H 1628.89 0.170064 -2.98917 0
M  V30 18603 H 1626.43 0.0803568 -1.43776 0
M  V30 18604 H 1628.39 2.58312 -3.32946 0
M  V30 18605 H 1627.11 2.51063 -2.0889 0
M  V30 18606 H 1625.77 0.948947 -3.54105 0
M  V30 18607 H 1625.42 3.42066 -3.68782 0
M  V30 18608 H 1625.12 2.6288 -5.25517 0
M  V30 18609 H 1626.64 3.52207 -4.98781 0
M  V30 18610 H 1628.06 1.32838 -5.57698 0
M  V30 18611 H 1626.45 0.639882 -5.96679 0
M  V30 18612 H 1627.52 -0.218944 -4.84405 0
M  V30 18613 N 1628.87 1.57413 0.0768405 0
M  V30 18614 C 1630.12 1.86186 0.775741 0
M  V30 18615 C 1630.43 0.788676 1.78995 0
M  V30 18616 O 1631.63 0.964095 2.53806 0
M  V30 18617 C 1630.09 3.30247 1.43055 0
M  V30 18618 C 1629.7 4.45682 0.45517 0
M  V30 18619 C 1631.44 3.68225 2.11211 0
M  V30 18620 C 1629.35 5.80782 1.11561 0
M  V30 18621 H 1628.28 0.694546 0.293466 0
M  V30 18622 H 1630.93 1.83477 0.0289478 0
M  V30 18623 H 1629.31 3.27552 2.22544 0
M  V30 18624 H 1630.49 4.59759 -0.309535 0
M  V30 18625 H 1628.8 4.16222 -0.121671 0
M  V30 18626 H 1631.4 4.66454 2.6139 0
M  V30 18627 H 1631.74 2.9777 2.90928 0
M  V30 18628 H 1632.27 3.72888 1.38561 0
M  V30 18629 H 1629.01 6.54517 0.358877 0
M  V30 18630 H 1628.53 5.70515 1.8513 0
M  V30 18631 H 1630.21 6.25951 1.63689 0
M  V30 18632 N 1630.34 -0.348112 1.53707 0
M  V30 18633 C 1631.28 -1.44781 1.77682 0
M  V30 18634 C 1632.29 -1.4891 0.657997 0
M  V30 18635 O 1633.48 -1.52075 0.934635 0
M  V30 18636 C 1630.58 -2.83463 1.85747 0
M  V30 18637 C 1629.75 -3.02827 3.15618 0
M  V30 18638 C 1628.81 -4.21724 3.14698 0
M  V30 18639 O 1627.84 -4.16059 3.88437 0
M  V30 18640 N 1629.04 -5.3003 2.36746 0
M  V30 18641 H 1631.8 -1.24587 2.72577 0
M  V30 18642 H 1629.36 -0.537961 1.52701 0
M  V30 18643 H 1631.36 -3.6117 1.82589 0
M  V30 18644 H 1629.93 -2.96822 0.980595 0
M  V30 18645 H 1629.15 -2.1263 3.31937 0
M  V30 18646 H 1630.43 -3.12645 4.01411 0
M  V30 18647 H 1629.83 -5.375 1.7638 0
M  V30 18648 H 1628.39 -6.06247 2.39389 0
M  V30 18649 N 1631.82 -1.45363 -0.608876 0
M  V30 18650 C 1633.23 -1.43794 -1.19081 0
M  V30 18651 C 1633.58 -0.164874 -1.95506 0
M  V30 18652 O 1632.71 0.733623 -2.03585 0
M  V30 18653 C 1633.3 -2.60506 -2.16615 0
M  V30 18654 C 1631.86 -2.62061 -2.70187 0
M  V30 18655 C 1631.01 -2.36018 -1.4557 0
M  V30 18656 H 1633.96 -1.53622 -0.39826 0
M  V30 18657 H 1633.98 -2.34531 -2.99625 0
M  V30 18658 H 1633.49 -3.53147 -1.60963 0
M  V30 18659 H 1631.6 -1.73423 -3.2978 0
M  V30 18660 H 1631.71 -3.61242 -3.14708 0
M  V30 18661 H 1630.07 -1.8555 -1.74481 0
M  V30 18662 H 1630.86 -3.30802 -0.917884 0
M  V30 18663 N 1633.3 0.851265 -1.32632 0
M  V30 18664 C 1634.21 1.99239 -1.23858 0
M  V30 18665 C 1635.23 1.73339 -0.151517 0
M  V30 18666 O 1636.4 1.97919 -0.372822 0
M  V30 18667 C 1633.47 3.32987 -0.965417 0
M  V30 18668 C 1632.53 3.72087 -2.14126 0
M  V30 18669 C 1631.76 4.99453 -1.88103 0
M  V30 18670 O 1631.98 5.64399 -0.825253 0
M  V30 18671 O 1630.92 5.35763 -2.74302 0
M  V30 18672 H 1634.74 2.09579 -2.19796 0
M  V30 18673 H 1632.33 0.98243 -1.12555 0
M  V30 18674 H 1634.21 4.13151 -0.829713 0
M  V30 18675 H 1632.89 3.2368 -0.036219 0
M  V30 18676 H 1631.79 2.92485 -2.33245 0
M  V30 18677 H 1633.13 3.86045 -3.05336 0
M  V30 18678 N 1634.78 1.15898 1.06796 0
M  V30 18679 C 1635.73 0.860895 2.14143 0
M  V30 18680 C 1636.7 -0.188539 1.65026 0
M  V30 18681 O 1637.88 -0.0548558 1.90721 0
M  V30 18682 C 1635.02 0.362533 3.4319 0
M  V30 18683 C 1634.13 1.4742 4.06068 0
M  V30 18684 C 1633.27 0.931377 5.22971 0
M  V30 18685 C 1632.31 2.0196 5.77822 0
M  V30 18686 N 1631.44 1.49274 6.86048 0
M  V30 18687 H 1636.28 1.78023 2.38981 0
M  V30 18688 H 1633.82 0.888173 1.1726 0
M  V30 18689 H 1635.78 0.0552592 4.17163 0
M  V30 18690 H 1634.41 -0.519869 3.18586 0
M  V30 18691 H 1633.46 1.89754 3.29693 0
M  V30 18692 H 1634.77 2.29559 4.42836 0
M  V30 18693 H 1633.93 0.576982 6.0395 0
M  V30 18694 H 1632.67 0.0792265 4.87636 0
M  V30 18695 H 1631.67 2.38275 4.95485 0
M  V30 18696 H 1632.9 2.87562 6.15211 0
M  V30 18697 H 1630.84 0.663037 6.52641 0
M  V30 18698 H 1630.76 2.25035 7.21731 0
M  V30 18699 H 1632.03 1.16676 7.70718 0
M  V30 18700 N 1636.26 -1.25243 0.956659 0
M  V30 18701 C 1637.48 -1.97082 0.629791 0
M  V30 18702 C 1637.9 -1.71082 -0.798529 0
M  V30 18703 O 1637.26 -0.98805 -1.5344 0
M  V30 18704 C 1637.31 -3.5059 0.881406 0
M  V30 18705 O 1637.03 -3.75694 2.25356 0
M  V30 18706 C 1638.53 -4.39656 0.567203 0
M  V30 18707 H 1635.75 -0.628152 0.235938 0
M  V30 18708 H 1638.29 -1.5936 1.28159 0
M  V30 18709 H 1636.45 -3.86416 0.27599 0
M  V30 18710 H 1636.86 -4.70142 2.32523 0
M  V30 18711 H 1638.34 -5.46263 0.793785 0
M  V30 18712 H 1638.81 -4.36364 -0.498287 0
M  V30 18713 H 1639.42 -4.094 1.15203 0
M  V30 18714 N 1637.73 -0.725468 -1.3991 0
M  V30 18715 C 1639.15 -0.400048 -1.54505 0
M  V30 18716 C 1639.35 1.09014 -1.69464 0
M  V30 18717 O 1638.41 1.87624 -1.68977 0
M  V30 18718 C 1639.72 -1.17474 -2.76804 0
M  V30 18719 C 1641.27 -1.16202 -2.9063 0
M  V30 18720 C 1641.74 -1.91908 -4.15855 0
M  V30 18721 N 1643.23 -1.89026 -4.22875 0
M  V30 18722 C 1643.97 -2.4442 -5.18697 0
M  V30 18723 N 1643.46 -3.0841 -6.20367 0
M  V30 18724 N 1645.26 -2.34506 -5.10846 0
M  V30 18725 H 1637.41 -1.6916 -1.28447 0
M  V30 18726 H 1639.67 -0.715556 -0.621839 0
M  V30 18727 H 1639.38 -2.22881 -2.72061 0
M  V30 18728 H 1639.25 -0.772871 -3.69197 0
M  V30 18729 H 1641.64 -0.116116 -2.94871 0
M  V30 18730 H 1641.72 -1.60319 -1.99327 0
M  V30 18731 H 1641.36 -2.96494 -4.12375 0
M  V30 18732 H 1641.29 -1.45204 -5.06185 0
M  V30 18733 H 1643.78 -1.42399 -3.50044 0
M  V30 18734 H 1644.1 -3.48169 -6.89926 0
M  V30 18735 H 1642.44 -3.12497 -6.20782 0
M  V30 18736 H 1645.63 -1.84164 -4.3035 0
M  V30 18737 H 1645.81 -2.77976 -5.85349 0
M  V30 18738 N 1639.21 1.50354 -0.472382 0
M  V30 18739 C 1640.46 2.02333 0.0821629 0
M  V30 18740 C 1640.79 1.35428 1.39605 0
M  V30 18741 O 1640.04 0.469386 1.89988 0
M  V30 18742 C 1640.34 3.5603 0.31263 0
M  V30 18743 C 1640.01 4.41421 -0.919715 0
M  V30 18744 C 1638.67 4.64476 -1.25759 0
M  V30 18745 C 1641.02 4.91292 -1.74017 0
M  V30 18746 C 1638.35 5.34648 -2.41596 0
M  V30 18747 C 1640.7 5.62736 -2.88983 0
M  V30 18748 C 1639.37 5.84045 -3.23184 0
M  V30 18749 H 1638.64 0.74039 0.0300655 0
M  V30 18750 H 1641.28 1.80954 -0.626725 0
M  V30 18751 H 1639.59 3.75931 1.10378 0
M  V30 18752 H 1641.28 3.93815 0.755691 0
M  V30 18753 H 1637.87 4.23696 -0.646486 0
M  V30 18754 H 1642.06 4.73332 -1.49232 0
M  V30 18755 H 1637.31 5.49354 -2.68366 0
M  V30 18756 H 1641.49 6.0036 -3.52903 0
M  V30 18757 H 1639.12 6.38196 -4.1305 0
M  V30 18758 N 1640.69 0.205039 1.56261 0
M  V30 18759 C 1641.65 -0.698166 2.18308 0
M  V30 18760 C 1642.65 -1.13376 1.14029 0
M  V30 18761 O 1643.84 -1.04524 1.39357 0
M  V30 18762 C 1640.98 -1.95438 2.79315 0
M  V30 18763 H 1642.17 -0.157462 2.99486 0
M  V30 18764 H 1639.72 -0.0445849 1.56236 0
M  V30 18765 H 1640.46 -2.53736 2.01962 0
M  V30 18766 H 1640.24 -1.65068 3.55662 0
M  V30 18767 H 1641.73 -2.59824 3.26927 0
M  V30 18768 N 1642.17 -1.57451 -0.0684915 0
M  V30 18769 C 1643.39 -1.92025 -0.78366 0
M  V30 18770 C 1643.82 -0.801743 -1.70158 0
M  V30 18771 O 1643.18 0.245227 -1.79634 0
M  V30 18772 C 1643.23 -3.25563 -1.55051 0
M  V30 18773 O 1642.33 -3.15029 -2.6614 0
M  V30 18774 H 1641.67 -0.628714 -0.213576 0
M  V30 18775 H 1644.2 -2.04569 -0.0357474 0
M  V30 18776 H 1644.21 -3.59516 -1.92905 0
M  V30 18777 H 1642.89 -4.06547 -0.87704 0
M  V30 18778 H 1641.46 -2.9264 -2.31119 0
M  V30 18779 N 1643.65 0.339955 -1.5389 0
M  V30 18780 C 1644.9 1.07723 -1.70524 0
M  V30 18781 C 1645.21 1.89693 -0.477058 0
M  V30 18782 O 1646.42 2.66387 -0.524424 0
M  V30 18783 C 1644.87 1.96455 -3.01551 0
M  V30 18784 C 1644.48 1.19675 -4.3172 0
M  V30 18785 C 1646.22 2.70019 -3.27552 0
M  V30 18786 C 1644.13 2.07458 -5.53819 0
M  V30 18787 H 1643.06 0.405877 -0.635437 0
M  V30 18788 H 1645.71 0.336489 -1.80388 0
M  V30 18789 H 1644.09 2.74364 -2.85553 0
M  V30 18790 H 1645.27 0.466526 -4.58432 0
M  V30 18791 H 1643.58 0.578651 -4.1236 0
M  V30 18792 H 1646.18 3.35973 -4.15964 0
M  V30 18793 H 1646.52 3.36779 -2.44716 0
M  V30 18794 H 1647.06 1.99182 -3.44342 0
M  V30 18795 H 1643.79 1.45234 -6.39208 0
M  V30 18796 H 1643.31 2.7826 -5.31349 0
M  V30 18797 H 1644.99 2.66428 -5.89598 0
M  V30 18798 N 1645.13 1.45684 0.601159 0
M  V30 18799 C 1646.07 1.54846 1.71147 0
M  V30 18800 C 1647.04 0.393914 1.61361 0
M  V30 18801 O 1648.23 0.608222 1.80846 0
M  V30 18802 C 1645.37 1.52723 3.09467 0
M  V30 18803 C 1644.48 2.78776 3.30012 0
M  V30 18804 C 1643.62 2.68281 4.58474 0
M  V30 18805 C 1642.65 3.89358 4.72299 0
M  V30 18806 N 1641.79 3.77359 5.92068 0
M  V30 18807 H 1646.63 2.49696 1.62653 0
M  V30 18808 H 1644.17 1.23894 0.793006 0
M  V30 18809 H 1646.13 1.49479 3.89502 0
M  V30 18810 H 1644.76 0.614189 3.16903 0
M  V30 18811 H 1643.81 2.9208 2.43708 0
M  V30 18812 H 1645.12 3.68563 3.36099 0
M  V30 18813 H 1644.27 2.63039 5.46713 0
M  V30 18814 H 1643.01 1.76103 4.54795 0
M  V30 18815 H 1642.02 3.94952 3.82482 0
M  V30 18816 H 1643.24 4.82609 4.77771 0
M  V30 18817 H 1641.19 2.87955 5.89422 0
M  V30 18818 H 1641.11 4.60786 5.99343 0
M  V30 18819 H 1642.37 3.76061 6.82787 0
M  V30 18820 N 1646.6 -0.84422 1.33082 0
M  V30 18821 C 1647.53 -1.96899 1.25511 0
M  V30 18822 C 1648.51 -1.69549 0.13677 0
M  V30 18823 O 1649.7 -1.9145 0.325667 0
M  V30 18824 C 1646.83 -3.32947 0.988094 0
M  V30 18825 C 1645.78 -3.7468 2.06879 0
M  V30 18826 C 1645.11 -5.08475 1.65401 0
M  V30 18827 C 1646.41 -3.89033 3.48498 0
M  V30 18828 H 1648.1 -2.03491 2.19617 0
M  V30 18829 H 1645.65 -0.977659 1.05725 0
M  V30 18830 H 1647.6 -4.11198 0.921645 0
M  V30 18831 H 1646.33 -3.26598 0.0114067 0
M  V30 18832 H 1644.99 -2.98689 2.12557 0
M  V30 18833 H 1644.63 -4.98592 0.66449 0
M  V30 18834 H 1644.33 -5.37368 2.37717 0
M  V30 18835 H 1645.86 -5.89207 1.60212 0
M  V30 18836 H 1647.27 -4.57609 3.4535 0
M  V30 18837 H 1645.67 -4.29357 4.19253 0
M  V30 18838 H 1646.74 -2.91639 3.87395 0
M  V30 18839 N 1648.08 -1.16463 -1.0618 0
M  V30 18840 C 1649.03 -0.87224 -2.13683 0
M  V30 18841 C 1650 0.179784 -1.65124 0
M  V30 18842 O 1651.18 0.0447406 -1.90748 0
M  V30 18843 C 1648.32 -0.380728 -3.42993 0
M  V30 18844 C 1647.44 -1.49571 -4.05281 0
M  V30 18845 C 1646.57 -0.959099 -5.2247 0
M  V30 18846 C 1645.61 -2.05021 -5.76743 0
M  V30 18847 N 1644.75 -1.5291 -6.85247 0
M  V30 18848 H 1649.59 -1.79288 -2.38033 0
M  V30 18849 H 1647.12 -0.894379 -1.16787 0
M  V30 18850 H 1649.08 -0.0773816 -4.17128 0
M  V30 18851 H 1647.71 0.502966 -3.18857 0
M  V30 18852 H 1646.76 -1.915 -3.28682 0
M  V30 18853 H 1648.08 -2.31904 -4.41613 0
M  V30 18854 H 1647.23 -0.609003 -6.03636 0
M  V30 18855 H 1645.97 -0.105086 -4.87587 0
M  V30 18856 H 1644.97 -2.40899 -4.94214 0
M  V30 18857 H 1646.2 -2.90821 -6.13678 0
M  V30 18858 H 1644.15 -0.697639 -6.5228 0
M  V30 18859 H 1644.06 -2.28859 -7.20527 0
M  V30 18860 H 1645.33 -1.20762 -7.70089 0
M  V30 18861 N 1649.56 1.24734 -0.963288 0
M  V30 18862 C 1650.84 1.88004 -0.539809 0
M  V30 18863 C 1651.22 1.86814 0.983035 0
M  V30 18864 O 1650.56 1.33769 1.85251 0
M  V30 18865 C 1650.77 3.30326 -1.1263 0
M  V30 18866 C 1652.12 4.07039 -1.20848 0
M  V30 18867 O 1653.15 3.3948 -1.07849 0
M  V30 18868 O 1652.01 5.27906 -1.41342 0
M  V30 18869 H 1649.1 0.807318 -0.17935 0
M  V30 18870 H 1651.65 1.3274 -1.05727 0
M  V30 18871 H 1650.42 3.25668 -2.16925 0
M  V30 18872 H 1650.04 3.93159 -0.592614 0
M  V30 18873 N 1651.04 0.732878 1.39523 0
M  V30 18874 C 1651.97 0.106583 2.33257 0
M  V30 18875 C 1652.95 -0.726582 1.53801 0
M  V30 18876 O 1654.13 -0.671994 1.82203 0
M  V30 18877 C 1651.26 -0.803051 3.37888 0
M  V30 18878 C 1650.22 -0.0742048 4.27936 0
M  V30 18879 C 1649.54 -1.10071 5.23248 0
M  V30 18880 C 1650.84 1.08195 5.10971 0
M  V30 18881 H 1652.54 0.889539 2.8588 0
M  V30 18882 H 1650.08 0.429209 1.37455 0
M  V30 18883 H 1652.04 -1.25071 4.02412 0
M  V30 18884 H 1650.76 -1.6181 2.83699 0
M  V30 18885 H 1649.42 0.35381 3.64889 0
M  V30 18886 H 1649.07 -1.90927 4.65356 0
M  V30 18887 H 1648.77 -0.617825 5.84343 0
M  V30 18888 H 1650.29 -1.54812 5.90649 0
M  V30 18889 H 1651.71 0.712835 5.68851 0
M  V30 18890 H 1650.1 1.49433 5.81197 0
M  V30 18891 H 1651.17 1.90463 4.45928 0
M  V30 18892 N 1652.52 -1.50101 0.480349 0
M  V30 18893 C 1653.76 -2.01567 -0.073165 0
M  V30 18894 C 1654.08 -1.36657 -1.39944 0
M  V30 18895 O 1655.28 -1.79332 -2.03844 0
M  V30 18896 C 1653.74 -3.59445 -0.180889 0
M  V30 18897 C 1653.35 -4.33318 1.1375 0
M  V30 18898 C 1655.09 -4.18923 -0.685868 0
M  V30 18899 C 1653 -5.83003 0.99307 0
M  V30 18900 H 1651.93 -0.753358 -0.0311179 0
M  V30 18901 H 1654.58 -1.72829 0.616648 0
M  V30 18902 H 1652.96 -3.84811 -0.934693 0
M  V30 18903 H 1654.14 -4.1967 1.90299 0
M  V30 18904 H 1652.45 -3.85492 1.57431 0
M  V30 18905 H 1655.05 -5.28512 -0.811109 0
M  V30 18906 H 1655.39 -3.80916 -1.67955 0
M  V30 18907 H 1655.92 -3.97799 0.0108117 0
M  V30 18908 H 1652.66 -6.25499 1.9604 0
M  V30 18909 H 1652.18 -5.992 0.268128 0
M  V30 18910 H 1653.86 -6.4359 0.663417 0
M  V30 18911 N 1653.99 -0.213323 -1.5615 0
M  V30 18912 C 1654.94 0.716708 -2.21283 0
M  V30 18913 C 1655.94 1.20599 -1.18963 0
M  V30 18914 O 1657.14 1.16677 -1.37064 0
M  V30 18915 H 1653.52 0.249524 -0.709395 0
M  V30 18916 H 1655.49 0.14385 -2.98053 0
M  V30 18917 C 1654.24 1.91775 -2.9003 0
M  V30 18918 H 1653.56 1.55036 -3.68516 0
M  V30 18919 H 1655 2.54646 -3.39016 0
M  V30 18920 C 1653.46 2.768 -1.92051 0
M  V30 18921 O 1653.99 3.75299 -1.43225 0
M  V30 18922 N 1652.19 2.42666 -1.5988 0
M  V30 18923 H 1651.74 1.62622 -1.99779 0
M  V30 18924 H 1651.7 2.99836 -0.945833 0
M  V30 18925 N 1655.47 1.57485 0.0601405 0
M  V30 18926 C 1656.72 1.86998 0.75595 0
M  V30 18927 C 1657.03 0.807616 1.78149 0
M  V30 18928 O 1658.24 0.99096 2.52769 0
M  V30 18929 C 1656.7 3.31746 1.39545 0
M  V30 18930 C 1656.3 4.46139 0.407874 0
M  V30 18931 C 1658.05 3.70445 2.07294 0
M  V30 18932 C 1655.96 5.81933 1.05395 0
M  V30 18933 H 1654.89 0.697619 0.286083 0
M  V30 18934 H 1657.54 1.83498 0.00948593 0
M  V30 18935 H 1655.92 3.29894 2.19057 0
M  V30 18936 H 1657.09 4.59405 -0.358281 0
M  V30 18937 H 1655.41 4.1607 -0.16581 0
M  V30 18938 H 1658 4.692 2.56428 0
M  V30 18939 H 1658.35 3.00839 2.87753 0
M  V30 18940 H 1658.88 3.74337 1.34598 0
M  V30 18941 H 1655.62 6.54861 0.289437 0
M  V30 18942 H 1655.14 5.72446 1.79068 0
M  V30 18943 H 1656.82 6.27652 1.5704 0
M  V30 18944 N 1656.95 -0.331789 1.54068 0
M  V30 18945 C 1657.88 -1.41332 1.8587 0
M  V30 18946 C 1658.86 -1.54353 0.714787 0
M  V30 18947 O 1660.05 -1.68368 0.967777 0
M  V30 18948 C 1657.18 -2.78218 2.07875 0
M  V30 18949 C 1656.13 -2.79994 3.23709 0
M  V30 18950 C 1655.46 -4.19878 3.31069 0
M  V30 18951 C 1656.76 -2.44476 4.6155 0
M  V30 18952 H 1658.45 -1.14966 2.76447 0
M  V30 18953 H 1656 -0.551615 1.33016 0
M  V30 18954 H 1657.95 -3.53937 2.28706 0
M  V30 18955 H 1656.67 -3.06044 1.14038 0
M  V30 18956 H 1655.33 -2.0673 3.02751 0
M  V30 18957 H 1654.98 -4.44831 2.34807 0
M  V30 18958 H 1654.68 -4.21974 4.08915 0
M  V30 18959 H 1656.2 -4.97421 3.54125 0
M  V30 18960 H 1657.62 -3.09908 4.82317 0
M  V30 18961 H 1656.02 -2.57837 5.41886 0
M  V30 18962 H 1657.09 -1.3964 4.64358 0
M  V30 18963 N 1658.43 -1.46001 -0.593424 0
M  V30 18964 C 1659.67 -1.52306 -1.36317 0
M  V30 18965 C 1660.03 -0.166331 -1.91278 0
M  V30 18966 O 1661.23 -0.104106 -2.68598 0
M  V30 18967 C 1659.5 -2.58303 -2.47011 0
M  V30 18968 S 1661.06 -2.83936 -3.34553 0
M  V30 18969 H 1657.88 -0.538241 -0.464562 0
M  V30 18970 H 1660.48 -1.8317 -0.683308 0
M  V30 18971 H 1659.19 -3.55528 -2.05007 0
M  V30 18972 H 1658.72 -2.29136 -3.19782 0
M  V30 18973 H 1660.73 -2.18391 -4.45556 0
M  V30 18974 N 1659.91 0.83715 -1.33527 0
M  V30 18975 C 1661.15 1.58937 -1.24834 0
M  V30 18976 C 1661.48 1.94117 0.185368 0
M  V30 18977 O 1660.75 1.61105 1.11453 0
M  V30 18978 H 1659.33 0.589301 -0.459057 0
M  V30 18979 H 1661.99 1.00038 -1.67267 0
M  V30 18980 H 1661.08 2.51855 -1.84325 0
M  V30 18981 N 1661.38 1.17024 1.05561 0
M  V30 18982 C 1662.61 0.98075 1.82178 0
M  V30 18983 C 1663.03 -0.471027 1.8283 0
M  V30 18984 O 1662.38 -1.32703 1.25284 0
M  V30 18985 C 1662.44 1.50979 3.28463 0
M  V30 18986 O 1662.16 2.90471 3.27961 0
M  V30 18987 C 1663.66 1.36436 4.21782 0
M  V30 18988 H 1660.88 0.3472 0.574189 0
M  V30 18989 H 1663.42 1.55226 1.33136 0
M  V30 18990 H 1661.58 0.980393 3.74789 0
M  V30 18991 H 1661.99 3.14847 4.19489 0
M  V30 18992 H 1663.46 1.78272 5.2242 0
M  V30 18993 H 1663.94 0.310922 4.38098 0
M  V30 18994 H 1664.55 1.88374 3.81308 0
M  V30 18995 N 1662.86 -1.24221 0.969889 0
M  V30 18996 C 1663.81 -2.23043 0.472854 0
M  V30 18997 C 1664.8 -1.54585 -0.446344 0
M  V30 18998 O 1665.99 -1.74821 -0.27691 0
M  V30 18999 C 1663.12 -3.42504 -0.233578 0
M  V30 19000 C 1662.2 -4.18206 0.704577 0
M  V30 19001 N 1662.59 -4.71037 1.84276 0
M  V30 19002 C 1660.89 -4.43007 0.515795 0
M  V30 19003 C 1661.59 -5.28525 2.42974 0
M  V30 19004 N 1660.57 -5.15849 1.71467 0
M  V30 19005 H 1664.37 -2.6151 1.34126 0
M  V30 19006 H 1661.89 -1.39632 0.829251 0
M  V30 19007 H 1663.88 -4.12459 -0.606891 0
M  V30 19008 H 1662.54 -3.05557 -1.0984 0
M  V30 19009 H 1663.55 -4.67705 2.22424 0
M  V30 19010 H 1660.23 -4.16385 -0.304885 0
M  V30 19011 H 1661.62 -5.8009 3.39035 0
M  V30 19012 N 1664.34 -0.740267 -1.39132 0
M  V30 19013 C 1665.27 -0.0524011 -2.2814 0
M  V30 19014 C 1666.25 0.742237 -1.44671 0
M  V30 19015 O 1667.44 0.723684 -1.74055 0
M  V30 19016 C 1664.56 0.932876 -3.256 0
M  V30 19017 C 1663.61 0.226089 -4.259 0
M  V30 19018 S 1664.44 -1.06369 -5.24829 0
M  V30 19019 C 1665.6 -0.0811445 -6.25847 0
M  V30 19020 H 1665.83 -0.807208 -2.86132 0
M  V30 19021 H 1663.36 -0.532283 -1.44935 0
M  V30 19022 H 1665.32 1.49604 -3.82268 0
M  V30 19023 H 1663.98 1.66056 -2.66616 0
M  V30 19024 H 1663.18 0.971812 -4.94542 0
M  V30 19025 H 1662.78 -0.265186 -3.73059 0
M  V30 19026 H 1665.07 0.757451 -6.73252 0
M  V30 19027 H 1666.01 -0.734849 -7.04277 0
M  V30 19028 H 1666.42 0.293606 -5.63736 0
M  V30 19029 N 1665.82 1.49844 -0.488302 0
M  V30 19030 C 1667.07 2.02409 0.0606981 0
M  V30 19031 C 1667.39 1.36901 1.38161 0
M  V30 19032 O 1666.65 0.48951 1.89479 0
M  V30 19033 C 1666.95 3.56342 0.274851 0
M  V30 19034 C 1666.61 4.4042 -0.966481 0
M  V30 19035 C 1665.28 4.63116 -1.30678 0
M  V30 19036 C 1667.63 4.89418 -1.79218 0
M  V30 19037 C 1664.96 5.32055 -2.47253 0
M  V30 19038 C 1667.31 5.59639 -2.94935 0
M  V30 19039 C 1665.97 5.80584 -3.2936 0
M  V30 19040 H 1665.24 0.740667 0.022211 0
M  V30 19041 H 1667.89 1.80279 -0.645882 0
M  V30 19042 H 1666.19 3.7708 1.06384 0
M  V30 19043 H 1667.89 3.94594 0.71388 0
M  V30 19044 H 1664.48 4.22987 -0.691388 0
M  V30 19045 H 1668.66 4.71723 -1.54244 0
M  V30 19046 H 1663.92 5.46477 -2.74177 0
M  V30 19047 H 1668.09 5.96583 -3.59251 0
M  V30 19048 H 1665.72 6.33779 -4.19795 0
M  V30 19049 N 1667.3 0.221601 1.56034 0
M  V30 19050 C 1668.23 -0.683171 2.23282 0
M  V30 19051 C 1669.21 -1.20101 1.20456 0
M  V30 19052 O 1670.39 -1.245 1.49041 0
M  V30 19053 C 1667.52 -1.89143 2.91277 0
M  V30 19054 C 1666.48 -1.50742 4.00576 0
M  V30 19055 C 1665.8 -2.79446 4.55867 0
M  V30 19056 C 1667.1 -0.697388 5.17623 0
M  V30 19057 H 1668.8 -0.122488 2.99149 0
M  V30 19058 H 1666.34 -0.0574732 1.43885 0
M  V30 19059 H 1668.3 -2.52982 3.37013 0
M  V30 19060 H 1667.02 -2.47708 2.12858 0
M  V30 19061 H 1665.68 -0.892492 3.5557 0
M  V30 19062 H 1665.33 -3.36155 3.74177 0
M  V30 19063 H 1665.03 -2.54486 5.29633 0
M  V30 19064 H 1666.55 -3.44228 5.04321 0
M  V30 19065 H 1667.96 -1.23948 5.59741 0
M  V30 19066 H 1666.36 -0.544875 5.97621 0
M  V30 19067 H 1667.43 0.295981 4.83996 0
M  V30 19068 N 1668.77 -1.57515 -0.0517878 0
M  V30 19069 C 1669.72 -2.05051 -1.05937 0
M  V30 19070 C 1670.69 -0.935032 -1.37282 0
M  V30 19071 O 1671.88 -1.20408 -1.48009 0
M  V30 19072 C 1669.02 -2.51594 -2.36208 0
M  V30 19073 C 1668.13 -3.76843 -2.11219 0
M  V30 19074 C 1667.26 -4.12088 -3.35197 0
M  V30 19075 C 1666.3 -5.30318 -3.05662 0
M  V30 19076 N 1665.44 -5.61104 -4.22026 0
M  V30 19077 H 1670.28 -2.90891 -0.647027 0
M  V30 19078 H 1667.82 -1.43842 -0.307891 0
M  V30 19079 H 1669.78 -2.76638 -3.12293 0
M  V30 19080 H 1668.41 -1.68704 -2.75207 0
M  V30 19081 H 1667.46 -3.5902 -1.25734 0
M  V30 19082 H 1668.77 -4.63057 -1.85416 0
M  V30 19083 H 1667.92 -4.38139 -4.19666 0
M  V30 19084 H 1666.66 -3.24479 -3.64094 0
M  V30 19085 H 1665.67 -5.04043 -2.19592 0
M  V30 19086 H 1666.89 -6.19561 -2.78067 0
M  V30 19087 H 1664.84 -4.76456 -4.50917 0
M  V30 19088 H 1664.76 -6.4178 -3.99568 0
M  V30 19089 H 1666.02 -5.91719 -5.07434 0
M  V30 19090 N 1670.25 0.323614 -1.54242 0
M  V30 19091 C 1671.2 1.39826 -1.83623 0
M  V30 19092 C 1672.17 1.51393 -0.683331 0
M  V30 19093 O 1673.36 1.66614 -0.929754 0
M  V30 19094 C 1670.5 2.76187 -2.06918 0
M  V30 19095 C 1669.61 2.73251 -3.34601 0
M  V30 19096 C 1668.74 4.01458 -3.47857 0
M  V30 19097 C 1667.78 3.9283 -4.69415 0
M  V30 19098 N 1666.92 5.12767 -4.79598 0
M  V30 19099 H 1671.76 1.1407 -2.75303 0
M  V30 19100 H 1669.3 0.552188 -1.36343 0
M  V30 19101 H 1671.25 3.55458 -2.18416 0
M  V30 19102 H 1669.88 3.00251 -1.18529 0
M  V30 19103 H 1668.94 1.85971 -3.31842 0
M  V30 19104 H 1670.25 2.62759 -4.2398 0
M  V30 19105 H 1669.4 4.89161 -3.58897 0
M  V30 19106 H 1668.14 4.14757 -2.5657 0
M  V30 19107 H 1667.15 3.03512 -4.58433 0
M  V30 19108 H 1668.37 3.81097 -5.62087 0
M  V30 19109 H 1666.32 5.26572 -3.91227 0
M  V30 19110 H 1666.23 5.0461 -5.62943 0
M  V30 19111 H 1667.5 6.02184 -4.94969 0
M  V30 19112 N 1671.73 1.46313 0.585673 0
M  V30 19113 C 1672.64 1.59232 1.72286 0
M  V30 19114 C 1673.66 0.475912 1.67365 0
M  V30 19115 O 1674.83 0.739627 1.87327 0
M  V30 19116 C 1671.9 1.57647 3.08785 0
M  V30 19117 C 1670.96 2.80497 3.24992 0
M  V30 19118 C 1670.19 2.78978 4.5498 0
M  V30 19119 O 1670.42 1.87553 5.38684 0
M  V30 19120 O 1669.35 3.7048 4.74371 0
M  V30 19121 H 1673.18 2.55398 1.64334 0
M  V30 19122 H 1670.76 1.29073 0.752369 0
M  V30 19123 H 1672.64 1.59448 3.90069 0
M  V30 19124 H 1671.32 0.6464 3.1718 0
M  V30 19125 H 1670.22 2.8425 2.43213 0
M  V30 19126 H 1671.56 3.72703 3.21487 0
M  V30 19127 N 1673.21 -0.830057 1.33969 0
M  V30 19128 C 1674.16 -1.9292 1.21516 0
M  V30 19129 C 1675.14 -1.60482 0.115907 0
M  V30 19130 O 1676.34 -1.73608 0.344875 0
M  V30 19131 C 1673.46 -3.29442 0.96554 0
M  V30 19132 C 1672.55 -3.68021 2.10763 0
M  V30 19133 N 1672.94 -3.78222 3.3583 0
M  V30 19134 C 1671.24 -3.97821 2.01629 0
M  V30 19135 C 1671.94 -4.11858 4.10789 0
M  V30 19136 N 1670.92 -4.24698 3.39312 0
M  V30 19137 H 1674.72 -1.98974 2.16302 0
M  V30 19138 H 1672.23 -1.0233 1.26104 0
M  V30 19139 H 1674.23 -4.07991 0.857238 0
M  V30 19140 H 1672.89 -3.24689 0.0262975 0
M  V30 19141 H 1673.9 -3.61901 3.7047 0
M  V30 19142 H 1670.58 -4.01229 1.15418 0
M  V30 19143 H 1671.97 -4.27014 5.18757 0
M  V30 19144 N 1674.69 -1.17582 -1.04939 0
M  V30 19145 C 1675.94 -0.960189 -1.77379 0
M  V30 19146 C 1676.25 0.512001 -1.8878 0
M  V30 19147 O 1677.46 0.845912 -2.57986 0
M  V30 19148 C 1675.91 -1.66882 -3.18871 0
M  V30 19149 C 1675.52 -3.17972 -3.15591 0
M  V30 19150 C 1677.26 -1.53567 -3.95749 0
M  V30 19151 C 1675.17 -3.81513 -4.51887 0
M  V30 19152 H 1674.1 -0.35562 -0.664869 0
M  V30 19153 H 1676.75 -1.40863 -1.17601 0
M  V30 19154 H 1675.13 -1.14813 -3.78991 0
M  V30 19155 H 1676.31 -3.76995 -2.64974 0
M  V30 19156 H 1674.62 -3.31328 -2.52212 0
M  V30 19157 H 1677.22 -1.98408 -4.96526 0
M  V30 19158 H 1677.56 -0.486603 -4.13446 0
M  V30 19159 H 1678.1 -2.02868 -3.42183 0
M  V30 19160 H 1674.83 -4.86428 -4.39395 0
M  V30 19161 H 1674.35 -3.27276 -5.02643 0
M  V30 19162 H 1676.03 -3.83867 -5.20822 0
M  V30 19163 N 1676.17 1.23705 -0.976463 0
M  V30 19164 C 1677.39 1.96055 -0.661065 0
M  V30 19165 C 1677.81 1.7233 0.77121 0
M  V30 19166 O 1677.17 1.01234 1.51849 0
M  V30 19167 C 1677.22 3.49144 -0.937071 0
M  V30 19168 O 1676.94 3.72061 -2.31305 0
M  V30 19169 C 1678.44 4.38698 -0.637077 0
M  V30 19170 H 1675.66 0.624319 -0.245901 0
M  V30 19171 H 1678.2 1.57301 -1.30678 0
M  V30 19172 H 1676.36 3.85928 -0.33743 0
M  V30 19173 H 1676.77 4.66383 -2.39973 0
M  V30 19174 H 1678.25 5.44931 -0.88059 0
M  V30 19175 H 1678.72 4.37102 0.428802 0
M  V30 19176 H 1679.33 4.07515 -1.21702 0
M  V30 19177 N 1677.64 0.747635 1.38738 0
M  V30 19178 C 1678.89 0.301147 2.00248 0
M  V30 19179 C 1679.22 -1.11539 1.5934 0
M  V30 19180 O 1678.47 -1.77716 0.819487 0
M  V30 19181 C 1678.77 0.364869 3.55533 0
M  V30 19182 C 1678.44 1.73622 4.16133 0
M  V30 19183 C 1677.1 2.11153 4.32398 0
M  V30 19184 C 1679.45 2.63605 4.49624 0
M  V30 19185 C 1676.78 3.38151 4.79449 0
M  V30 19186 C 1679.13 3.89987 4.98089 0
M  V30 19187 C 1677.8 4.27595 5.12561 0
M  V30 19188 H 1677.07 0.110197 0.73276 0
M  V30 19189 H 1679.71 0.956952 1.65876 0
M  V30 19190 H 1678.02 -0.374505 3.90006 0
M  V30 19191 H 1679.72 0.00107503 4.01 0
M  V30 19192 H 1676.31 1.43445 4.03883 0
M  V30 19193 H 1680.49 2.35875 4.36665 0
M  V30 19194 H 1675.75 3.67215 4.88838 0
M  V30 19195 H 1679.92 4.59859 5.22975 0
M  V30 19196 H 1677.55 5.26065 5.4878 0
M  V30 19197 N 1679.12 -1.49583 0.496242 0
M  V30 19198 C 1680.4 -1.95275 -0.112751 0
M  V30 19199 C 1680.78 -1.43758 -1.54586 0
M  V30 19200 O 1680.13 -0.649285 -2.19081 0
M  V30 19201 C 1680.34 -3.48987 -0.0302774 0
M  V30 19202 C 1681.68 -4.24097 -0.206595 0
M  V30 19203 O 1682.71 -3.56043 -0.105689 0
M  V30 19204 O 1681.57 -5.44936 -0.413172 0
M  V30 19205 H 1678.66 -0.821183 -0.0979145 0
M  V30 19206 H 1681.21 -1.60248 0.558441 0
M  V30 19207 H 1679.98 -3.79104 0.969322 0
M  V30 19208 H 1679.6 -3.90618 -0.741825 0
M  V30 19209 N 1680.6 -0.229873 -1.55915 0
M  V30 19210 C 1681.51 0.687953 -2.24286 0
M  V30 19211 C 1682.53 1.20705 -1.25325 0
M  V30 19212 O 1683.7 1.2469 -1.58159 0
M  V30 19213 C 1680.77 1.87563 -2.91584 0
M  V30 19214 C 1679.83 1.39769 -4.0591 0
M  V30 19215 C 1679.06 2.52876 -4.69989 0
M  V30 19216 O 1679.28 3.71208 -4.33083 0
M  V30 19217 O 1678.22 2.23603 -5.58825 0
M  V30 19218 H 1682.04 0.135464 -3.03398 0
M  V30 19219 H 1679.63 0.000925172 -1.494 0
M  V30 19220 H 1681.51 2.56907 -3.34031 0
M  V30 19221 H 1680.19 2.41606 -2.15426 0
M  V30 19222 H 1679.09 0.672029 -3.68014 0
M  V30 19223 H 1680.43 0.903543 -4.83836 0
M  V30 19224 N 1682.08 1.5754 0.0434337 0
M  V30 19225 C 1683.33 1.87789 0.736074 0
M  V30 19226 C 1683.64 0.826466 1.77282 0
M  V30 19227 O 1684.85 1.01771 2.51704 0
M  V30 19228 C 1683.3 3.33207 1.36018 0
M  V30 19229 C 1682.91 4.46547 0.360532 0
M  V30 19230 C 1684.65 3.72623 2.03353 0
M  V30 19231 C 1682.56 5.83018 0.992167 0
M  V30 19232 H 1681.49 0.700614 0.278667 0
M  V30 19233 H 1684.14 1.83497 -0.00997697 0
M  V30 19234 H 1682.52 3.32199 2.15546 0
M  V30 19235 H 1683.7 4.58999 -0.406987 0
M  V30 19236 H 1682.01 4.1587 -0.209931 0
M  V30 19237 H 1684.61 4.71893 2.51437 0
M  V30 19238 H 1684.95 3.03874 2.84546 0
M  V30 19239 H 1685.49 3.75744 1.3062 0
M  V30 19240 H 1682.22 6.55131 0.219964 0
M  V30 19241 H 1681.74 5.74313 1.72987 0
M  V30 19242 H 1683.42 6.29283 1.50374 0
M  V30 19243 N 1683.56 -0.31543 1.54411 0
M  V30 19244 C 1684.79 -1.07018 1.76722 0
M  V30 19245 C 1685.19 -1.81921 0.519754 0
M  V30 19246 O 1684.54 -1.76201 -0.519501 0
M  V30 19247 C 1684.6 -2.10781 2.91224 0
M  V30 19248 C 1684.26 -1.55204 4.29838 0
M  V30 19249 C 1685.26 -0.989568 5.10395 0
M  V30 19250 C 1682.94 -1.59201 4.76403 0
M  V30 19251 C 1684.94 -0.474466 6.35632 0
M  V30 19252 C 1682.63 -1.07304 6.01605 0
M  V30 19253 C 1683.62 -0.51522 6.81054 0
M  V30 19254 O 1683.31 -0.00407259 8.039 0
M  V30 19255 H 1683.04 -0.323799 0.593406 0
M  V30 19256 H 1685.6 -0.364708 2.02136 0
M  V30 19257 H 1683.83 -2.84968 2.614 0
M  V30 19258 H 1685.52 -2.72043 3.01243 0
M  V30 19259 H 1686.28 -0.951691 4.75571 0
M  V30 19260 H 1682.16 -2.01559 4.14602 0
M  V30 19261 H 1685.71 -0.0384139 6.97589 0
M  V30 19262 H 1681.6 -1.10802 6.35919 0
M  V30 19263 H 1682.37 -0.118732 8.18414 0
M  V30 19264 N 1685.03 -1.46622 -0.577906 0
M  V30 19265 C 1685.98 -1.57549 -1.68662 0
M  V30 19266 C 1686.95 -0.419536 -1.60714 0
M  V30 19267 O 1688.14 -0.636916 -1.79856 0
M  V30 19268 C 1685.28 -1.57627 -3.06998 0
M  V30 19269 C 1684.39 -2.83991 -3.25535 0
M  V30 19270 C 1683.52 -2.75541 -4.54148 0
M  V30 19271 C 1682.56 -3.96823 -4.66045 0
M  V30 19272 N 1681.7 -3.86731 -5.8599 0
M  V30 19273 H 1686.54 -2.52252 -1.58659 0
M  V30 19274 H 1684.08 -1.2514 -0.773195 0
M  V30 19275 H 1686.04 -1.55657 -3.87075 0
M  V30 19276 H 1684.67 -0.664527 -3.15886 0
M  V30 19277 H 1683.72 -2.9592 -2.3903 0
M  V30 19278 H 1685.03 -3.73864 -3.30193 0
M  V30 19279 H 1684.18 -2.71703 -5.42459 0
M  V30 19280 H 1682.92 -1.83317 -4.51936 0
M  V30 19281 H 1681.93 -4.00987 -3.76151 0
M  V30 19282 H 1683.15 -4.90149 -4.70033 0
M  V30 19283 H 1681.1 -2.97296 -5.84766 0
M  V30 19284 H 1681.02 -4.70263 -5.91937 0
M  V30 19285 H 1682.28 -3.86876 -6.76718 0
M  V30 19286 N 1686.51 0.822941 -1.34408 0
M  V30 19287 C 1687.74 1.60854 -1.29652 0
M  V30 19288 C 1688.15 1.88742 0.131572 0
M  V30 19289 O 1687.49 1.47936 1.08907 0
M  V30 19290 C 1687.56 2.97437 -2.0192 0
M  V30 19291 C 1687.22 2.92443 -3.51178 0
M  V30 19292 C 1688.22 2.67029 -4.46085 0
M  V30 19293 C 1685.9 3.12076 -3.93591 0
M  V30 19294 C 1687.9 2.61299 -5.81379 0
M  V30 19295 C 1685.58 3.05971 -5.28985 0
M  V30 19296 C 1686.58 2.80615 -6.22691 0
M  V30 19297 O 1686.27 2.74442 -7.55603 0
M  V30 19298 H 1686 0.506701 -0.447471 0
M  V30 19299 H 1688.55 1.03197 -1.77594 0
M  V30 19300 H 1686.78 3.57012 -1.48592 0
M  V30 19301 H 1688.47 3.58444 -1.90455 0
M  V30 19302 H 1689.24 2.51596 -4.14638 0
M  V30 19303 H 1685.12 3.30828 -3.21051 0
M  V30 19304 H 1688.66 2.41428 -6.54491 0
M  V30 19305 H 1684.56 3.20957 -5.60051 0
M  V30 19306 H 1685.33 2.90169 -7.65339 0
M  V30 19307 N 1687.99 1.18137 1.04314 0
M  V30 19308 C 1688.9 0.921044 2.15764 0
M  V30 19309 C 1689.92 -0.11396 1.73626 0
M  V30 19310 O 1691.09 0.0673733 2.01287 0
M  V30 19311 C 1688.16 0.447581 3.43799 0
M  V30 19312 C 1687.22 1.55025 4.00332 0
M  V30 19313 C 1686.45 1.09928 5.22256 0
M  V30 19314 O 1686.67 -0.0430152 5.70384 0
M  V30 19315 O 1685.61 1.896 5.71258 0
M  V30 19316 H 1689.43 1.85353 2.40579 0
M  V30 19317 H 1687.02 0.962985 1.14223 0
M  V30 19318 H 1688.9 0.191497 4.20965 0
M  V30 19319 H 1687.58 -0.456641 3.20463 0
M  V30 19320 H 1686.48 1.86032 3.24566 0
M  V30 19321 H 1687.82 2.4305 4.28004 0
M  V30 19322 N 1689.47 -1.23186 0.98301 0
M  V30 19323 C 1690.42 -2.26762 0.517846 0
M  V30 19324 C 1691.41 -1.63944 -0.426459 0
M  V30 19325 O 1692.62 -1.77481 -0.300065 0
M  V30 19326 H 1688.99 -0.737082 0.149042 0
M  V30 19327 H 1690.96 -2.63356 1.40307 0
M  V30 19328 C 1689.71 -3.47324 -0.16157 0
M  V30 19329 H 1689.03 -3.95915 0.555973 0
M  V30 19330 H 1690.47 -4.21598 -0.450644 0
M  V30 19331 C 1688.93 -3.06722 -1.39366 0
M  V30 19332 O 1689.46 -3.15239 -2.48973 0
M  V30 19333 N 1687.67 -2.61609 -1.26528 0
M  V30 19334 H 1687.22 -2.54879 -0.373449 0
M  V30 19335 H 1687.17 -2.34809 -2.09074 0
M  V30 19336 N 1690.95 -0.754982 -1.38339 0
M  V30 19337 C 1692.17 -0.321355 -2.04895 0
M  V30 19338 C 1692.6 1.04249 -1.56569 0
M  V30 19339 O 1691.95 1.66464 -0.718299 0
M  V30 19340 C 1692 -0.354873 -3.5885 0
M  V30 19341 O 1691.11 0.65063 -4.07235 0
M  V30 19342 H 1690.45 -0.142033 -0.648631 0
M  V30 19343 H 1692.98 -1.02649 -1.76987 0
M  V30 19344 H 1692.99 -0.206243 -4.07478 0
M  V30 19345 H 1691.66 -1.34994 -3.93382 0
M  V30 19346 H 1690.24 0.466498 -3.69971 0
M  V30 19347 N 1692.42 1.49318 -0.504168 0
M  V30 19348 C 1693.37 2.30832 0.286237 0
M  V30 19349 C 1694.37 1.39585 0.959818 0
M  V30 19350 O 1695.57 1.5662 0.887146 0
M  V30 19351 H 1691.95 0.743738 0.111167 0
M  V30 19352 H 1693.92 2.95412 -0.421206 0
M  V30 19353 C 1692.67 3.2101 1.33596 0
M  V30 19354 H 1691.99 3.91152 0.827057 0
M  V30 19355 H 1693.43 3.8098 1.86093 0
M  V30 19356 C 1691.89 2.40836 2.35583 0
M  V30 19357 O 1692.42 2.11476 3.41527 0
M  V30 19358 N 1690.63 2.02802 2.08134 0
M  V30 19359 H 1690.17 2.26879 1.21999 0
M  V30 19360 H 1690.13 1.49467 2.76599 0
M  V30 19361 N 1693.9 0.238138 1.5579 0
M  V30 19362 C 1695.18 -0.438905 1.90612 0
M  V30 19363 C 1695.56 -1.76522 1.15773 0
M  V30 19364 O 1694.91 -2.26871 0.272363 0
M  V30 19365 C 1695.12 -0.615595 3.43528 0
M  V30 19366 C 1696.47 -0.915478 4.14613 0
M  V30 19367 O 1697.49 -0.70178 3.49218 0
M  V30 19368 O 1696.35 -1.32194 5.30271 0
M  V30 19369 H 1693.44 -0.234355 0.7931 0
M  V30 19370 H 1695.99 0.281555 1.67348 0
M  V30 19371 H 1694.76 0.319274 3.89995 0
M  V30 19372 H 1694.38 -1.38692 3.72626 0
M  V30 19373 N 1695.38 -1.57561 -0.0350783 0
M  V30 19374 C 1696.34 -2.05145 -1.02217 0
M  V30 19375 C 1697.34 -0.954524 -1.29404 0
M  V30 19376 O 1698.53 -1.21833 -1.24509 0
M  V30 19377 C 1695.67 -2.4633 -2.35658 0
M  V30 19378 H 1696.86 -2.93605 -0.61126 0
M  V30 19379 H 1694.41 -1.53739 -0.28176 0
M  V30 19380 H 1695.15 -1.61008 -2.81508 0
M  V30 19381 H 1694.93 -3.26408 -2.17256 0
M  V30 19382 H 1696.42 -2.83592 -3.06537 0
M  V30 19383 N 1696.86 0.307236 -1.54576 0
M  V30 19384 C 1697.79 1.38357 -1.88095 0
M  V30 19385 C 1698.77 1.53196 -0.739253 0
M  V30 19386 O 1699.95 1.66807 -0.99444 0
M  V30 19387 C 1697.08 2.74876 -2.12274 0
M  V30 19388 C 1696.04 2.74809 -3.28122 0
M  V30 19389 C 1695.36 4.14557 -3.37707 0
M  V30 19390 C 1696.66 2.37103 -4.65381 0
M  V30 19391 H 1698.36 1.10554 -2.78241 0
M  V30 19392 H 1695.9 0.530383 -1.33877 0
M  V30 19393 H 1697.86 3.50254 -2.34308 0
M  V30 19394 H 1696.58 3.04191 -1.18893 0
M  V30 19395 H 1695.24 2.01887 -3.06002 0
M  V30 19396 H 1694.89 4.41039 -2.41854 0
M  V30 19397 H 1694.59 4.15415 -4.15577 0
M  V30 19398 H 1696.11 4.91724 -3.61994 0
M  V30 19399 H 1697.53 3.02196 -4.87186 0
M  V30 19400 H 1695.92 2.49184 -5.45919 0
M  V30 19401 H 1696.99 1.32235 -4.66521 0
M  V30 19402 N 1698.34 1.46926 0.570122 0
M  V30 19403 C 1699.28 1.58442 1.67824 0
M  V30 19404 C 1700.25 0.428053 1.6049 0
M  V30 19405 O 1701.44 0.646445 1.79515 0
M  V30 19406 C 1698.58 1.59253 3.06158 0
M  V30 19407 C 1697.69 2.85714 3.24024 0
M  V30 19408 C 1696.83 2.77945 4.52681 0
M  V30 19409 C 1695.87 3.99289 4.63934 0
M  V30 19410 N 1695 3.89833 5.83931 0
M  V30 19411 H 1699.84 2.5309 1.5732 0
M  V30 19412 H 1697.38 1.25549 0.766548 0
M  V30 19413 H 1699.34 1.57707 3.86244 0
M  V30 19414 H 1697.97 0.68127 3.15529 0
M  V30 19415 H 1697.02 2.97184 2.37458 0
M  V30 19416 H 1698.33 3.7561 3.28206 0
M  V30 19417 H 1697.49 2.74576 5.41011 0
M  V30 19418 H 1696.22 1.85711 4.50958 0
M  V30 19419 H 1695.23 4.02976 3.74019 0
M  V30 19420 H 1696.45 4.92635 4.67427 0
M  V30 19421 H 1694.4 3.00393 5.83181 0
M  V30 19422 H 1694.32 4.73395 5.89434 0
M  V30 19423 H 1695.59 3.90459 6.74657 0
M  V30 19424 N 1699.82 -0.815801 1.34842 0
M  V30 19425 C 1700.77 -1.9162 1.23555 0
M  V30 19426 C 1701.75 -1.6035 0.132922 0
M  V30 19427 O 1702.94 -1.73232 0.363269 0
M  V30 19428 C 1700.07 -3.284 1.00043 0
M  V30 19429 C 1699.16 -3.65765 2.14655 0
M  V30 19430 N 1699.55 -3.74639 3.39822 0
M  V30 19431 C 1697.85 -3.9566 2.05837 0
M  V30 19432 C 1698.55 -4.07478 4.15135 0
M  V30 19433 N 1697.52 -4.21075 3.43797 0
M  V30 19434 H 1701.32 -1.96669 2.184 0
M  V30 19435 H 1698.84 -1.00987 1.27183 0
M  V30 19436 H 1700.84 -4.07059 0.900462 0
M  V30 19437 H 1699.5 -3.24643 0.0607337 0
M  V30 19438 H 1700.51 -3.57951 3.74288 0
M  V30 19439 H 1697.18 -3.99982 1.19667 0
M  V30 19440 H 1698.57 -4.21488 5.23257 0
M  V30 19441 N 1701.29 -1.18689 -1.03686 0
M  V30 19442 C 1702.22 -0.94094 -2.13702 0
M  V30 19443 C 1703.2 0.12277 -1.69656 0
M  V30 19444 O 1704.39 -0.0306085 -1.94176 0
M  V30 19445 C 1701.52 -0.470054 -3.44104 0
M  V30 19446 C 1700.47 -1.47468 -4.01792 0
M  V30 19447 C 1699.8 -0.861174 -5.2772 0
M  V30 19448 C 1701.1 -2.85254 -4.37524 0
M  V30 19449 H 1702.79 -1.86102 -2.34534 0
M  V30 19450 H 1700.34 -0.896207 -1.12713 0
M  V30 19451 H 1702.29 -0.28533 -4.20433 0
M  V30 19452 H 1701.02 0.485604 -3.2297 0
M  V30 19453 H 1699.68 -1.64641 -3.2755 0
M  V30 19454 H 1699.32 0.10179 -5.02897 0
M  V30 19455 H 1699.02 -1.53196 -5.67278 0
M  V30 19456 H 1700.55 -0.687066 -6.06722 0
M  V30 19457 H 1701.96 -2.71711 -5.04823 0
M  V30 19458 H 1700.36 -3.49051 -4.88143 0
M  V30 19459 H 1701.43 -3.38516 -3.47181 0
M  V30 19460 N 1702.77 1.22662 -0.989529 0
M  V30 19461 C 1703.7 2.26762 -0.556891 0
M  V30 19462 C 1704.68 1.64971 0.414538 0
M  V30 19463 O 1705.87 1.91775 0.305909 0
M  V30 19464 C 1703 3.47047 0.132573 0
M  V30 19465 C 1701.95 4.21251 -0.757058 0
M  V30 19466 C 1701.28 5.3466 0.065134 0
M  V30 19467 C 1702.58 4.8029 -2.05229 0
M  V30 19468 H 1704.27 2.63204 -1.42703 0
M  V30 19469 H 1701.82 1.26522 -0.687614 0
M  V30 19470 H 1703.77 4.19027 0.446609 0
M  V30 19471 H 1702.49 3.09692 1.03723 0
M  V30 19472 H 1701.15 3.51101 -1.05469 0
M  V30 19473 H 1700.8 4.93547 0.970607 0
M  V30 19474 H 1700.5 5.85231 -0.527063 0
M  V30 19475 H 1702.03 6.09458 0.373342 0
M  V30 19476 H 1703.44 5.44229 -1.80242 0
M  V30 19477 H 1701.84 5.41186 -2.59302 0
M  V30 19478 H 1702.91 4.00529 -2.73322 0
M  V30 19479 N 1704.25 0.762308 1.37937 0
M  V30 19480 C 1705.5 0.319104 1.9916 0
M  V30 19481 C 1705.81 -1.10787 1.61201 0
M  V30 19482 O 1707.02 -1.65198 2.15457 0
M  V30 19483 C 1705.47 0.519582 3.5613 0
M  V30 19484 C 1705.08 1.9562 4.03034 0
M  V30 19485 C 1706.83 0.139528 4.24271 0
M  V30 19486 C 1704.73 2.10478 5.52678 0
M  V30 19487 H 1703.66 0.115564 0.745091 0
M  V30 19488 H 1706.31 0.940092 1.5759 0
M  V30 19489 H 1704.7 -0.170724 3.95632 0
M  V30 19490 H 1705.87 2.68069 3.74801 0
M  V30 19491 H 1704.18 2.29197 3.47646 0
M  V30 19492 H 1706.78 0.22918 5.34209 0
M  V30 19493 H 1707.12 -0.908999 4.06255 0
M  V30 19494 H 1707.66 0.782019 3.90038 0
M  V30 19495 H 1704.4 3.13616 5.75609 0
M  V30 19496 H 1703.92 1.42501 5.82626 0
M  V30 19497 H 1705.6 1.89887 6.18508 0
M  V30 19498 N 1705.73 -1.49049 0.51208 0
M  V30 19499 C 1706.98 -2.01677 -0.0303931 0
M  V30 19500 C 1707.29 -1.39594 -1.37014 0
M  V30 19501 O 1708.5 -1.83615 -1.99994 0
M  V30 19502 C 1706.95 -3.59748 -0.104605 0
M  V30 19503 C 1706.56 -4.30808 1.22916 0
M  V30 19504 C 1708.3 -4.20283 -0.596854 0
M  V30 19505 C 1706.21 -5.80765 1.11651 0
M  V30 19506 H 1705.14 -0.753848 -0.015131 0
M  V30 19507 H 1707.79 -1.71482 0.653169 0
M  V30 19508 H 1706.17 -3.86707 -0.852859 0
M  V30 19509 H 1707.35 -4.15539 1.99158 0
M  V30 19510 H 1705.66 -3.82066 1.65573 0
M  V30 19511 H 1708.26 -5.30114 -0.698821 0
M  V30 19512 H 1708.6 -3.84392 -1.59838 0
M  V30 19513 H 1709.14 -3.97686 0.0951882 0
M  V30 19514 H 1705.87 -6.212 2.09264 0
M  V30 19515 H 1705.39 -5.98497 0.395167 0
M  V30 19516 H 1707.07 -6.42038 0.799782 0
M  V30 19517 N 1707.21 -0.246397 -1.55662 0
M  V30 19518 C 1708.45 0.379047 -1.99226 0
M  V30 19519 C 1708.78 1.57627 -1.13434 0
M  V30 19520 O 1708.06 1.93493 -0.197627 0
M  V30 19521 C 1708.34 0.789403 -3.51341 0
M  V30 19522 C 1708.2 -0.413176 -4.47898 0
M  V30 19523 C 1709.51 1.63656 -4.0854 0
M  V30 19524 H 1706.63 0.136302 -0.724286 0
M  V30 19525 H 1709.28 -0.347607 -1.86793 0
M  V30 19526 H 1707.43 1.40854 -3.62067 0
M  V30 19527 H 1709.1 -1.0516 -4.49154 0
M  V30 19528 H 1707.34 -1.05636 -4.20741 0
M  V30 19529 H 1708.01 -0.0827267 -5.51938 0
M  V30 19530 H 1710.49 1.11393 -4.00912 0
M  V30 19531 H 1709.36 1.89254 -5.15242 0
M  V30 19532 H 1709.62 2.60823 -3.56965 0
M  V30 19533 N 1708.68 1.57577 0.026722 0
M  V30 19534 C 1709.65 2.05684 1.01127 0
M  V30 19535 C 1710.65 0.961373 1.28896 0
M  V30 19536 O 1711.84 1.22491 1.23861 0
M  V30 19537 C 1708.97 2.47576 2.34348 0
M  V30 19538 H 1710.16 2.93925 0.595681 0
M  V30 19539 H 1707.71 1.53887 0.273603 0
M  V30 19540 H 1708.45 1.62498 2.80651 0
M  V30 19541 H 1708.23 3.27556 2.15521 0
M  V30 19542 H 1709.72 2.85214 3.05029 0
M  V30 19543 N 1710.16 -0.299034 1.54737 0
M  V30 19544 C 1711.09 -1.37358 1.88826 0
M  V30 19545 C 1712.07 -1.52802 0.747367 0
M  V30 19546 O 1713.26 -1.66277 1.00327 0
M  V30 19547 C 1710.39 -2.73746 2.13729 0
M  V30 19548 C 1709.34 -2.73065 3.29575 0
M  V30 19549 C 1708.67 -4.12761 3.39901 0
M  V30 19550 C 1709.97 -2.34631 4.66632 0
M  V30 19551 H 1711.66 -1.09077 2.78824 0
M  V30 19552 H 1709.21 -0.523276 1.34156 0
M  V30 19553 H 1711.16 -3.49006 2.36162 0
M  V30 19554 H 1709.88 -3.03556 1.20504 0
M  V30 19555 H 1708.54 -2.00261 3.07068 0
M  V30 19556 H 1708.19 -4.39751 2.44189 0
M  V30 19557 H 1707.89 -4.13205 4.17774 0
M  V30 19558 H 1709.42 -4.89797 3.64597 0
M  V30 19559 H 1710.83 -2.99608 4.88782 0
M  V30 19560 H 1709.23 -2.46285 5.47233 0
M  V30 19561 H 1710.3 -1.29759 4.67216 0
M  V30 19562 N 1711.64 -1.47227 -0.562322 0
M  V30 19563 C 1712.57 -1.62204 -1.67965 0
M  V30 19564 C 1713.55 -0.471638 -1.63431 0
M  V30 19565 O 1714.74 -0.70036 -1.81131 0
M  V30 19566 C 1711.87 -1.63127 -3.06605 0
M  V30 19567 C 1710.82 -2.77343 -3.25983 0
M  V30 19568 C 1710.15 -2.63336 -4.65358 0
M  V30 19569 C 1711.45 -4.18983 -3.1185 0
M  V30 19570 H 1713.14 -2.55739 -1.55686 0
M  V30 19571 H 1710.69 -1.23075 -0.747561 0
M  V30 19572 H 1712.64 -1.72197 -3.84612 0
M  V30 19573 H 1711.36 -0.661501 -3.19831 0
M  V30 19574 H 1710.02 -2.67776 -2.50383 0
M  V30 19575 H 1709.67 -1.64398 -4.75376 0
M  V30 19576 H 1709.37 -3.39957 -4.79273 0
M  V30 19577 H 1710.89 -2.74327 -5.45506 0
M  V30 19578 H 1712.31 -4.29554 -3.79679 0
M  V30 19579 H 1710.7 -4.96351 -3.37277 0
M  V30 19580 H 1711.77 -4.37709 -2.08661 0
M  V30 19581 N 1713.12 0.808639 -1.35273 0
M  V30 19582 C 1714.53 1.10389 -1.15267 0
M  V30 19583 C 1714.73 2.01467 0.0362501 0
M  V30 19584 O 1713.79 2.42386 0.707477 0
M  V30 19585 C 1715.1 1.73685 -2.45467 0
M  V30 19586 C 1716.65 1.86115 -2.51655 0
M  V30 19587 C 1717.13 2.52826 -3.81894 0
M  V30 19588 N 1718.62 2.60313 -3.83134 0
M  V30 19589 C 1719.35 3.12694 -4.80635 0
M  V30 19590 N 1718.85 3.6553 -5.88523 0
M  V30 19591 N 1720.64 3.11228 -4.68074 0
M  V30 19592 H 1712.79 0.203141 -2.11426 0
M  V30 19593 H 1715.05 0.152706 -0.93562 0
M  V30 19594 H 1714.76 1.14228 -3.32633 0
M  V30 19595 H 1714.63 2.73406 -2.59864 0
M  V30 19596 H 1717.02 2.44715 -1.64919 0
M  V30 19597 H 1717.1 0.852547 -2.41175 0
M  V30 19598 H 1716.75 1.94875 -4.69027 0
M  V30 19599 H 1716.68 3.54219 -3.89662 0
M  V30 19600 H 1719.17 2.22878 -3.05178 0
M  V30 19601 H 1719.48 4.03793 -6.58917 0
M  V30 19602 H 1717.83 3.63734 -5.92218 0
M  V30 19603 H 1721.02 2.69228 -3.82928 0
M  V30 19604 H 1721.19 3.51745 -5.44224 0
M  V30 19605 N 1714.6 1.19237 1.03055 0
M  V30 19606 C 1715.85 0.988287 1.75829 0
M  V30 19607 C 1716.16 -0.481903 1.89571 0
M  V30 19608 O 1717.36 -0.804762 2.59299 0
M  V30 19609 C 1715.82 1.71934 3.16175 0
M  V30 19610 C 1715.43 3.22952 3.10493 0
M  V30 19611 C 1717.17 1.59844 3.93256 0
M  V30 19612 C 1715.08 3.88654 4.4576 0
M  V30 19613 H 1714.01 0.366153 0.659127 0
M  V30 19614 H 1716.66 1.42716 1.15345 0
M  V30 19615 H 1715.04 1.20828 3.77116 0
M  V30 19616 H 1716.22 3.81163 2.58943 0
M  V30 19617 H 1714.53 3.35298 2.46909 0
M  V30 19618 H 1717.13 2.06283 4.93307 0
M  V30 19619 H 1717.47 0.552317 4.1262 0
M  V30 19620 H 1718 2.08286 3.38913 0
M  V30 19621 H 1714.74 4.93357 4.31601 0
M  V30 19622 H 1714.26 3.35231 4.97373 0
M  V30 19623 H 1715.94 3.92104 5.14649 0
M  V30 19624 N 1716.07 -1.22136 0.99602 0
M  V30 19625 C 1716.98 -2.27869 0.557927 0
M  V30 19626 C 1718 -1.69462 -0.394781 0
M  V30 19627 O 1719.18 -1.99704 -0.26084 0
M  V30 19628 C 1716.24 -3.46501 -0.117434 0
M  V30 19629 C 1715.3 -4.20213 0.878627 0
M  V30 19630 C 1714.54 -5.33181 0.2354 0
M  V30 19631 O 1714.76 -5.62093 -0.969954 0
M  V30 19632 O 1713.69 -5.94486 0.941828 0
M  V30 19633 H 1717.52 -2.67517 1.43765 0
M  V30 19634 H 1715.1 -1.28362 0.764428 0
M  V30 19635 H 1716.99 -4.18476 -0.49559 0
M  V30 19636 H 1715.66 -3.08772 -0.971674 0
M  V30 19637 H 1714.57 -3.50497 1.30777 0
M  V30 19638 H 1715.9 -4.6183 1.70217 0
M  V30 19639 N 1717.55 -0.769612 -1.37531 0
M  V30 19640 C 1718.5 -0.152627 -2.30295 0
M  V30 19641 C 1719.47 0.692154 -1.50992 0
M  V30 19642 O 1720.65 0.64496 -1.79569 0
M  V30 19643 C 1717.79 0.72217 -3.37459 0
M  V30 19644 C 1716.91 -0.138985 -4.31776 0
M  V30 19645 C 1716.04 0.740317 -5.26016 0
M  V30 19646 C 1715.08 -0.1235 -6.11975 0
M  V30 19647 N 1714.22 0.713658 -6.98464 0
M  V30 19648 H 1719.06 -0.949218 -2.82478 0
M  V30 19649 H 1716.6 -0.479697 -1.39059 0
M  V30 19650 H 1718.55 1.24415 -3.98217 0
M  V30 19651 H 1717.18 1.48438 -2.86646 0
M  V30 19652 H 1716.24 -0.778756 -3.72343 0
M  V30 19653 H 1717.55 -0.805402 -4.92255 0
M  V30 19654 H 1716.7 1.32887 -5.91968 0
M  V30 19655 H 1715.44 1.44042 -4.65943 0
M  V30 19656 H 1714.45 -0.7246 -5.45004 0
M  V30 19657 H 1715.67 -0.820907 -6.7412 0
M  V30 19658 H 1713.62 1.39842 -6.40921 0
M  V30 19659 H 1713.53 0.104492 -7.55928 0
M  V30 19660 H 1714.8 1.28667 -7.68808 0
M  V30 19661 N 1719.03 1.48775 -0.519977 0
M  V30 19662 C 1720.45 1.58614 -0.177164 0
M  V30 19663 C 1720.65 1.52314 1.31919 0
M  V30 19664 O 1719.7 1.40697 2.09668 0
M  V30 19665 C 1721.02 2.90653 -0.770816 0
M  V30 19666 C 1722.56 3.0416 -0.73864 0
M  V30 19667 C 1723.04 4.38845 -1.31069 0
M  V30 19668 N 1724.53 4.45386 -1.27222 0
M  V30 19669 C 1725.26 5.48088 -1.68484 0
M  V30 19670 N 1724.76 6.57797 -2.17428 0
M  V30 19671 N 1726.55 5.38912 -1.59782 0
M  V30 19672 H 1718.7 1.51112 -1.49261 0
M  V30 19673 H 1720.97 0.716925 -0.62026 0
M  V30 19674 H 1720.67 3.00888 -1.82097 0
M  V30 19675 H 1720.55 3.76422 -0.242125 0
M  V30 19676 H 1722.93 2.93543 0.302728 0
M  V30 19677 H 1723.02 2.20026 -1.30469 0
M  V30 19678 H 1722.66 4.50215 -2.35093 0
M  V30 19679 H 1722.59 5.21649 -0.720409 0
M  V30 19680 H 1725.08 3.66685 -0.913813 0
M  V30 19681 H 1725.39 7.32287 -2.46933 0
M  V30 19682 H 1723.74 6.58787 -2.21415 0
M  V30 19683 H 1726.93 4.52097 -1.2135 0
M  V30 19684 H 1727.1 6.18821 -1.92261 0
M  V30 19685 N 1720.51 0.254649 1.55529 0
M  V30 19686 C 1721.74 -0.371856 2.03531 0
M  V30 19687 C 1722.15 -1.50974 1.13368 0
M  V30 19688 O 1721.51 -1.81885 0.14964 0
M  V30 19689 C 1721.56 -0.872314 3.50818 0
M  V30 19690 O 1721.28 0.22023 4.37546 0
M  V30 19691 C 1722.78 -1.56872 4.14616 0
M  V30 19692 H 1720 -0.0874565 0.665276 0
M  V30 19693 H 1722.55 0.380774 2.00924 0
M  V30 19694 H 1720.7 -1.5751 3.53934 0
M  V30 19695 H 1721.11 -0.161046 5.24253 0
M  V30 19696 H 1722.59 -1.87053 5.19341 0
M  V30 19697 H 1723.07 -2.49334 3.61565 0
M  V30 19698 H 1723.67 -0.910314 4.15444 0
M  V30 19699 N 1721.99 -1.57589 -0.0183649 0
M  V30 19700 C 1722.93 -2.08354 -1.03398 0
M  V30 19701 C 1723.93 -0.999575 -1.36766 0
M  V30 19702 O 1725.13 -1.18438 -1.35545 0
M  V30 19703 H 1721.51 -0.665046 -0.351023 0
M  V30 19704 H 1723.48 -2.92707 -0.580111 0
M  V30 19705 C 1722.23 -2.58713 -2.32299 0
M  V30 19706 H 1721.55 -3.41744 -2.07487 0
M  V30 19707 H 1722.99 -2.97932 -3.01683 0
M  V30 19708 C 1721.45 -1.49307 -3.02008 0
M  V30 19709 O 1721.98 -0.865426 -3.92267 0
M  V30 19710 N 1720.19 -1.225 -2.63519 0
M  V30 19711 H 1719.73 -1.73724 -1.90205 0
M  V30 19712 H 1719.69 -0.495132 -3.10477 0
M  V30 19713 N 1723.46 0.290824 -1.54893 0
M  V30 19714 C 1724.88 0.637054 -1.46334 0
M  V30 19715 C 1725.08 1.90285 -0.66285 0
M  V30 19716 O 1724.14 2.51896 -0.174589 0
M  V30 19717 C 1725.45 0.780585 -2.90392 0
M  V30 19718 C 1727 0.875807 -3.00497 0
M  V30 19719 C 1727.47 1.05126 -4.45772 0
M  V30 19720 N 1728.96 1.11721 -4.49525 0
M  V30 19721 C 1729.7 1.27145 -5.59126 0
M  V30 19722 N 1729.19 1.39401 -6.7863 0
M  V30 19723 N 1730.99 1.30114 -5.46833 0
M  V30 19724 H 1723.14 -0.540707 -2.05402 0
M  V30 19725 H 1725.4 -0.180344 -0.930688 0
M  V30 19726 H 1725.11 -0.0787855 -3.51612 0
M  V30 19727 H 1724.98 1.66644 -3.38392 0
M  V30 19728 H 1727.37 1.72566 -2.39385 0
M  V30 19729 H 1727.45 -0.0342844 -2.55777 0
M  V30 19730 H 1727.09 0.206135 -5.07482 0
M  V30 19731 H 1727.02 1.97573 -4.88132 0
M  V30 19732 H 1729.51 1.03562 -3.63433 0
M  V30 19733 H 1729.83 1.50953 -7.57914 0
M  V30 19734 H 1728.17 1.36438 -6.81476 0
M  V30 19735 H 1731.36 1.20157 -4.52416 0
M  V30 19736 H 1731.54 1.4179 -6.32297 0
M  V30 19737 N 1724.94 1.47523 0.554506 0
M  V30 19738 C 1726.17 1.57678 1.33496 0
M  V30 19739 C 1726.58 0.226976 1.87834 0
M  V30 19740 O 1725.92 -0.790327 1.6583 0
M  V30 19741 C 1725.99 2.54423 2.53987 0
M  V30 19742 C 1725.65 4.00056 2.20916 0
M  V30 19743 C 1726.65 4.88462 1.78048 0
M  V30 19744 C 1724.33 4.45412 2.32192 0
M  V30 19745 C 1726.33 6.20244 1.46889 0
M  V30 19746 C 1724.01 5.77221 2.00646 0
M  V30 19747 C 1725.01 6.64459 1.58062 0
M  V30 19748 O 1724.7 7.93818 1.26917 0
M  V30 19749 H 1724.43 0.535053 0.413152 0
M  V30 19750 H 1726.98 1.93878 0.678279 0
M  V30 19751 H 1725.21 2.13296 3.22555 0
M  V30 19752 H 1726.9 2.54676 3.16061 0
M  V30 19753 H 1727.67 4.54667 1.68827 0
M  V30 19754 H 1723.55 3.77715 2.64296 0
M  V30 19755 H 1727.09 6.88292 1.13578 0
M  V30 19756 H 1722.99 6.10557 2.095 0
M  V30 19757 H 1723.76 8.06347 1.40525 0
M  V30 19758 N 1726.42 -0.801453 1.357 0
M  V30 19759 C 1727.65 -1.59518 1.32547 0
M  V30 19760 C 1728.07 -1.87868 -0.0934243 0
M  V30 19761 O 1727.43 -1.46955 -1.06179 0
M  V30 19762 C 1727.48 -2.90028 2.14281 0
M  V30 19763 O 1726.58 -3.83086 1.52704 0
M  V30 19764 H 1725.92 -0.48434 0.454215 0
M  V30 19765 H 1728.45 -0.994315 1.78814 0
M  V30 19766 H 1728.46 -3.39406 2.26423 0
M  V30 19767 H 1727.14 -2.6872 3.17431 0
M  V30 19768 H 1725.71 -3.4165 1.49432 0
M  V30 19769 N 1727.9 -1.19782 -1.02421 0
M  V30 19770 C 1729.14 -1.01483 -1.76275 0
M  V30 19771 C 1729.5 0.449171 -1.87083 0
M  V30 19772 O 1728.79 1.32915 -1.38 0
M  V30 19773 C 1728.99 -1.62297 -3.18425 0
M  V30 19774 C 1728.82 -3.14459 -3.21474 0
M  V30 19775 C 1727.59 -3.83389 -3.29152 0
M  V30 19776 C 1729.78 -4.11771 -3.08138 0
M  V30 19777 N 1727.77 -5.22906 -3.21625 0
M  V30 19778 C 1729.14 -5.37916 -3.08296 0
M  V30 19779 C 1731.19 -4.0307 -2.92299 0
M  V30 19780 C 1729.89 -6.56365 -2.9424 0
M  V30 19781 C 1731.92 -5.21134 -2.79594 0
M  V30 19782 C 1731.28 -6.4618 -2.80411 0
M  V30 19783 H 1727.38 -0.425521 -0.656092 0
M  V30 19784 H 1729.97 -1.5183 -1.21884 0
M  V30 19785 H 1728.14 -1.14546 -3.71125 0
M  V30 19786 H 1729.87 -1.37389 -3.80666 0
M  V30 19787 H 1726.62 -3.34205 -3.35565 0
M  V30 19788 H 1727.05 -5.95923 -3.21256 0
M  V30 19789 H 1731.69 -3.07209 -2.90487 0
M  V30 19790 H 1729.41 -7.52408 -2.94802 0
M  V30 19791 H 1732.99 -5.16207 -2.68368 0
M  V30 19792 H 1731.87 -7.36001 -2.70688 0
M  V30 19793 N 1729.38 1.21606 -1.00248 0
M  V30 19794 C 1730.61 1.94609 -0.702502 0
M  V30 19795 C 1731.02 1.73928 0.734483 0
M  V30 19796 O 1730.38 1.04432 1.49667 0
M  V30 19797 C 1730.43 3.47077 -1.01092 0
M  V30 19798 O 1730.15 3.67071 -2.39145 0
M  V30 19799 C 1731.65 4.37248 -0.729988 0
M  V30 19800 H 1728.87 0.618962 -0.259088 0
M  V30 19801 H 1731.41 1.54494 -1.33985 0
M  V30 19802 H 1729.57 3.85125 -0.419215 0
M  V30 19803 H 1729.98 4.61188 -2.49811 0
M  V30 19804 H 1731.46 5.4294 -0.99598 0
M  V30 19805 H 1731.93 4.37913 0.33599 0
M  V30 19806 H 1732.54 4.04842 -1.30318 0
M  V30 19807 N 1730.86 0.776895 1.37121 0
M  V30 19808 C 1732.08 0.355097 2.0383 0
M  V30 19809 C 1732.5 -1.02441 1.58591 0
M  V30 19810 O 1731.86 -1.65482 0.769533 0
M  V30 19811 C 1731.91 0.394984 3.59336 0
M  V30 19812 O 1731.63 1.72008 4.0292 0
M  V30 19813 C 1733.13 -0.0377636 4.43284 0
M  V30 19814 H 1730.35 0.148056 0.654462 0
M  V30 19815 H 1732.89 1.05225 1.75351 0
M  V30 19816 H 1731.05 -0.253638 3.86569 0
M  V30 19817 H 1731.46 1.66225 4.97463 0
M  V30 19818 H 1732.94 0.0412956 5.51985 0
M  V30 19819 H 1733.41 -1.08881 4.2549 0
M  V30 19820 H 1734.02 0.582867 4.21287 0
M  V30 19821 N 1732.33 -1.48497 0.527859 0
M  V30 19822 C 1733.56 -2.066 -0.00302155 0
M  V30 19823 C 1733.97 -1.38505 -1.28892 0
M  V30 19824 O 1733.31 -0.465745 -1.77698 0
M  V30 19825 C 1733.38 -3.58249 -0.2997 0
M  V30 19826 C 1733.04 -4.48202 0.892405 0
M  V30 19827 C 1734.04 -4.88105 1.79023 0
M  V30 19828 C 1731.72 -4.90134 1.0988 0
M  V30 19829 C 1733.72 -5.68707 2.87838 0
M  V30 19830 C 1731.4 -5.70507 2.19009 0
M  V30 19831 C 1732.4 -6.09701 3.07821 0
M  V30 19832 O 1732.09 -6.88461 4.15062 0
M  V30 19833 H 1731.82 -0.675359 0.029422 0
M  V30 19834 H 1734.38 -1.91903 0.732286 0
M  V30 19835 H 1732.61 -3.71051 -1.08895 0
M  V30 19836 H 1734.29 -3.98483 -0.772407 0
M  V30 19837 H 1735.06 -4.56333 1.64271 0
M  V30 19838 H 1730.94 -4.59112 0.416808 0
M  V30 19839 H 1734.48 -5.99219 3.57187 0
M  V30 19840 H 1730.38 -6.01692 2.33746 0
M  V30 19841 H 1731.15 -7.06812 4.12746 0
M  V30 19842 N 1733.81 -0.262893 -1.55392 0
M  V30 19843 C 1734.74 0.623732 -2.25015 0
M  V30 19844 C 1735.72 1.16865 -1.23598 0
M  V30 19845 O 1736.91 1.20505 -1.5229 0
M  V30 19846 C 1734.04 1.81353 -2.9619 0
M  V30 19847 C 1732.99 1.40069 -4.04431 0
M  V30 19848 C 1732.32 2.67261 -4.63115 0
M  V30 19849 C 1733.62 0.559905 -5.1929 0
M  V30 19850 H 1735.31 0.0431306 -2.99369 0
M  V30 19851 H 1732.86 0.0193043 -1.43987 0
M  V30 19852 H 1734.81 2.43958 -3.43602 0
M  V30 19853 H 1733.53 2.41977 -2.1935 0
M  V30 19854 H 1732.19 0.797905 -3.57811 0
M  V30 19855 H 1731.84 3.26117 -3.82958 0
M  V30 19856 H 1731.54 2.40354 -5.36194 0
M  V30 19857 H 1733.07 3.30735 -5.1327 0
M  V30 19858 H 1734.48 1.09064 -5.6283 0
M  V30 19859 H 1732.88 0.386234 -5.98856 0
M  V30 19860 H 1733.95 -0.424199 -4.83041 0
M  V30 19861 N 1735.29 1.57597 0.0100073 0
M  V30 19862 C 1736.52 1.94402 0.708192 0
M  V30 19863 C 1736.93 0.864205 1.6786 0
M  V30 19864 O 1736.29 -0.157763 1.81817 0
M  V30 19865 C 1736.34 3.312 1.44876 0
M  V30 19866 O 1736.06 4.35035 0.517281 0
M  V30 19867 C 1737.56 3.82404 2.24237 0
M  V30 19868 H 1734.78 0.64116 0.197877 0
M  V30 19869 H 1737.33 2.04464 -0.0381373 0
M  V30 19870 H 1735.48 3.22476 2.1468 0
M  V30 19871 H 1735.9 5.14113 1.03868 0
M  V30 19872 H 1737.37 4.80578 2.71567 0
M  V30 19873 H 1737.85 3.14587 3.06483 0
M  V30 19874 H 1738.45 3.94271 1.59469 0
M  V30 19875 N 1736.77 -0.282606 1.55045 0
M  V30 19876 C 1737.7 -1.35347 1.90272 0
M  V30 19877 C 1738.68 -1.52001 0.763532 0
M  V30 19878 O 1739.86 -1.65204 1.02085 0
M  V30 19879 C 1736.99 -2.71464 2.16621 0
M  V30 19880 C 1735.95 -2.69554 3.32453 0
M  V30 19881 C 1735.27 -4.09132 3.4426 0
M  V30 19882 C 1736.57 -2.29669 4.69094 0
M  V30 19883 H 1738.27 -1.06113 2.79965 0
M  V30 19884 H 1735.81 -0.509018 1.34703 0
M  V30 19885 H 1737.77 -3.46482 2.39851 0
M  V30 19886 H 1736.49 -3.02261 1.23717 0
M  V30 19887 H 1735.15 -1.96993 3.09175 0
M  V30 19888 H 1734.8 -4.37136 2.4884 0
M  V30 19889 H 1734.5 -4.08751 4.22133 0
M  V30 19890 H 1736.02 -4.85903 3.69771 0
M  V30 19891 H 1737.44 -2.94407 4.91932 0
M  V30 19892 H 1735.83 -2.40467 5.49814 0
M  V30 19893 H 1736.9 -1.24796 4.68566 0
M  V30 19894 N 1738.25 -1.47815 -0.546675 0
M  V30 19895 C 1739.18 -1.57161 -1.66832 0
M  V30 19896 C 1740.19 -0.457035 -1.56253 0
M  V30 19897 O 1741.38 -0.727134 -1.63018 0
M  V30 19898 C 1738.48 -1.4697 -3.05374 0
M  V30 19899 C 1737.65 -2.7318 -3.41602 0
M  V30 19900 C 1736.71 -2.56676 -4.59351 0
M  V30 19901 O 1735.74 -3.30521 -4.63405 0
M  V30 19902 N 1736.94 -1.65194 -5.56499 0
M  V30 19903 H 1739.7 -2.53885 -1.59257 0
M  V30 19904 H 1737.27 -1.44328 -0.733565 0
M  V30 19905 H 1739.26 -1.33649 -3.81995 0
M  V30 19906 H 1737.83 -0.582878 -3.07118 0
M  V30 19907 H 1737.05 -3.01186 -2.54323 0
M  V30 19908 H 1738.34 -3.56945 -3.62585 0
M  V30 19909 H 1737.73 -1.04369 -5.55989 0
M  V30 19910 H 1736.29 -1.57819 -6.32405 0
M  V30 19911 N 1739.72 0.794246 -1.36123 0
M  V30 19912 C 1740.67 1.90668 -1.30056 0
M  V30 19913 C 1741.64 1.65226 -0.170145 0
M  V30 19914 O 1742.83 1.87452 -0.355874 0
M  V30 19915 C 1739.97 3.27405 -1.09086 0
M  V30 19916 C 1739.08 3.64951 -2.31159 0
M  V30 19917 C 1738.21 4.90782 -2.0324 0
M  V30 19918 C 1737.25 5.20992 -3.21301 0
M  V30 19919 N 1736.39 6.38005 -2.93078 0
M  V30 19920 H 1741.23 1.9519 -2.25178 0
M  V30 19921 H 1738.77 0.95458 -1.1192 0
M  V30 19922 H 1740.72 4.0625 -0.94956 0
M  V30 19923 H 1739.35 3.22319 -0.176211 0
M  V30 19924 H 1738.41 2.81268 -2.5611 0
M  V30 19925 H 1739.72 3.83228 -3.19277 0
M  V30 19926 H 1738.87 5.77481 -1.86012 0
M  V30 19927 H 1737.61 4.74565 -1.12426 0
M  V30 19928 H 1736.62 4.32777 -3.39093 0
M  V30 19929 H 1737.84 5.39131 -4.12934 0
M  V30 19930 H 1735.79 6.23189 -2.0487 0
M  V30 19931 H 1735.7 6.56591 -3.74733 0
M  V30 19932 H 1736.97 7.27699 -2.79418 0
M  V30 19933 N 1741.2 1.20323 1.01785 0
M  V30 19934 C 1742.13 0.908716 2.10416 0
M  V30 19935 C 1743.15 -0.103029 1.62474 0
M  V30 19936 O 1744.34 0.127825 1.78042 0
M  V30 19937 C 1741.44 0.340601 3.37184 0
M  V30 19938 C 1740.61 1.40358 4.14268 0
M  V30 19939 C 1739.67 0.847016 5.19338 0
M  V30 19940 O 1738.69 1.5274 5.48324 0
M  V30 19941 N 1739.9 -0.344198 5.79479 0
M  V30 19942 H 1742.66 1.84383 2.36269 0
M  V30 19943 H 1740.22 1.10673 1.18165 0
M  V30 19944 H 1742.21 -0.0458443 4.04674 0
M  V30 19945 H 1740.78 -0.499042 3.08591 0
M  V30 19946 H 1740 1.96442 3.41766 0
M  V30 19947 H 1741.29 2.11952 4.62551 0
M  V30 19948 H 1740.69 -0.914263 5.58263 0
M  V30 19949 H 1739.25 -0.672296 6.48324 0
M  V30 19950 N 1742.68 -1.21073 1.00892 0
M  V30 19951 C 1743.61 -2.25847 0.592897 0
M  V30 19952 C 1744.59 -1.6561 -0.38824 0
M  V30 19953 O 1745.78 -1.92238 -0.275361 0
M  V30 19954 C 1742.91 -3.47214 -0.0773439 0
M  V30 19955 C 1741.86 -4.19994 0.82398 0
M  V30 19956 C 1741.19 -5.34696 0.0199341 0
M  V30 19957 C 1742.49 -4.76964 2.12844 0
M  V30 19958 H 1744.18 -2.609 1.46873 0
M  V30 19959 H 1741.73 -1.25412 0.707656 0
M  V30 19960 H 1743.68 -4.19684 -0.379889 0
M  V30 19961 H 1742.4 -3.11303 -0.987833 0
M  V30 19962 H 1741.06 -3.49379 1.11041 0
M  V30 19963 H 1740.71 -4.95028 -0.891966 0
M  V30 19964 H 1740.41 -5.84319 0.620102 0
M  V30 19965 H 1741.93 -6.09974 -0.276336 0
M  V30 19966 H 1743.35 -5.41293 1.88878 0
M  V30 19967 H 1741.74 -5.36992 2.67879 0
M  V30 19968 H 1742.81 -3.96129 2.79659 0
M  V30 19969 N 1744.16 -0.784156 -1.36707 0
M  V30 19970 C 1745.44 -0.278338 -1.93609 0
M  V30 19971 C 1745.82 1.22865 -1.71661 0
M  V30 19972 O 1745.16 2.01765 -1.07252 0
M  V30 19973 C 1745.37 -0.665232 -3.42601 0
M  V30 19974 C 1746.72 -0.642005 -4.19718 0
M  V30 19975 O 1747.75 -0.605381 -3.51018 0
M  V30 19976 O 1746.6 -0.680178 -5.42251 0
M  V30 19977 H 1743.7 -0.0675603 -0.824236 0
M  V30 19978 H 1746.24 -0.866345 -1.4592 0
M  V30 19979 H 1745.02 -1.70478 -3.52211 0
M  V30 19980 H 1744.64 -0.0508295 -3.97568 0
M  V30 19981 N 1745.64 1.48215 -0.535727 0
M  V30 19982 C 1746.55 2.33494 0.227577 0
M  V30 19983 C 1747.56 1.4685 0.933327 0
M  V30 19984 O 1748.74 1.7982 0.907008 0
M  V30 19985 C 1745.8 3.23092 1.25747 0
M  V30 19986 C 1744.86 4.25613 0.561454 0
M  V30 19987 C 1744.1 5.1093 1.54228 0
M  V30 19988 O 1744.32 4.98325 2.77539 0
M  V30 19989 O 1743.25 5.92158 1.07852 0
M  V30 19990 H 1747.08 3.0002 -0.471375 0
M  V30 19991 H 1744.67 1.46427 -0.296579 0
M  V30 19992 H 1746.55 3.78498 1.8525 0
M  V30 19993 H 1745.22 2.5922 1.93872 0
M  V30 19994 H 1744.13 3.74026 -0.0742194 0
M  V30 19995 H 1745.46 4.92138 -0.0779649 0
M  V30 19996 N 1747.11 0.27113 1.5525 0
M  V30 19997 C 1748.53 -0.0831186 1.59383 0
M  V30 19998 C 1748.73 -1.54931 1.28835 0
M  V30 19999 O 1747.79 -2.29756 1.0473 0
M  V30 20000 C 1749.1 0.287921 2.99318 0
M  V30 20001 C 1750.65 0.234209 3.12123 0
M  V30 20002 C 1751.12 0.57963 4.54317 0
M  V30 20003 N 1752.61 0.531033 4.60146 0
M  V30 20004 C 1753.35 0.771156 5.68191 0
M  V30 20005 N 1752.84 1.07569 6.84398 0
M  V30 20006 N 1754.64 0.700223 5.57722 0
M  V30 20007 H 1746.79 1.22702 1.73373 0
M  V30 20008 H 1749.05 0.495424 0.808244 0
M  V30 20009 H 1748.76 1.30746 3.26494 0
M  V30 20010 H 1748.63 -0.373205 3.75349 0
M  V30 20011 H 1751.02 -0.776035 2.84713 0
M  V30 20012 H 1751.1 0.929535 2.38313 0
M  V30 20013 H 1750.74 1.58754 4.82452 0
M  V30 20014 H 1750.67 -0.137442 5.26421 0
M  V30 20015 H 1753.16 0.305377 3.76664 0
M  V30 20016 H 1753.48 1.24568 7.62694 0
M  V30 20017 H 1751.82 1.11342 6.86023 0
M  V30 20018 H 1755.01 0.462183 4.65813 0
M  V30 20019 H 1755.19 0.890744 6.41849 0
M  V30 20020 N 1748.59 -1.576 -0.00164943 0
M  V30 20021 C 1749.54 -2.08318 -0.993594 0
M  V30 20022 C 1750.51 -0.978234 -1.34238 0
M  V30 20023 O 1751.69 -1.25056 -1.44103 0
M  V30 20024 C 1748.83 -2.58982 -2.28084 0
M  V30 20025 C 1747.95 -3.83372 -1.99123 0
M  V30 20026 C 1747.08 -4.22543 -3.21917 0
M  V30 20027 C 1746.12 -5.39774 -2.88635 0
M  V30 20028 N 1745.26 -5.74247 -4.03962 0
M  V30 20029 H 1750.1 -2.92802 -0.554154 0
M  V30 20030 H 1747.64 -1.44748 -0.261973 0
M  V30 20031 H 1749.59 -2.86434 -3.03334 0
M  V30 20032 H 1748.22 -1.77374 -2.697 0
M  V30 20033 H 1747.28 -3.62838 -1.14248 0
M  V30 20034 H 1748.59 -4.68722 -1.70591 0
M  V30 20035 H 1747.74 -4.51268 -4.05514 0
M  V30 20036 H 1746.48 -3.35899 -3.53587 0
M  V30 20037 H 1745.49 -5.10774 -2.03445 0
M  V30 20038 H 1746.71 -6.28094 -2.58215 0
M  V30 20039 H 1744.66 -4.9056 -4.35531 0
M  V30 20040 H 1744.57 -6.54167 -3.78948 0
M  V30 20041 H 1745.84 -6.07563 -4.88352 0
M  V30 20042 N 1750.07 0.274379 -1.55193 0
M  V30 20043 C 1751.49 0.621497 -1.47002 0
M  V30 20044 C 1751.69 1.89572 -0.682995 0
M  V30 20045 O 1750.74 2.51696 -0.201296 0
M  V30 20046 C 1752.06 0.749741 -2.91203 0
M  V30 20047 C 1753.6 0.843886 -3.01409 0
M  V30 20048 C 1754.08 1.00392 -4.46862 0
M  V30 20049 N 1755.57 1.06947 -4.50684 0
M  V30 20050 C 1756.3 1.21207 -5.60443 0
M  V30 20051 N 1755.8 1.32195 -6.80071 0
M  V30 20052 N 1757.59 1.24307 -5.48183 0
M  V30 20053 H 1749.74 -0.562462 -2.04817 0
M  V30 20054 H 1752.01 -0.190205 -0.928723 0
M  V30 20055 H 1751.71 -0.116074 -3.51508 0
M  V30 20056 H 1751.59 1.63046 -3.40141 0
M  V30 20057 H 1753.97 1.70017 -2.41202 0
M  V30 20058 H 1754.06 -0.061411 -2.55726 0
M  V30 20059 H 1753.7 0.152298 -5.07672 0
M  V30 20060 H 1753.63 1.92384 -4.902 0
M  V30 20061 H 1756.12 0.997012 -3.64511 0
M  V30 20062 H 1756.43 1.42906 -7.59472 0
M  V30 20063 H 1754.78 1.29202 -6.82885 0
M  V30 20064 H 1757.97 1.15352 -4.53665 0
M  V30 20065 H 1758.14 1.35076 -6.33765 0
M  V30 20066 N 1751.55 1.48103 0.538828 0
M  V30 20067 C 1752.78 1.59085 1.31816 0
M  V30 20068 C 1753.19 0.246886 1.87582 0
M  V30 20069 O 1752.53 -0.772694 1.66659 0
M  V30 20070 C 1752.59 2.57102 2.51274 0
M  V30 20071 C 1752.26 4.02377 2.16661 0
M  V30 20072 C 1753.25 4.90323 1.72857 0
M  V30 20073 C 1750.94 4.4785 2.27455 0
M  V30 20074 C 1752.93 6.21767 1.40302 0
M  V30 20075 C 1750.62 5.79317 1.94512 0
M  V30 20076 C 1751.62 6.66098 1.51006 0
M  V30 20077 O 1751.3 7.9512 1.18491 0
M  V30 20078 H 1751.04 0.539404 0.407454 0
M  V30 20079 H 1753.59 1.94586 0.657678 0
M  V30 20080 H 1751.82 2.16705 3.20275 0
M  V30 20081 H 1753.51 2.58014 3.13342 0
M  V30 20082 H 1754.28 4.56432 1.63995 0
M  V30 20083 H 1750.15 3.80497 2.60275 0
M  V30 20084 H 1753.7 6.89458 1.06271 0
M  V30 20085 H 1749.6 6.12745 2.03012 0
M  V30 20086 H 1750.36 8.07792 1.31964 0
M  V30 20087 N 1753.03 -0.787016 1.36542 0
M  V30 20088 C 1754.26 -1.5736 1.33871 0
M  V30 20089 C 1754.66 -1.89024 -0.0814846 0
M  V30 20090 O 1754.01 -1.50771 -1.04947 0
M  V30 20091 C 1754.07 -2.91978 2.09735 0
M  V30 20092 C 1753.73 -2.8303 3.58808 0
M  V30 20093 C 1754.73 -2.55108 4.53008 0
M  V30 20094 C 1752.42 -3.01531 4.01727 0
M  V30 20095 C 1754.41 -2.45793 5.88103 0
M  V30 20096 C 1752.1 -2.91838 5.36911 0
M  V30 20097 C 1753.09 -2.64007 6.29912 0
M  V30 20098 O 1752.78 -2.54312 7.62614 0
M  V30 20099 H 1752.51 -0.494659 0.460748 0
M  V30 20100 H 1755.07 -0.984519 1.80268 0
M  V30 20101 H 1753.3 -3.52946 1.58005 0
M  V30 20102 H 1754.99 -3.53268 1.99891 0
M  V30 20103 H 1755.75 -2.40514 4.21163 0
M  V30 20104 H 1751.63 -3.22199 3.2971 0
M  V30 20105 H 1755.18 -2.23991 6.60662 0
M  V30 20106 H 1751.07 -3.05995 5.68364 0
M  V30 20107 H 1751.84 -2.69776 7.72763 0
M  V30 20108 N 1754.5 -1.20861 -1.01145 0
M  V30 20109 C 1755.78 -0.93084 -1.72031 0
M  V30 20110 C 1756.16 0.559051 -2.03563 0
M  V30 20111 O 1755.51 1.52214 -1.70421 0
M  V30 20112 C 1755.72 -1.8092 -2.98444 0
M  V30 20113 C 1757.07 -2.05415 -3.71604 0
M  V30 20114 O 1758.09 -1.78216 -3.08411 0
M  V30 20115 O 1756.95 -2.5138 -4.85253 0
M  V30 20116 H 1754.04 -0.348488 -0.74999 0
M  V30 20117 H 1756.59 -1.3176 -1.06946 0
M  V30 20118 H 1755.36 -2.81783 -2.71503 0
M  V30 20119 H 1754.99 -1.42285 -3.71269 0
M  V30 20120 N 1755.98 1.20536 -1.01532 0
M  V30 20121 C 1757.21 1.93853 -0.723104 0
M  V30 20122 C 1757.63 1.74697 0.715994 0
M  V30 20123 O 1756.98 1.06013 1.48551 0
M  V30 20124 C 1757.03 3.45986 -1.04767 0
M  V30 20125 O 1756.75 3.64514 -2.43025 0
M  V30 20126 C 1758.26 4.36449 -0.776323 0
M  V30 20127 H 1755.48 0.616179 -0.265639 0
M  V30 20128 H 1758.02 1.53064 -1.35616 0
M  V30 20129 H 1756.17 3.84659 -0.460039 0
M  V30 20130 H 1756.59 4.58513 -2.54689 0
M  V30 20131 H 1758.06 5.41853 -1.05351 0
M  V30 20132 H 1758.54 4.38245 0.289524 0
M  V30 20133 H 1759.15 4.03437 -1.34605 0
M  V30 20134 N 1757.46 0.791395 1.36289 0
M  V30 20135 C 1758.87 0.427611 1.81737 0
M  V30 20136 C 1759.22 -1.04868 1.65822 0
M  V30 20137 O 1758.35 -1.81379 1.18028 0
M  V30 20138 C 1758.94 0.769378 3.29949 0
M  V30 20139 C 1757.5 0.458397 3.73598 0
M  V30 20140 C 1756.65 1.00299 2.58526 0
M  V30 20141 H 1759.6 0.98437 1.24482 0
M  V30 20142 H 1759.62 0.061211 3.80451 0
M  V30 20143 H 1759.13 1.8439 3.415 0
M  V30 20144 H 1757.23 -0.608006 3.67606 0
M  V30 20145 H 1757.35 0.980392 4.68962 0
M  V30 20146 H 1755.71 0.426106 2.5111 0
M  V30 20147 H 1756.49 2.08331 2.72861 0
M  V30 20148 N 1758.94 -1.47929 0.54358 0
M  V30 20149 C 1760.19 -2.02495 0.0144665 0
M  V30 20150 C 1760.51 -1.41934 -1.32985 0
M  V30 20151 O 1759.77 -0.559497 -1.87532 0
M  V30 20152 C 1760.07 -3.57116 -0.142408 0
M  V30 20153 C 1759.73 -4.3653 1.12927 0
M  V30 20154 C 1758.4 -4.57947 1.47776 0
M  V30 20155 C 1760.75 -4.8243 1.97259 0
M  V30 20156 C 1758.08 -5.22512 2.66829 0
M  V30 20157 C 1760.43 -5.48307 3.15503 0
M  V30 20158 C 1759.09 -5.6796 3.50681 0
M  V30 20159 H 1758.36 -0.740981 0.00529368 0
M  V30 20160 H 1761.01 -1.77758 0.712347 0
M  V30 20161 H 1759.31 -3.80769 -0.923157 0
M  V30 20162 H 1761.01 -3.96972 -0.566937 0
M  V30 20163 H 1757.6 -4.20129 0.847901 0
M  V30 20164 H 1761.79 -4.65673 1.71645 0
M  V30 20165 H 1757.04 -5.35924 2.9427 0
M  V30 20166 H 1761.22 -5.82839 3.81145 0
M  V30 20167 H 1758.84 -6.17762 4.43028 0
M  V30 20168 N 1760.42 -0.27936 -1.55104 0
M  V30 20169 C 1761.36 0.606268 -2.22695 0
M  V30 20170 C 1762.33 1.14646 -1.20189 0
M  V30 20171 O 1763.52 1.19498 -1.48744 0
M  V30 20172 C 1760.66 1.78256 -2.95497 0
M  V30 20173 C 1759.77 1.27582 -4.12731 0
M  V30 20174 C 1758.91 2.41425 -4.73167 0
M  V30 20175 C 1757.95 1.87775 -5.82586 0
M  V30 20176 N 1757.08 2.95108 -6.37068 0
M  V30 20177 H 1761.92 0.0232427 -2.97991 0
M  V30 20178 H 1759.46 -0.000294714 -1.471 0
M  V30 20179 H 1761.42 2.47406 -3.35925 0
M  V30 20180 H 1760.05 2.33755 -2.22617 0
M  V30 20181 H 1759.1 0.477281 -3.77394 0
M  V30 20182 H 1760.41 0.842897 -4.91627 0
M  V30 20183 H 1759.57 3.18561 -5.16337 0
M  V30 20184 H 1758.31 2.88035 -3.93557 0
M  V30 20185 H 1757.31 1.0912 -5.38862 0
M  V30 20186 H 1758.54 1.42096 -6.64067 0
M  V30 20187 H 1756.48 3.41091 -5.60351 0
M  V30 20188 H 1756.4 2.56246 -7.11248 0
M  V30 20189 H 1757.67 3.72206 -6.84896 0
M  V30 20190 N 1761.9 1.57599 -0.0067085 0
M  V30 20191 C 1763.13 1.9486 0.686536 0
M  V30 20192 C 1763.53 0.880481 1.67464 0
M  V30 20193 O 1762.88 -0.148537 1.83098 0
M  V30 20194 C 1762.94 3.28146 1.46834 0
M  V30 20195 C 1762.6 4.52481 0.641076 0
M  V30 20196 C 1763.6 5.19847 -0.0741179 0
M  V30 20197 C 1761.28 4.98881 0.585071 0
M  V30 20198 C 1763.28 6.31917 -0.83423 0
M  V30 20199 C 1760.97 6.10838 -0.178762 0
M  V30 20200 C 1761.96 6.77214 -0.887139 0
M  V30 20201 O 1761.65 7.87025 -1.6385 0
M  V30 20202 H 1761.38 0.647045 0.195727 0
M  V30 20203 H 1763.94 2.05324 -0.0559783 0
M  V30 20204 H 1762.17 3.14109 2.25549 0
M  V30 20205 H 1763.86 3.50471 2.04756 0
M  V30 20206 H 1764.62 4.84983 -0.0400444 0
M  V30 20207 H 1760.5 4.47038 1.12598 0
M  V30 20208 H 1764.05 6.83659 -1.38767 0
M  V30 20209 H 1759.94 6.45143 -0.214632 0
M  V30 20210 H 1760.71 8.03576 -1.55591 0
M  V30 20211 N 1763.37 -0.266145 1.55336 0
M  V30 20212 C 1764.3 -1.33322 1.91697 0
M  V30 20213 C 1765.28 -1.51182 0.77961 0
M  V30 20214 O 1766.47 -1.64112 1.03832 0
M  V30 20215 C 1763.6 -2.69151 2.19488 0
M  V30 20216 C 1762.55 -2.66012 3.35293 0
M  V30 20217 C 1761.88 -4.05458 3.4858 0
M  V30 20218 C 1763.18 -2.24681 4.71504 0
M  V30 20219 H 1764.87 -1.03138 2.81075 0
M  V30 20220 H 1762.42 -0.494702 1.35236 0
M  V30 20221 H 1764.37 -3.43918 2.43512 0
M  V30 20222 H 1763.1 -3.00932 1.26916 0
M  V30 20223 H 1761.76 -1.93703 3.11247 0
M  V30 20224 H 1761.4 -4.34472 2.53462 0
M  V30 20225 H 1761.1 -4.04251 4.26445 0
M  V30 20226 H 1762.63 -4.81954 3.74904 0
M  V30 20227 H 1764.04 -2.89173 4.95027 0
M  V30 20228 H 1762.44 -2.34622 5.52334 0
M  V30 20229 H 1763.51 -1.19819 4.69863 0
M  V30 20230 N 1764.85 -1.48386 -0.530967 0
M  V30 20231 C 1766.1 -1.56354 -1.28685 0
M  V30 20232 C 1766.43 -0.237022 -1.9305 0
M  V30 20233 O 1765.68 0.772595 -1.79804 0
M  V30 20234 C 1765.98 -2.64979 -2.39835 0
M  V30 20235 C 1765.65 -4.07446 -1.93129 0
M  V30 20236 C 1764.31 -4.46222 -1.80108 0
M  V30 20237 C 1766.66 -4.96732 -1.5782 0
M  V30 20238 C 1763.99 -5.7209 -1.30113 0
M  V30 20239 C 1766.34 -6.23088 -1.09288 0
M  V30 20240 C 1765 -6.60722 -0.948835 0
M  V30 20241 H 1764.27 -0.572139 -0.470891 0
M  V30 20242 H 1766.92 -1.82099 -0.592626 0
M  V30 20243 H 1765.23 -2.3309 -3.14923 0
M  V30 20244 H 1766.92 -2.68359 -2.97967 0
M  V30 20245 H 1763.51 -3.76822 -2.04213 0
M  V30 20246 H 1767.7 -4.67452 -1.6674 0
M  V30 20247 H 1762.95 -5.99974 -1.17647 0
M  V30 20248 H 1767.13 -6.91669 -0.810376 0
M  V30 20249 H 1764.75 -7.5814 -0.559235 0
M  V30 20250 N 1766.33 0.779763 -1.36958 0
M  V30 20251 C 1767.26 1.90687 -1.34762 0
M  V30 20252 C 1768.24 1.68704 -0.217508 0
M  V30 20253 O 1769.43 1.89678 -0.416639 0
M  V30 20254 C 1766.56 3.27854 -1.14582 0
M  V30 20255 C 1765.51 3.64383 -2.2452 0
M  V30 20256 C 1764.84 5.00004 -1.89473 0
M  V30 20257 C 1766.14 3.71963 -3.66662 0
M  V30 20258 H 1767.83 1.92781 -2.29076 0
M  V30 20259 H 1765.38 0.926102 -1.10269 0
M  V30 20260 H 1767.33 4.06332 -1.11678 0
M  V30 20261 H 1766.05 3.26172 -0.167218 0
M  V30 20262 H 1764.71 2.88207 -2.26566 0
M  V30 20263 H 1764.36 4.94853 -0.901617 0
M  V30 20264 H 1764.06 5.25414 -2.63085 0
M  V30 20265 H 1765.58 5.80892 -1.88141 0
M  V30 20266 H 1767 4.40611 -3.6679 0
M  V30 20267 H 1765.39 4.08864 -4.39261 0
M  V30 20268 H 1766.46 2.72824 -4.00868 0
M  V30 20269 N 1767.81 1.21396 1.00503 0
M  V30 20270 C 1768.75 0.973198 2.09279 0
M  V30 20271 C 1769.72 -0.100797 1.65794 0
M  V30 20272 O 1770.91 0.0463185 1.90744 0
M  V30 20273 C 1768.05 0.543941 3.40786 0
M  V30 20274 C 1767.16 1.68737 3.97683 0
M  V30 20275 C 1766.3 1.20728 5.17299 0
M  V30 20276 C 1765.34 2.32305 5.66305 0
M  V30 20277 N 1764.47 1.8543 6.77171 0
M  V30 20278 H 1769.31 1.90441 2.29208 0
M  V30 20279 H 1766.85 0.949082 1.12387 0
M  V30 20280 H 1768.81 0.276311 4.16284 0
M  V30 20281 H 1767.44 -0.350263 3.20894 0
M  V30 20282 H 1766.49 2.06964 3.19171 0
M  V30 20283 H 1767.8 2.5271 4.30045 0
M  V30 20284 H 1766.96 0.896312 6.00043 0
M  V30 20285 H 1765.7 0.3376 4.8653 0
M  V30 20286 H 1764.7 2.64205 4.82158 0
M  V30 20287 H 1765.93 3.19769 5.99103 0
M  V30 20288 H 1763.87 1.00806 6.48208 0
M  V30 20289 H 1763.79 2.62976 7.08788 0
M  V30 20290 H 1765.06 1.57366 7.6345 0
M  V30 20291 N 1769.29 -1.19996 1.0217 0
M  V30 20292 C 1770.53 -1.88818 0.709281 0
M  V30 20293 C 1770.85 -1.80032 -0.764702 0
M  V30 20294 O 1772.05 -2.44037 -1.18988 0
M  V30 20295 C 1770.51 -3.38652 1.2183 0
M  V30 20296 C 1770.12 -3.56012 2.71955 0
M  V30 20297 C 1771.86 -4.12996 0.981542 0
M  V30 20298 C 1769.77 -4.997 3.16313 0
M  V30 20299 H 1768.7 -0.70716 0.261613 0
M  V30 20300 H 1771.35 -1.35715 1.23506 0
M  V30 20301 H 1769.73 -3.91109 0.620478 0
M  V30 20302 H 1770.91 -3.13918 3.37331 0
M  V30 20303 H 1769.22 -2.95046 2.93831 0
M  V30 20304 H 1771.82 -5.18948 1.28831 0
M  V30 20305 H 1772.16 -4.1622 -0.0818616 0
M  V30 20306 H 1772.69 -3.66656 1.543 0
M  V30 20307 H 1769.43 -5.01635 4.21951 0
M  V30 20308 H 1768.95 -5.42585 2.5566 0
M  V30 20309 H 1770.63 -5.68312 3.09242 0
M  V30 20310 N 1770.76 -0.798611 -1.35867 0
M  V30 20311 C 1771.99 -0.386378 -2.03769 0
M  V30 20312 C 1772.41 0.992154 -1.59806 0
M  V30 20313 O 1771.77 1.64094 -0.770895 0
M  V30 20314 C 1771.82 -0.468859 -3.57539 0
M  V30 20315 O 1770.92 0.520742 -4.09099 0
M  V30 20316 H 1770.26 -0.162597 -0.643784 0
M  V30 20317 H 1772.79 -1.08228 -1.73631 0
M  V30 20318 H 1772.8 -0.335775 -4.06616 0
M  V30 20319 H 1771.48 -1.47441 -3.88888 0
M  V30 20320 H 1770.06 0.348559 -3.71267 0
M  V30 20321 N 1772.24 1.47639 -0.551417 0
M  V30 20322 C 1773.19 2.29936 0.199514 0
M  V30 20323 C 1774.16 1.38704 0.913811 0
M  V30 20324 O 1775.34 1.67666 0.910643 0
M  V30 20325 C 1772.48 3.22544 1.22717 0
M  V30 20326 C 1771.6 4.28865 0.519527 0
M  V30 20327 C 1770.73 5.0863 1.53197 0
M  V30 20328 C 1769.77 6.06731 0.808981 0
M  V30 20329 N 1768.91 6.79476 1.76798 0
M  V30 20330 H 1773.75 2.93631 -0.508414 0
M  V30 20331 H 1771.28 1.44738 -0.262553 0
M  V30 20332 H 1773.24 3.74653 1.83551 0
M  V30 20333 H 1771.87 2.60726 1.9032 0
M  V30 20334 H 1770.92 3.79857 -0.203217 0
M  V30 20335 H 1772.24 4.98778 -0.0471224 0
M  V30 20336 H 1771.39 5.6486 2.214 0
M  V30 20337 H 1770.13 4.38605 2.13253 0
M  V30 20338 H 1769.13 5.49684 0.112991 0
M  V30 20339 H 1770.36 6.78762 0.214239 0
M  V30 20340 H 1768.31 6.12185 2.35722 0
M  V30 20341 H 1768.22 7.45539 1.25333 0
M  V30 20342 H 1769.49 7.40283 2.44133 0
M  V30 20343 N 1773.72 0.287581 1.54954 0
M  V30 20344 C 1774.97 -0.326093 2.00161 0
M  V30 20345 C 1775.3 -1.54564 1.17574 0
M  V30 20346 O 1774.57 -1.92901 0.248859 0
M  V30 20347 C 1774.86 -0.695974 3.5331 0
M  V30 20348 C 1774.71 0.531783 4.46645 0
M  V30 20349 C 1776.03 -1.52767 4.12735 0
M  V30 20350 H 1773.15 -0.117051 0.727646 0
M  V30 20351 H 1775.79 0.39701 1.85806 0
M  V30 20352 H 1773.94 -1.31205 3.65674 0
M  V30 20353 H 1775.61 1.17032 4.46208 0
M  V30 20354 H 1773.86 1.16754 4.17793 0
M  V30 20355 H 1774.53 0.229034 5.51525 0
M  V30 20356 H 1777 -1.00724 4.03725 0
M  V30 20357 H 1775.88 -1.75527 5.20078 0
M  V30 20358 H 1776.14 -2.51267 3.63755 0
M  V30 20359 N 1775.2 -1.57593 0.0150662 0
M  V30 20360 C 1776.61 -1.5591 -0.341189 0
M  V30 20361 C 1776.81 -1.01927 -1.73819 0
M  V30 20362 O 1775.87 -0.659752 -2.43728 0
M  V30 20363 C 1777.18 -3.00016 -0.202639 0
M  V30 20364 C 1778.73 -3.11777 -0.276457 0
M  V30 20365 C 1779.21 -4.57696 -0.166859 0
M  V30 20366 N 1780.7 -4.62657 -0.224287 0
M  V30 20367 C 1781.43 -5.73168 -0.163053 0
M  V30 20368 N 1780.93 -6.92781 -0.0515442 0
M  V30 20369 N 1782.72 -5.61685 -0.216018 0
M  V30 20370 H 1774.87 -1.91018 0.92876 0
M  V30 20371 H 1777.14 -0.878048 0.3574 0
M  V30 20372 H 1776.84 -3.43409 0.759136 0
M  V30 20373 H 1776.72 -3.64285 -0.978599 0
M  V30 20374 H 1779.1 -2.68305 -1.22868 0
M  V30 20375 H 1779.18 -2.50257 0.529637 0
M  V30 20376 H 1778.83 -5.01846 0.781888 0
M  V30 20377 H 1778.76 -5.17179 -0.991635 0
M  V30 20378 H 1781.25 -3.76617 -0.311188 0
M  V30 20379 H 1781.56 -7.72799 -0.0111287 0
M  V30 20380 H 1779.91 -6.94998 -0.0169584 0
M  V30 20381 H 1783.1 -4.67128 -0.301435 0
M  V30 20382 H 1783.27 -6.4779 -0.164834 0
M  V30 20383 N 1776.68 0.257904 -1.55475 0
M  V30 20384 C 1778.09 0.605871 -1.47653 0
M  V30 20385 C 1778.29 1.88837 -0.703063 0
M  V30 20386 O 1777.35 2.51469 -0.227981 0
M  V30 20387 C 1778.66 0.718813 -2.91982 0
M  V30 20388 C 1780.21 0.81187 -3.02287 0
M  V30 20389 C 1780.68 0.956465 -4.47901 0
M  V30 20390 N 1782.18 1.02161 -4.51793 0
M  V30 20391 C 1782.91 1.15256 -5.61697 0
M  V30 20392 N 1782.41 1.24975 -6.81435 0
M  V30 20393 N 1784.2 1.18485 -5.4947 0
M  V30 20394 H 1776.35 -0.584154 -2.04209 0
M  V30 20395 H 1778.61 -0.200045 -0.926653 0
M  V30 20396 H 1778.32 -0.15335 -3.51366 0
M  V30 20397 H 1778.19 1.59429 -3.41851 0
M  V30 20398 H 1780.58 1.67449 -2.42991 0
M  V30 20399 H 1780.66 -0.0885307 -2.55647 0
M  V30 20400 H 1780.31 0.0984438 -5.07805 0
M  V30 20401 H 1780.24 1.87174 -4.92213 0
M  V30 20402 H 1782.73 0.958295 -3.65548 0
M  V30 20403 H 1783.04 1.34843 -7.60945 0
M  V30 20404 H 1781.38 1.21952 -6.84217 0
M  V30 20405 H 1784.58 1.10534 -4.54863 0
M  V30 20406 H 1784.75 1.28346 -6.35162 0
M  V30 20407 N 1778.15 1.48666 0.52309 0
M  V30 20408 C 1779.4 1.57034 1.27854 0
M  V30 20409 C 1779.73 0.247256 1.92922 0
M  V30 20410 O 1778.98 -0.763049 1.80211 0
M  V30 20411 C 1779.28 2.66247 2.38426 0
M  V30 20412 C 1778.95 4.08464 1.90965 0
M  V30 20413 C 1777.61 4.47171 1.77739 0
M  V30 20414 C 1779.96 4.97562 1.55184 0
M  V30 20415 C 1777.29 5.72772 1.27077 0
M  V30 20416 C 1779.64 6.23659 1.05982 0
M  V30 20417 C 1778.31 6.61216 0.913782 0
M  V30 20418 H 1777.58 0.574628 0.46785 0
M  V30 20419 H 1780.22 1.82411 0.582961 0
M  V30 20420 H 1778.53 2.34756 3.13682 0
M  V30 20421 H 1780.23 2.69936 2.9654 0
M  V30 20422 H 1776.82 3.779 2.02212 0
M  V30 20423 H 1781 4.6833 1.64259 0
M  V30 20424 H 1776.26 6.0059 1.14464 0
M  V30 20425 H 1780.43 6.92089 0.773684 0
M  V30 20426 H 1778.06 7.58426 0.519021 0
M  V30 20427 N 1779.63 -0.772489 1.37369 0
M  V30 20428 C 1780.86 -1.55931 1.35532 0
M  V30 20429 C 1781.27 -1.891 -0.0614314 0
M  V30 20430 O 1780.61 -1.51876 -1.03342 0
M  V30 20431 C 1780.68 -2.89737 2.1282 0
M  V30 20432 C 1780.34 -2.79208 3.6179 0
M  V30 20433 C 1781.34 -2.50289 4.55688 0
M  V30 20434 C 1779.02 -2.97253 4.04902 0
M  V30 20435 C 1781.02 -2.39542 5.90676 0
M  V30 20436 C 1778.7 -2.86127 5.39976 0
M  V30 20437 C 1779.7 -2.57311 6.32677 0
M  V30 20438 O 1779.39 -2.4621 7.65269 0
M  V30 20439 H 1779.12 -0.489744 0.465968 0
M  V30 20440 H 1781.67 -0.965344 1.81302 0
M  V30 20441 H 1779.9 -3.51251 1.6174 0
M  V30 20442 H 1781.59 -3.51128 2.03627 0
M  V30 20443 H 1782.36 -2.36034 4.2369 0
M  V30 20444 H 1778.24 -3.18684 3.33109 0
M  V30 20445 H 1781.78 -2.16971 6.63 0
M  V30 20446 H 1777.68 -2.9995 5.71577 0
M  V30 20447 H 1778.45 -2.61564 7.75581 0
M  V30 20448 N 1781.11 -1.21927 -0.998575 0
M  V30 20449 C 1782.36 -1.03834 -1.73386 0
M  V30 20450 C 1782.68 0.428247 -1.90239 0
M  V30 20451 O 1781.95 1.30847 -1.45794 0
M  V30 20452 H 1780.53 -0.381225 -0.642399 0
M  V30 20453 H 1783.19 -1.53344 -1.20298 0
M  V30 20454 H 1782.29 -1.51155 -2.73054 0
M  V30 20455 N 1782.59 1.19452 -1.02805 0
M  V30 20456 C 1783.81 1.93616 -0.743485 0
M  V30 20457 C 1784.24 1.74934 0.691342 0
M  V30 20458 O 1783.6 1.05111 1.47721 0
M  V30 20459 C 1783.64 3.43451 -1.0988 0
M  V30 20460 O 1782.75 4.11829 -0.216978 0
M  V30 20461 H 1782.09 0.60448 -0.274771 0
M  V30 20462 H 1784.62 1.51554 -1.37451 0
M  V30 20463 H 1784.63 3.94115 -1.05535 0
M  V30 20464 H 1783.3 3.5637 -2.14413 0
M  V30 20465 H 1781.88 3.71533 -0.318954 0
M  V30 20466 N 1784.07 0.805805 1.35442 0
M  V30 20467 C 1785.03 0.221278 2.28129 0
M  V30 20468 C 1786.03 -0.590919 1.49549 0
M  V30 20469 O 1787.22 -0.409518 1.69318 0
M  V30 20470 C 1784.35 -0.691643 3.3381 0
M  V30 20471 H 1785.54 1.03875 2.81336 0
M  V30 20472 H 1783.1 0.5764 1.45284 0
M  V30 20473 H 1783.83 -1.53283 2.85788 0
M  V30 20474 H 1783.62 -0.110972 3.91943 0
M  V30 20475 H 1785.11 -1.09497 4.02989 0
M  V30 20476 N 1785.54 -1.47344 0.559239 0
M  V30 20477 C 1786.49 -2.30039 -0.187317 0
M  V30 20478 C 1787.46 -1.39186 -0.906443 0
M  V30 20479 O 1788.65 -1.68147 -0.901739 0
M  V30 20480 C 1785.79 -3.2319 -1.21004 0
M  V30 20481 C 1784.9 -4.29134 -0.496776 0
M  V30 20482 C 1784.03 -5.09435 -1.50497 0
M  V30 20483 C 1783.07 -6.07151 -0.776794 0
M  V30 20484 N 1782.21 -6.80404 -1.73192 0
M  V30 20485 H 1787.05 -2.93357 0.523978 0
M  V30 20486 H 1784.59 -1.44597 0.270225 0
M  V30 20487 H 1786.55 -3.75621 -1.81561 0
M  V30 20488 H 1785.18 -2.61732 -1.88935 0
M  V30 20489 H 1784.23 -3.79744 0.223359 0
M  V30 20490 H 1785.54 -4.98746 0.0735731 0
M  V30 20491 H 1784.69 -5.66026 -2.18402 0
M  V30 20492 H 1783.43 -4.3973 -2.10924 0
M  V30 20493 H 1782.44 -5.49736 -0.0838382 0
M  V30 20494 H 1783.66 -6.78866 -0.178239 0
M  V30 20495 H 1781.61 -6.13427 -2.32472 0
M  V30 20496 H 1781.53 -7.46193 -1.21377 0
M  V30 20497 H 1782.79 -7.41567 -2.40204 0
M  V30 20498 N 1787.02 -0.295795 -1.54799 0
M  V30 20499 C 1787.97 0.582614 -2.23325 0
M  V30 20500 C 1788.94 1.13365 -1.21398 0
M  V30 20501 O 1790.12 1.17914 -1.50003 0
M  V30 20502 C 1787.26 1.75112 -2.97371 0
M  V30 20503 C 1786.38 1.23197 -4.14061 0
M  V30 20504 C 1785.51 2.36393 -4.75701 0
M  V30 20505 C 1784.55 1.81585 -5.84545 0
M  V30 20506 N 1783.69 2.88334 -6.40162 0
M  V30 20507 H 1788.53 -0.00836451 -2.97999 0
M  V30 20508 H 1786.07 -0.0158966 -1.47091 0
M  V30 20509 H 1788.02 2.4383 -3.38531 0
M  V30 20510 H 1786.65 2.31381 -2.25084 0
M  V30 20511 H 1785.71 0.437226 -3.77879 0
M  V30 20512 H 1787.02 0.790706 -4.92493 0
M  V30 20513 H 1786.17 3.13067 -5.19687 0
M  V30 20514 H 1784.91 2.83844 -3.9659 0
M  V30 20515 H 1783.92 1.03399 -5.3999 0
M  V30 20516 H 1785.14 1.35045 -6.65537 0
M  V30 20517 H 1783.09 3.35129 -5.63937 0
M  V30 20518 H 1783 2.48687 -7.13926 0
M  V30 20519 H 1784.27 3.64921 -6.88805 0
M  V30 20520 N 1788.5 1.57583 -0.0234236 0
M  V30 20521 C 1789.45 2.09872 0.960327 0
M  V30 20522 C 1790.42 0.999466 1.32665 0
M  V30 20523 O 1791.6 1.27332 1.42095 0
M  V30 20524 C 1788.74 2.62578 2.23935 0
M  V30 20525 C 1787.86 3.86491 1.92999 0
M  V30 20526 C 1786.99 4.27611 3.15154 0
M  V30 20527 C 1786.03 5.44298 2.80011 0
M  V30 20528 N 1785.17 5.80601 3.94775 0
M  V30 20529 H 1790.01 2.93647 0.507502 0
M  V30 20530 H 1787.54 1.45147 0.238911 0
M  V30 20531 H 1789.5 2.91223 2.98739 0
M  V30 20532 H 1788.13 1.81643 2.66844 0
M  V30 20533 H 1787.18 3.6461 1.08462 0
M  V30 20534 H 1788.5 4.71377 1.63112 0
M  V30 20535 H 1787.65 4.57663 3.98284 0
M  V30 20536 H 1786.39 3.41481 3.48198 0
M  V30 20537 H 1785.39 5.13946 1.95293 0
M  V30 20538 H 1786.62 6.32122 2.4819 0
M  V30 20539 H 1784.57 4.97427 4.27671 0
M  V30 20540 H 1784.48 6.60113 3.68492 0
M  V30 20541 H 1785.75 6.15255 4.78624 0
M  V30 20542 N 1789.98 -0.249655 1.5561 0
M  V30 20543 C 1790.91 -1.33534 1.85051 0
M  V30 20544 C 1791.89 -1.46503 0.705373 0
M  V30 20545 O 1793.07 -1.62761 0.950841 0
M  V30 20546 C 1790.2 -2.70916 2.03278 0
M  V30 20547 C 1789.25 -2.75111 3.25908 0
M  V30 20548 S 1790.08 -2.31998 4.82636 0
M  V30 20549 C 1791.24 -3.7131 5.03865 0
M  V30 20550 H 1791.47 -1.08362 2.76848 0
M  V30 20551 H 1789 -0.450498 1.47682 0
M  V30 20552 H 1790.96 -3.50022 2.14464 0
M  V30 20553 H 1789.62 -2.93328 1.12328 0
M  V30 20554 H 1788.81 -3.75999 3.3562 0
M  V30 20555 H 1788.42 -2.04047 3.13434 0
M  V30 20556 H 1790.71 -4.66784 4.91039 0
M  V30 20557 H 1791.65 -3.66535 6.05853 0
M  V30 20558 H 1792.06 -3.63696 4.31724 0
M  V30 20559 N 1791.46 -1.48941 -0.515198 0
M  V30 20560 C 1792.39 -1.67466 -1.62719 0
M  V30 20561 C 1793.37 -0.523393 -1.61847 0
M  V30 20562 O 1794.55 -0.757631 -1.78812 0
M  V30 20563 C 1791.68 -1.72799 -3.0126 0
M  V30 20564 C 1790.64 -2.87574 -3.16994 0
M  V30 20565 C 1789.96 -2.78008 -4.56745 0
M  V30 20566 C 1791.26 -4.28693 -2.98362 0
M  V30 20567 H 1792.96 -2.60562 -1.47471 0
M  V30 20568 H 1790.5 -1.25391 -0.708027 0
M  V30 20569 H 1792.46 -1.84346 -3.78939 0
M  V30 20570 H 1791.18 -0.762918 -3.17564 0
M  V30 20571 H 1789.84 -2.75606 -2.41737 0
M  V30 20572 H 1789.49 -1.79438 -4.69905 0
M  V30 20573 H 1789.19 -3.55033 -4.68215 0
M  V30 20574 H 1790.71 -2.91543 -5.36503 0
M  V30 20575 H 1792.13 -4.41416 -3.65821 0
M  V30 20576 H 1790.52 -5.0683 -3.21315 0
M  V30 20577 H 1791.59 -4.44125 -1.9463 0
M  V30 20578 N 1792.94 0.765193 -1.37777 0
M  V30 20579 C 1793.87 1.89247 -1.36777 0
M  V30 20580 C 1794.85 1.68463 -0.235389 0
M  V30 20581 O 1796.03 1.89225 -0.436733 0
M  V30 20582 C 1793.16 3.2662 -1.18053 0
M  V30 20583 C 1792.12 3.61981 -2.28372 0
M  V30 20584 C 1791.44 4.97967 -1.94765 0
M  V30 20585 C 1792.74 3.68053 -3.70587 0
M  V30 20586 H 1794.44 1.90341 -2.31108 0
M  V30 20587 H 1791.98 0.914355 -1.11245 0
M  V30 20588 H 1793.93 4.05125 -1.15982 0
M  V30 20589 H 1792.66 3.25976 -0.201803 0
M  V30 20590 H 1791.32 2.85788 -2.2961 0
M  V30 20591 H 1790.97 4.93869 -0.954052 0
M  V30 20592 H 1790.67 5.22594 -2.68642 0
M  V30 20593 H 1792.19 5.78864 -1.94292 0
M  V30 20594 H 1793.6 4.36696 -3.71443 0
M  V30 20595 H 1792 4.04183 -4.43572 0
M  V30 20596 H 1793.07 2.68556 -4.03739 0
M  V30 20597 N 1794.41 1.22455 0.992094 0
M  V30 20598 C 1795.66 1.04752 1.72833 0
M  V30 20599 C 1795.98 -0.418152 1.90464 0
M  V30 20600 O 1795.25 -1.30072 1.46486 0
M  V30 20601 H 1793.83 0.384626 0.640368 0
M  V30 20602 H 1796.49 1.5398 1.19483 0
M  V30 20603 H 1795.59 1.52601 2.72249 0
M  V30 20604 N 1795.89 -1.18905 1.03437 0
M  V30 20605 C 1797.14 -1.88727 0.734048 0
M  V30 20606 C 1797.47 -1.79964 -0.737773 0
M  V30 20607 O 1796.72 -1.19016 -1.5535 0
M  V30 20608 C 1797.02 -3.38811 1.13762 0
M  V30 20609 C 1796.69 -3.67777 2.60865 0
M  V30 20610 C 1795.35 -3.75393 3.01054 0
M  V30 20611 C 1797.7 -3.80666 3.5601 0
M  V30 20612 C 1795.03 -3.9337 4.35289 0
M  V30 20613 C 1797.38 -4.00158 4.89955 0
M  V30 20614 C 1796.04 -4.06007 5.29825 0
M  V30 20615 H 1795.31 -0.690602 0.268607 0
M  V30 20616 H 1797.96 -1.40777 1.29823 0
M  V30 20617 H 1796.27 -3.88697 0.492134 0
M  V30 20618 H 1797.96 -3.91164 0.882696 0
M  V30 20619 H 1794.55 -3.62462 2.28733 0
M  V30 20620 H 1798.74 -3.7412 3.2611 0
M  V30 20621 H 1793.99 -3.9614 4.65707 0
M  V30 20622 H 1798.17 -4.09073 5.63589 0
M  V30 20623 H 1795.79 -4.1969 6.33849 0
M  V30 20624 N 1797.37 -0.812977 -1.35013 0
M  V30 20625 C 1798.62 -0.395562 -1.98191 0
M  V30 20626 C 1798.94 1.04242 -1.64799 0
M  V30 20627 O 1798.21 1.72219 -0.933678 0
M  V30 20628 H 1796.79 -0.143276 -0.733131 0
M  V30 20629 H 1799.45 -1.04023 -1.64819 0
M  V30 20630 H 1798.55 -0.506466 -3.07963 0
M  V30 20631 N 1798.85 1.47045 -0.567045 0
M  V30 20632 C 1799.79 2.30135 0.175115 0
M  V30 20633 C 1800.76 1.39665 0.899049 0
M  V30 20634 O 1801.95 1.68623 0.892809 0
M  V30 20635 C 1799.09 3.23827 1.19289 0
M  V30 20636 C 1798.2 4.29392 0.474011 0
M  V30 20637 C 1797.34 5.10226 1.47793 0
M  V30 20638 C 1796.38 6.07554 0.744584 0
M  V30 20639 N 1795.51 6.81313 1.69581 0
M  V30 20640 H 1800.35 2.93075 -0.539529 0
M  V30 20641 H 1797.89 1.44451 -0.277889 0
M  V30 20642 H 1799.85 3.76579 1.79567 0
M  V30 20643 H 1798.48 2.6273 1.87544 0
M  V30 20644 H 1797.53 3.7962 -0.243494 0
M  V30 20645 H 1798.84 4.987 -0.100022 0
M  V30 20646 H 1798 5.67176 2.15397 0
M  V30 20647 H 1796.74 4.40842 2.08589 0
M  V30 20648 H 1795.74 5.49773 0.0546832 0
M  V30 20649 H 1796.97 6.78951 0.142235 0
M  V30 20650 H 1794.91 6.14651 2.29216 0
M  V30 20651 H 1794.83 7.46826 1.17418 0
M  V30 20652 H 1796.1 7.42831 2.36268 0
M  V30 20653 N 1800.33 0.304 1.5464 0
M  V30 20654 C 1801.27 -0.570762 2.23631 0
M  V30 20655 C 1802.24 -1.1272 1.21998 0
M  V30 20656 O 1803.43 -1.17117 1.50626 0
M  V30 20657 C 1800.57 -1.73533 2.98296 0
M  V30 20658 C 1799.68 -1.21 4.14708 0
M  V30 20659 C 1798.82 -2.33867 4.76948 0
M  V30 20660 C 1797.85 -1.78483 5.855 0
M  V30 20661 N 1796.99 -2.84935 6.41682 0
M  V30 20662 H 1801.83 0.024168 2.9799 0
M  V30 20663 H 1799.37 0.023697 1.47081 0
M  V30 20664 H 1801.33 -2.42031 3.39819 0
M  V30 20665 H 1799.96 -2.30184 2.26308 0
M  V30 20666 H 1799.01 -0.41718 3.78105 0
M  V30 20667 H 1800.32 -0.764576 4.92905 0
M  V30 20668 H 1799.47 -3.10306 5.21339 0
M  V30 20669 H 1798.21 -2.81737 3.9809 0
M  V30 20670 H 1797.22 -1.00534 5.4053 0
M  V30 20671 H 1798.44 -1.31513 6.66244 0
M  V30 20672 H 1796.39 -3.32133 5.65706 0
M  V30 20673 H 1796.31 -2.44898 7.15235 0
M  V30 20674 H 1797.57 -3.61263 6.90731 0
M  V30 20675 N 1801.8 -1.57568 0.0317802 0
M  V30 20676 C 1803.05 -1.9191 -0.646281 0
M  V30 20677 C 1803.38 -0.908432 -1.71982 0
M  V30 20678 O 1802.63 0.0822426 -1.95527 0
M  V30 20679 C 1802.93 -3.32976 -1.29852 0
M  V30 20680 C 1802.6 -4.495 -0.355092 0
M  V30 20681 C 1801.26 -4.81105 -0.0954326 0
M  V30 20682 C 1803.61 -5.20378 0.292586 0
M  V30 20683 C 1800.94 -5.80946 0.819667 0
M  V30 20684 C 1803.29 -6.21196 1.19576 0
M  V30 20685 C 1801.96 -6.51241 1.46428 0
M  V30 20686 H 1801.23 -0.702249 -0.236491 0
M  V30 20687 H 1803.87 -1.91269 0.0941159 0
M  V30 20688 H 1802.18 -3.29892 -2.11373 0
M  V30 20689 H 1803.88 -3.5682 -1.82977 0
M  V30 20690 H 1800.47 -4.24824 -0.567652 0
M  V30 20691 H 1804.65 -4.96189 0.105041 0
M  V30 20692 H 1799.91 -6.02569 1.03538 0
M  V30 20693 H 1804.08 -6.75236 1.7038 0
M  V30 20694 H 1801.71 -7.28421 2.17502 0
M  V30 20695 N 1803.28 0.241399 -1.5574 0
M  V30 20696 C 1804.23 1.29896 -1.90777 0
M  V30 20697 C 1805.2 1.47558 -0.76262 0
M  V30 20698 O 1806.38 1.61451 -1.01677 0
M  V30 20699 C 1803.52 2.6483 -2.21267 0
M  V30 20700 C 1802.64 2.5513 -3.48615 0
M  V30 20701 C 1801.77 3.82455 -3.68649 0
M  V30 20702 C 1800.81 3.67395 -4.89579 0
M  V30 20703 N 1799.95 4.86624 -5.06105 0
M  V30 20704 H 1804.79 0.993166 -2.80963 0
M  V30 20705 H 1802.33 0.47914 -1.39078 0
M  V30 20706 H 1804.28 3.4338 -2.36951 0
M  V30 20707 H 1802.91 2.93546 -1.34278 0
M  V30 20708 H 1801.97 1.6812 -3.41233 0
M  V30 20709 H 1803.28 2.39915 -4.37312 0
M  V30 20710 H 1802.43 4.69449 -3.84321 0
M  V30 20711 H 1801.17 4.00573 -2.78195 0
M  V30 20712 H 1800.18 2.78785 -4.73877 0
M  V30 20713 H 1801.4 3.50766 -5.81498 0
M  V30 20714 H 1799.35 5.05093 -4.18589 0
M  V30 20715 H 1799.26 4.7406 -5.889 0
M  V30 20716 H 1800.53 5.751 -5.26194 0
M  V30 20717 N 1804.76 1.49212 0.507292 0
M  V30 20718 C 1806.01 1.58068 1.25932 0
M  V30 20719 C 1806.33 0.266461 1.93171 0
M  V30 20720 O 1805.6 -0.713743 1.82435 0
M  V30 20721 H 1804.18 0.582384 0.467801 0
M  V30 20722 H 1806.84 1.85804 0.58847 0
M  V30 20723 H 1805.94 2.37351 2.0266 0
M  V30 20724 N 1806.24 -0.757876 1.38181 0
M  V30 20725 C 1807.48 -1.51912 1.34352 0
M  V30 20726 C 1807.82 -1.94082 -0.0677003 0
M  V30 20727 O 1807.09 -1.65114 -1.02799 0
M  V30 20728 C 1807.38 -2.77466 2.29531 0
M  V30 20729 C 1807.23 -2.41462 3.79495 0
M  V30 20730 C 1808.55 -3.79469 2.22915 0
M  V30 20731 H 1805.67 -0.551091 0.489355 0
M  V30 20732 H 1808.31 -0.868376 1.68995 0
M  V30 20733 H 1806.46 -3.32994 2.00119 0
M  V30 20734 H 1808.13 -1.91742 4.19562 0
M  V30 20735 H 1806.37 -1.73976 3.97385 0
M  V30 20736 H 1807.04 -3.31272 4.41546 0
M  V30 20737 H 1809.52 -3.33471 2.48871 0
M  V30 20738 H 1808.4 -4.6502 2.91629 0
M  V30 20739 H 1808.66 -4.24744 1.22658 0
M  V30 20740 N 1807.72 -1.22979 -0.985586 0
M  V30 20741 C 1809.13 -0.991329 -1.25079 0
M  V30 20742 C 1809.33 0.310701 -1.9909 0
M  V30 20743 O 1808.39 1.03147 -2.30471 0
M  V30 20744 C 1809.7 -2.19483 -2.05542 0
M  V30 20745 C 1811.25 -2.23918 -2.187 0
M  V30 20746 C 1811.72 -3.43841 -3.02552 0
M  V30 20747 N 1813.22 -3.44048 -3.10137 0
M  V30 20748 C 1813.95 -4.33493 -3.75328 0
M  V30 20749 N 1813.45 -5.33167 -4.42385 0
M  V30 20750 N 1815.24 -4.2125 -3.72163 0
M  V30 20751 H 1807.39 -2.0668 -0.489617 0
M  V30 20752 H 1809.65 -0.906048 -0.278892 0
M  V30 20753 H 1809.36 -3.13945 -1.5853 0
M  V30 20754 H 1809.23 -2.20144 -3.06295 0
M  V30 20755 H 1811.62 -1.3 -2.64923 0
M  V30 20756 H 1811.7 -2.27293 -1.17353 0
M  V30 20757 H 1811.35 -4.38063 -2.57027 0
M  V30 20758 H 1811.28 -3.37707 -4.04056 0
M  V30 20759 H 1813.77 -2.71927 -2.6242 0
M  V30 20760 H 1814.08 -5.97684 -4.89892 0
M  V30 20761 H 1812.42 -5.37073 -4.4111 0
M  V30 20762 H 1815.62 -3.42629 -3.18941 0
M  V30 20763 H 1815.79 -4.91162 -4.22687 0
M  V30 20764 N 1809.19 1.18355 -1.04066 0
M  V30 20765 C 1810.44 1.88335 -0.744046 0
M  V30 20766 C 1810.77 1.80353 0.728219 0
M  V30 20767 O 1810.02 1.19839 1.54717 0
M  V30 20768 C 1810.32 3.38203 -1.15557 0
M  V30 20769 C 1809.99 3.66389 -2.62812 0
M  V30 20770 C 1808.65 3.73791 -3.03041 0
M  V30 20771 C 1811 3.78773 -3.58023 0
M  V30 20772 C 1808.33 3.91056 -4.37369 0
M  V30 20773 C 1810.68 3.97554 -4.92071 0
M  V30 20774 C 1809.35 4.03192 -5.3197 0
M  V30 20775 H 1808.62 0.689168 -0.272266 0
M  V30 20776 H 1811.26 1.40087 -1.30568 0
M  V30 20777 H 1809.57 3.8843 -0.512741 0
M  V30 20778 H 1811.27 3.90691 -0.903428 0
M  V30 20779 H 1807.86 3.61244 -2.30652 0
M  V30 20780 H 1812.04 3.72386 -3.28089 0
M  V30 20781 H 1807.3 3.93665 -4.67801 0
M  V30 20782 H 1811.47 4.06078 -5.65751 0
M  V30 20783 H 1809.1 4.16323 -6.36066 0
M  V30 20784 N 1810.67 0.820125 1.3458 0
M  V30 20785 C 1811.6 0.254709 2.32107 0
M  V30 20786 C 1812.58 -0.6273 1.58111 0
M  V30 20787 O 1813.77 -0.554759 1.86108 0
M  V30 20788 C 1810.9 -0.586541 3.42311 0
M  V30 20789 C 1809.85 0.198096 4.27541 0
M  V30 20790 C 1809.18 -0.765718 5.29189 0
M  V30 20791 C 1810.48 1.40472 5.03056 0
M  V30 20792 H 1812.17 1.06955 2.79644 0
M  V30 20793 H 1809.72 0.515756 1.34447 0
M  V30 20794 H 1811.67 -0.992259 4.09551 0
M  V30 20795 H 1810.4 -1.4344 2.93415 0
M  V30 20796 H 1809.05 0.585149 3.619 0
M  V30 20797 H 1808.7 -1.60946 4.76556 0
M  V30 20798 H 1808.4 -0.244954 5.87089 0
M  V30 20799 H 1809.93 -1.16935 5.99298 0
M  V30 20800 H 1811.34 1.07316 5.63166 0
M  V30 20801 H 1809.74 1.86092 5.70517 0
M  V30 20802 H 1810.81 2.18437 4.32913 0
M  V30 20803 N 1812.15 -1.46743 0.574835 0
M  V30 20804 C 1813.1 -2.31935 -0.175778 0
M  V30 20805 C 1814.09 -1.44005 -0.892128 0
M  V30 20806 O 1815.3 -1.60674 -0.81141 0
M  V30 20807 H 1811.67 -0.748195 -0.0755558 0
M  V30 20808 H 1813.64 -2.93066 0.561671 0
M  V30 20809 C 1812.39 -3.27018 -1.18128 0
M  V30 20810 H 1811.72 -3.94652 -0.639492 0
M  V30 20811 H 1813.16 -3.89424 -1.67704 0
M  V30 20812 C 1811.62 -2.51802 -2.23824 0
M  V30 20813 O 1812.15 -2.2753 -3.31048 0
M  V30 20814 N 1810.35 -2.12501 -1.98221 0
M  V30 20815 H 1809.9 -2.32441 -1.11035 0
M  V30 20816 H 1809.86 -1.62494 -2.69153 0
M  V30 20817 N 1813.63 -0.312197 -1.54477 0
M  V30 20818 C 1814.88 0.294607 -1.99537 0
M  V30 20819 C 1815.19 1.54137 -1.20421 0
M  V30 20820 O 1816.4 2.22346 -1.55803 0
M  V30 20821 C 1814.85 0.57547 -3.55269 0
M  V30 20822 C 1814.46 -0.653591 -4.43207 0
M  V30 20823 C 1816.2 1.14285 -4.08827 0
M  V30 20824 C 1814.11 -0.345261 -5.90391 0
M  V30 20825 H 1813.04 0.113859 -0.745354 0
M  V30 20826 H 1815.69 -0.42265 -1.78566 0
M  V30 20827 H 1814.07 1.35262 -3.72183 0
M  V30 20828 H 1815.25 -1.42945 -4.38068 0
M  V30 20829 H 1813.56 -1.14039 -4.0048 0
M  V30 20830 H 1816.16 1.38797 -5.16371 0
M  V30 20831 H 1816.5 2.08866 -3.60112 0
M  V30 20832 H 1817.04 0.427154 -3.955 0
M  V30 20833 H 1813.78 -1.25994 -6.43277 0
M  V30 20834 H 1813.3 0.393106 -5.9851 0
M  V30 20835 H 1814.97 0.0490847 -6.46981 0
M  V30 20836 N 1815.11 1.57549 -0.040136 0
M  V30 20837 C 1816.04 2.13912 0.936168 0
M  V30 20838 C 1817.02 1.05798 1.33194 0
M  V30 20839 O 1818.2 1.33685 1.40861 0
M  V30 20840 C 1815.33 2.67515 2.21479 0
M  V30 20841 C 1814.29 3.80513 1.95943 0
M  V30 20842 C 1813.61 4.20589 3.30165 0
M  V30 20843 C 1814.91 5.06124 1.28981 0
M  V30 20844 H 1816.61 2.9574 0.46674 0
M  V30 20845 H 1814.15 1.42262 0.223062 0
M  V30 20846 H 1816.11 3.05582 2.90168 0
M  V30 20847 H 1814.83 1.82864 2.70608 0
M  V30 20848 H 1813.49 3.42902 1.29669 0
M  V30 20849 H 1813.14 3.32904 3.77073 0
M  V30 20850 H 1812.84 4.96742 3.13881 0
M  V30 20851 H 1814.36 4.61248 4.00103 0
M  V30 20852 H 1815.77 5.41707 1.87687 0
M  V30 20853 H 1814.17 5.87347 1.2306 0
M  V30 20854 H 1815.24 4.84179 0.264286 0
M  V30 20855 N 1816.58 -0.233136 1.55866 0
M  V30 20856 C 1818 -0.582304 1.48598 0
M  V30 20857 C 1818.2 -1.87694 0.733016 0
M  V30 20858 O 1817.26 -2.51074 0.267959 0
M  V30 20859 C 1818.57 -0.67227 2.93089 0
M  V30 20860 C 1820.12 -0.763676 3.03541 0
M  V30 20861 C 1820.59 -0.885087 4.49366 0
M  V30 20862 N 1822.08 -0.949606 4.53362 0
M  V30 20863 C 1822.82 -1.06306 5.6346 0
M  V30 20864 N 1822.31 -1.14118 6.83337 0
M  V30 20865 N 1824.11 -1.09729 5.51286 0
M  V30 20866 H 1816.26 0.616568 2.03254 0
M  V30 20867 H 1818.52 0.214762 0.923353 0
M  V30 20868 H 1818.23 0.20923 3.51077 0
M  V30 20869 H 1818.1 -1.5397 3.44344 0
M  V30 20870 H 1820.49 -1.63562 2.45625 0
M  V30 20871 H 1820.57 0.129191 2.55474 0
M  V30 20872 H 1820.21 -0.017644 5.07897 0
M  V30 20873 H 1820.14 -1.7932 4.95128 0
M  V30 20874 H 1822.63 -0.900018 3.67026 0
M  V30 20875 H 1822.95 -1.2272 7.62994 0
M  V30 20876 H 1821.29 -1.11051 6.8607 0
M  V30 20877 H 1824.48 -1.03283 4.56563 0
M  V30 20878 H 1824.66 -1.18225 6.37124 0
M  V30 20879 N 1818.06 -1.49479 -0.499372 0
M  V30 20880 C 1819.29 -1.62524 -1.27552 0
M  V30 20881 C 1819.7 -0.296533 -1.86862 0
M  V30 20882 O 1819.04 0.728236 -1.68649 0
M  V30 20883 C 1819.11 -2.63674 -2.44369 0
M  V30 20884 C 1818.77 -4.0798 -2.05916 0
M  V30 20885 C 1819.77 -4.94733 -1.59797 0
M  V30 20886 C 1817.45 -4.53723 -2.15501 0
M  V30 20887 C 1819.45 -6.25268 -1.23768 0
M  V30 20888 C 1817.13 -5.84271 -1.79084 0
M  V30 20889 C 1818.13 -6.69867 -1.33292 0
M  V30 20890 O 1817.82 -7.97982 -0.97368 0
M  V30 20891 H 1817.55 -0.550018 -0.393009 0
M  V30 20892 H 1820.11 -1.96261 -0.605856 0
M  V30 20893 H 1818.34 -2.2512 -3.14417 0
M  V30 20894 H 1820.02 -2.66231 -3.06392 0
M  V30 20895 H 1820.79 -4.6062 -1.51836 0
M  V30 20896 H 1816.67 -3.87264 -2.50095 0
M  V30 20897 H 1820.21 -6.92033 -0.879542 0
M  V30 20898 H 1816.11 -6.17912 -1.86695 0
M  V30 20899 H 1816.88 -8.11007 -1.10501 0
M  V30 20900 N 1819.54 0.750537 -1.38581 0
M  V30 20901 C 1820.77 1.53978 -1.38196 0
M  V30 20902 C 1821.18 1.8878 0.0274976 0
M  V30 20903 O 1820.54 1.52997 0.994894 0
M  V30 20904 C 1820.59 2.83702 -2.24043 0
M  V30 20905 O 1820.31 2.50384 -3.59499 0
M  V30 20906 C 1821.81 3.77823 -2.31872 0
M  V30 20907 H 1819.03 0.476345 -0.472585 0
M  V30 20908 H 1821.58 0.928634 -1.82199 0
M  V30 20909 H 1819.73 3.41187 -1.83494 0
M  V30 20910 H 1820.15 3.33605 -4.04732 0
M  V30 20911 H 1821.62 4.65788 -2.96218 0
M  V30 20912 H 1822.1 4.18474 -1.33327 0
M  V30 20913 H 1822.7 3.26262 -2.72824 0
M  V30 20914 N 1821.02 1.235 0.979051 0
M  V30 20915 C 1822.44 0.997948 1.24552 0
M  V30 20916 C 1822.64 -0.300139 1.99252 0
M  V30 20917 O 1821.69 -1.01923 2.31015 0
M  V30 20918 C 1823 2.2057 2.04375 0
M  V30 20919 C 1824.55 2.25075 2.17509 0
M  V30 20920 C 1825.03 3.45441 3.00724 0
M  V30 20921 N 1826.52 3.45688 3.08308 0
M  V30 20922 C 1827.25 4.35478 3.73024 0
M  V30 20923 N 1826.75 5.35506 4.39551 0
M  V30 20924 N 1828.54 4.23218 3.69923 0
M  V30 20925 H 1820.69 2.06936 0.478649 0
M  V30 20926 H 1822.96 0.907514 0.274083 0
M  V30 20927 H 1822.66 3.14781 1.56863 0
M  V30 20928 H 1822.54 2.21765 3.05123 0
M  V30 20929 H 1824.92 1.31403 2.64229 0
M  V30 20930 H 1825 2.27912 1.16146 0
M  V30 20931 H 1824.65 4.3942 2.547 0
M  V30 20932 H 1824.58 3.39845 4.0226 0
M  V30 20933 H 1827.07 2.73315 2.60974 0
M  V30 20934 H 1827.38 6.00274 4.86715 0
M  V30 20935 H 1825.73 5.39404 4.38256 0
M  V30 20936 H 1828.92 3.44315 3.17119 0
M  V30 20937 H 1829.09 4.93396 4.20076 0
M  V30 20938 N 1822.5 -1.17802 1.04693 0
M  V30 20939 C 1823.74 -1.87938 0.754024 0
M  V30 20940 C 1824.07 -1.80737 -0.718644 0
M  V30 20941 O 1823.33 -1.20657 -1.54079 0
M  V30 20942 C 1823.63 -3.37585 1.17349 0
M  V30 20943 C 1823.29 -3.6499 2.64751 0
M  V30 20944 C 1821.95 -3.72179 3.05019 0
M  V30 20945 C 1824.31 -3.76869 3.60027 0
M  V30 20946 C 1821.63 -3.88731 4.39437 0
M  V30 20947 C 1823.99 -3.94939 4.94172 0
M  V30 20948 C 1822.65 -4.00365 5.34101 0
M  V30 20949 H 1821.92 -0.687714 0.275917 0
M  V30 20950 H 1824.57 -1.39392 1.31309 0
M  V30 20951 H 1822.87 -3.88153 0.533333 0
M  V30 20952 H 1824.57 -3.90206 0.924134 0
M  V30 20953 H 1821.16 -3.60016 2.32565 0
M  V30 20954 H 1825.34 -3.70641 3.30059 0
M  V30 20955 H 1820.6 -3.91179 4.69882 0
M  V30 20956 H 1824.77 -4.03072 5.67896 0
M  V30 20957 H 1822.4 -4.12944 6.38264 0
M  V30 20958 N 1823.98 -0.827251 -1.34143 0
M  V30 20959 C 1825.22 -0.417385 -1.98152 0
M  V30 20960 C 1825.55 1.0206 -1.65572 0
M  V30 20961 O 1824.81 1.72636 -0.921706 0
M  V30 20962 C 1825.1 -0.571534 -3.52801 0
M  V30 20963 C 1824.77 -1.97588 -4.05302 0
M  V30 20964 C 1823.43 -2.36004 -4.19352 0
M  V30 20965 C 1825.78 -2.89371 -4.33491 0
M  V30 20966 C 1823.11 -3.65529 -4.58918 0
M  V30 20967 C 1825.46 -4.18364 -4.74504 0
M  V30 20968 C 1824.13 -4.56751 -4.86759 0
M  V30 20969 H 1823.4 -0.152732 -0.725089 0
M  V30 20970 H 1826.05 -1.05203 -1.60014 0
M  V30 20971 H 1824.35 0.146483 -3.91526 0
M  V30 20972 H 1826.05 -0.234868 -4.00312 0
M  V30 20973 H 1822.64 -1.66748 -3.94833 0
M  V30 20974 H 1826.82 -2.60933 -4.2217 0
M  V30 20975 H 1822.08 -3.95091 -4.66597 0
M  V30 20976 H 1826.25 -4.89568 -4.95274 0
M  V30 20977 H 1823.88 -5.57166 -5.17175 0
M  V30 20978 N 1825.45 1.46436 -0.582609 0
M  V30 20979 C 1826.36 2.34099 0.153178 0
M  V30 20980 C 1827.38 1.49745 0.886135 0
M  V30 20981 O 1828.56 1.82615 0.849341 0
M  V30 20982 C 1825.62 3.26929 1.15404 0
M  V30 20983 C 1824.68 4.27183 0.425764 0
M  V30 20984 C 1823.91 5.15578 1.37895 0
M  V30 20985 O 1824.14 5.06903 2.61545 0
M  V30 20986 O 1823.07 5.9529 0.889585 0
M  V30 20987 H 1826.9 2.98368 -0.566585 0
M  V30 20988 H 1824.48 1.45409 -0.343013 0
M  V30 20989 H 1826.36 3.842 1.73114 0
M  V30 20990 H 1825.04 2.65257 1.85527 0
M  V30 20991 H 1823.95 3.73601 -0.193175 0
M  V30 20992 H 1825.28 4.91641 -0.234496 0
M  V30 20993 N 1826.93 0.320385 1.54309 0
M  V30 20994 C 1828.18 -0.284021 1.9969 0
M  V30 20995 C 1828.49 -1.53496 1.21237 0
M  V30 20996 O 1829.7 -2.21517 1.5698 0
M  V30 20997 C 1828.16 -0.556621 3.5557 0
M  V30 20998 C 1827.76 0.677086 4.42854 0
M  V30 20999 C 1829.51 -1.12116 4.09427 0
M  V30 21000 C 1827.41 0.376566 5.902 0
M  V30 21001 H 1826.34 -0.109905 0.745947 0
M  V30 21002 H 1829 0.432113 1.7834 0
M  V30 21003 H 1827.38 -1.33286 3.72895 0
M  V30 21004 H 1828.55 1.45266 4.37304 0
M  V30 21005 H 1826.87 1.16161 3.99869 0
M  V30 21006 H 1829.46 -1.36057 5.171 0
M  V30 21007 H 1829.81 -2.06954 3.61215 0
M  V30 21008 H 1830.34 -0.406174 3.95721 0
M  V30 21009 H 1827.08 1.29403 6.426 0
M  V30 21010 H 1826.6 -0.36136 5.9871 0
M  V30 21011 H 1828.28 -0.014773 6.46998 0
M  V30 21012 N 1828.41 -1.57525 0.0484906 0
M  V30 21013 C 1829.34 -2.06926 -0.962128 0
M  V30 21014 C 1830.32 -0.969173 -1.3056 0
M  V30 21015 O 1831.5 -1.24091 -1.41893 0
M  V30 21016 C 1828.63 -2.50752 -2.27687 0
M  V30 21017 C 1827.68 -3.7197 -2.08664 0
M  V30 21018 S 1828.51 -5.17745 -1.36749 0
M  V30 21019 C 1829.67 -5.64883 -2.69552 0
M  V30 21020 H 1829.9 -2.92323 -0.541691 0
M  V30 21021 H 1827.43 -1.5353 -0.163706 0
M  V30 21022 H 1829.39 -2.76665 -3.03261 0
M  V30 21023 H 1828.05 -1.65665 -2.66859 0
M  V30 21024 H 1827.24 -4.00546 -3.05907 0
M  V30 21025 H 1826.85 -3.46309 -1.41231 0
M  V30 21026 H 1829.14 -5.70305 -3.6573 0
M  V30 21027 H 1830.08 -6.64138 -2.45615 0
M  V30 21028 H 1830.49 -4.92602 -2.75688 0
M  V30 21029 N 1829.89 0.224867 -1.55988 0
M  V30 21030 C 1830.8 1.2997 -1.95307 0
M  V30 21031 C 1831.81 1.51463 -0.856444 0
M  V30 21032 O 1832.99 1.64658 -1.15973 0
M  V30 21033 C 1830.05 2.63009 -2.25892 0
M  V30 21034 C 1829.12 2.49847 -3.49106 0
M  V30 21035 C 1828.35 3.76541 -3.78223 0
M  V30 21036 O 1828.57 4.7941 -3.09066 0
M  V30 21037 O 1827.51 3.73852 -4.71718 0
M  V30 21038 H 1831.33 0.996093 -2.869 0
M  V30 21039 H 1828.92 0.427457 -1.43154 0
M  V30 21040 H 1830.8 3.41586 -2.46774 0
M  V30 21041 H 1829.47 2.93057 -1.37474 0
M  V30 21042 H 1828.38 1.69482 -3.33507 0
M  V30 21043 H 1829.71 2.24739 -4.37896 0
M  V30 21044 N 1831.37 1.49742 0.491438 0
M  V30 21045 C 1832.6 1.63198 1.26689 0
M  V30 21046 C 1833 0.306438 1.86702 0
M  V30 21047 O 1832.35 -0.719282 1.69033 0
M  V30 21048 C 1832.41 2.64966 2.42967 0
M  V30 21049 C 1832.07 4.09066 2.0375 0
M  V30 21050 C 1833.07 4.95574 1.57171 0
M  V30 21051 C 1830.75 4.54859 2.13092 0
M  V30 21052 C 1832.75 6.25916 1.2045 0
M  V30 21053 C 1830.44 5.85212 1.75983 0
M  V30 21054 C 1831.43 6.70565 1.29738 0
M  V30 21055 O 1831.12 7.98487 0.931347 0
M  V30 21056 H 1830.85 0.552094 0.390087 0
M  V30 21057 H 1833.41 1.9658 0.595439 0
M  V30 21058 H 1831.64 2.26784 3.13218 0
M  V30 21059 H 1833.33 2.67852 3.04975 0
M  V30 21060 H 1834.09 4.61419 1.49391 0
M  V30 21061 H 1829.97 3.88585 2.48038 0
M  V30 21062 H 1833.52 6.9249 0.84283 0
M  V30 21063 H 1829.41 6.18893 1.83415 0
M  V30 21064 H 1830.18 8.11581 1.06198 0
M  V30 21065 N 1832.84 -0.743177 1.38977 0
M  V30 21066 C 1833.81 -1.83876 1.36829 0
M  V30 21067 C 1834.81 -1.5857 0.266875 0
M  V30 21068 O 1836 -1.66121 0.524337 0
M  V30 21069 C 1833.13 -3.21528 1.1328 0
M  V30 21070 H 1834.32 -1.87186 2.3431 0
M  V30 21071 H 1831.88 -0.945979 1.24422 0
M  V30 21072 H 1832.61 -3.23883 0.164474 0
M  V30 21073 H 1832.4 -3.41292 1.93034 0
M  V30 21074 H 1833.89 -4.01597 1.14498 0
M  V30 21075 N 1834.32 -1.24018 -0.972487 0
M  V30 21076 C 1835.23 -1.04527 -2.10027 0
M  V30 21077 C 1836.25 0.0125372 -1.73995 0
M  V30 21078 O 1837.42 -0.184615 -2.00552 0
M  V30 21079 C 1834.49 -0.647264 -3.40604 0
M  V30 21080 C 1833.55 -1.78102 -3.90613 0
M  V30 21081 C 1832.78 -1.4019 -5.14959 0
M  V30 21082 O 1833.01 -0.289608 -5.69664 0
M  V30 21083 O 1831.94 -2.22583 -5.59232 0
M  V30 21084 H 1835.77 -1.99064 -2.29363 0
M  V30 21085 H 1833.35 -1.02794 -1.08414 0
M  V30 21086 H 1835.23 -0.436606 -4.19132 0
M  V30 21087 H 1833.91 0.269025 -3.2258 0
M  V30 21088 H 1832.82 -2.04638 -3.13168 0
M  V30 21089 H 1834.15 -2.67591 -4.13105 0
M  V30 21090 N 1835.8 1.17245 -1.05316 0
M  V30 21091 C 1837.03 1.91995 -0.784387 0
M  V30 21092 C 1837.45 1.76362 0.65408 0
M  V30 21093 O 1836.81 1.0822 1.45458 0
M  V30 21094 C 1836.86 3.41043 -1.1714 0
M  V30 21095 O 1835.96 4.11276 -0.304285 0
M  V30 21096 H 1835.3 0.598516 -0.287532 0
M  V30 21097 H 1837.83 1.48604 -1.40634 0
M  V30 21098 H 1837.84 3.91788 -1.13871 0
M  V30 21099 H 1836.52 3.51742 -2.21924 0
M  V30 21100 H 1835.09 3.70773 -0.39769 0
M  V30 21101 N 1837.28 0.834353 1.33702 0
M  V30 21102 C 1838.53 0.424225 1.97188 0
M  V30 21103 C 1838.84 -1.02086 1.66846 0
M  V30 21104 O 1840.05 -1.53545 2.23911 0
M  V30 21105 C 1838.5 0.707628 3.52875 0
M  V30 21106 C 1838.11 2.16709 3.92098 0
M  V30 21107 C 1839.85 0.364228 4.22935 0
M  V30 21108 C 1837.76 2.39478 5.40744 0
M  V30 21109 H 1836.69 0.154897 0.737918 0
M  V30 21110 H 1839.34 1.02231 1.52385 0
M  V30 21111 H 1837.72 0.0392323 3.95981 0
M  V30 21112 H 1838.9 2.87559 3.60064 0
M  V30 21113 H 1837.21 2.47303 3.35008 0
M  V30 21114 H 1839.81 0.512031 5.32243 0
M  V30 21115 H 1840.15 -0.692375 4.10502 0
M  V30 21116 H 1840.69 0.98767 3.85344 0
M  V30 21117 H 1837.43 3.43687 5.58175 0
M  V30 21118 H 1836.95 1.73184 5.74254 0
M  V30 21119 H 1838.62 2.22406 6.07573 0
M  V30 21120 N 1838.76 -1.46125 0.590367 0
M  V30 21121 C 1839.7 -2.32108 -0.151168 0
M  V30 21122 C 1840.7 -1.44943 -0.876804 0
M  V30 21123 O 1841.9 -1.61526 -0.794323 0
M  V30 21124 H 1838.28 -0.748954 -0.0676159 0
M  V30 21125 H 1840.25 -2.92454 0.592723 0
M  V30 21126 C 1839 -3.28253 -1.14653 0
M  V30 21127 H 1838.32 -3.95309 -0.597597 0
M  V30 21128 H 1839.76 -3.91181 -1.63564 0
M  V30 21129 C 1838.22 -2.54162 -2.21141 0
M  V30 21130 O 1838.75 -2.31029 -3.28616 0
M  V30 21131 N 1836.96 -2.14592 -1.95956 0
M  V30 21132 H 1836.5 -2.33606 -1.08564 0
M  V30 21133 H 1836.46 -1.65339 -2.67414 0
M  V30 21134 N 1840.23 -0.328564 -1.54137 0
M  V30 21135 C 1841.14 0.543922 -2.28207 0
M  V30 21136 C 1842.16 1.1249 -1.32748 0
M  V30 21137 O 1843.34 1.1438 -1.65769 0
M  V30 21138 C 1840.4 1.6864 -3.02922 0
M  V30 21139 C 1839.46 1.13672 -4.13977 0
M  V30 21140 C 1838.7 2.22474 -4.85119 0
M  V30 21141 O 1838.92 3.42914 -4.55813 0
M  V30 21142 O 1837.85 1.87611 -5.71914 0
M  V30 21143 H 1841.68 -0.0577601 -3.03645 0
M  V30 21144 H 1839.26 -0.0940895 -1.49103 0
M  V30 21145 H 1841.15 2.35143 -3.49693 0
M  V30 21146 H 1839.82 2.27417 -2.30355 0
M  V30 21147 H 1838.73 0.436625 -3.71543 0
M  V30 21148 H 1840.06 0.594012 -4.88602 0
M  V30 21149 N 1841.71 1.57497 -0.0568439 0
M  V30 21150 C 1842.96 1.92914 0.615668 0
M  V30 21151 C 1843.29 0.935677 1.70515 0
M  V30 21152 O 1842.54 -0.0511255 1.95633 0
M  V30 21153 C 1842.84 3.35 1.24538 0
M  V30 21154 C 1842.51 4.50008 0.283536 0
M  V30 21155 C 1841.17 4.81196 0.0188809 0
M  V30 21156 C 1843.52 5.19847 -0.375336 0
M  V30 21157 C 1840.85 5.79569 -0.911986 0
M  V30 21158 C 1843.2 6.19215 -1.29443 0
M  V30 21159 C 1841.87 6.48829 -1.5677 0
M  V30 21160 H 1841.14 0.705922 0.225289 0
M  V30 21161 H 1843.78 1.91095 -0.124533 0
M  V30 21162 H 1842.09 3.33213 2.06098 0
M  V30 21163 H 1843.78 3.59686 1.77277 0
M  V30 21164 H 1840.37 4.25674 0.499994 0
M  V30 21165 H 1844.56 4.95959 -0.183967 0
M  V30 21166 H 1839.81 6.00846 -1.13112 0
M  V30 21167 H 1843.99 6.7244 -1.811 0
M  V30 21168 H 1841.62 7.24868 -2.29063 0
M  V30 21169 N 1843.19 -0.216591 1.56105 0
M  V30 21170 C 1844.42 -0.955625 1.8317 0
M  V30 21171 C 1844.83 -1.78247 0.634397 0
M  V30 21172 O 1844.17 -1.79148 -0.406391 0
M  V30 21173 C 1844.23 -1.91834 3.04039 0
M  V30 21174 C 1843.9 -1.27553 4.38838 0
M  V30 21175 C 1844.89 -0.662972 5.15656 0
M  V30 21176 C 1842.58 -1.28582 4.85564 0
M  V30 21177 C 1844.57 -0.0692674 6.37362 0
M  V30 21178 C 1842.26 -0.688269 6.07212 0
M  V30 21179 C 1843.26 -0.0810524 6.82952 0
M  V30 21180 O 1842.95 0.507186 8.02298 0
M  V30 21181 H 1842.68 -0.285405 0.612797 0
M  V30 21182 H 1845.23 -0.235419 2.04046 0
M  V30 21183 H 1843.46 -2.67767 2.78994 0
M  V30 21184 H 1845.15 -2.52334 3.17934 0
M  V30 21185 H 1845.92 -0.647319 4.80661 0
M  V30 21186 H 1841.8 -1.74784 4.26581 0
M  V30 21187 H 1845.34 0.405305 6.96422 0
M  V30 21188 H 1841.24 -0.701352 6.41679 0
M  V30 21189 H 1842.01 0.401989 8.17512 0
M  V30 21190 N 1844.67 -1.5 -0.48349 0
M  V30 21191 C 1846.08 -1.53369 -1.06466 0
M  V30 21192 C 1846.43 -0.329973 -1.93405 0
M  V30 21193 O 1845.56 0.558444 -2.0907 0
M  V30 21194 C 1846.15 -2.77927 -1.93757 0
M  V30 21195 C 1844.71 -2.84017 -2.47005 0
M  V30 21196 C 1843.86 -2.47506 -1.25044 0
M  V30 21197 H 1846.81 -1.56444 -0.266633 0
M  V30 21198 H 1846.83 -2.59081 -2.78671 0
M  V30 21199 H 1846.34 -3.65518 -1.30454 0
M  V30 21200 H 1844.44 -2.00748 -3.13896 0
M  V30 21201 H 1844.55 -3.86614 -2.8296 0
M  V30 21202 H 1842.92 -1.99669 -1.58127 0
M  V30 21203 H 1843.7 -3.37391 -0.634225 0
M  V30 21204 N 1846.15 0.735796 -1.39369 0
M  V30 21205 C 1847.38 1.52283 -1.39619 0
M  V30 21206 C 1847.78 1.89197 0.0112732 0
M  V30 21207 O 1847.13 1.54562 0.992786 0
M  V30 21208 C 1847.19 2.83993 -2.20427 0
M  V30 21209 C 1846.85 2.69518 -3.69065 0
M  V30 21210 C 1847.85 2.38119 -4.62164 0
M  V30 21211 C 1845.54 2.86414 -4.12641 0
M  V30 21212 C 1847.53 2.23797 -5.9682 0
M  V30 21213 C 1845.22 2.7171 -5.47373 0
M  V30 21214 C 1846.21 2.40447 -6.39277 0
M  V30 21215 O 1845.9 2.25833 -7.71527 0
M  V30 21216 H 1845.63 0.477218 -0.478789 0
M  V30 21217 H 1848.19 0.916936 -1.83797 0
M  V30 21218 H 1846.42 3.46839 -1.70996 0
M  V30 21219 H 1848.11 3.45606 -2.12865 0
M  V30 21220 H 1848.87 2.24717 -4.29799 0
M  V30 21221 H 1844.75 3.0974 -3.41441 0
M  V30 21222 H 1848.3 1.99316 -6.6852 0
M  V30 21223 H 1844.19 2.8469 -5.79329 0
M  V30 21224 H 1844.96 2.40909 -7.82244 0
M  V30 21225 N 1847.63 1.24532 0.965897 0
M  V30 21226 C 1848.87 1.09801 1.72404 0
M  V30 21227 C 1849.23 -0.356766 1.88656 0
M  V30 21228 O 1850.43 -0.625626 2.61418 0
M  V30 21229 C 1848.7 1.8194 3.07624 0
M  V30 21230 S 1850.26 1.82962 3.98836 0
M  V30 21231 H 1847.08 0.392672 0.592731 0
M  V30 21232 H 1849.68 1.57889 1.15288 0
M  V30 21233 H 1848.38 2.86899 2.93457 0
M  V30 21234 H 1847.92 1.34193 3.69805 0
M  V30 21235 H 1849.93 0.898584 4.87996 0
M  V30 21236 N 1849.1 -1.16685 1.05936 0
M  V30 21237 C 1850.33 -1.90758 0.793401 0
M  V30 21238 C 1850.74 -1.77479 -0.655593 0
M  V30 21239 O 1850.08 -1.11458 -1.46023 0
M  V30 21240 C 1850.15 -3.42127 1.10406 0
M  V30 21241 C 1849.81 -3.79191 2.55074 0
M  V30 21242 C 1850.81 -3.81412 3.533 0
M  V30 21243 C 1848.49 -4.09931 2.9028 0
M  V30 21244 C 1850.49 -4.13853 4.84772 0
M  V30 21245 C 1848.17 -4.42039 4.21953 0
M  V30 21246 C 1849.17 -4.4398 5.19009 0
M  V30 21247 O 1848.86 -4.75328 6.4832 0
M  V30 21248 H 1848.59 -0.611855 0.287418 0
M  V30 21249 H 1851.15 -1.48859 1.41527 0
M  V30 21250 H 1849.38 -3.84356 0.425106 0
M  V30 21251 H 1851.06 -3.97471 0.822918 0
M  V30 21252 H 1851.83 -3.5778 3.27443 0
M  V30 21253 H 1847.71 -4.07587 2.15393 0
M  V30 21254 H 1851.25 -4.15283 5.60523 0
M  V30 21255 H 1847.15 -4.65136 4.4757 0
M  V30 21256 H 1847.92 -4.93154 6.53254 0
M  V30 21257 N 1850.58 -0.841432 -1.33258 0
M  V30 21258 C 1851.83 -0.434677 -1.96961 0
M  V30 21259 C 1852.14 1.012 -1.67386 0
M  V30 21260 O 1853.35 1.52356 -2.24722 0
M  V30 21261 C 1851.81 -0.726332 -3.52495 0
M  V30 21262 C 1851.41 -2.18786 -3.90943 0
M  V30 21263 C 1853.16 -0.386652 -4.22735 0
M  V30 21264 C 1851.06 -2.42343 -5.39466 0
M  V30 21265 H 1849.99 -0.158809 -0.737086 0
M  V30 21266 H 1852.65 -1.03037 -1.51841 0
M  V30 21267 H 1851.03 -0.0602315 -3.95954 0
M  V30 21268 H 1852.2 -2.89465 -3.58534 0
M  V30 21269 H 1850.52 -2.49076 -3.33691 0
M  V30 21270 H 1853.11 -0.540249 -5.31964 0
M  V30 21271 H 1853.46 0.670595 -4.10863 0
M  V30 21272 H 1853.99 -1.00809 -3.84815 0
M  V30 21273 H 1850.73 -3.46642 -5.56345 0
M  V30 21274 H 1850.25 -1.76227 -5.73327 0
M  V30 21275 H 1851.93 -2.25625 -6.06385 0
M  V30 21276 N 1852.06 1.4581 -0.598108 0
M  V30 21277 C 1853.01 2.30454 0.126261 0
M  V30 21278 C 1853.98 1.41541 0.869221 0
M  V30 21279 O 1855.16 1.70478 0.856841 0
M  V30 21280 C 1852.3 3.26285 1.12393 0
M  V30 21281 C 1851.41 4.303 0.382824 0
M  V30 21282 C 1850.55 5.13246 1.36937 0
M  V30 21283 C 1849.59 6.08997 0.615545 0
M  V30 21284 N 1848.73 6.84756 1.55091 0
M  V30 21285 H 1853.57 2.91865 -0.601573 0
M  V30 21286 H 1851.1 1.43829 -0.308467 0
M  V30 21287 H 1853.06 3.80303 1.71539 0
M  V30 21288 H 1851.69 2.66649 1.81929 0
M  V30 21289 H 1850.74 3.79018 -0.323962 0
M  V30 21290 H 1852.05 4.98375 -0.205781 0
M  V30 21291 H 1851.21 5.71618 2.03318 0
M  V30 21292 H 1849.95 4.45168 1.99191 0
M  V30 21293 H 1848.95 5.49765 -0.0619441 0
M  V30 21294 H 1850.18 6.791 -0.00181251 0
M  V30 21295 H 1848.12 6.19375 2.16127 0
M  V30 21296 H 1848.04 7.49149 1.0155 0
M  V30 21297 H 1849.31 7.47675 2.20458 0
M  V30 21298 N 1853.54 0.336733 1.53961 0
M  V30 21299 C 1854.78 -0.26186 2.008 0
M  V30 21300 C 1855.11 -1.51101 1.22469 0
M  V30 21301 O 1854.37 -1.9341 0.298485 0
M  V30 21302 C 1854.67 -0.628163 3.51836 0
M  V30 21303 C 1854.33 0.523319 4.47853 0
M  V30 21304 C 1852.99 0.83934 4.73823 0
M  V30 21305 C 1855.35 1.29615 5.04826 0
M  V30 21306 C 1852.67 1.93068 5.54023 0
M  V30 21307 C 1855.03 2.37768 5.86216 0
M  V30 21308 C 1853.69 2.69937 6.10483 0
M  V30 21309 H 1852.96 -0.0958214 0.734778 0
M  V30 21310 H 1855.61 0.463238 1.85813 0
M  V30 21311 H 1853.91 -1.43388 3.64619 0
M  V30 21312 H 1855.61 -1.10309 3.8553 0
M  V30 21313 H 1852.2 0.266944 4.27768 0
M  V30 21314 H 1856.38 1.06526 4.84733 0
M  V30 21315 H 1851.64 2.18423 5.71053 0
M  V30 21316 H 1855.81 2.98087 6.29378 0
M  V30 21317 H 1853.44 3.54629 6.72415 0
M  V30 21318 N 1855.02 -1.57465 0.0651956 0
M  V30 21319 C 1855.93 -2.15841 -0.919235 0
M  V30 21320 C 1856.94 -1.11984 -1.33175 0
M  V30 21321 O 1858.12 -1.44219 -1.4058 0
M  V30 21322 C 1855.18 -2.7032 -2.1709 0
M  V30 21323 C 1854.24 -3.89026 -1.81542 0
M  V30 21324 C 1853.48 -4.40897 -3.00742 0
M  V30 21325 O 1853.7 -3.91792 -4.14555 0
M  V30 21326 O 1852.63 -5.32312 -2.80941 0
M  V30 21327 H 1856.46 -3.00307 -0.452704 0
M  V30 21328 H 1854.04 -1.48567 -0.157504 0
M  V30 21329 H 1855.93 -3.05266 -2.90501 0
M  V30 21330 H 1854.6 -1.88917 -2.62854 0
M  V30 21331 H 1853.51 -3.58944 -1.05404 0
M  V30 21332 H 1854.84 -4.71701 -1.40567 0
M  V30 21333 N 1856.49 0.20831 -1.56217 0
M  V30 21334 C 1857.77 0.955838 -1.70655 0
M  V30 21335 C 1858.15 2.01905 -0.61624 0
M  V30 21336 O 1857.5 2.25405 0.374793 0
M  V30 21337 C 1857.71 1.55427 -3.1248 0
M  V30 21338 C 1859.06 2.04147 -3.72303 0
M  V30 21339 O 1860.08 1.65295 -3.15525 0
M  V30 21340 O 1858.94 2.75597 -4.7192 0
M  V30 21341 H 1856.03 0.447364 -0.695553 0
M  V30 21342 H 1858.58 0.199047 -1.68529 0
M  V30 21343 H 1857.35 0.787224 -3.83299 0
M  V30 21344 H 1856.97 2.37625 -3.18779 0
M  V30 21345 N 1857.97 1.50255 0.475528 0
M  V30 21346 C 1859.22 1.61261 1.22975 0
M  V30 21347 C 1859.55 0.309949 1.91711 0
M  V30 21348 O 1858.83 -0.688288 1.81914 0
M  V30 21349 C 1859.11 2.7898 2.27688 0
M  V30 21350 C 1858.96 4.19115 1.63287 0
M  V30 21351 C 1860.28 2.9227 3.29038 0
M  V30 21352 H 1857.4 0.586933 0.445734 0
M  V30 21353 H 1860.04 1.82626 0.524177 0
M  V30 21354 H 1858.19 2.60894 2.87865 0
M  V30 21355 H 1859.86 4.48781 1.06741 0
M  V30 21356 H 1858.11 4.23579 0.936127 0
M  V30 21357 H 1858.78 4.97405 2.39359 0
M  V30 21358 H 1861.25 3.08813 2.78879 0
M  V30 21359 H 1860.13 3.7627 3.9964 0
M  V30 21360 H 1860.39 2.02696 3.92895 0
M  V30 21361 N 1859.45 -0.728395 1.39758 0
M  V30 21362 C 1860.38 -1.85554 1.41747 0
M  V30 21363 C 1861.36 -1.6778 0.279972 0
M  V30 21364 O 1862.55 -1.88001 0.48675 0
M  V30 21365 C 1859.68 -3.23375 1.26671 0
M  V30 21366 C 1858.63 -3.55799 2.37889 0
M  V30 21367 C 1857.96 -4.92628 2.07899 0
M  V30 21368 C 1859.26 -3.58098 3.80215 0
M  V30 21369 H 1860.95 -1.84146 2.36073 0
M  V30 21370 H 1858.5 -0.884539 1.13631 0
M  V30 21371 H 1860.45 -4.01907 1.26682 0
M  V30 21372 H 1859.17 -3.25326 0.288159 0
M  V30 21373 H 1857.83 -2.796 2.37107 0
M  V30 21374 H 1857.48 -4.91166 1.08466 0
M  V30 21375 H 1857.18 -5.15288 2.82404 0
M  V30 21376 H 1858.7 -5.73509 2.09571 0
M  V30 21377 H 1860.12 -4.26694 3.82891 0
M  V30 21378 H 1858.51 -3.9228 4.54133 0
M  V30 21379 H 1859.58 -2.57758 4.10718 0
M  V30 21380 N 1860.93 -1.25042 -0.959279 0
M  V30 21381 C 1862.16 -1.12242 -1.73809 0
M  V30 21382 C 1862.57 0.324251 -1.85995 0
M  V30 21383 O 1861.93 1.22328 -1.35433 0
M  V30 21384 C 1861.98 -1.76603 -3.15426 0
M  V30 21385 O 1861.7 -3.15614 -3.03841 0
M  V30 21386 C 1863.2 -1.69522 -4.09606 0
M  V30 21387 H 1860.42 -0.39173 -0.544783 0
M  V30 21388 H 1862.96 -1.65314 -1.2038 0
M  V30 21389 H 1861.12 -1.27512 -3.65813 0
M  V30 21390 H 1861.53 -3.47186 -3.93144 0
M  V30 21391 H 1863.01 -2.19223 -5.06602 0
M  V30 21392 H 1863.48 -0.658074 -4.34242 0
M  V30 21393 H 1864.09 -2.18079 -3.65133 0
M  V30 21394 N 1862.41 1.16121 -1.06553 0
M  V30 21395 C 1863.65 1.86715 -0.783827 0
M  V30 21396 C 1863.98 1.81857 0.689799 0
M  V30 21397 O 1863.24 1.23093 1.5214 0
M  V30 21398 C 1863.54 3.35676 -1.22705 0
M  V30 21399 C 1863.2 3.60732 -2.70524 0
M  V30 21400 C 1861.86 3.67279 -3.10901 0
M  V30 21401 C 1864.22 3.71093 -3.65977 0
M  V30 21402 C 1861.54 3.81691 -4.45566 0
M  V30 21403 C 1863.9 3.87027 -5.00393 0
M  V30 21404 C 1862.56 3.91817 -5.40403 0
M  V30 21405 H 1861.83 0.683238 -0.286823 0
M  V30 21406 H 1864.48 1.37285 -1.3351 0
M  V30 21407 H 1862.78 3.87255 -0.595017 0
M  V30 21408 H 1864.48 3.88686 -0.986096 0
M  V30 21409 H 1861.07 3.5627 -2.38263 0
M  V30 21410 H 1865.25 3.65343 -3.35914 0
M  V30 21411 H 1860.51 3.83654 -4.76046 0
M  V30 21412 H 1864.68 3.93986 -5.74237 0
M  V30 21413 H 1862.31 4.02737 -6.44753 0
M  V30 21414 N 1863.88 0.848487 1.3281 0
M  V30 21415 C 1865.11 0.46174 2.02195 0
M  V30 21416 C 1865.53 -0.932159 1.63378 0
M  V30 21417 O 1864.89 -1.6112 0.831266 0
M  V30 21418 C 1864.94 0.601234 3.55552 0
M  V30 21419 O 1864.04 -0.368549 4.1075 0
M  V30 21420 H 1863.39 0.186379 0.637306 0
M  V30 21421 H 1865.92 1.14598 1.69495 0
M  V30 21422 H 1865.93 0.486456 4.0509 0
M  V30 21423 H 1864.6 1.61773 3.83148 0
M  V30 21424 H 1863.18 -0.210525 3.72305 0
M  V30 21425 N 1865.36 -1.4549 0.605832 0
M  V30 21426 C 1866.31 -2.32256 -0.126541 0
M  V30 21427 C 1867.3 -1.45865 -0.861381 0
M  V30 21428 O 1868.51 -1.62359 -0.777146 0
M  V30 21429 H 1864.89 -0.749629 -0.0596684 0
M  V30 21430 H 1866.86 -2.91809 0.623708 0
M  V30 21431 C 1865.61 -3.2945 -1.11165 0
M  V30 21432 H 1864.93 -3.9592 -0.555636 0
M  V30 21433 H 1866.37 -3.92894 -1.59406 0
M  V30 21434 C 1864.83 -2.56493 -2.18433 0
M  V30 21435 O 1865.36 -2.34501 -3.26147 0
M  V30 21436 N 1863.56 -2.16658 -1.93669 0
M  V30 21437 H 1863.11 -2.34744 -1.0608 0
M  V30 21438 H 1863.07 -1.68166 -2.65645 0
M  V30 21439 N 1866.84 -0.344893 -1.5378 0
M  V30 21440 C 1868.09 0.25158 -2.01233 0
M  V30 21441 C 1868.42 1.50094 -1.23229 0
M  V30 21442 O 1867.69 1.91845 -0.320282 0
M  V30 21443 C 1867.98 0.564366 -3.5565 0
M  V30 21444 C 1867.83 -0.697186 -4.44364 0
M  V30 21445 C 1869.15 1.37343 -4.18121 0
M  V30 21446 H 1866.27 0.0899643 -0.731488 0
M  V30 21447 H 1868.91 -0.465697 -1.84204 0
M  V30 21448 H 1867.06 1.17543 -3.70292 0
M  V30 21449 H 1868.73 -1.33512 -4.41557 0
M  V30 21450 H 1866.98 -1.3218 -4.13172 0
M  V30 21451 H 1867.65 -0.433571 -5.50295 0
M  V30 21452 H 1870.12 0.85671 -4.07185 0
M  V30 21453 H 1869 1.56103 -5.26235 0
M  V30 21454 H 1869.26 2.37593 -3.7283 0
M  V30 21455 N 1868.32 1.57428 -0.0735454 0
M  V30 21456 C 1869.57 1.93556 0.595172 0
M  V30 21457 C 1869.89 0.95371 1.69513 0
M  V30 21458 O 1869.15 -0.0303731 1.95676 0
M  V30 21459 C 1869.45 3.36302 1.20978 0
M  V30 21460 C 1869.11 4.50283 0.235791 0
M  V30 21461 C 1867.78 4.81189 -0.0321575 0
M  V30 21462 C 1870.13 5.19419 -0.430452 0
M  V30 21463 C 1867.46 5.78569 -0.973406 0
M  V30 21464 C 1869.81 6.17807 -1.36003 0
M  V30 21465 C 1868.47 6.4713 -1.63643 0
M  V30 21466 H 1867.74 0.708272 0.217789 0
M  V30 21467 H 1870.39 1.90952 -0.144794 0
M  V30 21468 H 1868.69 3.3538 2.02552 0
M  V30 21469 H 1870.39 3.61546 1.73452 0
M  V30 21470 H 1866.98 4.2618 0.454817 0
M  V30 21471 H 1871.16 4.95736 -0.23656 0
M  V30 21472 H 1866.42 5.99612 -1.19478 0
M  V30 21473 H 1870.59 6.70481 -1.88222 0
M  V30 21474 H 1868.22 7.22398 -2.36738 0
M  V30 21475 N 1869.8 -0.200022 1.56326 0
M  V30 21476 C 1871.03 -0.936144 1.84174 0
M  V30 21477 C 1871.43 -1.77564 0.653267 0
M  V30 21478 O 1870.78 -1.79569 -0.387368 0
M  V30 21479 C 1870.84 -1.88598 3.06057 0
M  V30 21480 C 1870.5 -1.22892 4.40167 0
M  V30 21481 C 1871.5 -0.608243 5.1633 0
M  V30 21482 C 1869.19 -1.23424 4.869 0
M  V30 21483 C 1871.18 -0.00166268 6.374 0
M  V30 21484 C 1868.87 -0.623827 6.07908 0
M  V30 21485 C 1869.86 -0.00861163 6.82999 0
M  V30 21486 O 1869.55 0.592252 8.01715 0
M  V30 21487 H 1869.28 -0.278889 0.615789 0
M  V30 21488 H 1871.84 -0.213764 2.04285 0
M  V30 21489 H 1870.07 -2.64793 2.81818 0
M  V30 21490 H 1871.76 -2.48948 3.20593 0
M  V30 21491 H 1872.52 -0.596302 4.8132 0
M  V30 21492 H 1868.4 -1.7025 4.28411 0
M  V30 21493 H 1871.95 0.479147 6.95953 0
M  V30 21494 H 1867.84 -0.633254 6.42386 0
M  V30 21495 H 1868.61 0.488674 8.1704 0
M  V30 21496 N 1871.27 -1.50505 -0.467553 0
M  V30 21497 C 1872.22 -1.69626 -1.56511 0
M  V30 21498 C 1873.19 -0.537594 -1.5716 0
M  V30 21499 O 1874.38 -0.768574 -1.74636 0
M  V30 21500 C 1871.52 -1.79965 -2.9446 0
M  V30 21501 C 1870.63 -3.07356 -3.03572 0
M  V30 21502 C 1869.76 -3.08469 -4.32458 0
M  V30 21503 C 1868.8 -4.303 -4.35326 0
M  V30 21504 N 1867.94 -4.29132 -5.55689 0
M  V30 21505 H 1872.78 -2.63326 -1.39511 0
M  V30 21506 H 1870.32 -1.30531 -0.678239 0
M  V30 21507 H 1872.28 -1.8394 -3.74462 0
M  V30 21508 H 1870.91 -0.897013 -3.10086 0
M  V30 21509 H 1869.96 -3.12836 -2.16421 0
M  V30 21510 H 1871.27 -3.97327 -3.01551 0
M  V30 21511 H 1870.42 -3.11193 -5.20811 0
M  V30 21512 H 1869.16 -2.16335 -4.37093 0
M  V30 21513 H 1868.17 -4.27784 -3.4537 0
M  V30 21514 H 1869.39 -5.23665 -4.3238 0
M  V30 21515 H 1867.34 -3.39853 -5.61102 0
M  V30 21516 H 1867.26 -5.12875 -5.55423 0
M  V30 21517 H 1868.52 -4.36007 -6.46156 0
M  V30 21518 N 1872.75 0.720973 -1.40142 0
M  V30 21519 C 1874 1.48078 -1.38128 0
M  V30 21520 C 1874.33 1.94491 0.0181891 0
M  V30 21521 O 1873.58 1.68119 1.00172 0
M  V30 21522 C 1873.88 2.72513 -2.31239 0
M  V30 21523 C 1873.55 2.44893 -3.78601 0
M  V30 21524 C 1872.21 2.3707 -4.1875 0
M  V30 21525 C 1874.56 2.21598 -4.71745 0
M  V30 21526 C 1871.89 2.04013 -5.50087 0
M  V30 21527 C 1874.24 1.90055 -6.03375 0
M  V30 21528 C 1872.91 1.8071 -6.42573 0
M  V30 21529 H 1872.18 0.541854 -0.505446 0
M  V30 21530 H 1874.82 0.826311 -1.72755 0
M  V30 21531 H 1873.13 3.4277 -1.89778 0
M  V30 21532 H 1874.82 3.30586 -2.26967 0
M  V30 21533 H 1871.41 2.51866 -3.46788 0
M  V30 21534 H 1875.6 2.26601 -4.41549 0
M  V30 21535 H 1870.85 1.95311 -5.79365 0
M  V30 21536 H 1875.03 1.71042 -6.75069 0
M  V30 21537 H 1872.66 1.54862 -7.44259 0
M  V30 21538 N 1874.23 1.25549 0.952634 0
M  V30 21539 C 1875.18 1.06108 2.04963 0
M  V30 21540 C 1876.15 -0.0303872 1.66072 0
M  V30 21541 O 1877.33 0.127178 1.90376 0
M  V30 21542 C 1874.47 0.68799 3.38173 0
M  V30 21543 C 1873.59 1.85452 3.90168 0
M  V30 21544 C 1872.72 1.4256 5.11713 0
M  V30 21545 C 1871.76 2.56115 5.55942 0
M  V30 21546 N 1870.9 2.13984 6.68697 0
M  V30 21547 H 1875.74 1.99991 2.20925 0
M  V30 21548 H 1873.27 0.995895 1.08261 0
M  V30 21549 H 1875.23 0.452622 4.14737 0
M  V30 21550 H 1873.86 -0.213845 3.22091 0
M  V30 21551 H 1872.91 2.20314 3.10106 0
M  V30 21552 H 1874.23 2.70722 4.1894 0
M  V30 21553 H 1873.38 1.15 5.95701 0
M  V30 21554 H 1872.12 0.54365 4.8466 0
M  V30 21555 H 1871.12 2.84417 4.70518 0
M  V30 21556 H 1872.35 3.44891 5.85002 0
M  V30 21557 H 1870.29 1.28208 6.4335 0
M  V30 21558 H 1870.21 2.92801 6.96996 0
M  V30 21559 H 1871.48 1.89605 7.56089 0
M  V30 21560 N 1875.71 -1.15554 1.07168 0
M  V30 21561 C 1876.94 -1.89906 0.813588 0
M  V30 21562 C 1877.35 -1.78164 -0.636732 0
M  V30 21563 O 1876.69 -1.13 -1.44833 0
M  V30 21564 C 1876.75 -3.40937 1.14028 0
M  V30 21565 C 1876.42 -3.76465 2.59082 0
M  V30 21566 C 1877.41 -3.77643 3.57326 0
M  V30 21567 C 1875.1 -4.06829 2.94611 0
M  V30 21568 C 1877.09 -4.08688 4.89134 0
M  V30 21569 C 1874.78 -4.37539 4.26618 0
M  V30 21570 C 1875.78 -4.3845 5.23689 0
M  V30 21571 O 1875.46 -4.68425 6.53325 0
M  V30 21572 H 1875.2 -0.608773 0.293891 0
M  V30 21573 H 1877.75 -1.4735 1.43098 0
M  V30 21574 H 1875.98 -3.83884 0.465848 0
M  V30 21575 H 1877.67 -3.96575 0.865029 0
M  V30 21576 H 1878.44 -3.54286 3.31219 0
M  V30 21577 H 1874.31 -4.05279 2.19704 0
M  V30 21578 H 1877.86 -4.09315 5.64896 0
M  V30 21579 H 1873.76 -4.60363 4.52478 0
M  V30 21580 H 1874.52 -4.86198 6.58448 0
M  V30 21581 N 1877.19 -0.855519 -1.32358 0
M  V30 21582 C 1878.41 -0.472456 -2.01947 0
M  V30 21583 C 1878.84 0.923482 -1.6387 0
M  V30 21584 O 1878.2 1.60677 -0.839799 0
M  V30 21585 C 1878.24 -0.620081 -3.55229 0
M  V30 21586 O 1877.35 0.34676 -4.1094 0
M  V30 21587 H 1876.69 -0.189756 -0.636309 0
M  V30 21588 H 1879.22 -1.15495 -1.68885 0
M  V30 21589 H 1879.23 -0.507933 -4.04826 0
M  V30 21590 H 1877.9 -1.63802 -3.82285 0
M  V30 21591 H 1876.48 0.190778 -3.72412 0
M  V30 21592 N 1878.67 1.45167 -0.61354 0
M  V30 21593 C 1879.6 2.3333 0.089004 0
M  V30 21594 C 1880.58 1.47181 0.85275 0
M  V30 21595 O 1881.76 1.7594 0.822122 0
M  V30 21596 C 1878.89 3.29982 1.08301 0
M  V30 21597 C 1877.85 4.25813 0.432084 0
M  V30 21598 C 1877.17 5.122 1.53476 0
M  V30 21599 C 1878.47 5.18233 -0.65052 0
M  V30 21600 H 1880.17 2.92322 -0.647165 0
M  V30 21601 H 1877.71 1.40565 -0.312667 0
M  V30 21602 H 1879.66 3.90533 1.5831 0
M  V30 21603 H 1878.39 2.69162 1.84985 0
M  V30 21604 H 1877.05 3.6657 -0.0471927 0
M  V30 21605 H 1876.7 4.47744 2.29203 0
M  V30 21606 H 1876.4 5.77122 1.10469 0
M  V30 21607 H 1877.92 5.7562 2.037 0
M  V30 21608 H 1879.33 5.72821 -0.234262 0
M  V30 21609 H 1877.73 5.91664 -1.00268 0
M  V30 21610 H 1878.8 4.60304 -1.52475 0
M  V30 21611 N 1880.14 0.353044 1.53595 0
M  V30 21612 C 1881.07 -0.491481 2.28269 0
M  V30 21613 C 1882.05 -1.0946 1.30201 0
M  V30 21614 O 1883.24 -1.11421 1.59056 0
M  V30 21615 C 1880.37 -1.63776 3.06259 0
M  V30 21616 C 1879.32 -1.16251 4.1191 0
M  V30 21617 C 1878.65 -2.39805 4.7791 0
M  V30 21618 C 1879.95 -0.256191 5.21671 0
M  V30 21619 H 1881.64 0.131483 2.99111 0
M  V30 21620 H 1879.19 0.0646771 1.43855 0
M  V30 21621 H 1881.14 -2.2351 3.57241 0
M  V30 21622 H 1879.87 -2.28777 2.33085 0
M  V30 21623 H 1878.53 -0.587934 3.61855 0
M  V30 21624 H 1878.17 -3.03234 4.0132 0
M  V30 21625 H 1877.87 -2.08684 5.49295 0
M  V30 21626 H 1879.4 -3.00248 5.3168 0
M  V30 21627 H 1880.81 -0.760642 5.68232 0
M  V30 21628 H 1879.21 -0.0364273 6.00089 0
M  V30 21629 H 1880.28 0.705105 4.79746 0
M  V30 21630 N 1881.62 -1.57387 0.0818932 0
M  V30 21631 C 1883.04 -1.57217 -0.274755 0
M  V30 21632 C 1883.24 -1.09207 -1.6934 0
M  V30 21633 O 1882.29 -0.762532 -2.40711 0
M  V30 21634 C 1883.61 -3.00606 -0.075209 0
M  V30 21635 C 1885.15 -3.12669 -0.143973 0
M  V30 21636 C 1885.63 -4.57992 0.0274161 0
M  V30 21637 N 1887.12 -4.63192 -0.0278563 0
M  V30 21638 C 1887.86 -5.73344 0.0801936 0
M  V30 21639 N 1887.35 -6.92376 0.242334 0
M  V30 21640 N 1889.14 -5.62096 0.0224057 0
M  V30 21641 H 1881.3 -1.86907 1.00894 0
M  V30 21642 H 1883.56 -0.8621 0.39432 0
M  V30 21643 H 1883.26 -3.39881 0.904105 0
M  V30 21644 H 1883.14 -3.68107 -0.823213 0
M  V30 21645 H 1885.53 -2.73274 -1.11378 0
M  V30 21646 H 1885.61 -2.47785 0.635303 0
M  V30 21647 H 1885.25 -4.98078 0.994034 0
M  V30 21648 H 1885.18 -5.2092 -0.77139 0
M  V30 21649 H 1887.67 -3.77598 -0.151172 0
M  V30 21650 H 1887.98 -7.72151 0.316652 0
M  V30 21651 H 1886.33 -6.94444 0.277829 0
M  V30 21652 H 1889.52 -4.67987 -0.103039 0
M  V30 21653 H 1889.69 -6.47907 0.110065 0
M  V30 21654 N 1883.1 0.191729 -1.56429 0
M  V30 21655 C 1884.33 0.926363 -1.84667 0
M  V30 21656 C 1884.74 1.77215 -0.662674 0
M  V30 21657 O 1884.08 1.79772 0.377839 0
M  V30 21658 C 1884.14 1.86973 -3.07053 0
M  V30 21659 C 1883.81 1.20556 -4.40812 0
M  V30 21660 C 1884.8 0.580852 -5.16645 0
M  V30 21661 C 1882.49 1.20841 -4.87548 0
M  V30 21662 C 1884.48 -0.0321402 -6.37392 0
M  V30 21663 C 1882.17 0.59158 -6.0823 0
M  V30 21664 C 1883.17 -0.0276096 -6.82994 0
M  V30 21665 O 1882.86 -0.634761 -8.0139 0
M  V30 21666 H 1882.59 0.27562 -0.61726 0
M  V30 21667 H 1885.14 0.202927 -2.04395 0
M  V30 21668 H 1883.37 2.63295 -2.83219 0
M  V30 21669 H 1885.06 2.47244 -3.21909 0
M  V30 21670 H 1885.83 0.570769 -4.8163 0
M  V30 21671 H 1881.71 1.67975 -4.29308 0
M  V30 21672 H 1885.25 -0.516048 -6.95689 0
M  V30 21673 H 1881.15 0.599177 -6.42713 0
M  V30 21674 H 1881.91 -0.531997 -8.16769 0
M  V30 21675 N 1884.58 1.50751 0.459565 0
M  V30 21676 C 1885.81 1.66089 1.23377 0
M  V30 21677 C 1886.22 0.348952 1.85547 0
M  V30 21678 O 1885.58 -0.670323 1.69744 0
M  V30 21679 C 1885.63 2.76047 2.3341 0
M  V30 21680 O 1885.35 4.02156 1.73787 0
M  V30 21681 C 1886.85 3.02461 3.24087 0
M  V30 21682 H 1884.07 0.557971 0.372705 0
M  V30 21683 H 1886.61 1.97042 0.547242 0
M  V30 21684 H 1884.77 2.47756 2.97818 0
M  V30 21685 H 1885.18 4.63055 2.46335 0
M  V30 21686 H 1886.66 3.83034 3.97478 0
M  V30 21687 H 1887.13 2.13984 3.83546 0
M  V30 21688 H 1887.74 3.32326 2.65404 0
M  V30 21689 N 1886.06 -0.713531 1.40522 0
M  V30 21690 C 1887.28 -1.5026 1.4223 0
M  V30 21691 C 1887.7 -1.88787 0.0225637 0
M  V30 21692 O 1887.06 -1.55581 -0.95398 0
M  V30 21693 C 1887.11 -2.77663 2.31486 0
M  V30 21694 O 1886.83 -2.40765 3.66011 0
M  V30 21695 C 1888.33 -3.71543 2.41807 0
M  V30 21696 H 1885.55 -0.463648 0.485048 0
M  V30 21697 H 1888.09 -0.88 1.84598 0
M  V30 21698 H 1886.25 -3.36203 1.92475 0
M  V30 21699 H 1886.66 -3.22757 4.13434 0
M  V30 21700 H 1888.14 -4.57771 3.08464 0
M  V30 21701 H 1888.61 -4.14792 1.44375 0
M  V30 21702 H 1889.22 -3.18914 2.81379 0
M  V30 21703 N 1887.53 -1.26053 -0.945962 0
M  V30 21704 C 1888.76 -1.14181 -1.7314 0
M  V30 21705 C 1889.18 0.299663 -1.85698 0
M  V30 21706 O 1888.54 1.21711 -1.34373 0
M  V30 21707 C 1888.59 -1.81052 -3.11854 0
M  V30 21708 O 1887.69 -1.09606 -3.97568 0
M  V30 21709 H 1887.03 -0.398138 -0.531397 0
M  V30 21710 H 1889.56 -1.66782 -1.18511 0
M  V30 21711 H 1889.57 -1.87685 -3.62269 0
M  V30 21712 H 1888.25 -2.85921 -3.0203 0
M  V30 21713 H 1886.83 -1.10915 -3.56023 0
M  V30 21714 N 1889.01 1.14984 -1.07779 0
M  V30 21715 C 1889.96 2.19864 -0.702018 0
M  V30 21716 C 1890.93 1.63206 0.308695 0
M  V30 21717 O 1892.11 1.8981 0.194157 0
M  V30 21718 C 1889.25 3.44923 -0.110634 0
M  V30 21719 C 1888.37 4.1576 -1.17335 0
M  V30 21720 C 1887.5 5.28381 -0.546508 0
M  V30 21721 C 1886.54 5.91042 -1.59171 0
M  V30 21722 N 1885.68 6.95126 -0.987129 0
M  V30 21723 H 1890.52 2.51358 -1.60073 0
M  V30 21724 H 1888.05 1.2344 -0.80006 0
M  V30 21725 H 1890.01 4.16451 0.249903 0
M  V30 21726 H 1888.64 3.13932 0.751416 0
M  V30 21727 H 1887.69 3.42685 -1.6514 0
M  V30 21728 H 1889.01 4.58436 -1.96566 0
M  V30 21729 H 1888.16 6.06552 -0.133852 0
M  V30 21730 H 1886.9 4.8691 0.277527 0
M  V30 21731 H 1885.9 5.1158 -2.01409 0
M  V30 21732 H 1887.13 6.3459 -2.4181 0
M  V30 21733 H 1885.08 6.55742 -0.184076 0
M  V30 21734 H 1884.99 7.36253 -1.71662 0
M  V30 21735 H 1886.26 7.77186 -0.60012 0
M  V30 21736 N 1890.49 0.862526 1.31902 0
M  V30 21737 C 1891.42 0.270103 2.27603 0
M  V30 21738 C 1892.43 -0.562639 1.52768 0
M  V30 21739 O 1893.62 -0.385845 1.7428 0
M  V30 21740 C 1890.72 -0.636314 3.32873 0
M  V30 21741 C 1889.9 0.162327 4.37099 0
M  V30 21742 C 1888.96 -0.67107 5.21903 0
M  V30 21743 O 1887.98 -0.101765 5.69109 0
M  V30 21744 N 1889.18 -1.98441 5.45529 0
M  V30 21745 H 1891.95 1.09248 2.79079 0
M  V30 21746 H 1889.51 0.723275 1.44846 0
M  V30 21747 H 1891.5 -1.19937 3.86519 0
M  V30 21748 H 1890.07 -1.35936 2.81496 0
M  V30 21749 H 1889.29 0.906824 3.83628 0
M  V30 21750 H 1890.58 0.710602 5.03813 0
M  V30 21751 H 1889.98 -2.47017 5.0892 0
M  V30 21752 H 1888.53 -2.49542 6.0214 0
M  V30 21753 N 1891.97 -1.4484 0.62123 0
M  V30 21754 C 1893.19 -2.07012 0.126801 0
M  V30 21755 C 1893.62 -1.46046 -1.18542 0
M  V30 21756 O 1892.98 -0.558202 -1.72493 0
M  V30 21757 C 1893.02 -3.60597 0.0150611 0
M  V30 21758 O 1892.13 -3.9929 -1.03157 0
M  V30 21759 H 1891.47 -0.659131 0.0802646 0
M  V30 21760 H 1894 -1.85874 0.855105 0
M  V30 21761 H 1894.01 -4.07608 -0.178742 0
M  V30 21762 H 1892.68 -4.04354 0.973153 0
M  V30 21763 H 1891.26 -3.63927 -0.813135 0
M  V30 21764 N 1893.45 -0.361184 -1.53405 0
M  V30 21765 C 1894.69 0.230222 -2.01489 0
M  V30 21766 C 1895.03 1.48779 -1.24814 0
M  V30 21767 O 1894.3 1.91494 -0.340612 0
M  V30 21768 C 1894.58 0.526613 -3.56229 0
M  V30 21769 C 1894.44 -0.744277 -4.436 0
M  V30 21770 C 1895.76 1.32901 -4.19554 0
M  V30 21771 H 1892.87 0.0822009 -0.732402 0
M  V30 21772 H 1895.52 -0.485208 -1.837 0
M  V30 21773 H 1893.67 1.13609 -3.71517 0
M  V30 21774 H 1895.34 -1.38188 -4.40116 0
M  V30 21775 H 1893.58 -1.36555 -4.11747 0
M  V30 21776 H 1894.25 -0.491913 -5.49804 0
M  V30 21777 H 1896.73 0.813474 -4.08071 0
M  V30 21778 H 1895.6 1.50513 -5.27861 0
M  V30 21779 H 1895.87 2.33625 -3.75329 0
M  V30 21780 N 1894.92 1.57341 -0.0902386 0
M  V30 21781 C 1896.34 1.57361 0.266413 0
M  V30 21782 C 1896.54 1.10104 1.68758 0
M  V30 21783 O 1895.6 0.775287 2.40303 0
M  V30 21784 C 1896.91 3.00642 0.0592661 0
M  V30 21785 C 1898.46 3.12741 0.127389 0
M  V30 21786 C 1898.93 4.57971 -0.0517042 0
M  V30 21787 N 1900.42 4.632 0.0032917 0
M  V30 21788 C 1901.16 5.73293 -0.110598 0
M  V30 21789 N 1900.65 6.92238 -0.279049 0
M  V30 21790 N 1902.45 5.62076 -0.0522147 0
M  V30 21791 H 1894.6 1.86369 -1.01884 0
M  V30 21792 H 1896.86 0.859996 -0.398886 0
M  V30 21793 H 1896.57 3.39396 -0.922117 0
M  V30 21794 H 1896.44 3.68539 0.80368 0
M  V30 21795 H 1898.83 2.73861 1.09927 0
M  V30 21796 H 1898.91 2.47445 -0.648435 0
M  V30 21797 H 1898.55 4.97544 -1.02043 0
M  V30 21798 H 1898.48 5.21321 0.743753 0
M  V30 21799 H 1900.97 3.77672 0.131145 0
M  V30 21800 H 1901.29 7.71972 -0.357596 0
M  V30 21801 H 1899.63 6.94287 -0.314653 0
M  V30 21802 H 1902.82 4.68035 0.0782189 0
M  V30 21803 H 1903 6.47839 -0.144423 0
M  V30 21804 N 1896.4 -0.183431 1.56529 0
M  V30 21805 C 1897.35 -1.24666 1.9637 0
M  V30 21806 C 1898.34 -1.46489 0.850728 0
M  V30 21807 O 1899.55 -1.47212 1.03579 0
M  V30 21808 H 1895.93 -0.418792 0.624594 0
M  V30 21809 H 1897.9 -0.883697 2.85015 0
M  V30 21810 C 1896.65 -2.58135 2.32942 0
M  V30 21811 H 1895.97 -2.42162 3.18116 0
M  V30 21812 H 1897.41 -3.31247 2.64672 0
M  V30 21813 C 1895.87 -3.15993 1.16832 0
M  V30 21814 O 1896.4 -3.99177 0.449531 0
M  V30 21815 N 1894.6 -2.74907 0.942059 0
M  V30 21816 H 1894.15 -2.07365 1.52832 0
M  V30 21817 H 1894.11 -3.13956 0.167 0
M  V30 21818 N 1897.88 -1.50992 -0.451564 0
M  V30 21819 C 1899.13 -1.63197 -1.20394 0
M  V30 21820 C 1899.46 -0.340409 -1.91193 0
M  V30 21821 O 1898.73 0.65926 -1.82986 0
M  V30 21822 C 1899.02 -2.82567 -2.23221 0
M  V30 21823 C 1898.87 -4.2166 -1.56598 0
M  V30 21824 C 1900.19 -2.97468 -3.24347 0
M  V30 21825 H 1897.31 -0.59395 -0.43634 0
M  V30 21826 H 1899.95 -1.83437 -0.495056 0
M  V30 21827 H 1898.1 -2.65441 -2.83678 0
M  V30 21828 H 1899.77 -4.50422 -0.995877 0
M  V30 21829 H 1898.02 -4.25015 -0.86862 0
M  V30 21830 H 1898.69 -5.0115 -2.31415 0
M  V30 21831 H 1901.16 -3.13211 -2.73931 0
M  V30 21832 H 1900.04 -3.82581 -3.93603 0
M  V30 21833 H 1900.3 -2.08921 -3.89621 0
M  V30 21834 N 1899.36 0.706069 -1.40899 0
M  V30 21835 C 1900.6 1.46821 -1.39898 0
M  V30 21836 C 1900.94 1.942 -0.00437855 0
M  V30 21837 O 1900.21 1.68815 0.966002 0
M  V30 21838 C 1900.5 2.68756 -2.39671 0
M  V30 21839 C 1900.35 2.27211 -3.88195 0
M  V30 21840 C 1901.67 3.70935 -2.36845 0
M  V30 21841 H 1898.79 0.532549 -0.509471 0
M  V30 21842 H 1901.43 0.805057 -1.72101 0
M  V30 21843 H 1899.58 3.25337 -2.1234 0
M  V30 21844 H 1901.25 1.76038 -4.2639 0
M  V30 21845 H 1899.49 1.59108 -4.03568 0
M  V30 21846 H 1900.16 3.14656 -4.53537 0
M  V30 21847 H 1902.64 3.24004 -2.61076 0
M  V30 21848 H 1901.52 4.53876 -3.08687 0
M  V30 21849 H 1901.78 4.19899 -1.38337 0
M  V30 21850 N 1900.84 1.26553 0.939264 0
M  V30 21851 C 1901.78 1.08092 2.05958 0
M  V30 21852 C 1902.78 0.00730279 1.69398 0
M  V30 21853 O 1903.98 0.164131 1.7925 0
M  V30 21854 H 1900.36 0.33271 0.674394 0
M  V30 21855 H 1902.33 2.03032 2.18679 0
M  V30 21856 C 1901.08 0.732672 3.39893 0
M  V30 21857 H 1900.4 1.55067 3.68503 0
M  V30 21858 H 1901.84 0.643305 4.19091 0
M  V30 21859 C 1900.3 -0.5623 3.32174 0
M  V30 21860 O 1900.83 -1.60007 3.68457 0
M  V30 21861 N 1899.04 -0.553643 2.85277 0
M  V30 21862 H 1898.58 0.291265 2.55948 0
M  V30 21863 H 1898.54 -1.4202 2.80495 0
M  V30 21864 N 1902.31 -1.14411 1.08387 0
M  V30 21865 C 1903.26 -2.21558 0.708165 0
M  V30 21866 C 1904.26 -1.66969 -0.285982 0
M  V30 21867 O 1905.46 -1.79386 -0.14857 0
M  V30 21868 H 1901.84 -0.721799 0.210974 0
M  V30 21869 H 1903.81 -2.50518 1.62122 0
M  V30 21870 C 1902.56 -3.47444 0.13337 0
M  V30 21871 H 1901.88 -3.89779 0.889513 0
M  V30 21872 H 1903.32 -4.23901 -0.0917154 0
M  V30 21873 C 1901.78 -3.1743 -1.1287 0
M  V30 21874 O 1902.31 -3.35205 -2.2136 0
M  V30 21875 N 1900.52 -2.71391 -1.03901 0
M  V30 21876 H 1900.06 -2.57127 -0.156094 0
M  V30 21877 H 1900.02 -2.51684 -1.88422 0
M  V30 21878 N 1903.79 -0.869509 -1.31443 0
M  V30 21879 C 1905.04 -0.480214 -1.96724 0
M  V30 21880 C 1905.37 0.967405 -1.68735 0
M  V30 21881 O 1904.62 1.69616 -0.976162 0
M  V30 21882 C 1904.92 -0.683486 -3.50804 0
M  V30 21883 C 1904.59 -2.10382 -3.98811 0
M  V30 21884 C 1903.25 -2.49226 -4.11631 0
M  V30 21885 C 1905.6 -3.03015 -4.24065 0
M  V30 21886 C 1902.93 -3.79944 -4.47057 0
M  V30 21887 C 1905.28 -4.33248 -4.60954 0
M  V30 21888 C 1903.95 -4.72006 -4.71982 0
M  V30 21889 H 1903.22 -0.175723 -0.719863 0
M  V30 21890 H 1905.86 -1.10241 -1.56586 0
M  V30 21891 H 1904.17 0.0218481 -3.91794 0
M  V30 21892 H 1905.86 -0.362105 -3.99362 0
M  V30 21893 H 1902.45 -1.79225 -3.89328 0
M  V30 21894 H 1906.64 -2.74232 -4.13655 0
M  V30 21895 H 1901.89 -4.09736 -4.53792 0
M  V30 21896 H 1906.07 -5.05077 -4.79448 0
M  V30 21897 H 1903.7 -5.73337 -4.99188 0
M  V30 21898 N 1905.27 1.44508 -0.628902 0
M  V30 21899 C 1906.22 2.32427 0.0895754 0
M  V30 21900 C 1907.21 1.47217 0.838067 0
M  V30 21901 O 1908.42 1.63575 0.751218 0
M  V30 21902 H 1904.79 0.750483 0.0477349 0
M  V30 21903 H 1906.76 2.9078 -0.670054 0
M  V30 21904 C 1905.51 3.31177 1.0591 0
M  V30 21905 H 1904.84 3.96754 0.492578 0
M  V30 21906 H 1906.28 3.9538 1.53135 0
M  V30 21907 C 1904.74 2.59936 2.14325 0
M  V30 21908 O 1905.27 2.3966 3.22375 0
M  V30 21909 N 1903.47 2.19712 1.90197 0
M  V30 21910 H 1903.02 2.36402 1.02332 0
M  V30 21911 H 1902.98 1.72371 2.62936 0
M  V30 21912 N 1906.75 0.369315 1.53212 0
M  V30 21913 C 1907.68 -0.467242 2.28777 0
M  V30 21914 C 1908.66 -1.08073 1.31355 0
M  V30 21915 O 1909.85 -1.09728 1.60229 0
M  V30 21916 C 1906.98 -1.60519 3.07979 0
M  V30 21917 C 1905.93 -1.11876 4.1312 0
M  V30 21918 C 1905.26 -2.34723 4.80426 0
M  V30 21919 C 1906.56 -0.200846 5.21914 0
M  V30 21920 H 1908.25 0.163201 2.98955 0
M  V30 21921 H 1905.8 0.0799312 1.43778 0
M  V30 21922 H 1907.75 -2.19708 3.59592 0
M  V30 21923 H 1906.47 -2.26292 2.35499 0
M  V30 21924 H 1905.13 -0.549521 3.62458 0
M  V30 21925 H 1904.78 -2.98961 4.04514 0
M  V30 21926 H 1904.48 -2.02846 5.51477 0
M  V30 21927 H 1906 -2.94592 5.34835 0
M  V30 21928 H 1907.42 -0.700331 5.69006 0
M  V30 21929 H 1905.81 0.0272222 6.00094 0
M  V30 21930 H 1906.88 0.755948 4.78971 0
M  V30 21931 N 1908.23 -1.57291 0.0985816 0
M  V30 21932 C 1909.45 -1.99242 -0.575966 0
M  V30 21933 C 1909.88 -0.977378 -1.60714 0
M  V30 21934 O 1909.24 0.053677 -1.81221 0
M  V30 21935 C 1909.28 -3.40148 -1.19714 0
M  V30 21936 O 1908.39 -3.41434 -2.31293 0
M  V30 21937 H 1907.73 -0.647791 -0.145816 0
M  V30 21938 H 1910.26 -2.03798 0.181023 0
M  V30 21939 H 1910.27 -3.77918 -1.5376 0
M  V30 21940 H 1908.94 -4.13548 -0.441714 0
M  V30 21941 H 1907.52 -3.15464 -1.98839 0
M  V30 21942 N 1909.71 0.175127 -1.56624 0
M  V30 21943 C 1911.12 0.737951 -1.71497 0
M  V30 21944 C 1911.47 1.82962 -0.708475 0
M  V30 21945 O 1910.59 2.16003 0.13096 0
M  V30 21946 C 1911.19 1.34536 -3.10943 0
M  V30 21947 C 1909.75 1.85505 -3.27513 0
M  V30 21948 C 1908.89 0.732564 -2.67449 0
M  V30 21949 H 1911.84 -0.0502185 -1.58621 0
M  V30 21950 H 1911.87 2.21502 -3.09382 0
M  V30 21951 H 1911.38 0.5506 -3.84174 0
M  V30 21952 H 1909.48 2.67637 -2.59232 0
M  V30 21953 H 1909.59 2.00311 -4.35215 0
M  V30 21954 H 1907.96 1.15203 -2.27157 0
M  V30 21955 H 1908.74 -0.050288 -3.43263 0
M  V30 21956 N 1911.18 1.5123 0.44355 0
M  V30 21957 C 1912.12 1.68281 1.55609 0
M  V30 21958 C 1913.13 0.563589 1.52733 0
M  V30 21959 O 1914.32 0.837706 1.57622 0
M  V30 21960 C 1911.42 1.67657 2.94524 0
M  V30 21961 C 1910.59 2.96063 3.21971 0
M  V30 21962 C 1909.65 2.8771 4.40578 0
M  V30 21963 O 1908.68 3.61659 4.39536 0
M  V30 21964 N 1909.88 2.03137 5.43797 0
M  V30 21965 H 1912.64 2.64252 1.41389 0
M  V30 21966 H 1910.2 1.49038 0.632398 0
M  V30 21967 H 1912.2 1.59646 3.71881 0
M  V30 21968 H 1910.77 0.79306 3.02373 0
M  V30 21969 H 1909.99 3.17991 2.32971 0
M  V30 21970 H 1911.27 3.81074 3.37135 0
M  V30 21971 H 1910.67 1.42422 5.47478 0
M  V30 21972 H 1909.23 2.0101 6.20031 0
M  V30 21973 N 1912.66 -0.698586 1.41271 0
M  V30 21974 C 1913.89 -1.48743 1.43816 0
M  V30 21975 C 1914.3 -1.88752 0.0425858 0
M  V30 21976 O 1913.66 -1.56584 -0.937425 0
M  V30 21977 C 1913.71 -2.75192 2.34418 0
M  V30 21978 O 1913.43 -2.36869 3.68544 0
M  V30 21979 C 1914.93 -3.68957 2.45735 0
M  V30 21980 H 1912.15 -0.458477 0.489938 0
M  V30 21981 H 1914.7 -0.860372 1.85521 0
M  V30 21982 H 1912.85 -3.34142 1.9603 0
M  V30 21983 H 1913.27 -3.18354 4.16834 0
M  V30 21984 H 1914.74 -4.54473 3.13302 0
M  V30 21985 H 1915.22 -4.13237 1.48767 0
M  V30 21986 H 1915.82 -3.15912 2.84745 0
M  V30 21987 N 1914.14 -1.27049 -0.93254 0
M  V30 21988 C 1915.37 -1.15903 -1.71389 0
M  V30 21989 C 1915.78 0.284726 -1.86641 0
M  V30 21990 O 1915.14 1.19428 -1.37997 0
M  V30 21991 C 1915.19 -1.83254 -3.11609 0
M  V30 21992 O 1914.91 -3.21988 -2.97078 0
M  V30 21993 C 1916.41 -1.78172 -4.05918 0
M  V30 21994 H 1913.63 -0.403197 -0.536352 0
M  V30 21995 H 1916.18 -1.67831 -1.16846 0
M  V30 21996 H 1914.33 -1.35243 -3.63026 0
M  V30 21997 H 1914.75 -3.55447 -3.85691 0
M  V30 21998 H 1916.22 -2.29919 -5.01838 0
M  V30 21999 H 1916.7 -0.750036 -4.32748 0
M  V30 22000 H 1917.3 -2.25774 -3.60425 0
M  V30 22001 N 1915.62 1.13835 -1.08993 0
M  V30 22002 C 1916.87 1.84645 -0.82163 0
M  V30 22003 C 1917.19 1.83685 0.65458 0
M  V30 22004 O 1916.46 1.28948 1.47477 0
M  V30 22005 H 1915.04 0.683691 -0.300958 0
M  V30 22006 H 1917.7 1.37915 -1.37715 0
M  V30 22007 H 1916.79 2.89292 -1.17117 0
M  V30 22008 N 1917.1 0.876467 1.3098 0
M  V30 22009 C 1918.04 0.326251 2.30301 0
M  V30 22010 C 1919.04 -0.562168 1.598 0
M  V30 22011 O 1920.24 -0.447547 1.74347 0
M  V30 22012 H 1916.62 0.0868325 0.74697 0
M  V30 22013 H 1918.59 1.17775 2.74175 0
M  V30 22014 C 1917.34 -0.451679 3.44754 0
M  V30 22015 H 1916.66 0.222681 3.99179 0
M  V30 22016 H 1918.1 -0.801899 4.16348 0
M  V30 22017 C 1916.56 -1.64547 2.93983 0
M  V30 22018 O 1917.09 -2.74482 2.93296 0
M  V30 22019 N 1915.3 -1.47978 2.50102 0
M  V30 22020 H 1914.84 -0.585447 2.50859 0
M  V30 22021 H 1914.8 -2.27992 2.16488 0
M  V30 22022 N 1918.57 -1.44173 0.636557 0
M  V30 22023 C 1919.52 -2.32472 -0.077248 0
M  V30 22024 C 1920.52 -1.47659 -0.830248 0
M  V30 22025 O 1921.72 -1.63971 -0.742533 0
M  V30 22026 H 1918.1 -0.750726 -0.0437543 0
M  V30 22027 H 1920.07 -2.9042 0.685465 0
M  V30 22028 C 1918.82 -3.31734 -1.04152 0
M  V30 22029 H 1918.14 -3.9701 -0.471531 0
M  V30 22030 H 1919.58 -3.96187 -1.51036 0
M  V30 22031 C 1918.04 -2.61069 -2.12943 0
M  V30 22032 O 1918.57 -2.41366 -3.211 0
M  V30 22033 N 1916.77 -2.20717 -1.8903 0
M  V30 22034 H 1916.32 -2.36941 -1.01077 0
M  V30 22035 H 1916.28 -1.73763 -2.62018 0
M  V30 22036 N 1920.05 -0.377435 -1.53014 0
M  V30 22037 C 1920.96 0.471045 -2.29822 0
M  V30 22038 C 1921.98 1.0821 -1.36259 0
M  V30 22039 O 1923.15 1.09048 -1.69324 0
M  V30 22040 C 1920.22 1.58917 -3.08134 0
M  V30 22041 C 1919.28 1.00444 -4.17384 0
M  V30 22042 C 1918.51 2.06928 -4.91952 0
M  V30 22043 O 1918.74 3.2824 -4.66492 0
M  V30 22044 O 1917.67 1.69321 -5.77593 0
M  V30 22045 H 1921.5 -0.154333 -3.03308 0
M  V30 22046 H 1919.08 -0.141478 -1.48729 0
M  V30 22047 H 1920.96 2.23899 -3.56997 0
M  V30 22048 H 1919.64 2.19973 -2.37473 0
M  V30 22049 H 1918.54 0.3182 -3.72744 0
M  V30 22050 H 1919.88 0.438266 -4.90245 0
M  V30 22051 N 1921.53 1.57237 -0.106922 0
M  V30 22052 C 1922.48 2.15912 0.865145 0
M  V30 22053 C 1923.47 1.1051 1.2839 0
M  V30 22054 O 1924.68 1.28834 1.25705 0
M  V30 22055 H 1921.05 0.690837 0.297065 0
M  V30 22056 H 1923.02 2.96391 0.345677 0
M  V30 22057 C 1921.77 2.76355 2.11005 0
M  V30 22058 H 1921.1 3.57152 1.79674 0
M  V30 22059 H 1922.54 3.20963 2.77053 0
M  V30 22060 C 1921 1.72834 2.89188 0
M  V30 22061 O 1921.53 1.1744 3.84149 0
M  V30 22062 N 1919.73 1.43053 2.52951 0
M  V30 22063 H 1919.28 1.88289 1.75798 0
M  V30 22064 H 1919.24 0.740287 3.0556 0
M  V30 22065 N 1923.01 -0.166818 1.56715 0
M  V30 22066 C 1923.94 -1.2086 1.99787 0
M  V30 22067 C 1924.92 -1.45918 0.874178 0
M  V30 22068 O 1926.1 -1.57176 1.14058 0
M  V30 22069 C 1923.23 -2.54648 2.3616 0
M  V30 22070 C 1922.19 -2.44151 3.51532 0
M  V30 22071 C 1921.51 -3.82469 3.7366 0
M  V30 22072 C 1922.81 -1.9424 4.84838 0
M  V30 22073 H 1924.51 -0.850538 2.87065 0
M  V30 22074 H 1922.05 -0.407696 1.38108 0
M  V30 22075 H 1924.01 -3.27736 2.64891 0
M  V30 22076 H 1922.73 -2.92251 1.45797 0
M  V30 22077 H 1921.39 -1.73516 3.22936 0
M  V30 22078 H 1921.04 -4.17473 2.8058 0
M  V30 22079 H 1920.74 -3.76312 4.5129 0
M  V30 22080 H 1922.26 -4.57136 4.04796 0
M  V30 22081 H 1923.68 -2.57105 5.12416 0
M  V30 22082 H 1922.07 -1.99021 5.66137 0
M  V30 22083 H 1923.14 -0.89695 4.76532 0
M  V30 22084 N 1924.49 -1.51463 -0.435524 0
M  V30 22085 C 1925.42 -1.75856 -1.53613 0
M  V30 22086 C 1926.4 -0.608449 -1.58846 0
M  V30 22087 O 1927.58 -0.85135 -1.74544 0
M  V30 22088 C 1924.71 -1.88525 -2.91677 0
M  V30 22089 C 1923.67 -3.03972 -3.01305 0
M  V30 22090 C 1922.99 -3.01828 -4.41366 0
M  V30 22091 C 1924.29 -4.43905 -2.75219 0
M  V30 22092 H 1925.99 -2.68013 -1.33452 0
M  V30 22093 H 1923.53 -1.28968 -0.640564 0
M  V30 22094 H 1925.49 -2.04173 -3.68634 0
M  V30 22095 H 1924.21 -0.930179 -3.13074 0
M  V30 22096 H 1922.87 -2.88033 -2.26788 0
M  V30 22097 H 1922.52 -2.04095 -4.59733 0
M  V30 22098 H 1922.22 -3.79353 -4.48737 0
M  V30 22099 H 1923.74 -3.19572 -5.20294 0
M  V30 22100 H 1925.15 -4.60187 -3.41908 0
M  V30 22101 H 1923.55 -5.2315 -2.93998 0
M  V30 22102 H 1924.62 -4.53818 -1.70814 0
M  V30 22103 N 1925.96 0.691085 -1.4164 0
M  V30 22104 C 1926.89 1.8173 -1.46616 0
M  V30 22105 C 1927.88 1.66979 -0.324357 0
M  V30 22106 O 1929.06 1.86644 -0.536424 0
M  V30 22107 C 1926.19 3.19903 -1.35201 0
M  V30 22108 C 1925.14 3.49366 -2.47239 0
M  V30 22109 C 1924.47 4.86942 -2.20887 0
M  V30 22110 C 1925.77 3.47891 -3.89575 0
M  V30 22111 H 1927.46 1.77823 -2.40872 0
M  V30 22112 H 1925.01 0.8541 -1.15936 0
M  V30 22113 H 1926.96 3.98407 -1.37293 0
M  V30 22114 H 1925.69 3.24448 -0.374312 0
M  V30 22115 H 1924.35 2.73215 -2.44436 0
M  V30 22116 H 1923.99 4.88118 -1.2145 0
M  V30 22117 H 1923.69 5.0762 -2.95966 0
M  V30 22118 H 1925.22 5.67751 -2.24703 0
M  V30 22119 H 1926.63 4.16392 -3.94069 0
M  V30 22120 H 1925.03 3.80101 -4.64374 0
M  V30 22121 H 1926.1 2.46778 -4.17407 0
M  V30 22122 N 1927.44 1.27542 0.925789 0
M  V30 22123 C 1928.86 1.04988 1.20207 0
M  V30 22124 C 1929.06 -0.215359 2.00346 0
M  V30 22125 O 1928.11 -0.920331 2.3513 0
M  V30 22126 C 1929.43 2.2904 1.94836 0
M  V30 22127 C 1930.98 2.34098 2.07767 0
M  V30 22128 C 1931.45 3.57884 2.85802 0
M  V30 22129 N 1932.94 3.58453 2.93369 0
M  V30 22130 C 1933.68 4.50907 3.54218 0
M  V30 22131 N 1933.17 5.53667 4.16443 0
M  V30 22132 N 1934.97 4.38527 3.5164 0
M  V30 22133 H 1927.12 2.0878 0.390449 0
M  V30 22134 H 1929.38 0.918323 0.235346 0
M  V30 22135 H 1929.09 3.21151 1.4337 0
M  V30 22136 H 1928.96 2.34507 2.95442 0
M  V30 22137 H 1931.35 1.42492 2.58418 0
M  V30 22138 H 1931.43 2.32633 1.06375 0
M  V30 22139 H 1931.07 4.49828 2.35834 0
M  V30 22140 H 1931 3.56601 3.87484 0
M  V30 22141 H 1933.49 2.84138 2.49147 0
M  V30 22142 H 1933.81 6.20377 4.60817 0
M  V30 22143 H 1932.15 5.57507 4.14983 0
M  V30 22144 H 1935.34 3.57455 3.0223 0
M  V30 22145 H 1935.51 5.10769 3.98772 0
M  V30 22146 N 1928.92 -1.13255 1.09595 0
M  V30 22147 C 1930.17 -1.83925 0.827926 0
M  V30 22148 C 1930.48 -1.84531 -0.64866 0
M  V30 22149 O 1931.69 -2.5111 -1.03228 0
M  V30 22150 C 1930.14 -3.30219 1.43121 0
M  V30 22151 C 1929.75 -3.37996 2.94046 0
M  V30 22152 C 1931.5 -4.05918 1.24221 0
M  V30 22153 C 1929.4 -4.78572 3.47451 0
M  V30 22154 H 1928.33 -0.689091 0.306056 0
M  V30 22155 H 1930.98 -1.27586 1.31887 0
M  V30 22156 H 1929.37 -3.86371 0.867952 0
M  V30 22157 H 1930.54 -2.91829 3.56612 0
M  V30 22158 H 1928.86 -2.75762 3.12 0
M  V30 22159 H 1931.45 -5.09704 1.61573 0
M  V30 22160 H 1931.8 -4.15898 0.183004 0
M  V30 22161 H 1932.33 -3.561 1.77306 0
M  V30 22162 H 1929.07 -4.73785 4.52999 0
M  V30 22163 H 1928.59 -5.25227 2.89649 0
M  V30 22164 H 1930.27 -5.47495 3.44759 0
M  V30 22165 N 1930.4 -0.883401 -1.30514 0
M  V30 22166 C 1931.63 -0.515199 -2.00073 0
M  V30 22167 C 1932.04 0.900374 -1.66403 0
M  V30 22168 O 1931.38 1.60339 -0.896503 0
M  V30 22169 C 1931.44 -0.608317 -3.54316 0
M  V30 22170 C 1931.11 -1.98792 -4.11498 0
M  V30 22171 C 1932.1 -2.95712 -4.2761 0
M  V30 22172 C 1929.79 -2.29288 -4.46914 0
M  V30 22173 C 1931.78 -4.21264 -4.78347 0
M  V30 22174 C 1929.47 -3.55086 -4.9735 0
M  V30 22175 C 1930.47 -4.50888 -5.13019 0
M  V30 22176 O 1930.15 -5.74455 -5.62367 0
M  V30 22177 H 1929.89 -0.197853 -0.646398 0
M  V30 22178 H 1932.44 -1.19015 -1.67405 0
M  V30 22179 H 1930.67 0.123606 -3.86502 0
M  V30 22180 H 1932.36 -0.251619 -4.05119 0
M  V30 22181 H 1933.13 -2.73463 -4.00553 0
M  V30 22182 H 1929 -1.55488 -4.33987 0
M  V30 22183 H 1932.55 -4.96048 -4.90492 0
M  V30 22184 H 1928.45 -3.77172 -5.23843 0
M  V30 22185 H 1929.21 -5.76814 -5.80713 0
M  V30 22186 N 1931.88 1.43833 -0.644194 0
M  V30 22187 C 1933.29 1.56542 -0.310952 0
M  V30 22188 C 1933.49 1.62946 1.18536 0
M  V30 22189 O 1932.55 1.57961 1.96989 0
M  V30 22190 C 1933.86 2.83074 -1.01437 0
M  V30 22191 C 1935.41 2.96805 -0.993759 0
M  V30 22192 C 1935.88 4.26158 -1.6779 0
M  V30 22193 N 1937.38 4.33002 -1.64511 0
M  V30 22194 C 1938.11 5.31837 -2.14328 0
M  V30 22195 N 1937.61 6.37003 -2.72394 0
M  V30 22196 N 1939.4 5.23431 -2.04881 0
M  V30 22197 H 1931.55 1.37919 -1.61531 0
M  V30 22198 H 1933.81 0.661778 -0.678789 0
M  V30 22199 H 1933.52 2.84372 -2.06943 0
M  V30 22200 H 1933.39 3.73016 -0.560273 0
M  V30 22201 H 1935.78 2.95053 0.0528599 0
M  V30 22202 H 1935.86 2.08177 -1.48647 0
M  V30 22203 H 1935.51 4.28671 -2.72404 0
M  V30 22204 H 1935.44 5.13667 -1.15992 0
M  V30 22205 H 1937.93 3.57621 -1.22129 0
M  V30 22206 H 1938.24 7.08724 -3.08107 0
M  V30 22207 H 1936.58 6.37652 -2.76451 0
M  V30 22208 H 1939.78 4.40186 -1.59229 0
M  V30 22209 H 1939.95 6.00301 -2.44015 0
M  V30 22210 N 1933.35 0.385544 1.52811 0
M  V30 22211 C 1934.6 -0.197845 2.01531 0
M  V30 22212 C 1934.93 -1.47128 1.27215 0
M  V30 22213 O 1934.18 -1.92363 0.359866 0
M  V30 22214 C 1934.48 -0.515911 3.53657 0
M  V30 22215 C 1934.15 0.665535 4.45961 0
M  V30 22216 C 1932.81 0.989658 4.70913 0
M  V30 22217 C 1935.16 1.4561 5.00447 0
M  V30 22218 C 1932.49 2.10596 5.476 0
M  V30 22219 C 1934.84 2.56298 5.78355 0
M  V30 22220 C 1933.51 2.89223 6.01587 0
M  V30 22221 H 1932.78 -0.0723965 0.737455 0
M  V30 22222 H 1935.42 0.522118 1.84245 0
M  V30 22223 H 1933.73 -1.31715 3.68996 0
M  V30 22224 H 1935.43 -0.979874 3.88844 0
M  V30 22225 H 1932.02 0.4029 4.26702 0
M  V30 22226 H 1936.2 1.21893 4.81098 0
M  V30 22227 H 1931.46 2.3648 5.63815 0
M  V30 22228 H 1935.63 3.1796 6.19576 0
M  V30 22229 H 1933.26 3.75842 6.60793 0
M  V30 22230 N 1934.83 -1.57178 0.115259 0
M  V30 22231 C 1936.08 -1.94241 -0.54344 0
M  V30 22232 C 1936.39 -1.0006 -1.68069 0
M  V30 22233 O 1937.6 -1.26574 -2.4019 0
M  V30 22234 C 1936.06 -3.45199 -1.0181 0
M  V30 22235 C 1935.66 -4.47909 0.0904861 0
M  V30 22236 C 1937.41 -3.91188 -1.64839 0
M  V30 22237 C 1935.32 -5.90041 -0.400667 0
M  V30 22238 H 1934.25 -0.725092 -0.206778 0
M  V30 22239 H 1936.9 -1.82466 0.194509 0
M  V30 22240 H 1935.28 -3.52196 -1.81036 0
M  V30 22241 H 1936.45 -4.52577 0.866638 0
M  V30 22242 H 1934.77 -4.11649 0.627197 0
M  V30 22243 H 1937.36 -4.94792 -2.02694 0
M  V30 22244 H 1937.71 -3.30955 -2.52536 0
M  V30 22245 H 1938.24 -3.86977 -0.92161 0
M  V30 22246 H 1934.98 -6.54021 0.440159 0
M  V30 22247 H 1934.5 -5.88801 -1.14338 0
M  V30 22248 H 1936.18 -6.41217 -0.863111 0
M  V30 22249 N 1936.31 0.158505 -1.56801 0
M  V30 22250 C 1937.22 1.2157 -2.00644 0
M  V30 22251 C 1938.24 1.47694 -0.919914 0
M  V30 22252 O 1939.41 1.59591 -1.22853 0
M  V30 22253 C 1936.48 2.53191 -2.36844 0
M  V30 22254 C 1935.54 2.34816 -3.59389 0
M  V30 22255 C 1934.77 3.60161 -3.93853 0
M  V30 22256 O 1935 4.65871 -3.29121 0
M  V30 22257 O 1933.93 3.53508 -4.8715 0
M  V30 22258 H 1937.76 0.873512 -2.90867 0
M  V30 22259 H 1935.34 0.366356 -1.44839 0
M  V30 22260 H 1937.22 3.30812 -2.6104 0
M  V30 22261 H 1935.9 2.86963 -1.4978 0
M  V30 22262 H 1934.8 1.55184 -3.40395 0
M  V30 22263 H 1936.14 2.05964 -4.47034 0
M  V30 22264 N 1937.79 1.51692 0.427485 0
M  V30 22265 C 1938.72 1.76668 1.52679 0
M  V30 22266 C 1939.7 0.616865 1.58521 0
M  V30 22267 O 1940.89 0.860595 1.7409 0
M  V30 22268 C 1938.02 1.9007 2.90673 0
M  V30 22269 C 1936.97 3.05566 2.99689 0
M  V30 22270 C 1936.3 3.04165 4.39759 0
M  V30 22271 C 1937.6 4.45359 2.72861 0
M  V30 22272 H 1939.29 2.68717 1.32029 0
M  V30 22273 H 1936.84 1.29306 0.633716 0
M  V30 22274 H 1938.79 2.06125 3.67546 0
M  V30 22275 H 1937.51 0.946769 3.12576 0
M  V30 22276 H 1936.17 2.89231 2.25257 0
M  V30 22277 H 1935.82 2.0653 4.58644 0
M  V30 22278 H 1935.52 3.81727 4.46719 0
M  V30 22279 H 1937.04 3.22326 5.18592 0
M  V30 22280 H 1938.46 4.61993 3.39463 0
M  V30 22281 H 1936.85 5.24701 2.91219 0
M  V30 22282 H 1937.92 4.54717 1.68405 0
M  V30 22283 N 1939.27 -0.683564 1.42004 0
M  V30 22284 C 1940.52 -1.43934 1.413 0
M  V30 22285 C 1940.83 -1.95578 0.0296606 0
M  V30 22286 O 1942.04 -2.71316 -0.0999859 0
M  V30 22287 C 1940.49 -2.60331 2.48507 0
M  V30 22288 C 1940.1 -2.15424 3.92806 0
M  V30 22289 C 1941.84 -3.37895 2.56957 0
M  V30 22290 C 1939.75 -3.28851 4.91539 0
M  V30 22291 H 1938.68 -0.540693 0.525516 0
M  V30 22292 H 1941.33 -0.740914 1.67877 0
M  V30 22293 H 1939.71 -3.325 2.15081 0
M  V30 22294 H 1940.89 -1.50466 4.35542 0
M  V30 22295 H 1939.2 -1.50822 3.88126 0
M  V30 22296 H 1941.8 -4.22355 3.27903 0
M  V30 22297 H 1942.14 -3.83896 1.61027 0
M  V30 22298 H 1942.68 -2.72791 2.89534 0
M  V30 22299 H 1939.41 -2.87851 5.88916 0
M  V30 22300 H 1938.93 -3.92619 4.53443 0
M  V30 22301 H 1940.61 -3.9445 5.12853 0
M  V30 22302 N 1940.75 -1.28031 -0.919012 0
M  V30 22303 C 1941.99 -1.14258 -1.66217 0
M  V30 22304 C 1942.31 0.309269 -1.9314 0
M  V30 22305 O 1943.51 0.568038 -2.65491 0
M  V30 22306 C 1941.97 -1.99702 -2.99411 0
M  V30 22307 C 1941.58 -3.49596 -2.80155 0
M  V30 22308 C 1943.32 -1.94601 -3.77267 0
M  V30 22309 C 1941.23 -4.27209 -4.08958 0
M  V30 22310 H 1940.16 -0.424009 -0.623484 0
M  V30 22311 H 1942.81 -1.52521 -1.02028 0
M  V30 22312 H 1941.19 -1.5429 -3.64706 0
M  V30 22313 H 1942.37 -4.02929 -2.23574 0
M  V30 22314 H 1940.68 -3.56167 -2.15718 0
M  V30 22315 H 1943.28 -2.49859 -4.72731 0
M  V30 22316 H 1943.62 -0.92157 -4.05971 0
M  V30 22317 H 1944.15 -2.37954 -3.18783 0
M  V30 22318 H 1940.89 -5.30212 -3.8543 0
M  V30 22319 H 1940.41 -3.7865 -4.65171 0
M  V30 22320 H 1942.09 -4.36847 -4.77256 0
M  V30 22321 N 1942.22 1.12672 -1.10194 0
M  V30 22322 C 1943.17 2.18326 -0.748496 0
M  V30 22323 C 1944.14 1.63824 0.274007 0
M  V30 22324 O 1945.33 1.90179 0.153852 0
M  V30 22325 C 1942.47 3.4461 -0.183772 0
M  V30 22326 C 1941.58 4.13178 -1.26127 0
M  V30 22327 C 1940.71 5.27103 -0.658462 0
M  V30 22328 C 1939.75 5.87533 -1.71672 0
M  V30 22329 N 1938.89 6.92876 -1.13435 0
M  V30 22330 H 1943.73 2.47906 -1.65369 0
M  V30 22331 H 1941.27 1.21715 -0.826064 0
M  V30 22332 H 1943.22 4.16887 0.161511 0
M  V30 22333 H 1941.85 3.15456 0.684657 0
M  V30 22334 H 1940.91 3.39105 -1.72372 0
M  V30 22335 H 1942.22 4.54163 -2.06246 0
M  V30 22336 H 1941.37 6.06132 -0.26248 0
M  V30 22337 H 1940.11 4.87389 0.174183 0
M  V30 22338 H 1939.12 5.07193 -2.12215 0
M  V30 22339 H 1940.34 6.29318 -2.55217 0
M  V30 22340 H 1938.29 6.55204 -0.323127 0
M  V30 22341 H 1938.2 7.32446 -1.8724 0
M  V30 22342 H 1939.47 7.75739 -0.764838 0
M  V30 22343 N 1943.7 0.89031 1.30043 0
M  V30 22344 C 1944.65 0.35935 2.27985 0
M  V30 22345 C 1945.62 -0.5534 1.5661 0
M  V30 22346 O 1946.8 -0.480669 1.84646 0
M  V30 22347 C 1943.94 -0.41541 3.42591 0
M  V30 22348 C 1943.06 0.527163 4.28771 0
M  V30 22349 C 1942.19 -0.26372 5.30545 0
M  V30 22350 C 1941.23 0.673982 6.08378 0
M  V30 22351 N 1940.37 -0.081909 7.02052 0
M  V30 22352 H 1945.21 1.19969 2.72785 0
M  V30 22353 H 1942.74 0.602948 1.34175 0
M  V30 22354 H 1944.7 -0.880572 4.07801 0
M  V30 22355 H 1943.33 -1.22028 2.98846 0
M  V30 22356 H 1942.38 1.11083 3.6382 0
M  V30 22357 H 1943.7 1.24532 4.83004 0
M  V30 22358 H 1942.85 -0.7905 6.01528 0
M  V30 22359 H 1941.59 -1.01507 4.7702 0
M  V30 22360 H 1940.59 1.21234 5.36267 0
M  V30 22361 H 1941.82 1.42451 6.63991 0
M  V30 22362 H 1939.77 -0.815696 6.50909 0
M  V30 22363 H 1939.68 0.576521 7.53799 0
M  V30 22364 H 1940.95 -0.589258 7.7727 0
M  V30 22365 N 1945.18 -1.43489 0.651812 0
M  V30 22366 C 1946.13 -2.30764 -0.0406423 0
M  V30 22367 C 1947.1 -1.44669 -0.816091 0
M  V30 22368 O 1948.28 -1.73541 -0.792978 0
M  V30 22369 C 1945.42 -3.30232 -1.00206 0
M  V30 22370 C 1944.53 -4.31425 -0.222857 0
M  V30 22371 C 1943.67 -5.17975 -1.17794 0
M  V30 22372 C 1942.71 -6.10862 -0.389096 0
M  V30 22373 N 1941.85 -6.90041 -1.2957 0
M  V30 22374 H 1946.69 -2.89431 0.709482 0
M  V30 22375 H 1944.22 -1.42585 0.361636 0
M  V30 22376 H 1946.18 -3.86408 -1.57306 0
M  V30 22377 H 1944.81 -2.73217 -1.71907 0
M  V30 22378 H 1943.86 -3.77554 0.464409 0
M  V30 22379 H 1945.17 -4.97268 0.390608 0
M  V30 22380 H 1944.33 -5.7877 -1.81962 0
M  V30 22381 H 1943.07 -4.52254 -1.82532 0
M  V30 22382 H 1942.07 -5.49156 0.265943 0
M  V30 22383 H 1943.3 -6.78625 0.253855 0
M  V30 22384 H 1941.24 -6.2697 -1.9299 0
M  V30 22385 H 1941.16 -7.52401 -0.736762 0
M  V30 22386 H 1942.43 -7.55342 -1.92557 0
M  V30 22387 N 1946.66 -0.393643 -1.52605 0
M  V30 22388 C 1947.89 0.186829 -2.05754 0
M  V30 22389 C 1948.3 1.40704 -1.26488 0
M  V30 22390 O 1947.64 1.81137 -0.305794 0
M  V30 22391 C 1947.7 0.617257 -3.54161 0
M  V30 22392 C 1947.36 -0.490084 -4.54365 0
M  V30 22393 C 1948.36 -1.34885 -5.02098 0
M  V30 22394 C 1946.05 -0.658354 -4.97967 0
M  V30 22395 C 1948.04 -2.36097 -5.92062 0
M  V30 22396 C 1945.73 -1.6738 -5.8773 0
M  V30 22397 C 1946.73 -2.52353 -6.34671 0
M  V30 22398 O 1946.41 -3.52161 -7.2266 0
M  V30 22399 H 1946.15 0.0307838 -0.675299 0
M  V30 22400 H 1948.7 -0.558639 -1.97657 0
M  V30 22401 H 1946.93 1.41477 -3.5989 0
M  V30 22402 H 1948.62 1.12389 -3.9003 0
M  V30 22403 H 1949.38 -1.23018 -4.69139 0
M  V30 22404 H 1945.26 -0.00666652 -4.61 0
M  V30 22405 H 1948.81 -3.02456 -6.28623 0
M  V30 22406 H 1944.7 -1.79284 -6.20103 0
M  V30 22407 H 1945.47 -3.48221 -7.40732 0
M  V30 22408 N 1948.14 1.57115 -0.123593 0
M  V30 22409 C 1949.08 2.16817 0.842196 0
M  V30 22410 C 1950.08 1.11865 1.27211 0
M  V30 22411 O 1951.28 1.3016 1.24331 0
M  V30 22412 H 1947.66 0.693949 0.289721 0
M  V30 22413 H 1949.63 2.96741 0.314221 0
M  V30 22414 C 1948.38 2.78577 2.08062 0
M  V30 22415 H 1947.7 3.59037 1.75876 0
M  V30 22416 H 1949.14 3.23884 2.73634 0
M  V30 22417 C 1947.6 1.75892 2.87339 0
M  V30 22418 O 1948.13 1.21508 3.82882 0
M  V30 22419 N 1946.34 1.45728 2.5142 0
M  V30 22420 H 1945.88 1.90143 1.73791 0
M  V30 22421 H 1945.84 0.772654 3.04758 0
M  V30 22422 N 1949.61 -0.150187 1.56883 0
M  V30 22423 C 1950.86 -0.864615 1.83446 0
M  V30 22424 C 1951.19 -1.80963 0.70471 0
M  V30 22425 O 1950.47 -1.92297 -0.291897 0
M  V30 22426 C 1950.75 -1.64188 3.20491 0
M  V30 22427 C 1950.6 -0.718573 4.44023 0
M  V30 22428 C 1951.92 -2.60505 3.54719 0
M  V30 22429 H 1949.04 -0.312878 0.66729 0
M  V30 22430 H 1951.68 -0.129937 1.89555 0
M  V30 22431 H 1949.83 -2.26819 3.15413 0
M  V30 22432 H 1951.51 -0.103513 4.61184 0
M  V30 22433 H 1949.75 -0.0279419 4.33791 0
M  V30 22434 H 1950.42 -1.29839 5.36513 0
M  V30 22435 H 1952.9 -2.07993 3.60386 0
M  V30 22436 H 1951.77 -3.11941 4.51646 0
M  V30 22437 H 1952.03 -3.41711 2.8051 0
M  V30 22438 N 1951.09 -1.51916 -0.419434 0
M  V30 22439 C 1952.37 -1.56023 -1.17967 0
M  V30 22440 C 1952.75 -0.335094 -2.08423 0
M  V30 22441 O 1952.1 0.678731 -2.18187 0
M  V30 22442 C 1952.31 -2.8836 -1.96595 0
M  V30 22443 C 1953.66 -3.40979 -2.53019 0
M  V30 22444 O 1954.68 -2.90031 -2.06786 0
M  V30 22445 O 1953.54 -4.2992 -3.37388 0
M  V30 22446 H 1950.63 -0.628035 -0.538053 0
M  V30 22447 H 1953.18 -1.64239 -0.42705 0
M  V30 22448 H 1951.95 -3.6898 -1.30267 0
M  V30 22449 H 1951.57 -2.83389 -2.78884 0
M  V30 22450 N 1952.57 0.676023 -1.42365 0
M  V30 22451 C 1953.82 1.43183 -1.42062 0
M  V30 22452 C 1954.13 1.95559 -0.0400321 0
M  V30 22453 O 1955.34 2.71365 0.0855959 0
M  V30 22454 C 1953.79 2.5901 -2.49884 0
M  V30 22455 C 1953.4 2.13338 -3.93943 0
M  V30 22456 C 1955.15 3.36528 -2.58746 0
M  V30 22457 C 1953.05 3.2624 -4.93276 0
M  V30 22458 H 1951.98 0.537899 -0.528376 0
M  V30 22459 H 1954.63 0.732001 -1.68268 0
M  V30 22460 H 1953.02 3.31355 -2.16841 0
M  V30 22461 H 1954.19 1.48154 -4.36334 0
M  V30 22462 H 1952.51 1.48761 -3.8892 0
M  V30 22463 H 1955.1 4.2061 -3.30138 0
M  V30 22464 H 1955.45 3.83036 -1.63061 0
M  V30 22465 H 1955.98 2.71252 -2.90977 0
M  V30 22466 H 1952.72 2.84724 -5.90434 0
M  V30 22467 H 1952.24 3.90209 -4.55518 0
M  V30 22468 H 1953.92 3.91725 -5.14938 0
M  V30 22469 N 1954.05 1.28517 0.912209 0
M  V30 22470 C 1954.98 1.08378 2.01958 0
M  V30 22471 C 1955.99 0.0350385 1.62762 0
M  V30 22472 O 1957.18 0.278256 1.76318 0
M  V30 22473 C 1954.28 0.62514 3.33084 0
M  V30 22474 C 1953.46 1.74963 4.00882 0
M  V30 22475 C 1952.51 1.28411 5.10291 0
M  V30 22476 O 1951.54 1.98662 5.33406 0
M  V30 22477 N 1952.74 0.148151 5.80311 0
M  V30 22478 H 1955.51 2.03744 2.19792 0
M  V30 22479 H 1953.07 1.2029 1.0836 0
M  V30 22480 H 1955.06 0.297284 4.03607 0
M  V30 22481 H 1953.63 -0.235714 3.1171 0
M  V30 22482 H 1952.85 2.247 3.23888 0
M  V30 22483 H 1954.14 2.50391 4.42924 0
M  V30 22484 H 1953.54 -0.437843 5.64003 0
M  V30 22485 H 1952.09 -0.120419 6.51689 0
M  V30 22486 N 1955.53 -1.12086 1.1079 0
M  V30 22487 C 1956.48 -2.16022 0.729278 0
M  V30 22488 C 1957.46 -1.5873 -0.263361 0
M  V30 22489 O 1958.65 -1.76855 -0.0715232 0
M  V30 22490 C 1955.78 -3.42895 0.166711 0
M  V30 22491 C 1954.87 -4.07161 1.18661 0
M  V30 22492 N 1955.26 -4.46384 2.37855 0
M  V30 22493 C 1953.56 -4.33991 1.02798 0
M  V30 22494 C 1954.26 -4.96648 3.02846 0
M  V30 22495 N 1953.23 -4.92382 2.3035 0
M  V30 22496 H 1957.04 -2.44119 1.63656 0
M  V30 22497 H 1954.55 -1.2903 0.986155 0
M  V30 22498 H 1956.55 -4.1672 -0.122633 0
M  V30 22499 H 1955.21 -3.16266 -0.735246 0
M  V30 22500 H 1956.22 -4.38634 2.75356 0
M  V30 22501 H 1952.89 -4.17104 0.181891 0
M  V30 22502 H 1954.28 -5.36681 4.04257 0
M  V30 22503 N 1957 -0.897194 -1.29569 0
M  V30 22504 C 1958.25 -0.522607 -1.95951 0
M  V30 22505 C 1958.58 0.928254 -1.70579 0
M  V30 22506 O 1957.86 1.65772 -1.01734 0
M  V30 22507 C 1958.14 -0.812659 -3.5081 0
M  V30 22508 C 1957.99 -2.31504 -3.8565 0
M  V30 22509 C 1959.31 -0.297442 -4.39094 0
M  V30 22510 H 1956.43 -0.191346 -0.711727 0
M  V30 22511 H 1959.07 -1.12342 -1.5323 0
M  V30 22512 H 1957.22 -0.301316 -3.8733 0
M  V30 22513 H 1958.9 -2.89573 -3.59089 0
M  V30 22514 H 1957.14 -2.77678 -3.33283 0
M  V30 22515 H 1957.81 -2.46857 -4.93726 0
M  V30 22516 H 1960.29 -0.735265 -4.09552 0
M  V30 22517 H 1959.16 -0.529614 -5.46339 0
M  V30 22518 H 1959.42 0.801767 -4.34769 0
M  V30 22519 N 1958.48 1.43142 -0.659413 0
M  V30 22520 C 1959.9 1.56203 -0.327538 0
M  V30 22521 C 1960.1 1.64194 1.16801 0
M  V30 22522 O 1959.15 1.60041 1.95303 0
M  V30 22523 C 1960.47 2.81982 -1.04434 0
M  V30 22524 C 1962.02 2.95735 -1.02518 0
M  V30 22525 C 1962.49 4.24354 -1.723 0
M  V30 22526 N 1963.98 4.31232 -1.69094 0
M  V30 22527 C 1964.72 5.29534 -2.19957 0
M  V30 22528 N 1964.21 6.34078 -2.79135 0
M  V30 22529 N 1966.01 5.21229 -2.10421 0
M  V30 22530 H 1958.16 1.36198 -1.62984 0
M  V30 22531 H 1960.42 0.654541 -0.685769 0
M  V30 22532 H 1960.13 2.82162 -2.09947 0
M  V30 22533 H 1960 3.72401 -0.599805 0
M  V30 22534 H 1962.39 2.95092 0.0215626 0
M  V30 22535 H 1962.47 2.06589 -1.50846 0
M  V30 22536 H 1962.11 4.25758 -2.76935 0
M  V30 22537 H 1962.04 5.12408 -1.21433 0
M  V30 22538 H 1964.53 3.56306 -1.25915 0
M  V30 22539 H 1964.85 7.05417 -3.15606 0
M  V30 22540 H 1963.19 6.34684 -2.83199 0
M  V30 22541 H 1966.38 4.38473 -1.63888 0
M  V30 22542 H 1966.55 5.97679 -2.50368 0
M  V30 22543 N 1959.96 0.40173 1.52394 0
M  V30 22544 C 1960.91 -0.427385 2.26808 0
M  V30 22545 C 1961.88 -1.04733 1.28919 0
M  V30 22546 O 1963.06 -1.073 1.5777 0
M  V30 22547 C 1960.2 -1.54211 3.08728 0
M  V30 22548 C 1959.32 -0.943809 4.21564 0
M  V30 22549 C 1958.45 -2.03061 4.90856 0
M  V30 22550 C 1957.49 -1.40886 5.95666 0
M  V30 22551 N 1956.63 -2.4355 6.58504 0
M  V30 22552 H 1961.47 0.21363 2.97233 0
M  V30 22553 H 1959 0.117187 1.46632 0
M  V30 22554 H 1960.96 -2.1993 3.54523 0
M  V30 22555 H 1959.59 -2.15326 2.40488 0
M  V30 22556 H 1958.64 -0.175875 3.79993 0
M  V30 22557 H 1959.96 -0.449559 4.9677 0
M  V30 22558 H 1959.11 -2.76523 5.40018 0
M  V30 22559 H 1957.85 -2.5585 4.15201 0
M  V30 22560 H 1956.85 -0.659546 5.4583 0
M  V30 22561 H 1958.08 -0.888766 6.73259 0
M  V30 22562 H 1956.02 -2.95484 5.85683 0
M  V30 22563 H 1955.94 -1.98916 7.29362 0
M  V30 22564 H 1957.21 -3.16604 7.12308 0
M  V30 22565 N 1961.44 -1.57047 0.131923 0
M  V30 22566 C 1962.72 -1.87196 -0.567179 0
M  V30 22567 C 1963.1 -1.03533 -1.83968 0
M  V30 22568 O 1962.44 -0.117858 -2.28196 0
M  V30 22569 C 1962.65 -3.38561 -0.847179 0
M  V30 22570 C 1964 -4.07449 -1.19459 0
M  V30 22571 O 1965.03 -3.43654 -0.937026 0
M  V30 22572 O 1963.88 -5.20083 -1.67856 0
M  V30 22573 H 1960.98 -0.775378 -0.287608 0
M  V30 22574 H 1963.52 -1.68872 0.167401 0
M  V30 22575 H 1962.3 -3.91263 0.05402 0
M  V30 22576 H 1961.92 -3.62361 -1.63647 0
M  V30 22577 N 1962.92 0.141865 -1.5696 0
M  V30 22578 C 1964.19 0.882597 -1.74555 0
M  V30 22579 C 1964.57 1.9911 -0.701321 0
M  V30 22580 O 1963.92 2.26792 0.278854 0
M  V30 22581 C 1964.13 1.42034 -3.18791 0
M  V30 22582 C 1965.48 1.88172 -3.80626 0
M  V30 22583 O 1966.5 1.51764 -3.22252 0
M  V30 22584 O 1965.36 2.55333 -4.83185 0
M  V30 22585 H 1962.46 0.417461 -0.713902 0
M  V30 22586 H 1965 0.127389 -1.69221 0
M  V30 22587 H 1963.77 0.623945 -3.86293 0
M  V30 22588 H 1963.4 2.2389 -3.28571 0
M  V30 22589 N 1964.39 1.52136 0.411372 0
M  V30 22590 C 1965.34 1.75318 1.50107 0
M  V30 22591 C 1966.31 0.595552 1.55056 0
M  V30 22592 O 1967.5 0.832859 1.71663 0
M  V30 22593 C 1964.64 1.9077 2.87578 0
M  V30 22594 C 1963.75 3.18411 2.91956 0
M  V30 22595 C 1962.88 3.24307 4.20712 0
M  V30 22596 C 1961.92 4.4616 4.19056 0
M  V30 22597 N 1961.06 4.49461 5.39379 0
M  V30 22598 H 1965.9 2.68323 1.29642 0
M  V30 22599 H 1963.44 1.32958 0.629326 0
M  V30 22600 H 1965.4 1.97711 3.67377 0
M  V30 22601 H 1964.03 1.01148 3.06543 0
M  V30 22602 H 1963.08 3.20652 2.04661 0
M  V30 22603 H 1964.39 4.08245 2.86597 0
M  V30 22604 H 1963.54 3.30308 5.08902 0
M  V30 22605 H 1962.28 2.32408 4.28763 0
M  V30 22606 H 1961.29 4.40308 3.29255 0
M  V30 22607 H 1962.51 5.39351 4.12646 0
M  V30 22608 H 1960.46 3.60444 5.48102 0
M  V30 22609 H 1960.38 5.33136 5.36005 0
M  V30 22610 H 1961.64 4.59688 6.29529 0
M  V30 22611 N 1965.87 -0.668464 1.42721 0
M  V30 22612 C 1967.15 -1.42481 1.3401 0
M  V30 22613 C 1967.53 -2.11091 -0.0194821 0
M  V30 22614 O 1966.88 -2.037 -1.03531 0
M  V30 22615 C 1967.09 -2.42205 2.51272 0
M  V30 22616 C 1968.44 -3.0666 2.93675 0
M  V30 22617 O 1969.46 -2.52532 2.51209 0
M  V30 22618 O 1968.32 -4.04761 3.67193 0
M  V30 22619 H 1965.41 -0.635831 0.528818 0
M  V30 22620 H 1967.96 -0.696654 1.54741 0
M  V30 22621 H 1966.73 -1.90349 3.41881 0
M  V30 22622 H 1966.35 -3.22492 2.32561 0
M  V30 22623 N 1967.35 -1.28999 -0.905381 0
M  V30 22624 C 1968.6 -1.1664 -1.65534 0
M  V30 22625 C 1968.93 0.283294 -1.92426 0
M  V30 22626 O 1968.18 1.22166 -1.52885 0
M  V30 22627 C 1968.48 -1.91909 -3.01506 0
M  V30 22628 C 1968.15 -3.4166 -2.94243 0
M  V30 22629 C 1966.81 -3.82501 -2.91969 0
M  V30 22630 C 1969.16 -4.37112 -2.8387 0
M  V30 22631 C 1966.49 -5.1712 -2.77135 0
M  V30 22632 C 1968.84 -5.71814 -2.70576 0
M  V30 22633 C 1967.5 -6.1192 -2.66665 0
M  V30 22634 H 1966.77 -0.426816 -0.60573 0
M  V30 22635 H 1969.42 -1.5987 -1.05422 0
M  V30 22636 H 1967.73 -1.41252 -3.65452 0
M  V30 22637 H 1969.42 -1.79756 -3.58453 0
M  V30 22638 H 1966.01 -3.09194 -2.96812 0
M  V30 22639 H 1970.2 -4.06516 -2.84708 0
M  V30 22640 H 1965.45 -5.47311 -2.72508 0
M  V30 22641 H 1969.63 -6.45431 -2.61519 0
M  V30 22642 H 1967.25 -7.16182 -2.54928 0
M  V30 22643 N 1968.83 1.11497 -1.11383 0
M  V30 22644 C 1969.78 2.19602 -0.766658 0
M  V30 22645 C 1970.77 1.67668 0.241612 0
M  V30 22646 O 1971.98 1.79717 0.100956 0
M  V30 22647 H 1968.35 0.715952 -0.230037 0
M  V30 22648 H 1970.32 2.46131 -1.68707 0
M  V30 22649 C 1969.07 3.46968 -0.225442 0
M  V30 22650 H 1968.4 3.87284 -0.992544 0
M  V30 22651 H 1969.84 4.23995 -0.0207066 0
M  V30 22652 C 1968.29 3.20311 1.04414 0
M  V30 22653 O 1968.82 3.40956 2.12395 0
M  V30 22654 N 1967.03 2.7405 0.966692 0
M  V30 22655 H 1966.58 2.5745 0.0878667 0
M  V30 22656 H 1966.54 2.56591 1.81682 0
M  V30 22657 N 1970.31 0.904053 1.29092 0
M  V30 22658 C 1971.72 0.600783 1.47861 0
M  V30 22659 C 1971.92 -0.856554 1.82388 0
M  V30 22660 O 1970.98 -1.6364 1.92297 0
M  V30 22661 C 1972.29 1.53035 2.58845 0
M  V30 22662 C 1973.84 1.53602 2.72719 0
M  V30 22663 C 1974.32 2.45197 3.86836 0
M  V30 22664 N 1975.81 2.43269 3.94176 0
M  V30 22665 C 1976.54 3.10843 4.81834 0
M  V30 22666 N 1976.04 3.87712 5.74153 0
M  V30 22667 N 1977.83 2.99979 4.75362 0
M  V30 22668 H 1969.98 1.84656 1.04957 0
M  V30 22669 H 1972.24 0.791479 0.52179 0
M  V30 22670 H 1971.95 2.5689 2.4021 0
M  V30 22671 H 1971.82 1.25414 3.5574 0
M  V30 22672 H 1974.21 0.504899 2.90749 0
M  V30 22673 H 1974.29 1.85262 1.76385 0
M  V30 22674 H 1973.94 3.48406 3.69562 0
M  V30 22675 H 1973.87 2.10844 4.82548 0
M  V30 22676 H 1976.36 1.87423 3.28148 0
M  V30 22677 H 1976.67 4.36317 6.37846 0
M  V30 22678 H 1975.02 3.91818 5.74024 0
M  V30 22679 H 1978.21 2.39437 4.02228 0
M  V30 22680 H 1978.38 3.52916 5.43465 0
M  V30 22681 N 1971.79 -1.4279 0.666995 0
M  V30 22682 C 1972.74 -2.27967 -0.0387665 0
M  V30 22683 C 1973.72 -1.40659 -0.781266 0
M  V30 22684 O 1974.91 -1.64176 -0.661464 0
M  V30 22685 C 1972.04 -3.28569 -0.994837 0
M  V30 22686 C 1971.13 -4.23362 -0.250089 0
M  V30 22687 N 1971.52 -5.00345 0.740833 0
M  V30 22688 C 1969.82 -4.43304 -0.489628 0
M  V30 22689 C 1970.52 -5.6952 1.18413 0
M  V30 22690 N 1969.49 -5.41149 0.515624 0
M  V30 22691 H 1973.29 -2.84908 0.721413 0
M  V30 22692 H 1970.81 -1.54659 0.49541 0
M  V30 22693 H 1972.81 -3.88384 -1.51536 0
M  V30 22694 H 1971.47 -2.73189 -1.75493 0
M  V30 22695 H 1972.48 -5.05643 1.12008 0
M  V30 22696 H 1969.15 -3.98976 -1.22982 0
M  V30 22697 H 1970.54 -6.41293 2.00482 0
M  V30 22698 N 1973.26 -0.409806 -1.52179 0
M  V30 22699 C 1974.23 0.40345 -2.25621 0
M  V30 22700 C 1975.23 0.973072 -1.28015 0
M  V30 22701 O 1976.42 0.851845 -1.51951 0
M  V30 22702 C 1973.55 1.568 -3.02699 0
M  V30 22703 H 1974.74 -0.239822 -2.9894 0
M  V30 22704 H 1972.29 -0.162341 -1.55455 0
M  V30 22705 H 1973.03 2.24811 -2.33731 0
M  V30 22706 H 1972.81 1.16603 -3.74361 0
M  V30 22707 H 1974.3 2.14326 -3.58405 0
M  V30 22708 N 1974.74 1.56975 -0.14025 0
M  V30 22709 C 1975.97 1.99977 0.518922 0
M  V30 22710 C 1976.38 1.01924 1.59399 0
M  V30 22711 O 1975.72 0.007174 1.83699 0
M  V30 22712 C 1975.78 3.3941 1.18495 0
M  V30 22713 C 1975.45 4.56286 0.255289 0
M  V30 22714 C 1976.45 5.17349 -0.514424 0
M  V30 22715 C 1974.13 5.02045 0.160162 0
M  V30 22716 C 1976.12 6.22574 -1.36678 0
M  V30 22717 C 1973.81 6.07126 -0.695808 0
M  V30 22718 C 1974.81 6.67259 -1.45789 0
M  V30 22719 O 1974.5 7.70307 -2.29961 0
M  V30 22720 H 1974.23 0.661305 0.140186 0
M  V30 22721 H 1976.78 2.04111 -0.22979 0
M  V30 22722 H 1975.01 3.32095 1.98116 0
M  V30 22723 H 1976.7 3.66563 1.74316 0
M  V30 22724 H 1977.47 4.82899 -0.450926 0
M  V30 22725 H 1973.35 4.54972 0.743062 0
M  V30 22726 H 1976.89 6.69439 -1.96208 0
M  V30 22727 H 1972.79 6.41003 -0.760622 0
M  V30 22728 H 1973.56 7.87498 -2.23135 0
M  V30 22729 N 1976.22 -0.133539 1.57033 0
M  V30 22730 C 1977.17 -1.18356 2.00237 0
M  V30 22731 C 1978.16 -1.43708 0.896902 0
M  V30 22732 O 1979.37 -1.43842 1.0821 0
M  V30 22733 H 1975.74 -0.398709 0.637601 0
M  V30 22734 H 1977.71 -0.792575 2.87682 0
M  V30 22735 C 1976.46 -2.50593 2.41036 0
M  V30 22736 H 1975.79 -2.31919 3.25659 0
M  V30 22737 H 1977.23 -3.22659 2.75077 0
M  V30 22738 C 1975.68 -3.12117 1.26826 0
M  V30 22739 O 1976.21 -3.97545 0.576298 0
M  V30 22740 N 1974.42 -2.7177 1.02904 0
M  V30 22741 H 1973.97 -2.02398 1.59352 0
M  V30 22742 H 1973.93 -3.13266 0.266798 0
M  V30 22743 N 1977.7 -1.52352 -0.403298 0
M  V30 22744 C 1978.64 -1.76112 -1.49175 0
M  V30 22745 C 1979.61 -0.603767 -1.54738 0
M  V30 22746 O 1980.8 -0.841951 -1.71219 0
M  V30 22747 C 1977.94 -1.92292 -2.86562 0
M  V30 22748 C 1977.05 -3.19955 -2.90263 0
M  V30 22749 C 1976.19 -3.26534 -4.18986 0
M  V30 22750 C 1975.23 -4.48376 -4.16684 0
M  V30 22751 N 1974.36 -4.52315 -5.36988 0
M  V30 22752 H 1979.2 -2.69006 -1.28217 0
M  V30 22753 H 1976.74 -1.3329 -0.622266 0
M  V30 22754 H 1978.7 -1.99657 -3.66324 0
M  V30 22755 H 1977.33 -1.02772 -3.06003 0
M  V30 22756 H 1976.38 -3.21733 -2.02958 0
M  V30 22757 H 1977.69 -4.09759 -2.84428 0
M  V30 22758 H 1976.85 -3.33003 -5.07143 0
M  V30 22759 H 1975.59 -2.34679 -4.27524 0
M  V30 22760 H 1974.59 -4.42048 -3.26916 0
M  V30 22761 H 1975.82 -5.41532 -4.0978 0
M  V30 22762 H 1973.76 -3.63346 -5.46183 0
M  V30 22763 H 1973.68 -5.35971 -5.3317 0
M  V30 22764 H 1974.95 -4.6302 -6.27082 0
M  V30 22765 N 1979.18 0.660885 -1.43074 0
M  V30 22766 C 1980.12 1.79529 -1.47892 0
M  V30 22767 C 1981.12 1.65676 -0.353254 0
M  V30 22768 O 1982.32 1.72115 -0.526903 0
M  V30 22769 H 1978.7 0.592191 -0.46348 0
M  V30 22770 H 1980.67 1.72584 -2.43428 0
M  V30 22771 C 1979.42 3.17753 -1.41167 0
M  V30 22772 H 1978.74 3.29047 -2.27087 0
M  V30 22773 H 1980.18 3.97107 -1.486 0
M  V30 22774 C 1978.64 3.36656 -0.128241 0
M  V30 22775 O 1979.17 3.93376 0.813504 0
M  V30 22776 N 1977.38 2.90571 -0.0408985 0
M  V30 22777 H 1976.92 2.44598 -0.808059 0
M  V30 22778 H 1976.88 3.03595 0.817147 0
M  V30 22779 N 1980.65 1.29477 0.898527 0
M  V30 22780 C 1981.56 1.16595 2.03575 0
M  V30 22781 C 1982.58 0.0889285 1.73773 0
M  V30 22782 O 1983.76 0.301228 1.99135 0
M  V30 22783 C 1980.82 0.844745 3.36251 0
M  V30 22784 C 1979.88 2.00573 3.79564 0
M  V30 22785 C 1979.12 1.69975 5.05909 0
M  V30 22786 O 1979.34 0.621246 5.67007 0
M  V30 22787 O 1978.27 2.54809 5.45303 0
M  V30 22788 H 1982.1 2.12098 2.17367 0
M  V30 22789 H 1979.68 1.0894 1.02237 0
M  V30 22790 H 1981.57 0.680229 4.15874 0
M  V30 22791 H 1980.24 -0.080494 3.236 0
M  V30 22792 H 1979.15 2.22549 3.00704 0
M  V30 22793 H 1980.48 2.91221 3.96801 0
M  V30 22794 N 1982.13 -1.10905 1.11972 0
M  V30 22795 C 1983.36 -1.86284 0.893402 0
M  V30 22796 C 1983.77 -1.80704 -0.560594 0
M  V30 22797 O 1983.11 -1.19041 -1.3991 0
M  V30 22798 C 1983.18 -3.35793 1.28386 0
M  V30 22799 C 1982.84 -3.65137 2.74816 0
M  V30 22800 C 1983.84 -3.62148 3.73021 0
M  V30 22801 C 1981.52 -3.93967 3.11601 0
M  V30 22802 C 1983.52 -3.87575 5.06028 0
M  V30 22803 C 1981.2 -4.19051 4.44791 0
M  V30 22804 C 1982.2 -4.15844 5.41814 0
M  V30 22805 O 1981.89 -4.40294 6.72604 0
M  V30 22806 H 1981.62 -0.59576 0.319447 0
M  V30 22807 H 1984.17 -1.41148 1.49219 0
M  V30 22808 H 1982.4 -3.81563 0.628247 0
M  V30 22809 H 1984.09 -3.9255 1.03245 0
M  V30 22810 H 1984.86 -3.3992 3.45948 0
M  V30 22811 H 1980.74 -3.95596 2.36695 0
M  V30 22812 H 1984.28 -3.84987 5.81748 0
M  V30 22813 H 1980.18 -4.40757 4.71596 0
M  V30 22814 H 1980.95 -4.57833 6.78477 0
M  V30 22815 N 1983.61 -0.910886 -1.2861 0
M  V30 22816 C 1984.86 -0.53847 -1.94379 0
M  V30 22817 C 1985.17 0.92185 -1.72515 0
M  V30 22818 O 1986.38 1.40229 -2.32482 0
M  V30 22819 C 1984.83 -0.91216 -3.48149 0
M  V30 22820 C 1984.44 -2.39201 -3.78796 0
M  V30 22821 C 1986.19 -0.610192 -4.20092 0
M  V30 22822 C 1984.09 -2.70598 -5.25862 0
M  V30 22823 H 1983.02 -0.197657 -0.727632 0
M  V30 22824 H 1985.67 -1.10941 -1.46165 0
M  V30 22825 H 1984.06 -0.270034 -3.95078 0
M  V30 22826 H 1985.23 -3.08063 -3.42686 0
M  V30 22827 H 1983.55 -2.66414 -3.20019 0
M  V30 22828 H 1986.14 -0.821472 -5.28352 0
M  V30 22829 H 1986.49 0.451862 -4.1384 0
M  V30 22830 H 1987.02 -1.21066 -3.7893 0
M  V30 22831 H 1983.76 -3.75645 -5.37188 0
M  V30 22832 H 1983.28 -2.0637 -5.6318 0
M  V30 22833 H 1984.96 -2.57451 -5.93572 0
M  V30 22834 N 1985.09 1.42434 -0.674558 0
M  V30 22835 C 1986.02 2.33498 -0.0100395 0
M  V30 22836 C 1987 1.50665 0.789558 0
M  V30 22837 O 1988.18 1.79268 0.74676 0
M  V30 22838 C 1985.31 3.34279 0.942081 0
M  V30 22839 C 1984.27 4.27263 0.251094 0
M  V30 22840 C 1983.59 5.18249 1.31614 0
M  V30 22841 C 1984.89 5.15008 -0.869735 0
M  V30 22842 H 1986.59 2.89314 -0.770566 0
M  V30 22843 H 1984.13 1.39112 -0.372004 0
M  V30 22844 H 1986.09 3.96896 1.41604 0
M  V30 22845 H 1984.81 2.76765 1.73403 0
M  V30 22846 H 1983.47 3.6604 -0.202625 0
M  V30 22847 H 1983.12 4.57063 2.10006 0
M  V30 22848 H 1982.82 5.81288 0.858923 0
M  V30 22849 H 1984.34 5.83742 1.79103 0
M  V30 22850 H 1985.76 5.71312 -0.477004 0
M  V30 22851 H 1984.15 5.86879 -1.25273 0
M  V30 22852 H 1985.22 4.53422 -1.71861 0
M  V30 22853 N 1986.57 0.417871 1.51959 0
M  V30 22854 C 1987.51 -0.417897 2.28815 0
M  V30 22855 C 1988.51 -1.03814 1.33862 0
M  V30 22856 O 1989.71 -0.975341 1.51285 0
M  V30 22857 H 1986.09 -0.153557 0.736155 0
M  V30 22858 H 1988.06 0.25142 2.97339 0
M  V30 22859 C 1986.81 -1.51752 3.12836 0
M  V30 22860 H 1986.13 -1.0496 3.85776 0
M  V30 22861 H 1987.57 -2.07595 3.69703 0
M  V30 22862 C 1986.03 -2.48983 2.26957 0
M  V30 22863 O 1986.56 -3.53072 1.91581 0
M  V30 22864 N 1984.77 -2.19401 1.90556 0
M  V30 22865 H 1984.31 -1.34786 2.19524 0
M  V30 22866 H 1984.27 -2.84701 1.3339 0
M  V30 22867 N 1988.04 -1.56898 0.148573 0
M  V30 22868 C 1989.32 -1.87787 -0.547293 0
M  V30 22869 C 1989.7 -1.05479 -1.82859 0
M  V30 22870 O 1989.05 -0.142055 -2.28058 0
M  V30 22871 C 1989.26 -3.39441 -0.811223 0
M  V30 22872 C 1990.61 -4.08693 -1.1513 0
M  V30 22873 O 1991.63 -3.44629 -0.900524 0
M  V30 22874 O 1990.49 -5.21834 -1.62331 0
M  V30 22875 H 1987.58 -0.778385 -0.279368 0
M  V30 22876 H 1990.13 -1.68685 0.185302 0
M  V30 22877 H 1988.9 -3.91183 0.0955156 0
M  V30 22878 H 1988.53 -3.64076 -1.59794 0
M  V30 22879 N 1989.52 0.125209 -1.57102 0
M  V30 22880 C 1990.77 0.832627 -1.83712 0
M  V30 22881 C 1991.08 1.81336 -0.733261 0
M  V30 22882 O 1992.29 2.56651 -0.885592 0
M  V30 22883 C 1990.75 1.53143 -3.25692 0
M  V30 22884 C 1990.35 0.592004 -4.44071 0
M  V30 22885 C 1992.1 2.22435 -3.61556 0
M  V30 22886 C 1990.01 1.29368 -5.77077 0
M  V30 22887 H 1988.94 0.314685 -0.685193 0
M  V30 22888 H 1991.59 0.0853544 -1.83301 0
M  V30 22889 H 1989.97 2.32511 -3.20554 0
M  V30 22890 H 1991.14 -0.16801 -4.60494 0
M  V30 22891 H 1989.46 0.00637692 -4.164 0
M  V30 22892 H 1992.05 2.75611 -4.58195 0
M  V30 22893 H 1992.4 2.99947 -2.88683 0
M  V30 22894 H 1992.93 1.49962 -3.68451 0
M  V30 22895 H 1989.67 0.559975 -6.53104 0
M  V30 22896 H 1989.19 2.02586 -5.64552 0
M  V30 22897 H 1990.87 1.8286 -6.20622 0
M  V30 22898 N 1991 1.52564 0.395213 0
M  V30 22899 C 1991.95 1.769 1.48239 0
M  V30 22900 C 1992.92 0.611965 1.54416 0
M  V30 22901 O 1994.1 0.851019 1.7077 0
M  V30 22902 C 1991.24 1.93809 2.85538 0
M  V30 22903 C 1990.36 3.2149 2.88562 0
M  V30 22904 C 1989.49 3.28751 4.17248 0
M  V30 22905 C 1988.53 4.5058 4.143 0
M  V30 22906 N 1987.67 4.55156 5.34581 0
M  V30 22907 H 1992.51 2.69683 1.26788 0
M  V30 22908 H 1990.04 1.33618 0.615189 0
M  V30 22909 H 1992 2.01597 3.6526 0
M  V30 22910 H 1990.63 1.04394 3.05453 0
M  V30 22911 H 1989.68 3.22805 2.01249 0
M  V30 22912 H 1991 4.11262 2.82251 0
M  V30 22913 H 1990.15 3.35687 5.0537 0
M  V30 22914 H 1988.89 2.36943 4.26274 0
M  V30 22915 H 1987.89 4.43775 3.24567 0
M  V30 22916 H 1989.12 5.43698 4.06902 0
M  V30 22917 H 1987.06 3.66237 5.44248 0
M  V30 22918 H 1986.98 5.38791 5.30321 0
M  V30 22919 H 1988.25 4.6634 6.24618 0
M  V30 22920 N 1992.48 -0.653289 1.43422 0
M  V30 22921 C 1993.73 -1.41319 1.45036 0
M  V30 22922 C 1994.05 -1.94357 0.074626 0
M  V30 22923 O 1993.31 -1.72707 -0.920363 0
M  V30 22924 C 1993.61 -2.6117 2.43978 0
M  V30 22925 C 1993.27 -2.2655 3.89854 0
M  V30 22926 C 1991.94 -2.16821 4.29584 0
M  V30 22927 C 1994.29 -1.98838 4.81781 0
M  V30 22928 C 1991.62 -1.77535 5.59194 0
M  V30 22929 C 1993.97 -1.61051 6.11756 0
M  V30 22930 C 1992.63 -1.49847 6.50463 0
M  V30 22931 H 1991.9 -0.517121 0.530723 0
M  V30 22932 H 1994.55 -0.742946 1.76501 0
M  V30 22933 H 1992.85 -3.33326 2.05916 0
M  V30 22934 H 1994.55 -3.19381 2.42481 0
M  V30 22935 H 1991.14 -2.35033 3.58409 0
M  V30 22936 H 1995.32 -2.05276 4.51858 0
M  V30 22937 H 1990.58 -1.67447 5.88023 0
M  V30 22938 H 1994.75 -1.38639 6.8246 0
M  V30 22939 H 1992.38 -1.19176 7.508 0
M  V30 22940 N 1993.96 -1.29952 -0.891648 0
M  V30 22941 C 1994.9 -1.15662 -2.01805 0
M  V30 22942 C 1995.9 -0.0701689 -1.69255 0
M  V30 22943 O 1997.1 -0.230546 -1.78517 0
M  V30 22944 H 1993.48 -0.357511 -0.661581 0
M  V30 22945 H 1995.45 -2.11008 -2.10993 0
M  V30 22946 C 1994.2 -0.858316 -3.36939 0
M  V30 22947 H 1993.52 -1.68637 -3.62494 0
M  V30 22948 H 1994.96 -0.798404 -4.16415 0
M  V30 22949 C 1993.42 0.438629 -3.34032 0
M  V30 22950 O 1993.95 1.46221 -3.74142 0
M  V30 22951 N 1992.16 0.447383 -2.87136 0
M  V30 22952 H 1991.7 -0.386058 -2.54691 0
M  V30 22953 H 1991.66 1.31512 -2.85573 0
M  V30 22954 N 1995.44 1.1031 -1.12559 0
M  V30 22955 C 1996.85 1.63801 -0.895891 0
M  V30 22956 C 1997.2 1.87753 0.569511 0
M  V30 22957 O 1996.32 1.62046 1.43423 0
M  V30 22958 C 1996.92 2.9757 -1.6198 0
M  V30 22959 C 1995.48 3.47922 -1.43622 0
M  V30 22960 C 1994.62 2.22506 -1.65489 0
M  V30 22961 H 1997.57 0.937927 -1.28018 0
M  V30 22962 H 1997.6 3.65099 -1.07159 0
M  V30 22963 H 1997.11 2.80105 -2.68631 0
M  V30 22964 H 1995.21 3.70529 -0.392328 0
M  V30 22965 H 1995.32 4.25953 -2.1932 0
M  V30 22966 H 1993.69 2.30712 -1.07908 0
M  V30 22967 H 1994.47 2.07571 -2.7344 0
M  V30 22968 N 1996.91 0.917694 1.28125 0
M  V30 22969 C 1997.86 0.399355 2.29146 0
M  V30 22970 C 1998.86 -0.511045 1.61508 0
M  V30 22971 O 2000.06 -0.391853 1.75683 0
M  V30 22972 H 1996.44 0.110553 0.743829 0
M  V30 22973 H 1998.41 1.26438 2.70289 0
M  V30 22974 C 1997.16 -0.34177 3.46016 0
M  V30 22975 H 1996.48 0.349564 3.98269 0
M  V30 22976 H 1997.92 -0.669035 4.18688 0
M  V30 22977 C 1996.38 -1.55111 2.99069 0
M  V30 22978 O 1996.91 -2.65012 3.0188 0
M  V30 22979 N 1995.11 -1.39946 2.54683 0
M  V30 22980 H 1994.66 -0.505341 2.52595 0
M  V30 22981 H 1994.62 -2.20989 2.23632 0
M  V30 22982 N 1998.39 -1.42074 0.682102 0
M  V30 22983 C 1999.64 -2.0066 0.204581 0
M  V30 22984 C 1999.95 -1.54595 -1.19832 0
M  V30 22985 O 2001.16 -2.05648 -1.7726 0
M  V30 22986 C 1999.62 -3.5852 0.31488 0
M  V30 22987 C 1999.22 -4.13571 1.7223 0
M  V30 22988 C 2000.97 -4.24374 -0.103556 0
M  V30 22989 C 1998.87 -5.6382 1.78497 0
M  V30 22990 H 1997.8 -0.750485 0.0727253 0
M  V30 22991 H 2000.46 -1.62712 0.848346 0
M  V30 22992 H 1998.84 -3.94006 -0.396905 0
M  V30 22993 H 2000.01 -3.89531 2.46176 0
M  V30 22994 H 1998.33 -3.60195 2.08922 0
M  V30 22995 H 2000.92 -5.34645 -0.0769789 0
M  V30 22996 H 2001.27 -4.00385 -1.14005 0
M  V30 22997 H 2001.8 -3.93874 0.557477 0
M  V30 22998 H 1998.54 -5.92616 2.80154 0
M  V30 22999 H 1998.06 -5.89828 1.08918 0
M  V30 23000 H 1999.74 -6.28363 1.54172 0
M  V30 23001 N 1999.87 -0.425924 -1.51735 0
M  V30 23002 C 2000.78 0.39769 -2.31205 0
M  V30 23003 C 2001.8 1.0382 -1.39633 0
M  V30 23004 O 2002.97 1.03606 -1.72707 0
M  V30 23005 C 2000.04 1.49033 -3.13033 0
M  V30 23006 C 1999.1 0.871143 -4.20368 0
M  V30 23007 C 1998.33 1.91172 -4.98286 0
M  V30 23008 O 1998.55 3.13232 -4.76699 0
M  V30 23009 O 1997.49 1.5086 -5.82688 0
M  V30 23010 H 2001.31 -0.25075 -3.02663 0
M  V30 23011 H 1998.9 -0.188723 -1.48203 0
M  V30 23012 H 2000.78 2.12428 -3.6394 0
M  V30 23013 H 1999.46 2.12307 -2.44351 0
M  V30 23014 H 1998.36 0.199453 -3.73568 0
M  V30 23015 H 1999.7 0.282077 -4.91391 0
M  V30 23016 N 2001.35 1.56817 -0.156891 0
M  V30 23017 C 2002.28 2.14404 0.810167 0
M  V30 23018 C 2003.29 1.09595 1.20386 0
M  V30 23019 O 2004.48 1.36836 1.14622 0
M  V30 23020 C 2001.58 2.65998 2.09996 0
M  V30 23021 C 2000.75 3.95312 1.87209 0
M  V30 23022 C 1999.81 4.32116 3.00271 0
M  V30 23023 O 1998.84 5.00259 2.71532 0
M  V30 23024 N 2000.04 3.925 4.27696 0
M  V30 23025 H 2002.81 2.98009 0.317935 0
M  V30 23026 H 2000.37 1.61879 0.0263634 0
M  V30 23027 H 2002.36 2.87626 2.84699 0
M  V30 23028 H 2000.93 1.87062 2.50453 0
M  V30 23029 H 2000.15 3.82209 0.964891 0
M  V30 23030 H 2001.44 4.79795 1.69335 0
M  V30 23031 H 2000.84 3.37612 4.5391 0
M  V30 23032 H 1999.39 4.19159 4.99148 0
M  V30 23033 N 2002.83 -0.116876 1.57166 0
M  V30 23034 C 2004.06 -0.837201 1.88877 0
M  V30 23035 C 2004.46 -1.73852 0.746471 0
M  V30 23036 O 2003.81 -1.8137 -0.291637 0
M  V30 23037 C 2003.87 -1.7211 3.15624 0
M  V30 23038 C 2003.53 -0.993867 4.46062 0
M  V30 23039 C 2004.53 -0.333693 5.18828 0
M  V30 23040 C 2002.21 -0.974414 4.92758 0
M  V30 23041 C 2004.21 0.336212 6.36513 0
M  V30 23042 C 2001.9 -0.300712 6.1036 0
M  V30 23043 C 2002.89 0.353444 6.82085 0
M  V30 23044 O 2002.58 1.01639 7.97449 0
M  V30 23045 H 2002.31 -0.245856 0.629707 0
M  V30 23046 H 2004.87 -0.105177 2.05131 0
M  V30 23047 H 2003.1 -2.49482 2.95458 0
M  V30 23048 H 2004.79 -2.31604 3.33338 0
M  V30 23049 H 2005.55 -0.340327 4.83804 0
M  V30 23050 H 2001.43 -1.47301 4.36833 0
M  V30 23051 H 2004.98 0.847382 6.92434 0
M  V30 23052 H 2000.87 -0.291848 6.4484 0
M  V30 23053 H 2001.64 0.921082 8.13301 0
M  V30 23054 N 2004.3 -1.52772 -0.387116 0
M  V30 23055 C 2005.23 -1.80654 -1.47941 0
M  V30 23056 C 2006.21 -0.658677 -1.56829 0
M  V30 23057 O 2007.4 -0.906449 -1.71747 0
M  V30 23058 C 2004.53 -1.97709 -2.85532 0
M  V30 23059 C 2003.48 -3.13404 -2.91482 0
M  V30 23060 C 2002.81 -3.15717 -4.3154 0
M  V30 23061 C 2004.11 -4.52437 -2.60957 0
M  V30 23062 H 2005.8 -2.72123 -1.24858 0
M  V30 23063 H 2003.35 -1.30941 -0.59921 0
M  V30 23064 H 2005.3 -2.15798 -3.61952 0
M  V30 23065 H 2004.03 -1.02931 -3.09956 0
M  V30 23066 H 2002.69 -2.95102 -2.1751 0
M  V30 23067 H 2002.33 -2.18618 -4.53007 0
M  V30 23068 H 2002.03 -3.93437 -4.36441 0
M  V30 23069 H 2003.56 -3.35963 -5.09864 0
M  V30 23070 H 2004.97 -4.70831 -3.27095 0
M  V30 23071 H 2003.37 -5.32238 -2.77205 0
M  V30 23072 H 2004.44 -4.59022 -1.5629 0
M  V30 23073 N 2005.78 0.645673 -1.43767 0
M  V30 23074 C 2007.2 0.962209 -1.27333 0
M  V30 23075 C 2007.4 2.0052 -0.198519 0
M  V30 23076 O 2006.45 2.48974 0.420512 0
M  V30 23077 C 2007.77 1.4393 -2.64016 0
M  V30 23078 C 2009.31 1.55555 -2.71609 0
M  V30 23079 C 2009.79 2.06652 -4.08728 0
M  V30 23080 N 2011.28 2.13944 -4.10831 0
M  V30 23081 C 2012.02 2.54619 -5.13767 0
M  V30 23082 N 2011.51 2.94536 -6.27073 0
M  V30 23083 N 2013.3 2.54625 -5.01121 0
M  V30 23084 H 2005.46 -0.0443554 -2.12354 0
M  V30 23085 H 2007.72 0.042755 -0.947035 0
M  V30 23086 H 2007.42 0.747304 -3.43669 0
M  V30 23087 H 2007.3 2.41297 -2.89923 0
M  V30 23088 H 2009.69 2.23854 -1.92285 0
M  V30 23089 H 2009.77 0.566006 -2.49459 0
M  V30 23090 H 2009.41 1.38952 -4.88523 0
M  V30 23091 H 2009.34 3.06451 -4.28247 0
M  V30 23092 H 2011.83 1.85838 -3.29048 0
M  V30 23093 H 2012.14 3.24345 -7.01442 0
M  V30 23094 H 2010.49 2.92323 -6.30533 0
M  V30 23095 H 2013.68 2.22822 -4.11665 0
M  V30 23096 H 2013.85 2.86002 -5.81469 0
M  V30 23097 N 2007.26 1.30423 0.884744 0
M  V30 23098 C 2008.19 1.12637 1.99613 0
M  V30 23099 C 2009.2 0.0695549 1.62651 0
M  V30 23100 O 2010.39 0.315593 1.75688 0
M  V30 23101 C 2007.49 0.695652 3.31683 0
M  V30 23102 C 2006.67 1.83427 3.97081 0
M  V30 23103 C 2005.73 1.39206 5.07453 0
M  V30 23104 O 2004.75 2.09931 5.29072 0
M  V30 23105 N 2005.95 0.27121 5.79866 0
M  V30 23106 H 2008.72 2.0836 2.15421 0
M  V30 23107 H 2006.28 1.22561 1.05784 0
M  V30 23108 H 2008.27 0.382828 4.02885 0
M  V30 23109 H 2006.84 -0.169542 3.1214 0
M  V30 23110 H 2006.06 2.31519 3.19049 0
M  V30 23111 H 2007.35 2.5973 4.37513 0
M  V30 23112 H 2006.75 -0.318111 5.64805 0
M  V30 23113 H 2005.3 0.0178406 6.51798 0
M  V30 23114 N 2008.74 -1.09711 1.13142 0
M  V30 23115 C 2009.67 -2.18301 0.828662 0
M  V30 23116 C 2010.65 -1.6879 -0.210733 0
M  V30 23117 O 2011.83 -1.94073 -0.0702977 0
M  V30 23118 C 2008.96 -3.46081 0.290674 0
M  V30 23119 C 2007.92 -4.0891 1.26398 0
M  V30 23120 C 2007.24 -5.3148 0.585887 0
M  V30 23121 C 2008.54 -4.51751 2.62142 0
M  V30 23122 H 2010.24 -2.43885 1.73668 0
M  V30 23123 H 2007.78 -1.17216 0.836449 0
M  V30 23124 H 2009.74 -4.21347 0.0665509 0
M  V30 23125 H 2008.46 -3.20011 -0.652716 0
M  V30 23126 H 2007.12 -3.3566 1.47405 0
M  V30 23127 H 2006.77 -5.01689 -0.362883 0
M  V30 23128 H 2006.47 -5.7447 1.23522 0
M  V30 23129 H 2007.99 -6.09472 0.370976 0
M  V30 23130 H 2009.41 -5.18255 2.45121 0
M  V30 23131 H 2007.8 -5.05615 3.23223 0
M  V30 23132 H 2008.87 -3.64297 3.20025 0
M  V30 23133 N 2010.22 -0.924476 -1.27637 0
M  V30 23134 C 2011.44 -0.579431 -1.98621 0
M  V30 23135 C 2011.86 0.84181 -1.68994 0
M  V30 23136 O 2011.22 1.55905 -0.948681 0
M  V30 23137 C 2011.27 -0.791898 -3.5272 0
M  V30 23138 O 2010.99 -2.15722 -3.81308 0
M  V30 23139 C 2012.49 -0.45513 -4.40957 0
M  V30 23140 H 2009.71 -0.219875 -0.633953 0
M  V30 23141 H 2012.25 -1.24062 -1.6257 0
M  V30 23142 H 2010.41 -0.17756 -3.86993 0
M  V30 23143 H 2010.82 -2.20483 -4.75907 0
M  V30 23144 H 2012.3 -0.654507 -5.48106 0
M  V30 23145 H 2012.77 0.609177 -4.34955 0
M  V30 23146 H 2013.38 -1.04747 -4.12199 0
M  V30 23147 N 2011.69 1.41711 -0.689627 0
M  V30 23148 C 2012.94 2.00925 -0.217655 0
M  V30 23149 C 2013.26 1.5487 1.18491 0
M  V30 23150 O 2012.53 0.776746 1.79843 0
M  V30 23151 H 2011.11 0.742971 -0.0774783 0
M  V30 23152 H 2013.78 1.73421 -0.889456 0
M  V30 23153 H 2012.87 3.11248 -0.230451 0
M  V30 23154 N 2013.17 0.433965 1.51507 0
M  V30 23155 C 2014.42 -0.133629 2.02059 0
M  V30 23156 C 2014.75 -1.43006 1.31831 0
M  V30 23157 O 2014 -1.91121 0.420883 0
M  V30 23158 C 2014.3 -0.403136 3.55119 0
M  V30 23159 C 2013.97 0.807078 4.43618 0
M  V30 23160 C 2012.63 1.13897 4.67526 0
M  V30 23161 C 2014.98 1.61458 4.95561 0
M  V30 23162 C 2012.31 2.27911 5.40623 0
M  V30 23163 C 2014.66 2.74568 5.69908 0
M  V30 23164 C 2013.33 3.08215 5.92081 0
M  V30 23165 H 2012.6 -0.0488983 0.739385 0
M  V30 23166 H 2015.24 0.58047 1.82491 0
M  V30 23167 H 2013.55 -1.19909 3.73 0
M  V30 23168 H 2015.24 -0.85567 3.91764 0
M  V30 23169 H 2011.83 0.538448 4.25204 0
M  V30 23170 H 2016.02 1.37137 4.76977 0
M  V30 23171 H 2011.27 2.54298 5.56006 0
M  V30 23172 H 2015.45 3.3751 6.09147 0
M  V30 23173 H 2013.08 3.96674 6.48501 0
M  V30 23174 N 2014.65 -1.56732 0.165206 0
M  V30 23175 C 2015.9 -1.95872 -0.481368 0
M  V30 23176 C 2016.21 -1.05357 -1.64801 0
M  V30 23177 O 2017.42 -1.34152 -2.36041 0
M  V30 23178 C 2015.87 -3.48264 -0.907766 0
M  V30 23179 C 2015.48 -4.47394 0.232939 0
M  V30 23180 C 2017.23 -3.96235 -1.5231 0
M  V30 23181 C 2015.13 -5.91017 -0.212747 0
M  V30 23182 H 2014.06 -0.731304 -0.183605 0
M  V30 23183 H 2016.71 -1.81755 0.252461 0
M  V30 23184 H 2015.1 -3.57777 -1.69739 0
M  V30 23185 H 2016.27 -4.49591 1.01018 0
M  V30 23186 H 2014.59 -4.09446 0.757843 0
M  V30 23187 H 2017.18 -5.0099 -1.8685 0
M  V30 23188 H 2017.53 -3.38822 -2.41879 0
M  V30 23189 H 2018.06 -3.89713 -0.798029 0
M  V30 23190 H 2014.8 -6.52289 0.648008 0
M  V30 23191 H 2014.32 -5.92141 -0.955479 0
M  V30 23192 H 2016 -6.43638 -0.658675 0
M  V30 23193 N 2016.13 0.10854 -1.57226 0
M  V30 23194 C 2017.08 1.1326 -2.01099 0
M  V30 23195 C 2018.05 1.40564 -0.884932 0
M  V30 23196 O 2019.23 1.52253 -1.14994 0
M  V30 23197 C 2016.37 2.45125 -2.42915 0
M  V30 23198 C 2015.48 2.24667 -3.68983 0
M  V30 23199 C 2014.62 3.49836 -3.99736 0
M  V30 23200 C 2013.66 3.24581 -5.18954 0
M  V30 23201 N 2012.79 4.4198 -5.45525 0
M  V30 23202 H 2017.63 0.751475 -2.88369 0
M  V30 23203 H 2015.17 0.359547 -1.42638 0
M  V30 23204 H 2017.13 3.22063 -2.652 0
M  V30 23205 H 2015.76 2.8111 -1.58673 0
M  V30 23206 H 2014.81 1.38595 -3.54253 0
M  V30 23207 H 2016.12 2.01989 -4.56072 0
M  V30 23208 H 2015.28 4.35188 -4.22725 0
M  V30 23209 H 2014.02 3.75555 -3.11143 0
M  V30 23210 H 2013.02 2.37621 -4.95799 0
M  V30 23211 H 2014.25 3.00222 -6.09134 0
M  V30 23212 H 2012.19 4.678 -4.5989 0
M  V30 23213 H 2012.11 4.22445 -6.26958 0
M  V30 23214 H 2013.38 5.28436 -5.73041 0
M  V30 23215 N 2017.61 1.52975 0.379009 0
M  V30 23216 C 2018.54 1.81436 1.46981 0
M  V30 23217 C 2019.52 0.666985 1.56478 0
M  V30 23218 O 2020.7 0.915545 1.71264 0
M  V30 23219 C 2017.83 1.99221 2.84479 0
M  V30 23220 C 2016.79 3.14946 2.89816 0
M  V30 23221 C 2016.11 3.18001 4.2986 0
M  V30 23222 C 2017.41 4.53814 2.58554 0
M  V30 23223 H 2019.11 2.72781 1.23413 0
M  V30 23224 H 2016.65 1.31257 0.592257 0
M  V30 23225 H 2018.61 2.17714 3.60803 0
M  V30 23226 H 2017.33 1.04573 3.09406 0
M  V30 23227 H 2015.99 2.96251 2.15942 0
M  V30 23228 H 2015.64 2.21017 4.51841 0
M  V30 23229 H 2015.34 3.95746 4.34349 0
M  V30 23230 H 2016.86 3.38662 5.08075 0
M  V30 23231 H 2018.27 4.72559 3.24593 0
M  V30 23232 H 2016.67 5.33701 2.74379 0
M  V30 23233 H 2017.74 4.59845 1.53853 0
M  V30 23234 N 2019.08 -0.63804 1.44107 0
M  V30 23235 C 2020.01 -1.76164 1.5326 0
M  V30 23236 C 2021 -1.6566 0.386107 0
M  V30 23237 O 2022.18 -1.84525 0.605326 0
M  V30 23238 C 2019.31 -3.14665 1.4698 0
M  V30 23239 C 2018.26 -3.39949 2.60035 0
M  V30 23240 C 2017.59 -4.78409 2.38808 0
M  V30 23241 C 2018.89 -3.33193 4.02219 0
M  V30 23242 H 2020.58 -1.6876 2.47306 0
M  V30 23243 H 2018.13 -0.810483 1.19026 0
M  V30 23244 H 2020.08 -3.93037 1.51986 0
M  V30 23245 H 2018.81 -3.22835 0.494471 0
M  V30 23246 H 2017.47 -2.63955 2.54408 0
M  V30 23247 H 2017.11 -4.83274 1.39483 0
M  V30 23248 H 2016.81 -4.96285 3.14602 0
M  V30 23249 H 2018.34 -5.5902 2.4562 0
M  V30 23250 H 2019.75 -4.0148 4.09252 0
M  V30 23251 H 2018.15 -3.62605 4.78161 0
M  V30 23252 H 2019.22 -2.31116 4.26279 0
M  V30 23253 N 2020.56 -1.3089 -0.877815 0
M  V30 23254 C 2021.79 -1.23068 -1.66319 0
M  V30 23255 C 2022.21 0.205309 -1.8768 0
M  V30 23256 O 2021.56 1.13467 -1.42939 0
M  V30 23257 C 2021.61 -1.96305 -3.03557 0
M  V30 23258 O 2021.33 -3.34298 -2.83154 0
M  V30 23259 C 2022.84 -1.95228 -3.97996 0
M  V30 23260 H 2020.06 -0.425583 -0.518768 0
M  V30 23261 H 2022.6 -1.72636 -1.09623 0
M  V30 23262 H 2020.75 -1.50518 -3.56964 0
M  V30 23263 H 2021.17 -3.71486 -3.70268 0
M  V30 23264 H 2022.64 -2.50997 -4.91635 0
M  V30 23265 H 2023.12 -0.932904 -4.29178 0
M  V30 23266 H 2023.73 -2.40858 -3.50525 0
M  V30 23267 N 2022.04 1.0911 -1.13723 0
M  V30 23268 C 2023.32 1.77949 -0.812014 0
M  V30 23269 C 2023.7 1.99302 0.695832 0
M  V30 23270 O 2023.05 1.59704 1.63422 0
M  V30 23271 C 2023.26 3.10028 -1.60262 0
M  V30 23272 C 2024.6 3.84681 -1.79738 0
M  V30 23273 O 2025.63 3.19789 -1.56887 0
M  V30 23274 O 2024.49 5.01185 -2.17888 0
M  V30 23275 H 2021.58 0.7719 -0.296816 0
M  V30 23276 H 2024.13 1.15637 -1.24202 0
M  V30 23277 H 2022.9 2.8999 -2.62719 0
M  V30 23278 H 2022.52 3.80065 -1.16776 0
M  V30 23279 N 2023.52 0.931232 1.27145 0
M  V30 23280 C 2024.45 0.377419 2.25057 0
M  V30 23281 C 2025.43 -0.528197 1.53782 0
M  V30 23282 O 2026.61 -0.467903 1.826 0
M  V30 23283 C 2023.74 -0.4587 3.3558 0
M  V30 23284 C 2022.79 0.383982 4.24768 0
M  V30 23285 S 2023.62 1.80173 5.0428 0
M  V30 23286 C 2024.78 0.973395 6.18285 0
M  V30 23287 H 2025.01 1.20726 2.71685 0
M  V30 23288 H 2022.54 0.733657 1.35856 0
M  V30 23289 H 2024.5 -0.935236 3.99704 0
M  V30 23290 H 2023.16 -1.2631 2.87584 0
M  V30 23291 H 2022.35 -0.256158 5.03349 0
M  V30 23292 H 2021.96 0.794824 3.65457 0
M  V30 23293 H 2024.25 0.211028 6.77171 0
M  V30 23294 H 2025.19 1.73233 6.86583 0
M  V30 23295 H 2025.6 0.513847 5.62156 0
M  V30 23296 N 2025 -1.41343 0.697132 0
M  V30 23297 C 2025.94 -2.30777 0.0327941 0
M  V30 23298 C 2026.91 -1.47192 -0.769652 0
M  V30 23299 O 2028.1 -1.75976 -0.737366 0
M  V30 23300 C 2025.24 -3.33252 -0.896488 0
M  V30 23301 C 2024.35 -4.31915 -0.0854899 0
M  V30 23302 C 2023.49 -5.2146 -1.01256 0
M  V30 23303 C 2022.53 -6.11791 -0.194558 0
M  V30 23304 N 2021.66 -6.93813 -1.07551 0
M  V30 23305 H 2026.5 -2.87027 0.801203 0
M  V30 23306 H 2024.04 -1.41363 0.406815 0
M  V30 23307 H 2026 -3.91216 -1.44933 0
M  V30 23308 H 2024.63 -2.78548 -1.63128 0
M  V30 23309 H 2023.68 -3.75886 0.58429 0
M  V30 23310 H 2024.99 -4.95774 0.548612 0
M  V30 23311 H 2024.15 -5.84266 -1.63457 0
M  V30 23312 H 2022.89 -4.57832 -1.68051 0
M  V30 23313 H 2021.89 -5.48032 0.440518 0
M  V30 23314 H 2023.12 -6.77474 0.469626 0
M  V30 23315 H 2021.06 -6.32792 -1.72946 0
M  V30 23316 H 2020.98 -7.54364 -0.497018 0
M  V30 23317 H 2022.25 -7.61086 -1.68429 0
M  V30 23318 N 2026.48 -0.441993 -1.51275 0
M  V30 23319 C 2027.72 0.122911 -2.02127 0
M  V30 23320 C 2028.05 1.42305 -1.32588 0
M  V30 23321 O 2027.31 1.90895 -0.431013 0
M  V30 23322 C 2027.6 0.384298 -3.55328 0
M  V30 23323 C 2027.27 -0.830593 -4.43184 0
M  V30 23324 C 2025.93 -1.16375 -4.66916 0
M  V30 23325 C 2028.28 -1.64084 -4.94698 0
M  V30 23326 C 2025.61 -2.30775 -5.39407 0
M  V30 23327 C 2027.96 -2.77587 -5.68444 0
M  V30 23328 C 2026.63 -3.11351 -5.90438 0
M  V30 23329 H 2025.9 0.0449764 -0.739634 0
M  V30 23330 H 2028.55 -0.59014 -1.8218 0
M  V30 23331 H 2026.85 1.17929 -3.73631 0
M  V30 23332 H 2028.55 0.834882 -3.92213 0
M  V30 23333 H 2025.14 -0.560991 -4.24913 0
M  V30 23334 H 2029.32 -1.39665 -4.76243 0
M  V30 23335 H 2024.58 -2.57243 -5.54649 0
M  V30 23336 H 2028.75 -3.40736 -6.07348 0
M  V30 23337 H 2026.38 -4.00108 -6.46388 0
M  V30 23338 N 2027.95 1.56642 -0.173515 0
M  V30 23339 C 2029.18 2.01325 0.477079 0
M  V30 23340 C 2029.6 1.05373 1.56659 0
M  V30 23341 O 2028.95 0.0549577 1.82417 0
M  V30 23342 C 2029 3.45813 1.05337 0
M  V30 23343 O 2028.73 4.38099 0.00735116 0
M  V30 23344 C 2030.23 4.05907 1.78198 0
M  V30 23345 H 2027.45 0.659835 0.121896 0
M  V30 23346 H 2029.99 2.0263 -0.27589 0
M  V30 23347 H 2028.15 3.45275 1.75682 0
M  V30 23348 H 2028.56 5.22708 0.433152 0
M  V30 23349 H 2030.03 5.08923 2.13778 0
M  V30 23350 H 2030.51 3.48125 2.67779 0
M  V30 23351 H 2031.12 4.10154 1.12489 0
M  V30 23352 N 2029.43 -0.1002 1.57281 0
M  V30 23353 C 2030.38 -1.14082 2.02702 0
M  V30 23354 C 2031.37 -1.41773 0.927183 0
M  V30 23355 O 2032.58 -1.41514 1.11237 0
M  V30 23356 H 2028.95 -0.385095 0.645915 0
M  V30 23357 H 2030.93 -0.731375 2.89298 0
M  V30 23358 C 2029.67 -2.45424 2.46297 0
M  V30 23359 H 2029 -2.24959 3.30505 0
M  V30 23360 H 2030.44 -3.16752 2.81859 0
M  V30 23361 C 2028.9 -3.09356 1.33418 0
M  V30 23362 O 2029.43 -3.96233 0.660494 0
M  V30 23363 N 2027.63 -2.69526 1.08646 0
M  V30 23364 H 2027.18 -1.98972 1.63609 0
M  V30 23365 H 2027.14 -3.1263 0.333186 0
M  V30 23366 N 2030.91 -1.53174 -0.370891 0
M  V30 23367 C 2032.16 -1.69098 -1.11409 0
M  V30 23368 C 2032.48 -0.440066 -1.89456 0
M  V30 23369 O 2031.74 0.577901 -1.86973 0
M  V30 23370 C 2032.04 -2.88881 -2.10435 0
M  V30 23371 C 2031.7 -4.25602 -1.48908 0
M  V30 23372 C 2030.37 -4.62782 -1.31856 0
M  V30 23373 C 2032.72 -5.10648 -1.04346 0
M  V30 23374 C 2030.05 -5.8265 -0.688168 0
M  V30 23375 C 2032.4 -6.31157 -0.427093 0
M  V30 23376 C 2031.06 -6.67054 -0.244019 0
M  V30 23377 H 2030.33 -0.618775 -0.407674 0
M  V30 23378 H 2032.98 -1.8735 -0.396513 0
M  V30 23379 H 2031.28 -2.65119 -2.88477 0
M  V30 23380 H 2032.98 -2.98396 -2.67882 0
M  V30 23381 H 2029.57 -3.96324 -1.63173 0
M  V30 23382 H 2033.76 -4.82477 -1.16315 0
M  V30 23383 H 2029.01 -6.09057 -0.53469 0
M  V30 23384 H 2033.19 -6.96361 -0.0735755 0
M  V30 23385 H 2030.81 -7.598 0.246525 0
M  V30 23386 N 2032.39 0.630389 -1.44443 0
M  V30 23387 C 2033.32 1.75348 -1.54192 0
M  V30 23388 C 2034.3 1.65453 -0.394887 0
M  V30 23389 O 2035.48 1.84201 -0.615103 0
M  V30 23390 C 2032.61 3.13881 -1.48647 0
M  V30 23391 C 2031.57 3.38566 -2.61835 0
M  V30 23392 C 2030.89 4.77136 -2.41341 0
M  V30 23393 C 2032.19 3.31055 -4.0398 0
M  V30 23394 H 2033.89 1.67446 -2.48198 0
M  V30 23395 H 2031.43 0.804159 -1.19454 0
M  V30 23396 H 2033.39 3.92226 -1.54068 0
M  V30 23397 H 2032.11 3.22568 -0.511585 0
M  V30 23398 H 2030.77 2.62602 -2.55805 0
M  V30 23399 H 2030.42 4.82527 -1.42043 0
M  V30 23400 H 2030.12 4.9461 -3.1723 0
M  V30 23401 H 2031.64 5.57709 -2.48581 0
M  V30 23402 H 2033.06 3.99304 -4.11375 0
M  V30 23403 H 2031.45 3.60064 -4.80077 0
M  V30 23404 H 2032.52 2.28852 -4.27498 0
M  V30 23405 N 2033.87 1.31354 0.870861 0
M  V30 23406 C 2035.11 1.20988 1.62383 0
M  V30 23407 C 2035.44 -0.232177 1.93109 0
M  V30 23408 O 2034.7 -1.1807 1.56071 0
M  V30 23409 C 2034.99 1.99835 2.96312 0
M  V30 23410 C 2034.66 3.49342 2.85081 0
M  V30 23411 C 2033.32 3.90108 2.81725 0
M  V30 23412 C 2035.67 4.44485 2.72181 0
M  V30 23413 C 2033 5.24286 2.63327 0
M  V30 23414 C 2035.35 5.78787 2.5532 0
M  V30 23415 C 2034.02 6.18775 2.50347 0
M  V30 23416 H 2033.29 0.442726 0.594201 0
M  V30 23417 H 2035.94 1.62609 1.01146 0
M  V30 23418 H 2034.24 1.50892 3.61578 0
M  V30 23419 H 2035.94 1.89196 3.53562 0
M  V30 23420 H 2032.53 3.16954 2.8851 0
M  V30 23421 H 2036.71 4.13921 2.7383 0
M  V30 23422 H 2031.97 5.54344 2.57901 0
M  V30 23423 H 2036.14 6.52137 2.44315 0
M  V30 23424 H 2033.77 7.22689 2.3585 0
M  V30 23425 N 2035.34 -1.08505 1.143 0
M  V30 23426 C 2036.27 -2.1741 0.851769 0
M  V30 23427 C 2037.25 -1.69004 -0.192818 0
M  V30 23428 O 2038.44 -1.94136 -0.0497098 0
M  V30 23429 C 2035.57 -3.45754 0.327364 0
M  V30 23430 C 2034.52 -4.07547 1.30728 0
M  V30 23431 C 2033.85 -5.30829 0.642225 0
M  V30 23432 C 2035.15 -4.48945 2.66919 0
M  V30 23433 H 2036.84 -2.42029 1.76245 0
M  V30 23434 H 2034.39 -1.16322 0.848834 0
M  V30 23435 H 2036.34 -4.21253 0.111237 0
M  V30 23436 H 2035.07 -3.20686 -0.618737 0
M  V30 23437 H 2033.73 -3.34077 1.50956 0
M  V30 23438 H 2033.37 -5.02046 -0.309652 0
M  V30 23439 H 2033.07 -5.73128 1.29608 0
M  V30 23440 H 2034.6 -6.09044 0.435598 0
M  V30 23441 H 2036.01 -5.15626 2.50604 0
M  V30 23442 H 2034.41 -5.02158 3.28568 0
M  V30 23443 H 2035.48 -3.60882 3.23871 0
M  V30 23444 N 2036.82 -0.937962 -1.26649 0
M  V30 23445 C 2038.24 -0.639774 -1.46216 0
M  V30 23446 C 2038.44 0.807896 -1.84595 0
M  V30 23447 O 2037.49 1.58484 -1.96568 0
M  V30 23448 C 2038.81 -1.59844 -2.54697 0
M  V30 23449 C 2040.35 -1.60779 -2.6855 0
M  V30 23450 C 2040.83 -2.55367 -3.80199 0
M  V30 23451 N 2042.32 -2.53634 -3.87587 0
M  V30 23452 C 2043.06 -3.23509 -4.73423 0
M  V30 23453 N 2042.55 -4.02798 -5.63671 0
M  V30 23454 N 2044.34 -3.12477 -4.67242 0
M  V30 23455 H 2036.5 -1.87374 -1.00025 0
M  V30 23456 H 2038.76 -0.805036 -0.500621 0
M  V30 23457 H 2038.46 -2.63168 -2.33314 0
M  V30 23458 H 2038.34 -1.34802 -3.5229 0
M  V30 23459 H 2040.73 -0.581808 -2.89308 0
M  V30 23460 H 2040.81 -1.89873 -1.71411 0
M  V30 23461 H 2040.45 -3.58081 -3.60195 0
M  V30 23462 H 2040.38 -2.23564 -4.76788 0
M  V30 23463 H 2042.87 -1.96058 -3.23063 0
M  V30 23464 H 2043.18 -4.53075 -6.26053 0
M  V30 23465 H 2041.53 -4.069 -5.63434 0
M  V30 23466 H 2044.72 -2.50018 -3.95738 0
M  V30 23467 H 2044.89 -3.67201 -5.33917 0
M  V30 23468 N 2038.3 1.40971 -0.704618 0
M  V30 23469 C 2039.25 2.32576 -0.0337552 0
M  V30 23470 C 2040.24 1.51452 0.758852 0
M  V30 23471 O 2041.45 1.67327 0.663455 0
M  V30 23472 H 2037.82 0.751959 0.00788634 0
M  V30 23473 H 2039.79 2.86819 -0.823248 0
M  V30 23474 C 2038.54 3.36326 0.882061 0
M  V30 23475 H 2037.87 3.98807 0.281575 0
M  V30 23476 H 2039.31 4.02942 1.31962 0
M  V30 23477 C 2037.76 2.70931 2.00245 0
M  V30 23478 O 2038.29 2.56412 3.09218 0
M  V30 23479 N 2036.5 2.29485 1.78284 0
M  V30 23480 H 2036.05 2.41494 0.89657 0
M  V30 23481 H 2036.01 1.86067 2.5343 0
M  V30 23482 N 2039.78 0.45001 1.51039 0
M  V30 23483 C 2040.71 -0.345315 2.30933 0
M  V30 23484 C 2041.69 -1.00959 1.36899 0
M  V30 23485 O 2042.87 -1.0108 1.6582 0
M  V30 23486 C 2040 -1.43968 3.16055 0
M  V30 23487 C 2038.96 -0.898198 4.18469 0
M  V30 23488 C 2038.28 -2.08927 4.92193 0
M  V30 23489 C 2039.58 0.0760911 5.22245 0
M  V30 23490 H 2041.28 0.321441 2.97669 0
M  V30 23491 H 2038.82 0.156032 1.43152 0
M  V30 23492 H 2040.78 -2.00338 3.70732 0
M  V30 23493 H 2039.5 -2.1349 2.47163 0
M  V30 23494 H 2038.16 -0.356617 3.64861 0
M  V30 23495 H 2037.81 -2.77098 4.19792 0
M  V30 23496 H 2037.51 -1.73328 5.61454 0
M  V30 23497 H 2039.03 -2.65827 5.49698 0
M  V30 23498 H 2040.45 -0.397728 5.71919 0
M  V30 23499 H 2038.84 0.345281 5.99106 0
M  V30 23500 H 2039.91 1.00878 4.74291 0
M  V30 23501 N 2041.26 -1.56548 0.18182 0
M  V30 23502 C 2042.49 -2.01282 -0.465719 0
M  V30 23503 C 2042.89 -1.06114 -1.56641 0
M  V30 23504 O 2042.24 -0.0558759 -1.83615 0
M  V30 23505 C 2042.3 -3.42432 -1.09454 0
M  V30 23506 C 2041.96 -4.56803 -0.134223 0
M  V30 23507 C 2042.96 -5.15803 0.651409 0
M  V30 23508 C 2040.65 -5.02293 -0.026997 0
M  V30 23509 C 2042.64 -6.18731 1.53137 0
M  V30 23510 C 2040.33 -6.05068 0.856532 0
M  V30 23511 C 2041.32 -6.63159 1.63429 0
M  V30 23512 O 2041.01 -7.63939 2.50303 0
M  V30 23513 H 2040.74 -0.664789 -0.122603 0
M  V30 23514 H 2043.3 -2.0343 0.283825 0
M  V30 23515 H 2041.53 -3.3723 -1.89242 0
M  V30 23516 H 2043.22 -3.71056 -1.64536 0
M  V30 23517 H 2043.98 -4.81534 0.5788 0
M  V30 23518 H 2039.86 -4.56782 -0.622173 0
M  V30 23519 H 2043.41 -6.64001 2.13888 0
M  V30 23520 H 2039.3 -6.38761 0.930305 0
M  V30 23521 H 2040.07 -7.81305 2.43935 0
M  V30 23522 N 2042.73 0.0918577 -1.57332 0
M  V30 23523 C 2043.96 0.807046 -1.90185 0
M  V30 23524 C 2044.37 1.72642 -0.774035 0
M  V30 23525 O 2043.72 1.81811 0.262746 0
M  V30 23526 C 2043.78 1.67067 -3.18322 0
M  V30 23527 C 2043.44 0.922776 -4.47587 0
M  V30 23528 C 2044.44 0.251109 -5.19293 0
M  V30 23529 C 2042.12 0.895897 -4.94246 0
M  V30 23530 C 2044.12 -0.437433 -6.35897 0
M  V30 23531 C 2041.8 0.203571 -6.10761 0
M  V30 23532 C 2042.8 -0.461913 -6.81436 0
M  V30 23533 O 2042.49 -1.14313 -7.95731 0
M  V30 23534 H 2042.22 0.235807 -0.633539 0
M  V30 23535 H 2044.78 0.0725289 -2.05272 0
M  V30 23536 H 2043.01 2.4475 -2.9939 0
M  V30 23537 H 2044.7 2.26271 -3.36981 0
M  V30 23538 H 2045.46 0.263315 -4.84285 0
M  V30 23539 H 2041.34 1.40333 -4.39122 0
M  V30 23540 H 2044.88 -0.957435 -6.90999 0
M  V30 23541 H 2040.78 0.189223 -6.45223 0
M  V30 23542 H 2041.55 -1.05035 -8.11733 0
M  V30 23543 N 2044.21 1.53368 0.362763 0
M  V30 23544 C 2045.46 1.69687 1.10511 0
M  V30 23545 C 2045.79 0.450107 1.8922 0
M  V30 23546 O 2045.04 -0.567977 1.87277 0
M  V30 23547 C 2045.34 2.89992 2.089 0
M  V30 23548 C 2045.01 4.26386 1.46649 0
M  V30 23549 C 2043.67 4.63475 1.294 0
M  V30 23550 C 2046.02 5.11194 1.01636 0
M  V30 23551 C 2043.35 5.83007 0.657259 0
M  V30 23552 C 2045.7 6.31374 0.393615 0
M  V30 23553 C 2044.37 6.67174 0.20864 0
M  V30 23554 H 2043.64 0.620928 0.404387 0
M  V30 23555 H 2046.28 1.87558 0.386572 0
M  V30 23556 H 2044.59 2.66646 2.87067 0
M  V30 23557 H 2046.28 2.99812 2.66296 0
M  V30 23558 H 2042.87 3.97184 1.61069 0
M  V30 23559 H 2047.06 4.83087 1.13755 0
M  V30 23560 H 2042.31 6.09332 0.502383 0
M  V30 23561 H 2046.49 6.9639 0.0366447 0
M  V30 23562 H 2044.12 7.59659 -0.286816 0
M  V30 23563 N 2045.69 -0.62272 1.44776 0
M  V30 23564 C 2046.94 -1.38415 1.4822 0
M  V30 23565 C 2047.27 -1.93844 0.117595 0
M  V30 23566 O 2046.54 -1.7416 -0.865935 0
M  V30 23567 C 2046.83 -2.54325 2.54933 0
M  V30 23568 C 2046.68 -2.04192 4.00782 0
M  V30 23569 C 2048 -3.56495 2.58069 0
M  V30 23570 H 2045.12 -0.501939 0.539654 0
M  V30 23571 H 2047.76 -0.703347 1.76502 0
M  V30 23572 H 2045.91 -3.12403 2.30947 0
M  V30 23573 H 2047.58 -1.50879 4.35928 0
M  V30 23574 H 2045.83 -1.35308 4.12158 0
M  V30 23575 H 2046.5 -2.87679 4.7111 0
M  V30 23576 H 2048.97 -3.08232 2.79522 0
M  V30 23577 H 2047.85 -4.35106 3.34625 0
M  V30 23578 H 2048.11 -4.11119 1.62583 0
M  V30 23579 N 2047.17 -1.31814 -0.863883 0
M  V30 23580 C 2048.12 -1.19976 -1.97166 0
M  V30 23581 C 2049.09 -0.0840886 -1.65887 0
M  V30 23582 O 2050.27 -0.258021 -1.89047 0
M  V30 23583 C 2047.41 -0.919316 -3.3263 0
M  V30 23584 C 2046.52 -2.1189 -3.76466 0
M  V30 23585 C 2045.66 -1.77472 -5.00677 0
M  V30 23586 C 2044.7 -2.93804 -5.36978 0
M  V30 23587 N 2043.83 -2.59541 -6.52367 0
M  V30 23588 H 2048.67 -2.14735 -2.06623 0
M  V30 23589 H 2046.21 -1.06811 -1.01143 0
M  V30 23590 H 2048.17 -0.737251 -4.10634 0
M  V30 23591 H 2046.8 -0.0085443 -3.22799 0
M  V30 23592 H 2045.85 -2.41154 -2.94192 0
M  V30 23593 H 2047.16 -2.98939 -3.99295 0
M  V30 23594 H 2046.32 -1.55764 -5.86364 0
M  V30 23595 H 2045.06 -0.876231 -4.79764 0
M  V30 23596 H 2044.06 -3.16154 -4.49807 0
M  V30 23597 H 2045.29 -3.84371 -5.59853 0
M  V30 23598 H 2043.23 -1.72222 -6.32989 0
M  V30 23599 H 2043.15 -3.4012 -6.7517 0
M  V30 23600 H 2044.42 -2.4124 -7.41231 0
M  V30 23601 N 2048.65 1.07897 -1.14873 0
M  V30 23602 C 2049.89 1.80386 -0.920169 0
M  V30 23603 C 2050.22 1.86473 0.553002 0
M  V30 23604 O 2049.48 1.3404 1.4259 0
M  V30 23605 C 2049.78 3.25649 -1.47267 0
M  V30 23606 C 2049.44 3.39671 -2.96537 0
M  V30 23607 C 2048.1 3.43205 -3.37288 0
M  V30 23608 C 2050.46 3.42923 -3.92496 0
M  V30 23609 C 2047.78 3.47589 -4.72651 0
M  V30 23610 C 2050.14 3.48843 -5.27723 0
M  V30 23611 C 2048.8 3.50652 -5.67978 0
M  V30 23612 H 2048.07 0.66008 -0.336714 0
M  V30 23613 H 2050.72 1.27004 -1.43326 0
M  V30 23614 H 2049.02 3.81775 -0.880635 0
M  V30 23615 H 2050.72 3.80301 -1.2717 0
M  V30 23616 H 2047.31 3.37615 -2.64034 0
M  V30 23617 H 2051.49 3.39419 -3.62089 0
M  V30 23618 H 2046.75 3.47285 -5.03193 0
M  V30 23619 H 2050.92 3.50305 -6.0188 0
M  V30 23620 H 2048.55 3.53802 -6.72851 0
M  V30 23621 N 2050.12 0.944665 1.2615 0
M  V30 23622 C 2051.35 0.61007 1.97387 0
M  V30 23623 C 2051.76 -0.819956 1.70509 0
M  V30 23624 O 2051.11 -1.55879 0.971982 0
M  V30 23625 C 2051.17 0.776673 3.5101 0
M  V30 23626 C 2050.83 2.18198 4.01545 0
M  V30 23627 C 2051.83 3.15777 4.13014 0
M  V30 23628 C 2049.51 2.5035 4.35466 0
M  V30 23629 C 2051.51 4.43607 4.57703 0
M  V30 23630 C 2049.19 3.7841 4.79842 0
M  V30 23631 C 2050.19 4.74852 4.90922 0
M  V30 23632 O 2049.88 6.00632 5.34319 0
M  V30 23633 H 2049.61 0.228468 0.636222 0
M  V30 23634 H 2052.17 1.26867 1.61536 0
M  V30 23635 H 2050.4 0.0609398 3.86652 0
M  V30 23636 H 2052.09 0.44462 4.03457 0
M  V30 23637 H 2052.85 2.92263 3.8705 0
M  V30 23638 H 2048.73 1.76017 4.26074 0
M  V30 23639 H 2052.27 5.18885 4.66266 0
M  V30 23640 H 2048.17 4.01736 5.05251 0
M  V30 23641 H 2048.94 6.03864 5.52531 0
M  V30 23642 N 2051.6 -1.40596 0.712085 0
M  V30 23643 C 2052.57 -2.29105 0.0660369 0
M  V30 23644 C 2053.57 -1.45196 -0.690992 0
M  V30 23645 O 2054.76 -1.66151 -0.523417 0
M  V30 23646 C 2051.89 -3.2835 -0.916461 0
M  V30 23647 H 2053.08 -2.87734 0.845539 0
M  V30 23648 H 2050.63 -1.48859 0.476533 0
M  V30 23649 H 2051.37 -2.74733 -1.72314 0
M  V30 23650 H 2051.15 -3.90288 -0.376557 0
M  V30 23651 H 2052.64 -3.94634 -1.36578 0
M  V30 23652 N 2053.08 -0.458013 -1.50798 0
M  V30 23653 C 2054.33 0.101617 -2.02545 0
M  V30 23654 C 2054.66 1.4054 -1.34023 0
M  V30 23655 O 2053.93 1.88941 -0.461705 0
M  V30 23656 C 2054.22 0.298998 -3.58857 0
M  V30 23657 C 2054.07 -1.02488 -4.37968 0
M  V30 23658 C 2055.39 1.05949 -4.27157 0
M  V30 23659 H 2052.51 0.0354565 -0.736147 0
M  V30 23660 H 2055.15 -0.601052 -1.80243 0
M  V30 23661 H 2053.3 0.89752 -3.77991 0
M  V30 23662 H 2054.97 -1.65898 -4.30437 0
M  V30 23663 H 2053.22 -1.62464 -4.02229 0
M  V30 23664 H 2053.89 -0.840572 -5.45562 0
M  V30 23665 H 2056.36 0.55231 -4.12418 0
M  V30 23666 H 2055.24 1.16639 -5.36364 0
M  V30 23667 H 2055.5 2.09283 -3.89427 0
M  V30 23668 N 2054.56 1.56449 -0.190119 0
M  V30 23669 C 2055.79 2.01819 0.455699 0
M  V30 23670 C 2056.2 1.07029 1.55532 0
M  V30 23671 O 2055.56 0.0743024 1.82349 0
M  V30 23672 C 2055.61 3.4691 1.01663 0
M  V30 23673 O 2055.33 4.38083 -0.0391156 0
M  V30 23674 C 2056.83 4.07774 1.73882 0
M  V30 23675 H 2054.05 0.661091 0.114891 0
M  V30 23676 H 2056.6 2.02326 -0.297366 0
M  V30 23677 H 2054.75 3.47118 1.7201 0
M  V30 23678 H 2055.17 5.23138 0.377687 0
M  V30 23679 H 2056.64 5.11162 2.08368 0
M  V30 23680 H 2057.12 3.50946 2.64071 0
M  V30 23681 H 2057.72 4.11324 1.08132 0
M  V30 23682 N 2056.04 -0.0835127 1.57379 0
M  V30 23683 C 2057.29 -0.783318 1.86302 0
M  V30 23684 C 2057.61 -1.787 0.780472 0
M  V30 23685 O 2056.88 -1.94956 -0.192101 0
M  V30 23686 H 2055.46 -0.292281 0.687445 0
M  V30 23687 H 2058.12 -0.0623868 1.948 0
M  V30 23688 H 2057.21 -1.30677 2.83425 0
M  V30 23689 N 2057.52 -1.53558 -0.354624 0
M  V30 23690 C 2058.79 -1.60886 -1.11243 0
M  V30 23691 C 2059.17 -0.423192 -2.06815 0
M  V30 23692 O 2058.52 0.585579 -2.20869 0
M  V30 23693 C 2058.73 -2.96439 -1.84188 0
M  V30 23694 C 2060.08 -3.51404 -2.38329 0
M  V30 23695 O 2061.1 -2.9854 -1.94299 0
M  V30 23696 O 2059.96 -4.43843 -3.1885 0
M  V30 23697 H 2057.06 -0.650291 -0.510932 0
M  V30 23698 H 2059.6 -1.65902 -0.357007 0
M  V30 23699 H 2058.37 -3.74173 -1.145 0
M  V30 23700 H 2058 -2.94963 -2.66613 0
M  V30 23701 N 2058.99 0.615033 -1.45104 0
M  V30 23702 C 2059.92 1.73703 -1.56043 0
M  V30 23703 C 2060.9 1.65025 -0.412413 0
M  V30 23704 O 2062.09 1.83539 -0.634606 0
M  V30 23705 C 2059.22 3.12287 -1.51968 0
M  V30 23706 C 2058.17 3.35769 -2.65411 0
M  V30 23707 C 2057.5 4.74549 -2.46389 0
M  V30 23708 C 2058.8 3.26752 -4.07469 0
M  V30 23709 H 2060.49 1.64805 -2.4996 0
M  V30 23710 H 2058.04 0.791445 -1.203 0
M  V30 23711 H 2059.99 3.9057 -1.58219 0
M  V30 23712 H 2058.72 3.22008 -0.545769 0
M  V30 23713 H 2057.38 2.59874 -2.58575 0
M  V30 23714 H 2057.02 4.80994 -1.47153 0
M  V30 23715 H 2056.72 4.91217 -3.22458 0
M  V30 23716 H 2058.25 5.55041 -2.54482 0
M  V30 23717 H 2059.66 3.94918 -4.15587 0
M  V30 23718 H 2058.06 3.54952 -4.83869 0
M  V30 23719 H 2059.13 2.24305 -4.29902 0
M  V30 23720 N 2060.47 1.3227 0.85688 0
M  V30 23721 C 2061.7 1.25698 1.6434 0
M  V30 23722 C 2062.11 -0.175425 1.87983 0
M  V30 23723 O 2061.47 -1.11179 1.44726 0
M  V30 23724 C 2061.52 2.0111 3.00395 0
M  V30 23725 O 2061.24 3.38761 2.778 0
M  V30 23726 C 2062.74 2.01535 3.9484 0
M  V30 23727 H 2059.96 0.433782 0.511932 0
M  V30 23728 H 2062.51 1.74358 1.06863 0
M  V30 23729 H 2060.66 1.56178 3.54524 0
M  V30 23730 H 2061.08 3.7733 3.64311 0
M  V30 23731 H 2062.55 2.58787 4.87579 0
M  V30 23732 H 2063.03 1.00106 4.27639 0
M  V30 23733 H 2063.63 2.46404 3.46648 0
M  V30 23734 N 2061.95 -1.07287 1.15444 0
M  V30 23735 C 2063.18 -1.83348 0.952215 0
M  V30 23736 C 2063.59 -1.82396 -0.50282 0
M  V30 23737 O 2062.93 -1.23432 -1.36052 0
M  V30 23738 C 2062.99 -3.31539 1.39004 0
M  V30 23739 C 2062.66 -3.56209 2.86293 0
M  V30 23740 C 2063.65 -3.50097 3.84354 0
M  V30 23741 C 2061.34 -3.83854 3.23977 0
M  V30 23742 C 2063.33 -3.7128 5.18102 0
M  V30 23743 C 2061.02 -4.04688 4.57898 0
M  V30 23744 C 2062.02 -3.98396 5.5477 0
M  V30 23745 O 2061.71 -4.18672 6.86271 0
M  V30 23746 H 2061.44 -0.585295 0.338239 0
M  V30 23747 H 2063.99 -1.36329 1.53634 0
M  V30 23748 H 2062.22 -3.79371 0.74932 0
M  V30 23749 H 2063.91 -3.89066 1.15682 0
M  V30 23750 H 2064.68 -3.28741 3.56587 0
M  V30 23751 H 2060.56 -3.87866 2.49161 0
M  V30 23752 H 2064.1 -3.66284 5.93702 0
M  V30 23753 H 2060 -4.25531 4.8538 0
M  V30 23754 H 2060.76 -4.36016 6.92699 0
M  V30 23755 N 2063.43 -0.951342 -1.25647 0
M  V30 23756 C 2064.65 -0.620954 -1.97886 0
M  V30 23757 C 2065.08 0.799383 -1.70269 0
M  V30 23758 O 2064.44 1.54005 -0.956672 0
M  V30 23759 C 2064.48 -0.881873 -3.4965 0
M  V30 23760 O 2063.59 0.0409801 -4.1238 0
M  V30 23761 H 2062.93 -0.236433 -0.62048 0
M  V30 23762 H 2065.46 -1.27704 -1.59852 0
M  V30 23763 H 2065.47 -0.806823 -3.99943 0
M  V30 23764 H 2064.14 -1.91708 -3.69081 0
M  V30 23765 H 2062.72 -0.0859938 -3.72801 0
M  V30 23766 N 2064.91 1.40216 -0.719531 0
M  V30 23767 C 2066.15 2.00047 -0.25771 0
M  V30 23768 C 2066.47 1.57718 1.15692 0
M  V30 23769 O 2067.67 2.10275 1.71746 0
M  V30 23770 C 2066.13 3.57559 -0.409824 0
M  V30 23771 C 2065.74 4.08859 -1.83134 0
M  V30 23772 C 2067.48 4.24499 -0.00899594 0
M  V30 23773 C 2065.39 5.58889 -1.93383 0
M  V30 23774 H 2064.32 0.748293 -0.0925975 0
M  V30 23775 H 2066.97 1.60406 -0.891188 0
M  V30 23776 H 2065.35 3.9492 0.292302 0
M  V30 23777 H 2066.53 3.82867 -2.56417 0
M  V30 23778 H 2064.84 3.54529 -2.18399 0
M  V30 23779 H 2067.44 5.34661 -0.0647997 0
M  V30 23780 H 2067.78 4.03267 1.0335 0
M  V30 23781 H 2068.31 3.92258 -0.66171 0
M  V30 23782 H 2065.05 5.8498 -2.95767 0
M  V30 23783 H 2064.57 5.86733 -1.24517 0
M  V30 23784 H 2066.25 6.24054 -1.70778 0
M  V30 23785 N 2066.38 0.466004 1.50553 0
M  V30 23786 C 2067.33 -0.344889 2.30029 0
M  V30 23787 C 2068.33 -0.995031 1.37097 0
M  V30 23788 O 2069.53 -0.926717 1.54311 0
M  V30 23789 H 2065.91 -0.130059 0.740668 0
M  V30 23790 H 2067.88 0.345888 2.96389 0
M  V30 23791 C 2066.63 -1.41723 3.17506 0
M  V30 23792 H 2065.95 -0.926335 3.8892 0
M  V30 23793 H 2067.39 -1.95728 3.7612 0
M  V30 23794 C 2065.85 -2.41636 2.34763 0
M  V30 23795 O 2066.38 -3.46798 2.02716 0
M  V30 23796 N 2064.58 -2.13228 1.97439 0
M  V30 23797 H 2064.13 -1.27733 2.23701 0
M  V30 23798 H 2064.09 -2.80313 1.4238 0
M  V30 23799 N 2067.86 -1.56346 0.198413 0
M  V30 23800 C 2068.81 -2.20589 -0.737791 0
M  V30 23801 C 2069.8 -1.17807 -1.21729 0
M  V30 23802 O 2071.01 -1.35944 -1.1798 0
M  V30 23803 H 2067.38 -0.706982 -0.256282 0
M  V30 23804 H 2069.36 -2.97902 -0.172284 0
M  V30 23805 C 2068.1 -2.88187 -1.94534 0
M  V30 23806 H 2067.43 -3.6702 -1.58545 0
M  V30 23807 H 2068.87 -3.3657 -2.57869 0
M  V30 23808 C 2067.33 -1.89401 -2.7862 0
M  V30 23809 O 2067.86 -1.39638 -3.76649 0
M  V30 23810 N 2066.06 -1.57557 -2.4418 0
M  V30 23811 H 2065.61 -1.98218 -1.64521 0
M  V30 23812 H 2065.57 -0.917179 -3.00724 0
M  V30 23813 N 2069.34 0.0751653 -1.57421 0
M  V30 23814 C 2070.57 0.791793 -1.91691 0
M  V30 23815 C 2070.99 1.70496 -0.794522 0
M  V30 23816 O 2070.35 1.79528 0.25284 0
M  V30 23817 C 2070.4 1.5643 -3.24903 0
M  V30 23818 O 2069.5 2.67473 -3.13898 0
M  V30 23819 H 2068.84 0.21624 -0.627803 0
M  V30 23820 H 2071.37 0.0444189 -2.04552 0
M  V30 23821 H 2071.38 1.94427 -3.58695 0
M  V30 23822 H 2070.06 0.894266 -4.06172 0
M  V30 23823 H 2068.63 2.32357 -2.91658 0
M  V30 23824 N 2070.82 1.53744 0.346476 0
M  V30 23825 C 2072.04 1.75095 1.1116 0
M  V30 23826 C 2072.47 0.487459 1.81674 0
M  V30 23827 O 2071.83 -0.55973 1.72443 0
M  V30 23828 C 2071.87 2.92927 2.103 0
M  V30 23829 O 2070.98 2.62871 3.17762 0
M  V30 23830 H 2070.32 0.580905 0.321629 0
M  V30 23831 H 2072.85 2.00696 0.397762 0
M  V30 23832 H 2072.86 3.19633 2.53572 0
M  V30 23833 H 2071.53 3.84566 1.58372 0
M  V30 23834 H 2070.11 2.47043 2.79328 0
M  V30 23835 N 2072.3 -0.607329 1.45428 0
M  V30 23836 C 2073.55 -1.36242 1.48731 0
M  V30 23837 C 2073.86 -1.95145 0.13329 0
M  V30 23838 O 2075.06 -2.71464 0.0439733 0
M  V30 23839 C 2073.52 -2.46792 2.61957 0
M  V30 23840 C 2073.13 -1.94299 4.03673 0
M  V30 23841 C 2074.87 -3.238 2.74507 0
M  V30 23842 C 2072.78 -3.02333 5.0828 0
M  V30 23843 H 2071.71 -0.512076 0.553438 0
M  V30 23844 H 2074.36 -0.650885 1.71568 0
M  V30 23845 H 2072.74 -3.20632 2.32404 0
M  V30 23846 H 2073.92 -1.27167 4.42905 0
M  V30 23847 H 2072.23 -1.30036 3.95575 0
M  V30 23848 H 2074.83 -4.0438 3.4983 0
M  V30 23849 H 2075.17 -3.7482 1.8115 0
M  V30 23850 H 2075.7 -2.5706 3.03587 0
M  V30 23851 H 2072.44 -2.56229 6.03346 0
M  V30 23852 H 2071.96 -3.68031 4.73617 0
M  V30 23853 H 2073.64 -3.6671 5.33041 0
M  V30 23854 N 2073.77 -1.32722 -0.849853 0
M  V30 23855 C 2075 -1.26385 -1.63433 0
M  V30 23856 C 2075.41 0.169573 -1.88439 0
M  V30 23857 O 2074.76 1.11866 -1.45711 0
M  V30 23858 C 2074.82 -1.95887 -3.01444 0
M  V30 23859 C 2074.48 -3.45215 -2.99459 0
M  V30 23860 C 2075.48 -4.40614 -2.75962 0
M  V30 23861 C 2073.16 -3.87223 -3.19943 0
M  V30 23862 C 2075.16 -5.75996 -2.72959 0
M  V30 23863 C 2072.84 -5.22713 -3.16566 0
M  V30 23864 C 2073.84 -6.16911 -2.93104 0
M  V30 23865 O 2073.53 -7.49921 -2.8961 0
M  V30 23866 H 2073.26 -0.437171 -0.515614 0
M  V30 23867 H 2075.82 -1.75479 -1.06754 0
M  V30 23868 H 2074.05 -1.41369 -3.59933 0
M  V30 23869 H 2075.74 -1.83194 -3.62208 0
M  V30 23870 H 2076.5 -4.09484 -2.59899 0
M  V30 23871 H 2072.38 -3.14321 -3.37229 0
M  V30 23872 H 2075.92 -6.49494 -2.54566 0
M  V30 23873 H 2071.82 -5.53471 -3.32175 0
M  V30 23874 H 2072.59 -7.59338 -3.0553 0
M  V30 23875 N 2075.25 1.06673 -1.16011 0
M  V30 23876 C 2076.18 2.16027 -0.886249 0
M  V30 23877 C 2077.16 1.69289 0.165907 0
M  V30 23878 O 2078.35 1.94191 0.0188181 0
M  V30 23879 C 2075.48 3.45189 -0.382329 0
M  V30 23880 C 2074.43 4.05415 -1.37195 0
M  V30 23881 C 2073.76 5.2974 -0.726594 0
M  V30 23882 C 2075.06 4.44642 -2.74027 0
M  V30 23883 H 2076.75 2.39195 -1.80073 0
M  V30 23884 H 2074.3 1.14957 -0.867232 0
M  V30 23885 H 2076.25 4.21023 -0.17824 0
M  V30 23886 H 2074.98 3.21629 0.567641 0
M  V30 23887 H 2073.63 3.31634 -1.56252 0
M  V30 23888 H 2073.28 5.02475 0.229742 0
M  V30 23889 H 2072.98 5.70993 -1.38709 0
M  V30 23890 H 2074.51 6.08274 -0.532437 0
M  V30 23891 H 2075.92 5.11574 -2.58775 0
M  V30 23892 H 2074.32 4.96868 -3.36515 0
M  V30 23893 H 2075.39 3.55684 -3.29571 0
M  V30 23894 N 2076.73 0.957992 1.25141 0
M  V30 23895 C 2077.97 0.622306 1.94696 0
M  V30 23896 C 2078.33 -0.825845 1.73331 0
M  V30 23897 O 2079.54 -1.27128 2.36837 0
M  V30 23898 C 2077.81 0.975207 3.43838 0
M  V30 23899 S 2079.37 0.752603 4.32298 0
M  V30 23900 H 2076.18 0.228622 0.673241 0
M  V30 23901 H 2078.79 1.23288 1.51724 0
M  V30 23902 H 2077.49 2.02624 3.56892 0
M  V30 23903 H 2077.02 0.355017 3.91795 0
M  V30 23904 H 2079.04 -0.374938 4.94781 0
M  V30 23905 N 2078.21 -1.39832 0.726957 0
M  V30 23906 C 2079.43 -2.05501 0.280008 0
M  V30 23907 C 2079.86 -1.54436 -1.07383 0
M  V30 23908 O 2079.22 -0.684615 -1.67877 0
M  V30 23909 C 2079.26 -3.59492 0.282502 0
M  V30 23910 O 2078.37 -4.05842 -0.732546 0
M  V30 23911 H 2077.71 -0.651361 0.128936 0
M  V30 23912 H 2080.24 -1.79019 0.990626 0
M  V30 23913 H 2080.25 -4.07811 0.124104 0
M  V30 23914 H 2078.92 -3.96022 1.27041 0
M  V30 23915 H 2077.5 -3.68956 -0.540943 0
M  V30 23916 N 2079.69 -0.473982 -1.50304 0
M  V30 23917 C 2081.1 -0.128306 -1.59083 0
M  V30 23918 C 2081.3 1.3654 -1.48186 0
M  V30 23919 O 2080.36 2.13895 -1.34183 0
M  V30 23920 C 2081.67 -0.681074 -2.92885 0
M  V30 23921 C 2083.22 -0.644759 -3.06287 0
M  V30 23922 C 2083.69 -1.17512 -4.42668 0
M  V30 23923 N 2085.19 -1.13466 -4.49088 0
M  V30 23924 C 2085.92 -1.5155 -5.5301 0
M  V30 23925 N 2085.42 -1.97098 -6.64172 0
M  V30 23926 N 2087.21 -1.43135 -5.4357 0
M  V30 23927 H 2079.36 -1.44543 -1.55631 0
M  V30 23928 H 2081.62 -0.597921 -0.735659 0
M  V30 23929 H 2081.33 -1.72759 -3.06345 0
M  V30 23930 H 2081.2 -0.126258 -3.76989 0
M  V30 23931 H 2083.59 0.392851 -2.92473 0
M  V30 23932 H 2083.67 -1.23641 -2.23934 0
M  V30 23933 H 2083.32 -2.21138 -4.57231 0
M  V30 23934 H 2083.25 -0.559658 -5.23618 0
M  V30 23935 H 2085.74 -0.800623 -3.69322 0
M  V30 23936 H 2086.05 -2.24298 -7.39534 0
M  V30 23937 H 2084.39 -2.01052 -6.65284 0
M  V30 23938 H 2087.59 -1.0739 -4.55615 0
M  V30 23939 H 2087.76 -1.73141 -6.24441 0
M  V30 23940 N 2081.16 1.56239 -0.206702 0
M  V30 23941 C 2082.11 2.20977 0.726082 0
M  V30 23942 C 2083.11 1.18451 1.21102 0
M  V30 23943 O 2084.31 1.36568 1.17257 0
M  V30 23944 H 2080.69 0.708331 0.252529 0
M  V30 23945 H 2082.66 2.97989 0.156483 0
M  V30 23946 C 2081.41 2.89215 1.93003 0
M  V30 23947 H 2080.73 3.67855 1.56597 0
M  V30 23948 H 2082.17 3.37933 2.56081 0
M  V30 23949 C 2080.63 1.90876 2.77611 0
M  V30 23950 O 2081.16 1.41633 3.75903 0
M  V30 23951 N 2079.37 1.5885 2.43341 0
M  V30 23952 H 2078.91 1.99088 1.63468 0
M  V30 23953 H 2078.87 0.933114 3.00234 0
M  V30 23954 N 2082.64 -0.0668159 1.57458 0
M  V30 23955 C 2083.87 -0.776687 1.91445 0
M  V30 23956 C 2084.28 -1.71389 0.801403 0
M  V30 23957 O 2083.62 -1.82206 -0.233788 0
M  V30 23958 C 2083.69 -1.61981 3.2094 0
M  V30 23959 C 2083.35 -0.851453 4.48998 0
M  V30 23960 C 2084.35 -0.168463 5.19627 0
M  V30 23961 C 2082.03 -0.817153 4.95609 0
M  V30 23962 C 2084.03 0.538543 6.35121 0
M  V30 23963 C 2081.71 -0.106378 6.11007 0
M  V30 23964 C 2082.71 0.570265 6.80615 0
M  V30 23965 O 2082.4 1.26958 7.93812 0
M  V30 23966 H 2082.13 -0.225698 0.63721 0
M  V30 23967 H 2084.68 -0.0398627 2.05361 0
M  V30 23968 H 2082.91 -2.39956 3.03246 0
M  V30 23969 H 2084.6 -2.20882 3.40538 0
M  V30 23970 H 2085.37 -0.186236 4.84642 0
M  V30 23971 H 2081.25 -1.33329 4.41299 0
M  V30 23972 H 2084.79 1.06725 6.89388 0
M  V30 23973 H 2080.69 -0.0865497 6.45442 0
M  V30 23974 H 2081.46 1.17936 8.09959 0
M  V30 23975 N 2084.12 -1.53926 -0.338317 0
M  V30 23976 C 2085.05 -1.85269 -1.42119 0
M  V30 23977 C 2086.03 -0.708238 -1.54654 0
M  V30 23978 O 2087.22 -0.960631 -1.68777 0
M  V30 23979 C 2084.35 -2.06693 -2.79097 0
M  V30 23980 C 2083.3 -3.22519 -2.81364 0
M  V30 23981 C 2082.63 -3.29286 -4.21277 0
M  V30 23982 C 2083.93 -4.6051 -2.46431 0
M  V30 23983 H 2085.62 -2.75957 -1.16137 0
M  V30 23984 H 2083.17 -1.32781 -0.557249 0
M  V30 23985 H 2085.12 -2.27204 -3.54903 0
M  V30 23986 H 2083.84 -1.1274 -3.06524 0
M  V30 23987 H 2082.5 -3.01872 -2.08011 0
M  V30 23988 H 2082.15 -2.32919 -4.45823 0
M  V30 23989 H 2081.85 -4.07123 -4.23704 0
M  V30 23990 H 2083.38 -3.52014 -4.98918 0
M  V30 23991 H 2084.79 -4.80999 -3.1195 0
M  V30 23992 H 2083.19 -5.40788 -2.60132 0
M  V30 23993 H 2084.26 -4.63762 -1.41607 0
M  V30 23994 N 2085.6 0.599608 -1.45748 0
M  V30 23995 C 2086.51 1.73797 -1.57581 0
M  V30 23996 C 2087.53 1.67812 -0.45992 0
M  V30 23997 O 2088.7 1.88024 -0.721718 0
M  V30 23998 C 2085.77 3.10276 -1.54693 0
M  V30 23999 C 2084.83 3.27654 -2.77383 0
M  V30 24000 C 2084.06 4.57622 -2.74623 0
M  V30 24001 O 2084.28 5.40449 -1.82404 0
M  V30 24002 O 2083.22 4.77885 -3.65937 0
M  V30 24003 H 2087.04 1.66764 -2.53818 0
M  V30 24004 H 2084.63 0.764651 -1.28349 0
M  V30 24005 H 2086.51 3.91573 -1.55719 0
M  V30 24006 H 2085.19 3.17783 -0.616105 0
M  V30 24007 H 2084.09 2.45914 -2.81917 0
M  V30 24008 H 2085.43 3.25028 -3.69618 0
M  V30 24009 N 2087.08 1.33171 0.842803 0
M  V30 24010 C 2088.32 1.24405 1.5978 0
M  V30 24011 C 2088.65 -0.191163 1.93558 0
M  V30 24012 O 2087.91 -1.14732 1.5854 0
M  V30 24013 C 2088.21 2.06076 2.92006 0
M  V30 24014 C 2087.87 3.5531 2.77607 0
M  V30 24015 C 2086.53 3.95996 2.73387 0
M  V30 24016 C 2088.89 4.50158 2.62692 0
M  V30 24017 C 2086.21 5.29754 2.52147 0
M  V30 24018 C 2088.57 5.84073 2.42986 0
M  V30 24019 C 2087.23 6.23946 2.37166 0
M  V30 24020 H 2086.5 0.45523 0.584676 0
M  V30 24021 H 2089.15 1.64718 0.97674 0
M  V30 24022 H 2087.45 1.58528 3.58296 0
M  V30 24023 H 2089.15 1.96653 3.49469 0
M  V30 24024 H 2085.74 3.23003 2.81722 0
M  V30 24025 H 2089.92 4.19636 2.64989 0
M  V30 24026 H 2085.18 5.59689 2.46085 0
M  V30 24027 H 2089.35 6.57173 2.30427 0
M  V30 24028 H 2086.98 7.27529 2.20467 0
M  V30 24029 N 2088.56 -1.06056 1.16576 0
M  V30 24030 C 2089.8 -1.78287 0.943219 0
M  V30 24031 C 2090.12 -1.88283 -0.529992 0
M  V30 24032 O 2091.32 -2.57167 -0.870491 0
M  V30 24033 C 2089.78 -3.20448 1.63832 0
M  V30 24034 C 2089.39 -3.18611 3.14946 0
M  V30 24035 C 2091.13 -3.97196 1.49784 0
M  V30 24036 C 2089.04 -4.55507 3.77183 0
M  V30 24037 H 2087.97 -0.668232 0.34926 0
M  V30 24038 H 2090.62 -1.1894 1.39734 0
M  V30 24039 H 2089 -3.80069 1.11191 0
M  V30 24040 H 2090.18 -2.68559 3.7445 0
M  V30 24041 H 2088.49 -2.55362 3.28906 0
M  V30 24042 H 2091.09 -4.98397 1.93661 0
M  V30 24043 H 2091.43 -4.13892 0.447129 0
M  V30 24044 H 2091.96 -3.44104 1.99594 0
M  V30 24045 H 2088.7 -4.44017 4.82213 0
M  V30 24046 H 2088.22 -5.05743 3.22465 0
M  V30 24047 H 2089.9 -5.24461 3.7888 0
M  V30 24048 N 2090.03 -0.964615 -1.24631 0
M  V30 24049 C 2090.96 -0.511091 -2.27838 0
M  V30 24050 C 2091.94 0.447692 -1.64103 0
M  V30 24051 O 2093.13 0.344485 -1.9112 0
M  V30 24052 C 2090.26 0.202467 -3.46709 0
M  V30 24053 C 2089.21 -0.672032 -4.22691 0
M  V30 24054 C 2088.54 0.172842 -5.34421 0
M  V30 24055 C 2089.84 -1.9551 -4.84327 0
M  V30 24056 H 2091.53 -1.37371 -2.66025 0
M  V30 24057 H 2089.08 -0.661983 -1.27882 0
M  V30 24058 H 2091.03 0.530942 -4.18042 0
M  V30 24059 H 2089.76 1.09942 -3.07539 0
M  V30 24060 H 2088.42 -0.983734 -3.53155 0
M  V30 24061 H 2088.06 1.06985 -4.91491 0
M  V30 24062 H 2087.76 -0.409046 -5.86175 0
M  V30 24063 H 2089.29 0.496057 -6.08582 0
M  V30 24064 H 2090.7 -1.69241 -5.4775 0
M  V30 24065 H 2089.1 -2.48346 -5.46301 0
M  V30 24066 H 2090.17 -2.65197 -4.05954 0
M  V30 24067 N 2091.51 1.39445 -0.734362 0
M  V30 24068 C 2092.46 2.32452 -0.0830804 0
M  V30 24069 C 2093.45 1.53028 0.726556 0
M  V30 24070 O 2094.66 1.68697 0.627813 0
M  V30 24071 H 2091.03 0.751957 -0.00806559 0
M  V30 24072 H 2093.01 2.85008 -0.883901 0
M  V30 24073 C 2091.75 3.38121 0.810522 0
M  V30 24074 H 2091.08 3.99315 0.196919 0
M  V30 24075 H 2092.52 4.0565 1.23385 0
M  V30 24076 C 2090.98 2.75118 1.94453 0
M  V30 24077 O 2091.51 2.62913 3.0371 0
M  V30 24078 N 2089.71 2.33215 1.73376 0
M  V30 24079 H 2089.26 2.43341 0.845144 0
M  V30 24080 H 2089.22 1.914 2.49426 0
M  V30 24081 N 2092.99 0.481946 1.5005 0
M  V30 24082 C 2094.21 -0.0688814 2.07286 0
M  V30 24083 C 2094.64 -1.3178 1.34222 0
M  V30 24084 O 2094 -1.76986 0.393135 0
M  V30 24085 C 2094.05 -0.324885 3.59133 0
M  V30 24086 O 2093.15 -1.40333 3.87789 0
M  V30 24087 H 2092.49 0.0177812 0.663762 0
M  V30 24088 H 2095.02 0.676104 1.93106 0
M  V30 24089 H 2095.03 -0.562135 4.04109 0
M  V30 24090 H 2093.71 0.587698 4.11727 0
M  V30 24091 H 2092.28 -1.15253 3.54642 0
M  V30 24092 N 2094.47 -1.56127 0.214985 0
M  V30 24093 C 2095.72 -1.97304 -0.41881 0
M  V30 24094 C 2096.03 -1.10547 -1.61366 0
M  V30 24095 O 2097.24 -1.41593 -2.31654 0
M  V30 24096 C 2095.69 -3.50975 -0.796509 0
M  V30 24097 C 2095.3 -4.46426 0.375156 0
M  V30 24098 C 2097.04 -4.0088 -1.39627 0
M  V30 24099 C 2094.95 -5.91395 -0.0246118 0
M  V30 24100 H 2093.88 -0.736775 -0.160246 0
M  V30 24101 H 2096.53 -1.8086 0.310157 0
M  V30 24102 H 2094.91 -3.62996 -1.58271 0
M  V30 24103 H 2096.09 -4.46149 1.15271 0
M  V30 24104 H 2094.4 -4.06827 0.887721 0
M  V30 24105 H 2097 -5.06681 -1.70816 0
M  V30 24106 H 2097.34 -3.46346 -2.30977 0
M  V30 24107 H 2097.88 -3.92055 -0.673641 0
M  V30 24108 H 2094.61 -6.49897 0.855201 0
M  V30 24109 H 2094.13 -5.94881 -0.766611 0
M  V30 24110 H 2095.81 -6.45408 -0.453573 0
M  V30 24111 N 2095.95 0.0584645 -1.57492 0
M  V30 24112 C 2097.19 0.75396 -1.87078 0
M  V30 24113 C 2097.51 1.78063 -0.809512 0
M  V30 24114 O 2098.71 2.52664 -0.993649 0
M  V30 24115 C 2097.17 1.39192 -3.31894 0
M  V30 24116 C 2096.78 0.403126 -4.46183 0
M  V30 24117 C 2098.52 2.069 -3.70665 0
M  V30 24118 C 2096.43 1.04775 -5.82045 0
M  V30 24119 H 2095.36 0.28534 -0.697923 0
M  V30 24120 H 2098.01 0.0075332 -1.83498 0
M  V30 24121 H 2096.39 2.18706 -3.30127 0
M  V30 24122 H 2097.57 -0.36317 -4.59367 0
M  V30 24123 H 2095.88 -0.170238 -4.16052 0
M  V30 24124 H 2098.48 2.55929 -4.69473 0
M  V30 24125 H 2098.82 2.87433 -3.01145 0
M  V30 24126 H 2099.35 1.342 -3.7448 0
M  V30 24127 H 2096.09 0.282468 -6.54891 0
M  V30 24128 H 2095.61 1.78459 -5.72636 0
M  V30 24129 H 2097.29 1.56372 -6.27819 0
M  V30 24130 N 2097.42 1.54103 0.330149 0
M  V30 24131 C 2098.33 1.86042 1.42918 0
M  V30 24132 C 2099.35 0.75174 1.56923 0
M  V30 24133 O 2100.53 1.04538 1.72145 0
M  V30 24134 C 2097.59 2.07533 2.77724 0
M  V30 24135 C 2096.65 3.31356 2.7295 0
M  V30 24136 C 2095.88 3.51812 4.01328 0
M  V30 24137 O 2096.11 2.75838 4.99269 0
M  V30 24138 O 2095.04 4.45275 4.04986 0
M  V30 24139 H 2098.87 2.79483 1.18839 0
M  V30 24140 H 2096.45 1.39925 0.523569 0
M  V30 24141 H 2098.33 2.23037 3.57537 0
M  V30 24142 H 2097.01 1.1728 3.01707 0
M  V30 24143 H 2095.92 3.21243 1.91712 0
M  V30 24144 H 2097.25 4.21645 2.53922 0
M  V30 24145 N 2098.9 -0.59187 1.46064 0
M  V30 24146 C 2100.15 -1.3504 1.50899 0
M  V30 24147 C 2100.48 -1.93865 0.156992 0
M  V30 24148 O 2099.73 -1.76455 -0.846284 0
M  V30 24149 C 2100.03 -2.50587 2.54835 0
M  V30 24150 C 2099.7 -2.09811 3.99111 0
M  V30 24151 C 2098.36 -1.98406 4.38393 0
M  V30 24152 C 2100.71 -1.78225 4.89781 0
M  V30 24153 C 2098.04 -1.53658 5.66221 0
M  V30 24154 C 2100.39 -1.34959 6.18036 0
M  V30 24155 C 2099.06 -1.22123 6.56233 0
M  V30 24156 H 2098.33 -0.494146 0.552178 0
M  V30 24157 H 2100.97 -0.667418 1.79493 0
M  V30 24158 H 2099.28 -3.24292 2.19868 0
M  V30 24159 H 2100.97 -3.08809 2.55809 0
M  V30 24160 H 2097.56 -2.1962 3.68056 0
M  V30 24161 H 2101.75 -1.85927 4.60158 0
M  V30 24162 H 2097 -1.42356 5.94596 0
M  V30 24163 H 2101.18 -1.09569 6.87726 0
M  V30 24164 H 2098.81 -0.872249 7.55179 0
M  V30 24165 N 2100.38 -1.33616 -0.835729 0
M  V30 24166 C 2101.29 -1.26175 -1.9778 0
M  V30 24167 C 2102.31 -0.171736 -1.7315 0
M  V30 24168 O 2103.48 -0.395895 -1.97471 0
M  V30 24169 C 2100.55 -1.00421 -3.31838 0
M  V30 24170 C 2099.61 -2.18454 -3.69563 0
M  V30 24171 C 2098.84 -1.93919 -4.97223 0
M  V30 24172 O 2099.06 -0.891065 -5.63397 0
M  V30 24173 O 2098 -2.80536 -5.32525 0
M  V30 24174 H 2101.82 -2.22227 -2.07 0
M  V30 24175 H 2099.41 -1.13694 -0.969228 0
M  V30 24176 H 2101.29 -0.877873 -4.12155 0
M  V30 24177 H 2099.97 -0.0739914 -3.23615 0
M  V30 24178 H 2098.87 -2.36642 -2.89743 0
M  V30 24179 H 2100.21 -3.09821 -3.82455 0
M  V30 24180 N 2101.86 1.05436 -1.17136 0
M  V30 24181 C 2102.81 2.1523 -0.881986 0
M  V30 24182 C 2103.8 1.68713 0.152395 0
M  V30 24183 O 2105.01 1.79999 0.00555059 0
M  V30 24184 H 2101.38 0.702752 -0.267664 0
M  V30 24185 H 2103.35 2.36842 -1.81517 0
M  V30 24186 C 2102.1 3.45286 -0.409046 0
M  V30 24187 H 2101.42 3.81478 -1.19644 0
M  V30 24188 H 2102.86 4.23289 -0.245428 0
M  V30 24189 C 2101.32 3.25396 0.872886 0
M  V30 24190 O 2101.85 3.51736 1.94023 0
M  V30 24191 N 2100.06 2.78789 0.820065 0
M  V30 24192 H 2099.61 2.57554 -0.0487256 0
M  V30 24193 H 2099.56 2.65861 1.67826 0
M  V30 24194 N 2103.34 0.971211 1.24118 0
M  V30 24195 C 2104.58 0.635022 1.92286 0
M  V30 24196 C 2104.91 -0.83026 1.75889 0
M  V30 24197 O 2104.17 -1.61322 1.10786 0
M  V30 24198 C 2104.47 0.960091 3.44263 0
M  V30 24199 C 2104.13 2.41409 3.80832 0
M  V30 24200 C 2102.79 2.81148 3.90524 0
M  V30 24201 C 2105.15 3.35755 3.98645 0
M  V30 24202 C 2102.47 4.14268 4.15451 0
M  V30 24203 C 2104.83 4.68508 4.25069 0
M  V30 24204 C 2103.49 5.08019 4.32981 0
M  V30 24205 H 2102.76 0.232371 0.703623 0
M  V30 24206 H 2105.41 1.22335 1.47331 0
M  V30 24207 H 2103.71 0.289561 3.90729 0
M  V30 24208 H 2105.41 0.678313 3.95221 0
M  V30 24209 H 2102 2.09597 3.73855 0
M  V30 24210 H 2106.18 3.06236 3.90555 0
M  V30 24211 H 2101.44 4.445 4.19797 0
M  V30 24212 H 2105.61 5.41579 4.37796 0
M  V30 24213 H 2103.24 6.11192 4.52049 0
M  V30 24214 N 2104.81 -1.39054 0.741747 0
M  V30 24215 C 2105.76 -2.30556 0.106197 0
M  V30 24216 C 2106.73 -1.49566 -0.722434 0
M  V30 24217 O 2107.92 -1.78233 -0.681008 0
M  V30 24218 C 2105.06 -3.35936 -0.790013 0
M  V30 24219 C 2104.17 -4.31969 0.051964 0
M  V30 24220 C 2103.3 -5.24418 -0.846146 0
M  V30 24221 C 2102.34 -6.121 0.000177444 0
M  V30 24222 N 2101.48 -6.96884 -0.854237 0
M  V30 24223 H 2106.32 -2.84333 0.892113 0
M  V30 24224 H 2103.86 -1.39997 0.451583 0
M  V30 24225 H 2105.82 -3.95629 -1.32413 0
M  V30 24226 H 2104.45 -2.83597 -1.54183 0
M  V30 24227 H 2103.5 -3.73837 0.70358 0
M  V30 24228 H 2104.81 -4.93777 0.706061 0
M  V30 24229 H 2103.96 -5.8917 -1.44786 0
M  V30 24230 H 2102.7 -4.62947 -1.53401 0
M  V30 24231 H 2101.71 -5.46353 0.614648 0
M  V30 24232 H 2102.93 -6.75637 0.684921 0
M  V30 24233 H 2100.88 -6.37974 -1.52727 0
M  V30 24234 H 2100.8 -7.55564 -0.256771 0
M  V30 24235 H 2102.06 -7.66059 -1.4413 0
M  V30 24236 N 2106.29 -0.489897 -1.49792 0
M  V30 24237 C 2107.24 0.294423 -2.28914 0
M  V30 24238 C 2108.21 0.970384 -1.34806 0
M  V30 24239 O 2109.39 0.979195 -1.63757 0
M  V30 24240 C 2106.53 1.35949 -3.17194 0
M  V30 24241 C 2105.65 0.696419 -4.2635 0
M  V30 24242 C 2104.78 1.74098 -5.0186 0
M  V30 24243 C 2103.82 1.05917 -6.02866 0
M  V30 24244 N 2102.96 2.04743 -6.71584 0
M  V30 24245 H 2107.8 -0.386562 -2.95482 0
M  V30 24246 H 2105.34 -0.202479 -1.457 0
M  V30 24247 H 2107.29 1.98886 -3.66743 0
M  V30 24248 H 2105.92 2.00938 -2.52633 0
M  V30 24249 H 2104.98 -0.0459714 -3.80372 0
M  V30 24250 H 2106.29 0.159163 -4.98546 0
M  V30 24251 H 2105.44 2.44568 -5.55222 0
M  V30 24252 H 2104.18 2.31207 -4.29412 0
M  V30 24253 H 2103.19 0.340189 -5.48747 0
M  V30 24254 H 2104.41 0.494725 -6.77296 0
M  V30 24255 H 2102.36 2.60835 -6.01915 0
M  V30 24256 H 2102.27 1.56053 -7.39718 0
M  V30 24257 H 2103.54 2.74536 -7.29555 0
M  V30 24258 N 2107.77 1.56011 -0.223262 0
M  V30 24259 C 2109.02 1.98348 0.407977 0
M  V30 24260 C 2109.35 1.11094 1.59651 0
M  V30 24261 O 2108.6 0.156272 1.95075 0
M  V30 24262 C 2108.9 3.46302 0.883731 0
M  V30 24263 C 2108.57 4.5048 -0.194465 0
M  V30 24264 C 2107.23 4.78692 -0.490651 0
M  V30 24265 C 2109.58 5.12952 -0.923571 0
M  V30 24266 C 2106.91 5.66657 -1.52043 0
M  V30 24267 C 2109.26 6.02032 -1.9427 0
M  V30 24268 C 2107.92 6.28586 -2.24579 0
M  V30 24269 H 2107.19 0.725806 0.149289 0
M  V30 24270 H 2109.84 1.88702 -0.326139 0
M  V30 24271 H 2108.15 3.53159 1.69664 0
M  V30 24272 H 2109.84 3.76432 1.38202 0
M  V30 24273 H 2106.43 4.28575 0.046538 0
M  V30 24274 H 2110.62 4.91224 -0.707988 0
M  V30 24275 H 2105.87 5.85495 -1.76086 0
M  V30 24276 H 2110.05 6.49489 -2.51272 0
M  V30 24277 H 2107.67 6.96545 -3.04515 0
M  V30 24278 N 2109.25 -0.0501116 1.5752 0
M  V30 24279 C 2110.18 -1.08964 2.00504 0
M  V30 24280 C 2111.16 -1.36365 0.885632 0
M  V30 24281 O 2112.34 -1.49375 1.14975 0
M  V30 24282 C 2109.47 -2.42922 2.36023 0
M  V30 24283 C 2108.52 -2.31517 3.58193 0
M  V30 24284 S 2109.35 -1.68858 5.0818 0
M  V30 24285 C 2110.51 -3.04349 5.46921 0
M  V30 24286 H 2110.74 -0.723433 2.88364 0
M  V30 24287 H 2108.27 -0.259394 1.52205 0
M  V30 24288 H 2110.23 -3.19968 2.57159 0
M  V30 24289 H 2108.89 -2.76697 1.48653 0
M  V30 24290 H 2108.08 -3.30356 3.80632 0
M  V30 24291 H 2107.69 -1.6261 3.36799 0
M  V30 24292 H 2109.98 -4.00678 5.46318 0
M  V30 24293 H 2110.92 -2.86666 6.47478 0
M  V30 24294 H 2111.33 -3.05953 4.74398 0
M  V30 24295 N 2110.73 -1.54276 -0.321972 0
M  V30 24296 C 2111.97 -1.72813 -1.0613 0
M  V30 24297 C 2112.31 -0.501222 -1.8762 0
M  V30 24298 O 2111.58 0.501806 -1.87915 0
M  V30 24299 C 2111.86 -3.00469 -1.9847 0
M  V30 24300 C 2111.72 -4.33415 -1.20299 0
M  V30 24301 C 2113.04 -3.23886 -2.97969 0
M  V30 24302 H 2110.15 -0.628793 -0.384432 0
M  V30 24303 H 2112.8 -1.86973 -0.337811 0
M  V30 24304 H 2110.95 -2.88528 -2.60161 0
M  V30 24305 H 2112.62 -4.57242 -0.610559 0
M  V30 24306 H 2110.86 -4.30847 -0.505293 0
M  V30 24307 H 2111.53 -5.18959 -1.8811 0
M  V30 24308 H 2114.01 -3.353 -2.46401 0
M  V30 24309 H 2112.88 -4.14562 -3.59763 0
M  V30 24310 H 2113.15 -2.4119 -3.70513 0
M  V30 24311 N 2112.2 0.584116 -1.46376 0
M  V30 24312 C 2113.15 1.69328 -1.56833 0
M  V30 24313 C 2114.12 1.60891 -0.412719 0
M  V30 24314 O 2115.31 1.80124 -0.629286 0
M  V30 24315 C 2112.45 3.07663 -1.56324 0
M  V30 24316 C 2111.56 3.26736 -2.82609 0
M  V30 24317 C 2110.69 4.55312 -2.73613 0
M  V30 24318 C 2109.73 4.67723 -3.94844 0
M  V30 24319 N 2108.87 5.87624 -3.84243 0
M  V30 24320 H 2113.71 1.59727 -2.51577 0
M  V30 24321 H 2111.25 0.778493 -1.24811 0
M  V30 24322 H 2113.21 3.87731 -1.54014 0
M  V30 24323 H 2111.84 3.16165 -0.651131 0
M  V30 24324 H 2110.89 2.40283 -2.94904 0
M  V30 24325 H 2112.2 3.31775 -3.72461 0
M  V30 24326 H 2111.35 5.43606 -2.69401 0
M  V30 24327 H 2110.09 4.52709 -1.81399 0
M  V30 24328 H 2109.1 3.77847 -3.99389 0
M  V30 24329 H 2110.32 4.72106 -4.88152 0
M  V30 24330 H 2108.27 5.86021 -2.94814 0
M  V30 24331 H 2108.19 5.93925 -4.67749 0
M  V30 24332 H 2109.45 6.78352 -3.84003 0
M  V30 24333 N 2113.68 1.34058 0.828631 0
M  V30 24334 C 2114.93 1.25437 1.57951 0
M  V30 24335 C 2115.25 -0.175484 1.94811 0
M  V30 24336 O 2116.45 -0.383797 2.68774 0
M  V30 24337 C 2114.91 2.19853 2.84943 0
M  V30 24338 C 2114.52 3.68064 2.55407 0
M  V30 24339 C 2116.26 2.20128 3.62966 0
M  V30 24340 C 2114.17 4.54366 3.78557 0
M  V30 24341 H 2113.1 0.465952 0.592794 0
M  V30 24342 H 2115.75 1.59187 0.912783 0
M  V30 24343 H 2114.13 1.79047 3.53211 0
M  V30 24344 H 2115.3 4.17373 1.95286 0
M  V30 24345 H 2113.62 3.70181 1.9067 0
M  V30 24346 H 2116.22 2.81831 4.54396 0
M  V30 24347 H 2116.56 1.19905 3.98658 0
M  V30 24348 H 2117.09 2.59349 3.01634 0
M  V30 24349 H 2113.83 5.55503 3.47989 0
M  V30 24350 H 2113.35 4.09795 4.37982 0
M  V30 24351 H 2115.03 4.68687 4.46029 0
M  V30 24352 N 2115.16 -1.04814 1.17694 0
M  V30 24353 C 2116.11 -2.12651 0.897118 0
M  V30 24354 C 2117.08 -1.65323 -0.160501 0
M  V30 24355 O 2118.26 -1.90787 -0.0224765 0
M  V30 24356 C 2115.4 -3.42526 0.420731 0
M  V30 24357 C 2114.52 -4.03508 1.54291 0
M  V30 24358 C 2113.65 -5.21315 1.02001 0
M  V30 24359 C 2112.69 -5.74311 2.11738 0
M  V30 24360 N 2111.83 -6.83415 1.60897 0
M  V30 24361 H 2116.67 -2.35925 1.82054 0
M  V30 24362 H 2114.2 -1.15736 0.907948 0
M  V30 24363 H 2116.16 -4.1701 0.126057 0
M  V30 24364 H 2114.79 -3.19423 -0.46572 0
M  V30 24365 H 2113.84 -3.26425 1.95323 0
M  V30 24366 H 2115.16 -4.38876 2.37042 0
M  V30 24367 H 2114.31 -6.02884 0.679408 0
M  V30 24368 H 2113.05 -4.87431 0.161982 0
M  V30 24369 H 2112.05 -4.91369 2.46651 0
M  V30 24370 H 2113.28 -6.10242 2.97963 0
M  V30 24371 H 2111.23 -6.51421 0.773715 0
M  V30 24372 H 2111.14 -7.17807 2.37252 0
M  V30 24373 H 2112.41 -7.68627 1.29741 0
M  V30 24374 N 2116.64 -0.977779 -1.23601 0
M  V30 24375 C 2117.55 -0.524039 -2.28672 0
M  V30 24376 C 2118.57 0.419894 -1.68858 0
M  V30 24377 O 2119.74 0.290458 -1.99295 0
M  V30 24378 C 2116.81 0.16886 -3.46289 0
M  V30 24379 C 2115.87 -0.81615 -4.21471 0
M  V30 24380 C 2115.1 -0.156223 -5.33471 0
M  V30 24381 O 2115.32 1.05329 -5.60591 0
M  V30 24382 O 2114.26 -0.853473 -5.95818 0
M  V30 24383 H 2118.08 -1.39778 -2.69622 0
M  V30 24384 H 2115.67 -0.745288 -1.29483 0
M  V30 24385 H 2117.55 0.557659 -4.17694 0
M  V30 24386 H 2116.23 1.0174 -3.07296 0
M  V30 24387 H 2115.13 -1.2556 -3.524 0
M  V30 24388 H 2116.47 -1.63342 -4.64306 0
M  V30 24389 N 2118.12 1.38658 -0.749111 0
M  V30 24390 C 2119.06 2.30496 -0.118423 0
M  V30 24391 C 2120.03 1.49947 0.714492 0
M  V30 24392 O 2121.22 1.78591 0.671546 0
M  V30 24393 C 2118.36 3.3635 0.772186 0
M  V30 24394 C 2117.47 4.31935 -0.0748716 0
M  V30 24395 C 2116.61 5.24859 0.818323 0
M  V30 24396 C 2115.65 6.12091 -0.0326386 0
M  V30 24397 N 2114.78 6.97327 0.817267 0
M  V30 24398 H 2119.62 2.83856 -0.90718 0
M  V30 24399 H 2117.16 1.39755 -0.459001 0
M  V30 24400 H 2119.12 3.96326 1.30313 0
M  V30 24401 H 2117.75 2.84411 1.52677 0
M  V30 24402 H 2116.8 3.73458 -0.723395 0
M  V30 24403 H 2118.11 4.93396 -0.732237 0
M  V30 24404 H 2117.27 5.8993 1.4166 0
M  V30 24405 H 2116.01 4.63754 1.50943 0
M  V30 24406 H 2115.01 5.4602 -0.643614 0
M  V30 24407 H 2116.24 6.75264 -0.720742 0
M  V30 24408 H 2114.18 6.38775 1.49341 0
M  V30 24409 H 2114.1 7.55689 0.216698 0
M  V30 24410 H 2115.37 7.66813 1.40066 0
M  V30 24411 N 2119.6 0.497834 1.49531 0
M  V30 24412 C 2120.84 -0.0478087 2.02444 0
M  V30 24413 C 2121.17 -1.37286 1.37778 0
M  V30 24414 O 2120.43 -1.89163 0.501565 0
M  V30 24415 C 2120.72 -0.252156 3.56509 0
M  V30 24416 C 2120.39 0.994505 4.39796 0
M  V30 24417 C 2119.05 1.33624 4.62275 0
M  V30 24418 C 2121.4 1.82331 4.88267 0
M  V30 24419 C 2118.73 2.50636 5.3047 0
M  V30 24420 C 2121.08 2.98493 5.5775 0
M  V30 24421 C 2119.75 3.3305 5.78475 0
M  V30 24422 H 2119.02 -0.0174944 0.740793 0
M  V30 24423 H 2121.67 0.657348 1.79864 0
M  V30 24424 H 2119.97 -1.03981 3.7775 0
M  V30 24425 H 2121.67 -0.68874 3.95041 0
M  V30 24426 H 2118.26 0.718308 4.22538 0
M  V30 24427 H 2122.44 1.57244 4.70731 0
M  V30 24428 H 2117.7 2.77651 5.4472 0
M  V30 24429 H 2121.87 3.63042 5.94284 0
M  V30 24430 H 2119.5 4.23822 6.31093 0
M  V30 24431 N 2121.07 -1.5589 0.231532 0
M  V30 24432 C 2122.35 -1.90424 -0.446981 0
M  V30 24433 C 2122.73 -1.15023 -1.77011 0
M  V30 24434 O 2122.08 -0.262744 -2.26984 0
M  V30 24435 C 2122.29 -3.43264 -0.630152 0
M  V30 24436 C 2123.64 -4.14221 -0.933046 0
M  V30 24437 O 2124.66 -3.48918 -0.716578 0
M  V30 24438 O 2123.52 -5.29705 -1.34441 0
M  V30 24439 H 2120.61 -0.792099 -0.237715 0
M  V30 24440 H 2123.16 -1.67466 0.274458 0
M  V30 24441 H 2121.93 -3.90127 0.302739 0
M  V30 24442 H 2121.55 -3.72035 -1.40271 0
M  V30 24443 N 2122.55 0.0417572 -1.57545 0
M  V30 24444 C 2123.8 0.734075 -1.87868 0
M  V30 24445 C 2124.11 1.77194 -0.828352 0
M  V30 24446 O 2125.32 2.51595 -1.02039 0
M  V30 24447 C 2123.78 1.35664 -3.33352 0
M  V30 24448 C 2123.38 0.355779 -4.46585 0
M  V30 24449 C 2125.13 2.02957 -3.72839 0
M  V30 24450 C 2123.03 0.985962 -5.83123 0
M  V30 24451 H 2121.96 0.277922 -0.70091 0
M  V30 24452 H 2124.62 -0.0119297 -1.83496 0
M  V30 24453 H 2123 2.15192 -3.32428 0
M  V30 24454 H 2124.17 -0.411871 -4.58956 0
M  V30 24455 H 2122.49 -0.214356 -4.15848 0
M  V30 24456 H 2125.08 2.50935 -4.72161 0
M  V30 24457 H 2125.43 2.84222 -3.04176 0
M  V30 24458 H 2125.96 1.3022 -3.75882 0
M  V30 24459 H 2122.7 0.212992 -6.55154 0
M  V30 24460 H 2122.22 1.72375 -5.74497 0
M  V30 24461 H 2123.9 1.49705 -6.29442 0
M  V30 24462 N 2124.03 1.54445 0.313786 0
M  V30 24463 C 2124.94 1.87547 1.40937 0
M  V30 24464 C 2125.96 0.768341 1.56117 0
M  V30 24465 O 2127.13 1.06358 1.71026 0
M  V30 24466 C 2124.2 2.10467 2.75508 0
M  V30 24467 C 2123.26 3.34232 2.69421 0
M  V30 24468 C 2122.49 3.56049 3.97574 0
M  V30 24469 O 2122.71 2.81118 4.96316 0
M  V30 24470 O 2121.65 4.49546 4.0024 0
M  V30 24471 H 2125.47 2.80728 1.15868 0
M  V30 24472 H 2123.06 1.40473 0.508698 0
M  V30 24473 H 2124.94 2.26817 3.55151 0
M  V30 24474 H 2123.62 1.20474 3.00446 0
M  V30 24475 H 2122.52 3.23259 1.88294 0
M  V30 24476 H 2123.86 4.24314 2.49436 0
M  V30 24477 N 2125.51 -0.576345 1.46683 0
M  V30 24478 C 2126.45 -1.68494 1.57729 0
M  V30 24479 C 2127.42 -1.6067 0.421246 0
M  V30 24480 O 2128.61 -1.79788 0.638829 0
M  V30 24481 C 2125.75 -3.0683 1.57953 0
M  V30 24482 C 2124.86 -3.25233 2.84337 0
M  V30 24483 C 2124 -4.53855 2.76024 0
M  V30 24484 C 2123.04 -4.65623 3.97319 0
M  V30 24485 N 2122.17 -5.85578 3.87354 0
M  V30 24486 H 2127.01 -1.58391 2.52421 0
M  V30 24487 H 2124.55 -0.771863 1.25223 0
M  V30 24488 H 2126.51 -3.86909 1.56068 0
M  V30 24489 H 2125.14 -3.15815 0.667889 0
M  V30 24490 H 2124.19 -2.38715 2.96174 0
M  V30 24491 H 2125.5 -3.29795 3.74215 0
M  V30 24492 H 2124.66 -5.4217 2.72281 0
M  V30 24493 H 2123.4 -4.51741 1.83797 0
M  V30 24494 H 2122.4 -3.75724 4.01387 0
M  V30 24495 H 2123.63 -4.69511 4.90649 0
M  V30 24496 H 2121.57 -5.84449 2.97918 0
M  V30 24497 H 2121.49 -5.91436 4.70892 0
M  V30 24498 H 2122.76 -6.76306 3.87596 0
M  V30 24499 N 2126.99 -1.34495 -0.82151 0
M  V30 24500 C 2128.22 -1.29823 -1.60716 0
M  V30 24501 C 2128.62 0.129564 -1.88756 0
M  V30 24502 O 2127.97 1.0875 -1.48051 0
M  V30 24503 C 2128.03 -2.02237 -2.97221 0
M  V30 24504 C 2127.69 -3.51489 -2.92069 0
M  V30 24505 C 2128.69 -4.46369 -2.66554 0
M  V30 24506 C 2126.37 -3.93923 -3.11657 0
M  V30 24507 C 2128.37 -5.81657 -2.6068 0
M  V30 24508 C 2126.06 -5.2931 -3.05408 0
M  V30 24509 C 2127.05 -6.22989 -2.79953 0
M  V30 24510 O 2126.74 -7.55895 -2.73638 0
M  V30 24511 H 2126.47 -0.44801 -0.506225 0
M  V30 24512 H 2129.03 -1.77704 -1.03008 0
M  V30 24513 H 2127.26 -1.48972 -3.56853 0
M  V30 24514 H 2128.95 -1.90836 -3.58241 0
M  V30 24515 H 2129.71 -4.14905 -2.51155 0
M  V30 24516 H 2125.59 -3.21403 -3.30486 0
M  V30 24517 H 2129.14 -6.54747 -2.40732 0
M  V30 24518 H 2125.03 -5.60392 -3.20361 0
M  V30 24519 H 2125.8 -7.65647 -2.89355 0
M  V30 24520 N 2128.46 1.04188 -1.18248 0
M  V30 24521 C 2129.88 1.58822 -0.981458 0
M  V30 24522 C 2130.23 1.90507 0.469187 0
M  V30 24523 O 2129.35 1.6942 1.34632 0
M  V30 24524 C 2129.95 2.88565 -1.77526 0
M  V30 24525 C 2128.51 3.3982 -1.61862 0
M  V30 24526 C 2127.65 2.13421 -1.77051 0
M  V30 24527 H 2130.6 0.868749 -1.3281 0
M  V30 24528 H 2130.62 3.58905 -1.26362 0
M  V30 24529 H 2130.14 2.65472 -2.83101 0
M  V30 24530 H 2128.24 3.67928 -0.588186 0
M  V30 24531 H 2128.35 4.13728 -2.4159 0
M  V30 24532 H 2126.71 2.24667 -1.19986 0
M  V30 24533 H 2127.5 1.92785 -2.84058 0
M  V30 24534 N 2129.94 0.98432 1.23081 0
M  V30 24535 C 2131.19 0.650883 1.90909 0
M  V30 24536 C 2131.5 -0.819701 1.77596 0
M  V30 24537 O 2132.71 -1.26436 2.40263 0
M  V30 24538 C 2131.17 1.11359 3.42239 0
M  V30 24539 C 2130.77 2.60879 3.64206 0
M  V30 24540 C 2132.52 0.854079 4.15819 0
M  V30 24541 C 2130.43 3.00797 5.09191 0
M  V30 24542 H 2129.36 0.239743 0.71487 0
M  V30 24543 H 2132.01 1.19274 1.39449 0
M  V30 24544 H 2130.39 0.499916 3.92832 0
M  V30 24545 H 2131.56 3.27519 3.24142 0
M  V30 24546 H 2129.88 2.84619 3.03942 0
M  V30 24547 H 2132.47 1.12812 5.22664 0
M  V30 24548 H 2132.82 -0.209813 4.15771 0
M  V30 24549 H 2133.35 1.42952 3.71227 0
M  V30 24550 H 2130.09 4.06326 5.14373 0
M  V30 24551 H 2129.61 2.38854 5.5019 0
M  V30 24552 H 2131.29 2.9162 5.77552 0
M  V30 24553 N 2131.42 -1.38259 0.756453 0
M  V30 24554 C 2132.7 -1.94131 0.239274 0
M  V30 24555 C 2133.08 -1.6915 -1.26299 0
M  V30 24556 O 2132.43 -1.03165 -2.03885 0
M  V30 24557 C 2132.64 -3.43872 0.596071 0
M  V30 24558 C 2133.98 -4.20927 0.557312 0
M  V30 24559 O 2135.01 -3.52166 0.534537 0
M  V30 24560 O 2133.87 -5.43511 0.57079 0
M  V30 24561 H 2130.96 -0.82543 0.0509403 0
M  V30 24562 H 2133.51 -1.47636 0.83677 0
M  V30 24563 H 2132.28 -3.55575 1.63348 0
M  V30 24564 H 2131.9 -3.97589 -0.0292809 0
M  V30 24565 N 2132.9 -0.505757 -1.49264 0
M  V30 24566 C 2134.31 -0.0591588 -1.86606 0
M  V30 24567 C 2134.66 1.35636 -1.41765 0
M  V30 24568 O 2133.79 2.01164 -0.797622 0
M  V30 24569 C 2134.38 -0.100581 -3.38651 0
M  V30 24570 C 2132.94 0.290698 -3.75276 0
M  V30 24571 C 2132.09 -0.471033 -2.7327 0
M  V30 24572 H 2135.04 -0.718294 -1.41514 0
M  V30 24573 H 2135.06 0.693588 -3.74125 0
M  V30 24574 H 2134.57 -1.13093 -3.71257 0
M  V30 24575 H 2132.67 1.3241 -3.48279 0
M  V30 24576 H 2132.78 -0.0320604 -4.79089 0
M  V30 24577 H 2131.15 0.0797288 -2.54575 0
M  V30 24578 H 2131.93 -1.50155 -3.0872 0
M  V30 24579 N 2134.38 1.55765 -0.239796 0
M  V30 24580 C 2135.61 2.02872 0.390693 0
M  V30 24581 C 2136.01 1.11855 1.52595 0
M  V30 24582 O 2135.36 0.123985 1.83281 0
M  V30 24583 C 2135.42 3.46259 0.966699 0
M  V30 24584 C 2135.08 4.56986 -0.0354088 0
M  V30 24585 C 2136.08 5.1303 -0.842397 0
M  V30 24586 C 2133.77 5.02047 -0.159444 0
M  V30 24587 C 2135.76 6.12621 -1.75995 0
M  V30 24588 C 2133.45 6.01472 -1.08051 0
M  V30 24589 C 2134.44 6.56637 -1.87929 0
M  V30 24590 O 2134.13 7.54123 -2.78484 0
M  V30 24591 H 2133.86 0.668881 0.0978453 0
M  V30 24592 H 2136.42 2.02236 -0.359131 0
M  V30 24593 H 2134.65 3.44022 1.76595 0
M  V30 24594 H 2136.34 3.76907 1.50652 0
M  V30 24595 H 2137.1 4.79054 -0.757119 0
M  V30 24596 H 2132.98 4.58777 0.452213 0
M  V30 24597 H 2136.53 6.55605 -2.38385 0
M  V30 24598 H 2132.42 6.34868 -1.16674 0
M  V30 24599 H 2133.19 7.71713 -2.72765 0
M  V30 24600 N 2135.85 -0.0334016 1.57565 0
M  V30 24601 C 2136.8 -1.05382 2.07358 0
M  V30 24602 C 2137.8 -1.37713 0.986479 0
M  V30 24603 O 2139 -1.36669 1.17139 0
M  V30 24604 H 2135.38 -0.357353 0.661667 0
M  V30 24605 H 2137.35 -0.608016 2.9214 0
M  V30 24606 C 2136.1 -2.34757 2.56485 0
M  V30 24607 H 2135.42 -2.10738 3.39749 0
M  V30 24608 H 2136.86 -3.04512 2.9504 0
M  V30 24609 C 2135.32 -3.03419 1.46419 0
M  V30 24610 O 2135.85 -3.93075 0.827955 0
M  V30 24611 N 2134.06 -2.64676 1.19979 0
M  V30 24612 H 2133.6 -1.91854 1.71901 0
M  V30 24613 H 2133.56 -3.10935 0.465483 0
M  V30 24614 N 2137.33 -1.54609 -0.305591 0
M  V30 24615 C 2138.58 -1.73672 -1.04137 0
M  V30 24616 C 2138.91 -0.520024 -1.87419 0
M  V30 24617 O 2138.16 0.49808 -1.89256 0
M  V30 24618 C 2138.46 -2.97546 -1.97993 0
M  V30 24619 C 2138.13 -4.31535 -1.30723 0
M  V30 24620 C 2136.79 -4.67958 -1.12109 0
M  V30 24621 C 2139.14 -5.14614 -0.825937 0
M  V30 24622 C 2136.47 -5.85045 -0.440427 0
M  V30 24623 C 2138.82 -6.324 -0.159014 0
M  V30 24624 C 2137.49 -6.67489 0.0391208 0
M  V30 24625 H 2136.76 -0.635509 -0.381063 0
M  V30 24626 H 2139.4 -1.88863 -0.316695 0
M  V30 24627 H 2137.71 -2.77116 -2.76973 0
M  V30 24628 H 2139.4 -3.09489 -2.54985 0
M  V30 24629 H 2135.99 -4.02888 -1.46217 0
M  V30 24630 H 2140.18 -4.86977 -0.957472 0
M  V30 24631 H 2135.43 -6.10777 -0.275887 0
M  V30 24632 H 2139.61 -6.96047 0.221841 0
M  V30 24633 H 2137.24 -7.58071 0.568561 0
M  V30 24634 N 2138.81 0.568558 -1.46987 0
M  V30 24635 C 2139.74 1.69147 -1.54668 0
M  V30 24636 C 2140.76 1.56914 -0.433789 0
M  V30 24637 O 2141.94 1.6408 -0.702853 0
M  V30 24638 C 2139.04 3.07522 -1.4242 0
M  V30 24639 C 2138.22 3.45619 -2.68078 0
M  V30 24640 C 2137.28 4.63111 -2.49829 0
M  V30 24641 O 2136.3 4.68261 -3.23605 0
M  V30 24642 N 2137.5 5.5889 -1.56914 0
M  V30 24643 H 2140.27 1.63008 -2.51492 0
M  V30 24644 H 2137.83 0.75491 -1.43223 0
M  V30 24645 H 2139.82 3.83937 -1.27963 0
M  V30 24646 H 2138.39 3.07949 -0.537222 0
M  V30 24647 H 2137.61 2.58767 -2.97378 0
M  V30 24648 H 2138.9 3.67844 -3.51523 0
M  V30 24649 H 2138.3 5.57477 -0.961042 0
M  V30 24650 H 2136.86 6.34678 -1.48414 0
M  V30 24651 N 2140.29 1.34929 0.814366 0
M  V30 24652 C 2141.52 1.30863 1.60257 0
M  V30 24653 C 2141.93 -0.11553 1.88446 0
M  V30 24654 O 2141.29 -1.06518 1.4819 0
M  V30 24655 C 2141.34 2.10565 2.93845 0
M  V30 24656 O 2141.06 3.47427 2.66882 0
M  V30 24657 C 2142.56 2.13994 3.88228 0
M  V30 24658 H 2139.78 0.449849 0.497872 0
M  V30 24659 H 2142.33 1.77669 1.01262 0
M  V30 24660 H 2140.48 1.67378 3.49376 0
M  V30 24661 H 2140.89 3.88729 3.52122 0
M  V30 24662 H 2142.37 2.74168 4.79099 0
M  V30 24663 H 2142.85 1.13661 4.24238 0
M  V30 24664 H 2143.45 2.57308 3.38634 0
M  V30 24665 N 2141.77 -1.0356 1.18799 0
M  V30 24666 C 2142.68 -2.15173 0.934763 0
M  V30 24667 C 2143.69 -1.73695 -0.102902 0
M  V30 24668 O 2144.87 -2.0124 0.0801886 0
M  V30 24669 C 2141.93 -3.43507 0.469463 0
M  V30 24670 C 2140.99 -3.99337 1.57571 0
M  V30 24671 C 2140.23 -5.21546 1.13251 0
M  V30 24672 O 2140.45 -5.704 -0.0066957 0
M  V30 24673 O 2139.38 -5.70039 1.93233 0
M  V30 24674 H 2143.21 -2.39393 1.86881 0
M  V30 24675 H 2140.8 -1.13608 0.970239 0
M  V30 24676 H 2142.68 -4.20834 0.218298 0
M  V30 24677 H 2141.35 -3.20747 -0.436226 0
M  V30 24678 H 2140.26 -3.23375 1.88095 0
M  V30 24679 H 2141.59 -4.26448 2.45771 0
M  V30 24680 N 2143.25 -0.990834 -1.22557 0
M  V30 24681 C 2144.49 -0.673707 -1.92978 0
M  V30 24682 C 2144.85 0.779598 -1.7546 0
M  V30 24683 O 2146.05 1.20804 -2.40124 0
M  V30 24684 C 2144.32 -1.06603 -3.41131 0
M  V30 24685 S 2145.88 -0.866954 -4.3015 0
M  V30 24686 H 2142.7 -0.246392 -0.666942 0
M  V30 24687 H 2145.3 -1.27268 -1.48402 0
M  V30 24688 H 2144 -2.12015 -3.51394 0
M  V30 24689 H 2143.54 -0.458769 -3.90716 0
M  V30 24690 H 2145.55 0.243623 -4.95602 0
M  V30 24691 N 2144.72 1.37856 -0.763775 0
M  V30 24692 C 2145.95 2.03864 -0.335144 0
M  V30 24693 C 2146.36 1.57732 1.04486 0
M  V30 24694 O 2145.7 0.750289 1.67679 0
M  V30 24695 C 2145.77 3.58323 -0.290657 0
M  V30 24696 C 2145.43 4.27554 -1.61391 0
M  V30 24697 C 2146.43 4.52225 -2.56494 0
M  V30 24698 C 2144.11 4.65542 -1.88615 0
M  V30 24699 C 2146.11 5.13931 -3.77033 0
M  V30 24700 C 2143.79 5.26971 -3.09426 0
M  V30 24701 C 2144.79 5.51102 -4.03455 0
M  V30 24702 O 2144.48 6.11248 -5.2214 0
M  V30 24703 H 2144.21 0.661438 -0.139556 0
M  V30 24704 H 2146.77 1.77331 -1.03648 0
M  V30 24705 H 2145 3.8387 0.467001 0
M  V30 24706 H 2146.68 4.05751 0.109828 0
M  V30 24707 H 2147.45 4.23296 -2.3674 0
M  V30 24708 H 2143.33 4.461 -1.16258 0
M  V30 24709 H 2146.87 5.32682 -4.5044 0
M  V30 24710 H 2142.77 5.55324 -3.29068 0
M  V30 24711 H 2143.54 6.29731 -5.22859 0
M  V30 24712 N 2146.2 0.513665 1.48994 0
M  V30 24713 C 2147.43 -0.0248975 2.07385 0
M  V30 24714 C 2147.85 -1.28903 1.36987 0
M  V30 24715 O 2147.21 -1.76113 0.430588 0
M  V30 24716 C 2147.26 -0.248634 3.59742 0
M  V30 24717 O 2146.36 -1.32076 3.90679 0
M  V30 24718 H 2145.7 0.0318565 0.663235 0
M  V30 24719 H 2148.23 0.716913 1.91629 0
M  V30 24720 H 2148.24 -0.476291 4.0521 0
M  V30 24721 H 2146.92 0.674899 4.10388 0
M  V30 24722 H 2145.49 -1.07705 3.57007 0
M  V30 24723 N 2147.68 -1.55636 0.248053 0
M  V30 24724 C 2148.93 -1.98148 -0.376864 0
M  V30 24725 C 2149.24 -1.13944 -1.58984 0
M  V30 24726 O 2150.45 -1.46475 -2.28598 0
M  V30 24727 C 2148.9 -3.52586 -0.721883 0
M  V30 24728 C 2148.51 -4.4553 0.469765 0
M  V30 24729 C 2150.26 -4.03751 -1.31093 0
M  V30 24730 C 2148.16 -5.91314 0.100837 0
M  V30 24731 H 2147.09 -0.740008 -0.144582 0
M  V30 24732 H 2149.74 -1.80161 0.348451 0
M  V30 24733 H 2148.13 -3.66272 -1.50536 0
M  V30 24734 H 2149.3 -4.43604 1.24708 0
M  V30 24735 H 2147.61 -4.04853 0.973816 0
M  V30 24736 H 2150.21 -5.10191 -1.6003 0
M  V30 24737 H 2150.55 -3.51167 -2.23578 0
M  V30 24738 H 2151.09 -3.93395 -0.590329 0
M  V30 24739 H 2147.83 -6.47937 0.992861 0
M  V30 24740 H 2147.35 -5.96373 -0.640255 0
M  V30 24741 H 2149.03 -6.46225 -0.316571 0
M  V30 24742 N 2149.16 0.0250451 -1.5758 0
M  V30 24743 C 2150.43 0.750684 -1.80621 0
M  V30 24744 C 2150.81 1.93359 -0.847083 0
M  V30 24745 O 2150.16 2.28236 0.109857 0
M  V30 24746 C 2150.37 1.17995 -3.28448 0
M  V30 24747 C 2151.72 1.5942 -3.93536 0
M  V30 24748 O 2152.74 1.27442 -3.32621 0
M  V30 24749 O 2151.6 2.18788 -5.00793 0
M  V30 24750 H 2148.7 0.363355 -0.742901 0
M  V30 24751 H 2151.24 0.00151411 -1.697 0
M  V30 24752 H 2150.02 0.335683 -3.89857 0
M  V30 24753 H 2149.64 1.98901 -3.44273 0
M  V30 24754 N 2150.64 1.54769 0.297388 0
M  V30 24755 C 2151.86 1.78543 1.05533 0
M  V30 24756 C 2152.29 0.54501 1.80031 0
M  V30 24757 O 2151.64 -0.504585 1.74137 0
M  V30 24758 C 2151.69 2.99469 2.00874 0
M  V30 24759 O 2150.8 2.72847 3.09238 0
M  V30 24760 H 2150.14 0.590843 0.302985 0
M  V30 24761 H 2152.67 2.0186 0.333711 0
M  V30 24762 H 2152.68 3.27538 2.43275 0
M  V30 24763 H 2151.35 3.8941 1.46058 0
M  V30 24764 H 2149.93 2.55805 2.71327 0
M  V30 24765 N 2152.11 -0.560755 1.47286 0
M  V30 24766 C 2153.36 -1.32004 1.53957 0
M  V30 24767 C 2153.69 -1.9317 0.199705 0
M  V30 24768 O 2152.97 -1.77676 -0.791288 0
M  V30 24769 C 2153.25 -2.43284 2.6549 0
M  V30 24770 C 2153.1 -1.87009 4.09081 0
M  V30 24771 C 2154.42 -3.45228 2.72957 0
M  V30 24772 H 2151.54 -0.478599 0.560457 0
M  V30 24773 H 2154.18 -0.627854 1.79327 0
M  V30 24774 H 2152.33 -3.02327 2.43989 0
M  V30 24775 H 2154.01 -1.32254 4.41935 0
M  V30 24776 H 2152.25 -1.17705 4.17526 0
M  V30 24777 H 2152.92 -2.67438 4.82888 0
M  V30 24778 H 2155.4 -2.96099 2.92344 0
M  V30 24779 H 2154.27 -4.20522 3.52778 0
M  V30 24780 H 2154.53 -4.03854 1.79874 0
M  V30 24781 N 2153.59 -1.35359 -0.807199 0
M  V30 24782 C 2154.54 -1.2823 -1.919 0
M  V30 24783 C 2155.51 -0.154371 -1.65381 0
M  V30 24784 O 2156.69 -0.337971 -1.87783 0
M  V30 24785 C 2153.83 -1.05957 -3.28431 0
M  V30 24786 C 2152.95 -2.27666 -3.6714 0
M  V30 24787 C 2152.08 -1.98548 -4.92699 0
M  V30 24788 C 2151.12 -3.16315 -5.24034 0
M  V30 24789 N 2150.26 -2.86976 -6.40772 0
M  V30 24790 H 2155.1 -2.23305 -1.97329 0
M  V30 24791 H 2152.63 -1.11004 -0.965216 0
M  V30 24792 H 2154.59 -0.910752 -4.07138 0
M  V30 24793 H 2153.22 -0.145447 -3.22472 0
M  V30 24794 H 2152.27 -2.53414 -2.83699 0
M  V30 24795 H 2153.59 -3.15606 -3.86257 0
M  V30 24796 H 2152.74 -1.80493 -5.7923 0
M  V30 24797 H 2151.48 -1.07893 -4.75616 0
M  V30 24798 H 2150.48 -3.34948 -4.35993 0
M  V30 24799 H 2151.71 -4.07771 -5.43047 0
M  V30 24800 H 2149.66 -1.98914 -6.25115 0
M  V30 24801 H 2149.57 -3.6845 -6.60137 0
M  V30 24802 H 2150.84 -2.72461 -7.30332 0
M  V30 24803 N 2155.07 1.02928 -1.19346 0
M  V30 24804 C 2156.3 1.79948 -1.02109 0
M  V30 24805 C 2156.71 1.83834 0.430184 0
M  V30 24806 O 2156.07 1.28209 1.2988 0
M  V30 24807 C 2156.12 3.25018 -1.58258 0
M  V30 24808 O 2155.84 3.21409 -2.97705 0
M  V30 24809 C 2157.34 4.18638 -1.45798 0
M  V30 24810 H 2154.56 0.566313 -0.359904 0
M  V30 24811 H 2157.11 1.29645 -1.58153 0
M  V30 24812 H 2155.26 3.72512 -1.06364 0
M  V30 24813 H 2155.68 4.12372 -3.24113 0
M  V30 24814 H 2157.15 5.1832 -1.89865 0
M  V30 24815 H 2157.63 4.37297 -0.408433 0
M  V30 24816 H 2158.23 3.77017 -1.96821 0
M  V30 24817 N 2156.55 0.997319 1.2203 0
M  V30 24818 C 2157.78 0.69324 1.94622 0
M  V30 24819 C 2158.19 -0.746899 1.73833 0
M  V30 24820 O 2157.53 -1.51616 1.03722 0
M  V30 24821 C 2157.59 0.92485 3.474 0
M  V30 24822 C 2157.25 2.35033 3.91929 0
M  V30 24823 C 2158.25 3.33011 3.99249 0
M  V30 24824 C 2155.94 2.68594 4.24456 0
M  V30 24825 C 2157.93 4.6262 4.38476 0
M  V30 24826 C 2155.62 3.98422 4.63361 0
M  V30 24827 C 2156.62 4.95246 4.70341 0
M  V30 24828 O 2156.3 6.22753 5.08363 0
M  V30 24829 H 2156.04 0.255247 0.625959 0
M  V30 24830 H 2158.59 1.33604 1.5601 0
M  V30 24831 H 2156.82 0.224877 3.86046 0
M  V30 24832 H 2158.51 0.61534 4.01209 0
M  V30 24833 H 2159.27 3.08416 3.74306 0
M  V30 24834 H 2155.15 1.9393 4.18225 0
M  V30 24835 H 2158.7 5.38194 4.43839 0
M  V30 24836 H 2154.59 4.22804 4.87757 0
M  V30 24837 H 2155.36 6.26755 5.26422 0
M  V30 24838 N 2158.03 -1.37449 0.771075 0
M  V30 24839 C 2159.44 -1.53106 0.450629 0
M  V30 24840 C 2159.64 -1.72957 -1.03384 0
M  V30 24841 O 2158.7 -1.75055 -1.81967 0
M  V30 24842 C 2160.01 -2.72792 1.26511 0
M  V30 24843 C 2161.56 -2.86653 1.25695 0
M  V30 24844 C 2162.03 -4.09321 2.05477 0
M  V30 24845 N 2163.53 -4.16432 2.02827 0
M  V30 24846 C 2164.26 -5.10381 2.61341 0
M  V30 24847 N 2163.76 -6.09892 3.2864 0
M  V30 24848 N 2165.55 -5.02859 2.51175 0
M  V30 24849 H 2157.7 -1.22815 1.73292 0
M  V30 24850 H 2159.96 -0.597977 0.735614 0
M  V30 24851 H 2159.67 -2.64586 2.31705 0
M  V30 24852 H 2159.54 -3.66457 0.893837 0
M  V30 24853 H 2161.93 -2.9433 0.213001 0
M  V30 24854 H 2162.01 -1.93949 1.66786 0
M  V30 24855 H 2161.66 -4.02404 3.09892 0
M  V30 24856 H 2161.59 -5.01137 1.61768 0
M  V30 24857 H 2164.08 -3.45173 1.53831 0
M  V30 24858 H 2164.39 -6.78106 3.70664 0
M  V30 24859 H 2162.73 -6.10172 3.32738 0
M  V30 24860 H 2165.93 -4.24063 1.98213 0
M  V30 24861 H 2166.1 -5.75893 2.97071 0
M  V30 24862 N 2159.5 -0.52156 -1.4872 0
M  V30 24863 C 2160.75 0.0155956 -2.02494 0
M  V30 24864 C 2161.08 1.35077 -1.39944 0
M  V30 24865 O 2160.33 1.88342 -0.531596 0
M  V30 24866 C 2160.63 0.195406 -3.56865 0
M  V30 24867 C 2160.3 -1.06435 -4.38158 0
M  V30 24868 C 2158.96 -1.40962 -4.6009 0
M  V30 24869 C 2161.31 -1.90076 -4.85305 0
M  V30 24870 C 2158.64 -2.59043 -5.26416 0
M  V30 24871 C 2160.99 -3.07328 -5.5293 0
M  V30 24872 C 2159.66 -3.42211 -5.73104 0
M  V30 24873 H 2158.93 0.00570684 -0.740978 0
M  V30 24874 H 2161.57 -0.68588 -1.78796 0
M  V30 24875 H 2159.88 0.979581 -3.79357 0
M  V30 24876 H 2161.58 0.625805 -3.96087 0
M  V30 24877 H 2158.17 -0.785439 -4.21342 0
M  V30 24878 H 2162.35 -1.64713 -4.6817 0
M  V30 24879 H 2157.61 -2.86282 -5.40234 0
M  V30 24880 H 2161.78 -3.72451 -5.88433 0
M  V30 24881 H 2159.41 -4.33809 -6.24271 0
M  V30 24882 N 2160.98 1.55502 -0.256304 0
M  V30 24883 C 2162.23 1.99168 0.365812 0
M  V30 24884 C 2162.56 1.14455 1.57259 0
M  V30 24885 O 2161.81 0.197615 1.947 0
M  V30 24886 C 2162.11 3.48098 0.810077 0
M  V30 24887 C 2161.78 4.49967 -0.289975 0
M  V30 24888 C 2160.44 4.77544 -0.592079 0
M  V30 24889 C 2162.79 5.10877 -1.03217 0
M  V30 24890 C 2160.12 5.63304 -1.64029 0
M  V30 24891 C 2162.47 5.97775 -2.06996 0
M  V30 24892 C 2161.14 6.23681 -2.37861 0
M  V30 24893 H 2160.41 0.728809 0.13386 0
M  V30 24894 H 2163.05 1.87968 -0.366092 0
M  V30 24895 H 2161.36 3.56679 1.62134 0
M  V30 24896 H 2163.05 3.79279 1.30186 0
M  V30 24897 H 2159.64 4.28577 -0.0443795 0
M  V30 24898 H 2163.83 4.89612 -0.812025 0
M  V30 24899 H 2159.08 5.81628 -1.88465 0
M  V30 24900 H 2163.26 6.44013 -2.64992 0
M  V30 24901 H 2160.89 6.89929 -3.19221 0
M  V30 24902 N 2162.46 -0.0166879 1.57591 0
M  V30 24903 C 2163.39 -1.01268 2.10398 0
M  V30 24904 C 2164.37 -1.36922 1.00928 0
M  V30 24905 O 2165.56 -1.45589 1.2852 0
M  V30 24906 C 2162.69 -2.30979 2.59357 0
M  V30 24907 C 2161.64 -2.09533 3.73202 0
M  V30 24908 C 2160.97 -3.45113 4.08413 0
M  V30 24909 C 2162.27 -1.47144 5.01145 0
M  V30 24910 H 2163.96 -0.573053 2.93865 0
M  V30 24911 H 2161.51 -0.274203 1.41365 0
M  V30 24912 H 2163.46 -3.00996 2.94923 0
M  V30 24913 H 2162.18 -2.77024 1.72989 0
M  V30 24914 H 2160.84 -1.41946 3.38004 0
M  V30 24915 H 2160.49 -3.88829 3.19094 0
M  V30 24916 H 2160.19 -3.31585 4.85104 0
M  V30 24917 H 2161.71 -4.16472 4.46524 0
M  V30 24918 H 2163.13 -2.07094 5.34588 0
M  V30 24919 H 2161.53 -1.44154 5.82529 0
M  V30 24920 H 2162.6 -0.438665 4.82912 0
M  V30 24921 N 2163.94 -1.54924 -0.289176 0
M  V30 24922 C 2165.16 -1.791 -1.04585 0
M  V30 24923 C 2165.59 -0.55455 -1.7974 0
M  V30 24924 O 2164.95 0.495343 -1.74402 0
M  V30 24925 C 2164.99 -3.0053 -1.99283 0
M  V30 24926 O 2164.1 -2.74483 -3.07787 0
M  V30 24927 H 2163.44 -0.592442 -0.299847 0
M  V30 24928 H 2165.97 -2.02034 -0.323001 0
M  V30 24929 H 2165.98 -3.28824 -2.41534 0
M  V30 24930 H 2164.65 -3.90179 -1.4399 0
M  V30 24931 H 2163.23 -2.5724 -2.69966 0
M  V30 24932 N 2165.42 0.552936 -1.47582 0
M  V30 24933 C 2166.69 1.31381 -1.44908 0
M  V30 24934 C 2167.07 2.10578 -0.148323 0
M  V30 24935 O 2166.42 2.11283 0.870167 0
M  V30 24936 C 2166.63 2.21471 -2.69725 0
M  V30 24937 C 2167.98 2.82353 -3.17115 0
M  V30 24938 O 2169 2.31771 -2.70482 0
M  V30 24939 O 2167.86 3.74302 -3.98196 0
M  V30 24940 H 2164.96 0.591798 -0.577672 0
M  V30 24941 H 2167.5 0.571486 -1.59788 0
M  V30 24942 H 2166.27 1.62579 -3.55926 0
M  V30 24943 H 2165.9 3.02992 -2.57452 0
M  V30 24944 N 2166.89 1.35785 0.800009 0
M  V30 24945 C 2167.82 1.31917 1.92666 0
M  V30 24946 C 2168.81 0.19244 1.69008 0
M  V30 24947 O 2169.99 0.388435 1.90276 0
M  V30 24948 C 2167.12 1.09703 3.29519 0
M  V30 24949 C 2166.07 2.19086 3.67675 0
M  V30 24950 C 2165.4 1.82029 5.02762 0
M  V30 24951 C 2166.7 3.611 3.77365 0
M  V30 24952 H 2168.39 2.26189 1.96161 0
M  V30 24953 H 2165.94 1.08882 0.94237 0
M  V30 24954 H 2167.89 1.05634 4.07945 0
M  V30 24955 H 2166.62 0.118779 3.26384 0
M  V30 24956 H 2165.28 2.22263 2.91539 0
M  V30 24957 H 2164.92 0.828056 4.96137 0
M  V30 24958 H 2164.62 2.55256 5.29262 0
M  V30 24959 H 2166.15 1.79497 5.83621 0
M  V30 24960 H 2167.56 3.60209 4.46007 0
M  V30 24961 H 2165.96 4.33143 4.1534 0
M  V30 24962 H 2167.03 3.96774 2.78744 0
M  V30 24963 N 2168.37 -1.02294 1.19891 0
M  V30 24964 C 2169.65 -1.72912 0.914382 0
M  V30 24965 C 2170.03 -2.0302 -0.57845 0
M  V30 24966 O 2169.38 -1.68961 -1.53833 0
M  V30 24967 C 2169.59 -3.00157 1.78064 0
M  V30 24968 C 2170.94 -3.73547 2.0186 0
M  V30 24969 O 2171.96 -3.10098 1.75265 0
M  V30 24970 O 2170.82 -4.87629 2.46738 0
M  V30 24971 H 2167.91 -0.753281 0.341315 0
M  V30 24972 H 2170.46 -1.08199 1.30733 0
M  V30 24973 H 2169.23 -2.7418 2.79179 0
M  V30 24974 H 2168.85 -3.7261 1.38736 0
M  V30 24975 N 2169.85 -1.00378 -1.21499 0
M  V30 24976 C 2170.8 -0.563153 -2.23824 0
M  V30 24977 C 2171.77 0.410151 -1.60956 0
M  V30 24978 O 2172.95 0.312473 -1.88224 0
M  V30 24979 C 2170.09 0.105277 -3.44939 0
M  V30 24980 C 2169.21 -0.91106 -4.22284 0
M  V30 24981 C 2168.34 -0.215019 -5.30765 0
M  V30 24982 C 2167.38 -1.21899 -5.99839 0
M  V30 24983 N 2166.52 -0.550506 -6.99938 0
M  V30 24984 H 2171.36 -1.44041 -2.60876 0
M  V30 24985 H 2168.89 -0.721302 -1.28202 0
M  V30 24986 H 2170.85 0.509838 -4.14073 0
M  V30 24987 H 2169.48 0.946261 -3.08619 0
M  V30 24988 H 2168.53 -1.43387 -3.52341 0
M  V30 24989 H 2169.85 -1.67513 -4.69831 0
M  V30 24990 H 2169 0.245713 -6.06202 0
M  V30 24991 H 2167.74 0.581469 -4.84221 0
M  V30 24992 H 2166.74 -1.69024 -5.23174 0
M  V30 24993 H 2167.97 -2.01654 -6.48469 0
M  V30 24994 H 2165.91 0.226347 -6.55609 0
M  V30 24995 H 2165.83 -1.25285 -7.45547 0
M  V30 24996 H 2167.1 -0.112938 -7.79418 0
M  V30 24997 N 2171.33 1.37038 -0.778354 0
M  V30 24998 C 2172.26 2.3278 -0.183215 0
M  V30 24999 C 2173.24 1.56107 0.675623 0
M  V30 25000 O 2174.42 1.84314 0.611726 0
M  V30 25001 C 2171.55 3.40346 0.691526 0
M  V30 25002 C 2170.51 4.27948 -0.0665313 0
M  V30 25003 C 2169.83 5.26584 0.928085 0
M  V30 25004 C 2171.13 5.07137 -1.24936 0
M  V30 25005 H 2172.83 2.82801 -0.983049 0
M  V30 25006 H 2170.37 1.35969 -0.474169 0
M  V30 25007 H 2172.33 4.06306 1.11773 0
M  V30 25008 H 2171.05 2.88866 1.52395 0
M  V30 25009 H 2169.71 3.63528 -0.473586 0
M  V30 25010 H 2169.36 4.71381 1.75524 0
M  V30 25011 H 2169.06 5.86058 0.425371 0
M  V30 25012 H 2170.58 5.95419 1.35309 0
M  V30 25013 H 2172 5.662 -0.899476 0
M  V30 25014 H 2170.39 5.7597 -1.68461 0
M  V30 25015 H 2171.46 4.39425 -2.05021 0
M  V30 25016 N 2172.81 0.529439 1.48441 0
M  V30 25017 C 2173.75 -0.233627 2.29615 0
M  V30 25018 C 2174.72 -0.934301 1.37332 0
M  V30 25019 O 2175.91 -0.935433 1.66296 0
M  V30 25020 C 2173.05 -1.27491 3.20687 0
M  V30 25021 C 2172.16 -0.583135 4.28046 0
M  V30 25022 C 2171.3 -1.6073 5.06299 0
M  V30 25023 C 2170.34 -0.898962 6.05463 0
M  V30 25024 N 2169.47 -1.86865 6.76776 0
M  V30 25025 H 2174.31 0.464768 2.94353 0
M  V30 25026 H 2171.85 0.241037 1.45112 0
M  V30 25027 H 2173.81 -1.89092 3.71887 0
M  V30 25028 H 2172.44 -1.9417 2.57872 0
M  V30 25029 H 2171.49 0.146804 3.80117 0
M  V30 25030 H 2172.8 -0.0269268 4.98793 0
M  V30 25031 H 2171.96 -2.29761 5.61511 0
M  V30 25032 H 2170.7 -2.19741 4.35391 0
M  V30 25033 H 2169.7 -0.194579 5.49456 0
M  V30 25034 H 2170.93 -0.314978 6.78369 0
M  V30 25035 H 2168.87 -2.44784 6.08619 0
M  V30 25036 H 2168.79 -1.36386 7.43596 0
M  V30 25037 H 2170.06 -2.55096 7.36577 0
M  V30 25038 N 2174.29 -1.55364 0.264547 0
M  V30 25039 C 2175.51 -2.0422 -0.361799 0
M  V30 25040 C 2175.94 -1.14203 -1.49464 0
M  V30 25041 O 2175.29 -0.138477 -1.8077 0
M  V30 25042 C 2175.34 -3.50911 -0.830308 0
M  V30 25043 O 2174.45 -3.64002 -1.93847 0
M  V30 25044 H 2173.79 -0.659588 -0.0764174 0
M  V30 25045 H 2176.32 -2.00736 0.39576 0
M  V30 25046 H 2176.33 -3.92072 -1.12887 0
M  V30 25047 H 2175 -4.159 -0.00142245 0
M  V30 25048 H 2173.58 -3.34741 -1.64325 0
M  V30 25049 N 2175.76 0.00833021 -1.57598 0
M  V30 25050 C 2176.99 0.705099 -1.94196 0
M  V30 25051 C 2177.4 1.68297 -0.864461 0
M  V30 25052 O 2176.74 1.82948 0.166002 0
M  V30 25053 C 2176.81 1.49958 -3.2673 0
M  V30 25054 C 2176.47 0.684223 -4.51849 0
M  V30 25055 C 2177.47 -0.0245096 -5.19894 0
M  V30 25056 C 2175.15 0.632648 -4.983 0
M  V30 25057 C 2177.15 -0.773893 -6.32684 0
M  V30 25058 C 2174.83 -0.120466 -6.10981 0
M  V30 25059 C 2175.83 -0.822478 -6.7803 0
M  V30 25060 O 2175.52 -1.56332 -7.88553 0
M  V30 25061 H 2175.25 0.201893 -0.645148 0
M  V30 25062 H 2177.81 -0.0363833 -2.05368 0
M  V30 25063 H 2176.04 2.28536 -3.11943 0
M  V30 25064 H 2177.72 2.08091 -3.48501 0
M  V30 25065 H 2178.49 0.0062356 -4.85 0
M  V30 25066 H 2174.37 1.16859 -4.45943 0
M  V30 25067 H 2177.91 -1.32237 -6.84952 0
M  V30 25068 H 2173.81 -0.153062 -6.45319 0
M  V30 25069 H 2174.58 -1.47916 -8.05024 0
M  V30 25070 N 2177.24 1.55075 0.280956 0
M  V30 25071 C 2178.17 1.83809 1.36919 0
M  V30 25072 C 2179.19 0.722116 1.45909 0
M  V30 25073 O 2180.38 0.999868 1.47868 0
M  V30 25074 C 2177.48 1.97895 2.75119 0
M  V30 25075 C 2176.65 3.28485 2.88819 0
M  V30 25076 C 2175.71 3.32736 4.07643 0
M  V30 25077 O 2174.73 4.06159 3.98778 0
M  V30 25078 N 2175.94 2.59566 5.19236 0
M  V30 25079 H 2178.7 2.77736 1.12619 0
M  V30 25080 H 2176.26 1.54895 0.471063 0
M  V30 25081 H 2178.25 1.98119 3.5289 0
M  V30 25082 H 2176.82 1.10872 2.92278 0
M  V30 25083 H 2176.04 3.40868 1.97997 0
M  V30 25084 H 2177.33 4.14624 2.94897 0
M  V30 25085 H 2176.73 1.99582 5.29324 0
M  V30 25086 H 2175.29 2.65521 5.95266 0
M  V30 25087 N 2178.72 -0.545102 1.47873 0
M  V30 25088 C 2180 -1.30611 1.45603 0
M  V30 25089 C 2180.38 -2.10497 0.159489 0
M  V30 25090 O 2179.72 -2.11741 -0.85895 0
M  V30 25091 C 2179.93 -2.20038 2.70895 0
M  V30 25092 C 2181.28 -2.80668 3.18608 0
M  V30 25093 O 2182.31 -2.30334 2.71707 0
M  V30 25094 O 2181.17 -3.72185 4.00176 0
M  V30 25095 H 2178.26 -0.588726 0.580802 0
M  V30 25096 H 2180.81 -0.563004 1.60089 0
M  V30 25097 H 2179.58 -1.6069 3.56784 0
M  V30 25098 H 2179.2 -3.01622 2.59056 0
M  V30 25099 N 2180.2 -1.36208 -0.792797 0
M  V30 25100 C 2181.45 -1.2958 -1.5457 0
M  V30 25101 C 2181.76 0.123772 -1.95208 0
M  V30 25102 O 2182.97 0.312401 -2.69697 0
M  V30 25103 C 2181.42 -2.27331 -2.79014 0
M  V30 25104 C 2181.03 -3.74707 -2.45558 0
M  V30 25105 C 2182.77 -2.29674 -3.57002 0
M  V30 25106 C 2180.68 -4.64243 -3.66377 0
M  V30 25107 H 2179.61 -0.481506 -0.580231 0
M  V30 25108 H 2182.26 -1.61551 -0.870256 0
M  V30 25109 H 2180.64 -1.88349 -3.4834 0
M  V30 25110 H 2181.82 -4.22404 -1.84151 0
M  V30 25111 H 2180.13 -3.75106 -1.80788 0
M  V30 25112 H 2182.73 -2.93779 -4.46764 0
M  V30 25113 H 2183.07 -1.30432 -3.95339 0
M  V30 25114 H 2183.61 -2.67255 -2.94652 0
M  V30 25115 H 2180.34 -5.64534 -3.33138 0
M  V30 25116 H 2179.86 -4.21264 -4.26963 0
M  V30 25117 H 2181.54 -4.80348 -4.33446 0
M  V30 25118 N 2181.68 1.01656 -1.20431 0
M  V30 25119 C 2182.59 2.13658 -0.968877 0
M  V30 25120 C 2183.6 1.73837 0.075256 0
M  V30 25121 O 2184.78 2.01087 -0.112194 0
M  V30 25122 C 2181.84 3.42716 -0.524052 0
M  V30 25123 C 2180.9 3.9678 -1.63904 0
M  V30 25124 C 2180.14 5.19678 -1.21534 0
M  V30 25125 O 2180.36 5.70338 -0.0840508 0
M  V30 25126 O 2179.29 5.66893 -2.02278 0
M  V30 25127 H 2183.12 2.3639 -1.90666 0
M  V30 25128 H 2180.7 1.1205 -0.98819 0
M  V30 25129 H 2182.59 4.20434 -0.285221 0
M  V30 25130 H 2181.26 3.21401 0.385143 0
M  V30 25131 H 2180.17 3.20341 -1.93215 0
M  V30 25132 H 2181.5 4.22484 -2.52524 0
M  V30 25133 N 2183.15 1.01021 1.20965 0
M  V30 25134 C 2184.1 0.568229 2.25552 0
M  V30 25135 C 2185.1 -0.389834 1.64853 0
M  V30 25136 O 2186.3 -0.260456 1.78106 0
M  V30 25137 H 2182.68 0.165424 0.73358 0
M  V30 25138 H 2184.65 1.46139 2.60165 0
M  V30 25139 C 2183.4 -0.0841621 3.47598 0
M  V30 25140 H 2182.72 0.644027 3.94579 0
M  V30 25141 H 2184.16 -0.356619 4.22498 0
M  V30 25142 C 2182.62 -1.325 3.09751 0
M  V30 25143 O 2183.15 -2.41889 3.20706 0
M  V30 25144 N 2181.35 -1.20669 2.64362 0
M  V30 25145 H 2180.9 -0.316581 2.55647 0
M  V30 25146 H 2180.86 -2.03792 2.39408 0
M  V30 25147 N 2184.63 -1.36623 0.78561 0
M  V30 25148 C 2185.56 -2.3268 0.195557 0
M  V30 25149 C 2186.54 -1.56463 -0.667335 0
M  V30 25150 O 2187.73 -1.84636 -0.601943 0
M  V30 25151 C 2184.86 -3.40708 -0.673467 0
M  V30 25152 C 2183.81 -4.27907 0.0892255 0
M  V30 25153 C 2183.14 -5.27069 -0.900146 0
M  V30 25154 C 2184.44 -5.06468 1.27624 0
M  V30 25155 H 2186.13 -2.82276 0.998033 0
M  V30 25156 H 2183.68 -1.35716 0.481373 0
M  V30 25157 H 2185.63 -4.06893 -1.09617 0
M  V30 25158 H 2184.35 -2.8967 -1.50861 0
M  V30 25159 H 2183.01 -3.63272 0.492858 0
M  V30 25160 H 2182.66 -4.72306 -1.73022 0
M  V30 25161 H 2182.36 -5.86276 -0.394285 0
M  V30 25162 H 2183.89 -5.96128 -1.32149 0
M  V30 25163 H 2185.3 -5.65715 0.92949 0
M  V30 25164 H 2183.7 -5.75068 1.71513 0
M  V30 25165 H 2184.77 -4.38332 2.07349 0
M  V30 25166 N 2186.11 -0.537304 -1.48158 0
M  V30 25167 C 2187.04 0.258662 -2.27736 0
M  V30 25168 C 2188.05 0.897752 -1.3581 0
M  V30 25169 O 2189.24 0.774959 -1.608 0
M  V30 25170 C 2186.34 1.38219 -3.09433 0
M  V30 25171 C 2185.52 0.843651 -4.29187 0
M  V30 25172 C 2184.58 1.84921 -4.92636 0
M  V30 25173 O 2183.6 1.40323 -5.51632 0
M  V30 25174 N 2184.8 3.18174 -4.85536 0
M  V30 25175 H 2187.57 -0.423863 -2.96688 0
M  V30 25176 H 2185.13 -0.372098 -1.57566 0
M  V30 25177 H 2187.12 2.0532 -3.48749 0
M  V30 25178 H 2185.69 1.96827 -2.42854 0
M  V30 25179 H 2184.91 -0.00356721 -3.942 0
M  V30 25180 H 2186.2 0.462851 -5.0669 0
M  V30 25181 H 2185.6 3.57068 -4.3877 0
M  V30 25182 H 2184.15 3.80888 -5.28931 0
M  V30 25183 N 2187.59 1.55221 -0.272782 0
M  V30 25184 C 2188.54 2.23858 0.631705 0
M  V30 25185 C 2189.53 1.23481 1.15969 0
M  V30 25186 O 2190.74 1.41418 1.11359 0
M  V30 25187 H 2187.11 0.718404 0.222259 0
M  V30 25188 H 2189.08 2.98385 0.0299551 0
M  V30 25189 C 2187.83 2.9714 1.80563 0
M  V30 25190 H 2187.15 3.74166 1.40854 0
M  V30 25191 H 2188.59 3.4849 2.41517 0
M  V30 25192 C 2187.05 2.02478 2.69266 0
M  V30 25193 O 2187.58 1.57449 3.69557 0
M  V30 25194 N 2185.79 1.69028 2.36385 0
M  V30 25195 H 2185.34 2.05842 1.54877 0
M  V30 25196 H 2185.29 1.05961 2.96006 0
M  V30 25197 N 2189.07 2.77022e-05 1.576 0
M  V30 25198 C 2190.31 -0.685829 1.90851 0
M  V30 25199 C 2190.65 -1.73422 0.873984 0
M  V30 25200 O 2189.92 -1.94204 -0.107282 0
M  V30 25201 C 2190.2 -1.32893 3.34681 0
M  V30 25202 C 2190.06 -0.292085 4.48851 0
M  V30 25203 C 2191.38 -2.25509 3.77933 0
M  V30 25204 H 2188.49 -0.247851 0.694074 0
M  V30 25205 H 2191.14 0.0513272 1.89931 0
M  V30 25206 H 2189.29 -1.95723 3.35596 0
M  V30 25207 H 2190.96 0.336531 4.60071 0
M  V30 25208 H 2189.2 0.385648 4.32082 0
M  V30 25209 H 2189.87 -0.781112 5.46445 0
M  V30 25210 H 2192.35 -1.72696 3.7857 0
M  V30 25211 H 2191.22 -2.67473 4.79322 0
M  V30 25212 H 2191.49 -3.13419 3.11803 0
M  V30 25213 N 2190.54 -1.55222 -0.272728 0
M  V30 25214 C 2191.77 -1.80199 -1.02679 0
M  V30 25215 C 2192.19 -0.573583 -1.79141 0
M  V30 25216 O 2191.55 0.476818 -1.74918 0
M  V30 25217 C 2191.6 -3.02627 -1.96084 0
M  V30 25218 O 2190.7 -2.77732 -3.04858 0
M  V30 25219 H 2190.05 -0.595589 -0.293547 0
M  V30 25220 H 2192.58 -2.02366 -0.301554 0
M  V30 25221 H 2192.59 -3.31367 -2.38033 0
M  V30 25222 H 2191.26 -3.91684 -1.39844 0
M  V30 25223 H 2189.84 -2.60089 -2.67223 0
M  V30 25224 N 2192.02 0.537252 -1.4816 0
M  V30 25225 C 2193.25 1.32317 -1.59709 0
M  V30 25226 C 2193.67 1.86365 -0.254891 0
M  V30 25227 O 2193.03 1.64026 0.772349 0
M  V30 25228 C 2193.08 2.45501 -2.64125 0
M  V30 25229 O 2192.18 3.48325 -2.2078 0
M  V30 25230 H 2191.52 0.392195 -0.535798 0
M  V30 25231 H 2194.05 0.647233 -1.94093 0
M  V30 25232 H 2194.06 2.9179 -2.85171 0
M  V30 25233 H 2192.74 2.05522 -3.61571 0
M  V30 25234 H 2191.32 3.08204 -2.09917 0
M  V30 25235 N 2193.5 1.36626 0.785562 0
M  V30 25236 C 2194.75 1.3107 1.5436 0
M  V30 25237 C 2195.08 -0.108896 1.94195 0
M  V30 25238 O 2194.33 -1.07905 1.63264 0
M  V30 25239 C 2194.63 2.18275 2.83003 0
M  V30 25240 C 2194.3 3.66765 2.62287 0
M  V30 25241 C 2192.96 4.07235 2.56346 0
M  V30 25242 C 2195.31 4.60895 2.43363 0
M  V30 25243 C 2192.64 5.39971 2.29451 0
M  V30 25244 C 2194.99 5.93853 2.17994 0
M  V30 25245 C 2193.65 6.33444 2.10489 0
M  V30 25246 H 2192.92 0.479619 0.564842 0
M  V30 25247 H 2195.57 1.68713 0.905999 0
M  V30 25248 H 2193.88 1.73582 3.5125 0
M  V30 25249 H 2195.57 2.11298 3.40814 0
M  V30 25250 H 2192.16 3.34661 2.67769 0
M  V30 25251 H 2196.35 4.30498 2.46952 0
M  V30 25252 H 2191.6 5.69623 2.22125 0
M  V30 25253 H 2195.78 6.66355 2.02347 0
M  V30 25254 H 2193.4 7.36225 1.89412 0
M  V30 25255 N 2194.98 -1.01016 1.20969 0
M  V30 25256 C 2196.21 -1.78043 1.04806 0
M  V30 25257 C 2196.62 -1.84805 -0.405429 0
M  V30 25258 O 2195.96 -1.30471 -1.29318 0
M  V30 25259 C 2196.02 -3.23705 1.56383 0
M  V30 25260 C 2195.69 -3.40533 3.04773 0
M  V30 25261 C 2196.68 -3.29231 4.02371 0
M  V30 25262 C 2194.37 -3.66141 3.43869 0
M  V30 25263 C 2196.36 -3.43294 5.37055 0
M  V30 25264 C 2194.05 -3.79847 4.78706 0
M  V30 25265 C 2195.05 -3.68429 5.75108 0
M  V30 25266 O 2194.73 -3.81706 7.075 0
M  V30 25267 H 2194.47 -0.566543 0.368788 0
M  V30 25268 H 2197.02 -1.27994 1.60645 0
M  V30 25269 H 2195.25 -3.74865 0.949363 0
M  V30 25270 H 2196.94 -3.82387 1.36142 0
M  V30 25271 H 2197.71 -3.09377 3.73511 0
M  V30 25272 H 2193.58 -3.74113 2.69371 0
M  V30 25273 H 2197.13 -3.34299 6.12283 0
M  V30 25274 H 2193.03 -3.99204 5.07254 0
M  V30 25275 H 2193.79 -3.98685 7.14837 0
M  V30 25276 N 2196.46 -1.01661 -1.20428 0
M  V30 25277 C 2197.4 -0.586861 -2.23214 0
M  V30 25278 C 2198.37 0.393056 -1.61382 0
M  V30 25279 O 2199.56 0.292492 -1.88545 0
M  V30 25280 C 2196.7 0.0686858 -3.45032 0
M  V30 25281 C 2195.81 -0.955798 -4.21294 0
M  V30 25282 C 2194.95 -0.271301 -5.30507 0
M  V30 25283 C 2193.99 -1.28254 -5.98513 0
M  V30 25284 N 2193.12 -0.624713 -6.99315 0
M  V30 25285 H 2197.96 -1.468 -2.59333 0
M  V30 25286 H 2195.5 -0.734859 -1.27429 0
M  V30 25287 H 2197.46 0.465892 -4.14591 0
M  V30 25288 H 2196.09 0.913474 -3.09605 0
M  V30 25289 H 2195.14 -1.47116 -3.508 0
M  V30 25290 H 2196.45 -1.72487 -4.68027 0
M  V30 25291 H 2195.61 0.181403 -6.06429 0
M  V30 25292 H 2194.34 0.530078 -4.84811 0
M  V30 25293 H 2193.35 -1.74563 -5.21352 0
M  V30 25294 H 2194.57 -2.0852 -6.46294 0
M  V30 25295 H 2192.52 0.156798 -6.55813 0
M  V30 25296 H 2192.44 -1.33185 -7.44176 0
M  V30 25297 H 2193.71 -0.195599 -7.79255 0
M  V30 25298 N 2197.93 1.36205 -0.792844 0
M  V30 25299 C 2199.21 1.93428 -0.290661 0
M  V30 25300 C 2199.59 1.72439 1.2177 0
M  V30 25301 O 2198.94 1.08534 2.01078 0
M  V30 25302 C 2199.15 3.42171 -0.687033 0
M  V30 25303 C 2200.5 4.19301 -0.668717 0
M  V30 25304 O 2201.52 3.50625 -0.62772 0
M  V30 25305 O 2200.38 5.41807 -0.714692 0
M  V30 25306 H 2197.47 0.823789 -0.0728072 0
M  V30 25307 H 2200.02 1.45365 -0.875619 0
M  V30 25308 H 2198.79 3.51119 -1.72718 0
M  V30 25309 H 2198.42 3.97527 -0.0761432 0
M  V30 25310 N 2199.41 0.545154 1.47871 0
M  V30 25311 C 2200.64 0.0210898 2.06589 0
M  V30 25312 C 2201.05 -1.27266 1.4 0
M  V30 25313 O 2200.39 -1.77142 0.486452 0
M  V30 25314 C 2200.46 -0.25787 3.58574 0
M  V30 25315 C 2200.12 0.944652 4.4713 0
M  V30 25316 C 2201.12 1.84707 4.85983 0
M  V30 25317 C 2198.8 1.15593 4.88819 0
M  V30 25318 C 2200.8 2.94456 5.65309 0
M  V30 25319 C 2198.48 2.25652 5.67912 0
M  V30 25320 C 2199.48 3.14915 6.06067 0
M  V30 25321 O 2199.17 4.23069 6.8357 0
M  V30 25322 H 2198.9 0.0373018 0.67497 0
M  V30 25323 H 2201.45 0.754632 1.91035 0
M  V30 25324 H 2199.68 -1.04557 3.72296 0
M  V30 25325 H 2201.37 -0.72585 3.99357 0
M  V30 25326 H 2202.14 1.69585 4.54385 0
M  V30 25327 H 2198.02 0.47036 4.58594 0
M  V30 25328 H 2201.56 3.64156 5.9501 0
M  V30 25329 H 2197.46 2.40752 5.98923 0
M  V30 25330 H 2198.23 4.20966 7.01947 0
M  V30 25331 N 2200.89 -1.55074 0.28101 0
M  V30 25332 C 2201.82 -2.25728 -0.597429 0
M  V30 25333 C 2202.8 -1.24954 -1.15415 0
M  V30 25334 O 2203.99 -1.53686 -1.1872 0
M  V30 25335 C 2201.12 -2.98286 -1.77884 0
M  V30 25336 C 2200.07 -4.06038 -1.35339 0
M  V30 25337 C 2199.4 -4.66203 -2.61838 0
M  V30 25338 C 2200.7 -5.19908 -0.499263 0
M  V30 25339 H 2202.39 -2.99399 -0.00819002 0
M  V30 25340 H 2199.94 -1.44 -0.00249909 0
M  V30 25341 H 2201.89 -3.46426 -2.39931 0
M  V30 25342 H 2200.61 -2.22159 -2.39401 0
M  V30 25343 H 2199.27 -3.58718 -0.756093 0
M  V30 25344 H 2198.92 -3.86738 -3.21625 0
M  V30 25345 H 2198.62 -5.38962 -2.3408 0
M  V30 25346 H 2200.14 -5.17095 -3.24723 0
M  V30 25347 H 2201.56 -5.64065 -1.02488 0
M  V30 25348 H 2199.96 -5.99266 -0.316319 0
M  V30 25349 H 2201.03 -4.82513 0.480544 0
M  V30 25350 N 2202.37 -0.00838561 -1.57598 0
M  V30 25351 C 2203.6 0.684462 -1.94932 0
M  V30 25352 C 2204.01 1.6737 -0.882262 0
M  V30 25353 O 2203.35 1.83114 0.146589 0
M  V30 25354 C 2203.41 1.46485 -3.28302 0
M  V30 25355 C 2203.08 0.63626 -4.52549 0
M  V30 25356 C 2204.07 -0.07965 -5.19839 0
M  V30 25357 C 2201.76 0.579761 -4.98943 0
M  V30 25358 C 2203.75 -0.840954 -6.31828 0
M  V30 25359 C 2201.44 -0.185262 -6.10819 0
M  V30 25360 C 2202.44 -0.894346 -6.77119 0
M  V30 25361 O 2202.13 -1.64687 -7.8685 0
M  V30 25362 H 2201.86 0.195038 -0.647253 0
M  V30 25363 H 2204.41 -0.0581632 -2.05318 0
M  V30 25364 H 2202.64 2.25214 -3.14349 0
M  V30 25365 H 2204.33 2.04383 -3.50689 0
M  V30 25366 H 2205.1 -0.0452054 -4.84979 0
M  V30 25367 H 2200.98 1.12122 -4.47157 0
M  V30 25368 H 2204.52 -1.39495 -6.83511 0
M  V30 25369 H 2200.42 -0.221498 -6.4512 0
M  V30 25370 H 2201.18 -1.56446 -8.0341 0
M  V30 25371 N 2203.85 1.55365 0.264492 0
M  V30 25372 C 2204.78 1.83768 1.35294 0
M  V30 25373 C 2205.76 0.691361 1.4717 0
M  V30 25374 O 2206.94 0.935267 1.63661 0
M  V30 25375 C 2204.07 2.00684 2.72844 0
M  V30 25376 C 2203.12 3.23268 2.78208 0
M  V30 25377 S 2203.95 4.804 2.36593 0
M  V30 25378 C 2205.1 5.00298 3.76101 0
M  V30 25379 H 2205.34 2.75802 1.10998 0
M  V30 25380 H 2202.87 1.47245 0.46457 0
M  V30 25381 H 2204.83 2.11114 3.52053 0
M  V30 25382 H 2203.49 1.09524 2.94386 0
M  V30 25383 H 2202.68 3.32017 3.79185 0
M  V30 25384 H 2202.28 3.11473 2.07028 0
M  V30 25385 H 2204.58 4.86562 4.71448 0
M  V30 25386 H 2205.52 6.02328 3.72299 0
M  V30 25387 H 2205.93 4.28234 3.67799 0
M  V30 25388 N 2205.33 -0.529387 1.48443 0
M  V30 25389 C 2206.57 -1.28264 1.56181 0
M  V30 25390 C 2206.89 -1.93545 0.237755 0
M  V30 25391 O 2206.16 -1.81355 -0.740747 0
M  V30 25392 H 2204.74 -0.476395 0.575375 0
M  V30 25393 H 2207.41 -0.615988 1.8491 0
M  V30 25394 H 2206.5 -2.06161 2.34316 0
M  V30 25395 N 2206.8 -1.37041 -0.778305 0
M  V30 25396 C 2207.73 -1.34965 -1.90543 0
M  V30 25397 C 2208.71 -0.219304 -1.6868 0
M  V30 25398 O 2209.9 -0.418657 -1.89634 0
M  V30 25399 C 2207.03 -1.14931 -3.27732 0
M  V30 25400 C 2205.98 -2.24908 -3.64143 0
M  V30 25401 C 2205.31 -1.90004 -4.99802 0
M  V30 25402 C 2206.61 -3.67058 -3.71572 0
M  V30 25403 H 2208.3 -2.29281 -1.92537 0
M  V30 25404 H 2205.85 -1.10368 -0.924928 0
M  V30 25405 H 2207.8 -1.12111 -4.06213 0
M  V30 25406 H 2206.53 -0.170689 -3.26154 0
M  V30 25407 H 2205.19 -2.26873 -2.87966 0
M  V30 25408 H 2204.83 -0.906883 -4.94757 0
M  V30 25409 H 2204.53 -2.63644 -5.25134 0
M  V30 25410 H 2206.06 -1.88759 -5.80691 0
M  V30 25411 H 2207.47 -3.67259 -4.4022 0
M  V30 25412 H 2205.87 -4.39695 -4.08397 0
M  V30 25413 H 2206.94 -4.01158 -2.72397 0
M  V30 25414 N 2208.28 1.00373 -1.21503 0
M  V30 25415 C 2209.53 1.74169 -1.03302 0
M  V30 25416 C 2209.86 1.89612 0.433293 0
M  V30 25417 O 2209.11 1.42837 1.33777 0
M  V30 25418 C 2209.41 3.15624 -1.67679 0
M  V30 25419 C 2209.08 3.20125 -3.17539 0
M  V30 25420 C 2207.74 3.2106 -3.58432 0
M  V30 25421 C 2210.09 3.17268 -4.1351 0
M  V30 25422 C 2207.42 3.16826 -4.938 0
M  V30 25423 C 2209.77 3.14575 -5.4884 0
M  V30 25424 C 2208.43 3.13821 -5.89129 0
M  V30 25425 H 2207.7 0.63733 -0.378011 0
M  V30 25426 H 2210.35 1.17632 -1.51113 0
M  V30 25427 H 2208.66 3.75402 -1.12165 0
M  V30 25428 H 2210.35 3.71444 -1.51098 0
M  V30 25429 H 2206.94 3.2014 -2.84971 0
M  V30 25430 H 2211.13 3.15704 -3.82942 0
M  V30 25431 H 2206.38 3.14581 -5.2426 0
M  V30 25432 H 2210.56 3.11319 -6.22939 0
M  V30 25433 H 2208.18 3.10294 -6.93989 0
M  V30 25434 N 2209.76 1.02298 1.19887 0
M  V30 25435 C 2210.99 0.734366 1.93108 0
M  V30 25436 C 2211.4 -0.709859 1.75379 0
M  V30 25437 O 2210.74 -1.49382 1.06915 0
M  V30 25438 C 2210.8 0.99833 3.4536 0
M  V30 25439 C 2210.47 2.43293 3.86856 0
M  V30 25440 C 2211.46 3.41404 3.92096 0
M  V30 25441 C 2209.15 2.77537 4.18663 0
M  V30 25442 C 2211.14 4.71817 4.28565 0
M  V30 25443 C 2208.83 4.08161 4.54806 0
M  V30 25444 C 2209.83 5.05111 4.5973 0
M  V30 25445 O 2209.52 6.33397 4.95039 0
M  V30 25446 H 2209.25 0.268467 0.620404 0
M  V30 25447 H 2211.8 1.36883 1.53141 0
M  V30 25448 H 2210.03 0.306713 3.85482 0
M  V30 25449 H 2211.72 0.700304 3.99813 0
M  V30 25450 H 2212.49 3.16286 3.67679 0
M  V30 25451 H 2208.37 2.02757 4.14018 0
M  V30 25452 H 2211.91 5.47487 4.32323 0
M  V30 25453 H 2207.81 4.33055 4.78679 0
M  V30 25454 H 2208.57 6.37781 5.13009 0
M  V30 25455 N 2211.24 -1.35782 0.800057 0
M  V30 25456 C 2212.15 -2.33683 0.207245 0
M  V30 25457 C 2213.16 -1.61552 -0.646282 0
M  V30 25458 O 2214.34 -1.9347 -0.55957 0
M  V30 25459 C 2211.4 -3.40749 -0.639599 0
M  V30 25460 C 2210.47 -4.28664 0.23366 0
M  V30 25461 C 2209.7 -5.30617 -0.572861 0
M  V30 25462 O 2209.92 -5.40986 -1.80806 0
M  V30 25463 O 2208.86 -6.01891 0.0328343 0
M  V30 25464 H 2212.68 -2.86167 1.01697 0
M  V30 25465 H 2210.27 -1.38438 0.561715 0
M  V30 25466 H 2212.15 -4.06184 -1.12216 0
M  V30 25467 H 2210.82 -2.90547 -1.42703 0
M  V30 25468 H 2209.73 -3.66232 0.763212 0
M  V30 25469 H 2211.06 -4.82246 0.984869 0
M  V30 25470 N 2212.72 -0.552988 -1.4758 0
M  V30 25471 C 2213.66 0.210189 -2.31648 0
M  V30 25472 C 2214.66 0.913407 -1.42665 0
M  V30 25473 O 2215.86 0.835173 -1.59452 0
M  V30 25474 H 2212.24 0.0866545 -0.746991 0
M  V30 25475 H 2214.21 -0.518103 -2.93868 0
M  V30 25476 C 2212.96 1.2297 -3.25229 0
M  V30 25477 H 2212.28 0.698008 -3.9366 0
M  V30 25478 H 2213.72 1.73467 -3.86892 0
M  V30 25479 C 2212.18 2.27538 -2.48452 0
M  V30 25480 O 2212.71 3.34389 -2.22591 0
M  V30 25481 N 2210.92 2.01354 -2.09535 0
M  V30 25482 H 2210.46 1.14474 -2.30767 0
M  V30 25483 H 2210.42 2.71535 -1.5848 0
M  V30 25484 N 2214.19 1.54923 -0.28923 0
M  V30 25485 C 2215.12 2.26041 0.58545 0
M  V30 25486 C 2216.1 1.25564 1.14751 0
M  V30 25487 O 2217.29 1.54313 1.17903 0
M  V30 25488 C 2214.42 2.99225 1.763 0
M  V30 25489 C 2213.37 4.06751 1.33184 0
M  V30 25490 C 2212.7 4.67585 2.59362 0
M  V30 25491 C 2214 5.20166 0.471684 0
M  V30 25492 H 2215.69 2.99399 -0.00768794 0
M  V30 25493 H 2213.24 1.43999 -0.0051376 0
M  V30 25494 H 2215.19 3.47694 2.38091 0
M  V30 25495 H 2213.92 2.23426 2.38219 0
M  V30 25496 H 2212.58 3.59114 0.737058 0
M  V30 25497 H 2212.22 3.88438 3.1957 0
M  V30 25498 H 2211.92 5.40196 2.31219 0
M  V30 25499 H 2213.45 5.1881 3.21976 0
M  V30 25500 H 2214.86 5.646 0.994956 0
M  V30 25501 H 2213.26 5.99425 0.284534 0
M  V30 25502 H 2214.33 4.82251 -0.506126 0
M  V30 25503 N 2215.67 0.0167433 1.57591 0
M  V30 25504 C 2216.95 -0.702532 1.82548 0
M  V30 25505 C 2217.33 -1.91045 0.898051 0
M  V30 25506 O 2216.68 -2.28447 -0.0493055 0
M  V30 25507 C 2216.89 -1.09246 3.31461 0
M  V30 25508 C 2218.23 -1.4893 3.97624 0
M  V30 25509 O 2219.26 -1.18578 3.35883 0
M  V30 25510 O 2218.12 -2.05433 5.06418 0
M  V30 25511 H 2215.21 -0.343531 0.752274 0
M  V30 25512 H 2217.76 0.0434794 1.69644 0
M  V30 25513 H 2216.53 -0.232201 3.9061 0
M  V30 25514 H 2216.15 -1.89703 3.49426 0
M  V30 25515 N 2217.15 -1.55503 -0.256249 0
M  V30 25516 C 2218.4 -1.77159 -0.987048 0
M  V30 25517 C 2218.73 -0.580347 -1.85326 0
M  V30 25518 O 2218 0.421653 -1.89875 0
M  V30 25519 C 2218.29 -3.08616 -1.85548 0
M  V30 25520 C 2218.14 -4.38127 -1.01808 0
M  V30 25521 C 2219.46 -3.36233 -2.83964 0
M  V30 25522 H 2216.58 -0.644533 -0.357417 0
M  V30 25523 H 2219.22 -1.88237 -0.258206 0
M  V30 25524 H 2217.37 -2.99302 -2.4769 0
M  V30 25525 H 2219.04 -4.5942 -0.416078 0
M  V30 25526 H 2217.29 -4.32603 -0.322102 0
M  V30 25527 H 2217.96 -5.26471 -1.6593 0
M  V30 25528 H 2220.43 -3.45449 -2.31958 0
M  V30 25529 H 2219.31 -4.29448 -3.41856 0
M  V30 25530 H 2219.57 -2.56687 -3.5995 0
M  V30 25531 N 2218.63 0.521507 -1.48721 0
M  V30 25532 C 2220.04 0.850831 -1.3503 0
M  V30 25533 C 2220.24 1.98116 -0.367746 0
M  V30 25534 O 2219.3 2.51642 0.207993 0
M  V30 25535 C 2220.61 1.21036 -2.75265 0
M  V30 25536 C 2222.16 1.31976 -2.83816 0
M  V30 25537 C 2222.64 1.71269 -4.24772 0
M  V30 25538 N 2224.13 1.78356 -4.27485 0
M  V30 25539 C 2224.86 2.10161 -5.33498 0
M  V30 25540 N 2224.36 2.40332 -6.49779 0
M  V30 25541 N 2226.15 2.11239 -5.20898 0
M  V30 25542 H 2218.3 -0.224167 -2.11214 0
M  V30 25543 H 2220.57 -0.0376605 -0.947252 0
M  V30 25544 H 2220.27 0.453354 -3.48766 0
M  V30 25545 H 2220.15 2.15858 -3.0933 0
M  V30 25546 H 2222.53 2.06752 -2.10565 0
M  V30 25547 H 2222.61 0.352552 -2.53359 0
M  V30 25548 H 2222.26 0.9705 -4.98542 0
M  V30 25549 H 2222.19 2.69054 -4.52678 0
M  V30 25550 H 2224.68 1.57282 -3.43614 0
M  V30 25551 H 2224.99 2.6373 -7.26406 0
M  V30 25552 H 2223.34 2.37833 -6.53039 0
M  V30 25553 H 2226.53 1.87131 -4.29068 0
M  V30 25554 H 2226.7 2.35694 -6.03616 0
M  V30 25555 N 2220.11 1.37452 0.771027 0
M  V30 25556 C 2221.05 1.33361 1.90572 0
M  V30 25557 C 2222.05 0.22227 1.67935 0
M  V30 25558 O 2223.25 0.390335 1.75717 0
M  V30 25559 H 2219.63 0.415623 0.626707 0
M  V30 25560 H 2221.6 2.29148 1.91138 0
M  V30 25561 C 2220.35 1.15819 3.27843 0
M  V30 25562 H 2219.67 2.00589 3.45838 0
M  V30 25563 H 2221.11 1.17007 4.07536 0
M  V30 25564 C 2219.57 -0.136106 3.36625 0
M  V30 25565 O 2220.1 -1.11942 3.85787 0
M  V30 25566 N 2218.31 -0.187048 2.89997 0
M  V30 25567 H 2217.85 0.613797 2.50181 0
M  V30 25568 H 2217.81 -1.05266 2.96254 0
M  V30 25569 N 2221.58 -0.997276 1.22033 0
M  V30 25570 C 2222.51 -2.10493 1.01069 0
M  V30 25571 C 2223.5 -1.69968 -0.0669243 0
M  V30 25572 O 2224.68 -1.9397 0.0944328 0
M  V30 25573 C 2221.81 -3.42373 0.582934 0
M  V30 25574 C 2220.76 -3.96727 1.60599 0
M  V30 25575 C 2220.09 -5.24603 1.03421 0
M  V30 25576 C 2221.39 -4.27909 2.99485 0
M  V30 25577 H 2223.08 -2.28289 1.93712 0
M  V30 25578 H 2220.63 -1.09705 0.93278 0
M  V30 25579 H 2222.58 -4.19268 0.423406 0
M  V30 25580 H 2221.31 -3.24392 -0.379156 0
M  V30 25581 H 2219.97 -3.21959 1.75322 0
M  V30 25582 H 2219.61 -5.0296 0.0636064 0
M  V30 25583 H 2219.31 -5.61935 1.71764 0
M  V30 25584 H 2220.84 -6.04135 0.886172 0
M  V30 25585 H 2222.25 -4.95617 2.88161 0
M  V30 25586 H 2220.65 -4.76403 3.64912 0
M  V30 25587 H 2221.72 -3.35864 3.49748 0
M  V30 25588 N 2223.06 -1.02932 -1.19343 0
M  V30 25589 C 2224.01 -0.604041 -2.2462 0
M  V30 25590 C 2225 0.363558 -1.65453 0
M  V30 25591 O 2226.21 0.232088 -1.78497 0
M  V30 25592 H 2222.59 -0.177073 -0.730855 0
M  V30 25593 H 2224.56 -1.50259 -2.57808 0
M  V30 25594 C 2223.31 0.0288516 -3.47688 0
M  V30 25595 H 2222.63 -0.70672 -3.93504 0
M  V30 25596 H 2224.07 0.289358 -4.23011 0
M  V30 25597 C 2222.53 1.27555 -3.11819 0
M  V30 25598 O 2223.06 2.36756 -3.24514 0
M  V30 25599 N 2221.26 1.16448 -2.66248 0
M  V30 25600 H 2220.81 0.275869 -2.56119 0
M  V30 25601 H 2220.77 1.99957 -2.4262 0
M  V30 25602 N 2224.54 1.35356 -0.807246 0
M  V30 25603 C 2225.79 1.99044 -0.388498 0
M  V30 25604 C 2226.12 1.6389 1.04181 0
M  V30 25605 O 2225.39 0.902565 1.7229 0
M  V30 25606 C 2225.68 3.55514 -0.572846 0
M  V30 25607 C 2225.53 4.00464 -2.04814 0
M  V30 25608 C 2226.85 4.401 0.00106328 0
M  V30 25609 H 2223.97 0.723067 -0.142631 0
M  V30 25610 H 2226.61 1.60496 -1.0169 0
M  V30 25611 H 2224.76 3.88482 -0.0379108 0
M  V30 25612 H 2226.43 3.77903 -2.6455 0
M  V30 25613 H 2224.68 3.51349 -2.54433 0
M  V30 25614 H 2225.35 5.09333 -2.128 0
M  V30 25615 H 2227.82 4.13596 -0.455788 0
M  V30 25616 H 2226.7 5.48673 -0.157833 0
M  V30 25617 H 2226.96 4.2833 1.09481 0
M  V30 25618 N 2226.02 0.560807 1.47284 0
M  V30 25619 C 2227.25 0.0430001 2.06555 0
M  V30 25620 C 2227.66 -1.25774 1.41342 0
M  V30 25621 O 2227 -1.76616 0.505213 0
M  V30 25622 C 2227.06 -0.219824 3.58827 0
M  V30 25623 C 2226.73 0.992023 4.46103 0
M  V30 25624 C 2227.72 1.89852 4.83996 0
M  V30 25625 C 2225.41 1.20771 4.87565 0
M  V30 25626 C 2227.4 3.00435 5.62154 0
M  V30 25627 C 2225.09 2.31663 5.65487 0
M  V30 25628 C 2226.09 3.21326 6.02693 0
M  V30 25629 O 2225.77 4.30295 6.79045 0
M  V30 25630 H 2225.51 0.0444586 0.674536 0
M  V30 25631 H 2228.06 0.774852 1.90224 0
M  V30 25632 H 2226.29 -1.00603 3.73384 0
M  V30 25633 H 2227.98 -0.683452 4.00105 0
M  V30 25634 H 2228.75 1.74395 4.52561 0
M  V30 25635 H 2224.62 0.518973 4.58069 0
M  V30 25636 H 2228.17 3.70446 5.91114 0
M  V30 25637 H 2224.07 2.47091 5.96336 0
M  V30 25638 H 2224.83 4.28388 6.97443 0
M  V30 25639 N 2227.5 -1.54768 0.297442 0
M  V30 25640 C 2228.73 -2.04183 -0.315129 0
M  V30 25641 C 2229.13 -1.17441 -1.48338 0
M  V30 25642 O 2228.48 -0.191923 -1.82695 0
M  V30 25643 C 2228.54 -3.49608 -0.837521 0
M  V30 25644 C 2228.2 -4.5654 0.204992 0
M  V30 25645 C 2229.2 -5.0955 1.03222 0
M  V30 25646 C 2226.89 -5.01109 0.345666 0
M  V30 25647 C 2228.88 -6.05667 1.98611 0
M  V30 25648 C 2226.57 -5.97047 1.303 0
M  V30 25649 C 2227.56 -6.49209 2.1217 0
M  V30 25650 O 2227.25 -7.43268 3.06281 0
M  V30 25651 H 2226.98 -0.672052 -0.0729528 0
M  V30 25652 H 2229.54 -2.00764 0.433942 0
M  V30 25653 H 2227.77 -3.50339 -1.63706 0
M  V30 25654 H 2229.46 -3.82239 -1.36559 0
M  V30 25655 H 2230.22 -4.75914 0.934395 0
M  V30 25656 H 2226.1 -4.60139 -0.281629 0
M  V30 25657 H 2229.65 -6.46306 2.62553 0
M  V30 25658 H 2225.54 -6.301 1.40156 0
M  V30 25659 H 2226.31 -7.61058 3.01219 0
M  V30 25660 N 2228.97 -0.0251005 -1.5758 0
M  V30 25661 C 2229.92 0.976133 -2.11127 0
M  V30 25662 C 2230.92 1.33957 -1.03691 0
M  V30 25663 O 2232.12 1.32227 -1.22131 0
M  V30 25664 H 2228.5 0.33255 -0.674474 0
M  V30 25665 H 2230.47 0.499171 -2.94195 0
M  V30 25666 C 2229.22 2.25076 -2.65021 0
M  V30 25667 H 2228.54 1.97984 -3.47336 0
M  V30 25668 H 2229.98 2.93352 -3.06138 0
M  V30 25669 C 2228.44 2.97776 -1.57579 0
M  V30 25670 O 2228.97 3.89731 -0.973272 0
M  V30 25671 N 2227.18 2.60041 -1.2972 0
M  V30 25672 H 2226.72 1.85342 -1.78903 0
M  V30 25673 H 2226.68 3.08993 -0.580564 0
M  V30 25674 N 2230.45 1.55637 0.247999 0
M  V30 25675 C 2231.7 1.77417 0.976193 0
M  V30 25676 C 2232.03 0.589226 1.8536 0
M  V30 25677 O 2231.28 -0.427495 1.90974 0
M  V30 25678 C 2231.58 3.04689 1.86813 0
M  V30 25679 C 2231.25 4.36089 1.14617 0
M  V30 25680 C 2229.91 4.71797 0.94664 0
M  V30 25681 C 2232.26 5.17325 0.634372 0
M  V30 25682 C 2229.59 5.86276 0.222988 0
M  V30 25683 C 2231.94 6.32555 -0.0758071 0
M  V30 25684 C 2230.61 6.66883 -0.286828 0
M  V30 25685 H 2229.88 0.649214 0.357214 0
M  V30 25686 H 2232.52 1.89908 0.246381 0
M  V30 25687 H 2230.83 2.87205 2.66497 0
M  V30 25688 H 2232.52 3.1874 2.43323 0
M  V30 25689 H 2229.11 4.08037 1.31163 0
M  V30 25690 H 2233.3 4.90195 0.776074 0
M  V30 25691 H 2228.55 6.1138 0.0490111 0
M  V30 25692 H 2232.73 6.94744 -0.480022 0
M  V30 25693 H 2230.36 7.55438 -0.849522 0
M  V30 25694 N 2231.93 -0.513613 1.48996 0
M  V30 25695 C 2232.88 -1.63741 1.65201 0
M  V30 25696 C 2233.87 -1.61282 0.518118 0
M  V30 25697 O 2235.08 -1.65942 0.697364 0
M  V30 25698 H 2231.45 -0.542565 0.520699 0
M  V30 25699 H 2233.43 -1.47222 2.59554 0
M  V30 25700 C 2232.17 -3.01942 1.72414 0
M  V30 25701 H 2231.5 -3.04535 2.59034 0
M  V30 25702 H 2232.94 -3.80145 1.87792 0
M  V30 25703 C 2231.4 -3.33658 0.466238 0
M  V30 25704 O 2231.93 -3.99564 -0.413674 0
M  V30 25705 N 2230.13 -2.88686 0.332981 0
M  V30 25706 H 2229.68 -2.35229 1.05001 0
M  V30 25707 H 2229.64 -3.10275 -0.507611 0
M  V30 25708 N 2233.41 -1.37859 -0.763727 0
M  V30 25709 C 2234.36 -1.34271 -1.87723 0
M  V30 25710 C 2235.33 -0.206908 -1.64806 0
M  V30 25711 O 2236.51 -0.397541 -1.86613 0
M  V30 25712 C 2233.65 -1.16352 -3.24894 0
M  V30 25713 C 2232.76 -2.39231 -3.59711 0
M  V30 25714 C 2231.9 -2.14122 -4.86133 0
M  V30 25715 C 2230.94 -3.32826 -5.13705 0
M  V30 25716 N 2230.08 -3.07217 -6.31318 0
M  V30 25717 H 2234.92 -2.2947 -1.90125 0
M  V30 25718 H 2232.45 -1.14019 -0.929412 0
M  V30 25719 H 2234.41 -1.03982 -4.04034 0
M  V30 25720 H 2233.04 -0.247965 -3.21846 0
M  V30 25721 H 2232.09 -2.62312 -2.75494 0
M  V30 25722 H 2233.4 -3.27734 -3.76021 0
M  V30 25723 H 2232.56 -1.9883 -5.73194 0
M  V30 25724 H 2231.3 -1.22969 -4.71943 0
M  V30 25725 H 2230.3 -3.48649 -4.25116 0
M  V30 25726 H 2231.53 -4.24841 -5.29799 0
M  V30 25727 H 2229.47 -2.18701 -6.18471 0
M  V30 25728 H 2229.39 -3.89265 -6.48081 0
M  V30 25729 H 2230.66 -2.95558 -7.21294 0
M  V30 25730 N 2234.89 0.990791 -1.22561 0
M  V30 25731 C 2235.83 2.08129 -0.997555 0
M  V30 25732 C 2236.8 1.659 0.081441 0
M  V30 25733 O 2237.99 1.90677 -0.0685759 0
M  V30 25734 C 2235.13 3.40128 -0.583675 0
M  V30 25735 C 2234.24 3.95687 -1.73367 0
M  V30 25736 C 2233.38 5.15855 -1.26757 0
M  V30 25737 C 2232.42 5.63555 -2.38898 0
M  V30 25738 N 2231.55 6.74961 -1.9332 0
M  V30 25739 H 2236.39 2.2697 -1.93103 0
M  V30 25740 H 2233.93 1.11272 -0.962133 0
M  V30 25741 H 2235.89 4.15933 -0.324874 0
M  V30 25742 H 2234.52 3.21281 0.312789 0
M  V30 25743 H 2233.57 3.16734 -2.10674 0
M  V30 25744 H 2234.88 4.27067 -2.57712 0
M  V30 25745 H 2234.04 5.98956 -0.966278 0
M  V30 25746 H 2232.78 4.86103 -0.394357 0
M  V30 25747 H 2231.78 4.79041 -2.69814 0
M  V30 25748 H 2233.01 5.95331 -3.26739 0
M  V30 25749 H 2230.95 6.46988 -1.08364 0
M  V30 25750 H 2230.87 7.0567 -2.7123 0
M  V30 25751 H 2232.14 7.61562 -1.66265 0
M  V30 25752 N 2236.37 1.03564 1.18795 0
M  V30 25753 C 2237.31 0.622298 2.22252 0
M  V30 25754 C 2238.28 -0.367332 1.61987 0
M  V30 25755 O 2239.47 -0.262459 1.88986 0
M  V30 25756 C 2236.61 -0.0137855 3.45097 0
M  V30 25757 C 2235.72 1.0227 4.1972 0
M  V30 25758 C 2234.86 0.355666 5.30008 0
M  V30 25759 C 2233.89 1.3776 5.96396 0
M  V30 25760 N 2233.03 0.735888 6.98233 0
M  V30 25761 H 2237.87 1.50907 2.56965 0
M  V30 25762 H 2235.41 0.755039 1.26244 0
M  V30 25763 H 2237.37 -0.399875 4.15279 0
M  V30 25764 H 2236 -0.864103 3.11019 0
M  V30 25765 H 2235.05 1.52679 3.48415 0
M  V30 25766 H 2236.36 1.79911 4.65224 0
M  V30 25767 H 2235.51 -0.0849028 6.06641 0
M  V30 25768 H 2234.25 -0.452882 4.85593 0
M  V30 25769 H 2233.26 1.82836 5.18509 0
M  V30 25770 H 2234.48 2.18776 6.42895 0
M  V30 25771 H 2232.43 -0.0524444 6.55979 0
M  V30 25772 H 2232.35 1.45008 7.41963 0
M  V30 25773 H 2233.61 0.319547 7.78845 0
M  V30 25774 N 2237.84 -1.34926 0.814413 0
M  V30 25775 C 2238.79 -2.31572 0.218465 0
M  V30 25776 C 2239.79 -1.57004 -0.6361 0
M  V30 25777 O 2240.99 -1.7207 -0.52839 0
M  V30 25778 H 2237.37 -0.750207 0.0518931 0
M  V30 25779 H 2239.34 -2.7937 1.04857 0
M  V30 25780 C 2238.09 -3.42271 -0.612009 0
M  V30 25781 H 2237.41 -3.99784 0.0362281 0
M  V30 25782 H 2238.85 -4.12154 -0.995245 0
M  V30 25783 C 2237.31 -2.85987 -1.78082 0
M  V30 25784 O 2237.84 -2.80173 -2.87865 0
M  V30 25785 N 2236.04 -2.42927 -1.59484 0
M  V30 25786 H 2235.59 -2.47855 -0.701831 0
M  V30 25787 H 2235.55 -2.05617 -2.37842 0
M  V30 25788 N 2239.32 -0.56861 -1.46985 0
M  V30 25789 C 2240.25 0.210297 -2.28233 0
M  V30 25790 C 2241.27 0.868743 -1.37683 0
M  V30 25791 O 2242.46 0.740676 -1.62408 0
M  V30 25792 C 2239.56 1.31625 -3.12295 0
M  V30 25793 C 2238.73 0.752425 -4.3088 0
M  V30 25794 C 2237.79 1.7443 -4.96448 0
M  V30 25795 O 2236.81 1.28591 -5.54485 0
M  V30 25796 N 2238.02 3.07804 -4.92176 0
M  V30 25797 H 2240.78 -0.4867 -2.95722 0
M  V30 25798 H 2238.34 -0.405436 -1.56741 0
M  V30 25799 H 2240.33 1.97877 -3.53025 0
M  V30 25800 H 2238.9 1.91631 -2.46974 0
M  V30 25801 H 2238.12 -0.087182 -3.94104 0
M  V30 25802 H 2239.41 0.35527 -5.07558 0
M  V30 25803 H 2238.81 3.47681 -4.46245 0
M  V30 25804 H 2237.37 3.69583 -5.36891 0
M  V30 25805 N 2240.8 1.54608 -0.305646 0
M  V30 25806 C 2242.08 1.9234 0.355618 0
M  V30 25807 C 2242.46 1.23338 1.71321 0
M  V30 25808 O 2241.8 0.370742 2.25472 0
M  V30 25809 C 2242.01 3.45879 0.465659 0
M  V30 25810 C 2243.36 4.18201 0.734353 0
M  V30 25811 O 2244.39 3.51939 0.549288 0
M  V30 25812 O 2243.25 5.35517 1.09015 0
M  V30 25813 H 2240.34 0.802539 0.199652 0
M  V30 25814 H 2242.89 1.65966 -0.354046 0
M  V30 25815 H 2241.66 3.88238 -0.488529 0
M  V30 25816 H 2241.28 3.78304 1.22361 0
M  V30 25817 N 2242.28 0.033457 1.57564 0
M  V30 25818 C 2243.23 -0.956201 2.0698 0
M  V30 25819 C 2244.21 -1.28282 0.971216 0
M  V30 25820 O 2245.4 -1.2682 1.23473 0
M  V30 25821 C 2242.53 -2.23714 2.60397 0
M  V30 25822 C 2241.62 -1.9387 3.77194 0
M  V30 25823 N 2242.01 -1.34313 4.87641 0
M  V30 25824 C 2240.31 -2.23838 3.85762 0
M  V30 25825 C 2241.01 -1.21699 5.68827 0
M  V30 25826 N 2239.98 -1.71395 5.15873 0
M  V30 25827 H 2243.79 -0.490764 2.89774 0
M  V30 25828 H 2241.3 -0.171449 1.61492 0
M  V30 25829 H 2243.3 -2.95491 2.94093 0
M  V30 25830 H 2241.96 -2.70881 1.79036 0
M  V30 25831 H 2242.97 -1.01758 5.07805 0
M  V30 25832 H 2239.65 -2.73648 3.15315 0
M  V30 25833 H 2241.04 -0.756092 6.67632 0
M  V30 25834 N 2243.76 -1.55766 -0.239741 0
M  V30 25835 C 2244.7 -1.90915 -1.29693 0
M  V30 25836 C 2245.67 -0.76419 -1.47477 0
M  V30 25837 O 2246.86 -1.01848 -1.61343 0
M  V30 25838 C 2244 -2.21549 -2.64594 0
M  V30 25839 C 2243.11 -3.48886 -2.54759 0
M  V30 25840 C 2242.25 -3.69055 -3.82062 0
M  V30 25841 C 2241.28 -4.89969 -3.66874 0
M  V30 25842 N 2240.42 -5.06622 -4.86085 0
M  V30 25843 H 2245.26 -2.81069 -0.990175 0
M  V30 25844 H 2242.8 -1.39129 -0.477659 0
M  V30 25845 H 2244.76 -2.37316 -3.43128 0
M  V30 25846 H 2243.39 -1.3459 -2.93403 0
M  V30 25847 H 2242.44 -3.41412 -1.67757 0
M  V30 25848 H 2243.75 -4.37568 -2.3945 0
M  V30 25849 H 2242.9 -3.84821 -4.69039 0
M  V30 25850 H 2241.64 -2.78621 -4.00277 0
M  V30 25851 H 2240.65 -4.74173 -2.7828 0
M  V30 25852 H 2241.87 -5.81871 -3.50147 0
M  V30 25853 H 2239.82 -4.19126 -5.04647 0
M  V30 25854 H 2239.74 -5.89404 -4.73433 0
M  V30 25855 H 2241 -5.26806 -5.7454 0
M  V30 25856 N 2245.23 0.505704 -1.49266 0
M  V30 25857 C 2246.2 1.59003 -1.65078 0
M  V30 25858 C 2247.2 1.52064 -0.522794 0
M  V30 25859 O 2248.39 1.553 -0.789145 0
M  V30 25860 C 2245.52 2.98653 -1.64375 0
M  V30 25861 H 2246.71 1.46314 -2.61786 0
M  V30 25862 H 2244.26 0.729592 -1.38227 0
M  V30 25863 H 2245 3.16824 -0.692328 0
M  V30 25864 H 2244.78 3.05098 -2.46287 0
M  V30 25865 H 2246.27 3.77443 -1.7868 0
M  V30 25866 N 2246.71 1.38262 0.756405 0
M  V30 25867 C 2247.66 1.31769 1.86067 0
M  V30 25868 C 2248.65 0.202511 1.5962 0
M  V30 25869 O 2249.84 0.438241 1.71489 0
M  V30 25870 C 2246.97 1.14226 3.2374 0
M  V30 25871 C 2246.05 2.30354 3.56087 0
M  V30 25872 N 2246.44 3.55789 3.5951 0
M  V30 25873 C 2244.74 2.22844 3.86337 0
M  V30 25874 C 2245.44 4.32458 3.89044 0
M  V30 25875 N 2244.42 3.61779 4.0573 0
M  V30 25876 H 2248.22 2.26744 1.86988 0
M  V30 25877 H 2245.74 1.31453 0.953619 0
M  V30 25878 H 2247.73 1.07659 4.0276 0
M  V30 25879 H 2246.39 0.20182 3.24072 0
M  V30 25880 H 2247.4 3.89497 3.4134 0
M  V30 25881 H 2244.08 1.36944 3.94402 0
M  V30 25882 H 2245.47 5.41087 3.9834 0
M  V30 25883 N 2248.19 -0.984277 1.23084 0
M  V30 25884 C 2249.44 -1.72163 1.05851 0
M  V30 25885 C 2249.76 -1.90726 -0.406016 0
M  V30 25886 O 2249.03 -1.47311 -1.29136 0
M  V30 25887 H 2247.61 -0.637906 0.388696 0
M  V30 25888 H 2250.27 -1.185 1.54738 0
M  V30 25889 H 2249.37 -2.71271 1.54331 0
M  V30 25890 N 2249.67 -1.04192 -1.18244 0
M  V30 25891 C 2250.89 -0.76603 -1.92735 0
M  V30 25892 C 2251.32 0.670879 -1.75729 0
M  V30 25893 O 2250.68 1.46484 -1.06827 0
M  V30 25894 C 2250.72 -1.13881 -3.42146 0
M  V30 25895 O 2249.83 -0.265026 -4.11548 0
M  V30 25896 H 2249.17 -0.281807 -0.601233 0
M  V30 25897 H 2251.7 -1.3921 -1.49939 0
M  V30 25898 H 2251.71 -1.10127 -3.92856 0
M  V30 25899 H 2250.38 -2.18558 -3.53844 0
M  V30 25900 H 2248.96 -0.362291 -3.71136 0
M  V30 25901 N 2251.15 1.34492 -0.821557 0
M  V30 25902 C 2252.09 2.31453 -0.230743 0
M  V30 25903 C 2253.09 1.57339 0.627765 0
M  V30 25904 O 2254.29 1.72348 0.519257 0
M  V30 25905 H 2250.67 0.749922 -0.0558709 0
M  V30 25906 H 2252.64 2.7881 -1.06337 0
M  V30 25907 C 2251.39 3.42591 0.593849 0
M  V30 25908 H 2250.71 3.99759 -0.057429 0
M  V30 25909 H 2252.15 4.12676 0.973374 0
M  V30 25910 C 2250.61 2.86927 1.76563 0
M  V30 25911 O 2251.14 2.81696 2.86375 0
M  V30 25912 N 2249.35 2.43769 1.58193 0
M  V30 25913 H 2248.89 2.48224 0.688677 0
M  V30 25914 H 2248.85 2.06876 2.36749 0
M  V30 25915 N 2252.62 0.576397 1.46681 0
M  V30 25916 C 2253.87 0.0596577 2.02712 0
M  V30 25917 C 2254.2 -1.29445 1.44767 0
M  V30 25918 O 2253.48 -1.84674 0.610387 0
M  V30 25919 C 2253.76 -0.012887 3.60098 0
M  V30 25920 C 2253.61 1.36967 4.28439 0
M  V30 25921 C 2254.93 -0.716704 4.34225 0
M  V30 25922 H 2252.05 0.0231537 0.736636 0
M  V30 25923 H 2254.69 0.742381 1.74896 0
M  V30 25924 H 2252.84 -0.594311 3.83927 0
M  V30 25925 H 2254.52 1.99578 4.15892 0
M  V30 25926 H 2252.76 1.93913 3.88046 0
M  V30 25927 H 2253.43 1.27145 5.37158 0
M  V30 25928 H 2255.91 -0.222834 4.15503 0
M  V30 25929 H 2254.78 -0.736475 5.43937 0
M  V30 25930 H 2255.04 -1.77675 4.04826 0
M  V30 25931 N 2254.1 -1.54444 0.313841 0
M  V30 25932 C 2255.35 -2.00389 -0.29164 0
M  V30 25933 C 2255.68 -1.20213 -1.52902 0
M  V30 25934 O 2254.93 -0.269741 -1.93832 0
M  V30 25935 C 2255.23 -3.50865 -0.680324 0
M  V30 25936 C 2254.9 -4.4858 0.456778 0
M  V30 25937 C 2253.56 -4.75017 0.768908 0
M  V30 25938 C 2255.91 -5.06695 1.22107 0
M  V30 25939 C 2253.24 -5.56828 1.84822 0
M  V30 25940 C 2255.59 -5.89681 2.2904 0
M  V30 25941 C 2254.26 -6.14423 2.60845 0
M  V30 25942 H 2253.53 -0.733275 -0.106719 0
M  V30 25943 H 2256.17 -1.8648 0.435603 0
M  V30 25944 H 2254.48 -3.6245 -1.48785 0
M  V30 25945 H 2256.17 -3.8385 -1.1602 0
M  V30 25946 H 2252.76 -4.28117 0.203413 0
M  V30 25947 H 2256.95 -4.86261 0.993182 0
M  V30 25948 H 2252.2 -5.74232 2.09922 0
M  V30 25949 H 2256.38 -6.33734 2.88711 0
M  V30 25950 H 2254.01 -6.77606 3.44608 0
M  V30 25951 N 2255.58 -0.0418125 -1.57545 0
M  V30 25952 C 2256.51 0.933891 -2.14011 0
M  V30 25953 C 2257.49 1.33082 -1.0594 0
M  V30 25954 O 2258.68 1.40719 -1.33835 0
M  V30 25955 C 2255.81 2.21194 -2.67751 0
M  V30 25956 C 2254.76 1.95538 -3.80722 0
M  V30 25957 C 2254.09 3.29717 -4.20941 0
M  V30 25958 C 2255.39 1.28443 -5.06261 0
M  V30 25959 H 2257.08 0.463593 -2.95789 0
M  V30 25960 H 2254.63 0.221548 -1.42286 0
M  V30 25961 H 2256.58 2.89843 -3.05891 0
M  V30 25962 H 2255.3 2.70413 -1.83151 0
M  V30 25963 H 2253.96 1.29304 -3.4304 0
M  V30 25964 H 2253.61 3.76719 -3.33305 0
M  V30 25965 H 2253.31 3.13352 -4.97076 0
M  V30 25966 H 2254.83 3.99612 -4.61673 0
M  V30 25967 H 2256.25 1.87111 -5.41906 0
M  V30 25968 H 2254.65 1.22434 -5.87477 0
M  V30 25969 H 2255.72 0.259134 -4.84207 0
M  V30 25970 N 2257.06 1.55891 0.231477 0
M  V30 25971 C 2258.34 1.69217 0.981066 0
M  V30 25972 C 2258.72 0.586199 2.02798 0
M  V30 25973 O 2258.06 -0.408214 2.24824 0
M  V30 25974 C 2258.27 3.10138 1.60048 0
M  V30 25975 C 2259.62 3.69231 2.09651 0
M  V30 25976 O 2260.65 3.13036 1.69961 0
M  V30 25977 O 2259.5 4.67777 2.82572 0
M  V30 25978 H 2256.6 0.688835 0.45764 0
M  V30 25979 H 2259.14 1.68215 0.224043 0
M  V30 25980 H 2257.92 3.82089 0.844038 0
M  V30 25981 H 2257.54 3.15217 2.42331 0
M  V30 25982 N 2258.54 -0.497781 1.49532 0
M  V30 25983 C 2259.78 -1.24923 1.58867 0
M  V30 25984 C 2260.11 -1.92997 0.278755 0
M  V30 25985 O 2259.38 -1.82886 -0.702112 0
M  V30 25986 H 2257.96 -0.464083 0.585351 0
M  V30 25987 H 2260.62 -0.576627 1.86175 0
M  V30 25988 H 2259.71 -2.01145 2.38636 0
M  V30 25989 N 2260.01 -1.38661 -0.749062 0
M  V30 25990 C 2261.26 -1.3485 -1.50532 0
M  V30 25991 C 2261.58 0.0594673 -1.94909 0
M  V30 25992 O 2260.85 1.00803 -1.67975 0
M  V30 25993 H 2259.43 -0.4962 -0.558386 0
M  V30 25994 H 2262.1 -1.73386 -0.890134 0
M  V30 25995 H 2261.19 -2.00223 -2.3941 0
M  V30 25996 N 2261.49 0.977736 -1.23605 0
M  V30 25997 C 2262.42 2.08858 -1.04405 0
M  V30 25998 C 2263.4 1.70053 0.0398754 0
M  V30 25999 O 2264.59 1.93795 -0.12528 0
M  V30 26000 C 2261.72 3.41402 -0.637329 0
M  V30 26001 C 2260.67 3.94121 -1.6689 0
M  V30 26002 C 2260 5.22891 -1.11754 0
M  V30 26003 C 2261.3 4.2309 -3.06255 0
M  V30 26004 H 2262.99 2.25178 -1.9732 0
M  V30 26005 H 2260.54 1.08207 -0.950115 0
M  V30 26006 H 2262.49 4.18541 -0.490054 0
M  V30 26007 H 2261.22 3.24954 0.3275 0
M  V30 26008 H 2259.88 3.1913 -1.80421 0
M  V30 26009 H 2259.52 5.02795 -0.143615 0
M  V30 26010 H 2259.22 5.59131 -1.80682 0
M  V30 26011 H 2260.75 6.02649 -0.982173 0
M  V30 26012 H 2262.16 4.9097 -2.9601 0
M  V30 26013 H 2260.56 4.70537 -3.72445 0
M  V30 26014 H 2261.63 3.30257 -3.55047 0
M  V30 26015 N 2262.97 1.04818 1.1769 0
M  V30 26016 C 2264.2 0.776241 1.92326 0
M  V30 26017 C 2264.62 -0.661551 1.76083 0
M  V30 26018 O 2263.98 -1.45916 1.07603 0
M  V30 26019 C 2264.03 1.15693 3.41537 0
M  V30 26020 O 2263.13 0.286848 4.11401 0
M  V30 26021 H 2262.47 0.284992 0.59973 0
M  V30 26022 H 2265 1.40003 1.49199 0
M  V30 26023 H 2265.01 1.12209 3.92267 0
M  V30 26024 H 2263.69 2.20431 3.5268 0
M  V30 26025 H 2262.26 0.381969 3.70939 0
M  V30 26026 N 2264.45 -1.34055 0.828678 0
M  V30 26027 C 2265.38 -2.3194 0.269483 0
M  V30 26028 C 2266.36 -1.58507 -0.617219 0
M  V30 26029 O 2267.55 -1.86457 -0.542898 0
M  V30 26030 C 2264.68 -3.42678 -0.564733 0
M  V30 26031 C 2263.63 -4.27407 0.225316 0
M  V30 26032 C 2262.96 -5.29666 -0.732007 0
M  V30 26033 C 2264.26 -5.02151 1.43672 0
M  V30 26034 H 2265.95 -2.78958 1.08733 0
M  V30 26035 H 2263.5 -1.34116 0.524307 0
M  V30 26036 H 2265.45 -4.10175 -0.966161 0
M  V30 26037 H 2264.17 -2.94323 -1.41569 0
M  V30 26038 H 2262.83 -3.6152 0.608181 0
M  V30 26039 H 2262.48 -4.77571 -1.57908 0
M  V30 26040 H 2262.18 -5.87233 -0.207566 0
M  V30 26041 H 2263.7 -6.00031 -1.13117 0
M  V30 26042 H 2265.12 -5.62471 1.109 0
M  V30 26043 H 2263.51 -5.6932 1.89721 0
M  V30 26044 H 2264.58 -4.31513 2.21189 0
M  V30 26045 N 2265.93 -0.584167 -1.46374 0
M  V30 26046 C 2267.15 -0.0740769 -2.07268 0
M  V30 26047 C 2267.58 1.22221 -1.42981 0
M  V30 26048 O 2266.94 1.73858 -0.514123 0
M  V30 26049 C 2266.98 0.0767136 -3.60518 0
M  V30 26050 O 2266.09 1.13285 -3.96535 0
M  V30 26051 H 2265.43 -0.0634641 -0.66096 0
M  V30 26052 H 2267.96 -0.807525 -1.8799 0
M  V30 26053 H 2267.97 0.282418 -4.07021 0
M  V30 26054 H 2266.64 -0.869932 -4.067 0
M  V30 26055 H 2265.22 0.905489 -3.61739 0
M  V30 26056 N 2267.41 1.54275 -0.322027 0
M  V30 26057 C 2268.35 2.24282 0.544624 0
M  V30 26058 C 2269.32 1.23305 1.11288 0
M  V30 26059 O 2270.51 1.51983 1.15351 0
M  V30 26060 C 2267.65 3.00301 1.7004 0
M  V30 26061 C 2266.76 4.16092 1.16152 0
M  V30 26062 C 2265.9 4.79645 2.28285 0
M  V30 26063 C 2264.93 5.87543 1.71638 0
M  V30 26064 N 2264.07 6.44964 2.77427 0
M  V30 26065 H 2268.91 2.97942 -0.0589431 0
M  V30 26066 H 2266.45 1.47043 -0.0408604 0
M  V30 26067 H 2268.41 3.4262 2.38048 0
M  V30 26068 H 2267.04 2.28979 2.27527 0
M  V30 26069 H 2266.09 3.78567 0.373025 0
M  V30 26070 H 2267.4 4.93764 0.707 0
M  V30 26071 H 2266.55 5.24925 3.04201 0
M  V30 26072 H 2265.29 4.01351 2.77072 0
M  V30 26073 H 2264.3 5.41667 0.942187 0
M  V30 26074 H 2265.52 6.67733 1.23729 0
M  V30 26075 H 2263.47 5.69544 3.25509 0
M  V30 26076 H 2263.39 7.18044 2.36534 0
M  V30 26077 H 2264.65 6.949 3.53177 0
M  V30 26078 N 2268.88 0.0501669 1.5752 0
M  V30 26079 C 2269.83 -0.942421 2.12653 0
M  V30 26080 C 2270.83 -1.32291 1.05809 0
M  V30 26081 O 2272.03 -1.30268 1.24219 0
M  V30 26082 H 2268.41 -0.321777 0.679679 0
M  V30 26083 H 2270.38 -0.452304 2.94952 0
M  V30 26084 C 2269.13 -2.20831 2.68568 0
M  V30 26085 H 2268.45 -1.92433 3.50442 0
M  V30 26086 H 2269.89 -2.88444 3.10767 0
M  V30 26087 C 2268.35 -2.95231 1.62297 0
M  V30 26088 O 2268.88 -3.88133 1.03515 0
M  V30 26089 N 2267.08 -2.57944 1.33841 0
M  V30 26090 H 2266.63 -1.82472 1.81829 0
M  V30 26091 H 2266.59 -3.0803 0.629649 0
M  V30 26092 N 2270.36 -1.56011 -0.223207 0
M  V30 26093 C 2271.29 -1.87291 -1.30374 0
M  V30 26094 C 2272.27 -0.730138 -1.45285 0
M  V30 26095 O 2273.46 -0.97833 -1.61124 0
M  V30 26096 C 2270.58 -2.07847 -2.67427 0
M  V30 26097 C 2269.63 -3.30531 -2.6954 0
M  V30 26098 S 2270.46 -4.86504 -2.23773 0
M  V30 26099 C 2271.62 -5.10094 -3.62705 0
M  V30 26100 H 2271.85 -2.78648 -1.03647 0
M  V30 26101 H 2269.38 -1.48425 -0.425367 0
M  V30 26102 H 2271.34 -2.20374 -3.46332 0
M  V30 26103 H 2270 -1.1729 -2.91379 0
M  V30 26104 H 2269.2 -3.41953 -3.70248 0
M  V30 26105 H 2268.8 -3.16852 -1.98697 0
M  V30 26106 H 2271.09 -4.98891 -4.58382 0
M  V30 26107 H 2272.03 -6.11987 -3.56199 0
M  V30 26108 H 2272.44 -4.37835 -3.56316 0
M  V30 26109 N 2271.84 0.489844 -1.49794 0
M  V30 26110 C 2273.06 1.27169 -1.63838 0
M  V30 26111 C 2273.49 1.8546 -0.314053 0
M  V30 26112 O 2272.85 1.664 0.719774 0
M  V30 26113 C 2272.9 2.36973 -2.71801 0
M  V30 26114 O 2272 3.41124 -2.3175 0
M  V30 26115 H 2271.34 0.37495 -0.548004 0
M  V30 26116 H 2273.87 0.585157 -1.96054 0
M  V30 26117 H 2273.88 2.8257 -2.9431 0
M  V30 26118 H 2272.56 1.93915 -3.67927 0
M  V30 26119 H 2271.13 3.01369 -2.19616 0
M  V30 26120 N 2273.32 1.39056 0.741698 0
M  V30 26121 C 2274.56 1.35914 1.50112 0
M  V30 26122 C 2274.89 -0.0470596 1.94443 0
M  V30 26123 O 2274.15 -1.02656 1.66614 0
M  V30 26124 C 2274.45 2.27168 2.75916 0
M  V30 26125 C 2274.11 3.74923 2.50486 0
M  V30 26126 C 2272.77 4.15184 2.4326 0
M  V30 26127 C 2275.13 4.68404 2.28577 0
M  V30 26128 C 2272.45 5.46998 2.12156 0
M  V30 26129 C 2274.81 6.00488 1.98991 0
M  V30 26130 C 2273.47 6.3982 1.90229 0
M  V30 26131 H 2272.74 0.497346 0.549298 0
M  V30 26132 H 2275.39 1.71509 0.851866 0
M  V30 26133 H 2273.69 1.84669 3.4555 0
M  V30 26134 H 2275.39 2.22034 3.33919 0
M  V30 26135 H 2271.98 3.4301 2.56986 0
M  V30 26136 H 2276.16 4.38137 2.33131 0
M  V30 26137 H 2271.42 5.76401 2.0389 0
M  V30 26138 H 2275.59 6.72455 1.81045 0
M  V30 26139 H 2273.22 7.41878 1.65894 0
M  V30 26140 N 2274.8 -0.971167 1.24121 0
M  V30 26141 C 2276.02 -1.75405 1.1067 0
M  V30 26142 C 2276.45 -1.85056 -0.337016 0
M  V30 26143 O 2275.8 -1.31894 -1.24393 0
M  V30 26144 C 2275.85 -3.15438 1.74732 0
M  V30 26145 O 2274.96 -3.99696 1.01573 0
M  V30 26146 H 2274.3 -0.53931 0.387351 0
M  V30 26147 H 2276.83 -1.21847 1.6436 0
M  V30 26148 H 2276.84 -3.65976 1.80348 0
M  V30 26149 H 2275.51 -3.07729 2.79778 0
M  V30 26150 H 2274.09 -3.58185 1.03719 0
M  V30 26151 N 2276.27 -1.05441 -1.17133 0
M  V30 26152 C 2277.55 -0.679731 -1.83409 0
M  V30 26153 C 2277.93 0.839692 -1.93681 0
M  V30 26154 O 2277.28 1.74662 -1.47328 0
M  V30 26155 C 2277.49 -1.37164 -3.20916 0
M  V30 26156 C 2278.84 -1.5113 -3.96793 0
M  V30 26157 O 2279.86 -1.33086 -3.30404 0
M  V30 26158 O 2278.72 -1.8066 -5.15775 0
M  V30 26159 H 2275.81 -0.239583 -0.791536 0
M  V30 26160 H 2278.36 -1.15415 -1.24408 0
M  V30 26161 H 2277.13 -2.40813 -3.08423 0
M  V30 26162 H 2276.76 -0.886742 -3.87586 0
M  V30 26163 N 2277.75 1.33613 -0.835776 0
M  V30 26164 C 2279 1.97143 -0.426324 0
M  V30 26165 C 2279.31 1.66955 1.01909 0
M  V30 26166 O 2280.52 2.24074 1.53307 0
M  V30 26167 C 2278.98 3.52799 -0.711383 0
M  V30 26168 C 2278.58 3.91867 -2.17127 0
M  V30 26169 C 2280.33 4.22896 -0.368729 0
M  V30 26170 C 2278.24 5.40489 -2.40054 0
M  V30 26171 H 2277.17 0.737753 -0.155683 0
M  V30 26172 H 2279.82 1.52276 -1.02393 0
M  V30 26173 H 2278.2 3.95976 -0.0434462 0
M  V30 26174 H 2279.37 3.59758 -2.87942 0
M  V30 26175 H 2277.69 3.34744 -2.4766 0
M  V30 26176 H 2280.28 5.32188 -0.517694 0
M  V30 26177 H 2280.63 4.10575 0.688006 0
M  V30 26178 H 2281.16 3.85239 -0.99177 0
M  V30 26179 H 2277.9 5.57809 -3.44281 0
M  V30 26180 H 2277.42 5.74069 -1.73795 0
M  V30 26181 H 2279.1 6.07336 -2.23053 0
M  V30 26182 N 2279.23 0.591922 1.46062 0
M  V30 26183 C 2280.18 -0.148698 2.32124 0
M  V30 26184 C 2281.17 -0.875261 1.45036 0
M  V30 26185 O 2282.38 -0.792604 1.6161 0
M  V30 26186 H 2278.75 -0.0668189 0.749026 0
M  V30 26187 H 2280.72 0.595835 2.92391 0
M  V30 26188 C 2279.47 -1.14304 3.28375 0
M  V30 26189 H 2278.8 -0.59339 3.95372 0
M  V30 26190 H 2280.24 -1.63148 3.91355 0
M  V30 26191 C 2278.7 -2.2087 2.54397 0
M  V30 26192 O 2279.23 -3.2837 2.31378 0
M  V30 26193 N 2277.43 -1.95727 2.148 0
M  V30 26194 H 2276.98 -1.08315 2.33721 0
M  V30 26195 H 2276.94 -2.67238 1.65624 0
M  V30 26196 N 2280.71 -1.54102 0.330204 0
M  V30 26197 C 2281.99 -1.92882 -0.324974 0
M  V30 26198 C 2282.37 -1.26048 -1.69337 0
M  V30 26199 O 2281.71 -0.406565 -2.24854 0
M  V30 26200 C 2281.92 -3.46577 -0.410573 0
M  V30 26201 C 2283.27 -4.19317 -0.667727 0
M  V30 26202 O 2284.3 -3.52769 -0.493228 0
M  V30 26203 O 2283.15 -5.37183 -1.00482 0
M  V30 26204 H 2280.25 -0.805613 -0.186859 0
M  V30 26205 H 2282.79 -1.65381 0.380405 0
M  V30 26206 H 2281.57 -3.87412 0.550233 0
M  V30 26207 H 2281.19 -3.80202 -1.16327 0
M  V30 26208 N 2282.19 -0.0585199 -1.57491 0
M  V30 26209 C 2283.12 0.91114 -2.1499 0
M  V30 26210 C 2284.1 1.3195 -1.07346 0
M  V30 26211 O 2285.28 1.39292 -1.3532 0
M  V30 26212 C 2282.41 2.18342 -2.70082 0
M  V30 26213 C 2281.37 1.91489 -3.82774 0
M  V30 26214 C 2280.69 3.25234 -4.24414 0
M  V30 26215 C 2281.99 1.23066 -5.07594 0
M  V30 26216 H 2283.69 0.432194 -2.96264 0
M  V30 26217 H 2281.23 0.206444 -1.42512 0
M  V30 26218 H 2283.19 2.86582 -3.08948 0
M  V30 26219 H 2281.91 2.68455 -1.86009 0
M  V30 26220 H 2280.57 1.25658 -3.44392 0
M  V30 26221 H 2280.22 3.73162 -3.37282 0
M  V30 26222 H 2279.92 3.08062 -5.00371 0
M  V30 26223 H 2281.44 3.94693 -4.65886 0
M  V30 26224 H 2282.85 1.81353 -5.4386 0
M  V30 26225 H 2281.25 1.16197 -5.88743 0
M  V30 26226 H 2282.32 0.207762 -4.84455 0
M  V30 26227 N 2283.66 1.56128 0.21493 0
M  V30 26228 C 2284.89 1.83886 0.959207 0
M  V30 26229 C 2285.31 0.639675 1.76889 0
M  V30 26230 O 2284.67 -0.41157 1.76567 0
M  V30 26231 C 2284.72 3.09696 1.84718 0
M  V30 26232 O 2283.82 2.88855 2.94341 0
M  V30 26233 H 2283.17 0.606073 0.27124 0
M  V30 26234 H 2285.7 2.03345 0.22624 0
M  V30 26235 H 2285.71 3.39973 2.2557 0
M  V30 26236 H 2284.38 3.96605 1.25211 0
M  V30 26237 H 2282.96 2.69828 2.57386 0
M  V30 26238 N 2285.14 -0.481893 1.50052 0
M  V30 26239 C 2286.05 -1.60725 1.70893 0
M  V30 26240 C 2287.07 -1.63626 0.591817 0
M  V30 26241 O 2288.24 -1.81695 0.868849 0
M  V30 26242 C 2285.31 -2.97002 1.7886 0
M  V30 26243 C 2284.37 -3.04576 3.02543 0
M  V30 26244 C 2283.6 -4.34352 3.1012 0
M  V30 26245 O 2283.83 -5.24245 2.24774 0
M  V30 26246 O 2282.76 -4.47294 4.02755 0
M  V30 26247 H 2286.59 -1.46067 2.66267 0
M  V30 26248 H 2284.17 -0.660241 1.34019 0
M  V30 26249 H 2286.05 -3.77961 1.86343 0
M  V30 26250 H 2284.73 -3.11882 0.866683 0
M  V30 26251 H 2283.64 -2.22734 3.00567 0
M  V30 26252 H 2284.97 -2.94629 3.94277 0
M  V30 26253 N 2286.62 -1.39448 -0.734313 0
M  V30 26254 C 2287.85 -1.4017 -1.52864 0
M  V30 26255 C 2288.27 0.00168206 -1.881 0
M  V30 26256 O 2287.63 0.988853 -1.51959 0
M  V30 26257 C 2287.68 -2.28171 -2.79231 0
M  V30 26258 O 2286.78 -1.71207 -3.75182 0
M  V30 26259 H 2286.12 -0.477298 -0.461609 0
M  V30 26260 H 2288.65 -1.83451 -0.905916 0
M  V30 26261 H 2288.66 -2.42708 -3.27959 0
M  V30 26262 H 2287.34 -3.3016 -2.52917 0
M  V30 26263 H 2285.91 -1.65918 -3.33955 0
M  V30 26264 N 2288.1 0.964571 -1.24635 0
M  V30 26265 C 2289.35 1.70228 -1.08191 0
M  V30 26266 C 2289.66 1.91899 0.378696 0
M  V30 26267 O 2290.87 2.63271 0.66338 0
M  V30 26268 C 2289.32 3.06416 -1.88778 0
M  V30 26269 C 2288.93 2.92576 -3.39268 0
M  V30 26270 C 2290.67 3.84038 -1.80874 0
M  V30 26271 C 2288.58 4.24094 -4.12187 0
M  V30 26272 H 2287.51 0.638364 -0.401256 0
M  V30 26273 H 2290.16 1.0746 -1.48744 0
M  V30 26274 H 2288.54 3.70031 -1.41042 0
M  V30 26275 H 2289.72 2.37954 -3.94607 0
M  V30 26276 H 2288.03 2.28418 -3.48158 0
M  V30 26277 H 2290.63 4.81431 -2.32654 0
M  V30 26278 H 2290.97 4.0903 -0.774615 0
M  V30 26279 H 2291.51 3.27155 -2.26307 0
M  V30 26280 H 2288.25 4.04294 -5.15972 0
M  V30 26281 H 2287.77 4.78519 -3.61634 0
M  V30 26282 H 2289.44 4.92695 -4.19358 0
M  V30 26283 N 2289.58 1.0606 1.16572 0
M  V30 26284 C 2290.51 0.627278 2.20449 0
M  V30 26285 C 2291.52 -0.313506 1.59753 0
M  V30 26286 O 2292.71 -0.104865 1.78192 0
M  V30 26287 C 2289.81 -0.100915 3.3875 0
M  V30 26288 C 2288.98 0.852763 4.29007 0
M  V30 26289 C 2288.04 0.164245 5.25944 0
M  V30 26290 O 2287.07 0.801146 5.63534 0
M  V30 26291 N 2288.27 -1.09508 5.70077 0
M  V30 26292 H 2291.04 1.52082 2.58247 0
M  V30 26293 H 2288.6 0.943617 1.31558 0
M  V30 26294 H 2290.59 -0.57187 4.00639 0
M  V30 26295 H 2289.16 -0.896228 2.99477 0
M  V30 26296 H 2288.38 1.50314 3.64416 0
M  V30 26297 H 2289.67 1.49981 4.86193 0
M  V30 26298 H 2289.06 -1.6327 5.41627 0
M  V30 26299 H 2287.62 -1.50995 6.34069 0
M  V30 26300 N 2291.06 -1.33168 0.84285 0
M  V30 26301 C 2292 -2.31056 0.267536 0
M  V30 26302 C 2293 -1.58318 -0.602654 0
M  V30 26303 O 2294.2 -1.73152 -0.491773 0
M  V30 26304 H 2290.58 -0.748938 0.0677944 0
M  V30 26305 H 2292.55 -2.77083 1.10759 0
M  V30 26306 C 2291.3 -3.43493 -0.539271 0
M  V30 26307 H 2290.62 -3.99617 0.12102 0
M  V30 26308 H 2292.06 -4.14172 -0.907597 0
M  V30 26309 C 2290.52 -2.897 -1.71976 0
M  V30 26310 O 2291.05 -2.86216 -2.81857 0
M  V30 26311 N 2289.26 -2.46255 -1.54295 0
M  V30 26312 H 2288.8 -2.49288 -0.649099 0
M  V30 26313 H 2288.76 -2.10616 -2.33427 0
M  V30 26314 N 2292.53 -0.599659 -1.45746 0
M  V30 26315 C 2293.76 -0.0977495 -2.06369 0
M  V30 26316 C 2294.17 1.21983 -1.44627 0
M  V30 26317 O 2293.51 1.75215 -0.551862 0
M  V30 26318 C 2293.58 0.12461 -3.59284 0
M  V30 26319 C 2293.24 -1.10995 -4.43316 0
M  V30 26320 C 2294.24 -2.02617 -4.78793 0
M  V30 26321 C 2291.92 -1.33655 -4.84192 0
M  V30 26322 C 2293.92 -3.15234 -5.53991 0
M  V30 26323 C 2291.6 -2.46574 -5.59146 0
M  V30 26324 C 2292.6 -3.37192 -5.93962 0
M  V30 26325 O 2292.29 -4.48147 -6.67397 0
M  V30 26326 H 2292.02 -0.0623272 -0.673121 0
M  V30 26327 H 2294.58 -0.825014 -1.88103 0
M  V30 26328 H 2292.81 0.906679 -3.75921 0
M  V30 26329 H 2294.49 0.577131 -4.01776 0
M  V30 26330 H 2295.26 -1.86332 -4.47778 0
M  V30 26331 H 2291.14 -0.64024 -4.56533 0
M  V30 26332 H 2294.68 -3.85988 -5.81084 0
M  V30 26333 H 2290.58 -2.62815 -5.89575 0
M  V30 26334 H 2291.35 -4.46729 -6.85839 0
M  V30 26335 N 2294.01 1.53925 -0.338371 0
M  V30 26336 C 2294.94 2.2779 0.51324 0
M  V30 26337 C 2295.92 1.29151 1.10698 0
M  V30 26338 O 2297.11 1.57986 1.12934 0
M  V30 26339 C 2294.24 3.04682 1.66691 0
M  V30 26340 C 2293.19 4.10782 1.20176 0
M  V30 26341 C 2292.52 4.756 2.44355 0
M  V30 26342 C 2293.82 5.21403 0.305958 0
M  V30 26343 H 2295.51 2.99223 -0.102936 0
M  V30 26344 H 2293.06 1.4391 -0.0509472 0
M  V30 26345 H 2295.01 3.55092 2.26909 0
M  V30 26346 H 2293.73 2.30892 2.30991 0
M  V30 26347 H 2292.39 3.61277 0.622436 0
M  V30 26348 H 2292.04 3.98408 3.0705 0
M  V30 26349 H 2291.74 5.47279 2.13916 0
M  V30 26350 H 2293.27 5.28791 3.05307 0
M  V30 26351 H 2294.68 5.6748 0.814829 0
M  V30 26352 H 2293.08 6.00027 0.0936874 0
M  V30 26353 H 2294.15 4.80397 -0.659294 0
M  V30 26354 N 2295.49 0.0668712 1.57458 0
M  V30 26355 C 2296.72 -0.611643 1.97339 0
M  V30 26356 C 2297.13 -1.6398 0.943773 0
M  V30 26357 O 2296.47 -1.83532 -0.0785261 0
M  V30 26358 C 2296.53 -1.34199 3.33513 0
M  V30 26359 C 2296.2 -0.467861 4.54599 0
M  V30 26360 C 2297.19 0.27253 5.19185 0
M  V30 26361 C 2294.88 -0.394182 5.00751 0
M  V30 26362 C 2296.87 1.07487 6.28272 0
M  V30 26363 C 2294.56 0.411836 6.09711 0
M  V30 26364 C 2295.56 1.14504 6.73333 0
M  V30 26365 O 2295.25 1.93777 7.80196 0
M  V30 26366 H 2294.98 -0.170882 0.654045 0
M  V30 26367 H 2297.53 0.134325 2.0496 0
M  V30 26368 H 2295.76 -2.13392 3.22491 0
M  V30 26369 H 2297.45 -1.91226 3.58033 0
M  V30 26370 H 2298.22 0.225171 4.84477 0
M  V30 26371 H 2294.1 -0.95449 4.51011 0
M  V30 26372 H 2297.64 1.64767 6.77863 0
M  V30 26373 H 2293.54 0.460777 6.43853 0
M  V30 26374 H 2294.3 1.86156 7.9705 0
M  V30 26375 N 2296.97 -1.56239 -0.206647 0
M  V30 26376 C 2297.9 -1.96647 -1.25906 0
M  V30 26377 C 2298.88 -0.83676 -1.48096 0
M  V30 26378 O 2300.06 -1.10021 -1.60028 0
M  V30 26379 C 2297.19 -2.29603 -2.60576 0
M  V30 26380 C 2296.15 -3.45204 -2.53018 0
M  V30 26381 C 2295.47 -3.63805 -3.91854 0
M  V30 26382 C 2296.77 -4.79738 -2.06516 0
M  V30 26383 H 2298.47 -2.84807 -0.923319 0
M  V30 26384 H 2296.01 -1.37026 -0.442711 0
M  V30 26385 H 2297.97 -2.56464 -3.34371 0
M  V30 26386 H 2296.69 -1.38312 -2.95867 0
M  V30 26387 H 2295.35 -3.18415 -1.81679 0
M  V30 26388 H 2295 -2.69865 -4.24479 0
M  V30 26389 H 2294.7 -4.41567 -3.87675 0
M  V30 26390 H 2296.22 -3.93031 -4.67289 0
M  V30 26391 H 2297.64 -5.05706 -2.70063 0
M  V30 26392 H 2296.03 -5.60888 -2.13364 0
M  V30 26393 H 2297.1 -4.74095 -1.01793 0
M  V30 26394 N 2298.45 0.473929 -1.50305 0
M  V30 26395 C 2299.36 1.59817 -1.71743 0
M  V30 26396 C 2300.37 1.6331 -0.600486 0
M  V30 26397 O 2301.55 1.81231 -0.878473 0
M  V30 26398 C 2298.61 2.96049 -1.80433 0
M  V30 26399 C 2297.67 3.02967 -3.04154 0
M  V30 26400 C 2296.91 4.32701 -3.12419 0
M  V30 26401 O 2297.13 5.23045 -2.27551 0
M  V30 26402 O 2296.06 4.45152 -4.05121 0
M  V30 26403 H 2299.89 1.44653 -2.67038 0
M  V30 26404 H 2297.47 0.653124 -1.34368 0
M  V30 26405 H 2299.36 3.76967 -1.88345 0
M  V30 26406 H 2298.03 3.11418 -0.883211 0
M  V30 26407 H 2296.94 2.21137 -3.01744 0
M  V30 26408 H 2298.27 2.92534 -3.95834 0
M  V30 26409 N 2299.92 1.39835 0.726907 0
M  V30 26410 C 2300.87 1.392 1.84097 0
M  V30 26411 C 2301.84 0.250531 1.642 0
M  V30 26412 O 2303.03 0.446879 1.85493 0
M  V30 26413 C 2300.17 1.24925 3.21695 0
M  V30 26414 C 2299.28 2.48684 3.53242 0
M  V30 26415 C 2298.41 2.26936 4.80285 0
M  V30 26416 C 2297.45 3.46329 5.047 0
M  V30 26417 N 2296.59 3.23847 6.22951 0
M  V30 26418 H 2301.43 2.3443 1.83974 0
M  V30 26419 H 2298.97 1.16443 0.898856 0
M  V30 26420 H 2300.92 1.14658 4.01135 0
M  V30 26421 H 2299.55 0.33321 3.21076 0
M  V30 26422 H 2298.61 2.69524 2.68442 0
M  V30 26423 H 2299.92 3.37589 3.67199 0
M  V30 26424 H 2299.07 2.13957 5.67721 0
M  V30 26425 H 2297.81 1.35439 4.68516 0
M  V30 26426 H 2296.82 3.59798 4.15723 0
M  V30 26427 H 2298.04 4.38738 5.18349 0
M  V30 26428 H 2295.99 2.35022 6.12455 0
M  V30 26429 H 2295.9 4.06311 6.37532 0
M  V30 26430 H 2297.17 3.14578 7.13205 0
M  V30 26431 N 2301.4 -0.957948 1.25144 0
M  V30 26432 C 2302.65 -1.70215 1.09695 0
M  V30 26433 C 2302.98 -1.9109 -0.362621 0
M  V30 26434 O 2302.23 -1.47703 -1.28383 0
M  V30 26435 C 2302.53 -3.09183 1.79277 0
M  V30 26436 C 2302.2 -3.08119 3.29201 0
M  V30 26437 C 2300.86 -3.07536 3.70101 0
M  V30 26438 C 2303.21 -3.01702 4.25 0
M  V30 26439 C 2300.54 -2.98281 5.05218 0
M  V30 26440 C 2302.89 -2.93989 5.60137 0
M  V30 26441 C 2301.55 -2.9174 6.0037 0
M  V30 26442 H 2300.82 -0.622861 0.401404 0
M  V30 26443 H 2303.47 -1.11942 1.55374 0
M  V30 26444 H 2301.78 -3.7098 1.2602 0
M  V30 26445 H 2303.47 -3.6558 1.6478 0
M  V30 26446 H 2300.06 -3.09343 2.96656 0
M  V30 26447 H 2304.25 -3.01274 3.94395 0
M  V30 26448 H 2299.5 -2.94906 5.35575 0
M  V30 26449 H 2303.68 -2.87984 6.34065 0
M  V30 26450 H 2301.3 -2.84324 7.05028 0
M  V30 26451 N 2302.88 -1.06677 -1.16008 0
M  V30 26452 C 2303.81 -0.702346 -2.22687 0
M  V30 26453 C 2304.79 0.307003 -1.67307 0
M  V30 26454 O 2305.98 0.181271 -1.93352 0
M  V30 26455 C 2303.11 -0.092099 -3.47178 0
M  V30 26456 C 2302.06 -1.02785 -4.15475 0
M  V30 26457 C 2301.39 -0.280704 -5.33963 0
M  V30 26458 C 2302.69 -2.35854 -4.66015 0
M  V30 26459 H 2304.38 -1.59423 -2.53426 0
M  V30 26460 H 2301.93 -0.767982 -1.21811 0
M  V30 26461 H 2303.88 0.17474 -4.21038 0
M  V30 26462 H 2302.6 0.834821 -3.1575 0
M  V30 26463 H 2301.26 -1.2795 -3.43547 0
M  V30 26464 H 2300.91 0.649458 -4.9879 0
M  V30 26465 H 2300.61 -0.90436 -5.80599 0
M  V30 26466 H 2302.13 -0.0215033 -6.10596 0
M  V30 26467 H 2303.55 -2.15054 -5.31436 0
M  V30 26468 H 2301.94 -2.93752 -5.23288 0
M  V30 26469 H 2303.01 -2.98648 -3.82018 0
M  V30 26470 N 2304.36 1.32719 -0.8499 0
M  V30 26471 C 2305.32 2.27279 -0.296162 0
M  V30 26472 C 2306.32 1.51411 0.541432 0
M  V30 26473 O 2307.51 1.70573 0.353628 0
M  V30 26474 C 2304.64 3.35903 0.58152 0
M  V30 26475 H 2305.84 2.77769 -1.13069 0
M  V30 26476 H 2303.39 1.4331 -0.623855 0
M  V30 26477 H 2304.12 2.90673 1.43804 0
M  V30 26478 H 2303.91 3.92096 -0.0179503 0
M  V30 26479 H 2305.4 4.06371 0.961879 0
M  V30 26480 N 2305.84 0.60738 1.45426 0
M  V30 26481 C 2307.11 0.034491 1.9557 0
M  V30 26482 C 2307.49 -1.43332 1.54981 0
M  V30 26483 O 2306.84 -2.13575 0.812278 0
M  V30 26484 C 2307.05 0.232382 3.48225 0
M  V30 26485 C 2308.4 0.113076 4.24449 0
M  V30 26486 O 2309.42 0.162493 3.55829 0
M  V30 26487 O 2308.28 -0.00199836 5.465 0
M  V30 26488 H 2305.38 -0.0358522 0.826223 0
M  V30 26489 H 2307.92 0.677427 1.55592 0
M  V30 26490 H 2306.69 1.25181 3.70736 0
M  V30 26491 H 2306.32 -0.445826 3.95093 0
M  V30 26492 N 2307.31 -1.53743 0.34653 0
M  V30 26493 C 2308.54 -2.05851 -0.253038 0
M  V30 26494 C 2308.96 -1.21965 -1.432 0
M  V30 26495 O 2308.32 -0.234104 -1.79782 0
M  V30 26496 C 2308.37 -3.54819 -0.64313 0
M  V30 26497 O 2307.47 -3.73765 -1.74279 0
M  V30 26498 H 2306.82 -0.662711 -0.0413466 0
M  V30 26499 H 2309.35 -1.98356 0.501609 0
M  V30 26500 H 2309.36 -3.97505 -0.919456 0
M  V30 26501 H 2308.03 -4.15323 0.219039 0
M  V30 26502 H 2306.61 -3.42981 -1.4635 0
M  V30 26503 N 2308.79 -0.0752207 -1.5742 0
M  V30 26504 C 2309.74 0.908471 -2.14125 0
M  V30 26505 C 2310.73 1.3059 -1.079 0
M  V30 26506 O 2311.94 1.28275 -1.26276 0
M  V30 26507 H 2308.32 0.310923 -0.684712 0
M  V30 26508 H 2310.29 0.405322 -2.95634 0
M  V30 26509 C 2309.04 2.1653 -2.72048 0
M  V30 26510 H 2308.36 1.86833 -3.53459 0
M  V30 26511 H 2309.8 2.83464 -3.15316 0
M  V30 26512 C 2308.26 2.92612 -1.66973 0
M  V30 26513 O 2308.79 3.86437 -1.09677 0
M  V30 26514 N 2306.99 2.55782 -1.37927 0
M  V30 26515 H 2306.54 1.79556 -1.84709 0
M  V30 26516 H 2306.5 3.0699 -0.678574 0
M  V30 26517 N 2310.27 1.56347 0.198358 0
M  V30 26518 C 2311.52 1.79628 0.91742 0
M  V30 26519 C 2311.83 0.647873 1.84559 0
M  V30 26520 O 2313.04 0.764905 2.60502 0
M  V30 26521 C 2311.49 3.18193 1.68169 0
M  V30 26522 C 2311.1 4.40826 0.798512 0
M  V30 26523 C 2312.85 3.50787 2.39059 0
M  V30 26524 C 2310.75 5.70414 1.56147 0
M  V30 26525 H 2309.68 0.669768 0.346305 0
M  V30 26526 H 2312.33 1.82704 0.170768 0
M  V30 26527 H 2310.72 3.09359 2.47211 0
M  V30 26528 H 2311.89 4.60776 0.0469855 0
M  V30 26529 H 2310.21 4.15916 0.200613 0
M  V30 26530 H 2312.8 4.4484 2.96685 0
M  V30 26531 H 2313.15 2.74377 3.13087 0
M  V30 26532 H 2313.68 3.61055 1.66986 0
M  V30 26533 H 2310.42 6.49781 0.864028 0
M  V30 26534 H 2309.94 5.54487 2.28701 0
M  V30 26535 H 2311.62 6.11416 2.11611 0
M  V30 26536 N 2311.75 -0.465951 1.50554 0
M  V30 26537 C 2313.16 -1.04669 1.54601 0
M  V30 26538 C 2313.51 -1.93007 0.352522 0
M  V30 26539 O 2312.64 -2.09708 -0.534007 0
M  V30 26540 C 2313.23 -1.905 2.8017 0
M  V30 26541 C 2311.79 -2.43673 2.8688 0
M  V30 26542 C 2310.94 -1.22147 2.48949 0
M  V30 26543 H 2313.89 -0.248357 1.56745 0
M  V30 26544 H 2313.91 -2.75628 2.62315 0
M  V30 26545 H 2313.42 -1.2618 3.67015 0
M  V30 26546 H 2311.52 -3.11532 2.04398 0
M  V30 26547 H 2311.63 -2.78429 3.8989 0
M  V30 26548 H 2310 -1.55786 2.01501 0
M  V30 26549 H 2310.78 -0.594807 3.38108 0
M  V30 26550 N 2313.23 -1.40218 -0.719481 0
M  V30 26551 C 2314.45 -1.41783 -1.51368 0
M  V30 26552 C 2314.88 -0.0182685 -1.88091 0
M  V30 26553 O 2314.23 0.97268 -1.52999 0
M  V30 26554 C 2314.28 -2.3112 -2.76796 0
M  V30 26555 O 2313.39 -1.75177 -3.73345 0
M  V30 26556 H 2312.73 -0.482167 -0.456521 0
M  V30 26557 H 2315.26 -1.84402 -0.886408 0
M  V30 26558 H 2315.27 -2.46172 -3.25366 0
M  V30 26559 H 2313.94 -3.32824 -2.49401 0
M  V30 26560 H 2312.52 -1.6945 -3.32176 0
M  V30 26561 N 2314.7 0.951297 -1.25651 0
M  V30 26562 C 2315.95 1.69071 -1.09991 0
M  V30 26563 C 2316.27 1.9229 0.358322 0
M  V30 26564 O 2317.47 2.6396 0.63542 0
M  V30 26565 C 2315.93 3.04397 -1.92017 0
M  V30 26566 C 2315.54 2.88962 -3.42353 0
M  V30 26567 C 2317.28 3.82098 -1.84937 0
M  V30 26568 C 2315.19 4.19698 -4.16662 0
M  V30 26569 H 2314.12 0.634073 -0.408005 0
M  V30 26570 H 2316.77 1.05876 -1.49875 0
M  V30 26571 H 2315.15 3.68515 -1.44959 0
M  V30 26572 H 2316.32 2.33755 -3.97108 0
M  V30 26573 H 2314.64 2.24712 -3.50561 0
M  V30 26574 H 2317.24 4.78937 -2.37747 0
M  V30 26575 H 2317.58 4.08185 -0.817954 0
M  V30 26576 H 2318.11 3.24736 -2.29764 0
M  V30 26577 H 2314.85 3.98798 -5.20231 0
M  V30 26578 H 2314.37 4.74657 -3.66689 0
M  V30 26579 H 2316.05 4.88219 -4.2456 0
M  V30 26580 N 2316.18 1.07291 1.1544 0
M  V30 26581 C 2317.59 0.818505 1.67802 0
M  V30 26582 C 2317.94 -0.656475 1.84891 0
M  V30 26583 O 2317.07 -1.50826 1.55179 0
M  V30 26584 C 2317.66 1.47923 3.04802 0
M  V30 26585 C 2316.22 1.27235 3.54243 0
M  V30 26586 C 2315.37 1.54929 2.29983 0
M  V30 26587 H 2318.32 1.23503 0.996625 0
M  V30 26588 H 2318.34 0.900115 3.697 0
M  V30 26589 H 2317.85 2.55272 2.92332 0
M  V30 26590 H 2315.96 0.219055 3.71956 0
M  V30 26591 H 2316.07 1.99211 4.3572 0
M  V30 26592 H 2314.43 0.970283 2.35494 0
M  V30 26593 H 2315.22 2.63459 2.201 0
M  V30 26594 N 2317.66 -1.32267 0.856927 0
M  V30 26595 C 2318.89 -2.01071 0.474785 0
M  V30 26596 C 2319.3 -1.64555 -0.933717 0
M  V30 26597 O 2318.64 -0.864017 -1.62112 0
M  V30 26598 C 2318.7 -3.5547 0.536808 0
M  V30 26599 C 2318.37 -4.1542 1.90461 0
M  V30 26600 C 2319.36 -4.33481 2.87037 0
M  V30 26601 C 2317.05 -4.51443 2.20237 0
M  V30 26602 C 2319.04 -4.86737 4.11541 0
M  V30 26603 C 2316.73 -5.04404 3.44993 0
M  V30 26604 C 2317.73 -5.21999 4.40461 0
M  V30 26605 O 2317.42 -5.73827 5.63008 0
M  V30 26606 H 2317.15 -0.650253 0.184789 0
M  V30 26607 H 2319.7 -1.69769 1.15618 0
M  V30 26608 H 2317.93 -3.86175 -0.201452 0
M  V30 26609 H 2319.62 -4.05544 0.169946 0
M  V30 26610 H 2320.39 -4.05981 2.65338 0
M  V30 26611 H 2316.27 -4.37031 1.46713 0
M  V30 26612 H 2319.81 -5.00386 4.86065 0
M  V30 26613 H 2315.71 -5.31335 3.66542 0
M  V30 26614 H 2316.48 -5.92216 5.64997 0
M  V30 26615 N 2319.14 -0.615084 -1.45102 0
M  V30 26616 C 2320.07 0.13758 -2.28787 0
M  V30 26617 C 2321.08 0.8245 -1.40377 0
M  V30 26618 O 2322.27 0.688633 -1.64682 0
M  V30 26619 C 2319.37 1.21623 -3.16324 0
M  V30 26620 C 2318.55 0.614963 -4.33055 0
M  V30 26621 C 2317.6 1.58547 -5.01746 0
M  V30 26622 O 2316.63 1.10885 -5.58295 0
M  V30 26623 N 2317.83 2.9199 -5.01719 0
M  V30 26624 H 2320.6 -0.580535 -2.94024 0
M  V30 26625 H 2318.16 -0.455097 -1.55372 0
M  V30 26626 H 2320.15 1.86545 -3.59142 0
M  V30 26627 H 2318.72 1.83677 -2.52946 0
M  V30 26628 H 2317.94 -0.212519 -3.93627 0
M  V30 26629 H 2319.23 0.193615 -5.08431 0
M  V30 26630 H 2318.63 3.33308 -4.5708 0
M  V30 26631 H 2317.18 3.52315 -5.48377 0
M  V30 26632 N 2320.62 1.53557 -0.354678 0
M  V30 26633 C 2321.87 2.00694 0.237937 0
M  V30 26634 C 2322.19 1.24394 1.50171 0
M  V30 26635 O 2321.46 0.354169 1.92672 0
M  V30 26636 H 2320.04 0.741447 0.0909126 0
M  V30 26637 H 2322.7 1.88937 -0.478401 0
M  V30 26638 H 2321.79 3.08501 0.472586 0
M  V30 26639 N 2322.1 0.083568 1.57378 0
M  V30 26640 C 2323.34 -0.582836 1.93931 0
M  V30 26641 C 2323.67 -1.68902 0.964484 0
M  V30 26642 O 2322.93 -1.95692 -0.017913 0
M  V30 26643 C 2323.22 -1.18834 3.37066 0
M  V30 26644 C 2322.89 -0.207114 4.50424 0
M  V30 26645 C 2321.55 0.0627961 4.81159 0
M  V30 26646 C 2323.9 0.463517 5.19135 0
M  V30 26647 C 2321.23 1.01023 5.77937 0
M  V30 26648 C 2323.58 1.39934 6.16929 0
M  V30 26649 C 2322.25 1.6776 6.46075 0
M  V30 26650 H 2321.52 -0.213275 0.709644 0
M  V30 26651 H 2324.17 0.15695 1.90856 0
M  V30 26652 H 2322.47 -2.00413 3.36663 0
M  V30 26653 H 2324.17 -1.71146 3.62643 0
M  V30 26654 H 2320.76 -0.427672 4.26461 0
M  V30 26655 H 2324.94 0.268121 4.95575 0
M  V30 26656 H 2320.2 1.23294 5.98839 0
M  V30 26657 H 2324.37 1.92488 6.69269 0
M  V30 26658 H 2322 2.41333 7.20876 0
M  V30 26659 N 2323.57 -1.5645 -0.190064 0
M  V30 26660 C 2324.8 -1.85389 -0.929831 0
M  V30 26661 C 2325.22 -0.667735 -1.75849 0
M  V30 26662 O 2324.58 0.383428 -1.77199 0
M  V30 26663 C 2324.63 -3.12596 -1.79767 0
M  V30 26664 O 2323.73 -2.93502 -2.89708 0
M  V30 26665 H 2323.07 -0.610312 -0.261563 0
M  V30 26666 H 2325.6 -2.0368 -0.193861 0
M  V30 26667 H 2325.61 -3.43519 -2.20133 0
M  V30 26668 H 2324.29 -3.98546 -1.18885 0
M  V30 26669 H 2322.87 -2.73888 -2.5306 0
M  V30 26670 N 2325.05 0.45796 -1.50799 0
M  V30 26671 C 2326.3 1.21085 -1.62685 0
M  V30 26672 C 2326.63 1.91336 -0.332301 0
M  V30 26673 O 2325.91 1.82705 0.667011 0
M  V30 26674 C 2326.19 2.24417 -2.81619 0
M  V30 26675 C 2326.04 1.58384 -4.20992 0
M  V30 26676 C 2327.36 3.25605 -2.9609 0
M  V30 26677 H 2324.48 0.438853 -0.592095 0
M  V30 26678 H 2327.12 0.502828 -1.83226 0
M  V30 26679 H 2325.27 2.84801 -2.64236 0
M  V30 26680 H 2326.94 1.01496 -4.49996 0
M  V30 26681 H 2325.19 0.886629 -4.24643 0
M  V30 26682 H 2325.86 2.33538 -5.00164 0
M  V30 26683 H 2328.33 2.75256 -3.12047 0
M  V30 26684 H 2327.21 3.95221 -3.80909 0
M  V30 26685 H 2327.47 3.90503 -2.07267 0
M  V30 26686 N 2326.53 1.40598 0.712035 0
M  V30 26687 C 2327.95 1.22706 1.02056 0
M  V30 26688 C 2328.15 0.104764 2.01227 0
M  V30 26689 O 2327.2 -0.536197 2.46741 0
M  V30 26690 C 2328.51 2.57015 1.56089 0
M  V30 26691 C 2330.06 2.64057 1.68056 0
M  V30 26692 C 2330.54 3.98644 2.25494 0
M  V30 26693 N 2332.03 4.00404 2.32875 0
M  V30 26694 C 2332.76 5.0133 2.78308 0
M  V30 26695 N 2332.26 6.1265 3.23468 0
M  V30 26696 N 2334.05 4.88698 2.77725 0
M  V30 26697 H 2326.2 2.12329 0.0547523 0
M  V30 26698 H 2328.47 0.94401 0.0868861 0
M  V30 26699 H 2328.17 3.39809 0.906806 0
M  V30 26700 H 2328.05 2.78352 2.54559 0
M  V30 26701 H 2330.43 1.81633 2.3258 0
M  V30 26702 H 2330.51 2.46548 0.681759 0
M  V30 26703 H 2330.16 4.81509 1.6159 0
M  V30 26704 H 2330.09 4.13485 3.26094 0
M  V30 26705 H 2332.58 3.20021 2.00985 0
M  V30 26706 H 2332.89 6.85548 3.56713 0
M  V30 26707 H 2331.24 6.16211 3.21418 0
M  V30 26708 H 2334.43 4.00823 2.41783 0
M  V30 26709 H 2334.6 5.67495 3.12816 0
M  V30 26710 N 2328.01 -0.94462 1.26153 0
M  V30 26711 C 2329.42 -1.21752 1.03192 0
M  V30 26712 C 2329.62 -2.00004 -0.245077 0
M  V30 26713 O 2328.68 -2.33738 -0.955135 0
M  V30 26714 C 2329.99 -1.98215 2.26123 0
M  V30 26715 C 2331.54 -2.1122 2.30988 0
M  V30 26716 C 2332.02 -2.91083 3.53602 0
M  V30 26717 N 2333.51 -2.98658 3.54059 0
M  V30 26718 C 2334.24 -3.60873 4.45599 0
M  V30 26719 N 2333.74 -4.24617 5.47424 0
M  V30 26720 N 2335.53 -3.58112 4.33258 0
M  V30 26721 H 2327.68 -0.4214 2.08178 0
M  V30 26722 H 2329.94 -0.248953 0.914728 0
M  V30 26723 H 2329.65 -1.48122 3.18987 0
M  V30 26724 H 2329.52 -2.98891 2.30095 0
M  V30 26725 H 2331.91 -2.60505 1.3864 0
M  V30 26726 H 2331.99 -1.09817 2.31028 0
M  V30 26727 H 2331.64 -2.42485 4.46277 0
M  V30 26728 H 2331.57 -3.92735 3.50809 0
M  V30 26729 H 2334.06 -2.53338 2.80408 0
M  V30 26730 H 2334.37 -4.69976 6.13467 0
M  V30 26731 H 2332.72 -4.23214 5.51285 0
M  V30 26732 H 2335.91 -3.07504 3.52929 0
M  V30 26733 H 2336.08 -4.0631 5.04793 0
M  V30 26734 N 2329.49 -1.07901 -1.1487 0
M  V30 26735 C 2330.73 -0.806758 -1.86063 0
M  V30 26736 C 2331.06 0.665674 -1.82435 0
M  V30 26737 O 2330.34 1.48896 -1.2514 0
M  V30 26738 C 2330.62 -1.32273 -3.34927 0
M  V30 26739 C 2330.48 -2.86012 -3.47156 0
M  V30 26740 C 2331.79 -0.943792 -4.29861 0
M  V30 26741 H 2328.91 -0.294537 -0.675586 0
M  V30 26742 H 2331.56 -1.33775 -1.34923 0
M  V30 26743 H 2329.71 -0.87104 -3.78609 0
M  V30 26744 H 2331.38 -3.39512 -3.12296 0
M  V30 26745 H 2329.62 -3.2393 -2.88533 0
M  V30 26746 H 2330.29 -3.17185 -4.51772 0
M  V30 26747 H 2332.77 -1.33309 -3.94167 0
M  V30 26748 H 2331.64 -1.33207 -5.32491 0
M  V30 26749 H 2331.9 0.149719 -4.41846 0
M  V30 26750 N 2330.96 1.31811 -0.863929 0
M  V30 26751 C 2331.91 2.30601 -0.304261 0
M  V30 26752 C 2332.91 1.59256 0.577391 0
M  V30 26753 O 2334.11 1.73912 0.464163 0
M  V30 26754 H 2330.49 0.747765 -0.0797008 0
M  V30 26755 H 2332.46 2.75286 -1.15153 0
M  V30 26756 C 2331.21 3.44307 0.484556 0
M  V30 26757 H 2330.53 3.99374 -0.18458 0
M  V30 26758 H 2331.97 4.15564 0.841591 0
M  V30 26759 C 2330.43 2.92399 1.67345 0
M  V30 26760 O 2330.96 2.90664 2.77268 0
M  V30 26761 N 2329.16 2.48678 1.50358 0
M  V30 26762 H 2328.71 2.50289 0.609358 0
M  V30 26763 H 2328.67 2.14303 2.30047 0
M  V30 26764 N 2332.44 0.62277 1.44773 0
M  V30 26765 C 2333.72 0.0552318 1.95522 0
M  V30 26766 C 2334.1 -1.4168 1.56493 0
M  V30 26767 O 2333.45 -2.12701 0.834885 0
M  V30 26768 C 2333.66 0.269303 3.47959 0
M  V30 26769 C 2335 0.158088 4.24306 0
M  V30 26770 O 2336.03 0.200224 3.55637 0
M  V30 26771 O 2334.89 0.0559654 5.46471 0
M  V30 26772 H 2331.98 -0.027087 0.826556 0
M  V30 26773 H 2334.53 0.693892 1.54865 0
M  V30 26774 H 2333.3 1.29106 3.69388 0
M  V30 26775 H 2332.92 -0.403896 3.95543 0
M  V30 26776 N 2333.92 -1.53367 0.362817 0
M  V30 26777 C 2335.17 -2.00818 -0.22729 0
M  V30 26778 C 2335.49 -1.25188 -1.49509 0
M  V30 26779 O 2334.76 -0.364382 -1.92481 0
M  V30 26780 H 2333.34 -0.741919 -0.0869792 0
M  V30 26781 H 2336 -1.88681 0.488414 0
M  V30 26782 H 2335.1 -3.08748 -0.456219 0
M  V30 26783 N 2335.4 -0.091913 -1.57332 0
M  V30 26784 C 2336.33 0.904698 -2.095 0
M  V30 26785 C 2337.31 1.27837 -1.00481 0
M  V30 26786 O 2338.49 1.38417 -1.27957 0
M  V30 26787 C 2335.62 2.20685 -2.56935 0
M  V30 26788 C 2334.67 1.98327 -3.77583 0
M  V30 26789 S 2335.5 1.22419 -5.21319 0
M  V30 26790 C 2336.66 2.53872 -5.72101 0
M  V30 26791 H 2336.89 0.460871 -2.93706 0
M  V30 26792 H 2334.42 0.121305 -1.53923 0
M  V30 26793 H 2336.38 2.95516 -2.84922 0
M  V30 26794 H 2335.04 2.62189 -1.72961 0
M  V30 26795 H 2334.23 2.94745 -4.0883 0
M  V30 26796 H 2333.84 1.31627 -3.50072 0
M  V30 26797 H 2336.13 3.49864 -5.80174 0
M  V30 26798 H 2337.07 2.27207 -6.70658 0
M  V30 26799 H 2337.48 2.61999 -5.00017 0
M  V30 26800 N 2336.88 1.56548 0.181765 0
M  V30 26801 C 2337.83 1.92004 1.22957 0
M  V30 26802 C 2338.81 0.78717 1.4033 0
M  V30 26803 O 2340 1.05022 1.42476 0
M  V30 26804 C 2337.13 2.2745 2.5714 0
M  V30 26805 C 2336.22 3.47226 2.43506 0
M  V30 26806 N 2336.61 4.64764 1.99569 0
M  V30 26807 C 2334.91 3.51627 2.74362 0
M  V30 26808 C 2335.61 5.46912 1.98146 0
M  V30 26809 N 2334.58 4.87674 2.40156 0
M  V30 26810 H 2338.39 2.80372 0.881413 0
M  V30 26811 H 2335.9 1.57645 0.390114 0
M  V30 26812 H 2337.9 2.51041 3.32842 0
M  V30 26813 H 2336.56 1.40416 2.92769 0
M  V30 26814 H 2337.57 4.8918 1.70069 0
M  V30 26815 H 2334.24 2.75044 3.14097 0
M  V30 26816 H 2335.63 6.5108 1.65964 0
M  V30 26817 N 2338.35 -0.449957 1.5104 0
M  V30 26818 C 2339.6 -1.2022 1.63325 0
M  V30 26819 C 2339.93 -1.91157 0.342444 0
M  V30 26820 O 2339.21 -1.83056 -0.657312 0
M  V30 26821 C 2339.49 -2.2292 2.82805 0
M  V30 26822 C 2339.34 -1.5615 4.21826 0
M  V30 26823 C 2340.66 -3.2403 2.97813 0
M  V30 26824 H 2337.78 -0.435707 0.594414 0
M  V30 26825 H 2340.42 -0.493104 1.8349 0
M  V30 26826 H 2338.57 -2.83396 2.65743 0
M  V30 26827 H 2340.25 -0.991083 4.50528 0
M  V30 26828 H 2338.49 -0.864097 4.25107 0
M  V30 26829 H 2339.16 -2.30882 5.01396 0
M  V30 26830 H 2341.64 -2.73598 3.13502 0
M  V30 26831 H 2340.51 -3.93196 3.82999 0
M  V30 26832 H 2340.77 -3.89398 2.09335 0
M  V30 26833 N 2339.83 -1.40974 -0.704569 0
M  V30 26834 C 2341.06 -1.43184 -1.49352 0
M  V30 26835 C 2341.48 -0.034584 -1.88768 0
M  V30 26836 O 2340.83 0.944054 -1.56185 0
M  V30 26837 C 2340.88 -2.33249 -2.76183 0
M  V30 26838 O 2340.6 -3.67536 -2.3843 0
M  V30 26839 C 2342.11 -2.44168 -3.69996 0
M  V30 26840 H 2339.33 -0.48799 -0.46055 0
M  V30 26841 H 2341.87 -1.85154 -0.868228 0
M  V30 26842 H 2340.02 -1.94612 -3.3497 0
M  V30 26843 H 2340.44 -4.15481 -3.20118 0
M  V30 26844 H 2341.91 -3.11372 -4.55797 0
M  V30 26845 H 2342.39 -1.47013 -4.13864 0
M  V30 26846 H 2343 -2.83404 -3.17116 0
M  V30 26847 N 2341.31 0.937917 -1.26653 0
M  V30 26848 C 2342.54 1.71629 -1.15009 0
M  V30 26849 C 2342.95 1.86854 0.296993 0
M  V30 26850 O 2342.29 1.37788 1.21491 0
M  V30 26851 C 2342.35 3.14036 -1.7499 0
M  V30 26852 C 2342.02 3.22184 -3.24108 0
M  V30 26853 C 2343.01 3.05212 -4.20882 0
M  V30 26854 C 2340.7 3.4547 -3.64631 0
M  V30 26855 C 2342.69 3.11398 -5.56156 0
M  V30 26856 C 2340.38 3.51291 -5.00038 0
M  V30 26857 C 2341.38 3.34272 -5.9561 0
M  V30 26858 O 2341.07 3.39808 -7.28551 0
M  V30 26859 H 2340.8 0.544078 -0.401192 0
M  V30 26860 H 2343.35 1.1841 -1.67834 0
M  V30 26861 H 2341.58 3.68693 -1.1663 0
M  V30 26862 H 2343.27 3.73799 -1.58205 0
M  V30 26863 H 2344.04 2.87074 -3.90914 0
M  V30 26864 H 2339.92 3.57772 -2.90724 0
M  V30 26865 H 2343.46 2.98032 -6.30732 0
M  V30 26866 H 2339.36 3.6895 -5.29666 0
M  V30 26867 H 2340.13 3.5633 -7.36866 0
M  V30 26868 N 2342.79 1.08509 1.14296 0
M  V30 26869 C 2343.74 0.710522 2.21482 0
M  V30 26870 C 2344.73 -0.284205 1.66999 0
M  V30 26871 O 2345.94 -0.146661 1.79402 0
M  V30 26872 H 2342.31 0.211742 0.721574 0
M  V30 26873 H 2344.28 1.62388 2.50345 0
M  V30 26874 C 2343.03 0.137068 3.4743 0
M  V30 26875 H 2342.35 0.893661 3.89684 0
M  V30 26876 H 2343.79 -0.0872044 4.2391 0
M  V30 26877 C 2342.25 -1.12532 3.1755 0
M  V30 26878 O 2342.78 -2.21004 3.35441 0
M  V30 26879 N 2340.99 -1.03612 2.71501 0
M  V30 26880 H 2340.54 -0.153358 2.57143 0
M  V30 26881 H 2340.49 -1.88154 2.51884 0
M  V30 26882 N 2344.27 -1.31351 0.870907 0
M  V30 26883 C 2345.21 -2.30437 0.316486 0
M  V30 26884 C 2346.21 -1.5956 -0.568937 0
M  V30 26885 O 2347.41 -1.74156 -0.454934 0
M  V30 26886 H 2343.79 -0.747331 0.0836653 0
M  V30 26887 H 2345.76 -2.74671 1.16611 0
M  V30 26888 C 2344.51 -3.44559 -0.46629 0
M  V30 26889 H 2343.83 -3.9927 0.205757 0
M  V30 26890 H 2345.27 -4.16004 -0.819541 0
M  V30 26891 C 2343.73 -2.93283 -1.65792 0
M  V30 26892 O 2344.26 -2.9213 -2.75723 0
M  V30 26893 N 2342.47 -2.49472 -1.49037 0
M  V30 26894 H 2342.01 -2.50609 -0.596076 0
M  V30 26895 H 2341.97 -2.1552 -2.28907 0
M  V30 26896 N 2345.74 -0.630439 -1.44441 0
M  V30 26897 C 2347.16 -0.296001 -1.56831 0
M  V30 26898 C 2347.36 1.20085 -1.61808 0
M  V30 26899 O 2346.42 1.98487 -1.56074 0
M  V30 26900 C 2347.73 -0.987314 -2.84029 0
M  V30 26901 C 2349.28 -0.965392 -2.9774 0
M  V30 26902 C 2349.75 -1.63716 -4.2774 0
M  V30 26903 N 2351.24 -1.60371 -4.34552 0
M  V30 26904 C 2351.98 -2.09244 -5.33858 0
M  V30 26905 N 2351.47 -2.66304 -6.39573 0
M  V30 26906 N 2353.27 -1.99877 -5.25363 0
M  V30 26907 H 2345.42 -1.60207 -1.39454 0
M  V30 26908 H 2347.68 -0.672443 -0.668225 0
M  V30 26909 H 2347.39 -2.0422 -2.86334 0
M  V30 26910 H 2347.26 -0.524654 -3.73533 0
M  V30 26911 H 2349.65 0.0810121 -2.94989 0
M  V30 26912 H 2349.73 -1.46654 -2.09586 0
M  V30 26913 H 2349.37 -2.68301 -4.31251 0
M  V30 26914 H 2349.3 -1.11085 -5.1475 0
M  V30 26915 H 2351.79 -1.18711 -3.5877 0
M  V30 26916 H 2352.11 -3.0133 -7.11632 0
M  V30 26917 H 2350.45 -2.70354 -6.40261 0
M  V30 26918 H 2353.64 -1.55021 -4.41686 0
M  V30 26919 H 2353.82 -2.38275 -6.02602 0
M  V30 26920 N 2347.22 1.53172 -0.370945 0
M  V30 26921 C 2348.45 2.06227 0.220257 0
M  V30 26922 C 2348.87 1.24228 1.41241 0
M  V30 26923 O 2348.23 0.262677 1.79387 0
M  V30 26924 C 2348.28 3.55797 0.5866 0
M  V30 26925 O 2347.38 3.76491 1.68311 0
M  V30 26926 H 2346.72 0.663285 0.0307982 0
M  V30 26927 H 2349.25 1.97533 -0.533102 0
M  V30 26928 H 2349.26 3.98917 0.8561 0
M  V30 26929 H 2347.94 4.14922 -0.285086 0
M  V30 26930 H 2346.52 3.45266 1.40875 0
M  V30 26931 N 2348.7 0.100255 1.57281 0
M  V30 26932 C 2349.93 -0.570474 1.9888 0
M  V30 26933 C 2350.34 -1.61404 0.979505 0
M  V30 26934 O 2349.7 -1.82475 -0.0301967 0
M  V30 26935 C 2349.75 -1.21354 3.40522 0
M  V30 26936 O 2349.47 -0.211709 4.37588 0
M  V30 26937 C 2350.97 -1.96939 3.97153 0
M  V30 26938 H 2348.19 -0.152544 0.65343 0
M  V30 26939 H 2350.74 0.181066 2.03697 0
M  V30 26940 H 2348.89 -1.91597 3.36703 0
M  V30 26941 H 2349.31 -0.676515 5.20119 0
M  V30 26942 H 2350.78 -2.37285 4.98397 0
M  V30 26943 H 2351.26 -2.83727 3.35255 0
M  V30 26944 H 2351.86 -1.31499 4.0446 0
M  V30 26945 N 2350.18 -1.56643 -0.17346 0
M  V30 26946 C 2351.41 -1.86006 -0.906062 0
M  V30 26947 C 2351.82 -0.685386 -1.7592 0
M  V30 26948 O 2351.18 0.345547 -1.79199 0
M  V30 26949 C 2351.23 -3.14381 -1.78456 0
M  V30 26950 O 2350.95 -4.27321 -0.965839 0
M  V30 26951 C 2352.45 -3.57076 -2.62701 0
M  V30 26952 H 2349.67 -0.61717 -0.26333 0
M  V30 26953 H 2352.22 -2.03757 -0.1742 0
M  V30 26954 H 2350.37 -2.98463 -2.46979 0
M  V30 26955 H 2350.79 -5.00562 -1.56646 0
M  V30 26956 H 2352.26 -4.4981 -3.19961 0
M  V30 26957 H 2352.74 -2.81092 -3.37467 0
M  V30 26958 H 2353.34 -3.75599 -1.99514 0
M  V30 26959 N 2351.66 0.44194 -1.51277 0
M  V30 26960 C 2353.07 1.02196 -1.56246 0
M  V30 26961 C 2353.42 1.92422 -0.383183 0
M  V30 26962 O 2352.54 2.10531 0.500576 0
M  V30 26963 C 2353.14 1.86019 -2.83165 0
M  V30 26964 C 2351.7 2.39079 -2.9072 0
M  V30 26965 C 2350.85 1.18171 -2.5086 0
M  V30 26966 H 2353.8 0.223389 -1.5712 0
M  V30 26967 H 2353.82 2.7142 -2.66667 0
M  V30 26968 H 2353.33 1.20325 -3.68976 0
M  V30 26969 H 2351.43 3.08241 -2.09328 0
M  V30 26970 H 2351.54 2.72191 -3.9427 0
M  V30 26971 H 2349.91 1.52561 -2.03954 0
M  V30 26972 H 2350.69 0.540942 -3.39011 0
M  V30 26973 N 2353.14 1.41345 0.697083 0
M  V30 26974 C 2354.55 1.36202 1.27695 0
M  V30 26975 C 2354.9 0.0443808 1.9615 0
M  V30 26976 O 2354.02 -0.857384 1.9869 0
M  V30 26977 C 2354.62 2.46698 2.32219 0
M  V30 26978 C 2353.18 2.44957 2.85785 0
M  V30 26979 C 2352.32 2.26623 1.59804 0
M  V30 26980 H 2355.27 1.50883 0.491942 0
M  V30 26981 H 2355.3 2.15669 3.13476 0
M  V30 26982 H 2354.81 3.42584 1.82367 0
M  V30 26983 H 2352.91 1.52823 3.39817 0
M  V30 26984 H 2353.02 3.41213 3.36319 0
M  V30 26985 H 2351.39 1.74473 1.85557 0
M  V30 26986 H 2352.17 3.24534 1.1195 0
M  V30 26987 N 2354.61 -0.931187 1.27148 0
M  V30 26988 C 2355.54 -2.0484 1.12085 0
M  V30 26989 C 2356.52 -1.70084 0.0232663 0
M  V30 26990 O 2357.71 -1.93197 0.197119 0
M  V30 26991 C 2354.84 -3.38801 0.763599 0
M  V30 26992 C 2353.79 -3.87656 1.81403 0
M  V30 26993 C 2353.12 -5.18383 1.31084 0
M  V30 26994 C 2354.42 -4.11432 3.21747 0
M  V30 26995 H 2356.11 -2.177 2.05541 0
M  V30 26996 H 2353.66 -1.04606 0.989621 0
M  V30 26997 H 2355.61 -4.16434 0.645055 0
M  V30 26998 H 2354.34 -3.25945 -0.20667 0
M  V30 26999 H 2353 -3.12213 1.92141 0
M  V30 27000 H 2352.64 -5.01916 0.330125 0
M  V30 27001 H 2352.34 -5.5204 2.01309 0
M  V30 27002 H 2353.87 -5.98588 1.20517 0
M  V30 27003 H 2355.28 -4.79645 3.14028 0
M  V30 27004 H 2353.68 -4.5639 3.89652 0
M  V30 27005 H 2354.75 -3.16852 3.67059 0
M  V30 27006 N 2356.09 -1.09114 -1.13719 0
M  V30 27007 C 2357.32 -0.845704 -1.88498 0
M  V30 27008 C 2357.73 0.6064 -1.79219 0
M  V30 27009 O 2357.07 1.42894 -1.15442 0
M  V30 27010 C 2357.13 -1.19799 -3.38952 0
M  V30 27011 C 2356.8 -2.65434 -3.72013 0
M  V30 27012 C 2357.8 -3.63684 -3.71524 0
M  V30 27013 C 2355.48 -3.01474 -4.0177 0
M  V30 27014 C 2357.47 -4.96001 -4.00327 0
M  V30 27015 C 2355.16 -4.33983 -4.30235 0
M  V30 27016 C 2356.16 -5.31056 -4.29498 0
M  V30 27017 O 2355.85 -6.61181 -4.57269 0
M  V30 27018 H 2355.58 -0.304182 -0.603697 0
M  V30 27019 H 2358.13 -1.45579 -1.449 0
M  V30 27020 H 2356.36 -0.530938 -3.83038 0
M  V30 27021 H 2358.05 -0.932215 -3.9505 0
M  V30 27022 H 2358.82 -3.37185 -3.48614 0
M  V30 27023 H 2354.7 -2.26551 -4.01492 0
M  V30 27024 H 2358.24 -5.71762 -3.99668 0
M  V30 27025 H 2354.14 -4.60227 -4.52616 0
M  V30 27026 H 2354.91 -6.66606 -4.74952 0
M  V30 27027 N 2357.57 1.30887 -0.877861 0
M  V30 27028 C 2358.52 2.28318 -0.337578 0
M  V30 27029 C 2359.49 1.56075 0.568319 0
M  V30 27030 O 2360.67 1.84179 0.498266 0
M  V30 27031 C 2357.81 3.42179 0.448082 0
M  V30 27032 C 2356.92 4.29255 -0.486225 0
M  V30 27033 C 2356.06 5.30269 0.314334 0
M  V30 27034 C 2355.1 6.08994 -0.615898 0
M  V30 27035 N 2354.24 7.01942 0.148897 0
M  V30 27036 H 2359.08 2.73917 -1.1736 0
M  V30 27037 H 2356.61 1.34744 -0.590117 0
M  V30 27038 H 2358.57 4.06942 0.919445 0
M  V30 27039 H 2357.2 2.97668 1.24874 0
M  V30 27040 H 2356.25 3.64863 -1.07606 0
M  V30 27041 H 2357.56 4.84171 -1.19918 0
M  V30 27042 H 2356.72 6.00746 0.847863 0
M  V30 27043 H 2355.46 4.76029 1.06054 0
M  V30 27044 H 2354.46 5.37399 -1.16112 0
M  V30 27045 H 2355.69 6.6532 -1.36108 0
M  V30 27046 H 2353.63 6.50101 0.87777 0
M  V30 27047 H 2353.55 7.54314 -0.504565 0
M  V30 27048 H 2354.82 7.76672 0.6634 0
M  V30 27049 N 2359.05 0.638091 1.44105 0
M  V30 27050 C 2360.32 0.0759664 1.95452 0
M  V30 27051 C 2360.7 -1.40012 1.57987 0
M  V30 27052 O 2360.05 -2.11804 0.857398 0
M  V30 27053 C 2360.26 0.306193 3.47654 0
M  V30 27054 C 2361.61 0.203083 4.24114 0
M  V30 27055 O 2362.63 0.237933 3.55404 0
M  V30 27056 O 2361.49 0.113923 5.46381 0
M  V30 27057 H 2358.59 -0.0183187 0.826797 0
M  V30 27058 H 2361.13 0.710278 1.54121 0
M  V30 27059 H 2359.91 1.33016 3.67998 0
M  V30 27060 H 2359.53 -0.361921 3.95949 0
M  V30 27061 N 2360.53 -1.52973 0.379063 0
M  V30 27062 C 2361.47 -2.27678 -0.475993 0
M  V30 27063 C 2362.47 -1.31176 -1.07187 0
M  V30 27064 O 2363.67 -1.48754 -1.01353 0
M  V30 27065 H 2360.05 -0.732009 -0.172242 0
M  V30 27066 H 2362.02 -2.97882 0.175667 0
M  V30 27067 C 2360.77 -3.08873 -1.59664 0
M  V30 27068 H 2360.09 -3.8298 -1.14744 0
M  V30 27069 H 2361.53 -3.643 -2.16937 0
M  V30 27070 C 2359.99 -2.20547 -2.54678 0
M  V30 27071 O 2360.52 -1.82533 -3.57833 0
M  V30 27072 N 2358.73 -1.8491 -2.2418 0
M  V30 27073 H 2358.27 -2.16022 -1.40329 0
M  V30 27074 H 2358.23 -1.26101 -2.88003 0
M  V30 27075 N 2362 -0.108595 -1.57225 0
M  V30 27076 C 2363.25 0.552727 -1.95122 0
M  V30 27077 C 2363.58 1.66989 -0.991375 0
M  V30 27078 O 2362.86 1.94482 -0.0267553 0
M  V30 27079 C 2363.14 1.09522 -3.43041 0
M  V30 27080 C 2362.99 -0.0178123 -4.49796 0
M  V30 27081 C 2364.31 1.98938 -3.9257 0
M  V30 27082 H 2361.43 0.199449 -0.709499 0
M  V30 27083 H 2364.07 -0.182044 -1.89126 0
M  V30 27084 H 2362.22 1.7214 -3.48282 0
M  V30 27085 H 2363.9 -0.652664 -4.5666 0
M  V30 27086 H 2362.14 -0.682385 -4.28399 0
M  V30 27087 H 2362.81 0.402822 -5.50528 0
M  V30 27088 H 2365.29 1.46207 -3.89567 0
M  V30 27089 H 2364.16 2.33818 -4.96609 0
M  V30 27090 H 2364.42 2.91195 -3.32653 0
M  V30 27091 N 2363.48 1.56732 0.16515 0
M  V30 27092 C 2364.41 1.99916 1.20648 0
M  V30 27093 C 2365.39 0.875731 1.45825 0
M  V30 27094 O 2366.58 1.14226 1.57055 0
M  V30 27095 C 2363.71 2.36431 2.54396 0
M  V30 27096 C 2362.66 3.51791 2.43776 0
M  V30 27097 C 2361.99 3.74067 3.82071 0
M  V30 27098 C 2363.29 4.85045 1.93724 0
M  V30 27099 H 2364.98 2.87155 0.847483 0
M  V30 27100 H 2362.53 1.38151 0.406226 0
M  V30 27101 H 2364.48 2.6524 3.27454 0
M  V30 27102 H 2363.2 1.46108 2.92096 0
M  V30 27103 H 2361.86 3.2312 1.73173 0
M  V30 27104 H 2361.51 2.81024 4.17174 0
M  V30 27105 H 2361.21 4.51691 3.75832 0
M  V30 27106 H 2362.74 4.05282 4.56705 0
M  V30 27107 H 2364.15 5.12689 2.5656 0
M  V30 27108 H 2362.55 5.66348 1.98418 0
M  V30 27109 H 2363.62 4.76627 0.891879 0
M  V30 27110 N 2364.96 -0.433911 1.51509 0
M  V30 27111 C 2366.24 -1.1945 1.5489 0
M  V30 27112 C 2366.62 -2.08734 0.315191 0
M  V30 27113 O 2365.97 -2.17529 -0.69952 0
M  V30 27114 C 2366.18 -1.99337 2.86471 0
M  V30 27115 C 2367.52 -2.56261 3.38549 0
M  V30 27116 O 2368.55 -2.09544 2.88044 0
M  V30 27117 O 2367.41 -3.41475 4.26681 0
M  V30 27118 H 2364.5 -0.544021 0.622872 0
M  V30 27119 H 2367.05 -0.442703 1.63824 0
M  V30 27120 H 2365.82 -1.33782 3.6772 0
M  V30 27121 H 2365.44 -2.81575 2.80715 0
M  V30 27122 N 2366.44 -1.41713 -0.689577 0
M  V30 27123 C 2367.37 -1.39969 -1.81497 0
M  V30 27124 C 2368.38 -0.300946 -1.59994 0
M  V30 27125 O 2369.57 -0.563069 -1.69386 0
M  V30 27126 C 2366.67 -1.16184 -3.18362 0
M  V30 27127 C 2365.85 -2.38213 -3.66842 0
M  V30 27128 C 2364.9 -2.10195 -4.82395 0
M  V30 27129 O 2363.93 -2.83281 -4.93701 0
M  V30 27130 N 2365.13 -1.0959 -5.70062 0
M  V30 27131 H 2367.9 -2.36968 -1.83484 0
M  V30 27132 H 2365.46 -1.36402 -0.872125 0
M  V30 27133 H 2367.45 -0.953825 -3.93299 0
M  V30 27134 H 2366.02 -0.277614 -3.11365 0
M  V30 27135 H 2365.24 -2.74678 -2.82746 0
M  V30 27136 H 2366.53 -3.19505 -3.95973 0
M  V30 27137 H 2365.93 -0.491118 -5.63564 0
M  V30 27138 H 2364.48 -0.94777 -6.44873 0
M  V30 27139 N 2367.92 0.924431 -1.2764 0
M  V30 27140 C 2369.16 1.67247 -1.1417 0
M  V30 27141 C 2369.49 1.91984 0.311829 0
M  V30 27142 O 2368.75 1.51055 1.24422 0
M  V30 27143 C 2369.05 3.04321 -1.87412 0
M  V30 27144 C 2368.71 2.99283 -3.37255 0
M  V30 27145 C 2367.37 2.97616 -3.78125 0
M  V30 27146 C 2369.73 2.90328 -4.3285 0
M  V30 27147 C 2367.05 2.84781 -5.12949 0
M  V30 27148 C 2369.41 2.79035 -5.67735 0
M  V30 27149 C 2368.07 2.75719 -6.07894 0
M  V30 27150 H 2367.34 0.611999 -0.417777 0
M  V30 27151 H 2369.99 1.07783 -1.58288 0
M  V30 27152 H 2368.29 3.67508 -1.35812 0
M  V30 27153 H 2369.99 3.61082 -1.74415 0
M  V30 27154 H 2366.58 3.01369 -3.04753 0
M  V30 27155 H 2370.76 2.90712 -4.02244 0
M  V30 27156 H 2366.02 2.80603 -5.43205 0
M  V30 27157 H 2370.19 2.71072 -6.41477 0
M  V30 27158 H 2367.82 2.65531 -7.12318 0
M  V30 27159 N 2369.39 1.09715 1.13139 0
M  V30 27160 C 2370.3 0.751406 2.22241 0
M  V30 27161 C 2371.32 -0.247907 1.72225 0
M  V30 27162 O 2372.5 -0.0885109 2.01205 0
M  V30 27163 C 2369.56 0.180334 3.46231 0
M  V30 27164 C 2368.62 1.23597 4.11123 0
M  V30 27165 C 2367.86 0.692059 5.29194 0
M  V30 27166 O 2368.08 -0.48404 5.68343 0
M  V30 27167 O 2367.01 1.44849 5.84211 0
M  V30 27168 H 2370.84 1.6619 2.54194 0
M  V30 27169 H 2368.42 0.871757 1.21329 0
M  V30 27170 H 2370.31 -0.134665 4.21185 0
M  V30 27171 H 2368.98 -0.70313 3.15971 0
M  V30 27172 H 2367.89 1.60371 3.37982 0
M  V30 27173 H 2369.22 2.09219 4.4552 0
M  V30 27174 N 2370.87 -1.30419 0.88479 0
M  V30 27175 C 2371.8 -2.30588 0.367614 0
M  V30 27176 C 2372.78 -1.60982 -0.549436 0
M  V30 27177 O 2373.97 -1.88592 -0.463327 0
M  V30 27178 C 2371.1 -3.44765 -0.418883 0
M  V30 27179 C 2370.05 -4.26066 0.406391 0
M  V30 27180 C 2369.38 -5.32294 -0.506699 0
M  V30 27181 C 2370.68 -4.95606 1.64841 0
M  V30 27182 H 2372.37 -2.74095 1.20467 0
M  V30 27183 H 2369.92 -1.31771 0.580718 0
M  V30 27184 H 2371.87 -4.13903 -0.791322 0
M  V30 27185 H 2370.6 -3.00062 -1.28958 0
M  V30 27186 H 2369.25 -3.58615 0.760967 0
M  V30 27187 H 2368.9 -4.83839 -1.3751 0
M  V30 27188 H 2368.6 -5.87585 0.041686 0
M  V30 27189 H 2370.13 -6.04288 -0.875658 0
M  V30 27190 H 2371.54 -5.57262 1.34656 0
M  V30 27191 H 2369.94 -5.60761 2.13698 0
M  V30 27192 H 2371.01 -4.21743 2.39292 0
M  V30 27193 N 2372.35 -0.645724 -1.43764 0
M  V30 27194 C 2373.6 -0.156306 -2.02197 0
M  V30 27195 C 2373.93 1.22391 -1.50779 0
M  V30 27196 O 2373.2 1.81552 -0.697803 0
M  V30 27197 C 2373.49 -0.158935 -3.59749 0
M  V30 27198 C 2373.34 -1.57253 -4.21416 0
M  V30 27199 C 2374.66 0.508713 -4.3715 0
M  V30 27200 H 2371.78 -0.0582732 -0.734693 0
M  V30 27201 H 2374.42 -0.824981 -1.71155 0
M  V30 27202 H 2372.57 0.410457 -3.86326 0
M  V30 27203 H 2374.24 -2.19193 -4.05897 0
M  V30 27204 H 2372.49 -2.12207 -3.78353 0
M  V30 27205 H 2373.16 -1.52628 -5.3048 0
M  V30 27206 H 2375.63 0.0243389 -4.16093 0
M  V30 27207 H 2374.51 0.476117 -5.46831 0
M  V30 27208 H 2374.77 1.58158 -4.12842 0
M  V30 27209 N 2373.83 1.5277 -0.38717 0
M  V30 27210 C 2375.08 2.01154 0.195313 0
M  V30 27211 C 2375.4 1.27551 1.47498 0
M  V30 27212 O 2374.67 0.394958 1.91877 0
M  V30 27213 H 2373.25 0.743209 0.0751649 0
M  V30 27214 H 2375.91 1.8788 -0.51837 0
M  V30 27215 H 2375.01 3.09434 0.407042 0
M  V30 27216 N 2375.31 0.116931 1.57166 0
M  V30 27217 C 2376.25 -0.834042 2.15203 0
M  V30 27218 C 2377.22 -1.26497 1.07646 0
M  V30 27219 O 2378.41 -1.34286 1.35543 0
M  V30 27220 C 2375.55 -2.07952 2.75409 0
M  V30 27221 C 2374.66 -1.69714 3.97267 0
M  V30 27222 C 2373.8 -2.89213 4.45566 0
M  V30 27223 C 2372.84 -2.47205 5.59961 0
M  V30 27224 N 2371.97 -3.59611 6.03013 0
M  V30 27225 H 2376.81 -0.332283 2.96142 0
M  V30 27226 H 2374.35 -0.152323 1.46309 0
M  V30 27227 H 2376.31 -2.80923 3.08444 0
M  V30 27228 H 2374.94 -2.5559 1.97163 0
M  V30 27229 H 2373.99 -0.866251 3.70406 0
M  V30 27230 H 2375.3 -1.34841 4.80228 0
M  V30 27231 H 2374.46 -3.70412 4.805 0
M  V30 27232 H 2373.19 -3.27312 3.6155 0
M  V30 27233 H 2372.2 -1.64439 5.24633 0
M  V30 27234 H 2373.42 -2.10226 6.45741 0
M  V30 27235 H 2371.37 -3.97387 5.21938 0
M  V30 27236 H 2371.29 -3.28655 6.80825 0
M  V30 27237 H 2372.56 -4.41255 6.42584 0
M  V30 27238 N 2376.78 -1.56818 -0.156836 0
M  V30 27239 C 2378.01 -1.87319 -0.890298 0
M  V30 27240 C 2378.43 -0.704885 -1.74393 0
M  V30 27241 O 2377.79 0.345755 -1.77973 0
M  V30 27242 C 2377.84 -3.16339 -1.73096 0
M  V30 27243 O 2376.94 -2.99581 -2.83417 0
M  V30 27244 H 2376.29 -0.615723 -0.248559 0
M  V30 27245 H 2378.82 -2.04045 -0.150614 0
M  V30 27246 H 2378.83 -3.48111 -2.12797 0
M  V30 27247 H 2377.5 -4.00978 -1.10405 0
M  V30 27248 H 2376.08 -2.79194 -2.47194 0
M  V30 27249 N 2378.26 0.425871 -1.51737 0
M  V30 27250 C 2379.19 1.52491 -1.7683 0
M  V30 27251 C 2380.17 1.58455 -0.618551 0
M  V30 27252 O 2381.36 1.73999 -0.862447 0
M  V30 27253 C 2378.49 2.90471 -1.90379 0
M  V30 27254 C 2377.44 2.99363 -3.05885 0
M  V30 27255 C 2376.77 4.39435 -3.04632 0
M  V30 27256 C 2378.07 2.72387 -4.45649 0
M  V30 27257 H 2379.76 1.31743 -2.68857 0
M  V30 27258 H 2377.31 0.632339 -1.29373 0
M  V30 27259 H 2379.26 3.67327 -2.06516 0
M  V30 27260 H 2377.99 3.12475 -0.950095 0
M  V30 27261 H 2376.64 2.24949 -2.89471 0
M  V30 27262 H 2376.29 4.58424 -2.07018 0
M  V30 27263 H 2375.99 4.46313 -3.82202 0
M  V30 27264 H 2377.52 5.18249 -3.22878 0
M  V30 27265 H 2378.93 3.38971 -4.62354 0
M  V30 27266 H 2377.33 2.90661 -5.25011 0
M  V30 27267 H 2378.4 1.67921 -4.54896 0
M  V30 27268 N 2379.74 1.42077 0.682052 0
M  V30 27269 C 2380.99 1.41454 1.43784 0
M  V30 27270 C 2381.3 0.0317418 1.95574 0
M  V30 27271 O 2382.51 -0.0970985 2.71326 0
M  V30 27272 C 2380.96 2.48784 2.60067 0
M  V30 27273 C 2380.57 3.93035 2.15006 0
M  V30 27274 C 2382.32 2.57317 3.37622 0
M  V30 27275 C 2380.22 4.91889 3.28328 0
M  V30 27276 H 2379.15 0.526091 0.540134 0
M  V30 27277 H 2381.8 1.67956 0.739128 0
M  V30 27278 H 2380.19 2.15435 3.32271 0
M  V30 27279 H 2381.36 4.35702 1.50002 0
M  V30 27280 H 2379.68 3.88286 1.50409 0
M  V30 27281 H 2382.27 3.28352 4.22006 0
M  V30 27282 H 2382.62 1.61435 3.83724 0
M  V30 27283 H 2383.15 2.89824 2.72483 0
M  V30 27284 H 2379.89 5.89222 2.87224 0
M  V30 27285 H 2379.41 4.5386 3.92137 0
M  V30 27286 H 2381.09 5.13272 3.93904 0
M  V30 27287 N 2381.22 -0.917649 1.28129 0
M  V30 27288 C 2382.44 -1.70553 1.1801 0
M  V30 27289 C 2382.87 -1.86319 -0.258224 0
M  V30 27290 O 2382.23 -1.37051 -1.18687 0
M  V30 27291 C 2382.28 -3.07743 1.87954 0
M  V30 27292 O 2381.38 -3.95028 1.18434 0
M  V30 27293 H 2380.72 -0.522396 0.409876 0
M  V30 27294 H 2383.25 -1.14767 1.69381 0
M  V30 27295 H 2383.26 -3.57998 1.95708 0
M  V30 27296 H 2381.94 -2.95586 2.92578 0
M  V30 27297 H 2380.51 -3.53464 1.18818 0
M  V30 27298 N 2382.7 -1.10314 -1.12555 0
M  V30 27299 C 2383.61 -0.763181 -2.21839 0
M  V30 27300 C 2384.62 0.23877 -1.72354 0
M  V30 27301 O 2385.8 0.0778393 -2.0125 0
M  V30 27302 C 2382.86 -0.198693 -3.4613 0
M  V30 27303 C 2381.93 -1.25776 -4.10462 0
M  V30 27304 C 2381.16 -0.720113 -5.28819 0
M  V30 27305 O 2381.38 0.453893 -5.68591 0
M  V30 27306 O 2380.32 -1.47945 -5.83435 0
M  V30 27307 H 2384.14 -1.67536 -2.53309 0
M  V30 27308 H 2381.73 -0.878179 -1.20865 0
M  V30 27309 H 2383.61 0.112326 -4.2125 0
M  V30 27310 H 2382.28 0.686363 -3.1634 0
M  V30 27311 H 2381.19 -1.62162 -3.37127 0
M  V30 27312 H 2382.52 -2.11579 -4.44404 0
M  V30 27313 N 2384.18 1.29948 -0.891694 0
M  V30 27314 C 2385.41 1.99741 -0.527928 0
M  V30 27315 C 2385.81 1.66973 0.88976 0
M  V30 27316 O 2385.16 0.906695 1.59765 0
M  V30 27317 C 2385.22 3.53921 -0.630866 0
M  V30 27318 C 2384.88 4.10224 -2.01408 0
M  V30 27319 C 2385.88 4.25718 -2.98429 0
M  V30 27320 C 2383.56 4.45445 -2.32129 0
M  V30 27321 C 2385.56 4.75655 -4.24301 0
M  V30 27322 C 2383.25 4.95079 -3.58245 0
M  V30 27323 C 2384.24 5.10138 -4.54146 0
M  V30 27324 O 2383.93 5.58698 -5.78024 0
M  V30 27325 H 2383.66 0.645125 -0.201965 0
M  V30 27326 H 2386.22 1.66644 -1.20079 0
M  V30 27327 H 2384.45 3.86573 0.0989936 0
M  V30 27328 H 2386.14 4.04951 -0.27741 0
M  V30 27329 H 2386.9 3.98804 -2.76008 0
M  V30 27330 H 2382.78 4.32988 -1.58248 0
M  V30 27331 H 2386.33 4.87323 -4.99161 0
M  V30 27332 H 2382.22 5.21431 -3.805 0
M  V30 27333 H 2382.99 5.77028 -5.805 0
M  V30 27334 N 2385.65 0.653339 1.4342 0
M  V30 27335 C 2386.9 0.16678 2.01812 0
M  V30 27336 C 2387.23 -1.21929 1.51538 0
M  V30 27337 O 2386.48 -1.82791 0.699007 0
M  V30 27338 C 2386.78 0.126686 3.57175 0
M  V30 27339 C 2386.45 1.45451 4.26796 0
M  V30 27340 C 2385.11 1.81813 4.45531 0
M  V30 27341 C 2387.46 2.32997 4.66221 0
M  V30 27342 C 2384.79 3.05386 5.00955 0
M  V30 27343 C 2387.14 3.55862 5.23015 0
M  V30 27344 C 2385.81 3.9242 5.39966 0
M  V30 27345 H 2385.08 0.0610292 0.738483 0
M  V30 27346 H 2387.72 0.84407 1.71894 0
M  V30 27347 H 2386.03 -0.634055 3.86635 0
M  V30 27348 H 2387.73 -0.266653 4.00112 0
M  V30 27349 H 2384.32 1.1616 4.12559 0
M  V30 27350 H 2388.5 2.06195 4.51439 0
M  V30 27351 H 2383.76 3.33759 5.12265 0
M  V30 27352 H 2387.93 4.23917 5.5251 0
M  V30 27353 H 2385.56 4.88252 5.82678 0
M  V30 27354 N 2387.13 -1.52563 0.395266 0
M  V30 27355 C 2388.06 -2.24284 -0.472161 0
M  V30 27356 C 2389.08 -1.26743 -1.02176 0
M  V30 27357 O 2390.27 -1.5278 -0.92307 0
M  V30 27358 C 2387.37 -2.95027 -1.6677 0
M  V30 27359 C 2386.54 -4.19324 -1.24442 0
M  V30 27360 C 2385.6 -4.73014 -2.30531 0
M  V30 27361 O 2384.62 -5.3595 -1.91692 0
M  V30 27362 N 2385.83 -4.53385 -3.62522 0
M  V30 27363 H 2388.59 -2.99362 0.142335 0
M  V30 27364 H 2386.15 -1.60372 0.221928 0
M  V30 27365 H 2388.14 -3.27844 -2.37278 0
M  V30 27366 H 2386.71 -2.23221 -2.18841 0
M  V30 27367 H 2385.93 -3.92479 -0.368 0
M  V30 27368 H 2387.22 -5.00072 -0.938369 0
M  V30 27369 H 2386.62 -4.03161 -3.96834 0
M  V30 27370 H 2385.18 -4.90676 -4.29046 0
M  V30 27371 N 2388.61 -0.125265 -1.57101 0
M  V30 27372 C 2389.56 0.822617 -2.15642 0
M  V30 27373 C 2390.53 1.25925 -1.08315 0
M  V30 27374 O 2391.71 1.33565 -1.36254 0
M  V30 27375 C 2388.85 2.06489 -2.76508 0
M  V30 27376 C 2387.96 1.67605 -3.98161 0
M  V30 27377 C 2387.1 2.86846 -4.47094 0
M  V30 27378 C 2386.14 2.44232 -5.61264 0
M  V30 27379 N 2385.28 3.56408 -6.04911 0
M  V30 27380 H 2390.12 0.316573 -2.96314 0
M  V30 27381 H 2387.65 0.144562 -1.46388 0
M  V30 27382 H 2389.61 2.79284 -3.0993 0
M  V30 27383 H 2388.24 2.54541 -1.98516 0
M  V30 27384 H 2387.29 0.846595 -3.7086 0
M  V30 27385 H 2388.6 1.32292 -4.80937 0
M  V30 27386 H 2387.76 3.67859 -4.82457 0
M  V30 27387 H 2386.5 3.2539 -3.63281 0
M  V30 27388 H 2385.5 1.61654 -5.25498 0
M  V30 27389 H 2386.73 2.06799 -6.46847 0
M  V30 27390 H 2384.67 3.94613 -5.24038 0
M  V30 27391 H 2384.59 3.25039 -6.82558 0
M  V30 27392 H 2385.86 4.37841 -6.44915 0
M  V30 27393 N 2390.09 1.56899 0.148518 0
M  V30 27394 C 2391.33 1.83537 0.862662 0
M  V30 27395 C 2391.67 0.706635 1.80888 0
M  V30 27396 O 2390.94 -0.289851 1.92328 0
M  V30 27397 C 2391.22 3.20665 1.63847 0
M  V30 27398 C 2391.08 4.44099 0.713847 0
M  V30 27399 C 2392.4 3.54996 2.60127 0
M  V30 27400 H 2389.52 0.667623 0.312167 0
M  V30 27401 H 2392.16 1.89569 0.12792 0
M  V30 27402 H 2390.31 3.15654 2.26483 0
M  V30 27403 H 2391.98 4.61195 0.0986049 0
M  V30 27404 H 2390.22 4.33794 0.0233256 0
M  V30 27405 H 2390.89 5.3665 1.29268 0
M  V30 27406 H 2393.37 3.60607 2.0761 0
M  V30 27407 H 2392.25 4.51977 3.1146 0
M  V30 27408 H 2392.51 2.80874 3.41412 0
M  V30 27409 N 2391.57 -0.417818 1.51961 0
M  V30 27410 C 2392.51 -1.50849 1.7468 0
M  V30 27411 C 2393.48 -1.55307 0.588974 0
M  V30 27412 O 2394.67 -1.72014 0.825575 0
M  V30 27413 C 2391.81 -2.88384 1.89549 0
M  V30 27414 C 2390.92 -2.93303 3.17171 0
M  V30 27415 C 2390.06 -4.22083 3.22521 0
M  V30 27416 C 2389.09 -4.20943 4.4438 0
M  V30 27417 N 2388.23 -5.41279 4.4717 0
M  V30 27418 H 2393.07 -1.30778 2.67771 0
M  V30 27419 H 2390.61 -0.634957 1.3269 0
M  V30 27420 H 2392.57 -3.68212 1.96152 0
M  V30 27421 H 2391.2 -3.06969 0.998478 0
M  V30 27422 H 2390.25 -2.06019 3.19782 0
M  V30 27423 H 2391.56 -2.88325 4.07026 0
M  V30 27424 H 2390.71 -5.10298 3.28148 0
M  V30 27425 H 2389.45 -4.29744 2.30589 0
M  V30 27426 H 2388.46 -3.31119 4.38908 0
M  V30 27427 H 2389.68 -4.14929 5.37597 0
M  V30 27428 H 2387.63 -5.49625 3.58117 0
M  V30 27429 H 2387.55 -5.38261 5.30859 0
M  V30 27430 H 2388.81 -6.31472 4.57016 0
M  V30 27431 N 2393.04 -1.42436 -0.674508 0
M  V30 27432 C 2394.28 -1.44407 -1.44658 0
M  V30 27433 C 2394.65 -0.0586121 -1.91911 0
M  V30 27434 O 2395.85 0.0469519 -2.68759 0
M  V30 27435 C 2394.12 -2.44018 -2.61132 0
M  V30 27436 S 2395.68 -2.64693 -3.49976 0
M  V30 27437 H 2392.5 -0.511293 -0.494066 0
M  V30 27438 H 2395.1 -1.79042 -0.78513 0
M  V30 27439 H 2393.8 -3.4345 -2.24656 0
M  V30 27440 H 2393.33 -2.10809 -3.32149 0
M  V30 27441 H 2395.35 -1.93015 -4.57121 0
M  V30 27442 N 2394.52 0.910841 -1.28614 0
M  V30 27443 C 2395.75 1.69925 -1.18913 0
M  V30 27444 C 2396.17 1.86453 0.248339 0
M  V30 27445 O 2395.53 1.37679 1.17959 0
M  V30 27446 C 2395.58 3.06742 -1.89583 0
M  V30 27447 O 2394.68 3.94394 -1.20528 0
M  V30 27448 H 2394.02 0.520215 -0.412641 0
M  V30 27449 H 2396.55 1.13867 -1.69987 0
M  V30 27450 H 2396.56 3.56955 -1.97603 0
M  V30 27451 H 2395.24 2.9403 -2.94142 0
M  V30 27452 H 2393.81 3.52829 -1.2069 0
M  V30 27453 N 2396 1.10909 1.11969 0
M  V30 27454 C 2397.25 0.85454 1.83586 0
M  V30 27455 C 2397.58 -0.619867 1.84358 0
M  V30 27456 O 2396.83 -1.47329 1.28812 0
M  V30 27457 C 2397.13 1.35431 3.30746 0
M  V30 27458 C 2396.8 2.84099 3.50141 0
M  V30 27459 C 2395.46 3.24696 3.55142 0
M  V30 27460 C 2397.81 3.79878 3.5685 0
M  V30 27461 C 2395.14 4.59813 3.64402 0
M  V30 27462 C 2397.49 5.14804 3.67641 0
M  V30 27463 C 2396.15 5.54968 3.709 0
M  V30 27464 H 2395.42 0.312698 0.671789 0
M  V30 27465 H 2398.07 1.38654 1.32088 0
M  V30 27466 H 2396.38 0.742429 3.84701 0
M  V30 27467 H 2398.07 1.13377 3.84638 0
M  V30 27468 H 2394.66 2.51691 3.46914 0
M  V30 27469 H 2398.85 3.49617 3.52252 0
M  V30 27470 H 2394.1 4.90346 3.652 0
M  V30 27471 H 2398.28 5.8886 3.71776 0
M  V30 27472 H 2395.9 6.59659 3.77828 0
M  V30 27473 N 2397.48 -1.29474 0.898573 0
M  V30 27474 C 2398.73 -1.94884 0.519898 0
M  V30 27475 C 2399.04 -1.71627 -0.93827 0
M  V30 27476 O 2400.25 -2.31134 -1.42441 0
M  V30 27477 C 2398.7 -3.49003 0.878898 0
M  V30 27478 C 2398.31 -3.81062 2.35576 0
M  V30 27479 C 2400.05 -4.20655 0.570078 0
M  V30 27480 C 2397.96 -5.2842 2.65568 0
M  V30 27481 H 2396.89 -0.729485 0.190704 0
M  V30 27482 H 2399.54 -1.47217 1.09541 0
M  V30 27483 H 2397.92 -3.95318 0.232322 0
M  V30 27484 H 2399.1 -3.4561 3.04779 0
M  V30 27485 H 2397.41 -3.22547 2.63349 0
M  V30 27486 H 2400.01 -5.29112 0.771018 0
M  V30 27487 H 2400.35 -4.1339 -0.491331 0
M  V30 27488 H 2400.89 -3.80068 1.17444 0
M  V30 27489 H 2397.63 -5.40748 3.70502 0
M  V30 27490 H 2397.15 -5.65123 2.00987 0
M  V30 27491 H 2398.82 -5.96002 2.51775 0
M  V30 27492 N 2398.96 -0.660936 -1.43071 0
M  V30 27493 C 2399.89 0.0647239 -2.29109 0
M  V30 27494 C 2400.9 0.779423 -1.4293 0
M  V30 27495 O 2402.09 0.635892 -1.66789 0
M  V30 27496 C 2399.19 1.11498 -3.20034 0
M  V30 27497 C 2398.36 0.476878 -4.34793 0
M  V30 27498 C 2397.42 1.42504 -5.06536 0
M  V30 27499 O 2396.45 0.930672 -5.6154 0
M  V30 27500 N 2397.65 2.7588 -5.10755 0
M  V30 27501 H 2400.42 -0.673782 -2.92028 0
M  V30 27502 H 2397.98 -0.504297 -1.53846 0
M  V30 27503 H 2399.97 1.75025 -3.64895 0
M  V30 27504 H 2398.54 1.75537 -2.58661 0
M  V30 27505 H 2397.76 -0.337641 -3.92751 0
M  V30 27506 H 2399.05 0.0317631 -5.0879 0
M  V30 27507 H 2398.44 3.18597 -4.67453 0
M  V30 27508 H 2397 3.3469 -5.59308 0
M  V30 27509 N 2400.43 1.52351 -0.403352 0
M  V30 27510 C 2401.66 2.05868 0.173724 0
M  V30 27511 C 2402.07 1.27381 1.39895 0
M  V30 27512 O 2401.42 0.317322 1.80939 0
M  V30 27513 C 2401.48 3.54547 0.594694 0
M  V30 27514 C 2401.14 4.54043 -0.519006 0
M  V30 27515 C 2402.14 5.01229 -1.38079 0
M  V30 27516 C 2399.82 4.97538 -0.690048 0
M  V30 27517 C 2401.82 5.90546 -2.39862 0
M  V30 27518 C 2399.5 5.86653 -1.71119 0
M  V30 27519 C 2400.5 6.33051 -2.56389 0
M  V30 27520 O 2400.19 7.20403 -3.56756 0
M  V30 27521 H 2399.92 0.675481 0.0264833 0
M  V30 27522 H 2402.48 1.97298 -0.571214 0
M  V30 27523 H 2400.71 3.60784 1.39183 0
M  V30 27524 H 2402.4 3.90738 1.09903 0
M  V30 27525 H 2403.16 4.68346 -1.26002 0
M  V30 27526 H 2399.04 4.60986 -0.03602 0
M  V30 27527 H 2402.58 6.26684 -3.06452 0
M  V30 27528 H 2398.48 6.18949 -1.83229 0
M  V30 27529 H 2399.25 7.385 -3.52931 0
M  V30 27530 N 2401.91 0.133594 1.57033 0
M  V30 27531 C 2403.32 -0.389432 1.82593 0
M  V30 27532 C 2403.67 -1.65638 1.05159 0
M  V30 27533 O 2402.8 -2.14412 0.292682 0
M  V30 27534 C 2403.39 -0.713319 3.31206 0
M  V30 27535 C 2401.95 -1.18092 3.57395 0
M  V30 27536 C 2401.1 -0.197078 2.76599 0
M  V30 27537 H 2404.05 0.358508 1.54598 0
M  V30 27538 H 2404.07 -1.56933 3.4663 0
M  V30 27539 H 2403.58 0.208968 3.87537 0
M  V30 27540 H 2401.69 -2.11961 3.06437 0
M  V30 27541 H 2401.8 -1.11616 4.65917 0
M  V30 27542 H 2400.16 -0.687045 2.45259 0
M  V30 27543 H 2400.95 0.718563 3.35696 0
M  V30 27544 N 2403.39 -1.56975 -0.140195 0
M  V30 27545 C 2404.64 -1.8372 -0.851655 0
M  V30 27546 C 2404.97 -0.715516 -1.80861 0
M  V30 27547 O 2404.22 0.294922 -1.93465 0
M  V30 27548 C 2404.52 -3.16835 -1.6538 0
M  V30 27549 C 2404.19 -4.42949 -0.843034 0
M  V30 27550 C 2402.85 -4.77197 -0.61938 0
M  V30 27551 C 2405.2 -5.20466 -0.276491 0
M  V30 27552 C 2402.53 -5.86419 0.181415 0
M  V30 27553 C 2404.88 -6.3053 0.51138 0
M  V30 27554 C 2403.54 -6.63323 0.745548 0
M  V30 27555 H 2402.81 -0.67228 -0.311643 0
M  V30 27556 H 2405.46 -1.91155 -0.114972 0
M  V30 27557 H 2403.77 -3.04881 -2.46079 0
M  V30 27558 H 2405.46 -3.34744 -2.20788 0
M  V30 27559 H 2402.05 -4.16103 -1.02742 0
M  V30 27560 H 2406.24 -4.94376 -0.436545 0
M  V30 27561 H 2401.49 -6.10266 0.372272 0
M  V30 27562 H 2405.67 -6.89786 0.957475 0
M  V30 27563 H 2403.29 -7.47792 1.36791 0
M  V30 27564 N 2404.87 0.409753 -1.5218 0
M  V30 27565 C 2405.82 1.51972 -1.76089 0
M  V30 27566 C 2406.81 1.5733 -0.627991 0
M  V30 27567 O 2408.02 1.60744 -0.810022 0
M  V30 27568 H 2404.39 0.505406 -0.556838 0
M  V30 27569 H 2406.36 1.28992 -2.69079 0
M  V30 27570 C 2405.11 2.89347 -1.92805 0
M  V30 27571 H 2404.43 2.85967 -2.79397 0
M  V30 27572 H 2405.87 3.66305 -2.13533 0
M  V30 27573 C 2404.33 3.29654 -0.694981 0
M  V30 27574 O 2404.86 4.01465 0.13744 0
M  V30 27575 N 2403.07 2.85706 -0.53106 0
M  V30 27576 H 2402.62 2.27437 -1.20956 0
M  V30 27577 H 2402.57 3.13035 0.292663 0
M  V30 27578 N 2406.35 1.42792 0.666944 0
M  V30 27579 C 2407.28 1.4968 1.79216 0
M  V30 27580 C 2408.26 0.352652 1.66404 0
M  V30 27581 O 2409.44 0.568026 1.85707 0
M  V30 27582 C 2406.57 1.40611 3.17562 0
M  V30 27583 C 2405.53 2.53133 3.45119 0
M  V30 27584 C 2404.85 2.2912 4.83123 0
M  V30 27585 C 2406.15 3.95424 3.41229 0
M  V30 27586 H 2407.85 2.43856 1.73709 0
M  V30 27587 H 2405.39 1.17369 0.834299 0
M  V30 27588 H 2407.35 1.44036 3.9602 0
M  V30 27589 H 2406.07 0.429327 3.23766 0
M  V30 27590 H 2404.73 2.49039 2.69027 0
M  V30 27591 H 2404.38 1.29717 4.85986 0
M  V30 27592 H 2404.08 3.0454 5.02523 0
M  V30 27593 H 2405.6 2.34307 5.63855 0
M  V30 27594 H 2407.01 4.0108 4.09644 0
M  V30 27595 H 2405.41 4.70758 3.72165 0
M  V30 27596 H 2406.48 4.21536 2.39657 0
M  V30 27597 N 2407.82 -0.904008 1.29095 0
M  V30 27598 C 2409.05 -1.6852 1.19519 0
M  V30 27599 C 2409.46 -1.87576 -0.247347 0
M  V30 27600 O 2408.81 -1.40961 -1.17795 0
M  V30 27601 C 2408.87 -3.09286 1.83254 0
M  V30 27602 C 2408.53 -3.13478 3.32537 0
M  V30 27603 C 2409.53 -2.93946 4.28826 0
M  V30 27604 C 2407.21 -3.35681 3.73662 0
M  V30 27605 C 2409.21 -2.96543 5.64217 0
M  V30 27606 C 2406.89 -3.3791 5.09176 0
M  V30 27607 C 2407.89 -3.18363 6.04263 0
M  V30 27608 O 2407.58 -3.20372 7.37304 0
M  V30 27609 H 2407.31 -0.53325 0.415476 0
M  V30 27610 H 2409.87 -1.13919 1.70914 0
M  V30 27611 H 2408.1 -3.65471 1.26365 0
M  V30 27612 H 2409.79 -3.69473 1.6806 0
M  V30 27613 H 2410.55 -2.76609 3.98387 0
M  V30 27614 H 2406.43 -3.49938 3.00108 0
M  V30 27615 H 2409.97 -2.81205 6.38412 0
M  V30 27616 H 2405.87 -3.54777 5.39262 0
M  V30 27617 H 2406.64 -3.36668 7.46054 0
M  V30 27618 N 2409.3 -1.11501 -1.11379 0
M  V30 27619 C 2410.53 -0.885497 -1.86661 0
M  V30 27620 C 2410.94 0.568249 -1.80465 0
M  V30 27621 O 2410.28 1.40413 -1.18447 0
M  V30 27622 C 2410.35 -1.26961 -3.36335 0
M  V30 27623 C 2410.01 -2.73266 -3.66299 0
M  V30 27624 C 2411.01 -3.71483 -3.63726 0
M  V30 27625 C 2408.69 -3.09928 -3.95284 0
M  V30 27626 C 2410.69 -5.04381 -3.89716 0
M  V30 27627 C 2408.37 -4.43011 -4.20933 0
M  V30 27628 C 2409.37 -5.40047 -4.18137 0
M  V30 27629 O 2409.06 -6.70732 -4.43141 0
M  V30 27630 H 2408.79 -0.316918 -0.597109 0
M  V30 27631 H 2411.34 -1.48619 -1.41779 0
M  V30 27632 H 2409.57 -0.612066 -3.81825 0
M  V30 27633 H 2411.26 -1.0158 -3.92984 0
M  V30 27634 H 2412.03 -3.44504 -3.41383 0
M  V30 27635 H 2407.91 -2.35016 -3.96596 0
M  V30 27636 H 2411.45 -5.80111 -3.8745 0
M  V30 27637 H 2407.35 -4.69724 -4.42753 0
M  V30 27638 H 2408.12 -6.7653 -4.60705 0
M  V30 27639 N 2410.78 1.28995 -0.905426 0
M  V30 27640 C 2412.03 1.95976 -0.5445 0
M  V30 27641 C 2412.38 1.70032 0.90038 0
M  V30 27642 O 2411.68 1.00604 1.63063 0
M  V30 27643 C 2411.87 3.48785 -0.779967 0
M  V30 27644 C 2411.7 3.89585 -2.24618 0
M  V30 27645 C 2410.47 4.14167 -2.89472 0
M  V30 27646 C 2412.67 4.00873 -3.22189 0
M  V30 27647 N 2410.65 4.41577 -4.26477 0
M  V30 27648 C 2412.02 4.32401 -4.4433 0
M  V30 27649 C 2414.07 3.83367 -3.17701 0
M  V30 27650 C 2412.78 4.48248 -5.62554 0
M  V30 27651 C 2414.8 4.00427 -4.35215 0
M  V30 27652 C 2414.17 4.3232 -5.56128 0
M  V30 27653 H 2410.26 0.741311 -0.248961 0
M  V30 27654 H 2412.85 1.55818 -1.16743 0
M  V30 27655 H 2411.02 3.87953 -0.186377 0
M  V30 27656 H 2412.75 4.02875 -0.383904 0
M  V30 27657 H 2409.51 4.08145 -2.40239 0
M  V30 27658 H 2409.93 4.59381 -4.97291 0
M  V30 27659 H 2414.57 3.57769 -2.25303 0
M  V30 27660 H 2412.29 4.72681 -6.55438 0
M  V30 27661 H 2415.88 3.88328 -4.33235 0
M  V30 27662 H 2414.76 4.45244 -6.45544 0
M  V30 27663 N 2412.26 0.668514 1.42719 0
M  V30 27664 C 2413.19 0.000141219 2.335 0
M  V30 27665 C 2414.17 -0.795938 1.50329 0
M  V30 27666 O 2415.36 -0.754353 1.7895 0
M  V30 27667 C 2412.49 -0.956243 3.33876 0
M  V30 27668 C 2411.44 -0.269203 4.27153 0
M  V30 27669 C 2410.77 -1.33809 5.17686 0
M  V30 27670 C 2412.07 0.847896 5.15372 0
M  V30 27671 H 2413.76 0.758295 2.89638 0
M  V30 27672 H 2411.31 0.366104 1.39268 0
M  V30 27673 H 2413.26 -1.43285 3.96292 0
M  V30 27674 H 2411.98 -1.74574 2.76028 0
M  V30 27675 H 2410.64 0.187106 3.66122 0
M  V30 27676 H 2410.29 -2.11942 4.56168 0
M  V30 27677 H 2409.99 -0.883557 5.80919 0
M  V30 27678 H 2411.51 -1.81576 5.82977 0
M  V30 27679 H 2412.93 0.452782 5.71509 0
M  V30 27680 H 2411.32 1.22784 5.87405 0
M  V30 27681 H 2412.39 1.69937 4.54147 0
M  V30 27682 N 2413.74 -1.52135 0.411426 0
M  V30 27683 C 2414.98 -2.02137 -0.163852 0
M  V30 27684 C 2415.32 -1.29638 -1.44595 0
M  V30 27685 O 2414.59 -0.403387 -1.90271 0
M  V30 27686 C 2414.87 -3.57767 -0.409208 0
M  V30 27687 C 2414.73 -4.40913 0.889721 0
M  V30 27688 C 2416.05 -4.23697 -1.19035 0
M  V30 27689 H 2413.17 -0.734708 -0.0580766 0
M  V30 27690 H 2415.81 -1.82006 0.545342 0
M  V30 27691 H 2413.96 -3.75052 -1.01333 0
M  V30 27692 H 2415.63 -4.35334 1.52583 0
M  V30 27693 H 2413.87 -4.07034 1.50018 0
M  V30 27694 H 2414.54 -5.47889 0.672411 0
M  V30 27695 H 2417.02 -4.10525 -0.67887 0
M  V30 27696 H 2415.9 -5.32524 -1.33077 0
M  V30 27697 H 2416.16 -3.82807 -2.21159 0
M  V30 27698 N 2415.22 -0.14192 -1.5696 0
M  V30 27699 C 2416.15 0.795898 -2.19517 0
M  V30 27700 C 2417.13 1.26075 -1.14189 0
M  V30 27701 O 2418.31 1.31923 -1.42513 0
M  V30 27702 C 2415.44 2.03718 -2.81276 0
M  V30 27703 C 2414.4 1.70929 -3.92387 0
M  V30 27704 C 2413.72 3.02279 -4.41057 0
M  V30 27705 C 2415.02 0.959864 -5.13404 0
M  V30 27706 H 2416.72 0.274543 -2.98139 0
M  V30 27707 H 2414.26 0.130611 -1.43406 0
M  V30 27708 H 2416.21 2.69802 -3.23705 0
M  V30 27709 H 2414.94 2.58218 -1.99978 0
M  V30 27710 H 2413.6 1.07226 -3.50568 0
M  V30 27711 H 2413.25 3.54759 -3.56588 0
M  V30 27712 H 2412.95 2.81105 -5.15998 0
M  V30 27713 H 2414.47 3.69443 -4.86153 0
M  V30 27714 H 2415.88 1.52269 -5.52709 0
M  V30 27715 H 2414.28 0.848253 -5.94075 0
M  V30 27716 H 2415.35 -0.0493287 -4.84875 0
M  V30 27717 N 2416.69 1.57047 0.131868 0
M  V30 27718 C 2417.64 2.00362 1.18143 0
M  V30 27719 C 2418.64 0.898431 1.43613 0
M  V30 27720 O 2419.84 1.08363 1.43727 0
M  V30 27721 H 2416.22 0.638025 0.398031 0
M  V30 27722 H 2418.19 2.87766 0.789513 0
M  V30 27723 C 2416.94 2.41303 2.50336 0
M  V30 27724 H 2416.26 3.25906 2.31572 0
M  V30 27725 H 2417.7 2.7542 3.22366 0
M  V30 27726 C 2416.16 1.27158 3.11981 0
M  V30 27727 O 2416.69 0.580529 3.97483 0
M  V30 27728 N 2414.89 1.03193 2.71661 0
M  V30 27729 H 2414.44 1.59567 2.02228 0
M  V30 27730 H 2414.4 0.270132 3.13237 0
M  V30 27731 N 2418.17 -0.401677 1.52395 0
M  V30 27732 C 2419.58 -0.980174 1.58901 0
M  V30 27733 C 2419.93 -1.91338 0.434066 0
M  V30 27734 O 2419.06 -2.11784 -0.444582 0
M  V30 27735 C 2419.65 -1.78446 2.87997 0
M  V30 27736 C 2418.21 -2.31287 2.96957 0
M  V30 27737 C 2417.36 -1.11478 2.53905 0
M  V30 27738 H 2420.31 -0.181652 1.57657 0
M  V30 27739 H 2420.33 -2.64254 2.7377 0
M  V30 27740 H 2419.84 -1.105 3.72037 0
M  V30 27741 H 2417.94 -3.02582 2.17427 0
M  V30 27742 H 2418.06 -2.61642 4.01348 0
M  V30 27743 H 2416.42 -1.471 2.07927 0
M  V30 27744 H 2417.2 -0.450869 3.40326 0
M  V30 27745 N 2419.65 -1.43144 -0.659362 0
M  V30 27746 C 2420.9 -1.4415 -1.41652 0
M  V30 27747 C 2421.22 -0.0646081 -1.94893 0
M  V30 27748 O 2420.49 0.899168 -1.74045 0
M  V30 27749 H 2419.07 -0.530707 -0.525699 0
M  V30 27750 H 2421.73 -1.78696 -0.778065 0
M  V30 27751 H 2420.83 -2.15044 -2.26192 0
M  V30 27752 N 2421.13 0.897149 -1.29572 0
M  V30 27753 C 2422.07 2.00156 -1.14919 0
M  V30 27754 C 2423.04 1.66047 -0.0418441 0
M  V30 27755 O 2424.23 1.89643 -0.209826 0
M  V30 27756 C 2421.37 3.34862 -0.834366 0
M  V30 27757 C 2420.48 3.81737 -2.0224 0
M  V30 27758 C 2419.62 5.05031 -1.64673 0
M  V30 27759 C 2418.66 5.44282 -2.80043 0
M  V30 27760 N 2417.79 6.58761 -2.42854 0
M  V30 27761 H 2422.63 2.12021 -2.09407 0
M  V30 27762 H 2420.17 1.03828 -1.04202 0
M  V30 27763 H 2422.13 4.12377 -0.632508 0
M  V30 27764 H 2420.76 3.22716 0.0736089 0
M  V30 27765 H 2419.81 3.00234 -2.33589 0
M  V30 27766 H 2421.12 4.06774 -2.8868 0
M  V30 27767 H 2420.28 5.90138 -1.40791 0
M  V30 27768 H 2419.02 4.81839 -0.75385 0
M  V30 27769 H 2418.02 4.57707 -3.04605 0
M  V30 27770 H 2419.25 5.69454 -3.69999 0
M  V30 27771 H 2417.19 6.37167 -1.56057 0
M  V30 27772 H 2417.11 6.83607 -3.22827 0
M  V30 27773 H 2418.38 7.4713 -2.22298 0
M  V30 27774 N 2422.61 1.1209 1.10786 0
M  V30 27775 C 2424.02 0.888939 1.64179 0
M  V30 27776 C 2424.37 -0.577465 1.87509 0
M  V30 27777 O 2423.49 -1.44109 1.61436 0
M  V30 27778 C 2424.09 1.60717 2.98254 0
M  V30 27779 C 2422.65 1.42145 3.48528 0
M  V30 27780 C 2421.79 1.64544 2.23205 0
M  V30 27781 H 2424.74 1.27619 0.943346 0
M  V30 27782 H 2424.77 1.05611 3.6555 0
M  V30 27783 H 2424.28 2.67441 2.81242 0
M  V30 27784 H 2422.38 0.376617 3.70692 0
M  V30 27785 H 2422.49 2.17512 4.26879 0
M  V30 27786 H 2420.86 1.06929 2.31167 0
M  V30 27787 H 2421.64 2.72557 2.08728 0
M  V30 27788 N 2424.08 -1.28513 0.912254 0
M  V30 27789 C 2425.03 -2.29313 0.389637 0
M  V30 27790 C 2426.03 -1.61289 -0.517887 0
M  V30 27791 O 2427.23 -1.75515 -0.399297 0
M  V30 27792 H 2423.61 -0.744291 0.107399 0
M  V30 27793 H 2425.58 -2.70822 1.25291 0
M  V30 27794 C 2424.33 -3.45868 -0.356435 0
M  V30 27795 H 2423.65 -3.98413 0.332678 0
M  V30 27796 H 2425.09 -4.18401 -0.686777 0
M  V30 27797 C 2423.55 -2.98409 -1.56377 0
M  V30 27798 O 2424.08 -3.00754 -2.66289 0
M  V30 27799 N 2422.28 -2.54087 -1.41025 0
M  V30 27800 H 2421.83 -2.52378 -0.516045 0
M  V30 27801 H 2421.79 -2.22693 -2.21935 0
M  V30 27802 N 2425.56 -0.676073 -1.42362 0
M  V30 27803 C 2426.81 -0.196073 -2.00745 0
M  V30 27804 C 2427.12 1.20487 -1.54085 0
M  V30 27805 O 2428.33 1.78131 -2.04895 0
M  V30 27806 C 2426.79 -0.299679 -3.5865 0
M  V30 27807 C 2426.39 -1.70475 -4.14297 0
M  V30 27808 C 2428.14 0.121544 -4.24326 0
M  V30 27809 C 2426.05 -1.76106 -5.64571 0
M  V30 27810 H 2424.98 -0.0695433 -0.750786 0
M  V30 27811 H 2427.63 -0.841441 -1.63071 0
M  V30 27812 H 2426.01 0.413604 -3.93834 0
M  V30 27813 H 2427.18 -2.44522 -3.90571 0
M  V30 27814 H 2425.5 -2.07394 -3.61077 0
M  V30 27815 H 2428.09 0.0996423 -5.34607 0
M  V30 27816 H 2428.44 1.15701 -3.99899 0
M  V30 27817 H 2428.97 -0.540775 -3.94107 0
M  V30 27818 H 2425.71 -2.77639 -5.93799 0
M  V30 27819 H 2425.23 -1.06416 -5.90284 0
M  V30 27820 H 2426.91 -1.51507 -6.29011 0
M  V30 27821 N 2427.04 1.51915 -0.419488 0
M  V30 27822 C 2428.27 2.06823 0.154535 0
M  V30 27823 C 2428.69 1.28658 1.37218 0
M  V30 27824 O 2428.05 0.319614 1.78461 0
M  V30 27825 C 2428.1 3.57483 0.473109 0
M  V30 27826 O 2427.2 3.81655 1.56248 0
M  V30 27827 H 2426.54 0.663929 0.00968073 0
M  V30 27828 H 2429.07 1.95737 -0.595676 0
M  V30 27829 H 2429.08 4.01439 0.728754 0
M  V30 27830 H 2427.76 4.13805 -0.416946 0
M  V30 27831 H 2426.33 3.49573 1.29819 0
M  V30 27832 N 2428.52 0.150242 1.56882 0
M  V30 27833 C 2429.45 -0.784245 2.19936 0
M  V30 27834 C 2430.43 -1.25467 1.14856 0
M  V30 27835 O 2431.61 -1.31165 1.43211 0
M  V30 27836 C 2428.74 -2.02224 2.82352 0
M  V30 27837 C 2427.7 -1.68846 3.93287 0
M  V30 27838 C 2427.02 -2.99936 4.42654 0
M  V30 27839 C 2428.32 -0.932623 5.13906 0
M  V30 27840 H 2430.02 -0.258729 2.9828 0
M  V30 27841 H 2427.56 -0.123004 1.43474 0
M  V30 27842 H 2429.52 -2.68082 3.25131 0
M  V30 27843 H 2428.24 -2.57154 2.01345 0
M  V30 27844 H 2426.9 -1.05365 3.51132 0
M  V30 27845 H 2426.55 -3.52863 3.58464 0
M  V30 27846 H 2426.25 -2.78365 5.17481 0
M  V30 27847 H 2427.77 -3.66859 4.88105 0
M  V30 27848 H 2429.19 -1.49336 5.53509 0
M  V30 27849 H 2427.58 -0.816735 5.94516 0
M  V30 27850 H 2428.65 0.0750421 4.84842 0
M  V30 27851 N 2430 -1.57115 -0.123538 0
M  V30 27852 C 2431.22 -1.89165 -0.850365 0
M  V30 27853 C 2431.65 -0.741718 -1.72859 0
M  V30 27854 O 2431 0.307926 -1.78666 0
M  V30 27855 C 2431.05 -3.19939 -1.66347 0
M  V30 27856 O 2430.16 -3.05525 -2.76999 0
M  V30 27857 H 2429.5 -0.620856 -0.235443 0
M  V30 27858 H 2432.03 -2.04318 -0.107299 0
M  V30 27859 H 2432.04 -3.52547 -2.05365 0
M  V30 27860 H 2430.71 -4.0323 -1.01874 0
M  V30 27861 H 2429.29 -2.84375 -2.41216 0
M  V30 27862 N 2431.47 0.393589 -1.52606 0
M  V30 27863 C 2432.7 1.16492 -1.71594 0
M  V30 27864 C 2433.12 1.83087 -0.431363 0
M  V30 27865 O 2432.48 1.70641 0.612493 0
M  V30 27866 C 2432.53 2.19208 -2.86322 0
M  V30 27867 O 2431.63 3.25695 -2.52975 0
M  V30 27868 H 2430.98 0.33934 -0.57074 0
M  V30 27869 H 2433.51 0.459289 -1.99378 0
M  V30 27870 H 2433.52 2.63281 -3.11684 0
M  V30 27871 H 2432.19 1.70123 -3.79514 0
M  V30 27872 H 2430.77 2.86792 -2.38337 0
M  V30 27873 N 2432.95 1.43492 0.651762 0
M  V30 27874 C 2433.9 1.48763 1.7646 0
M  V30 27875 C 2434.87 0.337217 1.62641 0
M  V30 27876 O 2436.05 0.544576 1.82863 0
M  V30 27877 C 2433.19 1.41802 3.14621 0
M  V30 27878 C 2432.31 2.67059 3.39563 0
M  V30 27879 C 2431.44 2.52076 4.6758 0
M  V30 27880 C 2430.48 3.72595 4.85633 0
M  V30 27881 N 2429.62 3.56413 6.04908 0
M  V30 27882 H 2434.46 2.43852 1.71289 0
M  V30 27883 H 2432 1.21044 0.835868 0
M  V30 27884 H 2433.95 1.3576 3.94494 0
M  V30 27885 H 2432.58 0.502936 3.18858 0
M  V30 27886 H 2431.64 2.83374 2.53778 0
M  V30 27887 H 2432.95 3.56578 3.48788 0
M  V30 27888 H 2432.1 2.4375 5.55582 0
M  V30 27889 H 2430.84 1.60084 4.60678 0
M  V30 27890 H 2429.85 3.81328 3.96067 0
M  V30 27891 H 2431.07 4.65598 4.94364 0
M  V30 27892 H 2429.02 2.67156 5.99136 0
M  V30 27893 H 2428.93 4.39534 6.15098 0
M  V30 27894 H 2430.2 3.51941 6.95527 0
M  V30 27895 N 2434.43 -0.890264 1.30046 0
M  V30 27896 C 2435.66 -1.67485 1.21475 0
M  V30 27897 C 2436.07 -1.87476 -0.223208 0
M  V30 27898 O 2435.43 -1.41849 -1.14826 0
M  V30 27899 C 2435.48 -3.05416 1.934 0
M  V30 27900 O 2435.2 -2.86331 3.31581 0
M  V30 27901 C 2436.7 -3.99841 1.91421 0
M  V30 27902 H 2433.92 -0.522805 0.420613 0
M  V30 27903 H 2436.47 -1.11265 1.71582 0
M  V30 27904 H 2434.62 -3.58384 1.47105 0
M  V30 27905 H 2435.04 -3.73796 3.67936 0
M  V30 27906 H 2436.51 -4.94007 2.46294 0
M  V30 27907 H 2436.99 -4.30048 0.891908 0
M  V30 27908 H 2437.59 -3.52807 2.37502 0
M  V30 27909 N 2435.91 -1.12676 -1.1019 0
M  V30 27910 C 2437.16 -0.881893 -1.81844 0
M  V30 27911 C 2437.48 0.593835 -1.85738 0
M  V30 27912 O 2436.75 1.43157 -1.33727 0
M  V30 27913 H 2435.33 -0.323273 -0.673427 0
M  V30 27914 H 2437.99 -1.42175 -1.33313 0
M  V30 27915 H 2437.09 -1.26565 -2.85285 0
M  V30 27916 N 2437.39 1.28028 -0.919057 0
M  V30 27917 C 2438.32 2.29532 -0.428622 0
M  V30 27918 C 2439.3 1.62382 0.506561 0
M  V30 27919 O 2440.48 1.89754 0.413162 0
M  V30 27920 C 2437.61 3.45754 0.327328 0
M  V30 27921 C 2436.57 4.24839 -0.519212 0
M  V30 27922 C 2435.89 5.3345 0.365393 0
M  V30 27923 C 2437.19 4.91061 -1.77923 0
M  V30 27924 H 2438.89 2.70805 -1.27692 0
M  V30 27925 H 2436.43 1.30185 -0.615451 0
M  V30 27926 H 2438.39 4.15856 0.681305 0
M  V30 27927 H 2437.11 3.03376 1.20957 0
M  V30 27928 H 2435.77 3.56472 -0.855779 0
M  V30 27929 H 2435.42 4.87314 1.24634 0
M  V30 27930 H 2435.12 5.87268 -0.197459 0
M  V30 27931 H 2436.64 6.06398 0.715134 0
M  V30 27932 H 2438.05 5.53496 -1.49384 0
M  V30 27933 H 2436.45 5.54898 -2.2849 0
M  V30 27934 H 2437.52 4.15251 -2.50389 0
M  V30 27935 N 2438.86 0.683613 1.42002 0
M  V30 27936 C 2440.11 0.206716 2.00638 0
M  V30 27937 C 2440.43 -1.19668 1.54722 0
M  V30 27938 O 2441.63 -1.77041 2.05836 0
M  V30 27939 C 2440.09 0.318695 3.58486 0
M  V30 27940 C 2439.7 1.7267 4.13387 0
M  V30 27941 C 2441.44 -0.0990395 4.24384 0
M  V30 27942 C 2439.35 1.79097 5.63629 0
M  V30 27943 H 2438.28 0.0735239 0.750407 0
M  V30 27944 H 2440.93 0.850077 1.62622 0
M  V30 27945 H 2439.31 -0.392712 3.94048 0
M  V30 27946 H 2440.48 2.4659 3.89269 0
M  V30 27947 H 2438.8 2.09305 3.59972 0
M  V30 27948 H 2441.4 -0.0712894 5.34652 0
M  V30 27949 H 2441.74 -1.13579 4.00507 0
M  V30 27950 H 2442.27 0.561668 3.93815 0
M  V30 27951 H 2439.01 2.80784 5.92318 0
M  V30 27952 H 2438.53 1.09545 5.89712 0
M  V30 27953 H 2440.21 1.54841 6.28198 0
M  V30 27954 N 2440.34 -1.5169 0.427538 0
M  V30 27955 C 2441.29 -2.27501 -0.388827 0
M  V30 27956 C 2442.26 -1.30679 -1.0253 0
M  V30 27957 O 2443.45 -1.59568 -1.04607 0
M  V30 27958 C 2440.59 -3.11301 -1.48949 0
M  V30 27959 C 2439.7 -4.23105 -0.87212 0
M  V30 27960 C 2438.83 -4.94232 -1.94701 0
M  V30 27961 C 2437.87 -5.97971 -1.30755 0
M  V30 27962 N 2437.01 -6.62543 -2.32338 0
M  V30 27963 H 2441.85 -2.96828 0.264049 0
M  V30 27964 H 2439.39 -1.46412 0.142058 0
M  V30 27965 H 2441.34 -3.58205 -2.13881 0
M  V30 27966 H 2439.97 -2.44108 -2.11213 0
M  V30 27967 H 2439.03 -3.80237 -0.111352 0
M  V30 27968 H 2440.34 -4.97461 -0.365177 0
M  V30 27969 H 2439.49 -5.44634 -2.67317 0
M  V30 27970 H 2438.23 -4.19484 -2.48766 0
M  V30 27971 H 2437.24 -5.46871 -0.566806 0
M  V30 27972 H 2438.46 -6.74671 -0.774365 0
M  V30 27973 H 2436.41 -5.90614 -2.85501 0
M  V30 27974 H 2436.32 -7.32633 -1.86507 0
M  V30 27975 H 2437.59 -7.17579 -3.04468 0
M  V30 27976 N 2441.82 -0.15856 -1.568 0
M  V30 27977 C 2442.73 0.789479 -2.20917 0
M  V30 27978 C 2443.75 1.26292 -1.19693 0
M  V30 27979 O 2444.92 1.3177 -1.52311 0
M  V30 27980 C 2441.99 2.0066 -2.82731 0
M  V30 27981 C 2441.05 1.58127 -3.99117 0
M  V30 27982 C 2440.28 2.74037 -4.57973 0
M  V30 27983 O 2440.51 3.90565 -4.15711 0
M  V30 27984 O 2439.44 2.48845 -5.48051 0
M  V30 27985 H 2443.27 0.273628 -3.02465 0
M  V30 27986 H 2440.85 0.0690286 -1.4924 0
M  V30 27987 H 2442.73 2.71866 -3.21973 0
M  V30 27988 H 2441.41 2.51175 -2.04188 0
M  V30 27989 H 2440.31 0.83909 -3.64568 0
M  V30 27990 H 2441.65 1.12316 -4.79214 0
M  V30 27991 N 2443.3 1.57178 0.115204 0
M  V30 27992 C 2444.58 1.76028 0.852842 0
M  V30 27993 C 2444.96 0.735015 1.97891 0
M  V30 27994 O 2444.3 -0.24032 2.27233 0
M  V30 27995 C 2444.51 3.21155 1.36602 0
M  V30 27996 C 2445.86 3.83765 1.81685 0
M  V30 27997 O 2446.89 3.24781 1.46273 0
M  V30 27998 O 2445.75 4.87449 2.47095 0
M  V30 27999 H 2442.84 0.720884 0.405284 0
M  V30 28000 H 2445.39 1.69413 0.0986487 0
M  V30 28001 H 2444.16 3.87297 0.558289 0
M  V30 28002 H 2443.78 3.32324 2.18281 0
M  V30 28003 N 2444.78 -0.38549 1.52813 0
M  V30 28004 C 2446.05 -1.14462 1.58612 0
M  V30 28005 C 2446.43 -2.07625 0.381438 0
M  V30 28006 O 2445.78 -2.19645 -0.62996 0
M  V30 28007 C 2445.99 -1.90123 2.92668 0
M  V30 28008 C 2447.34 -2.45361 3.4653 0
M  V30 28009 O 2448.36 -2.00275 2.94565 0
M  V30 28010 O 2447.22 -3.27728 4.37329 0
M  V30 28011 H 2444.32 -0.52393 0.639865 0
M  V30 28012 H 2446.86 -0.39036 1.65149 0
M  V30 28013 H 2445.64 -1.22015 3.7179 0
M  V30 28014 H 2445.26 -2.72502 2.89531 0
M  V30 28015 N 2446.26 -1.43835 -0.644143 0
M  V30 28016 C 2447.19 -1.52512 -1.76812 0
M  V30 28017 C 2448.17 -0.379081 -1.65822 0
M  V30 28018 O 2449.35 -0.597498 -1.8478 0
M  V30 28019 C 2446.48 -1.45645 -3.15285 0
M  V30 28020 C 2445.44 -2.58592 -3.41049 0
M  V30 28021 C 2444.76 -2.36778 -4.79417 0
M  V30 28022 C 2446.06 -4.00803 -3.34895 0
M  V30 28023 H 2447.76 -2.46588 -1.69807 0
M  V30 28024 H 2445.3 -1.18681 -0.815521 0
M  V30 28025 H 2447.25 -1.50318 -3.93678 0
M  V30 28026 H 2445.98 -0.480781 -3.23042 0
M  V30 28027 H 2444.64 -2.53287 -2.65031 0
M  V30 28028 H 2444.29 -1.37433 -4.83861 0
M  V30 28029 H 2443.99 -3.12496 -4.97614 0
M  V30 28030 H 2445.51 -2.43248 -5.60056 0
M  V30 28031 H 2446.92 -4.07546 -4.03211 0
M  V30 28032 H 2445.32 -4.76619 -3.64628 0
M  V30 28033 H 2446.39 -4.25295 -2.32921 0
M  V30 28034 N 2447.73 0.883355 -1.30517 0
M  V30 28035 C 2448.98 1.63003 -1.18798 0
M  V30 28036 C 2449.3 1.93919 0.255889 0
M  V30 28037 O 2450.5 2.66957 0.494607 0
M  V30 28038 C 2448.96 2.9379 -2.07883 0
M  V30 28039 C 2448.57 2.70408 -3.57188 0
M  V30 28040 C 2450.31 3.71757 -2.04931 0
M  V30 28041 C 2448.22 3.97022 -4.38324 0
M  V30 28042 H 2447.15 0.611554 -0.441042 0
M  V30 28043 H 2449.8 0.977826 -1.55277 0
M  V30 28044 H 2448.18 3.60313 -1.64289 0
M  V30 28045 H 2449.35 2.12377 -4.08941 0
M  V30 28046 H 2447.67 2.05814 -3.6198 0
M  V30 28047 H 2450.27 4.65661 -2.628 0
M  V30 28048 H 2450.61 4.03276 -1.03317 0
M  V30 28049 H 2451.14 3.121 -2.46654 0
M  V30 28050 H 2447.88 3.70661 -5.40639 0
M  V30 28051 H 2447.4 4.54552 -3.91334 0
M  V30 28052 H 2449.08 4.65028 -4.49842 0
M  V30 28053 N 2449.21 1.13259 1.09591 0
M  V30 28054 C 2450.62 0.906302 1.63227 0
M  V30 28055 C 2450.97 -0.557545 1.88111 0
M  V30 28056 O 2450.1 -1.42388 1.62956 0
M  V30 28057 C 2450.69 1.63872 2.96532 0
M  V30 28058 C 2449.25 1.45834 3.47001 0
M  V30 28059 C 2448.4 1.66902 2.21447 0
M  V30 28060 H 2451.35 1.28613 0.929757 0
M  V30 28061 H 2451.37 1.09482 3.64409 0
M  V30 28062 H 2450.88 2.70409 2.78389 0
M  V30 28063 H 2448.98 0.415913 3.70271 0
M  V30 28064 H 2449.1 2.22027 4.24548 0
M  V30 28065 H 2447.46 1.09375 2.3002 0
M  V30 28066 H 2448.24 2.74756 2.05826 0
M  V30 28067 N 2450.69 -1.27539 0.925834 0
M  V30 28068 C 2451.64 -2.26908 0.422085 0
M  V30 28069 C 2452.61 -1.58077 -0.510001 0
M  V30 28070 O 2453.79 -1.85902 -0.429566 0
M  V30 28071 C 2450.93 -3.43606 -0.320776 0
M  V30 28072 C 2450.04 -4.27155 0.645205 0
M  V30 28073 C 2449.18 -5.3107 -0.117312 0
M  V30 28074 C 2448.22 -6.06288 0.841498 0
M  V30 28075 N 2447.36 -7.02011 0.111727 0
M  V30 28076 H 2452.2 -2.69373 1.27446 0
M  V30 28077 H 2449.73 -1.32461 0.63972 0
M  V30 28078 H 2451.69 -4.10074 -0.767778 0
M  V30 28079 H 2450.32 -3.02098 -1.1374 0
M  V30 28080 H 2449.37 -3.60618 1.21073 0
M  V30 28081 H 2450.68 -4.79386 1.37805 0
M  V30 28082 H 2449.84 -6.03479 -0.624316 0
M  V30 28083 H 2448.58 -4.79637 -0.883135 0
M  V30 28084 H 2447.58 -5.3272 1.35977 0
M  V30 28085 H 2448.81 -6.59811 1.60707 0
M  V30 28086 H 2446.75 -6.52911 -0.635884 0
M  V30 28087 H 2446.67 -7.51922 0.784176 0
M  V30 28088 H 2447.94 -7.78599 -0.374686 0
M  V30 28089 N 2452.17 -0.691135 -1.41637 0
M  V30 28090 C 2453.4 -0.229127 -2.05627 0
M  V30 28091 C 2453.81 1.11996 -1.51994 0
M  V30 28092 O 2453.17 1.699 -0.666352 0
M  V30 28093 C 2453.22 -0.173346 -3.61084 0
M  V30 28094 O 2452.94 -1.46914 -4.12732 0
M  V30 28095 C 2454.44 0.310188 -4.42213 0
M  V30 28096 H 2451.66 -0.107545 -0.662325 0
M  V30 28097 H 2454.2 -0.94247 -1.81488 0
M  V30 28098 H 2452.36 0.490791 -3.84279 0
M  V30 28099 H 2452.77 -1.3533 -5.0674 0
M  V30 28100 H 2454.25 0.298099 -5.51194 0
M  V30 28101 H 2454.72 1.3483 -4.17992 0
M  V30 28102 H 2455.33 -0.322791 -4.24073 0
M  V30 28103 N 2453.65 1.51461 -0.435577 0
M  V30 28104 C 2454.89 2.02372 0.131673 0
M  V30 28105 C 2455.22 1.31922 1.42514 0
M  V30 28106 O 2454.5 0.433606 1.89605 0
M  V30 28107 C 2454.78 3.58373 0.352238 0
M  V30 28108 C 2454.64 4.39441 -0.959754 0
M  V30 28109 C 2455.95 4.25537 1.12279 0
M  V30 28110 H 2453.07 0.735539 0.0463807 0
M  V30 28111 H 2455.72 1.81115 -0.574229 0
M  V30 28112 H 2453.87 3.76616 0.953534 0
M  V30 28113 H 2455.54 4.32852 -1.5949 0
M  V30 28114 H 2453.78 4.04596 -1.56475 0
M  V30 28115 H 2454.45 5.4675 -0.75949 0
M  V30 28116 H 2456.93 4.11553 0.613473 0
M  V30 28117 H 2455.8 5.34574 1.24588 0
M  V30 28118 H 2456.06 3.86277 2.15041 0
M  V30 28119 N 2455.12 0.166873 1.56714 0
M  V30 28120 C 2456.03 -0.777752 2.21333 0
M  V30 28121 C 2457.05 -1.25656 1.20361 0
M  V30 28122 O 2458.23 -1.30961 1.53007 0
M  V30 28123 C 2455.29 -1.99158 2.83791 0
M  V30 28124 C 2454.35 -1.56009 3.9995 0
M  V30 28125 C 2453.59 -2.71605 4.5942 0
M  V30 28126 O 2453.81 -3.88355 4.17776 0
M  V30 28127 O 2452.74 -2.45935 5.49363 0
M  V30 28128 H 2456.57 -0.257583 3.02606 0
M  V30 28129 H 2454.15 -0.061113 1.49275 0
M  V30 28130 H 2456.04 -2.70155 3.2341 0
M  V30 28131 H 2454.71 -2.50089 2.05517 0
M  V30 28132 H 2453.62 -0.819745 3.65008 0
M  V30 28133 H 2454.95 -1.09773 4.79803 0
M  V30 28134 N 2456.6 -1.57237 -0.106866 0
M  V30 28135 C 2457.51 -2.04532 -1.14907 0
M  V30 28136 C 2458.53 -0.967975 -1.4459 0
M  V30 28137 O 2459.7 -1.28033 -1.55465 0
M  V30 28138 C 2456.77 -2.4504 -2.45267 0
M  V30 28139 C 2455.83 -3.66914 -2.22873 0
M  V30 28140 C 2455.06 -4.05481 -3.47017 0
M  V30 28141 O 2455.29 -3.4426 -4.54798 0
M  V30 28142 O 2454.22 -4.9851 -3.37301 0
M  V30 28143 H 2458.05 -2.93581 -0.777409 0
M  V30 28144 H 2455.63 -1.45965 -0.318538 0
M  V30 28145 H 2457.51 -2.71775 -3.2205 0
M  V30 28146 H 2456.19 -1.59134 -2.81883 0
M  V30 28147 H 2455.1 -3.45313 -1.43909 0
M  V30 28148 H 2456.43 -4.53564 -1.91155 0
M  V30 28149 N 2458.08 0.377381 -1.53015 0
M  V30 28150 C 2459.03 1.46165 -1.78618 0
M  V30 28151 C 2460 1.53691 -0.629944 0
M  V30 28152 O 2461.18 1.69765 -0.870891 0
M  V30 28153 C 2458.32 2.83257 -1.97128 0
M  V30 28154 C 2457.44 2.84791 -3.24836 0
M  V30 28155 C 2456.57 4.13383 -3.33598 0
M  V30 28156 C 2455.61 4.09013 -4.55384 0
M  V30 28157 N 2454.75 5.29233 -4.61364 0
M  V30 28158 H 2459.59 1.23632 -2.71144 0
M  V30 28159 H 2457.12 0.599553 -1.34327 0
M  V30 28160 H 2459.08 3.62882 -2.05846 0
M  V30 28161 H 2457.71 3.04214 -1.07951 0
M  V30 28162 H 2456.76 1.97468 -3.25132 0
M  V30 28163 H 2458.08 2.77432 -4.14527 0
M  V30 28164 H 2457.23 5.01418 -3.41562 0
M  V30 28165 H 2455.97 4.23479 -2.41902 0
M  V30 28166 H 2454.97 3.19366 -4.47533 0
M  V30 28167 H 2456.2 4.00529 -5.48409 0
M  V30 28168 H 2454.14 5.39937 -3.72564 0
M  V30 28169 H 2454.06 5.23996 -5.44944 0
M  V30 28170 H 2455.33 6.19133 -4.73597 0
M  V30 28171 N 2459.56 1.44175 0.636506 0
M  V30 28172 C 2460.49 1.53447 1.76 0
M  V30 28173 C 2461.47 0.38787 1.65619 0
M  V30 28174 O 2462.65 0.607289 1.8446 0
M  V30 28175 C 2459.78 1.47315 3.14508 0
M  V30 28176 C 2458.74 2.60397 3.39673 0
M  V30 28177 C 2458.06 2.39317 4.78154 0
M  V30 28178 C 2459.36 4.02573 3.32765 0
M  V30 28179 H 2461.06 2.47486 1.68497 0
M  V30 28180 H 2458.6 1.19112 0.809216 0
M  V30 28181 H 2460.56 1.52404 3.92875 0
M  V30 28182 H 2459.28 0.497906 3.22782 0
M  V30 28183 H 2457.94 2.54689 2.63684 0
M  V30 28184 H 2457.59 1.39997 4.83125 0
M  V30 28185 H 2457.29 3.1513 4.9595 0
M  V30 28186 H 2458.81 2.46215 5.58758 0
M  V30 28187 H 2460.23 4.09679 4.01044 0
M  V30 28188 H 2458.62 4.78547 3.62096 0
M  V30 28189 H 2459.69 4.26524 2.30662 0
M  V30 28190 N 2461.04 -0.876421 1.30983 0
M  V30 28191 C 2461.98 -1.98302 1.18089 0
M  V30 28192 C 2462.95 -1.6596 0.0682555 0
M  V30 28193 O 2464.14 -1.89285 0.23997 0
M  V30 28194 C 2461.28 -3.33492 0.887534 0
M  V30 28195 C 2460.39 -3.78471 2.08288 0
M  V30 28196 C 2459.53 -5.02347 1.72687 0
M  V30 28197 C 2458.57 -5.39757 2.88666 0
M  V30 28198 N 2457.7 -6.54814 2.53304 0
M  V30 28199 H 2462.54 -2.08663 2.12753 0
M  V30 28200 H 2460.08 -1.02157 1.05841 0
M  V30 28201 H 2462.04 -4.11319 0.698034 0
M  V30 28202 H 2460.67 -3.22792 -0.0222583 0
M  V30 28203 H 2459.72 -2.9648 2.38335 0
M  V30 28204 H 2461.03 -4.0213 2.95115 0
M  V30 28205 H 2460.19 -5.87823 1.50161 0
M  V30 28206 H 2458.92 -4.80578 0.830411 0
M  V30 28207 H 2457.93 -4.52804 3.11848 0
M  V30 28208 H 2459.15 -5.63495 3.79012 0
M  V30 28209 H 2457.1 -6.34604 1.66174 0
M  V30 28210 H 2457.02 -6.78385 3.33662 0
M  V30 28211 H 2458.29 -7.43499 2.34156 0
M  V30 28212 N 2462.51 -1.13839 -1.08989 0
M  V30 28213 C 2463.42 -0.833371 -2.19299 0
M  V30 28214 C 2464.44 0.183816 -1.73026 0
M  V30 28215 O 2465.62 0.0137738 -2.01395 0
M  V30 28216 C 2462.68 -0.308711 -3.45323 0
M  V30 28217 C 2461.74 -1.38771 -4.06253 0
M  V30 28218 C 2460.98 -0.887989 -5.26261 0
M  V30 28219 O 2461.2 0.27277 -5.69747 0
M  V30 28220 O 2460.13 -1.66432 -5.78432 0
M  V30 28221 H 2463.96 -1.7551 -2.47851 0
M  V30 28222 H 2461.54 -0.916186 -1.1801 0
M  V30 28223 H 2463.43 -0.0217479 -4.21394 0
M  V30 28224 H 2462.1 0.585375 -3.18363 0
M  V30 28225 H 2461.01 -1.72805 -3.31797 0
M  V30 28226 H 2462.34 -2.2561 -4.37448 0
M  V30 28227 N 2463.99 1.27046 -0.932584 0
M  V30 28228 C 2464.9 2.30413 -0.441259 0
M  V30 28229 C 2465.92 1.67234 0.480496 0
M  V30 28230 O 2467.09 1.98118 0.362116 0
M  V30 28231 C 2464.16 3.45455 0.29359 0
M  V30 28232 C 2463.22 4.24139 -0.663675 0
M  V30 28233 C 2462.45 5.33688 0.0361994 0
M  V30 28234 O 2462.68 5.56429 1.2547 0
M  V30 28235 O 2461.61 5.98508 -0.63812 0
M  V30 28236 H 2465.44 2.74486 -1.29967 0
M  V30 28237 H 2463.02 1.32086 -0.698124 0
M  V30 28238 H 2464.9 4.15412 0.707878 0
M  V30 28239 H 2463.58 3.03428 1.12753 0
M  V30 28240 H 2462.49 3.56697 -1.12774 0
M  V30 28241 H 2463.82 4.69893 -1.46497 0
M  V30 28242 N 2465.47 0.698636 1.41269 0
M  V30 28243 C 2466.38 0.0358304 2.34573 0
M  V30 28244 C 2467.4 -0.762673 1.56395 0
M  V30 28245 O 2468.57 -0.69953 1.88861 0
M  V30 28246 C 2465.64 -0.887031 3.35161 0
M  V30 28247 C 2464.7 -0.0803879 4.29225 0
M  V30 28248 C 2463.93 -0.959295 5.25008 0
M  V30 28249 O 2464.15 -2.19877 5.26318 0
M  V30 28250 O 2463.09 -0.407334 6.0052 0
M  V30 28251 H 2466.91 0.805009 2.92837 0
M  V30 28252 H 2464.5 0.458991 1.42175 0
M  V30 28253 H 2466.38 -1.41614 3.96892 0
M  V30 28254 H 2465.06 -1.63565 2.79335 0
M  V30 28255 H 2463.96 0.493394 3.70832 0
M  V30 28256 H 2465.3 0.629632 4.88156 0
M  V30 28257 N 2466.95 -1.51228 0.443603 0
M  V30 28258 C 2467.86 -2.31653 -0.37068 0
M  V30 28259 C 2468.87 -1.40835 -1.02183 0
M  V30 28260 O 2470.05 -1.73905 -1.01583 0
M  V30 28261 C 2467.12 -3.14751 -1.4537 0
M  V30 28262 C 2466.18 -4.21356 -0.822025 0
M  V30 28263 C 2465.41 -5.00483 -1.85344 0
M  V30 28264 O 2465.63 -4.80322 -3.07648 0
M  V30 28265 O 2464.57 -5.84409 -1.44049 0
M  V30 28266 H 2468.39 -3.0235 0.286055 0
M  V30 28267 H 2465.98 -1.47973 0.206006 0
M  V30 28268 H 2467.86 -3.66394 -2.08166 0
M  V30 28269 H 2466.53 -2.46812 -2.09441 0
M  V30 28270 H 2465.44 -3.73775 -0.155843 0
M  V30 28271 H 2466.77 -4.91687 -0.22471 0
M  V30 28272 N 2468.43 -0.175182 -1.56623 0
M  V30 28273 C 2469.38 0.765966 -2.14749 0
M  V30 28274 C 2470.36 1.19017 -1.08277 0
M  V30 28275 O 2471.55 1.15188 -1.3439 0
M  V30 28276 C 2468.68 1.99361 -2.79481 0
M  V30 28277 C 2467.77 1.59123 -3.93117 0
M  V30 28278 N 2468.16 0.898633 -4.97753 0
M  V30 28279 C 2466.46 1.88197 -4.04349 0
M  V30 28280 C 2467.16 0.699911 -5.77474 0
M  V30 28281 N 2466.13 1.24253 -5.29209 0
M  V30 28282 H 2469.94 0.227878 -2.93015 0
M  V30 28283 H 2467.45 0.0253558 -1.6238 0
M  V30 28284 H 2469.45 2.67813 -3.19503 0
M  V30 28285 H 2468.11 2.53661 -2.02697 0
M  V30 28286 H 2469.12 0.556257 -5.14904 0
M  V30 28287 H 2465.79 2.44147 -3.38671 0
M  V30 28288 H 2467.18 0.151929 -6.71728 0
M  V30 28289 N 2469.91 1.57292 0.0985263 0
M  V30 28290 C 2471.18 1.76923 0.834124 0
M  V30 28291 C 2471.56 0.755962 1.971 0
M  V30 28292 O 2470.91 -0.216205 2.27475 0
M  V30 28293 C 2471.12 3.22586 1.33188 0
M  V30 28294 C 2472.47 3.85671 1.77604 0
M  V30 28295 O 2473.49 3.26314 1.4282 0
M  V30 28296 O 2472.35 4.90042 2.41911 0
M  V30 28297 H 2469.45 0.725142 0.397615 0
M  V30 28298 H 2471.99 1.69508 0.0806746 0
M  V30 28299 H 2470.76 3.87867 0.51718 0
M  V30 28300 H 2470.39 3.3462 2.14744 0
M  V30 28301 N 2471.38 -0.369261 1.53213 0
M  V30 28302 C 2472.63 -1.10958 1.68438 0
M  V30 28303 C 2472.95 -1.90569 0.440771 0
M  V30 28304 O 2474.15 -2.67339 0.473493 0
M  V30 28305 C 2472.61 -2.02174 2.97747 0
M  V30 28306 C 2472.22 -1.27892 4.29357 0
M  V30 28307 C 2473.96 -2.76221 3.22339 0
M  V30 28308 C 2471.87 -2.17989 5.49759 0
M  V30 28309 H 2470.8 -0.417929 0.627576 0
M  V30 28310 H 2473.45 -0.370853 1.79713 0
M  V30 28311 H 2471.83 -2.79763 2.80265 0
M  V30 28312 H 2473 -0.553926 4.57459 0
M  V30 28313 H 2471.32 -0.657239 4.1118 0
M  V30 28314 H 2473.92 -3.4385 4.09477 0
M  V30 28315 H 2474.26 -3.41387 2.38244 0
M  V30 28316 H 2474.79 -2.05717 3.40478 0
M  V30 28317 H 2471.53 -1.57406 6.3632 0
M  V30 28318 H 2471.05 -2.88349 5.25942 0
M  V30 28319 H 2472.73 -2.77631 5.84406 0
M  V30 28320 N 2472.86 -1.4451 -0.628851 0
M  V30 28321 C 2473.81 -1.51552 -1.74071 0
M  V30 28322 C 2474.78 -0.363049 -1.62084 0
M  V30 28323 O 2475.96 -0.573599 -1.81974 0
M  V30 28324 C 2473.1 -1.46789 -3.12325 0
M  V30 28325 C 2472.22 -2.72428 -3.35272 0
M  V30 28326 C 2471.35 -2.59483 -4.63511 0
M  V30 28327 C 2470.39 -3.80274 -4.79644 0
M  V30 28328 N 2469.53 -3.65991 -5.99162 0
M  V30 28329 H 2474.37 -2.46547 -1.67388 0
M  V30 28330 H 2471.9 -1.22359 -0.816505 0
M  V30 28331 H 2473.86 -1.42019 -3.92284 0
M  V30 28332 H 2472.49 -0.5536 -3.18017 0
M  V30 28333 H 2471.54 -2.87376 -2.49237 0
M  V30 28334 H 2472.86 -3.62082 -3.43071 0
M  V30 28335 H 2472.01 -2.52558 -5.51633 0
M  V30 28336 H 2470.75 -1.67392 -4.58073 0
M  V30 28337 H 2469.75 -3.87581 -3.8995 0
M  V30 28338 H 2470.98 -4.73404 -4.86894 0
M  V30 28339 H 2468.93 -2.76654 -5.9481 0
M  V30 28340 H 2468.84 -4.49264 -6.08028 0
M  V30 28341 H 2470.11 -3.62962 -6.8984 0
M  V30 28342 N 2474.34 0.869463 -1.31446 0
M  V30 28343 C 2475.59 1.61734 -1.2052 0
M  V30 28344 C 2475.9 1.94179 0.235307 0
M  V30 28345 O 2477.11 2.67466 0.466265 0
M  V30 28346 C 2475.56 2.91569 -2.10987 0
M  V30 28347 C 2475.17 2.66604 -3.60036 0
M  V30 28348 C 2476.92 3.69563 -2.08862 0
M  V30 28349 C 2474.82 3.9235 -4.4251 0
M  V30 28350 H 2473.75 0.606842 -0.447503 0
M  V30 28351 H 2476.4 0.961302 -1.56305 0
M  V30 28352 H 2474.79 3.5855 -1.68101 0
M  V30 28353 H 2475.96 2.08028 -4.1117 0
M  V30 28354 H 2474.27 2.01963 -3.64143 0
M  V30 28355 H 2476.87 4.62847 -2.67725 0
M  V30 28356 H 2477.21 4.02157 -1.07589 0
M  V30 28357 H 2477.75 3.09466 -2.49951 0
M  V30 28358 H 2474.49 3.64906 -5.4454 0
M  V30 28359 H 2474.01 4.50376 -3.96133 0
M  V30 28360 H 2475.69 4.6023 -4.54749 0
M  V30 28361 N 2475.82 1.14415 1.08383 0
M  V30 28362 C 2477.06 0.913865 1.81042 0
M  V30 28363 C 2477.4 -0.558177 1.86005 0
M  V30 28364 O 2476.67 -1.41347 1.33609 0
M  V30 28365 C 2476.95 1.51575 3.26645 0
M  V30 28366 C 2476.81 3.05766 3.2989 0
M  V30 28367 C 2478.13 1.19281 4.23627 0
M  V30 28368 H 2475.25 0.333425 0.657265 0
M  V30 28369 H 2477.89 1.41414 1.26894 0
M  V30 28370 H 2476.04 1.0903 3.72887 0
M  V30 28371 H 2477.71 3.57143 2.91971 0
M  V30 28372 H 2475.95 3.40202 2.69157 0
M  V30 28373 H 2476.62 3.42985 4.3251 0
M  V30 28374 H 2479.1 1.56063 3.85725 0
M  V30 28375 H 2477.98 1.64027 5.23819 0
M  V30 28376 H 2478.24 0.108145 4.41968 0
M  V30 28377 N 2477.3 -1.26549 0.939309 0
M  V30 28378 C 2478.21 -2.30176 0.453473 0
M  V30 28379 C 2479.22 -1.67487 -0.47162 0
M  V30 28380 O 2480.4 -1.98307 -0.351605 0
M  V30 28381 C 2477.46 -3.45606 -0.275265 0
M  V30 28382 C 2476.52 -4.23781 0.686159 0
M  V30 28383 C 2475.76 -5.33699 -0.00789613 0
M  V30 28384 O 2475.98 -5.57087 -1.22518 0
M  V30 28385 O 2474.91 -5.98161 0.669851 0
M  V30 28386 H 2478.74 -2.73792 1.31421 0
M  V30 28387 H 2476.32 -1.31713 0.705119 0
M  V30 28388 H 2478.21 -4.15781 -0.685838 0
M  V30 28389 H 2476.88 -3.04022 -1.11142 0
M  V30 28390 H 2475.79 -3.56094 1.14664 0
M  V30 28391 H 2477.12 -4.69109 1.48987 0
M  V30 28392 N 2478.77 -0.706118 -1.40896 0
M  V30 28393 C 2479.72 -0.0362302 -2.32572 0
M  V30 28394 C 2480.72 0.75724 -1.51533 0
M  V30 28395 O 2481.92 0.661674 -1.67397 0
M  V30 28396 H 2478.3 0.00708613 -0.751967 0
M  V30 28397 H 2480.27 -0.826299 -2.86731 0
M  V30 28398 C 2479.02 0.878481 -3.36419 0
M  V30 28399 H 2478.34 0.277331 -3.98837 0
M  V30 28400 H 2479.78 1.31533 -4.03082 0
M  V30 28401 C 2478.24 1.99956 -2.71144 0
M  V30 28402 O 2478.77 3.08945 -2.56741 0
M  V30 28403 N 2476.97 1.78039 -2.29674 0
M  V30 28404 H 2476.52 0.893999 -2.41589 0
M  V30 28405 H 2476.48 2.53231 -1.86336 0
M  V30 28406 N 2480.25 1.50991 -0.451617 0
M  V30 28407 C 2481.5 2.01391 0.111618 0
M  V30 28408 C 2481.81 1.33961 1.42526 0
M  V30 28409 O 2483.02 1.75409 2.07229 0
M  V30 28410 C 2481.48 3.59034 0.249451 0
M  V30 28411 C 2481.08 4.3541 -1.05461 0
M  V30 28412 C 2482.83 4.17537 0.765688 0
M  V30 28413 C 2480.73 5.84792 -0.881632 0
M  V30 28414 H 2479.66 0.752627 0.045489 0
M  V30 28415 H 2482.32 1.73974 -0.583554 0
M  V30 28416 H 2480.7 3.82957 1.00796 0
M  V30 28417 H 2481.87 4.23225 -1.82255 0
M  V30 28418 H 2480.19 3.88427 -1.50046 0
M  V30 28419 H 2482.78 5.26868 0.91182 0
M  V30 28420 H 2483.13 3.77641 1.75194 0
M  V30 28421 H 2483.66 3.97747 0.0651044 0
M  V30 28422 H 2480.4 6.29126 -1.84068 0
M  V30 28423 H 2479.92 5.99603 -0.153731 0
M  V30 28424 H 2481.6 6.44739 -0.540476 0
M  V30 28425 N 2481.73 0.183486 1.56528 0
M  V30 28426 C 2482.66 -0.737417 2.2155 0
M  V30 28427 C 2483.64 -1.23003 1.17492 0
M  V30 28428 O 2484.83 -1.28098 1.45961 0
M  V30 28429 C 2481.96 -1.96189 2.86578 0
M  V30 28430 C 2480.91 -1.60466 3.9678 0
M  V30 28431 C 2480.24 -2.90479 4.48917 0
M  V30 28432 C 2481.54 -0.823406 5.15769 0
M  V30 28433 H 2483.23 -0.195401 2.98762 0
M  V30 28434 H 2480.78 -0.0925433 1.43702 0
M  V30 28435 H 2482.73 -2.61125 3.30744 0
M  V30 28436 H 2481.45 -2.52825 2.06754 0
M  V30 28437 H 2480.11 -0.978935 3.53288 0
M  V30 28438 H 2479.76 -3.4518 3.65869 0
M  V30 28439 H 2479.46 -2.67326 5.23269 0
M  V30 28440 H 2480.98 -3.56423 4.95777 0
M  V30 28441 H 2482.4 -1.37561 5.56552 0
M  V30 28442 H 2480.79 -0.690446 5.96115 0
M  V30 28443 H 2481.86 0.177867 4.84574 0
M  V30 28444 N 2483.21 -1.57342 -0.0901833 0
M  V30 28445 C 2484.43 -1.90927 -0.810049 0
M  V30 28446 C 2484.86 -0.778217 -1.71247 0
M  V30 28447 O 2484.22 0.269959 -1.79279 0
M  V30 28448 C 2484.26 -3.23396 -1.59523 0
M  V30 28449 O 2483.37 -3.11332 -2.70456 0
M  V30 28450 H 2482.71 -0.625711 -0.22222 0
M  V30 28451 H 2485.24 -2.045 -0.0639357 0
M  V30 28452 H 2485.25 -3.56823 -1.97841 0
M  V30 28453 H 2483.92 -4.053 -0.932983 0
M  V30 28454 H 2482.5 -2.89428 -2.3513 0
M  V30 28455 N 2484.69 0.36113 -1.53407 0
M  V30 28456 C 2485.6 1.46637 -1.83125 0
M  V30 28457 C 2486.61 1.58406 -0.719971 0
M  V30 28458 O 2487.79 1.74216 -1.01049 0
M  V30 28459 C 2484.85 2.81849 -2.01896 0
M  V30 28460 C 2483.91 2.79571 -3.25789 0
M  V30 28461 C 2483.15 4.08334 -3.43655 0
M  V30 28462 O 2483.37 5.04725 -2.65723 0
M  V30 28463 O 2482.3 4.13875 -4.37025 0
M  V30 28464 H 2486.13 1.24446 -2.77032 0
M  V30 28465 H 2483.72 0.551654 -1.38842 0
M  V30 28466 H 2485.6 3.61958 -2.15788 0
M  V30 28467 H 2484.27 3.04008 -1.11178 0
M  V30 28468 H 2483.18 1.98145 -3.17316 0
M  V30 28469 H 2484.51 2.62366 -4.16443 0
M  V30 28470 N 2486.16 1.44842 0.621179 0
M  V30 28471 C 2487.44 1.38622 1.37998 0
M  V30 28472 C 2487.82 0.0499306 2.11041 0
M  V30 28473 O 2487.17 -0.96778 2.06993 0
M  V30 28474 C 2487.38 2.591 2.33813 0
M  V30 28475 C 2488.73 3.03598 2.96839 0
M  V30 28476 O 2489.75 2.59376 2.44137 0
M  V30 28477 O 2488.61 3.80302 3.92469 0
M  V30 28478 H 2485.7 0.549437 0.618101 0
M  V30 28479 H 2488.25 1.56948 0.645402 0
M  V30 28480 H 2487.02 3.47955 1.79006 0
M  V30 28481 H 2486.65 2.43038 3.14672 0
M  V30 28482 N 2487.64 -0.862479 1.31905 0
M  V30 28483 C 2488.89 -1.61092 1.21376 0
M  V30 28484 C 2489.2 -1.94302 -0.225006 0
M  V30 28485 O 2490.41 -2.6771 -0.452074 0
M  V30 28486 C 2488.87 -2.90446 2.1253 0
M  V30 28487 C 2488.47 -2.64691 3.61445 0
M  V30 28488 C 2490.22 -3.6845 2.10819 0
M  V30 28489 C 2488.13 -3.89998 4.44585 0
M  V30 28490 H 2487.06 -0.60446 0.450715 0
M  V30 28491 H 2489.71 -0.953 1.56813 0
M  V30 28492 H 2488.09 -3.57653 1.7 0
M  V30 28493 H 2489.26 -2.05844 4.12268 0
M  V30 28494 H 2487.58 -2.00029 3.65209 0
M  V30 28495 H 2490.17 -4.61421 2.70175 0
M  V30 28496 H 2490.52 -4.01581 1.0972 0
M  V30 28497 H 2491.05 -3.08137 2.51588 0
M  V30 28498 H 2487.79 -3.62013 5.46467 0
M  V30 28499 H 2487.31 -4.48269 3.98516 0
M  V30 28500 H 2488.99 -4.57812 4.57184 0
M  V30 28501 N 2489.12 -1.14988 -1.07775 0
M  V30 28502 C 2490.37 -0.922088 -1.80288 0
M  V30 28503 C 2490.7 0.551017 -1.86532 0
M  V30 28504 O 2489.95 1.42447 -1.34191 0
M  V30 28505 C 2490.25 -1.47613 -3.25492 0
M  V30 28506 C 2489.92 -2.96898 -3.39355 0
M  V30 28507 C 2488.58 -3.37653 -3.42846 0
M  V30 28508 C 2490.93 -3.9286 -3.42506 0
M  V30 28509 C 2488.26 -4.73021 -3.47086 0
M  V30 28510 C 2490.61 -5.28094 -3.48281 0
M  V30 28511 C 2489.27 -5.68351 -3.50048 0
M  V30 28512 H 2488.54 -0.337416 -0.659721 0
M  V30 28513 H 2491.19 -1.43461 -1.26851 0
M  V30 28514 H 2489.5 -0.884697 -3.81681 0
M  V30 28515 H 2491.19 -1.27574 -3.80165 0
M  V30 28516 H 2487.78 -2.64393 -3.37334 0
M  V30 28517 H 2491.97 -3.6245 -3.39033 0
M  V30 28518 H 2487.22 -5.03562 -3.46749 0
M  V30 28519 H 2491.4 -6.02252 -3.49665 0
M  V30 28520 H 2489.02 -6.73227 -3.53085 0
M  V30 28521 N 2490.6 1.26049 -0.946007 0
M  V30 28522 C 2491.88 1.8873 -0.513849 0
M  V30 28523 C 2492.26 1.85442 1.00869 0
M  V30 28524 O 2491.6 1.31203 1.87077 0
M  V30 28525 C 2491.81 3.31847 -1.08067 0
M  V30 28526 C 2493.16 4.08666 -1.15227 0
M  V30 28527 O 2494.19 3.40935 -1.03161 0
M  V30 28528 O 2493.04 5.29804 -1.34054 0
M  V30 28529 H 2490.14 0.809713 -0.168207 0
M  V30 28530 H 2492.68 1.34184 -1.03888 0
M  V30 28531 H 2491.46 3.28626 -2.12416 0
M  V30 28532 H 2491.08 3.93938 -0.538376 0
M  V30 28533 N 2492.08 0.71358 1.4052 0
M  V30 28534 C 2493.32 0.252225 2.00923 0
M  V30 28535 C 2493.65 -1.15392 1.56573 0
M  V30 28536 O 2492.91 -1.79661 0.775906 0
M  V30 28537 C 2493.21 0.278062 3.56317 0
M  V30 28538 C 2492.87 1.63422 4.20243 0
M  V30 28539 C 2491.53 2.00546 4.37418 0
M  V30 28540 C 2493.89 2.52562 4.55919 0
M  V30 28541 C 2491.21 3.26359 4.87552 0
M  V30 28542 C 2493.57 3.77725 5.07451 0
M  V30 28543 C 2492.23 4.14968 5.22836 0
M  V30 28544 H 2491.5 0.0922958 0.73523 0
M  V30 28545 H 2494.15 0.916217 1.6816 0
M  V30 28546 H 2492.45 -0.469499 3.88977 0
M  V30 28547 H 2494.15 -0.0967115 4.00883 0
M  V30 28548 H 2490.74 1.33553 4.07261 0
M  V30 28549 H 2494.92 2.25157 4.42287 0
M  V30 28550 H 2490.18 3.55185 4.97648 0
M  V30 28551 H 2494.35 4.46969 5.34033 0
M  V30 28552 H 2491.98 5.12526 5.61445 0
M  V30 28553 N 2493.55 -1.50749 0.459618 0
M  V30 28554 C 2494.5 -2.28275 -0.340484 0
M  V30 28555 C 2495.47 -1.32824 -0.997347 0
M  V30 28556 O 2496.66 -1.61751 -1.01199 0
M  V30 28557 C 2493.8 -3.1439 -1.42312 0
M  V30 28558 C 2492.91 -4.2486 -0.782177 0
M  V30 28559 C 2492.04 -4.9825 -1.84174 0
M  V30 28560 C 2491.08 -6.0061 -1.18042 0
M  V30 28561 N 2490.22 -6.67322 -2.18232 0
M  V30 28562 H 2495.06 -2.96201 0.326951 0
M  V30 28563 H 2492.6 -1.46078 0.173083 0
M  V30 28564 H 2494.56 -3.62661 -2.06234 0
M  V30 28565 H 2493.19 -2.48534 -2.05988 0
M  V30 28566 H 2492.24 -3.80388 -0.0306736 0
M  V30 28567 H 2493.55 -4.98124 -0.259576 0
M  V30 28568 H 2492.7 -5.50182 -2.55705 0
M  V30 28569 H 2491.44 -4.24667 -2.39812 0
M  V30 28570 H 2490.45 -5.4795 -0.450679 0
M  V30 28571 H 2491.67 -6.76161 -0.631083 0
M  V30 28572 H 2489.62 -5.96537 -2.72909 0
M  V30 28573 H 2489.54 -7.36424 -1.70925 0
M  V30 28574 H 2490.8 -7.23876 -2.89179 0
M  V30 28575 N 2495.03 -0.191784 -1.56429 0
M  V30 28576 C 2496.31 0.495298 -1.89225 0
M  V30 28577 C 2496.69 1.79881 -1.10481 0
M  V30 28578 O 2496.04 2.2758 -0.204892 0
M  V30 28579 C 2496.25 0.717307 -3.41549 0
M  V30 28580 C 2497.6 1.03816 -4.11713 0
M  V30 28581 O 2498.62 0.805143 -3.46981 0
M  V30 28582 O 2497.48 1.47878 -5.26112 0
M  V30 28583 H 2494.57 0.257796 -0.785793 0
M  V30 28584 H 2497.12 -0.23175 -1.6811 0
M  V30 28585 H 2495.89 -0.203356 -3.90771 0
M  V30 28586 H 2495.51 1.49693 -3.68344 0
M  V30 28587 N 2496.51 1.57387 0.0818378 0
M  V30 28588 C 2497.46 2.02992 1.0983 0
M  V30 28589 C 2498.43 0.908663 1.39041 0
M  V30 28590 O 2499.61 1.17561 1.5028 0
M  V30 28591 C 2496.75 2.47041 2.40966 0
M  V30 28592 C 2495.87 3.72743 2.18372 0
M  V30 28593 C 2495 4.05616 3.43 0
M  V30 28594 C 2494.04 5.24389 3.15726 0
M  V30 28595 N 2493.18 5.52948 4.32657 0
M  V30 28596 H 2498.02 2.89603 0.702421 0
M  V30 28597 H 2495.55 1.43228 0.335285 0
M  V30 28598 H 2497.51 2.70628 3.17516 0
M  V30 28599 H 2496.14 1.63422 2.78376 0
M  V30 28600 H 2495.19 3.56555 1.32562 0
M  V30 28601 H 2496.51 4.59435 1.94219 0
M  V30 28602 H 2495.66 4.3005 4.27951 0
M  V30 28603 H 2494.4 3.17472 3.7022 0
M  V30 28604 H 2493.4 4.99761 2.29171 0
M  V30 28605 H 2494.63 6.14142 2.8984 0
M  V30 28606 H 2492.57 4.67764 4.59927 0
M  V30 28607 H 2492.49 6.34038 4.11742 0
M  V30 28608 H 2493.76 5.81927 5.18634 0
M  V30 28609 N 2497.99 -0.35299 1.53596 0
M  V30 28610 C 2499.21 -1.11901 1.74622 0
M  V30 28611 C 2499.64 -1.81879 0.479753 0
M  V30 28612 O 2499 -1.72205 -0.567035 0
M  V30 28613 C 2499.04 -2.1154 2.92033 0
M  V30 28614 O 2498.15 -3.18874 2.61521 0
M  V30 28615 H 2497.49 -0.324089 0.579537 0
M  V30 28616 H 2500.02 -0.406266 2.00526 0
M  V30 28617 H 2500.03 -2.54925 3.18555 0
M  V30 28618 H 2498.7 -1.60001 3.83891 0
M  V30 28619 H 2497.28 -2.80373 2.45857 0
M  V30 28620 N 2499.47 -1.45169 -0.613489 0
M  V30 28621 C 2500.74 -1.39352 -1.37261 0
M  V30 28622 C 2501.12 -0.0611219 -2.11011 0
M  V30 28623 O 2500.47 0.956789 -2.07504 0
M  V30 28624 C 2500.68 -2.60336 -2.32435 0
M  V30 28625 C 2502.03 -3.05168 -2.95225 0
M  V30 28626 O 2503.05 -2.60667 -2.42758 0
M  V30 28627 O 2501.91 -3.82378 -3.90447 0
M  V30 28628 H 2499.01 -0.552707 -0.615178 0
M  V30 28629 H 2501.55 -1.57288 -0.637069 0
M  V30 28630 H 2500.33 -3.48899 -1.77158 0
M  V30 28631 H 2499.95 -2.44703 -3.13378 0
M  V30 28632 N 2500.95 0.855472 -1.32361 0
M  V30 28633 C 2502.22 1.59307 -1.13494 0
M  V30 28634 C 2502.6 2.08885 0.304993 0
M  V30 28635 O 2501.95 1.87814 1.30147 0
M  V30 28636 C 2502.16 2.73984 -2.16181 0
M  V30 28637 C 2503.51 3.43585 -2.49469 0
M  V30 28638 O 2504.53 2.84207 -2.1472 0
M  V30 28639 O 2503.39 4.50733 -3.09034 0
M  V30 28640 H 2500.49 0.701551 -0.437899 0
M  V30 28641 H 2503.03 0.899671 -1.43889 0
M  V30 28642 H 2501.8 2.34868 -3.12974 0
M  V30 28643 H 2501.43 3.51 -1.86775 0
M  V30 28644 N 2502.42 1.15558 1.07164 0
M  V30 28645 C 2503.7 0.8421 1.76545 0
M  V30 28646 C 2504.08 -0.661904 2.00455 0
M  V30 28647 O 2503.43 -1.60688 1.62455 0
M  V30 28648 C 2503.64 1.65501 3.07263 0
M  V30 28649 C 2504.99 1.86241 3.81575 0
M  V30 28650 O 2506.01 1.62293 3.1708 0
M  V30 28651 O 2504.87 2.26364 4.97415 0
M  V30 28652 H 2501.96 0.309875 0.766751 0
M  V30 28653 H 2504.51 1.26147 1.13512 0
M  V30 28654 H 2503.28 2.67603 2.85489 0
M  V30 28655 H 2502.9 1.2321 3.78028 0
M  V30 28656 N 2503.9 -1.25546 0.952678 0
M  V30 28657 C 2504.83 -2.25156 0.428648 0
M  V30 28658 C 2505.85 -1.5633 -0.4544 0
M  V30 28659 O 2507.04 -1.76552 -0.262992 0
M  V30 28660 C 2504.14 -3.36508 -0.401912 0
M  V30 28661 C 2503.31 -4.34893 0.467678 0
M  V30 28662 C 2502.37 -5.25319 -0.304358 0
M  V30 28663 O 2501.39 -5.68427 0.296573 0
M  V30 28664 N 2502.6 -5.58073 -1.59796 0
M  V30 28665 H 2505.36 -2.70754 1.28501 0
M  V30 28666 H 2502.92 -1.39432 0.822823 0
M  V30 28667 H 2504.91 -3.93962 -0.926065 0
M  V30 28668 H 2503.48 -2.90315 -1.15913 0
M  V30 28669 H 2502.7 -3.76345 1.17295 0
M  V30 28670 H 2503.99 -4.97609 1.06128 0
M  V30 28671 H 2503.39 -5.24952 -2.10813 0
M  V30 28672 H 2501.95 -6.1812 -2.06811 0
M  V30 28673 N 2505.38 -0.721022 -1.40139 0
M  V30 28674 C 2506.6 -0.271295 -2.05618 0
M  V30 28675 C 2507.03 1.08036 -1.5398 0
M  V30 28676 O 2506.39 1.68166 -0.677493 0
M  V30 28677 C 2506.44 -0.26726 -3.59608 0
M  V30 28678 O 2505.54 0.749743 -4.05528 0
M  V30 28679 H 2504.88 -0.126174 -0.651902 0
M  V30 28680 H 2507.41 -0.983029 -1.79437 0
M  V30 28681 H 2507.42 -0.106816 -4.0786 0
M  V30 28682 H 2506.1 -1.25361 -3.96557 0
M  V30 28683 H 2504.67 0.556579 -3.68723 0
M  V30 28684 N 2506.86 1.50503 -0.467606 0
M  V30 28685 C 2508.09 2.0672 0.086377 0
M  V30 28686 C 2508.5 1.33186 1.33817 0
M  V30 28687 O 2507.86 0.400114 1.7806 0
M  V30 28688 C 2507.91 3.59518 0.378016 0
M  V30 28689 O 2507.63 4.30279 -0.82412 0
M  V30 28690 C 2509.13 4.32347 0.97935 0
M  V30 28691 H 2506.35 0.670977 -0.00552876 0
M  V30 28692 H 2508.89 1.93713 -0.655388 0
M  V30 28693 H 2507.05 3.72339 1.06971 0
M  V30 28694 H 2507.46 5.21431 -0.566609 0
M  V30 28695 H 2508.94 5.40243 1.1332 0
M  V30 28696 H 2509.41 3.92614 1.96853 0
M  V30 28697 H 2510.02 4.24048 0.326141 0
M  V30 28698 N 2508.34 0.200077 1.56325 0
M  V30 28699 C 2509.56 -0.442839 2.02105 0
M  V30 28700 C 2509.98 -1.54848 1.08017 0
M  V30 28701 O 2509.34 -1.82298 0.0859117 0
M  V30 28702 C 2509.39 -0.994522 3.47551 0
M  V30 28703 O 2509.11 0.0670092 4.38049 0
M  V30 28704 C 2510.61 -1.71282 4.08873 0
M  V30 28705 H 2507.83 -0.110679 0.661809 0
M  V30 28706 H 2510.37 0.310243 2.02133 0
M  V30 28707 H 2508.53 -1.69797 3.48207 0
M  V30 28708 H 2508.94 -0.34437 5.23368 0
M  V30 28709 H 2510.42 -2.05109 5.12479 0
M  V30 28710 H 2510.89 -2.61831 3.5262 0
M  V30 28711 H 2511.5 -1.05511 4.12004 0
M  V30 28712 N 2509.81 -1.57429 -0.0734901 0
M  V30 28713 C 2510.78 -2.02591 -1.07189 0
M  V30 28714 C 2511.78 -0.922684 -1.31694 0
M  V30 28715 O 2512.97 -1.1876 -1.27443 0
M  V30 28716 C 2510.1 -2.4051 -2.41594 0
M  V30 28717 H 2511.29 -2.92027 -0.682676 0
M  V30 28718 H 2508.84 -1.53007 -0.319167 0
M  V30 28719 H 2509.58 -1.54095 -2.85351 0
M  V30 28720 H 2509.36 -3.21013 -2.25151 0
M  V30 28721 H 2510.85 -2.76033 -3.13362 0
M  V30 28722 N 2511.29 0.344839 -1.53781 0
M  V30 28723 C 2512.57 1.10217 -1.61591 0
M  V30 28724 C 2512.95 2.06541 -0.436352 0
M  V30 28725 O 2512.3 2.21238 0.571504 0
M  V30 28726 C 2512.51 1.82296 -2.97606 0
M  V30 28727 C 2513.85 2.36087 -3.52914 0
M  V30 28728 O 2514.88 1.92394 -2.99771 0
M  V30 28729 O 2513.74 3.16018 -4.45864 0
M  V30 28730 H 2510.83 0.506781 -0.653531 0
M  V30 28731 H 2513.38 0.346436 -1.66126 0
M  V30 28732 H 2512.15 1.12115 -3.74895 0
M  V30 28733 H 2511.77 2.6473 -2.96655 0
M  V30 28734 N 2512.77 1.45492 0.605781 0
M  V30 28735 C 2514.02 1.49825 1.36676 0
M  V30 28736 C 2514.35 0.140209 1.93693 0
M  V30 28737 O 2513.62 -0.84555 1.75159 0
M  V30 28738 C 2513.91 2.57883 2.51333 0
M  V30 28739 C 2513.76 4.03137 1.995 0
M  V30 28740 C 2515.08 2.62212 3.53459 0
M  V30 28741 H 2512.2 0.545475 0.495607 0
M  V30 28742 H 2514.84 1.77311 0.682701 0
M  V30 28743 H 2512.99 2.34577 3.09687 0
M  V30 28744 H 2514.66 4.37659 1.45782 0
M  V30 28745 H 2512.9 4.13709 1.30489 0
M  V30 28746 H 2513.58 4.74436 2.82161 0
M  V30 28747 H 2516.05 2.831 3.04948 0
M  V30 28748 H 2514.93 3.3968 4.31172 0
M  V30 28749 H 2515.19 1.6737 4.09194 0
M  V30 28750 N 2514.25 -0.848441 1.32813 0
M  V30 28751 C 2515.18 -1.97297 1.24885 0
M  V30 28752 C 2516.16 -1.69592 0.131386 0
M  V30 28753 O 2517.34 -1.91552 0.319586 0
M  V30 28754 C 2514.47 -3.33259 0.977518 0
M  V30 28755 C 2513.43 -3.75335 2.05689 0
M  V30 28756 C 2512.75 -5.08997 1.63786 0
M  V30 28757 C 2514.05 -3.90137 3.47261 0
M  V30 28758 H 2515.75 -2.04187 2.1897 0
M  V30 28759 H 2513.29 -0.98101 1.05414 0
M  V30 28760 H 2515.25 -4.11488 0.908585 0
M  V30 28761 H 2513.97 -3.266 0.00103742 0
M  V30 28762 H 2512.63 -2.99362 2.11608 0
M  V30 28763 H 2512.28 -4.988 0.648656 0
M  V30 28764 H 2511.98 -5.3812 2.36009 0
M  V30 28765 H 2513.5 -5.89712 1.58341 0
M  V30 28766 H 2514.92 -4.58703 3.43896 0
M  V30 28767 H 2513.31 -4.30685 4.17888 0
M  V30 28768 H 2514.38 -2.92867 3.86467 0
M  V30 28769 N 2515.73 -1.16125 -1.06549 0
M  V30 28770 C 2516.95 -0.965767 -1.83542 0
M  V30 28771 C 2517.38 0.48107 -1.81844 0
M  V30 28772 O 2516.73 1.34352 -1.21735 0
M  V30 28773 C 2516.78 -1.49462 -3.28167 0
M  V30 28774 O 2515.89 -0.699228 -4.06429 0
M  V30 28775 H 2515.23 -0.343874 -0.56802 0
M  V30 28776 H 2517.76 -1.54301 -1.34359 0
M  V30 28777 H 2517.77 -1.51098 -3.7899 0
M  V30 28778 H 2516.44 -2.5479 -3.28717 0
M  V30 28779 H 2515.02 -0.753164 -3.65215 0
M  V30 28780 N 2517.2 1.25039 -0.959323 0
M  V30 28781 C 2518.43 1.96947 -0.633984 0
M  V30 28782 C 2518.85 1.71251 0.794886 0
M  V30 28783 O 2518.2 0.991314 1.53229 0
M  V30 28784 C 2518.26 3.50402 -0.888866 0
M  V30 28785 O 2517.98 3.75214 -2.26156 0
M  V30 28786 C 2519.48 4.39535 -0.57656 0
M  V30 28787 H 2516.7 0.627648 -0.237274 0
M  V30 28788 H 2519.24 1.59087 -1.28498 0
M  V30 28789 H 2517.4 3.86356 -0.284213 0
M  V30 28790 H 2517.81 4.69646 -2.33523 0
M  V30 28791 H 2519.28 5.46093 -0.80541 0
M  V30 28792 H 2519.76 4.36469 0.488998 0
M  V30 28793 H 2520.37 4.09154 -1.16074 0
M  V30 28794 N 2518.68 0.728444 1.39755 0
M  V30 28795 C 2519.96 0.200113 1.94574 0
M  V30 28796 C 2520.34 -1.29681 1.66571 0
M  V30 28797 O 2519.69 -2.05923 0.990362 0
M  V30 28798 C 2519.9 0.526669 3.45003 0
M  V30 28799 C 2521.25 0.472392 4.21964 0
M  V30 28800 O 2522.27 0.463475 3.53172 0
M  V30 28801 O 2521.13 0.46117 5.44551 0
M  V30 28802 H 2518.22 0.0342996 0.826288 0
M  V30 28803 H 2520.77 0.806855 1.49291 0
M  V30 28804 H 2519.54 1.5615 3.58793 0
M  V30 28805 H 2519.16 -0.109379 3.9745 0
M  V30 28806 N 2520.16 -1.50253 0.475581 0
M  V30 28807 C 2521.39 -2.06763 -0.0754129 0
M  V30 28808 C 2521.8 -1.33894 -1.33109 0
M  V30 28809 O 2521.16 -0.409551 -1.77845 0
M  V30 28810 C 2521.21 -3.59714 -0.358945 0
M  V30 28811 O 2520.93 -4.29836 0.846927 0
M  V30 28812 C 2522.43 -4.3286 -0.956408 0
M  V30 28813 H 2519.65 -0.670938 0.00908704 0
M  V30 28814 H 2522.2 -1.93363 0.665652 0
M  V30 28815 H 2520.35 -3.72901 -1.04995 0
M  V30 28816 H 2520.77 -5.21123 0.594254 0
M  V30 28817 H 2522.24 -5.40836 -1.10454 0
M  V30 28818 H 2522.72 -3.93652 -1.94768 0
M  V30 28819 H 2523.32 -4.24215 -0.303648 0
M  V30 28820 N 2521.64 -0.208365 -1.56217 0
M  V30 28821 C 2522.92 0.475201 -1.8974 0
M  V30 28822 C 2523.3 1.78699 -1.12383 0
M  V30 28823 O 2522.64 2.27349 -0.229019 0
M  V30 28824 C 2522.85 0.68104 -3.42291 0
M  V30 28825 C 2524.2 0.994434 -4.12791 0
M  V30 28826 O 2525.23 0.768296 -3.47816 0
M  V30 28827 O 2524.08 1.4229 -5.27651 0
M  V30 28828 H 2521.18 0.249447 -0.788483 0
M  V30 28829 H 2523.72 -0.249568 -1.67855 0
M  V30 28830 H 2522.5 -0.244791 -3.90534 0
M  V30 28831 H 2522.12 1.45778 -3.69911 0
M  V30 28832 N 2523.12 1.57465 0.0651402 0
M  V30 28833 C 2524.39 1.78652 0.796408 0
M  V30 28834 C 2524.77 0.7976 1.95452 0
M  V30 28835 O 2524.12 -0.167906 2.27882 0
M  V30 28836 C 2524.33 3.25339 1.26316 0
M  V30 28837 C 2525.68 3.89351 1.69384 0
M  V30 28838 O 2526.7 3.2927 1.35866 0
M  V30 28839 O 2525.56 4.95063 2.31462 0
M  V30 28840 H 2522.66 0.733413 0.382144 0
M  V30 28841 H 2525.2 1.69641 0.0447013 0
M  V30 28842 H 2523.97 3.88877 0.434791 0
M  V30 28843 H 2523.6 3.391 2.07598 0
M  V30 28844 N 2524.59 -0.336679 1.53962 0
M  V30 28845 C 2525.82 -1.10043 1.75799 0
M  V30 28846 C 2526.24 -1.8136 0.499017 0
M  V30 28847 O 2525.6 -1.72796 -0.548739 0
M  V30 28848 C 2525.65 -2.0843 2.9426 0
M  V30 28849 O 2524.75 -3.16082 2.64889 0
M  V30 28850 H 2524.1 -0.317924 0.582941 0
M  V30 28851 H 2526.63 -0.384975 2.00946 0
M  V30 28852 H 2526.64 -2.51531 3.21241 0
M  V30 28853 H 2525.31 -1.55921 3.85567 0
M  V30 28854 H 2523.89 -2.77749 2.48817 0
M  V30 28855 N 2526.07 -1.45812 -0.598057 0
M  V30 28856 C 2526.98 -1.57766 -1.73629 0
M  V30 28857 C 2528 -0.461705 -1.67763 0
M  V30 28858 O 2529.17 -0.723718 -1.87948 0
M  V30 28859 C 2526.24 -1.55023 -3.10111 0
M  V30 28860 C 2525.3 -2.77731 -3.27359 0
M  V30 28861 C 2524.53 -2.7511 -4.57329 0
M  V30 28862 O 2524.76 -1.82979 -5.40254 0
M  V30 28863 O 2523.69 -3.66445 -4.77495 0
M  V30 28864 H 2527.52 -2.53995 -1.66494 0
M  V30 28865 H 2525.1 -1.2843 -0.763285 0
M  V30 28866 H 2526.98 -1.56135 -3.91407 0
M  V30 28867 H 2525.66 -0.619486 -3.17717 0
M  V30 28868 H 2524.57 -2.82178 -2.45614 0
M  V30 28869 H 2525.9 -3.69964 -3.24635 0
M  V30 28870 N 2527.55 0.841385 -1.33261 0
M  V30 28871 C 2528.78 1.62861 -1.27608 0
M  V30 28872 C 2529.19 1.88175 0.153474 0
M  V30 28873 O 2528.55 1.46013 1.09482 0
M  V30 28874 C 2528.6 2.98028 -2.04602 0
M  V30 28875 O 2528.32 2.73828 -3.4198 0
M  V30 28876 C 2529.82 3.92461 -2.06129 0
M  V30 28877 H 2527.04 0.506834 -0.439727 0
M  V30 28878 H 2529.59 1.04821 -1.75593 0
M  V30 28879 H 2527.74 3.52677 -1.60305 0
M  V30 28880 H 2528.16 3.59883 -3.81556 0
M  V30 28881 H 2529.63 4.84526 -2.64459 0
M  V30 28882 H 2530.11 4.26442 -1.0509 0
M  V30 28883 H 2530.71 3.43749 -2.50433 0
M  V30 28884 N 2529.03 1.16688 1.05932 0
M  V30 28885 C 2530.31 0.860778 1.75642 0
M  V30 28886 C 2530.69 -0.640606 2.01145 0
M  V30 28887 O 2530.03 -1.58956 1.6415 0
M  V30 28888 C 2530.24 1.6875 3.0549 0
M  V30 28889 C 2531.59 1.90278 3.79578 0
M  V30 28890 O 2532.62 1.65646 3.15341 0
M  V30 28891 O 2531.48 2.31627 4.94986 0
M  V30 28892 H 2528.57 0.31799 0.763421 0
M  V30 28893 H 2531.12 1.27344 1.12168 0
M  V30 28894 H 2529.89 2.70616 2.82635 0
M  V30 28895 H 2529.51 1.27212 3.767 0
M  V30 28896 N 2530.51 -1.24529 0.96594 0
M  V30 28897 C 2531.47 -2.23689 0.499586 0
M  V30 28898 C 2532.47 -1.5567 -0.402913 0
M  V30 28899 O 2533.66 -1.73064 -0.198619 0
M  V30 28900 C 2530.79 -3.39775 -0.276732 0
M  V30 28901 H 2531.99 -2.66461 1.37618 0
M  V30 28902 H 2529.54 -1.37111 0.750348 0
M  V30 28903 H 2530.27 -3.0244 -1.1705 0
M  V30 28904 H 2530.06 -3.90342 0.370895 0
M  V30 28905 H 2531.55 -4.13381 -0.592103 0
M  V30 28906 N 2531.99 -0.735845 -1.39367 0
M  V30 28907 C 2532.9 -0.0980105 -2.34395 0
M  V30 28908 C 2533.91 0.72094 -1.58362 0
M  V30 28909 O 2535.09 0.649211 -1.90649 0
M  V30 28910 C 2532.15 0.797857 -3.37395 0
M  V30 28911 C 2531.21 -0.0334417 -4.29287 0
M  V30 28912 C 2530.45 0.819761 -5.27367 0
M  V30 28913 O 2530.67 2.05845 -5.31962 0
M  V30 28914 O 2529.6 0.247973 -6.01389 0
M  V30 28915 H 2533.43 -0.882366 -2.90599 0
M  V30 28916 H 2531.01 -0.496525 -1.40908 0
M  V30 28917 H 2532.9 1.31041 -4.00507 0
M  V30 28918 H 2531.57 1.56101 -2.83574 0
M  V30 28919 H 2530.48 -0.59154 -3.69394 0
M  V30 28920 H 2531.81 -0.758837 -4.86315 0
M  V30 28921 N 2533.46 1.49999 -0.483543 0
M  V30 28922 C 2534.41 2.28788 0.304124 0
M  V30 28923 C 2535.38 1.34394 0.97609 0
M  V30 28924 O 2536.57 1.63341 0.986128 0
M  V30 28925 C 2533.71 3.16615 1.37292 0
M  V30 28926 C 2532.82 4.26051 0.714486 0
M  V30 28927 C 2531.95 5.01117 1.76223 0
M  V30 28928 C 2530.99 6.02412 1.08472 0
M  V30 28929 N 2530.13 6.7071 2.07588 0
M  V30 28930 H 2534.97 2.95643 -0.374033 0
M  V30 28931 H 2532.51 1.45784 -0.1963 0
M  V30 28932 H 2534.46 3.65896 2.00439 0
M  V30 28933 H 2533.09 2.51779 2.02007 0
M  V30 28934 H 2532.15 3.80388 -0.0298467 0
M  V30 28935 H 2533.46 4.98474 0.180296 0
M  V30 28936 H 2532.61 5.5418 2.46919 0
M  V30 28937 H 2531.35 4.28428 2.33025 0
M  V30 28938 H 2530.36 5.48597 0.363448 0
M  V30 28939 H 2531.58 6.7708 0.523432 0
M  V30 28940 H 2529.53 6.00804 2.63384 0
M  V30 28941 H 2529.44 7.3905 1.59188 0
M  V30 28942 H 2530.71 7.28385 2.77626 0
M  V30 28943 N 2534.94 0.216646 1.56104 0
M  V30 28944 C 2536.17 -0.421378 2.02564 0
M  V30 28945 C 2536.58 -1.53693 1.09653 0
M  V30 28946 O 2535.94 -1.82196 0.105242 0
M  V30 28947 C 2535.99 -0.957604 3.48586 0
M  V30 28948 O 2535.71 0.113466 4.37953 0
M  V30 28949 C 2537.21 -1.66936 4.10667 0
M  V30 28950 H 2534.43 -0.103654 0.662946 0
M  V30 28951 H 2536.98 0.331664 2.01793 0
M  V30 28952 H 2535.13 -1.66094 3.49988 0
M  V30 28953 H 2535.55 -0.28884 5.23704 0
M  V30 28954 H 2537.02 -1.99662 5.14625 0
M  V30 28955 H 2537.5 -2.58077 3.55377 0
M  V30 28956 H 2538.1 -1.01135 4.131 0
M  V30 28957 N 2536.42 -1.57498 -0.0567885 0
M  V30 28958 C 2537.64 -1.92602 -0.769368 0
M  V30 28959 C 2538.07 -0.814366 -1.69557 0
M  V30 28960 O 2537.43 0.231871 -1.79811 0
M  V30 28961 C 2537.48 -3.26706 -1.52628 0
M  V30 28962 O 2536.58 -3.16998 -2.63791 0
M  V30 28963 H 2535.92 -0.630284 -0.208898 0
M  V30 28964 H 2538.45 -2.0459 -0.0205438 0
M  V30 28965 H 2538.46 -3.6094 -1.90228 0
M  V30 28966 H 2537.14 -4.07188 -0.846803 0
M  V30 28967 H 2535.71 -2.9435 -2.28938 0
M  V30 28968 N 2537.9 0.328509 -1.54138 0
M  V30 28969 C 2538.85 1.42424 -1.83897 0
M  V30 28970 C 2539.84 1.5378 -0.710505 0
M  V30 28971 O 2541.05 1.56224 -0.89409 0
M  V30 28972 H 2537.42 0.475179 -0.582846 0
M  V30 28973 H 2539.39 1.14547 -2.75539 0
M  V30 28974 C 2538.14 2.7872 -2.07871 0
M  V30 28975 H 2537.46 2.70755 -2.94163 0
M  V30 28976 H 2538.9 3.54471 -2.3265 0
M  V30 28977 C 2537.36 3.25506 -0.868746 0
M  V30 28978 O 2537.89 4.01629 -0.0755614 0
M  V30 28979 N 2536.1 2.8249 -0.68176 0
M  V30 28980 H 2535.65 2.20705 -1.32841 0
M  V30 28981 H 2535.6 3.14146 0.126319 0
M  V30 28982 N 2539.38 1.46127 0.590316 0
M  V30 28983 C 2540.32 1.56473 1.72102 0
M  V30 28984 C 2541.32 0.433641 1.63756 0
M  V30 28985 O 2542.52 0.610224 1.69341 0
M  V30 28986 H 2538.9 0.491812 0.56888 0
M  V30 28987 H 2540.87 2.51556 1.60505 0
M  V30 28988 C 2539.62 1.56497 3.1049 0
M  V30 28989 H 2538.94 2.42865 3.17579 0
M  V30 28990 H 2540.38 1.67792 3.89387 0
M  V30 28991 C 2538.84 0.29229 3.3563 0
M  V30 28992 O 2539.37 -0.620669 3.96876 0
M  V30 28993 N 2537.58 0.182574 2.90026 0
M  V30 28994 H 2537.12 0.926399 2.40366 0
M  V30 28995 H 2537.08 -0.668098 3.07219 0
M  V30 28996 N 2540.85 -0.834306 1.33705 0
M  V30 28997 C 2542.08 -1.62703 1.28618 0
M  V30 28998 C 2542.5 -1.87584 -0.139209 0
M  V30 28999 O 2541.86 -1.44322 -1.09731 0
M  V30 29000 C 2541.91 -2.95167 2.07144 0
M  V30 29001 O 2541.01 -3.86696 1.43317 0
M  V30 29002 H 2540.35 -0.495272 0.442269 0
M  V30 29003 H 2542.88 -1.03762 1.76336 0
M  V30 29004 H 2542.89 -3.44827 2.18079 0
M  V30 29005 H 2541.57 -2.7638 3.10784 0
M  V30 29006 H 2540.15 -3.45192 1.41056 0
M  V30 29007 N 2542.33 -1.17248 -1.05312 0
M  V30 29008 C 2543.28 -0.884276 -2.15136 0
M  V30 29009 C 2544.27 0.1506 -1.68729 0
M  V30 29010 O 2545.48 0.00363509 -1.8 0
M  V30 29011 H 2541.85 -0.268412 -0.702466 0
M  V30 29012 H 2543.83 -1.81769 -2.36649 0
M  V30 29013 C 2542.57 -0.41272 -3.45242 0
M  V30 29014 H 2541.9 -1.2005 -3.8135 0
M  V30 29015 H 2543.34 -0.249932 -4.23263 0
M  V30 29016 C 2541.8 0.869423 -3.25488 0
M  V30 29017 O 2542.33 1.93649 -3.51942 0
M  V30 29018 N 2540.53 0.817098 -2.78876 0
M  V30 29019 H 2540.08 -0.0514664 -2.57549 0
M  V30 29020 H 2540.04 1.67543 -2.66039 0
M  V30 29021 N 2543.81 1.24015 -0.972531 0
M  V30 29022 C 2545.04 1.96264 -0.654837 0
M  V30 29023 C 2545.45 1.72085 0.776678 0
M  V30 29024 O 2544.81 1.00751 1.52169 0
M  V30 29025 C 2544.86 3.49439 -0.925981 0
M  V30 29026 O 2544.58 3.72794 -2.30122 0
M  V30 29027 C 2546.08 4.38898 -0.623146 0
M  V30 29028 H 2543.3 0.625096 -0.243918 0
M  V30 29029 H 2545.85 1.57715 -1.30178 0
M  V30 29030 H 2544 3.86033 -0.325176 0
M  V30 29031 H 2544.42 4.67143 -2.38491 0
M  V30 29032 H 2545.89 5.45208 -0.863285 0
M  V30 29033 H 2546.37 4.36963 0.442677 0
M  V30 29034 H 2546.97 4.079 -1.20407 0
M  V30 29035 N 2545.29 0.743226 1.38974 0
M  V30 29036 C 2546.22 0.123914 2.33171 0
M  V30 29037 C 2547.2 -0.715132 1.54337 0
M  V30 29038 O 2548.38 -0.658435 1.82697 0
M  V30 29039 C 2545.51 -0.777918 3.38476 0
M  V30 29040 C 2544.47 -0.0424006 4.27979 0
M  V30 29041 C 2543.79 -1.0618 5.24051 0
M  V30 29042 C 2545.09 1.11989 5.10153 0
M  V30 29043 H 2546.79 0.91076 2.85211 0
M  V30 29044 H 2544.33 0.439412 1.37132 0
M  V30 29045 H 2546.29 -1.22077 4.0333 0
M  V30 29046 H 2545.01 -1.59697 2.84894 0
M  V30 29047 H 2543.67 0.380917 3.64616 0
M  V30 29048 H 2543.32 -1.87463 4.66762 0
M  V30 29049 H 2543.02 -0.574382 5.84786 0
M  V30 29050 H 2544.54 -1.50418 5.91783 0
M  V30 29051 H 2545.96 0.75509 5.68306 0
M  V30 29052 H 2544.35 1.53748 5.8007 0
M  V30 29053 H 2545.42 1.93772 4.445 0
M  V30 29054 N 2546.77 -1.4974 0.491491 0
M  V30 29055 C 2547.72 -2.25868 -0.311046 0
M  V30 29056 C 2548.7 -1.3031 -0.943835 0
M  V30 29057 O 2549.89 -1.5509 -0.853008 0
M  V30 29058 C 2547.02 -3.14318 -1.38054 0
M  V30 29059 C 2546.11 -4.17335 -0.754468 0
M  V30 29060 N 2546.5 -5.05614 0.137305 0
M  V30 29061 C 2544.8 -4.3427 -1.01613 0
M  V30 29062 C 2545.5 -5.79592 0.494716 0
M  V30 29063 N 2544.47 -5.43432 -0.135073 0
M  V30 29064 H 2548.28 -2.9149 0.375601 0
M  V30 29065 H 2545.79 -1.59473 0.306945 0
M  V30 29066 H 2547.79 -3.67481 -1.96884 0
M  V30 29067 H 2546.45 -2.50248 -2.06897 0
M  V30 29068 H 2547.46 -5.15407 0.5075 0
M  V30 29069 H 2544.13 -3.8141 -1.69802 0
M  V30 29070 H 2545.52 -6.60662 1.22371 0
M  V30 29071 N 2548.24 -0.224922 -1.55987 0
M  V30 29072 C 2549.19 0.683812 -2.20437 0
M  V30 29073 C 2550.16 1.18781 -1.16104 0
M  V30 29074 O 2551.35 1.24629 -1.44472 0
M  V30 29075 C 2548.49 1.88486 -2.8908 0
M  V30 29076 C 2547.6 1.41944 -4.08014 0
M  V30 29077 C 2546.73 2.57832 -4.64431 0
M  V30 29078 C 2545.77 2.08043 -5.7566 0
M  V30 29079 N 2544.91 3.17216 -6.26353 0
M  V30 29080 H 2549.75 0.127488 -2.97727 0
M  V30 29081 H 2547.29 0.0511719 -1.47011 0
M  V30 29082 H 2549.25 2.59008 -3.27064 0
M  V30 29083 H 2547.88 2.41401 -2.14302 0
M  V30 29084 H 2546.93 0.609029 -3.75493 0
M  V30 29085 H 2548.24 1.01439 -4.88377 0
M  V30 29086 H 2547.39 3.36431 -5.04875 0
M  V30 29087 H 2546.13 3.01628 -3.83239 0
M  V30 29088 H 2545.14 1.27907 -5.34715 0
M  V30 29089 H 2546.36 1.65243 -6.58689 0
M  V30 29090 H 2544.31 3.60488 -5.48074 0
M  V30 29091 H 2544.23 2.80973 -7.01848 0
M  V30 29092 H 2545.49 3.95941 -6.71454 0
M  V30 29093 N 2549.72 1.57526 0.0484352 0
M  V30 29094 C 2550.67 2.05276 1.055 0
M  V30 29095 C 2551.64 0.937951 1.37083 0
M  V30 29096 O 2552.82 1.20723 1.47752 0
M  V30 29097 C 2549.96 2.52097 2.35672 0
M  V30 29098 C 2549.08 3.77292 2.10417 0
M  V30 29099 C 2548.21 4.128 3.3432 0
M  V30 29100 C 2547.25 5.30968 3.04532 0
M  V30 29101 N 2546.39 5.62001 4.20831 0
M  V30 29102 H 2551.23 2.91028 0.640834 0
M  V30 29103 H 2548.77 1.43907 0.304828 0
M  V30 29104 H 2550.72 2.77302 3.11704 0
M  V30 29105 H 2549.35 1.6929 2.74847 0
M  V30 29106 H 2548.41 3.59286 1.2497 0
M  V30 29107 H 2549.72 4.63451 1.8443 0
M  V30 29108 H 2548.87 4.39031 4.18732 0
M  V30 29109 H 2547.61 3.25254 3.63403 0
M  V30 29110 H 2546.62 5.04509 2.18519 0
M  V30 29111 H 2547.84 6.20151 2.76748 0
M  V30 29112 H 2545.79 4.77414 4.49902 0
M  V30 29113 H 2545.7 6.42629 3.98201 0
M  V30 29114 H 2546.97 5.92797 5.06173 0
M  V30 29115 N 2551.2 -0.32033 1.5431 0
M  V30 29116 C 2552.11 -1.4173 1.86948 0
M  V30 29117 C 2553.13 -1.56441 0.761717 0
M  V30 29118 O 2554.3 -1.71475 1.05632 0
M  V30 29119 C 2551.37 -2.76397 2.09297 0
M  V30 29120 C 2550.43 -2.70835 3.33087 0
M  V30 29121 C 2549.66 -3.99079 3.5436 0
M  V30 29122 O 2549.88 -4.97503 2.79011 0
M  V30 29123 O 2548.82 -4.02142 4.47845 0
M  V30 29124 H 2552.64 -1.17057 2.80234 0
M  V30 29125 H 2550.23 -0.514649 1.40256 0
M  V30 29126 H 2552.11 -3.56109 2.25309 0
M  V30 29127 H 2550.79 -3.00954 1.19199 0
M  V30 29128 H 2549.69 -1.89663 3.22458 0
M  V30 29129 H 2551.03 -2.51232 4.23253 0
M  V30 29130 N 2552.68 -1.46438 -0.582558 0
M  V30 29131 C 2553.91 -1.55327 -1.36679 0
M  V30 29132 C 2554.32 -0.194442 -1.87796 0
M  V30 29133 O 2553.68 0.80829 -1.63624 0
M  V30 29134 C 2553.73 -2.55817 -2.55421 0
M  V30 29135 O 2553.45 -3.86421 -2.06423 0
M  V30 29136 C 2554.95 -2.74647 -3.47971 0
M  V30 29137 H 2552.17 -0.525266 -0.417536 0
M  V30 29138 H 2554.72 -1.91846 -0.708185 0
M  V30 29139 H 2552.87 -2.22301 -3.17272 0
M  V30 29140 H 2553.28 -4.41116 -2.83754 0
M  V30 29141 H 2554.76 -3.48881 -4.27769 0
M  V30 29142 H 2555.24 -1.8156 -3.99916 0
M  V30 29143 H 2555.84 -3.0926 -2.91956 0
M  V30 29144 N 2554.16 0.827204 -1.34146 0
M  V30 29145 C 2555.57 1.39964 -1.23559 0
M  V30 29146 C 2555.92 1.95695 0.140697 0
M  V30 29147 O 2555.04 1.89725 1.04084 0
M  V30 29148 C 2555.64 2.54437 -2.23712 0
M  V30 29149 C 2554.2 3.07601 -2.1693 0
M  V30 29150 C 2553.34 1.80452 -2.10552 0
M  V30 29151 H 2556.3 0.631965 -1.45574 0
M  V30 29152 H 2556.32 3.32408 -1.85163 0
M  V30 29153 H 2555.83 2.13845 -3.2387 0
M  V30 29154 H 2553.93 3.52709 -1.20113 0
M  V30 29155 H 2554.04 3.66982 -3.07995 0
M  V30 29156 H 2552.41 2.01175 -1.56207 0
M  V30 29157 H 2553.19 1.4204 -3.12537 0
M  V30 29158 N 2555.63 1.17805 1.04688 0
M  V30 29159 C 2556.6 0.901582 2.10723 0
M  V30 29160 C 2557.6 -0.110409 1.60421 0
M  V30 29161 O 2558.79 0.122334 1.7377 0
M  V30 29162 C 2555.92 0.351469 3.39083 0
M  V30 29163 H 2557.11 1.84178 2.36682 0
M  V30 29164 H 2554.67 0.989211 1.21014 0
M  V30 29165 H 2555.4 -0.595634 3.18783 0
M  V30 29166 H 2555.19 1.08089 3.76907 0
M  V30 29167 H 2556.68 0.176524 4.17227 0
M  V30 29168 N 2557.11 -1.23497 0.979094 0
M  V30 29169 C 2558.05 -2.23452 0.463066 0
M  V30 29170 C 2559.02 -1.55686 -0.469101 0
M  V30 29171 O 2560.21 -1.84254 -0.397849 0
M  V30 29172 C 2557.33 -3.37086 -0.330249 0
M  V30 29173 C 2556.38 -4.22992 0.545869 0
M  V30 29174 S 2557.21 -4.97033 1.99294 0
M  V30 29175 C 2558.37 -6.14118 1.20873 0
M  V30 29176 H 2558.6 -2.66878 1.3101 0
M  V30 29177 H 2556.14 -1.32956 0.784989 0
M  V30 29178 H 2558.09 -4.02983 -0.781956 0
M  V30 29179 H 2556.75 -2.92196 -1.15239 0
M  V30 29180 H 2555.95 -5.0396 -0.0638042 0
M  V30 29181 H 2555.55 -3.62156 0.933768 0
M  V30 29182 H 2557.84 -6.75872 0.469403 0
M  V30 29183 H 2558.78 -6.79469 1.99319 0
M  V30 29184 H 2559.19 -5.59785 0.728091 0
M  V30 29185 N 2558.59 -0.750586 -1.38578 0
M  V30 29186 C 2559.54 -0.120876 -2.30483 0
M  V30 29187 C 2560.51 0.712896 -1.50023 0
M  V30 29188 O 2561.69 0.669645 -1.78663 0
M  V30 29189 C 2558.83 0.768606 -3.36432 0
M  V30 29190 C 2557.95 -0.0794681 -4.31927 0
M  V30 29191 C 2557.08 0.812737 -5.24946 0
M  V30 29192 C 2556.12 -0.0391523 -6.12087 0
M  V30 29193 N 2555.26 0.809846 -6.97414 0
M  V30 29194 H 2560.1 -0.9102 -2.83759 0
M  V30 29195 H 2557.63 -0.460488 -1.39707 0
M  V30 29196 H 2559.59 1.29891 -3.96464 0
M  V30 29197 H 2558.22 1.52375 -2.84573 0
M  V30 29198 H 2557.27 -0.727369 -3.73381 0
M  V30 29199 H 2558.59 -0.737488 -4.93318 0
M  V30 29200 H 2557.74 1.41032 -5.9008 0
M  V30 29201 H 2556.48 1.5045 -4.63914 0
M  V30 29202 H 2555.48 -0.649424 -5.45951 0
M  V30 29203 H 2556.71 -0.727928 -6.75187 0
M  V30 29204 H 2554.66 1.48661 -6.38933 0
M  V30 29205 H 2554.57 0.208657 -7.55712 0
M  V30 29206 H 2555.84 1.3925 -7.66961 0
M  V30 29207 N 2560.07 1.49477 -0.499425 0
M  V30 29208 C 2561.3 2.06556 0.0424476 0
M  V30 29209 C 2561.71 1.3602 1.31511 0
M  V30 29210 O 2561.05 0.431749 1.78554 0
M  V30 29211 C 2561.11 3.57611 0.368012 0
M  V30 29212 C 2560.78 4.49824 -0.80671 0
M  V30 29213 C 2561.77 4.91433 -1.69676 0
M  V30 29214 C 2559.46 4.92142 -1.00507 0
M  V30 29215 C 2561.45 5.74097 -2.76933 0
M  V30 29216 C 2559.14 5.74583 -2.08082 0
M  V30 29217 C 2560.14 6.15464 -2.9613 0
M  V30 29218 O 2559.83 6.96257 -4.01848 0
M  V30 29219 H 2559.56 0.675798 -0.0165284 0
M  V30 29220 H 2562.11 1.93265 -0.695531 0
M  V30 29221 H 2560.34 3.68905 1.15956 0
M  V30 29222 H 2562.03 3.96936 0.848311 0
M  V30 29223 H 2562.8 4.59385 -1.55532 0
M  V30 29224 H 2558.68 4.59824 -0.329117 0
M  V30 29225 H 2562.22 6.05926 -3.45686 0
M  V30 29226 H 2558.12 6.06043 -2.22221 0
M  V30 29227 H 2558.88 7.1456 -3.99182 0
M  V30 29228 N 2561.55 0.233191 1.55865 0
M  V30 29229 C 2562.5 -0.688471 2.22177 0
M  V30 29230 C 2563.49 -1.19074 1.20489 0
M  V30 29231 O 2564.7 -1.14922 1.38538 0
M  V30 29232 H 2561.07 -0.24047 0.712515 0
M  V30 29233 H 2563.04 -0.105883 2.98212 0
M  V30 29234 C 2561.79 -1.88066 2.92449 0
M  V30 29235 H 2561.11 -1.5033 3.7046 0
M  V30 29236 H 2562.55 -2.50308 3.42231 0
M  V30 29237 C 2561.01 -2.74332 1.9556 0
M  V30 29238 O 2561.54 -3.73445 1.47993 0
M  V30 29239 N 2559.75 -2.4061 1.62957 0
M  V30 29240 H 2559.3 -1.60065 2.01834 0
M  V30 29241 H 2559.25 -2.98607 0.983939 0
M  V30 29242 N 2563.03 -1.57549 -0.0400806 0
M  V30 29243 C 2563.96 -2.01194 -1.07686 0
M  V30 29244 C 2564.94 -0.894297 -1.35798 0
M  V30 29245 O 2566.12 -1.15924 -1.4864 0
M  V30 29246 C 2563.25 -2.37565 -2.41414 0
M  V30 29247 C 2562.29 -3.5966 -2.29231 0
M  V30 29248 S 2563.13 -5.09245 -1.65619 0
M  V30 29249 C 2564.28 -5.48848 -3.0086 0
M  V30 29250 H 2564.52 -2.88819 -0.705057 0
M  V30 29251 H 2562.05 -1.52368 -0.249698 0
M  V30 29252 H 2564.01 -2.59191 -3.18324 0
M  V30 29253 H 2562.67 -1.50412 -2.75745 0
M  V30 29254 H 2561.86 -3.82728 -3.27925 0
M  V30 29255 H 2561.46 -3.37828 -1.60463 0
M  V30 29256 H 2563.75 -5.48858 -3.97191 0
M  V30 29257 H 2564.7 -6.49291 -2.82537 0
M  V30 29258 H 2565.11 -4.76336 -3.02926 0
M  V30 29259 N 2564.5 0.312142 -1.54478 0
M  V30 29260 C 2565.45 1.40466 -1.85397 0
M  V30 29261 C 2566.45 1.53017 -0.726776 0
M  V30 29262 O 2567.65 1.55267 -0.910609 0
M  V30 29263 H 2564.03 0.46897 -0.587853 0
M  V30 29264 H 2566 1.11618 -2.76738 0
M  V30 29265 C 2564.75 2.765 -2.10816 0
M  V30 29266 H 2564.07 2.67619 -2.97018 0
M  V30 29267 H 2565.51 3.51984 -2.36396 0
M  V30 29268 C 2563.97 3.24567 -0.903222 0
M  V30 29269 O 2564.5 4.01526 -0.118155 0
M  V30 29270 N 2562.7 2.81751 -0.711684 0
M  V30 29271 H 2562.25 2.19284 -1.35175 0
M  V30 29272 H 2562.21 3.14262 0.0929921 0
M  V30 29273 N 2565.98 1.46745 0.574784 0
M  V30 29274 C 2567.23 1.51729 1.32895 0
M  V30 29275 C 2567.54 0.176727 1.948 0
M  V30 29276 O 2568.75 0.104432 2.71299 0
M  V30 29277 C 2567.21 2.6739 2.40896 0
M  V30 29278 C 2566.81 4.07901 1.85259 0
M  V30 29279 C 2568.56 2.81652 3.17604 0
M  V30 29280 C 2566.46 5.14889 2.90936 0
M  V30 29281 H 2565.39 0.564707 0.499621 0
M  V30 29282 H 2568.05 1.72976 0.612506 0
M  V30 29283 H 2566.43 2.39488 3.15375 0
M  V30 29284 H 2567.6 4.45628 1.1727 0
M  V30 29285 H 2565.92 3.98373 1.21192 0
M  V30 29286 H 2568.51 3.58751 3.96487 0
M  V30 29287 H 2568.86 1.89454 3.70692 0
M  V30 29288 H 2569.39 3.09238 2.50233 0
M  V30 29289 H 2566.13 6.08904 2.42726 0
M  V30 29290 H 2565.65 4.81697 3.5739 0
M  V30 29291 H 2567.33 5.41077 3.54746 0
M  V30 29292 N 2567.46 -0.820078 1.34583 0
M  V30 29293 C 2568.42 -1.91273 1.26283 0
M  V30 29294 C 2569.42 -1.59819 0.177372 0
M  V30 29295 O 2570.61 -1.68805 0.430186 0
M  V30 29296 C 2567.74 -3.27384 0.950385 0
M  V30 29297 H 2568.94 -2.00054 2.23425 0
M  V30 29298 H 2566.49 -1.01438 1.18912 0
M  V30 29299 H 2567.23 -3.24295 -0.0177368 0
M  V30 29300 H 2567.01 -3.51598 1.73556 0
M  V30 29301 H 2568.5 -4.07395 0.917564 0
M  V30 29302 N 2568.94 -1.18359 -1.04062 0
M  V30 29303 C 2569.87 -0.868396 -2.12112 0
M  V30 29304 C 2570.88 0.134016 -1.62247 0
M  V30 29305 O 2572.07 -0.0938246 -1.78253 0
M  V30 29306 C 2569.17 -0.276192 -3.37773 0
M  V30 29307 C 2568.34 -1.32427 -4.16871 0
M  V30 29308 C 2567.4 -0.747753 -5.2086 0
M  V30 29309 O 2566.43 -1.42249 -5.51139 0
M  V30 29310 N 2567.63 0.454721 -5.78716 0
M  V30 29311 H 2570.4 -1.79841 -2.39745 0
M  V30 29312 H 2567.96 -1.08398 -1.20256 0
M  V30 29313 H 2569.95 0.123062 -4.04513 0
M  V30 29314 H 2568.52 0.557841 -3.07582 0
M  V30 29315 H 2567.74 -1.89884 -3.45453 0
M  V30 29316 H 2569.03 -2.03086 -4.66512 0
M  V30 29317 H 2568.43 1.02063 -5.56417 0
M  V30 29318 H 2566.98 0.795896 -6.46923 0
M  V30 29319 N 2570.42 1.22976 -0.98563 0
M  V30 29320 C 2571.69 1.87 -0.573632 0
M  V30 29321 C 2572.07 1.88557 0.949179 0
M  V30 29322 O 2571.42 1.37089 1.82808 0
M  V30 29323 C 2571.63 3.28241 -1.1857 0
M  V30 29324 C 2572.98 4.04793 -1.2817 0
M  V30 29325 O 2574 3.3748 -1.13955 0
M  V30 29326 O 2572.86 5.25271 -1.50841 0
M  V30 29327 H 2569.96 0.803952 -0.193883 0
M  V30 29328 H 2572.5 1.30811 -1.08105 0
M  V30 29329 H 2571.27 3.21702 -2.22764 0
M  V30 29330 H 2570.9 3.92026 -0.663432 0
M  V30 29331 N 2571.89 0.757924 1.38178 0
M  V30 29332 C 2572.8 0.135288 2.3421 0
M  V30 29333 C 2573.82 -0.695655 1.59489 0
M  V30 29334 O 2575 -0.618798 1.91658 0
M  V30 29335 C 2572.06 -0.744079 3.38621 0
M  V30 29336 C 2571.12 0.101733 4.29179 0
M  V30 29337 C 2570.35 -0.735758 5.28604 0
M  V30 29338 O 2570.58 -1.97356 5.3517 0
M  V30 29339 O 2569.51 -0.152266 6.01707 0
M  V30 29340 H 2573.34 0.928487 2.89159 0
M  V30 29341 H 2570.92 0.518879 1.401 0
M  V30 29342 H 2572.8 -1.24653 4.02541 0
M  V30 29343 H 2571.48 -1.5157 2.86021 0
M  V30 29344 H 2570.39 0.650232 3.68406 0
M  V30 29345 H 2571.72 0.83611 4.85046 0
M  V30 29346 N 2573.37 -1.4921 0.507345 0
M  V30 29347 C 2574.62 -2.01666 -0.0367961 0
M  V30 29348 C 2574.93 -1.39159 -1.37456 0
M  V30 29349 O 2576.14 -1.82979 -2.00576 0
M  V30 29350 C 2574.6 -3.59713 -0.116026 0
M  V30 29351 C 2574.2 -4.31196 1.21548 0
M  V30 29352 C 2575.95 -4.20092 -0.610195 0
M  V30 29353 C 2573.86 -5.81117 1.09807 0
M  V30 29354 H 2572.79 -0.753796 -0.0175244 0
M  V30 29355 H 2575.44 -1.71688 0.647721 0
M  V30 29356 H 2573.82 -3.86434 -0.865132 0
M  V30 29357 H 2574.99 -4.16169 1.97837 0
M  V30 29358 H 2573.31 -3.8259 1.64359 0
M  V30 29359 H 2575.9 -5.29889 -0.715649 0
M  V30 29360 H 2576.25 -3.83883 -1.61057 0
M  V30 29361 H 2576.78 -3.97714 0.0825615 0
M  V30 29362 H 2573.52 -6.21861 2.07291 0
M  V30 29363 H 2573.04 -5.98619 0.376164 0
M  V30 29364 H 2574.72 -6.42288 0.779394 0
M  V30 29365 N 2574.85 -0.241454 -1.55739 0
M  V30 29366 C 2575.8 0.676679 -2.22539 0
M  V30 29367 C 2576.79 1.18434 -1.21119 0
M  V30 29368 O 2578 1.14186 -1.39146 0
M  V30 29369 H 2574.37 0.236688 -0.713781 0
M  V30 29370 H 2576.34 0.0900663 -2.98264 0
M  V30 29371 C 2575.09 1.86513 -2.93442 0
M  V30 29372 H 2574.42 1.48364 -3.71252 0
M  V30 29373 H 2575.86 2.48489 -3.43553 0
M  V30 29374 C 2574.32 2.73291 -1.97012 0
M  V30 29375 O 2574.85 3.72655 -1.49971 0
M  V30 29376 N 2573.05 2.39743 -1.64231 0
M  V30 29377 H 2572.6 1.58992 -2.0268 0
M  V30 29378 H 2572.56 2.98081 -0.999761 0
M  V30 29379 N 2576.33 1.57568 0.0317248 0
M  V30 29380 C 2577.74 1.54829 0.387323 0
M  V30 29381 C 2577.94 0.967218 1.76769 0
M  V30 29382 O 2577 0.587106 2.4558 0
M  V30 29383 C 2578.31 2.99283 0.291615 0
M  V30 29384 C 2579.86 3.10819 0.368892 0
M  V30 29385 C 2580.34 4.56999 0.302661 0
M  V30 29386 N 2581.83 4.61787 0.361536 0
M  V30 29387 C 2582.56 5.72431 0.333137 0
M  V30 29388 N 2582.06 6.92322 0.257187 0
M  V30 29389 N 2583.85 5.60796 0.38267 0
M  V30 29390 H 2576 1.93691 -0.871643 0
M  V30 29391 H 2578.27 0.888272 -0.331176 0
M  V30 29392 H 2577.97 3.45512 -0.656854 0
M  V30 29393 H 2577.85 3.61219 1.08631 0
M  V30 29394 H 2580.23 2.64539 1.30779 0
M  V30 29395 H 2580.31 2.51719 -0.45511 0
M  V30 29396 H 2579.96 5.03946 -0.632561 0
M  V30 29397 H 2579.89 5.14007 1.14473 0
M  V30 29398 H 2582.38 3.75527 0.422857 0
M  V30 29399 H 2582.69 7.72426 0.240544 0
M  V30 29400 H 2581.04 6.94641 0.223274 0
M  V30 29401 H 2584.23 4.66028 0.439978 0
M  V30 29402 H 2584.4 6.47015 0.35707 0
M  V30 29403 N 2577.81 -0.303946 1.54641 0
M  V30 29404 C 2578.74 -1.39633 1.81756 0
M  V30 29405 C 2579.75 -1.46965 0.700376 0
M  V30 29406 O 2580.94 -1.49336 0.977807 0
M  V30 29407 C 2578.04 -2.78027 1.93789 0
M  V30 29408 C 2577.21 -2.93663 3.24161 0
M  V30 29409 C 2576.27 -4.12538 3.26648 0
M  V30 29410 O 2575.3 -4.04764 4.00194 0
M  V30 29411 N 2576.5 -5.23032 2.51829 0
M  V30 29412 H 2579.27 -1.16729 2.76033 0
M  V30 29413 H 2576.83 -0.494006 1.54179 0
M  V30 29414 H 2578.82 -3.55792 1.92858 0
M  V30 29415 H 2577.39 -2.93891 1.0652 0
M  V30 29416 H 2576.61 -2.03036 3.37891 0
M  V30 29417 H 2577.9 -3.0102 4.10201 0
M  V30 29418 H 2577.29 -5.32228 1.91702 0
M  V30 29419 H 2575.85 -5.99142 2.56654 0
M  V30 29420 N 2579.28 -1.47047 -0.566994 0
M  V30 29421 C 2580.23 -1.59191 -1.69591 0
M  V30 29422 C 2581.23 -0.459638 -1.63045 0
M  V30 29423 O 2582.43 -0.637087 -1.68348 0
M  V30 29424 H 2578.81 -0.500801 -0.560984 0
M  V30 29425 H 2580.78 -2.54078 -1.56483 0
M  V30 29426 C 2579.53 -1.61417 -3.07961 0
M  V30 29427 H 2578.85 -2.47887 -3.13675 0
M  V30 29428 H 2580.29 -1.73965 -3.86668 0
M  V30 29429 C 2578.75 -0.345649 -3.35122 0
M  V30 29430 O 2579.28 0.557451 -3.97813 0
M  V30 29431 N 2577.49 -0.228691 -2.89699 0
M  V30 29432 H 2577.03 -0.964521 -2.38861 0
M  V30 29433 H 2576.99 0.619138 -3.08243 0
M  V30 29434 N 2580.76 0.812929 -1.35016 0
M  V30 29435 C 2582.04 1.55615 -1.18504 0
M  V30 29436 C 2582.42 2.0975 0.238384 0
M  V30 29437 O 2581.77 1.91859 1.24106 0
M  V30 29438 C 2581.98 2.66967 -2.24788 0
M  V30 29439 C 2583.33 3.35474 -2.60274 0
M  V30 29440 O 2584.35 2.77232 -2.23653 0
M  V30 29441 O 2583.21 4.40673 -3.23218 0
M  V30 29442 H 2580.3 0.687264 -0.459996 0
M  V30 29443 H 2582.85 0.853438 -1.46678 0
M  V30 29444 H 2581.62 2.24792 -3.20288 0
M  V30 29445 H 2581.24 3.4488 -1.97847 0
M  V30 29446 N 2582.24 1.18909 1.03433 0
M  V30 29447 C 2583.49 0.989829 1.77003 0
M  V30 29448 C 2583.82 -0.478783 1.88205 0
M  V30 29449 O 2583.09 -1.35553 1.39483 0
M  V30 29450 C 2583.38 1.65293 3.19922 0
M  V30 29451 C 2583.23 3.19482 3.16625 0
M  V30 29452 C 2584.55 1.37141 4.18187 0
M  V30 29453 H 2581.67 0.361002 0.642531 0
M  V30 29454 H 2584.31 1.46669 1.20782 0
M  V30 29455 H 2582.46 1.24747 3.67927 0
M  V30 29456 H 2584.13 3.69205 2.7656 0
M  V30 29457 H 2582.38 3.51311 2.54485 0
M  V30 29458 H 2583.05 3.61021 4.17574 0
M  V30 29459 H 2585.52 1.72283 3.78758 0
M  V30 29460 H 2584.4 1.86096 5.16391 0
M  V30 29461 H 2584.66 0.295502 4.41111 0
M  V30 29462 N 2583.72 -1.22452 0.992137 0
M  V30 29463 C 2584.94 -1.95738 0.685679 0
M  V30 29464 C 2585.37 -1.72805 -0.74297 0
M  V30 29465 O 2584.73 -1.00679 -1.50776 0
M  V30 29466 C 2584.77 -3.46562 0.996354 0
M  V30 29467 O 2583.88 -4.12291 0.0946236 0
M  V30 29468 H 2583.22 -0.612371 0.256705 0
M  V30 29469 H 2585.75 -1.55567 1.32891 0
M  V30 29470 H 2585.76 -3.97074 0.93788 0
M  V30 29471 H 2584.43 -3.62579 2.03739 0
M  V30 29472 H 2583.01 -3.72317 0.208516 0
M  V30 29473 N 2585.2 -0.765242 -1.37774 0
M  V30 29474 C 2586.14 -0.145315 -2.30342 0
M  V30 29475 C 2587.11 0.696944 -1.50771 0
M  V30 29476 O 2588.3 0.650658 -1.79363 0
M  V30 29477 C 2585.44 0.73288 -3.37228 0
M  V30 29478 C 2584.55 -0.125275 -4.31818 0
M  V30 29479 C 2583.69 0.757014 -5.25778 0
M  V30 29480 C 2582.73 -0.10407 -6.12012 0
M  V30 29481 N 2581.86 0.73583 -6.98233 0
M  V30 29482 H 2586.7 -0.940245 -2.82778 0
M  V30 29483 H 2584.24 -0.47528 -1.3921 0
M  V30 29484 H 2586.2 1.25679 -3.9782 0
M  V30 29485 H 2584.83 1.49348 -2.86173 0
M  V30 29486 H 2583.88 -0.76693 -3.72589 0
M  V30 29487 H 2585.19 -0.789769 -4.92508 0
M  V30 29488 H 2584.35 1.34765 -5.91543 0
M  V30 29489 H 2583.08 1.45521 -4.65484 0
M  V30 29490 H 2582.09 -0.707293 -5.45232 0
M  V30 29491 H 2583.31 -0.7995 -6.74377 0
M  V30 29492 H 2581.26 1.41876 -6.40474 0
M  V30 29493 H 2581.18 0.128491 -7.55891 0
M  V30 29494 H 2582.45 1.31107 -7.68395 0
M  V30 29495 N 2586.67 1.48939 -0.515251 0
M  V30 29496 C 2587.62 2.31038 0.269074 0
M  V30 29497 C 2588.62 1.40294 0.949419 0
M  V30 29498 O 2589.82 1.57275 0.875482 0
M  V30 29499 H 2586.2 0.744543 0.105637 0
M  V30 29500 H 2588.17 2.95091 -0.443148 0
M  V30 29501 C 2586.92 3.21994 1.31207 0
M  V30 29502 H 2586.24 3.91756 0.797966 0
M  V30 29503 H 2587.68 3.82352 1.83257 0
M  V30 29504 C 2586.14 2.4258 2.33787 0
M  V30 29505 O 2586.67 2.14009 3.39946 0
M  V30 29506 N 2584.88 2.04343 2.06621 0
M  V30 29507 H 2584.42 2.27779 1.2031 0
M  V30 29508 H 2584.38 1.51519 2.7548 0
M  V30 29509 N 2588.15 0.249709 1.55609 0
M  V30 29510 C 2589.38 -0.378316 2.03412 0
M  V30 29511 C 2589.8 -1.51333 1.12889 0
M  V30 29512 O 2589.15 -1.81932 0.143865 0
M  V30 29513 C 2589.2 -0.883448 3.50539 0
M  V30 29514 O 2588.93 0.206337 4.37614 0
M  V30 29515 C 2590.43 -1.58188 4.14115 0
M  V30 29516 H 2587.65 -0.0895683 0.664995 0
M  V30 29517 H 2590.19 0.374393 2.01044 0
M  V30 29518 H 2588.35 -1.58633 3.53432 0
M  V30 29519 H 2588.76 -0.17769 5.24199 0
M  V30 29520 H 2590.23 -1.88701 5.18745 0
M  V30 29521 H 2590.71 -2.50481 3.60772 0
M  V30 29522 H 2591.32 -0.9235 4.15152 0
M  V30 29523 N 2589.63 -1.57583 -0.0233682 0
M  V30 29524 C 2590.86 -1.93795 -0.724648 0
M  V30 29525 C 2591.27 -0.849942 -1.68587 0
M  V30 29526 O 2590.63 0.173172 -1.81677 0
M  V30 29527 C 2590.68 -3.29959 -1.47679 0
M  V30 29528 O 2590.4 -4.34581 -0.554145 0
M  V30 29529 C 2591.9 -3.80489 -2.27471 0
M  V30 29530 H 2589.12 -0.639459 -0.203306 0
M  V30 29531 H 2591.67 -2.04489 0.0208013 0
M  V30 29532 H 2589.82 -3.20645 -2.17407 0
M  V30 29533 H 2590.24 -5.13213 -1.08223 0
M  V30 29534 H 2591.71 -4.78259 -2.75631 0
M  V30 29535 H 2592.19 -3.11977 -3.09139 0
M  V30 29536 H 2592.79 -3.92905 -1.62806 0
M  V30 29537 N 2591.11 0.29574 -1.548 0
M  V30 29538 C 2592.34 1.04759 -1.78071 0
M  V30 29539 C 2592.75 1.81244 -0.542879 0
M  V30 29540 O 2592.09 1.76849 0.49702 0
M  V30 29541 C 2592.15 2.07056 -2.93885 0
M  V30 29542 C 2591.82 1.49717 -4.3178 0
M  V30 29543 C 2592.81 0.924491 -5.11614 0
M  V30 29544 C 2590.5 1.53122 -4.78392 0
M  V30 29545 C 2592.49 0.393483 -6.36184 0
M  V30 29546 C 2590.18 0.996341 -6.02923 0
M  V30 29547 C 2591.18 0.428449 -6.81655 0
M  V30 29548 O 2590.87 -0.0983006 -8.0384 0
M  V30 29549 H 2590.6 0.316216 -0.597481 0
M  V30 29550 H 2593.15 0.338938 -2.02584 0
M  V30 29551 H 2591.38 2.81616 -2.65008 0
M  V30 29552 H 2593.07 2.68184 -3.04683 0
M  V30 29553 H 2593.84 0.891052 -4.76744 0
M  V30 29554 H 2589.72 1.96263 -4.17135 0
M  V30 29555 H 2593.26 -0.050424 -6.97582 0
M  V30 29556 H 2589.16 1.02694 -6.37279 0
M  V30 29557 H 2589.92 0.0145016 -8.18499 0
M  V30 29558 N 2592.59 1.47346 0.559187 0
M  V30 29559 C 2593.55 1.59238 1.64851 0
M  V30 29560 C 2594.55 0.467634 1.5385 0
M  V30 29561 O 2595.74 0.732645 1.58044 0
M  V30 29562 C 2592.87 1.53501 3.04385 0
M  V30 29563 H 2594.07 2.56341 1.55657 0
M  V30 29564 H 2591.62 1.35507 0.778949 0
M  V30 29565 H 2592.35 0.57766 3.19114 0
M  V30 29566 H 2592.14 2.35128 3.13779 0
M  V30 29567 H 2593.63 1.64957 3.83639 0
M  V30 29568 N 2594.07 -0.805758 1.35445 0
M  V30 29569 C 2594.98 -1.94921 1.30549 0
M  V30 29570 C 2595.99 -1.72725 0.210264 0
M  V30 29571 O 2597.17 -1.9654 0.439784 0
M  V30 29572 C 2594.23 -3.29519 1.07788 0
M  V30 29573 C 2593.29 -3.64605 2.26632 0
M  V30 29574 C 2592.53 -4.9278 2.04947 0
M  V30 29575 O 2592.75 -5.61272 1.01634 0
M  V30 29576 O 2591.68 -5.26144 2.92329 0
M  V30 29577 H 2595.51 -2.01998 2.26783 0
M  V30 29578 H 2593.09 -0.943661 1.15825 0
M  V30 29579 H 2594.98 -4.10097 0.969464 0
M  V30 29580 H 2593.65 -3.2337 0.14606 0
M  V30 29581 H 2592.56 -2.844 2.43038 0
M  V30 29582 H 2593.89 -3.75459 3.18263 0
M  V30 29583 N 2595.54 -1.19456 -1.02801 0
M  V30 29584 C 2596.49 -0.929711 -2.13211 0
M  V30 29585 C 2597.49 0.114776 -1.69011 0
M  V30 29586 O 2598.69 -0.0345463 -1.79967 0
M  V30 29587 H 2595.07 -0.283252 -0.696615 0
M  V30 29588 H 2597.04 -1.86747 -2.3274 0
M  V30 29589 C 2595.79 -0.485858 -3.44289 0
M  V30 29590 H 2595.11 -1.28112 -3.78718 0
M  V30 29591 H 2596.55 -0.339656 -4.22637 0
M  V30 29592 C 2595.01 0.800187 -3.27259 0
M  V30 29593 O 2595.54 1.8614 -3.5597 0
M  V30 29594 N 2593.74 0.75776 -2.80547 0
M  V30 29595 H 2593.29 -0.106085 -2.57381 0
M  V30 29596 H 2593.25 1.61862 -2.69533 0
M  V30 29597 N 2597.02 1.21924 -0.998617 0
M  V30 29598 C 2597.97 2.26084 -0.546681 0
M  V30 29599 C 2598.96 1.64474 0.405547 0
M  V30 29600 O 2600.17 1.77849 0.27744 0
M  V30 29601 H 2596.54 0.735125 -0.158416 0
M  V30 29602 H 2598.52 2.61548 -1.43649 0
M  V30 29603 C 2597.26 3.47502 0.117327 0
M  V30 29604 H 2596.59 3.95175 -0.606346 0
M  V30 29605 H 2598.03 4.22138 0.396918 0
M  V30 29606 C 2596.49 3.08472 1.35449 0
M  V30 29607 O 2597.02 3.18384 2.44938 0
M  V30 29608 N 2595.22 2.63199 1.23186 0
M  V30 29609 H 2594.77 2.55334 0.340961 0
M  V30 29610 H 2594.73 2.37453 2.06067 0
M  V30 29611 N 2598.5 0.772537 1.37367 0
M  V30 29612 C 2599.41 0.160122 2.34053 0
M  V30 29613 C 2600.43 -0.6787 1.60218 0
M  V30 29614 O 2601.6 -0.598436 1.92304 0
M  V30 29615 C 2598.67 -0.708122 3.39391 0
M  V30 29616 C 2597.73 0.147248 4.29047 0
M  V30 29617 C 2596.96 -0.679651 5.29355 0
M  V30 29618 O 2597.18 -1.91669 5.37233 0
M  V30 29619 O 2596.12 -0.0884386 6.01835 0
M  V30 29620 H 2599.94 0.959103 2.88158 0
M  V30 29621 H 2597.53 0.53371 1.39542 0
M  V30 29622 H 2599.41 -1.20377 4.03841 0
M  V30 29623 H 2598.09 -1.48528 2.87613 0
M  V30 29624 H 2596.99 0.68927 3.67695 0
M  V30 29625 H 2598.33 0.887508 4.84132 0
M  V30 29626 N 2599.98 -1.48664 0.523142 0
M  V30 29627 C 2601.21 -2.06598 -0.00958092 0
M  V30 29628 C 2601.62 -1.38095 -1.29331 0
M  V30 29629 O 2600.96 -0.460101 -1.77845 0
M  V30 29630 C 2601.02 -3.58152 -0.311072 0
M  V30 29631 C 2600.68 -4.48483 0.878171 0
M  V30 29632 C 2601.68 -4.88671 1.77473 0
M  V30 29633 C 2599.37 -4.90481 1.08324 0
M  V30 29634 C 2601.36 -5.69618 2.86031 0
M  V30 29635 C 2599.05 -5.71199 2.17197 0
M  V30 29636 C 2600.05 -6.10675 3.05884 0
M  V30 29637 O 2599.73 -6.89775 4.12874 0
M  V30 29638 H 2599.47 -0.675449 0.0272777 0
M  V30 29639 H 2602.02 -1.92134 0.72619 0
M  V30 29640 H 2600.25 -3.70703 -1.10073 0
M  V30 29641 H 2601.94 -3.98236 -0.785055 0
M  V30 29642 H 2602.7 -4.56853 1.62821 0
M  V30 29643 H 2598.58 -4.59242 0.402229 0
M  V30 29644 H 2602.13 -6.0035 3.55282 0
M  V30 29645 H 2598.02 -6.02431 2.31835 0
M  V30 29646 H 2598.79 -7.08119 4.105 0
M  V30 29647 N 2601.46 -0.257958 -1.55475 0
M  V30 29648 C 2602.68 0.367524 -2.0361 0
M  V30 29649 C 2603.1 1.50732 -1.1369 0
M  V30 29650 O 2602.46 1.81853 -0.153511 0
M  V30 29651 C 2602.51 0.864846 -3.51002 0
M  V30 29652 O 2602.23 -0.229542 -4.37498 0
M  V30 29653 C 2603.73 1.55989 -4.14948 0
M  V30 29654 H 2600.95 0.0860404 -0.665461 0
M  V30 29655 H 2603.49 -0.385049 -2.00842 0
M  V30 29656 H 2601.65 1.56756 -3.54269 0
M  V30 29657 H 2602.06 0.149888 -5.24286 0
M  V30 29658 H 2603.54 1.85947 -5.19738 0
M  V30 29659 H 2604.01 2.48564 -3.62095 0
M  V30 29660 H 2604.62 0.90147 -4.15636 0
M  V30 29661 N 2602.93 1.57593 0.0150108 0
M  V30 29662 C 2604.16 1.94574 0.718033 0
M  V30 29663 C 2604.58 0.859035 1.67339 0
M  V30 29664 O 2603.94 -0.184116 1.80363 0
M  V30 29665 C 2603.99 3.30638 1.43912 0
M  V30 29666 O 2603.09 3.23881 2.55294 0
M  V30 29667 H 2602.44 0.635601 0.192114 0
M  V30 29668 H 2604.97 2.04572 -0.0337068 0
M  V30 29669 H 2604.98 3.65856 1.80591 0
M  V30 29670 H 2603.65 4.0929 0.738547 0
M  V30 29671 H 2602.23 3.00316 2.21053 0
M  V30 29672 N 2604.41 -0.287527 1.54955 0
M  V30 29673 C 2605.32 -1.37733 1.89913 0
M  V30 29674 C 2606.34 -1.5479 0.794729 0
M  V30 29675 O 2607.51 -1.69196 1.09246 0
M  V30 29676 C 2604.58 -2.71896 2.15113 0
M  V30 29677 C 2603.64 -2.63709 3.38757 0
M  V30 29678 C 2602.87 -3.91473 3.62746 0
M  V30 29679 O 2603.1 -4.91473 2.89501 0
M  V30 29680 O 2602.03 -3.92553 4.56274 0
M  V30 29681 H 2605.86 -1.11087 2.82654 0
M  V30 29682 H 2603.44 -0.484782 1.41316 0
M  V30 29683 H 2605.32 -3.5125 2.32812 0
M  V30 29684 H 2604 -2.98358 1.25556 0
M  V30 29685 H 2602.91 -1.8278 3.26408 0
M  V30 29686 H 2604.24 -2.42198 4.28487 0
M  V30 29687 N 2605.89 -1.47641 -0.551365 0
M  V30 29688 C 2606.84 -1.60981 -1.67893 0
M  V30 29689 C 2607.83 -0.476905 -1.62548 0
M  V30 29690 O 2609.04 -0.654907 -1.67663 0
M  V30 29691 H 2605.41 -0.506722 -0.555641 0
M  V30 29692 H 2607.38 -2.55723 -1.53779 0
M  V30 29693 C 2606.13 -1.64674 -3.06232 0
M  V30 29694 H 2605.46 -2.512 -3.11028 0
M  V30 29695 H 2606.9 -1.78056 -3.84801 0
M  V30 29696 C 2605.36 -0.381173 -3.34737 0
M  V30 29697 O 2605.89 0.515226 -3.98382 0
M  V30 29698 N 2604.09 -0.259405 -2.8944 0
M  V30 29699 H 2603.64 -0.989802 -2.37825 0
M  V30 29700 H 2603.6 0.58641 -3.08883 0
M  V30 29701 N 2607.37 0.798563 -1.3587 0
M  V30 29702 C 2608.62 1.55118 -1.28924 0
M  V30 29703 C 2608.93 1.95154 0.132046 0
M  V30 29704 O 2610.14 2.69562 0.323831 0
M  V30 29705 C 2608.59 2.79975 -2.26146 0
M  V30 29706 C 2608.2 2.47145 -3.73662 0
M  V30 29707 C 2609.94 3.57972 -2.28158 0
M  V30 29708 C 2607.85 3.68342 -4.62686 0
M  V30 29709 H 2606.78 0.582267 -0.479042 0
M  V30 29710 H 2609.43 0.877097 -1.61181 0
M  V30 29711 H 2607.81 3.49135 -1.86871 0
M  V30 29712 H 2608.99 1.8594 -4.21619 0
M  V30 29713 H 2607.3 1.82377 -3.74336 0
M  V30 29714 H 2609.9 4.48005 -2.91883 0
M  V30 29715 H 2610.24 3.95889 -1.28755 0
M  V30 29716 H 2610.78 2.95782 -2.66003 0
M  V30 29717 H 2607.52 3.35528 -5.63117 0
M  V30 29718 H 2607.04 4.28744 -4.1945 0
M  V30 29719 H 2608.71 4.35478 -4.78506 0
M  V30 29720 N 2608.85 1.19999 1.02166 0
M  V30 29721 C 2610.07 1.03252 1.79295 0
M  V30 29722 C 2610.49 -0.41847 1.84104 0
M  V30 29723 O 2609.85 -1.29061 1.29033 0
M  V30 29724 C 2609.9 1.60324 3.24004 0
M  V30 29725 O 2609.62 2.99745 3.19507 0
M  V30 29726 C 2611.12 1.4846 4.17701 0
M  V30 29727 H 2608.34 0.363502 0.56401 0
M  V30 29728 H 2610.88 1.58975 1.28636 0
M  V30 29729 H 2609.04 1.08733 3.71828 0
M  V30 29730 H 2609.45 3.26733 4.103 0
M  V30 29731 H 2610.93 1.93162 5.171 0
M  V30 29732 H 2611.4 0.436269 4.37028 0
M  V30 29733 H 2612.01 1.99217 3.75756 0
M  V30 29734 N 2610.32 -1.21392 1.00507 0
M  V30 29735 C 2611.27 -2.23764 0.565535 0
M  V30 29736 C 2612.24 -1.61 -0.408438 0
M  V30 29737 O 2613.43 -1.88257 -0.31047 0
M  V30 29738 C 2610.57 -3.4495 -0.101606 0
M  V30 29739 C 2609.68 -4.22187 0.915554 0
M  V30 29740 C 2608.81 -5.30741 0.220667 0
M  V30 29741 C 2607.85 -5.99709 1.22537 0
M  V30 29742 N 2606.99 -6.99879 0.557954 0
M  V30 29743 H 2611.83 -2.60722 1.44319 0
M  V30 29744 H 2609.37 -1.28125 0.722666 0
M  V30 29745 H 2611.33 -4.14127 -0.505432 0
M  V30 29746 H 2609.96 -3.0872 -0.942976 0
M  V30 29747 H 2609.01 -3.52188 1.43762 0
M  V30 29748 H 2610.32 -4.69652 1.68013 0
M  V30 29749 H 2609.47 -6.06228 -0.239262 0
M  V30 29750 H 2608.21 -4.84283 -0.576315 0
M  V30 29751 H 2607.22 -5.22994 1.69581 0
M  V30 29752 H 2608.44 -6.48255 2.02344 0
M  V30 29753 H 2606.39 -6.55633 -0.21937 0
M  V30 29754 H 2606.31 -7.45413 1.26078 0
M  V30 29755 H 2607.57 -7.79406 0.121232 0
M  V30 29756 N 2611.8 -0.779811 -1.36955 0
M  V30 29757 C 2613.21 -0.412188 -1.82093 0
M  V30 29758 C 2613.56 1.0627 -1.64927 0
M  V30 29759 O 2612.69 1.82373 -1.16486 0
M  V30 29760 C 2613.28 -0.741377 -3.30589 0
M  V30 29761 C 2611.84 -0.426707 -3.73973 0
M  V30 29762 C 2610.99 -0.981032 -2.59367 0
M  V30 29763 H 2613.94 -0.97378 -1.25312 0
M  V30 29764 H 2613.96 -0.0289539 -3.80489 0
M  V30 29765 H 2613.47 -1.81488 -3.43051 0
M  V30 29766 H 2611.58 0.63915 -3.67077 0
M  V30 29767 H 2611.69 -0.940597 -4.69776 0
M  V30 29768 H 2610.05 -0.404802 -2.51463 0
M  V30 29769 H 2610.84 -2.0601 -2.74618 0
M  V30 29770 N 2613.28 1.48384 -0.531019 0
M  V30 29771 C 2614.51 2.074 0.000693079 0
M  V30 29772 C 2614.93 1.38482 1.27296 0
M  V30 29773 O 2614.29 0.451111 1.75598 0
M  V30 29774 C 2614.34 3.60007 0.206634 0
M  V30 29775 O 2613.44 3.92193 1.27507 0
M  V30 29776 H 2612.78 0.662818 -0.0395946 0
M  V30 29777 H 2615.31 1.90779 -0.739228 0
M  V30 29778 H 2615.32 4.05739 0.428969 0
M  V30 29779 H 2614 4.09572 -0.722747 0
M  V30 29780 H 2612.57 3.5824 1.03531 0
M  V30 29781 N 2614.76 0.2662 1.55336 0
M  V30 29782 C 2616.04 -0.404452 1.91373 0
M  V30 29783 C 2616.42 -1.74405 1.18938 0
M  V30 29784 O 2615.76 -2.26343 0.31324 0
M  V30 29785 C 2615.97 -0.553532 3.44582 0
M  V30 29786 C 2617.32 -0.840545 4.16197 0
M  V30 29787 O 2618.35 -0.638677 3.50427 0
M  V30 29788 O 2617.2 -1.22608 5.32569 0
M  V30 29789 H 2614.3 -0.220011 0.797198 0
M  V30 29790 H 2616.84 0.311694 1.66813 0
M  V30 29791 H 2615.62 0.389566 3.89356 0
M  V30 29792 H 2615.24 -1.31949 3.75067 0
M  V30 29793 N 2616.24 -1.57599 -0.0066531 0
M  V30 29794 C 2617.17 -2.04841 -1.02824 0
M  V30 29795 C 2618.18 -0.965136 -1.31107 0
M  V30 29796 O 2619.37 -1.24206 -1.282 0
M  V30 29797 C 2616.47 -2.42775 -2.3646 0
M  V30 29798 C 2615.64 -3.73755 -2.27213 0
M  V30 29799 C 2614.7 -3.98631 -3.43482 0
M  V30 29800 O 2613.73 -4.69388 -3.21968 0
M  V30 29801 N 2614.93 -3.46008 -4.6611 0
M  V30 29802 H 2617.7 -2.93102 -0.625404 0
M  V30 29803 H 2615.26 -1.60731 -0.19417 0
M  V30 29804 H 2617.25 -2.56536 -3.13004 0
M  V30 29805 H 2615.82 -1.60068 -2.68509 0
M  V30 29806 H 2615.04 -3.70135 -1.35623 0
M  V30 29807 H 2616.33 -4.59637 -2.182 0
M  V30 29808 H 2615.72 -2.88697 -4.86488 0
M  V30 29809 H 2614.28 -3.6511 -5.39942 0
M  V30 29810 N 2617.72 0.279305 -1.55105 0
M  V30 29811 C 2618.66 1.36502 -1.88335 0
M  V30 29812 C 2619.66 1.51441 -0.75907 0
M  V30 29813 O 2620.86 1.53301 -0.943339 0
M  V30 29814 H 2617.24 0.456395 -0.597668 0
M  V30 29815 H 2619.21 1.05723 -2.79043 0
M  V30 29816 C 2617.96 2.71966 -2.16633 0
M  V30 29817 H 2617.28 2.61259 -3.02628 0
M  V30 29818 H 2618.72 3.4689 -2.43809 0
M  V30 29819 C 2617.18 3.22578 -0.971864 0
M  V30 29820 O 2617.71 4.01185 -0.203298 0
M  V30 29821 N 2615.92 2.80178 -0.771287 0
M  V30 29822 H 2615.46 2.16368 -1.39796 0
M  V30 29823 H 2615.42 3.14389 0.0263114 0
M  V30 29824 N 2619.19 1.47931 0.543528 0
M  V30 29825 C 2620.42 1.58896 1.32513 0
M  V30 29826 C 2620.84 0.244164 1.87215 0
M  V30 29827 O 2620.19 -0.764623 1.6571 0
M  V30 29828 C 2620.24 2.62499 2.48549 0
M  V30 29829 O 2619.97 3.91758 1.96105 0
M  V30 29830 C 2621.47 2.83776 3.40567 0
M  V30 29831 H 2618.69 0.536152 0.403463 0
M  V30 29832 H 2621.23 1.93656 0.657072 0
M  V30 29833 H 2619.39 2.30634 3.11266 0
M  V30 29834 H 2619.8 4.48485 2.71959 0
M  V30 29835 H 2621.27 3.601 4.18368 0
M  V30 29836 H 2621.75 1.92099 3.94962 0
M  V30 29837 H 2622.36 3.16892 2.83654 0
M  V30 29838 N 2620.67 -0.791347 1.36292 0
M  V30 29839 C 2621.58 -1.93525 1.32609 0
M  V30 29840 C 2622.6 -1.72492 0.228572 0
M  V30 29841 O 2623.77 -1.96062 0.460605 0
M  V30 29842 C 2620.84 -3.28357 1.11277 0
M  V30 29843 C 2619.9 -3.62181 2.30486 0
M  V30 29844 C 2619.13 -4.90579 2.10162 0
M  V30 29845 O 2619.36 -5.60163 1.07582 0
M  V30 29846 O 2618.29 -5.23014 2.97893 0
M  V30 29847 H 2622.12 -1.99581 2.28913 0
M  V30 29848 H 2619.7 -0.931323 1.16819 0
M  V30 29849 H 2621.58 -4.09045 1.01291 0
M  V30 29850 H 2620.26 -3.23197 0.180349 0
M  V30 29851 H 2619.16 -2.81806 2.46041 0
M  V30 29852 H 2620.5 -3.72062 3.22228 0
M  V30 29853 N 2622.15 -1.2054 -1.01528 0
M  V30 29854 C 2623.1 -0.952272 -2.12213 0
M  V30 29855 C 2624.09 0.0968438 -1.69123 0
M  V30 29856 O 2625.3 -0.0536323 -1.7992 0
M  V30 29857 H 2621.67 -0.290625 -0.693571 0
M  V30 29858 H 2623.64 -1.89205 -2.30746 0
M  V30 29859 C 2622.39 -0.522347 -3.43754 0
M  V30 29860 H 2621.72 -1.32121 -3.77338 0
M  V30 29861 H 2623.16 -0.384464 -4.22253 0
M  V30 29862 C 2621.61 0.765431 -3.2809 0
M  V30 29863 O 2622.14 1.82354 -3.57924 0
M  V30 29864 N 2620.35 0.727962 -2.81334 0
M  V30 29865 H 2619.9 -0.133377 -2.57254 0
M  V30 29866 H 2619.86 1.58994 -2.71235 0
M  V30 29867 N 2623.63 1.20858 -1.01149 0
M  V30 29868 C 2624.86 1.938 -0.715906 0
M  V30 29869 C 2625.27 1.74693 0.726561 0
M  V30 29870 O 2624.61 1.05484 1.50395 0
M  V30 29871 C 2624.67 3.46297 -0.96533 0
M  V30 29872 C 2624.33 3.8916 -2.39591 0
M  V30 29873 C 2625.33 3.95336 -3.37647 0
M  V30 29874 C 2623.02 4.21292 -2.73529 0
M  V30 29875 C 2625.01 4.33047 -4.67706 0
M  V30 29876 C 2622.7 4.5868 -4.03802 0
M  V30 29877 C 2623.7 4.64529 -5.00702 0
M  V30 29878 O 2623.38 5.01061 -6.28644 0
M  V30 29879 H 2623.12 0.622938 -0.262535 0
M  V30 29880 H 2625.67 1.5444 -1.35415 0
M  V30 29881 H 2623.9 3.85757 -0.269915 0
M  V30 29882 H 2625.59 4.00463 -0.662121 0
M  V30 29883 H 2626.35 3.70681 -3.12763 0
M  V30 29884 H 2622.23 4.15933 -1.98797 0
M  V30 29885 H 2625.78 4.37528 -5.43337 0
M  V30 29886 H 2621.67 4.8279 -4.28468 0
M  V30 29887 H 2622.44 5.19072 -6.32856 0
M  V30 29888 N 2625.11 0.787064 1.3654 0
M  V30 29889 C 2626.35 0.357668 1.9891 0
M  V30 29890 C 2626.67 -1.07368 1.6278 0
M  V30 29891 O 2625.94 -1.73969 0.900642 0
M  V30 29892 H 2624.52 0.129259 0.735732 0
M  V30 29893 H 2627.19 1.00858 1.66774 0
M  V30 29894 H 2626.28 0.447603 3.08874 0
M  V30 29895 N 2626.58 -1.48101 0.53888 0
M  V30 29896 C 2627.81 -2.06896 0.01235 0
M  V30 29897 C 2628.23 -1.39419 -1.2731 0
M  V30 29898 O 2627.58 -0.484613 -1.75948 0
M  V30 29899 C 2627.63 -3.60912 -0.206055 0
M  V30 29900 O 2627.36 -4.25857 1.02847 0
M  V30 29901 C 2628.86 -4.36527 -0.771956 0
M  V30 29902 H 2626.08 -0.669949 0.0375357 0
M  V30 29903 H 2628.62 -1.90366 0.747065 0
M  V30 29904 H 2626.78 -3.77018 -0.890844 0
M  V30 29905 H 2627.19 -5.18133 0.814745 0
M  V30 29906 H 2628.66 -5.45034 -0.874155 0
M  V30 29907 H 2629.14 -4.01559 -1.77897 0
M  V30 29908 H 2629.75 -4.25121 -0.123451 0
M  V30 29909 N 2628.06 -0.274434 -1.55192 0
M  V30 29910 C 2629.01 0.613335 -2.22501 0
M  V30 29911 C 2629.98 1.15027 -1.19825 0
M  V30 29912 O 2631.16 1.1997 -1.48364 0
M  V30 29913 C 2628.3 1.79194 -2.9493 0
M  V30 29914 C 2627.42 1.28892 -4.12324 0
M  V30 29915 C 2626.55 2.42926 -4.72398 0
M  V30 29916 C 2625.59 1.89624 -5.81987 0
M  V30 29917 N 2624.73 2.97129 -6.36128 0
M  V30 29918 H 2629.57 0.0327036 -2.97982 0
M  V30 29919 H 2627.1 0.0043756 -1.47099 0
M  V30 29920 H 2629.06 2.48472 -3.35138 0
M  V30 29921 H 2627.69 2.34461 -2.21874 0
M  V30 29922 H 2626.74 0.48926 -3.77241 0
M  V30 29923 H 2628.06 0.858501 -4.91356 0
M  V30 29924 H 2627.21 3.20199 -5.15323 0
M  V30 29925 H 2625.95 2.89283 -3.92641 0
M  V30 29926 H 2624.95 1.10831 -5.38513 0
M  V30 29927 H 2626.18 1.44204 -6.63613 0
M  V30 29928 H 2624.13 3.42869 -5.59265 0
M  V30 29929 H 2624.04 2.58502 -7.10431 0
M  V30 29930 H 2625.31 3.74379 -6.83711 0
M  V30 29931 N 2629.54 1.576 -0.00170483 0
M  V30 29932 C 2630.47 2.03978 1.02313 0
M  V30 29933 C 2631.45 0.929987 1.33379 0
M  V30 29934 O 2632.63 1.19824 1.45514 0
M  V30 29935 C 2629.76 2.43882 2.35031 0
M  V30 29936 C 2628.81 3.65611 2.19615 0
M  V30 29937 S 2629.64 5.13457 1.52059 0
M  V30 29938 C 2630.8 5.56632 2.86203 0
M  V30 29939 H 2631.03 2.90586 0.628234 0
M  V30 29940 H 2628.56 1.52976 0.209212 0
M  V30 29941 H 2630.52 2.6754 3.1134 0
M  V30 29942 H 2629.18 1.5767 2.7166 0
M  V30 29943 H 2628.37 3.91288 3.17663 0
M  V30 29944 H 2627.98 3.41964 1.51449 0
M  V30 29945 H 2630.27 5.59196 3.825 0
M  V30 29946 H 2631.21 6.56553 2.65223 0
M  V30 29947 H 2631.62 4.842 2.9019 0
M  V30 29948 N 2631.02 -0.271076 1.55251 0
M  V30 29949 C 2632.43 -0.841978 1.66636 0
M  V30 29950 C 2632.78 -1.86971 0.594664 0
M  V30 29951 O 2631.9 -2.1479 -0.263494 0
M  V30 29952 C 2632.5 -1.53396 3.02085 0
M  V30 29953 C 2631.06 -2.05287 3.1549 0
M  V30 29954 C 2630.21 -0.895585 2.6244 0
M  V30 29955 H 2633.16 -0.0473838 1.58629 0
M  V30 29956 H 2633.18 -2.40102 2.9518 0
M  V30 29957 H 2632.69 -0.785719 3.80063 0
M  V30 29958 H 2630.79 -2.83067 2.42289 0
M  V30 29959 H 2630.9 -2.26686 4.22079 0
M  V30 29960 H 2629.27 -1.28949 2.19646 0
M  V30 29961 H 2630.05 -0.160818 3.42923 0
M  V30 29962 N 2632.5 -1.48217 -0.535675 0
M  V30 29963 C 2633.72 -1.5985 -1.32147 0
M  V30 29964 C 2634.15 -0.256874 -1.86338 0
M  V30 29965 O 2633.5 0.770603 -1.64108 0
M  V30 29966 C 2633.55 -2.64386 -2.45219 0
M  V30 29967 O 2632.66 -2.2115 -3.48089 0
M  V30 29968 H 2632 -0.536215 -0.391624 0
M  V30 29969 H 2634.53 -1.94162 -0.645168 0
M  V30 29970 H 2634.54 -2.85481 -2.91486 0
M  V30 29971 H 2633.21 -3.6179 -2.05137 0
M  V30 29972 H 2631.79 -2.10244 -3.0798 0
M  V30 29973 N 2633.97 0.784108 -1.3671 0
M  V30 29974 C 2635.39 1.35962 -1.2795 0
M  V30 29975 C 2635.74 1.96043 0.0783668 0
M  V30 29976 O 2634.86 1.9294 0.979955 0
M  V30 29977 C 2635.46 2.47191 -2.31693 0
M  V30 29978 C 2634.02 3.00544 -2.26606 0
M  V30 29979 C 2633.16 1.73662 -2.16187 0
M  V30 29980 H 2636.11 0.585332 -1.47511 0
M  V30 29981 H 2636.13 3.26349 -1.95644 0
M  V30 29982 H 2635.65 2.03433 -3.30509 0
M  V30 29983 H 2633.75 3.48709 -1.31274 0
M  V30 29984 H 2633.86 3.56998 -3.19514 0
M  V30 29985 H 2632.22 1.96104 -1.62528 0
M  V30 29986 H 2633.01 1.32025 -3.16898 0
M  V30 29987 N 2635.45 1.21076 1.00888 0
M  V30 29988 C 2636.68 1.05224 1.78725 0
M  V30 29989 C 2637.1 -0.393762 1.83932 0
M  V30 29990 O 2636.46 -1.2839 1.28006 0
M  V30 29991 C 2636.51 1.64949 3.20662 0
M  V30 29992 O 2635.61 0.892344 4.0263 0
M  V30 29993 H 2634.95 0.370583 0.550966 0
M  V30 29994 H 2637.48 1.60536 1.26844 0
M  V30 29995 H 2637.49 1.69008 3.71349 0
M  V30 29996 H 2636.17 2.70183 3.16187 0
M  V30 29997 H 2634.75 0.926555 3.61205 0
M  V30 29998 N 2636.93 -1.2032 1.01789 0
M  V30 29999 C 2638.18 -1.89721 0.70797 0
M  V30 30000 C 2638.51 -1.78931 -0.762504 0
M  V30 30001 O 2637.76 -1.16864 -1.56975 0
M  V30 30002 C 2638.06 -3.40347 1.09082 0
M  V30 30003 C 2637.73 -3.71338 2.55772 0
M  V30 30004 C 2636.39 -3.79506 2.95852 0
M  V30 30005 C 2638.74 -3.85536 3.5073 0
M  V30 30006 C 2636.07 -3.99332 4.29827 0
M  V30 30007 C 2638.42 -4.06872 4.84394 0
M  V30 30008 C 2637.08 -4.1327 5.24179 0
M  V30 30009 H 2636.35 -0.694238 0.259064 0
M  V30 30010 H 2639 -1.42553 1.27871 0
M  V30 30011 H 2637.31 -3.89338 0.438521 0
M  V30 30012 H 2639 -3.92344 0.828705 0
M  V30 30013 H 2635.59 -3.6558 2.23717 0
M  V30 30014 H 2639.78 -3.78579 3.20923 0
M  V30 30015 H 2635.03 -4.02521 4.60203 0
M  V30 30016 H 2639.21 -4.16801 5.57898 0
M  V30 30017 H 2636.83 -4.28385 6.28005 0
M  V30 30018 N 2638.41 -0.794293 -1.3612 0
M  V30 30019 C 2639.66 -0.365499 -1.98361 0
M  V30 30020 C 2639.97 1.06994 -1.63742 0
M  V30 30021 O 2641.18 1.60125 -2.19254 0
M  V30 30022 C 2639.63 -0.602558 -3.5482 0
M  V30 30023 C 2639.24 -2.04974 -3.98359 0
M  V30 30024 C 2640.98 -0.238511 -4.23829 0
M  V30 30025 C 2638.89 -2.2332 -5.47615 0
M  V30 30026 H 2637.82 -0.132923 -0.742191 0
M  V30 30027 H 2640.47 -0.976617 -1.55353 0
M  V30 30028 H 2638.85 0.0783394 -3.95923 0
M  V30 30029 H 2640.03 -2.76743 -3.68442 0
M  V30 30030 H 2638.34 -2.37249 -3.42202 0
M  V30 30031 H 2640.94 -0.353798 -5.33528 0
M  V30 30032 H 2641.28 0.813935 -4.08266 0
M  V30 30033 H 2641.82 -0.872838 -3.88106 0
M  V30 30034 H 2638.56 -3.26965 -5.68132 0
M  V30 30035 H 2638.08 -1.5606 -5.79142 0
M  V30 30036 H 2639.75 -2.04271 -6.13907 0
M  V30 30037 N 2639.89 1.47813 -0.546727 0
M  V30 30038 C 2640.82 2.27896 0.244156 0
M  V30 30039 C 2641.83 1.36379 0.889086 0
M  V30 30040 O 2643.02 1.6129 0.764704 0
M  V30 30041 C 2640.12 3.10307 1.36246 0
M  V30 30042 C 2639.29 4.29715 0.816306 0
M  V30 30043 C 2638.35 4.93804 1.8178 0
M  V30 30044 O 2637.38 5.52514 1.36808 0
M  V30 30045 N 2638.58 4.87552 3.15076 0
M  V30 30046 H 2641.35 2.96412 -0.442746 0
M  V30 30047 H 2638.91 1.57326 -0.382123 0
M  V30 30048 H 2640.9 3.50049 2.03096 0
M  V30 30049 H 2639.47 2.44102 1.95276 0
M  V30 30050 H 2638.69 3.9419 -0.0286674 0
M  V30 30051 H 2639.98 5.06975 0.430579 0
M  V30 30052 H 2639.37 4.41035 3.54267 0
M  V30 30053 H 2637.93 5.31345 3.77512 0
M  V30 30054 N 2641.36 0.28266 1.55044 0
M  V30 30055 C 2642.61 -0.332633 1.98938 0
M  V30 30056 C 2642.93 -1.56407 1.17458 0
M  V30 30057 O 2644.13 -2.25279 1.51531 0
M  V30 30058 C 2642.59 -0.643164 3.54107 0
M  V30 30059 C 2642.2 0.568892 4.44373 0
M  V30 30060 C 2643.94 -1.22066 4.06571 0
M  V30 30061 C 2641.85 0.23253 5.90943 0
M  V30 30062 H 2640.78 -0.128062 0.743045 0
M  V30 30063 H 2643.43 0.388496 1.7934 0
M  V30 30064 H 2641.81 -1.4234 3.69534 0
M  V30 30065 H 2642.98 1.34559 4.40716 0
M  V30 30066 H 2641.3 1.06376 4.02583 0
M  V30 30067 H 2643.9 -1.48626 5.13629 0
M  V30 30068 H 2644.24 -2.157 3.5606 0
M  V30 30069 H 2644.77 -0.502552 3.94613 0
M  V30 30070 H 2641.51 1.13695 6.45565 0
M  V30 30071 H 2641.03 -0.507252 5.97651 0
M  V30 30072 H 2642.71 -0.172543 6.4677 0
M  V30 30073 N 2642.84 -1.57597 0.0100627 0
M  V30 30074 C 2644.12 -1.82249 -0.710264 0
M  V30 30075 C 2644.5 -0.889945 -1.91424 0
M  V30 30076 O 2643.85 0.0589891 -2.28424 0
M  V30 30077 C 2644.06 -3.30995 -1.1065 0
M  V30 30078 C 2645.41 -3.96989 -1.50614 0
M  V30 30079 O 2646.43 -3.35378 -1.20001 0
M  V30 30080 O 2645.29 -5.05543 -2.07578 0
M  V30 30081 H 2642.38 -0.750811 -0.346717 0
M  V30 30082 H 2644.93 -1.69661 0.0362876 0
M  V30 30083 H 2643.7 -3.90508 -0.248758 0
M  V30 30084 H 2643.32 -3.48619 -1.91183 0
M  V30 30085 N 2644.32 0.262839 -1.55393 0
M  V30 30086 C 2645.27 1.32513 -1.88968 0
M  V30 30087 C 2646.24 1.48595 -0.742213 0
M  V30 30088 O 2647.42 1.62837 -0.994419 0
M  V30 30089 C 2644.56 2.67854 -2.17596 0
M  V30 30090 C 2643.68 2.59911 -3.45066 0
M  V30 30091 C 2642.81 3.87499 -3.63343 0
M  V30 30092 C 2641.85 3.74107 -4.84469 0
M  V30 30093 N 2640.99 4.93552 -4.9935 0
M  V30 30094 H 2645.83 1.03179 -2.79568 0
M  V30 30095 H 2643.36 0.498261 -1.38404 0
M  V30 30096 H 2645.32 3.46613 -2.32196 0
M  V30 30097 H 2643.95 2.95369 -1.3022 0
M  V30 30098 H 2643 1.72806 -3.38884 0
M  V30 30099 H 2644.32 2.45919 -4.33965 0
M  V30 30100 H 2643.47 4.747 -3.77815 0
M  V30 30101 H 2642.21 4.04369 -2.72648 0
M  V30 30102 H 2641.21 2.85289 -4.6999 0
M  V30 30103 H 2642.44 3.58746 -5.76609 0
M  V30 30104 H 2640.38 5.10814 -4.11589 0
M  V30 30105 H 2640.3 4.8213 -5.82311 0
M  V30 30106 H 2641.57 5.82297 -5.18218 0
M  V30 30107 N 2645.8 1.48499 0.527807 0
M  V30 30108 C 2647.04 1.56859 1.28542 0
M  V30 30109 C 2647.38 0.242685 1.92678 0
M  V30 30110 O 2646.65 -0.751514 1.79395 0
M  V30 30111 C 2646.94 2.70843 2.3731 0
M  V30 30112 C 2646.79 4.13146 1.77851 0
M  V30 30113 C 2648.11 2.80579 3.39063 0
M  V30 30114 H 2645.23 0.570979 0.465996 0
M  V30 30115 H 2647.87 1.80681 0.587752 0
M  V30 30116 H 2646.02 2.50663 2.96817 0
M  V30 30117 H 2647.69 4.44771 1.22377 0
M  V30 30118 H 2645.93 4.20044 1.08375 0
M  V30 30119 H 2646.6 4.88725 2.56615 0
M  V30 30120 H 2649.08 2.98867 2.89513 0
M  V30 30121 H 2647.96 3.62058 4.1256 0
M  V30 30122 H 2648.22 1.88825 3.99747 0
M  V30 30123 N 2647.28 -0.776847 1.37123 0
M  V30 30124 C 2648.23 -1.91135 1.32552 0
M  V30 30125 C 2649.22 -1.68028 0.215149 0
M  V30 30126 O 2650.43 -1.75881 0.382883 0
M  V30 30127 H 2646.8 -0.628463 0.412963 0
M  V30 30128 H 2648.77 -1.92108 2.28335 0
M  V30 30129 C 2647.52 -3.28331 1.14428 0
M  V30 30130 H 2646.84 -3.46686 1.99121 0
M  V30 30131 H 2648.28 -4.08028 1.15279 0
M  V30 30132 C 2646.74 -3.36564 -0.150375 0
M  V30 30133 O 2647.27 -3.85309 -1.13577 0
M  V30 30134 N 2645.48 -2.89916 -0.199339 0
M  V30 30135 H 2645.03 -2.50438 0.603186 0
M  V30 30136 H 2644.98 -2.95805 -1.06521 0
M  V30 30137 N 2648.76 -1.2161 -1.00244 0
M  V30 30138 C 2649.69 -0.935438 -2.09242 0
M  V30 30139 C 2650.7 0.0823308 -1.62592 0
M  V30 30140 O 2651.89 -0.150487 -1.77865 0
M  V30 30141 C 2648.99 -0.383512 -3.36723 0
M  V30 30142 C 2648.16 -1.45623 -4.12447 0
M  V30 30143 C 2647.22 -0.913082 -5.18217 0
M  V30 30144 O 2646.25 -1.59711 -5.46334 0
M  V30 30145 N 2647.45 0.270377 -5.7987 0
M  V30 30146 H 2650.21 -1.87377 -2.33902 0
M  V30 30147 H 2647.78 -1.12169 -1.16746 0
M  V30 30148 H 2649.77 -0.0056927 -4.047 0
M  V30 30149 H 2648.34 0.459704 -3.09201 0
M  V30 30150 H 2647.56 -2.00778 -3.39237 0
M  V30 30151 H 2648.85 -2.17825 -4.59815 0
M  V30 30152 H 2648.24 0.843097 -5.59382 0
M  V30 30153 H 2646.8 0.58968 -6.49127 0
M  V30 30154 N 2650.23 1.19778 -1.02425 0
M  V30 30155 C 2651.17 2.22274 -0.559192 0
M  V30 30156 C 2652.18 1.58713 0.362482 0
M  V30 30157 O 2653.37 1.77785 0.15961 0
M  V30 30158 C 2650.47 3.38279 0.205035 0
M  V30 30159 C 2649.64 4.31426 -0.720437 0
M  V30 30160 C 2648.7 5.262 -0.00243618 0
M  V30 30161 O 2647.73 5.65731 -0.627477 0
M  V30 30162 N 2648.93 5.6644 1.26987 0
M  V30 30163 H 2651.69 2.62801 -1.44068 0
M  V30 30164 H 2649.25 1.34397 -0.902716 0
M  V30 30165 H 2651.25 3.98691 0.694798 0
M  V30 30166 H 2649.82 2.9658 0.987895 0
M  V30 30167 H 2649.04 3.68866 -1.39037 0
M  V30 30168 H 2650.32 4.90575 -1.34959 0
M  V30 30169 H 2649.72 5.3635 1.79849 0
M  V30 30170 H 2648.28 6.29126 1.70421 0
M  V30 30171 N 2651.71 0.801501 1.35697 0
M  V30 30172 C 2652.99 0.302971 1.93239 0
M  V30 30173 C 2653.37 -1.20669 1.73211 0
M  V30 30174 O 2652.72 -2.00383 1.09812 0
M  V30 30175 C 2652.93 0.708807 3.41726 0
M  V30 30176 C 2654.27 0.695402 4.18867 0
M  V30 30177 O 2655.3 0.650033 3.50219 0
M  V30 30178 O 2654.16 0.749176 5.41341 0
M  V30 30179 H 2651.25 0.0780511 0.823309 0
M  V30 30180 H 2653.8 0.884857 1.44805 0
M  V30 30181 H 2652.57 1.7495 3.50012 0
M  V30 30182 H 2652.19 0.101454 3.97471 0
M  V30 30183 N 2653.19 -1.47521 0.554558 0
M  V30 30184 C 2654.12 -2.28022 -0.232066 0
M  V30 30185 C 2655.13 -1.36848 -0.881841 0
M  V30 30186 O 2656.32 -1.61693 -0.75614 0
M  V30 30187 C 2653.42 -3.11025 -1.34599 0
M  V30 30188 C 2652.6 -4.30142 -0.793506 0
M  V30 30189 C 2651.66 -4.94761 -1.79159 0
M  V30 30190 O 2650.68 -5.53232 -1.33876 0
M  V30 30191 N 2651.88 -4.89216 -3.12486 0
M  V30 30192 H 2654.65 -2.96173 0.458459 0
M  V30 30193 H 2652.21 -1.57121 0.390461 0
M  V30 30194 H 2654.2 -3.51121 -2.01236 0
M  V30 30195 H 2652.77 -2.45134 -1.93979 0
M  V30 30196 H 2651.99 -3.94169 0.0495718 0
M  V30 30197 H 2653.28 -5.07196 -0.403686 0
M  V30 30198 H 2652.68 -4.42907 -3.51923 0
M  V30 30199 H 2651.23 -5.3334 -3.74689 0
M  V30 30200 N 2654.67 -0.290879 -1.54892 0
M  V30 30201 C 2655.6 0.623197 -2.20565 0
M  V30 30202 C 2656.61 1.10537 -1.19521 0
M  V30 30203 O 2657.8 1.02457 -1.46167 0
M  V30 30204 C 2654.9 1.86396 -2.83037 0
M  V30 30205 C 2654.07 1.52597 -4.09918 0
M  V30 30206 C 2653.13 2.62083 -4.56288 0
M  V30 30207 O 2652.16 2.27602 -5.21714 0
M  V30 30208 N 2653.36 3.92438 -4.27753 0
M  V30 30209 H 2656.13 0.0610388 -2.99638 0
M  V30 30210 H 2653.69 -0.112643 -1.61508 0
M  V30 30211 H 2655.68 2.58968 -3.10995 0
M  V30 30212 H 2654.25 2.33477 -2.07864 0
M  V30 30213 H 2653.47 0.633356 -3.89079 0
M  V30 30214 H 2654.76 1.27539 -4.92556 0
M  V30 30215 H 2654.16 4.23265 -3.75317 0
M  V30 30216 H 2652.71 4.61339 -4.60445 0
M  V30 30217 N 2656.15 1.57589 -0.0184203 0
M  V30 30218 C 2657.09 2.10711 0.985074 0
M  V30 30219 C 2658.09 1.03122 1.34395 0
M  V30 30220 O 2659.29 1.21569 1.32744 0
M  V30 30221 H 2655.67 0.673058 0.335406 0
M  V30 30222 H 2657.64 2.93981 0.511638 0
M  V30 30223 C 2656.39 2.64065 2.26197 0
M  V30 30224 H 2655.71 3.46494 1.99454 0
M  V30 30225 H 2657.15 3.04892 2.94647 0
M  V30 30226 C 2655.61 1.56315 2.98441 0
M  V30 30227 O 2656.14 0.956742 3.9014 0
M  V30 30228 N 2654.35 1.28617 2.60588 0
M  V30 30229 H 2653.89 1.78116 1.86098 0
M  V30 30230 H 2653.85 0.567461 3.09237 0
M  V30 30231 N 2657.62 -0.254594 1.5553 0
M  V30 30232 C 2658.9 -1.00608 1.67742 0
M  V30 30233 C 2659.28 -2.03646 0.556029 0
M  V30 30234 O 2658.63 -2.24193 -0.441544 0
M  V30 30235 C 2658.84 -1.64635 3.07728 0
M  V30 30236 C 2660.19 -2.15109 3.66078 0
M  V30 30237 O 2661.21 -1.74589 3.10479 0
M  V30 30238 O 2660.07 -2.89485 4.63531 0
M  V30 30239 H 2657.16 -0.467816 0.681966 0
M  V30 30240 H 2659.71 -0.24899 1.67863 0
M  V30 30241 H 2658.48 -0.900667 3.80793 0
M  V30 30242 H 2658.1 -2.46984 3.11584 0
M  V30 30243 N 2659.1 -1.48777 -0.519925 0
M  V30 30244 C 2660.06 -1.63553 -1.60571 0
M  V30 30245 C 2661.06 -0.50826 -1.52556 0
M  V30 30246 O 2662.25 -0.77429 -1.56046 0
M  V30 30247 C 2659.39 -1.61517 -3.00208 0
M  V30 30248 H 2660.58 -2.60378 -1.48806 0
M  V30 30249 H 2658.13 -1.37524 -0.742748 0
M  V30 30250 H 2658.87 -0.662065 -3.1747 0
M  V30 30251 H 2658.65 -2.43365 -3.07435 0
M  V30 30252 H 2660.14 -1.75071 -3.79131 0
M  V30 30253 N 2660.58 0.769564 -1.37534 0
M  V30 30254 C 2661.53 1.87316 -1.29988 0
M  V30 30255 C 2662.51 1.59806 -0.18727 0
M  V30 30256 O 2663.71 1.71899 -0.421857 0
M  V30 30257 C 2660.83 3.24815 -1.11131 0
M  V30 30258 C 2659.92 3.58269 -2.26946 0
M  V30 30259 N 2660.31 3.62889 -3.52342 0
M  V30 30260 C 2658.61 3.88446 -2.19148 0
M  V30 30261 C 2659.31 3.93153 -4.28726 0
M  V30 30262 N 2658.29 4.09164 -3.57891 0
M  V30 30263 H 2662.09 1.89143 -2.24949 0
M  V30 30264 H 2659.6 0.96612 -1.30537 0
M  V30 30265 H 2661.6 4.03768 -1.03811 0
M  V30 30266 H 2660.26 3.2425 -0.170887 0
M  V30 30267 H 2661.27 3.45041 -3.86222 0
M  V30 30268 H 2657.95 3.9569 -1.33174 0
M  V30 30269 H 2659.34 4.03485 -5.37261 0
M  V30 30270 N 2662.06 1.22139 0.995977 0
M  V30 30271 C 2663.31 1.03824 1.72926 0
M  V30 30272 C 2663.62 -0.427411 1.90873 0
M  V30 30273 O 2664.83 -0.730166 2.61497 0
M  V30 30274 C 2663.28 1.80919 3.11121 0
M  V30 30275 C 2662.89 3.31713 3.01116 0
M  V30 30276 C 2664.63 1.71041 3.88517 0
M  V30 30277 C 2662.54 4.01261 4.34446 0
M  V30 30278 H 2661.47 0.384881 0.648369 0
M  V30 30279 H 2664.12 1.45961 1.1121 0
M  V30 30280 H 2662.5 1.31579 3.73501 0
M  V30 30281 H 2663.68 3.88423 2.4792 0
M  V30 30282 H 2661.99 3.42232 2.37204 0
M  V30 30283 H 2664.59 2.20327 4.87196 0
M  V30 30284 H 2664.93 0.670268 4.10869 0
M  V30 30285 H 2665.47 2.17907 3.32808 0
M  V30 30286 H 2662.21 5.05516 4.17294 0
M  V30 30287 H 2661.73 3.49339 4.87568 0
M  V30 30288 H 2663.4 4.06683 5.03208 0
M  V30 30289 N 2663.54 -1.19233 1.03059 0
M  V30 30290 C 2664.45 -2.26178 0.622962 0
M  V30 30291 C 2665.46 -1.70523 -0.346083 0
M  V30 30292 O 2666.64 -2.00369 -0.203537 0
M  V30 30293 C 2663.7 -3.46695 -0.0181454 0
M  V30 30294 C 2662.76 -4.17524 0.998619 0
M  V30 30295 C 2662 -5.32288 0.388011 0
M  V30 30296 O 2662.22 -5.6464 -0.808569 0
M  V30 30297 O 2661.15 -5.91544 1.11171 0
M  V30 30298 H 2664.98 -2.6329 1.51368 0
M  V30 30299 H 2662.57 -1.2612 0.800878 0
M  V30 30300 H 2664.45 -4.19723 -0.375532 0
M  V30 30301 H 2663.12 -3.11428 -0.88284 0
M  V30 30302 H 2662.03 -3.46608 1.40762 0
M  V30 30303 H 2663.36 -4.56766 1.83374 0
M  V30 30304 N 2665.01 -0.808686 -1.3527 0
M  V30 30305 C 2666.24 -0.401511 -2.03476 0
M  V30 30306 C 2666.66 0.98025 -1.60539 0
M  V30 30307 O 2666.02 1.63517 -0.783068 0
M  V30 30308 C 2666.07 -0.495416 -3.57181 0
M  V30 30309 O 2665.17 0.490325 -4.09475 0
M  V30 30310 H 2664.52 -0.167377 -0.642558 0
M  V30 30311 H 2667.05 -1.09515 -1.72822 0
M  V30 30312 H 2667.06 -0.365983 -4.06355 0
M  V30 30313 H 2665.73 -1.50327 -3.87782 0
M  V30 30314 H 2664.31 0.320958 -3.71516 0
M  V30 30315 N 2666.49 1.47225 -0.562374 0
M  V30 30316 C 2667.72 2.07355 -0.0432997 0
M  V30 30317 C 2668.14 1.41151 1.2433 0
M  V30 30318 O 2667.5 0.488257 1.74602 0
M  V30 30319 C 2667.55 3.60365 0.130224 0
M  V30 30320 O 2666.65 3.9481 1.1916 0
M  V30 30321 H 2665.99 0.661829 -0.0536451 0
M  V30 30322 H 2668.52 1.89168 -0.779528 0
M  V30 30323 H 2668.53 4.06557 0.342809 0
M  V30 30324 H 2667.21 4.07947 -0.809461 0
M  V30 30325 H 2665.79 3.60355 0.95909 0
M  V30 30326 N 2667.97 0.299089 1.54736 0
M  V30 30327 C 2668.92 -0.577859 2.23449 0
M  V30 30328 C 2669.89 -1.13106 1.21639 0
M  V30 30329 O 2671.07 -1.17594 1.50254 0
M  V30 30330 C 2668.21 -1.74479 2.97743 0
M  V30 30331 C 2667.33 -1.22316 4.14322 0
M  V30 30332 C 2666.46 -2.3538 4.76203 0
M  V30 30333 C 2665.5 -1.80341 5.8493 0
M  V30 30334 N 2664.64 -2.86971 6.40775 0
M  V30 30335 H 2669.48 0.0147069 2.97996 0
M  V30 30336 H 2667.01 0.0190272 1.47088 0
M  V30 30337 H 2668.97 -2.43108 3.39049 0
M  V30 30338 H 2667.6 -2.30901 2.25576 0
M  V30 30339 H 2666.65 -0.429183 3.77971 0
M  V30 30340 H 2667.97 -0.780222 4.9266 0
M  V30 30341 H 2667.12 -3.1196 5.20352 0
M  V30 30342 H 2665.86 -2.83 3.97193 0
M  V30 30343 H 2664.86 -1.02249 5.40208 0
M  V30 30344 H 2666.09 -1.33628 6.65823 0
M  V30 30345 H 2664.03 -3.33928 5.64649 0
M  V30 30346 H 2663.95 -2.47167 7.14454 0
M  V30 30347 H 2665.22 -3.63454 6.89581 0
M  V30 30348 N 2669.45 -1.57577 0.0267774 0
M  V30 30349 C 2670.4 -2.1123 -0.973886 0
M  V30 30350 C 2671.39 -1.03834 -1.33847 0
M  V30 30351 O 2672.6 -1.22271 -1.32097 0
M  V30 30352 H 2668.97 -0.674827 -0.331832 0
M  V30 30353 H 2670.94 -2.94248 -0.49604 0
M  V30 30354 C 2669.69 -2.65261 -2.24794 0
M  V30 30355 H 2669.01 -3.47547 -1.97614 0
M  V30 30356 H 2670.45 -3.0645 -2.93026 0
M  V30 30357 C 2668.91 -1.57896 -2.97608 0
M  V30 30358 O 2669.44 -0.977419 -3.89627 0
M  V30 30359 N 2667.65 -1.29997 -2.59902 0
M  V30 30360 H 2667.2 -1.791 -1.85151 0
M  V30 30361 H 2667.15 -0.583852 -3.08931 0
M  V30 30362 N 2670.93 0.246342 -1.55663 0
M  V30 30363 C 2672.15 0.991845 -1.81577 0
M  V30 30364 C 2672.57 1.78926 -0.602576 0
M  V30 30365 O 2671.93 1.77392 0.428764 0
M  V30 30366 C 2671.98 1.92927 -3.05715 0
M  V30 30367 O 2671.7 1.16413 -4.2235 0
M  V30 30368 C 2673.2 2.79072 -3.44432 0
M  V30 30369 H 2670.42 0.291833 -0.604214 0
M  V30 30370 H 2672.96 0.26906 -2.02722 0
M  V30 30371 H 2671.12 2.60633 -2.86617 0
M  V30 30372 H 2671.53 1.79826 -4.9271 0
M  V30 30373 H 2673.01 3.40596 -4.34394 0
M  V30 30374 H 2673.48 3.50212 -2.65043 0
M  V30 30375 H 2674.09 2.16818 -3.65883 0
M  V30 30376 N 2672.4 1.4905 0.512027 0
M  V30 30377 C 2673.34 1.61012 1.63119 0
M  V30 30378 C 2674.35 0.493379 1.55144 0
M  V30 30379 O 2675.54 0.764983 1.61277 0
M  V30 30380 C 2672.64 1.54057 3.0186 0
M  V30 30381 C 2671.81 2.81078 3.35133 0
M  V30 30382 C 2670.87 2.67327 4.53236 0
M  V30 30383 O 2669.9 3.41246 4.55565 0
M  V30 30384 N 2671.1 1.78137 5.52492 0
M  V30 30385 H 2673.86 2.57532 1.53288 0
M  V30 30386 H 2671.42 1.46 0.69968 0
M  V30 30387 H 2673.42 1.42528 3.78772 0
M  V30 30388 H 2671.99 0.654399 3.05674 0
M  V30 30389 H 2671.21 3.0704 2.47225 0
M  V30 30390 H 2672.49 3.6531 3.54156 0
M  V30 30391 H 2671.89 1.17317 5.53401 0
M  V30 30392 H 2670.45 1.72536 6.28549 0
M  V30 30393 N 2673.88 -0.762259 1.3794 0
M  V30 30394 C 2674.79 -1.90669 1.36684 0
M  V30 30395 C 2675.81 -1.71969 0.265108 0
M  V30 30396 O 2676.98 -1.95041 0.502089 0
M  V30 30397 C 2674.05 -3.25923 1.18217 0
M  V30 30398 C 2673.11 -3.5721 2.38116 0
M  V30 30399 C 2672.34 -4.86011 2.20521 0
M  V30 30400 O 2672.57 -5.57755 1.19439 0
M  V30 30401 O 2671.5 -5.16577 3.0892 0
M  V30 30402 H 2675.33 -1.94681 2.33095 0
M  V30 30403 H 2672.91 -0.906335 1.18768 0
M  V30 30404 H 2674.79 -4.06805 1.09944 0
M  V30 30405 H 2673.47 -3.22742 0.248864 0
M  V30 30406 H 2672.38 -2.76524 2.51963 0
M  V30 30407 H 2673.71 -3.65143 3.30047 0
M  V30 30408 N 2675.36 -1.22666 -0.989486 0
M  V30 30409 C 2676.31 -0.997072 -2.10146 0
M  V30 30410 C 2677.3 0.0609485 -1.6929 0
M  V30 30411 O 2678.51 -0.0917839 -1.79766 0
M  V30 30412 H 2674.88 -0.305271 -0.687251 0
M  V30 30413 H 2676.85 -1.94057 -2.26681 0
M  V30 30414 C 2675.6 -0.595145 -3.42569 0
M  V30 30415 H 2674.93 -1.40096 -3.74451 0
M  V30 30416 H 2676.37 -0.473943 -4.21343 0
M  V30 30417 C 2674.83 0.695667 -3.29639 0
M  V30 30418 O 2675.36 1.74721 -3.61712 0
M  V30 30419 N 2673.56 0.668123 -2.82815 0
M  V30 30420 H 2673.11 -0.187915 -2.56914 0
M  V30 30421 H 2673.07 1.53205 -2.74546 0
M  V30 30422 N 2676.84 1.18685 -1.0369 0
M  V30 30423 C 2677.77 2.24402 -0.645446 0
M  V30 30424 C 2678.75 1.66471 0.349482 0
M  V30 30425 O 2679.94 1.92828 0.230419 0
M  V30 30426 C 2677.07 3.473 -0.00371441 0
M  V30 30427 C 2676.02 4.17956 -0.921779 0
M  V30 30428 C 2675.35 5.34504 -0.144723 0
M  V30 30429 C 2676.65 4.71867 -2.23918 0
M  V30 30430 H 2678.34 2.57401 -1.52922 0
M  V30 30431 H 2675.89 1.23726 -0.736733 0
M  V30 30432 H 2677.84 4.20456 0.281835 0
M  V30 30433 H 2676.56 3.13524 0.914908 0
M  V30 30434 H 2675.22 3.46692 -1.19165 0
M  V30 30435 H 2674.87 4.96975 0.776186 0
M  V30 30436 H 2674.57 5.82712 -0.756308 0
M  V30 30437 H 2676.09 6.10453 0.133897 0
M  V30 30438 H 2677.51 5.36737 -2.01459 0
M  V30 30439 H 2675.9 5.30594 -2.80339 0
M  V30 30440 H 2676.97 3.89495 -2.88829 0
M  V30 30441 N 2678.32 0.815849 1.34839 0
M  V30 30442 C 2679.27 0.220929 2.31548 0
M  V30 30443 C 2680.26 -0.634429 1.57071 0
M  V30 30444 O 2681.47 -0.526559 1.72126 0
M  V30 30445 H 2677.84 0.0526914 0.750152 0
M  V30 30446 H 2679.81 1.05154 2.79258 0
M  V30 30447 C 2678.56 -0.608367 3.42336 0
M  V30 30448 H 2677.88 0.0404824 3.9978 0
M  V30 30449 H 2679.32 -0.990858 4.1226 0
M  V30 30450 C 2677.78 -1.77777 2.86176 0
M  V30 30451 O 2678.31 -2.87566 2.80479 0
M  V30 30452 N 2676.52 -1.59225 2.43096 0
M  V30 30453 H 2676.07 -0.699193 2.4793 0
M  V30 30454 H 2676.02 -2.37623 2.0587 0
M  V30 30455 N 2679.8 -1.46924 0.570174 0
M  V30 30456 C 2681.03 -2.06524 0.0561514 0
M  V30 30457 C 2681.43 -1.4214 -1.24872 0
M  V30 30458 O 2680.78 -0.516448 -1.76291 0
M  V30 30459 C 2680.84 -3.5896 -0.196971 0
M  V30 30460 C 2680.5 -4.45462 1.02041 0
M  V30 30461 C 2681.5 -4.82778 1.9293 0
M  V30 30462 C 2679.18 -4.86786 1.23873 0
M  V30 30463 C 2681.18 -5.6023 3.04008 0
M  V30 30464 C 2678.87 -5.64 2.35259 0
M  V30 30465 C 2679.86 -6.00635 3.25157 0
M  V30 30466 O 2679.55 -6.76291 4.3461 0
M  V30 30467 H 2679.28 -0.67424 0.0487528 0
M  V30 30468 H 2681.84 -1.89727 0.786948 0
M  V30 30469 H 2680.07 -3.74017 -0.982234 0
M  V30 30470 H 2681.76 -4.00532 -0.657962 0
M  V30 30471 H 2682.52 -4.51441 1.77273 0
M  V30 30472 H 2678.4 -4.5773 0.54813 0
M  V30 30473 H 2681.95 -5.88743 3.74202 0
M  V30 30474 H 2677.84 -5.9475 2.50883 0
M  V30 30475 H 2678.61 -6.94701 4.3282 0
M  V30 30476 N 2681.27 -0.307291 -1.54575 0
M  V30 30477 C 2682.55 0.353571 -1.92378 0
M  V30 30478 C 2682.93 1.7119 -1.2352 0
M  V30 30479 O 2682.28 2.25433 -0.373141 0
M  V30 30480 C 2682.49 0.461978 -3.45929 0
M  V30 30481 C 2683.84 0.729902 -4.18279 0
M  V30 30482 O 2684.86 0.545543 -3.51998 0
M  V30 30483 O 2683.72 1.08445 -5.35632 0
M  V30 30484 H 2680.81 0.198798 -0.802751 0
M  V30 30485 H 2683.36 -0.355812 -1.65928 0
M  V30 30486 H 2682.13 -0.49266 -3.88186 0
M  V30 30487 H 2681.75 1.21958 -3.78434 0
M  V30 30488 N 2682.75 1.57561 -0.0351337 0
M  V30 30489 C 2684.03 1.83356 0.68118 0
M  V30 30490 C 2684.41 0.920286 1.89984 0
M  V30 30491 O 2683.76 -0.0226414 2.28489 0
M  V30 30492 C 2683.97 3.32713 1.0537 0
M  V30 30493 C 2685.31 3.99335 1.44279 0
M  V30 30494 O 2686.34 3.37244 1.14651 0
M  V30 30495 O 2685.2 5.08781 1.99509 0
M  V30 30496 H 2682.29 0.756232 0.334728 0
M  V30 30497 H 2684.84 1.69582 -0.0632746 0
M  V30 30498 H 2683.61 3.90855 0.1866 0
M  V30 30499 H 2683.23 3.51616 1.85612 0
M  V30 30500 N 2684.23 -0.238084 1.55791 0
M  V30 30501 C 2685.18 -1.3146 1.91888 0
M  V30 30502 C 2686.17 -1.49376 0.798955 0
M  V30 30503 O 2687.38 -1.50746 0.983652 0
M  V30 30504 H 2683.75 -0.440389 0.609559 0
M  V30 30505 H 2685.72 -0.982876 2.81748 0
M  V30 30506 C 2684.47 -2.66126 2.23768 0
M  V30 30507 H 2683.8 -2.53144 3.09449 0
M  V30 30508 H 2685.24 -3.40304 2.52921 0
M  V30 30509 C 2683.69 -3.19888 1.05705 0
M  V30 30510 O 2684.22 -4.00505 0.309594 0
M  V30 30511 N 2682.43 -2.78034 0.8453 0
M  V30 30512 H 2681.98 -2.12585 1.45483 0
M  V30 30513 H 2681.94 -3.14348 0.0570525 0
M  V30 30514 N 2685.71 -1.4932 -0.504115 0
M  V30 30515 C 2686.94 -1.62353 -1.28254 0
M  V30 30516 C 2687.35 -0.293715 -1.86501 0
M  V30 30517 O 2686.71 0.72042 -1.67679 0
M  V30 30518 C 2686.76 -2.68996 -2.41502 0
M  V30 30519 O 2686.48 -3.9682 -1.85649 0
M  V30 30520 C 2687.98 -2.92706 -3.32923 0
M  V30 30521 H 2685.2 -0.546661 -0.389106 0
M  V30 30522 H 2687.74 -1.9533 -0.605496 0
M  V30 30523 H 2685.9 -2.38806 -3.05042 0
M  V30 30524 H 2686.31 -4.55538 -2.59973 0
M  V30 30525 H 2687.79 -3.71066 -4.08674 0
M  V30 30526 H 2688.26 -2.02503 -3.8973 0
M  V30 30527 H 2688.87 -3.24301 -2.75153 0
M  V30 30528 N 2687.19 0.754933 -1.38342 0
M  V30 30529 C 2688.13 1.89002 -1.35576 0
M  V30 30530 C 2689.13 1.67665 -0.241853 0
M  V30 30531 O 2690.33 1.75249 -0.410815 0
M  V30 30532 H 2686.71 0.621813 -0.422909 0
M  V30 30533 H 2688.68 1.88451 -2.31363 0
M  V30 30534 C 2687.43 3.26469 -1.19637 0
M  V30 30535 H 2686.75 3.43474 -2.04611 0
M  V30 30536 H 2688.19 4.06142 -1.21756 0
M  V30 30537 C 2686.65 3.36761 0.0968113 0
M  V30 30538 O 2687.18 3.87067 1.07432 0
M  V30 30539 N 2685.39 2.90196 0.153191 0
M  V30 30540 H 2684.93 2.49447 -0.642952 0
M  V30 30541 H 2684.89 2.97462 1.01802 0
M  V30 30542 N 2688.66 1.23189 0.982967 0
M  V30 30543 C 2689.6 0.954029 2.07301 0
M  V30 30544 C 2690.57 -0.106725 1.62249 0
M  V30 30545 O 2691.76 0.0269856 1.88481 0
M  V30 30546 C 2688.89 0.436775 3.35872 0
M  V30 30547 C 2687.93 1.48374 3.99859 0
M  V30 30548 S 2688.76 3.06031 4.39437 0
M  V30 30549 C 2689.92 2.55969 5.71166 0
M  V30 30550 H 2690.15 1.87706 2.30551 0
M  V30 30551 H 2687.69 1.06405 1.11881 0
M  V30 30552 H 2689.64 0.144944 4.10244 0
M  V30 30553 H 2688.31 -0.465296 3.10635 0
M  V30 30554 H 2687.5 1.07191 4.92469 0
M  V30 30555 H 2687.1 1.72479 3.31854 0
M  V30 30556 H 2689.39 1.97829 6.47974 0
M  V30 30557 H 2690.34 3.47109 6.17188 0
M  V30 30558 H 2690.74 1.96911 5.29043 0
M  V30 30559 N 2690.14 -1.18133 1.04318 0
M  V30 30560 C 2691.37 -1.91834 0.767037 0
M  V30 30561 C 2691.78 -1.76558 -0.679989 0
M  V30 30562 O 2691.12 -1.09435 -1.47546 0
M  V30 30563 C 2691.18 -3.43616 1.05681 0
M  V30 30564 C 2690.85 -3.8267 2.49825 0
M  V30 30565 C 2691.85 -3.86245 3.4801 0
M  V30 30566 C 2689.53 -4.13892 2.84603 0
M  V30 30567 C 2691.52 -4.20495 4.79023 0
M  V30 30568 C 2689.21 -4.47812 4.15821 0
M  V30 30569 C 2690.21 -4.5109 5.12842 0
M  V30 30570 O 2689.9 -4.84217 6.41708 0
M  V30 30571 H 2689.63 -0.615758 0.278958 0
M  V30 30572 H 2692.18 -1.50796 1.39463 0
M  V30 30573 H 2690.41 -3.84906 0.372097 0
M  V30 30574 H 2692.1 -3.98567 0.768064 0
M  V30 30575 H 2692.87 -3.62258 3.22481 0
M  V30 30576 H 2688.75 -4.10516 2.09755 0
M  V30 30577 H 2692.29 -4.22968 5.54747 0
M  V30 30578 H 2688.19 -4.7126 4.41117 0
M  V30 30579 H 2688.96 -5.0211 6.46396 0
M  V30 30580 N 2691.62 -0.822988 -1.34405 0
M  V30 30581 C 2692.53 -0.246879 -2.33297 0
M  V30 30582 C 2693.55 0.618768 -1.62626 0
M  V30 30583 O 2694.72 0.526651 -1.94392 0
M  V30 30584 C 2691.79 0.581671 -3.41786 0
M  V30 30585 C 2690.85 -0.306384 -4.28205 0
M  V30 30586 C 2690.08 0.482716 -5.31513 0
M  V30 30587 O 2690.3 1.71598 -5.43976 0
M  V30 30588 O 2689.24 -0.134989 -6.01749 0
M  V30 30589 H 2693.06 -1.06539 -2.844 0
M  V30 30590 H 2690.65 -0.585132 -1.37465 0
M  V30 30591 H 2692.53 1.05305 -4.0803 0
M  V30 30592 H 2691.21 1.37751 -2.92927 0
M  V30 30593 H 2690.11 -0.825263 -3.64884 0
M  V30 30594 H 2691.45 -1.06658 -4.80505 0
M  V30 30595 N 2693.1 1.4662 -0.577957 0
M  V30 30596 C 2694.01 2.3405 0.160609 0
M  V30 30597 C 2695.02 1.49463 0.890885 0
M  V30 30598 O 2696.2 1.82344 0.855134 0
M  V30 30599 C 2693.27 3.26561 1.16442 0
M  V30 30600 C 2692.33 4.27046 0.439325 0
M  V30 30601 C 2691.56 5.15138 1.39531 0
M  V30 30602 O 2691.78 5.0607 2.63153 0
M  V30 30603 O 2690.72 5.95004 0.908481 0
M  V30 30604 H 2694.54 2.98546 -0.557109 0
M  V30 30605 H 2692.13 1.45517 -0.338395 0
M  V30 30606 H 2694.01 3.83648 1.74333 0
M  V30 30607 H 2692.68 2.64667 1.86369 0
M  V30 30608 H 2691.59 3.7366 -0.181313 0
M  V30 30609 H 2692.92 4.91713 -0.218885 0
M  V30 30610 N 2694.58 0.315484 1.5441 0
M  V30 30611 C 2695.52 -0.569731 2.25515 0
M  V30 30612 C 2696.52 -1.1252 1.26632 0
M  V30 30613 O 2697.72 -1.07417 1.44435 0
M  V30 30614 H 2694.1 -0.202363 0.72426 0
M  V30 30615 H 2696.07 0.0523419 2.98354 0
M  V30 30616 C 2694.82 -1.723 3.02007 0
M  V30 30617 H 2694.14 -1.30482 3.77908 0
M  V30 30618 H 2695.58 -2.31815 3.55018 0
M  V30 30619 C 2694.04 -2.6358 2.09827 0
M  V30 30620 O 2694.57 -3.65075 1.6758 0
M  V30 30621 N 2692.78 -2.31634 1.75482 0
M  V30 30622 H 2692.32 -1.49141 2.10035 0
M  V30 30623 H 2692.28 -2.92971 1.14084 0
M  V30 30624 N 2696.05 -1.5754 0.0434891 0
M  V30 30625 C 2697 -2.11078 -0.933522 0
M  V30 30626 C 2697.97 -1.01628 -1.31381 0
M  V30 30627 O 2699.16 -1.29132 -1.40462 0
M  V30 30628 C 2696.3 -2.65408 -2.20573 0
M  V30 30629 C 2695.41 -3.88918 -1.88061 0
M  V30 30630 C 2694.54 -4.3159 -3.09683 0
M  V30 30631 C 2693.58 -5.47819 -2.73057 0
M  V30 30632 N 2692.72 -5.85581 -3.87349 0
M  V30 30633 H 2697.56 -2.94269 -0.470066 0
M  V30 30634 H 2695.1 -1.45439 -0.220408 0
M  V30 30635 H 2697.06 -2.95004 -2.95006 0
M  V30 30636 H 2695.69 -1.85026 -2.64509 0
M  V30 30637 H 2694.74 -3.65961 -1.0381 0
M  V30 30638 H 2696.05 -4.73416 -1.57096 0
M  V30 30639 H 2695.2 -4.62697 -3.92423 0
M  V30 30640 H 2693.94 -3.45888 -3.43821 0
M  V30 30641 H 2692.95 -5.16391 -1.88733 0
M  V30 30642 H 2694.17 -6.35232 -2.4012 0
M  V30 30643 H 2692.12 -5.02833 -4.21302 0
M  V30 30644 H 2692.04 -6.64752 -3.60056 0
M  V30 30645 H 2693.3 -6.213 -4.70751 0
M  V30 30646 N 2697.53 0.229818 -1.55915 0
M  V30 30647 C 2698.48 1.30441 -1.92582 0
M  V30 30648 C 2699.47 1.4895 -0.806865 0
M  V30 30649 O 2700.68 1.50222 -0.991633 0
M  V30 30650 H 2697.06 0.43715 -0.611886 0
M  V30 30651 H 2699.03 0.96792 -2.82266 0
M  V30 30652 C 2697.78 2.64936 -2.25176 0
M  V30 30653 H 2697.1 2.51499 -3.10787 0
M  V30 30654 H 2698.54 3.38958 -2.54722 0
M  V30 30655 C 2697 3.19323 -1.074 0
M  V30 30656 O 2697.53 4.00335 -0.330829 0
M  V30 30657 N 2695.73 2.77582 -0.860033 0
M  V30 30658 H 2695.28 2.1181 -1.46609 0
M  V30 30659 H 2695.24 3.14314 -0.0737224 0
M  V30 30660 N 2699.01 1.49585 0.49619 0
M  V30 30661 C 2700.29 1.49818 1.25753 0
M  V30 30662 C 2700.67 0.228609 2.09858 0
M  V30 30663 O 2700.02 -0.78887 2.14451 0
M  V30 30664 C 2700.23 2.77983 2.11013 0
M  V30 30665 C 2701.57 3.27663 2.70041 0
M  V30 30666 O 2702.6 2.79133 2.21276 0
M  V30 30667 O 2701.46 4.12196 3.58827 0
M  V30 30668 H 2698.55 0.599844 0.569312 0
M  V30 30669 H 2701.1 1.61853 0.510066 0
M  V30 30670 H 2699.87 3.61874 1.48872 0
M  V30 30671 H 2699.49 2.68832 2.92942 0
M  V30 30672 N 2700.49 -0.747586 1.3874 0
M  V30 30673 C 2701.44 -1.86144 1.36452 0
M  V30 30674 C 2702.41 -1.64554 0.226127 0
M  V30 30675 O 2703.59 -1.86136 0.419293 0
M  V30 30676 C 2700.73 -3.23514 1.20136 0
M  V30 30677 C 2699.84 -3.56895 2.43413 0
M  V30 30678 C 2698.98 -4.83601 2.19781 0
M  V30 30679 C 2698.02 -5.09786 3.38799 0
M  V30 30680 N 2697.15 -6.2769 3.14564 0
M  V30 30681 H 2701.99 -1.87434 2.31673 0
M  V30 30682 H 2699.53 -0.916043 1.15096 0
M  V30 30683 H 2701.49 -4.02793 1.0869 0
M  V30 30684 H 2700.12 -3.21535 0.285509 0
M  V30 30685 H 2699.17 -2.72414 2.65509 0
M  V30 30686 H 2700.48 -3.7217 3.321 0
M  V30 30687 H 2699.64 -5.70835 2.05506 0
M  V30 30688 H 2698.38 -4.70475 1.28469 0
M  V30 30689 H 2697.38 -4.21019 3.53586 0
M  V30 30690 H 2698.61 -5.24805 4.30995 0
M  V30 30691 H 2696.55 -6.15876 2.25904 0
M  V30 30692 H 2696.47 -6.43493 3.96802 0
M  V30 30693 H 2697.74 -7.17796 3.03956 0
M  V30 30694 N 2701.97 -1.23709 -0.97642 0
M  V30 30695 C 2702.91 -1.02178 -2.0695 0
M  V30 30696 C 2703.88 0.0620742 -1.65984 0
M  V30 30697 O 2705.07 -0.0908241 -1.90584 0
M  V30 30698 C 2702.21 -0.62333 -3.39424 0
M  V30 30699 C 2701.32 -1.77973 -3.93636 0
M  V30 30700 C 2700.46 -1.32769 -5.1434 0
M  V30 30701 C 2699.5 -2.45459 -5.60729 0
M  V30 30702 N 2698.63 -2.01184 -6.72658 0
M  V30 30703 H 2703.47 -1.95738 -2.24701 0
M  V30 30704 H 2701.01 -0.975053 -1.10141 0
M  V30 30705 H 2702.97 -0.373393 -4.15526 0
M  V30 30706 H 2701.6 0.275273 -3.21624 0
M  V30 30707 H 2700.65 -2.14356 -3.14254 0
M  V30 30708 H 2701.96 -2.62678 -4.2403 0
M  V30 30709 H 2701.12 -1.03611 -5.97787 0
M  V30 30710 H 2699.85 -0.451061 -4.8561 0
M  V30 30711 H 2698.86 -2.75386 -4.7586 0
M  V30 30712 H 2700.08 -3.33664 -5.91477 0
M  V30 30713 H 2698.03 -1.15907 -6.45679 0
M  V30 30714 H 2697.95 -2.79447 -7.02457 0
M  V30 30715 H 2699.22 -1.75142 -7.59569 0
M  V30 30716 N 2703.44 1.17579 -1.04943 0
M  V30 30717 C 2704.39 2.23562 -0.642079 0
M  V30 30718 C 2705.39 1.66046 0.335423 0
M  V30 30719 O 2706.59 1.78866 0.201758 0
M  V30 30720 H 2702.97 0.727744 -0.189453 0
M  V30 30721 H 2704.94 2.5522 -1.54613 0
M  V30 30722 C 2703.69 3.47687 -0.0301662 0
M  V30 30723 H 2703.01 3.92248 -0.773408 0
M  V30 30724 H 2704.45 4.23442 0.217518 0
M  V30 30725 C 2702.91 3.1394 1.22244 0
M  V30 30726 O 2703.44 3.28486 2.31214 0
M  V30 30727 N 2701.65 2.68187 1.11912 0
M  V30 30728 H 2701.19 2.5655 0.232358 0
M  V30 30729 H 2701.15 2.45979 1.9581 0
M  V30 30730 N 2704.92 0.830104 1.33967 0
M  V30 30731 C 2705.87 0.255048 2.29386 0
M  V30 30732 C 2706.84 -0.624216 1.53925 0
M  V30 30733 O 2708.02 -0.56434 1.82263 0
M  V30 30734 C 2705.16 -0.57115 3.40341 0
M  V30 30735 C 2704.28 0.331159 4.30729 0
M  V30 30736 C 2703.41 -0.505296 5.28791 0
M  V30 30737 C 2702.45 0.39595 6.10818 0
M  V30 30738 N 2701.59 -0.401856 7.00949 0
M  V30 30739 H 2706.43 1.07409 2.7797 0
M  V30 30740 H 2703.97 0.541157 1.36784 0
M  V30 30741 H 2705.92 -1.06555 4.03363 0
M  V30 30742 H 2704.55 -1.35524 2.92973 0
M  V30 30743 H 2703.61 0.943824 3.68505 0
M  V30 30744 H 2704.92 1.02385 4.88179 0
M  V30 30745 H 2704.07 -1.06389 5.97299 0
M  V30 30746 H 2702.81 -1.23146 4.71896 0
M  V30 30747 H 2701.82 0.966624 5.41236 0
M  V30 30748 H 2703.04 1.12034 6.69795 0
M  V30 30749 H 2700.99 -1.11157 6.46514 0
M  V30 30750 H 2700.9 0.2323 7.55643 0
M  V30 30751 H 2702.17 -0.942966 7.73775 0
M  V30 30752 N 2706.4 -1.46311 0.585725 0
M  V30 30753 C 2707.35 -2.30339 -0.145795 0
M  V30 30754 C 2708.32 -1.40799 -0.88119 0
M  V30 30755 O 2709.5 -1.69746 -0.871263 0
M  V30 30756 C 2706.64 -3.2532 -1.15155 0
M  V30 30757 C 2705.76 -4.2996 -0.419292 0
M  V30 30758 C 2704.89 -5.12067 -1.41284 0
M  V30 30759 C 2703.93 -6.08453 -0.667154 0
M  V30 30760 N 2703.07 -6.83417 -1.60891 0
M  V30 30761 H 2707.91 -2.92364 0.576807 0
M  V30 30762 H 2705.44 -1.44086 0.296262 0
M  V30 30763 H 2707.4 -3.78835 -1.74757 0
M  V30 30764 H 2706.03 -2.65097 -1.84183 0
M  V30 30765 H 2705.08 -3.79279 0.291817 0
M  V30 30766 H 2706.4 -4.98532 0.163521 0
M  V30 30767 H 2705.55 -5.69873 -2.08157 0
M  V30 30768 H 2704.29 -4.43463 -2.02958 0
M  V30 30769 H 2703.29 -5.49798 0.0153323 0
M  V30 30770 H 2704.52 -6.79077 -0.0557623 0
M  V30 30771 H 2702.47 -6.1752 -2.2137 0
M  V30 30772 H 2702.38 -7.48261 -1.07898 0
M  V30 30773 H 2703.65 -7.45779 -2.26789 0
M  V30 30774 N 2707.88 -0.323668 -1.54241 0
M  V30 30775 C 2708.81 0.534953 -2.27289 0
M  V30 30776 C 2709.79 1.11925 -1.28089 0
M  V30 30777 O 2710.98 1.14436 -1.56901 0
M  V30 30778 C 2708.11 1.69591 -3.03078 0
M  V30 30779 C 2707.06 1.24091 -4.09616 0
M  V30 30780 C 2706.39 2.48882 -4.73246 0
M  V30 30781 C 2707.69 0.355698 -5.21087 0
M  V30 30782 H 2709.38 -0.0743784 -2.99308 0
M  V30 30783 H 2706.93 -0.0372127 -1.43952 0
M  V30 30784 H 2708.88 2.30287 -3.52911 0
M  V30 30785 H 2707.6 2.33183 -2.28677 0
M  V30 30786 H 2706.26 0.656881 -3.60667 0
M  V30 30787 H 2705.91 3.10838 -3.9546 0
M  V30 30788 H 2705.61 2.19128 -5.45212 0
M  V30 30789 H 2707.13 3.10339 -5.25854 0
M  V30 30790 H 2708.55 0.868943 -5.66677 0
M  V30 30791 H 2706.94 0.150939 -5.9991 0
M  V30 30792 H 2708.01 -0.613423 -4.81004 0
M  V30 30793 N 2709.36 1.57515 -0.0518432 0
M  V30 30794 C 2710.31 2.12753 0.940158 0
M  V30 30795 C 2711.3 1.0595 1.32178 0
M  V30 30796 O 2712.51 1.24357 1.30135 0
M  V30 30797 H 2708.88 0.680021 0.321054 0
M  V30 30798 H 2710.85 2.95 0.449165 0
M  V30 30799 C 2709.6 2.68803 2.20545 0
M  V30 30800 H 2708.92 3.50647 1.9206 0
M  V30 30801 H 2710.36 3.11073 2.88114 0
M  V30 30802 C 2708.82 1.62611 2.95058 0
M  V30 30803 O 2709.35 1.03928 3.88023 0
M  V30 30804 N 2707.56 1.34115 2.57801 0
M  V30 30805 H 2707.11 1.82023 1.82278 0
M  V30 30806 H 2707.06 0.632927 3.07963 0
M  V30 30807 N 2710.84 -0.221546 1.56035 0
M  V30 30808 C 2711.78 -1.29418 1.93271 0
M  V30 30809 C 2712.78 -1.4852 0.814753 0
M  V30 30810 O 2713.98 -1.49694 0.999585 0
M  V30 30811 H 2710.36 -0.433899 0.614195 0
M  V30 30812 H 2712.33 -0.952937 2.82775 0
M  V30 30813 C 2711.08 -2.63738 2.26578 0
M  V30 30814 H 2710.4 -2.49847 3.12116 0
M  V30 30815 H 2711.84 -3.37603 2.56516 0
M  V30 30816 C 2710.3 -3.18749 1.09092 0
M  V30 30817 O 2710.83 -4.00154 0.352056 0
M  V30 30818 N 2709.04 -2.77122 0.874742 0
M  V30 30819 H 2708.58 -2.1103 1.4773 0
M  V30 30820 H 2708.54 -3.1427 0.0903901 0
M  V30 30821 N 2712.31 -1.49846 -0.48825 0
M  V30 30822 C 2713.26 -1.67957 -1.60914 0
M  V30 30823 C 2714.26 -0.545418 -1.60379 0
M  V30 30824 O 2715.46 -0.725429 -1.64735 0
M  V30 30825 H 2711.84 -0.529833 -0.533649 0
M  V30 30826 H 2713.81 -2.62016 -1.42795 0
M  V30 30827 C 2712.56 -1.77514 -2.98972 0
M  V30 30828 H 2711.88 -2.64166 -3.00094 0
M  V30 30829 H 2713.32 -1.94217 -3.76903 0
M  V30 30830 C 2711.78 -0.522804 -3.32819 0
M  V30 30831 O 2712.31 0.345795 -4.00209 0
M  V30 30832 N 2710.51 -0.381933 -2.88079 0
M  V30 30833 H 2710.06 -1.08978 -2.33413 0
M  V30 30834 H 2710.02 0.454874 -3.11092 0
M  V30 30835 N 2713.79 0.740218 -1.39135 0
M  V30 30836 C 2715.02 1.52947 -1.39337 0
M  V30 30837 C 2715.43 1.88795 0.0134676 0
M  V30 30838 O 2714.79 1.53732 0.983497 0
M  V30 30839 C 2714.84 2.8203 -2.26145 0
M  V30 30840 O 2714.56 2.47706 -3.61349 0
M  V30 30841 C 2716.06 3.7609 -2.34673 0
M  V30 30842 H 2713.28 0.47282 -0.476111 0
M  V30 30843 H 2715.83 0.915068 -1.82885 0
M  V30 30844 H 2713.98 3.39814 -1.86024 0
M  V30 30845 H 2714.4 3.30588 -4.072 0
M  V30 30846 H 2715.87 4.63574 -2.99672 0
M  V30 30847 H 2716.35 4.17472 -1.36433 0
M  V30 30848 H 2716.95 3.24226 -2.75242 0
M  V30 30849 N 2715.27 1.24225 0.969846 0
M  V30 30850 C 2716.22 1.03274 2.06405 0
M  V30 30851 C 2717.19 -0.0532708 1.66015 0
M  V30 30852 O 2718.37 0.10093 1.90533 0
M  V30 30853 C 2715.51 0.641321 3.39089 0
M  V30 30854 C 2714.62 1.80058 3.92687 0
M  V30 30855 C 2713.76 1.35495 5.13629 0
M  V30 30856 C 2712.8 2.48429 5.59419 0
M  V30 30857 N 2711.94 2.04748 6.71582 0
M  V30 30858 H 2716.78 1.96927 2.2366 0
M  V30 30859 H 2714.31 0.980881 1.09623 0
M  V30 30860 H 2716.27 0.395424 4.15322 0
M  V30 30861 H 2714.9 -0.258212 3.21766 0
M  V30 30862 H 2713.95 2.1602 3.13113 0
M  V30 30863 H 2715.26 2.64923 4.22631 0
M  V30 30864 H 2714.42 1.0678 5.97229 0
M  V30 30865 H 2713.16 0.476808 4.85364 0
M  V30 30866 H 2712.16 2.77906 4.74393 0
M  V30 30867 H 2713.39 3.36796 5.89699 0
M  V30 30868 H 2711.33 1.19329 6.45055 0
M  V30 30869 H 2711.25 2.83168 7.00965 0
M  V30 30870 H 2712.52 1.79168 7.5863 0
M  V30 30871 N 2716.75 -1.1702 1.05565 0
M  V30 30872 C 2717.66 -2.24805 0.670797 0
M  V30 30873 C 2718.67 -1.71219 -0.309835 0
M  V30 30874 O 2719.85 -2.00756 -0.16099 0
M  V30 30875 C 2716.91 -3.46656 0.0553979 0
M  V30 30876 C 2715.98 -4.15312 1.08696 0
M  V30 30877 C 2715.21 -5.31345 0.50083 0
M  V30 30878 O 2715.43 -5.66228 -0.688618 0
M  V30 30879 O 2714.37 -5.89053 1.23693 0
M  V30 30880 H 2718.19 -2.6002 1.56918 0
M  V30 30881 H 2715.78 -1.24393 0.82745 0
M  V30 30882 H 2717.66 -4.20426 -0.286418 0
M  V30 30883 H 2716.33 -3.13231 -0.816583 0
M  V30 30884 H 2715.24 -3.43544 1.48083 0
M  V30 30885 H 2716.57 -4.52773 1.93022 0
M  V30 30886 N 2718.23 -0.837197 -1.33524 0
M  V30 30887 C 2719.47 -0.428421 -1.97098 0
M  V30 30888 C 2719.79 1.01731 -1.67063 0
M  V30 30889 O 2720.99 1.53068 -2.24237 0
M  V30 30890 C 2719.45 -0.715137 -3.52723 0
M  V30 30891 C 2719.06 -2.17543 -3.91636 0
M  V30 30892 C 2720.8 -0.373229 -4.22856 0
M  V30 30893 C 2718.71 -2.40629 -5.40233 0
M  V30 30894 H 2717.64 -0.156468 -0.737587 0
M  V30 30895 H 2720.29 -1.02555 -1.52167 0
M  V30 30896 H 2718.67 -0.04766 -3.95971 0
M  V30 30897 H 2719.85 -2.88325 -3.59451 0
M  V30 30898 H 2718.16 -2.48016 -3.34481 0
M  V30 30899 H 2720.76 -0.523357 -5.32133 0
M  V30 30900 H 2721.1 0.683636 -4.10648 0
M  V30 30901 H 2721.63 -0.995869 -3.85133 0
M  V30 30902 H 2718.37 -3.44874 -5.57443 0
M  V30 30903 H 2717.89 -1.74406 -5.73884 0
M  V30 30904 H 2719.57 -2.23699 -6.07098 0
M  V30 30905 N 2719.7 1.45999 -0.593476 0
M  V30 30906 C 2720.93 2.07216 -0.087273 0
M  V30 30907 C 2721.35 1.43757 1.21308 0
M  V30 30908 O 2720.71 0.525183 1.73527 0
M  V30 30909 C 2720.76 3.6056 0.0537564 0
M  V30 30910 O 2719.86 3.97249 1.10758 0
M  V30 30911 H 2719.2 0.660543 -0.0676714 0
M  V30 30912 H 2721.73 1.87472 -0.819478 0
M  V30 30913 H 2721.74 4.07193 0.256496 0
M  V30 30914 H 2720.42 4.06138 -0.89581 0
M  V30 30915 H 2719 3.62309 0.882437 0
M  V30 30916 N 2721.18 0.331843 1.54067 0
M  V30 30917 C 2722.43 -0.268234 2.00716 0
M  V30 30918 C 2722.76 -1.51489 1.21989 0
M  V30 30919 O 2722.01 -1.93504 0.292343 0
M  V30 30920 C 2722.31 -0.63933 3.51635 0
M  V30 30921 C 2721.98 0.509098 4.48017 0
M  V30 30922 C 2720.64 0.824292 4.74087 0
M  V30 30923 C 2722.99 1.28012 5.05235 0
M  V30 30924 C 2720.32 1.91308 5.54633 0
M  V30 30925 C 2722.67 2.35906 5.86968 0
M  V30 30926 C 2721.34 2.67998 6.11337 0
M  V30 30927 H 2720.61 -0.0981538 0.73447 0
M  V30 30928 H 2723.25 0.457336 1.85959 0
M  V30 30929 H 2721.56 -1.44545 3.64162 0
M  V30 30930 H 2723.25 -1.11532 3.85177 0
M  V30 30931 H 2719.84 0.253362 4.2785 0
M  V30 30932 H 2724.03 1.04986 4.85069 0
M  V30 30933 H 2719.28 2.16609 5.71743 0
M  V30 30934 H 2723.46 2.96088 6.30321 0
M  V30 30935 H 2721.09 3.52492 6.73538 0
M  V30 30936 N 2722.66 -1.57485 0.0601958 0
M  V30 30937 C 2723.59 -2.15086 -0.908852 0
M  V30 30938 C 2724.57 -1.07486 -1.31836 0
M  V30 30939 O 2725.76 -1.35468 -1.39147 0
M  V30 30940 C 2722.89 -2.70314 -2.18054 0
M  V30 30941 C 2721.84 -3.82978 -1.91081 0
M  V30 30942 C 2721.17 -4.2476 -3.24782 0
M  V30 30943 C 2722.47 -5.07725 -1.22526 0
M  V30 30944 H 2724.16 -2.9631 -0.429041 0
M  V30 30945 H 2721.71 -1.42534 -0.204927 0
M  V30 30946 H 2723.66 -3.09253 -2.86253 0
M  V30 30947 H 2722.38 -1.86295 -2.68257 0
M  V30 30948 H 2721.04 -3.44525 -1.25291 0
M  V30 30949 H 2720.69 -3.37679 -3.72803 0
M  V30 30950 H 2720.39 -5.00699 -3.07529 0
M  V30 30951 H 2721.91 -4.66306 -3.94197 0
M  V30 30952 H 2723.33 -5.44053 -1.80774 0
M  V30 30953 H 2721.73 -5.88866 -1.1557 0
M  V30 30954 H 2722.8 -4.84477 -0.202607 0
M  V30 30955 N 2724.14 0.213268 -1.5615 0
M  V30 30956 C 2725.05 1.28515 -1.96268 0
M  V30 30957 C 2726.06 1.50822 -0.867676 0
M  V30 30958 O 2727.24 1.63791 -1.17194 0
M  V30 30959 C 2724.31 2.61323 -2.27841 0
M  V30 30960 C 2723.37 2.47246 -3.50953 0
M  V30 30961 C 2722.6 3.7372 -3.8101 0
M  V30 30962 O 2722.82 4.771 -3.1262 0
M  V30 30963 O 2721.76 3.70336 -4.74484 0
M  V30 30964 H 2725.58 0.974744 -2.87632 0
M  V30 30965 H 2723.17 0.416807 -1.43468 0
M  V30 30966 H 2725.05 3.39742 -2.49305 0
M  V30 30967 H 2723.72 2.92028 -1.39648 0
M  V30 30968 H 2722.63 1.66999 -3.34757 0
M  V30 30969 H 2723.96 2.21478 -4.39554 0
M  V30 30970 N 2725.62 1.50103 0.480296 0
M  V30 30971 C 2727.03 1.37325 0.813271 0
M  V30 30972 C 2727.23 0.422241 1.97026 0
M  V30 30973 O 2726.29 -0.138519 2.5212 0
M  V30 30974 C 2727.6 2.78498 1.13399 0
M  V30 30975 C 2729.15 2.87347 1.24099 0
M  V30 30976 C 2729.62 4.29333 1.5949 0
M  V30 30977 N 2731.12 4.32241 1.66499 0
M  V30 30978 C 2731.85 5.3909 1.95369 0
M  V30 30979 N 2731.35 6.56159 2.22322 0
M  V30 30980 N 2733.14 5.26525 1.96794 0
M  V30 30981 H 2725.29 2.10515 -0.282328 0
M  V30 30982 H 2727.55 0.945853 -0.0637686 0
M  V30 30983 H 2727.26 3.49883 0.357002 0
M  V30 30984 H 2727.13 3.15165 2.07245 0
M  V30 30985 H 2729.52 2.16186 2.00867 0
M  V30 30986 H 2729.6 2.54235 0.282549 0
M  V30 30987 H 2729.25 5.01028 0.832648 0
M  V30 30988 H 2729.18 4.59925 2.56469 0
M  V30 30989 H 2731.67 3.47821 1.47747 0
M  V30 30990 H 2731.98 7.33403 2.43598 0
M  V30 30991 H 2730.32 6.5935 2.19734 0
M  V30 30992 H 2733.52 4.34066 1.75228 0
M  V30 30993 H 2733.69 6.09886 2.18958 0
M  V30 30994 N 2727.09 -0.732829 1.39526 0
M  V30 30995 C 2728.51 -1.03866 1.21177 0
M  V30 30996 C 2728.71 -2.01361 0.0748802 0
M  V30 30997 O 2727.77 -2.45918 -0.572767 0
M  V30 30998 C 2729.08 -1.59887 2.5467 0
M  V30 30999 C 2730.63 -1.71957 2.61533 0
M  V30 31000 C 2731.1 -2.31387 3.95252 0
M  V30 31001 N 2732.59 -2.38794 3.96903 0
M  V30 31002 C 2733.33 -2.8572 4.97143 0
M  V30 31003 N 2732.82 -3.32527 6.07781 0
M  V30 31004 N 2734.62 -2.84949 4.84521 0
M  V30 31005 H 2726.77 -0.0862667 2.12225 0
M  V30 31006 H 2729.03 -0.10089 0.942616 0
M  V30 31007 H 2728.74 -0.957151 3.38425 0
M  V30 31008 H 2728.61 -2.58663 2.74542 0
M  V30 31009 H 2731 -2.35251 1.7816 0
M  V30 31010 H 2731.08 -0.718284 2.45508 0
M  V30 31011 H 2730.72 -1.6872 4.79057 0
M  V30 31012 H 2730.65 -3.32197 4.08599 0
M  V30 31013 H 2733.14 -2.05714 3.17002 0
M  V30 31014 H 2733.46 -3.6685 6.80177 0
M  V30 31015 H 2731.8 -3.3053 6.11371 0
M  V30 31016 H 2734.99 -2.47706 3.97189 0
M  V30 31017 H 2735.17 -3.21206 5.62789 0
M  V30 31018 N 2728.57 -1.24737 -0.963244 0
M  V30 31019 C 2729.48 -1.06085 -2.09244 0
M  V30 31020 C 2730.5 -0.000393686 -1.74 0
M  V30 31021 O 2731.67 -0.199514 -2.00409 0
M  V30 31022 C 2728.74 -0.672558 -3.40114 0
M  V30 31023 C 2727.8 -1.81 -3.89278 0
M  V30 31024 C 2727.03 -1.44013 -5.13903 0
M  V30 31025 O 2727.26 -0.331935 -5.69433 0
M  V30 31026 O 2726.19 -2.26733 -5.57562 0
M  V30 31027 H 2730.02 -2.00763 -2.27877 0
M  V30 31028 H 2727.6 -1.03597 -1.07648 0
M  V30 31029 H 2729.48 -0.467742 -4.18796 0
M  V30 31030 H 2728.16 0.245045 -3.22771 0
M  V30 31031 H 2727.07 -2.0696 -3.11638 0
M  V30 31032 H 2728.4 -2.70653 -4.11105 0
M  V30 31033 N 2730.05 1.16459 -1.06184 0
M  V30 31034 C 2731.28 1.90866 -0.798617 0
M  V30 31035 C 2731.69 1.77372 0.64689 0
M  V30 31036 O 2731.05 1.11761 1.44277 0
M  V30 31037 C 2731.1 3.41608 -1.18264 0
M  V30 31038 O 2730.82 3.54697 -2.57141 0
M  V30 31039 C 2732.32 4.33067 -0.946993 0
M  V30 31040 H 2729.54 0.605281 -0.289614 0
M  V30 31041 H 2732.09 1.47624 -1.41518 0
M  V30 31042 H 2730.24 3.82557 -0.61063 0
M  V30 31043 H 2730.66 4.48165 -2.72485 0
M  V30 31044 H 2732.13 5.37302 -1.26533 0
M  V30 31045 H 2732.61 4.39043 0.117329 0
M  V30 31046 H 2733.21 3.97844 -1.50333 0
M  V30 31047 N 2731.53 0.844266 1.33079 0
M  V30 31048 C 2732.48 0.269994 2.31028 0
M  V30 31049 C 2733.47 -0.600969 1.58382 0
M  V30 31050 O 2734.68 -0.48993 1.73204 0
M  V30 31051 H 2731.05 0.0685914 0.748865 0
M  V30 31052 H 2733.02 1.11054 2.76965 0
M  V30 31053 C 2731.77 -0.535615 3.4355 0
M  V30 31054 H 2731.09 0.125272 3.99604 0
M  V30 31055 H 2732.53 -0.903189 4.14269 0
M  V30 31056 C 2730.99 -1.71667 2.89883 0
M  V30 31057 O 2731.52 -2.81552 2.86516 0
M  V30 31058 N 2729.73 -1.54033 2.46419 0
M  V30 31059 H 2729.28 -0.646446 2.49357 0
M  V30 31060 H 2729.23 -2.33203 2.10864 0
M  V30 31061 N 2733.01 -1.45682 0.60121 0
M  V30 31062 C 2734.42 -1.85833 0.179691 0
M  V30 31063 C 2734.77 -1.50238 -1.26186 0
M  V30 31064 O 2733.89 -0.926022 -1.95586 0
M  V30 31065 C 2734.49 -3.37292 0.319336 0
M  V30 31066 C 2733.05 -3.7637 -0.0474431 0
M  V30 31067 C 2732.19 -2.69653 0.646739 0
M  V30 31068 H 2735.15 -1.36574 0.808292 0
M  V30 31069 H 2735.17 -3.77827 -0.450234 0
M  V30 31070 H 2734.68 -3.63167 1.36861 0
M  V30 31071 H 2732.78 -3.56112 -1.09614 0
M  V30 31072 H 2732.89 -4.77879 0.341764 0
M  V30 31073 H 2731.26 -2.54558 0.0850419 0
M  V30 31074 H 2732.04 -2.98366 1.69802 0
M  V30 31075 N 2734.48 -0.340009 -1.53889 0
M  V30 31076 C 2735.73 0.258569 -2.00036 0
M  V30 31077 C 2736.05 1.5194 -1.23182 0
M  V30 31078 O 2737.25 2.195 -1.59788 0
M  V30 31079 C 2735.71 0.511296 -3.5625 0
M  V30 31080 C 2735.32 -0.733427 -4.41956 0
M  V30 31081 C 2737.06 1.06893 -4.10821 0
M  V30 31082 C 2734.97 -0.451694 -5.89673 0
M  V30 31083 H 2733.9 0.100396 -0.747286 0
M  V30 31084 H 2736.55 -0.454789 -1.77775 0
M  V30 31085 H 2734.93 1.28526 -3.74562 0
M  V30 31086 H 2736.1 -1.50823 -4.35418 0
M  V30 31087 H 2734.42 -1.21244 -3.98358 0
M  V30 31088 H 2737.02 1.29461 -5.18791 0
M  V30 31089 H 2737.36 2.02337 -3.63821 0
M  V30 31090 H 2737.89 0.355748 -3.96206 0
M  V30 31091 H 2734.63 -1.37576 -6.409 0
M  V30 31092 H 2734.15 0.285088 -5.99122 0
M  V30 31093 H 2735.83 -0.0676204 -6.46965 0
M  V30 31094 N 2735.96 1.57451 -0.0685468 0
M  V30 31095 C 2737.37 1.80827 0.464602 0
M  V30 31096 C 2737.73 0.982198 1.69845 0
M  V30 31097 O 2736.85 0.203772 2.15438 0
M  V30 31098 C 2737.45 3.27973 0.849663 0
M  V30 31099 C 2736 3.52206 1.32769 0
M  V30 31100 C 2735.15 2.75547 0.311283 0
M  V30 31101 H 2738.1 1.55948 -0.294275 0
M  V30 31102 H 2738.12 3.39844 1.71132 0
M  V30 31103 H 2737.64 3.8807 -0.0485419 0
M  V30 31104 H 2735.74 2.9741 2.24451 0
M  V30 31105 H 2735.85 4.60903 1.30786 0
M  V30 31106 H 2734.21 2.42208 0.787873 0
M  V30 31107 H 2735 3.3838 -0.579138 0
M  V30 31108 N 2737.44 -0.204984 1.56261 0
M  V30 31109 C 2738.69 -0.926895 1.80041 0
M  V30 31110 C 2739.02 -1.83665 0.640118 0
M  V30 31111 O 2738.27 -1.9208 -0.374668 0
M  V30 31112 C 2738.57 -1.7834 3.09725 0
M  V30 31113 C 2738.24 -1.02547 4.39084 0
M  V30 31114 C 2736.9 -0.816172 4.74228 0
M  V30 31115 C 2739.25 -0.491468 5.18878 0
M  V30 31116 C 2736.58 -0.0612256 5.86668 0
M  V30 31117 C 2738.93 0.250218 6.32105 0
M  V30 31118 C 2737.59 0.470625 6.65839 0
M  V30 31119 H 2736.86 -0.339175 0.658818 0
M  V30 31120 H 2739.51 -0.193917 1.90516 0
M  V30 31121 H 2737.82 -2.58475 2.94445 0
M  V30 31122 H 2739.51 -2.3444 3.25329 0
M  V30 31123 H 2736.1 -1.19861 4.11499 0
M  V30 31124 H 2740.29 -0.640598 4.92148 0
M  V30 31125 H 2735.54 0.119608 6.11283 0
M  V30 31126 H 2739.72 0.671429 6.93156 0
M  V30 31127 H 2737.34 1.05753 7.52808 0
M  V30 31128 N 2738.92 -1.50356 -0.472329 0
M  V30 31129 C 2740.14 -1.65311 -1.25248 0
M  V30 31130 C 2740.57 -0.335675 -1.85081 0
M  V30 31131 O 2739.93 0.700306 -1.67229 0
M  V30 31132 C 2739.98 -2.74548 -2.33785 0
M  V30 31133 O 2739.08 -2.35715 -3.38396 0
M  V30 31134 H 2738.42 -0.552343 -0.368529 0
M  V30 31135 H 2740.95 -1.96723 -0.562236 0
M  V30 31136 H 2740.96 -2.97587 -2.79116 0
M  V30 31137 H 2739.64 -3.70165 -1.89607 0
M  V30 31138 H 2738.21 -2.23118 -2.98786 0
M  V30 31139 N 2740.4 0.725419 -1.39912 0
M  V30 31140 C 2741.62 1.51968 -1.4114 0
M  V30 31141 C 2742.05 1.88097 -0.010295 0
M  V30 31142 O 2741.41 1.52585 0.979157 0
M  V30 31143 C 2741.45 2.77773 -2.29945 0
M  V30 31144 O 2740.56 3.74085 -1.73593 0
M  V30 31145 H 2739.9 0.458561 -0.480227 0
M  V30 31146 H 2742.43 0.894217 -1.84024 0
M  V30 31147 H 2742.44 3.26407 -2.44791 0
M  V30 31148 H 2741.11 2.5081 -3.31764 0
M  V30 31149 H 2739.69 3.32891 -1.68041 0
M  V30 31150 N 2741.88 1.25246 0.956615 0
M  V30 31151 C 2742.82 1.05244 2.07428 0
M  V30 31152 C 2743.82 -0.0160427 1.69392 0
M  V30 31153 O 2745.02 0.139413 1.79459 0
M  V30 31154 H 2741.4 0.323385 0.678915 0
M  V30 31155 H 2743.37 1.99999 2.21456 0
M  V30 31156 C 2742.12 0.685762 3.4087 0
M  V30 31157 H 2741.44 1.49974 3.70605 0
M  V30 31158 H 2742.88 0.585488 4.19938 0
M  V30 31159 C 2741.34 -0.608024 3.31368 0
M  V30 31160 O 2741.87 -1.65069 3.66217 0
M  V30 31161 N 2740.08 -0.592905 2.84487 0
M  V30 31162 H 2739.62 0.255965 2.56325 0
M  V30 31163 H 2739.58 -1.45872 2.78512 0
M  V30 31164 N 2743.35 -1.15894 1.068 0
M  V30 31165 C 2744.29 -2.19402 0.627542 0
M  V30 31166 C 2745.26 -1.58737 -0.352324 0
M  V30 31167 O 2746.45 -1.86697 -0.260078 0
M  V30 31168 C 2743.58 -3.38607 -0.0792965 0
M  V30 31169 C 2742.62 -4.17778 0.858131 0
M  V30 31170 S 2743.45 -4.80881 2.35614 0
M  V30 31171 C 2744.61 -6.0346 1.66094 0
M  V30 31172 H 2744.84 -2.56424 1.50445 0
M  V30 31173 H 2742.38 -1.26767 0.88145 0
M  V30 31174 H 2744.33 -4.07674 -0.480878 0
M  V30 31175 H 2743 -2.9994 -0.932471 0
M  V30 31176 H 2742.19 -5.03045 0.310197 0
M  V30 31177 H 2741.79 -3.54232 1.19983 0
M  V30 31178 H 2744.08 -6.70528 0.969455 0
M  V30 31179 H 2745.03 -6.62812 2.49171 0
M  V30 31180 H 2745.43 -5.52842 1.14132 0
M  V30 31181 N 2744.83 -0.851312 -1.32629 0
M  V30 31182 C 2746.08 -0.449302 -1.96632 0
M  V30 31183 C 2746.39 0.999533 -1.68133 0
M  V30 31184 O 2747.6 1.50681 -2.25848 0
M  V30 31185 C 2746.06 -0.752507 -3.51945 0
M  V30 31186 C 2745.66 -2.21685 -3.89307 0
M  V30 31187 C 2747.41 -0.418057 -4.22436 0
M  V30 31188 C 2745.31 -2.46345 -5.37651 0
M  V30 31189 H 2744.24 -0.164282 -0.735886 0
M  V30 31190 H 2746.9 -1.04163 -1.51071 0
M  V30 31191 H 2745.28 -0.0896554 -3.95898 0
M  V30 31192 H 2746.45 -2.92121 -3.56373 0
M  V30 31193 H 2744.77 -2.51549 -3.31831 0
M  V30 31194 H 2747.36 -0.579768 -5.31548 0
M  V30 31195 H 2747.71 0.640043 -4.1135 0
M  V30 31196 H 2748.24 -1.03666 -3.84055 0
M  V30 31197 H 2744.98 -3.50767 -5.53753 0
M  V30 31198 H 2744.5 -1.80483 -5.72002 0
M  V30 31199 H 2746.18 -2.30125 -6.04691 0
M  V30 31200 N 2746.31 1.45361 -0.608928 0
M  V30 31201 C 2747.26 2.32282 0.121598 0
M  V30 31202 C 2748.25 1.46048 0.858275 0
M  V30 31203 O 2749.46 1.62524 0.773689 0
M  V30 31204 H 2745.83 0.749754 0.0580728 0
M  V30 31205 H 2747.8 2.91676 -0.629918 0
M  V30 31206 C 2746.55 3.29686 1.10464 0
M  V30 31207 H 2745.88 3.96037 0.547208 0
M  V30 31208 H 2747.32 3.93232 1.58569 0
M  V30 31209 C 2745.77 2.56957 2.17886 0
M  V30 31210 O 2746.3 2.35195 3.25648 0
M  V30 31211 N 2744.51 2.1707 1.93207 0
M  V30 31212 H 2744.06 2.34969 1.0558 0
M  V30 31213 H 2744.02 1.68731 2.65287 0
M  V30 31214 N 2747.79 0.348166 1.53706 0
M  V30 31215 C 2748.7 -0.514817 2.28882 0
M  V30 31216 C 2749.71 -1.1079 1.3417 0
M  V30 31217 O 2750.89 -1.12259 1.67212 0
M  V30 31218 C 2747.95 -1.64768 3.05045 0
M  V30 31219 C 2747.02 -1.08391 4.15391 0
M  V30 31220 C 2746.25 -2.16278 4.87913 0
M  V30 31221 O 2746.47 -3.37082 4.60143 0
M  V30 31222 O 2745.41 -1.80313 5.74257 0
M  V30 31223 H 2749.23 0.0964232 3.03547 0
M  V30 31224 H 2746.82 0.113069 1.48972 0
M  V30 31225 H 2748.7 -2.30671 3.5266 0
M  V30 31226 H 2747.37 -2.24465 2.33232 0
M  V30 31227 H 2746.28 -0.389275 3.72069 0
M  V30 31228 H 2747.61 -0.531743 4.89319 0
M  V30 31229 N 2749.27 -1.57412 0.0768958 0
M  V30 31230 C 2750.21 -2.13011 -0.88854 0
M  V30 31231 C 2751.18 -1.04392 -1.29196 0
M  V30 31232 O 2752.37 -1.32082 -1.37692 0
M  V30 31233 C 2749.51 -2.70027 -2.14894 0
M  V30 31234 C 2748.62 -3.92819 -1.7977 0
M  V30 31235 C 2747.76 -4.38061 -3.00459 0
M  V30 31236 C 2746.79 -5.53488 -2.61376 0
M  V30 31237 N 2745.93 -5.93666 -3.74841 0
M  V30 31238 H 2750.77 -2.952 -0.407542 0
M  V30 31239 H 2748.31 -1.45874 -0.189509 0
M  V30 31240 H 2750.27 -3.01195 -2.88682 0
M  V30 31241 H 2748.9 -1.90595 -2.60525 0
M  V30 31242 H 2747.95 -3.68081 -0.960237 0
M  V30 31243 H 2749.26 -4.76641 -1.47019 0
M  V30 31244 H 2748.41 -4.70917 -3.8252 0
M  V30 31245 H 2747.15 -3.53103 -3.36407 0
M  V30 31246 H 2746.16 -5.20278 -1.77737 0
M  V30 31247 H 2747.38 -6.40182 -2.26592 0
M  V30 31248 H 2745.33 -5.11656 -4.10541 0
M  V30 31249 H 2745.25 -6.7224 -3.45875 0
M  V30 31250 H 2746.51 -6.31146 -4.57466 0
M  V30 31251 N 2750.74 0.196695 -1.56368 0
M  V30 31252 C 2751.69 1.26327 -1.95306 0
M  V30 31253 C 2752.69 1.47205 -0.838278 0
M  V30 31254 O 2753.89 1.48085 -1.02327 0
M  V30 31255 H 2750.27 0.424073 -0.62102 0
M  V30 31256 H 2752.24 0.907829 -2.84255 0
M  V30 31257 C 2750.99 2.601 -2.30745 0
M  V30 31258 H 2750.31 2.4485 -3.16051 0
M  V30 31259 H 2751.75 3.33479 -2.61854 0
M  V30 31260 C 2750.21 3.16973 -1.14149 0
M  V30 31261 O 2750.74 3.99544 -0.415672 0
M  V30 31262 N 2748.95 2.75695 -0.918719 0
M  V30 31263 H 2748.49 2.08653 -1.51068 0
M  V30 31264 H 2748.45 3.14086 -0.140376 0
M  V30 31265 N 2752.22 1.50604 0.464349 0
M  V30 31266 C 2753.17 1.69959 1.56149 0
M  V30 31267 C 2754.14 0.540938 1.57045 0
M  V30 31268 O 2755.32 0.772289 1.74472 0
M  V30 31269 C 2752.46 1.80591 2.94076 0
M  V30 31270 C 2751.58 3.08002 3.02917 0
M  V30 31271 C 2750.71 3.09389 4.31801 0
M  V30 31272 C 2749.75 4.31225 4.34409 0
M  V30 31273 N 2748.89 4.30314 5.54774 0
M  V30 31274 H 2753.73 2.63623 1.3895 0
M  V30 31275 H 2751.27 1.30675 0.675459 0
M  V30 31276 H 2753.22 1.84737 3.7407 0
M  V30 31277 H 2751.85 0.903611 3.09895 0
M  V30 31278 H 2750.91 3.13295 2.15755 0
M  V30 31279 H 2752.22 3.97968 3.00705 0
M  V30 31280 H 2751.37 3.12301 5.20147 0
M  V30 31281 H 2750.11 2.17265 4.36632 0
M  V30 31282 H 2749.12 4.28518 3.44459 0
M  V30 31283 H 2750.34 5.24584 4.31264 0
M  V30 31284 H 2748.29 3.41047 5.60378 0
M  V30 31285 H 2748.2 5.14056 5.5433 0
M  V30 31286 H 2749.47 4.37381 6.45227 0
M  V30 31287 N 2753.7 -0.717989 1.40295 0
M  V30 31288 C 2754.61 -1.86224 1.42681 0
M  V30 31289 C 2755.63 -1.71038 0.319685 0
M  V30 31290 O 2756.8 -1.93345 0.563886 0
M  V30 31291 C 2753.87 -3.21997 1.28526 0
M  V30 31292 C 2752.93 -3.49454 2.4936 0
M  V30 31293 C 2752.16 -4.78749 2.35871 0
M  V30 31294 O 2752.38 -5.53673 1.37123 0
M  V30 31295 O 2751.32 -5.06488 3.25198 0
M  V30 31296 H 2755.14 -1.87167 2.3917 0
M  V30 31297 H 2752.73 -0.868091 1.21592 0
M  V30 31298 H 2754.61 -4.03101 1.22831 0
M  V30 31299 H 2753.29 -3.21787 0.351415 0
M  V30 31300 H 2752.19 -2.68368 2.60633 0
M  V30 31301 H 2753.53 -3.54458 3.41497 0
M  V30 31302 N 2755.18 -1.25752 -0.94996 0
M  V30 31303 C 2756.14 -1.06618 -2.02892 0
M  V30 31304 C 2757.14 -0.0174188 -1.60791 0
M  V30 31305 O 2758.33 -0.260033 -1.72248 0
M  V30 31306 C 2755.46 -0.61981 -3.35218 0
M  V30 31307 H 2756.66 -2.02403 -2.21298 0
M  V30 31308 H 2754.21 -1.08225 -1.1277 0
M  V30 31309 H 2754.94 0.340429 -3.22508 0
M  V30 31310 H 2754.73 -1.37698 -3.67126 0
M  V30 31311 H 2756.22 -0.507516 -4.14505 0
M  V30 31312 N 2756.66 1.15326 -1.07413 0
M  V30 31313 C 2757.61 2.18092 -0.664826 0
M  V30 31314 C 2758.59 1.57878 0.310367 0
M  V30 31315 O 2759.78 1.76565 0.123995 0
M  V30 31316 C 2756.91 3.43239 -0.0648425 0
M  V30 31317 C 2756 4.10505 -1.06521 0
M  V30 31318 N 2756.39 4.53248 -2.24499 0
M  V30 31319 C 2754.69 4.36852 -0.89869 0
M  V30 31320 C 2755.39 5.05419 -2.87969 0
M  V30 31321 N 2754.36 4.99003 -2.15631 0
M  V30 31322 H 2758.17 2.48869 -1.56337 0
M  V30 31323 H 2755.68 1.31901 -0.947416 0
M  V30 31324 H 2757.68 4.16172 0.24629 0
M  V30 31325 H 2756.34 3.13944 0.828811 0
M  V30 31326 H 2757.35 4.46615 -2.62213 0
M  V30 31327 H 2754.02 4.1746 -0.0579852 0
M  V30 31328 H 2755.41 5.48445 -3.88146 0
M  V30 31329 N 2758.13 0.858334 1.32176 0
M  V30 31330 C 2759.08 0.303647 2.28794 0
M  V30 31331 C 2760.05 -0.591426 1.55214 0
M  V30 31332 O 2761.24 -0.525553 1.83419 0
M  V30 31333 C 2758.38 -0.49883 3.41476 0
M  V30 31334 C 2757.49 0.422448 4.2993 0
M  V30 31335 C 2756.62 -0.393018 5.29744 0
M  V30 31336 C 2755.66 0.525425 6.09841 0
M  V30 31337 N 2754.8 -0.253084 7.01644 0
M  V30 31338 H 2759.64 1.13281 2.75629 0
M  V30 31339 H 2757.18 0.570049 1.35605 0
M  V30 31340 H 2759.14 -0.979755 4.05533 0
M  V30 31341 H 2757.77 -1.29279 2.95782 0
M  V30 31342 H 2756.82 1.02178 3.6642 0
M  V30 31343 H 2758.13 1.12717 4.85897 0
M  V30 31344 H 2757.28 -0.936951 5.99421 0
M  V30 31345 H 2756.02 -1.13109 4.74402 0
M  V30 31346 H 2755.03 1.08121 5.39064 0
M  V30 31347 H 2756.25 1.26216 6.67268 0
M  V30 31348 H 2754.2 -0.974181 6.48726 0
M  V30 31349 H 2754.12 0.392531 7.5498 0
M  V30 31350 H 2755.38 -0.778625 7.75602 0
M  V30 31351 N 2759.61 -1.45036 0.616628 0
M  V30 31352 C 2760.52 -2.34393 -0.0984989 0
M  V30 31353 C 2761.54 -1.51773 -0.850944 0
M  V30 31354 O 2762.71 -1.84547 -0.806488 0
M  V30 31355 C 2759.78 -3.29534 -1.07742 0
M  V30 31356 C 2758.84 -4.28061 -0.325946 0
M  V30 31357 C 2758.07 -5.18656 -1.25824 0
M  V30 31358 O 2758.3 -5.12869 -2.49643 0
M  V30 31359 O 2757.23 -5.97204 -0.750407 0
M  V30 31360 H 2761.06 -2.96964 0.636068 0
M  V30 31361 H 2758.64 -1.44569 0.376857 0
M  V30 31362 H 2760.52 -3.88135 -1.641 0
M  V30 31363 H 2759.2 -2.69515 -1.79286 0
M  V30 31364 H 2758.11 -3.73048 0.280319 0
M  V30 31365 H 2759.44 -4.9096 0.349177 0
M  V30 31366 N 2761.09 -0.356312 -1.53519 0
M  V30 31367 C 2762.04 0.510776 -2.22205 0
M  V30 31368 C 2763.02 1.05603 -1.21395 0
M  V30 31369 O 2764.22 0.987613 -1.46885 0
M  V30 31370 C 2761.35 1.65472 -3.00789 0
M  V30 31371 C 2760.43 1.12279 -4.08967 0
M  V30 31372 N 2760.82 0.313102 -5.0483 0
M  V30 31373 C 2759.12 1.39849 -4.23507 0
M  V30 31374 C 2759.82 0.02293 -5.81695 0
M  V30 31375 N 2758.8 0.618049 -5.40075 0
M  V30 31376 H 2762.6 -0.114763 -2.93676 0
M  V30 31377 H 2760.11 -0.163839 -1.61571 0
M  V30 31378 H 2762.11 2.288 -3.48506 0
M  V30 31379 H 2760.77 2.28341 -2.30847 0
M  V30 31380 H 2761.78 -0.0469113 -5.17879 0
M  V30 31381 H 2758.46 2.03064 -3.6479 0
M  V30 31382 H 2759.85 -0.631045 -6.6893 0
M  V30 31383 N 2762.57 1.57369 -0.0852427 0
M  V30 31384 C 2763.8 1.98039 0.588571 0
M  V30 31385 C 2764.21 0.962846 1.62868 0
M  V30 31386 O 2763.55 -0.0571017 1.83611 0
M  V30 31387 C 2763.61 3.35056 1.30298 0
M  V30 31388 C 2763.28 4.55114 0.414776 0
M  V30 31389 C 2764.27 5.18832 -0.333103 0
M  V30 31390 C 2761.96 5.01177 0.335716 0
M  V30 31391 C 2763.95 6.26974 -1.14812 0
M  V30 31392 C 2761.64 6.09189 -0.482964 0
M  V30 31393 C 2762.64 6.71951 -1.22354 0
M  V30 31394 O 2762.32 7.77881 -2.02869 0
M  V30 31395 H 2762.06 0.655995 0.163237 0
M  V30 31396 H 2764.61 2.0479 -0.158236 0
M  V30 31397 H 2762.84 3.2496 2.09614 0
M  V30 31398 H 2764.53 3.6024 1.87035 0
M  V30 31399 H 2765.3 4.84181 -0.281696 0
M  V30 31400 H 2761.17 4.52094 0.90179 0
M  V30 31401 H 2764.72 6.75894 -1.72666 0
M  V30 31402 H 2760.62 6.43272 -0.535886 0
M  V30 31403 H 2761.38 7.94823 -1.95445 0
M  V30 31404 N 2764.05 -0.188399 1.5647 0
M  V30 31405 C 2765.29 -0.905954 1.80657 0
M  V30 31406 C 2765.62 -1.83512 0.659423 0
M  V30 31407 O 2764.89 -1.93238 -0.321834 0
M  V30 31408 H 2763.47 -0.337526 0.666397 0
M  V30 31409 H 2766.13 -0.192305 1.93949 0
M  V30 31410 H 2765.22 -1.49308 2.74069 0
M  V30 31411 N 2765.53 -1.50848 -0.456355 0
M  V30 31412 C 2766.47 -1.71332 -1.57315 0
M  V30 31413 C 2767.47 -0.579315 -1.59186 0
M  V30 31414 O 2768.67 -0.760209 -1.63159 0
M  V30 31415 H 2765.05 -0.541033 -0.52229 0
M  V30 31416 H 2767.02 -2.64986 -1.37205 0
M  V30 31417 C 2765.77 -1.83816 -2.95139 0
M  V30 31418 H 2765.09 -2.70472 -2.94423 0
M  V30 31419 H 2766.53 -2.02168 -3.72698 0
M  V30 31420 C 2764.99 -0.593282 -3.31635 0
M  V30 31421 O 2765.52 0.260827 -4.00852 0
M  V30 31422 N 2763.73 -0.442953 -2.87204 0
M  V30 31423 H 2763.27 -1.13905 -2.31049 0
M  V30 31424 H 2763.23 0.388785 -3.11987 0
M  V30 31425 N 2767 0.710538 -1.40674 0
M  V30 31426 C 2768.25 1.47047 -1.39224 0
M  V30 31427 C 2768.58 1.945 0.00373492 0
M  V30 31428 O 2767.83 1.68859 0.989194 0
M  V30 31429 C 2768.13 2.70787 -2.33258 0
M  V30 31430 C 2767.8 2.42072 -3.8041 0
M  V30 31431 C 2766.46 2.33951 -4.205 0
M  V30 31432 C 2768.81 2.18086 -4.73379 0
M  V30 31433 C 2766.14 1.99919 -5.51588 0
M  V30 31434 C 2768.49 1.85566 -6.04771 0
M  V30 31435 C 2767.16 1.7593 -6.43898 0
M  V30 31436 H 2766.43 0.538083 -0.509458 0
M  V30 31437 H 2769.07 0.81345 -1.73364 0
M  V30 31438 H 2767.38 3.41351 -1.9232 0
M  V30 31439 H 2769.08 3.2889 -2.29417 0
M  V30 31440 H 2765.67 2.49282 -3.4865 0
M  V30 31441 H 2769.85 2.23313 -4.43221 0
M  V30 31442 H 2765.11 1.91 -5.808 0
M  V30 31443 H 2769.28 1.66021 -6.76321 0
M  V30 31444 H 2766.91 1.49327 -7.4539 0
M  V30 31445 N 2768.48 1.26254 0.943277 0
M  V30 31446 C 2769.43 1.07438 2.063 0
M  V30 31447 C 2770.42 0.00192449 1.694 0
M  V30 31448 O 2771.63 0.15844 1.79301 0
M  V30 31449 H 2768 0.330568 0.675447 0
M  V30 31450 H 2769.98 2.02337 2.19323 0
M  V30 31451 C 2768.72 0.721877 3.40124 0
M  V30 31452 H 2768.05 1.53897 3.68993 0
M  V30 31453 H 2769.49 0.629995 4.19294 0
M  V30 31454 C 2767.95 -0.572844 3.31994 0
M  V30 31455 O 2768.48 -1.61176 3.67947 0
M  V30 31456 N 2766.68 -0.562698 2.851 0
M  V30 31457 H 2766.23 0.283137 2.56039 0
M  V30 31458 H 2766.19 -1.4291 2.80043 0
M  V30 31459 N 2769.96 -1.14755 1.08024 0
M  V30 31460 C 2771.38 -1.37688 0.807096 0
M  V30 31461 C 2771.58 -1.92807 -0.58547 0
M  V30 31462 O 2770.63 -2.13824 -1.34297 0
M  V30 31463 C 2771.94 -2.34158 1.88655 0
M  V30 31464 C 2773.49 -2.47805 1.91211 0
M  V30 31465 C 2773.97 -3.47571 2.98259 0
M  V30 31466 N 2775.46 -3.55111 2.97406 0
M  V30 31467 C 2776.19 -4.32145 3.76879 0
M  V30 31468 N 2775.69 -5.12455 4.66221 0
M  V30 31469 N 2777.48 -4.27302 3.65198 0
M  V30 31470 H 2769.63 -0.773225 1.97826 0
M  V30 31471 H 2771.9 -0.402593 0.858267 0
M  V30 31472 H 2771.6 -2.00786 2.88752 0
M  V30 31473 H 2771.48 -3.34017 1.7525 0
M  V30 31474 H 2773.86 -2.80471 0.917613 0
M  V30 31475 H 2773.94 -1.47921 2.08694 0
M  V30 31476 H 2773.59 -3.15639 3.97912 0
M  V30 31477 H 2773.52 -4.47226 2.78022 0
M  V30 31478 H 2776.01 -2.97797 2.32649 0
M  V30 31479 H 2776.32 -5.68499 5.23478 0
M  V30 31480 H 2774.67 -5.11737 4.70266 0
M  V30 31481 H 2777.86 -3.63631 2.94772 0
M  V30 31482 H 2778.03 -4.87088 4.27375 0
M  V30 31483 N 2771.44 -0.865331 -1.31719 0
M  V30 31484 C 2772.85 -0.527158 -1.79103 0
M  V30 31485 C 2773.2 0.955665 -1.71352 0
M  V30 31486 O 2772.32 1.74596 -1.27848 0
M  V30 31487 C 2772.92 -0.950118 -3.25205 0
M  V30 31488 C 2771.48 -0.663676 -3.70503 0
M  V30 31489 C 2770.63 -1.14399 -2.52603 0
M  V30 31490 H 2773.58 -1.0515 -1.18866 0
M  V30 31491 H 2773.6 -0.270872 -3.79535 0
M  V30 31492 H 2773.11 -2.02937 -3.30814 0
M  V30 31493 H 2771.21 0.404409 -3.70399 0
M  V30 31494 H 2771.32 -1.23745 -4.62843 0
M  V30 31495 H 2769.69 -0.563903 -2.48379 0
M  V30 31496 H 2770.47 -2.23057 -2.6096 0
M  V30 31497 N 2772.92 1.44707 -0.624311 0
M  V30 31498 C 2774.15 2.06173 -0.132763 0
M  V30 31499 C 2774.55 1.46676 1.1951 0
M  V30 31500 O 2773.9 0.581522 1.74253 0
M  V30 31501 C 2773.96 3.59444 0.0636101 0
M  V30 31502 C 2773.62 4.41368 -1.18503 0
M  V30 31503 C 2774.62 4.75285 -2.10715 0
M  V30 31504 C 2772.3 4.81853 -1.41854 0
M  V30 31505 C 2774.3 5.48561 -3.24592 0
M  V30 31506 C 2771.99 5.5488 -2.56029 0
M  V30 31507 C 2772.98 5.88153 -3.47225 0
M  V30 31508 O 2772.67 6.59695 -4.59411 0
M  V30 31509 H 2772.4 0.671966 -0.0737432 0
M  V30 31510 H 2774.96 1.86675 -0.856822 0
M  V30 31511 H 2773.19 3.77405 0.842743 0
M  V30 31512 H 2774.88 4.02698 0.508853 0
M  V30 31513 H 2775.64 4.44551 -1.93906 0
M  V30 31514 H 2771.52 4.5538 -0.717636 0
M  V30 31515 H 2775.07 5.74449 -3.95795 0
M  V30 31516 H 2770.96 5.85029 -2.72784 0
M  V30 31517 H 2771.73 6.78158 -4.58305 0
M  V30 31518 N 2774.39 0.364449 1.53328 0
M  V30 31519 C 2775.34 -0.497697 2.27213 0
M  V30 31520 C 2776.34 -1.08434 1.30147 0
M  V30 31521 O 2777.54 -1.02767 1.4778 0
M  V30 31522 H 2773.92 -0.179219 0.730332 0
M  V30 31523 H 2775.89 0.147235 2.98037 0
M  V30 31524 C 2774.64 -1.62604 3.07335 0
M  V30 31525 H 2773.96 -1.18393 3.81868 0
M  V30 31526 H 2775.4 -2.20403 3.62213 0
M  V30 31527 C 2773.86 -2.56771 2.18106 0
M  V30 31528 O 2774.39 -3.59559 1.7911 0
M  V30 31529 N 2772.59 -2.25934 1.82763 0
M  V30 31530 H 2772.14 -1.42384 2.14673 0
M  V30 31531 H 2772.1 -2.89194 1.23347 0
M  V30 31532 N 2775.87 -1.57322 0.0935872 0
M  V30 31533 C 2777.12 -1.93474 -0.570157 0
M  V30 31534 C 2777.43 -0.977348 -1.69432 0
M  V30 31535 O 2778.64 -1.23252 -2.41911 0
M  V30 31536 C 2777.1 -3.43764 -1.06558 0
M  V30 31537 C 2776.7 -4.47991 0.0287511 0
M  V30 31538 C 2778.45 -3.8888 -1.70214 0
M  V30 31539 C 2776.35 -5.89433 -0.481943 0
M  V30 31540 H 2775.28 -0.722174 -0.216751 0
M  V30 31541 H 2777.94 -1.82717 0.169345 0
M  V30 31542 H 2776.32 -3.49668 -1.85872 0
M  V30 31543 H 2777.49 -4.53728 0.804186 0
M  V30 31544 H 2775.81 -4.12475 0.570408 0
M  V30 31545 H 2778.4 -4.91952 -2.09493 0
M  V30 31546 H 2778.75 -3.27444 -2.57072 0
M  V30 31547 H 2779.28 -3.8567 -0.974851 0
M  V30 31548 H 2776.02 -6.54565 0.349986 0
M  V30 31549 H 2775.54 -5.8717 -1.22442 0
M  V30 31550 H 2777.22 -6.39967 -0.951395 0
M  V30 31551 N 2777.35 0.180099 -1.56568 0
M  V30 31552 C 2778.58 0.912614 -1.85351 0
M  V30 31553 C 2778.99 1.76718 -0.675826 0
M  V30 31554 O 2778.33 1.80048 0.364469 0
M  V30 31555 C 2778.39 1.84686 -3.08434 0
M  V30 31556 C 2778.06 1.17276 -4.41696 0
M  V30 31557 C 2779.05 0.542442 -5.17062 0
M  V30 31558 C 2776.74 1.17214 -4.88432 0
M  V30 31559 C 2778.73 -0.0795073 -6.3735 0
M  V30 31560 C 2776.42 0.546363 -6.08653 0
M  V30 31561 C 2777.42 -0.0783658 -6.82955 0
M  V30 31562 O 2777.11 -0.694299 -8.00896 0
M  V30 31563 H 2776.84 0.271025 -0.619291 0
M  V30 31564 H 2779.39 0.187732 -2.0454 0
M  V30 31565 H 2777.62 2.61183 -2.85168 0
M  V30 31566 H 2779.31 2.44845 -3.23737 0
M  V30 31567 H 2780.08 0.53496 -4.82041 0
M  V30 31568 H 2775.96 1.6478 -4.30544 0
M  V30 31569 H 2779.5 -0.567734 -6.95286 0
M  V30 31570 H 2775.4 0.551397 -6.43141 0
M  V30 31571 H 2776.16 -0.592681 -8.16351 0
M  V30 31572 N 2778.83 1.51088 0.448349 0
M  V30 31573 C 2780.07 1.63452 1.20046 0
M  V30 31574 C 2780.41 0.344478 1.9112 0
M  V30 31575 O 2779.68 -0.655364 1.83126 0
M  V30 31576 C 2779.96 2.83042 2.22619 0
M  V30 31577 C 2779.82 4.21992 1.55701 0
M  V30 31578 C 2781.14 2.98157 3.23713 0
M  V30 31579 H 2778.26 0.594878 0.435074 0
M  V30 31580 H 2780.9 1.83542 0.491151 0
M  V30 31581 H 2779.05 2.66044 2.83113 0
M  V30 31582 H 2780.72 4.50633 0.986288 0
M  V30 31583 H 2778.96 4.25199 0.859573 0
M  V30 31584 H 2779.63 5.01641 2.30348 0
M  V30 31585 H 2782.11 3.13793 2.73264 0
M  V30 31586 H 2780.99 3.83417 3.92788 0
M  V30 31587 H 2781.25 2.09749 3.89175 0
M  V30 31588 N 2780.31 -0.703068 1.41049 0
M  V30 31589 C 2781.72 -1.28271 1.35659 0
M  V30 31590 C 2782.07 -1.96167 0.0360654 0
M  V30 31591 O 2781.19 -1.98325 -0.865799 0
M  V30 31592 C 2781.79 -2.33262 2.45711 0
M  V30 31593 C 2780.35 -2.86821 2.43743 0
M  V30 31594 C 2779.49 -1.60763 2.25944 0
M  V30 31595 H 2782.45 -0.498333 1.50673 0
M  V30 31596 H 2782.47 -3.14387 2.14338 0
M  V30 31597 H 2781.98 -1.83818 3.41808 0
M  V30 31598 H 2780.08 -3.40462 1.51381 0
M  V30 31599 H 2780.19 -3.37762 3.39785 0
M  V30 31600 H 2778.56 -1.86295 1.73685 0
M  V30 31601 H 2779.34 -1.13325 3.24056 0
M  V30 31602 N 2781.78 -1.26752 -0.936569 0
M  V30 31603 C 2782.73 -1.0871 -2.03595 0
M  V30 31604 C 2783.7 0.00923623 -1.66097 0
M  V30 31605 O 2784.89 -0.151411 -1.90198 0
M  V30 31606 C 2782.03 -0.730999 -3.37269 0
M  V30 31607 C 2781.14 -1.90406 -3.87775 0
M  V30 31608 C 2780.27 -1.49065 -5.09856 0
M  V30 31609 C 2779.31 -2.63173 -5.52636 0
M  V30 31610 N 2778.45 -2.22482 -6.65917 0
M  V30 31611 H 2783.29 -2.02788 -2.1836 0
M  V30 31612 H 2780.83 -1.0096 -1.06984 0
M  V30 31613 H 2782.79 -0.505401 -4.14127 0
M  V30 31614 H 2781.42 0.172811 -3.22337 0
M  V30 31615 H 2780.47 -2.24246 -3.07275 0
M  V30 31616 H 2781.78 -2.76035 -4.15459 0
M  V30 31617 H 2780.93 -1.22577 -5.94188 0
M  V30 31618 H 2779.67 -0.605326 -4.83929 0
M  V30 31619 H 2778.68 -2.90386 -4.66858 0
M  V30 31620 H 2779.9 -3.52313 -5.80562 0
M  V30 31621 H 2777.85 -1.3639 -6.41665 0
M  V30 31622 H 2777.77 -3.01653 -6.93211 0
M  V30 31623 H 2779.03 -1.99218 -7.53613 0
M  V30 31624 N 2783.26 1.1418 -1.08631 0
M  V30 31625 C 2784.21 2.19337 -0.718338 0
M  V30 31626 C 2785.18 1.63431 0.296558 0
M  V30 31627 O 2786.36 1.89949 0.180046 0
M  V30 31628 C 2783.5 3.44831 -0.136264 0
M  V30 31629 C 2782.62 4.14877 -1.20421 0
M  V30 31630 C 2781.75 5.27961 -0.585759 0
M  V30 31631 C 2780.79 5.89843 -1.63559 0
M  V30 31632 N 2779.93 6.94373 -1.03876 0
M  V30 31633 H 2784.77 2.50161 -1.61937 0
M  V30 31634 H 2782.31 1.22842 -0.809211 0
M  V30 31635 H 2784.26 4.16625 0.218948 0
M  V30 31636 H 2782.89 3.14482 0.728065 0
M  V30 31637 H 2781.95 3.41448 -1.67682 0
M  V30 31638 H 2783.26 4.56962 -1.99967 0
M  V30 31639 H 2782.41 6.06436 -0.178924 0
M  V30 31640 H 2781.15 4.87103 0.241334 0
M  V30 31641 H 2780.16 5.10069 -2.05206 0
M  V30 31642 H 2781.38 6.32775 -2.4652 0
M  V30 31643 H 2779.33 6.55587 -0.232803 0
M  V30 31644 H 2779.24 7.34957 -1.77129 0
M  V30 31645 H 2780.51 7.76719 -0.65786 0
M  V30 31646 N 2784.74 0.872304 1.31258 0
M  V30 31647 C 2786.02 0.404977 1.91362 0
M  V30 31648 C 2786.4 -1.11318 1.79364 0
M  V30 31649 O 2785.75 -1.94281 1.2028 0
M  V30 31650 C 2785.96 0.888952 3.37489 0
M  V30 31651 C 2787.3 0.916456 4.14592 0
M  V30 31652 O 2788.33 0.834762 3.4628 0
M  V30 31653 O 2787.19 1.03508 5.36608 0
M  V30 31654 H 2784.28 0.121583 0.818014 0
M  V30 31655 H 2786.83 0.960371 1.39911 0
M  V30 31656 H 2785.6 1.93257 3.40246 0
M  V30 31657 H 2785.22 0.312002 3.96374 0
M  V30 31658 N 2786.22 -1.44374 0.631976 0
M  V30 31659 C 2787.47 -2.01253 0.13425 0
M  V30 31660 C 2787.78 -1.50307 -1.25168 0
M  V30 31661 O 2788.99 -1.9932 -1.84347 0
M  V30 31662 C 2787.44 -3.59402 0.18925 0
M  V30 31663 C 2787.05 -4.19344 1.57655 0
M  V30 31664 C 2788.79 -4.23752 -0.25197 0
M  V30 31665 C 2786.7 -5.6972 1.58661 0
M  V30 31666 H 2785.63 -0.75257 0.0464233 0
M  V30 31667 H 2788.28 -1.65581 0.790898 0
M  V30 31668 H 2786.66 -3.92376 -0.534515 0
M  V30 31669 H 2787.84 -3.97905 2.32396 0
M  V30 31670 H 2786.15 -3.67284 1.96192 0
M  V30 31671 H 2788.75 -5.34048 -0.26399 0
M  V30 31672 H 2789.09 -3.96152 -1.27944 0
M  V30 31673 H 2789.63 -3.95584 0.419329 0
M  V30 31674 H 2786.37 -6.02055 2.59248 0
M  V30 31675 H 2785.89 -5.93278 0.882143 0
M  V30 31676 H 2787.56 -6.33372 1.32093 0
M  V30 31677 N 2787.7 -0.372575 -1.53133 0
M  V30 31678 C 2788.94 0.214924 -2.01356 0
M  V30 31679 C 2789.27 1.48201 -1.25963 0
M  V30 31680 O 2788.53 1.92661 -0.343545 0
M  V30 31681 C 2788.83 0.545876 -3.53207 0
M  V30 31682 C 2788.49 -0.627703 -4.46509 0
M  V30 31683 C 2787.15 -0.949698 -4.71735 0
M  V30 31684 C 2789.51 -1.41362 -5.01663 0
M  V30 31685 C 2786.83 -2.05946 -5.49366 0
M  V30 31686 C 2789.19 -2.51385 -5.80507 0
M  V30 31687 C 2787.85 -2.84112 -6.04017 0
M  V30 31688 H 2787.12 0.0786461 -0.736815 0
M  V30 31689 H 2789.77 -0.506479 -1.84681 0
M  V30 31690 H 2788.07 1.34839 -3.67866 0
M  V30 31691 H 2789.77 1.01281 -3.87999 0
M  V30 31692 H 2786.36 -0.36671 -4.27028 0
M  V30 31693 H 2790.54 -1.1781 -4.82115 0
M  V30 31694 H 2785.8 -2.31692 -5.65799 0
M  V30 31695 H 2789.97 -3.12695 -6.2225 0
M  V30 31696 H 2787.6 -3.70226 -6.63955 0
M  V30 31697 N 2789.17 1.5727 -0.101929 0
M  V30 31698 C 2790.59 1.57554 0.254712 0
M  V30 31699 C 2790.79 1.11355 1.67935 0
M  V30 31700 O 2789.85 0.793124 2.3972 0
M  V30 31701 C 2791.16 3.00677 0.0369221 0
M  V30 31702 C 2792.71 3.12827 0.104144 0
M  V30 31703 C 2793.18 4.5792 -0.085737 0
M  V30 31704 N 2794.67 4.6319 -0.0311313 0
M  V30 31705 C 2795.41 5.73195 -0.1532 0
M  V30 31706 N 2794.9 6.92011 -0.330485 0
M  V30 31707 N 2796.7 5.62021 -0.0939841 0
M  V30 31708 H 2788.85 1.85607 -1.03266 0
M  V30 31709 H 2791.11 0.857008 -0.405266 0
M  V30 31710 H 2790.82 3.38702 -0.947314 0
M  V30 31711 H 2790.69 3.69126 0.77627 0
M  V30 31712 H 2793.08 2.74671 1.07889 0
M  V30 31713 H 2793.16 2.46956 -0.666806 0
M  V30 31714 H 2792.8 4.96771 -1.05738 0
M  V30 31715 H 2792.73 5.2186 0.70499 0
M  V30 31716 H 2795.22 3.77759 0.103075 0
M  V30 31717 H 2795.54 7.71685 -0.414956 0
M  V30 31718 H 2793.88 6.94034 -0.366241 0
M  V30 31719 H 2797.07 4.6808 0.0434346 0
M  V30 31720 H 2797.25 6.47714 -0.192563 0
M  V30 31721 N 2790.65 -0.171793 1.56661 0
M  V30 31722 C 2791.6 -1.23203 1.97291 0
M  V30 31723 C 2792.59 -1.45853 0.861591 0
M  V30 31724 O 2793.8 -1.46438 1.0467 0
M  V30 31725 H 2790.18 -0.414139 0.627689 0
M  V30 31726 H 2792.15 -0.862492 2.85664 0
M  V30 31727 C 2790.9 -2.56396 2.34854 0
M  V30 31728 H 2790.22 -2.39791 3.19907 0
M  V30 31729 H 2791.66 -3.29271 2.67127 0
M  V30 31730 C 2790.12 -3.15116 1.19177 0
M  V30 31731 O 2790.65 -3.98832 0.479183 0
M  V30 31732 N 2788.85 -2.74199 0.962463 0
M  V30 31733 H 2788.4 -2.06223 1.54369 0
M  V30 31734 H 2788.36 -3.13823 0.190327 0
M  V30 31735 N 2792.13 -1.51324 -0.44033 0
M  V30 31736 C 2793.38 -1.63844 -1.19002 0
M  V30 31737 C 2793.71 -0.353244 -1.91265 0
M  V30 31738 O 2792.96 0.662532 -1.84144 0
M  V30 31739 C 2793.26 -2.78988 -2.23385 0
M  V30 31740 C 2792.93 -4.18372 -1.68155 0
M  V30 31741 C 2791.59 -4.56291 -1.52815 0
M  V30 31742 C 2793.94 -5.05361 -1.27515 0
M  V30 31743 C 2791.27 -5.78907 -0.953055 0
M  V30 31744 C 2793.62 -6.28554 -0.714364 0
M  V30 31745 C 2792.28 -6.65248 -0.547844 0
M  V30 31746 H 2791.55 -0.599548 -0.435458 0
M  V30 31747 H 2794.2 -1.85348 -0.481505 0
M  V30 31748 H 2792.51 -2.51694 -3.00263 0
M  V30 31749 H 2794.2 -2.85874 -2.81206 0
M  V30 31750 H 2790.79 -3.88474 -1.8107 0
M  V30 31751 H 2794.98 -4.76674 -1.38188 0
M  V30 31752 H 2790.23 -6.05987 -0.811775 0
M  V30 31753 H 2794.41 -6.95302 -0.390937 0
M  V30 31754 H 2792.03 -7.60134 -0.100088 0
M  V30 31755 N 2793.61 0.695578 -1.41419 0
M  V30 31756 C 2794.56 1.80162 -1.39734 0
M  V30 31757 C 2795.54 1.58589 -0.271717 0
M  V30 31758 O 2796.73 1.69421 -0.512384 0
M  V30 31759 C 2793.86 3.18467 -1.28193 0
M  V30 31760 C 2792.95 3.45735 -2.45618 0
M  V30 31761 N 2793.34 3.43702 -3.71083 0
M  V30 31762 C 2791.64 3.76283 -2.3943 0
M  V30 31763 C 2792.34 3.69874 -4.48963 0
M  V30 31764 N 2791.32 3.89618 -3.79077 0
M  V30 31765 H 2795.12 1.76953 -2.34659 0
M  V30 31766 H 2792.63 0.895567 -1.35475 0
M  V30 31767 H 2794.63 3.97698 -1.25067 0
M  V30 31768 H 2793.29 3.22888 -0.342525 0
M  V30 31769 H 2794.3 3.24083 -4.03969 0
M  V30 31770 H 2790.98 3.88075 -1.53962 0
M  V30 31771 H 2792.37 3.74438 -5.57894 0
M  V30 31772 N 2795.09 1.27247 0.929833 0
M  V30 31773 C 2796.02 1.12303 2.0472 0
M  V30 31774 C 2797 0.0250762 1.70082 0
M  V30 31775 O 2798.18 0.199175 1.93176 0
M  V30 31776 C 2795.31 0.767204 3.3872 0
M  V30 31777 C 2794.27 1.81815 3.87463 0
M  V30 31778 C 2793.59 1.31635 5.18243 0
M  V30 31779 C 2794.89 3.22184 4.1109 0
M  V30 31780 H 2796.59 2.05773 2.17481 0
M  V30 31781 H 2794.13 0.990734 1.04501 0
M  V30 31782 H 2796.09 0.649486 4.16365 0
M  V30 31783 H 2794.81 -0.203201 3.25967 0
M  V30 31784 H 2793.47 1.92474 3.12009 0
M  V30 31785 H 2793.12 0.335466 5.0188 0
M  V30 31786 H 2792.82 2.01897 5.51826 0
M  V30 31787 H 2794.34 1.21153 5.9846 0
M  V30 31788 H 2795.76 3.14538 4.79311 0
M  V30 31789 H 2794.15 3.90137 4.55975 0
M  V30 31790 H 2795.22 3.67396 3.16462 0
M  V30 31791 N 2796.57 -1.13603 1.09235 0
M  V30 31792 C 2797.81 -1.85108 0.828417 0
M  V30 31793 C 2798.14 -1.83199 -0.644337 0
M  V30 31794 O 2797.42 -1.26869 -1.47426 0
M  V30 31795 C 2797.7 -3.3336 1.36172 0
M  V30 31796 C 2797.56 -3.43794 2.90044 0
M  V30 31797 C 2798.87 -4.2873 0.993895 0
M  V30 31798 H 2795.99 -0.672103 0.302402 0
M  V30 31799 H 2798.64 -1.33352 1.35341 0
M  V30 31800 H 2796.79 -3.77567 0.915166 0
M  V30 31801 H 2798.46 -3.08313 3.43134 0
M  V30 31802 H 2796.7 -2.84733 3.27276 0
M  V30 31803 H 2797.37 -4.48039 3.22436 0
M  V30 31804 H 2799.85 -3.92585 1.379 0
M  V30 31805 H 2798.72 -5.309 1.39413 0
M  V30 31806 H 2798.98 -4.41991 -0.0981429 0
M  V30 31807 N 2798.04 -0.879253 -1.30793 0
M  V30 31808 C 2799.29 -0.495553 -1.96652 0
M  V30 31809 C 2799.62 0.951673 -1.69283 0
M  V30 31810 O 2798.9 1.67158 -0.994403 0
M  V30 31811 C 2799.18 -0.764236 -3.51897 0
M  V30 31812 C 2799.03 -2.26167 -3.88804 0
M  V30 31813 C 2800.35 -0.236902 -4.39462 0
M  V30 31814 H 2797.47 -0.181519 -0.714297 0
M  V30 31815 H 2800.11 -1.1022 -1.54763 0
M  V30 31816 H 2798.26 -0.247909 -3.87708 0
M  V30 31817 H 2799.94 -2.84597 -3.63046 0
M  V30 31818 H 2798.18 -2.73059 -3.37078 0
M  V30 31819 H 2798.85 -2.40029 -4.97082 0
M  V30 31820 H 2801.33 -0.678755 -4.10527 0
M  V30 31821 H 2800.2 -0.454272 -5.47017 0
M  V30 31822 H 2800.46 0.861606 -4.33623 0
M  V30 31823 N 2799.52 1.44037 -0.639624 0
M  V30 31824 C 2800.47 2.30721 0.0602053 0
M  V30 31825 C 2801.44 1.43972 0.828326 0
M  V30 31826 O 2802.62 1.72863 0.807663 0
M  V30 31827 C 2799.76 3.2937 1.03002 0
M  V30 31828 C 2798.88 4.3122 0.259426 0
M  V30 31829 C 2798.01 5.16958 1.22182 0
M  V30 31830 C 2797.05 6.1051 0.440871 0
M  V30 31831 N 2796.19 6.88917 1.35416 0
M  V30 31832 H 2801.03 2.90022 -0.684918 0
M  V30 31833 H 2798.56 1.42887 -0.349534 0
M  V30 31834 H 2800.52 3.8506 1.60576 0
M  V30 31835 H 2799.15 2.7175 1.74217 0
M  V30 31836 H 2798.2 3.77935 -0.432383 0
M  V30 31837 H 2799.52 4.97582 -0.348435 0
M  V30 31838 H 2798.67 5.77206 1.86863 0
M  V30 31839 H 2797.41 4.5069 1.8636 0
M  V30 31840 H 2796.41 5.49362 -0.219376 0
M  V30 31841 H 2797.64 6.78816 -0.196311 0
M  V30 31842 H 2795.59 6.25311 1.98299 0
M  V30 31843 H 2795.5 7.5175 0.800525 0
M  V30 31844 H 2796.77 7.53683 1.98954 0
M  V30 31845 N 2801 0.380691 1.52933 0
M  V30 31846 C 2802.25 -0.204545 2.01766 0
M  V30 31847 C 2802.58 -1.47177 1.26699 0
M  V30 31848 O 2801.85 -1.91045 0.36497 0
M  V30 31849 C 2802.14 -0.481206 3.5687 0
M  V30 31850 C 2801.99 0.800707 4.42616 0
M  V30 31851 C 2803.31 -1.27547 4.21212 0
M  V30 31852 H 2800.43 -0.0728674 0.733389 0
M  V30 31853 H 2803.07 0.508562 1.83067 0
M  V30 31854 H 2801.22 -1.08869 3.72934 0
M  V30 31855 H 2802.89 1.43781 4.3832 0
M  V30 31856 H 2801.13 1.41787 4.09974 0
M  V30 31857 H 2801.81 0.561888 5.49133 0
M  V30 31858 H 2804.28 -0.761442 4.09074 0
M  V30 31859 H 2803.16 -1.43779 5.29735 0
M  V30 31860 H 2803.42 -2.28827 3.78273 0
M  V30 31861 N 2802.48 -1.57214 0.110268 0
M  V30 31862 C 2803.72 -1.95181 -0.55065 0
M  V30 31863 C 2804.06 -0.993151 -1.66884 0
M  V30 31864 O 2803.33 -0.0288249 -1.94479 0
M  V30 31865 C 2803.61 -3.43157 -1.09157 0
M  V30 31866 C 2803.47 -4.49794 0.0225989 0
M  V30 31867 C 2804.79 -3.92782 -1.98521 0
M  V30 31868 H 2801.91 -0.709711 -0.198694 0
M  V30 31869 H 2804.55 -1.89106 0.184057 0
M  V30 31870 H 2802.7 -3.48465 -1.71769 0
M  V30 31871 H 2804.37 -4.5659 0.657524 0
M  V30 31872 H 2802.61 -4.28326 0.686943 0
M  V30 31873 H 2803.28 -5.50571 -0.396963 0
M  V30 31874 H 2805.76 -3.89723 -1.45793 0
M  V30 31875 H 2804.64 -4.96857 -2.33289 0
M  V30 31876 H 2804.9 -3.32963 -2.90841 0
M  V30 31877 N 2803.96 0.163482 -1.5675 0
M  V30 31878 C 2804.91 1.20708 -1.93426 0
M  V30 31879 C 2805.89 1.39402 -0.803494 0
M  V30 31880 O 2807.08 1.41241 -1.06677 0
M  V30 31881 C 2804.21 2.54469 -2.30436 0
M  V30 31882 C 2803.3 2.39437 -3.50044 0
M  V30 31883 N 2803.69 1.94131 -4.67062 0
M  V30 31884 C 2801.99 2.70239 -3.54805 0
M  V30 31885 C 2802.69 1.9175 -5.49187 0
M  V30 31886 N 2801.66 2.34448 -4.90444 0
M  V30 31887 H 2805.46 0.848632 -2.81381 0
M  V30 31888 H 2802.98 0.371689 -1.58089 0
M  V30 31889 H 2804.98 3.2989 -2.54909 0
M  V30 31890 H 2803.64 2.9111 -1.43823 0
M  V30 31891 H 2804.65 1.64349 -4.91131 0
M  V30 31892 H 2801.32 3.10866 -2.78691 0
M  V30 31893 H 2802.71 1.58354 -6.52973 0
M  V30 31894 N 2805.43 1.51555 0.432299 0
M  V30 31895 C 2806.4 1.72636 1.50762 0
M  V30 31896 C 2807.4 0.59634 1.49333 0
M  V30 31897 O 2808.59 0.863952 1.51266 0
M  V30 31898 C 2805.72 1.78746 2.90281 0
M  V30 31899 H 2806.91 2.68611 1.33372 0
M  V30 31900 H 2804.46 1.41621 0.661304 0
M  V30 31901 H 2805.2 0.846032 3.1307 0
M  V30 31902 H 2804.98 2.60875 2.92723 0
M  V30 31903 H 2806.47 1.96877 3.68279 0
M  V30 31904 N 2806.91 -0.688069 1.41786 0
M  V30 31905 C 2807.84 -1.81418 1.47003 0
M  V30 31906 C 2808.82 -1.66909 0.32791 0
M  V30 31907 O 2810.01 -1.8653 0.540395 0
M  V30 31908 C 2807.14 -3.19615 1.35881 0
M  V30 31909 C 2806.09 -3.48839 2.47982 0
M  V30 31910 C 2805.42 -4.86471 2.21923 0
M  V30 31911 C 2806.72 -3.47061 3.90315 0
M  V30 31912 H 2808.41 -1.7731 2.4125 0
M  V30 31913 H 2805.96 -0.851631 1.16117 0
M  V30 31914 H 2807.91 -3.98114 1.38141 0
M  V30 31915 H 2806.63 -3.24368 0.381217 0
M  V30 31916 H 2805.29 -2.72694 2.45017 0
M  V30 31917 H 2804.94 -4.87858 1.22489 0
M  V30 31918 H 2804.64 -5.06989 2.97046 0
M  V30 31919 H 2806.17 -5.67271 2.25911 0
M  V30 31920 H 2807.58 -4.15553 3.94954 0
M  V30 31921 H 2805.98 -3.79112 4.65182 0
M  V30 31922 H 2807.05 -2.45889 4.17932 0
M  V30 31923 N 2808.39 -1.27739 -0.923072 0
M  V30 31924 C 2809.64 -1.13729 -1.66579 0
M  V30 31925 C 2809.95 0.315399 -1.9304 0
M  V30 31926 O 2811.16 0.576464 -2.6531 0
M  V30 31927 C 2809.61 -1.9875 -3.00044 0
M  V30 31928 C 2809.22 -3.48704 -2.81264 0
M  V30 31929 C 2810.97 -1.93402 -3.77883 0
M  V30 31930 C 2808.87 -4.25908 -4.10313 0
M  V30 31931 H 2807.8 -0.422028 -0.624827 0
M  V30 31932 H 2810.45 -1.52196 -1.02511 0
M  V30 31933 H 2808.84 -1.53132 -3.65194 0
M  V30 31934 H 2810.01 -4.02217 -2.24852 0
M  V30 31935 H 2808.32 -3.5548 -2.16848 0
M  V30 31936 H 2810.92 -2.48357 -4.73522 0
M  V30 31937 H 2811.26 -0.908676 -4.06262 0
M  V30 31938 H 2811.8 -2.3694 -3.19537 0
M  V30 31939 H 2808.54 -5.28985 -3.87111 0
M  V30 31940 H 2808.06 -3.77171 -4.66371 0
M  V30 31941 H 2809.74 -4.3533 -4.78641 0
M  V30 31942 N 2809.87 1.13022 -1.09836 0
M  V30 31943 C 2811.09 1.88769 -0.859123 0
M  V30 31944 C 2811.52 1.78792 0.58437 0
M  V30 31945 O 2810.88 1.13845 1.41099 0
M  V30 31946 C 2810.92 3.36184 -1.30433 0
M  V30 31947 O 2810.03 4.09765 -0.46544 0
M  V30 31948 H 2809.37 0.586772 -0.310797 0
M  V30 31949 H 2811.9 1.42971 -1.46357 0
M  V30 31950 H 2811.91 3.87017 -1.29157 0
M  V30 31951 H 2810.58 3.42763 -2.35556 0
M  V30 31952 H 2809.16 3.68927 -0.542879 0
M  V30 31953 N 2811.35 0.886177 1.30325 0
M  V30 31954 C 2812.28 0.370068 2.30549 0
M  V30 31955 C 2813.26 -0.547722 1.6104 0
M  V30 31956 O 2814.44 -0.461319 1.88641 0
M  V30 31957 C 2811.57 -0.415214 3.44809 0
M  V30 31958 C 2810.53 0.410925 4.26023 0
M  V30 31959 C 2809.85 -0.501034 5.32347 0
M  V30 31960 C 2811.15 1.65368 4.9543 0
M  V30 31961 H 2812.85 1.20758 2.73967 0
M  V30 31962 H 2810.39 0.58212 1.31709 0
M  V30 31963 H 2812.35 -0.786917 4.13987 0
M  V30 31964 H 2811.07 -1.28639 3.00199 0
M  V30 31965 H 2809.73 0.764782 3.58534 0
M  V30 31966 H 2809.38 -1.36995 4.83985 0
M  V30 31967 H 2809.08 0.0479389 5.8758 0
M  V30 31968 H 2810.6 -0.869227 6.04381 0
M  V30 31969 H 2812.01 1.35249 5.57118 0
M  V30 31970 H 2810.41 2.14294 5.60534 0
M  V30 31971 H 2811.48 2.3974 4.21488 0
M  V30 31972 N 2812.82 -1.43695 0.647253 0
M  V30 31973 C 2813.77 -2.32523 -0.0599696 0
M  V30 31974 C 2814.77 -1.48272 -0.819251 0
M  V30 31975 O 2815.97 -1.64518 -0.730327 0
M  V30 31976 H 2812.35 -0.75103 -0.038174 0
M  V30 31977 H 2814.32 -2.89903 0.707029 0
M  V30 31978 C 2813.07 -3.32499 -1.01684 0
M  V30 31979 H 2812.39 -3.97349 -0.442014 0
M  V30 31980 H 2813.83 -3.97298 -1.48088 0
M  V30 31981 C 2812.29 -2.62644 -2.10997 0
M  V30 31982 O 2812.82 -2.43746 -3.19297 0
M  V30 31983 N 2811.03 -2.22116 -1.87384 0
M  V30 31984 H 2810.57 -2.37686 -0.993132 0
M  V30 31985 H 2810.53 -1.75706 -2.6072 0
M  V30 31986 N 2814.3 -0.388796 -1.52729 0
M  V30 31987 C 2815.25 0.446599 -2.26438 0
M  V30 31988 C 2816.22 1.05822 -1.28027 0
M  V30 31989 O 2817.4 1.08634 -1.56854 0
M  V30 31990 C 2814.54 1.56823 -3.0741 0
M  V30 31991 C 2813.66 0.979515 -4.20749 0
M  V30 31992 C 2812.79 2.07216 -4.89117 0
M  V30 31993 C 2811.83 1.45931 -5.9445 0
M  V30 31994 N 2810.97 2.49124 -6.56416 0
M  V30 31995 H 2815.81 -0.188422 -2.97404 0
M  V30 31996 H 2813.35 -0.104751 -1.46727 0
M  V30 31997 H 2815.3 2.22927 -3.52646 0
M  V30 31998 H 2813.93 2.17357 -2.38654 0
M  V30 31999 H 2812.99 0.208085 -3.7983 0
M  V30 32000 H 2814.3 0.49166 -4.96371 0
M  V30 32001 H 2813.45 2.81091 -5.37655 0
M  V30 32002 H 2812.19 2.59361 -4.13017 0
M  V30 32003 H 2811.2 0.705798 -5.45251 0
M  V30 32004 H 2812.42 0.945814 -6.72481 0
M  V30 32005 H 2810.37 3.00439 -5.83157 0
M  V30 32006 H 2810.28 2.05092 -7.27649 0
M  V30 32007 H 2811.55 3.22631 -7.09598 0
M  V30 32008 N 2815.78 1.57153 -0.118604 0
M  V30 32009 C 2817.03 1.95181 0.539492 0
M  V30 32010 C 2817.36 1.00187 1.66712 0
M  V30 32011 O 2816.61 0.0256826 1.95683 0
M  V30 32012 C 2816.91 3.39629 1.11297 0
M  V30 32013 C 2816.58 4.50774 0.106729 0
M  V30 32014 C 2815.24 4.809 -0.169961 0
M  V30 32015 C 2817.59 5.17974 -0.579041 0
M  V30 32016 C 2814.92 5.75543 -1.13871 0
M  V30 32017 C 2817.27 6.13659 -1.53642 0
M  V30 32018 C 2815.93 6.42178 -1.8211 0
M  V30 32019 H 2815.2 0.714219 0.197414 0
M  V30 32020 H 2817.85 1.90459 -0.199425 0
M  V30 32021 H 2816.16 3.41044 1.92863 0
M  V30 32022 H 2817.85 3.66365 1.63026 0
M  V30 32023 H 2814.44 4.27308 0.33257 0
M  V30 32024 H 2818.63 4.94855 -0.378446 0
M  V30 32025 H 2813.88 5.95944 -1.36602 0
M  V30 32026 H 2818.06 6.64816 -2.07348 0
M  V30 32027 H 2815.68 7.15321 -2.57331 0
M  V30 32028 N 2817.26 -0.155167 1.56834 0
M  V30 32029 C 2818.48 -0.888305 1.87414 0
M  V30 32030 C 2818.91 -1.74318 0.706741 0
M  V30 32031 O 2818.27 -1.78009 -0.343861 0
M  V30 32032 C 2818.31 -1.72759 3.16523 0
M  V30 32033 O 2817.42 -2.83098 2.99882 0
M  V30 32034 H 2816.76 -0.247904 0.615987 0
M  V30 32035 H 2819.29 -0.148442 2.04061 0
M  V30 32036 H 2819.3 -2.12427 3.48337 0
M  V30 32037 H 2817.97 -1.09978 4.01096 0
M  V30 32038 H 2816.55 -2.46897 2.79457 0
M  V30 32039 N 2818.74 -1.51782 -0.424256 0
M  V30 32040 C 2819.67 -1.6874 -1.5363 0
M  V30 32041 C 2820.65 -0.534942 -1.53548 0
M  V30 32042 O 2821.83 -0.760421 -1.72481 0
M  V30 32043 C 2818.96 -1.71293 -2.92192 0
M  V30 32044 C 2818 -2.92659 -3.10246 0
M  V30 32045 S 2818.84 -4.53261 -2.85158 0
M  V30 32046 C 2819.99 -4.58578 -4.25978 0
M  V30 32047 H 2820.23 -2.62797 -1.39014 0
M  V30 32048 H 2817.76 -1.41631 -0.614829 0
M  V30 32049 H 2819.72 -1.73449 -3.72056 0
M  V30 32050 H 2818.38 -0.7839 -3.04161 0
M  V30 32051 H 2817.57 -2.90884 -4.11585 0
M  V30 32052 H 2817.17 -2.88313 -2.38226 0
M  V30 32053 H 2819.47 -4.35024 -5.19385 0
M  V30 32054 H 2820.41 -5.60451 -4.32782 0
M  V30 32055 H 2820.82 -3.87764 -4.10243 0
M  V30 32056 N 2820.21 0.68054 -1.42149 0
M  V30 32057 C 2821.46 1.44274 -1.42523 0
M  V30 32058 C 2821.79 1.9416 -0.0394059 0
M  V30 32059 O 2821.07 1.7053 0.935395 0
M  V30 32060 C 2821.35 2.64389 -2.4448 0
M  V30 32061 C 2821.2 2.20172 -3.9223 0
M  V30 32062 C 2822.52 3.66602 -2.43497 0
M  V30 32063 H 2819.64 0.523273 -0.518994 0
M  V30 32064 H 2822.28 0.773883 -1.73525 0
M  V30 32065 H 2820.43 3.21454 -2.18173 0
M  V30 32066 H 2822.11 1.68319 -4.29496 0
M  V30 32067 H 2820.35 1.51803 -4.06372 0
M  V30 32068 H 2821.02 3.06425 -4.59138 0
M  V30 32069 H 2823.5 3.19242 -2.66877 0
M  V30 32070 H 2822.37 4.48234 -3.16824 0
M  V30 32071 H 2822.63 4.17336 -1.45889 0
M  V30 32072 N 2821.69 1.28226 0.916285 0
M  V30 32073 C 2822.92 1.18191 1.70428 0
M  V30 32074 C 2823.34 -0.256241 1.86346 0
M  V30 32075 O 2822.7 -1.18542 1.37177 0
M  V30 32076 C 2822.75 1.88281 3.07543 0
M  V30 32077 O 2821.85 1.18855 3.94902 0
M  V30 32078 H 2821.19 0.410432 0.521959 0
M  V30 32079 H 2823.72 1.69503 1.14586 0
M  V30 32080 H 2823.73 1.96089 3.57789 0
M  V30 32081 H 2822.41 2.92893 2.95274 0
M  V30 32082 H 2820.99 1.19194 3.53337 0
M  V30 32083 N 2823.17 -1.12438 1.10433 0
M  V30 32084 C 2824.58 -1.65481 0.864468 0
M  V30 32085 C 2824.93 -1.86631 -0.605237 0
M  V30 32086 O 2824.06 -1.59279 -1.46489 0
M  V30 32087 C 2824.65 -3.00607 1.56272 0
M  V30 32088 C 2823.21 -3.506 1.36956 0
M  V30 32089 C 2822.36 -2.25623 1.61213 0
M  V30 32090 H 2825.31 -0.962187 1.26205 0
M  V30 32091 H 2825.33 -3.67077 1.00172 0
M  V30 32092 H 2824.84 -2.85181 2.63237 0
M  V30 32093 H 2822.94 -3.7121 0.321546 0
M  V30 32094 H 2823.06 -4.30061 2.11151 0
M  V30 32095 H 2821.42 -2.32729 1.03486 0
M  V30 32096 H 2822.2 -2.12751 2.69429 0
M  V30 32097 N 2824.65 -0.893076 -1.29853 0
M  V30 32098 C 2825.93 -0.43537 -1.90693 0
M  V30 32099 C 2826.31 1.0845 -1.81112 0
M  V30 32100 O 2825.65 1.92343 -1.23356 0
M  V30 32101 C 2825.86 -0.942531 -3.36032 0
M  V30 32102 C 2827.21 -0.982298 -4.13081 0
M  V30 32103 O 2828.24 -0.889747 -3.44909 0
M  V30 32104 O 2827.1 -1.12031 -5.34894 0
M  V30 32105 H 2824.19 -0.134582 -0.815976 0
M  V30 32106 H 2826.74 -0.982508 -1.38365 0
M  V30 32107 H 2825.51 -1.98646 -3.37128 0
M  V30 32108 H 2825.13 -0.375022 -3.95827 0
M  V30 32109 N 2826.13 1.4335 -0.654865 0
M  V30 32110 C 2827.36 2.06144 -0.176721 0
M  V30 32111 C 2827.77 1.49095 1.15828 0
M  V30 32112 O 2827.13 0.622898 1.71541 0
M  V30 32113 C 2827.18 3.61408 -0.0813961 0
M  V30 32114 O 2826.9 4.16337 -1.36363 0
M  V30 32115 C 2828.4 4.41281 0.422628 0
M  V30 32116 H 2825.62 0.664848 -0.0906546 0
M  V30 32117 H 2828.16 1.83827 -0.895977 0
M  V30 32118 H 2826.32 3.82905 0.588428 0
M  V30 32119 H 2826.73 5.1002 -1.2239 0
M  V30 32120 H 2828.21 5.50257 0.438278 0
M  V30 32121 H 2828.68 4.14425 1.45424 0
M  V30 32122 H 2829.29 4.24757 -0.214762 0
M  V30 32123 N 2827.61 0.39689 1.52521 0
M  V30 32124 C 2828.85 -0.184149 2.00858 0
M  V30 32125 C 2829.17 -1.47263 1.28736 0
M  V30 32126 O 2830.37 -2.13418 1.67824 0
M  V30 32127 C 2828.83 -0.378724 3.57902 0
M  V30 32128 C 2828.44 0.89695 4.38929 0
M  V30 32129 C 2830.18 -0.915717 4.14506 0
M  V30 32130 C 2828.09 0.670236 5.8759 0
M  V30 32131 H 2827.02 -0.0725923 0.750497 0
M  V30 32132 H 2829.67 0.520456 1.75965 0
M  V30 32133 H 2828.05 -1.14536 3.79074 0
M  V30 32134 H 2829.23 1.66879 4.29521 0
M  V30 32135 H 2827.54 1.35945 3.93583 0
M  V30 32136 H 2830.14 -1.10117 5.23238 0
M  V30 32137 H 2830.48 -1.88694 3.7108 0
M  V30 32138 H 2831.01 -0.208453 3.97253 0
M  V30 32139 H 2827.75 1.61268 6.35353 0
M  V30 32140 H 2827.27 -0.0625314 5.99767 0
M  V30 32141 H 2828.95 0.307691 6.46268 0
M  V30 32142 N 2829.08 -1.57088 0.126936 0
M  V30 32143 C 2830.01 -2.18748 -0.816808 0
M  V30 32144 C 2830.99 -1.12981 -1.27159 0
M  V30 32145 O 2832.18 -1.41248 -1.33277 0
M  V30 32146 C 2829.31 -2.79319 -2.06393 0
M  V30 32147 C 2828.26 -3.90738 -1.74666 0
M  V30 32148 C 2827.59 -4.38153 -3.06474 0
M  V30 32149 C 2828.89 -5.12465 -1.00881 0
M  V30 32150 H 2830.58 -2.97863 -0.30298 0
M  V30 32151 H 2828.13 -1.43275 -0.144289 0
M  V30 32152 H 2830.08 -3.21115 -2.72879 0
M  V30 32153 H 2828.81 -1.97505 -2.60114 0
M  V30 32154 H 2827.47 -3.49529 -1.10566 0
M  V30 32155 H 2827.11 -3.53187 -3.58145 0
M  V30 32156 H 2826.81 -5.13292 -2.86016 0
M  V30 32157 H 2828.34 -4.82605 -3.74065 0
M  V30 32158 H 2829.75 -5.51231 -1.57536 0
M  V30 32159 H 2828.15 -5.93238 -0.904902 0
M  V30 32160 H 2829.22 -4.849 0.00305858 0
M  V30 32161 N 2830.56 0.146848 -1.56914 0
M  V30 32162 C 2831.51 1.1813 -1.98277 0
M  V30 32163 C 2832.48 1.4268 -0.850392 0
M  V30 32164 O 2833.66 1.55012 -1.11247 0
M  V30 32165 C 2830.8 2.50975 -2.36866 0
M  V30 32166 C 2829.92 2.33598 -3.63395 0
M  V30 32167 C 2829.05 3.59479 -3.91086 0
M  V30 32168 C 2828.09 3.3714 -5.10885 0
M  V30 32169 N 2827.23 4.55152 -5.34585 0
M  V30 32170 H 2832.07 0.821572 -2.86451 0
M  V30 32171 H 2829.6 0.394223 -1.41719 0
M  V30 32172 H 2831.56 3.28435 -2.57267 0
M  V30 32173 H 2830.19 2.84895 -1.51771 0
M  V30 32174 H 2829.24 1.47193 -3.50768 0
M  V30 32175 H 2830.56 2.13051 -4.51011 0
M  V30 32176 H 2829.71 4.45367 -4.11987 0
M  V30 32177 H 2828.45 3.83031 -3.01892 0
M  V30 32178 H 2827.45 2.4964 -4.89857 0
M  V30 32179 H 2828.68 3.14987 -6.01631 0
M  V30 32180 H 2826.63 4.78876 -4.48346 0
M  V30 32181 H 2826.54 4.37608 -6.1647 0
M  V30 32182 H 2827.81 5.42253 -5.59984 0
M  V30 32183 N 2832.04 1.52005 0.4162 0
M  V30 32184 C 2832.99 1.74841 1.50663 0
M  V30 32185 C 2833.96 0.590626 1.55244 0
M  V30 32186 O 2835.14 0.827405 1.71926 0
M  V30 32187 C 2832.28 1.89856 2.88182 0
M  V30 32188 C 2831.39 3.17483 2.92965 0
M  V30 32189 C 2830.53 3.2297 4.21739 0
M  V30 32190 C 2829.57 4.44827 4.2047 0
M  V30 32191 N 2828.71 4.47746 5.40803 0
M  V30 32192 H 2833.55 2.6791 1.30493 0
M  V30 32193 H 2831.08 1.32758 0.633544 0
M  V30 32194 H 2833.04 1.96544 3.68003 0
M  V30 32195 H 2831.67 1.00174 3.06863 0
M  V30 32196 H 2830.72 3.20001 2.05678 0
M  V30 32197 H 2832.03 4.07333 2.87891 0
M  V30 32198 H 2831.19 3.28691 5.09948 0
M  V30 32199 H 2829.93 2.31046 4.29499 0
M  V30 32200 H 2828.93 4.3926 3.30652 0
M  V30 32201 H 2830.16 5.38039 4.14356 0
M  V30 32202 H 2828.1 3.58702 5.49244 0
M  V30 32203 H 2828.02 5.31432 5.37695 0
M  V30 32204 H 2829.29 4.57687 6.30985 0
M  V30 32205 N 2833.52 -0.672992 1.42508 0
M  V30 32206 C 2834.77 -1.43021 1.42792 0
M  V30 32207 C 2835.09 -1.94946 0.0460081 0
M  V30 32208 O 2834.36 -1.73179 -0.915734 0
M  V30 32209 H 2832.94 -0.530739 0.525666 0
M  V30 32210 H 2835.6 -0.795081 1.77945 0
M  V30 32211 H 2834.69 -2.28233 2.12876 0
M  V30 32212 N 2835 -1.2871 -0.909472 0
M  V30 32213 C 2836.24 -1.1549 -1.65363 0
M  V30 32214 C 2836.56 0.294907 -1.93364 0
M  V30 32215 O 2837.76 0.548292 -2.65906 0
M  V30 32216 C 2836.22 -2.01922 -2.97919 0
M  V30 32217 C 2835.83 -3.51668 -2.77549 0
M  V30 32218 C 2837.57 -1.97399 -3.75811 0
M  V30 32219 C 2835.48 -4.30236 -4.05772 0
M  V30 32220 H 2834.41 -0.428631 -0.620316 0
M  V30 32221 H 2837.06 -1.53275 -1.00891 0
M  V30 32222 H 2835.44 -1.56996 -3.63549 0
M  V30 32223 H 2836.62 -4.04579 -2.20573 0
M  V30 32224 H 2834.93 -3.5776 -2.13065 0
M  V30 32225 H 2837.53 -2.53365 -4.70861 0
M  V30 32226 H 2837.87 -0.951715 -4.05275 0
M  V30 32227 H 2838.4 -2.40316 -3.17006 0
M  V30 32228 H 2835.14 -5.33061 -3.81479 0
M  V30 32229 H 2834.66 -3.82097 -4.62344 0
M  V30 32230 H 2836.34 -4.40382 -4.73997 0
M  V30 32231 N 2836.47 1.1185 -1.11028 0
M  V30 32232 C 2837.38 2.21349 -0.777291 0
M  V30 32233 C 2838.4 1.72502 0.227791 0
M  V30 32234 O 2839.58 2.01295 0.0650233 0
M  V30 32235 C 2836.64 3.45997 -0.220729 0
M  V30 32236 C 2835.7 4.09653 -1.28387 0
M  V30 32237 C 2834.93 5.2835 -0.753771 0
M  V30 32238 O 2835.16 5.68869 0.417679 0
M  V30 32239 O 2834.09 5.82481 -1.51657 0
M  V30 32240 H 2837.92 2.52237 -1.69146 0
M  V30 32241 H 2835.5 1.20304 -0.885857 0
M  V30 32242 H 2837.38 4.21313 0.0855016 0
M  V30 32243 H 2836.06 3.1677 0.666207 0
M  V30 32244 H 2834.97 3.36087 -1.64305 0
M  V30 32245 H 2836.3 4.43048 -2.14404 0
M  V30 32246 N 2837.95 0.89995 1.29378 0
M  V30 32247 C 2839.18 0.540728 2.00227 0
M  V30 32248 C 2839.6 -0.86733 1.6691 0
M  V30 32249 O 2838.96 -1.57734 0.893851 0
M  V30 32250 C 2839.01 0.740294 3.52919 0
M  V30 32251 O 2838.11 -0.207082 4.1188 0
M  V30 32252 H 2837.45 0.211244 0.629501 0
M  V30 32253 H 2839.98 1.21161 1.64867 0
M  V30 32254 H 2839.99 0.645044 4.02869 0
M  V30 32255 H 2838.67 1.76683 3.76505 0
M  V30 32256 H 2837.24 -0.0642659 3.72845 0
M  V30 32257 N 2839.43 -1.43001 0.662458 0
M  V30 32258 C 2840.36 -2.28082 -0.0734189 0
M  V30 32259 C 2841.34 -1.4036 -0.820845 0
M  V30 32260 O 2842.53 -1.69802 -0.818516 0
M  V30 32261 C 2839.65 -3.19963 -1.11091 0
M  V30 32262 C 2838.7 -4.24007 -0.460482 0
M  V30 32263 S 2839.53 -5.29894 0.77281 0
M  V30 32264 C 2840.69 -6.25343 -0.263918 0
M  V30 32265 H 2840.92 -2.90146 0.648278 0
M  V30 32266 H 2838.45 -1.47648 0.451592 0
M  V30 32267 H 2840.41 -3.73442 -1.70446 0
M  V30 32268 H 2839.07 -2.57059 -1.80498 0
M  V30 32269 H 2838.27 -4.88434 -1.2429 0
M  V30 32270 H 2837.87 -3.73953 0.0591695 0
M  V30 32271 H 2840.16 -6.68054 -1.12737 0
M  V30 32272 H 2841.1 -7.07256 0.345567 0
M  V30 32273 H 2841.51 -5.61261 -0.603866 0
M  V30 32274 N 2840.91 -0.404973 -1.52308 0
M  V30 32275 C 2841.86 0.422557 -2.26899 0
M  V30 32276 C 2842.83 1.04458 -1.29142 0
M  V30 32277 O 2844.01 1.06964 -1.57998 0
M  V30 32278 C 2841.15 1.53553 -3.09056 0
M  V30 32279 C 2840.26 0.934834 -4.21764 0
M  V30 32280 C 2839.4 2.02016 -4.91287 0
M  V30 32281 C 2838.44 1.39618 -5.95964 0
M  V30 32282 N 2837.57 2.42148 -6.59021 0
M  V30 32283 H 2842.41 -0.219955 -2.97187 0
M  V30 32284 H 2839.95 -0.120308 -1.46607 0
M  V30 32285 H 2841.91 2.19175 -3.54991 0
M  V30 32286 H 2840.54 2.14813 -2.40946 0
M  V30 32287 H 2839.59 0.167787 -3.8003 0
M  V30 32288 H 2840.9 0.438985 -4.96865 0
M  V30 32289 H 2840.06 2.75373 -5.40606 0
M  V30 32290 H 2838.8 2.54965 -4.15745 0
M  V30 32291 H 2837.8 0.647927 -5.45969 0
M  V30 32292 H 2839.03 0.874435 -6.73447 0
M  V30 32293 H 2836.97 2.94237 -5.86311 0
M  V30 32294 H 2836.89 1.97363 -7.29783 0
M  V30 32295 H 2838.16 3.15087 -7.1298 0
M  V30 32296 N 2842.39 1.57018 -0.135265 0
M  V30 32297 C 2843.33 2.16162 0.80887 0
M  V30 32298 C 2844.3 1.09115 1.25232 0
M  V30 32299 O 2845.49 1.37101 1.32695 0
M  V30 32300 C 2842.63 2.77817 2.04724 0
M  V30 32301 C 2841.74 3.99221 1.65067 0
M  V30 32302 C 2840.88 4.48911 2.83994 0
M  V30 32303 C 2839.92 5.62808 2.40653 0
M  V30 32304 N 2839.05 6.07168 3.52549 0
M  V30 32305 H 2843.89 2.96509 0.297699 0
M  V30 32306 H 2841.43 1.46477 0.135238 0
M  V30 32307 H 2843.39 3.11702 2.77305 0
M  V30 32308 H 2842.02 2.00133 2.53272 0
M  V30 32309 H 2841.07 3.71391 0.822964 0
M  V30 32310 H 2842.38 4.81769 1.29227 0
M  V30 32311 H 2841.54 4.8479 3.64779 0
M  V30 32312 H 2840.27 3.65345 3.2307 0
M  V30 32313 H 2839.28 5.26517 1.58305 0
M  V30 32314 H 2840.5 6.48151 2.02676 0
M  V30 32315 H 2838.45 5.26541 3.91269 0
M  V30 32316 H 2838.37 6.84614 3.20687 0
M  V30 32317 H 2839.64 6.4769 4.33726 0
M  V30 32318 N 2843.86 -0.138524 1.5699 0
M  V30 32319 C 2844.81 -1.17077 1.98901 0
M  V30 32320 C 2845.78 -1.42227 0.857947 0
M  V30 32321 O 2846.97 -1.5442 1.12067 0
M  V30 32322 C 2844.11 -2.49716 2.38193 0
M  V30 32323 C 2843.22 -2.31668 3.64629 0
M  V30 32324 C 2842.35 -3.574 3.92987 0
M  V30 32325 C 2841.39 -3.34426 5.12665 0
M  V30 32326 N 2840.53 -4.5231 5.36991 0
M  V30 32327 H 2845.37 -0.806369 2.86883 0
M  V30 32328 H 2842.91 -0.386702 1.41926 0
M  V30 32329 H 2844.87 -3.27066 2.59006 0
M  V30 32330 H 2843.5 -2.84087 1.5328 0
M  V30 32331 H 2842.55 -1.4533 3.51544 0
M  V30 32332 H 2843.86 -2.10656 4.52134 0
M  V30 32333 H 2843.01 -4.43176 4.14343 0
M  V30 32334 H 2841.75 -3.81424 3.03919 0
M  V30 32335 H 2840.76 -2.47039 4.91174 0
M  V30 32336 H 2841.98 -3.11792 6.03293 0
M  V30 32337 H 2839.93 -4.76492 4.50879 0
M  V30 32338 H 2839.85 -4.34332 6.18782 0
M  V30 32339 H 2841.11 -5.39275 5.62852 0
M  V30 32340 N 2845.34 -1.52224 -0.408133 0
M  V30 32341 C 2846.29 -1.72019 -1.49645 0
M  V30 32342 C 2847.28 -0.574095 -1.5031 0
M  V30 32343 O 2848.47 -0.8312 -1.56269 0
M  V30 32344 C 2845.6 -1.87517 -2.87563 0
M  V30 32345 C 2844.68 -3.08 -2.91542 0
M  V30 32346 N 2845.07 -4.3069 -2.65217 0
M  V30 32347 C 2843.37 -3.07854 -3.2271 0
M  V30 32348 C 2844.07 -5.12167 -2.7579 0
M  V30 32349 N 2843.05 -4.47436 -3.08711 0
M  V30 32350 H 2846.85 -2.64519 -1.28089 0
M  V30 32351 H 2844.37 -1.5027 -0.615853 0
M  V30 32352 H 2846.36 -1.99815 -3.65896 0
M  V30 32353 H 2845.02 -0.962169 -3.10117 0
M  V30 32354 H 2846.03 -4.59146 -2.39593 0
M  V30 32355 H 2842.71 -2.26295 -3.50852 0
M  V30 32356 H 2844.1 -6.19915 -2.59144 0
M  V30 32357 N 2846.82 0.665425 -1.42863 0
M  V30 32358 C 2848.05 1.45845 -1.47458 0
M  V30 32359 C 2848.47 1.87884 -0.0900642 0
M  V30 32360 O 2847.83 1.56601 0.913559 0
M  V30 32361 C 2847.88 2.6777 -2.41519 0
M  V30 32362 O 2846.98 3.66385 -1.89303 0
M  V30 32363 H 2846.32 0.43778 -0.499244 0
M  V30 32364 H 2848.85 0.815361 -1.87651 0
M  V30 32365 H 2848.86 3.15731 -2.58415 0
M  V30 32366 H 2847.54 2.36513 -3.42103 0
M  V30 32367 H 2846.11 3.25465 -1.82009 0
M  V30 32368 N 2848.3 1.29191 0.902633 0
M  V30 32369 C 2849.23 1.1662 2.02292 0
M  V30 32370 C 2850.21 0.0611474 1.6999 0
M  V30 32371 O 2851.39 0.240106 1.9271 0
M  V30 32372 C 2848.52 0.838879 3.37016 0
M  V30 32373 C 2847.48 1.89993 3.83519 0
M  V30 32374 C 2846.8 1.42598 5.15335 0
M  V30 32375 C 2848.1 3.30832 4.04163 0
M  V30 32376 H 2849.8 2.10339 2.13067 0
M  V30 32377 H 2847.34 1.01268 1.02376 0
M  V30 32378 H 2849.3 0.737657 4.14893 0
M  V30 32379 H 2848.02 -0.134013 3.26325 0
M  V30 32380 H 2846.68 1.99048 3.07856 0
M  V30 32381 H 2846.33 0.441847 5.01056 0
M  V30 32382 H 2846.03 2.13556 5.47419 0
M  V30 32383 H 2847.55 1.3382 5.95755 0
M  V30 32384 H 2848.97 3.24634 4.72531 0
M  V30 32385 H 2847.36 3.99721 4.47597 0
M  V30 32386 H 2848.43 3.74026 3.08597 0
M  V30 32387 N 2849.78 -1.1126 1.1162 0
M  V30 32388 C 2850.72 -2.17355 0.776238 0
M  V30 32389 C 2851.69 -1.6416 -0.253123 0
M  V30 32390 O 2852.88 -1.90359 -0.129621 0
M  V30 32391 C 2850.02 -3.44348 0.227642 0
M  V30 32392 C 2849.13 -4.11538 1.31379 0
M  V30 32393 C 2848.27 -5.26222 0.725533 0
M  V30 32394 C 2847.31 -5.85299 1.7914 0
M  V30 32395 N 2846.44 -6.91375 1.2225 0
M  V30 32396 H 2851.28 -2.4578 1.68512 0
M  V30 32397 H 2848.82 -1.20653 0.841496 0
M  V30 32398 H 2850.78 -4.17059 -0.10841 0
M  V30 32399 H 2849.41 -3.16302 -0.64443 0
M  V30 32400 H 2848.46 -3.36882 1.76676 0
M  V30 32401 H 2849.77 -4.515 2.12013 0
M  V30 32402 H 2848.93 -6.05749 0.339647 0
M  V30 32403 H 2847.66 -4.87571 -0.112103 0
M  V30 32404 H 2846.67 -5.04449 2.18657 0
M  V30 32405 H 2847.89 -6.26017 2.6321 0
M  V30 32406 H 2845.84 -6.54739 0.406538 0
M  V30 32407 H 2845.76 -7.30002 1.96553 0
M  V30 32408 H 2847.03 -7.74702 0.863562 0
M  V30 32409 N 2851.25 -0.906798 -1.28899 0
M  V30 32410 C 2852.19 -0.334401 -2.25737 0
M  V30 32411 C 2853.17 0.557447 -1.52746 0
M  V30 32412 O 2854.35 0.502665 -1.81674 0
M  V30 32413 C 2851.48 0.522657 -3.34643 0
M  V30 32414 C 2850.52 -0.302851 -4.25423 0
M  V30 32415 S 2851.36 -1.70517 -5.07626 0
M  V30 32416 C 2852.51 -0.855227 -6.2003 0
M  V30 32417 H 2852.74 -1.15519 -2.73939 0
M  V30 32418 H 2850.28 -0.707597 -1.37231 0
M  V30 32419 H 2852.24 1.01134 -3.97847 0
M  V30 32420 H 2850.9 1.31776 -2.85121 0
M  V30 32421 H 2850.09 0.352168 -5.02768 0
M  V30 32422 H 2849.69 -0.724938 -3.66907 0
M  V30 32423 H 2851.98 -0.0817609 -6.77451 0
M  V30 32424 H 2852.93 -1.60099 -6.89764 0
M  V30 32425 H 2853.33 -0.406474 -5.63035 0
M  V30 32426 N 2852.73 1.42648 -0.670032 0
M  V30 32427 C 2853.98 2.00826 -0.187561 0
M  V30 32428 C 2854.29 1.53573 1.21139 0
M  V30 32429 O 2855.5 2.04138 1.78997 0
M  V30 32430 C 2853.96 3.58774 -0.284473 0
M  V30 32431 C 2853.56 4.15016 -1.68717 0
M  V30 32432 C 2855.31 4.24271 0.139531 0
M  V30 32433 C 2853.22 5.65313 -1.73711 0
M  V30 32434 H 2852.15 0.751074 -0.06636 0
M  V30 32435 H 2854.8 1.63426 -0.83452 0
M  V30 32436 H 2853.18 3.93655 0.430295 0
M  V30 32437 H 2854.35 3.91604 -2.42864 0
M  V30 32438 H 2852.67 3.61953 -2.05861 0
M  V30 32439 H 2855.26 5.3456 0.122304 0
M  V30 32440 H 2855.61 3.99405 1.17396 0
M  V30 32441 H 2856.14 3.94333 -0.524064 0
M  V30 32442 H 2852.88 5.9497 -2.75119 0
M  V30 32443 H 2852.4 5.9073 -1.03913 0
M  V30 32444 H 2854.08 6.29647 -1.4884 0
M  V30 32445 N 2854.21 0.413044 1.52091 0
M  V30 32446 C 2855.16 -0.410518 2.2712 0
M  V30 32447 C 2856.13 -1.03772 1.29694 0
M  V30 32448 O 2857.31 -1.06125 1.58563 0
M  V30 32449 C 2854.45 -1.51912 3.09866 0
M  V30 32450 C 2853.57 -0.912454 4.22254 0
M  V30 32451 C 2852.7 -1.99408 4.92351 0
M  V30 32452 C 2851.74 -1.36455 5.96696 0
M  V30 32453 N 2850.88 -2.38649 6.60296 0
M  V30 32454 H 2855.72 0.235713 2.97066 0
M  V30 32455 H 2853.25 0.128081 1.46541 0
M  V30 32456 H 2855.21 -2.17289 3.56148 0
M  V30 32457 H 2853.84 -2.13533 2.42082 0
M  V30 32458 H 2852.89 -0.14763 3.80113 0
M  V30 32459 H 2854.21 -0.412629 4.9709 0
M  V30 32460 H 2853.36 -2.72502 5.42059 0
M  V30 32461 H 2852.1 -2.52757 4.17091 0
M  V30 32462 H 2851.1 -0.618964 5.46305 0
M  V30 32463 H 2852.33 -0.838708 6.73901 0
M  V30 32464 H 2850.28 -2.91124 5.87863 0
M  V30 32465 H 2850.19 -1.9349 7.3082 0
M  V30 32466 H 2851.46 -3.11301 7.14641 0
M  V30 32467 N 2855.69 -1.56945 0.143591 0
M  V30 32468 C 2856.64 -2.17872 -0.814517 0
M  V30 32469 C 2857.63 -1.13476 -1.25776 0
M  V30 32470 O 2858.84 -1.31733 -1.22664 0
M  V30 32471 H 2855.21 -0.697583 -0.28086 0
M  V30 32472 H 2857.18 -2.97117 -0.276407 0
M  V30 32473 C 2855.93 -2.81204 -2.04498 0
M  V30 32474 H 2855.26 -3.61248 -1.71289 0
M  V30 32475 H 2856.7 -3.27342 -2.69487 0
M  V30 32476 C 2855.15 -1.79537 -2.85076 0
M  V30 32477 O 2855.68 -1.26374 -3.81304 0
M  V30 32478 N 2853.89 -1.48918 -2.49543 0
M  V30 32479 H 2853.44 -1.92341 -1.71356 0
M  V30 32480 H 2853.4 -0.811401 -3.03749 0
M  V30 32481 N 2857.17 0.130197 -1.57061 0
M  V30 32482 C 2858.42 0.838456 -1.83447 0
M  V30 32483 C 2858.73 1.81568 -0.7275 0
M  V30 32484 O 2859.94 2.5693 -0.877439 0
M  V30 32485 C 2858.39 1.54176 -3.25204 0
M  V30 32486 C 2858 0.6061 -4.43881 0
M  V30 32487 C 2859.74 2.23581 -3.60848 0
M  V30 32488 C 2857.65 1.31199 -5.76663 0
M  V30 32489 H 2856.58 0.316859 -0.68419 0
M  V30 32490 H 2859.23 0.0911736 -1.83273 0
M  V30 32491 H 2857.61 2.33527 -3.19814 0
M  V30 32492 H 2858.79 -0.153389 -4.60545 0
M  V30 32493 H 2857.1 0.0195973 -4.16395 0
M  V30 32494 H 2859.7 2.77064 -4.57318 0
M  V30 32495 H 2860.04 3.00862 -2.87729 0
M  V30 32496 H 2860.58 1.51131 -3.67973 0
M  V30 32497 H 2857.31 0.580708 -6.52923 0
M  V30 32498 H 2856.83 2.04377 -5.63906 0
M  V30 32499 H 2858.51 1.84829 -6.20038 0
M  V30 32500 N 2858.65 1.52438 0.400055 0
M  V30 32501 C 2859.59 1.77053 1.50848 0
M  V30 32502 C 2860.59 0.637996 1.56927 0
M  V30 32503 O 2861.79 0.82024 1.60225 0
M  V30 32504 H 2858.17 0.560045 0.50185 0
M  V30 32505 H 2860.14 2.69895 1.27276 0
M  V30 32506 C 2858.89 1.94643 2.88114 0
M  V30 32507 H 2858.21 2.81213 2.84182 0
M  V30 32508 H 2859.65 2.15861 3.64938 0
M  V30 32509 C 2858.11 0.715957 3.29205 0
M  V30 32510 O 2858.64 -0.111874 4.01544 0
M  V30 32511 N 2856.85 0.549241 2.85362 0
M  V30 32512 H 2856.39 1.22401 2.26662 0
M  V30 32513 H 2856.35 -0.272725 3.13215 0
M  V30 32514 N 2860.12 -0.657839 1.43214 0
M  V30 32515 C 2861.53 -1.2389 1.39671 0
M  V30 32516 C 2861.89 -1.95953 0.0984561 0
M  V30 32517 O 2861.01 -2.00979 -0.802265 0
M  V30 32518 C 2861.61 -2.25327 2.53008 0
M  V30 32519 C 2860.16 -2.78921 2.52745 0
M  V30 32520 C 2859.31 -1.53493 2.30944 0
M  V30 32521 H 2862.26 -0.450146 1.52182 0
M  V30 32522 H 2862.28 -3.07409 2.24232 0
M  V30 32523 H 2861.8 -1.7285 3.47483 0
M  V30 32524 H 2859.9 -3.35474 1.62136 0
M  V30 32525 H 2860.01 -3.26781 3.50358 0
M  V30 32526 H 2858.37 -1.80675 1.79524 0
M  V30 32527 H 2859.16 -1.02958 3.27498 0
M  V30 32528 N 2861.6 -1.29668 -0.895769 0
M  V30 32529 C 2862.85 -1.17867 -1.64662 0
M  V30 32530 C 2863.18 0.268986 -1.92631 0
M  V30 32531 O 2862.43 1.21026 -1.53789 0
M  V30 32532 C 2862.73 -1.94144 -3.00071 0
M  V30 32533 C 2862.4 -3.43838 -2.91696 0
M  V30 32534 C 2861.06 -3.84661 -2.89119 0
M  V30 32535 C 2863.41 -4.3921 -2.80614 0
M  V30 32536 C 2860.74 -5.19165 -2.73284 0
M  V30 32537 C 2863.09 -5.73809 -2.66319 0
M  V30 32538 C 2861.75 -6.13885 -2.6211 0
M  V30 32539 H 2861.02 -0.431306 -0.602541 0
M  V30 32540 H 2863.67 -1.60649 -1.04231 0
M  V30 32541 H 2861.98 -1.43964 -3.64392 0
M  V30 32542 H 2863.67 -1.82415 -3.57108 0
M  V30 32543 H 2860.26 -3.11391 -2.94506 0
M  V30 32544 H 2864.45 -4.0862 -2.81679 0
M  V30 32545 H 2859.7 -5.49321 -2.68433 0
M  V30 32546 H 2863.88 -6.47356 -2.56716 0
M  V30 32547 H 2861.5 -7.18056 -2.49598 0
M  V30 32548 N 2863.08 1.10667 -1.12208 0
M  V30 32549 C 2864.33 1.81942 -0.870627 0
M  V30 32550 C 2864.64 1.85995 0.605415 0
M  V30 32551 O 2865.85 2.53451 0.973389 0
M  V30 32552 C 2864.3 3.26789 -1.50789 0
M  V30 32553 C 2863.91 3.31041 -3.01854 0
M  V30 32554 C 2865.66 4.02908 -1.33661 0
M  V30 32555 C 2863.56 4.70333 -3.58526 0
M  V30 32556 H 2862.49 0.68176 -0.322055 0
M  V30 32557 H 2865.14 1.24473 -1.34829 0
M  V30 32558 H 2863.53 3.8424 -0.957892 0
M  V30 32559 H 2864.7 2.83427 -3.63326 0
M  V30 32560 H 2863.01 2.68405 -3.18351 0
M  V30 32561 H 2865.61 5.05794 -1.73425 0
M  V30 32562 H 2865.95 4.15357 -0.280022 0
M  V30 32563 H 2866.49 3.51865 -1.85569 0
M  V30 32564 H 2863.23 4.63083 -4.63933 0
M  V30 32565 H 2862.75 5.18324 -3.01828 0
M  V30 32566 H 2864.43 5.39299 -3.57443 0
M  V30 32567 N 2864.56 0.913621 1.28416 0
M  V30 32568 C 2865.51 0.373082 2.24927 0
M  V30 32569 C 2866.49 -0.514726 1.52445 0
M  V30 32570 O 2867.68 -0.354469 1.73414 0
M  V30 32571 C 2864.81 -0.385836 3.41125 0
M  V30 32572 C 2863.9 0.517684 4.20929 0
M  V30 32573 N 2864.29 1.63122 4.78774 0
M  V30 32574 C 2862.59 0.318047 4.44865 0
M  V30 32575 C 2863.29 2.19202 5.38819 0
M  V30 32576 N 2862.26 1.4833 5.22971 0
M  V30 32577 H 2866.07 1.2235 2.67222 0
M  V30 32578 H 2863.58 0.766261 1.43186 0
M  V30 32579 H 2865.58 -0.789925 4.09348 0
M  V30 32580 H 2864.24 -1.23336 3.00364 0
M  V30 32581 H 2865.25 2.0138 4.77144 0
M  V30 32582 H 2861.93 -0.489967 4.14615 0
M  V30 32583 H 2863.32 3.12872 5.9461 0
M  V30 32584 N 2866.04 -1.4229 0.677588 0
M  V30 32585 C 2866.98 -2.308 0.00098763 0
M  V30 32586 C 2867.95 -1.46118 -0.789864 0
M  V30 32587 O 2869.14 -1.74943 -0.761548 0
M  V30 32588 C 2866.28 -3.31985 -0.942329 0
M  V30 32589 C 2865.39 -4.31757 -0.145004 0
M  V30 32590 C 2864.53 -5.20015 -1.08432 0
M  V30 32591 C 2863.56 -6.11465 -0.27885 0
M  V30 32592 N 2862.7 -6.92265 -1.17103 0
M  V30 32593 H 2867.54 -2.88104 0.761572 0
M  V30 32594 H 2865.08 -1.4191 0.387295 0
M  V30 32595 H 2867.04 -3.89182 -1.5031 0
M  V30 32596 H 2865.67 -2.76274 -1.66951 0
M  V30 32597 H 2864.72 -3.76655 0.532434 0
M  V30 32598 H 2866.03 -4.96483 0.480237 0
M  V30 32599 H 2865.18 -5.81958 -1.71493 0
M  V30 32600 H 2863.92 -4.55472 -1.74345 0
M  V30 32601 H 2862.93 -5.48587 0.364952 0
M  V30 32602 H 2864.15 -6.78057 0.376218 0
M  V30 32603 H 2862.1 -6.30349 -1.8165 0
M  V30 32604 H 2862.02 -7.53608 -0.60093 0
M  V30 32605 H 2863.28 -7.58693 -1.78901 0
M  V30 32606 N 2867.51 -0.421104 -1.5187 0
M  V30 32607 C 2868.45 0.44333 -2.23852 0
M  V30 32608 C 2869.42 1.03816 -1.25144 0
M  V30 32609 O 2870.61 1.08374 -1.54231 0
M  V30 32610 C 2867.74 1.61643 -2.9764 0
M  V30 32611 C 2866.78 1.14384 -4.10875 0
M  V30 32612 S 2867.61 0.0991462 -5.35408 0
M  V30 32613 C 2868.77 1.27729 -6.12728 0
M  V30 32614 H 2869 -0.167838 -2.96826 0
M  V30 32615 H 2866.54 -0.205488 -1.53026 0
M  V30 32616 H 2868.49 2.28903 -3.40755 0
M  V30 32617 H 2867.16 2.19897 -2.24286 0
M  V30 32618 H 2866.35 2.02061 -4.61722 0
M  V30 32619 H 2865.95 0.54971 -3.69938 0
M  V30 32620 H 2868.24 2.1987 -6.4083 0
M  V30 32621 H 2869.19 0.809115 -7.03462 0
M  V30 32622 H 2869.59 1.5085 -5.43971 0
M  V30 32623 N 2868.99 1.56866 -0.151912 0
M  V30 32624 C 2870.24 1.95457 0.497957 0
M  V30 32625 C 2870.55 1.03956 1.65688 0
M  V30 32626 O 2871.76 1.32146 2.3717 0
M  V30 32627 C 2870.22 3.47482 0.937259 0
M  V30 32628 C 2869.82 4.47575 -0.195 0
M  V30 32629 C 2871.57 3.94929 1.55664 0
M  V30 32630 C 2869.48 5.90816 0.262846 0
M  V30 32631 H 2868.41 0.729721 0.189799 0
M  V30 32632 H 2871.06 1.81963 -0.237043 0
M  V30 32633 H 2869.44 3.56325 1.72767 0
M  V30 32634 H 2870.61 4.50431 -0.97203 0
M  V30 32635 H 2868.93 4.10073 -0.723102 0
M  V30 32636 H 2871.52 4.99388 1.9109 0
M  V30 32637 H 2871.87 3.36759 2.44742 0
M  V30 32638 H 2872.4 3.89023 0.831041 0
M  V30 32639 H 2869.14 6.52815 -0.592683 0
M  V30 32640 H 2868.66 5.91309 1.00565 0
M  V30 32641 H 2870.34 6.43057 0.71322 0
M  V30 32642 N 2870.47 -0.121866 1.57128 0
M  V30 32643 C 2871.4 -1.15089 2.03167 0
M  V30 32644 C 2872.38 -1.43355 0.915612 0
M  V30 32645 O 2873.57 -1.53845 1.18513 0
M  V30 32646 C 2870.7 -2.4778 2.43357 0
M  V30 32647 C 2869.65 -2.33982 3.5838 0
M  V30 32648 C 2868.98 -3.7161 3.84461 0
M  V30 32649 C 2870.28 -1.80274 4.90203 0
M  V30 32650 H 2871.97 -0.767972 2.89383 0
M  V30 32651 H 2869.52 -0.367973 1.39219 0
M  V30 32652 H 2871.47 -3.20015 2.74169 0
M  V30 32653 H 2870.19 -2.87955 1.54108 0
M  V30 32654 H 2868.85 -1.64196 3.27773 0
M  V30 32655 H 2868.5 -4.09266 2.92422 0
M  V30 32656 H 2868.2 -3.63232 4.61883 0
M  V30 32657 H 2869.72 -4.45354 4.17722 0
M  V30 32658 H 2871.14 -2.42324 5.19569 0
M  V30 32659 H 2869.54 -1.82725 5.71605 0
M  V30 32660 H 2870.61 -0.7601 4.78906 0
M  V30 32661 N 2871.95 -1.52648 -0.391965 0
M  V30 32662 C 2873.23 -1.58125 -1.15133 0
M  V30 32663 C 2873.61 -0.372633 -2.07785 0
M  V30 32664 O 2872.95 0.639265 -2.19376 0
M  V30 32665 C 2873.16 -2.91859 -1.91362 0
M  V30 32666 C 2874.51 -3.45487 -2.46827 0
M  V30 32667 O 2875.54 -2.93713 -2.01521 0
M  V30 32668 O 2874.39 -4.35936 -3.29579 0
M  V30 32669 H 2871.49 -0.637638 -0.526637 0
M  V30 32670 H 2874.03 -1.64982 -0.397357 0
M  V30 32671 H 2872.81 -3.7127 -1.2359 0
M  V30 32672 H 2872.43 -2.88374 -2.73727 0
M  V30 32673 N 2873.43 0.650235 -1.43561 0
M  V30 32674 C 2874.36 1.77513 -1.43403 0
M  V30 32675 C 2875.34 1.599 -0.29511 0
M  V30 32676 O 2876.52 1.82043 -0.48916 0
M  V30 32677 C 2873.65 3.14851 -1.24846 0
M  V30 32678 C 2872.69 3.51159 -2.42053 0
M  V30 32679 S 2873.53 3.50796 -4.04601 0
M  V30 32680 C 2874.68 4.90786 -3.88433 0
M  V30 32681 H 2874.92 1.77377 -2.38589 0
M  V30 32682 H 2872.45 0.823146 -1.30628 0
M  V30 32683 H 2874.41 3.94113 -1.14826 0
M  V30 32684 H 2873.07 3.12546 -0.312032 0
M  V30 32685 H 2872.26 4.51048 -2.24881 0
M  V30 32686 H 2871.86 2.79316 -2.48713 0
M  V30 32687 H 2874.16 5.79522 -3.50942 0
M  V30 32688 H 2875.1 5.1301 -4.88085 0
M  V30 32689 H 2875.51 4.64461 -3.20837 0
M  V30 32690 N 2874.9 1.30141 0.88888 0
M  V30 32691 C 2875.85 1.16091 2.01558 0
M  V30 32692 C 2876.85 0.073771 1.69239 0
M  V30 32693 O 2878.05 0.234345 1.78468 0
M  V30 32694 H 2874.43 0.358918 0.660819 0
M  V30 32695 H 2876.4 2.11457 2.10544 0
M  V30 32696 C 2875.15 0.865485 3.36756 0
M  V30 32697 H 2874.47 1.69408 3.62134 0
M  V30 32698 H 2875.91 0.807265 4.16244 0
M  V30 32699 C 2874.37 -0.431518 3.34125 0
M  V30 32700 O 2874.9 -1.45425 3.74452 0
M  V30 32701 N 2873.11 -0.441271 2.8723 0
M  V30 32702 H 2872.65 0.391477 2.54608 0
M  V30 32703 H 2872.61 -1.30903 2.85852 0
M  V30 32704 N 2876.38 -1.1007 1.12794 0
M  V30 32705 C 2877.29 -2.20084 0.812407 0
M  V30 32706 C 2878.31 -1.72843 -0.200319 0
M  V30 32707 O 2879.48 -2.01373 -0.0329908 0
M  V30 32708 C 2876.55 -3.45602 0.275746 0
M  V30 32709 C 2875.61 -4.07558 1.34888 0
M  V30 32710 C 2874.84 -5.27084 0.837731 0
M  V30 32711 O 2875.07 -5.69461 -0.327124 0
M  V30 32712 O 2874 -5.79994 1.60904 0
M  V30 32713 H 2877.83 -2.49514 1.73137 0
M  V30 32714 H 2875.41 -1.18879 0.904884 0
M  V30 32715 H 2877.29 -4.21396 -0.0184635 0
M  V30 32716 H 2875.97 -3.1779 -0.615727 0
M  V30 32717 H 2874.88 -3.33431 1.69631 0
M  V30 32718 H 2876.21 -4.39581 2.21425 0
M  V30 32719 N 2877.86 -0.920419 -1.2793 0
M  V30 32720 C 2879.09 -0.573122 -1.98804 0
M  V30 32721 C 2879.5 0.847171 -1.68726 0
M  V30 32722 O 2878.86 1.56205 -0.943726 0
M  V30 32723 C 2878.91 -0.780695 -3.52969 0
M  V30 32724 O 2878.63 -2.14511 -3.81991 0
M  V30 32725 C 2880.13 -0.441127 -4.411 0
M  V30 32726 H 2877.35 -0.217861 -0.634648 0
M  V30 32727 H 2879.9 -1.23545 -1.62963 0
M  V30 32728 H 2878.05 -0.165272 -3.87047 0
M  V30 32729 H 2878.47 -2.1897 -4.76605 0
M  V30 32730 H 2879.94 -0.637102 -5.48311 0
M  V30 32731 H 2880.42 0.622984 -4.34759 0
M  V30 32732 H 2881.02 -1.03438 -4.1253 0
M  V30 32733 N 2879.34 1.41929 -0.685124 0
M  V30 32734 C 2880.59 2.00616 -0.208851 0
M  V30 32735 C 2880.9 1.54849 1.19503 0
M  V30 32736 O 2882.11 2.06025 1.76822 0
M  V30 32737 C 2880.56 3.58452 -0.322509 0
M  V30 32738 C 2880.17 4.13203 -1.7311 0
M  V30 32739 C 2881.91 4.24395 0.0945233 0
M  V30 32740 C 2879.82 5.63439 -1.79697 0
M  V30 32741 H 2878.75 0.750328 -0.0743224 0
M  V30 32742 H 2881.4 1.62532 -0.851807 0
M  V30 32743 H 2879.78 3.94089 0.388519 0
M  V30 32744 H 2880.96 3.89006 -2.47004 0
M  V30 32745 H 2879.27 3.5975 -2.09688 0
M  V30 32746 H 2881.87 5.3466 0.0655997 0
M  V30 32747 H 2882.21 4.00627 1.13153 0
M  V30 32748 H 2882.75 3.93755 -0.565859 0
M  V30 32749 H 2879.49 5.92019 -2.81414 0
M  V30 32750 H 2879.01 5.89595 -1.10173 0
M  V30 32751 H 2880.68 6.28033 -1.55509 0
M  V30 32752 N 2880.82 0.429152 1.51644 0
M  V30 32753 C 2881.75 -0.422084 2.2528 0
M  V30 32754 C 2882.76 -0.993276 1.28988 0
M  V30 32755 O 2883.95 -0.888809 1.54798 0
M  V30 32756 C 2881.05 -1.60156 2.98669 0
M  V30 32757 C 2880.22 -1.15071 4.21992 0
M  V30 32758 C 2879.28 -2.19937 4.78031 0
M  V30 32759 O 2878.31 -1.79706 5.40087 0
M  V30 32760 N 2879.51 -3.52332 4.61348 0
M  V30 32761 H 2882.28 0.208983 2.9897 0
M  V30 32762 H 2879.84 0.257597 1.59838 0
M  V30 32763 H 2881.83 -2.29916 3.33048 0
M  V30 32764 H 2880.4 -2.13814 2.2804 0
M  V30 32765 H 2879.62 -0.280482 3.93201 0
M  V30 32766 H 2880.91 -0.826743 5.02038 0
M  V30 32767 H 2880.3 -3.87755 4.11901 0
M  V30 32768 H 2878.86 -4.1801 5.00111 0
M  V30 32769 N 2882.29 -1.56783 0.160229 0
M  V30 32770 C 2883.24 -2.17421 -0.774378 0
M  V30 32771 C 2884.21 -1.11093 -1.23481 0
M  V30 32772 O 2885.4 -1.39195 -1.30497 0
M  V30 32773 C 2882.54 -2.81039 -2.00278 0
M  V30 32774 C 2881.65 -4.01796 -1.58694 0
M  V30 32775 C 2880.78 -4.53372 -2.76816 0
M  V30 32776 C 2879.82 -5.66565 -2.31669 0
M  V30 32777 N 2878.96 -6.127 -3.42845 0
M  V30 32778 H 2883.8 -2.96945 -0.250489 0
M  V30 32779 H 2881.34 -1.46674 -0.111917 0
M  V30 32780 H 2883.3 -3.16074 -2.72311 0
M  V30 32781 H 2881.93 -2.04137 -2.50056 0
M  V30 32782 H 2880.98 -3.72654 -0.763775 0
M  V30 32783 H 2882.29 -4.83764 -1.21546 0
M  V30 32784 H 2881.44 -4.90532 -3.5702 0
M  V30 32785 H 2880.18 -3.70439 -3.17217 0
M  V30 32786 H 2879.19 -5.28968 -1.49908 0
M  V30 32787 H 2880.41 -6.51293 -1.92339 0
M  V30 32788 H 2878.36 -5.32699 -3.82842 0
M  V30 32789 H 2878.28 -6.89629 -3.09755 0
M  V30 32790 H 2879.54 -6.54508 -4.23367 0
M  V30 32791 N 2883.77 0.113531 -1.57191 0
M  V30 32792 C 2884.7 1.1401 -2.03774 0
M  V30 32793 C 2885.68 1.42867 -0.923201 0
M  V30 32794 O 2886.87 1.53214 -1.19327 0
M  V30 32795 C 2884 2.46486 -2.44667 0
M  V30 32796 C 2882.95 2.32078 -3.59616 0
M  V30 32797 C 2882.28 3.69566 -3.86426 0
M  V30 32798 C 2883.58 1.77672 -4.91152 0
M  V30 32799 H 2885.27 0.752615 -2.89786 0
M  V30 32800 H 2882.82 0.360585 -1.39412 0
M  V30 32801 H 2884.77 3.18556 -2.75862 0
M  V30 32802 H 2883.5 2.87134 -1.55633 0
M  V30 32803 H 2882.16 1.62456 -3.28639 0
M  V30 32804 H 2881.8 4.07709 -2.94588 0
M  V30 32805 H 2881.5 3.60778 -4.63803 0
M  V30 32806 H 2883.03 4.43133 -4.20078 0
M  V30 32807 H 2884.44 2.39565 -5.20847 0
M  V30 32808 H 2882.84 1.79691 -5.72566 0
M  V30 32809 H 2883.91 0.734692 -4.79302 0
M  V30 32810 N 2885.25 1.52854 0.383864 0
M  V30 32811 C 2886.2 1.77997 1.46921 0
M  V30 32812 C 2887.17 0.623423 1.53957 0
M  V30 32813 O 2888.35 0.863687 1.70133 0
M  V30 32814 C 2885.49 1.95926 2.8409 0
M  V30 32815 C 2884.61 3.23626 2.86165 0
M  V30 32816 C 2883.74 3.31843 4.14794 0
M  V30 32817 C 2882.78 4.53646 4.1094 0
M  V30 32818 N 2881.92 4.59116 5.31184 0
M  V30 32819 H 2886.76 2.70617 1.24781 0
M  V30 32820 H 2884.29 1.34072 0.605242 0
M  V30 32821 H 2886.25 2.04305 3.63751 0
M  V30 32822 H 2884.88 1.06661 3.04669 0
M  V30 32823 H 2883.93 3.24292 1.98844 0
M  V30 32824 H 2885.25 4.13348 2.79187 0
M  V30 32825 H 2884.4 3.39434 5.02861 0
M  V30 32826 H 2883.14 2.40104 4.24501 0
M  V30 32827 H 2882.14 4.46175 3.2126 0
M  V30 32828 H 2883.37 5.46707 4.02851 0
M  V30 32829 H 2881.32 3.70272 5.41512 0
M  V30 32830 H 2881.23 5.42718 5.26302 0
M  V30 32831 H 2882.5 4.70969 6.21135 0
M  V30 32832 N 2886.73 -0.642612 1.43904 0
M  V30 32833 C 2887.95 -1.43481 1.4976 0
M  V30 32834 C 2888.38 -1.87717 0.119944 0
M  V30 32835 O 2887.74 -1.58034 -0.88853 0
M  V30 32836 C 2887.79 -2.63894 2.45749 0
M  V30 32837 O 2886.89 -3.63327 1.95108 0
M  V30 32838 H 2886.23 -0.429782 0.506146 0
M  V30 32839 H 2888.76 -0.785404 1.88925 0
M  V30 32840 H 2888.77 -3.1158 2.63405 0
M  V30 32841 H 2887.45 -2.3104 3.45822 0
M  V30 32842 H 2886.02 -3.22528 1.87163 0
M  V30 32843 N 2888.21 -1.30611 -0.881966 0
M  V30 32844 C 2889.48 -1.10261 -1.61561 0
M  V30 32845 C 2889.86 0.347017 -2.08228 0
M  V30 32846 O 2889.21 1.33905 -1.85153 0
M  V30 32847 C 2889.42 -2.10617 -2.78283 0
M  V30 32848 C 2890.77 -2.42496 -3.48541 0
M  V30 32849 O 2891.79 -2.0895 -2.88476 0
M  V30 32850 O 2890.65 -2.99891 -4.56867 0
M  V30 32851 H 2887.75 -0.423675 -0.710231 0
M  V30 32852 H 2890.29 -1.42047 -0.928478 0
M  V30 32853 H 2889.07 -3.08179 -2.41126 0
M  V30 32854 H 2888.69 -1.79665 -3.54692 0
M  V30 32855 N 2889.69 1.0947 -1.13376 0
M  V30 32856 C 2890.91 1.8594 -0.918744 0
M  V30 32857 C 2891.34 1.80561 0.527193 0
M  V30 32858 O 2890.69 1.18276 1.37406 0
M  V30 32859 C 2890.74 3.31864 -1.41062 0
M  V30 32860 O 2889.85 4.08077 -0.595568 0
M  V30 32861 H 2889.19 0.576587 -0.329307 0
M  V30 32862 H 2891.72 1.38242 -1.50832 0
M  V30 32863 H 2891.73 3.82712 -1.41404 0
M  V30 32864 H 2890.4 3.35095 -2.46341 0
M  V30 32865 H 2888.98 3.67013 -0.659975 0
M  V30 32866 N 2891.16 0.92719 1.2744 0
M  V30 32867 C 2892.07 0.431488 2.30598 0
M  V30 32868 C 2893.09 -0.48758 1.67029 0
M  V30 32869 O 2894.27 -0.370512 1.97963 0
M  V30 32870 C 2891.33 -0.308231 3.45327 0
M  V30 32871 C 2890.39 0.64569 4.24416 0
M  V30 32872 C 2889.62 -0.0588226 5.33668 0
M  V30 32873 O 2889.85 -1.27828 5.55892 0
M  V30 32874 O 2888.78 0.612743 5.98773 0
M  V30 32875 H 2892.61 1.28802 2.75034 0
M  V30 32876 H 2890.19 0.692518 1.3238 0
M  V30 32877 H 2892.07 -0.725482 4.15108 0
M  V30 32878 H 2890.75 -1.14038 3.02947 0
M  V30 32879 H 2889.66 1.11261 3.57172 0
M  V30 32880 H 2890.99 1.44504 4.7051 0
M  V30 32881 N 2892.64 -1.41564 0.692641 0
M  V30 32882 C 2893.59 -2.30786 0.025467 0
M  V30 32883 C 2894.56 -1.46947 -0.774321 0
M  V30 32884 O 2895.74 -1.75741 -0.74295 0
M  V30 32885 C 2892.88 -3.32966 -0.907064 0
M  V30 32886 C 2892 -4.31886 -0.0992024 0
M  V30 32887 C 2891.13 -5.21136 -1.02911 0
M  V30 32888 C 2890.17 -6.11726 -0.213981 0
M  V30 32889 N 2889.31 -6.93469 -1.09754 0
M  V30 32890 H 2894.15 -2.8728 0.792086 0
M  V30 32891 H 2891.68 -1.41491 0.402325 0
M  V30 32892 H 2893.64 -3.90754 -1.46174 0
M  V30 32893 H 2892.27 -2.78029 -1.64011 0
M  V30 32894 H 2891.32 -3.7607 0.572353 0
M  V30 32895 H 2892.64 -4.95946 0.532869 0
M  V30 32896 H 2891.79 -5.83744 -1.65311 0
M  V30 32897 H 2890.53 -4.57296 -1.69504 0
M  V30 32898 H 2889.53 -5.48169 0.423117 0
M  V30 32899 H 2890.76 -6.7762 0.448114 0
M  V30 32900 H 2888.71 -6.3224 -1.74954 0
M  V30 32901 H 2888.62 -7.54203 -0.520966 0
M  V30 32902 H 2889.89 -7.60547 -1.70844 0
M  V30 32903 N 2894.12 -0.437188 -1.51415 0
M  V30 32904 C 2895.08 0.362689 -2.26312 0
M  V30 32905 C 2896.08 0.949824 -1.2975 0
M  V30 32906 O 2897.27 0.824298 -1.53463 0
M  V30 32907 C 2894.4 1.51314 -3.05478 0
M  V30 32908 H 2895.6 -0.293703 -2.98458 0
M  V30 32909 H 2893.15 -0.190354 -1.55137 0
M  V30 32910 H 2893.89 2.20559 -2.37748 0
M  V30 32911 H 2893.67 1.09831 -3.76403 0
M  V30 32912 H 2895.16 2.07827 -3.62212 0
M  V30 32913 N 2895.6 1.56696 -0.168541 0
M  V30 32914 C 2896.83 2.0088 0.482767 0
M  V30 32915 C 2897.24 1.04782 1.57535 0
M  V30 32916 O 2896.58 0.0403069 1.83656 0
M  V30 32917 C 2896.64 3.41492 1.12354 0
M  V30 32918 C 2896.3 4.56673 0.172946 0
M  V30 32919 C 2897.3 5.16337 -0.607656 0
M  V30 32920 C 2894.99 5.02252 0.0695809 0
M  V30 32921 C 2896.98 6.20007 -1.47885 0
M  V30 32922 C 2894.67 6.05772 -0.805203 0
M  V30 32923 C 2895.67 6.64521 -1.57801 0
M  V30 32924 O 2895.35 7.66034 -2.43818 0
M  V30 32925 H 2895.09 0.663726 0.128235 0
M  V30 32926 H 2897.64 2.03663 -0.266568 0
M  V30 32927 H 2895.87 3.35614 1.92094 0
M  V30 32928 H 2897.56 3.69648 1.67676 0
M  V30 32929 H 2898.32 4.82007 -0.537954 0
M  V30 32930 H 2894.2 4.56238 0.660877 0
M  V30 32931 H 2897.75 6.65791 -2.08251 0
M  V30 32932 H 2893.64 6.39527 -0.876117 0
M  V30 32933 H 2894.41 7.83345 -2.37303 0
M  V30 32934 N 2897.08 -0.105193 1.57249 0
M  V30 32935 C 2898.32 -0.808918 1.85205 0
M  V30 32936 C 2898.64 -1.79758 0.755772 0
M  V30 32937 O 2897.91 -1.94673 -0.21895 0
M  V30 32938 H 2896.49 -0.301727 0.683352 0
M  V30 32939 H 2899.16 -0.0892263 1.94696 0
M  V30 32940 H 2898.25 -1.3457 2.81598 0
M  V30 32941 N 2898.55 -1.53055 -0.375752 0
M  V30 32942 C 2899.8 -1.68411 -1.11724 0
M  V30 32943 C 2900.12 -0.433263 -1.90126 0
M  V30 32944 O 2899.39 0.552562 -1.87946 0
M  V30 32945 H 2897.97 -0.620821 -0.41544 0
M  V30 32946 H 2900.64 -1.90213 -0.424835 0
M  V30 32947 H 2899.73 -2.54059 -1.81275 0
M  V30 32948 N 2900.03 0.634971 -1.44242 0
M  V30 32949 C 2901.44 1.21653 -1.41625 0
M  V30 32950 C 2901.79 1.95771 -0.129618 0
M  V30 32951 O 2900.92 2.0223 0.770189 0
M  V30 32952 C 2901.51 2.21274 -2.56561 0
M  V30 32953 C 2900.07 2.74865 -2.5715 0
M  V30 32954 C 2899.22 1.498 -2.33357 0
M  V30 32955 H 2902.17 0.425878 -1.52879 0
M  V30 32956 H 2902.19 3.03803 -2.29094 0
M  V30 32957 H 2901.7 1.673 -3.50189 0
M  V30 32958 H 2899.81 3.32852 -1.67453 0
M  V30 32959 H 2899.92 3.21166 -3.55513 0
M  V30 32960 H 2898.28 1.77796 -1.82375 0
M  V30 32961 H 2899.07 0.977344 -3.29094 0
M  V30 32962 N 2901.51 1.31076 0.875027 0
M  V30 32963 C 2902.46 1.183 1.98176 0
M  V30 32964 C 2903.43 0.0700215 1.65952 0
M  V30 32965 O 2904.61 0.241984 1.89259 0
M  V30 32966 C 2901.75 0.891082 3.33397 0
M  V30 32967 C 2900.87 2.0869 3.78249 0
M  V30 32968 C 2900 1.73221 5.02163 0
M  V30 32969 C 2899.04 2.89241 5.3945 0
M  V30 32970 N 2898.18 2.54001 6.54544 0
M  V30 32971 H 2903.02 2.12975 2.08436 0
M  V30 32972 H 2900.55 1.05949 1.02045 0
M  V30 32973 H 2902.51 0.70241 4.11244 0
M  V30 32974 H 2901.14 -0.0188232 3.22795 0
M  V30 32975 H 2900.19 2.38651 2.96226 0
M  V30 32976 H 2901.51 2.95543 4.01816 0
M  V30 32977 H 2900.66 1.50787 5.87663 0
M  V30 32978 H 2899.4 0.835525 4.8049 0
M  V30 32979 H 2898.4 3.12329 4.52471 0
M  V30 32980 H 2899.63 3.79611 5.63092 0
M  V30 32981 H 2897.57 1.66849 6.34427 0
M  V30 32982 H 2897.49 3.34384 6.78029 0
M  V30 32983 H 2898.76 2.34947 7.4325 0
M  V30 32984 N 2902.99 -1.08867 1.13955 0
M  V30 32985 C 2903.95 -2.13836 0.825028 0
M  V30 32986 C 2904.95 -1.59918 -0.16817 0
M  V30 32987 O 2906.14 -1.74098 0.0596084 0
M  V30 32988 C 2903.27 -3.4013 0.228998 0
M  V30 32989 H 2904.47 -2.43168 1.75525 0
M  V30 32990 H 2902.02 -1.24501 0.944942 0
M  V30 32991 H 2902.75 -3.16429 -0.710171 0
M  V30 32992 H 2902.54 -3.80559 0.94431 0
M  V30 32993 H 2904.03 -4.17592 0.0259957 0
M  V30 32994 N 2904.47 -0.933936 -1.26946 0
M  V30 32995 C 2905.74 -0.495817 -1.89212 0
M  V30 32996 C 2906.12 1.02634 -1.84471 0
M  V30 32997 O 2905.47 1.88321 -1.29412 0
M  V30 32998 C 2905.68 -1.04896 -3.32863 0
M  V30 32999 C 2907.03 -1.11322 -4.09747 0
M  V30 33000 O 2908.05 -0.999026 -3.41903 0
M  V30 33001 O 2906.91 -1.28992 -5.31059 0
M  V30 33002 H 2904.01 -0.160473 -0.811281 0
M  V30 33003 H 2906.55 -1.02603 -1.35169 0
M  V30 33004 H 2905.32 -2.09271 -3.30638 0
M  V30 33005 H 2904.95 -0.500761 -3.94434 0
M  V30 33006 N 2905.94 1.41194 -0.700139 0
M  V30 33007 C 2907.19 2.00383 -0.230117 0
M  V30 33008 C 2907.51 1.56108 1.17854 0
M  V30 33009 O 2908.71 2.07888 1.74627 0
M  V30 33010 C 2907.17 3.5809 -0.36051 0
M  V30 33011 C 2906.78 4.11344 -1.77482 0
M  V30 33012 C 2908.52 4.24471 0.0495053 0
M  V30 33013 C 2906.43 5.61501 -1.85663 0
M  V30 33014 H 2905.36 0.749498 -0.0822765 0
M  V30 33015 H 2908.01 1.61619 -0.868998 0
M  V30 33016 H 2906.39 3.94479 0.346698 0
M  V30 33017 H 2907.56 3.86364 -2.51116 0
M  V30 33018 H 2905.88 3.57505 -2.13492 0
M  V30 33019 H 2908.48 5.34699 0.00888821 0
M  V30 33020 H 2908.82 4.01805 1.08897 0
M  V30 33021 H 2909.35 3.93133 -0.60759 0
M  V30 33022 H 2906.09 5.89001 -2.87678 0
M  V30 33023 H 2905.61 5.88393 -1.1642 0
M  V30 33024 H 2907.29 6.26349 -1.62162 0
M  V30 33025 N 2907.42 0.445212 1.51181 0
M  V30 33026 C 2908.67 -0.120154 2.01342 0
M  V30 33027 C 2908.98 -1.43093 1.33356 0
M  V30 33028 O 2910.19 -2.07971 1.74529 0
M  V30 33029 C 2908.65 -0.264669 3.58926 0
M  V30 33030 C 2908.25 1.03614 4.35853 0
M  V30 33031 C 2910 -0.783381 4.17209 0
M  V30 33032 C 2907.91 0.856834 5.8516 0
M  V30 33033 H 2906.84 -0.048679 0.752427 0
M  V30 33034 H 2909.49 0.576174 1.7422 0
M  V30 33035 H 2907.87 -1.02418 3.82526 0
M  V30 33036 H 2909.04 1.8046 4.23994 0
M  V30 33037 H 2907.36 1.48398 3.89059 0
M  V30 33038 H 2909.95 -0.934147 5.26477 0
M  V30 33039 H 2910.3 -1.76793 3.76895 0
M  V30 33040 H 2910.83 -0.0819647 3.97716 0
M  V30 33041 H 2907.57 1.81399 6.299 0
M  V30 33042 H 2907.09 0.128312 5.99663 0
M  V30 33043 H 2908.77 0.51314 6.44962 0
M  V30 33044 N 2908.9 -1.56605 0.176849 0
M  V30 33045 C 2910.13 -2.01865 -0.475954 0
M  V30 33046 C 2910.55 -1.05626 -1.55643 0
M  V30 33047 O 2909.91 -0.0367048 -1.81263 0
M  V30 33048 C 2909.96 -3.45692 -1.02613 0
M  V30 33049 O 2909.06 -3.52537 -2.13989 0
M  V30 33050 H 2908.4 -0.654253 -0.113351 0
M  V30 33051 H 2910.93 -2.02642 0.282365 0
M  V30 33052 H 2910.94 -3.85111 -1.34735 0
M  V30 33053 H 2909.62 -4.15235 -0.235065 0
M  V30 33054 H 2908.19 -3.24981 -1.8287 0
M  V30 33055 N 2910.38 0.0968524 -1.57302 0
M  V30 33056 C 2911.31 1.11842 -2.04972 0
M  V30 33057 C 2912.29 1.4188 -0.938303 0
M  V30 33058 O 2913.47 1.5194 -1.20946 0
M  V30 33059 C 2910.6 2.43877 -2.47268 0
M  V30 33060 C 2909.56 2.28251 -3.62057 0
M  V30 33061 C 2908.88 3.65447 -3.90324 0
M  V30 33062 C 2910.18 1.72453 -4.93009 0
M  V30 33063 H 2911.88 0.721836 -2.90568 0
M  V30 33064 H 2909.42 0.345778 -1.39787 0
M  V30 33065 H 2911.38 3.15612 -2.79225 0
M  V30 33066 H 2910.1 2.85467 -1.58669 0
M  V30 33067 H 2908.76 1.58961 -3.30344 0
M  V30 33068 H 2908.41 4.04562 -2.98896 0
M  V30 33069 H 2908.11 3.55838 -4.67603 0
M  V30 33070 H 2909.63 4.38652 -4.24755 0
M  V30 33071 H 2911.05 2.34027 -5.23359 0
M  V30 33072 H 2909.44 1.73608 -5.74439 0
M  V30 33073 H 2910.51 0.683814 -4.80054 0
M  V30 33074 N 2911.86 1.53252 0.36763 0
M  V30 33075 C 2913.09 1.7299 1.12951 0
M  V30 33076 C 2913.49 0.457741 1.83579 0
M  V30 33077 O 2912.84 -0.578976 1.74337 0
M  V30 33078 C 2912.9 2.83906 2.2054 0
M  V30 33079 C 2912.56 4.24326 1.69696 0
M  V30 33080 C 2913.56 5.06745 1.16214 0
M  V30 33081 C 2911.25 4.70728 1.75271 0
M  V30 33082 C 2913.24 6.33656 0.689824 0
M  V30 33083 C 2910.93 5.97619 1.27651 0
M  V30 33084 C 2911.92 6.78914 0.745963 0
M  V30 33085 O 2911.61 8.03423 0.276784 0
M  V30 33086 H 2911.34 0.58208 0.343743 0
M  V30 33087 H 2913.9 2.00783 0.433071 0
M  V30 33088 H 2912.13 2.51583 2.93672 0
M  V30 33089 H 2913.82 2.91841 2.82105 0
M  V30 33090 H 2914.58 4.72069 1.11248 0
M  V30 33091 H 2910.46 4.07526 2.15508 0
M  V30 33092 H 2914.01 6.97058 0.275041 0
M  V30 33093 H 2909.9 6.31794 1.32311 0
M  V30 33094 H 2910.67 8.1754 0.396302 0
M  V30 33095 N 2913.34 -0.627313 1.44577 0
M  V30 33096 C 2914.28 -1.73909 1.51737 0
M  V30 33097 C 2915.25 -1.62045 0.364774 0
M  V30 33098 O 2916.44 -1.81913 0.575535 0
M  V30 33099 C 2913.58 -3.12169 1.47121 0
M  V30 33100 C 2912.69 -3.34982 2.72784 0
M  V30 33101 C 2911.83 -4.63234 2.59976 0
M  V30 33102 C 2910.86 -4.79239 3.80784 0
M  V30 33103 N 2910 -5.98772 3.66629 0
M  V30 33104 H 2914.84 -1.67126 2.46725 0
M  V30 33105 H 2912.38 -0.815203 1.22445 0
M  V30 33106 H 2914.34 -3.92132 1.42436 0
M  V30 33107 H 2912.97 -3.17958 0.556984 0
M  V30 33108 H 2912.02 -2.48931 2.87641 0
M  V30 33109 H 2913.33 -3.42686 3.62447 0
M  V30 33110 H 2912.48 -5.51364 2.53145 0
M  V30 33111 H 2911.22 -4.57895 1.6788 0
M  V30 33112 H 2910.23 -3.89537 3.87996 0
M  V30 33113 H 2911.45 -4.8639 4.73922 0
M  V30 33114 H 2909.4 -5.94515 2.77287 0
M  V30 33115 H 2909.32 -6.07549 4.49911 0
M  V30 33116 H 2910.58 -6.89453 3.63696 0
M  V30 33117 N 2914.81 -1.31539 -0.868063 0
M  V30 33118 C 2916.06 -1.20692 -1.61605 0
M  V30 33119 C 2916.38 0.23324 -1.94204 0
M  V30 33120 O 2917.58 0.463418 -2.67516 0
M  V30 33121 C 2916.04 -2.11297 -2.91344 0
M  V30 33122 C 2915.65 -3.6032 -2.66221 0
M  V30 33123 C 2917.39 -2.09255 -3.69341 0
M  V30 33124 C 2915.3 -4.42927 -3.91879 0
M  V30 33125 H 2914.23 -0.448149 -0.606365 0
M  V30 33126 H 2916.88 -1.56407 -0.959638 0
M  V30 33127 H 2915.26 -1.68483 -3.58371 0
M  V30 33128 H 2916.43 -4.11392 -2.0759 0
M  V30 33129 H 2914.75 -3.64357 -2.01576 0
M  V30 33130 H 2917.35 -2.68217 -4.62562 0
M  V30 33131 H 2917.69 -1.08017 -4.02042 0
M  V30 33132 H 2918.22 -2.5028 -3.092 0
M  V30 33133 H 2914.96 -5.44928 -3.64327 0
M  V30 33134 H 2914.48 -3.96612 -4.49954 0
M  V30 33135 H 2916.16 -4.55239 -4.59746 0
M  V30 33136 N 2916.29 1.08262 -1.1453 0
M  V30 33137 C 2917.54 1.80945 -0.915791 0
M  V30 33138 C 2917.87 1.86065 0.556197 0
M  V30 33139 O 2917.15 1.33759 1.41205 0
M  V30 33140 C 2917.43 3.26484 -1.51922 0
M  V30 33141 C 2917.28 3.29565 -3.06116 0
M  V30 33142 C 2918.6 4.235 -1.19732 0
M  V30 33143 H 2915.72 0.656909 -0.334124 0
M  V30 33144 H 2918.36 1.26743 -1.41549 0
M  V30 33145 H 2916.51 3.72771 -1.09427 0
M  V30 33146 H 2918.18 2.9159 -3.57453 0
M  V30 33147 H 2916.43 2.68794 -3.40488 0
M  V30 33148 H 2917.1 4.32145 -3.43445 0
M  V30 33149 H 2919.57 3.85558 -1.56474 0
M  V30 33150 H 2918.45 5.23644 -1.64584 0
M  V30 33151 H 2918.71 4.41956 -0.112849 0
M  V30 33152 N 2917.77 0.940655 1.26449 0
M  V30 33153 C 2918.68 0.455922 2.30127 0
M  V30 33154 C 2919.7 -0.469837 1.67537 0
M  V30 33155 O 2920.87 -0.349494 1.98344 0
M  V30 33156 C 2917.94 -0.271587 3.45635 0
M  V30 33157 C 2917 0.690668 4.23708 0
M  V30 33158 C 2916.23 -0.00221666 5.337 0
M  V30 33159 O 2916.45 -1.21925 5.57217 0
M  V30 33160 O 2915.39 0.676216 5.98089 0
M  V30 33161 H 2919.21 1.31712 2.73652 0
M  V30 33162 H 2916.8 0.70652 1.31638 0
M  V30 33163 H 2918.68 -0.681413 4.15854 0
M  V30 33164 H 2917.36 -1.10818 3.0414 0
M  V30 33165 H 2916.26 1.15043 3.55972 0
M  V30 33166 H 2917.6 1.49486 4.68951 0
M  V30 33167 N 2919.25 -1.40821 0.707617 0
M  V30 33168 C 2920.49 -2.01028 0.243706 0
M  V30 33169 C 2920.82 -1.56082 -1.16054 0
M  V30 33170 O 2920.08 -0.768283 -1.79989 0
M  V30 33171 C 2920.38 -3.56431 0.262955 0
M  V30 33172 C 2920.04 -4.20932 1.61639 0
M  V30 33173 C 2918.7 -4.38265 1.9869 0
M  V30 33174 C 2921.06 -4.56985 2.50627 0
M  V30 33175 C 2918.38 -4.88931 3.24289 0
M  V30 33176 C 2920.74 -5.09048 3.7557 0
M  V30 33177 C 2919.4 -5.2459 4.12748 0
M  V30 33178 H 2918.67 -0.735614 0.0891783 0
M  V30 33179 H 2921.32 -1.68547 0.909081 0
M  V30 33180 H 2919.62 -3.88774 -0.485984 0
M  V30 33181 H 2921.32 -4.00839 -0.113704 0
M  V30 33182 H 2917.91 -4.07823 1.31826 0
M  V30 33183 H 2922.09 -4.43238 2.2328 0
M  V30 33184 H 2917.35 -4.99149 3.53072 0
M  V30 33185 H 2921.52 -5.35923 4.44701 0
M  V30 33186 H 2919.15 -5.63613 5.10142 0
M  V30 33187 N 2920.73 -0.453223 -1.50943 0
M  V30 33188 C 2921.66 0.386191 -2.25923 0
M  V30 33189 C 2922.67 0.972629 -1.30552 0
M  V30 33190 O 2923.86 0.864069 -1.56192 0
M  V30 33191 C 2920.96 1.55384 -3.01179 0
M  V30 33192 C 2920.13 1.08343 -4.2377 0
M  V30 33193 C 2919.19 2.12304 -4.8147 0
M  V30 33194 O 2918.22 1.71091 -5.42878 0
M  V30 33195 N 2919.42 3.44948 -4.66895 0
M  V30 33196 H 2922.18 -0.256521 -2.986 0
M  V30 33197 H 2919.75 -0.282993 -1.59408 0
M  V30 33198 H 2921.74 2.24588 -3.36663 0
M  V30 33199 H 2920.31 2.10159 -2.31413 0
M  V30 33200 H 2919.53 0.217892 -3.93597 0
M  V30 33201 H 2920.82 0.746769 -5.0329 0
M  V30 33202 H 2920.21 3.81153 -4.18018 0
M  V30 33203 H 2918.77 4.10001 -5.06698 0
M  V30 33204 N 2922.2 1.56509 -0.185151 0
M  V30 33205 C 2923.13 2.21628 0.735059 0
M  V30 33206 C 2924.11 1.17622 1.22878 0
M  V30 33207 O 2925.3 1.46097 1.27942 0
M  V30 33208 C 2922.43 2.86787 1.95884 0
M  V30 33209 C 2921.38 3.96951 1.60043 0
M  V30 33210 C 2920.71 4.49225 2.90001 0
M  V30 33211 C 2922.01 5.15856 0.817917 0
M  V30 33212 H 2923.7 2.98782 0.192221 0
M  V30 33213 H 2921.25 1.43712 0.0910141 0
M  V30 33214 H 2923.2 3.31022 2.60773 0
M  V30 33215 H 2921.93 2.07023 2.52605 0
M  V30 33216 H 2920.59 3.53392 0.975174 0
M  V30 33217 H 2920.23 3.66236 3.4479 0
M  V30 33218 H 2919.93 5.23553 2.66769 0
M  V30 33219 H 2921.46 4.96156 3.55896 0
M  V30 33220 H 2922.87 5.56698 1.36969 0
M  V30 33221 H 2921.27 5.96188 0.684102 0
M  V30 33222 H 2922.34 4.84554 -0.183024 0
M  V30 33223 N 2923.68 -0.0885089 1.57351 0
M  V30 33224 C 2924.93 -0.790791 1.86421 0
M  V30 33225 C 2925.26 -1.78411 0.774593 0
M  V30 33226 O 2924.51 -1.9433 -0.231156 0
M  V30 33227 C 2924.81 -1.54874 3.22101 0
M  V30 33228 C 2924.48 -0.696946 4.45481 0
M  V30 33229 C 2923.14 -0.462153 4.78976 0
M  V30 33230 C 2925.49 -0.105223 5.21094 0
M  V30 33231 C 2922.82 0.374119 5.85506 0
M  V30 33232 C 2925.17 0.718409 6.28507 0
M  V30 33233 C 2923.83 0.963232 6.60514 0
M  V30 33234 H 2923.1 -0.289371 0.682162 0
M  V30 33235 H 2925.75 -0.0520625 1.91429 0
M  V30 33236 H 2924.06 -2.35922 3.12807 0
M  V30 33237 H 2925.75 -2.09663 3.41822 0
M  V30 33238 H 2922.34 -0.890064 4.19256 0
M  V30 33239 H 2926.53 -0.273769 4.95544 0
M  V30 33240 H 2921.78 0.572713 6.08712 0
M  V30 33241 H 2925.96 1.18374 6.86266 0
M  V30 33242 H 2923.58 1.61303 7.4289 0
M  V30 33243 N 2925.16 -1.53445 -0.359498 0
M  V30 33244 C 2926.11 -1.8099 -1.46101 0
M  V30 33245 C 2927.1 -0.679378 -1.5518 0
M  V30 33246 O 2928.31 -0.862433 -1.57994 0
M  V30 33247 H 2924.68 -0.573154 -0.486825 0
M  V30 33248 H 2926.65 -2.73175 -1.20075 0
M  V30 33249 C 2925.4 -2.02213 -2.82852 0
M  V30 33250 H 2924.73 -2.88648 -2.76626 0
M  V30 33251 H 2926.17 -2.25461 -3.59087 0
M  V30 33252 C 2924.62 -0.802988 -3.27191 0
M  V30 33253 O 2925.15 0.00537225 -4.017 0
M  V30 33254 N 2923.36 -0.624707 -2.83806 0
M  V30 33255 H 2922.91 -1.28368 -2.23337 0
M  V30 33256 H 2922.87 0.189586 -3.13828 0
M  V30 33257 N 2926.64 0.619637 -1.44908 0
M  V30 33258 C 2927.57 1.74455 -1.48655 0
M  V30 33259 C 2928.58 1.58336 -0.378623 0
M  V30 33260 O 2929.77 1.66439 -0.645016 0
M  V30 33261 C 2926.87 3.12316 -1.31574 0
M  V30 33262 C 2926.04 3.54787 -2.55822 0
M  V30 33263 C 2925.1 4.71568 -2.33473 0
M  V30 33264 O 2924.13 4.79296 -3.07024 0
M  V30 33265 N 2925.33 5.64038 -1.37264 0
M  V30 33266 H 2928.1 1.71707 -2.45635 0
M  V30 33267 H 2925.66 0.804558 -1.40494 0
M  V30 33268 H 2927.65 3.88179 -1.14452 0
M  V30 33269 H 2926.22 3.0964 -0.42915 0
M  V30 33270 H 2925.44 2.69013 -2.88142 0
M  V30 33271 H 2926.73 3.79918 -3.38438 0
M  V30 33272 H 2926.13 5.60498 -0.765407 0
M  V30 33273 H 2924.68 6.39482 -1.26117 0
M  V30 33274 N 2928.12 1.31997 0.861075 0
M  V30 33275 C 2929.35 1.24995 1.64499 0
M  V30 33276 C 2929.75 -0.185542 1.88288 0
M  V30 33277 O 2929.1 -1.13097 1.44758 0
M  V30 33278 C 2929.16 1.93324 3.03094 0
M  V30 33279 C 2928.82 3.42663 3.02375 0
M  V30 33280 C 2929.82 4.38259 2.79688 0
M  V30 33281 C 2927.51 3.84497 3.23214 0
M  V30 33282 C 2929.5 5.73662 2.77833 0
M  V30 33283 C 2927.19 5.2001 3.20987 0
M  V30 33284 C 2928.18 6.14404 2.98324 0
M  V30 33285 O 2927.87 7.47438 2.95958 0
M  V30 33286 H 2927.6 0.432784 0.519302 0
M  V30 33287 H 2930.16 1.74567 1.08238 0
M  V30 33288 H 2928.39 1.38312 3.61119 0
M  V30 33289 H 2930.08 1.80117 3.63748 0
M  V30 33290 H 2930.84 4.07266 2.63361 0
M  V30 33291 H 2926.72 3.11451 3.39882 0
M  V30 33292 H 2930.27 6.47312 2.60063 0
M  V30 33293 H 2926.16 5.50635 3.36856 0
M  V30 33294 H 2926.93 7.5672 3.11957 0
M  V30 33295 N 2929.59 -1.07653 1.15103 0
M  V30 33296 C 2930.84 -1.7957 0.91856 0
M  V30 33297 C 2931.16 -1.87535 -0.555889 0
M  V30 33298 O 2932.36 -2.55943 -0.905848 0
M  V30 33299 C 2930.82 -3.22676 1.594 0
M  V30 33300 C 2930.43 -3.22921 3.10525 0
M  V30 33301 C 2932.17 -3.99223 1.44296 0
M  V30 33302 C 2930.08 -4.60662 3.7087 0
M  V30 33303 H 2929.01 -0.672981 0.340018 0
M  V30 33304 H 2931.66 -1.20854 1.38082 0
M  V30 33305 H 2930.04 -3.81565 1.05943 0
M  V30 33306 H 2931.21 -2.73694 3.70713 0
M  V30 33307 H 2929.53 -2.59871 3.25356 0
M  V30 33308 H 2932.13 -5.01018 1.86775 0
M  V30 33309 H 2932.47 -4.14469 0.390048 0
M  V30 33310 H 2933 -3.46821 1.94832 0
M  V30 33311 H 2929.74 -4.5062 4.76048 0
M  V30 33312 H 2929.26 -5.10139 3.15465 0
M  V30 33313 H 2930.94 -5.29633 3.71616 0
M  V30 33314 N 2931.07 -0.947348 -1.25949 0
M  V30 33315 C 2932.32 -0.593921 -1.92758 0
M  V30 33316 C 2932.63 0.872062 -1.75084 0
M  V30 33317 O 2933.84 1.33513 -2.36403 0
M  V30 33318 C 2932.3 -1.0115 -3.45394 0
M  V30 33319 C 2931.9 -2.49952 -3.7179 0
M  V30 33320 C 2933.65 -0.730259 -4.18172 0
M  V30 33321 C 2931.56 -2.85548 -5.17896 0
M  V30 33322 H 2930.49 -0.218415 -0.721672 0
M  V30 33323 H 2933.14 -1.15082 -1.42928 0
M  V30 33324 H 2931.52 -0.383076 -3.94143 0
M  V30 33325 H 2932.69 -3.17751 -3.33722 0
M  V30 33326 H 2931.01 -2.75471 -3.12258 0
M  V30 33327 H 2933.6 -0.972459 -5.25783 0
M  V30 33328 H 2933.95 0.33315 -4.14965 0
M  V30 33329 H 2934.48 -1.31869 -3.75307 0
M  V30 33330 H 2931.22 -3.90877 -5.26209 0
M  V30 33331 H 2930.74 -2.22416 -5.57038 0
M  V30 33332 H 2932.42 -2.74346 -5.85955 0
M  V30 33333 N 2932.55 1.40444 -0.715075 0
M  V30 33334 C 2933.78 2.04911 -0.263612 0
M  V30 33335 C 2934.19 1.5398 1.0994 0
M  V30 33336 O 2933.53 0.691163 1.70202 0
M  V30 33337 C 2933.59 3.59121 -0.165111 0
M  V30 33338 C 2933.26 4.32938 -1.46333 0
M  V30 33339 C 2934.25 4.60922 -2.40514 0
M  V30 33340 C 2931.94 4.71857 -1.72211 0
M  V30 33341 C 2933.93 5.26808 -3.58821 0
M  V30 33342 C 2931.62 5.37475 -2.90799 0
M  V30 33343 C 2932.62 5.6488 -3.83926 0
M  V30 33344 O 2932.31 6.29142 -5.00435 0
M  V30 33345 H 2932.04 0.665916 -0.116328 0
M  V30 33346 H 2934.59 1.80848 -0.973806 0
M  V30 33347 H 2932.82 3.82001 0.601021 0
M  V30 33348 H 2934.51 4.05119 0.251723 0
M  V30 33349 H 2935.28 4.31319 -2.21785 0
M  V30 33350 H 2931.16 4.49894 -1.00579 0
M  V30 33351 H 2934.7 5.48115 -4.31527 0
M  V30 33352 H 2930.6 5.66497 -3.09438 0
M  V30 33353 H 2931.37 6.47639 -5.00506 0
M  V30 33354 N 2934.03 0.461222 1.507 0
M  V30 33355 C 2935.44 0.00373509 1.867 0
M  V30 33356 C 2935.79 -1.39785 1.37676 0
M  V30 33357 O 2934.92 -2.03443 0.737551 0
M  V30 33358 C 2935.51 1.97394e-06 3.388 0
M  V30 33359 C 2934.07 -0.401978 3.74247 0
M  V30 33360 C 2933.22 0.3897 2.74548 0
M  V30 33361 H 2936.17 0.675967 1.43584 0
M  V30 33362 H 2936.19 -0.804348 3.71901 0
M  V30 33363 H 2935.7 1.02022 3.74451 0
M  V30 33364 H 2933.8 -1.42691 3.44195 0
M  V30 33365 H 2933.91 -0.11018 4.78973 0
M  V30 33366 H 2932.28 -0.155269 2.54226 0
M  V30 33367 H 2933.06 1.40924 3.13042 0
M  V30 33368 N 2935.51 -1.56408 0.193449 0
M  V30 33369 C 2936.92 -1.83947 -0.319438 0
M  V30 33370 C 2937.27 -1.11406 -1.61503 0
M  V30 33371 O 2936.39 -0.374326 -2.13138 0
M  V30 33372 C 2936.99 -3.33688 -0.586352 0
M  V30 33373 C 2935.55 -3.61643 -1.04361 0
M  V30 33374 C 2934.69 -2.7715 -0.0913347 0
M  V30 33375 H 2937.65 -1.53116 0.417269 0
M  V30 33376 H 2937.67 -3.52368 -1.43585 0
M  V30 33377 H 2937.18 -3.86457 0.356768 0
M  V30 33378 H 2935.28 -3.14305 -2.00107 0
M  V30 33379 H 2935.39 -4.69839 -0.937467 0
M  V30 33380 H 2933.76 -2.47703 -0.59291 0
M  V30 33381 H 2934.54 -3.32708 0.8462 0
M  V30 33382 N 2936.98 0.0801629 -1.57396 0
M  V30 33383 C 2937.91 1.09662 -2.06147 0
M  V30 33384 C 2938.9 1.40877 -0.953298 0
M  V30 33385 O 2940.08 1.50649 -1.2255 0
M  V30 33386 C 2937.21 2.4124 -2.49841 0
M  V30 33387 C 2936.16 2.24398 -3.64458 0
M  V30 33388 C 2935.49 3.61286 -3.94178 0
M  V30 33389 C 2936.79 1.67214 -4.9481 0
M  V30 33390 H 2938.48 0.690977 -2.91317 0
M  V30 33391 H 2936.03 0.330932 -1.40146 0
M  V30 33392 H 2937.98 3.12633 -2.82557 0
M  V30 33393 H 2936.71 2.83768 -1.61688 0
M  V30 33394 H 2935.37 1.55448 -3.32011 0
M  V30 33395 H 2935.01 4.01369 -3.0317 0
M  V30 33396 H 2934.71 3.50859 -4.71351 0
M  V30 33397 H 2936.24 4.34123 -4.29383 0
M  V30 33398 H 2937.65 2.28463 -5.25811 0
M  V30 33399 H 2936.05 1.67505 -5.76248 0
M  V30 33400 H 2937.12 0.632859 -4.80752 0
M  V30 33401 N 2938.46 1.53634 0.351355 0
M  V30 33402 C 2939.41 1.81074 1.43112 0
M  V30 33403 C 2940.38 0.655939 1.526 0
M  V30 33404 O 2941.56 0.89958 1.68262 0
M  V30 33405 C 2938.7 2.01908 2.7987 0
M  V30 33406 C 2937.82 3.29623 2.79236 0
M  V30 33407 C 2936.95 3.40567 4.07661 0
M  V30 33408 C 2935.99 4.62261 4.01225 0
M  V30 33409 N 2935.13 4.7028 5.21326 0
M  V30 33410 H 2939.97 2.73203 1.19012 0
M  V30 33411 H 2937.51 1.35325 0.576667 0
M  V30 33412 H 2939.46 2.11975 3.59336 0
M  V30 33413 H 2938.09 1.13099 3.02338 0
M  V30 33414 H 2937.15 3.28436 1.91921 0
M  V30 33415 H 2938.46 4.19177 2.70356 0
M  V30 33416 H 2937.61 3.50024 4.95548 0
M  V30 33417 H 2936.35 2.49055 4.19313 0
M  V30 33418 H 2935.36 4.52889 3.11724 0
M  V30 33419 H 2936.58 5.55129 3.91164 0
M  V30 33420 H 2934.53 3.81675 5.33536 0
M  V30 33421 H 2934.44 5.53759 5.14672 0
M  V30 33422 H 2935.71 4.84038 6.11005 0
M  V30 33423 N 2939.94 -0.611943 1.45234 0
M  V30 33424 C 2941.36 -0.932228 1.29544 0
M  V30 33425 C 2941.56 -2.00002 0.245265 0
M  V30 33426 O 2940.61 -2.49887 -0.362289 0
M  V30 33427 C 2941.93 -1.37729 2.67304 0
M  V30 33428 C 2943.47 -1.49173 2.75166 0
M  V30 33429 C 2943.95 -1.97056 4.1344 0
M  V30 33430 N 2945.44 -2.04297 4.15713 0
M  V30 33431 C 2946.17 -2.42559 5.1957 0
M  V30 33432 N 2945.67 -2.79821 6.33776 0
M  V30 33433 N 2947.46 -2.4286 5.06927 0
M  V30 33434 H 2939.61 0.0939052 2.12192 0
M  V30 33435 H 2941.88 -0.0206402 0.947775 0
M  V30 33436 H 2941.58 -0.66689 3.45319 0
M  V30 33437 H 2941.46 -2.34465 2.95476 0
M  V30 33438 H 2943.84 -2.19305 1.97457 0
M  V30 33439 H 2943.93 -0.50763 2.50713 0
M  V30 33440 H 2943.57 -1.27513 4.91633 0
M  V30 33441 H 2943.5 -2.96373 4.35283 0
M  V30 33442 H 2945.99 -1.78108 3.33296 0
M  V30 33443 H 2946.3 -3.07885 7.08821 0
M  V30 33444 H 2944.65 -2.77527 6.37184 0
M  V30 33445 H 2947.84 -2.13153 4.16753 0
M  V30 33446 H 2948.01 -2.72353 5.87986 0
M  V30 33447 N 2941.42 -1.32452 -0.854063 0
M  V30 33448 C 2942.35 -1.24048 -1.97824 0
M  V30 33449 C 2943.33 -0.124196 -1.69646 0
M  V30 33450 O 2944.51 -0.311464 -1.91686 0
M  V30 33451 C 2941.64 -0.963383 -3.33671 0
M  V30 33452 C 2940.6 -2.04096 -3.76203 0
M  V30 33453 C 2939.92 -1.61627 -5.09687 0
M  V30 33454 C 2941.22 -3.45604 -3.91606 0
M  V30 33455 H 2942.92 -2.18102 -2.05114 0
M  V30 33456 H 2940.46 -1.04998 -0.98547 0
M  V30 33457 H 2942.42 -0.891134 -4.1187 0
M  V30 33458 H 2941.14 0.0128074 -3.26597 0
M  V30 33459 H 2939.8 -2.10337 -3.00256 0
M  V30 33460 H 2939.45 -0.627506 -4.9907 0
M  V30 33461 H 2939.15 -2.33726 -5.39116 0
M  V30 33462 H 2940.67 -1.55839 -5.90378 0
M  V30 33463 H 2942.09 -3.41948 -4.60157 0
M  V30 33464 H 2940.48 -4.16058 -4.32453 0
M  V30 33465 H 2941.55 -3.85222 -2.94503 0
M  V30 33466 N 2942.9 1.07041 -1.15672 0
M  V30 33467 C 2944.13 1.83411 -0.957503 0
M  V30 33468 C 2944.54 1.82216 0.494239 0
M  V30 33469 O 2943.9 1.23586 1.34286 0
M  V30 33470 C 2943.95 3.30356 -1.4679 0
M  V30 33471 O 2943.67 3.31628 -2.86277 0
M  V30 33472 C 2945.17 4.23483 -1.31061 0
M  V30 33473 H 2942.39 0.578558 -0.33987 0
M  V30 33474 H 2944.93 1.35099 -1.5352 0
M  V30 33475 H 2943.09 3.76006 -0.932652 0
M  V30 33476 H 2943.5 4.23459 -3.09487 0
M  V30 33477 H 2944.98 5.24645 -1.71614 0
M  V30 33478 H 2945.45 4.38458 -0.255185 0
M  V30 33479 H 2946.06 3.83672 -1.83509 0
M  V30 33480 N 2944.38 0.954014 1.25445 0
M  V30 33481 C 2945.32 0.472524 2.25911 0
M  V30 33482 C 2946.29 -0.474662 1.59173 0
M  V30 33483 O 2947.48 -0.388049 1.86812 0
M  V30 33484 C 2944.62 -0.244157 3.44235 0
M  V30 33485 C 2943.73 0.740196 4.25611 0
M  V30 33486 C 2942.87 0.00101564 5.312 0
M  V30 33487 C 2941.9 0.976342 6.04263 0
M  V30 33488 N 2941.04 0.268075 7.01588 0
M  V30 33489 H 2945.88 1.33415 2.66467 0
M  V30 33490 H 2943.42 0.669068 1.31003 0
M  V30 33491 H 2945.38 -0.676242 4.11683 0
M  V30 33492 H 2944.01 -1.06983 3.04556 0
M  V30 33493 H 2943.06 1.29076 3.57832 0
M  V30 33494 H 2944.37 1.48449 4.76198 0
M  V30 33495 H 2943.52 -0.489734 6.0472 0
M  V30 33496 H 2942.26 -0.776074 4.81486 0
M  V30 33497 H 2941.27 1.4781 5.29559 0
M  V30 33498 H 2942.49 1.75365 6.56067 0
M  V30 33499 H 2940.44 -0.490288 6.54165 0
M  V30 33500 H 2940.36 0.951475 7.49989 0
M  V30 33501 H 2941.62 -0.201157 7.7924 0
M  V30 33502 N 2945.85 -1.40063 0.722513 0
M  V30 33503 C 2946.8 -2.3068 0.0744144 0
M  V30 33504 C 2947.77 -1.48557 -0.742978 0
M  V30 33505 O 2948.96 -1.77277 -0.705505 0
M  V30 33506 C 2946.1 -3.34815 -0.836233 0
M  V30 33507 C 2945.21 -4.31999 -0.00757069 0
M  V30 33508 C 2944.34 -5.23202 -0.918336 0
M  V30 33509 C 2943.38 -6.12042 -0.0841763 0
M  V30 33510 N 2942.52 -6.95641 -0.950193 0
M  V30 33511 H 2947.36 -2.85536 0.852844 0
M  V30 33512 H 2944.9 -1.40606 0.432247 0
M  V30 33513 H 2946.85 -3.93767 -1.37853 0
M  V30 33514 H 2945.48 -2.81445 -1.58077 0
M  V30 33515 H 2944.54 -3.74771 0.651994 0
M  V30 33516 H 2945.85 -4.94704 0.637947 0
M  V30 33517 H 2945 -5.87119 -1.52892 0
M  V30 33518 H 2943.74 -4.60789 -1.59766 0
M  V30 33519 H 2942.75 -5.47149 0.539296 0
M  V30 33520 H 2943.97 -6.76517 0.591747 0
M  V30 33521 H 2941.92 -6.35809 -1.61504 0
M  V30 33522 H 2941.83 -7.55138 -0.360872 0
M  V30 33523 H 2943.1 -7.64 -1.54674 0
M  V30 33524 N 2947.33 -0.469207 -1.50453 0
M  V30 33525 C 2948.24 0.331308 -2.32249 0
M  V30 33526 C 2949.26 0.997782 -1.42549 0
M  V30 33527 O 2950.43 0.986169 -1.75604 0
M  V30 33528 C 2947.5 1.40007 -3.17173 0
M  V30 33529 C 2946.56 0.750389 -4.22691 0
M  V30 33530 C 2945.79 1.76822 -5.03557 0
M  V30 33531 O 2946.02 2.99451 -4.85474 0
M  V30 33532 O 2944.95 1.34109 -5.86769 0
M  V30 33533 H 2948.78 -0.337332 -3.01821 0
M  V30 33534 H 2946.36 -0.231092 -1.47602 0
M  V30 33535 H 2948.24 2.01918 -3.69875 0
M  V30 33536 H 2946.92 2.05221 -2.50332 0
M  V30 33537 H 2945.82 0.0923789 -3.73986 0
M  V30 33538 H 2947.16 0.141223 -4.91997 0
M  V30 33539 N 2948.81 1.56303 -0.201741 0
M  V30 33540 C 2949.74 2.22396 0.711511 0
M  V30 33541 C 2950.72 1.18919 1.21623 0
M  V30 33542 O 2951.91 1.47446 1.26386 0
M  V30 33543 C 2949.04 2.88848 1.92831 0
M  V30 33544 C 2947.99 3.98626 1.55824 0
M  V30 33545 C 2947.32 4.52276 2.8522 0
M  V30 33546 C 2948.62 5.16694 0.763158 0
M  V30 33547 H 2950.31 2.98969 0.160521 0
M  V30 33548 H 2947.86 1.43801 0.0757663 0
M  V30 33549 H 2949.81 3.33769 2.57247 0
M  V30 33550 H 2948.53 2.0969 2.50395 0
M  V30 33551 H 2947.19 3.54406 0.937638 0
M  V30 33552 H 2946.84 3.69872 3.40887 0
M  V30 33553 H 2946.54 5.26353 2.61201 0
M  V30 33554 H 2948.06 4.99903 3.50613 0
M  V30 33555 H 2949.48 5.58119 1.31057 0
M  V30 33556 H 2947.87 5.9688 0.62083 0
M  V30 33557 H 2948.94 4.84333 -0.234407 0
M  V30 33558 N 2950.29 -0.0718147 1.57436 0
M  V30 33559 C 2951.23 -1.08536 2.03688 0
M  V30 33560 C 2952.2 -1.3846 0.917498 0
M  V30 33561 O 2953.39 -1.49528 1.18516 0
M  V30 33562 C 2950.53 -2.39388 2.4857 0
M  V30 33563 C 2949.64 -2.15994 3.74126 0
M  V30 33564 C 2948.78 -3.40411 4.07792 0
M  V30 33565 C 2947.82 -3.12381 5.26388 0
M  V30 33566 N 2946.95 -4.29128 5.55692 0
M  V30 33567 H 2951.79 -0.683967 2.90045 0
M  V30 33568 H 2949.33 -0.326158 1.43439 0
M  V30 33569 H 2951.29 -3.15786 2.72644 0
M  V30 33570 H 2949.92 -2.7733 1.65191 0
M  V30 33571 H 2948.97 -1.30289 3.57392 0
M  V30 33572 H 2950.28 -1.9129 4.60662 0
M  V30 33573 H 2949.44 -4.25204 4.32766 0
M  V30 33574 H 2948.18 -3.68191 3.19823 0
M  V30 33575 H 2947.18 -2.25984 5.0121 0
M  V30 33576 H 2948.41 -2.85923 6.15975 0
M  V30 33577 H 2946.35 -4.56939 4.70683 0
M  V30 33578 H 2946.27 -4.07697 6.36647 0
M  V30 33579 H 2947.54 -5.14918 5.85218 0
M  V30 33580 N 2951.77 -1.53818 -0.343203 0
M  V30 33581 C 2953 -1.74765 -1.10185 0
M  V30 33582 C 2953.4 -0.486889 -1.82828 0
M  V30 33583 O 2952.75 0.551167 -1.75237 0
M  V30 33584 C 2952.81 -2.87379 -2.15995 0
M  V30 33585 C 2952.47 -4.26972 -1.62924 0
M  V30 33586 C 2953.47 -5.08529 -1.08138 0
M  V30 33587 C 2951.15 -4.73457 -1.6776 0
M  V30 33588 C 2953.15 -6.34673 -0.588927 0
M  V30 33589 C 2950.84 -5.99574 -1.18127 0
M  V30 33590 C 2951.83 -6.80015 -0.63786 0
M  V30 33591 O 2951.52 -8.03762 -0.148931 0
M  V30 33592 H 2951.25 -0.587475 -0.334439 0
M  V30 33593 H 2953.81 -2.01446 -0.401073 0
M  V30 33594 H 2952.04 -2.56223 -2.89632 0
M  V30 33595 H 2953.73 -2.96292 -2.77427 0
M  V30 33596 H 2954.49 -4.73779 -1.03723 0
M  V30 33597 H 2950.37 -4.10903 -2.08997 0
M  V30 33598 H 2953.92 -6.97407 -0.16411 0
M  V30 33599 H 2949.81 -6.33819 -1.22243 0
M  V30 33600 H 2950.58 -8.18067 -0.266188 0
M  V30 33601 N 2953.24 0.604233 -1.45557 0
M  V30 33602 C 2954.49 1.35925 -1.49021 0
M  V30 33603 C 2954.81 1.95117 -0.137443 0
M  V30 33604 O 2956.01 2.71454 -0.0497509 0
M  V30 33605 C 2954.47 2.46234 -2.62482 0
M  V30 33606 C 2954.08 1.9344 -4.04085 0
M  V30 33607 C 2955.82 3.23215 -2.75196 0
M  V30 33608 C 2953.73 3.01251 -5.08922 0
M  V30 33609 H 2952.66 0.510897 -0.554527 0
M  V30 33610 H 2955.31 0.647232 -1.71707 0
M  V30 33611 H 2953.69 3.20136 -2.33085 0
M  V30 33612 H 2954.86 1.26224 -4.43175 0
M  V30 33613 H 2953.18 1.29194 -3.95851 0
M  V30 33614 H 2955.78 4.03634 -3.5069 0
M  V30 33615 H 2956.12 3.74434 -1.81947 0
M  V30 33616 H 2956.65 2.56413 -3.04134 0
M  V30 33617 H 2953.39 2.54944 -6.0389 0
M  V30 33618 H 2952.91 3.67022 -4.74399 0
M  V30 33619 H 2954.59 3.65575 -5.3382 0
M  V30 33620 N 2954.72 1.32903 0.847027 0
M  V30 33621 C 2955.65 1.25095 1.97164 0
M  V30 33622 C 2956.63 0.133191 1.69578 0
M  V30 33623 O 2957.82 0.321625 1.91518 0
M  V30 33624 C 2954.95 0.981064 3.33155 0
M  V30 33625 C 2953.9 2.06088 3.75116 0
M  V30 33626 C 2953.23 1.64327 5.08823 0
M  V30 33627 C 2954.53 3.47676 3.89768 0
M  V30 33628 H 2956.22 2.19187 2.03954 0
M  V30 33629 H 2953.77 1.05519 0.979888 0
M  V30 33630 H 2955.72 0.912964 4.11391 0
M  V30 33631 H 2954.44 0.00451299 3.266 0
M  V30 33632 H 2953.1 2.11927 2.99137 0
M  V30 33633 H 2952.75 0.653964 4.98731 0
M  V30 33634 H 2952.45 2.36582 5.37869 0
M  V30 33635 H 2953.98 1.58968 5.89543 0
M  V30 33636 H 2955.39 3.44384 4.58337 0
M  V30 33637 H 2953.79 4.18346 4.30241 0
M  V30 33638 H 2954.86 3.86778 2.92456 0
M  V30 33639 N 2956.2 -1.06426 1.16238 0
M  V30 33640 C 2957.48 -1.76005 0.853325 0
M  V30 33641 C 2957.86 -2.00872 -0.649127 0
M  V30 33642 O 2957.2 -1.63475 -1.5965 0
M  V30 33643 C 2957.41 -3.06203 1.67454 0
M  V30 33644 C 2958.76 -3.80381 1.88667 0
M  V30 33645 O 2959.79 -3.1604 1.64308 0
M  V30 33646 O 2958.65 -4.95964 2.29526 0
M  V30 33647 H 2955.74 -0.764762 0.314751 0
M  V30 33648 H 2958.29 -1.12706 1.26867 0
M  V30 33649 H 2957.06 -2.8378 2.69416 0
M  V30 33650 H 2956.68 -3.77236 1.25614 0
M  V30 33651 N 2957.68 -0.960653 -1.24937 0
M  V30 33652 C 2958.92 -0.619614 -1.93103 0
M  V30 33653 C 2959.26 0.842089 -1.74993 0
M  V30 33654 O 2958.53 1.60496 -1.0987 0
M  V30 33655 C 2958.82 -0.986483 -3.46324 0
M  V30 33656 C 2958.67 -2.50436 -3.73633 0
M  V30 33657 C 2959.99 -0.515904 -4.37066 0
M  V30 33658 H 2957.11 -0.226578 -0.701307 0
M  V30 33659 H 2959.75 -1.19839 -1.4744 0
M  V30 33660 H 2957.9 -0.493975 -3.85347 0
M  V30 33661 H 2959.57 -3.07109 -3.44212 0
M  V30 33662 H 2957.81 -2.93943 -3.1903 0
M  V30 33663 H 2958.48 -2.71156 -4.8081 0
M  V30 33664 H 2960.96 -0.938461 -4.05379 0
M  V30 33665 H 2959.84 -0.801235 -5.43021 0
M  V30 33666 H 2960.1 0.584094 -4.38225 0
M  V30 33667 N 2959.16 1.39677 -0.729931 0
M  V30 33668 C 2960.4 2.00912 -0.276065 0
M  V30 33669 C 2960.74 1.57778 1.13224 0
M  V30 33670 O 2960.01 0.80435 1.77089 0
M  V30 33671 C 2960.29 3.58171 -0.37222 0
M  V30 33672 C 2960.15 4.11338 -1.81993 0
M  V30 33673 C 2961.47 4.39399 0.248301 0
M  V30 33674 H 2958.58 0.729937 -0.101786 0
M  V30 33675 H 2961.23 1.65956 -0.925133 0
M  V30 33676 H 2959.38 3.88081 0.18039 0
M  V30 33677 H 2961.05 3.92168 -2.42903 0
M  V30 33678 H 2959.29 3.65088 -2.34294 0
M  V30 33679 H 2959.96 5.20483 -1.83851 0
M  V30 33680 H 2962.44 4.15504 -0.222718 0
M  V30 33681 H 2961.31 5.48693 0.15065 0
M  V30 33682 H 2961.58 4.21503 1.33371 0
M  V30 33683 N 2960.63 0.47718 1.50202 0
M  V30 33684 C 2961.58 -0.327785 2.30279 0
M  V30 33685 C 2962.58 -0.984815 1.37832 0
M  V30 33686 O 2963.78 -0.915224 1.54996 0
M  V30 33687 H 2960.16 -0.124551 0.741614 0
M  V30 33688 H 2962.13 0.367905 2.96123 0
M  V30 33689 C 2960.88 -1.39359 3.1855 0
M  V30 33690 H 2960.2 -0.897407 3.89598 0
M  V30 33691 H 2961.64 -1.92928 3.77564 0
M  V30 33692 C 2960.1 -2.39885 2.36552 0
M  V30 33693 O 2960.63 -3.45282 2.05288 0
M  V30 33694 N 2958.84 -2.11754 1.99019 0
M  V30 33695 H 2958.38 -1.26067 2.24644 0
M  V30 33696 H 2958.34 -2.79247 1.44459 0
M  V30 33697 N 2962.11 -1.56194 0.210027 0
M  V30 33698 C 2963.04 -2.1703 -0.736929 0
M  V30 33699 C 2964.06 -1.13618 -1.16597 0
M  V30 33700 O 2965.25 -1.40648 -1.09911 0
M  V30 33701 C 2962.35 -2.72972 -2.00847 0
M  V30 33702 C 2961.52 -4.01438 -1.73684 0
M  V30 33703 C 2960.58 -4.42058 -2.85431 0
M  V30 33704 O 2959.6 -5.09187 -2.54396 0
M  V30 33705 N 2960.81 -4.0679 -4.14128 0
M  V30 33706 H 2963.57 -2.98916 -0.216604 0
M  V30 33707 H 2961.13 -1.61875 0.0285956 0
M  V30 33708 H 2963.12 -2.97123 -2.74773 0
M  V30 33709 H 2961.69 -1.95455 -2.43959 0
M  V30 33710 H 2960.91 -3.85263 -0.834608 0
M  V30 33711 H 2962.2 -4.85266 -1.52952 0
M  V30 33712 H 2961.6 -3.52824 -4.4219 0
M  V30 33713 H 2960.16 -4.35859 -4.84634 0
M  V30 33714 N 2963.59 0.0634645 -1.57472 0
M  V30 33715 C 2964.84 0.75953 -1.87285 0
M  V30 33716 C 2965.16 1.77691 -0.803166 0
M  V30 33717 O 2964.43 1.95185 0.167259 0
M  V30 33718 H 2963.01 0.283503 -0.691111 0
M  V30 33719 H 2965.67 0.0375748 -1.94864 0
M  V30 33720 H 2964.77 1.27057 -2.85067 0
M  V30 33721 N 2965.07 1.53998 0.33504 0
M  V30 33722 C 2966.3 1.75347 1.09257 0
M  V30 33723 C 2966.71 0.496577 1.82567 0
M  V30 33724 O 2966.05 -0.541866 1.75526 0
M  V30 33725 C 2966.11 2.8852 2.14468 0
M  V30 33726 C 2965.78 4.2783 1.60657 0
M  V30 33727 C 2966.77 5.09096 1.05439 0
M  V30 33728 C 2964.46 4.7434 1.65247 0
M  V30 33729 C 2966.45 6.34977 0.55526 0
M  V30 33730 C 2964.14 6.00192 1.14946 0
M  V30 33731 C 2965.14 6.80344 0.601788 0
M  V30 33732 O 2964.82 8.0383 0.106304 0
M  V30 33733 H 2964.56 0.58924 0.331319 0
M  V30 33734 H 2967.11 2.01656 0.390385 0
M  V30 33735 H 2965.34 2.57755 2.88269 0
M  V30 33736 H 2967.03 2.97759 2.75852 0
M  V30 33737 H 2967.8 4.74322 1.01209 0
M  V30 33738 H 2963.67 4.12005 2.06815 0
M  V30 33739 H 2967.22 6.97484 0.127123 0
M  V30 33740 H 2963.12 6.34459 1.1888 0
M  V30 33741 H 2963.88 8.18197 0.2228 0
M  V30 33742 N 2966.55 -0.596505 1.45875 0
M  V30 33743 C 2967.78 -1.37955 1.53792 0
M  V30 33744 C 2968.18 -1.88406 0.173119 0
M  V30 33745 O 2967.53 -1.635 -0.837469 0
M  V30 33746 C 2967.59 -2.61165 2.47049 0
M  V30 33747 C 2967.25 -2.32277 3.93569 0
M  V30 33748 C 2968.25 -1.91957 4.83165 0
M  V30 33749 C 2965.94 -2.44846 4.38584 0
M  V30 33750 C 2967.93 -1.64582 6.15785 0
M  V30 33751 C 2965.62 -2.17085 5.71242 0
M  V30 33752 C 2966.61 -1.77016 6.59662 0
M  V30 33753 O 2966.3 -1.49587 7.8986 0
M  V30 33754 H 2966.03 -0.428298 0.523008 0
M  V30 33755 H 2968.59 -0.733495 1.91857 0
M  V30 33756 H 2966.82 -3.28528 2.03976 0
M  V30 33757 H 2968.51 -3.23222 2.45525 0
M  V30 33758 H 2969.27 -1.81772 4.49649 0
M  V30 33759 H 2965.15 -2.74999 3.69995 0
M  V30 33760 H 2968.7 -1.33233 6.84759 0
M  V30 33761 H 2964.59 -2.2689 6.0431 0
M  V30 33762 H 2965.36 -1.63547 8.01994 0
M  V30 33763 N 2968.02 -1.3335 -0.839967 0
M  V30 33764 C 2969.27 -1.24745 -1.59515 0
M  V30 33765 C 2969.6 0.187043 -1.93599 0
M  V30 33766 O 2968.85 1.14395 -1.58784 0
M  V30 33767 C 2969.15 -2.06697 -2.91567 0
M  V30 33768 C 2968.82 -3.559 -2.7685 0
M  V30 33769 C 2967.48 -3.96577 -2.72544 0
M  V30 33770 C 2969.83 -4.50716 -2.61733 0
M  V30 33771 C 2967.16 -5.30289 -2.51019 0
M  V30 33772 C 2969.51 -5.84588 -2.41742 0
M  V30 33773 C 2968.18 -6.24449 -2.35837 0
M  V30 33774 H 2967.45 -0.456474 -0.583706 0
M  V30 33775 H 2970.09 -1.64926 -0.973232 0
M  V30 33776 H 2968.4 -1.5929 -3.57958 0
M  V30 33777 H 2970.1 -1.97397 -3.4905 0
M  V30 33778 H 2966.69 -3.23602 -2.81034 0
M  V30 33779 H 2970.87 -4.20199 -2.64095 0
M  V30 33780 H 2966.13 -5.60212 -2.44893 0
M  V30 33781 H 2970.3 -6.57662 -2.29028 0
M  V30 33782 H 2967.93 -7.27996 -2.18918 0
M  V30 33783 N 2969.5 1.05808 -1.16801 0
M  V30 33784 C 2970.73 1.8212 -0.975486 0
M  V30 33785 C 2971.14 1.83022 0.479552 0
M  V30 33786 O 2970.48 1.25155 1.34469 0
M  V30 33787 C 2970.55 3.29742 -1.43215 0
M  V30 33788 C 2970.21 3.52535 -2.90806 0
M  V30 33789 C 2971.21 3.45174 -3.88781 0
M  V30 33790 C 2968.89 3.79698 -3.28839 0
M  V30 33791 C 2970.89 3.64652 -5.22789 0
M  V30 33792 C 2968.57 3.98824 -4.63014 0
M  V30 33793 C 2969.57 3.91299 -5.59798 0
M  V30 33794 O 2969.26 4.09899 -6.91547 0
M  V30 33795 H 2968.99 0.580941 -0.345665 0
M  V30 33796 H 2971.54 1.34362 -1.55358 0
M  V30 33797 H 2969.77 3.78386 -0.79757 0
M  V30 33798 H 2971.46 3.87562 -1.20627 0
M  V30 33799 H 2972.23 3.24174 -3.60744 0
M  V30 33800 H 2968.11 3.84661 -2.5408 0
M  V30 33801 H 2971.65 3.58694 -5.98318 0
M  V30 33802 H 2967.55 4.19315 -4.9076 0
M  V30 33803 H 2968.32 4.2716 -6.98195 0
M  V30 33804 N 2970.98 0.967265 1.24426 0
M  V30 33805 C 2971.91 0.515939 2.27729 0
M  V30 33806 C 2972.89 -0.444198 1.64198 0
M  V30 33807 O 2974.08 -0.340417 1.91193 0
M  V30 33808 C 2971.21 -0.195088 3.46752 0
M  V30 33809 C 2970.16 0.681027 4.22547 0
M  V30 33810 C 2969.49 -0.161467 5.34456 0
M  V30 33811 C 2970.79 1.96541 4.8391 0
M  V30 33812 H 2972.48 1.37937 2.65732 0
M  V30 33813 H 2970.03 0.664704 1.27741 0
M  V30 33814 H 2971.98 -0.522044 4.18154 0
M  V30 33815 H 2970.7 -1.09287 3.07773 0
M  V30 33816 H 2969.36 0.991248 3.52945 0
M  V30 33817 H 2969.01 -1.05938 4.91717 0
M  V30 33818 H 2968.71 0.421521 5.86086 0
M  V30 33819 H 2970.23 -0.483104 6.08686 0
M  V30 33820 H 2971.65 1.70406 5.47389 0
M  V30 33821 H 2970.05 2.49508 5.45771 0
M  V30 33822 H 2971.12 2.6606 4.05389 0
M  V30 33823 N 2972.46 -1.39288 0.737328 0
M  V30 33824 C 2973.41 -2.30588 0.0988769 0
M  V30 33825 C 2974.38 -1.49336 -0.727179 0
M  V30 33826 O 2975.56 -1.78016 -0.686663 0
M  V30 33827 C 2972.7 -3.35683 -0.800675 0
M  V30 33828 C 2971.81 -4.31983 0.038249 0
M  V30 33829 C 2970.95 -5.24146 -0.862792 0
M  V30 33830 C 2969.99 -6.12097 -0.0192563 0
M  V30 33831 N 2969.13 -6.96609 -0.876358 0
M  V30 33832 H 2973.97 -2.84615 0.883081 0
M  V30 33833 H 2971.5 -1.4014 0.447136 0
M  V30 33834 H 2973.46 -3.95207 -1.33669 0
M  V30 33835 H 2972.09 -2.83106 -1.55083 0
M  V30 33836 H 2971.14 -3.74058 0.691707 0
M  V30 33837 H 2972.45 -4.93999 0.690381 0
M  V30 33838 H 2971.61 -5.88708 -1.46656 0
M  V30 33839 H 2970.35 -4.62457 -1.5487 0
M  V30 33840 H 2969.35 -5.46546 0.597298 0
M  V30 33841 H 2970.58 -6.75851 0.663467 0
M  V30 33842 H 2968.52 -6.37486 -1.54751 0
M  V30 33843 H 2968.44 -7.55478 -0.280759 0
M  V30 33844 H 2969.71 -7.65598 -1.46562 0
M  V30 33845 N 2973.94 -0.485139 -1.49947 0
M  V30 33846 C 2974.89 0.315568 -2.30449 0
M  V30 33847 C 2975.88 0.977492 -1.38353 0
M  V30 33848 O 2977.09 0.906991 -1.55479 0
M  V30 33849 H 2973.46 0.120616 -0.742264 0
M  V30 33850 H 2975.43 -0.383604 -2.95924 0
M  V30 33851 C 2974.18 1.37668 -3.19285 0
M  V30 33852 H 2973.5 0.876733 -3.90069 0
M  V30 33853 H 2974.94 1.90923 -3.78582 0
M  V30 33854 C 2973.4 2.38627 -2.37821 0
M  V30 33855 O 2973.93 3.44189 -2.07116 0
M  V30 33856 N 2972.14 2.10696 -2.00139 0
M  V30 33857 H 2971.69 1.24874 -2.25309 0
M  V30 33858 H 2971.64 2.78477 -1.45938 0
M  V30 33859 N 2975.42 1.56081 -0.218307 0
M  V30 33860 C 2976.66 1.98511 0.414886 0
M  V30 33861 C 2976.99 1.10575 1.59646 0
M  V30 33862 O 2976.27 0.162729 1.93818 0
M  V30 33863 C 2976.55 3.49861 0.852585 0
M  V30 33864 C 2976.41 4.4857 -0.332399 0
M  V30 33865 C 2977.72 4.05524 1.70991 0
M  V30 33866 H 2974.84 0.721713 0.149331 0
M  V30 33867 H 2977.49 1.87389 -0.313891 0
M  V30 33868 H 2975.64 3.5947 1.47356 0
M  V30 33869 H 2977.31 4.50976 -0.970497 0
M  V30 33870 H 2975.55 4.22577 -0.980376 0
M  V30 33871 H 2976.22 5.51997 0.0167437 0
M  V30 33872 H 2978.7 3.9884 1.18599 0
M  V30 33873 H 2977.57 5.11748 1.98508 0
M  V30 33874 H 2977.83 3.52207 2.67213 0
M  V30 33875 N 2976.89 -0.0551124 1.57504 0
M  V30 33876 C 2978.14 -0.749976 1.87238 0
M  V30 33877 C 2978.46 -1.7789 0.8133 0
M  V30 33878 O 2979.66 -2.52451 0.999025 0
M  V30 33879 C 2978.12 -1.38485 3.3219 0
M  V30 33880 C 2977.73 -0.393629 4.46267 0
M  V30 33881 C 2979.47 -2.0611 3.71105 0
M  V30 33882 C 2977.38 -1.03536 5.82266 0
M  V30 33883 H 2976.31 -0.283854 0.698529 0
M  V30 33884 H 2978.96 -0.00362772 1.835 0
M  V30 33885 H 2977.34 -2.18003 3.30592 0
M  V30 33886 H 2978.51 0.372946 4.59288 0
M  V30 33887 H 2976.83 0.179093 4.16015 0
M  V30 33888 H 2979.43 -2.54929 4.70016 0
M  V30 33889 H 2979.77 -2.86791 3.01756 0
M  V30 33890 H 2980.3 -1.33402 3.74765 0
M  V30 33891 H 2977.04 -0.268529 6.5495 0
M  V30 33892 H 2976.56 -1.7724 5.73015 0
M  V30 33893 H 2978.24 -1.55036 6.2815 0
M  V30 33894 N 2978.37 -1.54173 -0.326869 0
M  V30 33895 C 2979.6 -1.76179 -1.08483 0
M  V30 33896 C 2980.01 -0.508819 -1.81814 0
M  V30 33897 O 2979.37 0.520331 -1.74925 0
M  V30 33898 C 2979.42 -2.9528 -2.08547 0
M  V30 33899 O 2979.14 -4.15733 -1.38194 0
M  V30 33900 C 2980.64 -3.29471 -2.96587 0
M  V30 33901 H 2977.86 -0.588239 -0.322825 0
M  V30 33902 H 2980.41 -2.01051 -0.374001 0
M  V30 33903 H 2978.56 -2.72692 -2.75169 0
M  V30 33904 H 2978.98 -4.82703 -2.05177 0
M  V30 33905 H 2980.45 -4.16116 -3.62701 0
M  V30 33906 H 2980.93 -2.46494 -3.63507 0
M  V30 33907 H 2981.53 -3.54126 -2.35531 0
M  V30 33908 N 2979.85 0.58876 -1.4619 0
M  V30 33909 C 2980.8 1.69825 -1.56295 0
M  V30 33910 C 2981.77 1.61021 -0.407609 0
M  V30 33911 O 2982.95 1.80323 -0.623564 0
M  V30 33912 C 2980.09 3.08158 -1.55346 0
M  V30 33913 C 2979.2 3.27631 -2.8157 0
M  V30 33914 C 2978.34 4.56179 -2.72166 0
M  V30 33915 C 2977.38 4.68974 -3.93357 0
M  V30 33916 N 2976.52 5.88841 -3.82375 0
M  V30 33917 H 2981.36 1.60525 -2.51069 0
M  V30 33918 H 2978.89 0.782452 -1.24564 0
M  V30 33919 H 2980.85 3.88218 -1.52783 0
M  V30 33920 H 2979.48 3.1637 -0.64109 0
M  V30 33921 H 2978.53 2.41218 -2.9414 0
M  V30 33922 H 2979.84 3.32956 -3.71405 0
M  V30 33923 H 2979 5.44459 -2.67674 0
M  V30 33924 H 2977.74 4.53283 -1.79961 0
M  V30 33925 H 2976.74 3.79113 -3.98187 0
M  V30 33926 H 2977.97 4.73654 -4.86651 0
M  V30 33927 H 2975.91 5.86954 -2.92952 0
M  V30 33928 H 2975.83 5.95407 -4.65861 0
M  V30 33929 H 2977.1 6.79568 -3.81848 0
M  V30 33930 N 2981.33 1.33794 0.832883 0
M  V30 33931 C 2982.26 1.27179 1.95826 0
M  V30 33932 C 2983.24 0.151169 1.69427 0
M  V30 33933 O 2984.42 0.34192 1.91166 0
M  V30 33934 C 2981.55 1.01634 3.32096 0
M  V30 33935 C 2980.51 2.10055 3.72909 0
M  V30 33936 C 2979.83 1.69715 5.07051 0
M  V30 33937 C 2981.13 3.5179 3.86058 0
M  V30 33938 H 2982.83 2.21338 2.01618 0
M  V30 33939 H 2980.37 1.06552 0.968641 0
M  V30 33940 H 2982.33 0.956546 4.104 0
M  V30 33941 H 2981.05 0.039153 3.26577 0
M  V30 33942 H 2979.71 2.15087 2.96872 0
M  V30 33943 H 2979.36 0.706824 4.98009 0
M  V30 33944 H 2979.06 2.42273 5.35329 0
M  V30 33945 H 2980.58 1.65212 5.87824 0
M  V30 33946 H 2982 3.49226 4.54658 0
M  V30 33947 H 2980.39 4.22885 4.25779 0
M  V30 33948 H 2981.46 3.89859 2.88337 0
M  V30 33949 N 2982.81 -1.05187 1.1736 0
M  V30 33950 C 2983.75 -2.12935 0.890362 0
M  V30 33951 C 2984.72 -1.65271 -0.165749 0
M  V30 33952 O 2985.91 -1.90779 -0.0285337 0
M  V30 33953 C 2983.05 -3.42658 0.409854 0
M  V30 33954 C 2982.16 -4.03995 1.53009 0
M  V30 33955 C 2981.3 -5.21636 1.00345 0
M  V30 33956 C 2980.33 -5.74981 2.09913 0
M  V30 33957 N 2979.47 -6.83923 1.58726 0
M  V30 33958 H 2984.31 -2.36502 1.81304 0
M  V30 33959 H 2981.85 -1.16023 0.904269 0
M  V30 33960 H 2983.81 -4.17047 0.112817 0
M  V30 33961 H 2982.44 -3.19273 -0.475859 0
M  V30 33962 H 2981.49 -3.27043 1.94285 0
M  V30 33963 H 2982.8 -4.39627 2.35648 0
M  V30 33964 H 2981.95 -6.03097 0.660264 0
M  V30 33965 H 2980.69 -4.8748 0.146506 0
M  V30 33966 H 2979.7 -4.9215 2.45089 0
M  V30 33967 H 2980.92 -6.11185 2.96024 0
M  V30 33968 H 2978.87 -6.51664 0.753029 0
M  V30 33969 H 2978.79 -7.18557 2.34972 0
M  V30 33970 H 2980.05 -7.69035 1.273 0
M  V30 33971 N 2984.28 -0.97385 -1.23911 0
M  V30 33972 C 2985.7 -0.681389 -1.44323 0
M  V30 33973 C 2985.9 0.754695 -1.86833 0
M  V30 33974 O 2984.96 1.52789 -2.01027 0
M  V30 33975 C 2986.27 -1.67073 -2.50014 0
M  V30 33976 C 2987.82 -1.68404 -2.63835 0
M  V30 33977 C 2988.29 -2.66152 -3.72729 0
M  V30 33978 N 2989.78 -2.64631 -3.80164 0
M  V30 33979 C 2990.52 -3.36935 -4.63964 0
M  V30 33980 N 2990.01 -4.18777 -5.51904 0
M  V30 33981 N 2991.81 -3.25731 -4.581 0
M  V30 33982 H 2983.96 -1.90161 -0.946171 0
M  V30 33983 H 2986.22 -0.819043 -0.477359 0
M  V30 33984 H 2985.93 -2.69742 -2.25681 0
M  V30 33985 H 2985.8 -1.44837 -3.48285 0
M  V30 33986 H 2988.19 -0.664429 -2.87523 0
M  V30 33987 H 2988.27 -1.94705 -1.65902 0
M  V30 33988 H 2987.91 -3.68251 -3.49791 0
M  V30 33989 H 2987.84 -2.37128 -4.70189 0
M  V30 33990 H 2990.33 -2.0523 -3.17315 0
M  V30 33991 H 2990.65 -4.7082 -6.1282 0
M  V30 33992 H 2988.99 -4.2287 -5.51549 0
M  V30 33993 H 2992.18 -2.61249 -3.88415 0
M  V30 33994 H 2992.36 -3.82342 -5.23181 0
M  V30 33995 N 2985.76 1.38895 -0.744705 0
M  V30 33996 C 2986.67 2.34328 -0.112933 0
M  V30 33997 C 2987.69 1.58818 0.710842 0
M  V30 33998 O 2988.86 1.91059 0.637059 0
M  V30 33999 C 2985.93 3.37896 0.776357 0
M  V30 34000 C 2984.99 4.29257 -0.0607754 0
M  V30 34001 C 2984.22 5.27878 0.786165 0
M  V30 34002 O 2984.45 5.33262 2.02454 0
M  V30 34003 O 2983.38 6.01535 0.209676 0
M  V30 34004 H 2987.21 2.90032 -0.900852 0
M  V30 34005 H 2984.79 1.40589 -0.505487 0
M  V30 34006 H 2986.67 4.01334 1.28489 0
M  V30 34007 H 2985.35 2.84562 1.54292 0
M  V30 34008 H 2984.25 3.69009 -0.615049 0
M  V30 34009 H 2985.59 4.85822 -0.789787 0
M  V30 34010 N 2987.24 0.493084 1.49688 0
M  V30 34011 C 2988.19 -0.303343 2.30614 0
M  V30 34012 C 2989.18 -0.970141 1.38869 0
M  V30 34013 O 2990.39 -0.898733 1.55958 0
M  V30 34014 H 2986.76 -0.116678 0.742893 0
M  V30 34015 H 2988.73 0.399292 2.95716 0
M  V30 34016 C 2987.48 -1.35973 3.20011 0
M  V30 34017 H 2986.81 -0.856034 3.90528 0
M  V30 34018 H 2988.25 -1.88912 3.79589 0
M  V30 34019 C 2986.71 -2.37362 2.39083 0
M  V30 34020 O 2987.24 -3.43085 2.08939 0
M  V30 34021 N 2985.44 -2.09632 2.01253 0
M  V30 34022 H 2984.99 -1.23678 2.25968 0
M  V30 34023 H 2984.95 -2.77699 1.47412 0
M  V30 34024 N 2988.72 -1.55963 0.226582 0
M  V30 34025 C 2989.65 -2.23499 -0.67604 0
M  V30 34026 C 2990.63 -1.20839 -1.19716 0
M  V30 34027 O 2991.81 -1.49438 -1.24024 0
M  V30 34028 C 2988.94 -2.91879 -1.88212 0
M  V30 34029 C 2987.9 -4.01055 -1.49463 0
M  V30 34030 C 2987.22 -4.56756 -2.77989 0
M  V30 34031 C 2988.52 -5.17843 -0.68086 0
M  V30 34032 H 2990.22 -2.99187 -0.112937 0
M  V30 34033 H 2987.76 -1.43903 -0.0528793 0
M  V30 34034 H 2989.72 -3.37819 -2.51905 0
M  V30 34035 H 2988.44 -2.13647 -2.47027 0
M  V30 34036 H 2987.1 -3.55853 -0.881136 0
M  V30 34037 H 2986.75 -3.75248 -3.34959 0
M  V30 34038 H 2986.45 -5.30442 -2.52794 0
M  V30 34039 H 2987.97 -5.05417 -3.42616 0
M  V30 34040 H 2989.39 -5.60134 -1.22161 0
M  V30 34041 H 2987.78 -5.97792 -0.525793 0
M  V30 34042 H 2988.85 -4.83899 0.311431 0
M  V30 34043 N 2990.2 0.0467589 -1.57531 0
M  V30 34044 C 2991.13 1.08004 -2.02158 0
M  V30 34045 C 2992.14 1.3352 -0.931457 0
M  V30 34046 O 2993.33 1.31319 -1.20903 0
M  V30 34047 C 2990.43 2.42562 -2.36679 0
M  V30 34048 C 2989.6 2.36651 -3.67852 0
M  V30 34049 C 2988.66 3.53516 -3.8976 0
M  V30 34050 O 2987.69 3.33809 -4.61042 0
M  V30 34051 N 2988.89 4.74765 -3.34034 0
M  V30 34052 H 2991.66 0.699794 -2.91415 0
M  V30 34053 H 2989.22 0.235012 -1.60185 0
M  V30 34054 H 2991.21 3.19431 -2.48487 0
M  V30 34055 H 2989.78 2.72495 -1.53183 0
M  V30 34056 H 2989 1.44998 -3.66564 0
M  V30 34057 H 2990.29 2.29827 -4.53935 0
M  V30 34058 H 2989.68 4.93678 -2.76222 0
M  V30 34059 H 2988.24 5.49059 -3.51251 0
M  V30 34060 N 2991.67 1.54344 0.318688 0
M  V30 34061 C 2992.62 1.84068 1.39239 0
M  V30 34062 C 2993.59 0.68816 1.51174 0
M  V30 34063 O 2994.78 0.935068 1.66316 0
M  V30 34064 C 2991.92 2.07799 2.75525 0
M  V30 34065 C 2991.03 3.35472 2.72182 0
M  V30 34066 C 2990.16 3.49137 4.00346 0
M  V30 34067 C 2989.2 4.70667 3.9133 0
M  V30 34068 N 2988.34 4.81233 5.11233 0
M  V30 34069 H 2993.18 2.75666 1.13191 0
M  V30 34070 H 2990.72 1.36518 0.547833 0
M  V30 34071 H 2992.68 2.1955 3.54759 0
M  V30 34072 H 2991.31 1.19487 2.99871 0
M  V30 34073 H 2990.36 3.32434 1.84911 0
M  V30 34074 H 2991.67 4.24817 2.61404 0
M  V30 34075 H 2990.82 3.60456 4.88012 0
M  V30 34076 H 2989.56 2.57893 4.13935 0
M  V30 34077 H 2988.57 4.59399 3.02047 0
M  V30 34078 H 2989.79 5.63301 3.793 0
M  V30 34079 H 2987.74 3.92906 5.2532 0
M  V30 34080 H 2987.66 5.64551 5.0281 0
M  V30 34081 H 2988.92 4.96889 6.00601 0
M  V30 34082 N 2993.15 -0.580999 1.465 0
M  V30 34083 C 2994.38 -1.37 1.55711 0
M  V30 34084 C 2994.8 -1.8704 0.199453 0
M  V30 34085 O 2994.16 -1.61661 -0.820702 0
M  V30 34086 C 2994.21 -2.53233 2.5672 0
M  V30 34087 O 2993.31 -3.54725 2.10342 0
M  V30 34088 H 2992.65 -0.407928 0.523919 0
M  V30 34089 H 2995.18 -0.704568 1.92086 0
M  V30 34090 H 2995.19 -3.00127 2.76383 0
M  V30 34091 H 2993.87 -2.16165 3.5531 0
M  V30 34092 H 2992.45 -3.14299 2.00674 0
M  V30 34093 N 2994.63 -1.34234 -0.825776 0
M  V30 34094 C 2995.58 -1.25574 -1.93649 0
M  V30 34095 C 2996.55 -0.131565 -1.65578 0
M  V30 34096 O 2997.73 -0.31206 -1.88231 0
M  V30 34097 C 2994.87 -1.01421 -3.2986 0
M  V30 34098 C 2993.99 -2.22585 -3.70243 0
M  V30 34099 C 2993.12 -1.91739 -4.95388 0
M  V30 34100 C 2992.16 -3.09063 -5.28343 0
M  V30 34101 N 2991.3 -2.78119 -6.44666 0
M  V30 34102 H 2996.14 -2.20564 -2.00388 0
M  V30 34103 H 2993.67 -1.09664 -0.980422 0
M  V30 34104 H 2995.63 -0.854557 -4.08354 0
M  V30 34105 H 2994.26 -0.100993 -3.22642 0
M  V30 34106 H 2993.31 -2.49481 -2.87165 0
M  V30 34107 H 2994.63 -3.10253 -3.9057 0
M  V30 34108 H 2993.78 -1.72494 -5.81662 0
M  V30 34109 H 2992.52 -1.01328 -4.77058 0
M  V30 34110 H 2991.52 -3.28907 -4.40568 0
M  V30 34111 H 2992.75 -4.00248 -5.48615 0
M  V30 34112 H 2990.69 -1.90281 -6.27797 0
M  V30 34113 H 2990.61 -3.59318 -6.65152 0
M  V30 34114 H 2991.88 -2.62371 -7.34018 0
M  V30 34115 N 2996.11 1.04563 -1.17917 0
M  V30 34116 C 2997.35 1.7794 -0.972894 0
M  V30 34117 C 2997.69 1.8774 0.49672 0
M  V30 34118 O 2996.96 1.38183 1.36878 0
M  V30 34119 C 2997.25 3.21485 -1.62232 0
M  V30 34120 C 2997.1 3.19659 -3.16446 0
M  V30 34121 C 2998.42 4.19477 -1.33144 0
M  V30 34122 H 2995.54 0.645947 -0.354854 0
M  V30 34123 H 2998.18 1.22176 -1.4551 0
M  V30 34124 H 2996.33 3.69101 -1.21231 0
M  V30 34125 H 2998 2.80071 -3.66549 0
M  V30 34126 H 2996.24 2.57826 -3.48867 0
M  V30 34127 H 2996.91 4.21 -3.5702 0
M  V30 34128 H 2999.39 3.80385 -1.68661 0
M  V30 34129 H 2998.27 5.18143 -1.8116 0
M  V30 34130 H 2998.53 4.41373 -0.253396 0
M  V30 34131 N 2997.59 0.980408 1.23393 0
M  V30 34132 C 2998.83 0.650256 1.92092 0
M  V30 34133 C 2999.17 -0.814142 1.7631 0
M  V30 34134 O 2998.44 -1.58728 1.12409 0
M  V30 34135 C 2998.72 1.04145 3.44711 0
M  V30 34136 C 2998.58 2.56348 3.69602 0
M  V30 34137 C 2999.9 0.585372 4.3619 0
M  V30 34138 H 2997.01 0.237707 0.697613 0
M  V30 34139 H 2999.66 1.22169 1.45515 0
M  V30 34140 H 2997.81 0.555218 3.84512 0
M  V30 34141 H 2999.48 3.12546 3.39282 0
M  V30 34142 H 2997.72 2.98981 3.14313 0
M  V30 34143 H 2998.39 2.78771 4.76436 0
M  V30 34144 H 3000.87 1.00283 4.03835 0
M  V30 34145 H 2999.74 0.887524 5.41677 0
M  V30 34146 H 3000.01 -0.514303 4.39098 0
M  V30 34147 N 2999.06 -1.38498 0.75206 0
M  V30 34148 C 3000.01 -2.3047 0.123328 0
M  V30 34149 C 3000.98 -1.50099 -0.711299 0
M  V30 34150 O 3002.17 -1.78734 -0.667743 0
M  V30 34151 C 2999.31 -3.36514 -0.765026 0
M  V30 34152 C 2998.42 -4.31918 0.0840645 0
M  V30 34153 C 2997.55 -5.25032 -0.807151 0
M  V30 34154 C 2996.59 -6.12083 0.0456659 0
M  V30 34155 N 2995.73 -6.975 -0.802424 0
M  V30 34156 H 3000.57 -2.83662 0.913219 0
M  V30 34157 H 2998.11 -1.39657 0.461974 0
M  V30 34158 H 3000.07 -3.96602 -1.29469 0
M  V30 34159 H 2998.7 -2.84735 -1.52072 0
M  V30 34160 H 2997.75 -3.73304 0.731342 0
M  V30 34161 H 2999.06 -4.93239 0.742737 0
M  V30 34162 H 2998.21 -5.9023 -1.40404 0
M  V30 34163 H 2996.95 -4.64074 -1.49956 0
M  V30 34164 H 2995.96 -5.45882 0.655233 0
M  V30 34165 H 2997.18 -6.7511 0.735113 0
M  V30 34166 H 2995.13 -6.39091 -1.47981 0
M  V30 34167 H 2995.05 -7.55734 -0.200614 0
M  V30 34168 H 2996.31 -7.67109 -1.38433 0
M  V30 34169 N 3000.54 -0.501015 -1.49424 0
M  V30 34170 C 3001.79 0.0453445 -2.01649 0
M  V30 34171 C 3002.1 1.38045 -1.38575 0
M  V30 34172 O 3003.31 2.0135 -1.82127 0
M  V30 34173 C 3001.77 0.131273 -3.59661 0
M  V30 34174 C 3001.37 -1.19719 -4.31708 0
M  V30 34175 C 3003.12 0.627997 -4.19829 0
M  V30 34176 C 3001.03 -1.07342 -5.81577 0
M  V30 34177 H 2999.96 0.0207196 -0.753715 0
M  V30 34178 H 3002.61 -0.640438 -1.71961 0
M  V30 34179 H 3000.99 0.881506 -3.86064 0
M  V30 34180 H 3002.16 -1.96071 -4.17004 0
M  V30 34181 H 3000.48 -1.62735 -3.83283 0
M  V30 34182 H 3003.07 0.738105 -5.29581 0
M  V30 34183 H 3003.42 1.62683 -3.83197 0
M  V30 34184 H 3003.95 -0.0657013 -3.97746 0
M  V30 34185 H 3000.69 -2.04653 -6.22734 0
M  V30 34186 H 3000.21 -0.350784 -5.98773 0
M  V30 34187 H 3001.89 -0.75216 -6.42613 0
M  V30 34188 N 3002.02 1.5584 -0.234849 0
M  V30 34189 C 3003.27 1.98645 0.393225 0
M  V30 34190 C 3003.6 1.12277 1.58821 0
M  V30 34191 O 3002.85 0.170765 1.94954 0
M  V30 34192 C 3003.15 3.46949 0.857971 0
M  V30 34193 C 3002.82 4.50323 -0.227938 0
M  V30 34194 C 3001.48 4.78314 -0.526212 0
M  V30 34195 C 3003.83 5.12251 -0.961666 0
M  V30 34196 C 3001.16 5.65511 -1.5625 0
M  V30 34197 C 3003.51 6.00571 -1.98739 0
M  V30 34198 C 3002.17 6.269 -2.29244 0
M  V30 34199 H 3001.44 0.726895 0.143891 0
M  V30 34200 H 3004.09 1.88455 -0.340153 0
M  V30 34201 H 3002.4 3.5441 1.67034 0
M  V30 34202 H 3004.09 3.77449 1.35401 0
M  V30 34203 H 3000.68 4.28597 0.014687 0
M  V30 34204 H 3004.87 4.90684 -0.744474 0
M  V30 34205 H 3000.12 5.8417 -1.80432 0
M  V30 34206 H 3004.3 6.47603 -2.56091 0
M  V30 34207 H 3001.92 6.94262 -3.09683 0
M  V30 34208 N 3003.5 -0.038404 1.57553 0
M  V30 34209 C 3004.45 -1.0604 2.07023 0
M  V30 34210 C 3005.44 -1.38026 0.982102 0
M  V30 34211 O 3006.65 -1.3704 1.16704 0
M  V30 34212 H 3003.02 -0.359452 0.660529 0
M  V30 34213 H 3004.99 -0.617288 2.91945 0
M  V30 34214 C 3003.74 -2.3557 2.55738 0
M  V30 34215 H 3003.07 -2.11816 3.39078 0
M  V30 34216 H 3004.51 -3.05447 2.94072 0
M  V30 34217 C 3002.96 -3.03882 1.45455 0
M  V30 34218 O 3003.49 -3.93336 0.815471 0
M  V30 34219 N 3001.7 -2.65055 1.19139 0
M  V30 34220 H 3001.25 -1.92398 1.71291 0
M  V30 34221 H 3001.21 -3.11081 0.455609 0
M  V30 34222 N 3004.98 -1.54511 -0.310498 0
M  V30 34223 C 3005.93 -1.85547 -1.40269 0
M  V30 34224 C 3006.92 -0.728404 -1.5294 0
M  V30 34225 O 3008.13 -0.912261 -1.5517 0
M  V30 34226 H 3004.5 -0.588352 -0.468344 0
M  V30 34227 H 3006.47 -2.76857 -1.11324 0
M  V30 34228 C 3005.22 -2.1111 -2.76275 0
M  V30 34229 H 3004.54 -2.97303 -2.67303 0
M  V30 34230 H 3005.98 -2.36771 -3.51732 0
M  V30 34231 C 3004.44 -0.906675 -3.2447 0
M  V30 34232 O 3004.97 -0.122428 -4.01513 0
M  V30 34233 N 3003.18 -0.714682 -2.81675 0
M  V30 34234 H 3002.73 -1.35408 -2.1914 0
M  V30 34235 H 3002.68 0.0896477 -3.14272 0
M  V30 34236 N 3006.46 0.573222 -1.46806 0
M  V30 34237 C 3007.7 1.33107 -1.52606 0
M  V30 34238 C 3008.03 1.9365 -0.181667 0
M  V30 34239 O 3007.29 1.77519 0.823744 0
M  V30 34240 C 3007.58 2.47321 -2.58006 0
M  V30 34241 C 3007.25 2.04712 -4.01751 0
M  V30 34242 C 3005.91 1.92807 -4.40884 0
M  V30 34243 C 3008.26 1.71973 -4.92011 0
M  V30 34244 C 3005.59 1.46435 -5.68132 0
M  V30 34245 C 3007.94 1.27078 -6.19705 0
M  V30 34246 C 3006.61 1.13757 -6.57735 0
M  V30 34247 H 3005.88 0.487075 -0.558426 0
M  V30 34248 H 3008.53 0.644506 -1.80329 0
M  V30 34249 H 3006.83 3.21466 -2.2398 0
M  V30 34250 H 3008.53 3.05526 -2.59721 0
M  V30 34251 H 3005.12 2.14915 -3.70822 0
M  V30 34252 H 3009.3 1.80052 -4.62488 0
M  V30 34253 H 3004.56 1.34772 -5.96361 0
M  V30 34254 H 3008.73 1.00802 -6.89066 0
M  V30 34255 H 3006.36 0.77601 -7.56229 0
M  V30 34256 N 3007.93 1.3467 0.818645 0
M  V30 34257 C 3008.87 1.22445 1.93752 0
M  V30 34258 C 3009.88 0.150529 1.62103 0
M  V30 34259 O 3011.07 0.402759 1.73897 0
M  V30 34260 C 3008.17 0.860089 3.27804 0
M  V30 34261 C 3007.34 2.02988 3.87446 0
M  V30 34262 C 3006.4 1.64323 4.99884 0
M  V30 34263 O 3005.43 2.36038 5.17953 0
M  V30 34264 N 3006.63 0.559862 5.77794 0
M  V30 34265 H 3009.39 2.18837 2.04769 0
M  V30 34266 H 3006.95 1.27681 0.995449 0
M  V30 34267 H 3008.95 0.583139 4.00477 0
M  V30 34268 H 3007.52 -0.0137704 3.12597 0
M  V30 34269 H 3006.74 2.47132 3.07114 0
M  V30 34270 H 3008.02 2.81211 4.24025 0
M  V30 34271 H 3007.42 -0.0362335 5.65688 0
M  V30 34272 H 3005.98 0.342655 6.50899 0
M  V30 34273 N 3009.41 -1.03936 1.1847 0
M  V30 34274 C 3010.32 -2.15468 0.927927 0
M  V30 34275 C 3011.34 -1.73662 -0.108417 0
M  V30 34276 O 3012.51 -2.01265 0.073799 0
M  V30 34277 C 3009.58 -3.43654 0.458554 0
M  V30 34278 C 3008.64 -3.99835 1.56302 0
M  V30 34279 C 3007.87 -5.21903 1.11595 0
M  V30 34280 O 3008.1 -5.70395 -0.0248054 0
M  V30 34281 O 3007.03 -5.7065 1.91422 0
M  V30 34282 H 3010.86 -2.39986 1.8612 0
M  V30 34283 H 3008.44 -1.13915 0.966627 0
M  V30 34284 H 3010.32 -4.20901 0.204935 0
M  V30 34285 H 3009 -3.20607 -0.446408 0
M  V30 34286 H 3007.9 -3.2397 1.87067 0
M  V30 34287 H 3009.24 -4.27226 2.44415 0
M  V30 34288 N 3010.89 -0.986938 -1.22871 0
M  V30 34289 C 3012.14 -0.659457 -1.91461 0
M  V30 34290 C 3012.46 0.807794 -1.76932 0
M  V30 34291 O 3011.72 1.59899 -1.12831 0
M  V30 34292 C 3012.02 -1.00385 -3.43012 0
M  V30 34293 C 3011.68 -2.46239 -3.77726 0
M  V30 34294 C 3010.35 -2.86098 -3.86913 0
M  V30 34295 C 3012.7 -3.40805 -3.94337 0
M  V30 34296 C 3010.03 -4.19525 -4.10141 0
M  V30 34297 C 3012.38 -4.73883 -4.19068 0
M  V30 34298 C 3011.04 -5.13492 -4.26477 0
M  V30 34299 H 3010.31 -0.241313 -0.700606 0
M  V30 34300 H 3012.96 -1.24202 -1.45761 0
M  V30 34301 H 3011.26 -0.339295 -3.90328 0
M  V30 34302 H 3012.96 -0.728588 -3.94325 0
M  V30 34303 H 3009.55 -2.1434 -3.71155 0
M  V30 34304 H 3013.74 -3.11184 -3.86624 0
M  V30 34305 H 3008.99 -4.4981 -4.14102 0
M  V30 34306 H 3013.17 -5.4711 -4.30864 0
M  V30 34307 H 3010.79 -6.16899 -4.44229 0
M  V30 34308 N 3012.37 1.38098 -0.759394 0
M  V30 34309 C 3013.59 2.04792 -0.327895 0
M  V30 34310 C 3014.02 1.56901 1.03749 0
M  V30 34311 O 3013.38 0.72361 1.66233 0
M  V30 34312 C 3013.42 3.58734 -0.366327 0
M  V30 34313 O 3012.53 4.07441 0.637626 0
M  V30 34314 H 3011.87 0.648175 -0.144103 0
M  V30 34315 H 3014.4 1.76658 -1.03214 0
M  V30 34316 H 3014.41 4.0741 -0.219251 0
M  V30 34317 H 3013.08 3.92949 -1.36249 0
M  V30 34318 H 3011.66 3.70118 0.454684 0
M  V30 34319 N 3013.85 0.508932 1.49156 0
M  V30 34320 C 3014.79 -0.278866 2.30922 0
M  V30 34321 C 3015.79 -0.955357 1.3989 0
M  V30 34322 O 3016.99 -0.882141 1.56902 0
M  V30 34323 H 3013.37 -0.108792 0.744089 0
M  V30 34324 H 3015.34 0.430634 2.95276 0
M  V30 34325 C 3014.09 -1.32571 3.21435 0
M  V30 34326 H 3013.41 -0.814565 3.91414 0
M  V30 34327 H 3014.85 -1.84876 3.81572 0
M  V30 34328 C 3013.31 -2.34813 2.41587 0
M  V30 34329 O 3013.84 -3.4085 2.12566 0
M  V30 34330 N 3012.05 -2.07485 2.03465 0
M  V30 34331 H 3011.59 -1.21274 2.27267 0
M  V30 34332 H 3011.55 -2.7612 1.5035 0
M  V30 34333 N 3015.32 -1.55714 0.243111 0
M  V30 34334 C 3016.25 -2.24204 -0.652297 0
M  V30 34335 C 3017.23 -1.22102 -1.18428 0
M  V30 34336 O 3018.42 -1.50745 -1.22432 0
M  V30 34337 C 3015.55 -2.93859 -1.85105 0
M  V30 34338 C 3014.5 -4.02617 -1.45201 0
M  V30 34339 C 3013.83 -4.59679 -2.73129 0
M  V30 34340 C 3015.13 -5.18536 -0.625897 0
M  V30 34341 H 3016.82 -2.9929 -0.0811978 0
M  V30 34342 H 3014.37 -1.43951 -0.0376135 0
M  V30 34343 H 3016.32 -3.40472 -2.48308 0
M  V30 34344 H 3015.05 -2.16255 -2.44747 0
M  V30 34345 H 3013.71 -3.56768 -0.843343 0
M  V30 34346 H 3013.35 -3.7878 -3.3096 0
M  V30 34347 H 3013.05 -5.33094 -2.47154 0
M  V30 34348 H 3014.58 -5.09023 -3.37236 0
M  V30 34349 H 3015.99 -5.61398 -1.16213 0
M  V30 34350 H 3014.39 -5.98316 -0.462359 0
M  V30 34351 H 3015.46 -4.83541 0.362737 0
M  V30 34352 N 3016.8 0.030048 -1.57571 0
M  V30 34353 C 3017.73 1.03048 -2.09531 0
M  V30 34354 C 3018.71 1.37773 -0.997634 0
M  V30 34355 O 3019.9 1.46674 -1.27281 0
M  V30 34356 C 3017.03 2.3317 -2.57389 0
M  V30 34357 C 3015.98 2.1269 -3.71412 0
M  V30 34358 C 3015.31 3.48563 -4.05473 0
M  V30 34359 C 3016.61 1.51387 -4.99879 0
M  V30 34360 H 3018.3 0.597947 -2.93368 0
M  V30 34361 H 3015.85 0.286179 -1.41128 0
M  V30 34362 H 3017.8 3.03485 -2.9236 0
M  V30 34363 H 3016.53 2.78481 -1.70634 0
M  V30 34364 H 3015.18 1.44807 -3.36789 0
M  V30 34365 H 3014.83 3.91521 -3.15786 0
M  V30 34366 H 3014.53 3.35685 -4.82275 0
M  V30 34367 H 3016.06 4.20242 -4.42977 0
M  V30 34368 H 3017.47 2.11619 -5.32813 0
M  V30 34369 H 3015.87 1.49088 -5.81286 0
M  V30 34370 H 3016.94 0.479591 -4.82522 0
M  V30 34371 N 3018.28 1.54674 0.3023 0
M  V30 34372 C 3019.56 1.64569 1.05718 0
M  V30 34373 C 3019.94 0.493144 2.05259 0
M  V30 34374 O 3019.29 -0.510276 2.2273 0
M  V30 34375 C 3019.5 3.0252 1.7402 0
M  V30 34376 C 3020.84 3.5929 2.26265 0
M  V30 34377 O 3021.87 3.04963 1.84054 0
M  V30 34378 O 3020.73 4.5441 3.03602 0
M  V30 34379 H 3017.82 0.667258 0.488565 0
M  V30 34380 H 3020.37 1.67018 0.300492 0
M  V30 34381 H 3019.14 3.77844 1.01734 0
M  V30 34382 H 3018.76 3.03842 2.56448 0
M  V30 34383 N 3019.76 -0.565428 1.47108 0
M  V30 34384 C 3021.04 -1.32605 1.43789 0
M  V30 34385 C 3021.42 -2.10696 0.130465 0
M  V30 34386 O 3020.76 -2.10537 -0.888049 0
M  V30 34387 C 3020.97 -2.2375 2.67837 0
M  V30 34388 C 3022.32 -2.85032 3.14709 0
M  V30 34389 O 3023.35 -2.34056 2.68507 0
M  V30 34390 O 3022.2 -3.77664 3.95009 0
M  V30 34391 H 3019.3 -0.596674 0.572634 0
M  V30 34392 H 3021.84 -0.585012 1.59298 0
M  V30 34393 H 3020.62 -1.65591 3.54535 0
M  V30 34394 H 3020.24 -3.05164 2.54874 0
M  V30 34395 N 3021.24 -1.35102 -0.811492 0
M  V30 34396 C 3022.51 -1.1867 -1.55489 0
M  V30 34397 C 3022.89 0.236152 -2.09775 0
M  V30 34398 O 3022.24 1.23902 -1.91991 0
M  V30 34399 C 3022.45 -2.25072 -2.66728 0
M  V30 34400 C 3023.8 -2.60631 -3.35197 0
M  V30 34401 O 3024.82 -2.23948 -2.76994 0
M  V30 34402 O 3023.68 -3.23687 -4.40329 0
M  V30 34403 H 3020.78 -0.460728 -0.686774 0
M  V30 34404 H 3023.32 -1.46769 -0.851877 0
M  V30 34405 H 3022.09 -3.20527 -2.24451 0
M  V30 34406 H 3021.72 -1.98214 -3.44669 0
M  V30 34407 N 3022.71 1.03306 -1.19019 0
M  V30 34408 C 3023.96 1.76287 -0.988289 0
M  V30 34409 C 3024.28 1.88936 0.482524 0
M  V30 34410 O 3023.55 1.41989 1.34966 0
M  V30 34411 H 3022.13 0.653048 -0.362681 0
M  V30 34412 H 3024.8 1.24638 -1.49838 0
M  V30 34413 H 3023.89 2.77269 -1.43278 0
M  V30 34414 N 3024.19 0.99344 1.22346 0
M  V30 34415 C 3025.44 0.670594 1.91392 0
M  V30 34416 C 3025.77 -0.795397 1.77164 0
M  V30 34417 O 3025.05 -1.57526 1.14086 0
M  V30 34418 C 3025.33 1.07796 3.43587 0
M  V30 34419 C 3025.18 2.60254 3.66862 0
M  V30 34420 C 3026.5 0.631603 4.35544 0
M  V30 34421 H 3023.62 0.245093 0.695053 0
M  V30 34422 H 3026.26 1.23706 1.44211 0
M  V30 34423 H 3024.41 0.595969 3.83902 0
M  V30 34424 H 3026.08 3.16127 3.35948 0
M  V30 34425 H 3024.33 3.02298 3.11124 0
M  V30 34426 H 3025 2.83808 4.73452 0
M  V30 34427 H 3027.47 1.04561 4.02748 0
M  V30 34428 H 3026.35 0.944926 5.40705 0
M  V30 34429 H 3026.61 -0.467701 4.39619 0
M  V30 34430 N 3025.67 -1.37693 0.766707 0
M  V30 34431 C 3026.95 -1.93948 0.253695 0
M  V30 34432 C 3027.33 -1.70084 -1.25038 0
M  V30 34433 O 3026.68 -1.04677 -2.03113 0
M  V30 34434 C 3026.89 -3.4342 0.62161 0
M  V30 34435 C 3028.23 -4.20501 0.588578 0
M  V30 34436 O 3029.26 -3.51759 0.560693 0
M  V30 34437 O 3028.12 -5.43072 0.611166 0
M  V30 34438 H 3025.21 -0.825028 0.0570731 0
M  V30 34439 H 3027.76 -1.4701 0.847719 0
M  V30 34440 H 3026.53 -3.54351 1.65986 0
M  V30 34441 H 3026.15 -3.976 0.000266915 0
M  V30 34442 N 3027.15 -0.516835 -1.48884 0
M  V30 34443 C 3028.1 0.253085 -2.29408 0
M  V30 34444 C 3029.07 0.945911 -1.36535 0
M  V30 34445 O 3030.25 0.949498 -1.65497 0
M  V30 34446 C 3027.39 1.30205 -3.19594 0
M  V30 34447 C 3026.5 0.619404 -4.27536 0
M  V30 34448 C 3025.64 1.65017 -5.04919 0
M  V30 34449 C 3024.68 0.950261 -6.04679 0
M  V30 34450 N 3023.81 1.92596 -6.75168 0
M  V30 34451 H 3028.65 -0.439796 -2.94737 0
M  V30 34452 H 3026.19 -0.228726 -1.45311 0
M  V30 34453 H 3028.15 1.92238 -3.7027 0
M  V30 34454 H 3026.78 1.96349 -2.56217 0
M  V30 34455 H 3025.83 -0.114572 -3.80227 0
M  V30 34456 H 3027.14 0.069214 -4.98752 0
M  V30 34457 H 3026.3 2.34514 -5.59543 0
M  V30 34458 H 3025.04 2.23424 -4.33512 0
M  V30 34459 H 3024.04 0.241156 -5.49271 0
M  V30 34460 H 3025.27 0.37248 -6.78078 0
M  V30 34461 H 3023.21 2.49935 -6.06521 0
M  V30 34462 H 3023.13 1.42686 -7.42413 0
M  V30 34463 H 3024.4 2.61332 -7.34388 0
M  V30 34464 N 3028.63 1.55583 -0.251365 0
M  V30 34465 C 3029.56 2.24547 0.640397 0
M  V30 34466 C 3030.54 1.22728 1.17778 0
M  V30 34467 O 3031.72 1.51392 1.21631 0
M  V30 34468 C 3028.85 2.94837 1.83544 0
M  V30 34469 C 3027.81 4.03382 1.43063 0
M  V30 34470 C 3027.13 4.61121 2.70687 0
M  V30 34471 C 3028.43 5.18861 0.598389 0
M  V30 34472 H 3030.13 2.99329 0.0653245 0
M  V30 34473 H 3027.67 1.43969 0.0299789 0
M  V30 34474 H 3029.63 3.41784 2.46499 0
M  V30 34475 H 3028.35 2.1755 2.43597 0
M  V30 34476 H 3027.01 3.5721 0.824411 0
M  V30 34477 H 3026.66 3.8053 3.28947 0
M  V30 34478 H 3026.36 5.34397 2.44323 0
M  V30 34479 H 3027.88 5.10804 3.34532 0
M  V30 34480 H 3029.29 5.62006 1.13234 0
M  V30 34481 H 3027.69 5.98553 0.430623 0
M  V30 34482 H 3028.76 4.83342 -0.388375 0
M  V30 34483 N 3030.1 -0.0216912 1.57585 0
M  V30 34484 C 3031.33 -0.721538 1.93591 0
M  V30 34485 C 3031.74 -1.69023 0.850161 0
M  V30 34486 O 3031.09 -1.82801 -0.181507 0
M  V30 34487 C 3031.15 -1.52723 3.25447 0
M  V30 34488 C 3030.81 -0.722507 4.51253 0
M  V30 34489 C 3031.81 -0.0195684 5.19896 0
M  V30 34490 C 3029.49 -0.674872 4.97746 0
M  V30 34491 C 3031.49 0.720225 6.33318 0
M  V30 34492 C 3029.17 0.0686624 6.11061 0
M  V30 34493 C 3030.17 0.764964 6.78703 0
M  V30 34494 O 3029.86 1.49641 7.8985 0
M  V30 34495 H 3029.59 -0.207355 0.643413 0
M  V30 34496 H 3032.15 0.0189707 2.05391 0
M  V30 34497 H 3030.38 -2.31172 3.09994 0
M  V30 34498 H 3032.07 -2.11038 3.46724 0
M  V30 34499 H 3032.83 -0.0473541 4.84977 0
M  V30 34500 H 3028.71 -1.20635 4.44936 0
M  V30 34501 H 3032.25 1.26425 6.86048 0
M  V30 34502 H 3028.15 0.0983453 6.45425 0
M  V30 34503 H 3028.92 1.41086 8.06249 0
M  V30 34504 N 3031.58 -1.54832 -0.294093 0
M  V30 34505 C 3032.53 -1.87024 -1.38293 0
M  V30 34506 C 3033.53 -0.744584 -1.52159 0
M  V30 34507 O 3034.73 -0.928668 -1.54194 0
M  V30 34508 H 3031.11 -0.593286 -0.462078 0
M  V30 34509 H 3033.08 -2.78022 -1.08381 0
M  V30 34510 C 3031.83 -2.14028 -2.74021 0
M  V30 34511 H 3031.15 -3.00121 -2.64135 0
M  V30 34512 H 3032.59 -2.40488 -3.49201 0
M  V30 34513 C 3031.05 -0.941039 -3.2349 0
M  V30 34514 O 3031.58 -0.165007 -4.01361 0
M  V30 34515 N 3029.78 -0.744517 -2.80901 0
M  V30 34516 H 3029.33 -1.37725 -2.17692 0
M  V30 34517 H 3029.29 0.0563099 -3.1435 0
M  V30 34518 N 3033.06 0.557619 -1.47405 0
M  V30 34519 C 3034.31 1.31115 -1.5327 0
M  V30 34520 C 3034.62 1.9458 -0.199449 0
M  V30 34521 O 3035.83 2.71159 -0.136087 0
M  V30 34522 C 3034.29 2.37759 -2.70183 0
M  V30 34523 C 3033.89 1.80486 -4.10035 0
M  V30 34524 C 3035.64 3.14296 -2.85339 0
M  V30 34525 C 3033.54 2.84907 -5.18249 0
M  V30 34526 H 3032.47 0.492997 -0.5705 0
M  V30 34527 H 3035.13 0.592277 -1.73679 0
M  V30 34528 H 3033.51 3.12559 -2.43152 0
M  V30 34529 H 3034.68 1.12061 -4.46966 0
M  V30 34530 H 3033 1.16535 -3.99761 0
M  V30 34531 H 3035.59 3.92273 -3.63354 0
M  V30 34532 H 3035.94 3.68456 -1.93768 0
M  V30 34533 H 3036.47 2.46607 -3.12137 0
M  V30 34534 H 3033.21 2.35603 -6.11696 0
M  V30 34535 H 3032.73 3.51744 -4.85836 0
M  V30 34536 H 3034.41 3.48407 -5.4518 0
M  V30 34537 N 3034.54 1.35531 0.804316 0
M  V30 34538 C 3035.79 1.2893 1.56151 0
M  V30 34539 C 3036.11 -0.135648 1.94026 0
M  V30 34540 O 3035.37 -1.10145 1.61761 0
M  V30 34541 C 3035.67 2.14354 2.85984 0
M  V30 34542 C 3035.33 3.63115 2.67317 0
M  V30 34543 C 3034 4.03664 2.61933 0
M  V30 34544 C 3036.35 4.57497 2.49691 0
M  V30 34545 C 3033.68 5.36758 2.36871 0
M  V30 34546 C 3036.03 5.90792 2.26158 0
M  V30 34547 C 3034.69 6.30483 2.19198 0
M  V30 34548 H 3033.96 0.471789 0.571398 0
M  V30 34549 H 3036.61 1.67448 0.929163 0
M  V30 34550 H 3034.91 1.68725 3.53609 0
M  V30 34551 H 3036.61 2.06582 3.43693 0
M  V30 34552 H 3033.2 3.30939 2.72355 0
M  V30 34553 H 3037.39 4.27054 2.52861 0
M  V30 34554 H 3032.64 5.66508 2.29954 0
M  V30 34555 H 3036.82 6.63503 2.11511 0
M  V30 34556 H 3034.44 7.33545 1.9954 0
M  V30 34557 N 3036.02 -1.02674 1.19565 0
M  V30 34558 C 3037.25 -1.79731 1.02492 0
M  V30 34559 C 3037.66 -1.83925 -0.42627 0
M  V30 34560 O 3037.02 -1.28485 -1.29606 0
M  V30 34561 C 3037.07 -3.2468 1.58949 0
M  V30 34562 O 3036.79 -3.20774 2.98388 0
M  V30 34563 C 3038.29 -4.18327 1.46688 0
M  V30 34564 H 3035.51 -0.565546 0.361108 0
M  V30 34565 H 3038.05 -1.29309 1.58428 0
M  V30 34566 H 3036.21 -3.72285 1.07156 0
M  V30 34567 H 3036.62 -4.11681 3.2499 0
M  V30 34568 H 3038.1 -5.17914 1.90968 0
M  V30 34569 H 3038.57 -4.37209 0.41774 0
M  V30 34570 H 3039.18 -3.76597 1.97623 0
M  V30 34571 N 3037.5 -0.999914 -1.21817 0
M  V30 34572 C 3038.41 -0.565199 -2.2769 0
M  V30 34573 C 3039.42 0.389368 -1.69588 0
M  V30 34574 O 3040.6 0.254464 -1.99786 0
M  V30 34575 C 3037.66 0.106371 -3.46537 0
M  V30 34576 C 3036.72 -0.892038 -4.1993 0
M  V30 34577 C 3035.96 -0.252421 -5.33103 0
M  V30 34578 O 3036.18 0.952004 -5.62399 0
M  V30 34579 O 3035.11 -0.960802 -5.94182 0
M  V30 34580 H 3038.94 -1.44618 -2.67057 0
M  V30 34581 H 3036.52 -0.768522 -1.28118 0
M  V30 34582 H 3038.41 0.482228 -4.18632 0
M  V30 34583 H 3037.08 0.961811 -3.09081 0
M  V30 34584 H 3035.99 -1.31896 -3.50078 0
M  V30 34585 H 3037.32 -1.7169 -4.61284 0
M  V30 34586 N 3038.97 1.37284 -0.773999 0
M  V30 34587 C 3040.2 2.03905 -0.350794 0
M  V30 34588 C 3040.62 1.58375 1.02776 0
M  V30 34589 O 3039.97 0.766039 1.65644 0
M  V30 34590 C 3040.02 3.59418 -0.387399 0
M  V30 34591 O 3039.75 4.03283 -1.71157 0
M  V30 34592 C 3041.25 4.43275 0.0471201 0
M  V30 34593 H 3038.47 0.654773 -0.146675 0
M  V30 34594 H 3041.01 1.75573 -1.04855 0
M  V30 34595 H 3039.17 3.86514 0.261797 0
M  V30 34596 H 3039.58 4.97813 -1.65175 0
M  V30 34597 H 3041.05 5.51992 -0.0296445 0
M  V30 34598 H 3041.53 4.25259 1.09778 0
M  V30 34599 H 3042.14 4.21409 -0.573974 0
M  V30 34600 N 3040.45 0.524724 1.48608 0
M  V30 34601 C 3041.7 -0.0112858 2.02497 0
M  V30 34602 C 3042.03 -1.34779 1.40232 0
M  V30 34603 O 3041.28 -1.88228 0.535603 0
M  V30 34604 C 3041.58 -0.18781 3.56906 0
M  V30 34605 C 3041.25 1.07367 4.37931 0
M  V30 34606 C 3039.91 1.41941 4.59789 0
M  V30 34607 C 3042.26 1.91108 4.84899 0
M  V30 34608 C 3039.59 2.60163 5.25863 0
M  V30 34609 C 3041.94 3.08504 5.52275 0
M  V30 34610 C 3040.6 3.4343 5.72374 0
M  V30 34611 H 3039.87 -0.00412977 0.740988 0
M  V30 34612 H 3042.52 0.689684 1.78649 0
M  V30 34613 H 3040.83 -0.971505 3.79564 0
M  V30 34614 H 3042.52 -0.617373 3.96219 0
M  V30 34615 H 3039.11 0.794405 4.21174 0
M  V30 34616 H 3043.3 1.65709 4.67818 0
M  V30 34617 H 3038.55 2.87431 5.39623 0
M  V30 34618 H 3042.73 3.73702 5.87639 0
M  V30 34619 H 3040.35 4.35137 6.23346 0
M  V30 34620 N 3041.93 -1.55447 0.259613 0
M  V30 34621 C 3042.88 -2.21906 -0.634539 0
M  V30 34622 C 3043.85 -1.18721 -1.16166 0
M  V30 34623 O 3045.03 -1.47212 -1.2138 0
M  V30 34624 C 3042.17 -2.93207 -1.82 0
M  V30 34625 C 3041.28 -4.11075 -1.3282 0
M  V30 34626 C 3040.42 -4.70059 -2.47423 0
M  V30 34627 C 3039.46 -5.80151 -1.95169 0
M  V30 34628 N 3038.6 -6.33264 -3.03185 0
M  V30 34629 H 3043.44 -2.97937 -0.0611362 0
M  V30 34630 H 3040.97 -1.47088 -0.0184119 0
M  V30 34631 H 3042.93 -3.32752 -2.51658 0
M  V30 34632 H 3041.56 -2.19626 -2.36567 0
M  V30 34633 H 3040.61 -3.76756 -0.525235 0
M  V30 34634 H 3041.92 -4.90515 -0.905348 0
M  V30 34635 H 3041.08 -5.12244 -3.25102 0
M  V30 34636 H 3039.82 -3.89863 -2.93016 0
M  V30 34637 H 3038.82 -5.37431 -1.15964 0
M  V30 34638 H 3040.05 -6.62207 -1.5053 0
M  V30 34639 H 3037.99 -5.55968 -3.4819 0
M  V30 34640 H 3037.91 -7.07932 -2.6527 0
M  V30 34641 H 3039.18 -6.80108 -3.80886 0
M  V30 34642 N 3043.41 0.0133338 -1.57594 0
M  V30 34643 C 3044.65 0.705606 -1.91835 0
M  V30 34644 C 3045.01 1.71671 -0.859832 0
M  V30 34645 O 3046.21 2.45838 -1.08706 0
M  V30 34646 C 3044.48 1.34377 -3.31176 0
M  V30 34647 S 3046.04 2.06302 -3.87279 0
M  V30 34648 H 3042.86 0.233393 -0.671602 0
M  V30 34649 H 3045.46 -0.0401517 -1.95459 0
M  V30 34650 H 3044.17 0.594867 -4.06066 0
M  V30 34651 H 3043.7 2.12775 -3.30893 0
M  V30 34652 H 3045.71 3.3365 -3.67277 0
M  V30 34653 N 3044.89 1.54985 0.285878 0
M  V30 34654 C 3045.83 1.8698 1.35303 0
M  V30 34655 C 3046.8 0.720072 1.4968 0
M  V30 34656 O 3047.99 0.970136 1.64295 0
M  V30 34657 C 3045.13 2.13596 2.71055 0
M  V30 34658 C 3044.24 3.4117 2.65004 0
M  V30 34659 C 3043.38 3.57551 3.9285 0
M  V30 34660 C 3042.41 4.78862 3.81258 0
M  V30 34661 N 3041.55 4.91968 5.00911 0
M  V30 34662 H 3046.39 2.78005 1.07318 0
M  V30 34663 H 3043.93 1.37649 0.518752 0
M  V30 34664 H 3045.89 2.27025 3.50022 0
M  V30 34665 H 3044.52 1.25821 2.97269 0
M  V30 34666 H 3043.57 3.36281 1.77818 0
M  V30 34667 H 3044.88 4.30266 2.52334 0
M  V30 34668 H 3044.03 3.70727 4.80257 0
M  V30 34669 H 3042.77 2.66615 4.08372 0
M  V30 34670 H 3041.78 4.65703 2.92234 0
M  V30 34671 H 3043 5.7122 3.67267 0
M  V30 34672 H 3040.95 4.0396 5.16868 0
M  V30 34673 H 3040.87 5.7509 4.90722 0
M  V30 34674 H 3042.13 5.09517 5.89926 0
M  V30 34675 N 3046.36 -0.549794 1.47699 0
M  V30 34676 C 3047.31 -1.67721 1.61159 0
M  V30 34677 C 3048.31 -1.62498 0.478635 0
M  V30 34678 O 3049.51 -1.67593 0.656691 0
M  V30 34679 H 3045.89 -0.555101 0.507313 0
M  V30 34680 H 3047.86 -1.53507 2.55887 0
M  V30 34681 C 3046.61 -3.06056 1.65 0
M  V30 34682 H 3045.93 -3.10761 2.51531 0
M  V30 34683 H 3047.37 -3.84611 1.78466 0
M  V30 34684 C 3045.83 -3.34696 0.384735 0
M  V30 34685 O 3046.36 -3.98437 -0.510987 0
M  V30 34686 N 3044.57 -2.89412 0.262485 0
M  V30 34687 H 3044.11 -2.37719 0.992332 0
M  V30 34688 H 3044.07 -3.08945 -0.583122 0
M  V30 34689 N 3047.84 -1.35955 -0.797117 0
M  V30 34690 C 3049.09 -1.29089 -1.5498 0
M  V30 34691 C 3049.4 0.129969 -1.95168 0
M  V30 34692 O 3050.61 0.320962 -2.69596 0
M  V30 34693 C 3049.07 -2.26444 -2.79734 0
M  V30 34694 C 3048.67 -3.73925 -2.46747 0
M  V30 34695 C 3050.42 -2.28539 -3.57729 0
M  V30 34696 C 3048.33 -4.63077 -3.6785 0
M  V30 34697 H 3047.26 -0.479661 -0.581757 0
M  V30 34698 H 3049.91 -1.61274 -0.875381 0
M  V30 34699 H 3048.29 -1.87242 -3.48936 0
M  V30 34700 H 3049.46 -4.21817 -1.85491 0
M  V30 34701 H 3047.78 -3.7453 -1.81978 0
M  V30 34702 H 3050.37 -2.92359 -4.47694 0
M  V30 34703 H 3050.72 -1.29176 -3.95751 0
M  V30 34704 H 3051.25 -2.66318 -2.95499 0
M  V30 34705 H 3047.99 -5.63474 -3.34929 0
M  V30 34706 H 3047.51 -4.19906 -4.28298 0
M  V30 34707 H 3049.19 -4.78969 -4.34969 0
M  V30 34708 N 3049.32 1.02038 -1.20108 0
M  V30 34709 C 3050.27 2.10499 -0.946505 0
M  V30 34710 C 3051.24 1.65652 0.121873 0
M  V30 34711 O 3052.42 1.90787 -0.0220579 0
M  V30 34712 C 3049.56 3.4145 -0.500559 0
M  V30 34713 C 3048.68 3.99797 -1.63666 0
M  V30 34714 C 3047.81 5.18792 -1.1414 0
M  V30 34715 C 3046.85 5.69213 -2.25084 0
M  V30 34716 N 3045.99 6.79474 -1.76803 0
M  V30 34717 H 3050.83 2.31612 -1.8751 0
M  V30 34718 H 3048.36 1.13585 -0.934713 0
M  V30 34719 H 3050.32 4.16602 -0.22335 0
M  V30 34720 H 3048.95 3.20423 0.391042 0
M  V30 34721 H 3048 3.21777 -2.02888 0
M  V30 34722 H 3049.32 4.33224 -2.47221 0
M  V30 34723 H 3048.47 6.01134 -0.819932 0
M  V30 34724 H 3047.21 4.8692 -0.275701 0
M  V30 34725 H 3046.21 4.85478 -2.58052 0
M  V30 34726 H 3047.44 6.03121 -3.12124 0
M  V30 34727 H 3045.38 6.49438 -0.925542 0
M  V30 34728 H 3045.3 7.12075 -2.53941 0
M  V30 34729 H 3046.57 7.6539 -1.47645 0
M  V30 34730 N 3050.8 1.00636 1.21285 0
M  V30 34731 C 3052.04 0.698228 1.92105 0
M  V30 34732 C 3052.4 -0.757191 1.76439 0
M  V30 34733 O 3053.6 -1.17737 2.41643 0
M  V30 34734 C 3051.87 1.10938 3.39746 0
M  V30 34735 S 3053.43 0.921662 4.29011 0
M  V30 34736 H 3050.25 0.254865 0.663751 0
M  V30 34737 H 3052.85 1.29147 1.46769 0
M  V30 34738 H 3051.56 2.16473 3.48666 0
M  V30 34739 H 3051.09 0.508488 3.901 0
M  V30 34740 H 3053.1 -0.180491 4.95872 0
M  V30 34741 N 3052.28 -1.36872 0.781268 0
M  V30 34742 C 3053.52 -1.99454 0.349924 0
M  V30 34743 C 3053.85 -1.62014 -1.07618 0
M  V30 34744 O 3053.11 -0.862611 -1.75663 0
M  V30 34745 C 3053.41 -3.54536 0.451522 0
M  V30 34746 C 3053.07 -4.11772 1.83725 0
M  V30 34747 C 3051.73 -4.27116 2.21642 0
M  V30 34748 C 3054.09 -4.43058 2.74498 0
M  V30 34749 C 3051.41 -4.71054 3.4975 0
M  V30 34750 C 3053.77 -4.88424 4.02026 0
M  V30 34751 C 3052.43 -5.01974 4.39975 0
M  V30 34752 H 3051.7 -0.729853 0.128046 0
M  V30 34753 H 3054.35 -1.63491 0.997145 0
M  V30 34754 H 3052.65 -3.90804 -0.27922 0
M  V30 34755 H 3054.35 -4.00878 0.0989314 0
M  V30 34756 H 3050.94 -4.00262 1.53258 0
M  V30 34757 H 3055.12 -4.30779 2.46461 0
M  V30 34758 H 3050.38 -4.79732 3.79035 0
M  V30 34759 H 3054.55 -5.11597 4.72484 0
M  V30 34760 H 3052.18 -5.35779 5.393 0
M  V30 34761 N 3053.75 -0.532597 -1.48328 0
M  V30 34762 C 3055.03 0.0650641 -1.95492 0
M  V30 34763 C 3055.41 1.51032 -1.47488 0
M  V30 34764 O 3054.76 2.17431 -0.702554 0
M  V30 34765 C 3054.97 -0.0548954 -3.48957 0
M  V30 34766 C 3056.32 0.10304 -4.24475 0
M  V30 34767 O 3057.34 0.0187717 -3.56195 0
M  V30 34768 O 3056.2 0.280068 -5.45782 0
M  V30 34769 H 3053.29 0.0778459 -0.823328 0
M  V30 34770 H 3055.84 -0.597381 -1.58838 0
M  V30 34771 H 3054.61 -1.06155 -3.76626 0
M  V30 34772 H 3054.24 0.646281 -3.92312 0
M  V30 34773 N 3055.23 1.55307 -0.267853 0
M  V30 34774 C 3056.16 2.25213 0.616545 0
M  V30 34775 C 3057.14 1.23971 1.1647 0
M  V30 34776 O 3058.33 1.52674 1.20018 0
M  V30 34777 C 3055.46 2.96767 1.80407 0
M  V30 34778 C 3054.41 4.04876 1.38777 0
M  V30 34779 C 3053.74 4.63966 2.65781 0
M  V30 34780 C 3055.04 5.19466 0.543323 0
M  V30 34781 H 3056.73 2.99381 0.0335731 0
M  V30 34782 H 3054.28 1.43992 0.0147074 0
M  V30 34783 H 3056.23 3.44379 2.4286 0
M  V30 34784 H 3054.96 2.20122 2.41276 0
M  V30 34785 H 3053.61 3.58064 0.786478 0
M  V30 34786 H 3053.26 3.83997 3.24892 0
M  V30 34787 H 3052.96 5.36958 2.38641 0
M  V30 34788 H 3054.49 5.14324 3.29095 0
M  V30 34789 H 3055.9 5.63176 1.07267 0
M  V30 34790 H 3054.3 5.98976 0.367114 0
M  V30 34791 H 3055.37 4.82903 -0.439618 0
M  V30 34792 N 3056.71 -0.00497598 1.57599 0
M  V30 34793 C 3057.64 -0.997013 2.11144 0
M  V30 34794 C 3058.62 -1.36168 1.01943 0
M  V30 34795 O 3059.81 -1.4463 1.29599 0
M  V30 34796 C 3056.94 -2.29045 2.61066 0
M  V30 34797 C 3055.89 -2.06754 3.74749 0
M  V30 34798 C 3055.22 -3.42068 4.10967 0
M  V30 34799 C 3056.52 -1.43415 5.02224 0
M  V30 34800 H 3058.21 -0.551199 2.94282 0
M  V30 34801 H 3055.76 -0.26369 1.41565 0
M  V30 34802 H 3057.71 -2.98796 2.97151 0
M  V30 34803 H 3056.43 -2.75731 1.75043 0
M  V30 34804 H 3055.09 -1.3943 3.3905 0
M  V30 34805 H 3054.74 -3.86447 3.21974 0
M  V30 34806 H 3054.44 -3.2797 4.87554 0
M  V30 34807 H 3055.96 -4.13142 4.49607 0
M  V30 34808 H 3057.38 -2.03116 5.36113 0
M  V30 34809 H 3055.78 -1.39821 5.83584 0
M  V30 34810 H 3056.85 -0.402765 4.83224 0
M  V30 34811 N 3058.19 -1.55135 -0.277654 0
M  V30 34812 C 3059.44 -1.75522 -1.00987 0
M  V30 34813 C 3059.76 -0.553745 -1.86451 0
M  V30 34814 O 3059.02 0.463862 -1.90123 0
M  V30 34815 C 3059.32 -3.01069 -1.92594 0
M  V30 34816 C 3058.98 -4.33822 -1.22918 0
M  V30 34817 C 3057.65 -4.69904 -1.0365 0
M  V30 34818 C 3060 -5.1602 -0.732981 0
M  V30 34819 C 3057.33 -5.85744 -0.33483 0
M  V30 34820 C 3059.68 -6.32584 -0.0449207 0
M  V30 34821 C 3058.34 -6.67309 0.15951 0
M  V30 34822 H 3057.61 -0.642279 -0.369538 0
M  V30 34823 H 3060.26 -1.89404 -0.282578 0
M  V30 34824 H 3058.56 -2.82067 -2.71929 0
M  V30 34825 H 3060.26 -3.14038 -2.49361 0
M  V30 34826 H 3056.85 -4.0546 -1.38926 0
M  V30 34827 H 3061.03 -4.88624 -0.869479 0
M  V30 34828 H 3056.29 -6.11175 -0.165675 0
M  V30 34829 H 3060.46 -6.95533 0.347352 0
M  V30 34830 H 3058.09 -7.56922 0.705203 0
M  V30 34831 N 3059.67 0.541953 -1.47989 0
M  V30 34832 C 3060.6 1.66329 -1.57693 0
M  V30 34833 C 3061.61 1.56106 -0.462022 0
M  V30 34834 O 3062.8 1.62785 -0.732334 0
M  V30 34835 C 3059.9 3.04903 -1.47944 0
M  V30 34836 C 3059.07 3.40728 -2.74269 0
M  V30 34837 C 3058.13 4.5853 -2.58142 0
M  V30 34838 O 3057.16 4.62348 -3.31999 0
M  V30 34839 N 3058.36 5.55969 -1.66969 0
M  V30 34840 H 3061.13 1.58445 -2.54392 0
M  V30 34841 H 3058.69 0.728954 -1.44561 0
M  V30 34842 H 3060.68 3.81566 -1.34867 0
M  V30 34843 H 3059.25 3.0693 -0.59268 0
M  V30 34844 H 3058.47 2.53361 -3.01997 0
M  V30 34845 H 3059.76 3.61444 -3.581 0
M  V30 34846 H 3059.15 5.55653 -1.06144 0
M  V30 34847 H 3057.71 6.31898 -1.59838 0
M  V30 34848 N 3061.15 1.36376 0.789896 0
M  V30 34849 C 3062.39 1.30321 1.54469 0
M  V30 34850 C 3062.71 -0.117304 1.94647 0
M  V30 34851 O 3061.98 -1.05746 1.64908 0
M  V30 34852 H 3060.56 0.479404 0.57287 0
M  V30 34853 H 3063.23 1.70667 0.941215 0
M  V30 34854 H 3062.32 1.93028 2.45248 0
M  V30 34855 N 3062.62 -1.014 1.20647 0
M  V30 34856 C 3063.87 -1.75039 1.01822 0
M  V30 34857 C 3064.2 -1.89238 -0.449352 0
M  V30 34858 O 3063.45 -1.41697 -1.34983 0
M  V30 34859 C 3063.75 -3.17034 1.64997 0
M  V30 34860 C 3063.42 -3.22806 3.14813 0
M  V30 34861 C 3062.08 -3.24088 3.55697 0
M  V30 34862 C 3064.43 -3.20762 4.10805 0
M  V30 34863 C 3061.76 -3.21001 4.91096 0
M  V30 34864 C 3064.11 -3.19217 5.46153 0
M  V30 34865 C 3062.78 -3.18804 5.86447 0
M  V30 34866 H 3062.05 -0.640512 0.372594 0
M  V30 34867 H 3064.69 -1.18909 1.5011 0
M  V30 34868 H 3063 -3.76339 1.08978 0
M  V30 34869 H 3064.7 -3.72711 1.47943 0
M  V30 34870 H 3061.29 -3.22545 2.82246 0
M  V30 34871 H 3065.47 -3.1894 3.80252 0
M  V30 34872 H 3060.73 -3.19014 5.21574 0
M  V30 34873 H 3064.9 -3.16589 6.20278 0
M  V30 34874 H 3062.53 -3.16167 6.91334 0
M  V30 34875 N 3064.1 -1.01278 -1.2075 0
M  V30 34876 C 3065.03 -0.600104 -2.25657 0
M  V30 34877 C 3066.01 0.382951 -1.65733 0
M  V30 34878 O 3067.2 0.269222 -1.92325 0
M  V30 34879 C 3064.33 0.0662587 -3.47237 0
M  V30 34880 C 3063.28 -0.837384 -4.19728 0
M  V30 34881 C 3062.61 -0.0370042 -5.34687 0
M  V30 34882 C 3063.91 -2.14365 -4.76282 0
M  V30 34883 H 3065.6 -1.47705 -2.6043 0
M  V30 34884 H 3063.15 -0.711656 -1.25186 0
M  V30 34885 H 3065.1 0.366489 -4.19803 0
M  V30 34886 H 3063.82 0.977889 -3.11617 0
M  V30 34887 H 3062.48 -1.12156 -3.49022 0
M  V30 34888 H 3062.13 0.876157 -4.9531 0
M  V30 34889 H 3061.83 -0.638753 -5.84118 0
M  V30 34890 H 3063.36 0.256861 -6.10059 0
M  V30 34891 H 3064.77 -1.90605 -5.40687 0
M  V30 34892 H 3063.17 -2.69592 -5.36134 0
M  V30 34893 H 3064.24 -2.80923 -3.95235 0
M  V30 34894 N 3065.58 1.36456 -0.788516 0
M  V30 34895 C 3066.81 2.03521 -0.372401 0
M  V30 34896 C 3067.22 1.59456 1.0109 0
M  V30 34897 O 3066.58 0.783564 1.64823 0
M  V30 34898 C 3066.63 3.58987 -0.425498 0
M  V30 34899 O 3066.35 4.01445 -1.75425 0
M  V30 34900 C 3067.85 4.433 0.000102246 0
M  V30 34901 H 3065.07 0.65318 -0.153611 0
M  V30 34902 H 3067.62 1.74451 -1.06711 0
M  V30 34903 H 3065.77 3.8677 0.220788 0
M  V30 34904 H 3066.19 4.96033 -1.70445 0
M  V30 34905 H 3067.66 5.5193 -0.0881889 0
M  V30 34906 H 3068.14 4.264 1.05262 0
M  V30 34907 H 3068.74 4.20777 -0.618637 0
M  V30 34908 N 3067.06 0.540456 1.48043 0
M  V30 34909 C 3067.97 -0.220122 2.33565 0
M  V30 34910 C 3068.98 -0.928634 1.47148 0
M  V30 34911 O 3070.16 -0.901263 1.80109 0
M  V30 34912 C 3067.22 -1.24715 3.23492 0
M  V30 34913 C 3066.29 -0.547863 4.2579 0
M  V30 34914 C 3065.52 -1.52596 5.1142 0
M  V30 34915 O 3065.74 -2.75947 4.99209 0
M  V30 34916 O 3064.68 -1.05961 5.925 0
M  V30 34917 H 3068.5 0.480951 2.99868 0
M  V30 34918 H 3066.09 0.301252 1.46331 0
M  V30 34919 H 3067.97 -1.8404 3.79087 0
M  V30 34920 H 3066.64 -1.93044 2.59838 0
M  V30 34921 H 3065.55 0.0861598 3.74001 0
M  V30 34922 H 3066.88 0.0936761 4.92111 0
M  V30 34923 N 3068.54 -1.55163 0.276085 0
M  V30 34924 C 3069.47 -2.1996 -0.644216 0
M  V30 34925 C 3070.48 -1.18461 -1.11673 0
M  V30 34926 O 3071.67 -1.45183 -1.03847 0
M  V30 34927 C 3068.77 -2.81245 -1.89088 0
M  V30 34928 C 3067.94 -4.08443 -1.56502 0
M  V30 34929 C 3067 -4.53767 -2.66425 0
M  V30 34930 O 3066.03 -5.19519 -2.3257 0
M  V30 34931 N 3067.23 -4.23989 -3.96502 0
M  V30 34932 H 3069.99 -2.99566 -0.0896281 0
M  V30 34933 H 3067.56 -1.61608 0.0972265 0
M  V30 34934 H 3069.55 -3.0851 -2.61923 0
M  V30 34935 H 3068.12 -2.05626 -2.3545 0
M  V30 34936 H 3067.34 -3.88457 -0.670454 0
M  V30 34937 H 3068.63 -4.91316 -1.32233 0
M  V30 34938 H 3068.02 -3.71261 -4.26828 0
M  V30 34939 H 3066.58 -4.56022 -4.65712 0
M  V30 34940 N 3070.01 -0.00338196 -1.576 0
M  V30 34941 C 3071.24 0.690648 -1.94714 0
M  V30 34942 C 3071.65 1.67649 -0.876944 0
M  V30 34943 O 3070.99 1.83067 0.152402 0
M  V30 34944 C 3071.06 1.47526 -3.27836 0
M  V30 34945 C 3070.72 0.650625 -4.52345 0
M  V30 34946 C 3071.72 -0.0631451 -5.19862 0
M  V30 34947 C 3069.4 0.595599 -4.98756 0
M  V30 34948 C 3071.4 -0.82089 -6.32092 0
M  V30 34949 C 3069.08 -0.165868 -6.10875 0
M  V30 34950 C 3070.08 -0.872843 -6.774 0
M  V30 34951 O 3069.77 -1.62188 -7.87369 0
M  V30 34952 H 3069.5 0.197092 -0.64663 0
M  V30 34953 H 3072.06 -0.0516443 -2.05335 0
M  V30 34954 H 3070.29 2.26211 -3.13632 0
M  V30 34955 H 3071.97 2.05495 -3.50038 0
M  V30 34956 H 3072.74 -0.0298075 -4.84991 0
M  V30 34957 H 3068.62 1.13541 -4.46799 0
M  V30 34958 H 3072.16 -1.37324 -6.8395 0
M  V30 34959 H 3068.06 -0.201014 -6.45187 0
M  V30 34960 H 3068.83 -1.53894 -8.03902 0
M  V30 34961 N 3071.49 1.5528 0.269423 0
M  V30 34962 C 3072.44 1.892 1.353 0
M  V30 34963 C 3073.43 0.768697 1.50955 0
M  V30 34964 O 3074.64 0.953081 1.52697 0
M  V30 34965 H 3071.01 0.600562 0.45258 0
M  V30 34966 H 3072.99 2.79711 1.03944 0
M  V30 34967 C 3071.73 2.1836 2.70581 0
M  V30 34968 H 3071.06 3.04286 2.59327 0
M  V30 34969 H 3072.5 2.46013 3.45331 0
M  V30 34970 C 3070.96 0.992384 3.21952 0
M  V30 34971 O 3071.49 0.228839 4.01048 0
M  V30 34972 N 3069.69 0.789111 2.79681 0
M  V30 34973 H 3069.24 1.41171 2.15473 0
M  V30 34974 H 3069.2 -0.00629249 3.14399 0
M  V30 34975 N 3072.97 -0.534097 1.48274 0
M  V30 34976 C 3073.92 -1.66003 1.62929 0
M  V30 34977 C 3074.91 -1.61981 0.495843 0
M  V30 34978 O 3076.12 -1.66888 0.674429 0
M  V30 34979 H 3072.49 -0.549689 0.513172 0
M  V30 34980 H 3074.46 -1.50785 2.57501 0
M  V30 34981 C 3073.21 -3.04289 1.68237 0
M  V30 34982 H 3072.54 -3.08076 2.54813 0
M  V30 34983 H 3073.98 -3.82697 1.82535 0
M  V30 34984 C 3072.43 -3.34269 0.420213 0
M  V30 34985 O 3072.96 -3.98956 -0.468698 0
M  V30 34986 N 3071.17 -2.89117 0.293166 0
M  V30 34987 H 3070.72 -2.36654 1.01749 0
M  V30 34988 H 3070.68 -3.09546 -0.550322 0
M  V30 34989 N 3074.45 -1.36793 -0.782652 0
M  V30 34990 C 3075.7 -1.30726 -1.53603 0
M  V30 34991 C 3076.01 0.109262 -1.95295 0
M  V30 34992 O 3077.22 0.29235 -2.69921 0
M  V30 34993 C 3075.67 -2.29398 -2.77317 0
M  V30 34994 C 3075.28 -3.76521 -2.42767 0
M  V30 34995 C 3077.02 -2.3232 -3.55285 0
M  V30 34996 C 3074.93 -4.66953 -3.62917 0
M  V30 34997 H 3073.86 -0.485804 -0.576637 0
M  V30 34998 H 3076.51 -1.62193 -0.858227 0
M  V30 34999 H 3074.89 -1.90933 -3.4693 0
M  V30 35000 H 3076.07 -4.23761 -1.81007 0
M  V30 35001 H 3074.38 -3.76439 -1.77996 0
M  V30 35002 H 3076.98 -2.97091 -4.44568 0
M  V30 35003 H 3077.32 -1.33367 -3.94359 0
M  V30 35004 H 3077.86 -2.69437 -2.92658 0
M  V30 35005 H 3074.59 -5.66995 -3.28934 0
M  V30 35006 H 3074.11 -4.24425 -4.2382 0
M  V30 35007 H 3075.79 -4.83555 -4.29864 0
M  V30 35008 N 3075.93 1.00759 -1.21184 0
M  V30 35009 C 3077.17 1.74755 -1.02901 0
M  V30 35010 C 3077.51 1.89225 0.436741 0
M  V30 35011 O 3076.78 1.42468 1.32412 0
M  V30 35012 C 3077.06 3.16161 -1.72378 0
M  V30 35013 C 3076.92 3.0943 -3.26456 0
M  V30 35014 C 3078.24 4.15028 -1.46422 0
M  V30 35015 H 3075.35 0.634331 -0.375225 0
M  V30 35016 H 3078 1.17485 -1.49323 0
M  V30 35017 H 3076.15 3.65057 -1.32912 0
M  V30 35018 H 3077.82 2.68268 -3.75274 0
M  V30 35019 H 3076.06 2.46597 -3.56893 0
M  V30 35020 H 3076.73 4.09429 -3.70233 0
M  V30 35021 H 3079.21 3.74827 -1.80677 0
M  V30 35022 H 3078.08 5.12117 -1.97553 0
M  V30 35023 H 3078.35 4.40344 -0.393688 0
M  V30 35024 N 3077.4 1.01917 1.20211 0
M  V30 35025 C 3078.63 0.728231 1.9334 0
M  V30 35026 C 3079.04 -0.715423 1.75152 0
M  V30 35027 O 3078.39 -1.4972 1.0644 0
M  V30 35028 C 3078.45 0.98736 3.45675 0
M  V30 35029 C 3078.11 2.42064 3.87626 0
M  V30 35030 C 3079.11 3.40158 3.93178 0
M  V30 35031 C 3076.79 2.76206 4.19542 0
M  V30 35032 C 3078.79 4.70454 4.3006 0
M  V30 35033 C 3076.47 4.06715 4.56099 0
M  V30 35034 C 3077.47 5.03649 4.61331 0
M  V30 35035 O 3077.16 6.31822 4.97048 0
M  V30 35036 H 3076.89 0.266496 0.621254 0
M  V30 35037 H 3079.45 1.36396 1.53575 0
M  V30 35038 H 3077.68 0.294472 3.85577 0
M  V30 35039 H 3079.37 0.687607 4.00033 0
M  V30 35040 H 3080.13 3.15117 3.68682 0
M  V30 35041 H 3076.01 2.01442 4.14659 0
M  V30 35042 H 3079.55 5.46112 4.34059 0
M  V30 35043 H 3075.45 4.31533 4.80052 0
M  V30 35044 H 3076.22 6.36149 5.15031 0
M  V30 35045 N 3078.88 -1.36036 0.795742 0
M  V30 35046 C 3080.3 -1.52268 0.478172 0
M  V30 35047 C 3080.5 -1.74793 -1.00247 0
M  V30 35048 O 3079.55 -1.78308 -1.7878 0
M  V30 35049 C 3080.87 -2.70466 1.31411 0
M  V30 35050 C 3082.42 -2.84339 1.30845 0
M  V30 35051 C 3082.89 -4.05548 2.12826 0
M  V30 35052 N 3084.38 -4.12706 2.10305 0
M  V30 35053 C 3085.12 -5.05584 2.70504 0
M  V30 35054 N 3084.61 -6.03865 3.39587 0
M  V30 35055 N 3086.41 -4.98247 2.60204 0
M  V30 35056 H 3078.56 -1.1967 1.75479 0
M  V30 35057 H 3080.82 -0.584611 0.74628 0
M  V30 35058 H 3080.53 -2.60363 2.3644 0
M  V30 35059 H 3080.4 -3.64785 0.95979 0
M  V30 35060 H 3082.79 -2.93898 0.266055 0
M  V30 35061 H 3082.87 -1.90909 1.70257 0
M  V30 35062 H 3082.51 -3.96749 3.171 0
M  V30 35063 H 3082.44 -4.98138 1.70781 0
M  V30 35064 H 3084.93 -3.42342 1.60032 0
M  V30 35065 H 3085.25 -6.7131 3.82835 0
M  V30 35066 H 3083.59 -6.04071 3.4369 0
M  V30 35067 H 3086.78 -4.20418 2.0583 0
M  V30 35068 H 3086.95 -5.70441 3.0741 0
M  V30 35069 N 3080.36 -0.5483 -1.47755 0
M  V30 35070 C 3081.59 -0.0254866 -2.06584 0
M  V30 35071 C 3082 1.26968 -1.4027 0
M  V30 35072 O 3081.34 1.77038 -0.490221 0
M  V30 35073 C 3081.4 0.250238 -3.58628 0
M  V30 35074 C 3081.07 -0.954166 -4.46928 0
M  V30 35075 C 3082.06 -1.85741 -4.85588 0
M  V30 35076 C 3079.75 -1.16633 -4.88571 0
M  V30 35077 C 3081.74 -2.95658 -5.64681 0
M  V30 35078 C 3079.43 -2.2686 -5.67431 0
M  V30 35079 C 3080.43 -3.16205 -6.05395 0
M  V30 35080 O 3080.12 -4.24523 -6.82668 0
M  V30 35081 H 3079.85 -0.0387383 -0.674889 0
M  V30 35082 H 3082.4 -0.758697 -1.90874 0
M  V30 35083 H 3080.63 1.03765 -3.72518 0
M  V30 35084 H 3082.32 0.717348 -3.99511 0
M  V30 35085 H 3083.09 -1.70552 -4.54023 0
M  V30 35086 H 3078.97 -0.480119 -4.58493 0
M  V30 35087 H 3082.51 -3.65421 -5.94233 0
M  V30 35088 H 3078.41 -2.42026 -5.98409 0
M  V30 35089 H 3079.18 -4.22459 -7.01049 0
M  V30 35090 N 3081.84 1.55014 -0.28431 0
M  V30 35091 C 3083.07 2.04204 0.332912 0
M  V30 35092 C 3083.48 1.16232 1.48781 0
M  V30 35093 O 3082.84 0.184355 1.81566 0
M  V30 35094 C 3082.89 3.5242 0.805145 0
M  V30 35095 O 3082.61 4.37046 -0.303766 0
M  V30 35096 C 3084.11 4.17536 1.48924 0
M  V30 35097 H 3081.33 0.666825 0.074733 0
M  V30 35098 H 3083.88 2.0016 -0.419083 0
M  V30 35099 H 3082.03 3.56878 1.5072 0
M  V30 35100 H 3082.44 5.24465 0.0608781 0
M  V30 35101 H 3083.92 5.22819 1.77099 0
M  V30 35102 H 3084.4 3.66262 2.42382 0
M  V30 35103 H 3085 4.17107 0.830794 0
M  V30 35104 N 3083.32 0.0117398 1.57596 0
M  V30 35105 C 3084.27 -0.984634 2.05643 0
M  V30 35106 C 3085.25 -1.29608 0.953445 0
M  V30 35107 O 3086.44 -1.2851 1.21714 0
M  V30 35108 C 3083.57 -2.27282 2.57289 0
M  V30 35109 C 3082.66 -1.9905 3.74486 0
M  V30 35110 N 3083.05 -1.4102 4.85744 0
M  V30 35111 C 3081.35 -2.29133 3.82641 0
M  V30 35112 C 3082.05 -1.29526 5.67096 0
M  V30 35113 N 3081.02 -1.78488 5.13462 0
M  V30 35114 H 3084.83 -0.530651 2.8907 0
M  V30 35115 H 3082.34 -0.193688 1.61241 0
M  V30 35116 H 3084.34 -2.99516 2.89993 0
M  V30 35117 H 3083 -2.73322 1.75286 0
M  V30 35118 H 3084.01 -1.08747 5.06354 0
M  V30 35119 H 3080.68 -2.77967 3.11513 0
M  V30 35120 H 3082.07 -0.848027 6.66527 0
M  V30 35121 N 3084.79 -1.55421 -0.261185 0
M  V30 35122 C 3086.07 -1.67314 -1.01318 0
M  V30 35123 C 3086.45 -0.547391 -2.03879 0
M  V30 35124 O 3085.8 0.451044 -2.24004 0
M  V30 35125 C 3086.01 -3.07027 -1.65938 0
M  V30 35126 C 3087.36 -3.65163 -2.16659 0
M  V30 35127 O 3088.38 -3.09736 -1.75904 0
M  V30 35128 O 3087.24 -4.62299 -2.91447 0
M  V30 35129 H 3084.33 -0.679977 -0.470703 0
M  V30 35130 H 3086.88 -1.67756 -0.256104 0
M  V30 35131 H 3085.65 -3.80408 -0.916801 0
M  V30 35132 H 3085.28 -3.10535 -2.48302 0
M  V30 35133 N 3086.27 0.526227 -1.48555 0
M  V30 35134 C 3087.22 1.62671 -1.59756 0
M  V30 35135 C 3088.21 1.54348 -0.454479 0
M  V30 35136 O 3089.4 1.62305 -0.70612 0
M  V30 35137 C 3086.53 3.0138 -1.64393 0
M  V30 35138 C 3085.61 3.14793 -2.84194 0
M  V30 35139 N 3086 2.98168 -4.0857 0
M  V30 35140 C 3084.3 3.45854 -2.81605 0
M  V30 35141 C 3085 3.15097 -4.88967 0
M  V30 35142 N 3083.98 3.42841 -4.21854 0
M  V30 35143 H 3087.78 1.48434 -2.53662 0
M  V30 35144 H 3085.3 0.731776 -1.44979 0
M  V30 35145 H 3087.29 3.80436 -1.70512 0
M  V30 35146 H 3085.95 3.16706 -0.716062 0
M  V30 35147 H 3086.96 2.74855 -4.38948 0
M  V30 35148 H 3083.64 3.67514 -1.9809 0
M  V30 35149 H 3085.03 3.0695 -5.97688 0
M  V30 35150 N 3087.75 1.37206 0.775387 0
M  V30 35151 C 3089.03 1.22751 1.52288 0
M  V30 35152 C 3089.41 -0.180451 2.10327 0
M  V30 35153 O 3088.76 -1.18768 1.95209 0
M  V30 35154 C 3088.97 2.32064 2.60667 0
M  V30 35155 C 3090.31 2.69426 3.28169 0
M  V30 35156 O 3091.34 2.31213 2.70959 0
M  V30 35157 O 3090.2 3.35247 4.31592 0
M  V30 35158 H 3087.29 0.478774 0.674318 0
M  V30 35159 H 3089.84 1.48976 0.812664 0
M  V30 35160 H 3088.61 3.26365 2.15874 0
M  V30 35161 H 3088.23 2.07283 3.39293 0
M  V30 35162 N 3089.23 -1.00115 1.21716 0
M  V30 35163 C 3090.19 -2.07127 0.981374 0
M  V30 35164 C 3091.19 -1.60725 -0.0490833 0
M  V30 35165 O 3092.38 -1.73176 0.188586 0
M  V30 35166 C 3089.51 -3.37494 0.480667 0
M  V30 35167 H 3090.71 -2.29478 1.93079 0
M  V30 35168 H 3088.26 -1.17149 1.03469 0
M  V30 35169 H 3088.99 -3.20825 -0.473495 0
M  V30 35170 H 3088.78 -3.72506 1.224 0
M  V30 35171 H 3090.27 -4.16249 0.335684 0
M  V30 35172 N 3090.71 -1.02553 -1.19669 0
M  V30 35173 C 3091.64 -0.548037 -2.21522 0
M  V30 35174 C 3092.62 0.409322 -1.57364 0
M  V30 35175 O 3093.8 0.327215 -1.85638 0
M  V30 35176 C 3090.93 0.201316 -3.38101 0
M  V30 35177 C 3089.98 -0.70696 -4.206 0
M  V30 35178 S 3090.81 -2.18124 -4.89062 0
M  V30 35179 C 3091.96 -1.44231 -6.09055 0
M  V30 35180 H 3092.2 -1.41103 -2.61681 0
M  V30 35181 H 3089.73 -0.835176 -1.29862 0
M  V30 35182 H 3091.69 0.627536 -4.05675 0
M  V30 35183 H 3090.35 1.04 -2.96383 0
M  V30 35184 H 3089.54 -0.128643 -5.03836 0
M  V30 35185 H 3089.14 -1.07135 -3.58327 0
M  V30 35186 H 3091.44 -0.727093 -6.73587 0
M  V30 35187 H 3092.38 -2.25114 -6.71364 0
M  V30 35188 H 3092.79 -0.941273 -5.56597 0
M  V30 35189 N 3092.19 1.35612 -0.802945 0
M  V30 35190 C 3093.13 2.31749 -0.198824 0
M  V30 35191 C 3094.13 1.56459 0.649388 0
M  V30 35192 O 3095.33 1.71616 0.542959 0
M  V30 35193 H 3091.71 0.75062 -0.0455309 0
M  V30 35194 H 3093.68 2.80249 -1.02484 0
M  V30 35195 C 3092.43 3.4174 0.641006 0
M  V30 35196 H 3091.75 3.998 -0.00233272 0
M  V30 35197 H 3093.19 4.11295 1.03015 0
M  V30 35198 C 3091.65 2.84467 1.805 0
M  V30 35199 O 3092.18 2.77722 2.9023 0
M  V30 35200 N 3090.39 2.41566 1.61538 0
M  V30 35201 H 3089.93 2.47251 0.722819 0
M  V30 35202 H 3089.89 2.03593 2.39577 0
M  V30 35203 N 3093.66 0.556128 1.47462 0
M  V30 35204 C 3094.89 0.0345093 2.07371 0
M  V30 35205 C 3095.31 -1.24927 1.40623 0
M  V30 35206 O 3094.67 -1.74807 0.480851 0
M  V30 35207 C 3094.72 -0.145499 3.60306 0
M  V30 35208 O 3093.82 -1.20832 3.94301 0
M  V30 35209 H 3093.16 0.050839 0.662051 0
M  V30 35210 H 3095.69 0.771502 1.89497 0
M  V30 35211 H 3095.7 -0.360041 4.06408 0
M  V30 35212 H 3094.38 0.79216 4.08286 0
M  V30 35213 H 3092.96 -0.974357 3.59945 0
M  V30 35214 N 3095.14 -1.54861 0.292527 0
M  V30 35215 C 3096.37 -2.04081 -0.321611 0
M  V30 35216 C 3096.78 -1.1697 -1.4871 0
M  V30 35217 O 3096.12 -0.186122 -1.82755 0
M  V30 35218 C 3096.18 -3.4934 -0.848617 0
M  V30 35219 C 3095.85 -4.56603 0.190496 0
M  V30 35220 C 3096.85 -5.09875 1.01604 0
M  V30 35221 C 3094.53 -5.01216 0.329754 0
M  V30 35222 C 3096.52 -6.06295 1.96687 0
M  V30 35223 C 3094.21 -5.97458 1.28403 0
M  V30 35224 C 3095.21 -6.4988 2.10108 0
M  V30 35225 O 3094.9 -7.44237 3.0392 0
M  V30 35226 H 3094.63 -0.671817 -0.0750862 0
M  V30 35227 H 3097.18 -2.00901 0.427566 0
M  V30 35228 H 3095.41 -3.49817 -1.64817 0
M  V30 35229 H 3097.1 -3.81803 -1.37772 0
M  V30 35230 H 3097.87 -4.76208 0.919281 0
M  V30 35231 H 3093.75 -4.60047 -0.296237 0
M  V30 35232 H 3097.29 -6.47136 2.605 0
M  V30 35233 H 3093.19 -6.30542 1.38155 0
M  V30 35234 H 3093.96 -7.62011 2.98801 0
M  V30 35235 N 3096.62 -0.0200973 -1.57587 0
M  V30 35236 C 3097.57 0.982831 -2.10816 0
M  V30 35237 C 3098.56 1.34286 -1.03265 0
M  V30 35238 O 3099.77 1.32615 -1.2171 0
M  V30 35239 H 3096.14 0.334689 -0.673414 0
M  V30 35240 H 3098.11 0.508509 -2.94035 0
M  V30 35241 C 3096.86 2.25916 -2.64305 0
M  V30 35242 H 3096.19 1.99085 -3.46706 0
M  V30 35243 H 3097.63 2.94322 -3.05205 0
M  V30 35244 C 3096.08 2.98275 -1.56633 0
M  V30 35245 O 3096.61 3.90038 -0.960893 0
M  V30 35246 N 3094.82 2.60451 -1.28894 0
M  V30 35247 H 3094.37 1.85909 -1.78314 0
M  V30 35248 H 3094.33 3.09176 -0.570751 0
M  V30 35249 N 3098.1 1.55557 0.252939 0
M  V30 35250 C 3099.37 1.67849 1.00429 0
M  V30 35251 C 3099.75 0.558196 2.03586 0
M  V30 35252 O 3099.1 -0.439158 2.2424 0
M  V30 35253 C 3099.31 3.07903 1.64307 0
M  V30 35254 C 3100.66 3.66307 2.1472 0
M  V30 35255 O 3101.68 3.10664 1.74259 0
M  V30 35256 O 3100.54 4.63838 2.88992 0
M  V30 35257 H 3097.64 0.682463 0.46709 0
M  V30 35258 H 3100.18 1.6789 0.247204 0
M  V30 35259 H 3098.96 3.80889 0.896614 0
M  V30 35260 H 3098.58 3.11847 2.46652 0
M  V30 35261 N 3099.58 -0.518341 1.48832 0
M  V30 35262 C 3100.52 -1.64265 1.64681 0
M  V30 35263 C 3101.52 -1.61446 0.512995 0
M  V30 35264 O 3102.72 -1.66163 0.692092 0
M  V30 35265 H 3099.1 -0.544215 0.518974 0
M  V30 35266 H 3101.07 -1.48045 2.59085 0
M  V30 35267 C 3099.82 -3.02487 1.71454 0
M  V30 35268 H 3099.14 -3.05356 2.58066 0
M  V30 35269 H 3100.58 -3.80739 1.86584 0
M  V30 35270 C 3099.04 -3.33805 0.455643 0
M  V30 35271 O 3099.57 -3.99431 -0.426357 0
M  V30 35272 N 3097.78 -2.8879 0.323814 0
M  V30 35273 H 3097.32 -2.35561 1.04253 0
M  V30 35274 H 3097.28 -3.10112 -0.517459 0
M  V30 35275 N 3101.05 -1.37615 -0.7681 0
M  V30 35276 C 3102.3 -1.32347 -1.52207 0
M  V30 35277 C 3102.62 0.0885418 -1.95399 0
M  V30 35278 O 3103.82 0.263705 -2.70216 0
M  V30 35279 C 3102.28 -2.32326 -2.74868 0
M  V30 35280 C 3101.89 -3.79075 -2.3876 0
M  V30 35281 C 3103.63 -2.36076 -3.52801 0
M  V30 35282 C 3101.54 -4.70776 -3.57944 0
M  V30 35283 H 3100.47 -0.491893 -0.571452 0
M  V30 35284 H 3103.12 -1.63095 -0.840976 0
M  V30 35285 H 3101.5 -1.94602 -3.44886 0
M  V30 35286 H 3102.67 -4.25657 -1.76502 0
M  V30 35287 H 3100.99 -3.78306 -1.73993 0
M  V30 35288 H 3103.59 -3.0179 -4.41392 0
M  V30 35289 H 3103.93 -1.37542 -3.92922 0
M  V30 35290 H 3104.46 -2.72526 -2.89783 0
M  V30 35291 H 3101.2 -5.70452 -3.22901 0
M  V30 35292 H 3100.72 -4.28896 -4.19295 0
M  V30 35293 H 3102.4 -4.88088 -4.24711 0
M  V30 35294 N 3102.53 0.994677 -1.22245 0
M  V30 35295 C 3103.78 1.73397 -1.04594 0
M  V30 35296 C 3104.11 1.89929 0.419189 0
M  V30 35297 O 3103.36 1.43827 1.32712 0
M  V30 35298 C 3103.66 3.14369 -1.7002 0
M  V30 35299 C 3103.33 3.17756 -3.19909 0
M  V30 35300 C 3101.99 3.18388 -3.60808 0
M  V30 35301 C 3104.34 3.14186 -4.15856 0
M  V30 35302 C 3101.67 3.13148 -4.9614 0
M  V30 35303 C 3104.02 3.10488 -5.51162 0
M  V30 35304 C 3102.68 3.09434 -5.91445 0
M  V30 35305 H 3101.95 0.634503 -0.382736 0
M  V30 35306 H 3104.6 1.16505 -1.51983 0
M  V30 35307 H 3102.91 3.74558 -1.14951 0
M  V30 35308 H 3104.6 3.70311 -1.53854 0
M  V30 35309 H 3101.19 3.18014 -2.87342 0
M  V30 35310 H 3105.38 3.1285 -3.85277 0
M  V30 35311 H 3100.63 3.10676 -5.26584 0
M  V30 35312 H 3104.81 3.06681 -6.25236 0
M  V30 35313 H 3102.43 3.05129 -6.96276 0
M  V30 35314 N 3104.01 1.03186 1.19123 0
M  V30 35315 C 3104.96 0.60882 2.24491 0
M  V30 35316 C 3105.95 -0.360036 1.6553 0
M  V30 35317 O 3107.16 -0.228289 1.78546 0
M  V30 35318 H 3103.53 0.178628 0.730476 0
M  V30 35319 H 3105.5 1.50807 2.57487 0
M  V30 35320 C 3104.25 -0.0214515 3.47693 0
M  V30 35321 H 3103.58 0.715093 3.93353 0
M  V30 35322 H 3105.02 -0.280354 4.23072 0
M  V30 35323 C 3103.47 -1.26891 3.1209 0
M  V30 35324 O 3104 -2.36065 3.25017 0
M  V30 35325 N 3102.21 -1.15881 2.66496 0
M  V30 35326 H 3101.76 -0.270418 2.56177 0
M  V30 35327 H 3101.72 -1.9944 2.43045 0
M  V30 35328 N 3105.49 -1.35184 0.810125 0
M  V30 35329 C 3106.44 -2.3164 0.211112 0
M  V30 35330 C 3107.43 -1.56801 -0.641082 0
M  V30 35331 O 3108.64 -1.71901 -0.53385 0
M  V30 35332 H 3105.01 -0.750368 0.049511 0
M  V30 35333 H 3106.98 -2.79702 1.03969 0
M  V30 35334 C 3105.73 -3.42075 -0.622873 0
M  V30 35335 H 3105.05 -3.99793 0.023535 0
M  V30 35336 H 3106.49 -4.11836 -1.00833 0
M  V30 35337 C 3104.95 -2.8542 -1.78989 0
M  V30 35338 O 3105.48 -2.79257 -2.88753 0
M  V30 35339 N 3103.69 -2.42419 -1.60254 0
M  V30 35340 H 3103.24 -2.47631 -0.709697 0
M  V30 35341 H 3103.19 -2.04861 -2.38494 0
M  V30 35342 N 3106.97 -0.56394 -1.47165 0
M  V30 35343 C 3107.91 0.179973 -2.30097 0
M  V30 35344 C 3108.88 0.901995 -1.39475 0
M  V30 35345 O 3110.07 0.896366 -1.68434 0
M  V30 35346 C 3107.21 1.19972 -3.23575 0
M  V30 35347 C 3106.32 0.483073 -4.29291 0
M  V30 35348 C 3105.46 1.4887 -5.09913 0
M  V30 35349 C 3104.5 0.757406 -6.07396 0
M  V30 35350 N 3103.63 1.71019 -6.80953 0
M  V30 35351 H 3108.47 -0.533341 -2.93188 0
M  V30 35352 H 3106.01 -0.27484 -1.4451 0
M  V30 35353 H 3107.97 1.80361 -3.76199 0
M  V30 35354 H 3106.6 1.88098 -2.62334 0
M  V30 35355 H 3105.65 -0.235481 -3.7967 0
M  V30 35356 H 3106.96 -0.0894952 -4.9872 0
M  V30 35357 H 3106.12 2.16593 -5.66721 0
M  V30 35358 H 3104.85 2.09519 -4.40401 0
M  V30 35359 H 3103.86 0.0662874 -5.4976 0
M  V30 35360 H 3105.08 0.156566 -6.78919 0
M  V30 35361 H 3103.03 2.30513 -6.14166 0
M  V30 35362 H 3102.95 1.18994 -7.46576 0
M  V30 35363 H 3104.22 2.37835 -7.4233 0
M  V30 35364 N 3108.44 1.54704 -0.300735 0
M  V30 35365 C 3109.35 2.2719 0.584956 0
M  V30 35366 C 3110.37 1.30699 1.14864 0
M  V30 35367 O 3111.55 1.63681 1.17348 0
M  V30 35368 C 3108.61 2.99834 1.74071 0
M  V30 35369 C 3107.67 4.11862 1.21113 0
M  V30 35370 C 3106.91 4.81032 2.3118 0
M  V30 35371 O 3107.13 4.4956 3.51072 0
M  V30 35372 O 3106.06 5.6844 1.97887 0
M  V30 35373 H 3109.89 3.037 -0.00303516 0
M  V30 35374 H 3107.47 1.49249 -0.0672064 0
M  V30 35375 H 3109.36 3.454 2.41407 0
M  V30 35376 H 3108.03 2.26219 2.31531 0
M  V30 35377 H 3106.94 3.70696 0.503505 0
M  V30 35378 H 3108.27 4.87453 0.68196 0
M  V30 35379 N 3109.92 0.0284543 1.57574 0
M  V30 35380 C 3110.85 -0.952002 2.13212 0
M  V30 35381 C 3111.83 -1.33975 1.04808 0
M  V30 35382 O 3113.02 -1.41849 1.32637 0
M  V30 35383 C 3110.15 -2.23456 2.65866 0
M  V30 35384 C 3109.1 -1.98758 3.7905 0
M  V30 35385 C 3108.43 -3.33274 4.1813 0
M  V30 35386 C 3109.73 -1.3273 5.05153 0
M  V30 35387 H 3111.42 -0.488653 2.95385 0
M  V30 35388 H 3108.97 -0.233603 1.42093 0
M  V30 35389 H 3110.92 -2.92426 3.03423 0
M  V30 35390 H 3109.65 -2.71956 1.80852 0
M  V30 35391 H 3108.3 -1.32207 3.41931 0
M  V30 35392 H 3107.95 -3.79531 3.30099 0
M  V30 35393 H 3107.65 -3.17555 4.94401 0
M  V30 35394 H 3109.18 -4.03512 4.58269 0
M  V30 35395 H 3110.59 -1.91698 5.403 0
M  V30 35396 H 3108.99 -1.27411 5.86418 0
M  V30 35397 H 3110.06 -0.300176 4.8397 0
M  V30 35398 N 3111.4 -1.55689 -0.244686 0
M  V30 35399 C 3112.33 -1.93518 -1.30664 0
M  V30 35400 C 3113.31 -0.800397 -1.50092 0
M  V30 35401 O 3114.5 -1.06086 -1.62663 0
M  V30 35402 C 3111.63 -2.23181 -2.66097 0
M  V30 35403 C 3110.58 -3.38932 -2.61361 0
M  V30 35404 C 3109.91 -3.54141 -4.00609 0
M  V30 35405 C 3111.21 -4.74559 -2.18153 0
M  V30 35406 H 3112.9 -2.82471 -0.992497 0
M  V30 35407 H 3110.45 -1.35905 -0.475994 0
M  V30 35408 H 3112.4 -2.48234 -3.40526 0
M  V30 35409 H 3111.12 -1.31056 -2.99152 0
M  V30 35410 H 3109.78 -3.1389 -1.8939 0
M  V30 35411 H 3109.43 -2.59433 -4.30933 0
M  V30 35412 H 3109.13 -4.31982 -3.98328 0
M  V30 35413 H 3110.65 -3.81519 -4.76735 0
M  V30 35414 H 3112.07 -4.9897 -2.82314 0
M  V30 35415 H 3110.47 -5.55519 -2.26978 0
M  V30 35416 H 3111.54 -4.71472 -1.13324 0
M  V30 35417 N 3112.88 0.510441 -1.49105 0
M  V30 35418 C 3113.83 1.63389 -1.6555 0
M  V30 35419 C 3114.82 1.61171 -0.52155 0
M  V30 35420 O 3116.03 1.65793 -0.700894 0
M  V30 35421 H 3112.4 0.541455 -0.521853 0
M  V30 35422 H 3114.37 1.46669 -2.59867 0
M  V30 35423 C 3113.12 3.01574 -1.73056 0
M  V30 35424 H 3112.44 3.03983 -2.59682 0
M  V30 35425 H 3113.88 3.79744 -1.886 0
M  V30 35426 C 3112.34 3.33558 -0.473339 0
M  V30 35427 O 3112.87 3.99651 0.405169 0
M  V30 35428 N 3111.08 2.88614 -0.339125 0
M  V30 35429 H 3110.63 2.35005 -1.05501 0
M  V30 35430 H 3110.58 3.10382 0.501006 0
M  V30 35431 N 3114.36 1.38021 0.760791 0
M  V30 35432 C 3115.3 1.3467 1.87437 0
M  V30 35433 C 3116.27 0.210415 1.64762 0
M  V30 35434 O 3117.46 0.401512 1.86528 0
M  V30 35435 C 3114.6 1.17043 3.24646 0
M  V30 35436 C 3113.71 2.39996 3.59201 0
M  V30 35437 C 3112.85 2.15156 4.85676 0
M  V30 35438 C 3111.89 3.33919 5.12996 0
M  V30 35439 N 3111.02 3.0856 6.30663 0
M  V30 35440 H 3115.86 2.29874 1.89636 0
M  V30 35441 H 3113.4 1.14217 0.926984 0
M  V30 35442 H 3115.36 1.04842 4.03812 0
M  V30 35443 H 3113.99 0.254814 3.21793 0
M  V30 35444 H 3113.04 2.62898 2.74935 0
M  V30 35445 H 3114.35 3.28534 3.75323 0
M  V30 35446 H 3113.51 2.00049 5.7277 0
M  V30 35447 H 3112.24 1.23974 4.7168 0
M  V30 35448 H 3111.25 3.49553 4.24373 0
M  V30 35449 H 3112.47 4.25968 5.28894 0
M  V30 35450 H 3110.42 2.20017 6.18004 0
M  V30 35451 H 3110.34 3.90644 6.47251 0
M  V30 35452 H 3111.61 2.97093 7.20664 0
M  V30 35453 N 3115.83 -0.98818 1.22771 0
M  V30 35454 C 3117.08 -1.72262 1.04923 0
M  V30 35455 C 3117.4 -1.91141 -0.415249 0
M  V30 35456 O 3118.6 -2.61957 -0.713501 0
M  V30 35457 C 3117.06 -3.09963 1.82896 0
M  V30 35458 C 3116.67 -2.98998 3.33623 0
M  V30 35459 C 3118.41 -3.8742 1.73512 0
M  V30 35460 C 3116.32 -4.31882 4.04019 0
M  V30 35461 H 3115.25 -0.645906 0.389001 0
M  V30 35462 H 3117.9 -1.10279 1.46666 0
M  V30 35463 H 3116.28 -3.72656 1.33955 0
M  V30 35464 H 3117.45 -2.45441 3.89994 0
M  V30 35465 H 3115.77 -2.35021 3.43736 0
M  V30 35466 H 3118.37 -4.85784 2.23424 0
M  V30 35467 H 3118.71 -4.10434 0.696416 0
M  V30 35468 H 3119.24 -3.31414 2.20022 0
M  V30 35469 H 3115.98 -4.14067 5.08163 0
M  V30 35470 H 3115.5 -4.85333 3.52437 0
M  V30 35471 H 3117.18 -5.00608 4.09879 0
M  V30 35472 N 3117.31 -1.03816 -1.18575 0
M  V30 35473 C 3118.56 -0.740069 -1.88492 0
M  V30 35474 C 3118.89 0.732024 -1.80199 0
M  V30 35475 O 3118.14 1.54969 -1.19512 0
M  V30 35476 C 3118.44 -1.14843 -3.38446 0
M  V30 35477 C 3118.11 -2.62038 -3.66943 0
M  V30 35478 C 3116.77 -3.02251 -3.7443 0
M  V30 35479 C 3119.12 -3.57223 -3.79527 0
M  V30 35480 C 3116.45 -4.36543 -3.91979 0
M  V30 35481 C 3118.8 -4.9123 -3.98592 0
M  V30 35482 C 3117.47 -5.31118 -4.04314 0
M  V30 35483 H 3116.74 -0.270811 -0.689741 0
M  V30 35484 H 3119.38 -1.30272 -1.40362 0
M  V30 35485 H 3117.69 -0.504541 -3.88538 0
M  V30 35486 H 3119.38 -0.895179 -3.9088 0
M  V30 35487 H 3115.97 -2.29889 -3.6173 0
M  V30 35488 H 3120.16 -3.27302 -3.73077 0
M  V30 35489 H 3115.41 -4.66969 -3.94652 0
M  V30 35490 H 3119.59 -5.64892 -4.07271 0
M  V30 35491 H 3117.22 -6.35185 -4.17664 0
M  V30 35492 N 3118.79 1.34753 -0.817283 0
M  V30 35493 C 3120.21 1.51488 -0.502336 0
M  V30 35494 C 3120.41 1.76366 0.974537 0
M  V30 35495 O 3119.46 1.8113 1.75921 0
M  V30 35496 C 3120.78 2.68341 -1.35697 0
M  V30 35497 C 3122.32 2.82221 -1.35352 0
M  V30 35498 C 3122.8 4.02111 -2.19251 0
M  V30 35499 N 3124.29 4.09308 -2.16845 0
M  V30 35500 C 3125.02 5.01216 -2.78514 0
M  V30 35501 N 3124.52 5.98386 -3.49151 0
M  V30 35502 N 3126.31 4.94044 -2.68098 0
M  V30 35503 H 3118.46 1.16863 -1.77361 0
M  V30 35504 H 3120.73 0.572664 -0.755486 0
M  V30 35505 H 3120.43 2.56569 -2.40552 0
M  V30 35506 H 3120.31 3.63212 -1.0177 0
M  V30 35507 H 3122.69 2.93438 -0.312778 0
M  V30 35508 H 3122.78 1.88176 -1.73273 0
M  V30 35509 H 3122.42 3.91654 -3.23372 0
M  V30 35510 H 3122.35 4.95358 -1.78684 0
M  V30 35511 H 3124.84 3.39753 -1.65458 0
M  V30 35512 H 3125.15 6.65135 -3.93467 0
M  V30 35513 H 3123.5 5.98527 -3.53257 0
M  V30 35514 H 3126.69 4.17091 -2.12493 0
M  V30 35515 H 3126.86 5.65478 -3.16446 0
M  V30 35516 N 3120.27 0.571737 1.46864 0
M  V30 35517 C 3121.69 0.232578 1.57896 0
M  V30 35518 C 3121.89 -1.26506 1.56839 0
M  V30 35519 O 3120.94 -2.04614 1.4795 0
M  V30 35520 C 3122.25 0.872086 2.87776 0
M  V30 35521 C 3123.8 0.844658 3.01388 0
M  V30 35522 C 3124.28 1.4635 4.33988 0
M  V30 35523 N 3125.77 1.42734 4.4066 0
M  V30 35524 C 3126.5 1.87566 5.41855 0
M  V30 35525 N 3126 2.40321 6.49783 0
M  V30 35526 N 3127.79 1.78549 5.32988 0
M  V30 35527 H 3119.94 1.54459 1.45795 0
M  V30 35528 H 3122.21 0.644976 0.694773 0
M  V30 35529 H 3121.91 1.92518 2.94329 0
M  V30 35530 H 3121.79 0.373743 3.75344 0
M  V30 35531 H 3124.17 -0.199788 2.94423 0
M  V30 35532 H 3124.25 1.38091 2.15324 0
M  V30 35533 H 3123.9 2.50709 4.4171 0
M  V30 35534 H 3123.83 0.902571 5.18807 0
M  V30 35535 H 3126.32 1.04161 3.63261 0
M  V30 35536 H 3126.63 2.72416 7.23194 0
M  V30 35537 H 3124.98 2.4434 6.50633 0
M  V30 35538 H 3128.17 1.37101 4.47572 0
M  V30 35539 H 3128.34 2.13805 6.11712 0
M  V30 35540 N 3121.75 -1.54542 0.308935 0
M  V30 35541 C 3122.71 -2.22483 -0.550818 0
M  V30 35542 C 3123.71 -1.21345 -1.05508 0
M  V30 35543 O 3124.9 -1.46026 -0.94984 0
M  V30 35544 C 3122.03 -2.91743 -1.76349 0
M  V30 35545 H 3123.23 -2.99869 0.0428922 0
M  V30 35546 H 3120.78 -1.56185 0.0598524 0
M  V30 35547 H 3121.51 -2.18456 -2.39682 0
M  V30 35548 H 3121.3 -3.65891 -1.40947 0
M  V30 35549 H 3122.79 -3.43549 -2.37411 0
M  V30 35550 N 3123.23 -0.0368104 -1.57557 0
M  V30 35551 C 3124.46 0.64919 -1.96135 0
M  V30 35552 C 3124.86 1.65752 -0.912308 0
M  V30 35553 O 3124.21 1.83349 0.113536 0
M  V30 35554 C 3124.27 1.40539 -3.30891 0
M  V30 35555 C 3123.93 0.55453 -4.53623 0
M  V30 35556 C 3124.93 -0.173401 -5.19611 0
M  V30 35557 C 3122.61 0.489672 -4.99907 0
M  V30 35558 C 3124.61 -0.954781 -6.30208 0
M  V30 35559 C 3122.3 -0.295407 -6.10386 0
M  V30 35560 C 3123.29 -1.01633 -6.75396 0
M  V30 35561 O 3122.98 -1.78853 -7.83752 0
M  V30 35562 H 3122.71 0.183332 -0.650665 0
M  V30 35563 H 3125.27 -0.0951873 -2.05179 0
M  V30 35564 H 3123.5 2.19508 -3.1836 0
M  V30 35565 H 3125.19 1.98024 -3.54318 0
M  V30 35566 H 3125.95 -0.132675 -4.84818 0
M  V30 35567 H 3121.83 1.04038 -4.49107 0
M  V30 35568 H 3125.38 -1.51801 -6.80884 0
M  V30 35569 H 3121.27 -0.337823 -6.44615 0
M  V30 35570 H 3122.04 -1.70912 -8.00457 0
M  V30 35571 N 3124.7 1.55817 0.236426 0
M  V30 35572 C 3125.98 1.68905 0.986434 0
M  V30 35573 C 3126.36 0.579758 2.02983 0
M  V30 35574 O 3125.71 -0.415349 2.24693 0
M  V30 35575 C 3125.92 3.09628 1.61032 0
M  V30 35576 C 3127.27 3.68564 2.10822 0
M  V30 35577 O 3128.29 3.12495 1.70954 0
M  V30 35578 O 3127.15 4.66878 2.84056 0
M  V30 35579 H 3124.24 0.687379 0.459825 0
M  V30 35580 H 3126.79 1.68143 0.229383 0
M  V30 35581 H 3125.56 3.81819 0.856165 0
M  V30 35582 H 3125.18 3.14446 2.4333 0
M  V30 35583 N 3126.18 -0.502526 1.49373 0
M  V30 35584 C 3127.13 -1.62509 1.66414 0
M  V30 35585 C 3128.12 -1.60893 0.53009 0
M  V30 35586 O 3129.33 -1.65419 0.709677 0
M  V30 35587 H 3125.7 -0.53868 0.524717 0
M  V30 35588 H 3127.68 -1.45289 2.60641 0
M  V30 35589 C 3126.42 -3.00652 1.74653 0
M  V30 35590 H 3125.75 -3.02601 2.6129 0
M  V30 35591 H 3127.19 -3.78739 1.90612 0
M  V30 35592 C 3125.65 -3.33303 0.491022 0
M  V30 35593 O 3126.18 -3.99861 -0.383968 0
M  V30 35594 N 3124.38 -2.88431 0.354426 0
M  V30 35595 H 3123.93 -2.34442 1.06746 0
M  V30 35596 H 3123.89 -3.10644 -0.484539 0
M  V30 35597 N 3127.66 -1.38422 -0.75346 0
M  V30 35598 C 3128.89 -1.37671 -1.54046 0
M  V30 35599 C 3129.3 0.0353324 -1.89167 0
M  V30 35600 O 3128.64 1.01236 -1.53287 0
M  V30 35601 C 3128.7 -2.16798 -2.86773 0
M  V30 35602 C 3128.37 -3.65608 -2.74189 0
M  V30 35603 C 3129.36 -4.59098 -2.43977 0
M  V30 35604 C 3127.05 -4.08965 -2.91638 0
M  V30 35605 C 3129.04 -5.93926 -2.31368 0
M  V30 35606 C 3126.73 -5.43873 -2.78649 0
M  V30 35607 C 3127.73 -6.36167 -2.48557 0
M  V30 35608 O 3127.42 -7.68593 -2.35626 0
M  V30 35609 H 3127.15 -0.472682 -0.483268 0
M  V30 35610 H 3129.7 -1.82616 -0.940235 0
M  V30 35611 H 3127.93 -1.66571 -3.48986 0
M  V30 35612 H 3129.62 -2.08453 -3.48285 0
M  V30 35613 H 3130.39 -4.26906 -2.30165 0
M  V30 35614 H 3126.27 -3.37474 -3.14057 0
M  V30 35615 H 3129.81 -6.65931 -2.07802 0
M  V30 35616 H 3125.71 -5.75662 -2.92034 0
M  V30 35617 H 3126.47 -7.79117 -2.50838 0
M  V30 35618 N 3129.14 0.981655 -1.23294 0
M  V30 35619 C 3130.38 1.72277 -1.06427 0
M  V30 35620 C 3130.71 1.90363 0.399021 0
M  V30 35621 O 3129.97 1.45226 1.31179 0
M  V30 35622 C 3130.27 3.12548 -1.73344 0
M  V30 35623 C 3129.93 3.14345 -3.23261 0
M  V30 35624 C 3128.59 3.14543 -3.64165 0
M  V30 35625 C 3130.95 3.09758 -4.19165 0
M  V30 35626 C 3128.27 3.07868 -4.99434 0
M  V30 35627 C 3130.63 3.04625 -5.54424 0
M  V30 35628 C 3129.29 3.03144 -5.94693 0
M  V30 35629 H 3128.56 0.630408 -0.389445 0
M  V30 35630 H 3131.21 1.14887 -1.5321 0
M  V30 35631 H 3129.51 3.73317 -1.18918 0
M  V30 35632 H 3131.21 3.68658 -1.57773 0
M  V30 35633 H 3127.8 3.14948 -2.90699 0
M  V30 35634 H 3131.98 3.08746 -3.88574 0
M  V30 35635 H 3127.24 3.05073 -5.29849 0
M  V30 35636 H 3131.41 3.00032 -6.28453 0
M  V30 35637 H 3129.04 2.97726 -6.99473 0
M  V30 35638 N 3130.62 1.04444 1.18022 0
M  V30 35639 C 3131.86 0.745218 1.87428 0
M  V30 35640 C 3132.18 -0.730174 1.8146 0
M  V30 35641 O 3133.38 -1.14305 2.46265 0
M  V30 35642 C 3131.84 1.28277 3.36263 0
M  V30 35643 C 3131.45 2.78706 3.50752 0
M  V30 35644 C 3133.19 1.06025 4.11046 0
M  V30 35645 C 3131.1 3.258 4.93567 0
M  V30 35646 H 3130.03 0.275073 0.702034 0
M  V30 35647 H 3132.68 1.26076 1.33331 0
M  V30 35648 H 3131.06 0.695071 3.89852 0
M  V30 35649 H 3132.24 3.43266 3.07417 0
M  V30 35650 H 3130.55 2.99413 2.8938 0
M  V30 35651 H 3133.15 1.3872 5.16392 0
M  V30 35652 H 3133.49 -0.00234398 4.163 0
M  V30 35653 H 3134.02 1.61276 3.63641 0
M  V30 35654 H 3130.76 4.31456 4.93484 0
M  V30 35655 H 3130.28 2.65977 5.37602 0
M  V30 35656 H 3131.96 3.20041 5.62301 0
M  V30 35657 N 3132.09 -1.34317 0.824418 0
M  V30 35658 C 3133.32 -2.02462 0.42623 0
M  V30 35659 C 3133.74 -1.6208 -0.96827 0
M  V30 35660 O 3133.09 -0.826989 -1.62687 0
M  V30 35661 C 3133.14 -3.57733 0.520527 0
M  V30 35662 O 3132.87 -3.96652 1.86007 0
M  V30 35663 C 3134.37 -4.43144 0.117431 0
M  V30 35664 H 3131.59 -0.648878 0.170875 0
M  V30 35665 H 3134.13 -1.7156 1.11299 0
M  V30 35666 H 3132.29 -3.8722 -0.118165 0
M  V30 35667 H 3132.7 -4.9134 1.83537 0
M  V30 35668 H 3134.17 -5.51502 0.234492 0
M  V30 35669 H 3134.65 -4.2904 -0.939196 0
M  V30 35670 H 3135.26 -4.18988 0.729981 0
M  V30 35671 N 3133.57 -0.579517 -1.46558 0
M  V30 35672 C 3134.98 -0.152084 -1.8608 0
M  V30 35673 C 3135.33 1.28402 -1.48348 0
M  V30 35674 O 3134.46 1.96939 -0.896885 0
M  V30 35675 C 3135.05 -0.26923 -3.37729 0
M  V30 35676 C 3133.61 0.10331 -3.76258 0
M  V30 35677 C 3132.76 -0.606638 -2.70583 0
M  V30 35678 H 3135.71 -0.787928 -1.37758 0
M  V30 35679 H 3135.73 0.506273 -3.77117 0
M  V30 35680 H 3135.24 -1.31455 -3.65159 0
M  V30 35681 H 3133.34 1.14889 -3.54445 0
M  V30 35682 H 3133.46 -0.270785 -4.78334 0
M  V30 35683 H 3131.82 -0.0472431 -2.54656 0
M  V30 35684 H 3132.6 -1.65354 -3.00853 0
M  V30 35685 N 3135.05 1.54376 -0.317127 0
M  V30 35686 C 3136.3 2.00747 0.2878 0
M  V30 35687 C 3136.63 1.20504 1.5229 0
M  V30 35688 O 3135.9 0.28566 1.92391 0
M  V30 35689 C 3136.19 3.54575 0.628361 0
M  V30 35690 C 3136.04 4.45548 -0.617 0
M  V30 35691 C 3137.36 4.15578 1.44855 0
M  V30 35692 H 3134.48 0.729749 0.103131 0
M  V30 35693 H 3137.12 1.85014 -0.432428 0
M  V30 35694 H 3135.27 3.68113 1.24197 0
M  V30 35695 H 3136.94 4.43891 -1.25534 0
M  V30 35696 H 3135.19 4.15486 -1.24713 0
M  V30 35697 H 3135.86 5.50987 -0.33434 0
M  V30 35698 H 3138.33 4.05575 0.929944 0
M  V30 35699 H 3137.21 5.23336 1.65561 0
M  V30 35700 H 3137.47 3.68488 2.44273 0
M  V30 35701 N 3136.53 0.0451655 1.57535 0
M  V30 35702 C 3137.48 -0.931276 2.11177 0
M  V30 35703 C 3138.45 -1.31273 1.01768 0
M  V30 35704 O 3139.63 -1.40325 1.29281 0
M  V30 35705 C 3136.77 -2.20291 2.65643 0
M  V30 35706 C 3135.88 -1.87647 3.89118 0
M  V30 35707 C 3135.02 -3.09224 4.31919 0
M  V30 35708 C 3134.06 -2.72474 5.4811 0
M  V30 35709 N 3133.19 -3.86726 5.85993 0
M  V30 35710 H 3138.03 -0.466934 2.94319 0
M  V30 35711 H 3135.57 -0.21886 1.45463 0
M  V30 35712 H 3137.53 -2.94692 2.95318 0
M  V30 35713 H 3136.16 -2.64312 1.85307 0
M  V30 35714 H 3135.21 -1.0342 3.66072 0
M  V30 35715 H 3136.52 -1.56592 4.73582 0
M  V30 35716 H 3135.68 -3.91931 4.63115 0
M  V30 35717 H 3134.42 -3.43453 3.46253 0
M  V30 35718 H 3133.42 -1.88183 5.16592 0
M  V30 35719 H 3134.65 -2.39444 6.35487 0
M  V30 35720 H 3132.59 -4.20766 5.03281 0
M  V30 35721 H 3132.51 -3.59349 6.65135 0
M  V30 35722 H 3133.78 -4.70089 6.21801 0
M  V30 35723 N 3138.01 -1.5594 -0.228159 0
M  V30 35724 C 3138.95 -1.92721 -1.30236 0
M  V30 35725 C 3139.95 -0.80845 -1.48864 0
M  V30 35726 O 3141.15 -0.993231 -1.50116 0
M  V30 35727 H 3137.53 -0.61235 -0.436499 0
M  V30 35728 H 3139.5 -2.82368 -0.964916 0
M  V30 35729 C 3138.25 -2.25458 -2.64696 0
M  V30 35730 H 3137.57 -3.11054 -2.51168 0
M  V30 35731 H 3139.01 -2.55083 -3.38687 0
M  V30 35732 C 3137.47 -1.0774 -3.19208 0
M  V30 35733 O 3138 -0.33509 -4.003 0
M  V30 35734 N 3136.21 -0.862986 -2.7749 0
M  V30 35735 H 3135.75 -1.46834 -2.11654 0
M  V30 35736 H 3135.71 -0.0770672 -3.14306 0
M  V30 35737 N 3139.48 0.494597 -1.49638 0
M  V30 35738 C 3140.43 1.61624 -1.67273 0
M  V30 35739 C 3141.43 1.60609 -0.538615 0
M  V30 35740 O 3142.63 1.65041 -0.71844 0
M  V30 35741 H 3139.01 0.53589 -0.527566 0
M  V30 35742 H 3140.98 1.43904 -2.61408 0
M  V30 35743 C 3139.73 2.99721 -1.76245 0
M  V30 35744 H 3139.05 3.01211 -2.62891 0
M  V30 35745 H 3140.49 3.77723 -1.92618 0
M  V30 35746 C 3138.95 3.33037 -0.50869 0
M  V30 35747 O 3139.48 4.00059 0.362757 0
M  V30 35748 N 3137.69 2.88239 -0.369717 0
M  V30 35749 H 3137.23 2.33873 -1.07988 0
M  V30 35750 H 3137.19 3.10896 0.468058 0
M  V30 35751 N 3140.96 1.3882 0.746109 0
M  V30 35752 C 3141.89 1.32543 1.86989 0
M  V30 35753 C 3142.91 0.236245 1.61077 0
M  V30 35754 O 3144.1 0.494371 1.71517 0
M  V30 35755 C 3141.2 1.03264 3.22784 0
M  V30 35756 C 3140.37 2.23241 3.76141 0
M  V30 35757 C 3139.43 1.9059 4.90471 0
M  V30 35758 O 3138.45 2.63161 5.04712 0
M  V30 35759 N 3139.66 0.865351 5.74014 0
M  V30 35760 H 3142.42 2.29384 1.92881 0
M  V30 35761 H 3139.98 1.32778 0.926369 0
M  V30 35762 H 3141.97 0.794603 3.96823 0
M  V30 35763 H 3140.54 0.15195 3.1223 0
M  V30 35764 H 3139.76 2.63064 2.93583 0
M  V30 35765 H 3141.05 3.03293 4.08523 0
M  V30 35766 H 3140.45 0.263677 5.65085 0
M  V30 35767 H 3139.01 0.687201 6.48167 0
M  V30 35768 N 3142.44 -0.975103 1.23812 0
M  V30 35769 C 3143.85 -1.53169 1.06753 0
M  V30 35770 C 3144.2 -1.92804 -0.363441 0
M  V30 35771 O 3143.33 -1.76585 -1.25086 0
M  V30 35772 C 3143.92 -2.78339 1.93166 0
M  V30 35773 C 3142.48 -3.30379 1.80351 0
M  V30 35774 C 3141.63 -2.03335 1.88548 0
M  V30 35775 H 3144.58 -0.794206 1.37397 0
M  V30 35776 H 3144.6 -3.51393 1.45957 0
M  V30 35777 H 3144.11 -2.4946 2.97307 0
M  V30 35778 H 3142.21 -3.64126 0.790141 0
M  V30 35779 H 3142.33 -3.99779 2.64033 0
M  V30 35780 H 3140.69 -2.17711 1.3219 0
M  V30 35781 H 3141.47 -1.7683 2.94255 0
M  V30 35782 N 3143.92 -1.05068 -1.17467 0
M  V30 35783 C 3144.87 -0.650551 -2.21442 0
M  V30 35784 C 3145.84 0.346674 -1.62442 0
M  V30 35785 O 3147.02 0.238371 -1.89305 0
M  V30 35786 C 3144.16 -0.0301621 -3.45087 0
M  V30 35787 C 3143.27 -1.07607 -4.18384 0
M  V30 35788 C 3142.41 -0.423131 -5.29512 0
M  V30 35789 C 3141.45 -1.45343 -5.94594 0
M  V30 35790 N 3140.58 -0.824745 -6.97239 0
M  V30 35791 H 3145.42 -1.54167 -2.55022 0
M  V30 35792 H 3142.96 -0.771054 -1.25272 0
M  V30 35793 H 3144.92 0.346959 -4.15755 0
M  V30 35794 H 3143.55 0.824426 -3.12095 0
M  V30 35795 H 3142.6 -1.57103 -3.46443 0
M  V30 35796 H 3143.91 -1.85821 -4.62895 0
M  V30 35797 H 3143.07 0.00764311 -6.067 0
M  V30 35798 H 3141.81 0.391007 -4.8613 0
M  V30 35799 H 3140.81 -1.89424 -5.16138 0
M  V30 35800 H 3142.04 -2.26945 -6.40057 0
M  V30 35801 H 3139.98 -0.0310957 -6.55993 0
M  V30 35802 H 3139.9 -1.54445 -7.40056 0
M  V30 35803 H 3141.17 -0.418703 -7.78375 0
M  V30 35804 N 3145.4 1.33878 -0.831529 0
M  V30 35805 C 3146.34 2.29359 -0.257489 0
M  V30 35806 C 3147.31 1.53991 0.622577 0
M  V30 35807 O 3148.5 1.82323 0.5624 0
M  V30 35808 C 3145.64 3.40401 0.567527 0
M  V30 35809 C 3144.75 4.30693 -0.335742 0
M  V30 35810 C 3143.89 5.28845 0.499669 0
M  V30 35811 C 3142.93 6.10776 -0.40245 0
M  V30 35812 N 3142.06 7.00991 0.394397 0
M  V30 35813 H 3146.9 2.77855 -1.07705 0
M  V30 35814 H 3144.44 1.36726 -0.542613 0
M  V30 35815 H 3146.4 4.03476 1.06126 0
M  V30 35816 H 3145.03 2.93117 1.35212 0
M  V30 35817 H 3144.08 3.68405 -0.947745 0
M  V30 35818 H 3145.39 4.8807 -1.02905 0
M  V30 35819 H 3144.55 5.97412 1.05753 0
M  V30 35820 H 3143.28 4.72027 1.22644 0
M  V30 35821 H 3142.29 5.41133 -0.972383 0
M  V30 35822 H 3143.51 6.69675 -1.12747 0
M  V30 35823 H 3141.46 6.46632 1.10469 0
M  V30 35824 H 3141.38 7.55618 -0.240341 0
M  V30 35825 H 3142.65 7.73875 0.934731 0
M  V30 35826 N 3146.87 0.587281 1.46249 0
M  V30 35827 C 3147.8 -0.131035 2.33132 0
M  V30 35828 C 3148.79 -0.879133 1.4562 0
M  V30 35829 O 3149.97 -0.853692 1.7443 0
M  V30 35830 C 3147.1 -1.1423 3.27977 0
M  V30 35831 C 3146.05 -0.508744 4.24966 0
M  V30 35832 C 3145.38 -1.62681 5.09352 0
M  V30 35833 C 3146.68 0.557031 5.19321 0
M  V30 35834 H 3148.37 0.594384 2.93441 0
M  V30 35835 H 3145.92 0.287287 1.41105 0
M  V30 35836 H 3147.87 -1.65322 3.87617 0
M  V30 35837 H 3146.6 -1.89805 2.65785 0
M  V30 35838 H 3145.26 -0.0188693 3.66595 0
M  V30 35839 H 3144.9 -2.37234 4.43542 0
M  V30 35840 H 3144.6 -1.20851 5.75038 0
M  V30 35841 H 3146.13 -2.14039 5.71856 0
M  V30 35842 H 3147.54 0.131004 5.7315 0
M  V30 35843 H 3145.94 0.895905 5.93375 0
M  V30 35844 H 3147.01 1.44156 4.62976 0
M  V30 35845 N 3148.35 -1.54206 0.325309 0
M  V30 35846 C 3149.6 -1.9978 -0.277645 0
M  V30 35847 C 3149.91 -1.21726 -1.53108 0
M  V30 35848 O 3151.12 -1.57686 -2.21014 0
M  V30 35849 C 3149.58 -3.55745 -0.545267 0
M  V30 35850 C 3149.18 -4.42635 0.691221 0
M  V30 35851 C 3150.93 -4.09783 -1.10808 0
M  V30 35852 C 3148.84 -5.90077 0.395406 0
M  V30 35853 H 3147.77 -0.746294 -0.107523 0
M  V30 35854 H 3150.42 -1.78201 0.437805 0
M  V30 35855 H 3148.8 -3.73319 -1.32095 0
M  V30 35856 H 3149.97 -4.36838 1.46661 0
M  V30 35857 H 3148.29 -3.99497 1.17437 0
M  V30 35858 H 3150.88 -5.17532 -1.34405 0
M  V30 35859 H 3151.23 -3.61873 -2.05799 0
M  V30 35860 H 3151.76 -3.95849 -0.393538 0
M  V30 35861 H 3148.5 -6.42184 1.31454 0
M  V30 35862 H 3148.02 -5.98823 -0.342245 0
M  V30 35863 H 3149.7 -6.47 0.0058825 0
M  V30 35864 N 3149.83 -0.0535194 -1.57509 0
M  V30 35865 C 3151.06 0.63276 -1.97512 0
M  V30 35866 C 3151.48 1.63446 -0.930976 0
M  V30 35867 O 3150.84 1.80993 0.105526 0
M  V30 35868 C 3150.89 1.29401 -3.36582 0
M  V30 35869 O 3149.99 2.40971 -3.34674 0
M  V30 35870 H 3149.33 0.164298 -0.643352 0
M  V30 35871 H 3151.86 -0.122616 -2.04232 0
M  V30 35872 H 3151.87 1.64514 -3.73362 0
M  V30 35873 H 3150.55 0.559903 -4.12114 0
M  V30 35874 H 3149.12 2.07787 -3.09643 0
M  V30 35875 N 3151.31 1.56059 0.219886 0
M  V30 35876 C 3152.24 1.95572 1.27568 0
M  V30 35877 C 3153.22 0.824174 1.488 0
M  V30 35878 O 3154.41 1.08661 1.60955 0
M  V30 35879 C 3151.54 2.27386 2.62513 0
M  V30 35880 C 3150.49 3.43047 2.55935 0
M  V30 35881 C 3149.82 3.6047 3.94925 0
M  V30 35882 C 3151.12 4.7797 2.10576 0
M  V30 35883 H 3152.81 2.84014 0.947432 0
M  V30 35884 H 3150.36 1.36646 0.454313 0
M  V30 35885 H 3152.31 2.5362 3.36533 0
M  V30 35886 H 3151.03 1.35799 2.97029 0
M  V30 35887 H 3149.69 3.16864 1.84372 0
M  V30 35888 H 3149.34 2.66256 4.26751 0
M  V30 35889 H 3149.04 4.38265 3.91405 0
M  V30 35890 H 3150.56 3.89055 4.70605 0
M  V30 35891 H 3151.98 5.03399 2.7434 0
M  V30 35892 H 3150.37 5.59059 2.18112 0
M  V30 35893 H 3151.44 4.73215 1.05809 0
M  V30 35894 N 3152.79 -0.486655 1.49898 0
M  V30 35895 C 3153.7 -1.61267 1.70382 0
M  V30 35896 C 3154.71 -1.63813 0.586619 0
M  V30 35897 O 3155.89 -1.8197 0.863076 0
M  V30 35898 C 3152.95 -2.97568 1.77916 0
M  V30 35899 C 3152.02 -3.05535 3.01574 0
M  V30 35900 C 3151.25 -4.35334 3.08739 0
M  V30 35901 O 3151.47 -5.24956 2.23109 0
M  V30 35902 O 3150.41 -4.48571 4.01333 0
M  V30 35903 H 3154.23 -1.46912 2.65802 0
M  V30 35904 H 3151.82 -0.664492 1.33809 0
M  V30 35905 H 3153.7 -3.7855 1.85142 0
M  V30 35906 H 3152.37 -3.12155 0.856777 0
M  V30 35907 H 3151.28 -2.23687 2.99858 0
M  V30 35908 H 3152.61 -2.95879 3.9334 0
M  V30 35909 N 3154.27 -1.39214 -0.738737 0
M  V30 35910 C 3155.21 -1.37635 -1.85271 0
M  V30 35911 C 3156.18 -0.236601 -1.64406 0
M  V30 35912 O 3157.37 -0.431136 -1.85865 0
M  V30 35913 C 3154.51 -1.22193 -3.22743 0
M  V30 35914 C 3153.62 -2.45681 -3.55338 0
M  V30 35915 C 3152.76 -2.22856 -4.82192 0
M  V30 35916 C 3151.79 -3.42038 -5.07619 0
M  V30 35917 N 3150.93 -3.18554 -6.25674 0
M  V30 35918 H 3155.77 -2.32862 -1.85955 0
M  V30 35919 H 3153.31 -1.15677 -0.908696 0
M  V30 35920 H 3155.27 -1.11253 -4.02093 0
M  V30 35921 H 3153.9 -0.305977 -3.21347 0
M  V30 35922 H 3152.95 -2.67238 -2.70717 0
M  V30 35923 H 3154.26 -3.34463 -3.70048 0
M  V30 35924 H 3153.41 -2.09136 -5.69515 0
M  V30 35925 H 3152.15 -1.31462 -4.69648 0
M  V30 35926 H 3151.16 -3.5626 -4.18759 0
M  V30 35927 H 3152.38 -4.34328 -5.2205 0
M  V30 35928 H 3150.33 -2.29821 -6.14425 0
M  V30 35929 H 3150.25 -4.00892 -6.40954 0
M  V30 35930 H 3151.51 -3.0852 -7.15846 0
M  V30 35931 N 3155.74 0.968523 -1.24328 0
M  V30 35932 C 3157.15 1.52601 -1.07564 0
M  V30 35933 C 3157.51 1.92994 0.353211 0
M  V30 35934 O 3156.63 1.77246 1.24148 0
M  V30 35935 C 3157.23 2.77311 -1.94639 0
M  V30 35936 C 3155.78 3.29418 -1.82101 0
M  V30 35937 C 3154.93 2.02332 -1.89624 0
M  V30 35938 H 3157.88 0.786908 -1.37817 0
M  V30 35939 H 3157.9 3.50614 -1.47819 0
M  V30 35940 H 3157.42 2.4788 -2.98625 0
M  V30 35941 H 3155.52 3.63702 -0.80944 0
M  V30 35942 H 3155.63 3.98373 -2.66149 0
M  V30 35943 H 3153.99 2.17006 -1.33343 0
M  V30 35944 H 3154.78 1.75267 -2.95188 0
M  V30 35945 N 3157.22 1.0569 1.16908 0
M  V30 35946 C 3158.45 0.790512 1.91744 0
M  V30 35947 C 3158.87 -0.648447 1.76569 0
M  V30 35948 O 3158.23 -1.45112 1.08684 0
M  V30 35949 C 3158.28 1.18228 3.40668 0
M  V30 35950 O 3157.38 0.317413 4.11177 0
M  V30 35951 H 3156.72 0.289441 0.597595 0
M  V30 35952 H 3159.25 1.41108 1.48154 0
M  V30 35953 H 3159.26 1.15121 3.91422 0
M  V30 35954 H 3157.94 2.23046 3.51032 0
M  V30 35955 H 3156.51 0.409524 3.70644 0
M  V30 35956 N 3158.7 -1.33435 0.838617 0
M  V30 35957 C 3159.63 -2.31733 0.286713 0
M  V30 35958 C 3160.61 -1.58961 -0.605423 0
M  V30 35959 O 3161.8 -1.86855 -0.529026 0
M  V30 35960 C 3158.93 -3.43088 -0.539251 0
M  V30 35961 C 3157.88 -4.27227 0.257072 0
M  V30 35962 C 3157.21 -5.30195 -0.692625 0
M  V30 35963 C 3158.51 -5.01069 1.474 0
M  V30 35964 H 3160.2 -2.78142 1.10803 0
M  V30 35965 H 3157.75 -1.33722 0.534259 0
M  V30 35966 H 3159.7 -4.10881 -0.935652 0
M  V30 35967 H 3158.42 -2.95367 -1.39378 0
M  V30 35968 H 3157.08 -3.61058 0.63503 0
M  V30 35969 H 3156.73 -4.78731 -1.54354 0
M  V30 35970 H 3156.43 -5.87371 -0.16392 0
M  V30 35971 H 3157.95 -6.00855 -1.08655 0
M  V30 35972 H 3159.37 -5.61632 1.15077 0
M  V30 35973 H 3157.76 -5.67895 1.93947 0
M  V30 35974 H 3158.83 -4.29857 2.2439 0
M  V30 35975 N 3160.18 -0.595029 -1.45935 0
M  V30 35976 C 3161.09 0.133284 -2.34221 0
M  V30 35977 C 3162.1 0.873381 -1.50493 0
M  V30 35978 O 3163.28 0.833796 -1.8333 0
M  V30 35979 C 3160.34 1.12622 -3.27898 0
M  V30 35980 C 3159.41 0.389457 -4.2753 0
M  V30 35981 C 3158.64 1.3351 -5.16731 0
M  V30 35982 O 3158.86 2.57229 -5.09106 0
M  V30 35983 O 3157.8 0.838979 -5.96024 0
M  V30 35984 H 3161.62 -0.591913 -2.97876 0
M  V30 35985 H 3159.21 -0.355354 -1.45112 0
M  V30 35986 H 3161.09 1.69844 -3.85657 0
M  V30 35987 H 3159.76 1.83267 -2.66824 0
M  V30 35988 H 3158.67 -0.224908 -3.73423 0
M  V30 35989 H 3160 -0.276255 -4.91424 0
M  V30 35990 N 3161.66 1.54031 -0.333483 0
M  V30 35991 C 3162.59 2.222 0.562135 0
M  V30 35992 C 3163.6 1.22524 1.07199 0
M  V30 35993 O 3164.79 1.48937 0.983871 0
M  V30 35994 C 3161.89 2.88069 1.7852 0
M  V30 35995 C 3161.06 4.1397 1.41235 0
M  V30 35996 C 3160.12 4.63342 2.494 0
M  V30 35997 O 3159.15 5.27792 2.13128 0
M  V30 35998 N 3160.35 4.38412 3.80493 0
M  V30 35999 H 3163.11 2.99692 -0.0216156 0
M  V30 36000 H 3160.68 1.61136 -0.157139 0
M  V30 36001 H 3162.67 3.18018 2.50293 0
M  V30 36002 H 3161.24 2.14223 2.27656 0
M  V30 36003 H 3160.46 3.90677 0.525819 0
M  V30 36004 H 3161.75 4.95886 1.13907 0
M  V30 36005 H 3161.14 3.86847 4.12754 0
M  V30 36006 H 3159.7 4.72992 4.48466 0
M  V30 36007 N 3163.13 0.0618717 1.57479 0
M  V30 36008 C 3164.54 -0.472263 1.80628 0
M  V30 36009 C 3164.9 -1.7026 0.97499 0
M  V30 36010 O 3164.02 -2.15523 0.194638 0
M  V30 36011 C 3164.62 -0.863558 3.2761 0
M  V30 36012 C 3163.17 -1.34261 3.5164 0
M  V30 36013 C 3162.32 -0.322961 2.75413 0
M  V30 36014 H 3165.27 0.287662 1.56071 0
M  V30 36015 H 3165.29 -1.72571 3.39116 0
M  V30 36016 H 3164.81 0.0320908 3.88087 0
M  V30 36017 H 3162.91 -2.25709 2.96456 0
M  V30 36018 H 3163.02 -1.32739 4.60345 0
M  V30 36019 H 3161.38 -0.798133 2.41872 0
M  V30 36020 H 3162.17 0.564788 3.38622 0
M  V30 36021 N 3164.61 -1.56173 -0.211607 0
M  V30 36022 C 3165.86 -1.79913 -0.935903 0
M  V30 36023 C 3166.19 -0.633188 -1.83588 0
M  V30 36024 O 3165.47 0.367099 -1.91004 0
M  V30 36025 C 3165.75 -3.13804 -1.76633 0
M  V30 36026 C 3165.6 -4.40863 -0.892181 0
M  V30 36027 C 3166.92 -3.44228 -2.74218 0
M  V30 36028 H 3164.04 -0.654505 -0.33881 0
M  V30 36029 H 3166.68 -1.889 -0.204187 0
M  V30 36030 H 3164.83 -3.06274 -2.39016 0
M  V30 36031 H 3166.5 -4.60423 -0.284326 0
M  V30 36032 H 3164.75 -4.33348 -0.198069 0
M  V30 36033 H 3165.42 -5.31007 -1.50783 0
M  V30 36034 H 3167.89 -3.5195 -2.21969 0
M  V30 36035 H 3166.77 -4.39063 -3.29416 0
M  V30 36036 H 3167.03 -2.66891 -3.52451 0
M  V30 36037 N 3166.09 0.478699 -1.50154 0
M  V30 36038 C 3167.02 1.58584 -1.71387 0
M  V30 36039 C 3168 1.60522 -0.562733 0
M  V30 36040 O 3169.19 1.76909 -0.801041 0
M  V30 36041 C 3166.32 2.96954 -1.80099 0
M  V30 36042 C 3165.27 3.09882 -2.95224 0
M  V30 36043 C 3164.6 4.49824 -2.89071 0
M  V30 36044 C 3165.9 2.87812 -4.35846 0
M  V30 36045 H 3167.59 1.41069 -2.64083 0
M  V30 36046 H 3165.14 0.677217 -1.27082 0
M  V30 36047 H 3167.09 3.74327 -1.93538 0
M  V30 36048 H 3165.81 3.15608 -0.840186 0
M  V30 36049 H 3164.47 2.34939 -2.81423 0
M  V30 36050 H 3164.12 4.65386 -1.90852 0
M  V30 36051 H 3163.82 4.59412 -3.66353 0
M  V30 36052 H 3165.34 5.29228 -3.04548 0
M  V30 36053 H 3166.76 3.5494 -4.50212 0
M  V30 36054 H 3165.16 3.08851 -5.1452 0
M  V30 36055 H 3166.23 1.83734 -4.48743 0
M  V30 36056 N 3167.57 1.39603 0.731343 0
M  V30 36057 C 3168.8 1.40308 1.52057 0
M  V30 36058 C 3169.21 -0.00144602 1.888 0
M  V30 36059 O 3168.57 -0.973688 1.54355 0
M  V30 36060 C 3168.62 2.27936 2.80584 0
M  V30 36061 O 3168.34 3.62919 2.454 0
M  V30 36062 C 3169.84 2.37063 3.74588 0
M  V30 36063 H 3167.06 0.479112 0.469779 0
M  V30 36064 H 3169.61 1.83464 0.903404 0
M  V30 36065 H 3167.76 1.88184 3.38623 0
M  V30 36066 H 3168.17 4.09296 3.27989 0
M  V30 36067 H 3169.65 3.02617 4.61657 0
M  V30 36068 H 3170.13 1.39089 4.16594 0
M  V30 36069 H 3170.73 2.773 3.22466 0
M  V30 36070 N 3169.05 -0.961916 1.2484 0
M  V30 36071 C 3169.98 -2.07512 1.07056 0
M  V30 36072 C 3170.96 -1.7009 -0.0182166 0
M  V30 36073 O 3172.14 -1.9362 0.149949 0
M  V30 36074 C 3169.27 -3.40563 0.680753 0
M  V30 36075 C 3168.23 -3.91964 1.71895 0
M  V30 36076 C 3167.55 -5.21426 1.18404 0
M  V30 36077 C 3168.85 -4.19156 3.11618 0
M  V30 36078 H 3170.55 -2.22647 2.00171 0
M  V30 36079 H 3168.09 -1.06989 0.963818 0
M  V30 36080 H 3170.05 -4.17883 0.543313 0
M  V30 36081 H 3168.77 -3.25345 -0.286092 0
M  V30 36082 H 3167.43 -3.16806 1.84471 0
M  V30 36083 H 3167.08 -5.02571 0.207632 0
M  V30 36084 H 3166.78 -5.56785 1.87788 0
M  V30 36085 H 3168.3 -6.01349 1.05884 0
M  V30 36086 H 3169.71 -4.8716 3.02238 0
M  V30 36087 H 3168.11 -4.65756 3.78406 0
M  V30 36088 H 3169.18 -3.25709 3.59224 0
M  V30 36089 N 3170.52 -1.06308 -1.16346 0
M  V30 36090 C 3171.43 -0.685098 -2.24374 0
M  V30 36091 C 3172.45 0.298926 -1.71413 0
M  V30 36092 O 3173.63 0.148204 -2.00854 0
M  V30 36093 C 3170.69 -0.0774697 -3.46613 0
M  V30 36094 C 3169.75 -1.11338 -4.14611 0
M  V30 36095 C 3168.99 -0.534652 -5.31015 0
M  V30 36096 O 3169.21 0.65255 -5.66655 0
M  V30 36097 O 3168.14 -1.27441 -5.88254 0
M  V30 36098 H 3171.97 -1.58571 -2.59015 0
M  V30 36099 H 3169.55 -0.835353 -1.23864 0
M  V30 36100 H 3171.44 0.259642 -4.20599 0
M  V30 36101 H 3170.11 0.796622 -3.13745 0
M  V30 36102 H 3169.02 -1.50267 -3.42594 0
M  V30 36103 H 3170.35 -1.95901 -4.51535 0
M  V30 36104 N 3172 1.32989 -0.845682 0
M  V30 36105 C 3172.91 2.32845 -0.286441 0
M  V30 36106 C 3173.93 1.63653 0.591076 0
M  V30 36107 O 3175.1 1.95258 0.493581 0
M  V30 36108 C 3172.17 3.42724 0.523576 0
M  V30 36109 C 3171.23 4.27624 -0.37902 0
M  V30 36110 C 3170.46 5.32255 0.392432 0
M  V30 36111 O 3170.69 5.46811 1.6234 0
M  V30 36112 O 3169.62 6.01433 -0.237106 0
M  V30 36113 H 3173.45 2.8255 -1.11351 0
M  V30 36114 H 3171.03 1.36452 -0.60838 0
M  V30 36115 H 3172.91 4.09759 0.983646 0
M  V30 36116 H 3171.59 2.95223 1.32759 0
M  V30 36117 H 3170.5 3.63431 -0.887076 0
M  V30 36118 H 3171.83 4.78625 -1.14798 0
M  V30 36119 N 3173.48 0.60276 1.45618 0
M  V30 36120 C 3174.73 0.0960692 2.02272 0
M  V30 36121 C 3175.06 -1.27156 1.47179 0
M  V30 36122 O 3174.31 -1.85124 0.634626 0
M  V30 36123 C 3174.61 0.00164192 3.574 0
M  V30 36124 C 3174.28 1.3043 4.31624 0
M  V30 36125 C 3172.94 1.66114 4.51619 0
M  V30 36126 C 3175.29 2.16543 4.74087 0
M  V30 36127 C 3172.62 2.87672 5.11333 0
M  V30 36128 C 3174.97 3.37346 5.35146 0
M  V30 36129 C 3173.63 3.73288 5.53365 0
M  V30 36130 H 3172.9 0.0351542 0.740166 0
M  V30 36131 H 3175.55 0.783412 1.74742 0
M  V30 36132 H 3173.86 -0.76894 3.8418 0
M  V30 36133 H 3175.55 -0.406478 3.98935 0
M  V30 36134 H 3172.14 1.01654 4.1637 0
M  V30 36135 H 3176.33 1.90274 4.58377 0
M  V30 36136 H 3171.58 3.15632 5.23628 0
M  V30 36137 H 3175.76 4.04326 5.67004 0
M  V30 36138 H 3173.38 4.67567 5.99404 0
M  V30 36139 N 3174.96 -1.53852 0.341647 0
M  V30 36140 C 3175.92 -2.23601 -0.503502 0
M  V30 36141 C 3176.92 -1.23556 -1.0291 0
M  V30 36142 O 3178.11 -1.48008 -0.918652 0
M  V30 36143 C 3175.24 -2.95418 -1.70121 0
M  V30 36144 H 3176.44 -2.99711 0.106489 0
M  V30 36145 H 3173.99 -1.56023 0.0929682 0
M  V30 36146 H 3174.72 -2.23491 -2.34995 0
M  V30 36147 H 3174.51 -3.68798 -1.33154 0
M  V30 36148 H 3176 -3.48507 -2.3007 0
M  V30 36149 N 3176.44 -0.0702223 -1.57443 0
M  V30 36150 C 3177.67 0.607441 -1.97468 0
M  V30 36151 C 3178.07 1.63779 -0.947261 0
M  V30 36152 O 3177.42 1.83548 0.0746197 0
M  V30 36153 C 3177.48 1.33489 -3.33798 0
M  V30 36154 C 3177.14 0.458185 -4.54697 0
M  V30 36155 C 3178.14 -0.283579 -5.19126 0
M  V30 36156 C 3175.83 0.383524 -5.00834 0
M  V30 36157 C 3177.82 -1.08824 -6.28041 0
M  V30 36158 C 3175.51 -0.424812 -6.09622 0
M  V30 36159 C 3176.5 -1.15937 -6.73088 0
M  V30 36160 O 3176.19 -1.95437 -7.79782 0
M  V30 36161 H 3175.92 0.169489 -0.654408 0
M  V30 36162 H 3178.48 -0.138687 -2.04931 0
M  V30 36163 H 3176.71 2.12706 -3.22945 0
M  V30 36164 H 3178.4 1.90464 -3.58439 0
M  V30 36165 H 3179.16 -0.235482 -4.84428 0
M  V30 36166 H 3175.04 0.944889 -4.51213 0
M  V30 36167 H 3178.59 -1.66209 -6.7751 0
M  V30 36168 H 3174.48 -0.474479 -6.43754 0
M  V30 36169 H 3175.25 -1.87852 -7.96652 0
M  V30 36170 N 3177.91 1.56283 0.203321 0
M  V30 36171 C 3179.16 1.79784 0.923151 0
M  V30 36172 C 3179.48 0.641882 1.84133 0
M  V30 36173 O 3178.75 -0.340259 1.92922 0
M  V30 36174 H 3177.33 0.663146 0.34387 0
M  V30 36175 H 3180 1.93757 0.210803 0
M  V30 36176 H 3179.09 2.72631 1.51916 0
M  V30 36177 N 3179.39 -0.470729 1.50406 0
M  V30 36178 C 3180.64 -1.22278 1.61413 0
M  V30 36179 C 3180.97 -1.91938 0.314637 0
M  V30 36180 O 3180.22 -1.82772 -0.699498 0
M  V30 36181 C 3180.52 -2.2896 2.7443 0
M  V30 36182 C 3180.19 -1.7655 4.14899 0
M  V30 36183 C 3178.85 -1.61977 4.53119 0
M  V30 36184 C 3181.2 -1.37671 5.02689 0
M  V30 36185 C 3178.53 -1.0695 5.7687 0
M  V30 36186 C 3180.88 -0.840857 6.26987 0
M  V30 36187 C 3179.55 -0.681764 6.64009 0
M  V30 36188 H 3178.82 -0.447449 0.590653 0
M  V30 36189 H 3181.46 -0.51875 1.8434 0
M  V30 36190 H 3179.77 -3.05273 2.45593 0
M  V30 36191 H 3181.47 -2.86909 2.80151 0
M  V30 36192 H 3178.06 -1.8886 3.84747 0
M  V30 36193 H 3182.24 -1.47764 4.73793 0
M  V30 36194 H 3177.5 -0.933702 6.04228 0
M  V30 36195 H 3181.67 -0.530944 6.94373 0
M  V30 36196 H 3179.3 -0.253216 7.59778 0
M  V30 36197 N 3180.87 -1.39989 -0.72393 0
M  V30 36198 C 3181.82 -1.36076 -1.82941 0
M  V30 36199 C 3182.81 -0.23971 -1.59104 0
M  V30 36200 O 3184 -0.478146 -1.70419 0
M  V30 36201 C 3181.13 -1.21751 -3.20985 0
M  V30 36202 C 3180.21 -2.38602 -3.50613 0
M  V30 36203 N 3180.6 -3.64083 -3.51109 0
M  V30 36204 C 3178.9 -2.31801 -3.81031 0
M  V30 36205 C 3179.6 -4.4142 -3.78845 0
M  V30 36206 N 3178.58 -3.7115 -3.97176 0
M  V30 36207 H 3182.38 -2.31046 -1.81645 0
M  V30 36208 H 3179.89 -1.33643 -0.92268 0
M  V30 36209 H 3181.89 -1.17029 -4.00137 0
M  V30 36210 H 3180.55 -0.277401 -3.23513 0
M  V30 36211 H 3181.56 -3.97357 -3.32156 0
M  V30 36212 H 3178.24 -1.46112 -3.91098 0
M  V30 36213 H 3179.63 -5.50236 -3.85603 0
M  V30 36214 N 3182.35 0.955282 -1.25348 0
M  V30 36215 C 3183.26 2.08564 -1.07415 0
M  V30 36216 C 3184.28 1.73996 -0.0114729 0
M  V30 36217 O 3185.45 2.00278 -0.212271 0
M  V30 36218 C 3182.52 3.39679 -0.694201 0
M  V30 36219 C 3181.58 3.88118 -1.83475 0
M  V30 36220 C 3180.81 5.12975 -1.47283 0
M  V30 36221 O 3181.03 5.6921 -0.368186 0
M  V30 36222 O 3179.97 5.56107 -2.30279 0
M  V30 36223 H 3183.79 2.26594 -2.0221 0
M  V30 36224 H 3181.38 1.06986 -1.0428 0
M  V30 36225 H 3183.26 4.1849 -0.494399 0
M  V30 36226 H 3181.94 3.22921 0.224488 0
M  V30 36227 H 3180.84 3.10314 -2.0894 0
M  V30 36228 H 3182.18 4.09374 -2.73265 0
M  V30 36229 N 3183.83 1.06924 1.1578 0
M  V30 36230 C 3185.07 0.789784 1.86464 0
M  V30 36231 C 3185.4 -0.68399 1.82076 0
M  V30 36232 O 3184.66 -1.51746 1.23578 0
M  V30 36233 C 3184.96 1.23776 3.35282 0
M  V30 36234 C 3184.62 2.71675 3.59866 0
M  V30 36235 C 3183.28 3.12072 3.66285 0
M  V30 36236 C 3185.64 3.6716 3.69923 0
M  V30 36237 C 3182.96 4.46782 3.80267 0
M  V30 36238 C 3185.32 5.01626 3.85428 0
M  V30 36239 C 3183.98 5.41651 3.9009 0
M  V30 36240 H 3183.25 0.289003 0.682318 0
M  V30 36241 H 3185.9 1.33948 1.36859 0
M  V30 36242 H 3184.2 0.607377 3.87064 0
M  V30 36243 H 3185.9 0.998499 3.8837 0
M  V30 36244 H 3182.49 2.39399 3.55508 0
M  V30 36245 H 3186.67 3.37079 3.64268 0
M  V30 36246 H 3181.93 4.77268 3.82132 0
M  V30 36247 H 3186.1 5.75492 3.92151 0
M  V30 36248 H 3183.73 6.46036 4.00677 0
M  V30 36249 N 3185.31 -1.32538 0.852723 0
M  V30 36250 C 3186.55 -1.96929 0.454259 0
M  V30 36251 C 3186.87 -1.67823 -0.993005 0
M  V30 36252 O 3186.14 -0.984422 -1.69369 0
M  V30 36253 H 3184.72 -0.728552 0.16499 0
M  V30 36254 H 3187.39 -1.61656 1.08873 0
M  V30 36255 H 3186.48 -3.06323 0.597721 0
M  V30 36256 N 3186.78 -0.610474 -1.45296 0
M  V30 36257 C 3187.73 0.119126 -2.32295 0
M  V30 36258 C 3188.73 0.85672 -1.46139 0
M  V30 36259 O 3189.93 0.771959 -1.62606 0
M  V30 36260 H 3186.31 0.057275 -0.749816 0
M  V30 36261 H 3188.28 -0.633021 -2.91608 0
M  V30 36262 C 3187.03 1.10113 -3.29804 0
M  V30 36263 H 3186.35 0.542993 -3.96095 0
M  V30 36264 H 3187.79 1.58151 -3.93401 0
M  V30 36265 C 3186.25 2.17613 -2.57189 0
M  V30 36266 O 3186.78 3.25397 -2.35541 0
M  V30 36267 N 3184.98 1.92976 -2.17275 0
M  V30 36268 H 3184.53 1.0533 -2.35082 0
M  V30 36269 H 3184.49 2.65107 -1.69014 0
M  V30 36270 N 3188.26 1.53669 -0.349801 0
M  V30 36271 C 3189.21 2.25228 0.504082 0
M  V30 36272 C 3190.18 1.25292 1.09046 0
M  V30 36273 O 3191.36 1.54039 1.12591 0
M  V30 36274 C 3188.5 3.03319 1.64595 0
M  V30 36275 C 3187.62 4.1812 1.08628 0
M  V30 36276 C 3186.75 4.83685 2.19596 0
M  V30 36277 C 3185.79 5.90543 1.61012 0
M  V30 36278 N 3184.93 6.49863 2.65749 0
M  V30 36279 H 3189.77 2.97787 -0.112674 0
M  V30 36280 H 3187.3 1.46946 -0.0673762 0
M  V30 36281 H 3189.26 3.46858 2.3183 0
M  V30 36282 H 3187.89 2.33045 2.2336 0
M  V30 36283 H 3186.94 3.79178 0.304682 0
M  V30 36284 H 3188.26 4.94959 0.617824 0
M  V30 36285 H 3187.41 5.30327 2.94683 0
M  V30 36286 H 3186.15 4.06283 2.69788 0
M  V30 36287 H 3185.15 5.43278 0.844333 0
M  V30 36288 H 3186.38 6.69857 1.11665 0
M  V30 36289 H 3184.33 5.75322 3.15183 0
M  V30 36290 H 3184.24 7.22194 2.23544 0
M  V30 36291 H 3185.51 7.01157 3.40586 0
M  V30 36292 N 3189.74 0.0785709 1.57404 0
M  V30 36293 C 3190.99 -0.588592 1.92921 0
M  V30 36294 C 3191.3 -1.70357 0.961136 0
M  V30 36295 O 3192.51 -2.43076 1.20938 0
M  V30 36296 C 3190.96 -1.09833 3.42731 0
M  V30 36297 C 3190.57 -0.0139985 4.47998 0
M  V30 36298 C 3192.32 -1.73917 3.87238 0
M  V30 36299 C 3190.22 -0.538166 5.88946 0
M  V30 36300 H 3189.15 -0.223632 0.720073 0
M  V30 36301 H 3191.8 0.151902 1.8287 0
M  V30 36302 H 3190.19 -1.892 3.47878 0
M  V30 36303 H 3191.36 0.760853 4.54475 0
M  V30 36304 H 3189.67 0.531023 4.13 0
M  V30 36305 H 3192.27 -2.14178 4.89931 0
M  V30 36306 H 3192.61 -2.60185 3.24976 0
M  V30 36307 H 3193.15 -1.01161 3.84722 0
M  V30 36308 H 3189.89 0.287511 6.54869 0
M  V30 36309 H 3189.41 -1.28039 5.85974 0
M  V30 36310 H 3191.09 -1.01242 6.3903 0
M  V30 36311 N 3191.22 -1.56389 -0.19503 0
M  V30 36312 C 3192.13 -1.97754 -1.26216 0
M  V30 36313 C 3193.14 -0.885219 -1.49799 0
M  V30 36314 O 3194.32 -1.19097 -1.62412 0
M  V30 36315 C 3191.38 -2.30875 -2.58646 0
M  V30 36316 C 3190.45 -3.53814 -2.43133 0
M  V30 36317 C 3189.68 -3.85346 -3.69248 0
M  V30 36318 O 3189.9 -3.18167 -4.73419 0
M  V30 36319 O 3188.84 -4.78773 -3.64773 0
M  V30 36320 H 3192.66 -2.8875 -0.94111 0
M  V30 36321 H 3190.25 -1.43945 -0.400035 0
M  V30 36322 H 3192.13 -2.53253 -3.3681 0
M  V30 36323 H 3190.8 -1.43047 -2.90378 0
M  V30 36324 H 3189.71 -3.36683 -1.6308 0
M  V30 36325 H 3191.04 -4.42109 -2.16334 0
M  V30 36326 N 3192.7 0.462746 -1.50653 0
M  V30 36327 C 3193.64 1.55968 -1.70125 0
M  V30 36328 C 3194.61 1.56987 -0.542609 0
M  V30 36329 O 3195.8 1.74389 -0.774145 0
M  V30 36330 C 3192.94 2.93884 -1.80904 0
M  V30 36331 C 3192.05 3.0259 -3.08324 0
M  V30 36332 C 3191.19 4.31471 -3.09848 0
M  V30 36333 C 3190.22 4.3395 -4.31687 0
M  V30 36334 N 3189.36 5.54316 -4.30904 0
M  V30 36335 H 3194.2 1.3867 -2.6377 0
M  V30 36336 H 3191.74 0.674068 -1.30747 0
M  V30 36337 H 3193.7 3.73873 -1.85135 0
M  V30 36338 H 3192.33 3.09798 -0.906908 0
M  V30 36339 H 3191.38 2.15421 -3.13525 0
M  V30 36340 H 3192.69 3.00281 -3.98287 0
M  V30 36341 H 3191.84 5.19814 -3.12854 0
M  V30 36342 H 3190.58 4.364 -2.17729 0
M  V30 36343 H 3189.59 3.44003 -4.28885 0
M  V30 36344 H 3190.81 4.30706 -5.25042 0
M  V30 36345 H 3188.76 5.60014 -3.41643 0
M  V30 36346 H 3188.68 5.53783 -5.14646 0
M  V30 36347 H 3189.94 6.44761 -4.38068 0
M  V30 36348 N 3194.17 1.40371 0.716495 0
M  V30 36349 C 3195.42 1.39808 1.47734 0
M  V30 36350 C 3195.78 -0.000306619 1.924 0
M  V30 36351 O 3195.07 -0.970518 1.65201 0
M  V30 36352 C 3195.26 2.32108 2.71773 0
M  V30 36353 C 3195.09 3.80782 2.39238 0
M  V30 36354 C 3193.86 4.49601 2.30624 0
M  V30 36355 C 3196.06 4.72297 2.03568 0
M  V30 36356 N 3194.04 5.83512 1.90754 0
M  V30 36357 C 3195.41 5.94998 1.74291 0
M  V30 36358 C 3197.47 4.60141 1.90196 0
M  V30 36359 C 3196.17 7.06899 1.32988 0
M  V30 36360 C 3198.2 5.71983 1.50297 0
M  V30 36361 C 3197.56 6.93769 1.21917 0
M  V30 36362 H 3193.66 0.566846 0.538711 0
M  V30 36363 H 3196.24 1.76076 0.830987 0
M  V30 36364 H 3194.41 1.97969 3.3416 0
M  V30 36365 H 3196.14 2.22408 3.38108 0
M  V30 36366 H 3192.9 4.03271 2.48334 0
M  V30 36367 H 3193.32 6.54427 1.7336 0
M  V30 36368 H 3197.97 3.66502 2.10798 0
M  V30 36369 H 3195.68 8.00422 1.11129 0
M  V30 36370 H 3199.27 5.64573 1.4053 0
M  V30 36371 H 3198.15 7.78843 0.915077 0
M  V30 36372 N 3195.65 -0.948621 1.25853 0
M  V30 36373 C 3197.07 -1.22079 1.02805 0
M  V30 36374 C 3197.27 -1.99925 -0.251426 0
M  V30 36375 O 3196.32 -2.33434 -0.962551 0
M  V30 36376 C 3197.64 -1.98932 2.25492 0
M  V30 36377 C 3199.19 -2.11952 2.30316 0
M  V30 36378 C 3199.66 -2.92204 3.52676 0
M  V30 36379 N 3201.15 -2.99781 3.53109 0
M  V30 36380 C 3201.89 -3.62286 4.44451 0
M  V30 36381 N 3201.38 -4.26352 5.46073 0
M  V30 36382 N 3203.18 -3.59485 4.32119 0
M  V30 36383 H 3195.33 -0.428007 2.08043 0
M  V30 36384 H 3197.59 -0.251856 0.913933 0
M  V30 36385 H 3197.3 -1.49134 3.18515 0
M  V30 36386 H 3197.17 -2.9962 2.29145 0
M  V30 36387 H 3199.56 -2.60944 1.37812 0
M  V30 36388 H 3199.64 -1.10549 2.30678 0
M  V30 36389 H 3199.28 -2.43901 4.45505 0
M  V30 36390 H 3199.21 -3.93846 3.49561 0
M  V30 36391 H 3201.7 -2.54227 2.79602 0
M  V30 36392 H 3202.02 -4.71921 6.11972 0
M  V30 36393 H 3200.36 -4.24962 5.49939 0
M  V30 36394 H 3203.55 -3.08623 3.51951 0
M  V30 36395 H 3203.72 -4.07911 5.035 0
M  V30 36396 N 3197.13 -1.07536 -1.15212 0
M  V30 36397 C 3198.36 -0.820917 -1.90462 0
M  V30 36398 C 3198.78 0.620274 -1.77579 0
M  V30 36399 O 3198.14 1.43364 -1.10979 0
M  V30 36400 C 3198.19 -1.23633 -3.38744 0
M  V30 36401 O 3197.29 -0.382788 -4.1062 0
M  V30 36402 H 3196.63 -0.298911 -0.592915 0
M  V30 36403 H 3199.16 -1.43447 -1.45891 0
M  V30 36404 H 3199.17 -1.21333 -3.89541 0
M  V30 36405 H 3197.85 -2.28602 -3.47439 0
M  V30 36406 H 3196.42 -0.468439 -3.69946 0
M  V30 36407 N 3198.61 1.32084 -0.85974 0
M  V30 36408 C 3199.54 2.26795 -0.252804 0
M  V30 36409 C 3200.52 1.50637 0.612151 0
M  V30 36410 O 3201.7 1.79744 0.567833 0
M  V30 36411 C 3198.83 3.32541 0.642959 0
M  V30 36412 C 3197.88 4.26239 -0.149286 0
M  V30 36413 S 3198.71 5.13443 -1.52106 0
M  V30 36414 C 3199.87 6.2271 -0.631145 0
M  V30 36415 H 3200.1 2.77926 -1.05568 0
M  V30 36416 H 3197.63 1.39693 -0.657664 0
M  V30 36417 H 3199.59 3.93942 1.15411 0
M  V30 36418 H 3198.25 2.80185 1.41969 0
M  V30 36419 H 3197.44 5.01172 0.533192 0
M  V30 36420 H 3197.05 3.69282 -0.592193 0
M  V30 36421 H 3199.34 6.77305 0.162519 0
M  V30 36422 H 3200.28 6.95087 -1.35128 0
M  V30 36423 H 3200.69 5.64134 -0.20323 0
M  V30 36424 N 3200.09 0.618171 1.4497 0
M  V30 36425 C 3201.02 -0.0815544 2.33358 0
M  V30 36426 C 3202 -0.848047 1.47452 0
M  V30 36427 O 3203.18 -0.816501 1.76201 0
M  V30 36428 C 3200.31 -1.07247 3.30326 0
M  V30 36429 C 3199.27 -0.418488 4.25949 0
M  V30 36430 C 3198.59 -1.5184 5.12688 0
M  V30 36431 C 3199.89 0.667062 5.18023 0
M  V30 36432 H 3201.59 0.656494 2.92114 0
M  V30 36433 H 3199.13 0.317153 1.40464 0
M  V30 36434 H 3201.09 -1.57062 3.91036 0
M  V30 36435 H 3199.81 -1.84125 2.69751 0
M  V30 36436 H 3198.47 0.0588952 3.66553 0
M  V30 36437 H 3198.12 -2.27772 4.48474 0
M  V30 36438 H 3197.82 -1.08626 5.77472 0
M  V30 36439 H 3199.34 -2.01861 5.76268 0
M  V30 36440 H 3200.75 0.252548 5.72743 0
M  V30 36441 H 3199.15 1.02157 5.91341 0
M  V30 36442 H 3200.22 1.53944 4.59814 0
M  V30 36443 N 3201.56 -1.53481 0.357946 0
M  V30 36444 C 3202.79 -2.0556 -0.235104 0
M  V30 36445 C 3203.21 -1.23198 -1.43066 0
M  V30 36446 O 3202.56 -0.270773 -1.8048 0
M  V30 36447 C 3202.62 -3.5586 -0.636084 0
M  V30 36448 O 3202.34 -4.35099 0.51194 0
M  V30 36449 C 3203.84 -4.24166 -1.28833 0
M  V30 36450 H 3201.06 -0.669632 -0.0428328 0
M  V30 36451 H 3203.6 -1.97932 0.514105 0
M  V30 36452 H 3201.76 -3.63663 -1.33522 0
M  V30 36453 H 3202.17 -5.24158 0.18942 0
M  V30 36454 H 3203.64 -5.30673 -1.51953 0
M  V30 36455 H 3204.12 -3.77409 -2.24631 0
M  V30 36456 H 3204.73 -4.20595 -0.630841 0
M  V30 36457 N 3203.04 -0.0869173 -1.5736 0
M  V30 36458 C 3203.97 0.872214 -2.16598 0
M  V30 36459 C 3204.95 1.29993 -1.09708 0
M  V30 36460 O 3206.14 1.36828 -1.3781 0
M  V30 36461 C 3203.27 2.13435 -2.73976 0
M  V30 36462 C 3202.22 1.84553 -3.86166 0
M  V30 36463 C 3201.55 3.17526 -4.30211 0
M  V30 36464 C 3202.85 1.1389 -5.09732 0
M  V30 36465 H 3204.54 0.378686 -2.96996 0
M  V30 36466 H 3202.09 0.180705 -1.42862 0
M  V30 36467 H 3204.04 2.80963 -3.14067 0
M  V30 36468 H 3202.77 2.65056 -1.90821 0
M  V30 36469 H 3201.42 1.19426 -3.46602 0
M  V30 36470 H 3201.07 3.67018 -3.43958 0
M  V30 36471 H 3200.77 2.98987 -5.05847 0
M  V30 36472 H 3202.3 3.86226 -4.72929 0
M  V30 36473 H 3203.71 1.71513 -5.47043 0
M  V30 36474 H 3202.11 1.05558 -5.90743 0
M  V30 36475 H 3203.18 0.120347 -4.84751 0
M  V30 36476 N 3204.52 1.5649 0.186734 0
M  V30 36477 C 3205.77 1.81111 0.90582 0
M  V30 36478 C 3206.1 0.661509 1.82905 0
M  V30 36479 O 3205.35 -0.352226 1.92504 0
M  V30 36480 C 3205.65 3.11785 1.74713 0
M  V30 36481 C 3205.32 4.40251 0.974161 0
M  V30 36482 C 3203.98 4.75148 0.760772 0
M  V30 36483 C 3206.33 5.19416 0.430879 0
M  V30 36484 C 3203.66 5.867 -0.00724529 0
M  V30 36485 C 3206.01 6.3177 -0.32397 0
M  V30 36486 C 3204.67 6.65244 -0.5483 0
M  V30 36487 H 3203.94 0.662732 0.331463 0
M  V30 36488 H 3206.59 1.90729 0.171669 0
M  V30 36489 H 3204.9 2.97441 2.55021 0
M  V30 36490 H 3206.59 3.28042 2.30628 0
M  V30 36491 H 3203.18 4.1287 1.1505 0
M  V30 36492 H 3207.37 4.92862 0.583118 0
M  V30 36493 H 3202.62 6.11102 -0.190939 0
M  V30 36494 H 3206.8 6.92325 -0.752277 0
M  V30 36495 H 3204.42 7.51523 -1.14531 0
M  V30 36496 N 3206 -0.45475 1.50897 0
M  V30 36497 C 3206.95 -1.57133 1.715 0
M  V30 36498 C 3207.94 -1.59125 0.581008 0
M  V30 36499 O 3209.15 -1.63078 0.761945 0
M  V30 36500 H 3205.52 -0.521714 0.541589 0
M  V30 36501 H 3207.49 -1.36923 2.65131 0
M  V30 36502 C 3206.24 -2.94943 1.8413 0
M  V30 36503 H 3205.56 -2.94135 2.70785 0
M  V30 36504 H 3207 -3.72483 2.02564 0
M  V30 36505 C 3205.46 -3.31572 0.596811 0
M  V30 36506 O 3205.99 -4.0088 -0.256561 0
M  V30 36507 N 3204.2 -2.87157 0.446009 0
M  V30 36508 H 3203.75 -2.30927 1.1415 0
M  V30 36509 H 3203.7 -3.12028 -0.385464 0
M  V30 36510 N 3207.48 -1.40749 -0.709041 0
M  V30 36511 C 3208.73 -1.38684 -1.46457 0
M  V30 36512 C 3209.04 0.00558652 -1.95599 0
M  V30 36513 O 3210.24 0.14886 -2.71092 0
M  V30 36514 C 3208.7 -2.43775 -2.64767 0
M  V30 36515 C 3208.31 -3.8886 -2.22467 0
M  V30 36516 C 3210.05 -2.50827 -3.42471 0
M  V30 36517 C 3207.96 -4.85534 -3.37655 0
M  V30 36518 H 3206.89 -0.515688 -0.550075 0
M  V30 36519 H 3209.54 -1.66515 -0.771045 0
M  V30 36520 H 3207.92 -2.09054 -3.36322 0
M  V30 36521 H 3209.1 -4.3276 -1.5829 0
M  V30 36522 H 3207.41 -3.85345 -1.57791 0
M  V30 36523 H 3210.01 -3.20239 -4.28195 0
M  V30 36524 H 3210.35 -1.54083 -3.86735 0
M  V30 36525 H 3210.88 -2.84572 -2.77964 0
M  V30 36526 H 3207.62 -5.83634 -2.98416 0
M  V30 36527 H 3207.14 -4.46294 -4.00726 0
M  V30 36528 H 3208.82 -5.05662 -4.03628 0
M  V30 36529 N 3208.96 0.941933 -1.26354 0
M  V30 36530 C 3210.37 1.21532 -1.03451 0
M  V30 36531 C 3210.57 2.00056 0.24082 0
M  V30 36532 O 3209.63 2.33941 0.950158 0
M  V30 36533 C 3210.94 1.97733 -2.26544 0
M  V30 36534 C 3212.49 2.10727 -2.31437 0
M  V30 36535 C 3212.96 2.9033 -3.54221 0
M  V30 36536 N 3214.45 2.97904 -3.54693 0
M  V30 36537 C 3215.19 3.59924 -4.46366 0
M  V30 36538 N 3214.69 4.2345 -5.48326 0
M  V30 36539 N 3216.48 3.57189 -4.34019 0
M  V30 36540 H 3208.63 0.416968 -2.08267 0
M  V30 36541 H 3210.89 0.247005 -0.915255 0
M  V30 36542 H 3210.6 1.47443 -3.19302 0
M  V30 36543 H 3210.47 2.98401 -2.30731 0
M  V30 36544 H 3212.86 2.6021 -1.39194 0
M  V30 36545 H 3212.94 1.09325 -2.31261 0
M  V30 36546 H 3212.58 2.41535 -4.46792 0
M  V30 36547 H 3212.51 3.91987 -3.51644 0
M  V30 36548 H 3215.01 2.5274 -2.80946 0
M  V30 36549 H 3215.32 4.68669 -6.14466 0
M  V30 36550 H 3213.66 4.22039 -5.52184 0
M  V30 36551 H 3216.85 3.06752 -3.53583 0
M  V30 36552 H 3217.03 4.05235 -5.05657 0
M  V30 36553 N 3210.43 1.08146 1.1464 0
M  V30 36554 C 3211.38 0.6787 2.17664 0
M  V30 36555 C 3212.37 -0.300308 1.58073 0
M  V30 36556 O 3213.56 -0.11275 1.76641 0
M  V30 36557 C 3210.69 0.0866965 3.43191 0
M  V30 36558 C 3209.77 1.09133 4.09818 0
M  V30 36559 N 3210.17 2.2738 4.5181 0
M  V30 36560 C 3208.46 0.926488 4.36271 0
M  V30 36561 C 3209.16 2.91181 5.03576 0
M  V30 36562 N 3208.14 2.18804 4.9762 0
M  V30 36563 H 3211.94 1.57918 2.47869 0
M  V30 36564 H 3209.46 0.955795 1.31295 0
M  V30 36565 H 3211.45 -0.219785 4.1632 0
M  V30 36566 H 3210.11 -0.808804 3.14465 0
M  V30 36567 H 3211.12 2.65051 4.44936 0
M  V30 36568 H 3207.8 0.0845653 4.17414 0
M  V30 36569 H 3209.19 3.91631 5.45963 0
M  V30 36570 N 3211.91 -1.31626 0.866732 0
M  V30 36571 C 3213.16 -1.96094 0.472219 0
M  V30 36572 C 3213.47 -1.69288 -0.979843 0
M  V30 36573 O 3214.68 -2.27591 -1.48035 0
M  V30 36574 C 3213.14 -3.51043 0.79353 0
M  V30 36575 C 3212.74 -3.86693 2.26213 0
M  V30 36576 C 3214.49 -4.2192 0.467329 0
M  V30 36577 C 3212.39 -5.34739 2.52603 0
M  V30 36578 H 3211.32 -0.733918 0.172859 0
M  V30 36579 H 3213.98 -1.49845 1.05919 0
M  V30 36580 H 3212.36 -3.95767 0.135852 0
M  V30 36581 H 3213.53 -3.5294 2.9626 0
M  V30 36582 H 3211.85 -3.28873 2.55405 0
M  V30 36583 H 3214.44 -5.30835 0.641762 0
M  V30 36584 H 3214.79 -4.12069 -0.591993 0
M  V30 36585 H 3215.32 -3.82819 1.08141 0
M  V30 36586 H 3212.06 -5.49622 3.57206 0
M  V30 36587 H 3211.58 -5.69856 1.87146 0
M  V30 36588 H 3213.26 -6.01964 2.37167 0
M  V30 36589 N 3213.39 -0.62585 -1.4464 0
M  V30 36590 C 3214.62 -0.134957 -2.06159 0
M  V30 36591 C 3215.03 1.19354 -1.46803 0
M  V30 36592 O 3214.37 1.74191 -0.583376 0
M  V30 36593 C 3214.43 0.0597849 -3.5945 0
M  V30 36594 C 3214.1 -1.18973 -4.41242 0
M  V30 36595 C 3215.09 -2.1122 -4.7506 0
M  V30 36596 C 3212.78 -1.42367 -4.81702 0
M  V30 36597 C 3214.77 -3.25175 -5.48215 0
M  V30 36598 C 3212.46 -2.5662 -5.54608 0
M  V30 36599 C 3213.46 -3.47851 -5.87783 0
M  V30 36600 O 3213.15 -4.60112 -6.59205 0
M  V30 36601 H 3212.88 -0.0744582 -0.671887 0
M  V30 36602 H 3215.43 -0.858808 -1.86584 0
M  V30 36603 H 3213.66 0.838726 -3.77495 0
M  V30 36604 H 3215.35 0.504568 -4.02752 0
M  V30 36605 H 3216.12 -1.94379 -4.44344 0
M  V30 36606 H 3212 -0.722481 -4.55303 0
M  V30 36607 H 3215.54 -3.96406 -5.74028 0
M  V30 36608 H 3211.44 -2.73407 -5.84738 0
M  V30 36609 H 3212.2 -4.59027 -6.7767 0
M  V30 36610 N 3214.87 1.53289 -0.36608 0
M  V30 36611 C 3216.12 2.00446 0.224579 0
M  V30 36612 C 3216.43 1.25743 1.49827 0
M  V30 36613 O 3217.64 1.6349 2.16756 0
M  V30 36614 C 3216.09 3.57066 0.450756 0
M  V30 36615 C 3215.7 4.40647 -0.808335 0
M  V30 36616 C 3217.44 4.12577 0.999043 0
M  V30 36617 C 3215.35 5.88821 -0.551715 0
M  V30 36618 H 3214.28 0.748883 0.0876982 0
M  V30 36619 H 3216.93 1.76977 -0.484898 0
M  V30 36620 H 3215.31 3.7669 1.2215 0
M  V30 36621 H 3216.49 4.32796 -1.58191 0
M  V30 36622 H 3214.8 3.96242 -1.27988 0
M  V30 36623 H 3217.4 5.20914 1.20636 0
M  V30 36624 H 3217.74 3.67203 1.96133 0
M  V30 36625 H 3218.28 3.96753 0.288448 0
M  V30 36626 H 3215.01 6.38473 -1.48434 0
M  V30 36627 H 3214.53 5.9952 0.183357 0
M  V30 36628 H 3216.21 6.46757 -0.177421 0
M  V30 36629 N 3216.35 0.0952613 1.57312 0
M  V30 36630 C 3217.29 -0.881129 2.15265 0
M  V30 36631 C 3218.29 -1.29206 1.09555 0
M  V30 36632 O 3219.49 -1.26657 1.27899 0
M  V30 36633 H 3215.87 -0.302179 0.688616 0
M  V30 36634 H 3217.84 -0.367642 2.96127 0
M  V30 36635 C 3216.59 -2.13048 2.74783 0
M  V30 36636 H 3215.91 -1.82317 3.5581 0
M  V30 36637 H 3217.35 -2.79425 3.189 0
M  V30 36638 C 3215.81 -2.90462 1.70686 0
M  V30 36639 O 3216.34 -3.85009 1.14589 0
M  V30 36640 N 3214.55 -2.54005 1.41173 0
M  V30 36641 H 3214.09 -1.77189 1.86981 0
M  V30 36642 H 3214.05 -3.06101 0.717613 0
M  V30 36643 N 3217.82 -1.56587 -0.178432 0
M  V30 36644 C 3219.07 -1.80782 -0.894471 0
M  V30 36645 C 3219.39 -0.671323 -1.83719 0
M  V30 36646 O 3220.59 -0.798016 -2.59507 0
M  V30 36647 C 3219.05 -3.20309 -1.64104 0
M  V30 36648 C 3218.66 -4.41807 -0.74231 0
M  V30 36649 C 3220.4 -3.53802 -2.34572 0
M  V30 36650 C 3218.31 -5.72356 -1.4887 0
M  V30 36651 H 3217.24 -0.674123 -0.337748 0
M  V30 36652 H 3219.89 -1.82906 -0.147488 0
M  V30 36653 H 3218.27 -3.12482 -2.43251 0
M  V30 36654 H 3219.44 -4.60799 0.011696 0
M  V30 36655 H 3217.76 -4.16138 -0.147632 0
M  V30 36656 H 3220.36 -4.48582 -2.90996 0
M  V30 36657 H 3220.7 -2.78341 -3.09567 0
M  V30 36658 H 3221.23 -3.63152 -1.62375 0
M  V30 36659 H 3217.97 -6.50828 -0.781211 0
M  V30 36660 H 3217.49 -5.57355 -2.21621 0
M  V30 36661 H 3219.17 -6.14061 -2.03808 0
M  V30 36662 N 3219.3 0.446741 -1.51136 0
M  V30 36663 C 3220.54 1.20653 -1.64991 0
M  V30 36664 C 3220.91 1.8871 -0.353915 0
M  V30 36665 O 3222.11 2.66267 -0.368146 0
M  V30 36666 C 3220.38 2.2037 -2.81375 0
M  V30 36667 S 3221.94 3.04961 -3.15506 0
M  V30 36668 H 3218.75 0.409291 -0.581379 0
M  V30 36669 H 3221.36 0.499579 -1.89009 0
M  V30 36670 H 3220.06 1.68994 -3.73991 0
M  V30 36671 H 3219.59 2.95659 -2.59518 0
M  V30 36672 H 3221.61 4.2188 -2.61212 0
M  V30 36673 N 3220.78 1.41123 0.701567 0
M  V30 36674 C 3221.73 1.38969 1.80753 0
M  V30 36675 C 3222.71 0.264992 1.58703 0
M  V30 36676 O 3223.91 0.505198 1.69637 0
M  V30 36677 C 3221.03 1.26842 3.19008 0
M  V30 36678 C 3220.12 2.4415 3.46773 0
M  V30 36679 N 3220.51 3.69623 3.45272 0
M  V30 36680 C 3218.81 2.37833 3.77295 0
M  V30 36681 C 3219.51 4.47391 3.71774 0
M  V30 36682 N 3218.49 3.77422 3.91221 0
M  V30 36683 H 3222.29 2.33907 1.77946 0
M  V30 36684 H 3219.8 1.35094 0.901301 0
M  V30 36685 H 3221.8 1.2338 3.98225 0
M  V30 36686 H 3220.46 0.328834 3.23031 0
M  V30 36687 H 3221.47 4.02591 3.25792 0
M  V30 36688 H 3218.15 1.52315 3.88724 0
M  V30 36689 H 3219.54 5.56301 3.768 0
M  V30 36690 N 3222.26 -0.935219 1.26852 0
M  V30 36691 C 3223.19 -2.03507 1.03248 0
M  V30 36692 C 3224.17 -1.62539 -0.0447037 0
M  V30 36693 O 3225.35 -1.8824 0.0989236 0
M  V30 36694 C 3222.48 -3.3396 0.564685 0
M  V30 36695 C 3221.53 -3.93903 1.63531 0
M  V30 36696 S 3222.36 -4.27433 3.22585 0
M  V30 36697 C 3223.51 -5.60977 2.77589 0
M  V30 36698 H 3223.75 -2.23217 1.96371 0
M  V30 36699 H 3221.28 -1.07737 1.10599 0
M  V30 36700 H 3223.24 -4.09392 0.30146 0
M  V30 36701 H 3221.9 -3.12184 -0.346364 0
M  V30 36702 H 3221.09 -4.88018 1.25914 0
M  V30 36703 H 3220.69 -3.25027 1.85022 0
M  V30 36704 H 3222.99 -6.39948 2.22423 0
M  V30 36705 H 3223.93 -6.03486 3.70419 0
M  V30 36706 H 3224.34 -5.21139 2.16966 0
M  V30 36707 N 3223.74 -1.08752 -1.14065 0
M  V30 36708 C 3224.67 -0.742398 -2.21384 0
M  V30 36709 C 3225.65 0.276776 -1.67833 0
M  V30 36710 O 3226.83 0.146366 -1.93648 0
M  V30 36711 C 3223.96 -0.154705 -3.46955 0
M  V30 36712 C 3222.92 -1.10262 -4.13553 0
M  V30 36713 C 3222.24 -0.37697 -5.33369 0
M  V30 36714 C 3223.54 -2.44221 -4.61685 0
M  V30 36715 H 3225.24 -1.63968 -2.50509 0
M  V30 36716 H 3222.78 -0.789829 -1.20406 0
M  V30 36717 H 3224.74 0.0987679 -4.21284 0
M  V30 36718 H 3223.46 0.777733 -3.17205 0
M  V30 36719 H 3222.12 -1.34125 -3.41183 0
M  V30 36720 H 3221.77 0.559385 -4.9988 0
M  V30 36721 H 3221.47 -1.00894 -5.78873 0
M  V30 36722 H 3222.99 -0.131634 -6.10458 0
M  V30 36723 H 3224.4 -2.24605 -5.27471 0
M  V30 36724 H 3222.8 -3.03143 -5.17904 0
M  V30 36725 H 3223.87 -3.05489 -3.76569 0
M  V30 36726 N 3225.21 1.31165 -0.873701 0
M  V30 36727 C 3226.14 2.30891 -0.348052 0
M  V30 36728 C 3227.13 1.6051 0.563064 0
M  V30 36729 O 3228.31 1.88192 0.479299 0
M  V30 36730 C 3225.44 3.44397 0.448097 0
M  V30 36731 C 3224.39 4.26395 -0.370254 0
M  V30 36732 C 3223.72 5.31845 0.551809 0
M  V30 36733 C 3225.02 4.96985 -1.60633 0
M  V30 36734 H 3226.71 2.75107 -1.18139 0
M  V30 36735 H 3224.26 1.32259 -0.569525 0
M  V30 36736 H 3226.21 4.13218 0.826385 0
M  V30 36737 H 3224.94 2.98958 1.31498 0
M  V30 36738 H 3223.6 3.59247 -0.730535 0
M  V30 36739 H 3223.24 4.82655 1.41607 0
M  V30 36740 H 3222.94 5.87599 0.0081315 0
M  V30 36741 H 3224.47 6.03524 0.926859 0
M  V30 36742 H 3225.88 5.58383 -1.29927 0
M  V30 36743 H 3224.28 5.62553 -2.08936 0
M  V30 36744 H 3225.35 4.23757 -2.35708 0
M  V30 36745 N 3226.69 0.633512 1.44307 0
M  V30 36746 C 3227.92 0.144384 2.06897 0
M  V30 36747 C 3228.34 -1.17297 1.47047 0
M  V30 36748 O 3227.7 -1.72012 0.572836 0
M  V30 36749 C 3227.75 0.0456957 3.60571 0
M  V30 36750 O 3226.85 -0.997612 4.00152 0
M  V30 36751 H 3226.19 0.0858614 0.658425 0
M  V30 36752 H 3228.72 0.870866 1.85141 0
M  V30 36753 H 3228.73 -0.144106 4.07745 0
M  V30 36754 H 3227.41 1.00747 4.03513 0
M  V30 36755 H 3225.99 -0.782188 3.64604 0
M  V30 36756 N 3228.17 -1.53093 0.374204 0
M  V30 36757 C 3229.42 -2.01677 -0.213096 0
M  V30 36758 C 3229.75 -1.26074 -1.47713 0
M  V30 36759 O 3229.02 -0.356868 -1.91198 0
M  V30 36760 C 3229.31 -3.56663 -0.496329 0
M  V30 36761 C 3229.16 -4.42951 0.781937 0
M  V30 36762 C 3230.48 -4.20668 -1.29331 0
M  V30 36763 H 3227.6 -0.733073 -0.0759757 0
M  V30 36764 H 3230.24 -1.83281 0.500797 0
M  V30 36765 H 3228.39 -3.72469 -1.10449 0
M  V30 36766 H 3230.06 -4.38926 1.41922 0
M  V30 36767 H 3228.31 -4.10572 1.40048 0
M  V30 36768 H 3228.98 -5.49366 0.538605 0
M  V30 36769 H 3231.45 -4.08747 -0.778777 0
M  V30 36770 H 3230.33 -5.2912 -1.46023 0
M  V30 36771 H 3230.59 -3.773 -2.30428 0
M  V30 36772 N 3229.65 -0.103603 -1.57259 0
M  V30 36773 C 3230.6 0.852257 -2.14488 0
M  V30 36774 C 3231.57 1.27405 -1.0657 0
M  V30 36775 O 3232.75 1.3543 -1.344 0
M  V30 36776 C 3229.89 2.1028 -2.73636 0
M  V30 36777 C 3229 1.73076 -3.95814 0
M  V30 36778 C 3228.14 2.92981 -4.43098 0
M  V30 36779 C 3227.18 2.51944 -5.57845 0
M  V30 36780 N 3226.31 3.6471 -5.99942 0
M  V30 36781 H 3231.15 0.357378 -2.95849 0
M  V30 36782 H 3228.69 0.164722 -1.46175 0
M  V30 36783 H 3230.65 2.83528 -3.06051 0
M  V30 36784 H 3229.28 2.57253 -1.94989 0
M  V30 36785 H 3228.33 0.897623 -3.69658 0
M  V30 36786 H 3229.64 1.38908 -4.79068 0
M  V30 36787 H 3228.8 3.74472 -4.77342 0
M  V30 36788 H 3227.54 3.30365 -3.58762 0
M  V30 36789 H 3226.54 1.68881 -5.2322 0
M  V30 36790 H 3227.77 2.15693 -6.43936 0
M  V30 36791 H 3225.71 4.01798 -5.18551 0
M  V30 36792 H 3225.63 3.34415 -6.78014 0
M  V30 36793 H 3226.9 4.46687 -6.3882 0
M  V30 36794 N 3231.13 1.56679 0.170126 0
M  V30 36795 C 3232.08 1.92912 1.21527 0
M  V30 36796 C 3233.06 0.797577 1.39741 0
M  V30 36797 O 3234.25 1.06078 1.41692 0
M  V30 36798 C 3231.38 2.29355 2.55443 0
M  V30 36799 C 3230.47 3.49026 2.40918 0
M  V30 36800 N 3230.86 4.66235 1.9611 0
M  V30 36801 C 3229.16 3.53656 2.71741 0
M  V30 36802 C 3229.86 5.4837 1.94076 0
M  V30 36803 N 3228.83 4.89446 2.36525 0
M  V30 36804 H 3232.64 2.81019 0.860552 0
M  V30 36805 H 3230.15 1.5793 0.378387 0
M  V30 36806 H 3232.15 2.53508 3.30967 0
M  V30 36807 H 3230.81 1.42588 2.91717 0
M  V30 36808 H 3231.82 4.9043 1.66429 0
M  V30 36809 H 3228.49 2.7737 3.12045 0
M  V30 36810 H 3229.88 6.52296 1.61121 0
M  V30 36811 N 3232.6 -0.43872 1.5137 0
M  V30 36812 C 3233.83 -1.21534 1.6806 0
M  V30 36813 C 3234.25 -1.84287 0.37682 0
M  V30 36814 O 3233.61 -1.68747 -0.662881 0
M  V30 36815 C 3233.66 -2.27612 2.79688 0
M  V30 36816 O 3232.76 -3.33062 2.43195 0
M  V30 36817 H 3232.11 -0.356134 0.560415 0
M  V30 36818 H 3234.64 -0.518276 1.97927 0
M  V30 36819 H 3234.65 -2.72418 3.03731 0
M  V30 36820 H 3233.32 -1.81315 3.74296 0
M  V30 36821 H 3231.9 -2.93742 2.29718 0
M  V30 36822 N 3234.08 -1.41493 -0.694073 0
M  V30 36823 C 3235.33 -1.40229 -1.44978 0
M  V30 36824 C 3235.64 -0.0151597 -1.95594 0
M  V30 36825 O 3236.85 0.120098 -2.71234 0
M  V30 36826 C 3235.31 -2.4657 -2.62166 0
M  V30 36827 C 3234.91 -3.91198 -2.1833 0
M  V30 36828 C 3236.66 -2.54445 -3.39791 0
M  V30 36829 C 3234.57 -4.89088 -3.32486 0
M  V30 36830 H 3233.5 -0.521493 -0.544574 0
M  V30 36831 H 3236.15 -1.67323 -0.75334 0
M  V30 36832 H 3234.53 -2.1261 -3.34085 0
M  V30 36833 H 3235.7 -4.34414 -1.53691 0
M  V30 36834 H 3234.02 -3.86997 -1.53695 0
M  V30 36835 H 3236.61 -3.24763 -4.24774 0
M  V30 36836 H 3236.96 -1.58176 -3.85079 0
M  V30 36837 H 3237.49 -2.87504 -2.7493 0
M  V30 36838 H 3234.23 -5.86766 -2.92209 0
M  V30 36839 H 3233.75 -4.50519 -3.9597 0
M  V30 36840 H 3235.43 -5.09914 -3.98242 0
M  V30 36841 N 3235.56 0.928479 -1.27346 0
M  V30 36842 C 3236.49 2.0332 -1.05801 0
M  V30 36843 C 3237.51 1.62794 -0.0143372 0
M  V30 36844 O 3238.69 1.76657 -0.255811 0
M  V30 36845 C 3235.79 3.33852 -0.582732 0
M  V30 36846 C 3234.97 4.03075 -1.69851 0
M  V30 36847 C 3234.03 5.11883 -1.21911 0
M  V30 36848 O 3233.05 5.35889 -1.91862 0
M  V30 36849 N 3234.25 5.80452 -0.0743412 0
M  V30 36850 H 3237.02 2.22366 -2.00932 0
M  V30 36851 H 3234.58 1.09881 -1.18902 0
M  V30 36852 H 3236.57 4.03952 -0.245933 0
M  V30 36853 H 3235.14 3.11385 0.275335 0
M  V30 36854 H 3234.36 3.2672 -2.20563 0
M  V30 36855 H 3235.65 4.46073 -2.44738 0
M  V30 36856 H 3235.05 5.63401 0.509532 0
M  V30 36857 H 3233.61 6.51483 0.203285 0
M  V30 36858 N 3237.04 1.09355 1.13486 0
M  V30 36859 C 3238.45 0.82311 1.36737 0
M  V30 36860 C 3238.65 -0.562929 1.93477 0
M  V30 36861 O 3237.71 -1.31793 2.15376 0
M  V30 36862 C 3239.02 1.91375 2.3194 0
M  V30 36863 C 3240.57 1.9409 2.45557 0
M  V30 36864 C 3241.05 3.02295 3.44066 0
M  V30 36865 N 3242.54 3.0153 3.51616 0
M  V30 36866 C 3243.27 3.81897 4.27717 0
M  V30 36867 N 3242.77 4.7217 5.06979 0
M  V30 36868 N 3244.56 3.70159 4.23011 0
M  V30 36869 H 3236.71 1.98715 0.750085 0
M  V30 36870 H 3238.98 0.862907 0.392549 0
M  V30 36871 H 3238.68 2.91076 1.97403 0
M  V30 36872 H 3238.56 1.79136 3.31949 0
M  V30 36873 H 3240.94 0.950283 2.79381 0
M  V30 36874 H 3241.02 2.10406 1.45475 0
M  V30 36875 H 3240.67 4.01569 3.10974 0
M  V30 36876 H 3240.6 2.83222 4.43951 0
M  V30 36877 H 3243.09 2.36108 2.95061 0
M  V30 36878 H 3243.4 5.30077 5.62351 0
M  V30 36879 H 3241.75 4.76206 5.06214 0
M  V30 36880 H 3244.94 2.98995 3.60166 0
M  V30 36881 H 3245.11 4.3303 4.82067 0
M  V30 36882 N 3238.52 -1.307 0.880644 0
M  V30 36883 C 3239.74 -2.01008 0.510944 0
M  V30 36884 C 3240.17 -1.65604 -0.892012 0
M  V30 36885 O 3239.53 -0.870337 -1.59043 0
M  V30 36886 C 3239.57 -3.53979 0.687821 0
M  V30 36887 O 3238.68 -4.11527 -0.268203 0
M  V30 36888 H 3238.02 -0.632568 0.201876 0
M  V30 36889 H 3240.55 -1.66648 1.187 0
M  V30 36890 H 3240.56 -4.03782 0.585166 0
M  V30 36891 H 3239.23 -3.79086 1.71075 0
M  V30 36892 H 3237.81 -3.72708 -0.119608 0
M  V30 36893 N 3240 -0.641156 -1.43969 0
M  V30 36894 C 3240.95 0.079839 -2.2786 0
M  V30 36895 C 3241.93 0.806485 -1.39229 0
M  V30 36896 O 3243.12 0.69094 -1.62957 0
M  V30 36897 C 3240.25 1.05388 -3.26723 0
M  V30 36898 C 3239.34 0.326337 -4.22843 0
M  V30 36899 N 3239.73 -0.650552 -5.01599 0
M  V30 36900 C 3238.03 0.56943 -4.4235 0
M  V30 36901 C 3238.73 -1.08131 -5.71561 0
M  V30 36902 N 3237.7 -0.418027 -5.4199 0
M  V30 36903 H 3241.5 -0.669957 -2.86162 0
M  V30 36904 H 3239.02 -0.46746 -1.55527 0
M  V30 36905 H 3241.02 1.5851 -3.85591 0
M  V30 36906 H 3239.68 1.80387 -2.69983 0
M  V30 36907 H 3240.69 -1.02879 -5.07579 0
M  V30 36908 H 3237.36 1.30152 -3.96695 0
M  V30 36909 H 3238.75 -1.88894 -6.44801 0
M  V30 36910 N 3241.47 1.52892 -0.382318 0
M  V30 36911 C 3242.89 1.59568 -0.031969 0
M  V30 36912 C 3243.09 1.39667 1.45243 0
M  V30 36913 O 3242.15 1.21017 2.2161 0
M  V30 36914 C 3243.46 2.96465 -0.502898 0
M  V30 36915 C 3245.01 3.09623 -0.458554 0
M  V30 36916 C 3245.48 4.48958 -0.90556 0
M  V30 36917 N 3246.97 4.55122 -0.861291 0
M  V30 36918 C 3247.71 5.61155 -1.17866 0
M  V30 36919 N 3247.2 6.74866 -1.56615 0
M  V30 36920 N 3249 5.51224 -1.10037 0
M  V30 36921 H 3241.15 1.64078 -1.34878 0
M  V30 36922 H 3243.41 0.770436 -0.552388 0
M  V30 36923 H 3243.12 3.16222 -1.53937 0
M  V30 36924 H 3242.99 3.77063 0.101711 0
M  V30 36925 H 3245.38 2.89566 0.568817 0
M  V30 36926 H 3245.46 2.30994 -1.09888 0
M  V30 36927 H 3245.1 4.69755 -1.93113 0
M  V30 36928 H 3245.03 5.26042 -0.242319 0
M  V30 36929 H 3247.52 3.73484 -0.576054 0
M  V30 36930 H 3247.84 7.51733 -1.79214 0
M  V30 36931 H 3246.18 6.76215 -1.60495 0
M  V30 36932 H 3249.37 4.6127 -0.796704 0
M  V30 36933 H 3249.55 6.3376 -1.35102 0
M  V30 36934 N 3242.95 0.111941 1.57202 0
M  V30 36935 C 3244.2 -0.548573 1.9524 0
M  V30 36936 C 3244.53 -1.66778 0.994927 0
M  V30 36937 O 3243.81 -1.94475 0.0308945 0
M  V30 36938 C 3244.09 -1.08792 3.43273 0
M  V30 36939 C 3243.94 0.0273854 4.49792 0
M  V30 36940 C 3245.26 -1.98102 3.92993 0
M  V30 36941 H 3242.38 -0.197939 0.709922 0
M  V30 36942 H 3245.02 0.186069 1.89087 0
M  V30 36943 H 3243.17 -1.71398 3.48647 0
M  V30 36944 H 3244.84 0.662382 4.5652 0
M  V30 36945 H 3243.09 0.691501 4.28253 0
M  V30 36946 H 3243.76 -0.391104 5.50613 0
M  V30 36947 H 3246.23 -1.45378 3.89878 0
M  V30 36948 H 3245.11 -2.32761 4.97105 0
M  V30 36949 H 3245.37 -2.90486 3.33272 0
M  V30 36950 N 3244.43 -1.56767 -0.161814 0
M  V30 36951 C 3245.68 -1.82529 -0.876892 0
M  V30 36952 C 3246 -0.690524 -1.8183 0
M  V30 36953 O 3245.26 0.321556 -1.9304 0
M  V30 36954 C 3245.56 -3.14525 -1.69731 0
M  V30 36955 C 3245.22 -4.41745 -0.903997 0
M  V30 36956 C 3243.89 -4.76298 -0.685084 0
M  V30 36957 C 3246.24 -5.20036 -0.34819 0
M  V30 36958 C 3243.57 -5.86614 0.100583 0
M  V30 36959 C 3245.92 -6.31175 0.424438 0
M  V30 36960 C 3244.58 -6.64288 0.654065 0
M  V30 36961 H 3243.85 -0.667921 -0.320878 0
M  V30 36962 H 3246.5 -1.90978 -0.141304 0
M  V30 36963 H 3244.8 -3.01461 -2.50257 0
M  V30 36964 H 3246.5 -3.3167 -2.2538 0
M  V30 36965 H 3243.09 -4.14648 -1.08467 0
M  V30 36966 H 3247.28 -4.93728 -0.504634 0
M  V30 36967 H 3242.53 -6.10721 0.288136 0
M  V30 36968 H 3246.71 -6.9104 0.862325 0
M  V30 36969 H 3244.33 -7.49606 1.26473 0
M  V30 36970 N 3245.91 0.430686 -1.51601 0
M  V30 36971 C 3246.84 1.54344 -1.68087 0
M  V30 36972 C 3247.82 1.53774 -0.528428 0
M  V30 36973 O 3249 1.72802 -0.753102 0
M  V30 36974 C 3246.13 2.92916 -1.70053 0
M  V30 36975 C 3245.18 3.11484 -2.91342 0
M  V30 36976 S 3246.01 2.87076 -4.52048 0
M  V30 36977 C 3247.16 4.27918 -4.56768 0
M  V30 36978 H 3247.4 1.40127 -2.62206 0
M  V30 36979 H 3244.93 0.620828 -1.41369 0
M  V30 36980 H 3246.89 3.72788 -1.7187 0
M  V30 36981 H 3245.55 3.0449 -0.771 0
M  V30 36982 H 3244.74 4.12814 -2.89137 0
M  V30 36983 H 3244.34 2.39446 -2.873 0
M  V30 36984 H 3246.64 5.21224 -4.32818 0
M  V30 36985 H 3247.58 4.35154 -5.58612 0
M  V30 36986 H 3247.99 4.11883 -3.86021 0
M  V30 36987 N 3247.39 1.4186 0.686559 0
M  V30 36988 C 3248.34 1.40878 1.79269 0
M  V30 36989 C 3249.32 0.281809 1.58413 0
M  V30 36990 O 3250.51 0.523162 1.69092 0
M  V30 36991 C 3247.64 1.30218 3.17645 0
M  V30 36992 C 3246.73 2.47814 3.44164 0
M  V30 36993 N 3247.12 3.73264 3.41332 0
M  V30 36994 C 3245.42 2.41821 3.74751 0
M  V30 36995 C 3246.12 4.51309 3.67008 0
M  V30 36996 N 3245.09 3.8155 3.87196 0
M  V30 36997 H 3248.89 2.35781 1.75455 0
M  V30 36998 H 3246.41 1.36042 0.886922 0
M  V30 36999 H 3248.41 1.27597 3.96894 0
M  V30 37000 H 3247.07 0.363077 3.22664 0
M  V30 37001 H 3248.08 4.06024 3.21504 0
M  V30 37002 H 3244.75 1.5643 3.87087 0
M  V30 37003 H 3246.14 5.60267 3.70879 0
M  V30 37004 N 3248.86 -0.921712 1.27837 0
M  V30 37005 C 3249.81 -2.02312 1.11079 0
M  V30 37006 C 3250.78 -1.66097 0.0101487 0
M  V30 37007 O 3251.97 -1.90009 0.173598 0
M  V30 37008 C 3249.11 -3.36393 0.77031 0
M  V30 37009 C 3248.22 -3.85527 1.94919 0
M  V30 37010 C 3247.35 -5.08082 1.55005 0
M  V30 37011 C 3246.39 -5.49527 2.69605 0
M  V30 37012 N 3245.53 -6.63276 2.30239 0
M  V30 37013 H 3250.37 -2.15979 2.05322 0
M  V30 37014 H 3247.91 -1.05798 1.02202 0
M  V30 37015 H 3249.86 -4.13509 0.553697 0
M  V30 37016 H 3248.49 -3.22517 -0.135181 0
M  V30 37017 H 3247.55 -3.04637 2.27816 0
M  V30 37018 H 3248.86 -4.12209 2.80865 0
M  V30 37019 H 3248.01 -5.92717 1.29503 0
M  V30 37020 H 3246.75 -4.83189 0.661761 0
M  V30 37021 H 3245.76 -4.63437 2.95814 0
M  V30 37022 H 3246.98 -5.76411 3.59064 0
M  V30 37023 H 3244.93 -6.40029 1.43869 0
M  V30 37024 H 3244.84 -6.89643 3.09723 0
M  V30 37025 H 3246.11 -7.51237 2.08 0
M  V30 37026 N 3250.34 -1.09956 -1.12905 0
M  V30 37027 C 3251.59 -0.838944 -1.84304 0
M  V30 37028 C 3251.92 0.635475 -1.83826 0
M  V30 37029 O 3251.17 1.48416 -1.27558 0
M  V30 37030 C 3251.47 -1.32622 -3.31883 0
M  V30 37031 C 3251.14 -2.8112 -3.52537 0
M  V30 37032 C 3249.8 -3.21674 -3.57882 0
M  V30 37033 C 3252.15 -3.76839 -3.60058 0
M  V30 37034 C 3249.48 -4.56707 -3.68288 0
M  V30 37035 C 3251.83 -5.11668 -3.71992 0
M  V30 37036 C 3250.49 -5.51803 -3.75592 0
M  V30 37037 H 3249.76 -0.306991 -0.674416 0
M  V30 37038 H 3252.41 -1.37529 -1.33259 0
M  V30 37039 H 3250.72 -0.709787 -3.85317 0
M  V30 37040 H 3252.41 -1.10112 -3.85586 0
M  V30 37041 H 3249 -2.48741 -3.49036 0
M  V30 37042 H 3253.19 -3.46618 -3.55203 0
M  V30 37043 H 3248.44 -4.87232 -3.69344 0
M  V30 37044 H 3252.62 -5.85687 -3.76755 0
M  V30 37045 H 3250.24 -6.56432 -3.83407 0
M  V30 37046 N 3251.82 1.30231 -0.887563 0
M  V30 37047 C 3253.07 1.95655 -0.506311 0
M  V30 37048 C 3253.39 1.70396 0.948161 0
M  V30 37049 O 3252.66 1.02898 1.667 0
M  V30 37050 H 3251.24 0.723921 -0.184248 0
M  V30 37051 H 3253.9 1.58713 -1.1312 0
M  V30 37052 H 3253 3.0463 -0.678727 0
M  V30 37053 N 3253.3 0.648782 1.43627 0
M  V30 37054 C 3254.55 0.160372 2.01864 0
M  V30 37055 C 3254.87 -1.22409 1.5115 0
M  V30 37056 O 3254.13 -1.83012 0.6932 0
M  V30 37057 C 3254.43 0.115345 3.57214 0
M  V30 37058 C 3254.09 1.44096 4.27256 0
M  V30 37059 C 3252.76 1.80397 4.46106 0
M  V30 37060 C 3255.11 2.31516 4.66958 0
M  V30 37061 C 3252.44 3.03794 5.01922 0
M  V30 37062 C 3254.79 3.542 5.24142 0
M  V30 37063 C 3253.45 3.90703 5.41209 0
M  V30 37064 H 3252.72 0.0586842 0.738673 0
M  V30 37065 H 3255.37 0.838609 1.72162 0
M  V30 37066 H 3253.67 -0.646327 3.86432 0
M  V30 37067 H 3255.37 -0.279355 4.00026 0
M  V30 37068 H 3251.96 1.14849 4.12926 0
M  V30 37069 H 3256.14 2.04761 4.52091 0
M  V30 37070 H 3251.4 3.32131 5.13322 0
M  V30 37071 H 3255.57 4.22161 5.53853 0
M  V30 37072 H 3253.2 4.864 5.84225 0
M  V30 37073 N 3254.78 -1.52688 0.390421 0
M  V30 37074 C 3256.02 -2.01593 -0.19141 0
M  V30 37075 C 3256.35 -1.27684 -1.46721 0
M  V30 37076 O 3255.61 -0.366006 -1.92247 0
M  V30 37077 C 3255.91 -3.5382 -0.504618 0
M  V30 37078 C 3255.57 -4.45747 0.679769 0
M  V30 37079 C 3254.23 -4.70595 1.00469 0
M  V30 37080 C 3256.59 -4.9998 1.47207 0
M  V30 37081 C 3253.91 -5.46925 2.12343 0
M  V30 37082 C 3256.27 -5.77534 2.58143 0
M  V30 37083 C 3254.93 -6.0066 2.91142 0
M  V30 37084 H 3254.2 -0.737682 -0.0700418 0
M  V30 37085 H 3256.85 -1.84077 0.527998 0
M  V30 37086 H 3255.15 -3.69415 -1.30536 0
M  V30 37087 H 3256.85 -3.89155 -0.967455 0
M  V30 37088 H 3253.44 -4.26571 0.416521 0
M  V30 37089 H 3257.62 -4.80707 1.23429 0
M  V30 37090 H 3252.88 -5.63057 2.38279 0
M  V30 37091 H 3257.05 -6.18558 3.19936 0
M  V30 37092 H 3254.68 -6.59589 3.77949 0
M  V30 37093 N 3256.25 -0.120276 -1.5714 0
M  V30 37094 C 3257.5 0.536353 -1.94853 0
M  V30 37095 C 3257.82 1.67134 -1.00455 0
M  V30 37096 O 3257.09 1.95805 -0.0610874 0
M  V30 37097 H 3255.67 0.201126 -0.719415 0
M  V30 37098 H 3258.34 -0.189516 -1.93976 0
M  V30 37099 H 3257.43 0.930092 -2.97919 0
M  V30 37100 N 3257.73 1.56851 0.153498 0
M  V30 37101 C 3258.98 1.82182 0.865596 0
M  V30 37102 C 3259.29 0.700466 1.82628 0
M  V30 37103 O 3260.5 0.839201 2.58205 0
M  V30 37104 C 3258.96 3.22879 1.58987 0
M  V30 37105 C 3258.56 4.42932 0.671928 0
M  V30 37106 C 3260.31 3.5749 2.28914 0
M  V30 37107 C 3258.22 5.74652 1.39745 0
M  V30 37108 H 3257.15 0.679411 0.326981 0
M  V30 37109 H 3259.8 1.83118 0.118371 0
M  V30 37110 H 3258.18 3.16312 2.38249 0
M  V30 37111 H 3259.35 4.60722 -0.0850035 0
M  V30 37112 H 3257.67 4.1632 0.0814094 0
M  V30 37113 H 3260.26 4.53155 2.83822 0
M  V30 37114 H 3260.61 2.83231 3.051 0
M  V30 37115 H 3261.14 3.65689 1.56577 0
M  V30 37116 H 3257.88 6.51989 0.677571 0
M  V30 37117 H 3257.4 5.6081 2.12726 0
M  V30 37118 H 3259.08 6.17226 1.94013 0
M  V30 37119 N 3259.21 -0.42264 1.51827 0
M  V30 37120 C 3260.46 -1.17081 1.65222 0
M  V30 37121 C 3260.79 -1.9084 0.375541 0
M  V30 37122 O 3260.04 -1.84905 -0.640997 0
M  V30 37123 C 3260.34 -2.20114 2.81575 0
M  V30 37124 C 3260.01 -1.63261 4.20306 0
M  V30 37125 C 3258.67 -1.47479 4.58043 0
M  V30 37126 C 3261.02 -1.21609 5.06814 0
M  V30 37127 C 3258.35 -0.885429 5.7998 0
M  V30 37128 C 3260.7 -0.64096 6.29344 0
M  V30 37129 C 3259.36 -0.470169 6.65842 0
M  V30 37130 H 3258.63 -0.428431 0.604589 0
M  V30 37131 H 3261.28 -0.459841 1.85897 0
M  V30 37132 H 3259.59 -2.97305 2.55181 0
M  V30 37133 H 3261.28 -2.77851 2.89137 0
M  V30 37134 H 3257.87 -1.76524 3.9056 0
M  V30 37135 H 3262.06 -1.32616 4.78254 0
M  V30 37136 H 3257.31 -0.740998 6.06893 0
M  V30 37137 H 3261.49 -0.309766 6.95711 0
M  V30 37138 H 3259.11 -0.0113702 7.60199 0
M  V30 37139 N 3260.69 -1.42222 -0.679027 0
M  V30 37140 C 3262.1 -1.25054 -0.991643 0
M  V30 37141 C 3262.3 -0.151701 -2.00928 0
M  V30 37142 O 3261.36 0.478463 -2.47925 0
M  V30 37143 C 3262.67 -2.60588 -1.50048 0
M  V30 37144 C 3264.22 -2.67908 -1.61847 0
M  V30 37145 C 3264.7 -4.03798 -2.16128 0
M  V30 37146 N 3266.19 -4.0573 -2.23467 0
M  V30 37147 C 3266.92 -5.07689 -2.66532 0
M  V30 37148 N 3266.42 -6.20033 -3.09081 0
M  V30 37149 N 3268.21 -4.95047 -2.66243 0
M  V30 37150 H 3260.36 -2.12399 -0.00518118 0
M  V30 37151 H 3262.63 -0.945781 -0.0648299 0
M  V30 37152 H 3262.33 -3.41833 -0.82725 0
M  V30 37153 H 3262.21 -2.84217 -2.47993 0
M  V30 37154 H 3264.59 -1.87012 -2.28278 0
M  V30 37155 H 3264.67 -2.48072 -0.62403 0
M  V30 37156 H 3264.32 -4.85149 -1.50308 0
M  V30 37157 H 3264.25 -4.20983 -3.16355 0
M  V30 37158 H 3266.74 -3.24625 -1.93461 0
M  V30 37159 H 3267.05 -6.93687 -3.40615 0
M  V30 37160 H 3265.4 -6.23545 -3.06948 0
M  V30 37161 H 3268.59 -4.06356 -2.32362 0
M  V30 37162 H 3268.76 -5.74641 -2.99485 0
M  V30 37163 N 3262.17 0.91492 -1.28324 0
M  V30 37164 C 3263.58 1.19311 -1.06005 0
M  V30 37165 C 3263.78 2.00522 0.198331 0
M  V30 37166 O 3262.84 2.35903 0.900322 0
M  V30 37167 C 3264.15 1.92883 -2.30687 0
M  V30 37168 C 3265.7 2.05771 -2.35854 0
M  V30 37169 C 3266.17 2.82751 -3.603 0
M  V30 37170 N 3267.67 2.90313 -3.60933 0
M  V30 37171 C 3268.4 3.50375 -4.539 0
M  V30 37172 N 3267.9 4.11724 -5.57185 0
M  V30 37173 N 3269.69 3.47902 -4.41498 0
M  V30 37174 H 3261.84 0.372698 -2.09105 0
M  V30 37175 H 3264.1 0.227536 -0.920289 0
M  V30 37176 H 3263.81 1.40637 -3.22357 0
M  V30 37177 H 3263.68 2.9344 -2.37009 0
M  V30 37178 H 3266.07 2.57198 -1.44682 0
M  V30 37179 H 3266.15 1.04395 -2.33528 0
M  V30 37180 H 3265.8 2.32003 -4.51815 0
M  V30 37181 H 3265.73 3.8444 -3.5988 0
M  V30 37182 H 3268.22 2.46724 -2.86244 0
M  V30 37183 H 3268.53 4.5553 -6.24269 0
M  V30 37184 H 3266.87 4.10232 -5.61012 0
M  V30 37185 H 3270.07 2.99183 -3.6001 0
M  V30 37186 H 3270.24 3.94418 -5.14139 0
M  V30 37187 N 3263.64 1.10553 1.1232 0
M  V30 37188 C 3264.59 0.755463 2.18086 0
M  V30 37189 C 3265.56 -0.268776 1.63911 0
M  V30 37190 O 3266.75 -0.14778 1.90227 0
M  V30 37191 C 3263.89 0.194773 3.4455 0
M  V30 37192 C 3263 1.27446 4.12773 0
M  V30 37193 C 3262.13 0.675286 5.2689 0
M  V30 37194 C 3261.17 1.73547 5.86982 0
M  V30 37195 N 3260.31 1.15647 6.9251 0
M  V30 37196 H 3265.15 1.66159 2.47376 0
M  V30 37197 H 3262.69 0.829945 1.21451 0
M  V30 37198 H 3264.65 -0.148202 4.16937 0
M  V30 37199 H 3263.28 -0.674583 3.15673 0
M  V30 37200 H 3262.33 1.73454 3.38553 0
M  V30 37201 H 3263.64 2.07695 4.53502 0
M  V30 37202 H 3262.79 0.28183 6.06045 0
M  V30 37203 H 3261.53 -0.158623 4.87442 0
M  V30 37204 H 3260.54 2.13834 5.06513 0
M  V30 37205 H 3261.76 2.57224 6.285 0
M  V30 37206 H 3259.71 0.344043 6.55097 0
M  V30 37207 H 3259.63 1.89578 7.31844 0
M  V30 37208 H 3260.89 0.789599 7.75491 0
M  V30 37209 N 3265.12 -1.29758 0.894457 0
M  V30 37210 C 3266.54 -1.48302 0.589804 0
M  V30 37211 C 3266.74 -1.81748 -0.870053 0
M  V30 37212 O 3265.79 -1.91079 -1.65061 0
M  V30 37213 C 3267.11 -2.59973 1.51112 0
M  V30 37214 C 3268.66 -2.7385 1.51576 0
M  V30 37215 C 3269.13 -3.88644 2.42322 0
M  V30 37216 N 3270.62 -3.95969 2.4034 0
M  V30 37217 C 3271.36 -4.84126 3.07262 0
M  V30 37218 N 3270.85 -5.77011 3.83445 0
M  V30 37219 N 3272.65 -4.77573 2.96446 0
M  V30 37220 H 3264.8 -1.06324 1.83872 0
M  V30 37221 H 3267.06 -0.527643 0.787589 0
M  V30 37222 H 3266.77 -2.42108 2.55102 0
M  V30 37223 H 3266.64 -3.5666 1.22773 0
M  V30 37224 H 3269.03 -2.91115 0.483329 0
M  V30 37225 H 3269.11 -1.77753 1.83949 0
M  V30 37226 H 3268.75 -3.72135 3.45656 0
M  V30 37227 H 3268.68 -4.84098 2.07261 0
M  V30 37228 H 3271.17 -3.29528 1.84985 0
M  V30 37229 H 3271.49 -6.41063 4.31576 0
M  V30 37230 H 3269.83 -5.76913 3.87552 0
M  V30 37231 H 3273.02 -4.03992 2.36449 0
M  V30 37232 H 3273.19 -5.46067 3.48877 0
M  V30 37233 N 3266.6 -0.65639 -1.4328 0
M  V30 37234 C 3267.51 0.0338228 -2.34576 0
M  V30 37235 C 3268.53 0.808766 -1.54062 0
M  V30 37236 O 3269.7 0.755289 -1.86701 0
M  V30 37237 C 3266.77 0.986138 -3.3238 0
M  V30 37238 C 3265.83 0.207776 -4.28797 0
M  V30 37239 C 3265.06 1.11473 -5.21929 0
M  V30 37240 O 3265.28 2.35405 -5.19558 0
M  V30 37241 O 3264.22 0.58543 -5.99046 0
M  V30 37242 H 3268.04 -0.71772 -2.95097 0
M  V30 37243 H 3265.63 -0.416582 -1.43475 0
M  V30 37244 H 3267.51 1.53334 -3.92513 0
M  V30 37245 H 3266.19 1.71785 -2.74357 0
M  V30 37246 H 3265.09 -0.383088 -3.72133 0
M  V30 37247 H 3266.43 -0.484436 -4.8981 0
M  V30 37248 N 3268.08 1.52478 -0.398513 0
M  V30 37249 C 3269.33 2.00877 0.182011 0
M  V30 37250 C 3269.64 1.28893 1.47126 0
M  V30 37251 O 3270.85 1.68051 2.13239 0
M  V30 37252 C 3269.3 3.57942 0.374915 0
M  V30 37253 C 3268.91 4.38833 -0.901621 0
M  V30 37254 C 3270.66 4.14603 0.911305 0
M  V30 37255 C 3268.56 5.87518 -0.676489 0
M  V30 37256 H 3267.49 0.750574 0.0717936 0
M  V30 37257 H 3270.14 1.75909 -0.522328 0
M  V30 37258 H 3268.53 3.79196 1.14133 0
M  V30 37259 H 3269.7 4.29343 -1.67336 0
M  V30 37260 H 3268.01 3.93438 -1.36364 0
M  V30 37261 H 3270.61 5.23355 1.0956 0
M  V30 37262 H 3270.95 3.7128 1.88299 0
M  V30 37263 H 3271.49 3.97275 0.204226 0
M  V30 37264 H 3268.23 6.35181 -1.61944 0
M  V30 37265 H 3267.75 5.99774 0.0561488 0
M  V30 37266 H 3269.43 6.46235 -0.314568 0
M  V30 37267 N 3269.56 0.128608 1.57074 0
M  V30 37268 C 3270.79 -0.533734 1.99587 0
M  V30 37269 C 3271.2 -1.60151 1.00739 0
M  V30 37270 O 3270.54 -1.83699 -0.00644554 0
M  V30 37271 C 3270.6 -1.21008 3.38522 0
M  V30 37272 C 3270.26 -0.289111 4.56085 0
M  V30 37273 C 3271.26 0.476054 5.17716 0
M  V30 37274 C 3268.95 -0.197379 5.01912 0
M  V30 37275 C 3270.94 1.32059 6.2357 0
M  V30 37276 C 3268.63 0.650776 6.07625 0
M  V30 37277 C 3269.63 1.40838 6.68322 0
M  V30 37278 O 3269.31 2.24244 7.71991 0
M  V30 37279 H 3269.05 -0.145085 0.660247 0
M  V30 37280 H 3271.6 0.214651 2.04275 0
M  V30 37281 H 3269.83 -2.00573 3.30617 0
M  V30 37282 H 3271.52 -1.77029 3.65261 0
M  V30 37283 H 3272.28 0.415112 4.8322 0
M  V30 37284 H 3268.16 -0.776773 4.54409 0
M  V30 37285 H 3271.71 1.9124 6.70875 0
M  V30 37286 H 3267.6 0.713077 6.41549 0
M  V30 37287 H 3268.37 2.1729 7.89131 0
M  V30 37288 N 3271.04 -1.5693 -0.145178 0
M  V30 37289 C 3272.28 -1.82639 -0.855923 0
M  V30 37290 C 3272.6 -0.710141 -1.82254 0
M  V30 37291 O 3273.8 -0.852882 -2.57756 0
M  V30 37292 C 3272.26 -3.23718 -1.57272 0
M  V30 37293 C 3271.87 -4.43283 -0.648429 0
M  V30 37294 C 3273.61 -3.58699 -2.27015 0
M  V30 37295 C 3271.52 -5.75385 -1.36696 0
M  V30 37296 H 3270.45 -0.681136 -0.323373 0
M  V30 37297 H 3273.1 -1.83178 -0.108658 0
M  V30 37298 H 3271.48 -3.17571 -2.36568 0
M  V30 37299 H 3272.66 -4.6067 0.109436 0
M  V30 37300 H 3270.97 -4.16358 -0.0593297 0
M  V30 37301 H 3273.57 -4.54653 -2.81415 0
M  V30 37302 H 3273.91 -2.84845 -3.03593 0
M  V30 37303 H 3274.44 -3.66514 -1.54635 0
M  V30 37304 H 3271.18 -6.52339 -0.642985 0
M  V30 37305 H 3270.7 -5.6193 -2.09749 0
M  V30 37306 H 3272.38 -6.18246 -1.90737 0
M  V30 37307 N 3272.51 0.414582 -1.52049 0
M  V30 37308 C 3273.92 0.99361 -1.58064 0
M  V30 37309 C 3274.28 1.91699 -0.417828 0
M  V30 37310 O 3273.4 2.11399 0.462521 0
M  V30 37311 C 3274 1.80881 -2.86474 0
M  V30 37312 C 3272.55 2.33796 -2.94985 0
M  V30 37313 C 3271.7 1.13627 -2.52951 0
M  V30 37314 H 3274.65 0.195012 -1.57497 0
M  V30 37315 H 3274.67 2.66566 -2.7152 0
M  V30 37316 H 3274.19 1.1365 -3.71087 0
M  V30 37317 H 3272.29 3.04415 -2.14854 0
M  V30 37318 H 3272.4 2.65035 -3.99116 0
M  V30 37319 H 3270.76 1.48857 -2.06673 0
M  V30 37320 H 3271.55 0.479706 -3.39932 0
M  V30 37321 O 3274.03 1.51464 0.560444 0
M  V30 37322 H 3274.72 1.50811 1.21555 0
M  V30 END ATOM
M  V30 BEGIN BOND
M  V30 END BOND
M  V30 END CTAB
M  END
$$$$
