drugbank_target|Q8IBS5 Calcium-dependent protein kinase 4 (DB11638)
 OpenBabel12092121123D

  0  0  0     0  0            999 V3000
M  V30 BEGIN CTAB
M  V30 COUNTS 8599 8667 0 0 0
M  V30 BEGIN ATOM
M  V30 1 H -0.908 1.98254 -0.117106 0
M  V30 2 N 0 1.576 0 0
M  V30 3 C 0.933 2.03868 1.02534 0
M  V30 4 C 1.911 0.928543 1.3348 0
M  V30 5 O 3.095 1.19667 1.45644 0
M  V30 6 C 0.222 2.43627 2.35294 0
M  V30 7 C -0.732 3.65373 2.2001 0
M  V30 8 S 0.101 5.13292 1.52614 0
M  V30 9 C 1.257 5.56322 2.86805 0
M  V30 10 H 1.49 2.90518 0.631377 0
M  V30 11 H -0.977 1.52953 0.210867 0
M  V30 12 H 0.981 2.67203 3.11629 0
M  V30 13 H -0.358 1.57376 2.7183 0
M  V30 14 H -1.165 3.90944 3.18086 0
M  V30 15 H -1.563 3.418 1.51819 0
M  V30 16 H 0.729 5.58782 3.83104 0
M  V30 17 H 1.672 6.56266 2.65933 0
M  V30 18 H 2.08 4.83886 2.90714 0
M  V30 19 N 1.4781 -0.272755 1.55222 0
M  V30 20 C 2.7261 -1.00234 1.75492 0
M  V30 21 C 3.0471 -1.8681 0.5592 0
M  V30 22 O 2.3171 -1.91215 -0.425882 0
M  V30 23 H 0.8971 -0.373076 0.647166 0
M  V30 24 H 3.5591 -0.296926 1.92625 0
M  V30 25 H 2.6551 -1.63913 2.65592 0
M  V30 26 N 2.9562 -1.48159 -0.537278 0
M  V30 27 C 3.8882 -1.58218 -1.65831 0
M  V30 28 C 4.9012 -0.466948 -1.5596 0
M  V30 29 O 6.0902 -0.73747 -1.62553 0
M  V30 30 C 3.1902 -1.48906 -3.04434 0
M  V30 31 C 2.3632 -2.75343 -3.3986 0
M  V30 32 C 1.4222 -2.59588 -4.57712 0
M  V30 33 O 0.4482 -3.33457 -4.61297 0
M  V30 34 N 1.6502 -1.68724 -5.55439 0
M  V30 35 H 4.4152 -2.54891 -1.57641 0
M  V30 36 H 1.9762 -1.4479 -0.724386 0
M  V30 37 H 3.9682 -1.36072 -3.81139 0
M  V30 38 H 2.5382 -0.602368 -3.06741 0
M  V30 39 H 1.7582 -3.02795 -2.52406 0
M  V30 40 H 3.0462 -3.5924 -3.60311 0
M  V30 41 H 2.4442 -1.07898 -5.55315 0
M  V30 42 H 1.0012 -1.61832 -6.3139 0
M  V30 43 N 4.4343 0.785586 -1.36625 0
M  V30 44 C 5.3443 1.92964 -1.33425 0
M  V30 45 C 6.3603 1.72394 -0.235851 0
M  V30 46 O 7.5363 1.95866 -0.468878 0
M  V30 47 C 4.6013 3.27884 -1.12662 0
M  V30 48 C 3.6623 3.61204 -2.32013 0
M  V30 49 C 2.8953 4.89687 -2.12231 0
M  V30 50 O 3.1183 5.59704 -1.09945 0
M  V30 51 O 2.0523 5.21752 -3.00098 0
M  V30 52 H 5.8783 1.98613 -2.29753 0
M  V30 53 H 3.4633 0.926384 -1.17211 0
M  V30 54 H 5.3453 4.08614 -1.03016 0
M  V30 55 H 4.0203 3.23118 -0.193991 0
M  V30 56 H 2.9273 2.80765 -2.47228 0
M  V30 57 H 4.2603 3.70698 -3.23796 0
M  V30 58 N 5.9124 1.20967 1.01018 0
M  V30 59 C 7.1584 1.02526 1.74975 0
M  V30 60 C 7.4914 -0.4408 1.89131 0
M  V30 61 O 6.7664 -1.32718 1.42184 0
M  V30 62 C 7.0494 1.71699 3.1653 0
M  V30 63 C 6.9024 3.25791 3.10129 0
M  V30 64 C 8.2214 1.45531 4.15342 0
M  V30 65 H 5.3404 0.373863 0.635134 0
M  V30 66 H 7.9824 1.49071 1.17805 0
M  V30 67 H 6.1324 1.32128 3.65341 0
M  V30 68 H 7.8044 3.74697 2.69072 0
M  V30 69 H 6.0474 3.56363 2.47362 0
M  V30 70 H 6.7184 3.69353 4.10222 0
M  V30 71 H 9.1944 1.79872 3.75213 0
M  V30 72 H 8.0704 1.96453 5.1254 0
M  V30 73 H 8.3314 0.384237 4.40427 0
M  V30 74 N 7.3905 -1.2043 1.01659 0
M  V30 75 C 8.6155 -1.94318 0.724942 0
M  V30 76 C 9.0405 -1.74266 -0.708034 0
M  V30 77 O 8.3985 -1.03694 -1.48719 0
M  V30 78 C 8.4465 -3.44486 1.06591 0
M  V30 79 O 7.5505 -4.12017 0.177599 0
M  V30 80 H 6.8915 -0.60708 0.26898 0
M  V30 81 H 9.4215 -1.52861 1.35995 0
M  V30 82 H 9.4315 -3.95106 1.01762 0
M  V30 83 H 8.1065 -3.58404 2.10997 0
M  V30 84 H 6.6835 -3.71821 0.283421 0
M  V30 85 N 8.8686 -0.792821 -1.36206 0
M  V30 86 C 10.0936 -0.377701 -2.03932 0
M  V30 87 C 10.5186 0.998947 -1.59382 0
M  V30 88 O 9.8766 1.64421 -0.763903 0
M  V30 89 C 9.9246 -0.453635 -3.57735 0
M  V30 90 O 9.0286 0.538151 -4.08874 0
M  V30 91 H 8.3696 -0.159855 -0.644471 0
M  V30 92 H 10.8996 -1.07488 -1.7409 0
M  V30 93 H 10.9096 -0.318464 -4.06755 0
M  V30 94 H 9.5846 -1.45784 -3.89512 0
M  V30 95 H 8.1616 0.364359 -3.71116 0
M  V30 96 N 10.3467 1.47872 -0.545128 0
M  V30 97 C 11.5927 2.02793 -0.0166104 0
M  V30 98 C 11.9257 1.41987 1.32489 0
M  V30 99 O 11.2007 0.571045 1.85928 0
M  V30 100 C 11.4837 3.59989 0.0893294 0
M  V30 101 C 11.3367 4.3125 -1.27841 0
M  V30 102 C 12.6557 4.32606 0.808724 0
M  V30 103 H 9.7747 0.736962 -0.00751035 0
M  V30 104 H 12.4167 1.76433 -0.705085 0
M  V30 105 H 10.5667 3.82579 0.675681 0
M  V30 106 H 12.2387 4.20035 -1.90704 0
M  V30 107 H 10.4817 3.92076 -1.85632 0
M  V30 108 H 11.1527 5.39736 -1.15713 0
M  V30 109 H 13.6287 4.14936 0.310992 0
M  V30 110 H 12.5047 5.42251 0.851782 0
M  V30 111 H 12.7657 4.00963 1.86229 0
M  V30 112 N 11.8248 0.280983 1.55075 0
M  V30 113 C 12.7728 -0.619864 2.24188 0
M  V30 114 C 13.7668 -1.15315 1.24092 0
M  V30 115 O 14.9728 -1.1061 1.42005 0
M  V30 116 H 11.3478 -0.218459 0.719569 0
M  V30 117 H 13.3188 -0.0141831 2.98397 0
M  V30 118 C 12.0678 -1.7899 2.98091 0
M  V30 119 H 11.3908 -1.38874 3.74905 0
M  V30 120 H 12.8308 -2.39672 3.49762 0
M  V30 121 C 11.2898 -2.68192 2.03899 0
M  V30 122 O 11.8198 -3.6872 1.594 0
M  V30 123 N 10.0258 -2.35488 1.70275 0
M  V30 124 H 9.5728 -1.53787 2.06658 0
M  V30 125 H 9.5308 -2.95442 1.07524 0
M  V30 126 N 13.3029 -1.57598 0.00835791 0
M  V30 127 C 14.2509 -2.10078 -0.998508 0
M  V30 128 C 15.2449 -1.02262 -1.35051 0
M  V30 129 O 16.4509 -1.20719 -1.33518 0
M  V30 130 H 12.8259 -0.670903 -0.339696 0
M  V30 131 H 14.7969 -2.93648 -0.530398 0
M  V30 132 C 13.5459 -2.62615 -2.27879 0
M  V30 133 H 12.8689 -3.45213 -2.01662 0
M  V30 134 H 14.3089 -3.03004 -2.96588 0
M  V30 135 C 12.7679 -1.54407 -2.99433 0
M  V30 136 O 13.2979 -0.931812 -3.90743 0
M  V30 137 N 11.5039 -1.2695 -2.61404 0
M  V30 138 H 11.0509 -1.76924 -1.87232 0
M  V30 139 H 11.0089 -0.547704 -3.09593 0
M  V30 140 N 14.781 0.264519 -1.55364 0
M  V30 141 C 16.009 1.013 -1.80405 0
M  V30 142 C 16.424 1.79618 -0.581622 0
M  V30 143 O 15.781 1.76879 0.449468 0
M  V30 144 C 15.832 1.96487 -3.03439 0
M  V30 145 O 15.553 1.21341 -4.20961 0
M  V30 146 C 17.054 2.83079 -3.41147 0
M  V30 147 H 14.274 0.298875 -0.600762 0
M  V30 148 H 16.818 0.292736 -2.02394 0
M  V30 149 H 14.973 2.63965 -2.83551 0
M  V30 150 H 15.387 1.85573 -4.90574 0
M  V30 151 H 16.861 3.4565 -4.30384 0
M  V30 152 H 17.338 3.53286 -2.60932 0
M  V30 153 H 17.944 2.2108 -3.63323 0
M  V30 154 N 16.2591 1.48442 0.529413 0
M  V30 155 C 17.2061 1.63007 1.63394 0
M  V30 156 C 18.1761 0.47212 1.59249 0
M  V30 157 O 19.3611 0.695673 1.77666 0
M  V30 158 C 16.5011 1.6763 3.01653 0
M  V30 159 C 15.6141 2.94535 3.16027 0
M  V30 160 C 14.7491 2.90316 4.44849 0
M  V30 161 C 13.7881 4.11923 4.52754 0
M  V30 162 N 12.9251 4.05777 5.72965 0
M  V30 163 H 17.7651 2.5733 1.50285 0
M  V30 164 H 15.3021 1.27613 0.731656 0
M  V30 165 H 17.2601 1.68292 3.81751 0
M  V30 166 H 15.8901 0.76797 3.13532 0
M  V30 167 H 14.9421 3.03615 2.29177 0
M  V30 168 H 16.2541 3.84512 3.17729 0
M  V30 169 H 15.4081 2.89382 5.33238 0
M  V30 170 H 14.1471 1.98068 4.45668 0
M  V30 171 H 13.1521 4.13131 3.62771 0
M  V30 172 H 14.3771 5.0533 4.53672 0
M  V30 173 H 12.3231 3.16351 5.74681 0
M  V30 174 H 12.2401 4.8946 5.76164 0
M  V30 175 H 13.5081 4.08904 6.6364 0
M  V30 176 N 17.7372 -0.778329 1.37039 0
M  V30 177 C 18.6852 -1.91278 1.32345 0
M  V30 178 C 19.6792 -1.68051 0.213331 0
M  V30 179 O 20.8852 -1.75922 0.38098 0
M  V30 180 H 17.2602 -0.628909 0.412283 0
M  V30 181 H 19.2312 -1.92355 2.28127 0
M  V30 182 C 17.9802 -3.28455 1.14073 0
M  V30 183 H 17.3032 -3.46901 1.98746 0
M  V30 184 H 18.7432 -4.08152 1.14837 0
M  V30 185 C 17.2022 -3.36548 -0.154015 0
M  V30 186 O 17.7322 -3.85186 -1.13993 0
M  V30 187 N 15.9382 -2.89894 -0.202475 0
M  V30 188 H 15.4852 -2.50504 0.600476 0
M  V30 189 H 15.4432 -2.9569 -1.06841 0
M  V30 190 N 19.2153 -1.21501 -1.00376 0
M  V30 191 C 20.1253 -0.991447 -2.12621 0
M  V30 192 C 21.1413 0.0568446 -1.73907 0
M  V30 193 O 22.3173 -0.13348 -2.00957 0
M  V30 194 C 19.3823 -0.560312 -3.42142 0
M  V30 195 C 18.4433 -1.68096 -3.95022 0
M  V30 196 C 17.6763 -1.2703 -5.18362 0
M  V30 197 O 17.8993 -0.144438 -5.70217 0
M  V30 198 O 16.8333 -2.08269 -5.64719 0
M  V30 199 H 20.6593 -1.93158 -2.34358 0
M  V30 200 H 18.2443 -0.999999 -1.10997 0
M  V30 201 H 20.1263 -0.329724 -4.20108 0
M  V30 202 H 18.8013 0.351089 -3.2179 0
M  V30 203 H 17.7083 -1.96597 -3.18278 0
M  V30 204 H 19.0413 -2.56983 -4.19786 0
M  V30 205 N 20.6934 1.19889 -1.02296 0
M  V30 206 C 21.6434 2.20777 -0.56934 0
M  V30 207 C 22.6274 1.56379 0.378741 0
M  V30 208 O 23.8194 1.75859 0.200673 0
M  V30 209 C 20.9484 3.43196 0.0845077 0
M  V30 210 C 20.0344 4.14749 -0.88566 0
M  V30 211 N 20.4254 4.62584 -2.04573 0
M  V30 212 C 18.7234 4.40347 -0.707835 0
M  V30 213 C 19.4244 5.17466 -2.65714 0
M  V30 214 N 18.4004 5.0791 -1.93723 0
M  V30 215 H 22.2024 2.55434 -1.45365 0
M  V30 216 H 19.7164 1.35897 -0.88915 0
M  V30 217 H 21.7134 4.14707 0.427067 0
M  V30 218 H 20.3734 3.10042 0.964574 0
M  V30 219 H 21.3844 4.57597 -2.4254 0
M  V30 220 H 18.0614 4.17317 0.12364 0
M  V30 221 H 19.4514 5.64808 -3.63925 0
M  V30 222 N 22.1715 0.800033 1.35784 0
M  V30 223 C 23.1215 0.178654 2.27299 0
M  V30 224 C 24.1055 -0.643667 1.47464 0
M  V30 225 O 25.2975 -0.502 1.69732 0
M  V30 226 C 22.4265 -0.677194 3.36555 0
M  V30 227 C 21.5125 0.154497 4.23818 0
M  V30 228 N 21.9035 1.21427 4.91008 0
M  V30 229 C 20.2015 -0.0649462 4.45953 0
M  V30 230 C 20.9025 1.72147 5.55644 0
M  V30 231 N 19.8785 1.02897 5.33773 0
M  V30 232 H 23.6805 0.989637 2.76737 0
M  V30 233 H 21.1945 0.64054 1.49234 0
M  V30 234 H 23.1915 -1.13835 4.01058 0
M  V30 235 H 21.8515 -1.4866 2.8867 0
M  V30 236 H 22.8625 1.59684 4.92668 0
M  V30 237 H 19.5395 -0.844016 4.0888 0
M  V30 238 H 20.9295 2.60683 6.19269 0
M  V30 239 N 23.6496 -1.47581 0.552962 0
M  V30 240 C 24.5966 -2.29957 -0.197108 0
M  V30 241 C 25.5666 -1.38799 -0.912359 0
M  V30 242 O 26.7516 -1.67761 -0.908888 0
M  V30 243 C 23.8916 -3.22672 -1.22379 0
M  V30 244 C 23.0046 -4.28919 -0.515038 0
M  V30 245 C 22.1396 -5.0879 -1.52664 0
M  V30 246 C 21.1786 -6.06815 -0.802631 0
M  V30 247 N 20.3156 -6.7966 -1.76086 0
M  V30 248 H 25.1556 -2.93578 0.511486 0
M  V30 249 H 22.6926 -1.4471 0.264067 0
M  V30 250 H 24.6506 -3.74845 -1.83159 0
M  V30 251 H 23.2806 -2.60925 -1.90047 0
M  V30 252 H 22.3326 -3.79835 0.207192 0
M  V30 253 H 23.6446 -4.98773 0.0523425 0
M  V30 254 H 22.7986 -5.65091 -2.20809 0
M  V30 255 H 21.5376 -4.38828 -2.12794 0
M  V30 256 H 20.5426 -5.49695 -0.107238 0
M  V30 257 H 21.7676 -6.78784 -0.207135 0
M  V30 258 H 19.7136 -6.12432 -2.35081 0
M  V30 259 H 19.6306 -7.45669 -1.24552 0
M  V30 260 H 20.8986 -7.40538 -2.43359 0
M  V30 261 N 25.1277 -0.289203 -1.54924 0
M  V30 262 C 26.3557 0.326463 -2.04308 0
M  V30 263 C 26.7707 1.48413 -1.16701 0
M  V30 264 O 26.1277 1.81507 -0.190087 0
M  V30 265 C 26.1787 0.794014 -3.52672 0
M  V30 266 O 25.8997 -0.317564 -4.36948 0
M  V30 267 C 27.4007 1.47605 -4.18004 0
M  V30 268 H 24.6207 0.0726272 -0.667058 0
M  V30 269 H 27.1647 -0.425401 -2.00026 0
M  V30 270 H 25.3197 1.49593 -3.57352 0
M  V30 271 H 25.7337 0.0443186 -5.24481 0
M  V30 272 H 27.2077 1.75447 -5.23376 0
M  V30 273 H 27.6847 2.41224 -3.67025 0
M  V30 274 H 28.2907 0.81762 -4.17367 0
M  V30 275 N 26.6058 1.57591 -0.0167156 0
M  V30 276 C 27.5538 2.10604 0.987353 0
M  V30 277 C 28.5478 1.02977 1.34507 0
M  V30 278 O 29.7538 1.21425 1.32875 0
M  V30 279 H 26.1288 0.672695 0.336134 0
M  V30 280 H 28.0998 2.93925 0.514817 0
M  V30 281 C 26.8488 2.6382 2.26483 0
M  V30 282 H 26.1718 3.46278 1.99829 0
M  V30 283 H 27.6118 3.04573 2.94977 0
M  V30 284 C 26.0708 1.55992 2.9861 0
M  V30 285 O 26.6008 0.952521 3.90243 0
M  V30 286 N 24.8068 1.28335 2.60727 0
M  V30 287 H 24.3538 1.77914 1.86291 0
M  V30 288 H 24.3118 0.564115 3.09298 0
M  V30 289 N 28.0839 -0.256276 1.55502 0
M  V30 290 C 29.0309 -1.31714 1.89526 0
M  V30 291 C 30.0009 -1.4828 0.748479 0
M  V30 292 O 31.1859 -1.62416 1.00128 0
M  V30 293 C 28.3259 -2.66933 2.18725 0
M  V30 294 C 27.4389 -2.58452 3.4616 0
M  V30 295 C 26.5739 -3.85961 3.64976 0
M  V30 296 C 25.6129 -3.72059 4.86044 0
M  V30 297 N 24.7499 -4.9144 5.01429 0
M  V30 298 H 29.5899 -1.01998 2.80001 0
M  V30 299 H 27.1269 -0.492413 1.38613 0
M  V30 300 H 29.0849 -3.4563 2.33657 0
M  V30 301 H 27.7149 -2.94816 1.31466 0
M  V30 302 H 26.7669 -1.71374 3.3961 0
M  V30 303 H 28.0789 -2.44085 4.34999 0
M  V30 304 H 27.2329 -4.73101 3.79816 0
M  V30 305 H 25.9719 -4.03215 2.74353 0
M  V30 306 H 24.9769 -2.83302 4.7119 0
M  V30 307 H 26.2019 -3.56309 5.78118 0
M  V30 308 H 24.1479 -5.09072 4.13741 0
M  V30 309 H 24.0649 -4.79668 5.84341 0
M  V30 310 H 25.3329 -5.80104 5.20672 0
M  V30 311 N 29.562 -1.4872 -0.521534 0
M  V30 312 C 30.509 -1.63871 -1.62527 0
M  V30 313 C 31.479 -0.480559 -1.58996 0
M  V30 314 O 32.664 -0.705085 -1.77294 0
M  V30 315 C 29.804 -1.69227 -3.00759 0
M  V30 316 C 28.917 -2.96207 -3.14461 0
M  V30 317 C 28.052 -2.92671 -4.43303 0
M  V30 318 C 27.091 -4.14318 -4.50563 0
M  V30 319 N 26.228 -4.0881 -5.70805 0
M  V30 320 H 31.068 -2.58123 -1.48918 0
M  V30 321 H 28.605 -1.28 -0.724878 0
M  V30 322 H 30.563 -1.70314 -3.80853 0
M  V30 323 H 29.193 -0.784586 -3.1312 0
M  V30 324 H 28.245 -3.04826 -2.27564 0
M  V30 325 H 29.557 -3.86192 -3.15686 0
M  V30 326 H 28.711 -2.92206 -5.31696 0
M  V30 327 H 27.45 -2.00429 -4.44612 0
M  V30 328 H 26.455 -4.15049 -3.60575 0
M  V30 329 H 27.68 -5.07729 -4.50986 0
M  V30 330 H 25.626 -3.19394 -5.72995 0
M  V30 331 H 25.543 -4.92509 -5.7356 0
M  V30 332 H 26.811 -4.12418 -6.61462 0
M  V30 333 N 31.0401 0.771051 -1.3745 0
M  V30 334 C 32.2651 1.56529 -1.36065 0
M  V30 335 C 32.6901 1.88029 0.0515859 0
M  V30 336 O 32.0481 1.49282 1.02882 0
M  V30 337 C 32.0961 2.85187 -2.20683 0
M  V30 338 O 31.2001 3.79593 -1.61193 0
M  V30 339 H 30.5411 0.47411 -0.464883 0
M  V30 340 H 33.0711 0.954269 -1.80983 0
M  V30 341 H 33.0811 3.34283 -2.33921 0
M  V30 342 H 31.7561 2.61588 -3.23334 0
M  V30 343 H 30.3331 3.38239 -1.56999 0
M  V30 344 N 32.5182 1.22032 0.997298 0
M  V30 345 C 33.4482 1.01065 2.10495 0
M  V30 346 C 34.4292 -0.0669542 1.69968 0
M  V30 347 O 35.6142 0.0943987 1.9397 0
M  V30 348 C 32.7442 0.582874 3.42374 0
M  V30 349 C 31.6982 1.60592 3.96729 0
M  V30 350 C 31.0242 1.03412 5.24605 0
M  V30 351 C 32.3242 2.99478 4.27914 0
M  V30 352 H 34.0182 1.93708 2.28292 0
M  V30 353 H 31.5642 0.932761 1.09707 0
M  V30 354 H 33.5172 0.423332 4.19268 0
M  V30 355 H 32.2412 -0.379213 3.24391 0
M  V30 356 H 30.9002 1.75316 3.21963 0
M  V30 357 H 30.5482 0.063518 5.0296 0
M  V30 358 H 30.2482 1.71754 5.61938 0
M  V30 359 H 31.7722 0.886066 6.04137 0
M  V30 360 H 33.1862 2.88153 4.95622 0
M  V30 361 H 31.5832 3.64903 4.76409 0
M  V30 362 H 32.6532 3.49742 3.3587 0
M  V30 363 N 33.9963 -1.19345 1.0293 0
M  V30 364 C 34.9433 -2.2258 0.610464 0
M  V30 365 C 35.9133 -1.6179 -0.375946 0
M  V30 366 O 37.0983 -1.88844 -0.272511 0
M  V30 367 C 34.2383 -3.45085 -0.0321473 0
M  V30 368 C 33.3513 -4.20258 1.00035 0
M  V30 369 C 32.4863 -5.3019 0.32746 0
M  V30 370 C 31.5253 -5.97121 1.34584 0
M  V30 371 N 30.6623 -6.98615 0.698726 0
M  V30 372 H 35.5023 -2.57764 1.49538 0
M  V30 373 H 33.0393 -1.26644 0.748311 0
M  V30 374 H 34.9973 -4.15061 -0.421966 0
M  V30 375 H 33.6273 -3.10555 -0.88064 0
M  V30 376 H 32.6793 -3.49223 1.50823 0
M  V30 377 H 33.9913 -4.66175 1.77433 0
M  V30 378 H 33.1453 -6.06587 -0.11718 0
M  V30 379 H 31.8843 -4.85345 -0.478713 0
M  V30 380 H 30.8893 -5.19474 1.80074 0
M  V30 381 H 32.1143 -6.4405 2.15352 0
M  V30 382 H 30.0603 -6.55942 -0.0873471 0
M  V30 383 H 29.9773 -7.42724 1.41058 0
M  V30 384 H 31.2453 -7.79004 0.278102 0
M  V30 385 N 35.4744 -0.807222 -1.35358 0
M  V30 386 C 36.7224 -0.387122 -1.98358 0
M  V30 387 C 37.0434 1.04942 -1.64354 0
M  V30 388 O 36.3134 1.72615 -0.926339 0
M  V30 389 H 34.8934 -0.140154 -0.733734 0
M  V30 390 H 37.5554 -1.0332 -1.6526 0
M  V30 391 H 36.6514 -0.493352 -3.08176 0
M  V30 392 N 36.9525 1.47285 -0.560781 0
M  V30 393 C 38.2005 2.02064 -0.0379868 0
M  V30 394 C 38.5215 1.43711 1.31803 0
M  V30 395 O 37.7915 0.61362 1.86042 0
M  V30 396 H 36.3715 0.746918 -0.0110531 0
M  V30 397 H 39.0335 1.80648 -0.731598 0
M  V30 398 H 38.1295 3.12064 0.0474463 0
M  V30 399 N 38.4306 0.297415 1.54768 0
M  V30 400 C 39.3786 -0.596051 2.24833 0
M  V30 401 C 40.3726 -1.13992 1.25308 0
M  V30 402 O 41.5786 -1.09098 1.4317 0
M  V30 403 H 37.9536 -0.210814 0.721846 0
M  V30 404 H 39.9246 0.0174667 2.98395 0
M  V30 405 C 38.6736 -1.75818 2.99972 0
M  V30 406 H 37.9966 -1.3489 3.76357 0
M  V30 407 H 39.4366 -2.35949 3.52284 0
M  V30 408 C 37.8956 -2.66014 2.06732 0
M  V30 409 O 38.4256 -3.67009 1.63302 0
M  V30 410 N 36.6316 -2.33669 1.72763 0
M  V30 411 H 36.1786 -1.51586 2.08277 0
M  V30 412 H 36.1366 -2.94285 1.10652 0
M  V30 413 N 39.9087 -1.5758 0.0250728 0
M  V30 414 C 40.8187 -2.1343 -0.973905 0
M  V30 415 C 41.8347 -1.08556 -1.35984 0
M  V30 416 O 43.0107 -1.40592 -1.44207 0
M  V30 417 C 40.0757 -2.64703 -2.23904 0
M  V30 418 C 39.1367 -3.84276 -1.91391 0
M  V30 419 C 38.3697 -4.33095 -3.11873 0
M  V30 420 O 38.5927 -3.81107 -4.24398 0
M  V30 421 O 37.5267 -5.24984 -2.94406 0
M  V30 422 H 41.3527 -2.99057 -0.529036 0
M  V30 423 H 38.9377 -1.48118 -0.195288 0
M  V30 424 H 40.8197 -2.97769 -2.98181 0
M  V30 425 H 39.4947 -1.82161 -2.6758 0
M  V30 426 H 38.4017 -3.56143 -1.14511 0
M  V30 427 H 39.7347 -4.67968 -1.52534 0
M  V30 428 N 41.3868 0.248026 -1.55636 0
M  V30 429 C 42.8028 0.596483 -1.48035 0
M  V30 430 C 43.0028 1.88386 -0.715039 0
M  V30 431 O 42.0588 2.51319 -0.243944 0
M  V30 432 C 43.3718 0.700258 -2.92433 0
M  V30 433 C 44.9198 0.792659 -3.02797 0
M  V30 434 C 45.3948 0.928005 -4.485 0
M  V30 435 N 46.8858 0.992903 -4.52433 0
M  V30 436 C 47.6208 1.11687 -5.62418 0
M  V30 437 N 47.1168 1.20645 -6.82214 0
M  V30 438 N 48.9098 1.14994 -5.50212 0
M  V30 439 H 41.0608 -0.597109 -2.03834 0
M  V30 440 H 43.3238 -0.205925 -0.925364 0
M  V30 441 H 43.0298 -0.175658 -3.51261 0
M  V30 442 H 42.9038 1.57255 -3.42857 0
M  V30 443 H 45.2908 1.65903 -2.4405 0
M  V30 444 H 45.3718 -0.104762 -2.55585 0
M  V30 445 H 45.0158 0.0661971 -5.07857 0
M  V30 446 H 44.9458 1.84045 -4.93391 0
M  V30 447 H 47.4368 0.935064 -3.66149 0
M  V30 448 H 47.7498 1.30008 -7.61786 0
M  V30 449 H 46.0948 1.17605 -6.84977 0
M  V30 450 H 49.2858 1.07643 -4.55555 0
M  V30 451 H 49.4588 1.24311 -6.35965 0
M  V30 452 N 42.8649 1.48995 0.513639 0
M  V30 453 C 43.8149 1.61127 1.61314 0
M  V30 454 C 44.7989 0.467521 1.53958 0
M  V30 455 O 45.9909 0.719826 1.61702 0
M  V30 456 C 43.1199 1.66937 2.99978 0
M  V30 457 C 42.2059 2.86847 3.12377 0
M  V30 458 N 42.5969 4.11078 2.94701 0
M  V30 459 C 40.8949 2.84521 3.43459 0
M  V30 460 C 41.5959 4.91615 3.10949 0
M  V30 461 N 40.5719 4.24739 3.3926 0
M  V30 462 H 44.3739 2.54909 1.46282 0
M  V30 463 H 41.8879 1.45593 0.719483 0
M  V30 464 H 43.8849 1.73725 3.78979 0
M  V30 465 H 42.5449 0.742831 3.16089 0
M  V30 466 H 43.5559 4.41258 2.71131 0
M  V30 467 H 40.2329 2.01192 3.65825 0
M  V30 468 H 41.6229 6.00264 3.01882 0
M  V30 469 N 44.343 -0.763751 1.37857 0
M  V30 470 C 45.253 -1.90817 1.36478 0
M  V30 471 C 46.269 -1.71997 0.263248 0
M  V30 472 O 47.445 -1.95095 0.499979 0
M  V30 473 C 44.51 -3.2605 1.17864 0
M  V30 474 C 43.571 -3.57467 2.3773 0
M  V30 475 C 42.804 -4.86249 2.19995 0
M  V30 476 O 43.027 -5.57884 1.18836 0
M  V30 477 O 41.961 -5.16911 3.08361 0
M  V30 478 H 45.787 -1.94933 2.32884 0
M  V30 479 H 43.372 -0.907619 1.1867 0
M  V30 480 H 45.254 -4.06924 1.09504 0
M  V30 481 H 43.929 -3.22769 0.245372 0
M  V30 482 H 42.836 -2.76796 2.51664 0
M  V30 483 H 44.169 -3.655 3.29652 0
M  V30 484 N 45.8211 -1.22559 -0.990812 0
M  V30 485 C 46.7541 -0.940773 -2.07905 0
M  V30 486 C 47.7321 0.117082 -1.62178 0
M  V30 487 O 48.9161 -0.0149506 -1.88494 0
M  V30 488 C 46.0431 -0.415321 -3.36144 0
M  V30 489 C 45.0891 -1.45818 -4.00799 0
M  V30 490 S 45.9221 -3.03219 -4.41382 0
M  V30 491 C 47.0781 -2.52317 -5.72789 0
M  V30 492 H 47.3111 -1.8623 -2.31745 0
M  V30 493 H 44.8441 -1.05688 -1.12558 0
M  V30 494 H 46.8021 -0.118747 -4.10328 0
M  V30 495 H 45.4631 0.485121 -3.10331 0
M  V30 496 H 44.6561 -1.04044 -4.93144 0
M  V30 497 H 44.2581 -1.70356 -3.32949 0
M  V30 498 H 46.5501 -1.93688 -6.49224 0
M  V30 499 H 47.4931 -3.43161 -6.19392 0
M  V30 500 H 47.9011 -1.93529 -5.30289 0
M  V30 501 N 47.2992 1.18797 -1.03562 0
M  V30 502 C 48.2462 2.22253 -0.622259 0
M  V30 503 C 49.2162 1.61987 0.36736 0
M  V30 504 O 50.4012 1.88986 0.262492 0
M  V30 505 C 47.5412 3.45097 0.0138462 0
M  V30 506 C 46.6542 4.19722 -1.02263 0
M  V30 507 C 45.7892 5.30009 -0.355573 0
M  V30 508 C 44.8282 5.96399 -1.37749 0
M  V30 509 N 43.9652 6.98234 -0.735766 0
M  V30 510 H 48.8052 2.56968 -1.50903 0
M  V30 511 H 46.3422 1.26245 -0.755017 0
M  V30 512 H 48.3002 4.15279 0.399948 0
M  V30 513 H 46.9302 3.11018 0.864158 0
M  V30 514 H 45.9822 3.48418 -1.52673 0
M  V30 515 H 47.2942 4.65227 -1.79903 0
M  V30 516 H 46.4482 6.0664 0.0850095 0
M  V30 517 H 45.1872 4.85592 0.452967 0
M  V30 518 H 44.1922 5.18512 -1.82826 0
M  V30 519 H 45.4172 6.42899 -2.18764 0
M  V30 520 H 43.3632 6.55979 0.0525597 0
M  V30 521 H 43.2802 7.41965 -1.44995 0
M  V30 522 H 44.5482 7.78845 -0.31941 0
M  V30 523 N 48.7773 0.814389 1.34928 0
M  V30 524 C 49.6873 0.231978 2.3345 0
M  V30 525 C 50.7033 -0.629139 1.62228 0
M  V30 526 O 51.8793 -0.539052 1.94052 0
M  V30 527 C 48.9443 -0.603482 3.41407 0
M  V30 528 C 48.0053 0.279037 4.28392 0
M  V30 529 C 47.2383 -0.516643 5.31193 0
M  V30 530 O 47.4613 -1.75068 5.4287 0
M  V30 531 O 46.3953 0.0965652 6.01823 0
M  V30 532 H 50.2213 1.04721 2.85074 0
M  V30 533 H 47.8063 0.576343 1.37836 0
M  V30 534 H 49.6883 -1.07908 4.0735 0
M  V30 535 H 48.3633 -1.39618 2.92042 0
M  V30 536 H 47.2703 0.801948 3.65403 0
M  V30 537 H 48.6033 1.03588 4.81176 0
M  V30 538 N 50.2554 -1.46986 0.568584 0
M  V30 539 C 51.4804 -2.07335 0.0520528 0
M  V30 540 C 51.9054 -1.41675 -1.23733 0
M  V30 541 O 51.2634 -0.495623 -1.74394 0
M  V30 542 C 51.3114 -3.60417 -0.11501 0
M  V30 543 O 50.4154 -3.95309 -1.17492 0
M  V30 544 H 49.7564 -0.661597 0.0564385 0
M  V30 545 H 52.2864 -1.88837 0.787507 0
M  V30 546 H 52.2964 -4.06698 -0.325644 0
M  V30 547 H 50.9714 -4.07601 0.826675 0
M  V30 548 H 49.5484 -3.60757 -0.943869 0
M  V30 549 N 51.7335 -0.305618 -1.54608 0
M  V30 550 C 52.9585 0.307562 -2.05107 0
M  V30 551 C 53.3835 1.46385 -1.18123 0
M  V30 552 O 52.7415 1.8034 -0.186324 0
M  V30 553 C 52.7895 0.73704 -3.52987 0
M  V30 554 O 51.8935 1.84134 -3.6901 0
M  V30 555 H 51.2345 0.0589143 -0.661381 0
M  V30 556 H 53.7645 -0.448807 -1.99617 0
M  V30 557 H 53.7745 1.02459 -3.94925 0
M  V30 558 H 52.4495 -0.108773 -4.15758 0
M  V30 559 H 51.0265 1.55398 -3.38978 0
M  V30 560 N 53.2116 1.57565 -0.0334293 0
M  V30 561 C 54.4576 1.92262 0.645226 0
M  V30 562 C 54.7906 0.910543 1.71531 0
M  V30 563 O 54.0656 -0.066099 1.94388 0
M  V30 564 C 54.3486 3.37422 1.2577 0
M  V30 565 C 54.2016 4.49369 0.196891 0
M  V30 566 C 55.5206 3.82628 2.17449 0
M  V30 567 H 52.6396 0.699171 0.233085 0
M  V30 568 H 55.2816 1.89779 -0.0915694 0
M  V30 569 H 53.4316 3.39669 1.88566 0
M  V30 570 H 55.1036 4.59254 -0.433962 0
M  V30 571 H 53.3466 4.31168 -0.477137 0
M  V30 572 H 54.0176 5.47978 0.665124 0
M  V30 573 H 56.4936 3.82145 1.64634 0
M  V30 574 H 55.3696 4.84883 2.57254 0
M  V30 575 H 55.6306 3.18376 3.0674 0
M  V30 576 N 54.6897 -0.239769 1.55765 0
M  V30 577 C 55.9377 -0.964892 1.77579 0
M  V30 578 C 56.2587 -1.85582 0.598699 0
M  V30 579 O 55.5287 -1.92075 -0.385226 0
M  V30 580 H 54.1087 -0.359265 0.654933 0
M  V30 581 H 56.7707 -0.256001 1.93211 0
M  V30 582 H 55.8667 -1.58243 2.69009 0
M  V30 583 N 56.1678 -1.49265 -0.50573 0
M  V30 584 C 57.4168 -1.57761 -1.25675 0
M  V30 585 C 57.7298 -0.267371 -1.93764 0
M  V30 586 O 58.9358 -0.230827 -2.70517 0
M  V30 587 C 57.3918 -2.78332 -2.28165 0
M  V30 588 C 56.9998 -4.16096 -1.66037 0
M  V30 589 C 58.7438 -2.96155 -3.04125 0
M  V30 590 C 56.6508 -5.27895 -2.6661 0
M  V30 591 H 55.5808 -0.587391 -0.472745 0
M  V30 592 H 58.2318 -1.75644 -0.53118 0
M  V30 593 H 56.6138 -2.53934 -3.03865 0
M  V30 594 H 57.7878 -4.50612 -0.963622 0
M  V30 595 H 56.1028 -4.03591 -1.02484 0
M  V30 596 H 58.6998 -3.76849 -3.79327 0
M  V30 597 H 59.0428 -2.06534 -3.61455 0
M  V30 598 H 59.5758 -3.2057 -2.35541 0
M  V30 599 H 56.3148 -6.1956 -2.14068 0
M  V30 600 H 55.8348 -4.97839 -3.34539 0
M  V30 601 H 57.5138 -5.57031 -3.29129 0
M  V30 602 N 57.6459 0.756429 -1.3826 0
M  V30 603 C 58.8709 1.55077 -1.37717 0
M  V30 604 C 59.2959 1.88073 0.03164 0
M  V30 605 O 58.6539 1.50364 1.01293 0
M  V30 606 C 58.7019 2.8283 -2.23695 0
M  V30 607 O 57.8059 3.77862 -1.6521 0
M  V30 608 H 57.1469 0.469152 -0.469885 0
M  V30 609 H 59.6769 0.935019 -1.81985 0
M  V30 610 H 59.6869 3.31783 -2.37453 0
M  V30 611 H 58.3619 2.58144 -3.2609 0
M  V30 612 H 56.9389 3.36555 -1.60578 0
M  V30 613 N 59.124 1.23083 0.984299 0
M  V30 614 C 60.071 1.00854 2.07598 0
M  V30 615 C 61.041 -0.0726709 1.65941 0
M  V30 616 O 62.226 0.0786535 1.90638 0
M  V30 617 C 59.366 0.601645 3.39815 0
M  V30 618 C 58.479 1.75456 3.94765 0
M  V30 619 C 57.614 1.29482 5.15177 0
M  V30 620 C 56.653 2.41873 5.62284 0
M  V30 621 N 55.79 1.96885 6.73929 0
M  V30 622 H 60.63 1.943 2.25946 0
M  V30 623 H 58.167 0.968001 1.10762 0
M  V30 624 H 60.125 0.346854 4.15756 0
M  V30 625 H 58.755 -0.295803 3.21442 0
M  V30 626 H 57.807 2.12346 3.15616 0
M  V30 627 H 59.119 2.59965 4.25699 0
M  V30 628 H 58.273 0.997923 5.98437 0
M  V30 629 H 57.012 0.420046 4.85888 0
M  V30 630 H 56.017 2.72342 4.77608 0
M  V30 631 H 57.242 3.29881 5.93595 0
M  V30 632 H 55.188 1.11782 6.46406 0
M  V30 633 H 55.105 2.74956 7.04227 0
M  V30 634 H 56.373 1.70289 7.60672 0
M  V30 635 N 60.6021 -1.18246 1.0419 0
M  V30 636 C 61.5491 -2.2192 0.634037 0
M  V30 637 C 62.5191 -1.62179 -0.358765 0
M  V30 638 O 63.7041 -1.89122 -0.252466 0
M  V30 639 C 60.8441 -3.451 0.00445535 0
M  V30 640 C 59.9571 -4.19174 1.04487 0
M  V30 641 C 59.0921 -5.29813 0.383676 0
M  V30 642 C 58.1311 -5.9566 1.4091 0
M  V30 643 N 57.2681 -6.97834 0.772784 0
M  V30 644 H 62.1081 -2.56164 1.52263 0
M  V30 645 H 59.6451 -1.25843 0.761701 0
M  V30 646 H 61.6031 -4.15485 -0.377919 0
M  V30 647 H 60.2331 -3.11472 -0.847652 0
M  V30 648 H 59.2851 -3.47604 1.54518 0
M  V30 649 H 60.5971 -4.64267 1.82368 0
M  V30 650 H 59.7511 -6.06677 -0.0528366 0
M  V30 651 H 58.4901 -4.85825 -0.427208 0
M  V30 652 H 57.4951 -5.17535 1.85574 0
M  V30 653 H 58.7201 -6.4173 2.22171 0
M  V30 654 H 56.6661 -6.55998 -0.0177708 0
M  V30 655 H 56.5831 -7.41186 1.48928 0
M  V30 656 H 57.8511 -7.78665 0.36071 0
M  V30 657 N 62.0802 -0.821533 -1.34494 0
M  V30 658 C 63.3292 -0.405355 -1.97585 0
M  V30 659 C 63.6422 1.03677 -1.65863 0
M  V30 660 O 64.8482 1.55679 -2.22433 0
M  V30 661 C 63.3042 -0.673861 -3.53535 0
M  V30 662 C 62.9122 -2.12951 -3.94152 0
M  V30 663 C 64.6562 -0.32378 -4.23263 0
M  V30 664 C 62.5632 -2.34298 -5.43009 0
M  V30 665 H 61.4932 -0.147836 -0.739365 0
M  V30 666 H 64.1442 -1.00769 -1.53355 0
M  V30 667 H 62.5262 -0.00137554 -3.96 0
M  V30 668 H 63.7002 -2.84104 -3.62797 0
M  V30 669 H 62.0152 -2.44089 -3.37356 0
M  V30 670 H 64.6122 -0.461126 -5.32708 0
M  V30 671 H 64.9552 0.731586 -4.09821 0
M  V30 672 H 65.4882 -0.950786 -3.8627 0
M  V30 673 H 62.2272 -3.38335 -5.61435 0
M  V30 674 H 61.7472 -1.67687 -5.75883 0
M  V30 675 H 63.4262 -2.16588 -6.09671 0
M  V30 676 N 63.5583 1.46682 -0.576371 0
M  V30 677 C 64.8043 2.02712 -0.0596221 0
M  V30 678 C 65.1373 1.44765 1.29448 0
M  V30 679 O 64.4123 0.610355 1.84675 0
M  V30 680 C 64.6953 3.60098 0.0129503 0
M  V30 681 C 64.5483 4.28441 -1.3696 0
M  V30 682 C 65.8673 4.34224 0.71678 0
M  V30 683 H 62.9863 0.736637 -0.0231407 0
M  V30 684 H 65.6283 1.74898 -0.742351 0
M  V30 685 H 63.7783 3.83926 0.594378 0
M  V30 686 H 65.4503 4.15896 -1.9957 0
M  V30 687 H 63.6933 3.8805 -1.93907 0
M  V30 688 H 64.3643 5.3716 -1.27135 0
M  V30 689 H 66.8403 4.15503 0.222908 0
M  V30 690 H 65.7163 5.43936 0.73657 0
M  V30 691 H 65.9773 4.04823 1.77682 0
M  V30 692 N 65.0364 0.313813 1.54444 0
M  V30 693 C 65.9464 -0.565714 2.27677 0
M  V30 694 C 66.9624 -1.13754 1.31666 0
M  V30 695 O 68.1384 -1.15959 1.64668 0
M  V30 696 C 65.2034 -1.71528 3.01296 0
M  V30 697 C 64.2644 -1.17624 4.12872 0
M  V30 698 C 63.4974 -2.27102 4.8297 0
M  V30 699 O 63.7204 -3.47256 4.52514 0
M  V30 700 O 62.6544 -1.9307 5.70094 0
M  V30 701 H 66.4804 0.0287296 3.03686 0
M  V30 702 H 64.0654 0.0798312 1.49187 0
M  V30 703 H 65.9474 -2.38476 3.4743 0
M  V30 704 H 64.6224 -2.29608 2.2817 0
M  V30 705 H 63.5294 -0.472124 3.71109 0
M  V30 706 H 64.8624 -0.640695 4.88012 0
M  V30 707 N 66.5145 -1.57545 0.0417849 0
M  V30 708 C 67.4625 -2.12148 -0.953723 0
M  V30 709 C 68.4565 -1.05104 -1.32852 0
M  V30 710 O 69.6625 -1.23524 -1.30927 0
M  V30 711 H 66.0375 -0.677957 -0.325389 0
M  V30 712 H 68.0085 -2.94707 -0.467991 0
M  V30 713 C 66.7575 -2.6739 -2.22257 0
M  V30 714 H 66.0805 -3.49413 -1.94295 0
M  V30 715 H 67.5205 -3.09227 -2.90094 0
M  V30 716 C 65.9795 -1.60723 -2.96091 0
M  V30 717 O 66.5095 -1.01449 -3.88679 0
M  V30 718 N 64.7155 -1.32466 -2.58652 0
M  V30 719 H 64.2625 -1.80856 -1.83437 0
M  V30 720 H 64.2205 -0.61325 -3.08361 0
M  V30 721 N 67.9926 0.231505 -1.5589 0
M  V30 722 C 69.2176 0.978689 -1.82856 0
M  V30 723 C 69.6426 1.77559 -0.620846 0
M  V30 724 O 69.0006 1.76119 0.430305 0
M  V30 725 C 69.0486 1.87997 -3.07716 0
M  V30 726 O 68.1526 2.97393 -2.85712 0
M  V30 727 H 67.4936 0.277663 -0.603158 0
M  V30 728 H 70.0236 0.24783 -2.03093 0
M  V30 729 H 70.0336 2.2917 -3.37558 0
M  V30 730 H 68.7086 1.29417 -3.95252 0
M  V30 731 H 67.2856 2.60238 -2.67078 0
M  V30 732 N 69.4707 1.49531 0.497807 0
M  V30 733 C 70.7177 1.59179 1.25173 0
M  V30 734 C 71.0457 0.279932 1.92475 0
M  V30 735 O 70.3007 -0.732383 1.81479 0
M  V30 736 C 70.5997 2.70252 2.33878 0
M  V30 737 C 70.2657 4.11644 1.84012 0
M  V30 738 C 68.9277 4.50121 1.70132 0
M  V30 739 C 71.2797 5.00121 1.46725 0
M  V30 740 C 68.6077 5.74845 1.17348 0
M  V30 741 C 70.9597 6.25366 0.95392 0
M  V30 742 C 69.6237 6.6267 0.801538 0
M  V30 743 H 68.8937 0.582478 0.45804 0
M  V30 744 H 71.5407 1.83373 0.551948 0
M  V30 745 H 69.8457 2.40041 3.09657 0
M  V30 746 H 71.5427 2.74925 2.9192 0
M  V30 747 H 68.1327 3.81274 1.95775 0
M  V30 748 H 72.3167 4.71048 1.56294 0
M  V30 749 H 67.5727 6.02444 1.04264 0
M  V30 750 H 71.7467 6.93301 0.656225 0
M  V30 751 H 69.3737 7.59197 0.390351 0
M  V30 752 N 70.9488 -0.749086 1.3866 0
M  V30 753 C 71.8968 -1.88428 1.36373 0
M  V30 754 C 72.8908 -1.67561 0.248929 0
M  V30 755 O 74.0968 -1.75074 0.41821 0
M  V30 756 H 70.4718 -0.620023 0.42553 0
M  V30 757 H 72.4428 -1.87473 2.32156 0
M  V30 758 C 71.1918 -3.25961 1.21014 0
M  V30 759 H 70.5148 -3.42607 2.06059 0
M  V30 760 H 71.9548 -4.05625 1.23469 0
M  V30 761 C 70.4138 -3.36799 -0.0825941 0
M  V30 762 O 70.9438 -3.87517 -1.05797 0
M  V30 763 N 69.1498 -2.90258 -0.140939 0
M  V30 764 H 68.6968 -2.49174 0.653477 0
M  V30 765 H 68.6548 -2.97889 -1.00545 0
M  V30 766 N 72.4269 -1.23603 -0.977757 0
M  V30 767 C 73.3749 -1.01704 -2.09187 0
M  V30 768 C 74.3689 0.0448214 -1.69341 0
M  V30 769 O 75.5749 -0.108902 -1.7967 0
M  V30 770 H 71.9499 -0.311803 -0.684312 0
M  V30 771 H 73.9209 -1.96207 -2.24823 0
M  V30 772 C 72.6699 -0.627746 -3.41986 0
M  V30 773 H 71.9929 -1.43656 -3.73099 0
M  V30 774 H 73.4329 -0.514053 -4.20872 0
M  V30 775 C 71.8919 0.664238 -3.30287 0
M  V30 776 O 72.4219 1.71268 -3.6336 0
M  V30 777 N 70.6279 0.641156 -2.83439 0
M  V30 778 H 70.1749 -0.212376 -2.56723 0
M  V30 779 H 70.1329 1.50583 -2.75993 0
M  V30 780 N 73.905 1.17692 -1.04816 0
M  V30 781 C 75.13 1.92327 -0.776207 0
M  V30 782 C 75.555 1.76082 0.661581 0
M  V30 783 O 74.913 1.076 1.45917 0
M  V30 784 C 74.961 3.41539 -1.15687 0
M  V30 785 O 74.065 4.11402 -0.286775 0
M  V30 786 H 73.406 0.599735 -0.284981 0
M  V30 787 H 75.936 1.49201 -1.4 0
M  V30 788 H 75.946 3.92269 -1.12202 0
M  V30 789 H 74.621 3.52684 -2.20425 0
M  V30 790 H 73.198 3.70939 -0.381903 0
M  V30 791 N 75.3831 0.828654 1.34056 0
M  V30 792 C 76.3301 0.252567 2.29414 0
M  V30 793 C 77.3001 -0.62588 1.53857 0
M  V30 794 O 78.4851 -0.566312 1.82202 0
M  V30 795 C 75.6251 -0.574831 3.40279 0
M  V30 796 C 74.7381 0.326499 4.30764 0
M  V30 797 C 73.8731 -0.511016 5.28736 0
M  V30 798 C 72.9121 0.389342 6.1086 0
M  V30 799 N 72.0491 -0.409439 7.00905 0
M  V30 800 H 76.8891 1.07108 2.78086 0
M  V30 801 H 74.4261 0.539677 1.36843 0
M  V30 802 H 76.3841 -1.06992 4.03248 0
M  V30 803 H 75.0141 -1.35841 2.92826 0
M  V30 804 H 74.0661 0.939837 3.68607 0
M  V30 805 H 75.3781 1.01857 4.88289 0
M  V30 806 H 74.5321 -1.07035 5.97184 0
M  V30 807 H 73.2711 -1.23657 4.71763 0
M  V30 808 H 72.2761 0.960769 5.4134 0
M  V30 809 H 73.5011 1.1131 6.69916 0
M  V30 810 H 71.4471 -1.11856 6.46393 0
M  V30 811 H 71.3641 0.224126 7.55668 0
M  V30 812 H 72.6321 -0.951336 7.73673 0
M  V30 813 N 76.8612 -1.46375 0.584142 0
M  V30 814 C 77.7912 -2.33103 -0.136037 0
M  V30 815 C 78.7722 -1.45431 -0.882255 0
M  V30 816 O 79.9572 -1.74246 -0.857434 0
M  V30 817 C 77.0872 -3.27731 -1.14933 0
M  V30 818 C 76.0412 -4.24855 -0.517862 0
M  V30 819 C 75.3672 -5.09001 -1.63773 0
M  V30 820 C 76.6672 -5.19439 0.545886 0
M  V30 821 H 78.3612 -2.93568 0.588086 0
M  V30 822 H 75.9072 -1.41166 0.284259 0
M  V30 823 H 77.8602 -3.87261 -1.66153 0
M  V30 824 H 76.5842 -2.65377 -1.90375 0
M  V30 825 H 75.2432 -3.6659 -0.0267361 0
M  V30 826 H 74.8912 -4.43031 -2.38185 0
M  V30 827 H 74.5912 -5.74777 -1.22085 0
M  V30 828 H 76.1152 -5.71396 -2.15266 0
M  V30 829 H 77.5292 -5.73177 0.118704 0
M  V30 830 H 75.9262 -5.93566 0.88317 0
M  V30 831 H 76.9962 -4.63285 1.43162 0
M  V30 832 N 78.3393 -0.321999 -1.54275 0
M  V30 833 C 79.7553 0.0306999 -1.5957 0
M  V30 834 C 79.9553 1.50614 -1.33857 0
M  V30 835 O 79.0113 2.2619 -1.12223 0
M  V30 836 C 80.3243 -0.386122 -2.98211 0
M  V30 837 C 81.8723 -0.336647 -3.11184 0
M  V30 838 C 82.3473 -0.728607 -4.52167 0
M  V30 839 N 83.8383 -0.681952 -4.58152 0
M  V30 840 C 84.5733 -0.957449 -5.6535 0
M  V30 841 N 84.0693 -1.3 -6.80494 0
M  V30 842 N 85.8623 -0.883113 -5.55119 0
M  V30 843 H 78.0133 -1.28332 -1.69247 0
M  V30 844 H 80.2763 -0.521716 -0.791528 0
M  V30 845 H 79.9823 -1.41404 -3.22022 0
M  V30 846 H 79.8563 0.249662 -3.76373 0
M  V30 847 H 82.2433 0.682058 -2.8711 0
M  V30 848 H 82.3243 -1.00734 -2.3513 0
M  V30 849 H 81.9683 -1.74522 -4.76974 0
M  V30 850 H 81.8983 -0.0356152 -5.26588 0
M  V30 851 H 84.3893 -0.428985 -3.75457 0
M  V30 852 H 84.7023 -1.49563 -7.58189 0
M  V30 853 H 83.0473 -1.33824 -6.81994 0
M  V30 854 H 86.2383 -0.615001 -4.64042 0
M  V30 855 H 86.4113 -1.10118 -6.38575 0
M  V30 856 N 79.8174 1.5752 -0.0501392 0
M  V30 857 C 81.2284 1.80271 0.485705 0
M  V30 858 C 81.5794 0.96228 1.70981 0
M  V30 859 O 80.7044 0.178578 2.15662 0
M  V30 860 C 81.2994 3.26957 0.887938 0
M  V30 861 C 79.8584 3.5063 1.36877 0
M  V30 862 C 79.0054 2.75165 0.343468 0
M  V30 863 H 81.9564 1.56281 -0.276028 0
M  V30 864 H 81.9774 3.37821 1.75093 0
M  V30 865 H 81.4894 3.881 -0.0031809 0
M  V30 866 H 79.5904 2.94766 2.27911 0
M  V30 867 H 79.7034 4.59343 1.36164 0
M  V30 868 H 78.0674 2.4127 0.816128 0
M  V30 869 H 78.8504 3.39034 -0.539548 0
M  V30 870 N 81.2955 -0.223234 1.56011 0
M  V30 871 C 82.5435 -0.946003 1.78592 0
M  V30 872 C 82.8645 -1.84936 0.618349 0
M  V30 873 O 82.1345 -1.92473 -0.364833 0
M  V30 874 H 80.7145 -0.352298 0.658707 0
M  V30 875 H 83.3765 -0.235494 1.93472 0
M  V30 876 H 82.4725 -1.55381 2.70672 0
M  V30 877 N 82.7736 -1.49793 -0.48987 0
M  V30 878 C 83.7066 -1.61898 -1.60823 0
M  V30 879 C 84.6846 -0.467651 -1.5573 0
M  V30 880 O 85.8686 -0.684682 -1.75626 0
M  V30 881 C 82.9956 -1.58422 -2.99366 0
M  V30 882 C 82.0416 -2.78889 -3.22682 0
M  V30 883 S 82.8746 -4.40429 -3.04602 0
M  V30 884 C 84.0306 -4.39617 -4.4552 0
M  V30 885 H 84.2636 -2.56502 -1.50312 0
M  V30 886 H 81.7966 -1.38822 -0.675849 0
M  V30 887 H 83.7546 -1.57103 -3.79248 0
M  V30 888 H 82.4156 -0.650866 -3.07283 0
M  V30 889 H 81.6086 -2.72708 -4.23847 0
M  V30 890 H 81.2106 -2.77678 -2.50541 0
M  V30 891 H 83.5026 -4.12022 -5.37814 0
M  V30 892 H 84.4456 -5.41097 -4.56749 0
M  V30 893 H 84.8536 -3.69554 -4.2672 0
M  V30 894 N 84.2517 0.741722 -1.39055 0
M  V30 895 C 85.4987 1.50114 -1.35912 0
M  V30 896 C 85.8267 1.94443 0.0470937 0
M  V30 897 O 85.0817 1.66612 1.02659 0
M  V30 898 C 85.3807 2.7592 -2.27163 0
M  V30 899 C 85.0467 2.50493 -3.74919 0
M  V30 900 C 83.7087 2.43267 -4.1518 0
M  V30 901 C 86.0607 2.28585 -4.684 0
M  V30 902 C 83.3887 2.12166 -5.46994 0
M  V30 903 C 85.7407 1.99002 -6.00484 0
M  V30 904 C 84.4047 1.90241 -6.39816 0
M  V30 905 H 83.6747 0.549306 -0.497336 0
M  V30 906 H 86.3217 0.851896 -1.71508 0
M  V30 907 H 84.6267 3.45553 -1.84663 0
M  V30 908 H 86.3237 3.33923 -2.22028 0
M  V30 909 H 82.9137 2.56992 -3.43006 0
M  V30 910 H 87.0977 2.33139 -4.38132 0
M  V30 911 H 82.3537 2.03901 -5.76398 0
M  V30 912 H 86.5277 1.81057 -6.72452 0
M  V30 913 H 84.1547 1.65907 -7.41875 0
M  V30 914 N 85.7298 1.2412 0.971189 0
M  V30 915 C 86.9788 1.07284 1.70801 0
M  V30 916 C 87.2918 -0.388902 1.91695 0
M  V30 917 O 88.4978 -0.677379 2.62914 0
M  V30 918 C 86.9538 1.87145 3.07416 0
M  V30 919 C 86.5618 3.37707 2.94377 0
M  V30 920 C 88.3058 1.78828 3.84995 0
M  V30 921 C 86.2128 4.09925 4.26281 0
M  V30 922 H 85.1428 0.397854 0.64049 0
M  V30 923 H 87.7938 1.4817 1.0825 0
M  V30 924 H 86.1758 1.39071 3.70777 0
M  V30 925 H 87.3498 3.93335 2.4005 0
M  V30 926 H 85.6648 3.46938 2.30267 0
M  V30 927 H 88.2618 2.30089 4.82662 0
M  V30 928 H 88.6048 0.75284 4.09436 0
M  V30 929 H 89.1378 2.24563 3.28354 0
M  V30 930 H 85.8768 5.13813 4.07033 0
M  V30 931 H 85.3968 3.59083 4.80437 0
M  V30 932 H 87.0758 4.1673 4.94919 0
M  V30 933 N 87.2079 -1.17134 1.05439 0
M  V30 934 C 88.1399 -2.2078 0.615539 0
M  V30 935 C 89.1529 -1.59584 -0.322001 0
M  V30 936 O 90.3419 -1.78133 -0.114344 0
M  V30 937 C 87.4419 -3.38691 -0.118938 0
M  V30 938 C 86.6149 -4.29454 0.829924 0
M  V30 939 C 85.6739 -5.26024 0.136258 0
M  V30 940 O 84.6999 -5.63952 0.77115 0
M  V30 941 N 85.9019 -5.69487 -1.1254 0
M  V30 942 H 88.6669 -2.59052 1.50705 0
M  V30 943 H 86.2279 -1.32058 0.936603 0
M  V30 944 H 88.2199 -4.00329 -0.593179 0
M  V30 945 H 86.7899 -2.98996 -0.91215 0
M  V30 946 H 86.0099 -3.65211 1.48373 0
M  V30 947 H 87.2979 -4.86984 1.47392 0
M  V30 948 H 86.6959 -5.4075 -1.6615 0
M  V30 949 H 85.2529 -6.33257 -1.54366 0
M  V30 950 N 88.686 -0.835752 -1.33615 0
M  V30 951 C 89.634 -0.255238 -2.31195 0
M  V30 952 C 90.628 0.61107 -1.57995 0
M  V30 953 O 91.834 0.500979 -1.72888 0
M  V30 954 H 88.209 -0.0638085 -0.749288 0
M  V30 955 H 90.18 -1.09283 -2.77669 0
M  V30 956 C 88.929 0.55754 -3.43201 0
M  V30 957 H 88.252 -0.0997553 -3.99676 0
M  V30 958 H 89.692 0.929622 -4.13683 0
M  V30 959 C 88.151 1.73515 -2.88781 0
M  V30 960 O 88.681 2.83376 -2.84712 0
M  V30 961 N 86.887 1.55603 -2.4543 0
M  V30 962 H 86.434 0.662354 -2.48939 0
M  V30 963 H 86.392 2.34545 -2.09371 0
M  V30 964 N 90.1641 1.46063 -0.591896 0
M  V30 965 C 91.3891 2.07226 -0.0850314 0
M  V30 966 C 91.8141 1.43625 1.21463 0
M  V30 967 O 91.1721 0.523305 1.73583 0
M  V30 968 C 91.2201 3.60554 0.0576567 0
M  V30 969 O 90.3241 3.97128 1.11188 0
M  V30 970 H 89.6651 0.660615 -0.0669568 0
M  V30 971 H 92.1951 1.8756 -0.81745 0
M  V30 972 H 92.2051 4.07165 0.2609 0
M  V30 973 H 90.8801 4.06235 -0.891416 0
M  V30 974 H 89.4571 3.62213 0.886356 0
M  V30 975 N 91.6422 0.330177 1.54103 0
M  V30 976 C 92.5902 -0.548226 2.26047 0
M  V30 977 C 93.5842 -1.11309 1.27698 0
M  V30 978 O 94.7902 -1.06036 1.45452 0
M  V30 979 H 91.1652 -0.195456 0.726155 0
M  V30 980 H 93.1362 0.0807567 2.98291 0
M  V30 981 C 91.8852 -1.69415 3.03634 0
M  V30 982 H 91.2082 -1.26876 3.79134 0
M  V30 983 H 92.6482 -2.28423 3.5721 0
M  V30 984 C 91.1072 -2.61569 2.12328 0
M  V30 985 O 91.6372 -3.63462 1.7105 0
M  V30 986 N 89.8432 -2.29952 1.77681 0
M  V30 987 H 89.3902 -1.47134 2.11446 0
M  V30 988 H 89.3482 -2.91871 1.16869 0
M  V30 989 N 93.1203 -1.57491 0.0584922 0
M  V30 990 C 94.3663 -1.93264 -0.614558 0
M  V30 991 C 94.6993 -0.937717 -1.7006 0
M  V30 992 O 93.9743 0.0351652 -1.94468 0
M  V30 993 C 94.2573 -3.3938 -1.20386 0
M  V30 994 C 94.1103 -4.49625 -0.125375 0
M  V30 995 C 95.4293 -3.86039 -2.11334 0
M  V30 996 H 92.5483 -0.702791 -0.221933 0
M  V30 997 H 95.1903 -1.8961 0.12175 0
M  V30 998 H 93.3403 -3.42626 -1.83139 0
M  V30 999 H 95.0123 -4.58506 0.506971 0
M  V30 1000 H 93.2553 -4.30354 0.545672 0
M  V30 1001 H 93.9263 -5.48967 -0.577861 0
M  V30 1002 H 96.4023 -3.84716 -1.58534 0
M  V30 1003 H 95.2783 -4.88914 -2.49507 0
M  V30 1004 H 95.5393 -3.23215 -3.01636 0
M  V30 1005 N 94.5984 0.214957 -1.56127 0
M  V30 1006 C 95.8444 0.939762 -1.79712 0
M  V30 1007 C 96.1774 1.83723 -0.629247 0
M  V30 1008 O 95.4524 1.90925 0.371197 0
M  V30 1009 C 95.7354 1.77306 -3.13424 0
M  V30 1010 C 95.5884 0.90164 -4.40671 0
M  V30 1011 C 96.9074 2.74956 -3.43638 0
M  V30 1012 H 94.0264 0.340214 -0.653776 0
M  V30 1013 H 96.6684 0.20824 -1.88855 0
M  V30 1014 H 94.8184 2.39673 -3.0576 0
M  V30 1015 H 96.4904 0.294206 -4.60361 0
M  V30 1016 H 94.7334 0.207368 -4.33304 0
M  V30 1017 H 95.4044 1.51923 -5.30682 0
M  V30 1018 H 97.8804 2.22724 -3.51473 0
M  V30 1019 H 96.7564 3.30358 -4.38355 0
M  V30 1020 H 97.0174 3.53023 -2.66134 0
M  V30 1021 N 96.0765 1.50051 0.48192 0
M  V30 1022 C 97.3235 1.60498 1.23477 0
M  V30 1023 C 97.6515 0.300331 1.92167 0
M  V30 1024 O 96.9065 -0.713094 1.82246 0
M  V30 1025 C 97.2055 2.72717 2.30998 0
M  V30 1026 C 96.8715 4.13572 1.79636 0
M  V30 1027 C 95.5335 4.519 1.65348 0
M  V30 1028 C 97.8855 5.01649 1.41412 0
M  V30 1029 C 95.2135 5.76057 1.11244 0
M  V30 1030 C 97.5655 6.26343 0.887538 0
M  V30 1031 C 96.2295 6.63483 0.731207 0
M  V30 1032 H 95.4995 0.587303 0.451836 0
M  V30 1033 H 98.1465 1.83948 0.532468 0
M  V30 1034 H 96.4515 2.43312 3.07094 0
M  V30 1035 H 98.1485 2.78006 2.88988 0
M  V30 1036 H 94.7385 3.83329 1.91721 0
M  V30 1037 H 98.9225 4.72679 1.51289 0
M  V30 1038 H 94.1785 6.03516 0.978686 0
M  V30 1039 H 98.3525 6.93958 0.582654 0
M  V30 1040 H 95.9795 7.59568 0.309806 0
M  V30 1041 N 97.5546 -0.734337 1.39446 0
M  V30 1042 C 98.5026 -1.86971 1.38364 0
M  V30 1043 C 99.4966 -1.67288 0.266687 0
M  V30 1044 O 100.703 -1.74621 0.436755 0
M  V30 1045 H 97.0776 -0.615474 0.432082 0
M  V30 1046 H 99.0486 -1.85 2.34132 0
M  V30 1047 C 97.7976 -3.2466 1.24465 0
M  V30 1048 H 97.1206 -3.40402 2.09682 0
M  V30 1049 H 98.5606 -4.04292 1.27764 0
M  V30 1050 C 97.0196 -3.36867 -0.0468674 0
M  V30 1051 O 97.5496 -3.88618 -1.01681 0
M  V30 1052 N 95.7556 -2.90391 -0.110145 0
M  V30 1053 H 95.3026 -2.48466 0.679868 0
M  V30 1054 H 95.2606 -2.98939 -0.973799 0
M  V30 1055 N 99.0327 -1.24633 -0.964593 0
M  V30 1056 C 99.9427 -1.05859 -2.09359 0
M  V30 1057 C 100.959 0.00148855 -1.74 0
M  V30 1058 O 102.135 -0.197346 -2.00431 0
M  V30 1059 C 99.1997 -0.668879 -3.40187 0
M  V30 1060 C 98.2607 -1.80578 -3.89474 0
M  V30 1061 C 97.4937 -1.43457 -5.14058 0
M  V30 1062 O 97.7167 -0.325775 -5.69469 0
M  V30 1063 O 96.6507 -2.2613 -5.57807 0
M  V30 1064 H 100.477 -2.00516 -2.28094 0
M  V30 1065 H 98.0617 -1.03481 -1.0776 0
M  V30 1066 H 99.9437 -0.463211 -4.18846 0
M  V30 1067 H 98.6187 0.248536 -3.22744 0
M  V30 1068 H 97.5257 -2.06623 -3.11862 0
M  V30 1069 H 98.8587 -2.70208 -4.11398 0
M  V30 1070 N 100.511 1.16574 -1.06058 0
M  V30 1071 C 101.443 2.2045 -0.627239 0
M  V30 1072 C 102.456 1.59752 0.313534 0
M  V30 1073 O 103.645 1.78192 0.104896 0
M  V30 1074 C 100.745 3.3875 0.100974 0
M  V30 1075 C 99.9178 4.29008 -0.852687 0
M  V30 1076 C 98.9768 5.25944 -0.164152 0
M  V30 1077 O 98.0028 5.63535 -0.801047 0
M  V30 1078 N 99.2048 5.70075 1.09518 0
M  V30 1079 H 101.97 2.58249 -1.52077 0
M  V30 1080 H 99.5308 1.3156 -0.943594 0
M  V30 1081 H 101.523 4.00638 0.57194 0
M  V30 1082 H 100.093 2.99476 0.89628 0
M  V30 1083 H 99.3128 3.64419 -1.50308 0
M  V30 1084 H 100.601 4.86195 -1.49972 0
M  V30 1085 H 99.9988 5.41624 1.6328 0
M  V30 1086 H 98.5558 6.34067 1.51006 0
M  V30 1087 N 101.989 0.842826 1.3317 0
M  V30 1088 C 103.219 0.453397 2.01564 0
M  V30 1089 C 103.627 -0.951147 1.63554 0
M  V30 1090 O 102.97 -1.63021 0.846746 0
M  V30 1091 C 103.032 0.499013 3.5602 0
M  V30 1092 C 102.696 1.86037 4.1742 0
M  V30 1093 C 103.693 2.82416 4.36506 0
M  V30 1094 C 101.378 2.15428 4.53757 0
M  V30 1095 C 103.372 4.06346 4.91082 0
M  V30 1096 C 101.059 3.39615 5.0804 0
M  V30 1097 C 102.057 4.3489 5.26649 0
M  V30 1098 O 101.745 5.5688 5.79776 0
M  V30 1099 H 101.477 0.177871 0.652179 0
M  V30 1100 H 104.031 1.13808 1.70988 0
M  V30 1101 H 102.261 -0.242467 3.85939 0
M  V30 1102 H 103.95 0.126852 4.05702 0
M  V30 1103 H 104.716 2.6101 4.08777 0
M  V30 1104 H 100.595 1.42061 4.38565 0
M  V30 1105 H 104.139 4.80722 5.05522 0
M  V30 1106 H 100.036 3.60876 5.352 0
M  V30 1107 H 100.804 5.58674 5.98185 0
M  V30 1108 N 103.467 -1.45747 0.599634 0
M  V30 1109 C 104.414 -2.30467 -0.123849 0
M  V30 1110 C 105.384 -1.41632 -0.86774 0
M  V30 1111 O 106.569 -1.70568 -0.855056 0
M  V30 1112 C 103.709 -3.26402 -1.12051 0
M  V30 1113 C 102.822 -4.3034 -0.37832 0
M  V30 1114 C 101.957 -5.13389 -1.364 0
M  V30 1115 C 100.996 -6.09061 -0.609171 0
M  V30 1116 N 100.133 -6.84918 -1.54374 0
M  V30 1117 H 104.973 -2.91802 0.604627 0
M  V30 1118 H 102.51 -1.43797 0.309972 0
M  V30 1119 H 104.468 -3.80482 -1.7114 0
M  V30 1120 H 103.098 -2.66839 -1.8165 0
M  V30 1121 H 102.15 -3.78984 0.327929 0
M  V30 1122 H 103.462 -4.98354 0.210997 0
M  V30 1123 H 102.616 -5.7183 -2.02719 0
M  V30 1124 H 101.355 -4.45376 -1.98725 0
M  V30 1125 H 100.36 -5.49758 0.0676979 0
M  V30 1126 H 101.585 -6.79099 0.00891991 0
M  V30 1127 H 99.531 -6.19601 -2.15478 0
M  V30 1128 H 99.448 -7.49254 -1.00766 0
M  V30 1129 H 100.716 -7.47906 -2.19676 0
M  V30 1130 N 104.945 -0.338344 -1.53925 0
M  V30 1131 C 106.193 0.259245 -2.0043 0
M  V30 1132 C 106.514 1.51484 -1.22791 0
M  V30 1133 O 105.784 1.93037 -0.33368 0
M  V30 1134 H 104.364 0.0987845 -0.740439 0
M  V30 1135 H 107.026 -0.458302 -1.89435 0
M  V30 1136 H 106.122 0.505334 -3.07982 0
M  V30 1137 N 106.423 1.57458 -0.0668435 0
M  V30 1138 C 107.672 1.92477 0.602947 0
M  V30 1139 C 107.985 0.948419 1.71068 0
M  V30 1140 O 109.191 1.19124 2.43971 0
M  V30 1141 C 107.647 3.41903 1.12383 0
M  V30 1142 C 107.255 4.47975 0.04737 0
M  V30 1143 C 108.999 3.85931 1.76797 0
M  V30 1144 C 106.906 5.88529 0.582022 0
M  V30 1145 H 105.836 0.718387 0.22899 0
M  V30 1146 H 108.487 1.82978 -0.138276 0
M  V30 1147 H 106.869 3.46459 1.91787 0
M  V30 1148 H 108.043 4.55029 -0.726978 0
M  V30 1149 H 106.358 4.13384 -0.500243 0
M  V30 1150 H 108.955 4.88322 2.17821 0
M  V30 1151 H 109.298 3.23029 2.62599 0
M  V30 1152 H 109.831 3.83958 1.04024 0
M  V30 1153 H 106.57 6.55065 -0.238721 0
M  V30 1154 H 106.09 5.85004 1.324 0
M  V30 1155 H 107.769 6.38258 1.05999 0
M  V30 1156 N 107.901 -0.206675 1.56239 0
M  V30 1157 C 108.848 -1.25617 1.93621 0
M  V30 1158 C 109.818 -1.45824 0.795274 0
M  V30 1159 O 111.003 -1.59148 1.05245 0
M  V30 1160 C 108.143 -2.59839 2.27107 0
M  V30 1161 C 107.256 -2.47308 3.54207 0
M  V30 1162 C 106.391 -3.74155 3.7707 0
M  V30 1163 C 105.43 -3.56407 4.97635 0
M  V30 1164 N 104.567 -4.75238 5.1681 0
M  V30 1165 H 109.407 -0.930383 2.83104 0
M  V30 1166 H 106.944 -0.448065 1.4011 0
M  V30 1167 H 108.902 -3.38021 2.44535 0
M  V30 1168 H 107.532 -2.90485 1.40778 0
M  V30 1169 H 106.584 -1.60483 3.4489 0
M  V30 1170 H 107.896 -2.30122 4.42544 0
M  V30 1171 H 107.05 -4.60778 3.94675 0
M  V30 1172 H 105.789 -3.94282 2.87042 0
M  V30 1173 H 104.794 -2.68168 4.79964 0
M  V30 1174 H 106.019 -3.37736 5.89161 0
M  V30 1175 H 103.965 -4.95651 4.29728 0
M  V30 1176 H 103.882 -4.60835 5.99306 0
M  V30 1177 H 105.15 -5.63246 5.38864 0
M  V30 1178 N 109.379 -1.50304 -0.473955 0
M  V30 1179 C 110.628 -1.60392 -1.22301 0
M  V30 1180 C 110.941 -0.308411 -1.93153 0
M  V30 1181 O 112.147 -0.288156 -2.69966 0
M  V30 1182 C 110.603 -2.83109 -2.2221 0
M  V30 1183 C 110.211 -4.19524 -1.57173 0
M  V30 1184 C 111.955 -3.0254 -2.97775 0
M  V30 1185 C 109.862 -5.33431 -2.55353 0
M  V30 1186 H 108.792 -0.597286 -0.460179 0
M  V30 1187 H 111.443 -1.76731 -0.493803 0
M  V30 1188 H 109.825 -2.60322 -2.9841 0
M  V30 1189 H 110.999 -4.52554 -0.867824 0
M  V30 1190 H 109.314 -4.05674 -0.939002 0
M  V30 1191 H 111.911 -3.84811 -3.71248 0
M  V30 1192 H 112.254 -2.14154 -3.56992 0
M  V30 1193 H 112.787 -3.25494 -2.28688 0
M  V30 1194 H 109.526 -6.23962 -2.00878 0
M  V30 1195 H 109.046 -5.04823 -3.23904 0
M  V30 1196 H 110.725 -5.63887 -3.17239 0
M  V30 1197 N 110.857 0.726932 -1.39834 0
M  V30 1198 C 111.787 1.85405 -1.41941 0
M  V30 1199 C 112.768 1.67751 -0.281728 0
M  V30 1200 O 113.953 1.8795 -0.488717 0
M  V30 1201 C 111.083 3.23243 -1.2701 0
M  V30 1202 C 110.037 3.55549 -2.38262 0
M  V30 1203 C 109.363 4.9241 -2.08415 0
M  V30 1204 C 110.663 3.577 -3.80589 0
M  V30 1205 H 112.357 1.83899 -2.36266 0
M  V30 1206 H 109.903 0.883349 -1.13723 0
M  V30 1207 H 111.856 4.01775 -1.27103 0
M  V30 1208 H 110.58 3.25296 -0.291564 0
M  V30 1209 H 109.239 2.79351 -2.37399 0
M  V30 1210 H 108.887 4.91052 -1.0898 0
M  V30 1211 H 108.587 5.14992 -2.82943 0
M  V30 1212 H 110.111 5.73289 -2.10171 0
M  V30 1213 H 111.525 4.26293 -3.83337 0
M  V30 1214 H 109.922 3.91804 -4.54543 0
M  V30 1215 H 110.992 2.57328 -4.10987 0
M  V30 1216 N 112.336 1.25143 0.95797 0
M  V30 1217 C 113.584 1.09476 1.69881 0
M  V30 1218 C 113.905 -0.365502 1.91544 0
M  V30 1219 O 113.175 -1.25985 1.50015 0
M  V30 1220 H 111.755 0.402128 0.629525 0
M  V30 1221 H 114.417 1.57214 1.15194 0
M  V30 1222 H 113.513 1.60046 2.6794 0
M  V30 1223 N 113.814 -1.1601 1.06675 0
M  V30 1224 C 114.761 -2.20525 0.680967 0
M  V30 1225 C 115.731 -1.62904 -0.324283 0
M  V30 1226 O 116.916 -1.89615 -0.212294 0
M  V30 1227 C 114.056 -3.45013 0.0776551 0
M  V30 1228 C 113.169 -4.16863 1.13355 0
M  V30 1229 C 112.304 -5.2888 0.49597 0
M  V30 1230 C 111.343 -5.92537 1.53513 0
M  V30 1231 N 110.48 -6.96038 0.920631 0
M  V30 1232 H 115.32 -2.52876 1.57663 0
M  V30 1233 H 112.857 -1.24199 0.788223 0
M  V30 1234 H 114.815 -4.16193 -0.289704 0
M  V30 1235 H 113.445 -3.132 -0.781393 0
M  V30 1236 H 112.497 -3.44248 1.61857 0
M  V30 1237 H 113.809 -4.60294 1.92174 0
M  V30 1238 H 112.963 -6.06653 0.0758604 0
M  V30 1239 H 111.702 -4.86622 -0.324062 0
M  V30 1240 H 110.707 -5.13482 1.9651 0
M  V30 1241 H 111.932 -6.36873 2.35733 0
M  V30 1242 H 109.878 -6.55888 0.12138 0
M  V30 1243 H 109.795 -7.3786 1.64616 0
M  V30 1244 H 111.063 -7.77725 0.525795 0
M  V30 1245 N 115.292 -0.849877 -1.32721 0
M  V30 1246 C 116.54 -0.450032 -1.97026 0
M  V30 1247 C 116.861 0.996604 -1.67609 0
M  V30 1248 O 116.131 1.6958 -0.980786 0
M  V30 1249 H 114.711 -0.163426 -0.728904 0
M  V30 1250 H 117.373 -1.08526 -1.6189 0
M  V30 1251 H 116.469 -0.591146 -3.0645 0
M  V30 1252 N 116.77 1.45427 -0.607355 0
M  V30 1253 C 117.995 2.07124 -0.107006 0
M  V30 1254 C 118.42 1.44906 1.19933 0
M  V30 1255 O 117.778 0.541687 1.73019 0
M  V30 1256 C 117.826 3.60595 0.0194119 0
M  V30 1257 O 116.93 3.98285 1.0697 0
M  V30 1258 H 116.271 0.659868 -0.0739597 0
M  V30 1259 H 118.801 1.86683 -0.837297 0
M  V30 1260 H 118.811 4.07419 0.2177 0
M  V30 1261 H 117.486 4.05266 -0.934453 0
M  V30 1262 H 116.063 3.63133 0.847889 0
M  V30 1263 N 118.248 0.346503 1.53744 0
M  V30 1264 C 119.495 -0.249104 2.00962 0
M  V30 1265 C 119.823 -1.5032 1.23426 0
M  V30 1266 O 119.078 -1.93217 0.310761 0
M  V30 1267 C 119.377 -0.605809 3.52228 0
M  V30 1268 C 119.043 0.551747 4.47512 0
M  V30 1269 C 117.705 0.86941 4.73281 0
M  V30 1270 C 120.057 1.32818 5.03993 0
M  V30 1271 C 117.385 1.96582 5.52786 0
M  V30 1272 C 119.737 2.41486 5.84694 0
M  V30 1273 C 118.401 2.73808 6.08757 0
M  V30 1274 H 117.671 -0.0911538 0.735372 0
M  V30 1275 H 120.318 0.475027 1.85515 0
M  V30 1276 H 118.623 -1.4107 3.65522 0
M  V30 1277 H 120.32 -1.07858 3.86222 0
M  V30 1278 H 116.91 0.294102 4.2759 0
M  V30 1279 H 121.094 1.09602 4.84047 0
M  V30 1280 H 116.35 2.22045 5.69654 0
M  V30 1281 H 120.524 3.02078 6.27473 0
M  V30 1282 H 118.151 3.58892 6.7015 0
M  V30 1283 N 119.726 -1.57421 0.075193 0
M  V30 1284 C 120.974 -1.93236 -0.591974 0
M  V30 1285 C 121.295 -0.956241 -1.69944 0
M  V30 1286 O 120.565 -0.00494792 -1.95899 0
M  V30 1287 H 119.145 -0.713355 -0.22166 0
M  V30 1288 H 121.807 -1.9444 0.133848 0
M  V30 1289 H 120.903 -2.95131 -1.01509 0
M  V30 1290 N 121.204 0.198386 -1.56346 0
M  V30 1291 C 122.114 1.2664 -1.97483 0
M  V30 1292 C 123.13 1.49989 -0.882002 0
M  V30 1293 O 124.306 1.62668 -1.18748 0
M  V30 1294 C 121.371 2.59141 -2.30319 0
M  V30 1295 C 120.432 2.43892 -3.53292 0
M  V30 1296 C 119.665 3.70074 -3.84553 0
M  V30 1297 O 119.888 4.74101 -3.1715 0
M  V30 1298 O 118.822 3.658 -4.7799 0
M  V30 1299 H 122.648 0.947304 -2.88548 0
M  V30 1300 H 120.233 0.403123 -1.43859 0
M  V30 1301 H 122.115 3.37352 -2.5253 0
M  V30 1302 H 120.79 2.90684 -1.42423 0
M  V30 1303 H 119.697 1.63803 -3.36332 0
M  V30 1304 H 121.03 2.17282 -4.41644 0
M  V30 1305 N 122.682 1.50554 0.465978 0
M  V30 1306 C 123.928 1.62038 1.21949 0
M  V30 1307 C 124.261 0.322116 1.9151 0
M  V30 1308 O 123.536 -0.676723 1.82348 0
M  V30 1309 C 123.819 2.80421 2.25912 0
M  V30 1310 C 123.672 4.20144 1.60622 0
M  V30 1311 C 124.991 2.94354 3.27176 0
M  V30 1312 H 122.11 0.589752 0.441998 0
M  V30 1313 H 124.752 1.82956 0.51257 0
M  V30 1314 H 122.902 2.62717 2.86203 0
M  V30 1315 H 124.574 4.49449 1.03889 0
M  V30 1316 H 122.817 4.24165 0.909211 0
M  V30 1317 H 123.488 4.98914 2.36196 0
M  V30 1318 H 125.964 3.10578 2.76913 0
M  V30 1319 H 124.84 3.788 3.97242 0
M  V30 1320 H 125.101 2.05186 3.916 0
M  V30 1321 N 124.16 -0.719506 1.40217 0
M  V30 1322 C 125.409 -1.47486 1.37589 0
M  V30 1323 C 125.722 -1.9559 -0.0201568 0
M  V30 1324 O 126.928 -2.70973 -0.169049 0
M  V30 1325 C 125.384 -2.66575 2.41796 0
M  V30 1326 C 124.992 -2.25358 3.87192 0
M  V30 1327 C 126.736 -3.4433 2.48269 0
M  V30 1328 C 124.643 -3.41262 4.83005 0
M  V30 1329 H 123.573 -0.553901 0.511576 0
M  V30 1330 H 126.224 -0.783427 1.65936 0
M  V30 1331 H 124.606 -3.3787 2.06543 0
M  V30 1332 H 125.78 -1.61509 4.31569 0
M  V30 1333 H 124.095 -1.60657 3.84159 0
M  V30 1334 H 126.692 -4.30569 3.17041 0
M  V30 1335 H 127.035 -3.87872 1.51198 0
M  V30 1336 H 127.568 -2.80076 2.82493 0
M  V30 1337 H 124.307 -3.02755 5.81394 0
M  V30 1338 H 123.827 -4.0404 4.43297 0
M  V30 1339 H 125.506 -4.07383 5.02641 0
M  V30 1340 N 125.638 -1.25649 -0.95132 0
M  V30 1341 C 126.568 -1.08808 -2.06599 0
M  V30 1342 C 127.549 0.00382547 -1.701 0
M  V30 1343 O 128.734 -0.166325 -1.93486 0
M  V30 1344 C 125.864 -0.709542 -3.39975 0
M  V30 1345 C 124.818 -1.75206 -3.90496 0
M  V30 1346 C 124.144 -1.22811 -5.20405 0
M  V30 1347 C 125.444 -3.15153 -4.16504 0
M  V30 1348 H 127.138 -2.02048 -2.20946 0
M  V30 1349 H 124.684 -0.972835 -1.06169 0
M  V30 1350 H 126.637 -0.578649 -4.17408 0
M  V30 1351 H 125.361 0.258556 -3.25575 0
M  V30 1352 H 124.02 -1.87145 -3.15234 0
M  V30 1353 H 123.668 -0.250145 -5.02378 0
M  V30 1354 H 123.368 -1.92492 -5.55176 0
M  V30 1355 H 124.892 -1.10968 -6.00432 0
M  V30 1356 H 126.306 -3.06349 -4.84586 0
M  V30 1357 H 124.703 -3.82333 -4.62538 0
M  V30 1358 H 125.773 -3.61966 -3.22658 0
M  V30 1359 N 127.117 1.15442 -1.07289 0
M  V30 1360 C 128.342 1.90638 -0.816828 0
M  V30 1361 C 128.767 1.77445 0.624083 0
M  V30 1362 O 128.125 1.10671 1.43602 0
M  V30 1363 C 128.173 3.39008 -1.22906 0
M  V30 1364 O 127.277 4.10701 -0.373975 0
M  V30 1365 H 126.618 0.593555 -0.297638 0
M  V30 1366 H 129.148 1.46198 -1.43134 0
M  V30 1367 H 129.158 3.89801 -1.20497 0
M  V30 1368 H 127.833 3.47929 -2.27856 0
M  V30 1369 H 126.41 3.70046 -0.460499 0
M  V30 1370 N 128.595 0.856903 1.32268 0
M  V30 1371 C 130.011 0.547061 1.49931 0
M  V30 1372 C 130.211 -0.921781 1.7918 0
M  V30 1373 O 129.267 -1.70469 1.8627 0
M  V30 1374 C 130.58 1.43599 2.64196 0
M  V30 1375 C 132.128 1.43665 2.78081 0
M  V30 1376 C 132.603 2.31085 3.95428 0
M  V30 1377 N 134.094 2.28893 4.02694 0
M  V30 1378 C 134.829 2.93262 4.92732 0
M  V30 1379 N 134.325 3.66751 5.87763 0
M  V30 1380 N 136.118 2.82638 4.85873 0
M  V30 1381 H 128.269 1.8075 1.11549 0
M  V30 1382 H 130.532 0.772144 0.549997 0
M  V30 1383 H 130.238 2.48058 2.49319 0
M  V30 1384 H 130.112 1.12502 3.60032 0
M  V30 1385 H 132.499 0.399701 2.92381 0
M  V30 1386 H 132.58 1.7878 1.82952 0
M  V30 1387 H 132.224 3.34849 3.81888 0
M  V30 1388 H 132.154 1.93302 4.89839 0
M  V30 1389 H 134.645 1.75466 3.34694 0
M  V30 1390 H 134.958 4.13027 6.53168 0
M  V30 1391 H 133.303 3.70859 5.87783 0
M  V30 1392 H 136.494 2.24774 4.10602 0
M  V30 1393 H 136.667 3.33084 5.55841 0
M  V30 1394 N 130.073 -1.45103 0.615059 0
M  V30 1395 C 131.35 -1.95549 0.0448276 0
M  V30 1396 C 131.73 -1.55737 -1.4251 0
M  V30 1397 O 131.078 -0.823556 -2.13143 0
M  V30 1398 C 131.288 -3.48098 0.250785 0
M  V30 1399 C 132.636 -4.24384 0.135509 0
M  V30 1400 O 133.66 -3.55738 0.181299 0
M  V30 1401 O 132.519 -5.46493 0.0268878 0
M  V30 1402 H 129.613 -0.8264 -0.0314845 0
M  V30 1403 H 132.159 -1.55232 0.685642 0
M  V30 1404 H 130.931 -3.7007 1.27139 0
M  V30 1405 H 130.554 -3.95323 -0.424937 0
M  V30 1406 N 131.551 -0.354651 -1.53558 0
M  V30 1407 C 132.498 0.496968 -2.25386 0
M  V30 1408 C 133.468 1.0865 -1.25636 0
M  V30 1409 O 134.653 1.12104 -1.54394 0
M  V30 1410 C 131.793 1.63637 -3.03837 0
M  V30 1411 C 130.906 1.07307 -4.18461 0
M  V30 1412 C 130.041 2.18068 -4.84376 0
M  V30 1413 C 129.08 1.59147 -5.91049 0
M  V30 1414 N 128.217 2.63695 -6.50699 0
M  V30 1415 H 133.057 -0.122075 -2.9775 0
M  V30 1416 H 130.594 -0.0720154 -1.46924 0
M  V30 1417 H 132.552 2.30734 -3.47589 0
M  V30 1418 H 131.182 2.22623 -2.33749 0
M  V30 1419 H 130.234 0.292708 -3.79272 0
M  V30 1420 H 131.546 0.602193 -4.95152 0
M  V30 1421 H 130.7 2.93007 -5.31255 0
M  V30 1422 H 129.439 2.68504 -4.07133 0
M  V30 1423 H 128.444 0.827175 -5.43542 0
M  V30 1424 H 129.669 1.09549 -6.70206 0
M  V30 1425 H 127.615 3.13365 -5.76315 0
M  V30 1426 H 127.532 2.21263 -7.22896 0
M  V30 1427 H 128.8 3.3837 -7.02229 0
M  V30 1428 N 133.029 1.57378 -0.0835403 0
M  V30 1429 C 133.979 2.09916 0.889905 0
M  V30 1430 C 134.963 1.01151 1.25129 0
M  V30 1431 O 136.155 1.27443 1.2283 0
M  V30 1432 C 133.284 2.67379 2.15322 0
M  V30 1433 C 132.37 3.83167 1.81779 0
M  V30 1434 N 132.761 4.91665 1.18739 0
M  V30 1435 C 131.059 3.92685 2.11459 0
M  V30 1436 C 131.76 5.72409 1.0355 0
M  V30 1437 N 130.736 5.21062 1.54906 0
M  V30 1438 H 134.538 2.91188 0.398378 0
M  V30 1439 H 132.052 1.61956 0.120013 0
M  V30 1440 H 134.049 3.0334 2.8599 0
M  V30 1441 H 132.709 1.87558 2.65051 0
M  V30 1442 H 133.72 5.10784 0.855604 0
M  V30 1443 H 130.397 3.23856 2.63483 0
M  V30 1444 H 131.787 6.69699 0.543425 0
M  V30 1445 N 134.507 -0.190092 1.56449 0
M  V30 1446 C 135.735 -0.925772 1.85033 0
M  V30 1447 C 136.15 -1.76638 0.666658 0
M  V30 1448 O 135.507 -1.78822 -0.364565 0
M  V30 1449 C 135.558 -1.81786 3.12468 0
M  V30 1450 O 135.279 -1.01118 4.26271 0
M  V30 1451 C 136.78 -2.6648 3.54265 0
M  V30 1452 H 134 -0.269872 0.614337 0
M  V30 1453 H 136.544 -0.195837 2.0356 0
M  V30 1454 H 134.699 -2.50136 2.95822 0
M  V30 1455 H 135.113 -1.61956 4.98869 0
M  V30 1456 H 136.587 -3.24722 4.46385 0
M  V30 1457 H 137.064 -3.40434 2.77491 0
M  V30 1458 H 137.67 -2.03493 3.73458 0
M  V30 1459 N 135.985 -1.50799 -0.457987 0
M  V30 1460 C 137.233 -1.62121 -1.2067 0
M  V30 1461 C 137.554 -0.329793 -1.92191 0
M  V30 1462 O 136.824 0.653409 -1.84682 0
M  V30 1463 H 135.404 -0.597441 -0.448411 0
M  V30 1464 H 138.066 -1.87637 -0.527096 0
M  V30 1465 H 137.162 -2.43882 -1.94751 0
M  V30 1466 N 137.463 0.71206 -1.40597 0
M  V30 1467 C 138.413 1.81783 -1.37619 0
M  V30 1468 C 139.397 1.58896 -0.253162 0
M  V30 1469 O 140.589 1.70009 -0.492547 0
M  V30 1470 C 137.718 3.19944 -1.24462 0
M  V30 1471 C 136.804 3.48582 -2.4156 0
M  V30 1472 N 137.195 3.48016 -3.67041 0
M  V30 1473 C 135.493 3.79056 -2.35016 0
M  V30 1474 C 136.194 3.75096 -4.44609 0
M  V30 1475 N 135.17 3.94022 -3.74497 0
M  V30 1476 H 138.972 1.79683 -2.32575 0
M  V30 1477 H 136.486 0.91134 -1.34419 0
M  V30 1478 H 138.483 3.99133 -1.20411 0
M  V30 1479 H 137.143 3.23267 -0.304762 0
M  V30 1480 H 138.154 3.28782 -4.00153 0
M  V30 1481 H 134.831 3.89848 -1.49415 0
M  V30 1482 H 136.221 3.80934 -5.53479 0
M  V30 1483 N 138.941 1.26152 0.944643 0
M  V30 1484 C 139.851 1.09176 2.07648 0
M  V30 1485 C 140.867 0.0261935 1.7398 0
M  V30 1486 O 142.043 0.229208 2.00091 0
M  V30 1487 C 139.108 0.722915 3.39079 0
M  V30 1488 C 138.169 1.86752 3.86552 0
M  V30 1489 C 137.402 1.51617 5.11711 0
M  V30 1490 O 137.625 0.416331 5.68879 0
M  V30 1491 O 136.559 2.34975 5.54139 0
M  V30 1492 H 140.385 2.0412 2.24875 0
M  V30 1493 H 137.97 1.05182 1.061 0
M  V30 1494 H 139.852 0.529787 4.18056 0
M  V30 1495 H 138.527 -0.197159 3.23099 0
M  V30 1496 H 137.434 2.11558 3.08535 0
M  V30 1497 H 138.767 2.76719 4.07047 0
M  V30 1498 N 140.419 -1.14872 1.07899 0
M  V30 1499 C 141.649 -1.89386 0.825631 0
M  V30 1500 C 142.057 -1.78565 -0.625406 0
M  V30 1501 O 141.4 -1.13918 -1.44113 0
M  V30 1502 C 141.462 -3.40206 1.16191 0
M  V30 1503 C 141.126 -3.74812 2.61467 0
M  V30 1504 C 142.123 -3.75367 3.59716 0
M  V30 1505 C 139.808 -4.0495 2.97189 0
M  V30 1506 C 141.802 -4.05574 4.9172 0
M  V30 1507 C 139.489 -4.34821 4.29388 0
M  V30 1508 C 140.487 -4.35116 5.26463 0
M  V30 1509 O 140.175 -4.64267 6.56286 0
M  V30 1510 H 139.907 -0.606894 0.297751 0
M  V30 1511 H 142.461 -1.46438 1.44031 0
M  V30 1512 H 140.691 -3.8358 0.490214 0
M  V30 1513 H 142.38 -3.96018 0.890193 0
M  V30 1514 H 143.146 -3.52176 3.33462 0
M  V30 1515 H 139.025 -4.03876 2.22273 0
M  V30 1516 H 142.569 -4.05719 5.67484 0
M  V30 1517 H 138.466 -4.5748 4.55392 0
M  V30 1518 H 139.234 -4.82007 6.61522 0
M  V30 1519 N 141.898 -0.863906 -1.31812 0
M  V30 1520 C 142.861 -0.320212 -2.26952 0
M  V30 1521 C 143.861 0.525369 -1.51975 0
M  V30 1522 O 145.051 0.335547 -1.70938 0
M  V30 1523 C 142.183 0.545919 -3.365 0
M  V30 1524 H 143.376 -1.16004 -2.76556 0
M  V30 1525 H 140.929 -0.638995 -1.42641 0
M  V30 1526 H 141.664 1.40718 -2.92179 0
M  V30 1527 H 141.449 -0.0594674 -3.92055 0
M  V30 1528 H 142.939 0.918796 -4.07367 0
M  V30 1529 N 143.376 1.44774 -0.622745 0
M  V30 1530 C 144.625 2.01334 -0.121397 0
M  V30 1531 C 144.938 1.49505 1.26125 0
M  V30 1532 O 146.144 1.98139 1.85616 0
M  V30 1533 C 144.6 3.59516 -0.166298 0
M  V30 1534 C 144.208 4.20342 -1.54974 0
M  V30 1535 C 145.952 4.23582 0.279021 0
M  V30 1536 C 143.859 5.70721 -1.55021 0
M  V30 1537 H 142.789 0.752851 -0.0416172 0
M  V30 1538 H 145.44 1.66083 -0.780309 0
M  V30 1539 H 143.822 3.92027 0.559557 0
M  V30 1540 H 144.996 3.99381 -2.29851 0
M  V30 1541 H 143.311 3.68529 -1.93843 0
M  V30 1542 H 145.908 5.33868 0.298083 0
M  V30 1543 H 146.251 3.95327 1.30471 0
M  V30 1544 H 146.784 3.95843 -0.394063 0
M  V30 1545 H 143.523 6.03698 -2.55399 0
M  V30 1546 H 143.043 5.93829 -0.844245 0
M  V30 1547 H 144.722 6.34203 -1.28047 0
M  V30 1548 N 144.854 0.36279 1.53368 0
M  V30 1549 C 145.801 -0.485008 2.25646 0
M  V30 1550 C 146.771 -1.07982 1.2621 0
M  V30 1551 O 147.956 -1.11284 1.54986 0
M  V30 1552 C 145.096 -1.62023 3.04701 0
M  V30 1553 C 144.209 -1.05086 4.19024 0
M  V30 1554 C 143.344 -2.15496 4.85525 0
M  V30 1555 C 142.383 -1.5601 5.91884 0
M  V30 1556 N 141.52 -2.60241 6.52088 0
M  V30 1557 H 146.36 0.137864 2.97681 0
M  V30 1558 H 143.897 0.0798061 1.46883 0
M  V30 1559 H 145.855 -2.28887 3.48807 0
M  V30 1560 H 144.485 -2.2138 2.34927 0
M  V30 1561 H 143.537 -0.27259 3.79422 0
M  V30 1562 H 144.849 -0.575926 4.95464 0
M  V30 1563 H 144.003 -2.90186 5.32801 0
M  V30 1564 H 142.742 -2.66341 4.08551 0
M  V30 1565 H 141.747 -0.798338 5.43973 0
M  V30 1566 H 142.972 -1.05994 6.70777 0
M  V30 1567 H 140.918 -3.10304 5.77968 0
M  V30 1568 H 140.835 -2.17426 7.24059 0
M  V30 1569 H 142.103 -3.34641 7.04014 0
M  V30 1570 N 146.332 -1.57332 0.0918853 0
M  V30 1571 C 147.578 -1.94524 -0.573425 0
M  V30 1572 C 147.911 -0.973578 -1.68033 0
M  V30 1573 O 147.186 -0.00609226 -1.94499 0
M  V30 1574 C 147.469 -3.41858 -1.13161 0
M  V30 1575 C 147.322 -4.4979 -0.0299747 0
M  V30 1576 C 148.641 -3.90435 -2.03098 0
M  V30 1577 H 145.76 -0.70734 -0.206975 0
M  V30 1578 H 148.402 -1.89309 0.161942 0
M  V30 1579 H 146.552 -3.46433 -1.7583 0
M  V30 1580 H 148.224 -4.57327 0.604112 0
M  V30 1581 H 146.467 -4.291 0.636833 0
M  V30 1582 H 147.138 -5.50069 -0.461287 0
M  V30 1583 H 149.614 -3.87992 -1.50338 0
M  V30 1584 H 148.49 -4.94097 -2.39081 0
M  V30 1585 H 148.751 -3.29541 -2.94712 0
M  V30 1586 N 147.81 0.181792 -1.56548 0
M  V30 1587 C 149.059 0.898348 -1.8059 0
M  V30 1588 C 149.372 1.83862 -0.667379 0
M  V30 1589 O 150.578 2.59678 -0.792446 0
M  V30 1590 C 149.034 1.64791 -3.19956 0
M  V30 1591 C 148.642 0.751789 -4.41647 0
M  V30 1592 C 150.386 2.35331 -3.53298 0
M  V30 1593 C 148.293 1.50098 -5.72035 0
M  V30 1594 H 147.223 0.339194 -0.673397 0
M  V30 1595 H 149.874 0.151413 -1.82874 0
M  V30 1596 H 148.256 2.43921 -3.11959 0
M  V30 1597 H 149.43 -0.0018076 -4.608 0
M  V30 1598 H 147.745 0.156562 -4.16106 0
M  V30 1599 H 150.342 2.91958 -4.47956 0
M  V30 1600 H 150.685 3.10164 -2.77676 0
M  V30 1601 H 151.218 1.63154 -3.62803 0
M  V30 1602 H 147.957 0.795175 -6.50659 0
M  V30 1603 H 147.477 2.22817 -5.56878 0
M  V30 1604 H 149.156 2.05125 -6.13622 0
M  V30 1605 N 149.288 1.51039 0.449983 0
M  V30 1606 C 150.513 1.6715 1.22783 0
M  V30 1607 C 150.938 0.363081 1.84563 0
M  V30 1608 O 150.296 -0.675433 1.68249 0
M  V30 1609 C 150.344 2.77985 2.29689 0
M  V30 1610 O 149.448 2.40707 3.34864 0
M  V30 1611 H 148.789 0.557746 0.360299 0
M  V30 1612 H 151.319 1.97535 0.533005 0
M  V30 1613 H 151.329 3.01693 2.74673 0
M  V30 1614 H 150.004 3.72935 1.84098 0
M  V30 1615 H 148.581 2.27523 2.95445 0
M  V30 1616 N 150.766 -0.704594 1.40972 0
M  V30 1617 C 151.713 -1.81862 1.42109 0
M  V30 1618 C 152.683 -1.63781 0.276593 0
M  V30 1619 O 153.868 -1.84759 0.4763 0
M  V30 1620 C 151.008 -3.19669 1.30022 0
M  V30 1621 C 150.121 -3.49246 2.54267 0
M  V30 1622 C 149.256 -4.76618 2.3454 0
M  V30 1623 C 148.295 -4.99133 3.54306 0
M  V30 1624 N 147.432 -6.17726 3.33706 0
M  V30 1625 H 152.272 -1.80226 2.37324 0
M  V30 1626 H 149.809 -0.880238 1.17857 0
M  V30 1627 H 151.767 -3.99263 1.21018 0
M  V30 1628 H 150.397 -3.20506 0.384192 0
M  V30 1629 H 149.449 -2.64125 2.73756 0
M  V30 1630 H 150.761 -3.61788 3.43381 0
M  V30 1631 H 149.915 -5.64249 2.22952 0
M  V30 1632 H 148.654 -4.66305 1.42867 0
M  V30 1633 H 147.659 -4.09953 3.66359 0
M  V30 1634 H 148.884 -5.11311 4.4692 0
M  V30 1635 H 146.83 -6.08642 2.44725 0
M  V30 1636 H 146.747 -6.30995 4.16391 0
M  V30 1637 H 148.015 -7.08115 3.25873 0
M  V30 1638 N 152.244 -1.26651 -0.937939 0
M  V30 1639 C 153.191 -1.0849 -2.03712 0
M  V30 1640 C 154.161 0.011033 -1.66096 0
M  V30 1641 O 155.346 -0.149353 -1.90215 0
M  V30 1642 C 152.486 -0.72735 -3.37348 0
M  V30 1643 C 151.599 -1.89986 -3.87981 0
M  V30 1644 C 150.734 -1.48513 -5.10017 0
M  V30 1645 C 149.773 -2.62575 -5.5292 0
M  V30 1646 N 148.91 -2.21762 -6.66158 0
M  V30 1647 H 153.75 -2.02551 -2.18579 0
M  V30 1648 H 151.287 -1.00844 -1.07093 0
M  V30 1649 H 153.245 -0.50092 -4.14182 0
M  V30 1650 H 151.875 0.176298 -3.22318 0
M  V30 1651 H 150.927 -2.23913 -3.07518 0
M  V30 1652 H 152.239 -2.75586 -4.15757 0
M  V30 1653 H 151.393 -1.21934 -5.94321 0
M  V30 1654 H 150.132 -0.60009 -4.83994 0
M  V30 1655 H 149.137 -2.8988 -4.67172 0
M  V30 1656 H 150.362 -3.51685 -5.80943 0
M  V30 1657 H 148.308 -1.35696 -6.41812 0
M  V30 1658 H 148.225 -3.00903 -6.93537 0
M  V30 1659 H 149.493 -1.98403 -7.53828 0
M  V30 1660 N 153.722 1.14298 -1.08507 0
M  V30 1661 C 154.672 2.17449 -0.685569 0
M  V30 1662 C 155.656 1.58167 0.295315 0
M  V30 1663 O 156.848 1.76675 0.107172 0
M  V30 1664 C 153.977 3.43161 -0.0975318 0
M  V30 1665 C 153.063 4.09471 -1.10426 0
M  V30 1666 N 153.454 4.51089 -2.28806 0
M  V30 1667 C 151.752 4.35976 -0.940258 0
M  V30 1668 C 152.453 5.02654 -2.9277 0
M  V30 1669 N 151.429 4.96927 -2.20374 0
M  V30 1670 H 155.231 2.47369 -1.587 0
M  V30 1671 H 152.745 1.30992 -0.959936 0
M  V30 1672 H 154.742 4.16388 0.20664 0
M  V30 1673 H 153.402 3.14719 0.798872 0
M  V30 1674 H 154.413 4.44097 -2.66455 0
M  V30 1675 H 151.09 4.17386 -0.0977441 0
M  V30 1676 H 152.48 5.44723 -3.93352 0
M  V30 1677 N 155.201 0.870884 1.31352 0
M  V30 1678 C 156.447 0.482987 1.96965 0
M  V30 1679 C 156.78 -0.962462 1.68672 0
M  V30 1680 O 156.055 -1.6779 0.98371 0
M  V30 1681 C 156.338 0.741752 3.52378 0
M  V30 1682 C 156.191 2.2368 3.9024 0
M  V30 1683 C 157.51 0.208838 4.39604 0
M  V30 1684 H 154.629 0.176955 0.715441 0
M  V30 1685 H 157.271 1.09229 1.55464 0
M  V30 1686 H 155.421 0.223149 3.87859 0
M  V30 1687 H 157.093 2.82273 3.64856 0
M  V30 1688 H 155.336 2.70901 3.38814 0
M  V30 1689 H 156.007 2.3685 4.98604 0
M  V30 1690 H 158.483 0.652529 4.10952 0
M  V30 1691 H 157.359 0.419336 5.47296 0
M  V30 1692 H 157.62 -0.889275 4.33064 0
M  V30 1693 N 156.679 -1.44442 0.630414 0
M  V30 1694 C 157.626 -2.30678 -0.0749355 0
M  V30 1695 C 158.596 -1.4344 -0.837502 0
M  V30 1696 O 159.781 -1.72343 -0.818684 0
M  V30 1697 C 156.921 -3.28706 -1.05103 0
M  V30 1698 C 156.034 -4.31046 -0.286954 0
M  V30 1699 C 155.169 -5.16167 -1.2548 0
M  V30 1700 C 154.208 -6.10216 -0.479843 0
M  V30 1701 N 153.345 -6.88039 -1.39811 0
M  V30 1702 H 158.185 -2.90454 0.666386 0
M  V30 1703 H 155.722 -1.43107 0.340404 0
M  V30 1704 H 157.68 -3.84027 -1.63031 0
M  V30 1705 H 156.31 -2.70632 -1.75949 0
M  V30 1706 H 155.362 -3.78203 0.408243 0
M  V30 1707 H 156.674 -4.97794 0.316657 0
M  V30 1708 H 155.828 -5.76002 -1.90544 0
M  V30 1709 H 154.567 -4.49491 -1.89233 0
M  V30 1710 H 153.572 -5.49491 0.184295 0
M  V30 1711 H 154.797 -6.78928 0.152965 0
M  V30 1712 H 152.743 -6.24032 -2.02287 0
M  V30 1713 H 152.66 -7.51223 -0.848508 0
M  V30 1714 H 153.928 -7.52397 -2.03762 0
M  V30 1715 N 158.157 -0.370918 -1.53173 0
M  V30 1716 C 159.573 -0.0200818 -1.59587 0
M  V30 1717 C 159.773 1.46279 -1.38581 0
M  V30 1718 O 158.829 2.22506 -1.19363 0
M  V30 1719 C 160.142 -0.4808 -2.96831 0
M  V30 1720 C 161.69 -0.435477 -3.09956 0
M  V30 1721 C 162.165 -0.872092 -4.4962 0
M  V30 1722 N 163.656 -0.827364 -4.55751 0
M  V30 1723 C 164.391 -1.13683 -5.62018 0
M  V30 1724 N 163.887 -1.51584 -6.76014 0
M  V30 1725 N 165.68 -1.05927 -5.52029 0
M  V30 1726 H 157.831 -1.33652 -1.65079 0
M  V30 1727 H 160.094 -0.546634 -0.774529 0
M  V30 1728 H 159.8 -1.51577 -3.1736 0
M  V30 1729 H 159.674 0.129796 -3.76977 0
M  V30 1730 H 162.061 0.590371 -2.89134 0
M  V30 1731 H 162.142 -1.08164 -2.31806 0
M  V30 1732 H 161.786 -1.89608 -4.71181 0
M  V30 1733 H 161.716 -0.203127 -5.26208 0
M  V30 1734 H 164.207 -0.548216 -3.73902 0
M  V30 1735 H 164.52 -1.73609 -7.53047 0
M  V30 1736 H 162.865 -1.55454 -6.77391 0
M  V30 1737 H 166.056 -0.762321 -4.61851 0
M  V30 1738 H 166.229 -1.30378 -6.34749 0
M  V30 1739 N 159.635 1.57281 -0.100228 0
M  V30 1740 C 160.582 2.14305 0.856858 0
M  V30 1741 C 161.552 1.06296 1.27634 0
M  V30 1742 O 162.737 1.34109 1.35718 0
M  V30 1743 C 159.877 2.73184 2.10866 0
M  V30 1744 C 158.99 3.95442 1.73925 0
M  V30 1745 C 158.125 4.42468 2.93931 0
M  V30 1746 C 157.164 5.57303 2.5314 0
M  V30 1747 N 156.301 5.99158 3.65997 0
M  V30 1748 H 161.141 2.95772 0.363726 0
M  V30 1749 H 158.678 1.46139 0.167858 0
M  V30 1750 H 160.636 3.05442 2.84185 0
M  V30 1751 H 159.266 1.94437 2.57671 0
M  V30 1752 H 158.318 3.69464 0.905554 0
M  V30 1753 H 159.63 4.78769 1.39935 0
M  V30 1754 H 158.784 4.76537 3.75496 0
M  V30 1755 H 157.523 3.58052 3.31134 0
M  V30 1756 H 156.528 5.22857 1.70003 0
M  V30 1757 H 157.753 6.43471 2.17075 0
M  V30 1758 H 155.699 5.17687 4.02909 0
M  V30 1759 H 155.616 6.77295 3.35869 0
M  V30 1760 H 156.884 6.3786 4.48057 0
M  V30 1761 N 161.113 -0.173488 1.56642 0
M  V30 1762 C 162.341 -0.906095 1.86004 0
M  V30 1763 C 162.756 -1.75921 0.685355 0
M  V30 1764 O 162.113 -1.79198 -0.345578 0
M  V30 1765 C 162.164 -1.78462 3.14378 0
M  V30 1766 O 161.885 -0.965914 4.27319 0
M  V30 1767 C 163.386 -2.62707 3.57071 0
M  V30 1768 H 160.606 -0.263341 0.617165 0
M  V30 1769 H 163.15 -0.174236 2.03756 0
M  V30 1770 H 161.305 -2.46984 2.98459 0
M  V30 1771 H 161.719 -1.56655 5.00559 0
M  V30 1772 H 163.193 -3.19969 4.49804 0
M  V30 1773 H 163.67 -3.37472 2.81086 0
M  V30 1774 H 164.276 -1.99521 3.75595 0
M  V30 1775 N 162.591 -1.51276 -0.441967 0
M  V30 1776 C 163.868 -1.54252 -1.20273 0
M  V30 1777 C 164.248 -0.30408 -2.08898 0
M  V30 1778 O 163.596 0.711084 -2.17154 0
M  V30 1779 C 163.806 -2.85406 -2.00859 0
M  V30 1780 C 165.154 -3.37181 -2.58059 0
M  V30 1781 O 166.178 -2.86925 -2.11074 0
M  V30 1782 O 165.037 -4.24858 -3.43741 0
M  V30 1783 H 162.131 -0.619969 -0.547328 0
M  V30 1784 H 164.677 -1.63586 -0.451413 0
M  V30 1785 H 163.449 -3.67003 -1.35736 0
M  V30 1786 H 163.072 -2.79213 -2.83065 0
M  V30 1787 N 164.069 0.697108 -1.41344 0
M  V30 1788 C 165.016 1.81106 -1.43071 0
M  V30 1789 C 165.986 1.63632 -0.285275 0
M  V30 1790 O 167.171 1.84504 -0.486091 0
M  V30 1791 C 164.311 3.18975 -1.31715 0
M  V30 1792 C 163.424 3.47892 -2.56115 0
M  V30 1793 C 162.559 4.75367 -2.37064 0
M  V30 1794 C 161.598 4.97247 -3.56948 0
M  V30 1795 N 160.735 6.15947 -3.36977 0
M  V30 1796 H 165.575 1.78965 -2.38276 0
M  V30 1797 H 163.112 0.873975 -1.18322 0
M  V30 1798 H 165.07 3.98615 -1.23133 0
M  V30 1799 H 163.7 3.20297 -0.401183 0
M  V30 1800 H 162.752 2.62669 -2.75153 0
M  V30 1801 H 164.064 3.59962 -3.45295 0
M  V30 1802 H 163.218 5.63059 -2.25941 0
M  V30 1803 H 161.957 4.65541 -1.45338 0
M  V30 1804 H 160.962 4.08004 -3.68527 0
M  V30 1805 H 162.187 5.08934 -4.49626 0
M  V30 1806 H 160.133 6.07336 -2.47949 0
M  V30 1807 H 160.05 6.28777 -4.19732 0
M  V30 1808 H 161.318 7.06377 -3.29623 0
M  V30 1809 N 165.547 1.27147 0.931209 0
M  V30 1810 C 166.457 1.11372 2.06478 0
M  V30 1811 C 167.473 0.044645 1.73943 0
M  V30 1812 O 168.649 0.250417 1.99837 0
M  V30 1813 C 165.714 0.758838 3.38294 0
M  V30 1814 C 164.775 1.90841 3.84549 0
M  V30 1815 C 164.008 1.57036 5.10074 0
M  V30 1816 O 164.231 0.476645 5.68405 0
M  V30 1817 O 163.165 2.40839 5.51616 0
M  V30 1818 H 166.991 2.06493 2.22698 0
M  V30 1819 H 164.576 1.06301 1.04978 0
M  V30 1820 H 166.458 0.574098 4.17471 0
M  V30 1821 H 165.133 -0.162879 3.2329 0
M  V30 1822 H 164.04 2.14819 3.06274 0
M  V30 1823 H 165.373 2.81021 4.04089 0
M  V30 1824 N 167.025 -1.13721 1.09112 0
M  V30 1825 C 168.25 -1.89314 0.847053 0
M  V30 1826 C 168.675 -1.78416 -0.595774 0
M  V30 1827 O 168.033 -1.12942 -1.41823 0
M  V30 1828 C 168.081 -3.3701 1.28284 0
M  V30 1829 O 167.185 -4.10054 0.439267 0
M  V30 1830 H 166.526 -0.588745 0.307044 0
M  V30 1831 H 169.056 -1.43902 1.45442 0
M  V30 1832 H 169.066 -3.87834 1.26683 0
M  V30 1833 H 167.741 -3.4426 2.33363 0
M  V30 1834 H 166.318 -3.69266 0.519312 0
M  V30 1835 N 168.503 -0.877838 -1.30888 0
M  V30 1836 C 169.433 -0.35534 -2.3078 0
M  V30 1837 C 170.414 0.557994 -1.60687 0
M  V30 1838 O 171.599 0.473355 -1.88343 0
M  V30 1839 C 168.729 0.437221 -3.44537 0
M  V30 1840 C 167.683 -0.383715 -4.26276 0
M  V30 1841 C 167.009 0.535014 -5.32017 0
M  V30 1842 C 168.309 -1.62201 -4.96476 0
M  V30 1843 H 170.003 -1.19007 -2.74732 0
M  V30 1844 H 167.549 -0.573698 -1.32078 0
M  V30 1845 H 169.502 0.813334 -4.13477 0
M  V30 1846 H 168.226 1.30553 -2.99372 0
M  V30 1847 H 166.885 -0.741874 -3.59015 0
M  V30 1848 H 166.533 1.40083 -4.831 0
M  V30 1849 H 166.233 -0.0104211 -5.87599 0
M  V30 1850 H 167.757 0.907799 -6.03814 0
M  V30 1851 H 169.171 -1.31689 -5.5797 0
M  V30 1852 H 167.568 -2.10711 -5.61891 0
M  V30 1853 H 168.638 -2.37044 -4.23011 0
M  V30 1854 N 169.982 1.44106 -0.638065 0
M  V30 1855 C 170.912 2.33448 0.0494287 0
M  V30 1856 C 171.893 1.48606 0.827672 0
M  V30 1857 O 173.078 1.77308 0.792173 0
M  V30 1858 C 170.208 3.31771 1.02691 0
M  V30 1859 C 169.162 4.26485 0.359823 0
M  V30 1860 C 168.488 5.14729 1.44769 0
M  V30 1861 C 169.788 5.17056 -0.738296 0
M  V30 1862 H 171.482 2.91183 -0.696636 0
M  V30 1863 H 169.028 1.40014 -0.336456 0
M  V30 1864 H 170.981 3.93161 1.51666 0
M  V30 1865 H 169.705 2.7226 1.80395 0
M  V30 1866 H 168.364 3.66437 -0.10934 0
M  V30 1867 H 168.012 4.51566 2.21578 0
M  V30 1868 H 167.712 5.78913 1.00668 0
M  V30 1869 H 169.236 5.78991 1.93911 0
M  V30 1870 H 170.65 5.72342 -0.331354 0
M  V30 1871 H 169.047 5.89879 -1.10286 0
M  V30 1872 H 170.117 4.57652 -1.60258 0
M  V30 1873 N 171.46 0.379036 1.52974 0
M  V30 1874 C 172.876 0.0285448 1.59574 0
M  V30 1875 C 173.076 -1.45542 1.39355 0
M  V30 1876 O 172.132 -2.2187 1.20541 0
M  V30 1877 C 173.445 0.496535 2.96572 0
M  V30 1878 C 174.993 0.451909 3.0972 0
M  V30 1879 C 175.468 0.895924 4.49152 0
M  V30 1880 N 176.959 0.851522 4.55306 0
M  V30 1881 C 177.694 1.16661 5.61407 0
M  V30 1882 N 177.19 1.55166 6.752 0
M  V30 1883 N 178.983 1.08853 5.51459 0
M  V30 1884 H 171.134 1.34525 1.64367 0
M  V30 1885 H 173.397 0.550733 0.771619 0
M  V30 1886 H 173.103 1.53258 3.16552 0
M  V30 1887 H 172.977 -0.109802 3.7704 0
M  V30 1888 H 175.364 -0.575029 2.89443 0
M  V30 1889 H 175.445 1.09392 2.3123 0
M  V30 1890 H 175.089 1.92104 4.70168 0
M  V30 1891 H 175.019 0.23103 5.26093 0
M  V30 1892 H 177.51 0.568038 3.73606 0
M  V30 1893 H 177.823 1.776 7.52116 0
M  V30 1894 H 176.168 1.59044 6.76557 0
M  V30 1895 H 179.359 0.786803 4.6144 0
M  V30 1896 H 179.532 1.33742 6.34048 0
M  V30 1897 N 172.938 -1.57226 0.108567 0
M  V30 1898 C 173.848 -2.18292 -0.859401 0
M  V30 1899 C 174.864 -1.15612 -1.30038 0
M  V30 1900 O 176.04 -1.48039 -1.36552 0
M  V30 1901 C 173.105 -2.762 -2.09558 0
M  V30 1902 C 172.166 -3.93881 -1.70752 0
M  V30 1903 C 171.399 -4.49018 -2.88477 0
M  V30 1904 O 171.622 -4.03068 -4.036 0
M  V30 1905 O 170.556 -5.39852 -2.66164 0
M  V30 1906 H 174.382 -3.01441 -0.369769 0
M  V30 1907 H 171.967 -1.48945 -0.1165 0
M  V30 1908 H 173.849 -3.13156 -2.81978 0
M  V30 1909 H 172.524 -1.96089 -2.57548 0
M  V30 1910 H 171.431 -3.61713 -0.954714 0
M  V30 1911 H 172.764 -4.75396 -1.27513 0
M  V30 1912 N 174.416 0.165178 -1.56732 0
M  V30 1913 C 175.662 0.882112 -1.82611 0
M  V30 1914 C 175.995 1.81628 -0.687378 0
M  V30 1915 O 175.27 1.92009 0.310267 0
M  V30 1916 C 175.553 1.67245 -3.18906 0
M  V30 1917 C 175.406 0.760987 -4.43316 0
M  V30 1918 C 176.725 2.63884 -3.52212 0
M  V30 1919 H 173.844 0.319242 -0.664269 0
M  V30 1920 H 176.486 0.148052 -1.89422 0
M  V30 1921 H 174.636 2.29824 -3.1323 0
M  V30 1922 H 176.308 0.147596 -4.61064 0
M  V30 1923 H 174.551 0.0694102 -4.33744 0
M  V30 1924 H 175.222 1.34962 -5.35247 0
M  V30 1925 H 177.698 2.11429 -3.58381 0
M  V30 1926 H 176.574 3.16245 -4.48643 0
M  V30 1927 H 176.835 3.44377 -2.77231 0
M  V30 1928 N 175.894 1.51508 0.433938 0
M  V30 1929 C 176.804 1.75917 1.5521 0
M  V30 1930 C 177.82 0.643545 1.61662 0
M  V30 1931 O 178.996 0.926183 1.7884 0
M  V30 1932 C 176.061 1.88213 2.91164 0
M  V30 1933 C 175.122 3.12074 2.94802 0
M  V30 1934 C 174.355 3.23774 4.24271 0
M  V30 1935 O 174.578 2.4133 5.16833 0
M  V30 1936 O 173.512 4.16774 4.34262 0
M  V30 1937 H 177.338 2.70777 1.37527 0
M  V30 1938 H 174.923 1.36051 0.617293 0
M  V30 1939 H 176.805 1.98267 3.71845 0
M  V30 1940 H 175.48 0.965413 3.08968 0
M  V30 1941 H 174.387 3.07497 2.13065 0
M  V30 1942 H 175.72 4.03446 2.81943 0
M  V30 1943 N 177.372 -0.689602 1.41712 0
M  V30 1944 C 178.302 -1.81577 1.46806 0
M  V30 1945 C 179.283 -1.66945 0.326105 0
M  V30 1946 O 180.468 -1.86588 0.538377 0
M  V30 1947 C 177.598 -3.19762 1.35535 0
M  V30 1948 C 176.552 -3.49107 2.47605 0
M  V30 1949 C 175.878 -4.86711 2.21397 0
M  V30 1950 C 177.178 -3.47483 3.89939 0
M  V30 1951 H 178.872 -1.7757 2.41058 0
M  V30 1952 H 176.418 -0.852887 1.16025 0
M  V30 1953 H 178.371 -3.98263 1.3771 0
M  V30 1954 H 177.095 -3.24409 0.377708 0
M  V30 1955 H 175.754 -2.72959 2.44722 0
M  V30 1956 H 175.402 -4.8799 1.21961 0
M  V30 1957 H 175.102 -5.0731 2.96497 0
M  V30 1958 H 176.626 -5.67515 2.25297 0
M  V30 1959 H 178.04 -4.1598 3.94505 0
M  V30 1960 H 176.437 -3.79615 4.64771 0
M  V30 1961 H 177.507 -2.46341 4.17665 0
M  V30 1962 N 178.85 -1.27639 -0.924453 0
M  V30 1963 C 179.78 -1.13166 -2.04244 0
M  V30 1964 C 180.761 -0.032256 -1.70069 0
M  V30 1965 O 181.946 -0.207328 -1.9309 0
M  V30 1966 C 179.076 -0.781496 -3.38393 0
M  V30 1967 C 178.03 -1.83449 -3.86692 0
M  V30 1968 C 177.356 -1.33822 -5.17683 0
M  V30 1969 C 178.656 -3.23917 -4.09726 0
M  V30 1970 H 180.35 -2.06689 -2.1661 0
M  V30 1971 H 177.896 -0.995136 -1.04082 0
M  V30 1972 H 179.849 -0.667057 -4.16087 0
M  V30 1973 H 178.573 0.189439 -3.2605 0
M  V30 1974 H 177.232 -1.93789 -3.11193 0
M  V30 1975 H 176.88 -0.35665 -5.01734 0
M  V30 1976 H 176.58 -2.04224 -5.50968 0
M  V30 1977 H 178.104 -1.23679 -5.97943 0
M  V30 1978 H 179.518 -3.16559 -4.77978 0
M  V30 1979 H 177.915 -3.92059 -4.54324 0
M  V30 1980 H 178.985 -3.68729 -3.14908 0
M  V30 1981 N 180.328 1.1314 -1.09713 0
M  V30 1982 C 181.275 2.18642 -0.739196 0
M  V30 1983 C 182.245 1.63706 0.280978 0
M  V30 1984 O 183.43 1.90111 0.161946 0
M  V30 1985 C 180.57 3.44685 -0.169102 0
M  V30 1986 C 179.683 4.13711 -1.24367 0
M  V30 1987 C 178.818 5.27379 -0.636019 0
M  V30 1988 C 177.857 5.88259 -1.69169 0
M  V30 1989 N 176.994 6.93352 -1.10485 0
M  V30 1990 H 181.834 2.48607 -1.64312 0
M  V30 1991 H 179.371 1.22066 -0.820875 0
M  V30 1992 H 181.329 4.16815 0.179256 0
M  V30 1993 H 179.959 3.15161 0.698079 0
M  V30 1994 H 179.011 3.39835 -1.70927 0
M  V30 1995 H 180.323 4.55037 -2.04311 0
M  V30 1996 H 179.477 6.06238 -0.236677 0
M  V30 1997 H 178.216 4.8731 0.194928 0
M  V30 1998 H 177.221 5.08092 -2.10055 0
M  V30 1999 H 178.446 6.30399 -2.52536 0
M  V30 2000 H 176.392 6.55335 -0.295234 0
M  V30 2001 H 176.309 7.33236 -1.84121 0
M  V30 2002 H 177.577 7.76057 -0.73181 0
M  V30 2003 N 181.806 0.884767 1.30421 0
M  V30 2004 C 182.739 0.295999 2.26272 0
M  V30 2005 C 183.717 -0.58332 1.51777 0
M  V30 2006 O 184.901 -0.53346 1.80794 0
M  V30 2007 C 182.028 -0.57944 3.33707 0
M  V30 2008 C 181.074 0.230525 4.25877 0
M  V30 2009 S 181.907 1.61867 5.1045 0
M  V30 2010 C 183.063 0.749756 6.21393 0
M  V30 2011 H 183.296 1.10848 2.75862 0
M  V30 2012 H 180.829 0.684178 1.38414 0
M  V30 2013 H 182.787 -1.07879 3.96071 0
M  V30 2014 H 181.448 -1.36601 2.82841 0
M  V30 2015 H 180.641 -0.437542 5.02097 0
M  V30 2016 H 180.243 0.662493 3.68086 0
M  V30 2017 H 182.535 -0.0333547 6.77492 0
M  V30 2018 H 183.478 1.48356 6.92384 0
M  V30 2019 H 183.886 0.310751 5.63644 0
M  V30 2020 N 183.284 -1.43765 0.645699 0
M  V30 2021 C 184.214 -2.33471 -0.0370477 0
M  V30 2022 C 185.195 -1.49042 -0.819779 0
M  V30 2023 O 186.38 -1.77726 -0.782758 0
M  V30 2024 C 183.51 -3.32311 -1.0093 0
M  V30 2025 C 182.464 -4.2667 -0.337201 0
M  V30 2026 C 181.79 -5.1549 -1.42037 0
M  V30 2027 C 183.09 -5.16657 0.765706 0
M  V30 2028 H 184.784 -2.90809 0.712069 0
M  V30 2029 H 182.33 -1.39834 0.343876 0
M  V30 2030 H 184.283 -3.9396 -1.49578 0
M  V30 2031 H 183.007 -2.73213 -1.78948 0
M  V30 2032 H 181.666 -3.66374 0.128771 0
M  V30 2033 H 181.314 -4.52735 -2.1918 0
M  V30 2034 H 181.014 -5.79438 -0.975966 0
M  V30 2035 H 182.538 -5.80012 -1.90838 0
M  V30 2036 H 183.952 -5.72158 0.361702 0
M  V30 2037 H 182.349 -5.89286 1.13413 0
M  V30 2038 H 183.419 -4.56796 1.62683 0
M  V30 2039 N 184.763 -0.387143 -1.52771 0
M  V30 2040 C 186.04 0.253197 -1.93954 0
M  V30 2041 C 186.42 1.64545 -1.32243 0
M  V30 2042 O 185.768 2.23191 -0.489699 0
M  V30 2043 C 185.978 0.281722 -3.47861 0
M  V30 2044 C 187.326 0.511715 -4.21505 0
M  V30 2045 O 188.35 0.362023 -3.54356 0
M  V30 2046 O 187.209 0.804847 -5.40541 0
M  V30 2047 H 184.303 0.156845 -0.811991 0
M  V30 2048 H 186.849 -0.441494 -1.63856 0
M  V30 2049 H 185.621 -0.693571 -3.85104 0
M  V30 2050 H 185.244 1.02142 -3.84256 0
M  V30 2051 N 186.241 1.57166 -0.116904 0
M  V30 2052 C 187.191 2.11756 0.845178 0
M  V30 2053 C 188.175 1.03783 1.22955 0
M  V30 2054 O 189.367 1.3002 1.20099 0
M  V30 2055 C 186.496 2.71886 2.09602 0
M  V30 2056 C 185.582 3.86937 1.7361 0
M  V30 2057 N 185.973 4.94073 1.08284 0
M  V30 2058 C 184.271 3.97082 2.03082 0
M  V30 2059 C 184.972 5.74477 0.913855 0
M  V30 2060 N 183.948 5.2423 1.43818 0
M  V30 2061 H 187.75 2.91967 0.336523 0
M  V30 2062 H 185.264 1.62174 0.0856332 0
M  V30 2063 H 187.261 3.09338 2.79492 0
M  V30 2064 H 185.921 1.93138 2.61013 0
M  V30 2065 H 186.932 5.12483 0.747067 0
M  V30 2066 H 183.609 3.29372 2.56554 0
M  V30 2067 H 184.999 6.70701 0.40125 0
M  V30 2068 N 187.719 -0.156864 1.56817 0
M  V30 2069 C 188.968 -0.869504 1.81996 0
M  V30 2070 C 189.281 -1.82777 0.696545 0
M  V30 2071 O 190.487 -2.58384 0.833658 0
M  V30 2072 C 188.943 -1.59679 3.22538 0
M  V30 2073 C 188.551 -0.681431 4.42787 0
M  V30 2074 C 190.295 -2.2968 3.56997 0
M  V30 2075 C 188.202 -1.40978 5.74351 0
M  V30 2076 H 187.132 -0.328438 0.678708 0
M  V30 2077 H 189.783 -0.1223 1.83092 0
M  V30 2078 H 188.165 -2.38927 3.158 0
M  V30 2079 H 189.339 0.0751166 4.60739 0
M  V30 2080 H 187.654 -0.0903431 4.16302 0
M  V30 2081 H 190.251 -2.84794 4.52544 0
M  V30 2082 H 190.594 -3.05707 2.82576 0
M  V30 2083 H 191.127 -1.57361 3.65352 0
M  V30 2084 H 187.866 -0.691561 6.51842 0
M  V30 2085 H 187.386 -2.13929 5.60352 0
M  V30 2086 H 189.065 -1.95337 6.16808 0
M  V30 2087 N 189.197 -1.51736 -0.425897 0
M  V30 2088 C 190.145 -1.74464 -1.53834 0
M  V30 2089 C 191.139 -0.611241 -1.57988 0
M  V30 2090 O 192.345 -0.792899 -1.61596 0
M  V30 2091 H 188.72 -0.551437 -0.511293 0
M  V30 2092 H 190.691 -2.67694 -1.31843 0
M  V30 2093 C 189.44 -1.8972 -2.91379 0
M  V30 2094 H 188.763 -2.76344 -2.88919 0
M  V30 2095 H 190.203 -2.09629 -3.68553 0
M  V30 2096 C 188.662 -0.65992 -3.30374 0
M  V30 2097 O 189.192 0.180083 -4.01296 0
M  V30 2098 N 187.398 -0.500677 -2.86254 0
M  V30 2099 H 186.945 -1.18532 -2.28709 0
M  V30 2100 H 186.903 0.325903 -3.12706 0
M  V30 2101 N 190.675 0.682077 -1.42076 0
M  V30 2102 C 191.924 1.43786 -1.41451 0
M  V30 2103 C 192.237 1.95574 -0.0317074 0
M  V30 2104 O 193.443 2.71326 0.0971462 0
M  V30 2105 C 191.899 2.60071 -2.48779 0
M  V30 2106 C 191.507 2.15013 -3.93031 0
M  V30 2107 C 193.251 3.37626 -2.57311 0
M  V30 2108 C 191.158 3.28336 -4.91883 0
M  V30 2109 H 190.088 0.540143 -0.526082 0
M  V30 2110 H 192.739 0.739157 -1.67955 0
M  V30 2111 H 191.121 3.32275 -2.15429 0
M  V30 2112 H 192.295 1.5001 -4.35699 0
M  V30 2113 H 190.61 1.50416 -3.88284 0
M  V30 2114 H 193.207 4.22012 -3.28345 0
M  V30 2115 H 193.55 3.83727 -1.61429 0
M  V30 2116 H 194.083 2.72488 -2.89819 0
M  V30 2117 H 190.822 2.87234 -5.89217 0
M  V30 2118 H 190.342 3.92145 -4.53853 0
M  V30 2119 H 192.021 3.93913 -5.13265 0
M  V30 2120 N 192.153 1.28127 0.917671 0
M  V30 2121 C 193.086 1.06039 2.02067 0
M  V30 2122 C 194.064 -0.0223285 1.62585 0
M  V30 2123 O 195.248 0.124823 1.88086 0
M  V30 2124 C 192.375 0.610596 3.33151 0
M  V30 2125 C 191.421 1.68937 3.91615 0
M  V30 2126 S 192.254 3.28437 4.22953 0
M  V30 2127 C 193.41 2.85283 5.57103 0
M  V30 2128 H 193.643 1.99425 2.20493 0
M  V30 2129 H 191.176 1.12071 1.06205 0
M  V30 2130 H 193.134 0.357778 4.08938 0
M  V30 2131 H 191.795 -0.303364 3.12632 0
M  V30 2132 H 190.988 1.32619 4.86239 0
M  V30 2133 H 190.59 1.89478 3.2245 0
M  V30 2134 H 192.882 2.3121 6.36827 0
M  V30 2135 H 193.825 3.7869 5.98331 0
M  V30 2136 H 194.233 2.24118 5.18104 0
M  V30 2137 N 193.631 -1.12557 1.10312 0
M  V30 2138 C 194.578 -2.18247 0.750781 0
M  V30 2139 C 195.548 -1.63853 -0.272293 0
M  V30 2140 O 196.733 -1.90195 -0.151862 0
M  V30 2141 C 193.873 -3.44591 0.187379 0
M  V30 2142 C 192.986 -4.13046 1.2656 0
M  V30 2143 C 192.121 -5.27034 0.663978 0
M  V30 2144 C 191.16 -5.87353 1.72287 0
M  V30 2145 N 190.297 -6.92757 1.1416 0
M  V30 2146 H 195.137 -2.47732 1.65628 0
M  V30 2147 H 192.674 -1.21629 0.827337 0
M  V30 2148 H 194.632 -4.16904 -0.157148 0
M  V30 2149 H 193.262 -3.15527 -0.681355 0
M  V30 2150 H 192.314 -3.38924 1.72727 0
M  V30 2151 H 193.626 -4.53947 2.06721 0
M  V30 2152 H 192.78 -6.06104 0.268824 0
M  V30 2153 H 191.519 -4.87407 -0.169082 0
M  V30 2154 H 190.524 -5.06971 2.12746 0
M  V30 2155 H 191.749 -6.29051 2.55875 0
M  V30 2156 H 189.695 -6.5517 0.329984 0
M  V30 2157 H 189.612 -7.3225 1.88007 0
M  V30 2158 H 190.88 -7.75658 0.772956 0
M  V30 2159 N 195.109 -0.891671 -1.2995 0
M  V30 2160 C 196.039 -0.379797 -2.30391 0
M  V30 2161 C 197.02 0.540919 -1.6127 0
M  V30 2162 O 198.205 0.453352 -1.88834 0
M  V30 2163 C 195.335 0.400654 -3.44981 0
M  V30 2164 C 194.289 -0.428905 -4.25846 0
M  V30 2165 C 193.615 0.478557 -5.32554 0
M  V30 2166 C 194.915 -1.67458 -4.94727 0
M  V30 2167 H 196.609 -1.21914 -2.73454 0
M  V30 2168 H 194.155 -0.587675 -1.31462 0
M  V30 2169 H 196.108 0.769434 -4.14316 0
M  V30 2170 H 194.832 1.27371 -3.0074 0
M  V30 2171 H 193.491 -0.779911 -3.58208 0
M  V30 2172 H 193.139 1.34951 -4.84559 0
M  V30 2173 H 192.839 -0.0727433 -5.87555 0
M  V30 2174 H 194.363 0.843705 -6.04743 0
M  V30 2175 H 195.777 -1.376 -5.56542 0
M  V30 2176 H 194.174 -2.16659 -5.59624 0
M  V30 2177 H 195.244 -2.41518 -4.20473 0
M  V30 2178 N 196.587 1.43421 -0.653314 0
M  V30 2179 C 197.817 2.05864 -0.174238 0
M  V30 2180 C 198.225 1.49052 1.16534 0
M  V30 2181 O 197.568 0.616481 1.73047 0
M  V30 2182 C 197.63 3.59499 -0.00875873 0
M  V30 2183 C 197.294 4.38893 -1.27364 0
M  V30 2184 C 198.291 4.70947 -2.20239 0
M  V30 2185 C 195.976 4.789 -1.51525 0
M  V30 2186 C 197.97 5.41916 -3.35568 0
M  V30 2187 C 195.657 5.49614 -2.67147 0
M  V30 2188 C 196.655 5.81044 -3.58994 0
M  V30 2189 O 196.343 6.50313 -4.72597 0
M  V30 2190 H 196.075 0.670345 -0.0872549 0
M  V30 2191 H 198.629 1.84913 -0.894226 0
M  V30 2192 H 196.859 3.79025 0.7666 0
M  V30 2193 H 198.548 4.0364 0.427687 0
M  V30 2194 H 199.314 4.40558 -2.02815 0
M  V30 2195 H 195.193 4.53843 -0.809158 0
M  V30 2196 H 198.737 5.66365 -4.07279 0
M  V30 2197 H 194.634 5.79419 -2.84505 0
M  V30 2198 H 195.402 6.68795 -4.71864 0
M  V30 2199 N 198.065 0.39524 1.52563 0
M  V30 2200 C 198.975 -0.444232 2.30356 0
M  V30 2201 C 199.991 -1.06615 1.37511 0
M  V30 2202 O 201.167 -1.07067 1.70583 0
M  V30 2203 C 198.232 -1.55315 3.09964 0
M  V30 2204 C 197.293 -0.955734 4.18526 0
M  V30 2205 C 196.526 -2.01181 4.9433 0
M  V30 2206 O 196.749 -3.22781 4.70285 0
M  V30 2207 O 195.683 -1.62579 5.79527 0
M  V30 2208 H 199.509 0.189667 3.03107 0
M  V30 2209 H 197.094 0.1588 1.48554 0
M  V30 2210 H 198.976 -2.19724 3.59582 0
M  V30 2211 H 197.651 -2.17191 2.4002 0
M  V30 2212 H 196.558 -0.274743 3.7309 0
M  V30 2213 H 197.891 -0.381109 4.90722 0
M  V30 2214 N 199.544 -1.57102 0.125237 0
M  V30 2215 C 200.791 -1.95407 -0.531248 0
M  V30 2216 C 201.119 -1.0089 -1.66287 0
M  V30 2217 O 200.374 -0.0339431 -1.95671 0
M  V30 2218 C 200.673 -3.40096 -1.09862 0
M  V30 2219 C 200.339 -4.50815 -0.0876989 0
M  V30 2220 C 199.001 -4.80824 0.19026 0
M  V30 2221 C 201.353 -5.17724 0.600902 0
M  V30 2222 C 198.681 -5.75058 1.163 0
M  V30 2223 C 201.033 -6.13005 1.56231 0
M  V30 2224 C 199.697 -6.41403 1.8482 0
M  V30 2225 H 198.967 -0.715046 -0.194397 0
M  V30 2226 H 201.614 -1.90373 0.207463 0
M  V30 2227 H 199.919 -3.41855 -1.91422 0
M  V30 2228 H 201.616 -3.6705 -1.61478 0
M  V30 2229 H 198.206 -4.27444 -0.314528 0
M  V30 2230 H 202.39 -4.94691 0.399333 0
M  V30 2231 H 197.646 -5.95362 1.39117 0
M  V30 2232 H 201.82 -6.63934 2.10153 0
M  V30 2233 H 199.447 -7.14229 2.60349 0
M  V30 2234 N 201.022 0.148545 -1.56898 0
M  V30 2235 C 202.269 0.861418 -1.83264 0
M  V30 2236 C 202.597 1.81239 -0.705883 0
M  V30 2237 O 201.852 1.93305 0.305212 0
M  V30 2238 C 202.151 1.67064 -3.1595 0
M  V30 2239 C 201.817 0.866591 -4.42494 0
M  V30 2240 C 200.479 0.644762 -4.76861 0
M  V30 2241 C 202.831 0.30418 -5.20312 0
M  V30 2242 C 200.159 -0.15021 -5.86508 0
M  V30 2243 C 202.511 -0.477824 -6.30793 0
M  V30 2244 C 201.175 -0.710244 -6.63711 0
M  V30 2245 H 200.445 0.315215 -0.670612 0
M  V30 2246 H 203.092 0.125142 -1.91091 0
M  V30 2247 H 201.397 2.47698 -3.03567 0
M  V30 2248 H 203.094 2.22566 -3.33565 0
M  V30 2249 H 199.684 1.04955 -4.15551 0
M  V30 2250 H 203.868 0.462844 -4.94137 0
M  V30 2251 H 199.124 -0.339796 -6.10455 0
M  V30 2252 H 203.298 -0.92076 -6.90286 0
M  V30 2253 H 200.925 -1.3281 -7.48509 0
M  V30 2254 N 202.5 1.5196 0.417844 0
M  V30 2255 C 203.41 1.77554 1.53336 0
M  V30 2256 C 204.426 0.660655 1.6097 0
M  V30 2257 O 205.602 0.945099 1.77848 0
M  V30 2258 C 202.667 1.91291 2.89152 0
M  V30 2259 C 201.728 3.15183 2.91475 0
M  V30 2260 C 200.961 3.28256 4.20813 0
M  V30 2261 O 201.184 2.46798 5.14244 0
M  V30 2262 O 200.118 4.21356 4.29817 0
M  V30 2263 H 203.944 2.7222 1.34647 0
M  V30 2264 H 201.529 1.36698 0.602828 0
M  V30 2265 H 203.411 2.02199 3.69721 0
M  V30 2266 H 202.086 0.998129 3.07927 0
M  V30 2267 H 200.993 3.09739 2.09791 0
M  V30 2268 H 202.326 4.06414 2.77648 0
M  V30 2269 N 203.978 -0.674533 1.42435 0
M  V30 2270 C 205.255 -1.4305 1.33402 0
M  V30 2271 C 205.635 -2.11081 -0.0284674 0
M  V30 2272 O 204.983 -2.03257 -1.04397 0
M  V30 2273 C 205.193 -2.43272 2.50239 0
M  V30 2274 C 206.541 -3.07907 2.92367 0
M  V30 2275 O 207.565 -2.53599 2.50132 0
M  V30 2276 O 206.424 -4.0632 3.65467 0
M  V30 2277 H 203.518 -0.638076 0.526106 0
M  V30 2278 H 206.064 -0.703235 1.54443 0
M  V30 2279 H 204.836 -1.91803 3.41068 0
M  V30 2280 H 204.459 -3.23479 2.31186 0
M  V30 2281 N 205.456 -1.28612 -0.910864 0
M  V30 2282 C 206.404 -1.1265 -2.03501 0
M  V30 2283 C 207.398 -0.0450054 -1.6934 0
M  V30 2284 O 208.604 -0.203988 -1.7884 0
M  V30 2285 H 204.979 -0.347639 -0.666822 0
M  V30 2286 H 206.95 -2.07849 -2.14106 0
M  V30 2287 C 205.699 -0.808143 -3.38178 0
M  V30 2288 H 205.022 -1.63231 -3.6496 0
M  V30 2289 H 206.462 -0.736426 -4.17556 0
M  V30 2290 C 204.921 0.488226 -3.33344 0
M  V30 2291 O 205.451 1.51766 -3.71927 0
M  V30 2292 N 203.657 0.490009 -2.86439 0
M  V30 2293 H 203.204 -0.348161 -2.55236 0
M  V30 2294 H 203.162 1.35741 -2.83587 0
M  V30 2295 N 206.934 1.1197 -1.10907 0
M  V30 2296 C 207.882 2.19927 -0.757303 0
M  V30 2297 C 208.876 1.67564 0.248747 0
M  V30 2298 O 210.082 1.79672 0.108605 0
M  V30 2299 H 206.457 0.716925 -0.226987 0
M  V30 2300 H 208.428 2.46847 -1.67658 0
M  V30 2301 C 207.177 3.47061 -0.210671 0
M  V30 2302 H 206.5 3.87703 -0.976049 0
M  V30 2303 H 207.94 4.24 -0.0026584 0
M  V30 2304 C 206.399 3.19864 1.05777 0
M  V30 2305 O 206.929 3.40049 2.13845 0
M  V30 2306 N 205.135 2.73636 0.978349 0
M  V30 2307 H 204.682 2.5741 0.0988246 0
M  V30 2308 H 204.64 2.55815 1.82773 0
M  V30 2309 N 208.412 0.89855 1.29475 0
M  V30 2310 C 209.642 0.538479 1.99459 0
M  V30 2311 C 210.05 -0.880922 1.67441 0
M  V30 2312 O 209.393 -1.59283 0.915127 0
M  V30 2313 C 209.455 0.649564 3.53583 0
M  V30 2314 C 209.119 2.03573 4.09154 0
M  V30 2315 C 210.116 3.00675 4.24135 0
M  V30 2316 C 207.801 2.3448 4.44212 0
M  V30 2317 C 209.795 4.26809 4.73405 0
M  V30 2318 C 207.482 3.60857 4.93179 0
M  V30 2319 C 208.48 4.56836 5.0773 0
M  V30 2320 O 208.168 5.80969 5.55635 0
M  V30 2321 H 207.9 0.205372 0.644048 0
M  V30 2322 H 210.454 1.20958 1.66007 0
M  V30 2323 H 208.684 -0.0785592 3.8662 0
M  V30 2324 H 210.373 0.29881 4.04799 0
M  V30 2325 H 211.139 2.78112 3.97339 0
M  V30 2326 H 207.018 1.60534 4.32145 0
M  V30 2327 H 210.562 5.0173 4.84678 0
M  V30 2328 H 206.459 3.83251 5.19412 0
M  V30 2329 H 207.227 5.83542 5.73952 0
M  V30 2330 N 209.89 -1.43072 0.660911 0
M  V30 2331 C 211.12 -2.05769 0.185153 0
M  V30 2332 C 211.528 -1.49668 -1.15742 0
M  V30 2333 O 210.871 -0.625649 -1.72717 0
M  V30 2334 C 210.933 -3.59489 0.0278237 0
M  V30 2335 C 210.597 -4.38212 1.2969 0
M  V30 2336 C 211.594 -4.69772 2.22734 0
M  V30 2337 C 209.279 -4.7809 1.54063 0
M  V30 2338 C 211.273 -5.40129 3.38437 0
M  V30 2339 C 208.96 -5.4819 2.70058 0
M  V30 2340 C 209.958 -5.79132 3.62071 0
M  V30 2341 O 209.646 -6.47798 4.76039 0
M  V30 2342 H 209.378 -0.669873 0.0908086 0
M  V30 2343 H 211.932 -1.84436 0.90402 0
M  V30 2344 H 210.162 -3.79426 -0.746489 0
M  V30 2345 H 211.851 -4.03862 -0.406275 0
M  V30 2346 H 212.617 -4.39476 2.05149 0
M  V30 2347 H 208.496 -4.53408 0.833215 0
M  V30 2348 H 212.04 -5.64198 4.10277 0
M  V30 2349 H 207.937 -5.77902 2.87574 0
M  V30 2350 H 208.705 -6.66283 4.75404 0
M  V30 2351 N 211.368 -0.403325 -1.52352 0
M  V30 2352 C 212.598 0.17376 -2.05868 0
M  V30 2353 C 213.006 1.39898 -1.27378 0
M  V30 2354 O 212.349 1.80939 -0.31729 0
M  V30 2355 C 212.411 0.594756 -3.54546 0
M  V30 2356 C 212.075 -0.518926 -4.54044 0
M  V30 2357 C 213.072 -1.3807 -5.01231 0
M  V30 2358 C 210.757 -0.689961 -4.97539 0
M  V30 2359 C 212.751 -2.39852 -5.90551 0
M  V30 2360 C 210.438 -1.71109 -5.86656 0
M  V30 2361 C 211.436 -2.56378 -6.33056 0
M  V30 2362 O 211.124 -3.56743 -7.20409 0
M  V30 2363 H 210.856 0.0264951 -0.675481 0
M  V30 2364 H 213.41 -0.571179 -1.97299 0
M  V30 2365 H 211.64 1.39189 -3.60782 0
M  V30 2366 H 213.329 1.0991 -3.90736 0
M  V30 2367 H 214.095 -1.25994 -4.68349 0
M  V30 2368 H 209.974 -0.035939 -4.60986 0
M  V30 2369 H 213.518 -3.06441 -6.26689 0
M  V30 2370 H 209.415 -1.83218 -6.18952 0
M  V30 2371 H 210.183 -3.52918 -7.38506 0
M  V30 2372 N 212.846 1.57033 -0.133567 0
M  V30 2373 C 213.776 2.1909 0.807567 0
M  V30 2374 C 214.757 1.13517 1.26681 0
M  V30 2375 O 215.942 1.41809 1.32679 0
M  V30 2376 C 213.072 2.80188 2.05212 0
M  V30 2377 C 212.026 3.91471 1.73015 0
M  V30 2378 C 211.352 4.39443 3.04622 0
M  V30 2379 C 212.652 5.12886 0.987168 0
M  V30 2380 H 214.346 2.97988 0.290403 0
M  V30 2381 H 211.892 1.43335 0.138239 0
M  V30 2382 H 213.845 3.22264 2.71521 0
M  V30 2383 H 212.569 1.98601 2.59278 0
M  V30 2384 H 211.228 3.49993 1.0909 0
M  V30 2385 H 210.876 3.54695 3.56651 0
M  V30 2386 H 210.576 5.14495 2.83847 0
M  V30 2387 H 212.1 4.8418 3.72024 0
M  V30 2388 H 213.514 5.51891 1.55208 0
M  V30 2389 H 211.911 5.93615 0.87985 0
M  V30 2390 H 212.981 4.84894 -0.0235286 0
M  V30 2391 N 214.325 -0.140222 1.56975 0
M  V30 2392 C 215.571 -0.852949 1.83991 0
M  V30 2393 C 215.904 -1.80512 0.716187 0
M  V30 2394 O 215.179 -1.92479 -0.279681 0
M  V30 2395 C 215.462 -1.6215 3.21527 0
M  V30 2396 C 215.315 -0.690363 4.4447 0
M  V30 2397 C 216.634 -2.58247 3.56366 0
M  V30 2398 H 213.753 -0.308634 0.669264 0
M  V30 2399 H 216.395 -0.117898 1.89634 0
M  V30 2400 H 214.545 -2.24812 3.16847 0
M  V30 2401 H 216.217 -0.0742264 4.6124 0
M  V30 2402 H 214.46 -0.000396433 4.338 0
M  V30 2403 H 215.131 -1.2643 5.37326 0
M  V30 2404 H 217.607 -2.05701 3.61699 0
M  V30 2405 H 216.483 -3.09067 4.53617 0
M  V30 2406 H 216.744 -3.39923 2.82674 0
M  V30 2407 N 215.803 -1.52179 -0.40978 0
M  V30 2408 C 217.028 -1.70347 -1.18308 0
M  V30 2409 C 217.453 -0.411887 -1.83535 0
M  V30 2410 O 216.811 0.630587 -1.6998 0
M  V30 2411 C 216.859 -2.83977 -2.22238 0
M  V30 2412 O 215.963 -2.495 -3.28365 0
M  V30 2413 H 215.304 -0.567103 -0.345384 0
M  V30 2414 H 217.834 -1.98879 -0.480445 0
M  V30 2415 H 217.844 -3.0887 -2.66577 0
M  V30 2416 H 216.519 -3.77685 -1.74146 0
M  V30 2417 H 215.096 -2.35277 -2.89308 0
M  V30 2418 N 217.281 0.66697 -1.42791 0
M  V30 2419 C 218.558 1.4234 -1.34159 0
M  V30 2420 C 218.938 2.11093 0.0172729 0
M  V30 2421 O 218.286 2.03808 1.03318 0
M  V30 2422 C 218.496 2.41942 -2.51526 0
M  V30 2423 C 219.844 3.06353 -2.93995 0
M  V30 2424 O 220.868 2.52269 -2.51473 0
M  V30 2425 O 219.727 4.04376 -3.67617 0
M  V30 2426 H 216.821 0.635277 -0.529483 0
M  V30 2427 H 219.367 0.695034 -1.54814 0
M  V30 2428 H 218.139 1.89991 -3.42081 0
M  V30 2429 H 217.762 3.22249 -2.32898 0
M  V30 2430 N 218.759 1.29093 0.90403 0
M  V30 2431 C 220.005 1.16986 1.65656 0
M  V30 2432 C 220.338 -0.278925 1.92186 0
M  V30 2433 O 219.613 -1.2019 1.5292 0
M  V30 2434 C 219.896 1.97908 3.0084 0
M  V30 2435 C 219.749 3.50903 2.81403 0
M  V30 2436 C 221.068 1.80208 4.01513 0
M  V30 2437 H 218.187 0.426346 0.601164 0
M  V30 2438 H 220.829 1.58518 1.04747 0
M  V30 2439 H 218.979 1.62616 3.52829 0
M  V30 2440 H 220.651 3.96153 2.36348 0
M  V30 2441 H 218.894 3.76045 2.1627 0
M  V30 2442 H 219.565 4.02791 3.77443 0
M  V30 2443 H 222.041 2.11025 3.58619 0
M  V30 2444 H 220.917 2.39184 4.94047 0
M  V30 2445 H 221.178 0.756119 4.35586 0
M  V30 2446 N 220.237 -1.11381 1.11499 0
M  V30 2447 C 221.467 -1.86663 0.885464 0
M  V30 2448 C 221.875 -1.80464 -0.568281 0
M  V30 2449 O 221.218 -1.18445 -1.40415 0
M  V30 2450 C 221.28 -3.36337 1.26956 0
M  V30 2451 C 220.944 -3.66304 2.73259 0
M  V30 2452 C 221.941 -3.63733 3.71476 0
M  V30 2453 C 219.626 -3.9529 3.09921 0
M  V30 2454 C 221.62 -3.89725 5.04374 0
M  V30 2455 C 219.307 -4.20941 4.43004 0
M  V30 2456 C 220.305 -4.18147 5.40039 0
M  V30 2457 O 219.993 -4.43153 6.70724 0
M  V30 2458 H 219.725 -0.597114 0.316908 0
M  V30 2459 H 222.279 -1.41782 1.48617 0
M  V30 2460 H 220.509 -3.81826 0.611999 0
M  V30 2461 H 222.198 -3.92986 1.01573 0
M  V30 2462 H 222.964 -3.41389 3.44498 0
M  V30 2463 H 218.843 -3.966 2.35009 0
M  V30 2464 H 222.387 -3.8746 5.80104 0
M  V30 2465 H 218.284 -4.42761 4.69716 0
M  V30 2466 H 219.052 -4.60717 6.76522 0
M  V30 2467 N 221.715 -0.905404 -1.28997 0
M  V30 2468 C 222.943 -0.549846 -1.9946 0
M  V30 2469 C 223.358 0.866834 -1.67724 0
M  V30 2470 O 222.715 1.57298 -0.925404 0
M  V30 2471 C 222.766 -0.739387 -3.53858 0
M  V30 2472 O 222.487 -2.10031 -3.84472 0
M  V30 2473 C 223.988 -0.389541 -4.41585 0
M  V30 2474 H 221.208 -0.210429 -0.637151 0
M  V30 2475 H 223.752 -1.21632 -1.64396 0
M  V30 2476 H 221.907 -0.120023 -3.87214 0
M  V30 2477 H 222.321 -2.13385 -4.79132 0
M  V30 2478 H 223.795 -0.572972 -5.49018 0
M  V30 2479 H 224.272 0.673756 -4.34001 0
M  V30 2480 H 224.878 -0.986089 -4.1371 0
M  V30 2481 N 223.193 1.4272 -0.668489 0
M  V30 2482 C 224.441 2.01226 -0.187769 0
M  V30 2483 C 224.762 1.53092 1.2078 0
M  V30 2484 O 224.032 0.74993 1.80977 0
M  V30 2485 H 222.612 0.744041 -0.0664272 0
M  V30 2486 H 225.274 1.74723 -0.863583 0
M  V30 2487 H 224.37 3.11556 -0.184166 0
M  V30 2488 N 224.671 0.411399 1.52136 0
M  V30 2489 C 225.919 -0.163322 2.01439 0
M  V30 2490 C 226.24 -1.45453 1.29879 0
M  V30 2491 O 225.51 -1.91225 0.4254 0
M  V30 2492 H 224.09 -0.0633447 0.744309 0
M  V30 2493 H 226.752 0.548161 1.87033 0
M  V30 2494 H 225.848 -0.357817 3.10042 0
M  V30 2495 N 226.149 -1.5696 0.141893 0
M  V30 2496 C 227.059 -2.20066 -0.812905 0
M  V30 2497 C 228.075 -1.18344 -1.27557 0
M  V30 2498 O 229.251 -1.50902 -1.33381 0
M  V30 2499 C 226.316 -2.80583 -2.03652 0
M  V30 2500 C 225.377 -3.97414 -1.62359 0
M  V30 2501 C 224.61 -4.55036 -2.78887 0
M  V30 2502 O 224.833 -4.11538 -3.94959 0
M  V30 2503 O 223.767 -5.45376 -2.54653 0
M  V30 2504 H 227.593 -3.02157 -0.305746 0
M  V30 2505 H 225.178 -1.49159 -0.0848799 0
M  V30 2506 H 227.06 -3.19067 -2.75272 0
M  V30 2507 H 225.735 -2.01508 -2.5333 0
M  V30 2508 H 224.642 -3.63656 -0.877775 0
M  V30 2509 H 225.975 -4.77994 -1.17401 0
M  V30 2510 N 227.627 0.131896 -1.57047 0
M  V30 2511 C 228.557 1.16384 -2.02428 0
M  V30 2512 C 229.538 1.43936 -0.90644 0
M  V30 2513 O 230.723 1.54599 -1.17528 0
M  V30 2514 C 227.853 2.49328 -2.4177 0
M  V30 2515 C 226.807 2.36266 -3.56879 0
M  V30 2516 C 226.133 3.74057 -3.8208 0
M  V30 2517 C 227.433 1.834 -4.89042 0
M  V30 2518 H 229.127 0.786433 -2.88887 0
M  V30 2519 H 226.673 0.376855 -1.38981 0
M  V30 2520 H 228.626 3.21759 -2.7212 0
M  V30 2521 H 227.35 2.88934 -1.52266 0
M  V30 2522 H 226.009 1.66286 -3.26718 0
M  V30 2523 H 225.657 4.11125 -2.89803 0
M  V30 2524 H 225.357 3.66174 -4.59554 0
M  V30 2525 H 226.881 4.48012 -4.1487 0
M  V30 2526 H 228.295 2.45636 -5.18011 0
M  V30 2527 H 226.692 1.8637 -5.70426 0
M  V30 2528 H 227.762 0.790662 -4.7841 0
M  V30 2529 N 229.106 1.52395 0.401703 0
M  V30 2530 C 230.353 1.66817 1.14796 0
M  V30 2531 C 230.681 0.401772 1.90305 0
M  V30 2532 O 229.936 -0.615487 1.85769 0
M  V30 2533 C 230.235 2.84578 2.16217 0
M  V30 2534 C 229.901 4.22513 1.5746 0
M  V30 2535 C 228.563 4.60029 1.41161 0
M  V30 2536 C 230.915 5.0844 1.14622 0
M  V30 2537 C 228.243 5.81144 0.80552 0
M  V30 2538 C 230.595 6.30167 0.55428 0
M  V30 2539 C 229.259 6.66426 0.378482 0
M  V30 2540 H 228.529 0.610428 0.420069 0
M  V30 2541 H 231.176 1.86512 0.434212 0
M  V30 2542 H 229.481 2.59248 2.93764 0
M  V30 2543 H 231.178 2.92933 2.73845 0
M  V30 2544 H 227.768 3.92953 1.71132 0
M  V30 2545 H 231.952 4.80034 1.26021 0
M  V30 2546 H 227.208 6.07855 0.657399 0
M  V30 2547 H 231.382 6.96071 0.213983 0
M  V30 2548 H 229.009 7.60143 -0.0932606 0
M  V30 2549 N 230.584 -0.659388 1.43143 0
M  V30 2550 C 231.861 -1.41627 1.34912 0
M  V30 2551 C 232.241 -2.11099 -0.00607785 0
M  V30 2552 O 231.589 -2.04353 -1.02236 0
M  V30 2553 C 231.799 -2.40604 2.52805 0
M  V30 2554 C 233.147 -3.04789 2.95616 0
M  V30 2555 O 234.171 -2.50932 2.52807 0
M  V30 2556 O 233.03 -4.02421 3.69756 0
M  V30 2557 H 230.124 -0.63246 0.532844 0
M  V30 2558 H 232.67 -0.686814 1.5518 0
M  V30 2559 H 231.442 -1.88174 3.43083 0
M  V30 2560 H 231.065 -3.21009 2.34604 0
M  V30 2561 N 232.062 -1.29571 -0.897171 0
M  V30 2562 C 232.972 -1.16808 -2.03453 0
M  V30 2563 C 233.988 -0.0907471 -1.73763 0
M  V30 2564 O 235.164 -0.303312 -1.99103 0
M  V30 2565 C 232.229 -0.848264 -3.36163 0
M  V30 2566 C 231.29 -2.0097 -3.79354 0
M  V30 2567 C 230.523 -1.70505 -5.05731 0
M  V30 2568 O 230.746 -0.62718 -5.66941 0
M  V30 2569 O 229.68 -2.5538 -5.45036 0
M  V30 2570 H 233.506 -2.12325 -2.17144 0
M  V30 2571 H 231.091 -1.09047 -1.02123 0
M  V30 2572 H 232.973 -0.684581 -4.15802 0
M  V30 2573 H 231.648 0.0771071 -3.23608 0
M  V30 2574 H 230.555 -2.22863 -3.00471 0
M  V30 2575 H 231.888 -2.91636 -3.96496 0
M  V30 2576 N 233.54 1.10788 -1.12088 0
M  V30 2577 C 234.789 1.82036 -0.868659 0
M  V30 2578 C 235.102 1.85929 0.607426 0
M  V30 2579 O 236.308 2.53346 0.97613 0
M  V30 2580 C 234.764 3.26951 -1.50435 0
M  V30 2581 C 234.372 3.31367 -3.01496 0
M  V30 2582 C 236.116 4.03053 -1.33225 0
M  V30 2583 C 234.023 4.7072 -3.58017 0
M  V30 2584 H 232.953 0.682108 -0.321318 0
M  V30 2585 H 235.604 1.24618 -1.34694 0
M  V30 2586 H 233.986 3.84343 -0.953735 0
M  V30 2587 H 235.16 2.83819 -3.6302 0
M  V30 2588 H 233.475 2.6875 -3.18061 0
M  V30 2589 H 236.072 5.05981 -1.72878 0
M  V30 2590 H 236.415 4.15387 -0.275529 0
M  V30 2591 H 236.948 3.52066 -1.85188 0
M  V30 2592 H 233.687 4.63585 -4.63432 0
M  V30 2593 H 233.207 5.1865 -3.01268 0
M  V30 2594 H 234.886 5.39685 -3.56859 0
M  V30 2595 N 235.018 0.912232 1.28515 0
M  V30 2596 C 236.267 0.540504 1.94323 0
M  V30 2597 C 236.58 -0.920044 1.72611 0
M  V30 2598 O 237.786 -1.39986 2.32629 0
M  V30 2599 C 236.242 0.915803 3.48053 0
M  V30 2600 C 235.85 2.39598 3.78546 0
M  V30 2601 C 237.594 0.614588 4.20027 0
M  V30 2602 C 235.501 2.71148 5.25578 0
M  V30 2603 H 234.431 0.198418 0.727424 0
M  V30 2604 H 237.082 1.11094 1.46049 0
M  V30 2605 H 235.464 0.274168 3.9505 0
M  V30 2606 H 236.638 3.08422 3.42364 0
M  V30 2607 H 234.953 2.66749 3.1974 0
M  V30 2608 H 237.55 0.827002 5.28266 0
M  V30 2609 H 237.893 -0.447531 4.13887 0
M  V30 2610 H 238.426 1.21462 3.78803 0
M  V30 2611 H 235.165 3.76207 5.36794 0
M  V30 2612 H 234.685 2.0696 5.62963 0
M  V30 2613 H 236.364 2.58072 5.93302 0
M  V30 2614 N 236.496 -1.42363 0.676048 0
M  V30 2615 C 237.721 -2.06377 0.205705 0
M  V30 2616 C 238.146 -1.50463 -1.12883 0
M  V30 2617 O 237.504 -0.623619 -1.70237 0
M  V30 2618 C 237.552 -3.60277 0.152655 0
M  V30 2619 O 236.656 -4.02935 -0.87845 0
M  V30 2620 H 235.997 -0.655588 0.105359 0
M  V30 2621 H 238.527 -1.82475 0.925412 0
M  V30 2622 H 238.537 -4.07993 -0.0230675 0
M  V30 2623 H 237.212 -4.00346 1.12675 0
M  V30 2624 H 235.789 -3.66764 -0.673668 0
M  V30 2625 N 237.974 -0.419461 -1.51915 0
M  V30 2626 C 239.39 -0.0708431 -1.59443 0
M  V30 2627 C 239.59 1.41796 -1.43164 0
M  V30 2628 O 238.646 2.18596 -1.26381 0
M  V30 2629 C 239.959 -0.574991 -2.95151 0
M  V30 2630 C 241.507 -0.533867 -3.08413 0
M  V30 2631 C 241.982 -1.01469 -4.46618 0
M  V30 2632 N 243.473 -0.971939 -4.52888 0
M  V30 2633 C 244.208 -1.31505 -5.58116 0
M  V30 2634 N 243.704 -1.73014 -6.70849 0
M  V30 2635 N 245.497 -1.23436 -5.48379 0
M  V30 2636 H 237.648 -1.38836 -1.60743 0
M  V30 2637 H 239.911 -0.570998 -0.756747 0
M  V30 2638 H 239.617 -1.61597 -3.12377 0
M  V30 2639 H 239.491 0.00979777 -3.77199 0
M  V30 2640 H 241.878 0.498086 -2.90866 0
M  V30 2641 H 241.959 -1.15484 -2.28248 0
M  V30 2642 H 241.603 -2.04502 -4.6491 0
M  V30 2643 H 241.533 -0.370433 -5.25295 0
M  V30 2644 H 244.024 -0.666893 -3.71969 0
M  V30 2645 H 244.337 -1.97479 -7.47143 0
M  V30 2646 H 242.682 -1.76926 -6.72103 0
M  V30 2647 H 245.873 -0.908869 -4.59192 0
M  V30 2648 H 246.046 -1.50506 -6.30279 0
M  V30 2649 N 239.452 1.56882 -0.150215 0
M  V30 2650 C 240.399 2.16922 0.788244 0
M  V30 2651 C 241.369 1.10303 1.24187 0
M  V30 2652 O 242.554 1.38359 1.31383 0
M  V30 2653 C 239.694 2.79754 2.02068 0
M  V30 2654 C 238.807 4.00775 1.61257 0
M  V30 2655 C 237.942 4.51595 2.79705 0
M  V30 2656 C 236.981 5.65074 2.35282 0
M  V30 2657 N 236.118 6.10499 3.4675 0
M  V30 2658 H 240.958 2.96779 0.269444 0
M  V30 2659 H 238.495 1.46599 0.12128 0
M  V30 2660 H 240.453 3.14329 2.74323 0
M  V30 2661 H 239.083 2.02536 2.51354 0
M  V30 2662 H 238.135 3.72158 0.787553 0
M  V30 2663 H 239.447 4.82978 1.24633 0
M  V30 2664 H 238.601 4.88242 3.60145 0
M  V30 2665 H 237.34 3.68406 3.19576 0
M  V30 2666 H 236.345 5.28 1.53283 0
M  V30 2667 H 237.57 6.50052 1.96493 0
M  V30 2668 H 235.516 5.30243 3.86236 0
M  V30 2669 H 235.433 6.87637 3.14152 0
M  V30 2670 H 236.701 6.51791 4.27537 0
M  V30 2671 N 240.93 -0.123565 1.57115 0
M  V30 2672 C 242.346 -0.476961 1.52306 0
M  V30 2673 C 242.546 -1.82109 0.86248 0
M  V30 2674 O 241.602 -2.48586 0.442884 0
M  V30 2675 C 242.915 -0.465661 2.97073 0
M  V30 2676 C 244.463 -0.549534 3.08138 0
M  V30 2677 C 244.938 -0.568669 4.54456 0
M  V30 2678 N 246.429 -0.630237 4.58892 0
M  V30 2679 C 247.164 -0.666415 5.69514 0
M  V30 2680 N 246.66 -0.660514 6.89644 0
M  V30 2681 N 248.453 -0.709077 5.5761 0
M  V30 2682 H 240.604 0.757198 1.98445 0
M  V30 2683 H 242.867 0.278808 0.906074 0
M  V30 2684 H 242.573 0.454232 3.48754 0
M  V30 2685 H 242.447 -1.29513 3.54269 0
M  V30 2686 H 244.834 -1.45985 2.56461 0
M  V30 2687 H 244.915 0.307532 2.53945 0
M  V30 2688 H 244.559 0.337581 5.06777 0
M  V30 2689 H 244.489 -1.44256 5.06456 0
M  V30 2690 H 246.98 -0.641146 3.72421 0
M  V30 2691 H 247.293 -0.690616 7.69708 0
M  V30 2692 H 245.638 -0.628012 6.92157 0
M  V30 2693 H 248.829 -0.711019 4.62668 0
M  V30 2694 H 249.002 -0.733804 6.43832 0
M  V30 2695 N 242.408 -1.52605 -0.393616 0
M  V30 2696 C 243.655 -1.67424 -1.1391 0
M  V30 2697 C 243.983 -0.411859 -1.90089 0
M  V30 2698 O 243.238 0.605626 -1.86093 0
M  V30 2699 C 243.537 -2.85721 -2.14705 0
M  V30 2700 C 243.203 -4.23342 -1.55218 0
M  V30 2701 C 241.865 -4.60771 -1.3872 0
M  V30 2702 C 244.217 -5.09041 -1.11924 0
M  V30 2703 C 241.545 -5.81563 -0.774689 0
M  V30 2704 C 243.897 -6.30452 -0.520853 0
M  V30 2705 C 242.561 -6.66617 -0.343134 0
M  V30 2706 H 241.831 -0.612648 -0.416826 0
M  V30 2707 H 244.478 -1.8674 -0.424315 0
M  V30 2708 H 242.783 -2.60803 -2.92385 0
M  V30 2709 H 244.48 -2.94382 -2.72288 0
M  V30 2710 H 241.07 -3.93855 -1.69045 0
M  V30 2711 H 245.254 -4.80695 -1.23473 0
M  V30 2712 H 240.51 -6.08196 -0.625154 0
M  V30 2713 H 244.684 -6.96175 -0.177065 0
M  V30 2714 H 242.311 -7.60083 0.133571 0
M  V30 2715 N 243.887 0.651787 -1.4349 0
M  V30 2716 C 245.117 1.43728 -1.48411 0
M  V30 2717 C 245.525 1.8893 -0.10103 0
M  V30 2718 O 244.868 1.60182 0.899307 0
M  V30 2719 C 244.93 2.70411 -2.36893 0
M  V30 2720 C 244.594 2.4714 -3.8441 0
M  V30 2721 C 245.591 2.10271 -4.75481 0
M  V30 2722 C 243.276 2.6142 -4.28912 0
M  V30 2723 C 245.27 1.87982 -6.0905 0
M  V30 2724 C 242.957 2.38746 -5.62533 0
M  V30 2725 C 243.955 2.02083 -6.5242 0
M  V30 2726 O 243.643 1.79647 -7.8357 0
M  V30 2727 H 243.375 0.447962 -0.506267 0
M  V30 2728 H 245.929 0.80624 -1.88915 0
M  V30 2729 H 244.159 3.36079 -1.91278 0
M  V30 2730 H 245.848 3.32364 -2.33 0
M  V30 2731 H 246.614 1.98814 -4.42378 0
M  V30 2732 H 242.493 2.88931 -3.59222 0
M  V30 2733 H 246.037 1.5929 -6.7917 0
M  V30 2734 H 241.934 2.49806 -5.95203 0
M  V30 2735 H 242.702 1.9406 -7.95162 0
M  V30 2736 N 245.365 1.30045 0.890287 0
M  V30 2737 C 246.275 1.17885 2.02831 0
M  V30 2738 C 247.291 0.0999609 1.73713 0
M  V30 2739 O 248.467 0.313867 1.98939 0
M  V30 2740 C 245.532 0.866079 3.35708 0
M  V30 2741 C 244.593 2.02979 3.78283 0
M  V30 2742 C 243.826 1.73184 5.0482 0
M  V30 2743 O 244.049 0.657237 5.66601 0
M  V30 2744 O 242.983 2.58267 5.43674 0
M  V30 2745 H 246.809 2.13474 2.16015 0
M  V30 2746 H 244.394 1.09587 1.01543 0
M  V30 2747 H 246.276 0.706623 4.15433 0
M  V30 2748 H 244.951 -0.0599443 3.23644 0
M  V30 2749 H 243.858 2.24454 2.99285 0
M  V30 2750 H 245.191 2.93734 3.94944 0
M  V30 2751 N 246.843 -1.10192 1.12674 0
M  V30 2752 C 248.092 -1.81573 0.8783 0
M  V30 2753 C 248.405 -1.86249 -0.597557 0
M  V30 2754 O 249.611 -2.5386 -0.962681 0
M  V30 2755 C 248.067 -3.26149 1.52167 0
M  V30 2756 C 247.675 -3.29763 3.03249 0
M  V30 2757 C 249.419 -4.0234 1.3536 0
M  V30 2758 C 247.326 -4.68815 3.60508 0
M  V30 2759 H 246.256 -0.680394 0.324931 0
M  V30 2760 H 248.907 -1.23902 1.35353 0
M  V30 2761 H 247.289 -3.83832 0.974104 0
M  V30 2762 H 248.463 -2.8189 3.6452 0
M  V30 2763 H 246.778 -2.67059 3.19481 0
M  V30 2764 H 249.375 -5.05058 1.75559 0
M  V30 2765 H 249.718 -4.15235 0.297554 0
M  V30 2766 H 250.251 -3.51079 1.87052 0
M  V30 2767 H 246.99 -4.61121 4.65884 0
M  V30 2768 H 246.51 -5.17045 3.04014 0
M  V30 2769 H 248.189 -5.37785 3.59717 0
M  V30 2770 N 248.321 -0.919034 -1.28029 0
M  V30 2771 C 249.598 -0.473668 -1.89778 0
M  V30 2772 C 249.978 1.04783 -1.83259 0
M  V30 2773 O 249.326 1.8982 -1.27202 0
M  V30 2774 C 249.536 -1.00998 -3.34066 0
M  V30 2775 C 250.884 -1.06525 -4.1102 0
M  V30 2776 O 251.908 -0.958996 -3.43048 0
M  V30 2777 O 250.767 -1.22776 -5.3253 0
M  V30 2778 H 247.861 -0.15098 -0.813101 0
M  V30 2779 H 250.407 -1.01016 -1.36359 0
M  V30 2780 H 249.179 -2.05392 -3.33061 0
M  V30 2781 H 248.802 -0.454626 -3.94992 0
M  V30 2782 N 249.799 1.42003 -0.683588 0
M  V30 2783 C 250.762 2.29191 -0.0198243 0
M  V30 2784 C 251.762 1.43773 0.72013 0
M  V30 2785 O 252.952 1.65061 0.556815 0
M  V30 2786 C 250.084 3.26435 0.982487 0
M  V30 2787 H 251.277 2.8938 -0.787345 0
M  V30 2788 H 248.83 1.49789 -0.446418 0
M  V30 2789 H 249.565 2.71203 1.77819 0
M  V30 2790 H 249.35 3.89449 0.455182 0
M  V30 2791 H 250.84 3.918 1.44508 0
M  V30 2792 N 251.277 0.427512 1.51691 0
M  V30 2793 C 252.24 -0.377132 2.26076 0
M  V30 2794 C 253.24 -0.958089 1.29141 0
M  V30 2795 O 254.43 -0.83408 1.52934 0
M  V30 2796 C 251.562 -1.53262 3.04506 0
M  V30 2797 H 252.755 0.27464 2.9864 0
M  V30 2798 H 250.308 0.180445 1.55255 0
M  V30 2799 H 251.043 -2.22072 2.36335 0
M  V30 2800 H 250.828 -1.12232 3.75694 0
M  V30 2801 H 252.318 -2.10135 3.60878 0
M  V30 2802 N 252.755 -1.56801 0.158532 0
M  V30 2803 C 254.171 -1.5837 -0.197774 0
M  V30 2804 C 254.371 -1.17334 -1.63814 0
M  V30 2805 O 253.427 -0.878988 -2.36707 0
M  V30 2806 C 254.74 -3.00615 0.0714459 0
M  V30 2807 C 256.288 -3.12999 0.00864533 0
M  V30 2808 C 256.763 -4.57313 0.250685 0
M  V30 2809 N 258.254 -4.62777 0.198014 0
M  V30 2810 C 258.989 -5.72271 0.359642 0
M  V30 2811 N 258.485 -6.90371 0.579625 0
M  V30 2812 N 260.278 -5.61318 0.296438 0
M  V30 2813 H 252.429 -1.81765 1.09887 0
M  V30 2814 H 254.692 -0.841849 0.435884 0
M  V30 2815 H 254.398 -3.35068 1.06874 0
M  V30 2816 H 254.272 -3.71683 -0.642757 0
M  V30 2817 H 256.659 -2.7838 -0.979217 0
M  V30 2818 H 256.74 -2.44393 0.755359 0
M  V30 2819 H 256.384 -4.92639 1.2357 0
M  V30 2820 H 256.314 -5.24061 -0.516489 0
M  V30 2821 H 258.805 -3.77885 0.0331115 0
M  V30 2822 H 259.118 -7.69689 0.69275 0
M  V30 2823 H 257.463 -6.92264 0.616087 0
M  V30 2824 H 260.654 -4.67932 0.125258 0
M  V30 2825 H 260.827 -6.46599 0.425831 0
M  V30 2826 N 254.233 0.115231 -1.57178 0
M  V30 2827 C 255.482 0.820945 -1.84237 0
M  V30 2828 C 255.795 1.80866 -0.744761 0
M  V30 2829 O 257.001 2.56083 -0.901871 0
M  V30 2830 C 255.457 1.51072 -3.26658 0
M  V30 2831 C 255.065 0.563795 -4.44438 0
M  V30 2832 C 256.809 2.20134 -3.62962 0
M  V30 2833 C 254.716 1.25701 -5.77887 0
M  V30 2834 H 253.646 0.310328 -0.687177 0
M  V30 2835 H 256.297 0.0737134 -1.83352 0
M  V30 2836 H 254.679 2.30471 -3.22024 0
M  V30 2837 H 255.853 -0.197247 -4.60378 0
M  V30 2838 H 254.168 -0.0200638 -4.16395 0
M  V30 2839 H 256.765 2.72696 -4.59936 0
M  V30 2840 H 257.108 2.98107 -2.90582 0
M  V30 2841 H 257.641 1.47619 -3.69396 0
M  V30 2842 H 254.38 0.518493 -6.53446 0
M  V30 2843 H 253.9 1.98997 -5.65827 0
M  V30 2844 H 255.579 1.78915 -6.2177 0
M  V30 2845 N 255.711 1.52812 0.385517 0
M  V30 2846 C 256.96 1.67249 1.12741 0
M  V30 2847 C 257.273 0.4205 1.91027 0
M  V30 2848 O 258.479 0.445064 2.67827 0
M  V30 2849 C 256.935 2.95583 2.05326 0
M  V30 2850 C 256.543 4.27974 1.32447 0
M  V30 2851 C 258.287 3.19386 2.7963 0
M  V30 2852 C 256.194 5.47412 2.23818 0
M  V30 2853 H 255.124 0.6231 0.424573 0
M  V30 2854 H 257.775 1.79309 0.389924 0
M  V30 2855 H 256.157 2.77277 2.82725 0
M  V30 2856 H 257.331 4.56844 0.602495 0
M  V30 2857 H 255.646 4.10459 0.700885 0
M  V30 2858 H 258.243 4.05801 3.48181 0
M  V30 2859 H 258.586 2.34604 3.43899 0
M  V30 2860 H 259.119 3.38274 2.09322 0
M  V30 2861 H 255.858 6.34612 1.64157 0
M  V30 2862 H 255.378 5.22849 2.93921 0
M  V30 2863 H 257.057 5.81423 2.83824 0
M  V30 2864 N 257.189 -0.644168 1.43834 0
M  V30 2865 C 258.136 -1.75671 1.49694 0
M  V30 2866 C 259.106 -1.6246 0.345809 0
M  V30 2867 O 260.291 -1.82573 0.554234 0
M  V30 2868 C 257.431 -3.13867 1.43463 0
M  V30 2869 C 256.544 -3.38147 2.6885 0
M  V30 2870 C 255.679 -4.66241 2.54544 0
M  V30 2871 C 254.718 -4.83657 3.75157 0
M  V30 2872 N 253.855 -6.03016 3.59605 0
M  V30 2873 H 258.695 -1.69998 2.44754 0
M  V30 2874 H 256.232 -0.829458 1.21484 0
M  V30 2875 H 258.19 -3.9377 1.37843 0
M  V30 2876 H 256.82 -3.18588 0.519783 0
M  V30 2877 H 255.872 -2.52276 2.84712 0
M  V30 2878 H 257.184 -3.46899 3.58417 0
M  V30 2879 H 256.338 -5.54285 2.46683 0
M  V30 2880 H 255.077 -4.59826 1.62516 0
M  V30 2881 H 254.082 -3.94046 3.83416 0
M  V30 2882 H 255.307 -4.91896 4.68204 0
M  V30 2883 H 253.253 -5.97715 2.7032 0
M  V30 2884 H 253.17 -6.12766 4.42779 0
M  V30 2885 H 254.438 -6.93657 3.55613 0
M  V30 2886 N 258.668 -1.30515 -0.883378 0
M  V30 2887 C 259.6 -1.12846 -1.99496 0
M  V30 2888 C 260.613 -0.0712571 -1.62644 0
M  V30 2889 O 261.802 -0.317432 -1.75655 0
M  V30 2890 C 258.902 -0.699123 -3.3161 0
M  V30 2891 C 258.075 -1.83842 -3.96889 0
M  V30 2892 C 257.134 -1.39737 -5.07307 0
M  V30 2893 O 256.16 -2.10485 -5.28852 0
M  V30 2894 N 257.362 -0.277279 -5.79837 0
M  V30 2895 H 260.127 -2.08585 -2.15203 0
M  V30 2896 H 257.688 -1.22672 -1.05656 0
M  V30 2897 H 259.68 -0.387044 -4.02845 0
M  V30 2898 H 258.25 0.166276 -3.12157 0
M  V30 2899 H 257.47 -2.31853 -3.18807 0
M  V30 2900 H 258.758 -2.60187 -4.37241 0
M  V30 2901 H 258.156 0.3122 -5.64838 0
M  V30 2902 H 256.713 -0.0246623 -6.51795 0
M  V30 2903 N 260.146 1.09593 -1.13257 0
M  V30 2904 C 261.395 1.81105 -0.887917 0
M  V30 2905 C 261.708 1.86563 0.587672 0
M  V30 2906 O 262.914 2.54367 0.949204 0
M  V30 2907 C 261.37 3.25338 -1.53895 0
M  V30 2908 C 260.978 3.28151 -3.04994 0
M  V30 2909 C 262.722 4.01617 -1.37492 0
M  V30 2910 C 260.629 4.66897 -3.6299 0
M  V30 2911 H 259.559 0.678661 -0.328534 0
M  V30 2912 H 262.21 1.23183 -1.36008 0
M  V30 2913 H 260.592 3.8331 -0.994446 0
M  V30 2914 H 261.766 2.79953 -3.66009 0
M  V30 2915 H 260.081 2.65361 -3.20893 0
M  V30 2916 H 262.678 5.04119 -1.78235 0
M  V30 2917 H 263.021 4.15072 -0.31957 0
M  V30 2918 H 263.554 3.50082 -1.88912 0
M  V30 2919 H 260.293 4.58643 -4.68323 0
M  V30 2920 H 259.813 5.15426 -3.06752 0
M  V30 2921 H 261.492 5.3587 -3.62563 0
M  V30 2922 N 261.624 0.925811 1.2754 0
M  V30 2923 C 262.554 0.440748 2.29303 0
M  V30 2924 C 263.535 -0.497971 1.62648 0
M  V30 2925 O 264.72 -0.403126 1.8997 0
M  V30 2926 C 261.85 -0.309048 3.45922 0
M  V30 2927 C 260.804 0.54166 4.24559 0
M  V30 2928 C 260.13 -0.337191 5.33636 0
M  V30 2929 C 261.43 1.80516 4.90114 0
M  V30 2930 H 263.124 1.29121 2.70126 0
M  V30 2931 H 260.67 0.622323 1.29858 0
M  V30 2932 H 262.623 -0.659315 4.1621 0
M  V30 2933 H 261.347 -1.19352 3.04011 0
M  V30 2934 H 260.006 0.874609 3.56014 0
M  V30 2935 H 259.654 -1.22056 4.87966 0
M  V30 2936 H 259.354 0.228497 5.87156 0
M  V30 2937 H 260.878 -0.683072 6.06767 0
M  V30 2938 H 262.292 1.52307 5.52698 0
M  V30 2939 H 260.689 2.3142 5.53683 0
M  V30 2940 H 261.759 2.52581 4.13921 0
M  V30 2941 N 263.102 -1.41638 0.69111 0
M  V30 2942 C 264.327 -2.06148 0.227583 0
M  V30 2943 C 264.752 -1.51652 -1.11281 0
M  V30 2944 O 264.11 -0.64164 -1.69566 0
M  V30 2945 C 264.158 -3.60095 0.190858 0
M  V30 2946 O 263.262 -4.03845 -0.835664 0
M  V30 2947 H 262.603 -0.654434 0.112306 0
M  V30 2948 H 265.133 -1.81484 0.944714 0
M  V30 2949 H 265.143 -4.07995 0.020207 0
M  V30 2950 H 263.818 -3.99129 1.16915 0
M  V30 2951 H 262.395 -3.67458 -0.63473 0
M  V30 2952 N 264.58 -0.43555 -1.51462 0
M  V30 2953 C 265.828 0.131254 -2.01673 0
M  V30 2954 C 266.149 1.43368 -1.32177 0
M  V30 2955 O 265.419 1.90524 -0.455769 0
M  V30 2956 H 263.999 0.0514954 -0.745223 0
M  V30 2957 H 266.661 -0.577847 -1.86137 0
M  V30 2958 H 265.757 0.308446 -3.10572 0
M  V30 2959 N 266.058 1.56714 -0.166846 0
M  V30 2960 C 267.307 1.95922 0.479318 0
M  V30 2961 C 267.62 1.05529 1.6469 0
M  V30 2962 O 268.826 1.34399 2.35901 0
M  V30 2963 C 267.282 3.48359 0.90412 0
M  V30 2964 C 266.89 4.47369 -0.237621 0
M  V30 2965 C 268.634 3.96394 1.51896 0
M  V30 2966 C 266.541 5.91039 0.206561 0
M  V30 2967 H 265.471 0.731495 0.18284 0
M  V30 2968 H 268.122 1.81728 -0.254363 0
M  V30 2969 H 266.504 3.57955 1.69365 0
M  V30 2970 H 267.678 4.49485 -1.01489 0
M  V30 2971 H 265.993 4.09366 -0.762128 0
M  V30 2972 H 268.59 5.01186 1.86325 0
M  V30 2973 H 268.933 3.39075 2.41524 0
M  V30 2974 H 269.466 3.89796 0.79395 0
M  V30 2975 H 266.205 6.52221 -0.654834 0
M  V30 2976 H 265.725 5.9224 0.949282 0
M  V30 2977 H 267.404 6.43707 0.651939 0
M  V30 2978 N 267.536 -0.106894 1.57237 0
M  V30 2979 C 268.764 -0.826389 1.8968 0
M  V30 2980 C 269.179 -1.72856 0.759353 0
M  V30 2981 O 268.536 -1.80503 -0.269263 0
M  V30 2982 C 268.587 -1.64967 3.21665 0
M  V30 2983 O 268.308 -0.783804 4.31031 0
M  V30 2984 C 269.809 -2.47326 3.67892 0
M  V30 2985 H 267.029 -0.236927 0.627779 0
M  V30 2986 H 269.573 -0.0876593 2.04312 0
M  V30 2987 H 267.728 -2.34103 3.08666 0
M  V30 2988 H 268.142 -1.35284 5.06753 0
M  V30 2989 H 269.616 -3.00604 4.6297 0
M  V30 2990 H 270.093 -3.25247 2.95146 0
M  V30 2991 H 270.699 -1.83411 3.83719 0
M  V30 2992 N 269.014 -1.53014 -0.377408 0
M  V30 2993 C 270.244 -1.72265 -1.14054 0
M  V30 2994 C 270.652 -0.44601 -1.83868 0
M  V30 2995 O 269.995 0.590095 -1.73964 0
M  V30 2996 C 270.057 -2.82492 -2.22348 0
M  V30 2997 C 269.721 -4.23233 -1.72402 0
M  V30 2998 C 270.718 -5.05992 -1.19448 0
M  V30 2999 C 268.403 -4.696 -1.78273 0
M  V30 3000 C 270.397 -6.33203 -0.730268 0
M  V30 3001 C 268.084 -5.96792 -1.31464 0
M  V30 3002 C 269.082 -6.78424 -0.789297 0
M  V30 3003 O 268.77 -8.0323 -0.328077 0
M  V30 3004 H 268.502 -0.579873 -0.347453 0
M  V30 3005 H 271.056 -2.00502 -0.445882 0
M  V30 3006 H 269.286 -2.49702 -2.95272 0
M  V30 3007 H 270.975 -2.90034 -2.83963 0
M  V30 3008 H 271.741 -4.71349 -1.14259 0
M  V30 3009 H 267.62 -4.06142 -2.18106 0
M  V30 3010 H 271.164 -6.96868 -0.319542 0
M  V30 3011 H 267.061 -6.30937 -1.36342 0
M  V30 3012 H 267.829 -8.1727 -0.448493 0
M  V30 3013 N 270.492 0.636531 -1.44174 0
M  V30 3014 C 271.425 1.76139 -1.45087 0
M  V30 3015 C 272.403 1.59611 -0.310326 0
M  V30 3016 O 273.587 1.81568 -0.506477 0
M  V30 3017 C 270.714 3.13648 -1.27839 0
M  V30 3018 C 269.76 3.48838 -2.45386 0
M  V30 3019 S 270.593 3.46927 -4.07924 0
M  V30 3020 C 271.749 4.87064 -3.9309 0
M  V30 3021 H 271.982 1.75096 -2.40268 0
M  V30 3022 H 269.515 0.810666 -1.31406 0
M  V30 3023 H 271.473 3.93002 -1.18575 0
M  V30 3024 H 270.134 3.12235 -0.341787 0
M  V30 3025 H 269.327 4.48886 -2.29167 0
M  V30 3026 H 268.929 2.76935 -2.51362 0
M  V30 3027 H 271.221 5.76153 -3.56446 0
M  V30 3028 H 272.164 5.08337 -4.92949 0
M  V30 3029 H 272.572 4.61384 -3.25246 0
M  V30 3030 N 271.97 1.30982 0.876444 0
M  V30 3031 C 272.92 1.14688 1.97055 0
M  V30 3032 C 273.904 0.0596593 1.60789 0
M  V30 3033 O 275.096 0.283892 1.74708 0
M  V30 3034 C 272.225 0.849627 3.3262 0
M  V30 3035 C 271.311 1.97752 3.75173 0
M  V30 3036 N 271.702 3.22384 3.89746 0
M  V30 3037 C 270 1.8758 4.04635 0
M  V30 3038 C 270.701 3.96121 4.25985 0
M  V30 3039 N 269.677 3.24237 4.36315 0
M  V30 3040 H 273.479 2.09204 2.06424 0
M  V30 3041 H 270.993 1.22445 1.06682 0
M  V30 3042 H 272.99 0.713895 4.10742 0
M  V30 3043 H 271.65 -0.087376 3.24582 0
M  V30 3044 H 272.661 3.57575 3.74647 0
M  V30 3045 H 269.338 1.01303 4.05024 0
M  V30 3046 H 270.728 5.03491 4.44911 0
M  V30 3047 N 273.449 -1.08991 1.13837 0
M  V30 3048 C 274.396 -2.15748 0.819835 0
M  V30 3049 C 275.366 -1.64636 -0.220026 0
M  V30 3050 O 276.551 -1.90582 -0.0912757 0
M  V30 3051 C 273.691 -3.4382 0.296913 0
M  V30 3052 C 272.804 -4.0881 1.39636 0
M  V30 3053 C 271.939 -5.24655 0.831314 0
M  V30 3054 C 270.978 -5.81575 1.90886 0
M  V30 3055 N 270.115 -6.88774 1.36142 0
M  V30 3056 H 274.955 -2.42338 1.73426 0
M  V30 3057 H 272.492 -1.18935 0.865613 0
M  V30 3058 H 274.45 -4.17193 -0.0244339 0
M  V30 3059 H 273.08 -3.17535 -0.580628 0
M  V30 3060 H 272.132 -3.33258 1.83422 0
M  V30 3061 H 273.444 -4.47141 2.21058 0
M  V30 3062 H 272.598 -6.04942 0.461515 0
M  V30 3063 H 271.337 -4.87698 -0.013932 0
M  V30 3064 H 270.342 -4.99946 2.28767 0
M  V30 3065 H 271.567 -6.20592 2.75758 0
M  V30 3066 H 269.513 -6.53788 0.538254 0
M  V30 3067 H 269.43 -7.25898 2.11208 0
M  V30 3068 H 270.698 -7.72806 1.01933 0
M  V30 3069 N 274.927 -0.932562 -1.27047 0
M  V30 3070 C 275.875 -0.42603 -2.28665 0
M  V30 3071 C 276.869 0.49219 -1.62092 0
M  V30 3072 O 278.075 0.371355 -1.76128 0
M  V30 3073 H 274.45 -0.119213 -0.742491 0
M  V30 3074 H 276.421 -1.29579 -2.68797 0
M  V30 3075 C 275.17 0.301426 -3.46391 0
M  V30 3076 H 274.493 -0.39595 -3.97834 0
M  V30 3077 H 275.933 0.6202 -4.1944 0
M  V30 3078 C 274.392 1.51616 -3.00856 0
M  V30 3079 O 274.922 2.61476 -3.04948 0
M  V30 3080 N 273.128 1.36969 -2.56296 0
M  V30 3081 H 272.675 0.475873 -2.53166 0
M  V30 3082 H 272.633 2.18368 -2.26192 0
M  V30 3083 N 276.405 1.4127 -0.698611 0
M  V30 3084 C 277.353 2.32588 -0.023855 0
M  V30 3085 C 278.347 1.51128 0.765292 0
M  V30 3086 O 279.553 1.67043 0.670571 0
M  V30 3087 H 275.928 0.751918 0.0110871 0
M  V30 3088 H 277.899 2.87167 -0.811031 0
M  V30 3089 C 276.648 3.35947 0.896369 0
M  V30 3090 H 275.971 3.98684 0.298548 0
M  V30 3091 H 277.411 4.02376 1.33676 0
M  V30 3092 C 275.87 2.70076 2.01396 0
M  V30 3093 O 276.4 2.55093 3.10307 0
M  V30 3094 N 274.606 2.28724 1.79259 0
M  V30 3095 H 274.153 2.4111 0.906841 0
M  V30 3096 H 274.111 1.84986 2.54219 0
M  V30 3097 N 277.883 0.443576 1.51229 0
M  V30 3098 C 279.129 -0.120975 2.02439 0
M  V30 3099 C 279.462 -1.41815 1.32674 0
M  V30 3100 O 278.737 -1.89373 0.443622 0
M  V30 3101 C 279.02 -0.333291 3.58554 0
M  V30 3102 C 278.873 0.982968 4.38928 0
M  V30 3103 C 280.192 -1.10028 4.26124 0
M  V30 3104 H 277.311 -0.0424923 0.735774 0
M  V30 3105 H 279.953 0.583794 1.80809 0
M  V30 3106 H 278.103 -0.933614 3.77115 0
M  V30 3107 H 279.775 1.61775 4.32003 0
M  V30 3108 H 278.018 1.58611 4.03763 0
M  V30 3109 H 278.689 0.788379 5.46341 0
M  V30 3110 H 281.165 -0.591711 4.11871 0
M  V30 3111 H 280.041 -1.21761 5.35225 0
M  V30 3112 H 280.302 -2.12996 3.87408 0
M  V30 3113 N 279.361 -1.56624 0.175154 0
M  V30 3114 C 280.607 -1.9729 -0.469506 0
M  V30 3115 C 280.94 -1.06128 -1.62636 0
M  V30 3116 O 280.215 -0.109183 -1.94193 0
M  V30 3117 C 280.498 -3.47375 -0.948804 0
M  V30 3118 C 280.351 -4.49317 0.208491 0
M  V30 3119 C 281.67 -4.00652 -1.82116 0
M  V30 3120 H 278.789 -0.717317 -0.16919 0
M  V30 3121 H 281.431 -1.88184 0.262062 0
M  V30 3122 H 279.581 -3.55267 -1.57219 0
M  V30 3123 H 281.253 -4.53482 0.845682 0
M  V30 3124 H 279.496 -4.25121 0.863395 0
M  V30 3125 H 280.167 -5.51741 -0.169059 0
M  V30 3126 H 282.643 -3.95416 -1.2956 0
M  V30 3127 H 281.519 -5.06075 -2.12554 0
M  V30 3128 H 281.78 -3.44699 -2.7683 0
M  V30 3129 N 280.839 0.0985539 -1.57292 0
M  V30 3130 C 281.789 1.1261 -1.9825 0
M  V30 3131 C 282.773 1.35961 -0.860426 0
M  V30 3132 O 283.965 1.36711 -1.12424 0
M  V30 3133 C 281.094 2.44727 -2.40757 0
M  V30 3134 C 280.18 2.24764 -3.59642 0
M  V30 3135 N 280.571 1.74661 -4.74687 0
M  V30 3136 C 278.869 2.55344 -3.65672 0
M  V30 3137 C 279.57 1.68887 -5.56644 0
M  V30 3138 N 278.546 2.13976 -4.99715 0
M  V30 3139 H 282.348 0.731604 -2.84648 0
M  V30 3140 H 279.862 0.306029 -1.59491 0
M  V30 3141 H 281.859 3.19072 -2.68326 0
M  V30 3142 H 280.519 2.84917 -1.55733 0
M  V30 3143 H 281.53 1.43908 -4.97505 0
M  V30 3144 H 278.207 2.99081 -2.91302 0
M  V30 3145 H 279.597 1.3123 -6.5896 0
M  V30 3146 N 282.317 1.53212 0.369288 0
M  V30 3147 C 283.733 1.42902 0.710712 0
M  V30 3148 C 283.933 0.565135 1.93413 0
M  V30 3149 O 282.989 0.0461484 2.52458 0
M  V30 3150 C 284.302 2.86042 0.927382 0
M  V30 3151 C 285.85 2.9565 1.02762 0
M  V30 3152 C 286.325 4.39843 1.27679 0
M  V30 3153 N 287.816 4.43256 1.34457 0
M  V30 3154 C 288.551 5.51929 1.55439 0
M  V30 3155 N 288.047 6.70655 1.73762 0
M  V30 3156 N 289.84 5.39502 1.57779 0
M  V30 3157 H 281.991 2.07888 -0.435457 0
M  V30 3158 H 284.254 0.938661 -0.132739 0
M  V30 3159 H 283.96 3.51557 0.100287 0
M  V30 3160 H 283.834 3.29472 1.83653 0
M  V30 3161 H 286.221 2.30291 1.84527 0
M  V30 3162 H 286.302 2.5562 0.0959504 0
M  V30 3163 H 285.946 5.05774 0.464175 0
M  V30 3164 H 285.876 4.77443 2.22162 0
M  V30 3165 H 288.367 3.5769 1.21926 0
M  V30 3166 H 288.68 7.49248 1.89335 0
M  V30 3167 H 287.025 6.73648 1.70948 0
M  V30 3168 H 290.216 4.45713 1.43029 0
M  V30 3169 H 290.389 6.2426 1.7379 0
M  V30 3170 N 283.795 -0.628877 1.44509 0
M  V30 3171 C 285.072 -1.38733 1.37886 0
M  V30 3172 C 285.452 -2.11065 0.0387008 0
M  V30 3173 O 284.8 -2.06476 -0.97878 0
M  V30 3174 C 285.01 -2.35188 2.57852 0
M  V30 3175 C 286.358 -2.9845 3.02014 0
M  V30 3176 O 287.382 -2.45513 2.58073 0
M  V30 3177 O 286.241 -3.94487 3.78209 0
M  V30 3178 H 283.335 -0.621015 0.54614 0
M  V30 3179 H 285.881 -0.653744 1.56602 0
M  V30 3180 H 284.653 -1.80855 3.46998 0
M  V30 3181 H 284.276 -3.1596 2.4136 0
M  V30 3182 N 285.273 -1.31445 -0.869486 0
M  V30 3183 C 286.203 -1.21727 -1.99261 0
M  V30 3184 C 287.184 -0.104359 -1.6978 0
M  V30 3185 O 288.369 -0.289038 -1.92037 0
M  V30 3186 C 285.499 -0.924317 -3.34774 0
M  V30 3187 C 284.453 -1.99685 -3.78563 0
M  V30 3188 C 283.779 -1.55658 -5.11541 0
M  V30 3189 C 285.079 -3.41003 -3.95619 0
M  V30 3190 H 286.773 -2.1569 -2.07649 0
M  V30 3191 H 284.319 -1.03839 -0.997675 0
M  V30 3192 H 286.272 -0.842934 -4.12883 0
M  V30 3193 H 284.996 0.0509793 -3.2656 0
M  V30 3194 H 283.655 -2.06813 -3.02694 0
M  V30 3195 H 283.303 -0.569132 -4.9977 0
M  V30 3196 H 283.003 -2.27409 -5.41811 0
M  V30 3197 H 284.527 -1.48928 -5.92159 0
M  V30 3198 H 285.941 -3.36547 -4.64122 0
M  V30 3199 H 284.338 -4.10975 -4.37286 0
M  V30 3200 H 285.408 -3.81754 -2.98985 0
M  V30 3201 N 286.751 1.08385 -1.14413 0
M  V30 3202 C 287.698 2.15311 -0.831265 0
M  V30 3203 C 288.668 1.64751 0.211292 0
M  V30 3204 O 289.853 1.90627 0.0811674 0
M  V30 3205 C 286.993 3.43658 -0.315143 0
M  V30 3206 C 286.106 4.08064 -1.41802 0
M  V30 3207 C 285.241 5.24207 -0.859126 0
M  V30 3208 C 284.28 5.80554 -1.93967 0
M  V30 3209 N 283.417 6.88042 -1.39793 0
M  V30 3210 H 288.257 2.41415 -1.74708 0
M  V30 3211 H 285.794 1.18474 -0.871909 0
M  V30 3212 H 287.752 4.172 0.00230884 0
M  V30 3213 H 286.382 3.17839 0.56378 0
M  V30 3214 H 285.434 3.3228 -1.85187 0
M  V30 3215 H 286.746 4.45962 -2.23427 0
M  V30 3216 H 285.9 6.04689 -0.49359 0
M  V30 3217 H 284.639 4.87699 -0.011932 0
M  V30 3218 H 283.644 4.98725 -2.31415 0
M  V30 3219 H 284.869 6.19121 -2.79046 0
M  V30 3220 H 282.815 6.53493 -0.572919 0
M  V30 3221 H 282.732 7.24767 -2.15054 0
M  V30 3222 H 284 7.72255 -1.0603 0
M  V30 3223 N 288.23 0.939286 1.26551 0
M  V30 3224 C 289.641 0.628782 1.75793 0
M  V30 3225 C 289.992 -0.856046 1.7654 0
M  V30 3226 O 289.117 -1.66994 1.3763 0
M  V30 3227 C 289.712 1.13465 3.19235 0
M  V30 3228 C 288.271 0.874601 3.66098 0
M  V30 3229 C 287.418 1.28667 2.45642 0
M  V30 3230 H 290.369 1.1178 1.12654 0
M  V30 3231 H 290.39 0.487609 3.77363 0
M  V30 3232 H 289.902 2.21535 3.1866 0
M  V30 3233 H 288.003 -0.191793 3.72106 0
M  V30 3234 H 288.116 1.50028 4.55004 0
M  V30 3235 H 286.48 0.705109 2.44745 0
M  V30 3236 H 287.263 2.37625 2.47769 0
M  V30 3237 N 289.708 -1.40897 0.706093 0
M  V30 3238 C 290.618 -2.3455 0.0482286 0
M  V30 3239 C 291.634 -1.56796 -0.754396 0
M  V30 3240 O 292.81 -1.89228 -0.689538 0
M  V30 3241 C 289.875 -3.35625 -0.869303 0
M  V30 3242 C 288.936 -4.29261 -0.0576994 0
M  V30 3243 C 288.169 -5.25508 -0.931531 0
M  V30 3244 O 288.392 -5.27472 -2.17092 0
M  V30 3245 O 287.326 -6.00727 -0.375587 0
M  V30 3246 H 291.152 -2.92407 0.820476 0
M  V30 3247 H 288.737 -1.4193 0.4665 0
M  V30 3248 H 290.619 -3.97635 -1.39514 0
M  V30 3249 H 289.294 -2.80196 -1.62086 0
M  V30 3250 H 288.201 -3.70566 0.512988 0
M  V30 3251 H 289.534 -4.87817 0.655426 0
M  V30 3252 N 291.186 -0.45159 -1.50991 0
M  V30 3253 C 292.134 0.366864 -2.29689 0
M  V30 3254 C 293.128 1.00809 -1.36139 0
M  V30 3255 O 294.334 0.941427 -1.53418 0
M  V30 3256 H 290.709 0.137133 -0.739391 0
M  V30 3257 H 292.68 -0.317538 -2.96706 0
M  V30 3258 C 291.429 1.44751 -3.16137 0
M  V30 3259 H 290.752 0.963473 -3.88017 0
M  V30 3260 H 292.192 1.99315 -3.74232 0
M  V30 3261 C 290.651 2.43869 -2.32442 0
M  V30 3262 O 291.181 3.4872 -1.99392 0
M  V30 3263 N 289.387 2.15105 -1.95392 0
M  V30 3264 H 288.934 1.29866 -2.22469 0
M  V30 3265 H 288.892 2.81661 -1.39693 0
M  V30 3266 N 292.664 1.56529 -0.183458 0
M  V30 3267 C 293.913 1.96419 0.458511 0
M  V30 3268 C 294.226 1.0727 1.63562 0
M  V30 3269 O 295.432 1.36893 2.34462 0
M  V30 3270 C 293.888 3.49298 0.867122 0
M  V30 3271 C 293.496 4.47092 -0.285057 0
M  V30 3272 C 295.24 3.97983 1.47683 0
M  V30 3273 C 293.147 5.91225 0.143862 0
M  V30 3274 H 292.077 0.733394 0.175071 0
M  V30 3275 H 294.728 1.81448 -0.273624 0
M  V30 3276 H 293.11 3.59731 1.65559 0
M  V30 3277 H 294.284 4.48383 -1.0625 0
M  V30 3278 H 292.599 4.08535 -0.805503 0
M  V30 3279 H 295.196 5.03134 1.80999 0
M  V30 3280 H 295.539 3.41618 2.37914 0
M  V30 3281 H 296.072 3.90617 0.752562 0
M  V30 3282 H 292.811 6.5149 -0.723974 0
M  V30 3283 H 292.331 5.93214 0.886413 0
M  V30 3284 H 294.01 6.44362 0.583628 0
M  V30 3285 N 294.142 -0.090211 1.57342 0
M  V30 3286 C 295.072 -1.10976 2.05443 0
M  V30 3287 C 296.053 -1.41482 0.944284 0
M  V30 3288 O 297.238 -1.51428 1.21586 0
M  V30 3289 C 294.368 -2.42831 2.48295 0
M  V30 3290 C 293.322 -2.26721 3.63018 0
M  V30 3291 C 292.648 -3.63796 3.91863 0
M  V30 3292 C 293.948 -1.7037 4.93732 0
M  V30 3293 H 295.642 -0.709564 2.9087 0
M  V30 3294 H 293.188 -0.339874 1.39932 0
M  V30 3295 H 295.141 -3.14431 2.80555 0
M  V30 3296 H 293.865 -2.84795 1.59873 0
M  V30 3297 H 292.524 -1.57565 3.31012 0
M  V30 3298 H 292.172 -4.03297 3.00601 0
M  V30 3299 H 291.872 -3.53861 4.69101 0
M  V30 3300 H 293.396 -4.36855 4.26603 0
M  V30 3301 H 294.81 -2.31816 5.24342 0
M  V30 3302 H 293.207 -1.71181 5.75167 0
M  V30 3303 H 294.277 -0.663542 4.80339 0
M  V30 3304 N 295.62 -1.53406 -0.361157 0
M  V30 3305 C 296.55 -1.83136 -1.44857 0
M  V30 3306 C 297.531 -0.685174 -1.5569 0
M  V30 3307 O 298.716 -0.93544 -1.70186 0
M  V30 3308 C 295.846 -2.02522 -2.82138 0
M  V30 3309 C 294.8 -3.18302 -2.86126 0
M  V30 3310 C 294.126 -3.22989 -4.26125 0
M  V30 3311 C 295.426 -4.56796 -2.53248 0
M  V30 3312 H 297.12 -2.74201 -1.20226 0
M  V30 3313 H 294.666 -1.31938 -0.576922 0
M  V30 3314 H 296.619 -2.21904 -3.58241 0
M  V30 3315 H 295.343 -1.08172 -3.08166 0
M  V30 3316 H 294.002 -2.98747 -2.12475 0
M  V30 3317 H 293.65 -2.26267 -4.49235 0
M  V30 3318 H 293.35 -4.00781 -4.29708 0
M  V30 3319 H 294.874 -3.44559 -5.04094 0
M  V30 3320 H 296.288 -4.7631 -3.19064 0
M  V30 3321 H 294.685 -5.36862 -2.68141 0
M  V30 3322 H 295.755 -4.61606 -1.48484 0
M  V30 3323 N 297.098 0.621204 -1.44841 0
M  V30 3324 C 298.008 1.7612 -1.5498 0
M  V30 3325 C 299.024 1.68477 -0.434927 0
M  V30 3326 O 300.2 1.89076 -0.693693 0
M  V30 3327 C 297.265 3.1254 -1.50065 0
M  V30 3328 C 296.326 3.31741 -2.72482 0
M  V30 3329 C 295.559 4.61653 -2.67792 0
M  V30 3330 O 295.782 5.431 -1.74352 0
M  V30 3331 O 294.716 4.83271 -3.58794 0
M  V30 3332 H 298.542 1.70518 -2.51311 0
M  V30 3333 H 296.127 0.783643 -1.27198 0
M  V30 3334 H 298.009 3.93844 -1.49882 0
M  V30 3335 H 296.684 3.18663 -0.568806 0
M  V30 3336 H 295.591 2.50077 -2.7823 0
M  V30 3337 H 296.924 3.30486 -3.64746 0
M  V30 3338 N 298.576 1.31904 0.862503 0
M  V30 3339 C 299.804 1.24998 1.64873 0
M  V30 3340 C 300.219 -0.183425 1.87907 0
M  V30 3341 O 299.576 -1.11794 1.44251 0
M  V30 3342 C 299.627 1.99829 3.01248 0
M  V30 3343 O 299.348 3.37575 2.79239 0
M  V30 3344 C 300.849 1.99852 3.95694 0
M  V30 3345 H 298.069 0.431599 0.513773 0
M  V30 3346 H 300.613 1.73901 1.07604 0
M  V30 3347 H 298.768 1.54668 3.55185 0
M  V30 3348 H 299.182 3.75776 3.65914 0
M  V30 3349 H 300.656 2.56709 4.88676 0
M  V30 3350 H 301.133 0.982852 4.28062 0
M  V30 3351 H 301.739 2.44926 3.47694 0
M  V30 3352 N 300.054 -1.07777 1.14986 0
M  V30 3353 C 301.001 -2.14867 0.842672 0
M  V30 3354 C 301.971 -1.6486 -0.202552 0
M  V30 3355 O 303.156 -1.90668 -0.0710568 0
M  V30 3356 C 300.296 -3.43486 0.333363 0
M  V30 3357 C 299.409 -4.07306 1.43965 0
M  V30 3358 C 298.544 -5.23744 0.886914 0
M  V30 3359 C 297.583 -5.79517 1.97043 0
M  V30 3360 N 296.72 -6.87291 1.4344 0
M  V30 3361 H 301.56 -2.40485 1.75986 0
M  V30 3362 H 299.097 -1.1801 0.878179 0
M  V30 3363 H 301.055 -4.17195 0.0198163 0
M  V30 3364 H 299.685 -3.18133 -0.546916 0
M  V30 3365 H 298.737 -3.31293 1.86946 0
M  V30 3366 H 300.049 -4.44771 2.25788 0
M  V30 3367 H 299.203 -6.04419 0.525651 0
M  V30 3368 H 297.942 -4.87685 0.0377957 0
M  V30 3369 H 296.947 -4.97491 2.34057 0
M  V30 3370 H 298.172 -6.17632 2.82325 0
M  V30 3371 H 296.118 -6.5318 0.607567 0
M  V30 3372 H 296.035 -7.23617 2.18895 0
M  V30 3373 H 297.303 -7.71682 1.10124 0
M  V30 3374 N 301.532 -0.945985 -1.26051 0
M  V30 3375 C 302.48 -0.450259 -2.282 0
M  V30 3376 C 303.474 0.47497 -1.62605 0
M  V30 3377 O 304.68 0.352653 -1.76512 0
M  V30 3378 H 301.055 -0.127081 -0.741184 0
M  V30 3379 H 303.026 -1.32422 -2.67408 0
M  V30 3380 C 301.775 0.26467 -3.46691 0
M  V30 3381 H 301.098 -0.438123 -3.97392 0
M  V30 3382 H 302.538 0.575678 -4.20074 0
M  V30 3383 C 300.997 1.48416 -3.02447 0
M  V30 3384 O 301.527 2.58227 -3.07704 0
M  V30 3385 N 299.733 1.34243 -2.57735 0
M  V30 3386 H 299.28 0.448994 -2.53657 0
M  V30 3387 H 299.238 2.15957 -2.28495 0
M  V30 3388 N 303.011 1.40521 -0.713556 0
M  V30 3389 C 303.958 2.30723 -0.059684 0
M  V30 3390 C 304.928 1.48079 0.752448 0
M  V30 3391 O 306.113 1.76823 0.71681 0
M  V30 3392 C 303.253 3.34274 0.857594 0
M  V30 3393 C 302.366 4.31986 0.0351536 0
M  V30 3394 C 301.501 5.22605 0.951724 0
M  V30 3395 C 300.54 6.11976 0.123253 0
M  V30 3396 N 299.677 6.9502 0.99459 0
M  V30 3397 H 304.517 2.86074 -0.834596 0
M  V30 3398 H 302.054 1.40879 -0.42326 0
M  V30 3399 H 304.012 3.92879 1.40364 0
M  V30 3400 H 302.642 2.8043 1.59871 0
M  V30 3401 H 301.694 3.7518 -0.628052 0
M  V30 3402 H 303.006 4.95101 -0.606347 0
M  V30 3403 H 302.16 5.86131 1.56638 0
M  V30 3404 H 300.899 4.59759 1.62705 0
M  V30 3405 H 299.904 5.47482 -0.50435 0
M  V30 3406 H 301.129 6.76881 -0.548539 0
M  V30 3407 H 299.075 6.34764 1.6556 0
M  V30 3408 H 298.992 7.54892 0.40908 0
M  V30 3409 H 300.26 7.62997 1.59549 0
M  V30 3410 N 304.489 0.459591 1.5075 0
M  V30 3411 C 305.399 -0.34613 2.32033 0
M  V30 3412 C 306.415 -1.00686 1.41909 0
M  V30 3413 O 307.591 -0.997361 1.7497 0
M  V30 3414 C 304.656 -1.42029 3.16273 0
M  V30 3415 C 303.717 -0.777362 4.22203 0
M  V30 3416 C 302.95 -1.80034 5.02418 0
M  V30 3417 O 303.173 -3.02544 4.83553 0
M  V30 3418 O 302.107 -1.37853 5.85901 0
M  V30 3419 H 305.933 0.318054 3.0203 0
M  V30 3420 H 303.518 0.221663 1.47746 0
M  V30 3421 H 305.4 -2.04275 3.68578 0
M  V30 3422 H 304.075 -2.06815 2.49016 0
M  V30 3423 H 302.982 -0.116256 3.73919 0
M  V30 3424 H 304.315 -0.172634 4.91897 0
M  V30 3425 N 305.967 -1.56429 0.191757 0
M  V30 3426 C 307.244 -1.89224 -0.495332 0
M  V30 3427 C 307.624 -1.10478 -1.79883 0
M  V30 3428 O 306.972 -0.204852 -2.2758 0
M  V30 3429 C 307.182 -3.41548 -0.717367 0
M  V30 3430 C 308.53 -4.11711 -1.03823 0
M  V30 3431 O 309.554 -3.4698 -0.805204 0
M  V30 3432 O 308.413 -5.2611 -1.47887 0
M  V30 3433 H 305.507 -0.785788 -0.25781 0
M  V30 3434 H 308.053 -1.68111 0.231721 0
M  V30 3435 H 306.825 -3.90772 0.203287 0
M  V30 3436 H 306.448 -3.68342 -1.497 0
M  V30 3437 N 307.445 0.0818655 -1.57387 0
M  V30 3438 C 308.378 1.12986 -1.98266 0
M  V30 3439 C 309.356 1.38123 -0.857954 0
M  V30 3440 O 310.54 1.51663 -1.1194 0
M  V30 3441 C 307.667 2.47632 -2.31076 0
M  V30 3442 C 306.713 2.38693 -3.53452 0
M  V30 3443 S 307.546 1.79071 -5.04672 0
M  V30 3444 C 308.702 3.15316 -5.40673 0
M  V30 3445 H 308.935 0.781435 -2.86846 0
M  V30 3446 H 306.468 0.290034 -1.51651 0
M  V30 3447 H 308.426 3.25089 -2.50654 0
M  V30 3448 H 307.087 2.79638 -1.43043 0
M  V30 3449 H 306.28 3.37964 -3.73893 0
M  V30 3450 H 305.882 1.69369 -3.33452 0
M  V30 3451 H 308.174 4.11613 -5.38127 0
M  V30 3452 H 309.117 2.99664 -6.41566 0
M  V30 3453 H 309.525 3.15457 -4.68132 0
M  V30 3454 N 308.923 1.53595 0.353017 0
M  V30 3455 C 310.172 1.69603 1.09168 0
M  V30 3456 C 310.485 0.460925 1.90092 0
M  V30 3457 O 311.691 0.501774 2.66823 0
M  V30 3458 C 310.147 2.99872 1.9901 0
M  V30 3459 C 309.755 4.30687 1.23339 0
M  V30 3460 C 311.499 3.25246 2.72792 0
M  V30 3461 C 309.406 5.52036 2.12156 0
M  V30 3462 H 308.336 0.631966 0.411261 0
M  V30 3463 H 310.987 1.80096 0.351802 0
M  V30 3464 H 309.369 2.83212 2.7678 0
M  V30 3465 H 310.543 4.58019 0.505456 0
M  V30 3466 H 308.858 4.11853 0.613663 0
M  V30 3467 H 311.455 4.13095 3.39495 0
M  V30 3468 H 311.798 2.41846 3.38846 0
M  V30 3469 H 312.331 3.42638 2.021 0
M  V30 3470 H 309.07 6.37951 1.50659 0
M  V30 3471 H 308.59 5.28966 2.82764 0
M  V30 3472 H 310.269 5.87313 2.71427 0
M  V30 3473 N 310.401 -0.613514 1.45168 0
M  V30 3474 C 311.65 -1.36874 1.4815 0
M  V30 3475 C 311.963 -1.952 0.124982 0
M  V30 3476 O 313.169 -2.71481 0.0324176 0
M  V30 3477 C 311.625 -2.47905 2.60904 0
M  V30 3478 C 311.233 -1.96016 4.02842 0
M  V30 3479 C 312.977 -3.24965 2.73126 0
M  V30 3480 C 310.884 -3.04494 5.06988 0
M  V30 3481 H 309.814 -0.514428 0.551253 0
M  V30 3482 H 312.465 -0.658182 1.7129 0
M  V30 3483 H 310.847 -3.21618 2.31037 0
M  V30 3484 H 312.021 -1.29051 4.4236 0
M  V30 3485 H 310.336 -1.31719 3.95018 0
M  V30 3486 H 312.933 -4.05865 3.48106 0
M  V30 3487 H 313.276 -3.75588 1.79553 0
M  V30 3488 H 313.809 -2.5835 3.0249 0
M  V30 3489 H 310.548 -2.58795 6.0225 0
M  V30 3490 H 310.068 -3.70044 4.72046 0
M  V30 3491 H 311.747 -3.68976 5.31475 0
M  V30 3492 N 311.879 -1.3236 -0.855495 0
M  V30 3493 C 312.826 -1.21225 -1.964 0
M  V30 3494 C 313.796 -0.0946204 -1.6583 0
M  V30 3495 O 314.981 -0.27002 -1.8888 0
M  V30 3496 C 312.121 -0.940419 -3.32039 0
M  V30 3497 C 311.234 -2.14276 -3.75113 0
M  V30 3498 C 310.369 -1.80648 -4.9954 0
M  V30 3499 C 309.408 -2.97208 -5.35102 0
M  V30 3500 N 308.545 -2.63678 -6.50706 0
M  V30 3501 H 313.385 -2.16042 -2.05255 0
M  V30 3502 H 310.922 -1.07451 -1.00463 0
M  V30 3503 H 312.88 -0.763311 -4.10158 0
M  V30 3504 H 311.51 -0.0290413 -3.22787 0
M  V30 3505 H 310.562 -2.43017 -2.92655 0
M  V30 3506 H 311.874 -3.01468 -3.97389 0
M  V30 3507 H 311.028 -1.59484 -5.85363 0
M  V30 3508 H 309.767 -0.906678 -4.79198 0
M  V30 3509 H 308.772 -3.19004 -4.47791 0
M  V30 3510 H 309.997 -3.87918 -5.57401 0
M  V30 3511 H 307.943 -1.76238 -6.31883 0
M  V30 3512 H 307.86 -3.444 -6.72997 0
M  V30 3513 H 309.128 -2.45942 -7.39684 0
M  V30 3514 N 313.357 1.07166 -1.15556 0
M  V30 3515 C 314.606 1.79181 -0.926132 0
M  V30 3516 C 314.919 1.87768 0.547967 0
M  V30 3517 O 316.125 2.56323 0.895036 0
M  V30 3518 C 314.581 3.22 -1.60761 0
M  V30 3519 C 314.189 3.21607 -3.11886 0
M  V30 3520 C 315.933 3.9861 -1.4598 0
M  V30 3521 C 313.84 4.59092 -3.72812 0
M  V30 3522 H 312.77 0.67154 -0.342856 0
M  V30 3523 H 315.421 1.2027 -1.3859 0
M  V30 3524 H 313.803 3.81115 -1.07553 0
M  V30 3525 H 314.977 2.72127 -3.71865 0
M  V30 3526 H 313.292 2.58495 -3.2645 0
M  V30 3527 H 315.889 5.00225 -1.88888 0
M  V30 3528 H 316.232 4.143 -0.407541 0
M  V30 3529 H 316.765 3.45996 -1.96295 0
M  V30 3530 H 313.504 4.48606 -4.77946 0
M  V30 3531 H 313.024 5.08803 -3.17616 0
M  V30 3532 H 314.703 5.28059 -3.73848 0
M  V30 3533 N 314.835 0.952656 1.25548 0
M  V30 3534 C 316.084 0.602053 1.92505 0
M  V30 3535 C 316.397 -0.864663 1.75451 0
M  V30 3536 O 317.603 -1.32514 2.36965 0
M  V30 3537 C 316.059 1.02607 3.44963 0
M  V30 3538 C 315.667 2.51519 3.70732 0
M  V30 3539 C 317.411 0.747905 4.1786 0
M  V30 3540 C 315.318 2.87732 5.16686 0
M  V30 3541 H 314.248 0.22146 0.720744 0
M  V30 3542 H 316.899 1.15684 1.42441 0
M  V30 3543 H 315.281 0.399712 3.93978 0
M  V30 3544 H 316.455 3.19157 3.32378 0
M  V30 3545 H 314.77 2.76786 3.11092 0
M  V30 3546 H 317.367 0.994647 5.25367 0
M  V30 3547 H 317.71 -0.315629 4.15102 0
M  V30 3548 H 318.243 1.33452 3.74747 0
M  V30 3549 H 314.982 3.93095 5.24554 0
M  V30 3550 H 314.502 2.24765 5.56094 0
M  V30 3551 H 316.181 2.76817 5.84792 0
M  V30 3552 N 316.313 -1.40141 0.720998 0
M  V30 3553 C 317.59 -1.94677 0.189757 0
M  V30 3554 C 317.97 -1.65879 -1.30566 0
M  V30 3555 O 317.318 -0.979391 -2.06447 0
M  V30 3556 C 317.528 -3.45279 0.508304 0
M  V30 3557 C 318.876 -4.22209 0.449934 0
M  V30 3558 O 319.9 -3.53413 0.444677 0
M  V30 3559 O 318.759 -5.44788 0.432189 0
M  V30 3560 H 315.853 -0.826459 0.0299026 0
M  V30 3561 H 318.399 -1.49719 0.7989 0
M  V30 3562 H 317.171 -3.59619 1.54239 0
M  V30 3563 H 316.794 -3.97386 -0.130525 0
M  V30 3564 N 317.792 -0.46758 -1.50504 0
M  V30 3565 C 319.039 0.0886219 -2.02306 0
M  V30 3566 C 319.367 1.40037 -1.34981 0
M  V30 3567 O 318.622 1.90136 -0.463318 0
M  V30 3568 C 318.921 0.323995 -3.55928 0
M  V30 3569 C 318.587 -0.905618 -4.41712 0
M  V30 3570 C 317.249 -1.24275 -4.64875 0
M  V30 3571 C 319.601 -1.72448 -4.91845 0
M  V30 3572 C 316.929 -2.39888 -5.35417 0
M  V30 3573 C 319.281 -2.87185 -5.63656 0
M  V30 3574 C 317.945 -3.21317 -5.85074 0
M  V30 3575 H 317.215 0.0324291 -0.74029 0
M  V30 3576 H 319.862 -0.620945 -1.81153 0
M  V30 3577 H 318.167 1.11577 -3.75577 0
M  V30 3578 H 319.864 0.76826 -3.93572 0
M  V30 3579 H 316.454 -0.632956 -4.239 0
M  V30 3580 H 320.638 -1.4772 -4.73806 0
M  V30 3581 H 315.894 -2.66611 -5.50208 0
M  V30 3582 H 320.068 -3.50985 -6.01484 0
M  V30 3583 H 317.695 -4.1101 -6.39511 0
M  V30 3584 N 319.27 1.56325 -0.20005 0
M  V30 3585 C 320.518 1.97329 0.436547 0
M  V30 3586 C 320.839 1.08826 1.61808 0
M  V30 3587 O 320.109 0.160604 1.95241 0
M  V30 3588 H 318.689 0.728714 0.164272 0
M  V30 3589 H 321.351 1.92761 -0.287937 0
M  V30 3590 H 320.447 3.02264 0.777353 0
M  V30 3591 N 320.748 -0.0735177 1.57428 0
M  V30 3592 C 321.678 -1.0879 2.06608 0
M  V30 3593 C 322.659 -1.40473 0.959237 0
M  V30 3594 O 323.844 -1.5013 1.23185 0
M  V30 3595 C 320.974 -2.40183 2.50857 0
M  V30 3596 C 319.928 -2.22858 3.65402 0
M  V30 3597 C 319.254 -3.59619 3.957 0
M  V30 3598 C 320.554 -1.65123 4.95511 0
M  V30 3599 H 322.248 -0.678673 2.91607 0
M  V30 3600 H 319.794 -0.325013 1.40284 0
M  V30 3601 H 321.747 -3.11437 2.83874 0
M  V30 3602 H 320.471 -2.83083 1.62885 0
M  V30 3603 H 319.13 -1.54045 3.32664 0
M  V30 3604 H 318.778 -4.00086 3.04861 0
M  V30 3605 H 318.478 -3.48866 4.72828 0
M  V30 3606 H 320.002 -4.32306 4.31212 0
M  V30 3607 H 321.416 -2.26241 5.26771 0
M  V30 3608 H 319.813 -1.65071 5.7695 0
M  V30 3609 H 320.883 -0.612559 4.81015 0
M  V30 3610 N 322.226 -1.5378 -0.344866 0
M  V30 3611 C 323.451 -1.75211 -1.10977 0
M  V30 3612 C 323.876 -0.48936 -1.81623 0
M  V30 3613 O 323.234 0.557925 -1.72502 0
M  V30 3614 C 323.282 -2.93147 -2.09993 0
M  V30 3615 O 322.386 -2.63203 -3.17487 0
M  V30 3616 H 321.727 -0.581241 -0.321021 0
M  V30 3617 H 324.257 -2.00738 -0.395661 0
M  V30 3618 H 324.267 -3.19898 -2.53237 0
M  V30 3619 H 322.942 -3.84731 -1.5797 0
M  V30 3620 H 321.519 -2.47336 -2.79069 0
M  V30 3621 N 323.704 0.605807 -1.45491 0
M  V30 3622 C 324.932 1.39136 -1.5313 0
M  V30 3623 C 325.347 1.88082 -0.164507 0
M  V30 3624 O 324.704 1.62316 0.834247 0
M  V30 3625 C 324.755 2.59463 -2.51716 0
M  V30 3626 O 324.476 2.12551 -3.83084 0
M  V30 3627 C 325.977 3.52301 -2.6907 0
M  V30 3628 H 323.197 0.425849 -0.51855 0
M  V30 3629 H 325.741 0.73865 -1.90694 0
M  V30 3630 H 323.896 3.20772 -2.17219 0
M  V30 3631 H 324.31 2.90744 -4.36541 0
M  V30 3632 H 325.784 4.33271 -3.42024 0
M  V30 3633 H 326.261 4.02757 -1.75167 0
M  V30 3634 H 326.867 2.96845 -3.04571 0
M  V30 3635 N 325.182 1.32811 0.848464 0
M  V30 3636 C 326.132 1.18842 1.94578 0
M  V30 3637 C 327.116 0.0937517 1.60627 0
M  V30 3638 O 328.308 0.320887 1.74067 0
M  V30 3639 C 325.437 0.91999 3.30743 0
M  V30 3640 C 324.523 2.05665 3.70894 0
M  V30 3641 N 324.914 3.30579 3.8282 0
M  V30 3642 C 323.212 1.9612 4.00566 0
M  V30 3643 C 323.913 4.05067 4.17487 0
M  V30 3644 N 322.889 3.33419 4.2934 0
M  V30 3645 H 326.691 2.13536 2.0194 0
M  V30 3646 H 324.205 1.2468 1.0406 0
M  V30 3647 H 326.202 0.800859 4.09136 0
M  V30 3648 H 324.862 -0.0185076 3.24695 0
M  V30 3649 H 325.873 3.65441 3.66978 0
M  V30 3650 H 322.55 1.09871 4.02784 0
M  V30 3651 H 323.94 5.12815 4.34131 0
M  V30 3652 N 326.66 -1.06551 1.16123 0
M  V30 3653 C 327.907 -1.79302 0.941126 0
M  V30 3654 C 328.235 -1.87105 -0.531235 0
M  V30 3655 O 327.49 -1.35692 -1.41018 0
M  V30 3656 C 327.789 -3.23911 1.51052 0
M  V30 3657 C 327.455 -3.36193 3.00475 0
M  V30 3658 C 326.117 -3.39252 3.41265 0
M  V30 3659 C 328.469 -3.38326 3.96465 0
M  V30 3660 C 325.797 -3.42057 4.76669 0
M  V30 3661 C 328.149 -3.4267 5.31752 0
M  V30 3662 C 326.813 -3.4401 5.72026 0
M  V30 3663 H 326.083 -0.656111 0.344382 0
M  V30 3664 H 328.73 -1.25325 1.44796 0
M  V30 3665 H 327.035 -3.80723 0.925063 0
M  V30 3666 H 328.732 -3.78793 1.31593 0
M  V30 3667 H 325.322 -3.34516 2.6795 0
M  V30 3668 H 329.506 -3.35176 3.6602 0
M  V30 3669 H 324.762 -3.41398 5.07206 0
M  V30 3670 H 328.936 -3.43268 6.05921 0
M  V30 3671 H 326.563 -3.45937 6.76928 0
M  V30 3672 N 328.138 -0.959301 -1.25041 0
M  V30 3673 C 329.048 -0.489994 -2.29426 0
M  V30 3674 C 330.064 0.444944 -1.68215 0
M  V30 3675 O 331.24 0.320046 -1.98841 0
M  V30 3676 C 328.305 0.220309 -3.45999 0
M  V30 3677 C 327.366 -0.753418 -4.22637 0
M  V30 3678 C 326.599 -0.076918 -5.33645 0
M  V30 3679 O 326.822 1.13649 -5.58963 0
M  V30 3680 O 325.756 -0.764824 -5.97021 0
M  V30 3681 H 329.582 -1.35755 -2.71669 0
M  V30 3682 H 327.167 -0.725961 -1.30576 0
M  V30 3683 H 329.049 0.619677 -4.16819 0
M  V30 3684 H 327.724 1.06296 -3.0575 0
M  V30 3685 H 326.631 -1.20308 -3.54227 0
M  V30 3686 H 327.964 -1.56423 -4.66683 0
M  V30 3687 N 329.616 1.39756 -0.72842 0
M  V30 3688 C 330.846 2.04651 -0.283117 0
M  V30 3689 C 331.254 1.5502 1.08469 0
M  V30 3690 O 330.597 0.707343 1.69536 0
M  V30 3691 C 330.659 3.58947 -0.199309 0
M  V30 3692 C 330.323 4.31525 -1.5045 0
M  V30 3693 C 331.32 4.5861 -2.44894 0
M  V30 3694 C 329.005 4.70195 -1.76698 0
M  V30 3695 C 330.999 5.23366 -3.63822 0
M  V30 3696 C 328.686 5.3468 -2.95906 0
M  V30 3697 C 329.684 5.61198 -3.89289 0
M  V30 3698 O 329.372 6.24347 -5.06404 0
M  V30 3699 H 329.104 0.664777 -0.122666 0
M  V30 3700 H 331.658 1.79913 -0.990987 0
M  V30 3701 H 329.888 3.82556 0.56461 0
M  V30 3702 H 331.577 4.0534 0.213125 0
M  V30 3703 H 332.343 4.29187 -2.25883 0
M  V30 3704 H 328.222 4.48916 -1.04859 0
M  V30 3705 H 331.766 5.4398 -4.36728 0
M  V30 3706 H 327.663 5.63524 -3.14819 0
M  V30 3707 H 328.431 6.42842 -5.06652 0
M  V30 3708 N 331.094 0.475555 1.50254 0
M  V30 3709 C 332.319 -0.0777042 2.07254 0
M  V30 3710 C 332.744 -1.3235 1.3366 0
M  V30 3711 O 332.102 -1.77152 0.385597 0
M  V30 3712 C 332.15 -0.340169 3.58992 0
M  V30 3713 O 331.254 -1.41982 3.87188 0
M  V30 3714 H 330.595 0.0149556 0.663832 0
M  V30 3715 H 333.125 0.667878 1.93392 0
M  V30 3716 H 333.135 -0.579332 4.03866 0
M  V30 3717 H 331.81 0.570167 4.11973 0
M  V30 3718 H 330.387 -1.16762 3.54148 0
M  V30 3719 N 332.573 -1.56217 0.208337 0
M  V30 3720 C 333.52 -2.19699 -0.707192 0
M  V30 3721 C 334.49 -1.14836 -1.20008 0
M  V30 3722 O 335.675 -1.4314 -1.26157 0
M  V30 3723 C 332.815 -2.87061 -1.91546 0
M  V30 3724 C 331.928 -4.06483 -1.46271 0
M  V30 3725 C 331.063 -4.61665 -2.62752 0
M  V30 3726 C 330.102 -5.73417 -2.14147 0
M  V30 3727 N 329.239 -6.22948 -3.23853 0
M  V30 3728 H 334.079 -2.97575 -0.159111 0
M  V30 3729 H 331.616 -1.46948 -0.0667874 0
M  V30 3730 H 333.574 -3.24294 -2.62468 0
M  V30 3731 H 332.204 -2.11725 -2.43664 0
M  V30 3732 H 331.256 -3.74825 -0.648886 0
M  V30 3733 H 332.568 -4.87271 -1.06622 0
M  V30 3734 H 331.722 -5.01272 -3.41776 0
M  V30 3735 H 330.461 -3.80013 -3.05682 0
M  V30 3736 H 329.466 -5.33326 -1.33581 0
M  V30 3737 H 330.691 -6.56897 -1.72232 0
M  V30 3738 H 328.637 -5.44213 -3.6629 0
M  V30 3739 H 328.554 -6.98823 -2.88414 0
M  V30 3740 H 329.822 -6.6721 -4.03052 0
M  V30 3741 N 334.051 0.0651679 -1.57465 0
M  V30 3742 C 334.998 1.07675 -2.04144 0
M  V30 3743 C 335.968 1.38071 -0.923335 0
M  V30 3744 O 337.153 1.49026 -1.19146 0
M  V30 3745 C 334.293 2.38337 -2.49579 0
M  V30 3746 C 333.406 2.14413 -3.75035 0
M  V30 3747 C 332.541 3.38686 -4.09225 0
M  V30 3748 C 331.58 3.10156 -5.27702 0
M  V30 3749 N 330.717 4.26778 -5.57499 0
M  V30 3750 H 335.557 0.671716 -2.90331 0
M  V30 3751 H 333.094 0.3201 -1.43575 0
M  V30 3752 H 335.052 3.14632 -2.73975 0
M  V30 3753 H 333.682 2.7663 -1.6636 0
M  V30 3754 H 332.734 1.2878 -3.57939 0
M  V30 3755 H 334.046 1.89344 -4.61466 0
M  V30 3756 H 333.2 4.23373 -4.34558 0
M  V30 3757 H 331.939 3.66837 -3.21374 0
M  V30 3758 H 330.944 2.23866 -5.02159 0
M  V30 3759 H 332.169 2.8332 -6.17176 0
M  V30 3760 H 330.115 4.54948 -4.72608 0
M  V30 3761 H 330.032 4.05005 -6.38362 0
M  V30 3762 H 331.3 5.12443 -5.87386 0
M  V30 3763 N 335.529 1.53961 0.336706 0
M  V30 3764 C 336.462 1.77255 1.43722 0
M  V30 3765 C 337.44 0.62193 1.50236 0
M  V30 3766 O 338.624 0.857874 1.67847 0
M  V30 3767 C 335.751 1.87733 2.81912 0
M  V30 3768 C 334.797 3.09933 2.92991 0
M  V30 3769 S 335.63 4.68836 2.58753 0
M  V30 3770 C 336.786 4.82202 3.99039 0
M  V30 3771 H 337.019 2.70322 1.23748 0
M  V30 3772 H 334.552 1.44917 0.532777 0
M  V30 3773 H 336.51 1.94455 3.61521 0
M  V30 3774 H 335.171 0.956666 2.99177 0
M  V30 3775 H 334.364 3.1396 3.94265 0
M  V30 3776 H 333.966 3.01472 2.21338 0
M  V30 3777 H 336.258 4.64032 4.9364 0
M  V30 3778 H 337.201 5.84298 4.00002 0
M  V30 3779 H 337.609 4.10604 3.87382 0
M  V30 3780 N 337.007 -0.598083 1.45811 0
M  V30 3781 C 337.954 -1.7082 1.55207 0
M  V30 3782 C 338.924 -1.61278 0.39732 0
M  V30 3783 O 340.109 -1.80717 0.612038 0
M  V30 3784 C 337.249 -3.09144 1.53376 0
M  V30 3785 C 336.362 -3.29423 2.79472 0
M  V30 3786 C 335.497 -4.57907 2.69248 0
M  V30 3787 C 334.536 -4.71476 3.90354 0
M  V30 3788 N 333.673 -5.9127 3.78608 0
M  V30 3789 H 338.513 -1.62125 2.50039 0
M  V30 3790 H 336.05 -0.790389 1.24062 0
M  V30 3791 H 338.008 -3.89186 1.50301 0
M  V30 3792 H 336.638 -3.16773 0.620876 0
M  V30 3793 H 335.69 -2.43091 2.92594 0
M  V30 3794 H 337.002 -3.3532 3.69272 0
M  V30 3795 H 336.156 -5.46157 2.64192 0
M  V30 3796 H 334.895 -4.54423 1.77063 0
M  V30 3797 H 333.9 -3.81648 3.95759 0
M  V30 3798 H 335.125 -4.76751 4.83617 0
M  V30 3799 H 333.071 -5.88813 2.89199 0
M  V30 3800 H 332.988 -5.98369 4.6205 0
M  V30 3801 H 334.256 -6.81992 3.77501 0
M  V30 3802 N 338.485 -1.33259 -0.841409 0
M  V30 3803 C 339.762 -1.15174 -1.58096 0
M  V30 3804 C 340.142 0.282858 -2.09196 0
M  V30 3805 O 339.49 1.28151 -1.89181 0
M  V30 3806 C 339.7 -2.1907 -2.71679 0
M  V30 3807 C 341.048 -2.53093 -3.40924 0
M  V30 3808 O 342.072 -2.17717 -2.81918 0
M  V30 3809 O 340.931 -3.1379 -4.47435 0
M  V30 3810 H 338.025 -0.445303 -0.696875 0
M  V30 3811 H 340.571 -1.44833 -0.884385 0
M  V30 3812 H 339.343 -3.15443 -2.31541 0
M  V30 3813 H 338.966 -1.90481 -3.49002 0
M  V30 3814 N 339.963 1.05934 -1.16686 0
M  V30 3815 C 340.91 2.13499 -0.876748 0
M  V30 3816 C 341.88 1.65162 0.176299 0
M  V30 3817 O 343.065 1.90757 0.0407143 0
M  V30 3818 C 340.205 3.42912 -0.387967 0
M  V30 3819 C 339.318 4.04964 -1.50426 0
M  V30 3820 C 338.453 5.22266 -0.970125 0
M  V30 3821 C 337.492 5.76309 -2.06238 0
M  V30 3822 N 336.629 6.84922 -1.54356 0
M  V30 3823 H 341.469 2.37654 -1.7979 0
M  V30 3824 H 339.006 1.16598 -0.896843 0
M  V30 3825 H 340.964 4.17111 -0.086186 0
M  V30 3826 H 339.594 3.18963 0.496235 0
M  V30 3827 H 338.646 3.28277 -1.92193 0
M  V30 3828 H 339.958 4.41122 -2.32836 0
M  V30 3829 H 339.112 6.03506 -0.621743 0
M  V30 3830 H 337.851 4.87564 -0.115377 0
M  V30 3831 H 336.856 4.93704 -2.41942 0
M  V30 3832 H 338.081 6.13062 -2.92115 0
M  V30 3833 H 336.027 6.52131 -0.711406 0
M  V30 3834 H 335.944 7.20043 -2.30379 0
M  V30 3835 H 337.212 7.69832 -1.22387 0
M  V30 3836 N 341.441 0.965919 1.2453 0
M  V30 3837 C 342.69 0.622437 1.91856 0
M  V30 3838 C 343.003 -0.846006 1.76358 0
M  V30 3839 O 344.209 -1.29993 2.38357 0
M  V30 3840 C 342.665 1.0626 3.43856 0
M  V30 3841 C 342.273 2.55437 3.68043 0
M  V30 3842 C 344.017 0.792183 4.17043 0
M  V30 3843 C 341.924 2.93196 5.13605 0
M  V30 3844 H 340.854 0.229092 0.718354 0
M  V30 3845 H 343.505 1.17189 1.41206 0
M  V30 3846 H 341.887 0.441476 3.93531 0
M  V30 3847 H 343.061 3.22665 3.28974 0
M  V30 3848 H 341.376 2.8007 3.08139 0
M  V30 3849 H 343.973 1.05031 5.24283 0
M  V30 3850 H 344.316 -0.271584 4.15413 0
M  V30 3851 H 344.849 1.37419 3.73311 0
M  V30 3852 H 341.588 3.98636 5.20355 0
M  V30 3853 H 341.108 2.30651 5.53679 0
M  V30 3854 H 342.787 2.83004 5.81823 0
M  V30 3855 N 342.919 -1.39368 0.735821 0
M  V30 3856 C 344.167 -2.00101 0.283562 0
M  V30 3857 C 344.488 -1.5868 -1.13338 0
M  V30 3858 O 343.758 -0.835423 -1.77193 0
M  V30 3859 H 342.338 -0.740024 0.101851 0
M  V30 3860 H 345 -1.70404 0.945962 0
M  V30 3861 H 344.096 -3.10323 0.332604 0
M  V30 3862 N 344.397 -0.483516 -1.5 0
M  V30 3863 C 345.625 0.0644831 -2.06799 0
M  V30 3864 C 346.04 1.32399 -1.34596 0
M  V30 3865 O 345.397 1.77626 -0.418946 0
M  V30 3866 C 345.448 0.339927 -3.59898 0
M  V30 3867 O 345.169 -0.869635 -4.29382 0
M  V30 3868 C 346.67 0.933515 -4.33359 0
M  V30 3869 H 343.89 -0.0126333 -0.670881 0
M  V30 3870 H 346.434 -0.675864 -1.93009 0
M  V30 3871 H 344.589 1.03022 -3.7345 0
M  V30 3872 H 345.003 -0.62179 -5.20801 0
M  V30 3873 H 346.477 1.07593 -5.41413 0
M  V30 3874 H 346.954 1.92685 -3.94676 0
M  V30 3875 H 347.56 0.281221 -4.24369 0
M  V30 3876 N 345.875 1.56104 -0.216619 0
M  V30 3877 C 346.838 2.18819 0.681962 0
M  V30 3878 C 347.838 1.14866 1.12528 0
M  V30 3879 O 349.028 1.40128 1.03488 0
M  V30 3880 C 346.16 2.80756 1.93362 0
M  V30 3881 H 347.353 2.99595 0.135254 0
M  V30 3882 H 344.906 1.56265 0.0330003 0
M  V30 3883 H 345.641 2.03837 2.52232 0
M  V30 3884 H 345.426 3.56876 1.62426 0
M  V30 3885 H 346.916 3.28844 2.57393 0
M  V30 3886 N 347.353 -0.0568162 1.57498 0
M  V30 3887 C 348.583 -0.764515 1.91934 0
M  V30 3888 C 348.991 -1.70877 0.81227 0
M  V30 3889 O 348.334 -1.82351 -0.222213 0
M  V30 3890 C 348.396 -1.5994 3.21962 0
M  V30 3891 C 348.06 -0.822925 4.4953 0
M  V30 3892 C 349.057 -0.135464 5.19723 0
M  V30 3893 C 346.742 -0.785666 4.96117 0
M  V30 3894 C 348.736 0.578861 6.34766 0
M  V30 3895 C 346.423 -0.0675784 6.11063 0
M  V30 3896 C 347.421 0.613471 6.80239 0
M  V30 3897 O 347.109 1.31996 7.92989 0
M  V30 3898 H 346.841 -0.221647 0.63863 0
M  V30 3899 H 349.395 -0.0268218 2.05382 0
M  V30 3900 H 347.625 -2.38026 3.04763 0
M  V30 3901 H 349.314 -2.18715 3.41934 0
M  V30 3902 H 350.08 -0.155458 4.84751 0
M  V30 3903 H 345.959 -1.30524 4.42136 0
M  V30 3904 H 349.503 1.111 6.88696 0
M  V30 3905 H 345.4 -0.0455636 6.45484 0
M  V30 3906 H 346.168 1.23077 8.09194 0
M  V30 3907 N 348.832 -1.54138 -0.328536 0
M  V30 3908 C 350.062 -1.75807 -1.08516 0
M  V30 3909 C 350.47 -0.50428 -1.82356 0
M  V30 3910 O 349.813 0.534451 -1.75754 0
M  V30 3911 C 349.875 -2.89423 -2.13248 0
M  V30 3912 C 349.539 -4.28504 -1.5885 0
M  V30 3913 C 350.536 -5.09536 -1.03289 0
M  V30 3914 C 348.221 -4.75034 -1.63243 0
M  V30 3915 C 350.215 -6.35206 -0.52845 0
M  V30 3916 C 347.902 -6.00672 -1.12411 0
M  V30 3917 C 348.9 -6.80592 -0.573062 0
M  V30 3918 O 348.588 -8.03867 -0.0723692 0
M  V30 3919 H 348.32 -0.590633 -0.328829 0
M  V30 3920 H 350.874 -2.01819 -0.381868 0
M  V30 3921 H 349.104 -2.5897 -2.87178 0
M  V30 3922 H 350.793 -2.98921 -2.74592 0
M  V30 3923 H 351.559 -4.74745 -0.99206 0
M  V30 3924 H 347.438 -4.12875 -2.05074 0
M  V30 3925 H 350.982 -6.97532 -0.0976774 0
M  V30 3926 H 346.879 -6.34955 -1.162 0
M  V30 3927 H 347.647 -8.18283 -0.188258 0
M  V30 3928 N 350.31 0.590341 -1.46126 0
M  V30 3929 C 351.559 1.34499 -1.50309 0
M  V30 3930 C 351.872 1.94977 -0.156021 0
M  V30 3931 O 353.078 2.71395 -0.0756037 0
M  V30 3932 C 351.534 2.43723 -2.64815 0
M  V30 3933 C 351.142 1.89582 -4.0591 0
M  V30 3934 C 352.886 3.20579 -2.78262 0
M  V30 3935 C 350.793 2.9639 -5.11769 0
M  V30 3936 H 349.723 0.505593 -0.559368 0
M  V30 3937 H 352.374 0.630848 -1.72315 0
M  V30 3938 H 350.756 3.17902 -2.36124 0
M  V30 3939 H 351.93 1.21997 -4.44357 0
M  V30 3940 H 350.245 1.25418 -3.97063 0
M  V30 3941 H 352.842 4.00276 -3.54519 0
M  V30 3942 H 353.185 3.72684 -1.85505 0
M  V30 3943 H 353.718 2.53505 -3.06562 0
M  V30 3944 H 350.457 2.49181 -6.06291 0
M  V30 3945 H 349.977 3.62487 -4.77873 0
M  V30 3946 H 351.656 3.60474 -5.37278 0
M  V30 3947 N 351.788 1.33704 0.83433 0
M  V30 3948 C 352.751 1.24244 1.92603 0
M  V30 3949 C 353.751 0.160383 1.59998 0
M  V30 3950 O 354.941 0.412228 1.69252 0
M  V30 3951 C 352.073 0.91555 3.28376 0
M  V30 3952 H 353.266 2.21287 2.02416 0
M  V30 3953 H 350.819 1.17827 1.02696 0
M  V30 3954 H 351.554 -0.0521886 3.24258 0
M  V30 3955 H 351.339 1.69811 3.53422 0
M  V30 3956 H 352.829 0.874231 4.08347 0
M  V30 3957 N 353.266 -1.05314 1.17247 0
M  V30 3958 C 354.677 -1.59753 0.96623 0
M  V30 3959 C 355.028 -1.9005 -0.487378 0
M  V30 3960 O 354.153 -1.68126 -1.36245 0
M  V30 3961 C 354.748 -2.90249 1.74759 0
M  V30 3962 C 353.307 -3.41352 1.58606 0
M  V30 3963 C 352.454 -2.15103 1.75002 0
M  V30 3964 H 355.405 -0.881406 1.31973 0
M  V30 3965 H 355.426 -3.60097 1.22925 0
M  V30 3966 H 354.938 -2.68166 2.8055 0
M  V30 3967 H 353.039 -3.68474 0.552985 0
M  V30 3968 H 353.152 -4.16019 2.37624 0
M  V30 3969 H 351.516 -2.25804 1.17833 0
M  V30 3970 H 352.299 -1.95491 2.82202 0
M  V30 3971 N 354.744 -0.972509 -1.24016 0
M  V30 3972 C 356.021 -0.553733 -1.87598 0
M  V30 3973 C 356.401 0.969158 -1.87538 0
M  V30 3974 O 355.749 1.84255 -1.35139 0
M  V30 3975 C 355.959 -1.15076 -3.29482 0
M  V30 3976 C 357.307 -1.23862 -4.06132 0
M  V30 3977 O 358.331 -1.10363 -3.38672 0
M  V30 3978 O 357.19 -1.45252 -5.26844 0
M  V30 3979 H 354.284 -0.185331 -0.805966 0
M  V30 3980 H 356.83 -1.06709 -1.31952 0
M  V30 3981 H 355.602 -2.19333 -3.2405 0
M  V30 3982 H 355.225 -0.621746 -3.92709 0
M  V30 3983 N 356.222 1.38976 -0.743202 0
M  V30 3984 C 357.468 2.0064 -0.295189 0
M  V30 3985 C 357.801 1.5885 1.11716 0
M  V30 3986 O 357.076 0.821181 1.76315 0
M  V30 3987 C 357.359 3.578 -0.406318 0
M  V30 3988 C 357.212 4.09586 -1.85903 0
M  V30 3989 C 358.531 4.39616 0.206439 0
M  V30 3990 H 355.65 0.728935 -0.108733 0
M  V30 3991 H 358.292 1.65067 -0.940897 0
M  V30 3992 H 356.442 3.88235 0.143419 0
M  V30 3993 H 358.114 3.89837 -2.46627 0
M  V30 3994 H 356.357 3.6284 -2.3776 0
M  V30 3995 H 357.028 5.18708 -1.888 0
M  V30 3996 H 359.504 4.15273 -0.262283 0
M  V30 3997 H 358.38 5.48812 0.0983819 0
M  V30 3998 H 358.641 4.22754 1.2935 0
M  V30 3999 N 357.7 0.491464 1.49741 0
M  V30 4000 C 358.63 -0.28154 2.31796 0
M  V30 4001 C 359.611 -0.971473 1.3963 0
M  V30 4002 O 360.796 -0.964719 1.68543 0
M  V30 4003 C 357.926 -1.35203 3.19902 0
M  V30 4004 C 356.88 -0.782529 4.20786 0
M  V30 4005 C 356.206 -1.95283 4.97764 0
M  V30 4006 C 357.506 0.21999 5.21837 0
M  V30 4007 H 359.2 0.403355 2.96671 0
M  V30 4008 H 356.746 0.195425 1.42668 0
M  V30 4009 H 358.699 -1.90045 3.76113 0
M  V30 4010 H 357.423 -2.06598 2.52953 0
M  V30 4011 H 356.082 -0.255928 3.65706 0
M  V30 4012 H 355.73 -2.65423 4.2727 0
M  V30 4013 H 355.43 -1.57789 5.66018 0
M  V30 4014 H 356.954 -2.50577 5.56816 0
M  V30 4015 H 358.368 -0.23996 5.72798 0
M  V30 4016 H 356.765 0.51026 5.97927 0
M  V30 4017 H 357.835 1.13911 4.7133 0
M  V30 4018 N 359.178 -1.55987 0.224894 0
M  V30 4019 C 360.128 -2.17076 -0.697296 0
M  V30 4020 C 361.112 -1.12006 -1.15514 0
M  V30 4021 O 362.304 -1.37985 -1.10857 0
M  V30 4022 C 359.433 -2.85679 -1.90374 0
M  V30 4023 C 358.519 -3.97977 -1.46543 0
M  V30 4024 N 358.91 -5.00359 -0.739909 0
M  V30 4025 C 357.208 -4.10128 -1.75245 0
M  V30 4026 C 357.909 -5.79407 -0.515939 0
M  V30 4027 N 356.885 -5.32892 -1.07364 0
M  V30 4028 H 360.687 -2.93592 -0.134594 0
M  V30 4029 H 358.201 -1.62379 0.0262885 0
M  V30 4030 H 360.198 -3.27857 -2.57518 0
M  V30 4031 H 358.858 -2.1066 -2.47088 0
M  V30 4032 H 359.869 -5.16412 -0.392253 0
M  V30 4033 H 356.546 -3.46263 -2.33255 0
M  V30 4034 H 357.936 -6.71872 0.0617349 0
M  V30 4035 N 360.656 0.0484629 -1.57525 0
M  V30 4036 C 361.904 0.741657 -1.88 0
M  V30 4037 C 362.225 1.76918 -0.820054 0
M  V30 4038 O 361.495 1.95335 0.148661 0
M  V30 4039 H 360.075 0.276908 -0.69378 0
M  V30 4040 H 362.737 0.019013 -1.94891 0
M  V30 4041 H 361.833 1.24336 -2.86264 0
M  V30 4042 N 362.134 1.5431 0.320358 0
M  V30 4043 C 363.362 1.76636 1.07738 0
M  V30 4044 C 363.777 0.51649 1.81598 0
M  V30 4045 O 363.134 -0.512942 1.75143 0
M  V30 4046 C 363.185 2.96158 2.07299 0
M  V30 4047 O 362.906 4.16313 1.36438 0
M  V30 4048 C 364.407 3.3072 2.95193 0
M  V30 4049 H 361.627 0.589597 0.320339 0
M  V30 4050 H 364.171 2.01207 0.36551 0
M  V30 4051 H 362.326 2.73851 2.74016 0
M  V30 4052 H 362.74 4.83565 2.03138 0
M  V30 4053 H 364.214 4.17643 3.60941 0
M  V30 4054 H 364.691 2.48026 3.62463 0
M  V30 4055 H 365.297 3.55117 2.34034 0
M  V30 4056 N 363.613 -0.582584 1.46437 0
M  V30 4057 C 364.843 -1.36484 1.55099 0
M  V30 4058 C 365.251 -1.88233 0.191056 0
M  V30 4059 O 364.594 -1.6429 -0.821858 0
M  V30 4060 C 364.656 -2.588 2.49525 0
M  V30 4061 C 364.32 -2.28517 3.95764 0
M  V30 4062 C 365.317 -1.87346 4.84972 0
M  V30 4063 C 363.002 -2.40658 4.40896 0
M  V30 4064 C 364.996 -1.5871 6.17325 0
M  V30 4065 C 362.683 -2.11635 5.73284 0
M  V30 4066 C 363.681 -1.70725 6.61318 0
M  V30 4067 O 363.369 -1.42057 7.91249 0
M  V30 4068 H 363.101 -0.423297 0.527063 0
M  V30 4069 H 365.655 -0.715188 1.92547 0
M  V30 4070 H 363.885 -3.26571 2.07095 0
M  V30 4071 H 365.574 -3.20868 2.48593 0
M  V30 4072 H 366.34 -1.77481 4.5136 0
M  V30 4073 H 362.219 -2.71463 3.72598 0
M  V30 4074 H 365.763 -1.26704 6.85997 0
M  V30 4075 H 361.66 -2.21124 6.06444 0
M  V30 4076 H 362.428 -1.55901 8.03515 0
M  V30 4077 N 365.091 -1.34144 -0.827227 0
M  V30 4078 C 366.368 -1.16844 -1.56865 0
M  V30 4079 C 366.748 0.260654 -2.09485 0
M  V30 4080 O 366.096 1.26138 -1.9053 0
M  V30 4081 C 366.306 -2.21939 -2.6934 0
M  V30 4082 C 367.654 -2.56695 -3.3822 0
M  V30 4083 O 368.678 -2.20695 -2.79593 0
M  V30 4084 O 367.537 -3.18518 -4.44082 0
M  V30 4085 H 364.631 -0.452669 -0.692112 0
M  V30 4086 H 367.177 -1.45763 -0.868973 0
M  V30 4087 H 365.949 -3.17882 -2.28182 0
M  V30 4088 H 365.572 -1.94172 -3.46962 0
M  V30 4089 N 366.569 1.04691 -1.17803 0
M  V30 4090 C 367.479 2.16057 -0.914151 0
M  V30 4091 C 368.495 1.73589 0.119503 0
M  V30 4092 O 369.671 2.01308 -0.0609468 0
M  V30 4093 C 366.736 3.4394 -0.436603 0
M  V30 4094 C 365.797 4.00825 -1.53746 0
M  V30 4095 C 365.03 5.22604 -1.0826 0
M  V30 4096 O 365.253 5.70367 0.0612244 0
M  V30 4097 O 364.187 5.7186 -1.87775 0
M  V30 4098 H 368.013 2.41169 -1.84584 0
M  V30 4099 H 365.598 1.1453 -0.959334 0
M  V30 4100 H 367.48 4.21024 -0.178057 0
M  V30 4101 H 366.155 3.20316 0.466869 0
M  V30 4102 H 365.062 3.25158 -1.84995 0
M  V30 4103 H 366.395 4.28778 -2.41683 0
M  V30 4104 N 368.047 0.979072 1.23499 0
M  V30 4105 C 368.994 0.517904 2.24914 0
M  V30 4106 C 369.964 -0.442525 1.60097 0
M  V30 4107 O 371.149 -0.350365 1.87556 0
M  V30 4108 C 368.289 -0.174813 3.44657 0
M  V30 4109 C 367.402 0.825721 4.24035 0
M  V30 4110 C 366.537 0.107946 5.3109 0
M  V30 4111 C 365.576 1.09778 6.02175 0
M  V30 4112 N 364.713 0.40925 7.00906 0
M  V30 4113 H 369.553 1.38751 2.63727 0
M  V30 4114 H 367.09 0.695303 1.2963 0
M  V30 4115 H 369.048 -0.593233 4.12961 0
M  V30 4116 H 367.678 -1.0083 3.06648 0
M  V30 4117 H 366.73 1.36253 3.55161 0
M  V30 4118 H 368.042 1.58005 4.73113 0
M  V30 4119 H 367.196 -0.367904 6.05583 0
M  V30 4120 H 365.935 -0.678994 4.8295 0
M  V30 4121 H 364.94 1.5844 5.26476 0
M  V30 4122 H 366.165 1.88536 6.52404 0
M  V30 4123 H 364.111 -0.358506 6.5502 0
M  V30 4124 H 364.028 1.10226 7.47921 0
M  V30 4125 H 365.296 -0.0442557 7.79487 0
M  V30 4126 N 369.525 -1.3858 0.750561 0
M  V30 4127 C 370.765 -2.02032 0.310258 0
M  V30 4128 C 371.129 -1.58288 -1.08668 0
M  V30 4129 O 372.33 -2.14049 -1.62593 0
M  V30 4130 C 370.601 -3.54856 0.425647 0
M  V30 4131 S 372.16 -4.38748 0.0674797 0
M  V30 4132 H 368.978 -0.700705 0.120554 0
M  V30 4133 H 371.58 -1.69134 0.980512 0
M  V30 4134 H 370.284 -3.84182 1.44335 0
M  V30 4135 H 369.815 -3.92527 -0.261894 0
M  V30 4136 H 371.83 -4.82835 -1.14388 0
M  V30 4137 N 371.003 -0.499398 -1.49478 0
M  V30 4138 C 372.28 0.108629 -1.95298 0
M  V30 4139 C 372.66 1.54282 -1.44084 0
M  V30 4140 O 372.008 2.18944 -0.653908 0
M  V30 4141 C 372.218 0.0229111 -3.48992 0
M  V30 4142 C 373.566 0.197643 -4.2414 0
M  V30 4143 O 374.59 0.0981735 -3.56065 0
M  V30 4144 O 373.449 0.401669 -5.45022 0
M  V30 4145 H 370.543 0.096181 -0.821388 0
M  V30 4146 H 373.089 -0.561822 -1.6013 0
M  V30 4147 H 371.861 -0.977321 -3.78899 0
M  V30 4148 H 371.484 0.733579 -3.90774 0
M  V30 4149 N 372.481 1.55866 -0.233164 0
M  V30 4150 C 373.73 1.97779 0.39579 0
M  V30 4151 C 374.043 1.12419 1.60066 0
M  V30 4152 O 375.249 1.44283 2.29988 0
M  V30 4153 C 373.705 3.5188 0.755556 0
M  V30 4154 C 373.313 4.45959 -0.427152 0
M  V30 4155 C 375.057 4.02479 1.34946 0
M  V30 4156 C 372.964 5.91383 -0.0443043 0
M  V30 4157 H 371.894 0.738592 0.15165 0
M  V30 4158 H 374.545 1.80486 -0.331212 0
M  V30 4159 H 372.927 3.64816 1.5403 0
M  V30 4160 H 374.101 4.44776 -1.20462 0
M  V30 4161 H 372.416 4.05765 -0.935068 0
M  V30 4162 H 375.013 5.08637 1.649 0
M  V30 4163 H 375.356 3.49014 2.26925 0
M  V30 4164 H 375.889 3.92813 0.62791 0
M  V30 4165 H 372.628 6.48857 -0.930874 0
M  V30 4166 H 372.148 5.95734 0.697238 0
M  V30 4167 H 373.827 6.45893 0.378334 0
M  V30 4168 N 373.959 -0.0401083 1.57549 0
M  V30 4169 C 375.205 -0.728793 1.89895 0
M  V30 4170 C 375.56 -1.73551 0.830535 0
M  V30 4171 O 374.853 -1.90914 -0.162007 0
M  V30 4172 C 375.047 -1.44902 3.26708 0
M  V30 4173 C 374.876 -0.513568 4.46758 0
M  V30 4174 C 373.646 -0.138698 5.0511 0
M  V30 4175 C 375.844 0.203341 5.13898 0
M  V30 4176 N 373.826 0.799159 6.08676 0
M  V30 4177 C 375.197 0.997246 6.11927 0
M  V30 4178 C 377.252 0.271459 4.97159 0
M  V30 4179 C 375.955 1.85299 6.95023 0
M  V30 4180 C 377.981 1.11429 5.80808 0
M  V30 4181 C 377.343 1.89615 6.78399 0
M  V30 4182 H 373.442 -0.241125 0.743897 0
M  V30 4183 H 376.026 0.0108016 1.94697 0
M  V30 4184 H 374.197 -2.15914 3.22856 0
M  V30 4185 H 375.929 -2.08921 3.46603 0
M  V30 4186 H 372.684 -0.498496 4.70969 0
M  V30 4187 H 373.108 1.26227 6.65128 0
M  V30 4188 H 377.75 -0.318709 4.21597 0
M  V30 4189 H 375.468 2.454 7.69938 0
M  V30 4190 H 379.054 1.17038 5.69906 0
M  V30 4191 H 377.934 2.53779 7.42001 0
M  V30 4192 N 375.437 -1.54477 -0.31217 0
M  V30 4193 C 376.662 -1.77526 -1.07235 0
M  V30 4194 C 377.087 -0.527775 -1.80544 0
M  V30 4195 O 376.445 0.52121 -1.73646 0
M  V30 4196 C 376.493 -2.97535 -2.03728 0
M  V30 4197 O 375.597 -2.69878 -3.11833 0
M  V30 4198 H 374.938 -0.58792 -0.30862 0
M  V30 4199 H 377.468 -2.01532 -0.352993 0
M  V30 4200 H 377.478 -3.25198 -2.46395 0
M  V30 4201 H 376.153 -3.87996 -1.49774 0
M  V30 4202 H 374.73 -2.53199 -2.7376 0
M  V30 4203 N 376.915 0.57481 -1.46744 0
M  V30 4204 C 378.155 1.34369 -1.54027 0
M  V30 4205 C 378.519 1.91051 -0.190642 0
M  V30 4206 O 379.72 2.68444 -0.138255 0
M  V30 4207 C 377.991 2.43706 -2.61423 0
M  V30 4208 S 379.55 3.30915 -2.88167 0
M  V30 4209 H 376.368 0.45768 -0.544105 0
M  V30 4210 H 378.97 0.659959 -1.84024 0
M  V30 4211 H 377.674 2.0047 -3.58106 0
M  V30 4212 H 377.205 3.16842 -2.33184 0
M  V30 4213 H 379.22 4.42742 -2.24039 0
M  V30 4214 N 378.394 1.34581 0.820102 0
M  V30 4215 C 379.642 1.26845 1.57336 0
M  V30 4216 C 379.963 -0.160667 1.94337 0
M  V30 4217 O 379.233 -1.09396 1.6251 0
M  V30 4218 H 377.813 0.466514 0.583415 0
M  V30 4219 H 380.475 1.68526 0.979027 0
M  V30 4220 H 379.571 1.87513 2.4949 0
M  V30 4221 N 379.872 -1.04064 1.18357 0
M  V30 4222 C 381.118 -1.77528 0.980397 0
M  V30 4223 C 381.451 -1.87948 -0.48879 0
M  V30 4224 O 380.726 -1.3876 -1.36293 0
M  V30 4225 C 381.009 -3.20797 1.63588 0
M  V30 4226 C 380.862 -3.1832 3.17793 0
M  V30 4227 C 382.181 -4.18911 1.34914 0
M  V30 4228 H 379.3 -0.644443 0.357578 0
M  V30 4229 H 381.942 -1.2156 1.46024 0
M  V30 4230 H 380.092 -3.68586 1.22788 0
M  V30 4231 H 381.764 -2.78521 3.67728 0
M  V30 4232 H 380.007 -2.56351 3.49952 0
M  V30 4233 H 380.678 -4.19489 3.58794 0
M  V30 4234 H 383.154 -3.7967 1.70265 0
M  V30 4235 H 382.03 -5.17374 1.83346 0
M  V30 4236 H 382.291 -4.41262 0.272027 0
M  V30 4237 N 381.35 -0.985608 -1.22978 0
M  V30 4238 C 382.599 -0.652881 -1.90841 0
M  V30 4239 C 382.912 0.817842 -1.77681 0
M  V30 4240 O 384.118 1.26185 -2.40395 0
M  V30 4241 C 382.574 -1.11717 -3.42122 0
M  V30 4242 C 382.182 -2.6126 -3.63933 0
M  V30 4243 C 383.926 -0.85843 -4.1573 0
M  V30 4244 C 381.833 -3.0133 -5.08876 0
M  V30 4245 H 380.763 -0.240491 -0.714619 0
M  V30 4246 H 383.414 -1.1942 -1.39324 0
M  V30 4247 H 381.796 -0.504027 -3.92779 0
M  V30 4248 H 382.97 -3.27858 -3.23799 0
M  V30 4249 H 381.285 -2.84937 -3.03644 0
M  V30 4250 H 383.882 -1.13359 -5.22546 0
M  V30 4251 H 384.225 0.205461 -4.15793 0
M  V30 4252 H 384.758 -1.43341 -3.71077 0
M  V30 4253 H 381.497 -4.06864 -5.13947 0
M  V30 4254 H 381.017 -2.3943 -5.49939 0
M  V30 4255 H 382.696 -2.92224 -5.77247 0
M  V30 4256 N 382.828 1.3818 -0.7579 0
M  V30 4257 C 383.758 2.33027 -0.148597 0
M  V30 4258 C 384.739 1.55085 0.69875 0
M  V30 4259 O 385.924 1.83384 0.639053 0
M  V30 4260 C 383.054 3.3928 0.742034 0
M  V30 4261 C 382.008 4.28 -0.00291946 0
M  V30 4262 C 381.334 5.25146 1.00625 0
M  V30 4263 C 382.634 5.08938 -1.17385 0
M  V30 4264 H 384.328 2.84231 -0.940909 0
M  V30 4265 H 381.874 1.36659 -0.453908 0
M  V30 4266 H 383.827 4.046 1.17799 0
M  V30 4267 H 382.551 2.86569 1.56671 0
M  V30 4268 H 381.21 3.64192 -0.419504 0
M  V30 4269 H 380.858 4.68721 1.8251 0
M  V30 4270 H 380.558 5.85361 0.512428 0
M  V30 4271 H 382.082 5.93342 1.44143 0
M  V30 4272 H 383.496 5.67474 -0.815224 0
M  V30 4273 H 381.893 5.7841 -1.59882 0
M  V30 4274 H 382.963 4.42424 -1.98468 0
M  V30 4275 N 384.306 0.507319 1.49211 0
M  V30 4276 C 385.536 -0.0315292 2.06576 0
M  V30 4277 C 385.944 -1.30791 1.36713 0
M  V30 4278 O 385.287 -1.78324 0.441181 0
M  V30 4279 C 385.349 -0.349104 3.57801 0
M  V30 4280 C 385.013 0.830475 4.49391 0
M  V30 4281 C 386.01 1.72271 4.90529 0
M  V30 4282 C 383.695 1.03107 4.91604 0
M  V30 4283 C 385.689 2.79964 5.72625 0
M  V30 4284 C 383.376 2.11116 5.73475 0
M  V30 4285 C 384.374 2.99379 6.1389 0
M  V30 4286 O 384.062 4.05523 6.94123 0
M  V30 4287 H 383.794 0.0201002 0.675701 0
M  V30 4288 H 386.348 0.705737 1.92895 0
M  V30 4289 H 384.578 -1.14005 3.69513 0
M  V30 4290 H 386.267 -0.827319 3.97379 0
M  V30 4291 H 387.033 1.57958 4.58557 0
M  V30 4292 H 382.912 0.353417 4.59643 0
M  V30 4293 H 386.456 3.48884 6.04091 0
M  V30 4294 H 382.353 2.25421 6.0486 0
M  V30 4295 H 383.121 4.02953 7.1244 0
M  V30 4296 N 385.784 -1.5574 0.241426 0
M  V30 4297 C 387.033 -1.97986 -0.385295 0
M  V30 4298 C 387.346 -1.13267 -1.59468 0
M  V30 4299 O 388.552 -1.45501 -2.2922 0
M  V30 4300 C 387.008 -3.52275 -0.736884 0
M  V30 4301 C 386.616 -4.45726 0.450796 0
M  V30 4302 C 388.36 -4.03189 -1.3281 0
M  V30 4303 C 386.267 -5.91352 0.0756662 0
M  V30 4304 H 385.197 -0.739386 -0.147731 0
M  V30 4305 H 387.848 -1.80308 0.340779 0
M  V30 4306 H 386.23 -3.65628 -1.52094 0
M  V30 4307 H 387.404 -4.44131 1.22819 0
M  V30 4308 H 385.719 -4.05264 0.956573 0
M  V30 4309 H 388.316 -5.09505 -1.62201 0
M  V30 4310 H 388.659 -3.50212 -2.25071 0
M  V30 4311 H 389.192 -3.93141 -0.607069 0
M  V30 4312 H 385.931 -6.48354 0.965272 0
M  V30 4313 H 385.451 -5.96095 -0.665635 0
M  V30 4314 H 387.13 -6.46084 -0.344075 0
M  V30 4315 N 387.262 0.0317525 -1.57568 0
M  V30 4316 C 388.192 1.03274 -2.0942 0
M  V30 4317 C 389.173 1.3788 -0.996143 0
M  V30 4318 O 390.358 1.46811 -1.27122 0
M  V30 4319 C 387.488 2.33448 -2.57137 0
M  V30 4320 C 386.442 2.13091 -3.71182 0
M  V30 4321 C 385.768 3.49001 -4.05095 0
M  V30 4322 C 387.068 1.51928 -4.99715 0
M  V30 4323 H 388.762 0.60112 -2.93303 0
M  V30 4324 H 386.308 0.287705 -1.41097 0
M  V30 4325 H 388.261 3.03802 -2.92032 0
M  V30 4326 H 386.985 2.78665 -1.70333 0
M  V30 4327 H 385.644 1.45171 -3.36632 0
M  V30 4328 H 385.292 3.91862 -3.15362 0
M  V30 4329 H 384.992 3.36207 -4.81911 0
M  V30 4330 H 386.516 4.20721 -4.42522 0
M  V30 4331 H 387.93 2.12196 -5.32584 0
M  V30 4332 H 386.327 1.49716 -5.81124 0
M  V30 4333 H 387.397 0.484811 -4.8247 0
M  V30 4334 N 388.74 1.54641 0.303973 0
M  V30 4335 C 389.67 1.88386 1.3796 0
M  V30 4336 C 390.651 0.742485 1.5304 0
M  V30 4337 O 391.836 0.997959 1.66597 0
M  V30 4338 C 388.966 2.12854 2.74427 0
M  V30 4339 C 387.92 3.28702 2.74115 0
M  V30 4340 C 387.246 3.38582 4.13844 0
M  V30 4341 C 388.546 4.65881 2.3612 0
M  V30 4342 H 390.24 2.78474 1.09966 0
M  V30 4343 H 387.786 1.33988 0.527556 0
M  V30 4344 H 389.739 2.35047 3.49758 0
M  V30 4345 H 388.463 1.19535 3.03939 0
M  V30 4346 H 387.122 3.06428 2.0124 0
M  V30 4347 H 386.77 2.42784 4.40528 0
M  V30 4348 H 386.47 4.16453 4.14537 0
M  V30 4349 H 387.994 3.63031 4.90959 0
M  V30 4350 H 389.408 4.87823 3.01167 0
M  V30 4351 H 387.805 5.46444 2.48031 0
M  V30 4352 H 388.875 4.66799 1.3125 0
M  V30 4353 N 390.218 -0.567019 1.47046 0
M  V30 4354 C 391.443 -1.3551 1.57009 0
M  V30 4355 C 391.868 -1.86841 0.217259 0
M  V30 4356 O 391.226 -1.62435 -0.805268 0
M  V30 4357 C 391.274 -2.50777 2.5912 0
M  V30 4358 O 390.378 -3.52706 2.13711 0
M  V30 4359 H 389.719 -0.402919 0.52778 0
M  V30 4360 H 392.249 -0.686241 1.92748 0
M  V30 4361 H 392.259 -2.97481 2.79229 0
M  V30 4362 H 390.934 -2.12771 3.57353 0
M  V30 4363 H 389.511 -3.12374 2.03659 0
M  V30 4364 N 391.696 -1.35014 -0.812953 0
M  V30 4365 C 392.944 -1.27678 -1.56661 0
M  V30 4366 C 393.265 0.150359 -1.94419 0
M  V30 4367 O 392.535 1.08532 -1.63088 0
M  V30 4368 H 391.115 -0.469602 -0.580933 0
M  V30 4369 H 393.777 -1.69043 -0.970076 0
M  V30 4370 H 392.873 -1.88833 -2.48492 0
M  V30 4371 N 393.175 1.03435 -1.18907 0
M  V30 4372 C 394.415 1.78302 -0.999391 0
M  V30 4373 C 394.779 1.86353 0.462219 0
M  V30 4374 O 395.98 2.57489 0.771543 0
M  V30 4375 C 394.251 3.17362 -1.64365 0
M  V30 4376 S 395.81 4.08488 -1.6026 0
M  V30 4377 H 392.628 0.613861 -0.358742 0
M  V30 4378 H 395.23 1.23979 -1.51161 0
M  V30 4379 H 393.934 3.09116 -2.69955 0
M  V30 4380 H 393.465 3.76762 -1.13199 0
M  V30 4381 H 395.48 4.92274 -0.622932 0
M  V30 4382 N 394.653 0.992116 1.22453 0
M  V30 4383 C 396.064 0.702776 1.72968 0
M  V30 4384 C 396.415 -0.780399 1.80012 0
M  V30 4385 O 395.54 -1.61007 1.44589 0
M  V30 4386 C 396.135 1.26903 3.14135 0
M  V30 4387 C 394.694 1.02909 3.62059 0
M  V30 4388 C 393.841 1.38969 2.39964 0
M  V30 4389 H 396.792 1.16457 1.07812 0
M  V30 4390 H 396.813 0.647223 3.74955 0
M  V30 4391 H 396.325 2.34851 3.08977 0
M  V30 4392 H 394.426 -0.0337979 3.72585 0
M  V30 4393 H 394.539 1.69191 4.48231 0
M  V30 4394 H 392.903 0.808279 2.41535 0
M  V30 4395 H 393.686 2.4792 2.37467 0
M  V30 4396 N 396.131 -1.37776 0.765217 0
M  V30 4397 C 397.542 -1.82521 0.392819 0
M  V30 4398 C 397.893 -1.63789 -1.08017 0
M  V30 4399 O 397.018 -1.14542 -1.83601 0
M  V30 4400 C 397.613 -3.31358 0.706214 0
M  V30 4401 C 396.172 -3.74406 0.386952 0
M  V30 4402 C 395.319 -2.60394 0.953422 0
M  V30 4403 H 398.27 -1.2634 0.960412 0
M  V30 4404 H 398.291 -3.80498 -0.0114706 0
M  V30 4405 H 397.803 -3.44959 1.77833 0
M  V30 4406 H 395.904 -3.66377 -0.678112 0
M  V30 4407 H 396.017 -4.70749 0.890636 0
M  V30 4408 H 394.381 -2.51878 0.378064 0
M  V30 4409 H 395.164 -2.76791 2.03081 0
M  V30 4410 N 397.609 -0.515225 -1.4894 0
M  V30 4411 C 398.856 0.024215 -2.02486 0
M  V30 4412 C 399.184 1.35671 -1.39368 0
M  V30 4413 O 398.439 1.88566 -0.523574 0
M  V30 4414 C 398.738 0.210595 -3.56779 0
M  V30 4415 C 398.404 -1.04569 -4.38607 0
M  V30 4416 C 397.066 -1.39002 -4.60686 0
M  V30 4417 C 399.418 -1.88008 -4.86109 0
M  V30 4418 C 396.746 -2.568 -5.27514 0
M  V30 4419 C 399.098 -3.04972 -5.54234 0
M  V30 4420 C 397.762 -3.39768 -5.74555 0
M  V30 4421 H 397.032 0.00886088 -0.740947 0
M  V30 4422 H 399.679 -0.678263 -1.79086 0
M  V30 4423 H 397.984 0.99572 -3.78936 0
M  V30 4424 H 399.681 0.642659 -3.95817 0
M  V30 4425 H 396.271 -0.767497 -4.21672 0
M  V30 4426 H 400.455 -1.62719 -4.68867 0
M  V30 4427 H 395.711 -2.8398 -5.41447 0
M  V30 4428 H 399.885 -3.69943 -5.90013 0
M  V30 4429 H 397.512 -4.31148 -6.26112 0
M  V30 4430 N 399.087 1.5561 -0.249682 0
M  V30 4431 C 400.035 2.22894 0.664906 0
M  V30 4432 C 401.029 1.21743 1.17792 0
M  V30 4433 O 402.235 1.39748 1.13449 0
M  V30 4434 H 398.61 0.715022 0.232912 0
M  V30 4435 H 400.581 2.98307 0.0742998 0
M  V30 4436 C 399.33 2.94424 1.84959 0
M  V30 4437 H 398.653 3.72031 1.46399 0
M  V30 4438 H 400.093 3.44862 2.4667 0
M  V30 4439 C 398.552 1.98454 2.72245 0
M  V30 4440 O 399.082 1.51939 3.71857 0
M  V30 4441 N 397.288 1.65496 2.38871 0
M  V30 4442 H 396.835 2.03517 1.57919 0
M  V30 4443 H 396.793 1.0155 2.97548 0
M  V30 4444 N 400.565 -0.0233959 1.57583 0
M  V30 4445 C 401.813 -0.711654 1.89156 0
M  V30 4446 C 402.134 -1.75591 0.848096 0
M  V30 4447 O 401.404 -1.95547 -0.117566 0
M  V30 4448 H 399.984 -0.265835 0.698098 0
M  V30 4449 H 402.646 0.0119948 1.94896 0
M  V30 4450 H 401.742 -1.19766 2.88206 0
M  V30 4451 N 402.043 -1.548 -0.295768 0
M  V30 4452 C 403.268 -1.78653 -1.05346 0
M  V30 4453 C 403.693 -0.546894 -1.79974 0
M  V30 4454 O 403.051 0.502763 -1.7419 0
M  V30 4455 C 403.099 -2.99679 -2.00561 0
M  V30 4456 O 402.203 -2.7317 -3.08953 0
M  V30 4457 H 401.544 -0.59116 -0.302367 0
M  V30 4458 H 404.074 -2.01895 -0.331598 0
M  V30 4459 H 404.084 -3.27793 -2.42932 0
M  V30 4460 H 402.759 -3.89562 -1.4565 0
M  V30 4461 H 401.336 -2.56089 -2.71059 0
M  V30 4462 N 403.521 0.559213 -1.47345 0
M  V30 4463 C 404.469 1.68747 -1.60085 0
M  V30 4464 C 405.463 1.628 -0.46825 0
M  V30 4465 O 406.669 1.68009 -0.645977 0
M  V30 4466 H 403.044 0.558329 -0.503759 0
M  V30 4467 H 405.015 1.55138 -2.54902 0
M  V30 4468 C 403.764 3.07103 -1.63042 0
M  V30 4469 H 403.087 3.12361 -2.49541 0
M  V30 4470 H 404.527 3.85743 -1.76006 0
M  V30 4471 C 402.986 3.34935 -0.363357 0
M  V30 4472 O 403.516 3.98102 0.536416 0
M  V30 4473 N 401.722 2.89574 -0.244 0
M  V30 4474 H 401.269 2.38348 -0.977133 0
M  V30 4475 H 401.227 3.08566 0.602836 0
M  V30 4476 N 404.999 1.35443 0.805782 0
M  V30 4477 C 405.909 1.30546 1.94923 0
M  V30 4478 C 406.925 0.210233 1.72725 0
M  V30 4479 O 408.101 0.43975 1.9654 0
M  V30 4480 C 405.166 1.07782 3.29521 0
M  V30 4481 C 404.227 2.26625 3.64609 0
M  V30 4482 C 403.46 2.04938 4.92784 0
M  V30 4483 O 403.683 1.01624 5.61274 0
M  V30 4484 O 402.617 2.9232 5.26149 0
M  V30 4485 H 406.443 2.26779 2.02002 0
M  V30 4486 H 404.028 1.15823 0.943682 0
M  V30 4487 H 405.91 0.969392 4.10098 0
M  V30 4488 H 404.585 0.146003 3.23371 0
M  V30 4489 H 403.492 2.43033 2.84404 0
M  V30 4490 H 404.825 3.18257 3.75464 0
M  V30 4491 N 406.477 -1.02803 1.19454 0
M  V30 4492 C 407.707 -1.79581 1.02149 0
M  V30 4493 C 408.115 -1.84182 -0.432851 0
M  V30 4494 O 407.458 -1.28534 -1.31243 0
M  V30 4495 C 407.52 -3.25993 1.51554 0
M  V30 4496 C 407.184 -3.45025 2.99678 0
M  V30 4497 C 408.181 -3.35175 3.97434 0
M  V30 4498 C 405.866 -3.71212 3.38389 0
M  V30 4499 C 407.86 -3.51238 5.31893 0
M  V30 4500 C 405.547 -3.8692 4.73008 0
M  V30 4501 C 406.545 -3.76936 5.69569 0
M  V30 4502 O 406.233 -3.92179 7.01748 0
M  V30 4503 H 405.965 -0.571962 0.360327 0
M  V30 4504 H 408.519 -1.30367 1.58725 0
M  V30 4505 H 406.749 -3.76235 0.893543 0
M  V30 4506 H 408.438 -3.84368 1.30444 0
M  V30 4507 H 409.204 -3.14895 3.68872 0
M  V30 4508 H 405.083 -3.78075 2.6378 0
M  V30 4509 H 408.627 -3.43362 6.07247 0
M  V30 4510 H 404.524 -4.06699 5.01265 0
M  V30 4511 H 405.292 -4.09265 7.08833 0
M  V30 4512 N 407.956 -0.998596 -1.21925 0
M  V30 4513 C 409.233 -0.593401 -1.86382 0
M  V30 4514 C 409.613 0.92916 -1.89552 0
M  V30 4515 O 408.961 1.81347 -1.39017 0
M  V30 4516 C 409.171 -1.22039 -3.26967 0
M  V30 4517 C 410.519 -1.32449 -4.03413 0
M  V30 4518 O 411.543 -1.17522 -3.36254 0
M  V30 4519 O 410.402 -1.56395 -5.23644 0
M  V30 4520 H 407.496 -0.202385 -0.801854 0
M  V30 4521 H 410.042 -1.09484 -1.29659 0
M  V30 4522 H 408.814 -2.26158 -3.19325 0
M  V30 4523 H 408.437 -0.704906 -3.91301 0
M  V30 4524 N 409.434 1.37368 -0.772513 0
M  V30 4525 C 410.683 1.98918 -0.333861 0
M  V30 4526 C 410.996 1.62017 1.09589 0
M  V30 4527 O 412.202 2.16676 1.63596 0
M  V30 4528 C 410.658 3.55735 -0.545971 0
M  V30 4529 C 410.266 4.01573 -1.98603 0
M  V30 4530 C 412.01 4.24156 -0.170979 0
M  V30 4531 C 409.917 5.51102 -2.1457 0
M  V30 4532 H 408.847 0.744214 -0.121085 0
M  V30 4533 H 411.498 1.56888 -0.95175 0
M  V30 4534 H 409.88 3.95748 0.141387 0
M  V30 4535 H 411.054 3.72803 -2.7084 0
M  V30 4536 H 409.369 3.45937 -2.31769 0
M  V30 4537 H 411.966 5.34024 -0.26878 0
M  V30 4538 H 412.309 4.06917 0.878855 0
M  V30 4539 H 412.842 3.89447 -0.810914 0
M  V30 4540 H 409.581 5.73268 -3.17875 0
M  V30 4541 H 409.101 5.81554 -1.46817 0
M  V30 4542 H 410.78 6.17083 -1.94468 0
M  V30 4543 N 410.912 0.523116 1.48665 0
M  V30 4544 C 411.842 -0.23231 2.32342 0
M  V30 4545 C 412.823 -0.941637 1.41659 0
M  V30 4546 O 414.008 -0.928751 1.70552 0
M  V30 4547 C 411.138 -1.28387 3.22698 0
M  V30 4548 C 410.092 -0.693098 4.22351 0
M  V30 4549 C 409.418 -1.8468 5.01794 0
M  V30 4550 C 410.718 0.33063 5.21252 0
M  V30 4551 H 412.412 0.466192 2.95748 0
M  V30 4552 H 409.958 0.225643 1.42221 0
M  V30 4553 H 411.911 -1.82024 3.80059 0
M  V30 4554 H 410.635 -2.01186 2.57278 0
M  V30 4555 H 409.294 -0.178299 3.66166 0
M  V30 4556 H 408.942 -2.56301 4.32804 0
M  V30 4557 H 408.642 -1.45747 5.69238 0
M  V30 4558 H 410.166 -2.38709 5.62006 0
M  V30 4559 H 411.58 -0.118407 5.73178 0
M  V30 4560 H 409.977 0.636974 5.9671 0
M  V30 4561 H 411.047 1.23883 4.68808 0
M  V30 4562 N 412.39 -1.55475 0.257931 0
M  V30 4563 C 413.337 -2.21837 -0.636939 0
M  V30 4564 C 414.307 -1.18596 -1.16294 0
M  V30 4565 O 415.492 -1.47081 -1.21539 0
M  V30 4566 C 412.632 -2.9301 -1.82317 0
M  V30 4567 C 411.745 -4.10931 -1.33265 0
M  V30 4568 C 410.88 -4.69791 -2.47931 0
M  V30 4569 C 409.919 -5.7994 -1.95796 0
M  V30 4570 N 409.056 -6.32935 -3.0387 0
M  V30 4571 H 413.896 -2.9793 -0.0643591 0
M  V30 4572 H 411.433 -1.47086 -0.0200031 0
M  V30 4573 H 413.391 -3.3248 -2.52018 0
M  V30 4574 H 412.021 -2.1937 -2.36805 0
M  V30 4575 H 411.073 -3.76699 -0.52931 0
M  V30 4576 H 412.385 -4.90417 -0.910654 0
M  V30 4577 H 411.539 -5.11892 -3.25656 0
M  V30 4578 H 410.278 -3.89545 -2.93438 0
M  V30 4579 H 409.283 -5.37305 -1.16546 0
M  V30 4580 H 410.508 -6.62043 -1.51246 0
M  V30 4581 H 408.454 -5.55591 -3.48791 0
M  V30 4582 H 408.371 -7.07645 -2.66035 0
M  V30 4583 H 409.639 -6.79695 -3.81621 0
M  V30 4584 N 413.868 0.0150385 -1.57593 0
M  V30 4585 C 414.815 1.01126 -2.07466 0
M  V30 4586 C 415.785 1.35064 -0.966794 0
M  V30 4587 O 416.97 1.4516 -1.23827 0
M  V30 4588 C 414.11 2.30276 -2.57035 0
M  V30 4589 C 413.223 2.02373 -3.81666 0
M  V30 4590 C 412.358 3.25496 -4.19793 0
M  V30 4591 C 411.397 2.93211 -5.37303 0
M  V30 4592 N 410.534 4.08826 -5.70794 0
M  V30 4593 H 415.374 0.57901 -2.92321 0
M  V30 4594 H 412.911 0.27426 -1.44521 0
M  V30 4595 H 414.869 3.05757 -2.83846 0
M  V30 4596 H 413.499 2.71197 -1.75077 0
M  V30 4597 H 412.551 1.17327 -3.61854 0
M  V30 4598 H 413.863 1.74567 -4.67256 0
M  V30 4599 H 413.017 4.09333 -4.47807 0
M  V30 4600 H 411.756 3.56428 -3.32882 0
M  V30 4601 H 410.761 2.07777 -5.09027 0
M  V30 4602 H 411.986 2.63542 -6.25877 0
M  V30 4603 H 409.932 4.39682 -4.86842 0
M  V30 4604 H 409.849 3.84491 -6.50924 0
M  V30 4605 H 411.117 4.93496 -6.03392 0
M  V30 4606 N 415.346 1.54954 0.287554 0
M  V30 4607 C 416.592 1.75132 1.02257 0
M  V30 4608 C 416.925 0.542858 1.86458 0
M  V30 4609 O 416.2 -0.459856 1.88986 0
M  V30 4610 C 416.483 3.04812 1.91733 0
M  V30 4611 C 416.336 4.35985 1.10622 0
M  V30 4612 C 417.655 3.30438 2.90687 0
M  V30 4613 H 414.774 0.637194 0.370341 0
M  V30 4614 H 417.416 1.87678 0.296111 0
M  V30 4615 H 415.566 2.94247 2.53675 0
M  V30 4616 H 417.238 4.58487 0.508636 0
M  V30 4617 H 415.481 4.31865 0.409271 0
M  V30 4618 H 416.152 5.23017 1.76513 0
M  V30 4619 H 418.628 3.40701 2.38877 0
M  V30 4620 H 417.504 4.22467 3.50447 0
M  V30 4621 H 417.765 2.49377 3.65053 0
M  V30 4622 N 416.824 -0.551391 1.4764 0
M  V30 4623 C 417.734 -1.68525 1.63207 0
M  V30 4624 C 418.75 -1.6621 0.514815 0
M  V30 4625 O 419.926 -1.85551 0.783113 0
M  V30 4626 C 416.991 -3.05025 1.64805 0
M  V30 4627 C 416.052 -3.18362 2.88 0
M  V30 4628 C 415.285 -4.4835 2.89513 0
M  V30 4629 O 415.508 -5.34163 2.00065 0
M  V30 4630 O 414.442 -4.65602 3.81443 0
M  V30 4631 H 418.268 -1.58333 2.59161 0
M  V30 4632 H 415.853 -0.722063 1.30792 0
M  V30 4633 H 417.735 -3.86245 1.68502 0
M  V30 4634 H 416.41 -3.15587 0.720197 0
M  V30 4635 H 415.317 -2.36518 2.89845 0
M  V30 4636 H 416.65 -3.12707 3.80099 0
M  V30 4637 N 418.302 -1.35869 -0.798587 0
M  V30 4638 C 419.265 -1.29307 -1.89242 0
M  V30 4639 C 420.265 -0.202747 -1.59517 0
M  V30 4640 O 421.455 -0.456957 -1.681 0
M  V30 4641 C 418.587 -1.00229 -3.25833 0
M  V30 4642 H 419.78 -2.26576 -1.96478 0
M  V30 4643 H 417.333 -1.20509 -0.995358 0
M  V30 4644 H 418.068 -0.033801 -3.24282 0
M  V30 4645 H 417.853 -1.79121 -3.48795 0
M  V30 4646 H 419.343 -0.98219 -4.05885 0
M  V30 4647 N 419.78 1.02168 -1.19998 0
M  V30 4648 C 421.028 1.75338 -1.00504 0
M  V30 4649 C 421.349 1.89387 0.464506 0
M  V30 4650 O 420.619 1.43268 1.33608 0
M  V30 4651 H 419.199 0.649564 -0.368885 0
M  V30 4652 H 421.861 1.23205 -1.51018 0
M  V30 4653 H 420.957 2.75892 -1.45912 0
M  V30 4654 N 421.258 1.00505 1.21394 0
M  V30 4655 C 422.205 0.565496 2.23765 0
M  V30 4656 C 423.175 -0.408466 1.60999 0
M  V30 4657 O 424.36 -0.310503 1.88257 0
M  V30 4658 C 421.5 -0.101667 3.4495 0
M  V30 4659 C 420.613 0.915479 4.22188 0
M  V30 4660 C 419.748 0.220574 5.30742 0
M  V30 4661 C 418.787 1.22527 5.99711 0
M  V30 4662 N 417.924 0.557831 6.9988 0
M  V30 4663 H 422.764 1.44314 2.60725 0
M  V30 4664 H 420.301 0.722643 1.28126 0
M  V30 4665 H 422.259 -0.505504 4.14126 0
M  V30 4666 H 420.889 -0.94303 3.08718 0
M  V30 4667 H 419.941 1.43756 3.52191 0
M  V30 4668 H 421.253 1.68005 4.69655 0
M  V30 4669 H 420.407 -0.239368 6.06228 0
M  V30 4670 H 419.146 -0.576401 4.84282 0
M  V30 4671 H 418.151 1.69571 5.22997 0
M  V30 4672 H 419.376 2.02332 6.48258 0
M  V30 4673 H 417.322 -0.219486 6.55633 0
M  V30 4674 H 417.239 1.26065 7.45415 0
M  V30 4675 H 418.507 0.121095 7.79406 0
M  V30 4676 N 422.737 -1.36956 0.779787 0
M  V30 4677 C 423.967 -2.03459 0.358877 0
M  V30 4678 C 424.375 -1.58939 -1.02641 0
M  V30 4679 O 423.718 -0.769777 -1.66794 0
M  V30 4680 C 423.78 -3.5796 0.332393 0
M  V30 4681 C 423.444 -4.25644 1.66362 0
M  V30 4682 C 424.441 -4.49205 2.61746 0
M  V30 4683 C 422.126 -4.63313 1.94027 0
M  V30 4684 C 424.12 -5.09503 3.82996 0
M  V30 4685 C 421.807 -5.2333 3.15546 0
M  V30 4686 C 422.805 -5.46363 4.0985 0
M  V30 4687 O 422.493 -6.05122 5.29228 0
M  V30 4688 H 422.225 -0.659767 0.147254 0
M  V30 4689 H 424.779 -1.76111 1.05708 0
M  V30 4690 H 423.009 -3.84388 -0.422237 0
M  V30 4691 H 424.698 -4.05852 -0.0625389 0
M  V30 4692 H 425.464 -4.20508 2.41657 0
M  V30 4693 H 421.343 -4.44715 1.21448 0
M  V30 4694 H 424.887 -5.27397 4.56617 0
M  V30 4695 H 420.784 -5.51451 3.35517 0
M  V30 4696 H 421.552 -6.23595 5.30161 0
M  V30 4697 N 424.215 -0.530993 -1.48385 0
M  V30 4698 C 425.443 -0.00134122 -2.069 0
M  V30 4699 C 425.858 1.2805 -1.3874 0
M  V30 4700 O 425.215 1.76204 -0.475244 0
M  V30 4701 C 425.266 0.225256 -3.60798 0
M  V30 4702 O 424.987 -1.0058 -4.26398 0
M  V30 4703 C 426.488 0.795172 -4.3611 0
M  V30 4704 H 423.708 -0.0339704 -0.67014 0
M  V30 4705 H 426.252 -0.736926 -1.90761 0
M  V30 4706 H 424.407 0.910891 -3.76539 0
M  V30 4707 H 424.821 -0.787165 -5.1856 0
M  V30 4708 H 426.295 0.903143 -5.44562 0
M  V30 4709 H 426.772 1.80031 -4.00606 0
M  V30 4710 H 427.378 0.146069 -4.25049 0
M  V30 4711 N 425.693 1.55336 -0.266172 0
M  V30 4712 C 426.94 1.99397 0.353158 0
M  V30 4713 C 427.268 1.15451 1.56529 0
M  V30 4714 O 426.523 0.209974 1.9457 0
M  V30 4715 C 426.822 3.48606 0.787957 0
M  V30 4716 C 426.488 4.49773 -0.318541 0
M  V30 4717 C 425.15 4.77158 -0.62239 0
M  V30 4718 C 427.502 5.10212 -1.06459 0
M  V30 4719 C 424.83 5.62251 -1.67602 0
M  V30 4720 C 427.182 5.96449 -2.10788 0
M  V30 4721 C 425.846 6.22158 -2.41817 0
M  V30 4722 H 425.116 0.729644 0.12923 0
M  V30 4723 H 427.763 1.87732 -0.37802 0
M  V30 4724 H 426.068 3.57701 1.59866 0
M  V30 4725 H 427.765 3.80098 1.27775 0
M  V30 4726 H 424.355 4.2854 -0.0715925 0
M  V30 4727 H 428.539 4.89086 -0.843098 0
M  V30 4728 H 423.795 5.80419 -1.92155 0
M  V30 4729 H 427.969 6.42317 -2.69076 0
M  V30 4730 H 425.596 6.87888 -3.23596 0
M  V30 4731 N 427.171 -0.0066808 1.57599 0
M  V30 4732 C 428.448 -0.729586 1.81484 0
M  V30 4733 C 428.828 -1.92359 0.869558 0
M  V30 4734 O 428.176 -2.28348 -0.0832533 0
M  V30 4735 C 428.386 -1.1416 3.29801 0
M  V30 4736 C 429.734 -1.54823 3.95367 0
M  V30 4737 O 430.758 -1.23558 3.34084 0
M  V30 4738 O 429.617 -2.12937 5.03309 0
M  V30 4739 H 426.711 -0.354674 0.747085 0
M  V30 4740 H 429.257 0.0182609 1.6969 0
M  V30 4741 H 428.029 -0.290231 3.90222 0
M  V30 4742 H 427.652 -1.94876 3.46568 0
M  V30 4743 N 428.649 -1.55105 -0.279332 0
M  V30 4744 C 429.579 -1.90557 -1.34945 0
M  V30 4745 C 430.56 -0.766738 -1.51839 0
M  V30 4746 O 431.745 -1.02434 -1.64988 0
M  V30 4747 C 428.875 -2.17193 -2.71006 0
M  V30 4748 C 427.829 -3.33021 -2.68851 0
M  V30 4749 C 427.155 -3.45123 -4.08405 0
M  V30 4750 C 428.455 -4.69578 -2.28678 0
M  V30 4751 H 430.149 -2.80188 -1.05522 0
M  V30 4752 H 427.695 -1.34811 -0.506173 0
M  V30 4753 H 429.648 -2.40581 -3.45975 0
M  V30 4754 H 428.372 -1.24355 -3.01999 0
M  V30 4755 H 427.031 -3.0959 -1.9634 0
M  V30 4756 H 426.679 -2.49762 -4.3661 0
M  V30 4757 H 426.379 -4.22995 -4.07859 0
M  V30 4758 H 427.903 -3.70796 -4.85121 0
M  V30 4759 H 429.317 -4.92553 -2.93368 0
M  V30 4760 H 427.714 -5.5032 -2.39306 0
M  V30 4761 H 428.784 -4.68828 -1.23807 0
M  V30 4762 N 430.127 0.543554 -1.4793 0
M  V30 4763 C 431.538 1.12561 -1.48953 0
M  V30 4764 C 431.889 1.94578 -0.251754 0
M  V30 4765 O 431.014 2.0665 0.642255 0
M  V30 4766 C 431.609 2.04801 -2.69892 0
M  V30 4767 C 430.168 2.58251 -2.73831 0
M  V30 4768 C 429.315 1.34918 -2.42265 0
M  V30 4769 H 432.266 0.32947 -1.55242 0
M  V30 4770 H 432.287 2.88886 -2.47639 0
M  V30 4771 H 431.799 1.4508 -3.59963 0
M  V30 4772 H 429.9 3.21732 -1.87934 0
M  V30 4773 H 430.013 2.98312 -3.74895 0
M  V30 4774 H 428.377 1.66046 -1.93134 0
M  V30 4775 H 429.16 0.769693 -3.3456 0
M  V30 4776 N 431.605 1.3629 0.791371 0
M  V30 4777 C 432.537 1.26321 1.91248 0
M  V30 4778 C 433.55 0.18313 1.61767 0
M  V30 4779 O 434.739 0.437682 1.73051 0
M  V30 4780 C 431.839 0.925901 3.26007 0
M  V30 4781 C 431.012 2.10746 3.83281 0
M  V30 4782 C 430.071 1.74352 4.96475 0
M  V30 4783 O 429.097 2.46416 5.13096 0
M  V30 4784 N 430.299 0.676058 5.7655 0
M  V30 4785 H 433.064 2.22915 2.00323 0
M  V30 4786 H 430.625 1.29659 0.969546 0
M  V30 4787 H 432.617 0.663636 3.99222 0
M  V30 4788 H 431.187 0.0491581 3.12561 0
M  V30 4789 H 430.407 2.53264 3.02077 0
M  V30 4790 H 431.695 2.8969 4.18279 0
M  V30 4791 H 431.093 0.0776467 5.65647 0
M  V30 4792 H 429.65 0.473612 6.50077 0
M  V30 4793 N 433.083 -1.0153 1.20538 0
M  V30 4794 C 434.33 -1.75149 1.01633 0
M  V30 4795 C 434.658 -1.89189 -0.451399 0
M  V30 4796 O 433.913 -1.41551 -1.35136 0
M  V30 4797 C 434.212 -3.17213 1.64654 0
M  V30 4798 C 433.878 -3.23146 3.14464 0
M  V30 4799 C 432.54 -3.24472 3.55347 0
M  V30 4800 C 434.892 -3.21207 4.10458 0
M  V30 4801 C 432.22 -3.21532 4.90748 0
M  V30 4802 C 434.572 -3.19808 5.45807 0
M  V30 4803 C 433.236 -3.19439 5.86102 0
M  V30 4804 H 432.506 -0.640914 0.3719 0
M  V30 4805 H 435.153 -1.19071 1.49981 0
M  V30 4806 H 433.458 -3.76457 1.08571 0
M  V30 4807 H 435.155 -3.72871 1.4754 0
M  V30 4808 H 431.745 -3.2285 2.81897 0
M  V30 4809 H 435.929 -3.19351 3.79906 0
M  V30 4810 H 431.185 -3.19578 5.21229 0
M  V30 4811 H 435.359 -3.1726 6.19935 0
M  V30 4812 H 432.986 -3.16915 6.90991 0
M  V30 4813 N 434.561 -1.01147 -1.20859 0
M  V30 4814 C 435.508 -0.577354 -2.23462 0
M  V30 4815 C 436.478 0.399922 -1.61214 0
M  V30 4816 O 437.663 0.300515 -1.88419 0
M  V30 4817 C 434.803 0.083372 -3.44999 0
M  V30 4818 C 433.916 -0.937856 -4.21697 0
M  V30 4819 C 433.051 -0.248717 -5.30617 0
M  V30 4820 C 432.09 -1.25705 -5.99053 0
M  V30 4821 N 431.227 -0.594939 -6.99575 0
M  V30 4822 H 436.067 -1.45695 -2.59956 0
M  V30 4823 H 433.604 -0.729428 -1.27741 0
M  V30 4824 H 435.562 0.483535 -4.14388 0
M  V30 4825 H 434.192 0.926645 -3.09214 0
M  V30 4826 H 433.244 -1.45622 -3.51423 0
M  V30 4827 H 434.556 -1.70493 -4.68757 0
M  V30 4828 H 433.71 0.207215 -6.06346 0
M  V30 4829 H 432.449 0.55071 -4.84581 0
M  V30 4830 H 431.454 -1.72343 -5.2209 0
M  V30 4831 H 432.679 -2.05767 -6.47176 0
M  V30 4832 H 430.625 0.184713 -6.5574 0
M  V30 4833 H 430.542 -1.30017 -7.44736 0
M  V30 4834 H 431.81 -0.162427 -7.79331 0
M  V30 4835 N 436.039 1.36541 -0.78704 0
M  V30 4836 C 436.986 2.30082 -0.181901 0
M  V30 4837 C 437.956 1.5186 0.672896 0
M  V30 4838 O 439.141 1.80374 0.622072 0
M  V30 4839 C 436.281 3.3835 0.679197 0
M  V30 4840 C 435.394 4.31565 -0.193882 0
M  V30 4841 C 434.529 5.26915 0.673364 0
M  V30 4842 C 433.568 6.11769 -0.201315 0
M  V30 4843 N 432.705 6.99315 0.624777 0
M  V30 4844 H 437.545 2.81248 -0.985064 0
M  V30 4845 H 435.082 1.38437 -0.497342 0
M  V30 4846 H 437.04 3.99767 1.19341 0
M  V30 4847 H 435.67 2.8851 1.44781 0
M  V30 4848 H 434.722 3.71323 -0.826044 0
M  V30 4849 H 436.034 4.91191 -0.867937 0
M  V30 4850 H 435.188 5.9361 1.25348 0
M  V30 4851 H 433.927 4.67737 1.38105 0
M  V30 4852 H 432.932 5.44039 -0.793849 0
M  V30 4853 H 434.157 6.73022 -0.906568 0
M  V30 4854 H 432.103 6.42648 1.3168 0
M  V30 4855 H 432.02 7.56 0.00835237 0
M  V30 4856 H 433.288 7.70382 1.18879 0
M  V30 4857 N 437.518 0.538854 1.48102 0
M  V30 4858 C 438.767 0.0059532 2.01699 0
M  V30 4859 C 439.08 -1.34476 1.42041 0
M  V30 4860 O 440.286 -1.96653 1.87189 0
M  V30 4861 C 438.742 -0.0397627 3.59878 0
M  V30 4862 C 438.35 1.30659 4.28523 0
M  V30 4863 C 440.094 -0.521024 4.2129 0
M  V30 4864 C 438.001 1.22098 5.78659 0
M  V30 4865 H 436.931 -0.00154456 0.753998 0
M  V30 4866 H 439.582 0.683963 1.70277 0
M  V30 4867 H 437.964 -0.783037 3.88181 0
M  V30 4868 H 439.138 2.06613 4.11883 0
M  V30 4869 H 437.453 1.7243 3.79021 0
M  V30 4870 H 440.05 -0.603184 5.31287 0
M  V30 4871 H 440.393 -1.52885 3.8721 0
M  V30 4872 H 440.926 0.166834 3.9745 0
M  V30 4873 H 437.665 2.20424 6.17328 0
M  V30 4874 H 437.185 0.50295 5.97688 0
M  V30 4875 H 438.864 0.915345 6.40492 0
M  V30 4876 N 438.996 -1.55193 0.274407 0
M  V30 4877 C 440.221 -2.04446 -0.348824 0
M  V30 4878 C 440.646 -1.15149 -1.48735 0
M  V30 4879 O 440.004 -0.149952 -1.80679 0
M  V30 4880 C 440.052 -3.51431 -0.808009 0
M  V30 4881 O 439.156 -3.65225 -1.91531 0
M  V30 4882 H 438.497 -0.66006 -0.0722276 0
M  V30 4883 H 441.027 -2.00481 0.408498 0
M  V30 4884 H 441.037 -3.92781 -1.10395 0
M  V30 4885 H 439.712 -4.15892 0.0249865 0
M  V30 4886 H 438.289 -3.35778 -1.62196 0
M  V30 4887 N 440.474 -0.00167713 -1.576 0
M  V30 4888 C 441.751 0.719951 -1.81868 0
M  V30 4889 C 442.131 1.91895 -0.879747 0
M  V30 4890 O 441.479 2.28389 0.0711423 0
M  V30 4891 C 441.689 1.12409 -3.30402 0
M  V30 4892 C 443.037 1.52724 -3.96182 0
M  V30 4893 O 444.061 1.21784 -3.34734 0
M  V30 4894 O 442.92 2.10265 -5.04431 0
M  V30 4895 H 440.014 0.350707 -0.748955 0
M  V30 4896 H 442.56 -0.0272597 -1.69678 0
M  V30 4897 H 441.332 0.269532 -3.90371 0
M  V30 4898 H 440.955 1.93035 -3.47596 0
M  V30 4899 N 441.952 1.55251 0.271103 0
M  V30 4900 C 442.899 1.88261 1.33516 0
M  V30 4901 C 443.869 0.734296 1.48988 0
M  V30 4902 O 445.054 0.985741 1.63364 0
M  V30 4903 C 442.194 2.16168 2.69008 0
M  V30 4904 C 441.307 3.43678 2.61743 0
M  V30 4905 C 440.442 3.61276 3.89427 0
M  V30 4906 C 439.481 4.82472 3.7668 0
M  V30 4907 N 438.618 4.96717 4.96202 0
M  V30 4908 H 443.458 2.79015 1.04665 0
M  V30 4909 H 440.995 1.38137 0.505618 0
M  V30 4910 H 442.953 2.30349 3.47844 0
M  V30 4911 H 441.583 1.28646 2.96057 0
M  V30 4912 H 440.635 3.37959 1.74607 0
M  V30 4913 H 441.947 4.3265 2.48224 0
M  V30 4914 H 441.101 3.75284 4.76704 0
M  V30 4915 H 439.84 2.70492 4.05814 0
M  V30 4916 H 438.845 4.68465 2.87786 0
M  V30 4917 H 440.07 5.74692 3.61809 0
M  V30 4918 H 438.016 4.08865 5.12997 0
M  V30 4919 H 437.933 5.79738 4.85222 0
M  V30 4920 H 439.201 5.15113 5.85046 0
M  V30 4921 N 443.43 -0.535701 1.48216 0
M  V30 4922 C 444.393 -1.623 1.61838 0
M  V30 4923 C 445.393 -1.53087 0.492024 0
M  V30 4924 O 446.583 -1.5686 0.757668 0
M  V30 4925 C 443.715 -3.01907 1.58319 0
M  V30 4926 H 444.908 -1.51564 2.58783 0
M  V30 4927 H 442.461 -0.757317 1.36727 0
M  V30 4928 H 443.196 -3.18155 0.628299 0
M  V30 4929 H 442.981 -3.10003 2.40085 0
M  V30 4930 H 444.471 -3.80969 1.71033 0
M  V30 4931 N 444.908 -1.36708 -0.784132 0
M  V30 4932 C 445.855 -1.31466 -1.89698 0
M  V30 4933 C 446.825 -0.18239 -1.65096 0
M  V30 4934 O 448.01 -0.369762 -1.87183 0
M  V30 4935 C 445.15 -1.1151 -3.26588 0
M  V30 4936 C 444.263 -2.33859 -3.63227 0
M  V30 4937 C 443.398 -2.06873 -4.89262 0
M  V30 4938 C 442.437 -3.25154 -5.18595 0
M  V30 4939 N 441.574 -2.978 -6.35814 0
M  V30 4940 H 446.414 -2.26619 -1.93515 0
M  V30 4941 H 443.951 -1.12625 -0.946256 0
M  V30 4942 H 445.909 -0.979653 -4.05535 0
M  V30 4943 H 444.539 -0.200103 -3.22179 0
M  V30 4944 H 443.591 -2.58188 -2.79362 0
M  V30 4945 H 444.903 -3.22109 -3.8085 0
M  V30 4946 H 444.057 -1.90289 -5.76086 0
M  V30 4947 H 442.796 -1.15942 -4.73718 0
M  V30 4948 H 441.801 -3.42292 -4.30251 0
M  V30 4949 H 443.026 -4.1692 -5.36055 0
M  V30 4950 H 440.972 -2.09485 -6.21653 0
M  V30 4951 H 440.889 -3.7959 -6.53794 0
M  V30 4952 H 442.157 -2.84805 -7.25607 0
M  V30 4953 N 446.386 1.0089 -1.21074 0
M  V30 4954 C 447.663 1.71834 -0.934469 0
M  V30 4955 C 448.043 2.0368 0.554753 0
M  V30 4956 O 447.391 1.70742 1.51854 0
M  V30 4957 C 447.601 2.98061 -1.8155 0
M  V30 4958 C 448.949 3.7117 -2.06199 0
M  V30 4959 O 449.973 3.08034 -1.78867 0
M  V30 4960 O 448.832 4.84721 -2.52404 0
M  V30 4961 H 445.926 0.749253 -0.35007 0
M  V30 4962 H 448.472 1.06668 -1.31985 0
M  V30 4963 H 447.244 2.70908 -2.82355 0
M  V30 4964 H 446.867 3.70968 -1.43068 0
M  V30 4965 N 447.864 1.01787 1.20321 0
M  V30 4966 C 448.794 0.609625 2.25401 0
M  V30 4967 C 449.775 -0.375951 1.65893 0
M  V30 4968 O 450.96 -0.261101 1.92437 0
M  V30 4969 C 448.09 -0.0515995 3.47262 0
M  V30 4970 C 447.044 0.855095 4.19371 0
M  V30 4971 C 446.37 0.0595757 5.34667 0
M  V30 4972 C 447.67 2.16374 4.75373 0
M  V30 4973 H 449.364 1.48803 2.59804 0
M  V30 4974 H 446.91 0.716934 1.24884 0
M  V30 4975 H 448.863 -0.348764 4.19954 0
M  V30 4976 H 447.587 -0.964726 3.12027 0
M  V30 4977 H 446.246 1.13628 3.48546 0
M  V30 4978 H 445.894 -0.85524 4.95676 0
M  V30 4979 H 445.594 0.663406 5.83843 0
M  V30 4980 H 447.118 -0.231105 6.10162 0
M  V30 4981 H 448.532 1.92885 5.39878 0
M  V30 4982 H 446.929 2.71853 5.34991 0
M  V30 4983 H 447.999 2.82589 3.94045 0
M  V30 4984 N 449.342 -1.36122 0.79427 0
M  V30 4985 C 450.591 -1.98361 0.365464 0
M  V30 4986 C 450.904 -1.6374 -1.06997 0
M  V30 4987 O 452.11 -2.19251 -1.60129 0
M  V30 4988 C 450.566 -3.54821 0.602496 0
M  V30 4989 C 450.174 -3.98362 2.04967 0
M  V30 4990 C 451.918 -4.2383 0.238437 0
M  V30 4991 C 449.825 -5.47619 2.2331 0
M  V30 4992 H 448.755 -0.742193 0.13291 0
M  V30 4993 H 451.406 -1.55354 0.976589 0
M  V30 4994 H 449.788 -3.95922 -0.078409 0
M  V30 4995 H 450.962 -3.68447 2.76737 0
M  V30 4996 H 449.277 -3.42206 2.37243 0
M  V30 4997 H 451.874 -5.33529 0.353705 0
M  V30 4998 H 452.217 -4.08264 -0.814006 0
M  V30 4999 H 452.75 -3.88108 0.872769 0
M  V30 5000 H 449.489 -5.68138 3.26955 0
M  V30 5001 H 449.009 -5.79145 1.5605 0
M  V30 5002 H 450.688 -6.13911 2.0426 0
M  V30 5003 N 450.82 -0.546701 -1.47814 0
M  V30 5004 C 451.767 0.206854 -2.29871 0
M  V30 5005 C 452.737 0.918235 -1.38411 0
M  V30 5006 O 453.922 0.915991 -1.67375 0
M  V30 5007 C 451.062 1.23746 -3.22151 0
M  V30 5008 C 450.175 0.533216 -4.28697 0
M  V30 5009 C 449.31 1.5482 -5.08138 0
M  V30 5010 C 448.349 0.828347 -6.06469 0
M  V30 5011 N 447.486 1.78966 -6.78908 0
M  V30 5012 H 452.326 -0.499037 -2.93792 0
M  V30 5013 H 449.863 -0.25793 -1.44821 0
M  V30 5014 H 451.821 1.84746 -3.74065 0
M  V30 5015 H 450.451 1.91151 -2.60117 0
M  V30 5016 H 449.503 -0.191089 -3.7992 0
M  V30 5017 H 450.815 -0.0311987 -4.9879 0
M  V30 5018 H 449.969 2.23202 -5.6415 0
M  V30 5019 H 448.708 2.14652 -4.37922 0
M  V30 5020 H 447.713 0.130539 -5.49645 0
M  V30 5021 H 448.938 0.235907 -6.7869 0
M  V30 5022 H 446.884 2.37675 -6.1143 0
M  V30 5023 H 446.801 1.27712 -7.45135 0
M  V30 5024 H 448.069 2.46496 -7.395 0
M  V30 5025 N 452.299 1.55045 -0.282633 0
M  V30 5026 C 453.246 2.22822 0.601566 0
M  V30 5027 C 454.216 1.20431 1.14392 0
M  V30 5028 O 455.401 1.48996 1.19184 0
M  V30 5029 C 452.541 2.95873 1.77632 0
M  V30 5030 C 451.654 4.12999 1.26711 0
M  V30 5031 C 450.789 4.73676 2.40426 0
M  V30 5032 C 449.828 5.82981 1.86545 0
M  V30 5033 N 448.965 6.3769 2.93762 0
M  V30 5034 H 453.805 2.97995 0.0169528 0
M  V30 5035 H 451.342 1.471 -0.00339964 0
M  V30 5036 H 453.3 3.36447 2.46697 0
M  V30 5037 H 451.93 2.2311 2.33285 0
M  V30 5038 H 450.982 3.77494 0.469314 0
M  V30 5039 H 452.294 4.91803 0.832518 0
M  V30 5040 H 451.448 5.17008 3.17471 0
M  V30 5041 H 450.187 3.94164 2.87203 0
M  V30 5042 H 449.192 5.39092 1.07983 0
M  V30 5043 H 450.417 6.64366 1.40694 0
M  V30 5044 H 448.363 5.61069 3.39908 0
M  V30 5045 H 448.28 7.11788 2.54744 0
M  V30 5046 H 449.548 6.8568 3.7076 0
M  V30 5047 N 453.777 0.010035 1.57597 0
M  V30 5048 C 454.71 -1.01234 2.04516 0
M  V30 5049 C 455.688 -1.32886 0.937024 0
M  V30 5050 O 456.872 -1.44879 1.20592 0
M  V30 5051 C 453.999 -2.33738 2.45121 0
M  V30 5052 C 453.045 -2.17679 3.66767 0
M  V30 5053 S 453.878 -1.49343 5.14254 0
M  V30 5054 C 455.034 -2.83256 5.58137 0
M  V30 5055 H 455.267 -0.612866 2.90914 0
M  V30 5056 H 452.8 -0.201124 1.53084 0
M  V30 5057 H 454.758 -3.09922 2.69182 0
M  V30 5058 H 453.419 -2.70823 1.59103 0
M  V30 5059 H 452.612 -3.1559 3.92962 0
M  V30 5060 H 452.214 -1.4964 3.42759 0
M  V30 5061 H 454.506 -3.79538 5.6121 0
M  V30 5062 H 455.449 -2.61749 6.57946 0
M  V30 5063 H 455.857 -2.87627 4.85727 0
M  V30 5064 N 455.255 -1.55392 -0.262866 0
M  V30 5065 C 456.185 -1.91978 -1.32917 0
M  V30 5066 C 457.166 -0.7828 -1.51017 0
M  V30 5067 O 458.351 -1.04178 -1.63892 0
M  V30 5068 C 455.481 -2.20055 -2.68687 0
M  V30 5069 C 454.435 -3.35854 -2.65304 0
M  V30 5070 C 453.761 -3.49435 -4.04721 0
M  V30 5071 C 455.061 -4.71977 -2.23685 0
M  V30 5072 H 456.755 -2.81292 -1.02544 0
M  V30 5073 H 454.301 -1.3534 -0.491846 0
M  V30 5074 H 456.254 -2.44237 -3.43404 0
M  V30 5075 H 454.978 -1.27551 -3.00663 0
M  V30 5076 H 453.637 -3.11655 -1.93045 0
M  V30 5077 H 453.285 -2.54379 -4.33936 0
M  V30 5078 H 452.985 -4.27297 -4.0335 0
M  V30 5079 H 454.509 -3.7592 -4.81161 0
M  V30 5080 H 455.923 -4.95637 -2.88127 0
M  V30 5081 H 454.32 -5.52828 -2.33456 0
M  V30 5082 H 455.39 -4.70115 -1.18827 0
M  V30 5083 N 456.733 0.527833 -1.48498 0
M  V30 5084 C 457.666 1.64892 -1.57753 0
M  V30 5085 C 458.644 1.5687 -0.427867 0
M  V30 5086 O 459.828 1.77311 -0.639764 0
M  V30 5087 C 456.955 3.03301 -1.50752 0
M  V30 5088 C 456.001 3.29675 -2.70586 0
M  V30 5089 S 456.834 3.15712 -4.32535 0
M  V30 5090 C 457.99 4.56564 -4.28136 0
M  V30 5091 H 458.223 1.56792 -2.52594 0
M  V30 5092 H 455.756 0.710959 -1.37057 0
M  V30 5093 H 457.714 3.83123 -1.474 0
M  V30 5094 H 456.375 3.08839 -0.572454 0
M  V30 5095 H 455.568 4.3065 -2.61833 0
M  V30 5096 H 455.17 2.57526 -2.71212 0
M  V30 5097 H 457.462 5.48126 -3.98201 0
M  V30 5098 H 458.405 4.70371 -5.29298 0
M  V30 5099 H 458.813 4.35987 -3.58574 0
M  V30 5100 N 458.211 1.37122 0.776871 0
M  V30 5101 C 459.441 1.35034 1.56363 0
M  V30 5102 C 459.849 -0.0674681 1.8908 0
M  V30 5103 O 459.192 -1.03826 1.51545 0
M  V30 5104 C 459.254 2.11894 2.90415 0
M  V30 5105 C 458.918 3.60897 2.80362 0
M  V30 5106 C 459.915 4.54887 2.51742 0
M  V30 5107 C 457.6 4.03951 2.98545 0
M  V30 5108 C 459.594 5.89909 2.41426 0
M  V30 5109 C 457.281 5.3906 2.87849 0
M  V30 5110 C 458.279 6.31852 2.5933 0
M  V30 5111 O 457.967 7.64479 2.48651 0
M  V30 5112 H 457.699 0.464402 0.49123 0
M  V30 5113 H 460.253 1.80992 0.971127 0
M  V30 5114 H 458.483 1.60618 3.51765 0
M  V30 5115 H 460.172 2.02505 3.51776 0
M  V30 5116 H 460.938 4.22934 2.37385 0
M  V30 5117 H 456.817 3.3209 3.19746 0
M  V30 5118 H 460.361 6.62304 2.19086 0
M  V30 5119 H 456.258 5.70617 3.01773 0
M  V30 5120 H 457.026 7.74742 2.64039 0
M  V30 5121 N 459.689 -1.00246 1.21608 0
M  V30 5122 C 460.917 -1.77631 1.06089 0
M  V30 5123 C 461.332 -1.84746 -0.38916 0
M  V30 5124 O 460.689 -1.31068 -1.26994 0
M  V30 5125 C 460.74 -3.21415 1.65453 0
M  V30 5126 O 460.461 -3.14703 3.04785 0
M  V30 5127 C 461.962 -4.15289 1.55079 0
M  V30 5128 H 459.182 -0.558162 0.37242 0
M  V30 5129 H 461.726 -1.26093 1.60999 0
M  V30 5130 H 459.881 -3.70053 1.14629 0
M  V30 5131 H 460.295 -4.05056 3.33212 0
M  V30 5132 H 461.769 -5.13965 2.01355 0
M  V30 5133 H 462.246 -4.36279 0.505665 0
M  V30 5134 H 462.852 -3.72543 2.05163 0
M  V30 5135 N 461.167 -1.02423 -1.1978 0
M  V30 5136 C 462.392 -0.7373 -1.93852 0
M  V30 5137 C 462.817 0.696923 -1.74713 0
M  V30 5138 O 462.175 1.48056 -1.04638 0
M  V30 5139 C 462.223 -1.08783 -3.438 0
M  V30 5140 O 461.327 -0.20383 -4.11896 0
M  V30 5141 H 460.668 -0.27284 -0.605355 0
M  V30 5142 H 463.198 -1.36966 -1.51992 0
M  V30 5143 H 463.208 -1.04276 -3.9445 0
M  V30 5144 H 461.883 -2.13274 -3.57053 0
M  V30 5145 H 460.46 -0.307091 -3.71633 0
M  V30 5146 N 462.645 1.35699 -0.801477 0
M  V30 5147 C 463.608 2.28199 -0.213994 0
M  V30 5148 C 464.608 1.49359 0.595691 0
M  V30 5149 O 465.798 1.69186 0.414921 0
M  V30 5150 C 462.93 3.33587 0.702297 0
M  V30 5151 H 464.123 2.81666 -1.02976 0
M  V30 5152 H 461.676 1.45467 -0.571759 0
M  V30 5153 H 462.411 2.85297 1.54195 0
M  V30 5154 H 462.196 3.91906 0.123484 0
M  V30 5155 H 463.686 4.02638 1.10783 0
M  V30 5156 N 464.123 0.554532 1.47522 0
M  V30 5157 C 465.369 0.0295227 2.02779 0
M  V30 5158 C 465.702 -1.31582 1.42828 0
M  V30 5159 O 464.977 -1.85561 0.582872 0
M  V30 5160 C 465.26 -0.0664057 3.60039 0
M  V30 5161 C 465.113 1.30585 4.30427 0
M  V30 5162 C 466.432 -0.781162 4.33112 0
M  V30 5163 H 463.551 0.0122027 0.736899 0
M  V30 5164 H 466.193 0.716305 1.7598 0
M  V30 5165 H 464.343 -0.651307 3.83002 0
M  V30 5166 H 466.015 1.93374 4.18813 0
M  V30 5167 H 464.258 1.88125 3.90886 0
M  V30 5168 H 464.929 1.19147 5.38988 0
M  V30 5169 H 467.405 -0.284565 4.15126 0
M  V30 5170 H 466.281 -0.817237 5.42782 0
M  V30 5171 H 466.542 -1.83672 4.0214 0
M  V30 5172 N 465.601 -1.54893 0.290851 0
M  V30 5173 C 467.017 -1.59476 -0.0628432 0
M  V30 5174 C 467.217 -1.30795 -1.5328 0
M  V30 5175 O 466.273 -1.07644 -2.28406 0
M  V30 5176 C 467.586 -2.98928 0.325962 0
M  V30 5177 C 469.134 -3.11799 0.273882 0
M  V30 5178 C 469.609 -4.53544 0.637359 0
M  V30 5179 N 471.1 -4.59433 0.589507 0
M  V30 5180 C 471.835 -5.67164 0.84335 0
M  V30 5181 N 471.331 -6.82975 1.16263 0
M  V30 5182 N 473.124 -5.56786 0.771091 0
M  V30 5183 H 465.275 -1.71798 1.24896 0
M  V30 5184 H 467.538 -0.801879 0.505663 0
M  V30 5185 H 467.244 -3.24805 1.34887 0
M  V30 5186 H 467.118 -3.75793 -0.325441 0
M  V30 5187 H 469.505 -2.85677 -0.739765 0
M  V30 5188 H 469.586 -2.37112 0.959766 0
M  V30 5189 H 469.23 -4.80394 1.64877 0
M  V30 5190 H 469.16 -5.26553 -0.0704866 0
M  V30 5191 H 471.651 -3.76245 0.353252 0
M  V30 5192 H 471.964 -7.61048 1.34257 0
M  V30 5193 H 470.309 -6.84552 1.20057 0
M  V30 5194 H 473.5 -4.65187 0.521383 0
M  V30 5195 H 473.673 -6.40664 0.972295 0
M  V30 5196 N 467.08 -0.0183926 -1.57589 0
M  V30 5197 C 468.329 0.66185 -1.90532 0
M  V30 5198 C 468.642 1.73904 -0.895366 0
M  V30 5199 O 469.848 2.47518 -1.11566 0
M  V30 5200 C 468.304 1.22844 -3.38286 0
M  V30 5201 C 467.912 0.185103 -4.47617 0
M  V30 5202 C 469.656 1.88581 -3.80312 0
M  V30 5203 C 467.563 0.762723 -5.86461 0
M  V30 5204 H 466.493 0.250972 -0.711006 0
M  V30 5205 H 469.144 -0.0819435 -1.83317 0
M  V30 5206 H 467.526 2.0235 -3.40398 0
M  V30 5207 H 468.7 -0.58671 -4.5705 0
M  V30 5208 H 467.015 -0.372889 -4.14727 0
M  V30 5209 H 469.612 2.32735 -4.81392 0
M  V30 5210 H 469.955 2.72408 -3.14801 0
M  V30 5211 H 470.488 1.15782 -3.80578 0
M  V30 5212 H 467.227 -0.0371713 -6.55489 0
M  V30 5213 H 466.747 1.50327 -5.80656 0
M  V30 5214 H 468.426 1.25576 -6.34697 0
M  V30 5215 N 468.558 1.5553 0.254621 0
M  V30 5216 C 469.783 1.81383 1.00573 0
M  V30 5217 C 470.208 0.594419 1.78461 0
M  V30 5218 O 469.566 -0.456403 1.75461 0
M  V30 5219 C 469.614 3.04892 1.92545 0
M  V30 5220 O 468.718 2.81266 3.01601 0
M  V30 5221 H 468.059 0.598969 0.286587 0
M  V30 5222 H 470.589 2.02703 0.277952 0
M  V30 5223 H 470.599 3.34119 2.34155 0
M  V30 5224 H 469.274 3.93287 1.3527 0
M  V30 5225 H 467.851 2.63185 2.64174 0
M  V30 5226 N 470.036 -0.519951 1.48776 0
M  V30 5227 C 470.999 -1.60574 1.6355 0
M  V30 5228 C 471.999 -1.52557 0.508234 0
M  V30 5229 O 473.189 -1.56047 0.774262 0
M  V30 5230 C 470.321 -3.00211 1.61512 0
M  V30 5231 H 471.514 -1.4881 2.60376 0
M  V30 5232 H 469.067 -0.742772 1.37523 0
M  V30 5233 H 469.802 -3.17471 0.662009 0
M  V30 5234 H 469.587 -3.07439 2.43359 0
M  V30 5235 H 471.077 -3.79134 1.75064 0
M  V30 5236 N 471.514 -1.37532 -0.769588 0
M  V30 5237 C 472.93 -1.18379 -1.07045 0
M  V30 5238 C 473.13 -0.0214312 -2.01489 0
M  V30 5239 O 472.186 0.637809 -2.44312 0
M  V30 5240 C 473.499 -2.50338 -1.66588 0
M  V30 5241 C 475.047 -2.56879 -1.78835 0
M  V30 5242 C 475.522 -3.88974 -2.41792 0
M  V30 5243 N 477.013 -3.90428 -2.4924 0
M  V30 5244 C 477.748 -4.89388 -2.98809 0
M  V30 5245 N 477.244 -5.98745 -3.48535 0
M  V30 5246 N 479.037 -4.76791 -2.97703 0
M  V30 5247 H 471.188 -2.11921 -0.142541 0
M  V30 5248 H 473.451 -0.939608 -0.125863 0
M  V30 5249 H 473.157 -3.35767 -1.0466 0
M  V30 5250 H 473.031 -2.67583 -2.65856 0
M  V30 5251 H 475.418 -1.71856 -2.39895 0
M  V30 5252 H 475.499 -2.43516 -0.783166 0
M  V30 5253 H 475.143 -4.74412 -1.81371 0
M  V30 5254 H 475.073 -3.99641 -3.4292 0
M  V30 5255 H 477.564 -3.11433 -2.14052 0
M  V30 5256 H 477.877 -6.70205 -3.84767 0
M  V30 5257 H 476.222 -6.02387 -3.46634 0
M  V30 5258 H 479.413 -3.90478 -2.58157 0
M  V30 5259 H 479.586 -5.54069 -3.36024 0
M  V30 5260 N 472.992 0.995999 -1.22138 0
M  V30 5261 C 474.269 1.70834 -0.952642 0
M  V30 5262 C 474.649 2.04257 0.533119 0
M  V30 5263 O 473.997 1.72343 1.50034 0
M  V30 5264 C 474.207 2.96119 -1.84701 0
M  V30 5265 C 475.555 3.68962 -2.10124 0
M  V30 5266 O 476.579 3.0612 -1.82124 0
M  V30 5267 O 475.438 4.82017 -2.57531 0
M  V30 5268 H 472.532 0.745498 -0.357997 0
M  V30 5269 H 475.078 1.05262 -1.33109 0
M  V30 5270 H 473.85 2.67898 -2.85213 0
M  V30 5271 H 473.473 3.6943 -1.46995 0
M  V30 5272 N 474.47 1.03057 1.19235 0
M  V30 5273 C 475.433 0.617418 2.20727 0
M  V30 5274 C 476.433 -0.319856 1.57587 0
M  V30 5275 O 477.623 -0.106633 1.73873 0
M  V30 5276 C 474.755 -0.096296 3.40764 0
M  V30 5277 H 475.948 1.51544 2.58794 0
M  V30 5278 H 473.501 0.821949 1.32942 0
M  V30 5279 H 474.236 -1.00859 3.08217 0
M  V30 5280 H 474.021 0.577217 3.87828 0
M  V30 5281 H 475.511 -0.372219 4.15938 0
M  V30 5282 N 475.948 -1.35272 0.808662 0
M  V30 5283 C 476.878 -2.32315 0.234981 0
M  V30 5284 C 477.859 -1.57572 -0.64071 0
M  V30 5285 O 479.044 -1.8563 -0.570551 0
M  V30 5286 C 476.174 -3.41801 -0.615601 0
M  V30 5287 C 475.128 -4.27694 0.161767 0
M  V30 5288 C 474.454 -5.28519 -0.810649 0
M  V30 5289 C 475.754 -5.04231 1.36193 0
M  V30 5290 H 477.448 -2.80543 1.04575 0
M  V30 5291 H 474.994 -1.3488 0.504315 0
M  V30 5292 H 476.947 -4.08693 -1.02702 0
M  V30 5293 H 475.671 -2.92186 -1.45928 0
M  V30 5294 H 474.33 -3.62384 0.554382 0
M  V30 5295 H 473.978 -4.75171 -1.64988 0
M  V30 5296 H 473.678 -5.8686 -0.294822 0
M  V30 5297 H 475.202 -5.98283 -1.22023 0
M  V30 5298 H 476.616 -5.64058 1.02528 0
M  V30 5299 H 475.013 -5.72077 1.81239 0
M  V30 5300 H 476.083 -4.34753 2.14751 0
M  V30 5301 N 477.426 -0.562348 -1.47226 0
M  V30 5302 C 478.336 0.185466 -2.33866 0
M  V30 5303 C 479.352 0.906713 -1.48508 0
M  V30 5304 O 480.528 0.874458 -1.81425 0
M  V30 5305 C 477.593 1.19904 -3.25306 0
M  V30 5306 C 476.654 0.484669 -4.26555 0
M  V30 5307 C 475.887 1.44996 -5.13626 0
M  V30 5308 O 476.11 2.68515 -5.03245 0
M  V30 5309 O 475.044 0.971642 -5.94006 0
M  V30 5310 H 478.87 -0.525361 -2.99121 0
M  V30 5311 H 476.455 -0.322916 -1.45868 0
M  V30 5312 H 478.337 1.78399 -3.81774 0
M  V30 5313 H 477.012 1.8917 -2.62672 0
M  V30 5314 H 475.919 -0.141605 -3.73832 0
M  V30 5315 H 477.252 -0.166634 -4.91918 0
M  V30 5316 N 478.904 1.54736 -0.299062 0
M  V30 5317 C 479.854 2.20155 0.592932 0
M  V30 5318 C 480.838 1.1739 1.10038 0
M  V30 5319 O 482.03 1.43116 1.04147 0
M  V30 5320 C 479.159 2.94437 1.76527 0
M  V30 5321 C 478.245 4.04516 1.27388 0
M  V30 5322 N 478.636 5.03319 0.500339 0
M  V30 5323 C 476.934 4.18022 1.55478 0
M  V30 5324 C 477.635 5.81209 0.238909 0
M  V30 5325 N 476.611 5.37408 0.818163 0
M  V30 5326 H 480.413 2.93899 -0.00563596 0
M  V30 5327 H 477.927 1.62068 -0.103732 0
M  V30 5328 H 479.924 3.3977 2.41582 0
M  V30 5329 H 478.584 2.22209 2.36756 0
M  V30 5330 H 479.595 5.17696 0.145419 0
M  V30 5331 H 476.272 3.56998 2.16469 0
M  V30 5332 H 477.662 6.70812 -0.382223 0
M  V30 5333 N 480.382 0.0267497 1.57577 0
M  V30 5334 C 481.292 -0.971633 2.13533 0
M  V30 5335 C 482.308 -1.35868 1.08701 0
M  V30 5336 O 483.484 -1.44058 1.40746 0
M  V30 5337 C 480.549 -2.23622 2.64941 0
M  V30 5338 C 479.61 -1.90982 3.8448 0
M  V30 5339 C 478.843 -3.11411 4.33427 0
M  V30 5340 O 479.066 -4.23992 3.81558 0
M  V30 5341 O 478 -2.93848 5.25297 0
M  V30 5342 H 481.826 -0.525853 2.99113 0
M  V30 5343 H 479.411 -0.193712 1.48139 0
M  V30 5344 H 481.293 -2.97864 2.98086 0
M  V30 5345 H 479.968 -2.67386 1.82446 0
M  V30 5346 H 478.875 -1.14132 3.56265 0
M  V30 5347 H 480.208 -1.52036 4.6813 0
M  V30 5348 N 481.861 -1.55662 -0.24637 0
M  V30 5349 C 483.107 -1.78698 -0.971525 0
M  V30 5350 C 483.462 -0.59577 -1.82944 0
M  V30 5351 O 482.755 0.41097 -1.87141 0
M  V30 5352 C 482.949 -3.04885 -1.86494 0
M  V30 5353 C 482.778 -4.36165 -1.09501 0
M  V30 5354 C 481.548 -4.98929 -0.799895 0
M  V30 5355 C 483.746 -5.12126 -0.472334 0
M  V30 5356 N 481.728 -6.139 -0.00595299 0
M  V30 5357 C 483.099 -6.1972 0.18616 0
M  V30 5358 C 485.154 -4.96426 -0.382854 0
M  V30 5359 C 483.857 -7.13321 0.925542 0
M  V30 5360 C 485.883 -5.90405 0.342999 0
M  V30 5361 C 485.245 -6.97407 0.990128 0
M  V30 5362 H 481.344 -0.705852 -0.336597 0
M  V30 5363 H 483.928 -1.93157 -0.244615 0
M  V30 5364 H 482.099 -2.91753 -2.56388 0
M  V30 5365 H 483.831 -3.16212 -2.5257 0
M  V30 5366 H 480.586 -4.60365 -1.11181 0
M  V30 5367 H 481.01 -6.75938 0.379127 0
M  V30 5368 H 485.652 -4.13777 -0.868834 0
M  V30 5369 H 483.37 -7.9547 1.42312 0
M  V30 5370 H 486.956 -5.80333 0.412907 0
M  V30 5371 H 485.836 -7.68874 1.54282 0
M  V30 5372 N 483.339 0.512053 -1.4905 0
M  V30 5373 C 484.588 1.26343 -1.57227 0
M  V30 5374 C 484.901 1.93876 -0.259155 0
M  V30 5375 O 486.107 2.70612 -0.219358 0
M  V30 5376 C 484.563 2.29343 -2.77362 0
M  V30 5377 C 484.171 1.67799 -4.15388 0
M  V30 5378 C 485.915 3.05378 -2.94864 0
M  V30 5379 C 483.822 2.68845 -5.2676 0
M  V30 5380 H 482.752 0.475231 -0.585382 0
M  V30 5381 H 485.403 0.53862 -1.75417 0
M  V30 5382 H 483.785 3.04938 -2.52643 0
M  V30 5383 H 484.959 0.982715 -4.50199 0
M  V30 5384 H 483.274 1.04194 -4.03153 0
M  V30 5385 H 485.871 3.80921 -3.75238 0
M  V30 5386 H 486.214 3.62327 -2.05 0
M  V30 5387 H 486.747 2.36898 -3.19569 0
M  V30 5388 H 483.486 2.16692 -6.18647 0
M  V30 5389 H 483.006 3.36647 -4.96416 0
M  V30 5390 H 484.685 3.31487 -5.5563 0
M  V30 5391 N 484.817 1.37938 0.762283 0
M  V30 5392 C 485.764 1.34467 1.87583 0
M  V30 5393 C 486.734 0.208633 1.64785 0
M  V30 5394 O 487.919 0.399494 1.86571 0
M  V30 5395 C 485.059 1.16692 3.24772 0
M  V30 5396 C 484.172 2.39608 3.59461 0
M  V30 5397 C 483.307 2.14631 4.85908 0
M  V30 5398 C 482.346 3.33364 5.13357 0
M  V30 5399 N 481.483 3.07877 6.30996 0
M  V30 5400 H 486.323 2.29669 1.89885 0
M  V30 5401 H 483.86 1.14116 0.928219 0
M  V30 5402 H 485.818 1.04405 4.03925 0
M  V30 5403 H 484.448 0.251333 3.2182 0
M  V30 5404 H 483.5 2.626 2.75219 0
M  V30 5405 H 484.812 3.28128 3.75678 0
M  V30 5406 H 483.966 1.99429 5.72986 0
M  V30 5407 H 482.705 1.23463 4.71814 0
M  V30 5408 H 481.71 3.49094 4.24751 0
M  V30 5409 H 482.935 4.25395 5.29354 0
M  V30 5410 H 480.881 2.19348 6.18241 0
M  V30 5411 H 480.798 3.89944 6.47673 0
M  V30 5412 H 482.066 2.96313 7.20985 0
M  V30 5413 N 486.295 -0.989507 1.22664 0
M  V30 5414 C 487.228 -2.07805 0.942985 0
M  V30 5415 C 488.206 -1.6219 -0.115356 0
M  V30 5416 O 489.39 -1.88492 0.0169565 0
M  V30 5417 C 486.517 -3.361 0.418898 0
M  V30 5418 C 485.563 -4.00643 1.46244 0
M  V30 5419 S 486.396 -4.41059 3.03689 0
M  V30 5420 C 487.552 -5.7252 2.52927 0
M  V30 5421 H 487.785 -2.31547 1.86476 0
M  V30 5422 H 485.318 -1.12446 1.05808 0
M  V30 5423 H 487.276 -4.10315 0.123114 0
M  V30 5424 H 485.937 -3.10383 -0.481818 0
M  V30 5425 H 485.13 -4.93033 1.04569 0
M  V30 5426 H 484.732 -3.32767 1.7071 0
M  V30 5427 H 487.024 -6.49017 1.94379 0
M  V30 5428 H 487.967 -6.19026 3.4382 0
M  V30 5429 H 488.375 -5.30083 1.94094 0
M  V30 5430 N 487.773 -1.03688 -1.18687 0
M  V30 5431 C 488.706 -0.569112 -2.2099 0
M  V30 5432 C 489.684 0.394315 -1.57746 0
M  V30 5433 O 490.868 0.309519 -1.85941 0
M  V30 5434 C 487.995 0.169104 -3.38278 0
M  V30 5435 C 487.041 -0.746989 -4.19908 0
M  V30 5436 S 487.874 -2.22773 -4.86963 0
M  V30 5437 C 489.03 -1.50025 -6.07654 0
M  V30 5438 H 489.263 -1.43589 -2.60326 0
M  V30 5439 H 486.796 -0.847507 -1.29061 0
M  V30 5440 H 488.754 0.588868 -4.06254 0
M  V30 5441 H 487.415 1.01172 -2.9736 0
M  V30 5442 H 486.608 -0.176626 -5.0369 0
M  V30 5443 H 486.21 -1.10543 -3.5729 0
M  V30 5444 H 488.502 -0.791217 -6.72864 0
M  V30 5445 H 489.445 -2.31498 -6.69189 0
M  V30 5446 H 489.853 -0.994245 -5.55675 0
M  V30 5447 N 489.251 1.34841 -0.815825 0
M  V30 5448 C 490.479 2.0273 -0.413294 0
M  V30 5449 C 490.894 1.61459 0.978599 0
M  V30 5450 O 490.251 0.816584 1.63212 0
M  V30 5451 C 490.302 3.58058 -0.497676 0
M  V30 5452 O 490.023 3.97832 -1.8347 0
M  V30 5453 C 491.524 4.4321 -0.0891339 0
M  V30 5454 H 488.744 0.649956 -0.166728 0
M  V30 5455 H 491.288 1.72267 -1.10201 0
M  V30 5456 H 489.443 3.87136 0.142886 0
M  V30 5457 H 489.857 4.92501 -1.80396 0
M  V30 5458 H 491.331 5.5164 -0.199274 0
M  V30 5459 H 491.808 4.28432 0.966571 0
M  V30 5460 H 492.414 4.19446 -0.703214 0
M  V30 5461 N 490.729 0.570148 1.46925 0
M  V30 5462 C 491.954 0.0542592 2.07329 0
M  V30 5463 C 492.379 -1.23582 1.41806 0
M  V30 5464 O 491.737 -1.74341 0.497479 0
M  V30 5465 C 491.785 -0.111175 3.60429 0
M  V30 5466 O 490.889 -1.17071 3.95434 0
M  V30 5467 H 490.23 0.0571425 0.661537 0
M  V30 5468 H 492.76 0.789516 1.88753 0
M  V30 5469 H 492.77 -0.321315 4.06733 0
M  V30 5470 H 491.445 0.831012 4.07513 0
M  V30 5471 H 490.022 -0.940029 3.60857 0
M  V30 5472 N 492.207 -1.54576 0.307264 0
M  V30 5473 C 493.154 -2.23751 -0.56604 0
M  V30 5474 C 494.124 -1.22235 -1.12462 0
M  V30 5475 O 495.309 -1.50873 -1.16799 0
M  V30 5476 C 492.449 -2.98661 -1.72903 0
M  V30 5477 C 491.562 -4.14963 -1.20124 0
M  V30 5478 C 490.697 -4.77441 -2.3286 0
M  V30 5479 C 489.736 -5.85875 -1.77247 0
M  V30 5480 N 488.873 -6.42282 -2.8358 0
M  V30 5481 H 493.713 -2.97984 0.0304578 0
M  V30 5482 H 491.25 -1.47076 0.0268015 0
M  V30 5483 H 493.208 -3.40329 -2.41313 0
M  V30 5484 H 491.838 -2.26793 -2.29706 0
M  V30 5485 H 490.89 -3.78193 -0.409198 0
M  V30 5486 H 492.202 -4.93066 -0.754171 0
M  V30 5487 H 491.356 -5.21993 -3.09205 0
M  V30 5488 H 490.095 -3.98684 -2.80896 0
M  V30 5489 H 489.1 -5.40741 -0.993926 0
M  V30 5490 H 490.325 -6.6652 -1.30107 0
M  V30 5491 H 488.271 -5.66406 -3.30939 0
M  V30 5492 H 488.188 -7.1575 -2.43388 0
M  V30 5493 H 489.456 -6.91492 -3.59804 0
M  V30 5494 N 493.685 -0.035106 -1.57561 0
M  V30 5495 C 494.962 0.681212 -1.83354 0
M  V30 5496 C 495.342 1.89986 -0.920252 0
M  V30 5497 O 494.69 2.28489 0.0226815 0
M  V30 5498 C 494.9 1.05376 -3.32712 0
M  V30 5499 C 496.248 1.44286 -3.99333 0
M  V30 5500 O 497.272 1.14656 -3.37242 0
M  V30 5501 O 496.131 1.99518 -5.08778 0
M  V30 5502 H 493.225 0.334741 -0.756226 0
M  V30 5503 H 495.771 -0.0632448 -1.69582 0
M  V30 5504 H 494.543 0.186668 -3.90854 0
M  V30 5505 H 494.166 1.85619 -3.51613 0
M  V30 5506 N 495.163 1.55791 0.238111 0
M  V30 5507 C 496.111 1.91885 1.31464 0
M  V30 5508 C 497.105 0.798929 1.49377 0
M  V30 5509 O 498.311 0.983626 1.50747 0
M  V30 5510 H 494.686 0.609551 0.440399 0
M  V30 5511 H 496.657 2.81747 0.982925 0
M  V30 5512 C 495.406 2.23763 2.6613 0
M  V30 5513 H 494.729 3.09444 2.53149 0
M  V30 5514 H 496.169 2.52915 3.40309 0
M  V30 5515 C 494.628 1.05699 3.1989 0
M  V30 5516 O 495.158 0.309524 4.00506 0
M  V30 5517 N 493.364 0.845251 2.78036 0
M  V30 5518 H 492.911 1.4548 2.12588 0
M  V30 5519 H 492.869 0.0569973 3.14348 0
M  V30 5520 N 496.642 -0.504142 1.49319 0
M  V30 5521 C 497.572 -1.61473 1.68667 0
M  V30 5522 C 498.553 -1.61455 0.535378 0
M  V30 5523 O 499.738 -1.78245 0.770868 0
M  V30 5524 C 496.868 -2.99971 1.75028 0
M  V30 5525 C 495.822 -3.14854 2.89916 0
M  V30 5526 C 495.148 -4.54671 2.81387 0
M  V30 5527 C 496.448 -2.95176 4.30893 0
M  V30 5528 H 498.142 -1.45535 2.61648 0
M  V30 5529 H 495.688 -0.698711 1.25913 0
M  V30 5530 H 497.641 -3.77562 1.8715 0
M  V30 5531 H 496.365 -3.1699 0.786441 0
M  V30 5532 H 495.024 -2.39687 2.77391 0
M  V30 5533 H 494.672 -4.68562 1.82917 0
M  V30 5534 H 494.372 -4.6557 3.58494 0
M  V30 5535 H 495.896 -5.34327 2.95512 0
M  V30 5536 H 497.31 -3.62538 4.44116 0
M  V30 5537 H 495.707 -3.17549 5.09198 0
M  V30 5538 H 496.777 -1.91332 4.45556 0
M  V30 5539 N 498.12 -1.38341 -0.754957 0
M  V30 5540 C 499.068 -1.35573 -1.89005 0
M  V30 5541 C 500.062 -0.241824 -1.67665 0
M  V30 5542 O 501.268 -0.410785 -1.7525 0
M  V30 5543 H 497.643 -0.422898 -0.621821 0
M  V30 5544 H 499.614 -2.31359 -1.88455 0
M  V30 5545 C 498.363 -1.19631 -3.26471 0
M  V30 5546 H 497.686 -2.04605 -3.43477 0
M  V30 5547 H 499.126 -1.21748 -4.06144 0
M  V30 5548 C 497.585 0.0968705 -3.36761 0
M  V30 5549 O 498.115 1.07439 -3.87066 0
M  V30 5550 N 496.321 0.153242 -2.90196 0
M  V30 5551 H 495.868 -0.642908 -2.49448 0
M  V30 5552 H 495.826 1.01807 -2.9746 0
M  V30 5553 N 499.598 0.982988 -1.23187 0
M  V30 5554 C 500.847 1.71817 -1.05649 0
M  V30 5555 C 501.16 1.91315 0.407176 0
M  V30 5556 O 502.366 2.62256 0.702436 0
M  V30 5557 C 500.822 3.09188 -1.84203 0
M  V30 5558 C 500.43 2.97586 -3.34882 0
M  V30 5559 C 502.174 3.86684 -1.75146 0
M  V30 5560 C 500.081 4.30173 -4.05839 0
M  V30 5561 H 499.011 0.644258 -0.391724 0
M  V30 5562 H 501.662 1.09659 -1.4713 0
M  V30 5563 H 500.044 3.72087 -1.35527 0
M  V30 5564 H 501.218 2.43793 -3.91026 0
M  V30 5565 H 499.533 2.33567 -3.44725 0
M  V30 5566 H 502.13 4.84836 -2.25473 0
M  V30 5567 H 502.473 4.10136 -0.713737 0
M  V30 5568 H 503.006 3.30482 -2.21419 0
M  V30 5569 H 499.745 4.11918 -5.09906 0
M  V30 5570 H 499.265 4.83841 -3.54482 0
M  V30 5571 H 500.944 4.98873 -4.11989 0
M  V30 5572 N 501.076 1.04316 1.18135 0
M  V30 5573 C 502.353 0.662166 1.84051 0
M  V30 5574 C 502.733 -0.858169 1.9287 0
M  V30 5575 O 502.081 -1.76062 1.45652 0
M  V30 5576 C 502.291 1.3409 3.22212 0
M  V30 5577 C 503.639 1.4733 3.9822 0
M  V30 5578 O 504.663 1.29921 3.31661 0
M  V30 5579 O 503.522 1.75722 5.17479 0
M  V30 5580 H 500.616 0.232005 0.79379 0
M  V30 5581 H 503.162 1.1422 1.25506 0
M  V30 5582 H 501.934 2.37853 3.10711 0
M  V30 5583 H 501.557 0.849649 3.88416 0
M  V30 5584 N 502.554 -1.34406 0.822964 0
M  V30 5585 C 503.803 -1.97542 0.407458 0
M  V30 5586 C 504.116 -1.65973 -1.035 0
M  V30 5587 O 505.322 -2.22598 -1.55442 0
M  V30 5588 C 503.778 -3.53463 0.677623 0
M  V30 5589 C 503.386 -3.93925 2.1337 0
M  V30 5590 C 505.13 -4.23229 0.328284 0
M  V30 5591 C 503.037 -5.42759 2.34876 0
M  V30 5592 H 501.967 -0.739207 0.148623 0
M  V30 5593 H 504.618 -1.53248 1.00932 0
M  V30 5594 H 503 -3.96 0.00558965 0
M  V30 5595 H 504.174 -3.62494 2.8449 0
M  V30 5596 H 502.489 -3.37097 2.44448 0
M  V30 5597 H 505.086 -5.32659 0.466794 0
M  V30 5598 H 505.429 -4.09899 -0.727224 0
M  V30 5599 H 505.962 -3.86169 0.954896 0
M  V30 5600 H 502.701 -5.61075 3.38932 0
M  V30 5601 H 502.221 -5.75704 1.68299 0
M  V30 5602 H 503.9 -6.0944 2.17236 0
M  V30 5603 N 504.032 -0.577932 -1.46621 0
M  V30 5604 C 505.443 -0.150071 -1.86096 0
M  V30 5605 C 505.794 1.28563 -1.48209 0
M  V30 5606 O 504.919 1.97036 -0.894754 0
M  V30 5607 C 505.514 -0.265576 -3.37758 0
M  V30 5608 C 504.073 0.10738 -3.76247 0
M  V30 5609 C 503.22 -0.603711 -2.70649 0
M  V30 5610 H 506.171 -0.786438 -1.37844 0
M  V30 5611 H 506.192 0.510352 -3.77062 0
M  V30 5612 H 505.704 -1.3106 -3.65301 0
M  V30 5613 H 503.805 1.15272 -3.54321 0
M  V30 5614 H 503.918 -0.26561 -4.78363 0
M  V30 5615 H 502.282 -0.0444884 -2.54661 0
M  V30 5616 H 503.065 -1.65029 -3.01032 0
M  V30 5617 N 505.51 1.54411 -0.315457 0
M  V30 5618 C 506.735 2.05299 0.294496 0
M  V30 5619 C 507.16 1.19052 1.4563 0
M  V30 5620 O 506.518 0.197804 1.80218 0
M  V30 5621 C 506.566 3.5345 0.714549 0
M  V30 5622 O 505.67 3.70175 1.81781 0
M  V30 5623 H 505.011 0.661743 0.0547019 0
M  V30 5624 H 507.541 1.99327 -0.461508 0
M  V30 5625 H 507.551 3.9557 0.999426 0
M  V30 5626 H 506.226 4.1568 -0.135244 0
M  V30 5627 H 504.803 3.3996 1.53236 0
M  V30 5628 N 506.988 0.0434614 1.5754 0
M  V30 5629 C 507.918 -0.931651 2.14109 0
M  V30 5630 C 508.899 -1.32971 1.06079 0
M  V30 5631 O 510.084 -1.40579 1.33982 0
M  V30 5632 C 507.214 -2.20914 2.67982 0
M  V30 5633 C 506.168 -1.95139 3.80926 0
M  V30 5634 C 505.494 -3.29276 4.21285 0
M  V30 5635 C 506.794 -1.27913 5.06395 0
M  V30 5636 H 508.488 -0.460497 2.95837 0
M  V30 5637 H 506.034 -0.220058 1.42309 0
M  V30 5638 H 507.987 -2.89522 3.06194 0
M  V30 5639 H 506.711 -2.70221 1.83434 0
M  V30 5640 H 505.37 -1.28945 3.43175 0
M  V30 5641 H 505.018 -3.76369 3.33699 0
M  V30 5642 H 504.718 -3.12831 4.97404 0
M  V30 5643 H 506.242 -3.99129 4.62091 0
M  V30 5644 H 507.656 -1.86544 5.42102 0
M  V30 5645 H 506.053 -1.2182 5.87605 0
M  V30 5646 H 507.123 -0.254066 4.84234 0
M  V30 5647 N 508.466 -1.55915 -0.229846 0
M  V30 5648 C 509.376 -1.94891 -1.30593 0
M  V30 5649 C 510.392 -0.851604 -1.51736 0
M  V30 5650 O 511.568 -1.15447 -1.65027 0
M  V30 5651 C 508.633 -2.25052 -2.63728 0
M  V30 5652 C 507.694 -3.48306 -2.5096 0
M  V30 5653 C 506.927 -3.77019 -3.77747 0
M  V30 5654 O 507.15 -3.07534 -4.80395 0
M  V30 5655 O 506.084 -4.70523 -3.75356 0
M  V30 5656 H 509.91 -2.86581 -1.00525 0
M  V30 5657 H 507.495 -1.43017 -0.432025 0
M  V30 5658 H 509.377 -2.45682 -3.42372 0
M  V30 5659 H 508.052 -1.36538 -2.93495 0
M  V30 5660 H 506.959 -3.32964 -1.70546 0
M  V30 5661 H 508.292 -4.37177 -2.26136 0
M  V30 5662 N 509.944 0.496216 -1.49584 0
M  V30 5663 C 510.874 1.60576 -1.69521 0
M  V30 5664 C 511.855 1.61169 -0.543933 0
M  V30 5665 O 513.04 1.77834 -0.78031 0
M  V30 5666 C 510.17 2.99038 -1.76616 0
M  V30 5667 C 509.124 3.13312 -2.91581 0
M  V30 5668 C 508.45 4.53172 -2.83794 0
M  V30 5669 C 509.75 2.92886 -4.32452 0
M  V30 5670 H 511.444 1.44146 -2.62416 0
M  V30 5671 H 508.99 0.692024 -1.26282 0
M  V30 5672 H 510.943 3.76564 -1.8915 0
M  V30 5673 H 509.667 3.16568 -0.80324 0
M  V30 5674 H 508.326 2.38213 -2.78658 0
M  V30 5675 H 507.974 4.67585 -1.854 0
M  V30 5676 H 507.674 4.63662 -3.60958 0
M  V30 5677 H 509.198 5.32752 -2.98342 0
M  V30 5678 H 510.612 3.60178 -4.46032 0
M  V30 5679 H 509.009 3.14844 -5.10875 0
M  V30 5680 H 510.079 1.88966 -4.46565 0
M  V30 5681 N 511.423 1.38739 0.74761 0
M  V30 5682 C 512.648 1.38702 1.54197 0
M  V30 5683 C 513.073 -0.019664 1.8809 0
M  V30 5684 O 512.431 -1.00333 1.51006 0
M  V30 5685 C 512.479 2.25492 2.814 0
M  V30 5686 O 511.583 1.67613 3.76802 0
M  V30 5687 H 510.924 0.472863 0.466151 0
M  V30 5688 H 513.454 1.82577 0.923413 0
M  V30 5689 H 513.464 2.39561 3.30264 0
M  V30 5690 H 512.139 3.27727 2.56062 0
M  V30 5691 H 510.716 1.62718 3.35526 0
M  V30 5692 N 512.901 -0.976442 1.23707 0
M  V30 5693 C 514.15 -1.71254 1.06559 0
M  V30 5694 C 514.463 -1.91528 -0.397024 0
M  V30 5695 O 515.669 -2.62625 -0.688518 0
M  V30 5696 C 514.125 -3.08207 1.8584 0
M  V30 5697 C 513.733 -2.95806 3.36456 0
M  V30 5698 C 515.477 -3.85749 1.77194 0
M  V30 5699 C 513.384 -4.28015 4.08114 0
M  V30 5700 H 512.314 -0.642171 0.395136 0
M  V30 5701 H 514.965 -1.08877 1.4771 0
M  V30 5702 H 513.347 -3.71363 1.37498 0
M  V30 5703 H 514.521 -2.41716 3.92314 0
M  V30 5704 H 512.836 -2.31736 3.45959 0
M  V30 5705 H 515.433 -4.83633 2.28041 0
M  V30 5706 H 515.776 -4.09752 0.735477 0
M  V30 5707 H 516.309 -3.29303 2.23169 0
M  V30 5708 H 513.048 -4.09208 5.12083 0
M  V30 5709 H 512.568 -4.81955 3.57043 0
M  V30 5710 H 514.247 -4.96681 4.14629 0
M  V30 5711 N 514.379 -1.04941 -1.1758 0
M  V30 5712 C 515.342 -0.652456 -2.19717 0
M  V30 5713 C 516.342 0.294745 -1.58076 0
M  V30 5714 O 517.532 0.0789579 -1.74021 0
M  V30 5715 C 514.664 0.0420712 -3.40874 0
M  V30 5716 H 515.857 -1.55642 -2.5635 0
M  V30 5717 H 513.41 -0.842995 -1.31618 0
M  V30 5718 H 514.145 0.95943 -3.09783 0
M  V30 5719 H 513.93 -0.638844 -3.86861 0
M  V30 5720 H 515.42 0.306 -4.16477 0
M  V30 5721 N 515.857 1.33968 -0.830081 0
M  V30 5722 C 516.805 2.31301 -0.245435 0
M  V30 5723 C 517.799 1.57734 0.617762 0
M  V30 5724 O 519.005 1.72674 0.508303 0
M  V30 5725 H 515.38 0.749552 -0.0606316 0
M  V30 5726 H 517.351 2.78129 -1.08105 0
M  V30 5727 C 516.1 3.42961 0.572084 0
M  V30 5728 H 515.423 3.99714 -0.0828118 0
M  V30 5729 H 516.863 4.13286 0.94715 0
M  V30 5730 C 515.322 2.88043 1.74737 0
M  V30 5731 O 515.852 2.83508 2.8458 0
M  V30 5732 N 514.058 2.44768 1.56642 0
M  V30 5733 H 513.605 2.48656 0.672901 0
M  V30 5734 H 513.563 2.08375 2.3543 0
M  V30 5735 N 517.335 0.585699 1.46312 0
M  V30 5736 C 518.584 0.0701192 2.01578 0
M  V30 5737 C 518.897 -1.29889 1.46247 0
M  V30 5738 O 520.103 -1.90598 1.93351 0
M  V30 5739 C 518.559 0.0747499 3.59822 0
M  V30 5740 C 518.167 1.44226 4.24149 0
M  V30 5741 C 519.911 -0.38673 4.22735 0
M  V30 5742 C 517.818 1.40446 5.74481 0
M  V30 5743 H 516.748 0.0224441 0.753666 0
M  V30 5744 H 519.399 0.737789 1.68015 0
M  V30 5745 H 517.781 -0.659144 3.90476 0
M  V30 5746 H 518.955 2.19612 4.05101 0
M  V30 5747 H 517.27 1.84401 3.73343 0
M  V30 5748 H 519.867 -0.433853 5.32937 0
M  V30 5749 H 520.21 -1.40489 3.91878 0
M  V30 5750 H 520.743 0.293195 3.96718 0
M  V30 5751 H 517.482 2.39952 6.10003 0
M  V30 5752 H 517.002 0.692845 5.95785 0
M  V30 5753 H 518.681 1.11865 6.37256 0
M  V30 5754 N 518.813 -1.54241 0.323641 0
M  V30 5755 C 520.229 -1.59574 -0.0290018 0
M  V30 5756 C 520.429 -1.34017 -1.50472 0
M  V30 5757 O 519.485 -1.12464 -2.26071 0
M  V30 5758 C 520.798 -2.98169 0.389295 0
M  V30 5759 C 522.346 -3.11148 0.339958 0
M  V30 5760 C 522.821 -4.5209 0.733418 0
M  V30 5761 N 524.312 -4.5808 0.686827 0
M  V30 5762 C 525.047 -5.65248 0.963464 0
M  V30 5763 N 524.543 -6.80355 1.30724 0
M  V30 5764 N 526.336 -5.55025 0.88902 0
M  V30 5765 H 518.487 -1.6911 1.28512 0
M  V30 5766 H 520.75 -0.790972 0.522558 0
M  V30 5767 H 520.456 -3.21871 1.41746 0
M  V30 5768 H 520.33 -3.76399 -0.245657 0
M  V30 5769 H 522.717 -2.87182 -0.679002 0
M  V30 5770 H 522.798 -2.35023 1.00985 0
M  V30 5771 H 522.442 -4.76788 1.75029 0
M  V30 5772 H 522.372 -5.26584 0.0412189 0
M  V30 5773 H 524.863 -3.75411 0.43298 0
M  V30 5774 H 525.176 -7.58029 1.5037 0
M  V30 5775 H 523.521 -6.81851 1.3455 0
M  V30 5776 H 526.712 -4.63977 0.619939 0
M  V30 5777 H 526.885 -6.38458 1.10797 0
M  V30 5778 N 520.291 -0.0518155 -1.57515 0
M  V30 5779 C 521.223 0.951542 -2.08515 0
M  V30 5780 C 522.236 1.27436 -1.01311 0
M  V30 5781 O 523.425 1.23504 -1.28876 0
M  V30 5782 C 520.525 2.27291 -2.5138 0
M  V30 5783 C 519.698 2.13191 -3.81927 0
M  V30 5784 C 518.757 3.28458 -4.11098 0
M  V30 5785 O 517.783 3.04334 -4.81009 0
M  V30 5786 N 518.985 4.52954 -3.63061 0
M  V30 5787 H 521.75 0.516242 -2.9522 0
M  V30 5788 H 519.311 0.13441 -1.61341 0
M  V30 5789 H 521.303 3.03272 -2.67971 0
M  V30 5790 H 519.873 2.62386 -1.69919 0
M  V30 5791 H 519.093 1.21798 -3.74912 0
M  V30 5792 H 520.381 2.00999 -4.67415 0
M  V30 5793 H 519.779 4.75444 -3.06545 0
M  V30 5794 H 518.336 5.26026 -3.84889 0
M  V30 5795 N 521.769 1.56035 0.221574 0
M  V30 5796 C 523.016 1.79047 0.94597 0
M  V30 5797 C 523.344 0.62057 1.84334 0
M  V30 5798 O 522.599 -0.395053 1.91671 0
M  V30 5799 C 522.898 3.07813 1.8162 0
M  V30 5800 C 522.564 4.3797 1.07206 0
M  V30 5801 C 521.226 4.73334 0.866508 0
M  V30 5802 C 523.578 5.18326 0.546565 0
M  V30 5803 C 520.906 5.8657 0.123549 0
M  V30 5804 C 523.258 6.32335 -0.18305 0
M  V30 5805 C 521.922 6.66301 -0.399861 0
M  V30 5806 H 521.192 0.655178 0.346155 0
M  V30 5807 H 523.839 1.90299 0.214146 0
M  V30 5808 H 522.144 2.91682 2.61589 0
M  V30 5809 H 523.841 3.2282 2.37884 0
M  V30 5810 H 520.431 4.10202 1.24226 0
M  V30 5811 H 524.615 4.9144 0.692847 0
M  V30 5812 H 519.871 6.11376 -0.0546591 0
M  V30 5813 H 524.045 6.9383 -0.59775 0
M  V30 5814 H 521.672 7.53889 -0.977489 0
M  V30 5815 N 523.247 -0.488276 1.49845 0
M  V30 5816 C 524.179 -1.60539 1.63584 0
M  V30 5817 C 525.192 -1.5434 0.517972 0
M  V30 5818 O 526.381 -1.60041 0.790516 0
M  V30 5819 C 523.481 -2.99374 1.58835 0
M  V30 5820 C 522.654 -3.30624 2.86368 0
M  V30 5821 C 521.713 -4.4893 2.74496 0
M  V30 5822 O 520.739 -4.50085 3.48443 0
M  V30 5823 N 521.941 -5.49591 1.86894 0
M  V30 5824 H 524.706 -1.49176 2.59936 0
M  V30 5825 H 522.267 -0.67639 1.47094 0
M  V30 5826 H 524.259 -3.76459 1.48529 0
M  V30 5827 H 522.829 -3.04595 0.702892 0
M  V30 5828 H 522.049 -2.42314 3.1093 0
M  V30 5829 H 523.337 -3.48305 3.70892 0
M  V30 5830 H 522.735 -5.51467 1.26097 0
M  V30 5831 H 521.292 -6.25728 1.82503 0
M  V30 5832 N 524.725 -1.39134 -0.740242 0
M  V30 5833 C 525.95 -1.39518 -1.53459 0
M  V30 5834 C 526.375 0.00968883 -1.88098 0
M  V30 5835 O 525.733 0.995312 -1.51536 0
M  V30 5836 C 525.781 -2.26981 -2.802 0
M  V30 5837 O 524.885 -1.69609 -3.75908 0
M  V30 5838 H 524.226 -0.475328 -0.463637 0
M  V30 5839 H 526.756 -1.83064 -0.913717 0
M  V30 5840 H 526.766 -2.41309 -3.28989 0
M  V30 5841 H 525.441 -3.29081 -2.5432 0
M  V30 5842 H 524.018 -1.64495 -3.34658 0
M  V30 5843 N 526.204 0.969867 -1.24223 0
M  V30 5844 C 527.432 1.74756 -1.10761 0
M  V30 5845 C 527.847 1.85713 0.340041 0
M  V30 5846 O 527.204 1.34389 1.23474 0
M  V30 5847 C 527.255 3.16915 -1.73917 0
M  V30 5848 O 526.976 3.06511 -3.13021 0
M  V30 5849 C 528.477 4.11032 -1.66036 0
M  V30 5850 H 525.697 0.548092 -0.387087 0
M  V30 5851 H 528.241 1.2178 -1.64286 0
M  V30 5852 H 526.396 3.66884 -1.244 0
M  V30 5853 H 526.81 3.96079 -3.43834 0
M  V30 5854 H 528.284 5.08446 -2.14911 0
M  V30 5855 H 528.761 4.34785 -0.621159 0
M  V30 5856 H 529.367 3.66972 -2.14969 0
M  V30 5857 N 527.682 1.05563 1.17022 0
M  V30 5858 C 528.614 0.617888 2.20714 0
M  V30 5859 C 529.627 -0.320303 1.59618 0
M  V30 5860 O 530.816 -0.112449 1.78145 0
M  V30 5861 C 527.916 -0.115333 3.38704 0
M  V30 5862 C 527.089 0.834493 4.29366 0
M  V30 5863 C 526.148 0.141855 5.26009 0
M  V30 5864 O 525.174 0.777151 5.6387 0
M  V30 5865 N 526.376 -1.11934 5.69606 0
M  V30 5866 H 529.141 1.50981 2.58892 0
M  V30 5867 H 526.702 0.938008 1.31958 0
M  V30 5868 H 528.694 -0.588918 4.00392 0
M  V30 5869 H 527.264 -0.908967 2.99093 0
M  V30 5870 H 526.484 1.48762 3.65053 0
M  V30 5871 H 527.772 1.4791 4.86827 0
M  V30 5872 H 527.17 -1.65574 5.40927 0
M  V30 5873 H 525.727 -1.53692 6.33421 0
M  V30 5874 N 529.16 -1.33526 0.837174 0
M  V30 5875 C 530.107 -2.29248 0.267169 0
M  V30 5876 C 531.077 -1.54252 -0.616071 0
M  V30 5877 O 532.262 -1.82559 -0.554699 0
M  V30 5878 C 529.402 -3.40638 -0.553152 0
M  V30 5879 C 528.515 -4.30548 0.353921 0
M  V30 5880 C 527.65 -5.29051 -0.477339 0
M  V30 5881 C 526.689 -6.106 0.42823 0
M  V30 5882 N 525.826 -7.01152 -0.364801 0
M  V30 5883 H 530.666 -2.77398 1.08877 0
M  V30 5884 H 528.203 -1.36496 0.54838 0
M  V30 5885 H 530.161 -4.03921 -1.04422 0
M  V30 5886 H 528.791 -2.93685 -1.33973 0
M  V30 5887 H 527.843 -3.68001 0.963289 0
M  V30 5888 H 529.155 -4.87631 1.04964 0
M  V30 5889 H 528.309 -5.97853 -1.0323 0
M  V30 5890 H 527.048 -4.72541 -1.2065 0
M  V30 5891 H 526.053 -5.40718 0.995219 0
M  V30 5892 H 527.278 -6.69193 1.15573 0
M  V30 5893 H 525.224 -6.47092 -1.07738 0
M  V30 5894 H 525.141 -7.5551 0.272238 0
M  V30 5895 H 526.409 -7.74263 -0.902054 0
M  V30 5896 N 530.638 -0.59345 -1.46 0
M  V30 5897 C 531.568 0.121192 -2.33185 0
M  V30 5898 C 532.549 0.872977 -1.4599 0
M  V30 5899 O 533.734 0.846321 -1.74789 0
M  V30 5900 C 530.864 1.12844 -3.28456 0
M  V30 5901 C 529.818 0.4908 -4.25177 0
M  V30 5902 C 529.144 1.60529 -5.10034 0
M  V30 5903 C 530.444 -0.578949 -5.19081 0
M  V30 5904 H 532.138 -0.606767 -2.93187 0
M  V30 5905 H 529.684 -0.293242 -1.40983 0
M  V30 5906 H 531.637 1.63684 -3.88311 0
M  V30 5907 H 530.361 1.88681 -2.66584 0
M  V30 5908 H 529.02 0.00339328 -3.666 0
M  V30 5909 H 528.668 2.35359 -4.44539 0
M  V30 5910 H 528.368 1.18422 -5.75543 0
M  V30 5911 H 529.892 2.11623 -5.72755 0
M  V30 5912 H 531.306 -0.155199 -5.7309 0
M  V30 5913 H 529.703 -0.920947 -5.92991 0
M  V30 5914 H 530.773 -1.46109 -4.62364 0
M  V30 5915 N 532.116 1.54067 -0.331816 0
M  V30 5916 C 533.079 2.23275 0.517768 0
M  V30 5917 C 534.079 1.22897 1.03697 0
M  V30 5918 O 535.269 1.47419 0.928084 0
M  V30 5919 C 532.401 2.94326 1.72004 0
M  V30 5920 H 533.594 2.99773 -0.0873507 0
M  V30 5921 H 531.147 1.56079 -0.0830042 0
M  V30 5922 H 531.882 2.21986 2.36417 0
M  V30 5923 H 531.667 3.67941 1.35507 0
M  V30 5924 H 533.157 3.47031 2.32291 0
M  V30 5925 N 533.594 0.0601682 1.57485 0
M  V30 5926 C 534.526 -0.94047 2.09016 0
M  V30 5927 C 535.539 -1.26897 1.01985 0
M  V30 5928 O 536.728 -1.22819 1.29529 0
M  V30 5929 C 533.828 -2.25955 2.52582 0
M  V30 5930 C 533.001 -2.11163 3.83052 0
M  V30 5931 C 532.06 -3.26273 4.12835 0
M  V30 5932 O 531.086 -3.01779 4.82616 0
M  V30 5933 N 532.288 -4.51022 3.65458 0
M  V30 5934 H 535.053 -0.500578 2.9549 0
M  V30 5935 H 532.614 -0.125852 1.6141 0
M  V30 5936 H 534.606 -3.01846 2.69575 0
M  V30 5937 H 533.176 -2.61481 1.71308 0
M  V30 5938 H 532.396 -1.19808 3.75552 0
M  V30 5939 H 533.684 -1.98517 4.68475 0
M  V30 5940 H 533.082 -4.73811 3.09062 0
M  V30 5941 H 531.639 -5.23978 3.87673 0
M  V30 5942 N 535.072 -1.5615 -0.213296 0
M  V30 5943 C 536.035 -1.92249 -1.24792 0
M  V30 5944 C 537.035 -0.801828 -1.39382 0
M  V30 5945 O 538.225 -1.06948 -1.37506 0
M  V30 5946 C 535.357 -2.18056 -2.62039 0
M  V30 5947 H 536.55 -2.84793 -0.939845 0
M  V30 5948 H 534.103 -1.49559 -0.454062 0
M  V30 5949 H 534.838 -1.2809 -2.97932 0
M  V30 5950 H 534.623 -2.99703 -2.52825 0
M  V30 5951 H 536.113 -2.47051 -3.36683 0
M  V30 5952 N 536.55 0.480323 -1.50102 0
M  V30 5953 C 537.513 1.56181 -1.6775 0
M  V30 5954 C 538.513 1.51156 -0.548503 0
M  V30 5955 O 539.703 1.5394 -0.815363 0
M  V30 5956 C 536.835 2.95823 -1.69415 0
M  V30 5957 H 538.028 1.41855 -2.6423 0
M  V30 5958 H 535.581 0.70605 -1.39444 0
M  V30 5959 H 536.316 3.15604 -0.745948 0
M  V30 5960 H 536.101 3.00878 -2.51425 0
M  V30 5961 H 537.591 3.74359 -1.85054 0
M  V30 5962 N 538.028 1.39524 0.732853 0
M  V30 5963 C 538.958 1.41153 1.86005 0
M  V30 5964 C 539.939 0.274614 1.67869 0
M  V30 5965 O 541.124 0.480745 1.88155 0
M  V30 5966 C 538.254 1.25638 3.23778 0
M  V30 5967 C 537.208 2.36752 3.56556 0
M  V30 5968 C 536.534 2.06326 4.93289 0
M  V30 5969 C 537.834 3.79069 3.5931 0
M  V30 5970 H 539.528 2.35484 1.84899 0
M  V30 5971 H 537.074 1.13348 0.888162 0
M  V30 5972 H 539.027 1.25398 4.0231 0
M  V30 5973 H 537.751 0.277772 3.25417 0
M  V30 5974 H 536.41 2.36213 2.80355 0
M  V30 5975 H 536.058 1.06897 4.9151 0
M  V30 5976 H 535.758 2.80757 5.16187 0
M  V30 5977 H 537.282 2.07739 5.74175 0
M  V30 5978 H 538.696 3.81526 4.27914 0
M  V30 5979 H 537.093 4.52878 3.93728 0
M  V30 5980 H 538.163 4.09893 2.59068 0
M  V30 5981 N 539.506 -0.963266 1.24736 0
M  V30 5982 C 540.436 -2.07628 1.06832 0
M  V30 5983 C 541.417 -1.70088 -0.0200566 0
M  V30 5984 O 542.602 -1.93636 0.147854 0
M  V30 5985 C 539.732 -3.40636 0.677069 0
M  V30 5986 C 538.686 -3.9215 1.71471 0
M  V30 5987 C 538.012 -5.21553 1.1784 0
M  V30 5988 C 539.312 -4.19493 3.11164 0
M  V30 5989 H 541.006 -2.22864 1.9993 0
M  V30 5990 H 538.552 -1.07093 0.96266 0
M  V30 5991 H 540.505 -4.17941 0.538792 0
M  V30 5992 H 539.229 -3.25313 -0.289612 0
M  V30 5993 H 537.888 -3.17005 1.84128 0
M  V30 5994 H 537.536 -5.02593 0.202195 0
M  V30 5995 H 537.236 -5.56988 1.87185 0
M  V30 5996 H 538.76 -6.01463 1.05233 0
M  V30 5997 H 540.174 -4.87487 3.01711 0
M  V30 5998 H 538.571 -4.66165 3.77902 0
M  V30 5999 H 539.641 -3.26097 3.58871 0
M  V30 6000 N 540.985 -1.06182 -1.16461 0
M  V30 6001 C 542.215 -0.797425 -1.9059 0
M  V30 6002 C 542.623 0.651845 -1.77616 0
M  V30 6003 O 541.966 1.45788 -1.11766 0
M  V30 6004 C 542.028 -1.11128 -3.41893 0
M  V30 6005 C 541.692 -2.55874 -3.78652 0
M  V30 6006 C 542.689 -3.54104 -3.80665 0
M  V30 6007 C 540.374 -2.91144 -4.09317 0
M  V30 6008 C 542.368 -4.85645 -4.12829 0
M  V30 6009 C 540.055 -4.22885 -4.41148 0
M  V30 6010 C 541.053 -5.19945 -4.42883 0
M  V30 6011 O 540.741 -6.49322 -4.73959 0
M  V30 6012 H 540.473 -0.288709 -0.611247 0
M  V30 6013 H 543.027 -1.41841 -1.4856 0
M  V30 6014 H 541.257 -0.433217 -3.84266 0
M  V30 6015 H 542.946 -0.831306 -3.97296 0
M  V30 6016 H 543.712 -3.28197 -3.57088 0
M  V30 6017 H 539.591 -2.16252 -4.07131 0
M  V30 6018 H 543.135 -5.61398 -4.14099 0
M  V30 6019 H 539.032 -4.48551 -4.6419 0
M  V30 6020 H 539.8 -6.54294 -4.91774 0
M  V30 6021 N 542.463 1.3308 -0.844243 0
M  V30 6022 C 543.396 2.27075 -0.226279 0
M  V30 6023 C 544.374 1.49911 0.629716 0
M  V30 6024 O 545.558 1.79068 0.588803 0
M  V30 6025 C 542.685 3.31767 0.681782 0
M  V30 6026 C 541.731 4.26384 -0.0994565 0
M  V30 6027 S 542.564 5.15186 -1.46094 0
M  V30 6028 C 543.72 6.23405 -0.558319 0
M  V30 6029 H 543.953 2.79141 -1.02312 0
M  V30 6030 H 541.486 1.40452 -0.641292 0
M  V30 6031 H 543.444 3.92566 1.20008 0
M  V30 6032 H 542.105 2.78507 1.45234 0
M  V30 6033 H 541.298 5.00514 0.591733 0
M  V30 6034 H 540.9 3.69949 -0.548991 0
M  V30 6035 H 543.192 6.77069 0.241672 0
M  V30 6036 H 544.135 6.96619 -1.26995 0
M  V30 6037 H 544.543 5.64333 -0.13728 0
M  V30 6038 N 543.941 0.601185 1.45683 0
M  V30 6039 C 545.189 0.0936957 2.01883 0
M  V30 6040 C 545.51 -1.2779 1.47291 0
M  V30 6041 O 544.78 -1.84279 0.664691 0
M  V30 6042 H 543.36 0.0316466 0.746329 0
M  V30 6043 H 546.022 0.781137 1.78562 0
M  V30 6044 H 545.118 0.0386297 3.12076 0
M  V30 6045 N 545.419 -1.53889 0.339982 0
M  V30 6046 C 546.644 -2.05741 -0.261798 0
M  V30 6047 C 547.069 -1.21354 -1.43718 0
M  V30 6048 O 546.427 -0.22645 -1.7988 0
M  V30 6049 C 546.475 -3.54542 -0.658228 0
M  V30 6050 O 545.579 -3.7302 -1.75869 0
M  V30 6051 H 544.92 -0.662529 -0.0441672 0
M  V30 6052 H 547.45 -1.98568 0.493161 0
M  V30 6053 H 547.46 -3.9711 -0.936368 0
M  V30 6054 H 546.135 -4.15412 0.201358 0
M  V30 6055 H 544.712 -3.42355 -1.47809 0
M  V30 6056 N 546.897 -0.0685191 -1.57451 0
M  V30 6057 C 547.844 0.899861 -2.12535 0
M  V30 6058 C 548.814 1.29749 -1.03703 0
M  V30 6059 O 549.999 1.38392 -1.31348 0
M  V30 6060 C 547.139 2.16328 -2.6888 0
M  V30 6061 C 546.252 1.81857 -3.91857 0
M  V30 6062 C 545.387 3.02786 -4.36457 0
M  V30 6063 C 544.426 2.64317 -5.5209 0
M  V30 6064 N 543.563 3.77994 -5.91663 0
M  V30 6065 H 548.403 0.423243 -2.94979 0
M  V30 6066 H 545.94 0.197268 -1.45771 0
M  V30 6067 H 547.898 2.90281 -2.99655 0
M  V30 6068 H 546.528 2.61536 -1.89206 0
M  V30 6069 H 545.58 0.979808 -3.67565 0
M  V30 6070 H 546.892 1.49553 -4.75852 0
M  V30 6071 H 546.046 3.85021 -4.68875 0
M  V30 6072 H 544.785 3.38281 -3.51308 0
M  V30 6073 H 543.79 1.80503 -5.19325 0
M  V30 6074 H 545.015 2.29995 -6.38967 0
M  V30 6075 H 542.961 4.13258 -5.09464 0
M  V30 6076 H 542.878 3.49447 -6.7039 0
M  V30 6077 H 544.146 4.60818 -6.28703 0
M  V30 6078 N 548.375 1.56261 0.205012 0
M  V30 6079 C 549.305 1.96779 1.257 0
M  V30 6080 C 550.286 0.838309 1.48008 0
M  V30 6081 O 551.471 1.10189 1.59913 0
M  V30 6082 C 548.601 2.29876 2.60335 0
M  V30 6083 C 547.555 3.45469 2.52656 0
M  V30 6084 C 546.881 3.64215 3.91473 0
M  V30 6085 C 548.181 4.79954 2.06014 0
M  V30 6086 H 549.875 2.84904 0.920338 0
M  V30 6087 H 547.421 1.37072 0.441277 0
M  V30 6088 H 549.374 2.56814 3.34102 0
M  V30 6089 H 548.098 1.38622 2.95722 0
M  V30 6090 H 546.757 3.18605 1.81345 0
M  V30 6091 H 546.405 2.70309 4.24196 0
M  V30 6092 H 546.105 4.41973 3.87213 0
M  V30 6093 H 547.629 3.93519 4.66878 0
M  V30 6094 H 549.043 5.05989 2.69533 0
M  V30 6095 H 547.44 5.61111 2.12777 0
M  V30 6096 H 548.51 4.74201 1.01297 0
M  V30 6097 N 549.853 -0.472356 1.50355 0
M  V30 6098 C 551.081 -1.24784 1.65035 0
M  V30 6099 C 551.496 -1.85837 0.333176 0
M  V30 6100 O 550.853 -1.69168 -0.68472 0
M  V30 6101 C 550.904 -2.35747 2.74054 0
M  V30 6102 O 550.625 -1.77197 4.00665 0
M  V30 6103 C 552.126 -3.26645 2.99696 0
M  V30 6104 H 549.346 -0.377432 0.554785 0
M  V30 6105 H 551.89 -0.563962 1.9657 0
M  V30 6106 H 550.045 -2.99912 2.45217 0
M  V30 6107 H 550.459 -2.5026 4.60945 0
M  V30 6108 H 551.933 -4.00718 3.79644 0
M  V30 6109 H 552.41 -3.8535 2.10718 0
M  V30 6110 H 553.016 -2.68218 3.3006 0
M  V30 6111 N 551.331 -1.39911 -0.725443 0
M  V30 6112 C 552.559 -1.40949 -1.51463 0
M  V30 6113 C 552.974 -0.0065242 -1.88799 0
M  V30 6114 O 552.331 0.967163 -1.54765 0
M  V30 6115 C 552.382 -2.29119 -2.79619 0
M  V30 6116 O 552.103 -3.63952 -2.43866 0
M  V30 6117 C 553.604 -2.38642 -3.73584 0
M  V30 6118 H 550.824 -0.481091 -0.467752 0
M  V30 6119 H 553.368 -1.83843 -0.895651 0
M  V30 6120 H 551.523 -1.89612 -3.37826 0
M  V30 6121 H 551.937 -4.10677 -3.26258 0
M  V30 6122 H 553.411 -3.04563 -4.60375 0
M  V30 6123 H 553.888 -1.40846 -4.16004 0
M  V30 6124 H 554.494 -2.78659 -3.21293 0
M  V30 6125 N 552.809 0.956637 -1.25245 0
M  V30 6126 C 554.058 1.69537 -1.0927 0
M  V30 6127 C 554.371 1.92136 0.366503 0
M  V30 6128 O 555.577 2.63687 0.64665 0
M  V30 6129 C 554.033 3.05211 -1.9072 0
M  V30 6130 C 553.641 2.90416 -3.41119 0
M  V30 6131 C 555.385 3.82882 -1.83308 0
M  V30 6132 C 553.292 4.21468 -4.14872 0
M  V30 6133 H 552.222 0.635804 -0.405302 0
M  V30 6134 H 554.873 1.06513 -1.49423 0
M  V30 6135 H 553.255 3.69128 -1.43389 0
M  V30 6136 H 554.429 2.35444 -3.9611 0
M  V30 6137 H 552.744 2.26203 -3.49602 0
M  V30 6138 H 555.341 4.79944 -2.35706 0
M  V30 6139 H 555.684 4.0853 -0.800572 0
M  V30 6140 H 556.217 3.25711 -2.28379 0
M  V30 6141 H 552.956 4.01009 -5.18529 0
M  V30 6142 H 552.476 4.76213 -3.64665 0
M  V30 6143 H 554.155 4.90022 -4.22478 0
M  V30 6144 N 554.287 1.06798 1.15896 0
M  V30 6145 C 555.564 0.701057 1.82605 0
M  V30 6146 C 555.944 -0.817066 1.94646 0
M  V30 6147 O 555.292 -1.72933 1.49353 0
M  V30 6148 C 555.502 1.40895 3.19296 0
M  V30 6149 C 556.85 1.55744 3.95005 0
M  V30 6150 O 557.874 1.36927 3.28831 0
M  V30 6151 O 556.733 1.86658 5.13635 0
M  V30 6152 H 553.827 0.248791 0.78869 0
M  V30 6153 H 556.373 1.16857 1.23055 0
M  V30 6154 H 555.145 2.4439 3.05596 0
M  V30 6155 H 554.768 0.931847 3.86526 0
M  V30 6156 N 555.766 -1.3263 0.851289 0
M  V30 6157 C 556.676 -2.32722 0.296268 0
M  V30 6158 C 557.692 -1.63901 -0.584162 0
M  V30 6159 O 558.868 -1.95465 -0.485334 0
M  V30 6160 C 555.933 -3.42942 -0.509103 0
M  V30 6161 C 554.994 -4.2746 0.397069 0
M  V30 6162 C 554.227 -5.32416 -0.36996 0
M  V30 6163 O 554.45 -5.47491 -1.6003 0
M  V30 6164 O 553.384 -6.01327 0.262493 0
M  V30 6165 H 557.21 -2.82078 1.12543 0
M  V30 6166 H 554.795 -1.36194 0.614135 0
M  V30 6167 H 556.677 -4.1017 -0.96634 0
M  V30 6168 H 555.352 -2.95781 -1.31512 0
M  V30 6169 H 554.259 -3.63053 0.902411 0
M  V30 6170 H 555.592 -4.78136 1.16818 0
M  V30 6171 N 557.244 -0.608902 -1.45362 0
M  V30 6172 C 558.472 -0.111013 -2.06602 0
M  V30 6173 C 558.887 1.20516 -1.45332 0
M  V30 6174 O 558.244 1.73437 -0.567978 0
M  V30 6175 C 558.295 0.033688 -3.61484 0
M  V30 6176 O 558.016 -1.23041 -4.20467 0
M  V30 6177 C 559.517 0.562882 -4.39712 0
M  V30 6178 H 556.737 -0.0694453 -0.667397 0
M  V30 6179 H 559.281 -0.837008 -1.86586 0
M  V30 6180 H 557.436 0.710016 -3.80838 0
M  V30 6181 H 557.85 -1.06094 -5.13658 0
M  V30 6182 H 559.324 0.613213 -5.48583 0
M  V30 6183 H 559.801 1.58543 -4.09586 0
M  V30 6184 H 560.407 -0.0794454 -4.25226 0
M  V30 6185 N 558.722 1.53707 -0.348139 0
M  V30 6186 C 559.669 2.25173 0.506518 0
M  V30 6187 C 560.639 1.25174 1.09182 0
M  V30 6188 O 561.824 1.53917 1.12757 0
M  V30 6189 C 558.964 3.03141 1.64923 0
M  V30 6190 C 558.077 4.18002 1.0908 0
M  V30 6191 C 557.212 4.83447 2.20119 0
M  V30 6192 C 556.251 5.90369 1.61651 0
M  V30 6193 N 555.388 6.49575 2.66451 0
M  V30 6194 H 560.228 2.97799 -0.109452 0
M  V30 6195 H 557.765 1.46953 -0.0657866 0
M  V30 6196 H 559.723 3.46607 2.32205 0
M  V30 6197 H 558.353 2.32803 2.23612 0
M  V30 6198 H 557.405 3.79145 0.308783 0
M  V30 6199 H 558.717 4.94892 0.623178 0
M  V30 6200 H 557.871 5.30008 2.95257 0
M  V30 6201 H 556.61 4.05991 2.70227 0
M  V30 6202 H 555.615 5.43186 0.850209 0
M  V30 6203 H 556.84 6.69735 1.1239 0
M  V30 6204 H 554.786 5.74981 3.15805 0
M  V30 6205 H 554.703 7.21952 2.24325 0
M  V30 6206 H 555.971 7.00789 3.41344 0
M  V30 6207 N 560.2 0.0768682 1.57412 0
M  V30 6208 C 561.11 -0.903207 2.16516 0
M  V30 6209 C 562.126 -1.32341 1.12968 0
M  V30 6210 O 563.302 -1.39507 1.45258 0
M  V30 6211 C 560.367 -2.1508 2.71922 0
M  V30 6212 C 559.428 -1.78653 3.90361 0
M  V30 6213 C 558.661 -2.97465 4.43114 0
M  V30 6214 O 558.884 -4.11638 3.94854 0
M  V30 6215 O 557.818 -2.76987 5.3438 0
M  V30 6216 H 561.644 -0.430427 3.00634 0
M  V30 6217 H 559.229 -0.146485 1.4868 0
M  V30 6218 H 561.111 -2.8823 3.07411 0
M  V30 6219 H 559.786 -2.61446 1.9086 0
M  V30 6220 H 558.693 -1.0274 3.59716 0
M  V30 6221 H 560.026 -1.37066 4.7273 0
M  V30 6222 N 561.678 -1.56367 -0.196722 0
M  V30 6223 C 562.608 -1.97442 -1.24655 0
M  V30 6224 C 563.589 -0.846147 -1.47561 0
M  V30 6225 O 564.774 -1.11035 -1.59326 0
M  V30 6226 C 561.904 -2.31253 -2.59112 0
M  V30 6227 C 560.858 -3.46804 -2.50821 0
M  V30 6228 C 560.184 -3.66286 -3.89536 0
M  V30 6229 C 561.484 -4.8104 -2.03465 0
M  V30 6230 H 563.178 -2.85388 -0.905216 0
M  V30 6231 H 560.724 -1.37304 -0.434002 0
M  V30 6232 H 562.677 -2.58583 -3.32736 0
M  V30 6233 H 561.401 -1.40188 -2.94983 0
M  V30 6234 H 560.06 -3.19563 -1.79653 0
M  V30 6235 H 559.708 -2.72555 -4.22756 0
M  V30 6236 H 559.408 -4.4402 -3.84864 0
M  V30 6237 H 560.932 -3.9599 -4.64784 0
M  V30 6238 H 562.346 -5.07411 -2.66846 0
M  V30 6239 H 560.743 -5.62232 -2.09798 0
M  V30 6240 H 561.813 -4.74732 -0.98781 0
M  V30 6241 N 563.156 0.464375 -1.50603 0
M  V30 6242 C 564.384 1.23907 -1.65695 0
M  V30 6243 C 564.799 1.85658 -0.343027 0
M  V30 6244 O 564.156 1.69529 0.675739 0
M  V30 6245 C 564.207 2.3429 -2.75301 0
M  V30 6246 O 563.928 1.7507 -4.01599 0
M  V30 6247 C 565.429 3.25051 -3.01424 0
M  V30 6248 H 562.649 0.374485 -0.556778 0
M  V30 6249 H 565.193 0.55353 -1.96866 0
M  V30 6250 H 563.348 2.98607 -2.46804 0
M  V30 6251 H 563.762 2.47812 -4.62266 0
M  V30 6252 H 565.236 3.98699 -3.81763 0
M  V30 6253 H 565.713 3.84227 -2.12758 0
M  V30 6254 H 566.319 2.66463 -3.31477 0
M  V30 6255 N 564.634 1.40294 0.718013 0
M  V30 6256 C 565.581 1.40367 1.8321 0
M  V30 6257 C 566.551 0.260952 1.64037 0
M  V30 6258 O 567.736 0.458648 1.85205 0
M  V30 6259 C 564.876 1.26965 3.20895 0
M  V30 6260 C 563.989 2.50922 3.51656 0
M  V30 6261 C 563.124 2.29981 4.78834 0
M  V30 6262 C 562.163 3.49527 5.02491 0
M  V30 6263 N 561.3 3.27796 6.20882 0
M  V30 6264 H 566.14 2.35593 1.82482 0
M  V30 6265 H 563.677 1.17012 0.891444 0
M  V30 6266 H 565.635 1.17202 4.00399 0
M  V30 6267 H 564.265 0.353591 3.20858 0
M  V30 6268 H 563.317 2.71223 2.66725 0
M  V30 6269 H 564.629 3.39913 3.65048 0
M  V30 6270 H 563.783 2.17558 5.66351 0
M  V30 6271 H 562.522 1.38411 4.67647 0
M  V30 6272 H 561.527 3.6243 4.1343 0
M  V30 6273 H 562.752 4.42021 5.15553 0
M  V30 6274 H 560.698 2.38906 6.1095 0
M  V30 6275 H 560.615 4.10351 6.34939 0
M  V30 6276 H 561.883 3.19101 7.11193 0
M  V30 6277 N 566.112 -0.949982 1.2575 0
M  V30 6278 C 567.361 -1.68956 1.10168 0
M  V30 6279 C 567.674 -1.92327 -0.356309 0
M  V30 6280 O 568.88 -2.64026 -0.632657 0
M  V30 6281 C 567.336 -3.04196 1.92336 0
M  V30 6282 C 566.944 -2.88603 3.42655 0
M  V30 6283 C 568.688 -3.81904 1.85336 0
M  V30 6284 C 566.595 -4.19262 4.17101 0
M  V30 6285 H 565.525 -0.633645 0.408668 0
M  V30 6286 H 568.176 -1.05719 1.49986 0
M  V30 6287 H 566.558 -3.68363 1.45344 0
M  V30 6288 H 567.732 -2.3334 3.97353 0
M  V30 6289 H 566.047 -2.24345 3.50796 0
M  V30 6290 H 568.644 -4.78688 2.38248 0
M  V30 6291 H 568.987 -4.08099 0.822226 0
M  V30 6292 H 569.52 -3.24495 2.30104 0
M  V30 6293 H 566.259 -3.98254 5.20648 0
M  V30 6294 H 565.779 -4.74273 3.67186 0
M  V30 6295 H 567.458 -4.87775 4.25071 0
M  V30 6296 N 567.59 -1.07411 -1.15328 0
M  V30 6297 C 568.837 -0.797649 -1.86128 0
M  V30 6298 C 569.165 0.676298 -1.82364 0
M  V30 6299 O 568.42 1.51223 -1.24218 0
M  V30 6300 C 568.719 -1.25191 -3.34757 0
M  V30 6301 C 568.385 -2.73191 -3.58716 0
M  V30 6302 C 567.047 -3.13616 -3.64964 0
M  V30 6303 C 569.399 -3.68718 -3.6837 0
M  V30 6304 C 566.727 -4.48383 -3.78377 0
M  V30 6305 C 569.079 -5.03248 -3.83306 0
M  V30 6306 C 567.743 -5.43293 -3.878 0
M  V30 6307 H 567.013 -0.29188 -0.681092 0
M  V30 6308 H 569.66 -1.34524 -1.36292 0
M  V30 6309 H 567.965 -0.623712 -3.86804 0
M  V30 6310 H 569.662 -1.01489 -3.87945 0
M  V30 6311 H 566.252 -2.40898 -3.54494 0
M  V30 6312 H 570.436 -3.38614 -3.62842 0
M  V30 6313 H 565.692 -4.78877 -3.80114 0
M  V30 6314 H 569.866 -5.77142 -3.89718 0
M  V30 6315 H 567.493 -6.47721 -3.97946 0
M  V30 6316 N 569.068 1.32177 -0.85831 0
M  V30 6317 C 570.015 2.28794 -0.303607 0
M  V30 6318 C 570.985 1.55213 0.591453 0
M  V30 6319 O 572.17 1.83418 0.525585 0
M  V30 6320 C 569.31 3.41475 0.49889 0
M  V30 6321 C 568.423 4.2993 -0.422373 0
M  V30 6322 C 567.558 5.29743 0.393111 0
M  V30 6323 C 566.597 6.09842 -0.525317 0
M  V30 6324 N 565.734 7.01643 0.253208 0
M  V30 6325 H 570.574 2.75631 -1.13276 0
M  V30 6326 H 568.111 1.35606 -0.570026 0
M  V30 6327 H 570.069 4.05531 0.979826 0
M  V30 6328 H 568.699 2.95779 1.29284 0
M  V30 6329 H 567.751 3.66422 -1.02171 0
M  V30 6330 H 569.063 4.85899 -1.12709 0
M  V30 6331 H 568.217 5.9942 0.937056 0
M  V30 6332 H 566.956 4.744 1.13117 0
M  V30 6333 H 565.961 5.39066 -1.08112 0
M  V30 6334 H 567.186 6.6727 -1.26205 0
M  V30 6335 H 565.132 6.48725 0.974295 0
M  V30 6336 H 565.049 7.54981 -0.392398 0
M  V30 6337 H 566.317 7.756 0.778761 0
M  V30 6338 N 570.547 0.616602 1.45037 0
M  V30 6339 C 571.494 -0.0969439 2.30596 0
M  V30 6340 C 572.464 -0.851151 1.42635 0
M  V30 6341 O 573.649 -0.835092 1.71554 0
M  V30 6342 C 570.789 -1.08234 3.27688 0
M  V30 6343 C 569.902 -0.328072 4.30752 0
M  V30 6344 C 569.037 -1.30399 5.14946 0
M  V30 6345 C 568.076 -0.538049 6.09731 0
M  V30 6346 N 567.213 -1.46371 6.86673 0
M  V30 6347 H 572.053 0.63864 2.91076 0
M  V30 6348 H 569.59 0.326733 1.43425 0
M  V30 6349 H 571.548 -1.66688 3.82454 0
M  V30 6350 H 570.178 -1.78523 2.68941 0
M  V30 6351 H 569.23 0.372136 3.78575 0
M  V30 6352 H 570.542 0.269142 4.98073 0
M  V30 6353 H 569.696 -1.96032 5.74157 0
M  V30 6354 H 568.435 -1.93514 4.47665 0
M  V30 6355 H 567.44 0.131852 5.49642 0
M  V30 6356 H 568.665 0.0881732 6.79043 0
M  V30 6357 H 566.611 -2.08233 6.22073 0
M  V30 6358 H 566.528 -0.920152 7.50379 0
M  V30 6359 H 567.796 -2.10932 7.50418 0
M  V30 6360 N 572.025 -1.5352 0.356285 0
M  V30 6361 C 572.958 -2.2177 -0.537913 0
M  V30 6362 C 573.936 -1.20626 -1.09033 0
M  V30 6363 O 575.12 -1.49494 -1.1482 0
M  V30 6364 C 572.247 -2.90513 -1.74126 0
M  V30 6365 C 571.293 -4.05652 -1.31715 0
M  V30 6366 S 572.126 -5.34505 -0.326236 0
M  V30 6367 C 573.282 -6.06757 -1.53612 0
M  V30 6368 H 573.515 -2.97271 0.0417411 0
M  V30 6369 H 571.048 -1.53761 0.140372 0
M  V30 6370 H 573.006 -3.30735 -2.43155 0
M  V30 6371 H 571.667 -2.14754 -2.29215 0
M  V30 6372 H 570.86 -4.52733 -2.21471 0
M  V30 6373 H 570.462 -3.67272 -0.706183 0
M  V30 6374 H 572.754 -6.30924 -2.46863 0
M  V30 6375 H 573.697 -6.99395 -1.10687 0
M  V30 6376 H 574.105 -5.3708 -1.73796 0
M  V30 6377 N 573.503 -0.0852151 -1.57369 0
M  V30 6378 C 574.78 0.622534 -1.85429 0
M  V30 6379 C 575.16 1.86962 -0.980229 0
M  V30 6380 O 574.508 2.28445 -0.0500219 0
M  V30 6381 C 574.718 0.947374 -3.35896 0
M  V30 6382 C 576.066 1.31509 -4.03721 0
M  V30 6383 O 577.09 1.03869 -3.40719 0
M  V30 6384 O 575.949 1.83231 -5.14868 0
M  V30 6385 H 573.043 0.310513 -0.766492 0
M  V30 6386 H 575.589 -0.117164 -1.69295 0
M  V30 6387 H 574.361 0.0622264 -3.91251 0
M  V30 6388 H 573.984 1.74338 -3.5734 0
M  V30 6389 N 574.981 1.5647 0.188427 0
M  V30 6390 C 575.928 1.95073 1.23349 0
M  V30 6391 C 576.898 0.812238 1.44886 0
M  V30 6392 O 578.083 1.07095 1.57909 0
M  V30 6393 C 575.223 2.30124 2.57171 0
M  V30 6394 C 574.336 3.57069 2.43157 0
M  V30 6395 C 573.471 3.81411 3.69729 0
M  V30 6396 C 572.51 5.0176 3.50575 0
M  V30 6397 N 571.647 5.22321 4.69175 0
M  V30 6398 H 576.487 2.84171 0.89728 0
M  V30 6399 H 574.024 1.40623 0.431683 0
M  V30 6400 H 575.982 2.48463 3.35145 0
M  V30 6401 H 574.612 1.44159 2.88822 0
M  V30 6402 H 573.664 3.4674 1.56447 0
M  V30 6403 H 574.976 4.452 2.24942 0
M  V30 6404 H 574.13 4.00026 4.56141 0
M  V30 6405 H 572.869 2.91624 3.90905 0
M  V30 6406 H 571.874 4.83061 2.62549 0
M  V30 6407 H 573.099 5.93063 3.30837 0
M  V30 6408 H 571.045 4.35483 4.90602 0
M  V30 6409 H 570.962 6.04643 4.53809 0
M  V30 6410 H 572.23 5.45401 5.56919 0
M  V30 6411 N 576.459 -0.456382 1.50847 0
M  V30 6412 C 577.407 -1.57318 1.71329 0
M  V30 6413 C 578.401 -1.59187 0.579287 0
M  V30 6414 O 579.607 -1.6316 0.76018 0
M  V30 6415 H 575.982 -0.5223 0.541024 0
M  V30 6416 H 577.953 -1.3721 2.64983 0
M  V30 6417 C 576.702 -2.95142 1.83811 0
M  V30 6418 H 576.025 -2.94428 2.70467 0
M  V30 6419 H 577.465 -3.72702 2.02161 0
M  V30 6420 C 575.924 -3.31636 0.593224 0
M  V30 6421 O 576.454 -4.00852 -0.260898 0
M  V30 6422 N 574.66 -2.87205 0.442902 0
M  V30 6423 H 574.207 -2.31051 1.13901 0
M  V30 6424 H 574.165 -3.11986 -0.38884 0
M  V30 6425 N 577.937 -1.40673 -0.710563 0
M  V30 6426 C 579.185 -1.38947 -1.46759 0
M  V30 6427 C 579.506 0.00572879 -1.94999 0
M  V30 6428 O 578.776 0.961358 -1.70689 0
M  V30 6429 H 577.356 -0.5114 -0.544499 0
M  V30 6430 H 580.018 -1.75773 -0.842012 0
M  V30 6431 H 579.114 -2.06745 -2.33801 0
M  V30 6432 N 579.415 0.9433 -1.26252 0
M  V30 6433 C 580.692 1.66639 -1.02424 0
M  V30 6434 C 581.072 2.06335 0.446006 0
M  V30 6435 O 580.42 1.78551 1.42589 0
M  V30 6436 C 580.63 2.88019 -1.97094 0
M  V30 6437 C 581.978 3.59718 -2.25584 0
M  V30 6438 O 583.002 2.9812 -1.94943 0
M  V30 6439 O 581.861 4.7066 -2.77743 0
M  V30 6440 H 578.955 0.729643 -0.389294 0
M  V30 6441 H 581.501 0.995218 -1.37454 0
M  V30 6442 H 580.273 2.5556 -2.96319 0
M  V30 6443 H 579.896 3.62863 -1.62532 0
M  V30 6444 N 580.893 1.08022 1.14757 0
M  V30 6445 C 582.141 0.805913 1.85336 0
M  V30 6446 C 582.462 -0.670162 1.83122 0
M  V30 6447 O 581.732 -1.48567 1.2769 0
M  V30 6448 H 580.312 0.295138 0.686223 0
M  V30 6449 H 582.974 1.36538 1.3908 0
M  V30 6450 H 582.07 1.14655 2.90277 0
M  V30 6451 N 582.371 -1.3172 0.865308 0
M  V30 6452 C 583.303 -2.27545 0.274906 0
M  V30 6453 C 584.316 -1.52887 -0.559413 0
M  V30 6454 O 585.505 -1.74361 -0.382166 0
M  V30 6455 C 582.605 -3.33006 -0.629286 0
M  V30 6456 C 581.778 -4.37063 0.171553 0
M  V30 6457 C 580.837 -5.22044 -0.660052 0
M  V30 6458 O 579.863 -5.69129 -0.0897527 0
M  V30 6459 N 581.065 -5.45946 -1.97289 0
M  V30 6460 H 583.83 -2.78848 1.09836 0
M  V30 6461 H 581.391 -1.44693 0.726331 0
M  V30 6462 H 583.383 -3.86772 -1.19121 0
M  V30 6463 H 581.953 -2.81782 -1.35342 0
M  V30 6464 H 581.173 -3.83436 0.914919 0
M  V30 6465 H 582.461 -5.03662 0.721235 0
M  V30 6466 H 581.859 -5.0944 -2.45942 0
M  V30 6467 H 580.416 -6.02665 -2.4827 0
M  V30 6468 N 583.85 -0.624285 -1.44708 0
M  V30 6469 C 584.779 0.0717025 -2.3339 0
M  V30 6470 C 585.76 0.841814 -1.47809 0
M  V30 6471 O 586.946 0.809056 -1.76544 0
M  V30 6472 C 584.076 1.05852 -3.30776 0
M  V30 6473 C 583.029 0.400503 -4.26122 0
M  V30 6474 C 582.356 1.49674 -5.13324 0
M  V30 6475 C 583.656 -0.688924 -5.17737 0
M  V30 6476 H 585.35 -0.668819 -2.91834 0
M  V30 6477 H 582.896 -0.32308 -1.40329 0
M  V30 6478 H 584.849 1.5541 -3.91696 0
M  V30 6479 H 583.572 1.82984 -2.70526 0
M  V30 6480 H 582.231 -0.0743687 -3.66525 0
M  V30 6481 H 581.88 2.25877 -4.49431 0
M  V30 6482 H 581.58 1.06188 -5.77926 0
M  V30 6483 H 583.104 1.99427 -5.77115 0
M  V30 6484 H 584.518 -0.276724 -5.72632 0
M  V30 6485 H 582.915 -1.04652 -5.90904 0
M  V30 6486 H 583.985 -1.55884 -4.5916 0
M  V30 6487 N 585.328 1.53329 -0.364422 0
M  V30 6488 C 586.605 1.93557 0.281962 0
M  V30 6489 C 586.985 1.29786 1.6649 0
M  V30 6490 O 586.333 0.456512 2.23893 0
M  V30 6491 C 586.543 3.47405 0.333331 0
M  V30 6492 C 587.891 4.20699 0.574231 0
M  V30 6493 O 588.915 3.53779 0.414588 0
M  V30 6494 O 587.774 5.39287 0.885002 0
M  V30 6495 H 584.868 0.809573 0.168881 0
M  V30 6496 H 587.414 1.64494 -0.417121 0
M  V30 6497 H 586.186 3.86091 -0.636326 0
M  V30 6498 H 585.809 3.82697 1.07836 0
M  V30 6499 N 586.806 0.0935595 1.57322 0
M  V30 6500 C 588.222 -0.263091 1.57417 0
M  V30 6501 C 588.422 -1.68526 1.1046 0
M  V30 6502 O 587.478 -2.40139 0.780357 0
M  V30 6503 C 588.791 -0.0529201 3.00653 0
M  V30 6504 C 590.339 -0.120788 3.12767 0
M  V30 6505 C 590.814 0.0613707 4.57959 0
M  V30 6506 N 592.305 0.00648534 4.632 0
M  V30 6507 C 593.04 0.122699 5.73269 0
M  V30 6508 N 592.536 0.29366 6.92177 0
M  V30 6509 N 594.329 0.0640787 5.62063 0
M  V30 6510 H 586.48 1.02277 1.86154 0
M  V30 6511 H 588.743 0.4007 0.859153 0
M  V30 6512 H 588.449 0.929279 3.39201 0
M  V30 6513 H 588.323 -0.795899 3.68708 0
M  V30 6514 H 590.71 -1.09349 2.74093 0
M  V30 6515 H 590.791 0.653656 2.47307 0
M  V30 6516 H 590.435 1.03093 4.97327 0
M  V30 6517 H 590.365 -0.732748 5.21477 0
M  V30 6518 H 592.856 -0.123173 3.77699 0
M  V30 6519 H 593.169 0.37389 7.71895 0
M  V30 6520 H 591.514 0.329307 6.94219 0
M  V30 6521 H 594.705 -0.0683396 4.6805 0
M  V30 6522 H 594.878 0.158097 6.47807 0
M  V30 6523 N 588.284 -1.56567 -0.180126 0
M  V30 6524 C 589.232 -1.96632 -1.24251 0
M  V30 6525 C 590.226 -0.853818 -1.46309 0
M  V30 6526 O 591.432 -1.0389 -1.46993 0
M  V30 6527 H 587.807 -0.625476 -0.417473 0
M  V30 6528 H 589.778 -2.85201 -0.877679 0
M  V30 6529 C 588.527 -2.33486 -2.57642 0
M  V30 6530 H 587.85 -3.18626 -2.4149 0
M  V30 6531 H 589.29 -2.65371 -3.30688 0
M  V30 6532 C 587.749 -1.17499 -3.15746 0
M  V30 6533 O 588.279 -0.457956 -3.99081 0
M  V30 6534 N 586.485 -0.94786 -2.74707 0
M  V30 6535 H 586.032 -1.53269 -2.07042 0
M  V30 6536 H 585.99 -0.173626 -3.1392 0
M  V30 6537 N 589.762 0.448376 -1.51087 0
M  V30 6538 C 590.672 1.56882 -1.74428 0
M  V30 6539 C 591.688 1.62268 -0.62809 0
M  V30 6540 O 592.864 1.79716 -0.909075 0
M  V30 6541 C 589.929 2.92947 -1.85426 0
M  V30 6542 C 588.99 2.97766 -3.09247 0
M  V30 6543 C 588.223 4.27341 -3.19711 0
M  V30 6544 O 588.446 5.19112 -2.36387 0
M  V30 6545 O 587.38 4.38219 -4.12611 0
M  V30 6546 H 591.206 1.40104 -2.69452 0
M  V30 6547 H 588.791 0.630247 -1.35456 0
M  V30 6548 H 590.673 3.73719 -1.94709 0
M  V30 6549 H 589.348 3.09876 -0.935887 0
M  V30 6550 H 588.255 2.15989 -3.0545 0
M  V30 6551 H 589.588 2.8578 -4.00738 0
M  V30 6552 N 591.24 1.41047 0.703093 0
M  V30 6553 C 592.17 1.45067 1.82969 0
M  V30 6554 C 593.151 0.31016 1.67248 0
M  V30 6555 O 594.336 0.520548 1.87093 0
M  V30 6556 C 591.466 1.32478 3.2104 0
M  V30 6557 C 590.42 2.44262 3.51454 0
M  V30 6558 C 589.746 2.16742 4.88801 0
M  V30 6559 C 591.046 3.86606 3.51189 0
M  V30 6560 H 592.74 2.39353 1.79863 0
M  V30 6561 H 590.286 1.15206 0.863919 0
M  V30 6562 H 592.239 1.33904 3.99559 0
M  V30 6563 H 590.963 0.346735 3.24754 0
M  V30 6564 H 589.622 2.42107 2.75282 0
M  V30 6565 H 589.27 1.17299 4.89132 0
M  V30 6566 H 588.97 2.91643 5.10116 0
M  V30 6567 H 590.494 2.19872 5.69639 0
M  V30 6568 H 591.908 3.90517 4.19725 0
M  V30 6569 H 590.305 4.61128 3.84033 0
M  V30 6570 H 591.375 4.15296 2.50315 0
M  V30 6571 N 592.718 -0.936591 1.26751 0
M  V30 6572 C 593.967 -1.67778 1.11953 0
M  V30 6573 C 594.28 -1.92694 -0.33589 0
M  V30 6574 O 595.486 -2.64682 -0.604618 0
M  V30 6575 C 593.942 -3.02138 1.95551 0
M  V30 6576 C 593.55 -2.84953 3.45696 0
M  V30 6577 C 595.294 -3.79917 1.89377 0
M  V30 6578 C 593.201 -4.14814 4.21525 0
M  V30 6579 H 592.131 -0.629275 0.415366 0
M  V30 6580 H 594.782 -1.04122 1.51099 0
M  V30 6581 H 593.164 -3.668 1.49243 0
M  V30 6582 H 594.338 -2.29112 3.99805 0
M  V30 6583 H 592.653 -2.20612 3.53156 0
M  V30 6584 H 595.25 -4.76134 2.43312 0
M  V30 6585 H 595.593 -4.07204 0.865464 0
M  V30 6586 H 596.126 -3.22037 2.33532 0
M  V30 6587 H 592.865 -3.92709 5.24843 0
M  V30 6588 H 592.385 -4.70352 3.72195 0
M  V30 6589 H 594.064 -4.83239 4.3022 0
M  V30 6590 N 594.196 -1.08629 -1.14182 0
M  V30 6591 C 595.445 -0.812271 -1.84621 0
M  V30 6592 C 595.758 0.664313 -1.83973 0
M  V30 6593 O 596.964 1.05357 -2.50224 0
M  V30 6594 C 595.42 -1.4031 -3.31423 0
M  V30 6595 C 595.028 -2.91164 -3.40481 0
M  V30 6596 C 596.772 -1.20767 -4.06959 0
M  V30 6597 C 594.679 -3.43373 -4.81507 0
M  V30 6598 H 593.609 -0.30019 -0.691666 0
M  V30 6599 H 596.26 -1.30798 -1.28701 0
M  V30 6600 H 594.642 -0.835096 -3.87094 0
M  V30 6601 H 595.816 -3.5412 -2.94848 0
M  V30 6602 H 594.131 -3.09646 -2.78403 0
M  V30 6603 H 596.728 -1.57237 -5.11058 0
M  V30 6604 H 597.071 -0.147664 -4.16038 0
M  V30 6605 H 597.604 -1.74274 -3.57594 0
M  V30 6606 H 594.343 -4.48958 -4.77616 0
M  V30 6607 H 593.863 -2.85176 -5.27669 0
M  V30 6608 H 595.542 -3.40095 -5.50404 0
M  V30 6609 N 595.674 1.31259 -0.872281 0
M  V30 6610 C 596.922 1.96233 -0.483409 0
M  V30 6611 C 597.243 1.69276 0.968012 0
M  V30 6612 O 596.513 1.00943 1.67891 0
M  V30 6613 H 595.093 0.726025 -0.175774 0
M  V30 6614 H 597.755 1.60024 -1.11258 0
M  V30 6615 H 596.851 3.05403 -0.643075 0
M  V30 6616 N 597.152 0.631951 1.44375 0
M  V30 6617 C 598.382 0.143658 2.061 0
M  V30 6618 C 598.79 -1.18733 1.47306 0
M  V30 6619 O 598.133 -1.73943 0.590724 0
M  V30 6620 C 598.195 -0.0446102 3.59472 0
M  V30 6621 C 597.859 1.20835 4.40736 0
M  V30 6622 C 598.856 2.13224 4.74164 0
M  V30 6623 C 596.541 1.44399 4.81097 0
M  V30 6624 C 598.535 3.27487 5.46838 0
M  V30 6625 C 596.222 2.58959 5.53519 0
M  V30 6626 C 597.22 3.50329 5.86309 0
M  V30 6627 O 596.908 4.62891 6.57257 0
M  V30 6628 H 596.64 0.0772939 0.671567 0
M  V30 6629 H 599.194 0.866677 1.8622 0
M  V30 6630 H 597.424 -0.822783 3.77845 0
M  V30 6631 H 599.113 -0.487561 4.02961 0
M  V30 6632 H 599.879 1.96253 4.4352 0
M  V30 6633 H 595.758 0.741696 4.54994 0
M  V30 6634 H 599.302 3.98826 5.72349 0
M  V30 6635 H 595.199 2.75873 5.83579 0
M  V30 6636 H 595.967 4.61883 6.75726 0
M  V30 6637 N 598.631 -1.53133 0.372548 0
M  V30 6638 C 599.578 -2.25951 -0.470631 0
M  V30 6639 C 600.548 -1.26895 -1.07176 0
M  V30 6640 O 601.733 -1.55691 -1.10294 0
M  V30 6641 C 598.873 -3.05726 -1.6008 0
M  V30 6642 C 597.986 -4.19684 -1.02416 0
M  V30 6643 C 597.121 -4.86888 -2.124 0
M  V30 6644 C 596.16 -5.92866 -1.52238 0
M  V30 6645 N 595.297 -6.53732 -2.56084 0
M  V30 6646 H 600.137 -2.97587 0.156816 0
M  V30 6647 H 597.674 -1.4683 0.0891571 0
M  V30 6648 H 599.632 -3.50258 -2.26661 0
M  V30 6649 H 598.262 -2.36331 -2.1988 0
M  V30 6650 H 597.314 -3.79588 -0.248426 0
M  V30 6651 H 598.626 -4.95821 -0.544366 0
M  V30 6652 H 597.78 -5.34638 -2.86787 0
M  V30 6653 H 596.519 -4.10239 -2.63734 0
M  V30 6654 H 595.524 -5.4447 -0.763685 0
M  V30 6655 H 596.749 -6.71439 -1.0172 0
M  V30 6656 H 594.695 -5.79932 -3.06618 0
M  V30 6657 H 594.612 -7.25429 -2.12811 0
M  V30 6658 H 595.88 -7.0613 -3.30152 0
M  V30 6659 N 600.109 -0.101901 -1.5727 0
M  V30 6660 C 601.019 0.868647 -2.17926 0
M  V30 6661 C 602.035 1.30527 -1.1506 0
M  V30 6662 O 603.211 1.37178 -1.47459 0
M  V30 6663 C 600.276 2.10727 -2.75309 0
M  V30 6664 C 599.337 1.7242 -3.93154 0
M  V30 6665 C 598.57 2.90377 -4.47791 0
M  V30 6666 O 598.793 4.05305 -4.01353 0
M  V30 6667 O 597.727 2.6845 -5.38719 0
M  V30 6668 H 601.553 0.382544 -3.01281 0
M  V30 6669 H 599.138 0.122812 -1.48894 0
M  V30 6670 H 601.02 2.83303 -3.11958 0
M  V30 6671 H 599.695 2.58376 -1.94996 0
M  V30 6672 H 598.602 0.970039 -3.61305 0
M  V30 6673 H 599.935 1.29528 -4.74851 0
M  V30 6674 N 601.587 1.56661 0.17182 0
M  V30 6675 C 602.517 1.99401 1.21498 0
M  V30 6676 C 603.498 0.869516 1.46197 0
M  V30 6677 O 604.683 1.13556 1.57539 0
M  V30 6678 C 601.813 2.35346 2.55401 0
M  V30 6679 C 600.767 3.5075 2.45272 0
M  V30 6680 C 600.093 3.72437 3.8366 0
M  V30 6681 C 601.393 4.84216 1.95787 0
M  V30 6682 H 603.087 2.86792 0.859699 0
M  V30 6683 H 600.633 1.37977 0.412103 0
M  V30 6684 H 602.586 2.63843 3.2858 0
M  V30 6685 H 601.31 1.44864 2.92715 0
M  V30 6686 H 599.969 3.2238 1.74547 0
M  V30 6687 H 599.617 2.79246 4.18367 0
M  V30 6688 H 599.317 4.50087 3.77751 0
M  V30 6689 H 600.841 4.03334 4.58426 0
M  V30 6690 H 602.255 5.11592 2.5874 0
M  V30 6691 H 600.652 5.65498 2.00827 0
M  V30 6692 H 601.722 4.76243 0.912159 0
M  V30 6693 N 603.065 -0.440357 1.51323 0
M  V30 6694 C 603.995 -1.54174 1.75364 0
M  V30 6695 C 604.976 -1.59039 0.603375 0
M  V30 6696 O 606.161 -1.74815 0.845774 0
M  V30 6697 C 603.291 -2.92277 1.87593 0
M  V30 6698 C 602.245 -3.02274 3.03009 0
M  V30 6699 C 601.571 -4.42327 3.00418 0
M  V30 6700 C 602.871 -2.76634 4.43024 0
M  V30 6701 H 604.565 -1.34307 2.67585 0
M  V30 6702 H 602.111 -0.644678 1.28763 0
M  V30 6703 H 604.064 -3.69284 2.02995 0
M  V30 6704 H 602.788 -3.13369 0.920179 0
M  V30 6705 H 601.447 -2.27706 2.87307 0
M  V30 6706 H 601.095 -4.60382 2.02626 0
M  V30 6707 H 600.795 -4.49946 3.77918 0
M  V30 6708 H 602.319 -5.21312 3.17909 0
M  V30 6709 H 603.733 -3.43376 4.59093 0
M  V30 6710 H 602.13 -2.95666 5.22208 0
M  V30 6711 H 603.2 -1.72262 4.5327 0
M  V30 6712 N 604.543 -1.41418 -0.695603 0
M  V30 6713 C 605.49 -1.43264 -1.80954 0
M  V30 6714 C 606.46 -0.287016 -1.63601 0
M  V30 6715 O 607.645 -0.488054 -1.84452 0
M  V30 6716 C 604.785 -1.32054 -3.18835 0
M  V30 6717 C 603.898 -2.56485 -3.4762 0
M  V30 6718 C 603.033 -2.3757 -4.75115 0
M  V30 6719 C 602.072 -3.57477 -4.96867 0
M  V30 6720 N 601.209 -3.37632 -6.15588 0
M  V30 6721 H 606.049 -2.38467 -1.78711 0
M  V30 6722 H 603.586 -1.18415 -0.872715 0
M  V30 6723 H 605.544 -1.23558 -3.98484 0
M  V30 6724 H 604.174 -0.404592 -3.20254 0
M  V30 6725 H 603.226 -2.75432 -2.62376 0
M  V30 6726 H 604.538 -3.45678 -3.59594 0
M  V30 6727 H 603.692 -2.2654 -5.62818 0
M  V30 6728 H 602.431 -1.45834 -4.65386 0
M  V30 6729 H 601.436 -3.68961 -4.07612 0
M  V30 6730 H 602.661 -4.50167 -5.08455 0
M  V30 6731 H 600.607 -2.48596 -6.07072 0
M  V30 6732 H 600.524 -4.20401 -6.2833 0
M  V30 6733 H 601.792 -3.30375 -7.06026 0
M  V30 6734 N 606.021 0.929856 -1.27246 0
M  V30 6735 C 606.951 2.04722 -1.12299 0
M  V30 6736 C 607.932 1.70082 -0.0250464 0
M  V30 6737 O 609.117 1.93176 -0.199141 0
M  V30 6738 C 606.247 3.38721 -0.767145 0
M  V30 6739 C 605.201 3.87466 -1.81808 0
M  V30 6740 C 604.527 5.18246 -1.31626 0
M  V30 6741 C 605.827 4.11095 -3.22177 0
M  V30 6742 H 607.521 2.17485 -2.05769 0
M  V30 6743 H 605.067 1.04503 -0.990715 0
M  V30 6744 H 607.02 4.16366 -0.649413 0
M  V30 6745 H 605.744 3.25967 0.203259 0
M  V30 6746 H 604.403 3.12012 -1.92468 0
M  V30 6747 H 604.051 5.01881 -0.335378 0
M  V30 6748 H 603.751 5.51829 -2.01887 0
M  V30 6749 H 605.275 5.98462 -1.21143 0
M  V30 6750 H 606.689 4.79316 -3.1453 0
M  V30 6751 H 605.086 4.55982 -3.90129 0
M  V30 6752 H 606.156 3.16468 -3.67391 0
M  V30 6753 N 607.499 1.09233 1.13605 0
M  V30 6754 C 608.446 0.729921 2.18954 0
M  V30 6755 C 609.416 -0.287916 1.63586 0
M  V30 6756 O 610.601 -0.170003 1.90041 0
M  V30 6757 C 607.741 0.154489 3.44754 0
M  V30 6758 C 606.854 1.22613 4.14234 0
M  V30 6759 C 605.989 0.613657 5.27644 0
M  V30 6760 C 605.028 1.66674 5.8897 0
M  V30 6761 N 604.165 1.07545 6.93814 0
M  V30 6762 H 609.005 1.63257 2.49302 0
M  V30 6763 H 606.542 0.815693 1.22413 0
M  V30 6764 H 608.5 -0.196923 4.16735 0
M  V30 6765 H 607.13 -0.711433 3.14863 0
M  V30 6766 H 606.182 1.69485 3.40557 0
M  V30 6767 H 607.494 2.0238 4.55899 0
M  V30 6768 H 606.648 0.210976 6.06333 0
M  V30 6769 H 605.387 -0.215584 4.87223 0
M  V30 6770 H 604.392 2.07899 5.08978 0
M  V30 6771 H 605.617 2.49861 6.31464 0
M  V30 6772 H 603.563 0.267451 6.55455 0
M  V30 6773 H 603.48 1.81011 7.3401 0
M  V30 6774 H 604.748 0.698906 7.7636 0
M  V30 6775 N 608.977 -1.30795 0.87923 0
M  V30 6776 C 610.225 -1.95974 0.493809 0
M  V30 6777 C 610.546 -1.69787 -0.959021 0
M  V30 6778 O 609.816 -1.01832 -1.67353 0
M  V30 6779 H 608.396 -0.725083 0.179622 0
M  V30 6780 H 611.058 -1.59432 1.12105 0
M  V30 6781 H 610.154 -3.05058 0.659263 0
M  V30 6782 N 610.455 -0.639598 -1.44038 0
M  V30 6783 C 611.365 0.0612377 -2.3452 0
M  V30 6784 C 612.381 0.826717 -1.53106 0
M  V30 6785 O 613.557 0.777059 -1.85806 0
M  V30 6786 C 610.622 1.02492 -3.31204 0
M  V30 6787 C 609.683 0.25788 -4.28525 0
M  V30 6788 C 608.916 1.17566 -5.2059 0
M  V30 6789 O 609.139 2.41461 -5.16771 0
M  V30 6790 O 608.073 0.655407 -5.98321 0
M  V30 6791 H 611.899 -0.68318 -2.95916 0
M  V30 6792 H 609.484 -0.399784 -1.43952 0
M  V30 6793 H 611.366 1.57911 -3.90694 0
M  V30 6794 H 610.041 1.7498 -2.7233 0
M  V30 6795 H 608.948 -0.339566 -3.72556 0
M  V30 6796 H 610.281 -0.427154 -4.90343 0
M  V30 6797 N 611.933 1.52934 -0.380664 0
M  V30 6798 C 613.21 1.93845 0.261417 0
M  V30 6799 C 613.59 1.31544 1.65104 0
M  V30 6800 O 612.938 0.480234 2.23397 0
M  V30 6801 C 613.148 3.47739 0.296466 0
M  V30 6802 C 614.496 4.21284 0.529578 0
M  V30 6803 O 615.52 3.54199 0.377041 0
M  V30 6804 O 614.379 5.40195 0.827753 0
M  V30 6805 H 611.473 0.811318 0.160285 0
M  V30 6806 H 614.019 1.64042 -0.434544 0
M  V30 6807 H 612.791 3.85395 -0.67724 0
M  V30 6808 H 612.414 3.8382 1.0377 0
M  V30 6809 N 613.412 0.11024 1.57214 0
M  V30 6810 C 614.64 -0.557834 1.99238 0
M  V30 6811 C 615.055 -1.60778 0.989734 0
M  V30 6812 O 614.412 -1.82491 -0.0186092 0
M  V30 6813 C 614.463 -1.19189 3.41286 0
M  V30 6814 O 614.184 -0.183919 4.37714 0
M  V30 6815 C 615.685 -1.94413 3.98395 0
M  V30 6816 H 612.905 -0.148392 0.654386 0
M  V30 6817 H 615.449 0.193996 2.03578 0
M  V30 6818 H 613.604 -1.89456 3.37913 0
M  V30 6819 H 614.018 -0.643475 5.20538 0
M  V30 6820 H 615.492 -2.34116 4.99894 0
M  V30 6821 H 615.969 -2.81592 3.3705 0
M  V30 6822 H 616.575 -1.28928 4.05287 0
M  V30 6823 N 614.89 -1.56749 -0.16351 0
M  V30 6824 C 616.115 -1.86938 -0.898264 0
M  V30 6825 C 616.54 -0.697456 -1.74692 0
M  V30 6826 O 615.898 0.353327 -1.77824 0
M  V30 6827 C 615.946 -3.15599 -1.74441 0
M  V30 6828 O 615.05 -2.98371 -2.8469 0
M  V30 6829 H 614.391 -0.614659 -0.251178 0
M  V30 6830 H 616.921 -2.03979 -0.159298 0
M  V30 6831 H 616.931 -3.47202 -2.14277 0
M  V30 6832 H 615.606 -4.00505 -1.1211 0
M  V30 6833 H 614.183 -2.7814 -2.4838 0
M  V30 6834 N 616.368 0.432326 -1.51554 0
M  V30 6835 C 617.645 1.19288 -1.55015 0
M  V30 6836 C 618.025 2.08701 -0.317375 0
M  V30 6837 O 617.373 2.17602 0.697243 0
M  V30 6838 C 617.583 1.99037 -2.86679 0
M  V30 6839 C 618.931 2.55907 -3.38817 0
M  V30 6840 O 619.955 2.09243 -2.88263 0
M  V30 6841 O 618.814 3.41029 -4.27038 0
M  V30 6842 H 615.908 0.543369 -0.623441 0
M  V30 6843 H 618.454 0.440988 -1.6387 0
M  V30 6844 H 617.226 1.33397 -3.6786 0
M  V30 6845 H 616.849 2.81281 -2.8101 0
M  V30 6846 N 617.846 1.41785 0.688094 0
M  V30 6847 C 618.776 1.47 1.8142 0
M  V30 6848 C 619.757 0.327881 1.6691 0
M  V30 6849 O 620.942 0.540362 1.86531 0
M  V30 6850 C 618.072 1.35876 3.19617 0
M  V30 6851 C 617.026 2.47976 3.48844 0
M  V30 6852 C 616.352 2.21915 4.86475 0
M  V30 6853 C 617.652 3.90309 3.47068 0
M  V30 6854 H 619.346 2.41247 1.77314 0
M  V30 6855 H 616.892 1.16116 0.851651 0
M  V30 6856 H 618.845 1.38134 3.98117 0
M  V30 6857 H 617.569 0.38116 3.24368 0
M  V30 6858 H 616.228 2.45013 2.72698 0
M  V30 6859 H 615.876 1.2248 4.8786 0
M  V30 6860 H 615.576 2.97037 5.06994 0
M  V30 6861 H 617.1 2.25901 5.67275 0
M  V30 6862 H 618.514 3.94947 4.1556 0
M  V30 6863 H 616.911 4.65175 3.7912 0
M  V30 6864 H 617.981 4.17927 2.45896 0
M  V30 6865 N 619.324 -0.923095 1.27737 0
M  V30 6866 C 620.601 -1.64989 1.05062 0
M  V30 6867 C 620.981 -2.07018 -0.413124 0
M  V30 6868 O 620.329 -1.80797 -1.39731 0
M  V30 6869 C 620.539 -2.84847 2.01652 0
M  V30 6870 C 621.887 -3.56083 2.31279 0
M  V30 6871 O 622.911 -2.94981 1.99662 0
M  V30 6872 O 621.77 -4.66182 2.85196 0
M  V30 6873 H 618.864 -0.723357 0.400853 0
M  V30 6874 H 621.41 -0.973224 1.3902 0
M  V30 6875 H 620.182 -2.50814 3.00347 0
M  V30 6876 H 619.805 -3.60231 1.68284 0
M  V30 6877 N 620.802 -1.09834 -1.13024 0
M  V30 6878 C 621.75 -0.736283 -2.20639 0
M  V30 6879 C 622.744 0.264725 -1.67319 0
M  V30 6880 O 623.95 0.125745 -1.7956 0
M  V30 6881 H 620.325 -0.220136 -0.719058 0
M  V30 6882 H 622.296 -1.65295 -2.48436 0
M  V30 6883 C 621.045 -0.177544 -3.47246 0
M  V30 6884 H 620.368 -0.939009 -3.88616 0
M  V30 6885 H 621.808 0.0378007 -4.23983 0
M  V30 6886 C 620.267 1.08824 -3.1884 0
M  V30 6887 O 620.797 2.1708 -3.37993 0
M  V30 6888 N 619.003 1.00442 -2.7269 0
M  V30 6889 H 618.55 0.123383 -2.57304 0
M  V30 6890 H 618.508 1.85206 -2.5406 0
M  V30 6891 N 622.28 1.30327 -0.886154 0
M  V30 6892 C 623.243 2.26376 -0.358687 0
M  V30 6893 C 624.243 1.52845 0.499498 0
M  V30 6894 O 625.433 1.71483 0.306485 0
M  V30 6895 C 622.565 3.37379 0.488726 0
M  V30 6896 H 623.758 2.74547 -1.20681 0
M  V30 6897 H 621.311 1.41536 -0.663113 0
M  V30 6898 H 622.046 2.94526 1.35739 0
M  V30 6899 H 621.831 3.91897 -0.126003 0
M  V30 6900 H 623.321 4.08868 0.84952 0
M  V30 6901 N 623.758 0.647228 1.43697 0
M  V30 6902 C 624.721 -0.0385101 2.29168 0
M  V30 6903 C 625.721 -0.756487 1.41894 0
M  V30 6904 O 626.911 -0.598641 1.63591 0
M  V30 6905 C 624.043 -1.06524 3.23829 0
M  V30 6906 H 625.236 0.713445 2.9129 0
M  V30 6907 H 622.789 0.408153 1.50877 0
M  V30 6908 H 623.524 -1.84664 2.66589 0
M  V30 6909 H 623.309 -0.554147 3.88164 0
M  V30 6910 H 624.799 -1.54432 3.87996 0
M  V30 6911 N 625.236 -1.5273 0.388769 0
M  V30 6912 C 626.485 -2.00757 -0.194833 0
M  V30 6913 C 626.798 -1.27951 -1.47946 0
M  V30 6914 O 628.004 -1.66686 -2.14308 0
M  V30 6915 C 626.46 -3.57695 -0.397762 0
M  V30 6916 C 626.068 -4.394 0.873583 0
M  V30 6917 C 627.812 -4.14012 -0.937759 0
M  V30 6918 C 625.719 -5.87938 0.638962 0
M  V30 6919 H 624.649 -0.750101 -0.0765845 0
M  V30 6920 H 627.3 -1.76239 0.511086 0
M  V30 6921 H 625.682 -3.7846 -1.16552 0
M  V30 6922 H 626.856 -4.30403 1.64591 0
M  V30 6923 H 625.171 -3.94301 1.33849 0
M  V30 6924 H 627.768 -5.22645 -1.12899 0
M  V30 6925 H 628.111 -3.7007 -1.90666 0
M  V30 6926 H 628.644 -3.97137 -0.229588 0
M  V30 6927 H 625.383 -6.36202 1.57885 0
M  V30 6928 H 624.903 -5.99726 -0.094443 0
M  V30 6929 H 626.582 -6.46423 0.273299 0
M  V30 6930 N 626.714 -0.118576 -1.57153 0
M  V30 6931 C 627.624 0.845484 -2.18835 0
M  V30 6932 C 628.64 1.29299 -1.16438 0
M  V30 6933 O 629.816 1.35607 -1.48905 0
M  V30 6934 C 626.881 2.07795 -2.77529 0
M  V30 6935 C 625.942 1.6824 -3.9496 0
M  V30 6936 C 625.175 2.85612 -4.50845 0
M  V30 6937 O 625.398 4.01025 -4.05629 0
M  V30 6938 O 624.332 2.62721 -5.41536 0
M  V30 6939 H 628.158 0.350568 -3.0167 0
M  V30 6940 H 625.743 0.107013 -1.49016 0
M  V30 6941 H 627.625 2.79978 -3.14945 0
M  V30 6942 H 626.3 2.56294 -1.97725 0
M  V30 6943 H 625.207 0.931663 -3.62313 0
M  V30 6944 H 626.54 1.24484 -4.76198 0
M  V30 6945 N 628.193 1.56834 0.155195 0
M  V30 6946 C 629.423 1.86778 0.883044 0
M  V30 6947 C 629.831 0.703824 1.75622 0
M  V30 6948 O 629.174 -0.33581 1.80605 0
M  V30 6949 C 629.236 3.1133 1.79761 0
M  V30 6950 C 628.9 4.43504 1.10242 0
M  V30 6951 C 629.897 5.17859 0.460204 0
M  V30 6952 C 627.582 4.90233 1.09437 0
M  V30 6953 C 629.576 6.37144 -0.180782 0
M  V30 6954 C 627.263 6.09444 0.449569 0
M  V30 6955 C 628.261 6.82744 -0.186888 0
M  V30 6956 O 627.949 7.99692 -0.821486 0
M  V30 6957 H 627.681 0.62352 0.261149 0
M  V30 6958 H 630.235 2.04813 0.155204 0
M  V30 6959 H 628.465 2.89282 2.56618 0
M  V30 6960 H 630.154 3.27587 2.39669 0
M  V30 6961 H 630.92 4.8283 0.458289 0
M  V30 6962 H 626.799 4.33109 1.57917 0
M  V30 6963 H 630.343 6.94296 -0.678154 0
M  V30 6964 H 626.24 6.43936 0.449123 0
M  V30 6965 H 627.008 8.15306 -0.722337 0
M  V30 6966 N 629.671 -0.424282 1.51781 0
M  V30 6967 C 630.581 -1.54087 1.76902 0
M  V30 6968 C 631.597 -1.61249 0.653826 0
M  V30 6969 O 632.773 -1.78247 0.937552 0
M  V30 6970 C 629.838 -2.8996 1.90063 0
M  V30 6971 C 628.899 -2.92809 3.13945 0
M  V30 6972 C 628.132 -4.22201 3.26469 0
M  V30 6973 O 628.355 -5.15286 2.44616 0
M  V30 6974 O 627.289 -4.31599 4.1953 0
M  V30 6975 H 631.115 -1.358 2.71647 0
M  V30 6976 H 628.7 -0.608618 1.36441 0
M  V30 6977 H 630.582 -3.70575 2.0063 0
M  V30 6978 H 629.257 -3.08347 0.985067 0
M  V30 6979 H 628.164 -2.11102 3.08847 0
M  V30 6980 H 629.497 -2.79369 4.05233 0
M  V30 6981 N 631.149 -1.42148 -0.680565 0
M  V30 6982 C 632.395 -1.42521 -1.44277 0
M  V30 6983 C 632.728 -0.0393718 -1.9416 0
M  V30 6984 O 632.003 0.935425 -1.70529 0
M  V30 6985 C 632.286 -2.44475 -2.64394 0
M  V30 6986 C 632.139 -3.92226 -2.20179 0
M  V30 6987 C 633.458 -2.43491 -3.66606 0
M  V30 6988 H 630.577 -0.518985 -0.523282 0
M  V30 6989 H 633.219 -1.73524 -0.773914 0
M  V30 6990 H 631.369 -2.18168 -3.21458 0
M  V30 6991 H 633.041 -4.29493 -1.68327 0
M  V30 6992 H 631.284 -4.0637 -1.5181 0
M  V30 6993 H 631.955 -4.59133 -3.06433 0
M  V30 6994 H 634.431 -2.66872 -3.19247 0
M  V30 6995 H 633.307 -3.16816 -4.4824 0
M  V30 6996 H 633.568 -1.45881 -4.17338 0
M  V30 6997 N 632.627 0.916307 -1.28225 0
M  V30 6998 C 633.904 1.64429 -1.05936 0
M  V30 6999 C 634.284 2.07234 0.402139 0
M  V30 7000 O 633.632 1.81535 1.3877 0
M  V30 7001 C 633.842 2.83773 -2.03159 0
M  V30 7002 C 635.19 3.54852 -2.33164 0
M  V30 7003 O 636.214 2.93918 -2.01223 0
M  V30 7004 O 635.073 4.64663 -2.87664 0
M  V30 7005 H 632.167 0.721221 -0.404683 0
M  V30 7006 H 634.713 0.965838 -1.39534 0
M  V30 7007 H 633.485 2.49217 -3.01673 0
M  V30 7008 H 633.108 3.59333 -1.70192 0
M  V30 7009 N 634.105 1.10431 1.1244 0
M  V30 7010 C 635.037 0.710945 2.17895 0
M  V30 7011 C 636.05 -0.252315 1.60833 0
M  V30 7012 O 637.239 -0.03679 1.78462 0
M  V30 7013 C 634.339 0.0284262 3.38888 0
M  V30 7014 C 633.512 1.01585 4.2544 0
M  V30 7015 C 632.571 0.364826 5.24934 0
M  V30 7016 O 631.597 1.01561 5.60066 0
M  V30 7017 N 632.799 -0.87674 5.73841 0
M  V30 7018 H 635.564 1.61826 2.52255 0
M  V30 7019 H 633.125 0.993132 1.27861 0
M  V30 7020 H 635.117 -0.418568 4.0253 0
M  V30 7021 H 633.687 -0.781294 3.02679 0
M  V30 7022 H 632.907 1.64111 3.58415 0
M  V30 7023 H 634.195 1.68425 4.80115 0
M  V30 7024 H 633.593 -1.42483 5.47462 0
M  V30 7025 H 632.15 -1.26688 6.39369 0
M  V30 7026 N 635.583 -1.29855 0.893053 0
M  V30 7027 C 636.832 -1.95104 0.511597 0
M  V30 7028 C 637.145 -1.71226 -0.945567 0
M  V30 7029 O 638.351 -2.30525 -1.43424 0
M  V30 7030 C 636.807 -3.49374 0.864034 0
M  V30 7031 C 636.415 -3.82061 2.33952 0
M  V30 7032 C 638.159 -4.20894 0.552167 0
M  V30 7033 C 636.066 -5.29546 2.63316 0
M  V30 7034 H 634.996 -0.73029 0.187597 0
M  V30 7035 H 637.647 -1.47682 1.08914 0
M  V30 7036 H 636.029 -3.95413 0.215493 0
M  V30 7037 H 637.203 -3.46904 3.03305 0
M  V30 7038 H 635.518 -3.23665 2.61973 0
M  V30 7039 H 638.115 -5.29435 0.748489 0
M  V30 7040 H 638.458 -4.13178 -0.508924 0
M  V30 7041 H 638.991 -3.80564 1.15825 0
M  V30 7042 H 635.73 -5.4232 3.68197 0
M  V30 7043 H 635.25 -5.65974 1.9858 0
M  V30 7044 H 636.929 -5.97068 2.49236 0
M  V30 7045 N 637.061 -0.65484 -1.43351 0
M  V30 7046 C 637.991 0.0221809 -2.33489 0
M  V30 7047 C 638.972 0.810272 -1.49561 0
M  V30 7048 O 640.157 0.771426 -1.78221 0
M  V30 7049 C 637.287 0.988117 -3.32947 0
M  V30 7050 C 636.241 0.310026 -4.26876 0
M  V30 7051 C 635.567 1.38752 -5.16384 0
M  V30 7052 C 636.867 -0.798589 -5.16159 0
M  V30 7053 H 638.561 -0.730571 -2.9035 0
M  V30 7054 H 636.107 -0.352773 -1.39612 0
M  V30 7055 H 638.06 1.47067 -3.94904 0
M  V30 7056 H 636.784 1.77205 -2.74346 0
M  V30 7057 H 635.443 -0.152097 -3.66284 0
M  V30 7058 H 635.091 2.16293 -4.54121 0
M  V30 7059 H 634.791 0.939051 -5.80048 0
M  V30 7060 H 636.315 1.87141 -5.81215 0
M  V30 7061 H 637.729 -0.398126 -5.71916 0
M  V30 7062 H 636.126 -1.17163 -5.88552 0
M  V30 7063 H 637.196 -1.65588 -4.55751 0
M  V30 7064 N 638.539 1.52521 -0.396863 0
M  V30 7065 C 639.487 2.28217 0.44943 0
M  V30 7066 C 640.481 1.32416 1.05652 0
M  V30 7067 O 641.687 1.49925 0.996124 0
M  V30 7068 H 638.062 0.733966 0.1637 0
M  V30 7069 H 640.033 2.97658 -0.210367 0
M  V30 7070 C 638.782 3.10713 1.56054 0
M  V30 7071 H 638.105 3.84291 1.10273 0
M  V30 7072 H 639.545 3.66803 2.12677 0
M  V30 7073 C 638.004 2.23499 2.52091 0
M  V30 7074 O 638.534 1.8669 3.55682 0
M  V30 7075 N 636.74 1.8751 2.2201 0
M  V30 7076 H 636.287 2.17643 1.37802 0
M  V30 7077 H 636.245 1.29448 2.86514 0
M  V30 7078 N 640.017 0.126909 1.57088 0
M  V30 7079 C 641.242 -0.53997 2.00248 0
M  V30 7080 C 641.667 -1.58927 1.00618 0
M  V30 7081 O 641.025 -1.81288 -0.0210131 0
M  V30 7082 C 641.073 -1.13565 3.4225 0
M  V30 7083 O 640.177 -2.25103 3.45547 0
M  V30 7084 H 639.518 -0.13412 0.650314 0
M  V30 7085 H 642.048 0.217718 2.03438 0
M  V30 7086 H 642.058 -1.46925 3.80627 0
M  V30 7087 H 640.733 -0.367122 4.14277 0
M  V30 7088 H 639.31 -1.93123 3.18995 0
M  V30 7089 N 641.495 -1.56914 -0.146875 0
M  V30 7090 C 642.744 -1.82546 -0.857898 0
M  V30 7091 C 643.057 -0.708169 -1.8233 0
M  V30 7092 O 644.263 -0.850093 -2.57848 0
M  V30 7093 C 642.719 -3.23548 -1.57623 0
M  V30 7094 C 642.327 -4.43212 -0.653224 0
M  V30 7095 C 644.071 -3.58453 -2.27402 0
M  V30 7096 C 641.978 -5.75237 -1.37318 0
M  V30 7097 H 640.908 -0.680786 -0.32411 0
M  V30 7098 H 643.559 -1.83166 -0.110639 0
M  V30 7099 H 641.941 -3.17315 -2.36912 0
M  V30 7100 H 643.115 -4.60682 0.104452 0
M  V30 7101 H 641.43 -4.16351 -0.0638336 0
M  V30 7102 H 644.027 -4.54349 -2.81907 0
M  V30 7103 H 644.37 -2.84516 -3.03901 0
M  V30 7104 H 644.903 -3.66347 -1.55032 0
M  V30 7105 H 641.642 -6.52269 -0.650041 0
M  V30 7106 H 641.162 -5.61703 -2.10357 0
M  V30 7107 H 642.841 -6.18039 -1.91406 0
M  V30 7108 N 642.974 0.416227 -1.52004 0
M  V30 7109 C 644.251 1.17637 -1.56272 0
M  V30 7110 C 644.631 2.08352 -0.339493 0
M  V30 7111 O 643.979 2.1833 0.674124 0
M  V30 7112 C 644.189 1.95986 -2.88774 0
M  V30 7113 C 645.537 2.52299 -3.41512 0
M  V30 7114 O 646.561 2.06174 -2.90467 0
M  V30 7115 O 645.42 3.3648 -4.30631 0
M  V30 7116 H 642.514 0.536726 -0.629169 0
M  V30 7117 H 645.06 0.423583 -1.64329 0
M  V30 7118 H 643.832 1.29487 -3.69254 0
M  V30 7119 H 643.455 2.78285 -2.83978 0
M  V30 7120 N 644.452 1.42507 0.673017 0
M  V30 7121 C 645.382 1.48916 1.79851 0
M  V30 7122 C 646.363 0.345566 1.66553 0
M  V30 7123 O 647.548 0.560116 1.85947 0
M  V30 7124 C 644.678 1.39258 3.18158 0
M  V30 7125 C 643.632 2.51662 3.46194 0
M  V30 7126 C 642.958 2.27062 4.84094 0
M  V30 7127 C 644.258 3.93968 3.42909 0
M  V30 7128 H 645.952 2.43114 1.74745 0
M  V30 7129 H 643.498 1.17013 0.839288 0
M  V30 7130 H 645.451 1.42349 3.96629 0
M  V30 7131 H 644.175 0.415542 3.23946 0
M  V30 7132 H 642.834 2.47891 2.70084 0
M  V30 7133 H 642.482 1.27648 4.86534 0
M  V30 7134 H 642.182 3.02398 5.03815 0
M  V30 7135 H 643.706 2.31905 5.64847 0
M  V30 7136 H 645.12 3.99332 4.11347 0
M  V30 7137 H 643.517 4.6917 3.74165 0
M  V30 7138 H 644.587 4.20512 2.41449 0
M  V30 7139 N 645.93 -0.909495 1.28709 0
M  V30 7140 C 647.207 -1.63865 1.06806 0
M  V30 7141 C 647.587 -2.07445 -0.391143 0
M  V30 7142 O 646.935 -1.82269 -1.37805 0
M  V30 7143 C 647.145 -2.82692 2.04661 0
M  V30 7144 C 648.493 -3.5361 2.35042 0
M  V30 7145 O 649.517 -2.92847 2.02779 0
M  V30 7146 O 648.376 -4.63131 2.90124 0
M  V30 7147 H 645.47 -0.719065 0.408502 0
M  V30 7148 H 648.016 -0.958424 1.40044 0
M  V30 7149 H 646.788 -2.47614 3.0299 0
M  V30 7150 H 646.411 -3.58426 1.72095 0
M  V30 7151 N 647.408 -1.11026 -1.11852 0
M  V30 7152 C 648.34 -0.72249 -2.17515 0
M  V30 7153 C 649.353 0.243782 -1.60964 0
M  V30 7154 O 650.542 0.0273252 -1.78479 0
M  V30 7155 C 647.642 -0.0463979 -3.38868 0
M  V30 7156 C 646.815 -1.0384 -4.24895 0
M  V30 7157 C 645.874 -0.392659 -5.24733 0
M  V30 7158 O 644.9 -1.0453 -5.5952 0
M  V30 7159 N 646.102 0.846296 -5.74298 0
M  V30 7160 H 648.867 -1.63161 -2.51393 0
M  V30 7161 H 646.428 -0.999899 -1.27333 0
M  V30 7162 H 648.42 0.397215 -4.02746 0
M  V30 7163 H 646.99 0.765231 -3.03089 0
M  V30 7164 H 646.21 -1.6601 -3.57539 0
M  V30 7165 H 647.498 -1.70968 -4.79215 0
M  V30 7166 H 646.896 1.39578 -5.4821 0
M  V30 7167 H 645.453 1.23296 -6.40032 0
M  V30 7168 N 648.886 1.2938 -0.899927 0
M  V30 7169 C 649.834 2.29675 -0.367698 0
M  V30 7170 C 650.828 1.60787 0.533282 0
M  V30 7171 O 652.034 1.75126 0.416058 0
M  V30 7172 H 648.409 0.745284 -0.100279 0
M  V30 7173 H 650.38 2.72008 -1.22696 0
M  V30 7174 C 649.129 3.45512 0.389483 0
M  V30 7175 H 648.452 3.98713 -0.294575 0
M  V30 7176 H 649.892 4.17725 0.726744 0
M  V30 7177 C 648.351 2.969 1.59223 0
M  V30 7178 O 648.881 2.98195 2.69152 0
M  V30 7179 N 647.087 2.52728 1.43447 0
M  V30 7180 H 646.634 2.51873 0.540148 0
M  V30 7181 H 646.592 2.20561 2.24054 0
M  V30 7182 N 650.364 0.662433 1.43002 0
M  V30 7183 C 651.612 0.179237 2.01304 0
M  V30 7184 C 651.933 -1.21428 1.52579 0
M  V30 7185 O 651.203 -1.81294 0.742252 0
M  V30 7186 H 649.783 0.0632725 0.744316 0
M  V30 7187 H 652.445 0.856169 1.75088 0
M  V30 7188 H 651.541 0.170957 3.11631 0
M  V30 7189 N 651.842 -1.52309 0.404946 0
M  V30 7190 C 653.072 -2.05886 -0.171569 0
M  V30 7191 C 653.48 -1.27527 -1.39762 0
M  V30 7192 O 652.823 -0.319215 -1.80905 0
M  V30 7193 C 652.885 -3.54609 -0.590983 0
M  V30 7194 C 652.549 -4.53989 0.523757 0
M  V30 7195 C 653.546 -5.01084 1.38604 0
M  V30 7196 C 651.231 -4.97465 0.695255 0
M  V30 7197 C 653.225 -5.90295 2.4048 0
M  V30 7198 C 650.912 -5.86473 1.71733 0
M  V30 7199 C 651.91 -6.32782 2.57051 0
M  V30 7200 O 651.598 -7.20029 3.57509 0
M  V30 7201 H 651.33 -0.675508 -0.0257763 0
M  V30 7202 H 653.884 -1.97238 0.573278 0
M  V30 7203 H 652.114 -3.60929 -1.38805 0
M  V30 7204 H 653.803 -3.90853 -1.09494 0
M  V30 7205 H 654.569 -4.68214 1.26492 0
M  V30 7206 H 650.448 -4.60982 0.0408447 0
M  V30 7207 H 653.992 -6.26363 3.07108 0
M  V30 7208 H 649.889 -6.18756 1.83877 0
M  V30 7209 H 650.657 -7.3813 3.53703 0
M  V30 7210 N 653.32 -0.135238 -1.57019 0
M  V30 7211 C 654.569 0.518694 -1.94917 0
M  V30 7212 C 654.882 1.66783 -1.0219 0
M  V30 7213 O 656.088 2.38561 -1.29619 0
M  V30 7214 C 654.544 0.974123 -3.46466 0
M  V30 7215 C 654.152 -0.147439 -4.47757 0
M  V30 7216 C 655.896 1.59851 -3.93253 0
M  V30 7217 C 653.803 0.325599 -5.90503 0
M  V30 7218 H 652.733 0.19754 -0.727663 0
M  V30 7219 H 655.384 -0.217698 -1.82204 0
M  V30 7220 H 653.766 1.76542 -3.5447 0
M  V30 7221 H 654.94 -0.924122 -4.51438 0
M  V30 7222 H 653.255 -0.679496 -4.10818 0
M  V30 7223 H 655.852 1.96385 -4.9733 0
M  V30 7224 H 656.195 2.48306 -3.3414 0
M  V30 7225 H 656.728 0.872323 -3.88118 0
M  V30 7226 H 653.467 -0.523295 -6.53408 0
M  V30 7227 H 652.987 1.06841 -5.90208 0
M  V30 7228 H 654.666 0.781498 -6.42263 0
M  V30 7229 N 654.798 1.5699 0.138552 0
M  V30 7230 C 655.708 2.02174 1.19008 0
M  V30 7231 C 656.724 0.938622 1.46512 0
M  V30 7232 O 657.9 1.24872 1.58016 0
M  V30 7233 C 654.965 2.40045 2.50159 0
M  V30 7234 C 654.026 3.62346 2.30226 0
M  V30 7235 C 653.259 3.98401 3.55123 0
M  V30 7236 O 653.482 3.35019 4.61647 0
M  V30 7237 O 652.416 4.91606 3.47285 0
M  V30 7238 H 656.242 2.91954 0.836452 0
M  V30 7239 H 653.827 1.45293 0.347907 0
M  V30 7240 H 655.709 2.65225 3.27465 0
M  V30 7241 H 654.384 1.53417 2.85035 0
M  V30 7242 H 653.291 3.42341 1.50843 0
M  V30 7243 H 654.624 4.49617 2.00262 0
M  V30 7244 N 656.276 -0.40816 1.52223 0
M  V30 7245 C 657.506 -1.17501 1.69932 0
M  V30 7246 C 657.914 -1.84729 0.408874 0
M  V30 7247 O 657.257 -1.7274 -0.625025 0
M  V30 7248 C 657.319 -2.27994 2.77955 0
M  V30 7249 C 656.983 -1.80894 4.19674 0
M  V30 7250 C 657.98 -1.29618 5.03483 0
M  V30 7251 C 655.665 -1.87698 4.65913 0
M  V30 7252 C 657.659 -0.857695 6.31603 0
M  V30 7253 C 655.346 -1.43461 5.94022 0
M  V30 7254 C 656.344 -0.925822 6.76696 0
M  V30 7255 O 656.032 -0.489841 8.02406 0
M  V30 7256 H 655.764 -0.359065 0.572755 0
M  V30 7257 H 658.318 -0.486188 1.99563 0
M  V30 7258 H 656.548 -3.00243 2.43703 0
M  V30 7259 H 658.237 -2.89749 2.84254 0
M  V30 7260 H 659.003 -1.23733 4.68951 0
M  V30 7261 H 654.882 -2.26244 4.01665 0
M  V30 7262 H 658.426 -0.459879 6.96083 0
M  V30 7263 H 654.323 -1.49026 6.28062 0
M  V30 7264 H 655.091 -0.613062 8.16201 0
M  V30 7265 N 657.755 -1.42862 -0.66545 0
M  V30 7266 C 658.98 -1.47456 -1.45848 0
M  V30 7267 C 659.405 -0.0900312 -1.87884 0
M  V30 7268 O 658.763 0.913587 -1.56599 0
M  V30 7269 C 658.811 -2.41514 -2.67774 0
M  V30 7270 O 657.915 -1.89296 -3.66389 0
M  V30 7271 H 657.256 -0.499236 -0.437789 0
M  V30 7272 H 659.786 -1.8765 -0.815394 0
M  V30 7273 H 659.796 -2.58409 -3.15735 0
M  V30 7274 H 658.471 -3.42099 -2.36519 0
M  V30 7275 H 657.048 -1.82003 -3.25468 0
M  V30 7276 N 659.233 0.902656 -1.29189 0
M  V30 7277 C 660.143 2.03946 -1.15944 0
M  V30 7278 C 661.159 1.738 -0.0833803 0
M  V30 7279 O 662.335 1.9923 -0.29487 0
M  V30 7280 C 659.4 3.36519 -0.834006 0
M  V30 7281 C 658.461 3.80203 -1.9936 0
M  V30 7282 C 657.694 5.06449 -1.68359 0
M  V30 7283 O 657.917 5.67202 -0.603141 0
M  V30 7284 O 656.851 5.46114 -2.53067 0
M  V30 7285 H 660.677 2.18043 -2.11403 0
M  V30 7286 H 658.262 1.02584 -1.08613 0
M  V30 7287 H 660.144 4.16089 -0.666949 0
M  V30 7288 H 658.819 3.23573 0.0908245 0
M  V30 7289 H 657.726 3.01413 -2.21588 0
M  V30 7290 H 659.059 3.97729 -2.89952 0
M  V30 7291 N 660.711 1.11618 1.11262 0
M  V30 7292 C 661.958 0.86618 1.8304 0
M  V30 7293 C 662.286 -0.608149 1.84748 0
M  V30 7294 O 661.541 -1.46508 1.29745 0
M  V30 7295 C 661.84 1.37529 3.2988 0
M  V30 7296 C 661.506 2.86317 3.4833 0
M  V30 7297 C 660.168 3.26945 3.53073 0
M  V30 7298 C 662.52 3.82136 3.54431 0
M  V30 7299 C 659.848 4.62117 3.61475 0
M  V30 7300 C 662.2 5.17128 3.64365 0
M  V30 7301 C 660.864 5.57312 3.67369 0
M  V30 7302 H 660.134 0.316958 0.66979 0
M  V30 7303 H 662.781 1.3949 1.31205 0
M  V30 7304 H 661.086 0.766842 3.84222 0
M  V30 7305 H 662.783 1.15817 3.83911 0
M  V30 7306 H 659.373 2.53889 3.45309 0
M  V30 7307 H 663.557 3.51847 3.50025 0
M  V30 7308 H 658.813 4.92655 3.62079 0
M  V30 7309 H 662.987 5.91208 3.68029 0
M  V30 7310 H 660.614 6.62045 3.73632 0
M  V30 7311 N 662.189 -1.289 0.906776 0
M  V30 7312 C 663.119 -2.29932 0.406659 0
M  V30 7313 C 664.1 -1.6189 -0.522061 0
M  V30 7314 O 665.285 -1.8935 -0.431283 0
M  V30 7315 C 662.415 -3.45425 -0.360366 0
M  V30 7316 C 661.369 -4.25316 0.478574 0
M  V30 7317 C 660.695 -5.33076 -0.416373 0
M  V30 7318 C 661.995 -4.92739 1.7322 0
M  V30 7319 H 663.689 -2.72013 1.25097 0
M  V30 7320 H 661.235 -1.30768 0.602977 0
M  V30 7321 H 663.188 -4.15186 -0.721029 0
M  V30 7322 H 661.912 -3.02206 -1.23852 0
M  V30 7323 H 660.571 -3.57273 0.821662 0
M  V30 7324 H 660.219 -4.86101 -1.29287 0
M  V30 7325 H 659.919 -5.8743 0.141309 0
M  V30 7326 H 661.443 -6.05686 -0.773072 0
M  V30 7327 H 662.857 -5.54898 1.44086 0
M  V30 7328 H 661.254 -5.57057 2.23175 0
M  V30 7329 H 662.324 -4.17625 2.46408 0
M  V30 7330 N 663.667 -0.670007 -1.42649 0
M  V30 7331 C 664.895 -0.19854 -2.05945 0
M  V30 7332 C 665.31 1.14243 -1.50313 0
M  V30 7333 O 664.667 1.70872 -0.641027 0
M  V30 7334 C 664.718 -0.11966 -3.61302 0
M  V30 7335 O 664.439 -1.40764 -4.1487 0
M  V30 7336 C 665.94 0.375878 -4.41704 0
M  V30 7337 H 663.16 -0.0976894 -0.663851 0
M  V30 7338 H 665.704 -0.915392 -1.82868 0
M  V30 7339 H 663.859 0.547851 -3.83507 0
M  V30 7340 H 664.273 -1.27784 -5.08696 0
M  V30 7341 H 665.747 0.379988 -5.50691 0
M  V30 7342 H 666.224 1.41028 -4.15942 0
M  V30 7343 H 666.83 -0.259727 -4.24506 0
M  V30 7344 N 665.145 1.52092 -0.413018 0
M  V30 7345 C 666.391 2.02154 0.161737 0
M  V30 7346 C 666.724 1.29789 1.44459 0
M  V30 7347 O 665.999 0.405378 1.90229 0
M  V30 7348 C 666.282 3.5781 0.405463 0
M  V30 7349 C 666.135 4.40819 -0.894335 0
M  V30 7350 C 667.454 4.23821 1.18591 0
M  V30 7351 H 664.573 0.734769 0.0573077 0
M  V30 7352 H 667.215 1.81948 -0.547247 0
M  V30 7353 H 665.365 3.75158 1.0094 0
M  V30 7354 H 667.037 4.35175 -1.53039 0
M  V30 7355 H 665.28 4.06877 -1.50444 0
M  V30 7356 H 665.951 5.47819 -0.678144 0
M  V30 7357 H 668.427 4.10596 0.674573 0
M  V30 7358 H 667.303 5.32663 1.3252 0
M  V30 7359 H 667.564 3.83038 2.20758 0
M  V30 7360 N 666.623 0.143563 1.56945 0
M  V30 7361 C 667.848 -0.518701 2.00809 0
M  V30 7362 C 668.273 -1.5785 1.02298 0
M  V30 7363 O 667.631 -1.813 -0.0017839 0
M  V30 7364 C 667.679 -1.09929 3.43436 0
M  V30 7365 O 666.783 -2.21425 3.47915 0
M  V30 7366 H 666.124 -0.127215 0.6517 0
M  V30 7367 H 668.654 0.239283 2.03196 0
M  V30 7368 H 668.664 -1.4288 3.82164 0
M  V30 7369 H 667.339 -0.323162 4.14643 0
M  V30 7370 H 665.916 -1.89728 3.21026 0
M  V30 7371 N 668.101 -1.57061 -0.130224 0
M  V30 7372 C 669.35 -1.83446 -0.838488 0
M  V30 7373 C 669.663 -0.727468 -1.81569 0
M  V30 7374 O 670.869 -0.877394 -2.56932 0
M  V30 7375 C 669.325 -3.25201 -1.54182 0
M  V30 7376 C 668.933 -4.4388 -0.606178 0
M  V30 7377 C 670.677 -3.60844 -2.23588 0
M  V30 7378 C 668.584 -5.76661 -1.31209 0
M  V30 7379 H 667.514 -0.684185 -0.316871 0
M  V30 7380 H 670.165 -1.83273 -0.0912059 0
M  V30 7381 H 668.547 -3.1981 -2.33533 0
M  V30 7382 H 669.721 -4.60545 0.153308 0
M  V30 7383 H 668.036 -4.16395 -0.0196705 0
M  V30 7384 H 670.633 -4.57313 -2.77072 0
M  V30 7385 H 670.976 -2.87724 -3.00867 0
M  V30 7386 H 671.509 -3.67971 -1.51137 0
M  V30 7387 H 668.248 -6.52922 -0.580823 0
M  V30 7388 H 667.768 -5.63902 -2.04387 0
M  V30 7389 H 669.447 -6.20035 -1.8484 0
M  V30 7390 N 669.579 0.400081 -1.52437 0
M  V30 7391 C 670.856 1.15973 -1.57511 0
M  V30 7392 C 671.236 2.0798 -0.361572 0
M  V30 7393 O 670.584 2.19032 0.650929 0
M  V30 7394 C 670.794 1.92912 -2.90837 0
M  V30 7395 C 672.142 2.48662 -3.44169 0
M  V30 7396 O 673.166 2.03081 -2.92637 0
M  V30 7397 O 672.025 3.31894 -4.34176 0
M  V30 7398 H 669.119 0.530023 -0.634827 0
M  V30 7399 H 671.665 0.40613 -1.64769 0
M  V30 7400 H 670.437 1.25564 -3.70607 0
M  V30 7401 H 670.06 2.75257 -2.86913 0
M  V30 7402 N 671.057 1.43213 0.657864 0
M  V30 7403 C 672.473 1.26511 0.972992 0
M  V30 7404 C 672.673 0.181477 2.00681 0
M  V30 7405 O 671.729 -0.441649 2.48608 0
M  V30 7406 C 673.042 2.62784 1.46168 0
M  V30 7407 C 674.59 2.70278 1.57857 0
M  V30 7408 C 675.065 4.06958 2.10117 0
M  V30 7409 N 676.556 4.08999 2.17426 0
M  V30 7410 C 677.291 5.11585 2.58975 0
M  V30 7411 N 676.787 6.24548 2.99853 0
M  V30 7412 N 678.58 4.9894 2.58873 0
M  V30 7413 H 670.731 2.12384 -0.0263129 0
M  V30 7414 H 672.994 0.946638 0.0507992 0
M  V30 7415 H 672.7 3.43022 0.776474 0
M  V30 7416 H 672.574 2.87863 2.43751 0
M  V30 7417 H 674.961 1.90376 2.25479 0
M  V30 7418 H 675.042 2.4897 0.587179 0
M  V30 7419 H 674.686 4.87325 1.43098 0
M  V30 7420 H 674.616 4.25628 3.10078 0
M  V30 7421 H 677.107 3.27457 1.88627 0
M  V30 7422 H 677.42 6.98661 3.30292 0
M  V30 7423 H 675.765 6.28027 2.97669 0
M  V30 7424 H 678.956 4.09757 2.26311 0
M  V30 7425 H 679.129 5.79019 2.90932 0
M  V30 7426 N 672.536 -0.895792 1.29666 0
M  V30 7427 C 673.483 -2.00035 1.15129 0
M  V30 7428 C 674.453 -1.66043 0.0435819 0
M  V30 7429 O 675.638 -1.89621 0.211811 0
M  V30 7430 C 672.778 -3.34774 0.83787 0
M  V30 7431 C 671.891 -3.81525 2.0264 0
M  V30 7432 C 671.026 -5.04858 1.65201 0
M  V30 7433 C 670.065 -5.43988 2.80612 0
M  V30 7434 N 669.202 -6.58507 2.43544 0
M  V30 7435 H 674.042 -2.11802 2.09628 0
M  V30 7436 H 671.579 -1.03719 1.04311 0
M  V30 7437 H 673.537 -4.12311 0.636824 0
M  V30 7438 H 672.167 -3.22724 -0.0702314 0
M  V30 7439 H 671.219 -2.9999 2.33903 0
M  V30 7440 H 672.531 -4.06472 2.89106 0
M  V30 7441 H 671.685 -5.8999 1.41408 0
M  V30 7442 H 670.424 -4.81759 0.758893 0
M  V30 7443 H 669.429 -4.57388 3.05083 0
M  V30 7444 H 670.654 -5.69066 3.70595 0
M  V30 7445 H 668.6 -6.37004 1.56724 0
M  V30 7446 H 668.517 -6.83269 3.23542 0
M  V30 7447 H 669.785 -7.46897 2.2308 0
M  V30 7448 N 674.014 -1.12206 -1.10668 0
M  V30 7449 C 674.944 -0.810086 -2.18997 0
M  V30 7450 C 675.925 0.225065 -1.68604 0
M  V30 7451 O 677.11 0.086783 -1.94006 0
M  V30 7452 C 674.24 -0.261262 -3.46316 0
M  V30 7453 C 673.194 -1.2292 -4.09969 0
M  V30 7454 C 672.52 -0.540713 -5.31959 0
M  V30 7455 C 673.82 -2.58295 -4.53962 0
M  V30 7456 H 675.514 -1.7159 -2.45352 0
M  V30 7457 H 673.06 -0.82646 -1.17922 0
M  V30 7458 H 675.013 -0.0307522 -4.21389 0
M  V30 7459 H 673.737 0.679879 -3.19445 0
M  V30 7460 H 672.396 -1.44548 -3.369 0
M  V30 7461 H 672.044 0.405492 -5.01363 0
M  V30 7462 H 671.744 -1.18637 -5.75499 0
M  V30 7463 H 673.268 -0.319184 -6.09765 0
M  V30 7464 H 674.682 -2.40709 -5.20319 0
M  V30 7465 H 673.079 -3.18916 -5.08343 0
M  V30 7466 H 674.149 -3.16918 -3.67002 0
M  V30 7467 N 675.492 1.28418 -0.913599 0
M  V30 7468 C 676.422 2.29713 -0.418847 0
M  V30 7469 C 677.403 1.62165 0.513469 0
M  V30 7470 O 678.588 1.89576 0.421235 0
M  V30 7471 C 675.718 3.45612 0.342042 0
M  V30 7472 C 674.672 4.25056 -0.501123 0
M  V30 7473 C 673.998 5.3329 0.388097 0
M  V30 7474 C 675.298 4.91814 -1.75831 0
M  V30 7475 H 676.992 2.71346 -1.26538 0
M  V30 7476 H 674.538 1.30446 -0.609903 0
M  V30 7477 H 676.491 4.15562 0.699 0
M  V30 7478 H 675.215 3.02858 1.22248 0
M  V30 7479 H 673.874 3.56833 -0.840598 0
M  V30 7480 H 673.522 4.8678 1.26707 0
M  V30 7481 H 673.222 5.87347 -0.172459 0
M  V30 7482 H 674.746 6.06088 0.74094 0
M  V30 7483 H 676.16 5.54126 -1.47026 0
M  V30 7484 H 674.557 5.55866 -2.26126 0
M  V30 7485 H 675.627 4.16313 -2.4862 0
M  V30 7486 N 676.97 0.677563 1.42291 0
M  V30 7487 C 677.9 0.014968 2.33495 0
M  V30 7488 C 678.881 -0.786376 1.50831 0
M  V30 7489 O 680.066 -0.742975 1.79426 0
M  V30 7490 C 677.196 -0.935023 3.34477 0
M  V30 7491 C 676.15 -0.242074 4.27315 0
M  V30 7492 C 675.476 -1.30519 5.18526 0
M  V30 7493 C 676.776 0.880604 5.14823 0
M  V30 7494 H 678.47 0.776671 2.89151 0
M  V30 7495 H 676.016 0.37494 1.39033 0
M  V30 7496 H 677.969 -1.40766 3.97194 0
M  V30 7497 H 676.693 -1.72818 2.77131 0
M  V30 7498 H 675.352 0.210351 3.65996 0
M  V30 7499 H 675 -2.09041 4.57505 0
M  V30 7500 H 674.7 -0.846652 5.81468 0
M  V30 7501 H 676.224 -1.7787 5.84119 0
M  V30 7502 H 677.638 0.489062 5.7121 0
M  V30 7503 H 676.035 1.26511 5.86613 0
M  V30 7504 H 677.105 1.72818 4.53059 0
M  V30 7505 N 678.448 -1.51871 0.421078 0
M  V30 7506 C 679.673 -2.0684 -0.152371 0
M  V30 7507 C 680.098 -1.28802 -1.37083 0
M  V30 7508 O 679.456 -0.321482 -1.78427 0
M  V30 7509 C 679.504 -3.57532 -0.469368 0
M  V30 7510 O 678.608 -3.81818 -1.55848 0
M  V30 7511 H 677.949 -0.663939 -0.00898586 0
M  V30 7512 H 680.479 -1.95674 0.597724 0
M  V30 7513 H 680.489 -4.01515 -0.724553 0
M  V30 7514 H 679.164 -4.13761 0.421276 0
M  V30 7515 H 677.741 -3.49709 -1.29453 0
M  V30 7516 N 679.926 -0.151884 -1.56866 0
M  V30 7517 C 681.154 0.504813 -2.00647 0
M  V30 7518 C 681.569 1.58098 -1.03201 0
M  V30 7519 O 680.926 1.82476 -0.0297814 0
M  V30 7520 C 680.977 1.10099 -3.44326 0
M  V30 7521 O 680.698 0.0678021 -4.38048 0
M  V30 7522 C 682.199 1.83782 -4.03409 0
M  V30 7523 H 679.419 0.130989 -0.65809 0
M  V30 7524 H 681.963 -0.247903 -2.02992 0
M  V30 7525 H 680.118 1.8043 -3.42817 0
M  V30 7526 H 680.532 0.505237 -5.22061 0
M  V30 7527 H 682.006 2.2078 -5.05925 0
M  V30 7528 H 682.483 2.72557 -3.44397 0
M  V30 7529 H 683.089 1.18138 -4.08563 0
M  V30 7530 N 681.404 1.57128 0.121893 0
M  V30 7531 C 682.314 2.03425 1.16857 0
M  V30 7532 C 683.33 0.954108 1.45509 0
M  V30 7533 O 684.506 1.26541 1.56682 0
M  V30 7534 C 681.571 2.42685 2.47599 0
M  V30 7535 C 680.632 3.64767 2.2637 0
M  V30 7536 C 679.865 4.02145 3.50878 0
M  V30 7537 O 680.088 3.39897 4.58068 0
M  V30 7538 O 679.022 4.95262 3.42051 0
M  V30 7539 H 682.848 2.92825 0.80544 0
M  V30 7540 H 680.433 1.45654 0.332477 0
M  V30 7541 H 682.315 2.68684 3.24634 0
M  V30 7542 H 680.99 1.56432 2.83392 0
M  V30 7543 H 679.897 3.43922 1.47203 0
M  V30 7544 H 681.23 4.51716 1.95482 0
M  V30 7545 N 682.882 -0.391992 1.52647 0
M  V30 7546 C 684.298 -0.731848 1.41831 0
M  V30 7547 C 684.498 -1.9423 0.536361 0
M  V30 7548 O 683.554 -2.52499 0.00866571 0
M  V30 7549 C 684.867 -0.969743 2.84634 0
M  V30 7550 C 686.415 -1.0714 2.94092 0
M  V30 7551 C 686.89 -1.34195 4.37899 0
M  V30 7552 N 688.381 -1.41023 4.41211 0
M  V30 7553 C 689.116 -1.63616 5.49561 0
M  V30 7554 N 688.612 -1.83699 6.68002 0
M  V30 7555 N 690.405 -1.65771 5.371 0
M  V30 7556 H 682.556 0.404547 2.08512 0
M  V30 7557 H 684.819 0.11879 0.940528 0
M  V30 7558 H 684.525 -0.152465 3.51369 0
M  V30 7559 H 684.399 -1.88523 3.26709 0
M  V30 7560 H 686.786 -1.87925 2.27526 0
M  V30 7561 H 686.867 -0.133887 2.55449 0
M  V30 7562 H 686.511 -0.539207 5.0503 0
M  V30 7563 H 686.441 -2.29226 4.74092 0
M  V30 7564 H 688.932 -1.27223 3.55841 0
M  V30 7565 H 689.245 -2.00437 7.46354 0
M  V30 7566 H 687.59 -1.8093 6.71036 0
M  V30 7567 H 690.781 -1.4963 4.43541 0
M  V30 7568 H 690.954 -1.83038 6.21612 0
M  V30 7569 N 684.36 -1.4356 -0.65026 0
M  V30 7570 C 685.29 -1.51758 -1.77459 0
M  V30 7571 C 686.271 -0.372019 -1.65982 0
M  V30 7572 O 687.456 -0.589627 -1.85033 0
M  V30 7573 C 684.586 -1.44302 -3.15902 0
M  V30 7574 C 683.54 -2.57138 -3.42146 0
M  V30 7575 C 682.866 -2.34735 -4.8042 0
M  V30 7576 C 684.166 -3.99373 -3.36598 0
M  V30 7577 H 685.86 -2.45863 -1.70855 0
M  V30 7578 H 683.406 -1.18333 -0.820566 0
M  V30 7579 H 685.359 -1.48641 -3.94314 0
M  V30 7580 H 684.083 -0.467026 -3.23244 0
M  V30 7581 H 682.742 -2.52157 -2.66106 0
M  V30 7582 H 682.39 -1.35372 -4.84441 0
M  V30 7583 H 682.09 -3.10375 -4.9894 0
M  V30 7584 H 683.614 -2.40862 -5.61086 0
M  V30 7585 H 685.028 -4.05826 -4.04942 0
M  V30 7586 H 683.425 -4.75063 -3.66654 0
M  V30 7587 H 684.495 -4.243 -2.34729 0
M  V30 7588 N 685.838 0.888903 -1.30139 0
M  V30 7589 C 686.748 2.02705 -1.18101 0
M  V30 7590 C 687.764 1.73702 -0.101809 0
M  V30 7591 O 688.94 1.98906 -0.315984 0
M  V30 7592 C 686.005 3.35616 -0.869651 0
M  V30 7593 C 685.066 3.78067 -2.03381 0
M  V30 7594 C 684.299 5.04635 -1.73721 0
M  V30 7595 O 684.522 5.66531 -0.663267 0
M  V30 7596 O 683.456 5.43399 -2.58845 0
M  V30 7597 H 687.282 2.15788 -2.13704 0
M  V30 7598 H 684.867 1.01426 -1.09695 0
M  V30 7599 H 686.749 4.15358 -0.711043 0
M  V30 7600 H 685.424 3.23651 0.0565002 0
M  V30 7601 H 684.331 2.99046 -2.24772 0
M  V30 7602 H 685.664 3.94631 -2.94155 0
M  V30 7603 N 687.317 1.12792 1.10072 0
M  V30 7604 C 688.264 0.79921 2.16521 0
M  V30 7605 C 689.234 -0.235726 1.64419 0
M  V30 7606 O 690.419 -0.109457 1.90486 0
M  V30 7607 C 687.559 0.264091 3.44088 0
M  V30 7608 C 686.672 1.35729 4.10124 0
M  V30 7609 C 685.807 0.781212 5.25424 0
M  V30 7610 C 684.846 1.85327 5.8337 0
M  V30 7611 N 683.983 1.29564 6.90042 0
M  V30 7612 H 688.823 1.71105 2.43981 0
M  V30 7613 H 686.36 0.854225 1.19756 0
M  V30 7614 H 688.318 -0.0642423 4.17151 0
M  V30 7615 H 686.948 -0.610901 3.16967 0
M  V30 7616 H 686 1.80234 3.34993 0
M  V30 7617 H 687.312 2.16782 4.4923 0
M  V30 7618 H 686.466 0.403769 6.05355 0
M  V30 7619 H 685.205 -0.0604686 4.87663 0
M  V30 7620 H 684.21 2.23986 5.02106 0
M  V30 7621 H 685.435 2.69824 6.23195 0
M  V30 7622 H 683.381 0.475844 6.54272 0
M  V30 7623 H 683.298 2.04271 7.2788 0
M  V30 7624 H 684.566 0.945545 7.73744 0
M  V30 7625 N 688.795 -1.27931 0.920396 0
M  V30 7626 C 689.758 -2.25345 0.41858 0
M  V30 7627 C 690.758 -1.54116 -0.458798 0
M  V30 7628 O 691.948 -1.72235 -0.260912 0
M  V30 7629 C 689.08 -3.38556 -0.399104 0
M  V30 7630 H 690.273 -2.71251 1.27918 0
M  V30 7631 H 687.826 -1.39728 0.700406 0
M  V30 7632 H 688.561 -2.98021 -1.27882 0
M  V30 7633 H 688.346 -3.91426 0.229863 0
M  V30 7634 H 689.836 -4.10976 -0.740817 0
M  V30 7635 N 690.273 -0.685099 -1.4193 0
M  V30 7636 C 691.52 -0.211658 -2.01391 0
M  V30 7637 C 691.848 1.18526 -1.54214 0
M  V30 7638 O 691.103 1.81189 -0.739519 0
M  V30 7639 C 691.402 -0.206154 -3.56805 0
M  V30 7640 C 691.068 -1.54915 -4.23453 0
M  V30 7641 C 689.73 -1.91684 -4.41373 0
M  V30 7642 C 692.082 -2.43317 -4.60919 0
M  V30 7643 C 689.41 -3.16461 -4.94034 0
M  V30 7644 C 691.762 -3.67415 -5.14965 0
M  V30 7645 C 690.426 -4.04341 -5.31098 0
M  V30 7646 H 689.696 -0.0774511 -0.736941 0
M  V30 7647 H 692.343 -0.882121 -1.69973 0
M  V30 7648 H 690.648 0.547841 -3.87951 0
M  V30 7649 H 692.345 0.17753 -4.00607 0
M  V30 7650 H 688.935 -1.25314 -4.09871 0
M  V30 7651 H 693.119 -2.16192 -4.46738 0
M  V30 7652 H 688.375 -3.45078 -5.04709 0
M  V30 7653 H 692.549 -4.3611 -5.42938 0
M  V30 7654 H 690.176 -5.01101 -5.71666 0
M  V30 7655 N 691.751 1.51645 -0.429126 0
M  V30 7656 C 692.698 2.27542 0.386446 0
M  V30 7657 C 693.668 1.30786 1.02393 0
M  V30 7658 O 694.853 1.59678 1.0444 0
M  V30 7659 C 691.993 3.11457 1.48623 0
M  V30 7660 C 691.106 4.23196 0.867691 0
M  V30 7661 C 690.241 4.94435 1.94183 0
M  V30 7662 C 689.28 5.98108 1.30129 0
M  V30 7663 N 688.417 6.62786 2.31644 0
M  V30 7664 H 693.257 2.968 -0.267155 0
M  V30 7665 H 690.794 1.46397 -0.143591 0
M  V30 7666 H 692.752 3.58429 2.13506 0
M  V30 7667 H 691.382 2.44329 2.10957 0
M  V30 7668 H 690.434 3.80248 0.107373 0
M  V30 7669 H 691.746 4.97499 0.35997 0
M  V30 7670 H 690.9 5.44914 2.66747 0
M  V30 7671 H 689.639 4.19744 2.48326 0
M  V30 7672 H 688.644 5.4693 0.561082 0
M  V30 7673 H 689.869 6.74751 0.767303 0
M  V30 7674 H 687.815 5.90913 2.84883 0
M  V30 7675 H 687.732 7.32828 1.85741 0
M  V30 7676 H 689 7.17897 3.03717 0
M  V30 7677 N 693.229 0.160201 1.56784 0
M  V30 7678 C 694.159 -0.770264 2.2043 0
M  V30 7679 C 695.14 -1.24736 1.15651 0
M  V30 7680 O 696.325 -1.30253 1.44041 0
M  V30 7681 C 693.455 -2.00427 2.83631 0
M  V30 7682 C 692.409 -1.66345 3.94352 0
M  V30 7683 C 691.735 -2.97119 4.4455 0
M  V30 7684 C 693.035 -0.899972 5.14488 0
M  V30 7685 H 694.729 -0.239783 2.98438 0
M  V30 7686 H 692.275 -0.113891 1.43549 0
M  V30 7687 H 694.228 -2.66012 3.26827 0
M  V30 7688 H 692.952 -2.5587 2.02973 0
M  V30 7689 H 691.611 -1.03133 3.51794 0
M  V30 7690 H 691.259 -3.5058 3.60698 0
M  V30 7691 H 690.959 -2.75073 5.19238 0
M  V30 7692 H 692.483 -3.63753 4.90425 0
M  V30 7693 H 693.897 -1.45818 5.54446 0
M  V30 7694 H 692.294 -0.778968 5.95023 0
M  V30 7695 H 693.364 0.105827 4.84785 0
M  V30 7696 N 694.707 -1.5719 -0.113559 0
M  V30 7697 C 695.954 -1.85138 -0.820382 0
M  V30 7698 C 696.282 -0.74608 -1.79622 0
M  V30 7699 O 695.537 0.262077 -1.93937 0
M  V30 7700 C 695.836 -3.19593 -1.59984 0
M  V30 7701 C 695.502 -4.44315 -0.767809 0
M  V30 7702 C 694.164 -4.78179 -0.538379 0
M  V30 7703 C 696.516 -5.2086 -0.188203 0
M  V30 7704 C 693.844 -5.86028 0.28082 0
M  V30 7705 C 696.196 -6.29572 0.618217 0
M  V30 7706 C 694.86 -6.61964 0.857912 0
M  V30 7707 H 694.13 -0.677467 -0.300199 0
M  V30 7708 H 696.777 -1.91322 -0.0825443 0
M  V30 7709 H 695.082 -3.0901 -2.40874 0
M  V30 7710 H 696.779 -3.3844 -2.1508 0
M  V30 7711 H 693.369 -4.17786 -0.956724 0
M  V30 7712 H 697.553 -4.95045 -0.352658 0
M  V30 7713 H 692.809 -6.09547 0.475693 0
M  V30 7714 H 696.983 -6.88064 1.0743 0
M  V30 7715 H 694.61 -7.45365 1.49451 0
M  V30 7716 N 696.185 0.383891 -1.52853 0
M  V30 7717 C 697.462 1.14296 -1.58732 0
M  V30 7718 C 697.842 2.07585 -0.383611 0
M  V30 7719 O 697.19 2.1971 0.627661 0
M  V30 7720 C 697.4 1.89816 -2.92867 0
M  V30 7721 C 698.748 2.44998 -3.46787 0
M  V30 7722 O 699.772 1.99966 -2.94774 0
M  V30 7723 O 698.631 3.2727 -4.37672 0
M  V30 7724 H 695.725 0.52326 -0.640413 0
M  V30 7725 H 698.271 0.388631 -1.6519 0
M  V30 7726 H 697.043 1.21626 -3.71918 0
M  V30 7727 H 696.666 2.72199 -2.89816 0
M  V30 7728 N 697.663 1.43903 0.642637 0
M  V30 7729 C 698.61 1.49881 1.75512 0
M  V30 7730 C 699.58 0.347538 1.62423 0
M  V30 7731 O 700.765 0.556177 1.82514 0
M  V30 7732 C 697.905 1.43797 3.13714 0
M  V30 7733 C 697.018 2.6921 3.37861 0
M  V30 7734 C 696.153 2.5504 4.6597 0
M  V30 7735 C 695.192 3.75671 4.83257 0
M  V30 7736 N 694.329 3.60247 6.02633 0
M  V30 7737 H 699.169 2.44935 1.69737 0
M  V30 7738 H 696.706 1.21572 0.828165 0
M  V30 7739 H 698.664 1.38262 3.93624 0
M  V30 7740 H 697.294 0.523173 3.18532 0
M  V30 7741 H 696.346 2.8498 2.51973 0
M  V30 7742 H 697.658 3.58786 3.46517 0
M  V30 7743 H 696.812 2.47273 5.54023 0
M  V30 7744 H 695.551 1.63006 4.59653 0
M  V30 7745 H 694.556 3.83836 3.93637 0
M  V30 7746 H 695.781 4.68728 4.91397 0
M  V30 7747 H 693.727 2.70955 5.97427 0
M  V30 7748 H 693.644 4.43431 6.12295 0
M  V30 7749 H 694.912 3.56351 6.93278 0
M  V30 7750 N 699.141 -0.881989 1.30609 0
M  V30 7751 C 700.418 -1.61563 1.10258 0
M  V30 7752 C 700.798 -2.08228 -0.347053 0
M  V30 7753 O 700.146 -1.85151 -1.33908 0
M  V30 7754 C 700.356 -2.78287 2.10612 0
M  V30 7755 C 701.704 -3.48545 2.4249 0
M  V30 7756 O 702.728 -2.88479 2.08945 0
M  V30 7757 O 701.587 -4.56873 2.99883 0
M  V30 7758 H 698.681 -0.710238 0.423663 0
M  V30 7759 H 701.227 -0.928503 1.42045 0
M  V30 7760 H 699.999 -2.41131 3.08174 0
M  V30 7761 H 699.622 -3.54695 1.79659 0
M  V30 7762 N 700.619 -1.13374 -1.09472 0
M  V30 7763 C 701.867 -0.893422 -1.8128 0
M  V30 7764 C 702.188 0.582029 -1.86111 0
M  V30 7765 O 701.458 1.42305 -1.34633 0
M  V30 7766 H 700.038 -0.327543 -0.67136 0
M  V30 7767 H 702.7 -1.43018 -1.32408 0
M  V30 7768 H 701.796 -1.28374 -2.84476 0
M  V30 7769 N 702.098 1.27442 -0.927168 0
M  V30 7770 C 703.323 1.99036 -0.583042 0
M  V30 7771 C 703.748 1.68711 0.83176 0
M  V30 7772 O 703.106 0.927081 1.55804 0
M  V30 7773 C 703.154 3.51271 -0.814925 0
M  V30 7774 O 702.258 4.12226 0.119742 0
M  V30 7775 H 701.599 0.624883 -0.224538 0
M  V30 7776 H 704.129 1.62263 -1.24628 0
M  V30 7777 H 704.139 4.01411 -0.730282 0
M  V30 7778 H 702.814 3.72676 -1.84623 0
M  V30 7779 H 701.391 3.72897 -0.0147688 0
M  V30 7780 N 703.576 0.692616 1.41565 0
M  V30 7781 C 704.824 0.221896 2.00878 0
M  V30 7782 C 705.145 -1.18164 1.5512 0
M  V30 7783 O 704.415 -1.79679 0.78054 0
M  V30 7784 H 702.995 0.0790463 0.742806 0
M  V30 7785 H 705.657 0.893115 1.73232 0
M  V30 7786 H 704.753 0.23702 3.11199 0
M  V30 7787 N 705.054 -1.51416 0.437162 0
M  V30 7788 C 706.001 -2.27743 -0.374374 0
M  V30 7789 C 706.971 -1.31327 -1.01698 0
M  V30 7790 O 708.156 -1.60229 -1.03592 0
M  V30 7791 C 705.296 -3.12241 -1.46969 0
M  V30 7792 C 704.409 -4.23651 -0.845236 0
M  V30 7793 C 703.544 -4.95458 -1.91559 0
M  V30 7794 C 702.583 -5.98789 -1.26956 0
M  V30 7795 N 701.72 -6.64005 -2.28126 0
M  V30 7796 H 706.56 -2.96654 0.282892 0
M  V30 7797 H 704.097 -1.46319 0.151352 0
M  V30 7798 H 706.055 -3.59556 -2.11602 0
M  V30 7799 H 704.685 -2.45445 -2.09659 0
M  V30 7800 H 703.737 -3.803 -0.0872059 0
M  V30 7801 H 705.049 -4.97683 -0.333582 0
M  V30 7802 H 704.203 -5.46321 -2.63854 0
M  V30 7803 H 702.942 -4.21055 -2.46097 0
M  V30 7804 H 701.947 -5.47219 -0.53207 0
M  V30 7805 H 703.172 -6.75149 -0.731509 0
M  V30 7806 H 701.118 -5.92415 -2.81745 0
M  V30 7807 H 701.035 -7.33802 -1.81852 0
M  V30 7808 H 702.303 -7.19498 -2.99905 0
M  V30 7809 N 706.532 -0.168513 -1.56696 0
M  V30 7810 C 707.781 0.477233 -1.95973 0
M  V30 7811 C 708.094 1.64578 -1.05704 0
M  V30 7812 O 709.3 2.35758 -1.3465 0
M  V30 7813 C 707.756 0.900413 -3.48455 0
M  V30 7814 C 707.364 -0.242382 -4.47344 0
M  V30 7815 C 709.108 1.51474 -3.96555 0
M  V30 7816 C 707.015 0.200272 -5.91061 0
M  V30 7817 H 705.945 0.182061 -0.73169 0
M  V30 7818 H 708.596 -0.256297 -1.81701 0
M  V30 7819 H 706.978 1.68984 -3.58135 0
M  V30 7820 H 708.152 -1.01967 -4.49377 0
M  V30 7821 H 706.467 -0.766484 -4.09285 0
M  V30 7822 H 709.064 1.85792 -5.01384 0
M  V30 7823 H 709.407 2.41163 -3.39332 0
M  V30 7824 H 709.94 0.789802 -3.89881 0
M  V30 7825 H 706.679 -0.661775 -6.52151 0
M  V30 7826 H 706.199 0.942979 -5.92341 0
M  V30 7827 H 707.878 0.645088 -6.43776 0
M  V30 7828 N 708.01 1.57248 0.105221 0
M  V30 7829 C 709.235 1.90143 0.828264 0
M  V30 7830 C 709.66 0.761811 1.71983 0
M  V30 7831 O 709.018 -0.287086 1.79013 0
M  V30 7832 C 709.066 3.21856 1.62608 0
M  V30 7833 O 708.17 3.08732 2.7342 0
M  V30 7834 H 707.511 0.623558 0.228192 0
M  V30 7835 H 710.041 2.0443 0.0834826 0
M  V30 7836 H 710.051 3.54916 2.01243 0
M  V30 7837 H 708.726 4.0439 0.971687 0
M  V30 7838 H 707.303 2.87167 2.37886 0
M  V30 7839 N 709.488 -0.375779 1.53054 0
M  V30 7840 C 710.451 -1.44254 1.7811 0
M  V30 7841 C 711.451 -1.47018 0.651328 0
M  V30 7842 O 712.641 -1.47957 0.919472 0
M  V30 7843 C 709.773 -2.8345 1.89391 0
M  V30 7844 H 710.966 -1.23316 2.73374 0
M  V30 7845 H 708.519 -0.608312 1.43977 0
M  V30 7846 H 709.254 -3.09716 0.961589 0
M  V30 7847 H 709.039 -2.82844 2.71555 0
M  V30 7848 H 710.529 -3.60722 2.10404 0
M  V30 7849 N 710.966 -1.44241 -0.634997 0
M  V30 7850 C 711.914 -1.51103 -1.76835 0
M  V30 7851 C 712.908 -0.383051 -1.65012 0
M  V30 7852 O 714.114 -0.557832 -1.71138 0
M  V30 7853 H 710.489 -0.474076 -0.583743 0
M  V30 7854 H 712.46 -2.46499 -1.68169 0
M  V30 7855 C 711.209 -1.4687 -3.15158 0
M  V30 7856 H 710.532 -2.32979 -3.24901 0
M  V30 7857 H 711.972 -1.55731 -3.94365 0
M  V30 7858 C 710.431 -0.188884 -3.3637 0
M  V30 7859 O 710.961 0.742487 -3.94778 0
M  V30 7860 N 709.167 -0.0932516 -2.9045 0
M  V30 7861 H 708.714 -0.852004 -2.43102 0
M  V30 7862 H 708.672 0.762308 -3.05018 0
M  V30 7863 N 712.444 0.87505 -1.31075 0
M  V30 7864 C 713.354 2.01441 -1.20244 0
M  V30 7865 C 714.37 1.73584 -0.120227 0
M  V30 7866 O 715.546 1.98559 -0.337063 0
M  V30 7867 C 712.611 3.34675 -0.905199 0
M  V30 7868 C 711.672 3.75889 -2.0738 0
M  V30 7869 C 710.905 5.02764 -1.79064 0
M  V30 7870 O 711.128 5.65795 -0.723318 0
M  V30 7871 O 710.062 5.40623 -2.64594 0
M  V30 7872 H 713.888 2.13509 -2.1598 0
M  V30 7873 H 711.473 1.00257 -1.10765 0
M  V30 7874 H 713.355 4.1458 -0.755057 0
M  V30 7875 H 712.03 3.23692 0.0221695 0
M  V30 7876 H 710.937 2.96645 -2.27931 0
M  V30 7877 H 712.27 3.91489 -2.98324 0
M  V30 7878 N 713.922 1.13953 1.08869 0
M  V30 7879 C 714.852 0.844824 2.17681 0
M  V30 7880 C 715.833 -0.198213 1.68941 0
M  V30 7881 O 717.018 -0.0559073 1.9412 0
M  V30 7882 C 714.148 0.316325 3.45856 0
M  V30 7883 C 713.102 1.29426 4.07962 0
M  V30 7884 C 712.428 0.625275 5.31031 0
M  V30 7885 C 713.728 2.65484 4.49795 0
M  V30 7886 H 715.422 1.75471 2.42591 0
M  V30 7887 H 712.968 0.845116 1.16592 0
M  V30 7888 H 714.921 0.0977876 4.21287 0
M  V30 7889 H 713.645 -0.628972 3.20486 0
M  V30 7890 H 712.304 1.49889 3.34558 0
M  V30 7891 H 711.952 -0.325678 5.01945 0
M  V30 7892 H 711.652 1.27777 5.73539 0
M  V30 7893 H 713.176 0.416152 6.0918 0
M  V30 7894 H 714.59 2.48957 5.16424 0
M  V30 7895 H 712.987 3.26963 5.03205 0
M  V30 7896 H 714.057 3.22717 3.61914 0
M  V30 7897 N 715.4 -1.26948 0.933913 0
M  V30 7898 C 716.363 -2.24889 0.442457 0
M  V30 7899 C 717.363 -1.54594 -0.442426 0
M  V30 7900 O 718.553 -1.72502 -0.242629 0
M  V30 7901 C 715.685 -3.3896 -0.363173 0
M  V30 7902 H 716.878 -2.69879 1.30787 0
M  V30 7903 H 714.431 -1.38978 0.715187 0
M  V30 7904 H 715.166 -2.99361 -1.24714 0
M  V30 7905 H 714.951 -3.9116 0.271366 0
M  V30 7906 H 716.441 -4.11739 -0.697186 0
M  V30 7907 N 716.879 -0.700114 -1.41195 0
M  V30 7908 C 717.811 0.00155823 -2.292 0
M  V30 7909 C 718.824 0.739736 -1.45023 0
M  V30 7910 O 720.013 0.589684 -1.68478 0
M  V30 7911 C 717.113 1.02635 -3.22985 0
M  V30 7912 C 716.286 0.356871 -4.35942 0
M  V30 7913 C 715.345 1.28491 -5.10271 0
M  V30 7914 O 714.371 0.775562 -5.63892 0
M  V30 7915 N 715.573 2.61699 -5.18164 0
M  V30 7916 H 718.338 -0.754008 -2.9006 0
M  V30 7917 H 715.899 -0.546504 -1.52397 0
M  V30 7918 H 717.891 1.64902 -3.6958 0
M  V30 7919 H 716.461 1.68341 -2.63401 0
M  V30 7920 H 715.681 -0.445753 -3.91672 0
M  V30 7921 H 716.969 -0.108469 -5.08684 0
M  V30 7922 H 716.367 3.05594 -4.76056 0
M  V30 7923 H 714.924 3.19149 -5.6832 0
M  V30 7924 N 718.357 1.51182 -0.445186 0
M  V30 7925 C 719.287 2.30821 0.352686 0
M  V30 7926 C 720.268 1.36576 1.01395 0
M  V30 7927 O 721.453 1.65497 1.01609 0
M  V30 7928 C 718.583 3.15593 1.44976 0
M  V30 7929 C 717.537 4.1818 0.911553 0
M  V30 7930 C 716.863 4.91523 2.10497 0
M  V30 7931 C 718.163 5.22266 -0.059418 0
M  V30 7932 H 719.857 2.97771 -0.311936 0
M  V30 7933 H 717.403 1.43201 -0.151461 0
M  V30 7934 H 719.356 3.70091 2.01521 0
M  V30 7935 H 718.08 2.4648 2.14278 0
M  V30 7936 H 716.739 3.64746 0.368264 0
M  V30 7937 H 716.387 4.18906 2.78437 0
M  V30 7938 H 716.087 5.60898 1.7512 0
M  V30 7939 H 717.611 5.48847 2.6758 0
M  V30 7940 H 719.025 5.71789 0.415985 0
M  V30 7941 H 717.422 5.99213 -0.326152 0
M  V30 7942 H 718.492 4.7461 -0.993631 0
M  V30 7943 N 719.835 0.176821 1.56605 0
M  V30 7944 C 721.082 -0.466715 1.97048 0
M  V30 7945 C 721.41 -1.6288 1.06302 0
M  V30 7946 O 720.665 -1.95453 0.0982571 0
M  V30 7947 C 720.964 -0.986208 3.43524 0
M  V30 7948 C 720.63 0.0605667 4.50859 0
M  V30 7949 C 719.292 0.348242 4.79938 0
M  V30 7950 C 721.644 0.770794 5.15469 0
M  V30 7951 C 718.972 1.35144 5.70923 0
M  V30 7952 C 721.324 1.76301 6.07537 0
M  V30 7953 C 719.988 2.05808 6.3498 0
M  V30 7954 H 719.258 -0.170783 0.721051 0
M  V30 7955 H 721.905 0.269942 1.89588 0
M  V30 7956 H 720.21 -1.80079 3.47964 0
M  V30 7957 H 721.907 -1.49323 3.72161 0
M  V30 7958 H 718.497 -0.173823 4.28247 0
M  V30 7959 H 722.681 0.56176 4.9311 0
M  V30 7960 H 717.937 1.58616 5.90467 0
M  V30 7961 H 722.111 2.31868 6.56666 0
M  V30 7962 H 719.738 2.8369 7.05283 0
M  V30 7963 N 721.313 -1.57302 -0.09688 0
M  V30 7964 C 722.561 -1.8563 -0.799117 0
M  V30 7965 C 722.882 -0.765263 -1.79356 0
M  V30 7966 O 722.152 0.208657 -1.94786 0
M  V30 7967 H 720.732 -0.684937 -0.298111 0
M  V30 7968 H 723.394 -1.9474 -0.0789341 0
M  V30 7969 H 722.49 -2.82305 -1.3308 0
M  V30 7970 N 722.791 0.367657 -1.53252 0
M  V30 7971 C 723.721 1.45632 -1.8252 0
M  V30 7972 C 724.702 1.55979 -0.678568 0
M  V30 7973 O 725.887 1.70581 -0.928217 0
M  V30 7974 C 723.017 2.82994 -2.01325 0
M  V30 7975 C 721.971 2.87473 -3.17086 0
M  V30 7976 C 721.297 4.2749 -3.21179 0
M  V30 7977 C 722.597 2.55182 -4.55719 0
M  V30 7978 H 724.291 1.21387 -2.73689 0
M  V30 7979 H 721.837 0.58251 -1.31692 0
M  V30 7980 H 723.79 3.59179 -2.20383 0
M  V30 7981 H 722.514 3.08622 -1.06864 0
M  V30 7982 H 721.173 2.13739 -2.97844 0
M  V30 7983 H 720.821 4.5019 -2.24361 0
M  V30 7984 H 720.521 4.31403 -3.98955 0
M  V30 7985 H 722.045 5.0555 -3.42419 0
M  V30 7986 H 723.459 3.21081 -4.74953 0
M  V30 7987 H 721.856 2.70414 -5.3572 0
M  V30 7988 H 722.926 1.5044 -4.60973 0
M  V30 7989 N 724.269 1.44576 0.627338 0
M  V30 7990 C 725.494 1.51271 1.41887 0
M  V30 7991 C 725.919 0.139814 1.8758 0
M  V30 7992 O 725.277 -0.871746 1.58966 0
M  V30 7993 C 725.325 2.48529 2.61277 0
M  V30 7994 O 724.429 1.98944 3.61241 0
M  V30 7995 H 723.77 0.510668 0.424399 0
M  V30 7996 H 726.3 1.89746 0.765356 0
M  V30 7997 H 726.31 2.66689 3.08773 0
M  V30 7998 H 724.985 3.48249 2.27366 0
M  V30 7999 H 723.562 1.90568 3.20528 0
M  V30 8000 N 725.747 -0.868086 1.31537 0
M  V30 8001 C 727.024 -1.60384 1.11965 0
M  V30 8002 C 727.404 -2.08584 -0.324949 0
M  V30 8003 O 726.752 -1.86561 -1.31937 0
M  V30 8004 C 726.962 -2.76038 2.13551 0
M  V30 8005 C 728.31 -3.45954 2.46173 0
M  V30 8006 O 729.334 -2.86247 2.11993 0
M  V30 8007 O 728.193 -4.53666 3.04711 0
M  V30 8008 H 725.287 -0.705705 0.431172 0
M  V30 8009 H 727.833 -0.913385 1.43022 0
M  V30 8010 H 726.605 -2.37849 3.10714 0
M  V30 8011 H 726.228 -3.52769 1.83411 0
M  V30 8012 N 727.225 -1.14528 -1.08264 0
M  V30 8013 C 728.471 -0.91576 -1.80947 0
M  V30 8014 C 728.804 0.55623 -1.86064 0
M  V30 8015 O 728.079 1.41207 -1.33756 0
M  V30 8016 C 728.362 -1.51917 -3.26486 0
M  V30 8017 C 728.215 -3.06111 -3.2957 0
M  V30 8018 C 729.534 -1.19724 -4.23502 0
M  V30 8019 H 726.653 -0.334113 -0.656915 0
M  V30 8020 H 729.295 -1.41547 -1.26746 0
M  V30 8021 H 727.445 -1.0942 -3.72773 0
M  V30 8022 H 729.117 -3.57448 -2.91597 0
M  V30 8023 H 727.36 -3.40483 -2.688 0
M  V30 8024 H 728.031 -3.43438 -4.32151 0
M  V30 8025 H 730.507 -1.56467 -3.85561 0
M  V30 8026 H 729.383 -1.64575 -5.23647 0
M  V30 8027 H 729.644 -0.112771 -4.41956 0
M  V30 8028 N 728.703 1.26451 -0.940633 0
M  V30 8029 C 729.928 1.98407 -0.60412 0
M  V30 8030 C 730.353 1.69584 0.81382 0
M  V30 8031 O 729.711 0.943553 1.54812 0
M  V30 8032 C 729.759 3.50387 -0.852136 0
M  V30 8033 O 728.863 4.1233 0.076013 0
M  V30 8034 H 728.204 0.622466 -0.231153 0
M  V30 8035 H 730.734 1.60932 -1.26342 0
M  V30 8036 H 730.744 4.00614 -0.772816 0
M  V30 8037 H 729.419 3.70696 -1.88566 0
M  V30 8038 H 727.996 3.7286 -0.0543187 0
M  V30 8039 N 730.181 0.707592 1.40822 0
M  V30 8040 C 731.406 0.251626 2.05868 0
M  V30 8041 C 731.831 -1.09503 1.5294 0
M  V30 8042 O 731.189 -1.68806 0.661385 0
M  V30 8043 C 731.237 0.23287 3.59847 0
M  V30 8044 O 730.341 -0.788477 4.04792 0
M  V30 8045 H 729.682 0.119936 0.653078 0
M  V30 8046 H 732.212 0.96583 1.80369 0
M  V30 8047 H 732.222 0.0678204 4.07944 0
M  V30 8048 H 730.897 1.21565 3.97737 0
M  V30 8049 H 729.474 -0.591802 3.68174 0
M  V30 8050 N 731.66 -1.50943 0.453197 0
M  V30 8051 C 732.57 -2.31884 -0.355963 0
M  V30 8052 C 733.586 -1.41481 -1.01287 0
M  V30 8053 O 734.762 -1.74546 -1.00477 0
M  V30 8054 C 731.827 -3.15668 -1.43369 0
M  V30 8055 C 730.888 -4.2187 -0.795253 0
M  V30 8056 C 730.121 -5.0165 -1.82162 0
M  V30 8057 O 730.344 -4.82266 -3.04592 0
M  V30 8058 O 729.278 -5.85311 -1.40336 0
M  V30 8059 H 733.104 -3.02162 0.305248 0
M  V30 8060 H 730.689 -1.47839 0.215398 0
M  V30 8061 H 732.571 -3.67709 -2.05836 0
M  V30 8062 H 731.246 -2.48137 -2.07869 0
M  V30 8063 H 730.153 -3.73867 -0.132106 0
M  V30 8064 H 731.486 -4.9182 -0.193484 0
M  V30 8065 N 733.138 -0.185124 -1.56509 0
M  V30 8066 C 734.378 0.458547 -1.9919 0
M  V30 8067 C 734.742 1.59484 -1.06906 0
M  V30 8068 O 735.943 2.30201 -1.38783 0
M  V30 8069 C 734.214 0.916263 -3.45455 0
M  V30 8070 S 735.773 1.55918 -4.10165 0
M  V30 8071 H 732.591 0.147008 -0.695636 0
M  V30 8072 H 735.193 -0.285841 -1.93399 0
M  V30 8073 H 733.897 0.0790543 -4.10324 0
M  V30 8074 H 733.428 1.69436 -3.55042 0
M  V30 8075 H 735.443 2.84771 -4.0635 0
M  V30 8076 N 734.616 1.57351 0.0885366 0
M  V30 8077 C 735.862 1.87564 0.786842 0
M  V30 8078 C 736.217 0.776774 1.76023 0
M  V30 8079 O 735.51 -0.220637 1.90325 0
M  V30 8080 C 735.704 3.22098 1.5488 0
M  V30 8081 C 735.533 4.44967 0.650706 0
M  V30 8082 C 734.303 5.04444 0.293957 0
M  V30 8083 C 736.501 5.1428 -0.0452187 0
M  V30 8084 N 734.483 6.10846 -0.611609 0
M  V30 8085 C 735.854 6.14704 -0.808603 0
M  V30 8086 C 737.909 4.97759 -0.118451 0
M  V30 8087 C 736.612 7.00392 -1.63839 0
M  V30 8088 C 738.638 5.8396 -0.935157 0
M  V30 8089 C 738 6.83909 -1.68664 0
M  V30 8090 H 734.099 0.73613 0.263887 0
M  V30 8091 H 736.683 1.94638 0.049074 0
M  V30 8092 H 734.854 3.16064 2.2574 0
M  V30 8093 H 736.586 3.40015 2.19481 0
M  V30 8094 H 733.341 4.69214 0.643086 0
M  V30 8095 H 733.765 6.68695 -1.05714 0
M  V30 8096 H 738.407 4.20418 0.448202 0
M  V30 8097 H 736.125 7.7712 -2.21608 0
M  V30 8098 H 739.711 5.73236 -0.994579 0
M  V30 8099 H 738.591 7.49454 -2.30842 0
M  V30 8100 N 736.094 -0.359525 1.53444 0
M  V30 8101 C 737.041 -1.44073 1.8031 0
M  V30 8102 C 738.011 -1.52946 0.647811 0
M  V30 8103 O 739.196 -1.68739 0.890614 0
M  V30 8104 C 736.336 -2.80941 2.00416 0
M  V30 8105 C 735.449 -2.80986 3.28132 0
M  V30 8106 C 734.584 -4.09468 3.38393 0
M  V30 8107 C 733.623 -4.03679 4.60119 0
M  V30 8108 N 732.76 -5.23821 4.675 0
M  V30 8109 H 737.6 -1.20464 2.72566 0
M  V30 8110 H 735.137 -0.583859 1.35017 0
M  V30 8111 H 737.095 -3.60459 2.1006 0
M  V30 8112 H 735.725 -3.02936 1.11489 0
M  V30 8113 H 734.777 -1.93666 3.27411 0
M  V30 8114 H 736.089 -2.72583 4.17732 0
M  V30 8115 H 735.243 -4.97404 3.47382 0
M  V30 8116 H 733.982 -4.20632 2.4682 0
M  V30 8117 H 732.987 -3.14129 4.51224 0
M  V30 8118 H 734.212 -3.94112 5.5304 0
M  V30 8119 H 732.158 -5.35559 3.7883 0
M  V30 8120 H 732.075 -5.17611 5.51013 0
M  V30 8121 H 733.343 -6.13572 4.8078 0
M  V30 8122 N 737.572 -1.44907 -0.619662 0
M  V30 8123 C 738.8 -1.51795 -1.40591 0
M  V30 8124 C 739.215 -0.146553 -1.8823 0
M  V30 8125 O 738.572 0.849698 -1.61513 0
M  V30 8126 C 738.623 -2.49229 -2.61853 0
M  V30 8127 O 738.344 -3.81039 -2.16197 0
M  V30 8128 C 739.845 -2.65696 -3.54853 0
M  V30 8129 H 737.065 -0.514463 -0.430777 0
M  V30 8130 H 739.609 -1.8998 -0.756813 0
M  V30 8131 H 737.764 -2.14149 -3.2283 0
M  V30 8132 H 738.178 -4.33747 -2.94896 0
M  V30 8133 H 739.652 -3.37874 -4.36515 0
M  V30 8134 H 740.129 -1.71316 -4.0441 0
M  V30 8135 H 740.735 -3.01724 -2.99737 0
M  V30 8136 N 739.05 0.861098 -1.31996 0
M  V30 8137 C 740.296 1.61721 -1.22369 0
M  V30 8138 C 740.629 1.93 0.215587 0
M  V30 8139 O 739.904 1.56789 1.15098 0
M  V30 8140 C 740.187 2.9417 -2.07691 0
M  V30 8141 C 740.04 2.69714 -3.59965 0
M  V30 8142 C 741.359 3.95372 -1.93312 0
M  V30 8143 H 738.478 0.586822 -0.44588 0
M  V30 8144 H 741.12 0.994788 -1.61876 0
M  V30 8145 H 739.27 3.47292 -1.74128 0
M  V30 8146 H 740.942 2.23196 -4.03709 0
M  V30 8147 H 739.185 2.03789 -3.82952 0
M  V30 8148 H 739.856 3.63996 -4.14983 0
M  V30 8149 H 742.332 3.51487 -2.22701 0
M  V30 8150 H 741.208 4.85916 -2.55298 0
M  V30 8151 H 741.469 4.32865 -0.898922 0
M  V30 8152 N 740.528 1.15101 1.07655 0
M  V30 8153 C 741.458 0.867864 2.16773 0
M  V30 8154 C 742.439 -0.180283 1.69142 0
M  V30 8155 O 743.624 -0.0353152 1.94168 0
M  V30 8156 C 740.754 0.35299 3.45501 0
M  V30 8157 C 739.708 1.33746 4.06566 0
M  V30 8158 C 739.034 0.681562 5.30338 0
M  V30 8159 C 740.334 2.7024 4.46954 0
M  V30 8160 H 742.028 1.78034 2.40716 0
M  V30 8161 H 739.574 0.857435 1.15689 0
M  V30 8162 H 741.527 0.142465 4.21159 0
M  V30 8163 H 740.251 -0.594945 3.21135 0
M  V30 8164 H 738.91 1.53429 3.32949 0
M  V30 8165 H 738.558 -0.272422 5.02262 0
M  V30 8166 H 738.258 1.33853 5.72151 0
M  V30 8167 H 739.782 0.48074 6.08705 0
M  V30 8168 H 741.196 2.5442 5.13754 0
M  V30 8169 H 739.593 3.32282 4.99709 0
M  V30 8170 H 740.663 3.26537 3.58471 0
M  V30 8171 N 742.006 -1.2595 0.947325 0
M  V30 8172 C 742.953 -2.26159 0.460497 0
M  V30 8173 C 743.923 -1.58919 -0.483125 0
M  V30 8174 O 745.108 -1.86603 -0.397983 0
M  V30 8175 C 742.248 -3.441 -0.26247 0
M  V30 8176 C 741.361 -4.25999 0.717539 0
M  V30 8177 C 740.496 -5.31193 -0.0272486 0
M  V30 8178 C 739.535 -6.04774 0.944177 0
M  V30 8179 N 738.672 -7.01721 0.230741 0
M  V30 8180 H 743.512 -2.67173 1.31995 0
M  V30 8181 H 741.049 -1.31358 0.662088 0
M  V30 8182 H 743.007 -4.11317 -0.698137 0
M  V30 8183 H 741.637 -3.03983 -1.08602 0
M  V30 8184 H 740.689 -3.58513 1.27171 0
M  V30 8185 H 742.001 -4.76981 1.45913 0
M  V30 8186 H 741.155 -6.04451 -0.521903 0
M  V30 8187 H 739.894 -4.81066 -0.801682 0
M  V30 8188 H 738.899 -5.30338 1.4499 0
M  V30 8189 H 740.124 -6.56991 1.71872 0
M  V30 8190 H 738.07 -6.53895 -0.525088 0
M  V30 8191 H 737.987 -7.50484 0.911556 0
M  V30 8192 H 739.255 -7.79122 -0.242616 0
M  V30 8193 N 743.484 -0.715051 -1.40445 0
M  V30 8194 C 744.394 -0.0631624 -2.34515 0
M  V30 8195 C 745.41 0.744397 -1.57273 0
M  V30 8196 O 746.586 0.677475 -1.89663 0
M  V30 8197 C 743.651 0.847915 -3.36172 0
M  V30 8198 C 742.712 0.0303655 -4.29289 0
M  V30 8199 C 741.945 0.898051 -5.2609 0
M  V30 8200 O 742.168 2.13729 -5.28844 0
M  V30 8201 O 741.102 0.337328 -6.00954 0
M  V30 8202 H 744.928 -0.839078 -2.91879 0
M  V30 8203 H 742.513 -0.475527 -1.4163 0
M  V30 8204 H 744.395 1.3698 -3.98515 0
M  V30 8205 H 743.07 1.60299 -2.81222 0
M  V30 8206 H 741.977 -0.536573 -3.70232 0
M  V30 8207 H 743.31 -0.686474 -4.87389 0
M  V30 8208 N 744.962 1.50701 -0.461195 0
M  V30 8209 C 746.208 2.02566 0.0973411 0
M  V30 8210 C 746.541 1.3432 1.40257 0
M  V30 8211 O 745.816 0.465692 1.88843 0
M  V30 8212 C 746.099 3.58919 0.291423 0
M  V30 8213 C 745.952 4.37751 -1.03413 0
M  V30 8214 C 747.271 4.27379 1.05048 0
M  V30 8215 H 744.39 0.73622 0.0339026 0
M  V30 8216 H 747.032 1.80115 -0.604855 0
M  V30 8217 H 745.182 3.78179 0.889539 0
M  V30 8218 H 746.854 4.30085 -1.66806 0
M  V30 8219 H 745.097 4.01885 -1.63313 0
M  V30 8220 H 745.768 5.45384 -0.852085 0
M  V30 8221 H 748.244 4.12534 0.543603 0
M  V30 8222 H 747.12 5.36609 1.15506 0
M  V30 8223 H 747.381 3.89868 2.0846 0
M  V30 8224 N 746.441 0.193421 1.56409 0
M  V30 8225 C 747.718 -0.493318 1.89277 0
M  V30 8226 C 748.098 -1.79765 1.10669 0
M  V30 8227 O 747.446 -2.27558 0.207274 0
M  V30 8228 C 747.656 -0.713732 3.41624 0
M  V30 8229 C 749.004 -1.03385 4.11821 0
M  V30 8230 O 750.028 -0.801511 3.47065 0
M  V30 8231 O 748.887 -1.47327 5.26267 0
M  V30 8232 H 745.981 -0.256973 0.786062 0
M  V30 8233 H 748.527 0.23351 1.68086 0
M  V30 8234 H 747.299 0.207446 3.9075 0
M  V30 8235 H 746.922 -1.49308 3.68501 0
M  V30 8236 N 747.919 -1.57396 -0.0801906 0
M  V30 8237 C 748.851 -1.9982 -1.12271 0
M  V30 8238 C 749.864 -0.902902 -1.35468 0
M  V30 8239 O 751.053 -1.18088 -1.33856 0
M  V30 8240 C 748.153 -2.31476 -2.47532 0
M  V30 8241 C 747.326 -3.62745 -2.44407 0
M  V30 8242 C 746.385 -3.82168 -3.6171 0
M  V30 8243 O 745.411 -4.53852 -3.43522 0
M  V30 8244 N 746.613 -3.2388 -4.81749 0
M  V30 8245 H 749.378 -2.89864 -0.761501 0
M  V30 8246 H 746.939 -1.5965 -0.268965 0
M  V30 8247 H 748.931 -2.4165 -3.24634 0
M  V30 8248 H 747.501 -1.47364 -2.75686 0
M  V30 8249 H 746.721 -3.63403 -1.52747 0
M  V30 8250 H 748.009 -4.48954 -2.39412 0
M  V30 8251 H 747.407 -2.6568 -4.9943 0
M  V30 8252 H 745.964 -3.39515 -5.56392 0
M  V30 8253 N 749.397 0.351382 -1.53633 0
M  V30 8254 C 750.345 1.45142 -1.8176 0
M  V30 8255 C 751.339 1.54819 -0.687571 0
M  V30 8256 O 752.545 1.57536 -0.870772 0
M  V30 8257 H 748.92 0.483789 -0.575719 0
M  V30 8258 H 750.891 1.1863 -2.73806 0
M  V30 8259 C 749.64 2.81779 -2.03706 0
M  V30 8260 H 748.963 2.75097 -2.90107 0
M  V30 8261 H 750.403 3.5789 -2.27356 0
M  V30 8262 C 748.862 3.26762 -0.820271 0
M  V30 8263 O 749.392 4.01697 -0.0158603 0
M  V30 8264 N 747.598 2.83472 -0.639699 0
M  V30 8265 H 747.145 2.22655 -1.29547 0
M  V30 8266 H 747.103 3.13924 0.172995 0
M  V30 8267 N 750.875 1.45233 0.611969 0
M  V30 8268 C 751.823 1.53898 1.74408 0
M  V30 8269 C 752.817 0.409254 1.64382 0
M  V30 8270 O 754.023 0.584988 1.70229 0
M  V30 8271 H 750.398 0.483303 0.576127 0
M  V30 8272 H 752.369 2.49143 1.64227 0
M  V30 8273 C 751.118 1.51865 3.12782 0
M  V30 8274 H 750.441 2.38118 3.21154 0
M  V30 8275 H 751.881 1.61986 3.91838 0
M  V30 8276 C 750.34 0.242374 3.36027 0
M  V30 8277 O 750.87 -0.679587 3.9591 0
M  V30 8278 N 749.076 0.139448 2.90265 0
M  V30 8279 H 748.623 0.890571 2.41716 0
M  V30 8280 H 748.581 -0.713686 3.06193 0
M  V30 8281 N 752.353 -0.854086 1.3245 0
M  V30 8282 C 753.63 -1.59188 1.1366 0
M  V30 8283 C 754.01 -2.08917 -0.302807 0
M  V30 8284 O 753.358 -1.8795 -1.29951 0
M  V30 8285 C 753.568 -2.73757 2.16467 0
M  V30 8286 C 754.916 -3.43323 2.49829 0
M  V30 8287 O 755.94 -2.83983 2.15017 0
M  V30 8288 O 754.799 -4.50409 3.09506 0
M  V30 8289 H 751.893 -0.701092 0.438633 0
M  V30 8290 H 754.439 -0.898165 1.43983 0
M  V30 8291 H 753.211 -2.3454 3.1322 0
M  V30 8292 H 752.834 -3.50804 1.87142 0
M  V30 8293 N 753.831 -1.1567 -1.07043 0
M  V30 8294 C 755.079 -0.931673 -1.79344 0
M  V30 8295 C 755.4 0.542421 -1.87304 0
M  V30 8296 O 754.67 1.39418 -1.37621 0
M  V30 8297 H 753.25 -0.34171 -0.664262 0
M  V30 8298 H 755.912 -1.45795 -1.29344 0
M  V30 8299 H 755.008 -1.34379 -2.81689 0
M  V30 8300 N 755.309 1.25446 -0.953992 0
M  V30 8301 C 756.219 2.29632 -0.480264 0
M  V30 8302 C 757.235 1.68025 0.452071 0
M  V30 8303 O 758.411 1.98703 0.328472 0
M  V30 8304 C 755.476 3.45903 0.234974 0
M  V30 8305 C 754.537 4.22953 -0.735495 0
M  V30 8306 C 753.77 5.33672 -0.0542957 0
M  V30 8307 O 753.993 5.58477 1.16018 0
M  V30 8308 O 752.927 5.9734 -0.739509 0
M  V30 8309 H 756.753 2.72242 -1.34602 0
M  V30 8310 H 754.338 1.30883 -0.720419 0
M  V30 8311 H 756.22 4.16552 0.637341 0
M  V30 8312 H 754.895 3.05296 1.07592 0
M  V30 8313 H 753.802 3.54734 -1.18806 0
M  V30 8314 H 755.135 4.67341 -1.54444 0
M  V30 8315 N 756.787 0.722489 1.40064 0
M  V30 8316 C 758.036 0.261932 1.99992 0
M  V30 8317 C 758.349 -1.15358 1.57961 0
M  V30 8318 O 759.555 -1.71301 2.10637 0
M  V30 8319 C 758.011 0.41737 3.57472 0
M  V30 8320 C 757.619 1.83997 4.08472 0
M  V30 8321 C 759.363 0.0179561 4.24496 0
M  V30 8322 C 757.27 1.94563 5.5848 0
M  V30 8323 H 756.2 0.0941768 0.748095 0
M  V30 8324 H 758.851 0.894572 1.60218 0
M  V30 8325 H 757.233 -0.283965 3.94981 0
M  V30 8326 H 758.407 2.57224 3.82325 0
M  V30 8327 H 756.722 2.19147 3.54067 0
M  V30 8328 H 759.319 0.076085 5.34646 0
M  V30 8329 H 759.662 -1.02498 4.03485 0
M  V30 8330 H 760.195 0.669988 3.92117 0
M  V30 8331 H 756.934 2.97001 5.84355 0
M  V30 8332 H 756.454 1.25756 5.86469 0
M  V30 8333 H 758.133 1.72095 6.23692 0
M  V30 8334 N 758.265 -1.50454 0.469181 0
M  V30 8335 C 759.542 -1.9504 -0.147955 0
M  V30 8336 C 759.922 -1.40946 -1.57154 0
M  V30 8337 O 759.27 -0.609663 -2.20217 0
M  V30 8338 C 759.48 -3.48875 -0.0932198 0
M  V30 8339 C 760.828 -4.23655 -0.283056 0
M  V30 8340 O 761.852 -3.55795 -0.169892 0
M  V30 8341 O 760.711 -5.44102 -0.511396 0
M  V30 8342 H 757.805 -0.819283 -0.11271 0
M  V30 8343 H 760.351 -1.6123 0.529446 0
M  V30 8344 H 759.123 -3.80791 0.900784 0
M  V30 8345 H 758.746 -3.89217 -0.812161 0
M  V30 8346 N 759.743 -0.201713 -1.56304 0
M  V30 8347 C 760.99 0.435307 -1.97766 0
M  V30 8348 C 761.318 1.61169 -1.0888 0
M  V30 8349 O 760.573 1.95272 -0.12934 0
M  V30 8350 C 760.872 0.931432 -3.45049 0
M  V30 8351 C 760.538 -0.132287 -4.50706 0
M  V30 8352 C 759.2 -0.424552 -4.79323 0
M  V30 8353 C 761.552 -0.852703 -5.14177 0
M  V30 8354 C 758.88 -1.4421 -5.68701 0
M  V30 8355 C 761.232 -1.85944 -6.04655 0
M  V30 8356 C 759.896 -2.15884 -6.31625 0
M  V30 8357 H 759.166 0.15929 -0.723676 0
M  V30 8358 H 761.813 -0.300069 -1.89134 0
M  V30 8359 H 760.118 1.7452 -3.50785 0
M  V30 8360 H 761.815 1.43383 -3.74489 0
M  V30 8361 H 758.405 0.105671 -4.2847 0
M  V30 8362 H 762.589 -0.640139 -4.92154 0
M  V30 8363 H 757.845 -1.6799 -5.87869 0
M  V30 8364 H 762.019 -2.42286 -6.52894 0
M  V30 8365 H 759.646 -2.94875 -7.0068 0
M  V30 8366 N 761.222 1.57436 0.0718424 0
M  V30 8367 C 762.169 2.03686 1.08539 0
M  V30 8368 C 763.139 0.917474 1.38462 0
M  V30 8369 O 764.324 1.18513 1.4953 0
M  V30 8370 C 761.464 2.48566 2.39393 0
M  V30 8371 C 760.577 3.74122 2.16001 0
M  V30 8372 C 759.712 4.07786 3.40418 0
M  V30 8373 C 758.751 5.26383 3.1239 0
M  V30 8374 N 757.888 5.55685 4.29138 0
M  V30 8375 H 762.728 2.90043 0.684018 0
M  V30 8376 H 760.265 1.43438 0.326183 0
M  V30 8377 H 762.223 2.72639 3.15791 0
M  V30 8378 H 760.853 1.65186 2.77333 0
M  V30 8379 H 759.905 3.57389 1.30296 0
M  V30 8380 H 761.217 4.60659 1.91298 0
M  V30 8381 H 760.371 4.32759 4.25211 0
M  V30 8382 H 759.11 3.19817 3.68197 0
M  V30 8383 H 758.115 5.01206 2.25993 0
M  V30 8384 H 759.34 6.1597 2.85934 0
M  V30 8385 H 757.286 4.70675 4.56948 0
M  V30 8386 H 757.203 6.3664 4.07708 0
M  V30 8387 H 758.471 5.85209 5.14928 0
M  V30 8388 N 762.7 -0.34323 1.53817 0
M  V30 8389 C 763.61 -1.44493 1.84821 0
M  V30 8390 C 764.626 -1.57556 0.738381 0
M  V30 8391 O 765.802 -1.73026 1.03072 0
M  V30 8392 C 762.867 -2.79478 2.05166 0
M  V30 8393 C 761.928 -2.75756 3.29025 0
M  V30 8394 C 761.161 -4.04302 3.4839 0
M  V30 8395 O 761.384 -5.01595 2.71586 0
M  V30 8396 O 760.318 -4.08754 4.41819 0
M  V30 8397 H 764.144 -1.21209 2.78464 0
M  V30 8398 H 761.729 -0.535437 1.39476 0
M  V30 8399 H 763.611 -3.59419 2.19991 0
M  V30 8400 H 762.286 -3.02692 1.14713 0
M  V30 8401 H 761.193 -1.94434 3.19603 0
M  V30 8402 H 762.526 -2.57495 4.19472 0
M  V30 8403 N 764.178 -1.45556 -0.604258 0
M  V30 8404 C 765.425 -1.49746 -1.36317 0
M  V30 8405 C 765.753 -0.140516 -1.93992 0
M  V30 8406 O 765.008 0.861244 -1.7573 0
M  V30 8407 C 765.307 -2.52697 -2.52743 0
M  V30 8408 C 764.973 -3.97315 -2.13195 0
M  V30 8409 C 763.635 -4.36692 -2.02123 0
M  V30 8410 C 765.987 -4.88249 -1.8238 0
M  V30 8411 C 763.315 -5.64895 -1.58463 0
M  V30 8412 C 765.667 -6.16867 -1.40205 0
M  V30 8413 C 764.331 -6.55172 -1.27694 0
M  V30 8414 H 763.601 -0.54796 -0.49882 0
M  V30 8415 H 766.248 -1.7892 -0.682643 0
M  V30 8416 H 764.553 -2.17105 -3.26148 0
M  V30 8417 H 766.25 -2.53176 -3.10971 0
M  V30 8418 H 762.84 -3.66176 -2.22739 0
M  V30 8419 H 767.024 -4.58561 -1.89829 0
M  V30 8420 H 762.28 -5.93365 -1.47402 0
M  V30 8421 H 766.454 -6.86771 -1.15408 0
M  V30 8422 H 764.081 -7.54411 -0.936375 0
M  V30 8423 N 765.656 0.84705 -1.32902 0
M  V30 8424 C 767.072 1.13645 -1.12058 0
M  V30 8425 C 767.272 2.01281 0.093937 0
M  V30 8426 O 766.328 2.4026 0.776608 0
M  V30 8427 C 767.641 1.80644 -2.40392 0
M  V30 8428 C 769.189 1.93246 -2.46221 0
M  V30 8429 C 769.664 2.6366 -3.74496 0
M  V30 8430 N 771.155 2.71179 -3.75521 0
M  V30 8431 C 771.89 3.26332 -4.71482 0
M  V30 8432 N 771.386 3.82236 -5.77813 0
M  V30 8433 N 773.179 3.24507 -4.58968 0
M  V30 8434 H 765.33 0.263612 -2.10758 0
M  V30 8435 H 767.593 0.17944 -0.930863 0
M  V30 8436 H 767.299 1.23708 -3.29225 0
M  V30 8437 H 767.173 2.80736 -2.51926 0
M  V30 8438 H 769.56 2.49338 -1.57843 0
M  V30 8439 H 769.641 0.921272 -2.38634 0
M  V30 8440 H 769.285 2.08229 -4.63253 0
M  V30 8441 H 769.215 3.65234 -3.79357 0
M  V30 8442 H 771.706 2.31527 -2.9867 0
M  V30 8443 H 772.019 4.22499 -6.47082 0
M  V30 8444 H 770.364 3.80546 -5.81558 0
M  V30 8445 H 773.555 2.80085 -3.7506 0
M  V30 8446 H 773.728 3.67188 -5.33926 0
M  V30 8447 N 767.134 1.16236 1.06428 0
M  V30 8448 C 768.411 0.853294 1.76006 0
M  V30 8449 C 768.791 -0.649162 2.00871 0
M  V30 8450 O 768.139 -1.59653 1.63472 0
M  V30 8451 C 768.349 1.67448 3.06206 0
M  V30 8452 C 769.697 1.8866 3.80385 0
M  V30 8453 O 770.721 1.64303 3.16043 0
M  V30 8454 O 769.58 2.29518 4.95968 0
M  V30 8455 H 766.674 0.314737 0.764767 0
M  V30 8456 H 769.22 1.26865 1.12709 0
M  V30 8457 H 767.992 2.69411 2.83784 0
M  V30 8458 H 767.615 1.25608 3.77238 0
M  V30 8459 N 768.612 -1.24939 0.960631 0
M  V30 8460 C 769.545 -2.24116 0.429804 0
M  V30 8461 C 770.523 -1.54972 -0.492188 0
M  V30 8462 O 771.707 -1.83642 -0.42519 0
M  V30 8463 C 768.834 -3.36558 -0.380312 0
M  V30 8464 C 767.88 -4.23757 0.482941 0
M  V30 8465 S 768.713 -4.9994 1.91885 0
M  V30 8466 C 769.869 -6.15846 1.11732 0
M  V30 8467 H 770.102 -2.68795 1.27029 0
M  V30 8468 H 767.635 -1.34108 0.765141 0
M  V30 8469 H 769.593 -4.01777 -0.841764 0
M  V30 8470 H 768.254 -2.90451 -1.19569 0
M  V30 8471 H 767.447 -5.03809 -0.138699 0
M  V30 8472 H 767.049 -3.63504 0.879839 0
M  V30 8473 H 769.341 -6.76495 0.368898 0
M  V30 8474 H 770.284 -6.82356 1.89198 0
M  V30 8475 H 770.692 -5.60805 0.644812 0
M  V30 8476 N 770.09 -0.729906 -1.39679 0
M  V30 8477 C 771.02 -0.101618 -2.33279 0
M  V30 8478 C 772.001 0.729854 -1.53646 0
M  V30 8479 O 773.186 0.67587 -1.82059 0
M  V30 8480 C 770.316 0.81024 -3.37716 0
M  V30 8481 C 769.27 0.0833126 -4.27919 0
M  V30 8482 C 768.596 1.11185 -5.23012 0
M  V30 8483 C 769.896 -1.07107 -5.112 0
M  V30 8484 H 771.59 -0.883452 -2.86069 0
M  V30 8485 H 769.136 -0.426283 -1.37546 0
M  V30 8486 H 771.089 1.25927 -4.02145 0
M  V30 8487 H 769.813 1.62413 -2.83354 0
M  V30 8488 H 768.472 -0.346043 -3.64963 0
M  V30 8489 H 768.12 1.91917 -4.64948 0
M  V30 8490 H 767.82 0.63026 -5.8421 0
M  V30 8491 H 769.344 1.56068 -5.90318 0
M  V30 8492 H 770.758 -0.700726 -5.69002 0
M  V30 8493 H 769.155 -1.48196 -5.81514 0
M  V30 8494 H 770.225 -1.89513 -4.46332 0
M  V30 8495 N 771.568 1.50203 -0.477153 0
M  V30 8496 C 772.814 2.02658 0.0758507 0
M  V30 8497 C 773.147 1.358 1.38824 0
M  V30 8498 O 772.422 0.485696 1.88338 0
M  V30 8499 C 772.705 3.59208 0.253339 0
M  V30 8500 C 772.558 4.36629 -1.0805 0
M  V30 8501 C 773.877 4.28469 1.00509 0
M  V30 8502 H 770.996 0.736538 0.0260921 0
M  V30 8503 H 773.638 1.79464 -0.623925 0
M  V30 8504 H 771.788 3.79101 0.849378 0
M  V30 8505 H 773.46 4.28292 -1.71358 0
M  V30 8506 H 771.703 4.0013 -1.67566 0
M  V30 8507 H 772.374 5.44449 -0.909883 0
M  V30 8508 H 774.85 4.13087 0.499818 0
M  V30 8509 H 773.726 5.37804 1.09808 0
M  V30 8510 H 773.987 3.92057 2.04314 0
M  V30 8511 N 773.046 0.209999 1.56195 0
M  V30 8512 C 773.993 -0.704854 2.19774 0
M  V30 8513 C 774.963 -1.19886 1.14964 0
M  V30 8514 O 776.148 -1.26005 1.43274 0
M  V30 8515 C 773.288 -1.91241 2.87265 0
M  V30 8516 C 772.401 -1.45838 4.06639 0
M  V30 8517 C 771.536 -2.6226 4.61945 0
M  V30 8518 C 770.575 -2.13537 5.73645 0
M  V30 8519 N 769.712 -3.2319 6.23292 0
M  V30 8520 H 774.552 -0.155944 2.97592 0
M  V30 8521 H 772.089 -0.0652235 1.46955 0
M  V30 8522 H 774.047 -2.62123 3.24573 0
M  V30 8523 H 772.677 -2.43439 2.11985 0
M  V30 8524 H 771.729 -0.644897 3.74894 0
M  V30 8525 H 773.041 -1.06103 4.87384 0
M  V30 8526 H 772.195 -3.41243 5.01636 0
M  V30 8527 H 770.934 -3.05278 3.80338 0
M  V30 8528 H 769.939 -1.33013 5.33468 0
M  V30 8529 H 771.164 -1.71533 6.57079 0
M  V30 8530 H 769.11 -3.65711 5.44602 0
M  V30 8531 H 769.027 -2.8767 6.99129 0
M  V30 8532 H 770.295 -4.02342 6.67639 0
M  V30 8533 N 774.524 -1.57472 -0.0634922 0
M  V30 8534 C 775.454 -2.07297 -1.07473 0
M  V30 8535 C 776.435 -0.968162 -1.39859 0
M  V30 8536 O 777.62 -1.24139 -1.49343 0
M  V30 8537 C 774.75 -2.52381 -2.38581 0
M  V30 8538 C 773.704 -3.66813 -2.20526 0
M  V30 8539 C 773.03 -3.97982 -3.57092 0
M  V30 8540 C 774.33 -4.96553 -1.61965 0
M  V30 8541 H 776.024 -2.92033 -0.660092 0
M  V30 8542 H 773.57 -1.40488 -0.316074 0
M  V30 8543 H 775.523 -2.85852 -3.09624 0
M  V30 8544 H 774.247 -1.64684 -2.8204 0
M  V30 8545 H 772.906 -3.33639 -1.51924 0
M  V30 8546 H 772.554 -3.07403 -3.98136 0
M  V30 8547 H 772.254 -4.7504 -3.45848 0
M  V30 8548 H 773.778 -4.33956 -4.29552 0
M  V30 8549 H 775.192 -5.28201 -2.22883 0
M  V30 8550 H 773.589 -5.7799 -1.61394 0
M  V30 8551 H 774.659 -4.81396 -0.581918 0
M  V30 8552 N 776.003 0.335068 -1.53997 0
M  V30 8553 C 777.243 1.0827 -1.7337 0
M  V30 8554 C 777.607 1.85618 -0.490913 0
M  V30 8555 O 778.808 2.62864 -0.561799 0
M  V30 8556 C 777.079 1.99212 -2.96731 0
M  V30 8557 S 778.638 2.81083 -3.36954 0
M  V30 8558 H 775.456 0.365698 -0.609743 0
M  V30 8559 H 778.058 0.360079 -1.92155 0
M  V30 8560 H 776.762 1.41204 -3.85344 0
M  V30 8561 H 776.293 2.75898 -2.80436 0
M  V30 8562 H 778.308 4.01657 -2.91352 0
M  V30 8563 N 777.481 1.45874 0.596531 0
M  V30 8564 C 778.429 1.55739 1.72766 0
M  V30 8565 C 779.423 0.426666 1.63939 0
M  V30 8566 O 780.629 0.60301 1.69599 0
M  V30 8567 H 777.004 0.489386 0.570968 0
M  V30 8568 H 778.975 2.50871 1.61575 0
M  V30 8569 C 777.724 1.55174 3.11153 0
M  V30 8570 H 777.047 2.41511 3.1861 0
M  V30 8571 H 778.487 1.66133 3.90097 0
M  V30 8572 C 776.946 0.278001 3.35751 0
M  V30 8573 O 777.476 -0.637557 3.96608 0
M  V30 8574 N 775.682 0.170227 2.90101 0
M  V30 8575 H 775.229 0.916159 2.40758 0
M  V30 8576 H 775.187 -0.68117 3.06932 0
M  V30 8577 N 778.959 -0.83999 1.33349 0
M  V30 8578 C 780.189 -1.62492 1.27593 0
M  V30 8579 C 780.597 -1.88559 -0.155597 0
M  V30 8580 O 779.94 -1.46537 -1.10782 0
M  V30 8581 C 780.002 -2.99984 1.98116 0
M  V30 8582 C 779.666 -2.96892 3.47425 0
M  V30 8583 C 780.663 -2.72688 4.42648 0
M  V30 8584 C 778.348 -3.17063 3.89585 0
M  V30 8585 C 780.342 -2.68681 5.78004 0
M  V30 8586 C 778.029 -3.12682 5.25046 0
M  V30 8587 C 779.027 -2.88522 6.19067 0
M  V30 8588 O 778.715 -2.84042 7.52047 0
M  V30 8589 H 778.447 -0.512358 0.440982 0
M  V30 8590 H 781.001 -1.0545 1.76265 0
M  V30 8591 H 779.231 -3.58875 1.44034 0
M  V30 8592 H 780.92 -3.6084 1.85875 0
M  V30 8593 H 781.686 -2.56856 4.114 0
M  V30 8594 H 777.565 -3.34889 3.16813 0
M  V30 8595 H 781.109 -2.49743 6.51363 0
M  V30 8596 H 777.006 -3.28063 5.55918 0
M  V30 8597 H 777.774 -2.99892 7.61582 0
M  V30 8598 O 780.476 -1.28535 -0.977803 0
M  V30 8599 H 781.167 -1.08805 -1.60253 0
M  V30 END ATOM
M  V30 BEGIN BOND
M  V30 END BOND
M  V30 END CTAB
M  END
$$$$
