drugbank_target|Q8IDQ9 Phosphoethanolamine N-methyltransferase (DB11638)
 OpenBabel12092121103D

  0  0  0     0  0            999 V3000
M  V30 BEGIN CTAB
M  V30 COUNTS 4333 4376 0 0 0
M  V30 BEGIN ATOM
M  V30 1 H -0.908 1.98254 -0.117106 0
M  V30 2 N 0 1.576 0 0
M  V30 3 C 0.933 2.03868 1.02534 0
M  V30 4 C 1.911 0.928543 1.3348 0
M  V30 5 O 3.095 1.19667 1.45644 0
M  V30 6 C 0.222 2.43627 2.35294 0
M  V30 7 C -0.732 3.65373 2.2001 0
M  V30 8 S 0.101 5.13292 1.52614 0
M  V30 9 C 1.257 5.56322 2.86805 0
M  V30 10 H 1.49 2.90518 0.631377 0
M  V30 11 H -0.977 1.52953 0.210867 0
M  V30 12 H 0.981 2.67203 3.11629 0
M  V30 13 H -0.358 1.57376 2.7183 0
M  V30 14 H -1.165 3.90944 3.18086 0
M  V30 15 H -1.563 3.418 1.51819 0
M  V30 16 H 0.729 5.58782 3.83104 0
M  V30 17 H 1.672 6.56266 2.65933 0
M  V30 18 H 2.08 4.83886 2.90714 0
M  V30 19 N 1.4781 -0.272755 1.55222 0
M  V30 20 C 2.7061 -1.02255 1.79865 0
M  V30 21 C 3.1211 -1.79924 0.572088 0
M  V30 22 O 2.4781 -1.76638 -0.458842 0
M  V30 23 C 2.5291 -1.98094 3.02392 0
M  V30 24 O 2.2501 -1.23572 4.20311 0
M  V30 25 C 3.7511 -2.84884 3.39641 0
M  V30 26 H 0.9711 -0.302057 0.599168 0
M  V30 27 H 3.5151 -0.303465 2.02236 0
M  V30 28 H 1.6701 -2.65465 2.82147 0
M  V30 29 H 2.0841 -1.88172 4.89583 0
M  V30 30 H 3.5581 -3.47927 4.28545 0
M  V30 31 H 4.0351 -3.54665 2.59055 0
M  V30 32 H 4.6411 -2.23003 3.62146 0
M  V30 33 N 2.9562 -1.48159 -0.537278 0
M  V30 34 C 3.8862 -1.65029 -1.6519 0
M  V30 35 C 4.8672 -0.499281 -1.62607 0
M  V30 36 O 6.0522 -0.730972 -1.79918 0
M  V30 37 C 3.1822 -1.68303 -3.03795 0
M  V30 38 C 2.1362 -2.8283 -3.21234 0
M  V30 39 C 1.4622 -2.71189 -4.60826 0
M  V30 40 C 2.7622 -4.24211 -3.04701 0
M  V30 41 H 4.4562 -2.58341 -1.51328 0
M  V30 42 H 2.0022 -1.24325 -0.726585 0
M  V30 43 H 3.9552 -1.78693 -3.81637 0
M  V30 44 H 2.6792 -0.715635 -3.18663 0
M  V30 45 H 1.3382 -2.71983 -2.45807 0
M  V30 46 H 0.9862 -1.72435 -4.7252 0
M  V30 47 H 0.6862 -3.48035 -4.7344 0
M  V30 48 H 2.2102 -2.83537 -5.40777 0
M  V30 49 H 3.6242 -4.3593 -3.72341 0
M  V30 50 H 2.0212 -5.01998 -3.28813 0
M  V30 51 H 3.0912 -4.41184 -2.01209 0
M  V30 52 N 4.4343 0.785586 -1.36625 0
M  V30 53 C 5.6833 1.53883 -1.30396 0
M  V30 54 C 5.9963 1.95271 0.113452 0
M  V30 55 O 7.2023 2.69858 0.298142 0
M  V30 56 C 5.6583 2.77808 -2.28802 0
M  V30 57 C 5.2663 2.43574 -3.75999 0
M  V30 58 C 7.0103 3.55783 -2.31558 0
M  V30 59 C 4.9173 3.63919 -4.66173 0
M  V30 60 H 3.8473 0.577678 -0.484566 0
M  V30 61 H 6.4983 0.861705 -1.62009 0
M  V30 62 H 4.8803 3.47339 -1.90188 0
M  V30 63 H 6.0543 1.81916 -4.23371 0
M  V30 64 H 4.3693 1.78803 -3.76056 0
M  V30 65 H 6.9663 4.45205 -2.96137 0
M  V30 66 H 7.3093 3.94644 -1.3252 0
M  V30 67 H 7.8423 2.93235 -2.68809 0
M  V30 68 H 4.5813 3.3015 -5.66287 0
M  V30 69 H 4.1013 4.2473 -4.23515 0
M  V30 70 H 5.7803 4.30901 -4.82632 0
M  V30 71 N 5.9124 1.20967 1.01018 0
M  V30 72 C 6.8224 0.980157 2.13143 0
M  V30 73 C 7.8384 -0.0660665 1.73875 0
M  V30 74 O 9.0144 0.122821 2.01025 0
M  V30 75 C 6.0794 0.54216 3.42435 0
M  V30 76 C 5.1404 1.65999 3.95908 0
M  V30 77 C 4.3734 1.2428 5.19028 0
M  V30 78 O 4.5964 0.114196 5.70286 0
M  V30 79 O 3.5304 2.05271 5.65816 0
M  V30 80 H 7.3564 1.91913 2.35379 0
M  V30 81 H 4.9414 0.994099 1.11526 0
M  V30 82 H 6.8234 0.30744 4.20277 0
M  V30 83 H 5.4984 -0.36815 3.216 0
M  V30 84 H 4.4054 1.94906 3.19316 0
M  V30 85 H 5.7384 2.54753 4.21143 0
M  V30 86 N 7.3905 -1.2043 1.01659 0
M  V30 87 C 8.3385 -2.25249 0.580143 0
M  V30 88 C 9.3325 -1.65057 -0.381115 0
M  V30 89 O 10.5385 -1.78241 -0.251039 0
M  V30 90 H 6.9135 -0.732695 0.169299 0
M  V30 91 H 8.8845 -2.59389 1.47512 0
M  V30 92 C 7.6335 -3.47638 -0.065788 0
M  V30 93 H 6.9565 -3.94233 0.664874 0
M  V30 94 H 8.3965 -4.2268 -0.334282 0
M  V30 95 C 6.8555 -3.10447 -1.3086 0
M  V30 96 O 7.3855 -3.21981 -2.4019 0
M  V30 97 N 5.5915 -2.64996 -1.1927 0
M  V30 98 H 5.1385 -2.55811 -0.303064 0
M  V30 99 H 5.0965 -2.40482 -2.02523 0
M  V30 100 N 8.8686 -0.792821 -1.36206 0
M  V30 101 C 9.7986 -0.207853 -2.32573 0
M  V30 102 C 10.7796 0.659055 -1.56813 0
M  V30 103 O 11.9646 0.592176 -1.84951 0
M  V30 104 C 9.0946 0.655449 -3.41059 0
M  V30 105 C 8.0486 -0.111842 -4.27854 0
M  V30 106 C 7.3746 0.872274 -5.27537 0
M  V30 107 C 8.6746 -1.30299 -5.05786 0
M  V30 108 H 10.3686 -1.01294 -2.81744 0
M  V30 109 H 7.9146 -0.48854 -1.3546 0
M  V30 110 H 9.8676 1.07464 -4.07467 0
M  V30 111 H 8.5916 1.49328 -2.90463 0
M  V30 112 H 7.2506 -0.512053 -3.63006 0
M  V30 113 H 6.8986 1.70523 -4.73214 0
M  V30 114 H 6.5986 0.363291 -5.86476 0
M  V30 115 H 8.1226 1.28996 -5.96818 0
M  V30 116 H 9.5366 -0.959379 -5.65216 0
M  V30 117 H 7.9336 -1.7455 -5.74154 0
M  V30 118 H 9.0036 -2.09663 -4.37229 0
M  V30 119 N 10.3467 1.47872 -0.545128 0
M  V30 120 C 11.2947 2.31533 0.222512 0
M  V30 121 C 12.2887 1.42177 0.920985 0
M  V30 122 O 13.4947 1.59005 0.843645 0
M  V30 123 H 9.8697 0.746519 0.0906278 0
M  V30 124 H 11.8407 2.94139 -0.50246 0
M  V30 125 C 10.5897 3.2457 1.24699 0
M  V30 126 H 9.9127 3.93283 0.718944 0
M  V30 127 H 11.3527 3.85963 1.75523 0
M  V30 128 C 9.8117 2.47237 2.28856 0
M  V30 129 O 10.3417 2.20808 3.35569 0
M  V30 130 N 8.5477 2.08461 2.02466 0
M  V30 131 H 8.0947 2.30155 1.157 0
M  V30 132 H 8.0527 1.57033 2.72375 0
M  V30 133 N 11.8248 0.280983 1.55075 0
M  V30 134 C 13.0498 -0.340154 2.04592 0
M  V30 135 C 13.4748 -1.48246 1.15779 0
M  V30 136 O 12.8328 -1.80614 0.15761 0
M  V30 137 C 12.8808 -0.793104 3.5177 0
M  V30 138 O 11.9848 -1.89981 3.66034 0
M  V30 139 H 11.3258 -0.0694289 0.66036 0
M  V30 140 H 13.8558 0.416993 2.00306 0
M  V30 141 H 13.8658 -1.08729 3.93245 0
M  V30 142 H 12.5408 0.0426163 4.15878 0
M  V30 143 H 11.1178 -1.60771 3.36463 0
M  V30 144 N 13.3029 -1.57598 0.00835791 0
M  V30 145 C 14.5799 -1.82172 -0.712235 0
M  V30 146 C 14.9599 -0.887873 -1.9152 0
M  V30 147 O 14.3079 0.06146 -2.28417 0
M  V30 148 C 14.5179 -3.30875 -1.11008 0
M  V30 149 C 15.8659 -3.96826 -1.51044 0
M  V30 150 O 16.8899 -3.35248 -1.20364 0
M  V30 151 O 15.7489 -5.05318 -2.08125 0
M  V30 152 H 12.8429 -0.750435 -0.347529 0
M  V30 153 H 15.3889 -1.69665 0.0344523 0
M  V30 154 H 14.1609 -3.90481 -0.252982 0
M  V30 155 H 13.7839 -3.48412 -1.9156 0
M  V30 156 N 14.781 0.264519 -1.55364 0
M  V30 157 C 15.728 1.32717 -1.88825 0
M  V30 158 C 16.698 1.48675 -0.740605 0
M  V30 159 O 17.883 1.62945 -0.992657 0
M  V30 160 C 15.023 2.68089 -2.17307 0
M  V30 161 C 14.136 2.60284 -3.44785 0
M  V30 162 C 13.271 3.87892 -3.62924 0
M  V30 163 C 12.31 3.74631 -4.84064 0
M  V30 164 N 11.447 4.94092 -4.98816 0
M  V30 165 H 16.287 1.03481 -2.79456 0
M  V30 166 H 13.824 0.499757 -1.3835 0
M  V30 167 H 15.782 3.46864 -2.31821 0
M  V30 168 H 14.412 2.95509 -1.299 0
M  V30 169 H 13.464 1.73173 -3.38697 0
M  V30 170 H 14.776 2.46388 -4.33698 0
M  V30 171 H 13.93 4.75109 -3.77302 0
M  V30 172 H 12.669 4.04664 -2.7221 0
M  V30 173 H 11.674 2.85797 -4.69681 0
M  V30 174 H 12.899 3.5937 -5.76221 0
M  V30 175 H 10.845 5.11259 -4.11036 0
M  V30 176 H 10.762 4.8276 -5.81789 0
M  V30 177 H 12.03 5.82857 -5.17588 0
M  V30 178 N 16.2591 1.48442 0.529413 0
M  V30 179 C 17.4871 1.60151 1.30994 0
M  V30 180 C 17.9021 0.261985 1.86973 0
M  V30 181 O 17.2591 -0.748805 1.66431 0
M  V30 182 C 17.3101 2.64854 2.46038 0
M  V30 183 O 17.0311 3.93608 1.92365 0
M  V30 184 C 18.5321 2.87007 3.37849 0
M  V30 185 H 15.7521 0.539971 0.398338 0
M  V30 186 H 18.2961 1.94273 0.638597 0
M  V30 187 H 16.4511 2.33589 3.09055 0
M  V30 188 H 16.8651 4.51055 2.67675 0
M  V30 189 H 18.3391 3.64068 4.14919 0
M  V30 190 H 18.8161 1.95852 3.93114 0
M  V30 191 H 19.4221 3.19579 2.80623 0
M  V30 192 N 17.7372 -0.778329 1.37039 0
M  V30 193 C 18.9842 -1.53665 1.31884 0
M  V30 194 C 19.3122 -1.9425 -0.0986303 0
M  V30 195 O 18.5672 -1.63832 -1.07041 0
M  V30 196 C 18.8662 -2.81845 2.19768 0
M  V30 197 C 18.5322 -2.60345 3.68146 0
M  V30 198 C 17.1942 -2.5419 4.08584 0
M  V30 199 C 19.5462 -2.40923 4.62175 0
M  V30 200 C 16.8742 -2.26594 5.41177 0
M  V30 201 C 19.2262 -2.14852 5.94997 0
M  V30 202 C 17.8902 -2.07137 6.34547 0
M  V30 203 H 17.1602 -0.562299 0.482598 0
M  V30 204 H 19.8072 -0.897069 1.69189 0
M  V30 205 H 18.1122 -3.50328 1.75436 0
M  V30 206 H 19.8092 -3.39692 2.13097 0
M  V30 207 H 16.3992 -2.65996 3.36072 0
M  V30 208 H 20.5832 -2.44673 4.31797 0
M  V30 209 H 15.8392 -2.19111 5.70789 0
M  V30 210 H 20.0132 -1.98822 6.67415 0
M  V30 211 H 17.6402 -1.85518 7.37216 0
M  V30 212 N 19.2153 -1.21501 -1.00376 0
M  V30 213 C 20.1453 -0.999478 -2.11028 0
M  V30 214 C 21.1263 0.0759671 -1.6993 0
M  V30 215 O 22.3113 -0.0841106 -1.94018 0
M  V30 216 C 19.4413 -0.564709 -3.42678 0
M  V30 217 C 18.3953 -1.58486 -3.97576 0
M  V30 218 C 17.7213 -1.00628 -5.25146 0
M  V30 219 C 19.0213 -2.97204 -4.29496 0
M  V30 220 H 20.7153 -1.92495 -2.29317 0
M  V30 221 H 18.2613 -0.92693 -1.102 0
M  V30 222 H 20.2143 -0.401091 -4.19487 0
M  V30 223 H 18.9383 0.396411 -3.24185 0
M  V30 224 H 17.5973 -1.73606 -3.22888 0
M  V30 225 H 17.2453 -0.0368439 -5.02987 0
M  V30 226 H 16.9453 -1.68771 -5.62841 0
M  V30 227 H 18.4693 -0.854015 -6.04598 0
M  V30 228 H 19.8833 -2.8552 -4.97143 0
M  V30 229 H 18.2803 -3.62372 -4.78338 0
M  V30 230 H 19.3503 -3.47956 -3.3772 0
M  V30 231 N 20.6934 1.19889 -1.02296 0
M  V30 232 C 21.6034 2.26571 -0.608508 0
M  V30 233 C 22.6194 1.70299 0.356964 0
M  V30 234 O 23.7954 2.00235 0.216326 0
M  V30 235 C 20.8604 3.46677 0.0402814 0
M  V30 236 C 19.9214 4.18153 -0.97194 0
M  V30 237 C 19.1544 5.32525 -0.354016 0
M  V30 238 O 19.3774 5.64112 0.844604 0
M  V30 239 O 18.3114 5.92242 -1.07391 0
M  V30 240 H 22.1374 2.64251 -1.49684 0
M  V30 241 H 19.7224 1.26629 -0.792809 0
M  V30 242 H 21.6044 4.19475 0.402324 0
M  V30 243 H 20.2794 3.10858 0.902707 0
M  V30 244 H 19.1864 3.47499 -1.38546 0
M  V30 245 H 20.5194 4.57927 -1.80454 0
M  V30 246 N 22.1715 0.800033 1.35784 0
M  V30 247 C 23.1195 0.193851 2.31791 0
M  V30 248 C 24.1135 -0.652744 1.56319 0
M  V30 249 O 25.3195 -0.546641 1.71499 0
M  V30 250 H 21.6945 0.04392 0.750716 0
M  V30 251 H 23.6655 1.01883 2.80468 0
M  V30 252 C 22.4145 -0.648338 3.41602 0
M  V30 253 H 21.7375 -0.00624665 3.998 0
M  V30 254 H 23.1775 -1.03898 4.11073 0
M  V30 255 C 21.6365 -1.8111 2.84079 0
M  V30 256 O 22.1665 -2.90825 2.77099 0
M  V30 257 N 20.3725 -1.62056 2.41218 0
M  V30 258 H 19.9195 -0.728123 2.47095 0
M  V30 259 H 19.8775 -2.40013 2.03079 0
M  V30 260 N 23.6496 -1.47581 0.552962 0
M  V30 261 C 24.5976 -2.31648 -0.21023 0
M  V30 262 C 25.5916 -1.42663 -0.913432 0
M  V30 263 O 26.7976 -1.5945 -0.835201 0
M  V30 264 H 23.1726 -0.746989 -0.0866676 0
M  V30 265 H 25.1436 -2.93869 0.518051 0
M  V30 266 C 23.8926 -3.25226 -1.22976 0
M  V30 267 H 23.2156 -3.93658 -0.698077 0
M  V30 268 H 24.6556 -3.86889 -1.73473 0
M  V30 269 C 23.1146 -2.48448 -2.27542 0
M  V30 270 O 23.6446 -2.22585 -3.34393 0
M  V30 271 N 21.8506 -2.09532 -2.01357 0
M  V30 272 H 21.3976 -2.30765 -1.14478 0
M  V30 273 H 21.3556 -1.58476 -2.71538 0
M  V30 274 N 25.1277 -0.289203 -1.54924 0
M  V30 275 C 26.0597 0.625583 -2.20497 0
M  V30 276 C 27.0727 1.10667 -1.19402 0
M  V30 277 O 28.2617 1.02615 -1.46056 0
M  V30 278 C 25.3617 1.86702 -2.82835 0
M  V30 279 C 24.5347 1.5304 -4.09753 0
M  V30 280 C 23.5937 2.62576 -4.56005 0
M  V30 281 O 22.6197 2.28167 -5.21468 0
M  V30 282 N 23.8217 3.92901 -4.27328 0
M  V30 283 H 26.5867 0.0642801 -2.99631 0
M  V30 284 H 24.1477 -0.110896 -1.6152 0
M  V30 285 H 26.1397 2.59304 -3.10715 0
M  V30 286 H 24.7097 2.33702 -2.07611 0
M  V30 287 H 23.9297 0.637564 -3.8901 0
M  V30 288 H 25.2177 1.28072 -4.92418 0
M  V30 289 H 24.6157 4.23671 -3.74859 0
M  V30 290 H 23.1727 4.61837 -4.59946 0
M  V30 291 N 26.6058 1.57591 -0.0167156 0
M  V30 292 C 27.8358 1.95292 0.674149 0
M  V30 293 C 28.2438 0.891097 1.66901 0
M  V30 294 O 27.5868 -0.136908 1.83189 0
M  V30 295 C 27.6488 3.29072 1.44747 0
M  V30 296 C 27.3128 4.52879 0.612331 0
M  V30 297 C 28.3098 5.1979 -0.107126 0
M  V30 298 C 25.9948 4.99242 0.553381 0
M  V30 299 C 27.9888 6.31375 -0.874339 0
M  V30 300 C 25.6758 6.10713 -0.217546 0
M  V30 301 C 26.6738 6.76637 -0.930123 0
M  V30 302 O 26.3618 7.85969 -1.68844 0
M  V30 303 H 26.0938 0.648275 0.191615 0
M  V30 304 H 28.6478 2.05284 -0.0690148 0
M  V30 305 H 26.8778 3.15535 2.2355 0
M  V30 306 H 28.5668 3.51764 2.02526 0
M  V30 307 H 29.3328 4.84948 -0.0708392 0
M  V30 308 H 25.2118 4.47744 1.09757 0
M  V30 309 H 28.7558 6.82764 -1.43106 0
M  V30 310 H 24.6528 6.44994 -0.255593 0
M  V30 311 H 25.4208 8.02571 -1.6069 0
M  V30 312 N 28.0839 -0.256276 1.55502 0
M  V30 313 C 29.3119 -1.00342 1.8094 0
M  V30 314 C 29.7269 -1.79307 0.59114 0
M  V30 315 O 29.0839 -1.77114 -0.440081 0
M  V30 316 C 29.1349 -1.94875 3.04476 0
M  V30 317 O 28.8559 -1.19107 4.21598 0
M  V30 318 C 30.3569 -2.81266 3.42644 0
M  V30 319 H 27.5769 -0.295685 0.602338 0
M  V30 320 H 30.1209 -0.281998 2.02546 0
M  V30 321 H 28.2759 -2.62457 2.84947 0
M  V30 322 H 28.6899 -1.82969 4.91551 0
M  V30 323 H 30.1639 -3.43362 4.32211 0
M  V30 324 H 30.6409 -3.51897 2.62802 0
M  V30 325 H 31.2469 -2.1915 3.64491 0
M  V30 326 N 29.562 -1.4872 -0.521534 0
M  V30 327 C 30.839 -1.4766 -1.2828 0
M  V30 328 C 31.219 -0.19292 -2.10217 0
M  V30 329 O 30.567 0.825193 -2.13079 0
M  V30 330 C 30.777 -2.74358 -2.15705 0
M  V30 331 C 32.125 -3.23028 -2.75569 0
M  V30 332 O 33.149 -2.75333 -2.25987 0
M  V30 333 O 32.008 -4.0604 -3.65778 0
M  V30 334 H 29.102 -0.590085 -0.579421 0
M  V30 335 H 31.648 -1.60963 -0.537492 0
M  V30 336 H 30.42 -3.59292 -1.54999 0
M  V30 337 H 30.043 -2.63816 -2.97467 0
M  V30 338 N 31.0401 0.771051 -1.3745 0
M  V30 339 C 31.9501 1.91538 -1.35464 0
M  V30 340 C 32.9661 1.72134 -0.254123 0
M  V30 341 O 34.1421 1.95358 -0.489626 0
M  V30 342 C 31.2071 3.26671 -1.16134 0
M  V30 343 C 30.2681 3.58723 -2.35831 0
M  V30 344 C 29.5011 4.87409 -2.17413 0
M  V30 345 O 29.7241 5.58506 -1.15876 0
M  V30 346 O 28.6581 5.18539 -3.05615 0
M  V30 347 H 32.4841 1.96165 -2.31847 0
M  V30 348 H 30.0691 0.9139 -1.18187 0
M  V30 349 H 31.9511 4.07499 -1.07345 0
M  V30 350 H 30.6261 3.22894 -0.228251 0
M  V30 351 H 29.5331 2.78127 -2.50192 0
M  V30 352 H 30.8661 3.67243 -3.27709 0
M  V30 353 N 32.5182 1.22032 0.997298 0
M  V30 354 C 33.7662 1.04016 1.73278 0
M  V30 355 C 34.0872 -0.426255 1.90284 0
M  V30 356 O 33.3572 -1.30694 1.45931 0
M  V30 357 H 31.9372 0.381897 0.642 0
M  V30 358 H 34.5992 1.5347 1.20137 0
M  V30 359 H 33.6952 1.51441 2.72896 0
M  V30 360 N 33.9963 -1.19345 1.0293 0
M  V30 361 C 35.2423 -1.89318 0.727083 0
M  V30 362 C 35.5753 -1.79446 -0.742483 0
M  V30 363 O 34.8503 -1.1871 -1.54072 0
M  V30 364 C 35.1333 -3.40238 1.17942 0
M  V30 365 C 34.9863 -3.58979 2.71024 0
M  V30 366 C 36.3053 -4.33479 0.760548 0
M  V30 367 H 33.4243 -0.687475 0.265606 0
M  V30 368 H 36.0663 -1.40477 1.2793 0
M  V30 369 H 34.2163 -3.81964 0.709608 0
M  V30 370 H 35.8883 -3.26421 3.25955 0
M  V30 371 H 34.1313 -3.02018 3.11396 0
M  V30 372 H 34.8023 -4.64823 2.9773 0
M  V30 373 H 37.2783 -3.99469 1.16464 0
M  V30 374 H 36.1543 -5.37664 1.10493 0
M  V30 375 H 36.4153 -4.40813 -0.337063 0
M  V30 376 N 35.4744 -0.807222 -1.35358 0
M  V30 377 C 36.4214 -0.216037 -2.29787 0
M  V30 378 C 37.3914 0.650278 -1.52842 0
M  V30 379 O 38.5764 0.595227 -1.81278 0
M  V30 380 C 35.7164 0.628893 -3.39321 0
M  V30 381 C 34.8294 -0.257927 -4.31229 0
M  V30 382 C 33.9644 0.595069 -5.27856 0
M  V30 383 C 33.0034 -0.292111 -6.11403 0
M  V30 384 N 32.1404 0.520895 -7.00165 0
M  V30 385 H 36.9804 -1.02671 -2.79755 0
M  V30 386 H 34.5174 -0.517839 -1.37684 0
M  V30 387 H 36.4754 1.13393 -4.01494 0
M  V30 388 H 35.1054 1.40482 -2.90628 0
M  V30 389 H 34.1574 -0.881076 -3.70056 0
M  V30 390 H 35.4694 -0.940759 -4.89848 0
M  V30 391 H 34.6234 1.16522 -5.95405 0
M  V30 392 H 33.3624 1.31146 -4.69736 0
M  V30 393 H 32.3674 -0.874525 -5.428 0
M  V30 394 H 33.5924 -1.00638 -6.71602 0
M  V30 395 H 31.5384 1.22125 -6.44532 0
M  V30 396 H 31.4554 -0.103877 -7.55929 0
M  V30 397 H 32.7234 1.0743 -7.72062 0
M  V30 398 N 36.9525 1.47285 -0.560781 0
M  V30 399 C 38.1985 2.02764 -0.0381184 0
M  V30 400 C 38.5315 1.43384 1.30976 0
M  V30 401 O 37.8065 0.590733 1.85312 0
M  V30 402 C 38.0895 3.60064 0.0511427 0
M  V30 403 C 37.9425 4.2987 -1.32408 0
M  V30 404 C 39.2615 4.33439 0.762795 0
M  V30 405 H 36.3805 0.736841 -0.0153264 0
M  V30 406 H 39.0225 1.75675 -0.723759 0
M  V30 407 H 37.1725 3.83274 0.635065 0
M  V30 408 H 38.8445 4.17989 -1.95148 0
M  V30 409 H 37.0875 3.90085 -1.8978 0
M  V30 410 H 37.7585 5.38478 -1.21431 0
M  V30 411 H 40.2345 4.15243 0.266965 0
M  V30 412 H 39.1105 5.43124 0.794221 0
M  V30 413 H 39.3715 4.02915 1.81966 0
M  V30 414 N 38.4306 0.297415 1.54768 0
M  V30 415 C 39.6606 -0.315165 2.04182 0
M  V30 416 C 40.0686 -1.4834 1.17439 0
M  V30 417 O 39.4116 -1.82695 0.191891 0
M  V30 418 C 39.4736 -0.837583 3.49607 0
M  V30 419 C 39.1376 0.204912 4.5654 0
M  V30 420 C 40.1346 1.03214 5.09552 0
M  V30 421 C 37.8196 0.345578 5.0111 0
M  V30 422 C 39.8136 1.986 6.05671 0
M  V30 423 C 37.5006 1.30289 5.97049 0
M  V30 424 C 38.4986 2.12159 6.49213 0
M  V30 425 O 38.1866 3.06268 7.43273 0
M  V30 426 H 37.9186 -0.0729646 0.672051 0
M  V30 427 H 40.4726 0.433907 2.00765 0
M  V30 428 H 38.7026 -1.63712 3.50336 0
M  V30 429 H 40.3916 -1.36566 3.82236 0
M  V30 430 H 41.1576 0.934312 4.75916 0
M  V30 431 H 37.0366 -0.28171 4.60138 0
M  V30 432 H 40.5806 2.62542 6.46311 0
M  V30 433 H 36.4776 1.40145 6.30103 0
M  V30 434 H 37.2456 3.01205 7.61064 0
M  V30 435 N 39.9087 -1.5758 0.0250728 0
M  V30 436 C 40.8187 -2.1343 -0.973905 0
M  V30 437 C 41.8347 -1.08556 -1.35984 0
M  V30 438 O 43.0107 -1.40592 -1.44207 0
M  V30 439 C 40.0757 -2.64703 -2.23904 0
M  V30 440 C 39.1367 -3.84276 -1.91391 0
M  V30 441 C 38.3697 -4.33095 -3.11873 0
M  V30 442 O 38.5927 -3.81107 -4.24398 0
M  V30 443 O 37.5267 -5.24984 -2.94406 0
M  V30 444 H 41.3527 -2.99057 -0.529036 0
M  V30 445 H 38.9377 -1.48118 -0.195288 0
M  V30 446 H 40.8197 -2.97769 -2.98181 0
M  V30 447 H 39.4947 -1.82161 -2.6758 0
M  V30 448 H 38.4017 -3.56143 -1.14511 0
M  V30 449 H 39.7347 -4.67968 -1.52534 0
M  V30 450 N 41.3868 0.248026 -1.55636 0
M  V30 451 C 42.6338 0.976224 -1.77415 0
M  V30 452 C 42.9618 1.85361 -0.589193 0
M  V30 453 O 42.2168 1.90973 0.427529 0
M  V30 454 C 42.5158 1.86819 -3.04686 0
M  V30 455 C 42.1818 1.14625 -4.36087 0
M  V30 456 C 40.8438 0.946723 -4.71795 0
M  V30 457 C 43.1958 0.634463 -5.17324 0
M  V30 458 C 40.5238 0.223091 -5.86276 0
M  V30 459 C 42.8758 -0.0756959 -6.32555 0
M  V30 460 C 41.5398 -0.286711 -6.66884 0
M  V30 461 H 40.8098 0.357226 -0.649208 0
M  V30 462 H 43.4568 0.246415 -1.89908 0
M  V30 463 H 41.7618 2.66502 -2.872 0
M  V30 464 H 43.4588 2.43329 -3.18735 0
M  V30 465 H 40.0488 1.3117 -4.08035 0
M  V30 466 H 44.2328 0.77616 -4.90193 0
M  V30 467 H 39.4888 0.0491185 -6.1138 0
M  V30 468 H 43.6628 -0.479899 -6.94745 0
M  V30 469 H 41.2898 -0.849389 -7.5544 0
M  V30 470 N 42.8649 1.48995 0.513639 0
M  V30 471 C 44.1139 1.57093 1.2651 0
M  V30 472 C 44.4269 0.257091 1.93903 0
M  V30 473 O 45.6329 0.216478 2.70636 0
M  V30 474 C 44.0889 2.77118 2.29638 0
M  V30 475 C 43.6969 4.15209 1.68241 0
M  V30 476 C 45.4409 2.94538 3.05692 0
M  V30 477 C 43.3479 5.26474 2.69406 0
M  V30 478 H 42.2779 0.584876 0.475854 0
M  V30 479 H 44.9289 1.7536 0.540487 0
M  V30 480 H 43.3109 2.52319 3.05207 0
M  V30 481 H 44.4849 4.50094 0.987505 0
M  V30 482 H 42.7999 4.03042 1.04623 0
M  V30 483 H 45.3969 3.74832 3.8132 0
M  V30 484 H 45.7399 2.04614 3.62545 0
M  V30 485 H 46.2729 3.19316 2.37238 0
M  V30 486 H 43.0119 6.18417 2.17351 0
M  V30 487 H 42.5319 4.96058 3.37175 0
M  V30 488 H 44.2109 5.55277 3.32078 0
M  V30 489 N 44.343 -0.763751 1.37857 0
M  V30 490 C 45.59 -1.52257 1.33506 0
M  V30 491 C 45.918 -1.94343 -0.078022 0
M  V30 492 O 45.173 -1.64958 -1.05297 0
M  V30 493 C 45.472 -2.79499 2.22745 0
M  V30 494 C 45.138 -2.56426 3.70886 0
M  V30 495 C 43.8 -2.49842 4.11257 0
M  V30 496 C 46.152 -2.36008 4.64704 0
M  V30 497 C 43.48 -2.20841 5.43549 0
M  V30 498 C 45.832 -2.0853 5.97242 0
M  V30 499 C 44.496 -2.00396 6.36709 0
M  V30 500 H 43.766 -0.557149 0.488534 0
M  V30 501 H 46.413 -0.879073 1.70131 0
M  V30 502 H 44.718 -3.48447 1.79142 0
M  V30 503 H 46.415 -3.37413 2.16688 0
M  V30 504 H 43.005 -2.62416 3.38874 0
M  V30 505 H 47.189 -2.40079 4.34368 0
M  V30 506 H 42.445 -2.13045 5.73081 0
M  V30 507 H 46.619 -1.91732 6.69486 0
M  V30 508 H 44.246 -1.77688 7.39142 0
M  V30 509 N 45.8211 -1.22559 -0.990812 0
M  V30 510 C 47.0691 -1.04933 -1.72724 0
M  V30 511 C 47.3901 0.416158 -1.90508 0
M  V30 512 O 46.6601 1.29918 -1.46622 0
M  V30 513 H 45.2401 -0.385296 -0.639965 0
M  V30 514 H 47.9021 -1.54105 -1.19322 0
M  V30 515 H 46.9981 -1.52886 -2.72089 0
M  V30 516 N 47.2992 1.18797 -1.03562 0
M  V30 517 C 48.2092 2.25913 -0.632505 0
M  V30 518 C 49.2252 1.70668 0.338882 0
M  V30 519 O 50.4012 2.00453 0.195076 0
M  V30 520 C 47.4662 3.467 0.00350942 0
M  V30 521 C 46.5272 4.17098 -1.01624 0
M  V30 522 C 45.7602 5.32119 -0.410478 0
M  V30 523 O 45.9832 5.64976 0.784725 0
M  V30 524 O 44.9172 5.9107 -1.13667 0
M  V30 525 H 48.7432 2.62648 -1.52478 0
M  V30 526 H 46.3282 1.25781 -0.806195 0
M  V30 527 H 48.2102 4.19878 0.35781 0
M  V30 528 H 46.8852 3.11798 0.869686 0
M  V30 529 H 45.7922 3.4601 -1.42224 0
M  V30 530 H 47.1252 4.55987 -1.85301 0
M  V30 531 N 48.7773 0.814389 1.34928 0
M  V30 532 C 49.7253 0.218424 2.31572 0
M  V30 533 C 50.7193 -0.636128 1.57002 0
M  V30 534 O 51.9253 -0.52842 1.72069 0
M  V30 535 H 48.3003 0.0518799 0.750208 0
M  V30 536 H 50.2713 1.04852 2.79372 0
M  V30 537 C 49.0203 -0.61207 3.4227 0
M  V30 538 H 48.3433 0.0361578 3.99784 0
M  V30 539 H 49.7833 -0.995317 4.12152 0
M  V30 540 C 48.2423 -1.78087 2.85984 0
M  V30 541 O 48.7723 -2.8787 2.80168 0
M  V30 542 N 46.9783 -1.59488 2.42924 0
M  V30 543 H 46.5253 -0.701874 2.47854 0
M  V30 544 H 46.4833 -2.37846 2.05613 0
M  V30 545 N 50.2554 -1.46986 0.568584 0
M  V30 546 C 51.4854 -2.0653 0.0539173 0
M  V30 547 C 51.8934 -1.42004 -1.25026 0
M  V30 548 O 51.2364 -0.514541 -1.76347 0
M  V30 549 C 51.2984 -3.58938 -0.200854 0
M  V30 550 C 50.9624 -4.45572 1.01559 0
M  V30 551 C 51.9594 -4.82986 1.92407 0
M  V30 552 C 49.6444 -4.8692 1.23346 0
M  V30 553 C 51.6384 -5.60559 3.03402 0
M  V30 554 C 49.3254 -5.64255 2.34649 0
M  V30 555 C 50.3234 -6.00986 3.24507 0
M  V30 556 O 50.0114 -6.76761 4.33878 0
M  V30 557 H 49.7434 -0.674292 0.0480234 0
M  V30 558 H 52.2974 -1.89812 0.784896 0
M  V30 559 H 50.5274 -3.73911 -0.986279 0
M  V30 560 H 52.2164 -4.0046 -0.662294 0
M  V30 561 H 52.9824 -4.51633 1.76785 0
M  V30 562 H 48.8614 -4.57789 0.543178 0
M  V30 563 H 52.4054 -5.89147 3.73565 0
M  V30 564 H 48.3024 -5.95021 2.5024 0
M  V30 565 H 49.0704 -6.95168 4.32068 0
M  V30 566 N 51.7335 -0.305618 -1.54608 0
M  V30 567 C 52.9825 0.303098 -1.9941 0
M  V30 568 C 53.2955 1.54648 -1.19764 0
M  V30 569 O 54.5015 2.23007 -1.54855 0
M  V30 570 C 52.9575 0.590588 -3.55021 0
M  V30 571 C 52.5655 -0.634719 -4.43481 0
M  V30 572 C 54.3095 1.16025 -4.08336 0
M  V30 573 C 52.2165 -0.320126 -5.90533 0
M  V30 574 H 51.1465 0.117031 -0.744862 0
M  V30 575 H 53.7975 -0.415045 -1.78745 0
M  V30 576 H 52.1795 1.36845 -3.71604 0
M  V30 577 H 53.3535 -1.41079 -4.38672 0
M  V30 578 H 51.6685 -1.12333 -4.00962 0
M  V30 579 H 54.2655 1.40994 -5.15776 0
M  V30 580 H 54.6085 2.10397 -3.5922 0
M  V30 581 H 55.1415 0.443985 -3.95315 0
M  V30 582 H 51.8805 -1.23254 -6.43808 0
M  V30 583 H 51.4005 0.418579 -5.98338 0
M  V30 584 H 53.0795 0.0766241 -6.46955 0
M  V30 585 N 53.2116 1.57565 -0.0334293 0
M  V30 586 C 54.4366 1.96689 0.657895 0
M  V30 587 C 54.8616 0.910057 1.64619 0
M  V30 588 O 54.2196 -0.128598 1.80843 0
M  V30 589 C 54.2676 3.34905 1.33683 0
M  V30 590 O 53.3716 3.31574 2.45219 0
M  V30 591 H 52.7126 0.641205 0.172489 0
M  V30 592 H 55.2426 2.04372 -0.0965621 0
M  V30 593 H 55.2526 3.71234 1.69262 0
M  V30 594 H 53.9276 4.11366 0.612411 0
M  V30 595 H 52.5046 3.06968 2.11719 0
M  V30 596 N 54.6897 -0.239769 1.55765 0
M  V30 597 C 55.9147 -0.988373 1.82335 0
M  V30 598 C 56.3397 -1.77886 0.611421 0
M  V30 599 O 55.6977 -1.75889 -0.439639 0
M  V30 600 C 55.7457 -1.89627 3.06715 0
M  V30 601 O 54.8497 -2.98904 2.84131 0
M  V30 602 H 54.1907 -0.280858 0.601677 0
M  V30 603 H 56.7207 -0.258597 2.02959 0
M  V30 604 H 56.7307 -2.30957 3.36338 0
M  V30 605 H 55.4057 -1.31511 3.9456 0
M  V30 606 H 53.9827 -2.61651 2.65694 0
M  V30 607 N 56.1678 -1.49265 -0.50573 0
M  V30 608 C 57.4158 -1.582 -1.25766 0
M  V30 609 C 57.7368 -0.268482 -1.93143 0
M  V30 610 O 57.0068 0.711833 -1.8251 0
M  V30 611 H 55.5868 -0.582873 -0.467191 0
M  V30 612 H 58.2488 -1.85865 -0.586525 0
M  V30 613 H 57.3448 -2.37563 -2.02412 0
M  V30 614 N 57.6459 0.756429 -1.3826 0
M  V30 615 C 58.8939 1.51248 -1.34047 0
M  V30 616 C 59.2149 1.94875 0.0698372 0
M  V30 617 O 58.4849 1.67436 1.01696 0
M  V30 618 H 57.0649 0.561018 -0.493222 0
M  V30 619 H 59.7269 0.899347 -1.7291 0
M  V30 620 H 58.8229 2.40472 -1.98947 0
M  V30 621 N 59.124 1.23083 0.984299 0
M  V30 622 C 60.054 1.03292 2.09411 0
M  V30 623 C 61.035 -0.048923 1.7003 0
M  V30 624 O 62.22 0.114967 1.93859 0
M  V30 625 C 59.35 0.619155 3.41736 0
M  V30 626 C 58.304 1.64791 3.95004 0
M  V30 627 C 57.63 1.0897 5.23478 0
M  V30 628 C 58.93 3.03999 4.24714 0
M  V30 629 H 60.624 1.96119 2.26225 0
M  V30 630 H 58.17 0.944344 1.08711 0
M  V30 631 H 60.123 0.467777 4.18796 0
M  V30 632 H 58.847 -0.344786 3.24775 0
M  V30 633 H 57.506 1.78721 3.20085 0
M  V30 634 H 57.154 0.11686 5.02864 0
M  V30 635 H 56.854 1.77704 5.60085 0
M  V30 636 H 58.378 0.950093 6.03163 0
M  V30 637 H 59.792 2.93393 4.92538 0
M  V30 638 H 58.189 3.69936 4.72512 0
M  V30 639 H 59.259 3.53285 3.32142 0
M  V30 640 N 60.6021 -1.18246 1.0419 0
M  V30 641 C 61.5121 -2.25574 0.644476 0
M  V30 642 C 62.5281 -1.70845 -0.329826 0
M  V30 643 O 63.7041 -2.00554 -0.184443 0
M  V30 644 C 60.7691 -3.46697 0.014877 0
M  V30 645 C 59.8301 -4.16554 1.03834 0
M  V30 646 C 59.0631 -5.31894 0.438692 0
M  V30 647 O 59.2861 -5.65385 -0.754752 0
M  V30 648 O 58.2201 -5.90459 1.168 0
M  V30 649 H 62.0461 -2.61836 1.53869 0
M  V30 650 H 59.6311 -1.25352 0.812854 0
M  V30 651 H 61.5131 -4.20062 -0.335538 0
M  V30 652 H 60.1881 -3.12255 -0.853138 0
M  V30 653 H 59.0951 -3.45251 1.44057 0
M  V30 654 H 60.4281 -4.54998 1.87716 0
M  V30 655 N 62.0802 -0.821533 -1.34494 0
M  V30 656 C 63.0432 -0.247847 -2.27856 0
M  V30 657 C 64.0432 0.573453 -1.50227 0
M  V30 658 O 65.2332 0.389759 -1.69784 0
M  V30 659 C 62.3652 0.652698 -3.34593 0
M  V30 660 H 63.5582 -1.07146 -2.80107 0
M  V30 661 H 61.1112 -0.593291 -1.44602 0
M  V30 662 H 61.8462 1.49943 -2.87555 0
M  V30 663 H 61.6312 0.065292 -3.92046 0
M  V30 664 H 63.1212 1.04793 -4.04238 0
M  V30 665 N 63.5583 1.46682 -0.576371 0
M  V30 666 C 64.7863 2.06798 -0.0649635 0
M  V30 667 C 65.2013 1.42612 1.23723 0
M  V30 668 O 64.5583 0.529203 1.74659 0
M  V30 669 C 64.6093 3.6132 0.114202 0
M  V30 670 O 64.3303 4.23104 -1.13644 0
M  V30 671 C 65.8313 4.38349 0.66069 0
M  V30 672 H 63.0513 0.668778 -0.0545616 0
M  V30 673 H 65.5953 1.88404 -0.795237 0
M  V30 674 H 63.7503 3.79162 0.794673 0
M  V30 675 H 64.1643 5.15894 -0.946253 0
M  V30 676 H 65.6383 5.47081 0.73526 0
M  V30 677 H 66.1153 4.05953 1.67627 0
M  V30 678 H 66.7213 4.25297 0.0152951 0
M  V30 679 N 65.0364 0.313813 1.54444 0
M  V30 680 C 65.9834 -0.55655 2.23989 0
M  V30 681 C 66.9534 -1.11943 1.22711 0
M  V30 682 O 68.1384 -1.16158 1.51367 0
M  V30 683 C 65.2784 -1.71635 2.99392 0
M  V30 684 C 64.3914 -1.18364 4.15468 0
M  V30 685 C 63.5264 -2.30834 4.78424 0
M  V30 686 C 62.5654 -1.74762 5.86622 0
M  V30 687 N 61.7024 -2.80855 6.43479 0
M  V30 688 H 66.5424 0.0430893 2.97969 0
M  V30 689 H 64.0794 0.0330359 1.47063 0
M  V30 690 H 66.0374 -2.39868 3.41349 0
M  V30 691 H 64.6674 -2.28742 2.27765 0
M  V30 692 H 63.7194 -0.393163 3.78363 0
M  V30 693 H 65.0314 -0.733262 4.93381 0
M  V30 694 H 64.1854 -3.0699 5.23299 0
M  V30 695 H 62.9244 -2.79204 3.99871 0
M  V30 696 H 61.9294 -0.970995 5.41158 0
M  V30 697 H 63.1544 -1.2728 6.67066 0
M  V30 698 H 61.1004 -3.28535 5.67804 0
M  V30 699 H 61.0174 -2.40351 7.16776 0
M  V30 700 H 62.2854 -3.5687 6.93011 0
M  V30 701 N 66.5145 -1.57545 0.0417849 0
M  V30 702 C 67.4615 -2.10977 -0.935805 0
M  V30 703 C 68.4315 -1.01486 -1.31491 0
M  V30 704 O 69.6165 -1.2898 -1.40602 0
M  V30 705 C 66.7565 -2.65169 -2.2086 0
M  V30 706 C 65.8695 -3.88714 -1.88482 0
M  V30 707 C 65.0045 -4.31254 -3.1015 0
M  V30 708 C 64.0435 -5.47524 -2.7365 0
M  V30 709 N 63.1805 -5.85162 -3.87982 0
M  V30 710 H 68.0205 -2.94218 -0.473249 0
M  V30 711 H 65.5575 -1.45415 -0.221981 0
M  V30 712 H 67.5155 -2.94685 -2.95325 0
M  V30 713 H 66.1455 -1.8474 -2.64709 0
M  V30 714 H 65.1975 -3.65849 -1.04205 0
M  V30 715 H 66.5095 -4.73245 -1.57608 0
M  V30 716 H 65.6635 -4.62273 -3.92923 0
M  V30 717 H 64.4025 -3.45516 -3.44195 0
M  V30 718 H 63.4075 -5.16187 -1.89291 0
M  V30 719 H 64.6325 -6.34971 -2.40807 0
M  V30 720 H 62.5785 -5.02377 -4.21846 0
M  V30 721 H 62.4955 -6.64362 -3.60775 0
M  V30 722 H 63.7635 -6.20791 -4.71422 0
M  V30 723 N 67.9926 0.231505 -1.5589 0
M  V30 724 C 69.2416 0.955346 -1.7764 0
M  V30 725 C 69.5546 1.85893 -0.608546 0
M  V30 726 O 70.7606 2.62067 -0.70943 0
M  V30 727 C 69.2166 1.74886 -3.14552 0
M  V30 728 C 68.8246 0.891915 -4.39032 0
M  V30 729 C 70.5686 2.46452 -3.45633 0
M  V30 730 C 68.4756 1.68221 -5.66971 0
M  V30 731 H 67.4056 0.360446 -0.662265 0
M  V30 732 H 70.0566 0.209516 -1.823 0
M  V30 733 H 68.4386 2.53723 -3.04041 0
M  V30 734 H 69.6126 0.144793 -4.60572 0
M  V30 735 H 67.9276 0.288863 -4.15397 0
M  V30 736 H 70.5246 3.06061 -4.38441 0
M  V30 737 H 70.8676 3.18841 -2.67668 0
M  V30 738 H 71.4006 1.74613 -3.57428 0
M  V30 739 H 68.1396 1.00178 -6.478 0
M  V30 740 H 67.6596 2.4042 -5.49507 0
M  V30 741 H 69.3386 2.24544 -6.06786 0
M  V30 742 N 69.4707 1.49531 0.497807 0
M  V30 743 C 70.4007 1.6935 1.60757 0
M  V30 744 C 71.3817 0.542218 1.61227 0
M  V30 745 O 72.5667 0.778417 1.77917 0
M  V30 746 C 69.6967 1.76298 2.99226 0
M  V30 747 C 68.6507 2.91248 3.13622 0
M  V30 748 C 67.9767 2.83312 4.53474 0
M  V30 749 C 69.2767 4.3214 2.93346 0
M  V30 750 H 70.9707 2.62263 1.44425 0
M  V30 751 H 68.5167 1.26208 0.693367 0
M  V30 752 H 70.4697 1.88749 3.76765 0
M  V30 753 H 69.1937 0.799871 3.16654 0
M  V30 754 H 67.8527 2.78404 2.38509 0
M  V30 755 H 67.5007 1.84902 4.67782 0
M  V30 756 H 67.2007 3.60465 4.64046 0
M  V30 757 H 68.7247 2.97775 5.33069 0
M  V30 758 H 70.1387 4.45649 3.60652 0
M  V30 759 H 68.5357 5.1054 3.15387 0
M  V30 760 H 69.6057 4.46363 1.89441 0
M  V30 761 N 70.9488 -0.749086 1.3866 0
M  V30 762 C 72.1738 -1.54344 1.38538 0
M  V30 763 C 72.5988 -1.88088 -0.0216655 0
M  V30 764 O 71.9568 -1.50899 -1.00494 0
M  V30 765 C 72.0048 -2.8164 2.25192 0
M  V30 766 O 71.1088 -3.7698 1.67212 0
M  V30 767 H 70.4498 -0.466654 0.472367 0
M  V30 768 H 72.9798 -0.925355 1.82478 0
M  V30 769 H 72.9898 -3.30519 2.3921 0
M  V30 770 H 71.6648 -2.56411 3.27454 0
M  V30 771 H 70.2418 -3.35699 1.6236 0
M  V30 772 N 72.4269 -1.23603 -0.977757 0
M  V30 773 C 73.7039 -0.977897 -1.69401 0
M  V30 774 C 74.0839 0.502738 -2.05026 0
M  V30 775 O 73.4319 1.47459 -1.74551 0
M  V30 776 C 73.6419 -1.89077 -2.93345 0
M  V30 777 C 74.9899 -2.15579 -3.65802 0
M  V30 778 O 76.0139 -1.86648 -3.03383 0
M  V30 779 O 74.8729 -2.64658 -4.78141 0
M  V30 780 H 71.9669 -0.369025 -0.740101 0
M  V30 781 H 74.5129 -1.34657 -1.03274 0
M  V30 782 H 73.2849 -2.89158 -2.63634 0
M  V30 783 H 72.9079 -1.52463 -3.67207 0
M  V30 784 N 73.905 1.17692 -1.04816 0
M  V30 785 C 75.154 1.87192 -0.751132 0
M  V30 786 C 75.467 1.8169 0.724441 0
M  V30 787 O 76.673 2.46625 1.13527 0
M  V30 788 C 75.129 3.35857 -1.29338 0
M  V30 789 C 74.737 3.4987 -2.79812 0
M  V30 790 C 76.481 4.10709 -1.07322 0
M  V30 791 C 74.388 4.92536 -3.27356 0
M  V30 792 H 73.318 0.701162 -0.277288 0
M  V30 793 H 75.969 1.32932 -1.26496 0
M  V30 794 H 74.351 3.89631 -0.707376 0
M  V30 795 H 75.525 3.06332 -3.44235 0
M  V30 796 H 73.84 2.88433 -3.00325 0
M  V30 797 H 76.437 5.15952 -1.4035 0
M  V30 798 H 76.78 4.16299 -0.0108001 0
M  V30 799 H 77.313 3.6313 -1.62423 0
M  V30 800 H 74.052 4.92119 -4.33012 0
M  V30 801 H 73.572 5.3676 -2.67673 0
M  V30 802 H 75.251 5.61288 -3.21815 0
M  V30 803 N 75.3831 0.828654 1.34056 0
M  V30 804 C 76.2931 0.256725 2.33191 0
M  V30 805 C 77.3091 -0.611898 1.62886 0
M  V30 806 O 78.4851 -0.51844 1.94613 0
M  V30 807 C 75.5501 -0.567238 3.42028 0
M  V30 808 C 74.6111 0.324458 4.28072 0
M  V30 809 C 73.8441 -0.460274 5.31712 0
M  V30 810 O 74.0671 -1.693 5.44696 0
M  V30 811 O 73.0011 0.160391 6.01686 0
M  V30 812 H 76.8271 1.07739 2.83947 0
M  V30 813 H 74.4121 0.59093 1.37217 0
M  V30 814 H 76.2941 -1.03582 4.08471 0
M  V30 815 H 74.9691 -1.36513 2.93506 0
M  V30 816 H 73.8761 0.840659 3.64532 0
M  V30 817 H 75.2091 1.08685 4.8005 0
M  V30 818 N 76.8612 -1.46375 0.584142 0
M  V30 819 C 77.7912 -2.33103 -0.136037 0
M  V30 820 C 78.7722 -1.45431 -0.882255 0
M  V30 821 O 79.9572 -1.74246 -0.857434 0
M  V30 822 C 77.0872 -3.27731 -1.14933 0
M  V30 823 C 76.0412 -4.24855 -0.517862 0
M  V30 824 C 75.3672 -5.09001 -1.63773 0
M  V30 825 C 76.6672 -5.19439 0.545886 0
M  V30 826 H 78.3612 -2.93568 0.588086 0
M  V30 827 H 75.9072 -1.41166 0.284259 0
M  V30 828 H 77.8602 -3.87261 -1.66153 0
M  V30 829 H 76.5842 -2.65377 -1.90375 0
M  V30 830 H 75.2432 -3.6659 -0.0267361 0
M  V30 831 H 74.8912 -4.43031 -2.38185 0
M  V30 832 H 74.5912 -5.74777 -1.22085 0
M  V30 833 H 76.1152 -5.71396 -2.15266 0
M  V30 834 H 77.5292 -5.73177 0.118704 0
M  V30 835 H 75.9262 -5.93566 0.88317 0
M  V30 836 H 76.9962 -4.63285 1.43162 0
M  V30 837 N 78.3393 -0.321999 -1.54275 0
M  V30 838 C 79.2873 0.560206 -2.25753 0
M  V30 839 C 80.2813 1.11984 -1.27106 0
M  V30 840 O 81.4873 1.06806 -1.44888 0
M  V30 841 H 77.8623 0.199304 -0.725108 0
M  V30 842 H 79.8333 -0.0649365 -2.98329 0
M  V30 843 C 78.5823 1.71023 -3.02731 0
M  V30 844 H 77.9053 1.28885 -3.78456 0
M  V30 845 H 79.3453 2.30314 -3.55993 0
M  V30 846 C 77.8043 2.62692 -2.10938 0
M  V30 847 O 78.3343 3.64364 -1.6912 0
M  V30 848 N 76.5403 2.30891 -1.76459 0
M  V30 849 H 76.0873 1.48253 -2.10663 0
M  V30 850 H 76.0453 2.92487 -1.1532 0
M  V30 851 N 79.8174 1.5752 -0.0501392 0
M  V30 852 C 80.7274 2.14952 0.939827 0
M  V30 853 C 81.7434 1.10706 1.34239 0
M  V30 854 O 82.9194 1.42869 1.41952 0
M  V30 855 C 79.9844 2.68232 2.19665 0
M  V30 856 C 79.0454 3.87272 1.85253 0
M  V30 857 C 78.2784 4.38002 3.04943 0
M  V30 858 O 78.5014 3.87811 4.18281 0
M  V30 859 O 77.4354 5.29602 2.86017 0
M  V30 860 H 81.2614 2.9986 0.481392 0
M  V30 861 H 78.8464 1.4841 0.171699 0
M  V30 862 H 80.7284 3.02475 2.93406 0
M  V30 863 H 79.4034 1.86395 2.64648 0
M  V30 864 H 78.3104 3.5792 1.0883 0
M  V30 865 H 79.6434 4.70336 1.4507 0
M  V30 866 N 81.2955 -0.223234 1.56011 0
M  V30 867 C 82.2435 -1.29627 1.93131 0
M  V30 868 C 83.2375 -1.48608 0.813146 0
M  V30 869 O 84.4435 -1.49802 0.997966 0
M  V30 870 H 80.8185 -0.434563 0.613726 0
M  V30 871 H 82.7895 -0.955995 2.82672 0
M  V30 872 C 81.5385 -2.63983 2.26292 0
M  V30 873 H 80.8615 -2.50185 3.11846 0
M  V30 874 H 82.3015 -3.3788 2.56151 0
M  V30 875 C 80.7605 -3.18866 1.08747 0
M  V30 876 O 81.2905 -4.00192 0.347727 0
M  V30 877 N 79.4965 -2.77217 0.871743 0
M  V30 878 H 79.0435 -2.1119 1.47501 0
M  V30 879 H 79.0015 -3.1428 0.0869905 0
M  V30 880 N 82.7736 -1.49793 -0.48987 0
M  V30 881 C 83.9986 -1.63836 -1.27172 0
M  V30 882 C 84.4236 -0.31402 -1.8546 0
M  V30 883 O 83.7816 0.719803 -1.66399 0
M  V30 884 C 83.8296 -2.71797 -2.36978 0
M  V30 885 O 82.9336 -2.31744 -3.41128 0
M  V30 886 H 82.2746 -0.547997 -0.37496 0
M  V30 887 H 84.8046 -1.96053 -0.585191 0
M  V30 888 H 84.8146 -2.94305 -2.82575 0
M  V30 889 H 83.4896 -3.67923 -1.93921 0
M  V30 890 H 82.0666 -2.1961 -3.01373 0
M  V30 891 N 84.2517 0.741722 -1.39055 0
M  V30 892 C 85.1987 1.85566 -1.37237 0
M  V30 893 C 86.1687 1.64457 -0.233072 0
M  V30 894 O 87.3537 1.85957 -0.427147 0
M  V30 895 C 84.4937 3.23004 -1.215 0
M  V30 896 C 83.6067 3.55864 -2.44918 0
M  V30 897 C 82.7417 4.82669 -2.21821 0
M  V30 898 C 81.7807 5.08351 -3.40948 0
M  V30 899 N 80.9177 6.26356 -3.17211 0
M  V30 900 H 85.7577 1.86455 -2.32462 0
M  V30 901 H 83.2947 0.911176 -1.15482 0
M  V30 902 H 85.2527 4.02331 -1.10389 0
M  V30 903 H 83.8827 3.21411 -0.29908 0
M  V30 904 H 82.9347 2.7129 -2.66657 0
M  V30 905 H 84.2467 3.70765 -3.33668 0
M  V30 906 H 83.4007 5.69962 -2.07914 0
M  V30 907 H 82.1397 4.69929 -1.30454 0
M  V30 908 H 81.1447 4.19522 -3.55361 0
M  V30 909 H 82.3697 5.22981 -4.33207 0
M  V30 910 H 80.3157 6.14917 -2.28502 0
M  V30 911 H 80.2327 6.41813 -3.99515 0
M  V30 912 H 81.5007 7.16506 -3.06984 0
M  V30 913 N 85.7298 1.2412 0.971189 0
M  V30 914 C 86.9758 1.08041 1.71625 0
M  V30 915 C 87.3088 -0.380407 1.90438 0
M  V30 916 O 86.5838 -1.28127 1.46334 0
M  V30 917 C 86.8668 1.81682 3.10908 0
M  V30 918 C 86.7198 3.35493 2.99608 0
M  V30 919 C 88.0388 1.58671 4.10501 0
M  V30 920 H 85.1578 0.39388 0.622919 0
M  V30 921 H 87.7998 1.52743 1.13003 0
M  V30 922 H 85.9498 1.43684 3.60953 0
M  V30 923 H 87.6218 3.83068 2.57015 0
M  V30 924 H 85.8648 3.64052 2.35899 0
M  V30 925 H 86.5358 3.82217 3.98264 0
M  V30 926 H 89.0118 1.91719 3.69301 0
M  V30 927 H 87.8878 2.1266 5.06031 0
M  V30 928 H 88.1488 0.524161 4.38982 0
M  V30 929 N 87.2079 -1.17134 1.05439 0
M  V30 930 C 88.1379 -2.2342 0.678649 0
M  V30 931 C 89.1189 -1.66971 -0.32476 0
M  V30 932 O 90.3039 -1.93149 -0.201802 0
M  V30 933 C 87.4339 -3.47256 0.0552099 0
M  V30 934 C 86.3879 -4.16543 0.98365 0
M  V30 935 C 85.7139 -5.34231 0.223961 0
M  V30 936 C 87.0139 -4.68495 2.3089 0
M  V30 937 H 88.7079 -2.55105 1.56722 0
M  V30 938 H 86.2539 -1.2262 0.754998 0
M  V30 939 H 88.2069 -4.20828 -0.21946 0
M  V30 940 H 86.9309 -3.14846 -0.868319 0
M  V30 941 H 85.5899 -3.44887 1.24293 0
M  V30 942 H 85.2379 -4.98071 -0.702412 0
M  V30 943 H 84.9379 -5.81527 0.842627 0
M  V30 944 H 86.4619 -6.10585 -0.0433671 0
M  V30 945 H 87.8759 -5.33691 2.09396 0
M  V30 946 H 86.2729 -5.26379 2.88176 0
M  V30 947 H 87.3429 -3.85169 2.94572 0
M  V30 948 N 88.686 -0.835752 -1.33615 0
M  V30 949 C 89.963 -0.352017 -1.92406 0
M  V30 950 C 90.343 1.16225 -1.76224 0
M  V30 951 O 89.691 1.97526 -1.14873 0
M  V30 952 C 89.901 -0.795485 -3.39813 0
M  V30 953 C 91.249 -0.801703 -4.16963 0
M  V30 954 O 92.273 -0.738889 -3.48452 0
M  V30 955 O 91.132 -0.886607 -5.3926 0
M  V30 956 H 88.226 -0.0989641 -0.821057 0
M  V30 957 H 90.772 -0.921397 -1.42507 0
M  V30 958 H 89.544 -1.83795 -3.45449 0
M  V30 959 H 89.167 -0.202505 -3.97084 0
M  V30 960 N 90.1641 1.46063 -0.591896 0
M  V30 961 C 91.4131 2.01547 -0.0786637 0
M  V30 962 C 91.7261 1.46796 1.29268 0
M  V30 963 O 92.9321 1.94157 1.89777 0
M  V30 964 C 91.3881 3.59787 -0.0900024 0
M  V30 965 C 90.9961 4.23534 -1.46023 0
M  V30 966 C 92.7401 4.22895 0.368806 0
M  V30 967 C 90.6471 5.73881 -1.4288 0
M  V30 968 H 89.5771 0.753564 -0.0256388 0
M  V30 969 H 92.2281 1.677 -0.744905 0
M  V30 970 H 90.6101 3.90752 0.642586 0
M  V30 971 H 91.7841 4.04167 -2.21328 0
M  V30 972 H 90.0991 3.72558 -1.85982 0
M  V30 973 H 92.6961 5.33116 0.411258 0
M  V30 974 H 93.0391 3.9247 1.38827 0
M  V30 975 H 93.5721 3.9659 -0.31001 0
M  V30 976 H 90.3111 6.0898 -2.42536 0
M  V30 977 H 89.8311 5.95486 -0.718095 0
M  V30 978 H 91.5101 6.36776 -1.14565 0
M  V30 979 N 91.6422 0.330177 1.54103 0
M  V30 980 C 92.8902 -0.269871 2.0029 0
M  V30 981 C 93.2112 -1.52133 1.21986 0
M  V30 982 O 92.4812 -1.93212 0.323438 0
M  V30 983 H 91.0612 -0.10271 0.739905 0
M  V30 984 H 93.7232 0.448249 1.89675 0
M  V30 985 H 92.8192 -0.52166 3.07709 0
M  V30 986 N 93.1203 -1.57491 0.0584922 0
M  V30 987 C 94.3453 -1.97711 -0.62652 0
M  V30 988 C 94.7703 -0.936132 -1.63151 0
M  V30 989 O 94.1283 0.099811 -1.81025 0
M  V30 990 C 94.1763 -3.36989 -1.28338 0
M  V30 991 O 93.2803 -3.35433 -2.39913 0
M  V30 992 H 92.6213 -0.643868 -0.162266 0
M  V30 993 H 95.1513 -2.04193 0.129064 0
M  V30 994 H 95.1613 -3.73879 -1.63335 0
M  V30 995 H 93.8363 -4.12289 -0.546889 0
M  V30 996 H 92.4133 -3.10298 -2.06809 0
M  V30 997 N 94.5984 0.214957 -1.56127 0
M  V30 998 C 95.8464 0.936518 -1.79091 0
M  V30 999 C 96.1674 1.84606 -0.628148 0
M  V30 1000 O 95.4374 1.92664 0.35462 0
M  V30 1001 H 94.0174 0.3488 -0.660566 0
M  V30 1002 H 96.6794 0.22523 -1.93594 0
M  V30 1003 H 95.7754 1.53943 -2.71492 0
M  V30 1004 N 96.0765 1.50051 0.48192 0
M  V30 1005 C 97.0065 1.71046 1.58951 0
M  V30 1006 C 97.9875 0.559288 1.60642 0
M  V30 1007 O 99.1725 0.797243 1.77081 0
M  V30 1008 C 96.3025 1.79462 2.97339 0
M  V30 1009 C 95.2565 2.94558 3.10515 0
M  V30 1010 C 94.5825 2.88105 4.50444 0
M  V30 1011 C 95.8825 4.35227 2.88747 0
M  V30 1012 H 97.5765 2.6378 1.41635 0
M  V30 1013 H 95.1225 1.26936 0.679942 0
M  V30 1014 H 97.0755 1.92734 3.74742 0
M  V30 1015 H 95.7995 0.833412 3.15788 0
M  V30 1016 H 94.4585 2.80918 2.35543 0
M  V30 1017 H 94.1065 1.89853 4.65795 0
M  V30 1018 H 93.8065 3.65366 4.60197 0
M  V30 1019 H 95.3305 3.03412 5.29881 0
M  V30 1020 H 96.7445 4.49449 3.55905 0
M  V30 1021 H 95.1415 5.13856 3.09955 0
M  V30 1022 H 96.2115 4.48347 1.84696 0
M  V30 1023 N 97.5546 -0.734337 1.39446 0
M  V30 1024 C 98.8026 -1.49096 1.36436 0
M  V30 1025 C 99.1236 -1.94961 -0.0388255 0
M  V30 1026 O 98.3936 -1.69033 -0.990191 0
M  V30 1027 H 96.9736 -0.5531 0.502085 0
M  V30 1028 H 99.6356 -0.871725 1.74319 0
M  V30 1029 H 98.7316 -2.37276 2.02747 0
M  V30 1030 N 99.0327 -1.24633 -0.964593 0
M  V30 1031 C 100.281 -1.08573 -1.70459 0
M  V30 1032 C 100.602 0.375655 -1.91347 0
M  V30 1033 O 99.8717 1.26779 -1.49345 0
M  V30 1034 H 98.4517 -0.398784 -0.631649 0
M  V30 1035 H 101.114 -1.56601 -1.16026 0
M  V30 1036 H 100.21 -1.58623 -2.68785 0
M  V30 1037 N 100.511 1.16574 -1.06058 0
M  V30 1038 C 101.759 1.86677 -0.77434 0
M  V30 1039 C 102.08 1.81959 0.701147 0
M  V30 1040 O 101.35 1.2515 1.50713 0
M  V30 1041 H 99.9298 0.691134 -0.283449 0
M  V30 1042 H 102.592 1.41378 -1.34158 0
M  V30 1043 H 101.688 2.92181 -1.09711 0
M  V30 1044 N 101.989 0.842826 1.3317 0
M  V30 1045 C 103.229 0.446574 1.99462 0
M  V30 1046 C 103.593 -0.976818 1.65295 0
M  V30 1047 O 104.794 -1.477 2.24584 0
M  V30 1048 C 103.065 0.665353 3.51152 0
M  V30 1049 S 104.624 0.364911 4.3728 0
M  V30 1050 H 101.442 0.167803 0.690915 0
M  V30 1051 H 104.044 1.09297 1.62094 0
M  V30 1052 H 102.748 1.7006 3.73507 0
M  V30 1053 H 102.279 0.00494568 3.934 0
M  V30 1054 H 104.294 -0.813761 4.89482 0
M  V30 1055 N 103.467 -1.45747 0.599634 0
M  V30 1056 C 104.4 -2.27547 -0.172552 0
M  V30 1057 C 105.378 -1.36657 -0.881116 0
M  V30 1058 O 106.562 -1.66081 -0.891595 0
M  V30 1059 C 103.689 -3.14829 -1.24903 0
M  V30 1060 C 102.735 -4.21603 -0.644465 0
M  V30 1061 S 103.568 -5.32754 0.541606 0
M  V30 1062 C 104.724 -6.23604 -0.535656 0
M  V30 1063 H 104.957 -2.92691 0.521468 0
M  V30 1064 H 102.49 -1.49473 0.386947 0
M  V30 1065 H 104.448 -3.65675 -1.86527 0
M  V30 1066 H 103.109 -2.48965 -1.91508 0
M  V30 1067 H 102.302 -4.82566 -1.45417 0
M  V30 1068 H 101.904 -3.73857 -0.103534 0
M  V30 1069 H 104.196 -6.62519 -1.41686 0
M  V30 1070 H 105.139 -7.0809 0.0376246 0
M  V30 1071 H 105.547 -5.58103 -0.84741 0
M  V30 1072 N 104.945 -0.338344 -1.53925 0
M  V30 1073 C 106.175 0.260919 -2.04946 0
M  V30 1074 C 106.583 1.45174 -1.2133 0
M  V30 1075 O 105.926 1.82122 -0.240262 0
M  V30 1076 C 105.988 0.744596 -3.51704 0
M  V30 1077 C 105.652 -0.325883 -4.55837 0
M  V30 1078 C 106.649 -1.16687 -5.06636 0
M  V30 1079 C 104.334 -0.478317 -5.00017 0
M  V30 1080 C 106.328 -2.14588 -6.00192 0
M  V30 1081 C 104.015 -1.46073 -5.93385 0
M  V30 1082 C 105.013 -2.29297 -6.4336 0
M  V30 1083 O 104.701 -3.25867 -7.34892 0
M  V30 1084 H 104.433 0.0551207 -0.673749 0
M  V30 1085 H 106.987 -0.486984 -1.99544 0
M  V30 1086 H 105.217 1.54366 -3.54553 0
M  V30 1087 H 106.906 1.26383 -3.85723 0
M  V30 1088 H 107.672 -1.06016 -4.73271 0
M  V30 1089 H 103.551 0.159613 -4.60724 0
M  V30 1090 H 107.095 -2.79585 -6.39123 0
M  V30 1091 H 102.992 -1.56802 -6.26166 0
M  V30 1092 H 103.76 -3.21278 -7.5281 0
M  V30 1093 N 106.423 1.57458 -0.0668435 0
M  V30 1094 C 107.672 1.92477 0.602947 0
M  V30 1095 C 107.985 0.948419 1.71068 0
M  V30 1096 O 109.191 1.19124 2.43971 0
M  V30 1097 C 107.647 3.41903 1.12383 0
M  V30 1098 C 107.255 4.47975 0.04737 0
M  V30 1099 C 108.999 3.85931 1.76797 0
M  V30 1100 C 106.906 5.88529 0.582022 0
M  V30 1101 H 105.836 0.718387 0.22899 0
M  V30 1102 H 108.487 1.82978 -0.138276 0
M  V30 1103 H 106.869 3.46459 1.91787 0
M  V30 1104 H 108.043 4.55029 -0.726978 0
M  V30 1105 H 106.358 4.13384 -0.500243 0
M  V30 1106 H 108.955 4.88322 2.17821 0
M  V30 1107 H 109.298 3.23029 2.62599 0
M  V30 1108 H 109.831 3.83958 1.04024 0
M  V30 1109 H 106.57 6.55065 -0.238721 0
M  V30 1110 H 106.09 5.85004 1.324 0
M  V30 1111 H 107.769 6.38258 1.05999 0
M  V30 1112 N 107.901 -0.206675 1.56239 0
M  V30 1113 C 108.849 -1.27571 1.94495 0
M  V30 1114 C 109.843 -1.47737 0.828862 0
M  V30 1115 O 111.049 -1.48735 1.0138 0
M  V30 1116 H 107.424 -0.428029 0.6183 0
M  V30 1117 H 109.395 -0.925961 2.8367 0
M  V30 1118 C 108.144 -2.61568 2.29079 0
M  V30 1119 H 107.467 -2.46863 3.14482 0
M  V30 1120 H 108.907 -3.35144 2.5972 0
M  V30 1121 C 107.366 -3.17695 1.12123 0
M  V30 1122 O 107.896 -3.99801 0.390153 0
M  V30 1123 N 106.102 -2.76276 0.901097 0
M  V30 1124 H 105.649 -2.09613 1.49733 0
M  V30 1125 H 105.607 -3.1417 0.120319 0
M  V30 1126 N 109.379 -1.50304 -0.473955 0
M  V30 1127 C 110.289 -1.7174 -1.5982 0
M  V30 1128 C 111.305 -0.600457 -1.63311 0
M  V30 1129 O 112.481 -0.878441 -1.81233 0
M  V30 1130 C 109.546 -1.80427 -2.96052 0
M  V30 1131 C 108.607 -3.04148 -3.02972 0
M  V30 1132 C 107.84 -3.12411 -4.32706 0
M  V30 1133 O 108.063 -2.27542 -5.23049 0
M  V30 1134 O 106.997 -4.05113 -4.45159 0
M  V30 1135 H 110.823 -2.67035 -1.44657 0
M  V30 1136 H 108.408 -1.34366 -0.653148 0
M  V30 1137 H 110.29 -1.88338 -3.7697 0
M  V30 1138 H 108.965 -0.883156 -3.11419 0
M  V30 1139 H 107.872 -3.0174 -2.21142 0
M  V30 1140 H 109.205 -3.95829 -2.92541 0
M  V30 1141 N 110.857 0.726932 -1.39834 0
M  V30 1142 C 111.804 1.841 -1.39197 0
M  V30 1143 C 112.774 1.642 -0.250502 0
M  V30 1144 O 113.959 1.85494 -0.446846 0
M  V30 1145 C 111.099 3.21697 -1.24919 0
M  V30 1146 C 110.212 3.53247 -2.48678 0
M  V30 1147 C 109.347 4.80289 -2.26928 0
M  V30 1148 C 108.386 5.04707 -3.4632 0
M  V30 1149 N 107.523 6.22956 -3.23836 0
M  V30 1150 H 112.363 1.83979 -2.34427 0
M  V30 1151 H 109.9 0.898876 -1.16442 0
M  V30 1152 H 111.858 4.01137 -1.1465 0
M  V30 1153 H 110.488 3.21076 -0.333153 0
M  V30 1154 H 109.54 2.68447 -2.69519 0
M  V30 1155 H 110.852 3.67205 -3.37582 0
M  V30 1156 H 110.006 5.67725 -2.13947 0
M  V30 1157 H 108.745 4.68519 -1.35431 0
M  V30 1158 H 107.75 4.1573 -3.5979 0
M  V30 1159 H 108.975 5.18357 -4.38729 0
M  V30 1160 H 106.921 6.12459 -2.35011 0
M  V30 1161 H 106.838 6.37539 -4.063 0
M  V30 1162 H 108.106 7.1321 -3.14566 0
M  V30 1163 N 112.336 1.25143 0.95797 0
M  V30 1164 C 113.566 1.12261 1.73439 0
M  V30 1165 C 113.974 -0.326715 1.86358 0
M  V30 1166 O 113.317 -1.2367 1.35836 0
M  V30 1167 C 113.379 1.69966 3.16784 0
M  V30 1168 C 113.043 3.18936 3.27305 0
M  V30 1169 C 114.04 4.15968 3.11877 0
M  V30 1170 C 111.725 3.59083 3.51234 0
M  V30 1171 C 113.719 5.51126 3.20217 0
M  V30 1172 C 111.406 4.9438 3.5921 0
M  V30 1173 C 112.404 5.90211 3.43716 0
M  V30 1174 O 112.092 7.23046 3.51368 0
M  V30 1175 H 111.824 0.392476 0.550399 0
M  V30 1176 H 114.378 1.65927 1.21068 0
M  V30 1177 H 112.608 1.10744 3.70503 0
M  V30 1178 H 114.297 1.52232 3.76272 0
M  V30 1179 H 115.063 3.86292 2.93264 0
M  V30 1180 H 110.942 2.84989 3.62356 0
M  V30 1181 H 114.486 6.25905 3.0804 0
M  V30 1182 H 110.383 5.23723 3.77339 0
M  V30 1183 H 111.151 7.31097 3.6802 0
M  V30 1184 N 113.814 -1.1601 1.06675 0
M  V30 1185 C 115.062 -1.86264 0.784229 0
M  V30 1186 C 115.383 -1.82328 -0.691488 0
M  V30 1187 O 114.653 -1.25947 -1.50047 0
M  V30 1188 H 113.233 -0.689621 0.28711 0
M  V30 1189 H 115.895 -1.40664 1.34906 0
M  V30 1190 H 114.991 -2.91595 1.11259 0
M  V30 1191 N 115.292 -0.849877 -1.32721 0
M  V30 1192 C 116.255 -0.296122 -2.27279 0
M  V30 1193 C 117.255 0.541458 -1.5141 0
M  V30 1194 O 118.445 0.353658 -1.70572 0
M  V30 1195 C 115.577 0.581579 -3.35902 0
M  V30 1196 H 116.77 -1.13064 -2.77771 0
M  V30 1197 H 114.323 -0.62383 -1.43311 0
M  V30 1198 H 115.058 1.43809 -2.9067 0
M  V30 1199 H 114.843 -0.0178814 -3.92096 0
M  V30 1200 H 116.333 0.961951 -4.0637 0
M  V30 1201 N 116.77 1.45427 -0.607355 0
M  V30 1202 C 117.72 2.27612 0.133038 0
M  V30 1203 C 118.704 1.37307 0.838785 0
M  V30 1204 O 119.896 1.61299 0.728813 0
M  V30 1205 C 117.025 3.24173 1.12991 0
M  V30 1206 C 116.111 4.21965 0.425011 0
M  V30 1207 N 116.502 5.02982 -0.533217 0
M  V30 1208 C 114.8 4.40899 0.672593 0
M  V30 1209 C 115.501 5.73931 -0.947518 0
M  V30 1210 N 114.477 5.42819 -0.291321 0
M  V30 1211 H 118.279 2.87649 -0.602935 0
M  V30 1212 H 115.793 1.56576 -0.431006 0
M  V30 1213 H 117.79 3.81783 1.67473 0
M  V30 1214 H 116.45 2.65696 1.86644 0
M  V30 1215 H 117.461 5.09843 -0.90995 0
M  V30 1216 H 114.138 3.93547 1.39382 0
M  V30 1217 H 115.528 6.49037 -1.73782 0
M  V30 1218 N 118.248 0.346503 1.53744 0
M  V30 1219 C 119.476 -0.25041 2.05379 0
M  V30 1220 C 119.891 -1.43979 1.22129 0
M  V30 1221 O 119.248 -1.80677 0.257321 0
M  V30 1222 C 119.299 -0.662575 3.55376 0
M  V30 1223 O 119.02 0.479515 4.35468 0
M  V30 1224 C 120.521 -1.31989 4.23195 0
M  V30 1225 H 117.741 -0.0478198 0.669294 0
M  V30 1226 H 120.285 0.499346 1.9831 0
M  V30 1227 H 118.44 -1.36227 3.62658 0
M  V30 1228 H 118.854 0.15037 5.24284 0
M  V30 1229 H 120.328 -1.55902 5.29527 0
M  V30 1230 H 120.805 -2.27436 3.75725 0
M  V30 1231 H 121.411 -0.662154 4.20114 0
M  V30 1232 N 119.726 -1.57421 0.075193 0
M  V30 1233 C 120.676 -2.09441 -0.901025 0
M  V30 1234 C 121.66 -1.00486 -1.25663 0
M  V30 1235 O 122.852 -1.2679 -1.23504 0
M  V30 1236 C 119.981 -2.66233 -2.16737 0
M  V30 1237 C 119.067 -3.82198 -1.83808 0
M  V30 1238 N 119.458 -4.91028 -1.21345 0
M  V30 1239 C 117.756 -3.91558 -2.13538 0
M  V30 1240 C 118.457 -5.71852 -1.06585 0
M  V30 1241 N 117.433 -5.20233 -1.57667 0
M  V30 1242 H 121.235 -2.90972 -0.413815 0
M  V30 1243 H 118.749 -1.6189 -0.128601 0
M  V30 1244 H 120.746 -3.01819 -2.87595 0
M  V30 1245 H 119.406 -1.8615 -2.66042 0
M  V30 1246 H 120.417 -5.10323 -0.88268 0
M  V30 1247 H 117.094 -3.22454 -2.65197 0
M  V30 1248 H 118.484 -6.69401 -0.578933 0
M  V30 1249 N 121.204 0.198386 -1.56346 0
M  V30 1250 C 122.452 0.91747 -1.80075 0
M  V30 1251 C 122.773 1.83929 -0.647692 0
M  V30 1252 O 122.043 1.93029 0.334166 0
M  V30 1253 H 120.623 0.341774 -0.664228 0
M  V30 1254 H 123.285 0.204684 -1.93822 0
M  V30 1255 H 122.381 1.51055 -2.7311 0
M  V30 1256 N 122.682 1.50554 0.465978 0
M  V30 1257 C 123.931 1.61038 1.21448 0
M  V30 1258 C 124.244 0.31865 1.92987 0
M  V30 1259 O 125.45 0.302469 2.6981 0
M  V30 1260 C 123.906 2.84283 2.20706 0
M  V30 1261 C 123.514 4.20352 1.54946 0
M  V30 1262 C 125.258 3.04115 2.96166 0
M  V30 1263 C 123.165 5.34778 2.5252 0
M  V30 1264 H 122.095 0.599718 0.457005 0
M  V30 1265 H 124.746 1.7699 0.484424 0
M  V30 1266 H 123.128 2.61901 2.97025 0
M  V30 1267 H 124.302 4.53008 0.843811 0
M  V30 1268 H 122.617 4.06167 0.917475 0
M  V30 1269 H 125.214 3.86774 3.69202 0
M  V30 1270 H 125.557 2.16045 3.55852 0
M  V30 1271 H 126.09 3.26702 2.26959 0
M  V30 1272 H 122.829 6.25018 1.97566 0
M  V30 1273 H 122.349 5.06534 3.21222 0
M  V30 1274 H 124.028 5.65561 3.14245 0
M  V30 1275 N 124.16 -0.719506 1.40217 0
M  V30 1276 C 125.437 -1.47221 1.28784 0
M  V30 1277 C 125.817 -2.10883 -0.0956067 0
M  V30 1278 O 125.165 -1.99833 -1.10811 0
M  V30 1279 C 125.375 -2.5111 2.42373 0
M  V30 1280 C 126.723 -3.17053 2.82423 0
M  V30 1281 O 127.747 -2.61429 2.41937 0
M  V30 1282 O 126.606 -4.17742 3.52355 0
M  V30 1283 H 123.7 -0.654491 0.50554 0
M  V30 1284 H 126.246 -0.752014 1.52128 0
M  V30 1285 H 125.018 -2.02556 3.34793 0
M  V30 1286 H 124.641 -3.3067 2.20778 0
M  V30 1287 N 125.638 -1.25649 -0.95132 0
M  V30 1288 C 126.887 -1.09988 -1.69073 0
M  V30 1289 C 127.2 0.358355 -1.92289 0
M  V30 1290 O 128.406 0.635466 -2.63958 0
M  V30 1291 C 126.862 -1.92012 -3.044 0
M  V30 1292 C 126.47 -3.42347 -2.88968 0
M  V30 1293 C 128.214 -1.8493 -3.82101 0
M  V30 1294 C 126.121 -4.16655 -4.19705 0
M  V30 1295 H 125.051 -0.407993 -0.63408 0
M  V30 1296 H 127.702 -1.49873 -1.05879 0
M  V30 1297 H 126.084 -1.44952 -3.68517 0
M  V30 1298 H 127.258 -3.97104 -2.33762 0
M  V30 1299 H 125.573 -3.50557 -2.24719 0
M  V30 1300 H 128.17 -2.37739 -4.78941 0
M  V30 1301 H 128.513 -0.817883 -4.08187 0
M  V30 1302 H 129.046 -2.29758 -3.2474 0
M  V30 1303 H 125.785 -5.20224 -3.98807 0
M  V30 1304 H 125.305 -3.66681 -4.74663 0
M  V30 1305 H 126.984 -4.24551 -4.88227 0
M  V30 1306 N 127.117 1.15442 -1.07289 0
M  V30 1307 C 128.357 1.8788 -0.805012 0
M  V30 1308 C 128.721 1.80413 0.656907 0
M  V30 1309 O 129.922 2.47874 1.0398 0
M  V30 1310 C 128.193 3.3298 -1.29843 0
M  V30 1311 S 129.752 4.23158 -1.16114 0
M  V30 1312 H 126.57 0.64839 -0.291739 0
M  V30 1313 H 129.172 1.39285 -1.37186 0
M  V30 1314 H 127.876 3.35958 -2.35712 0
M  V30 1315 H 127.407 3.86629 -0.726767 0
M  V30 1316 H 129.422 4.96103 -0.0982778 0
M  V30 1317 N 128.595 0.856903 1.32268 0
M  V30 1318 C 129.82 0.474569 2.01897 0
M  V30 1319 C 130.245 -0.921766 1.63967 0
M  V30 1320 O 129.603 -1.60589 0.84148 0
M  V30 1321 C 129.651 0.623799 3.55164 0
M  V30 1322 O 128.755 -0.342459 4.10976 0
M  V30 1323 H 128.096 0.190422 0.63611 0
M  V30 1324 H 130.626 1.15672 1.68764 0
M  V30 1325 H 130.636 0.512169 4.04773 0
M  V30 1326 H 129.311 1.64202 3.82113 0
M  V30 1327 H 127.888 -0.18688 3.72431 0
M  V30 1328 N 130.073 -1.45103 0.615059 0
M  V30 1329 C 131.021 -2.32331 -0.111791 0
M  V30 1330 C 132.015 -1.46409 -0.852102 0
M  V30 1331 O 133.221 -1.62849 -0.766821 0
M  V30 1332 H 129.596 -0.749993 -0.0549072 0
M  V30 1333 H 131.567 -2.91407 0.642225 0
M  V30 1334 C 130.316 -3.3015 -1.09071 0
M  V30 1335 H 129.639 -3.96265 -0.530485 0
M  V30 1336 H 131.079 -3.93898 -1.56908 0
M  V30 1337 C 129.538 -2.57875 -2.168 0
M  V30 1338 O 130.068 -2.36567 -3.24652 0
M  V30 1339 N 128.274 -2.17884 -1.92289 0
M  V30 1340 H 127.821 -2.35413 -1.04587 0
M  V30 1341 H 127.779 -1.6985 -2.64572 0
M  V30 1342 N 131.551 -0.354651 -1.53558 0
M  V30 1343 C 132.8 0.239504 -2.00273 0
M  V30 1344 C 133.113 1.50759 -1.24623 0
M  V30 1345 O 134.319 2.17968 -1.61871 0
M  V30 1346 C 132.775 0.477341 -3.5672 0
M  V30 1347 C 132.383 -0.775488 -4.41237 0
M  V30 1348 C 134.127 1.02975 -4.11821 0
M  V30 1349 C 132.034 -0.507838 -5.89216 0
M  V30 1350 H 130.964 0.0932743 -0.748208 0
M  V30 1351 H 133.615 -0.471701 -1.77334 0
M  V30 1352 H 131.997 1.24953 -3.7577 0
M  V30 1353 H 133.171 -1.54963 -4.33962 0
M  V30 1354 H 131.486 -1.25033 -3.97185 0
M  V30 1355 H 134.083 1.24513 -5.2 0
M  V30 1356 H 134.426 1.98862 -3.65731 0
M  V30 1357 H 134.959 0.317994 -3.96527 0
M  V30 1358 H 131.698 -1.43674 -6.39561 0
M  V30 1359 H 131.218 0.228011 -5.99366 0
M  V30 1360 H 132.897 -0.129238 -6.46871 0
M  V30 1361 N 133.029 1.57378 -0.0835403 0
M  V30 1362 C 134.275 1.94217 0.583733 0
M  V30 1363 C 134.608 0.964653 1.68547 0
M  V30 1364 O 133.883 -0.00422258 1.945 0
M  V30 1365 C 134.166 3.41253 1.14972 0
M  V30 1366 C 134.019 4.49768 0.0538277 0
M  V30 1367 C 135.338 3.89352 2.05166 0
M  V30 1368 H 132.457 0.706233 0.210724 0
M  V30 1369 H 135.099 1.89392 -0.1519 0
M  V30 1370 H 133.249 3.45496 1.77665 0
M  V30 1371 H 134.921 4.57641 -0.579851 0
M  V30 1372 H 133.164 4.29432 -0.614068 0
M  V30 1373 H 133.835 5.49817 0.490452 0
M  V30 1374 H 136.311 3.87189 1.52393 0
M  V30 1375 H 135.187 4.92822 2.41698 0
M  V30 1376 H 135.448 3.27973 2.96456 0
M  V30 1377 N 134.507 -0.190092 1.56449 0
M  V30 1378 C 135.455 -1.25501 1.95837 0
M  V30 1379 C 136.449 -1.4685 0.844485 0
M  V30 1380 O 137.655 -1.47651 1.02952 0
M  V30 1381 H 134.03 -0.421447 0.622805 0
M  V30 1382 H 136.001 -0.895821 2.84636 0
M  V30 1383 C 134.75 -2.59124 2.31841 0
M  V30 1384 H 134.073 -2.43514 3.17082 0
M  V30 1385 H 135.513 -3.32371 2.6326 0
M  V30 1386 C 133.972 -3.16488 1.15486 0
M  V30 1387 O 134.502 -3.99365 0.432535 0
M  V30 1388 N 132.708 -2.75305 0.930349 0
M  V30 1389 H 132.255 -2.08013 1.51948 0
M  V30 1390 H 132.213 -3.14024 0.153634 0
M  V30 1391 N 135.985 -1.50799 -0.457987 0
M  V30 1392 C 136.918 -1.65273 -1.57353 0
M  V30 1393 C 137.896 -0.500578 -1.54703 0
M  V30 1394 O 139.08 -0.721781 -1.74134 0
M  V30 1395 C 136.207 -1.64737 -2.95938 0
M  V30 1396 C 135.253 -2.8567 -3.16693 0
M  V30 1397 S 136.086 -4.46791 -2.95191 0
M  V30 1398 C 137.242 -4.48968 -4.36095 0
M  V30 1399 H 137.475 -2.59633 -1.44838 0
M  V30 1400 H 135.008 -1.40225 -0.64625 0
M  V30 1401 H 136.966 -1.65112 -3.7583 0
M  V30 1402 H 135.627 -0.715899 -3.05833 0
M  V30 1403 H 134.82 -2.81637 -4.17967 0
M  V30 1404 H 134.422 -2.8293 -2.44594 0
M  V30 1405 H 136.714 -4.23337 -5.28954 0
M  V30 1406 H 137.657 -5.50664 -4.45168 0
M  V30 1407 H 138.065 -3.78522 -4.18786 0
M  V30 1408 N 137.463 0.71206 -1.40597 0
M  V30 1409 C 138.426 1.80785 -1.40888 0
M  V30 1410 C 139.426 1.57937 -0.302103 0
M  V30 1411 O 140.616 1.64913 -0.561182 0
M  V30 1412 C 137.748 3.18927 -1.20409 0
M  V30 1413 H 138.941 1.81924 -2.38419 0
M  V30 1414 H 136.494 0.91805 -1.26497 0
M  V30 1415 H 137.229 3.23436 -0.236522 0
M  V30 1416 H 137.014 3.36911 -2.00582 0
M  V30 1417 H 138.504 3.98949 -1.23408 0
M  V30 1418 N 138.941 1.26152 0.944643 0
M  V30 1419 C 139.889 1.07215 2.06417 0
M  V30 1420 C 140.883 9.2007e-05 1.694 0
M  V30 1421 O 142.089 0.1565 1.79318 0
M  V30 1422 H 138.464 0.329837 0.675805 0
M  V30 1423 H 140.435 2.02099 2.19541 0
M  V30 1424 C 139.184 0.718197 3.40202 0
M  V30 1425 H 138.507 1.53497 3.69159 0
M  V30 1426 H 139.947 0.625459 4.19361 0
M  V30 1427 C 138.406 -0.576435 3.31932 0
M  V30 1428 O 138.936 -1.61574 3.67773 0
M  V30 1429 N 137.142 -0.565781 2.85039 0
M  V30 1430 H 136.689 0.280367 2.5607 0
M  V30 1431 H 136.647 -1.43213 2.79888 0
M  V30 1432 N 140.419 -1.14872 1.07899 0
M  V30 1433 C 141.329 -2.2341 0.715915 0
M  V30 1434 C 142.345 -1.71808 -0.275306 0
M  V30 1435 O 143.521 -2.01039 -0.120545 0
M  V30 1436 C 140.586 -3.46474 0.125168 0
M  V30 1437 C 139.647 -4.13039 1.17034 0
M  V30 1438 C 138.88 -5.30229 0.607688 0
M  V30 1439 O 139.103 -5.675 -0.574497 0
M  V30 1440 O 138.037 -5.86444 1.35526 0
M  V30 1441 H 141.863 -2.56808 1.62121 0
M  V30 1442 H 139.448 -1.22702 0.852322 0
M  V30 1443 H 141.33 -4.20917 -0.201729 0
M  V30 1444 H 140.005 -3.14811 -0.753364 0
M  V30 1445 H 138.912 -3.40493 1.54968 0
M  V30 1446 H 140.245 -4.48796 2.02097 0
M  V30 1447 N 141.898 -0.863906 -1.31812 0
M  V30 1448 C 143.314 -0.555004 -1.49639 0
M  V30 1449 C 143.514 0.912266 -1.79666 0
M  V30 1450 O 142.57 1.69479 -1.87171 0
M  V30 1451 C 143.883 -1.44998 -2.63431 0
M  V30 1452 C 145.431 -1.45138 -2.77316 0
M  V30 1453 C 145.906 -2.33179 -3.94197 0
M  V30 1454 N 147.397 -2.31025 -4.01474 0
M  V30 1455 C 148.132 -2.95871 -4.9117 0
M  V30 1456 N 147.628 -3.69863 -5.8581 0
M  V30 1457 N 149.421 -2.85211 -4.84367 0
M  V30 1458 H 141.572 -1.81339 -1.10589 0
M  V30 1459 H 143.835 -0.77505 -0.545895 0
M  V30 1460 H 143.541 -2.49377 -2.48 0
M  V30 1461 H 143.415 -1.14409 -3.59431 0
M  V30 1462 H 145.802 -0.415201 -2.92164 0
M  V30 1463 H 145.883 -1.79747 -1.82001 0
M  V30 1464 H 145.527 -3.3687 -3.80107 0
M  V30 1465 H 145.457 -1.95897 -4.88807 0
M  V30 1466 H 147.948 -1.77238 -3.33759 0
M  V30 1467 H 148.261 -4.16486 -6.50968 0
M  V30 1468 H 146.606 -3.73971 -5.85808 0
M  V30 1469 H 149.797 -2.26948 -4.09405 0
M  V30 1470 H 149.97 -3.36027 -5.54066 0
M  V30 1471 N 143.376 1.44774 -0.622745 0
M  V30 1472 C 144.622 2.0242 -0.124083 0
M  V30 1473 C 144.955 1.4881 1.24777 0
M  V30 1474 O 144.23 0.668799 1.8264 0
M  V30 1475 C 144.513 3.59957 -0.101619 0
M  V30 1476 C 144.366 4.23867 -1.50521 0
M  V30 1477 C 145.685 4.36284 0.578272 0
M  V30 1478 H 142.804 0.735528 -0.0465645 0
M  V30 1479 H 145.446 1.72447 -0.797617 0
M  V30 1480 H 143.596 3.85623 0.471934 0
M  V30 1481 H 145.268 4.09336 -2.12701 0
M  V30 1482 H 143.511 3.81684 -2.06154 0
M  V30 1483 H 144.182 5.32843 -1.4416 0
M  V30 1484 H 146.658 4.16001 0.0906057 0
M  V30 1485 H 145.534 5.46004 0.563149 0
M  V30 1486 H 145.795 4.10271 1.64713 0
M  V30 1487 N 144.854 0.36279 1.53368 0
M  V30 1488 C 146.079 -0.231226 2.06107 0
M  V30 1489 C 146.504 -1.419 1.23474 0
M  V30 1490 O 145.862 -1.79524 0.253128 0
M  V30 1491 C 145.91 -0.605523 3.5548 0
M  V30 1492 O 145.014 -1.70312 3.7559 0
M  V30 1493 H 144.355 -0.034327 0.663112 0
M  V30 1494 H 146.885 0.522584 1.97814 0
M  V30 1495 H 146.895 -0.877314 3.98456 0
M  V30 1496 H 145.57 0.263004 4.15068 0
M  V30 1497 H 144.147 -1.4271 3.44512 0
M  V30 1498 N 146.332 -1.57332 0.0918853 0
M  V30 1499 C 147.58 -1.93853 -0.571446 0
M  V30 1500 C 147.901 -0.974212 -1.6892 0
M  V30 1501 O 147.171 -0.0257254 -1.95883 0
M  V30 1502 H 145.751 -0.715666 -0.214082 0
M  V30 1503 H 148.413 -1.94287 0.154464 0
M  V30 1504 H 147.509 -2.96191 -0.983729 0
M  V30 1505 N 147.81 0.181792 -1.56548 0
M  V30 1506 C 148.758 1.24461 -1.965 0
M  V30 1507 C 149.752 1.464 -0.852261 0
M  V30 1508 O 150.958 1.47103 -1.03733 0
M  V30 1509 H 147.333 0.418138 -0.625031 0
M  V30 1510 H 149.304 0.880714 -2.85107 0
M  V30 1511 C 148.053 2.57891 -2.33212 0
M  V30 1512 H 147.376 2.41829 -3.18369 0
M  V30 1513 H 148.816 3.3097 -2.65019 0
M  V30 1514 C 147.275 3.15871 -1.17163 0
M  V30 1515 O 147.805 3.9913 -0.453708 0
M  V30 1516 N 146.011 2.74808 -0.944936 0
M  V30 1517 H 145.558 2.07205 -1.53049 0
M  V30 1518 H 145.516 3.13939 -0.170286 0
M  V30 1519 N 149.288 1.51039 0.449983 0
M  V30 1520 C 150.236 1.71995 1.5659 0
M  V30 1521 C 151.23 0.586029 1.5894 0
M  V30 1522 O 152.436 0.76709 1.62837 0
M  V30 1523 H 148.811 0.543233 0.520001 0
M  V30 1524 H 150.782 2.65562 1.36085 0
M  V30 1525 C 149.531 1.8506 2.9436 0
M  V30 1526 H 148.854 2.71712 2.93279 0
M  V30 1527 H 150.294 2.0374 3.71842 0
M  V30 1528 C 148.753 0.607277 3.31382 0
M  V30 1529 O 149.283 -0.243903 4.00959 0
M  V30 1530 N 147.489 0.455073 2.87015 0
M  V30 1531 H 147.036 1.14879 2.30566 0
M  V30 1532 H 146.994 -0.375611 3.12148 0
M  V30 1533 N 150.766 -0.704594 1.40972 0
M  V30 1534 C 151.713 -1.81862 1.42109 0
M  V30 1535 C 152.683 -1.63781 0.276593 0
M  V30 1536 O 153.868 -1.84759 0.4763 0
M  V30 1537 C 151.008 -3.19669 1.30022 0
M  V30 1538 C 150.121 -3.49246 2.54267 0
M  V30 1539 C 149.256 -4.76618 2.3454 0
M  V30 1540 C 148.295 -4.99133 3.54306 0
M  V30 1541 N 147.432 -6.17726 3.33706 0
M  V30 1542 H 152.272 -1.80226 2.37324 0
M  V30 1543 H 149.809 -0.880238 1.17857 0
M  V30 1544 H 151.767 -3.99263 1.21018 0
M  V30 1545 H 150.397 -3.20506 0.384192 0
M  V30 1546 H 149.449 -2.64125 2.73756 0
M  V30 1547 H 150.761 -3.61788 3.43381 0
M  V30 1548 H 149.915 -5.64249 2.22952 0
M  V30 1549 H 148.654 -4.66305 1.42867 0
M  V30 1550 H 147.659 -4.09953 3.66359 0
M  V30 1551 H 148.884 -5.11311 4.4692 0
M  V30 1552 H 146.83 -6.08642 2.44725 0
M  V30 1553 H 146.747 -6.30995 4.16391 0
M  V30 1554 H 148.015 -7.08115 3.25873 0
M  V30 1555 N 152.244 -1.26651 -0.937939 0
M  V30 1556 C 153.493 -1.11775 -1.67897 0
M  V30 1557 C 153.806 0.33794 -1.92659 0
M  V30 1558 O 155.012 0.607434 -2.64618 0
M  V30 1559 C 153.468 -1.9523 -3.02346 0
M  V30 1560 C 153.076 -3.45393 -2.8532 0
M  V30 1561 C 154.82 -1.88972 -3.80118 0
M  V30 1562 C 152.727 -4.21083 -4.15263 0
M  V30 1563 H 151.657 -0.414696 -0.629717 0
M  V30 1564 H 154.308 -1.50988 -1.04283 0
M  V30 1565 H 152.69 -1.48853 -3.66959 0
M  V30 1566 H 153.864 -3.99561 -2.29537 0
M  V30 1567 H 152.179 -3.52921 -2.20988 0
M  V30 1568 H 154.776 -2.42805 -4.76392 0
M  V30 1569 H 155.119 -0.86113 -4.07296 0
M  V30 1570 H 155.652 -2.33189 -3.22285 0
M  V30 1571 H 152.391 -5.24425 -3.93267 0
M  V30 1572 H 151.911 -3.71695 -4.70747 0
M  V30 1573 H 153.59 -4.29706 -4.83696 0
M  V30 1574 N 153.722 1.14298 -1.08507 0
M  V30 1575 C 154.971 1.84708 -0.810305 0
M  V30 1576 C 155.284 1.83903 0.666271 0
M  V30 1577 O 156.49 2.50112 1.05624 0
M  V30 1578 C 154.946 3.31572 -1.39957 0
M  V30 1579 C 154.554 3.40791 -2.90801 0
M  V30 1580 C 156.298 4.07087 -1.20334 0
M  V30 1581 C 154.205 4.81872 -3.4286 0
M  V30 1582 H 153.135 0.691985 -0.299454 0
M  V30 1583 H 155.786 1.28841 -1.30661 0
M  V30 1584 H 154.168 3.87183 -0.830976 0
M  V30 1585 H 155.342 2.95225 -3.53806 0
M  V30 1586 H 153.657 2.78732 -3.0935 0
M  V30 1587 H 156.254 5.11225 -1.56693 0
M  V30 1588 H 156.597 4.16054 -0.143237 0
M  V30 1589 H 157.13 3.57779 -1.73893 0
M  V30 1590 H 153.869 4.78094 -4.48449 0
M  V30 1591 H 153.389 5.27972 -2.84615 0
M  V30 1592 H 155.068 5.50765 -3.39509 0
M  V30 1593 N 155.201 0.870884 1.31352 0
M  V30 1594 C 156.448 0.482273 1.96673 0
M  V30 1595 C 156.776 -0.965638 1.68836 0
M  V30 1596 O 156.031 -1.69514 0.977937 0
M  V30 1597 C 156.33 0.687157 3.50732 0
M  V30 1598 C 155.996 2.108 3.9859 0
M  V30 1599 C 154.658 2.49656 4.1137 0
M  V30 1600 C 157.01 3.03459 4.23748 0
M  V30 1601 C 154.338 3.80412 4.46659 0
M  V30 1602 C 156.69 4.3373 4.60501 0
M  V30 1603 C 155.354 4.725 4.71487 0
M  V30 1604 H 154.624 0.176476 0.719679 0
M  V30 1605 H 157.271 1.10405 1.56471 0
M  V30 1606 H 155.576 -0.0177476 3.91796 0
M  V30 1607 H 157.273 0.366284 3.99324 0
M  V30 1608 H 153.863 1.79633 3.8914 0
M  V30 1609 H 158.047 2.74665 4.13368 0
M  V30 1610 H 153.303 4.1021 4.53362 0
M  V30 1611 H 157.477 5.05578 4.78919 0
M  V30 1612 H 155.104 5.73859 4.98588 0
M  V30 1613 N 156.679 -1.44442 0.630414 0
M  V30 1614 C 157.589 -2.34476 -0.0761693 0
M  V30 1615 C 158.605 -1.52576 -0.836449 0
M  V30 1616 O 159.781 -1.85307 -0.788874 0
M  V30 1617 C 156.846 -3.30545 -1.04599 0
M  V30 1618 C 155.907 -4.28352 -0.28516 0
M  V30 1619 C 155.14 -5.19831 -1.20878 0
M  V30 1620 O 155.363 -5.15223 -2.44747 0
M  V30 1621 O 154.297 -5.97892 -0.693491 0
M  V30 1622 H 158.123 -2.96345 0.664324 0
M  V30 1623 H 155.708 -1.44203 0.39061 0
M  V30 1624 H 157.59 -3.89681 -1.60396 0
M  V30 1625 H 156.265 -2.7121 -1.76711 0
M  V30 1626 H 155.172 -3.72764 0.315837 0
M  V30 1627 H 156.505 -4.90605 0.395924 0
M  V30 1628 N 158.157 -0.370918 -1.53173 0
M  V30 1629 C 159.12 0.460778 -2.24521 0
M  V30 1630 C 160.12 1.00536 -1.25496 0
M  V30 1631 O 161.31 0.890266 -1.49733 0
M  V30 1632 C 158.442 1.64457 -2.98608 0
M  V30 1633 H 159.635 -0.163613 -2.99453 0
M  V30 1634 H 157.188 -0.122699 -1.55818 0
M  V30 1635 H 157.923 2.30691 -2.2793 0
M  V30 1636 H 157.708 1.26099 -3.7127 0
M  V30 1637 H 159.198 2.23384 -3.5283 0
M  V30 1638 N 159.635 1.57281 -0.100228 0
M  V30 1639 C 160.583 2.15542 0.874328 0
M  V30 1640 C 161.577 1.09962 1.28859 0
M  V30 1641 O 162.783 1.28298 1.26252 0
M  V30 1642 H 159.158 0.689567 0.300003 0
M  V30 1643 H 161.129 2.96241 0.35829 0
M  V30 1644 C 159.878 2.75454 2.1218 0
M  V30 1645 H 159.201 3.56384 1.81193 0
M  V30 1646 H 160.641 3.19781 2.78417 0
M  V30 1647 C 159.1 1.71602 2.89921 0
M  V30 1648 O 159.63 1.15804 3.84646 0
M  V30 1649 N 157.836 1.41975 2.53558 0
M  V30 1650 H 157.383 1.87539 1.76598 0
M  V30 1651 H 157.341 0.727274 3.05873 0
M  V30 1652 N 161.113 -0.173488 1.56642 0
M  V30 1653 C 162.39 -0.917617 1.7274 0
M  V30 1654 C 162.77 -2.00484 0.661027 0
M  V30 1655 O 162.118 -2.26184 -0.32453 0
M  V30 1656 C 162.328 -1.48433 3.15862 0
M  V30 1657 C 163.676 -1.95809 3.76754 0
M  V30 1658 O 164.7 -1.58231 3.19126 0
M  V30 1659 O 163.559 -2.65024 4.77938 0
M  V30 1660 H 160.653 -0.431772 0.705338 0
M  V30 1661 H 163.199 -0.161487 1.6893 0
M  V30 1662 H 161.971 -0.701715 3.84957 0
M  V30 1663 H 161.594 -2.30471 3.23989 0
M  V30 1664 N 162.591 -1.51276 -0.441967 0
M  V30 1665 C 163.84 -1.6295 -1.18871 0
M  V30 1666 C 164.153 -0.349312 -1.92456 0
M  V30 1667 O 165.359 -0.345355 -2.69295 0
M  V30 1668 C 163.815 -2.87759 -2.16155 0
M  V30 1669 C 163.423 -4.22764 -1.48239 0
M  V30 1670 C 165.167 -3.08788 -2.91291 0
M  V30 1671 C 163.074 -5.38728 -2.4398 0
M  V30 1672 H 162.004 -0.606913 -0.447406 0
M  V30 1673 H 164.655 -1.77739 -0.456205 0
M  V30 1674 H 163.037 -2.66593 -2.92821 0
M  V30 1675 H 164.211 -4.54293 -0.771635 0
M  V30 1676 H 162.526 -4.07575 -0.852741 0
M  V30 1677 H 165.123 -3.92599 -3.63002 0
M  V30 1678 H 165.466 -2.21679 -3.5237 0
M  V30 1679 H 165.999 -3.30272 -2.21733 0
M  V30 1680 H 162.738 -6.28082 -1.87598 0
M  V30 1681 H 162.258 -5.1158 -3.13123 0
M  V30 1682 H 163.937 -5.70489 -3.05207 0
M  V30 1683 N 164.069 0.697108 -1.41344 0
M  V30 1684 C 164.999 1.82353 -1.45841 0
M  V30 1685 C 165.98 1.67115 -0.317247 0
M  V30 1686 O 167.165 1.86871 -0.528474 0
M  V30 1687 C 164.295 3.20476 -1.33838 0
M  V30 1688 C 163.249 3.50415 -2.4575 0
M  V30 1689 C 162.575 4.87878 -2.18813 0
M  V30 1690 C 163.875 3.49546 -3.88091 0
M  V30 1691 H 165.569 1.78846 -2.40113 0
M  V30 1692 H 163.115 0.859028 -1.15571 0
M  V30 1693 H 165.068 3.98988 -1.35596 0
M  V30 1694 H 163.792 3.24604 -0.360498 0
M  V30 1695 H 162.451 2.74253 -2.43271 0
M  V30 1696 H 162.099 4.8863 -1.19371 0
M  V30 1697 H 161.799 5.08875 -2.93803 0
M  V30 1698 H 163.323 5.68702 -2.22284 0
M  V30 1699 H 164.737 4.18066 -3.92293 0
M  V30 1700 H 163.134 3.82075 -4.62751 0
M  V30 1701 H 164.204 2.48552 -4.16353 0
M  V30 1702 N 165.547 1.27147 0.931209 0
M  V30 1703 C 166.775 1.16082 1.71267 0
M  V30 1704 C 167.19 -0.282772 1.8667 0
M  V30 1705 O 166.547 -1.19283 1.38122 0
M  V30 1706 C 166.598 1.8358 3.11417 0
M  V30 1707 O 166.319 3.22299 2.96741 0
M  V30 1708 C 167.82 1.78597 4.05732 0
M  V30 1709 H 165.04 0.403758 0.535929 0
M  V30 1710 H 167.584 1.67953 1.16671 0
M  V30 1711 H 165.739 1.35623 3.62885 0
M  V30 1712 H 166.153 3.55851 3.85319 0
M  V30 1713 H 167.627 2.30444 5.01597 0
M  V30 1714 H 168.104 0.754564 4.3267 0
M  V30 1715 H 168.71 2.26152 3.60188 0
M  V30 1716 N 167.025 -1.13721 1.09112 0
M  V30 1717 C 167.972 -2.19031 0.727591 0
M  V30 1718 C 168.942 -1.63555 -0.289656 0
M  V30 1719 O 170.127 -1.90023 -0.172026 0
M  V30 1720 C 167.267 -3.4477 0.15082 0
M  V30 1721 C 166.38 -4.14365 1.22172 0
M  V30 1722 C 165.515 -5.27709 0.608042 0
M  V30 1723 C 164.554 -5.89147 1.66047 0
M  V30 1724 N 163.691 -6.93929 1.06806 0
M  V30 1725 H 168.531 -2.49475 1.62991 0
M  V30 1726 H 166.068 -1.22499 0.81439 0
M  V30 1727 H 168.026 -4.16714 -0.201358 0
M  V30 1728 H 166.656 -3.14787 -0.714783 0
M  V30 1729 H 165.708 -3.40737 1.69122 0
M  V30 1730 H 167.02 -4.56114 2.01895 0
M  V30 1731 H 166.174 -6.06355 0.204523 0
M  V30 1732 H 164.913 -4.872 -0.220769 0
M  V30 1733 H 163.918 -5.09198 2.07357 0
M  V30 1734 H 165.143 -6.31729 2.49189 0
M  V30 1735 H 163.089 -6.55483 0.260476 0
M  V30 1736 H 163.006 -7.34202 1.8023 0
M  V30 1737 H 164.274 -7.76434 0.690644 0
M  V30 1738 N 168.503 -0.877838 -1.30888 0
M  V30 1739 C 169.413 -0.343096 -2.32078 0
M  V30 1740 C 170.429 0.551022 -1.65045 0
M  V30 1741 O 171.605 0.445854 -1.96403 0
M  V30 1742 C 168.67 0.439905 -3.43898 0
M  V30 1743 C 167.731 -0.483111 -4.26573 0
M  V30 1744 C 166.964 0.262616 -5.33053 0
M  V30 1745 O 167.187 1.48967 -5.50604 0
M  V30 1746 O 166.121 -0.383593 -6.00676 0
M  V30 1747 H 169.947 -1.18203 -2.79753 0
M  V30 1748 H 167.532 -0.64145 -1.34929 0
M  V30 1749 H 169.414 0.883504 -4.12034 0
M  V30 1750 H 168.089 1.25526 -2.98371 0
M  V30 1751 H 166.996 -0.975374 -3.61161 0
M  V30 1752 H 168.329 -1.26427 -4.75686 0
M  V30 1753 N 169.982 1.44106 -0.638065 0
M  V30 1754 C 171.229 2.01978 -0.14533 0
M  V30 1755 C 171.557 1.50234 1.23532 0
M  V30 1756 O 170.812 0.679548 1.83523 0
M  V30 1757 C 171.111 3.5729 -0.0887327 0
M  V30 1758 C 170.777 4.28317 -1.40909 0
M  V30 1759 C 169.439 4.47437 -1.77069 0
M  V30 1760 C 171.791 4.6867 -2.28031 0
M  V30 1761 C 169.119 5.04171 -3.00047 0
M  V30 1762 C 171.471 5.26766 -3.50286 0
M  V30 1763 C 170.135 5.44104 -3.86661 0
M  V30 1764 H 169.405 0.739089 -0.0531801 0
M  V30 1765 H 172.052 1.72781 -0.825761 0
M  V30 1766 H 170.357 3.8594 0.675095 0
M  V30 1767 H 172.054 3.99807 0.309145 0
M  V30 1768 H 168.644 4.1377 -1.1177 0
M  V30 1769 H 172.828 4.53604 -2.01388 0
M  V30 1770 H 168.084 5.15782 -3.28298 0
M  V30 1771 H 172.258 5.56983 -4.18023 0
M  V30 1772 H 169.885 5.87832 -4.82034 0
M  V30 1773 N 171.46 0.379036 1.52974 0
M  V30 1774 C 172.871 -0.0972525 1.86447 0
M  V30 1775 C 173.222 -1.47027 1.29914 0
M  V30 1776 O 172.347 -2.07135 0.626433 0
M  V30 1777 C 172.942 -0.183248 3.38304 0
M  V30 1778 C 171.501 -0.603812 3.71525 0
M  V30 1779 C 170.648 0.240632 2.76254 0
M  V30 1780 H 173.599 0.597316 1.4703 0
M  V30 1781 H 173.62 -1.00432 3.67006 0
M  V30 1782 H 173.132 0.816191 3.79421 0
M  V30 1783 H 171.233 -1.61099 3.35973 0
M  V30 1784 H 171.346 -0.369086 4.77676 0
M  V30 1785 H 169.71 -0.292548 2.53014 0
M  V30 1786 H 170.493 1.23786 3.20206 0
M  V30 1787 N 172.938 -1.57226 0.108567 0
M  V30 1788 C 173.848 -2.18292 -0.859401 0
M  V30 1789 C 174.864 -1.15612 -1.30038 0
M  V30 1790 O 176.04 -1.48039 -1.36552 0
M  V30 1791 C 173.105 -2.762 -2.09558 0
M  V30 1792 C 172.166 -3.93881 -1.70752 0
M  V30 1793 C 171.399 -4.49018 -2.88477 0
M  V30 1794 O 171.622 -4.03068 -4.036 0
M  V30 1795 O 170.556 -5.39852 -2.66164 0
M  V30 1796 H 174.382 -3.01441 -0.369769 0
M  V30 1797 H 171.967 -1.48945 -0.1165 0
M  V30 1798 H 173.849 -3.13156 -2.81978 0
M  V30 1799 H 172.524 -1.96089 -2.57548 0
M  V30 1800 H 171.431 -3.61713 -0.954714 0
M  V30 1801 H 172.764 -4.75396 -1.27513 0
M  V30 1802 N 174.416 0.165178 -1.56732 0
M  V30 1803 C 175.364 1.22369 -1.97809 0
M  V30 1804 C 176.358 1.45488 -0.867741 0
M  V30 1805 O 177.564 1.45995 -1.05288 0
M  V30 1806 H 173.939 0.411486 -0.629431 0
M  V30 1807 H 175.91 0.850425 -2.86025 0
M  V30 1808 C 174.659 2.55403 -2.35934 0
M  V30 1809 H 173.982 2.38438 -3.20916 0
M  V30 1810 H 175.422 3.2814 -2.68514 0
M  V30 1811 C 173.881 3.14611 -1.20506 0
M  V30 1812 O 174.411 3.98626 -0.496016 0
M  V30 1813 N 172.617 2.7379 -0.97403 0
M  V30 1814 H 172.164 2.0557 -1.55238 0
M  V30 1815 H 172.122 3.1374 -0.203573 0
M  V30 1816 N 175.894 1.51508 0.433938 0
M  V30 1817 C 176.842 1.73646 1.54757 0
M  V30 1818 C 177.836 0.602854 1.5831 0
M  V30 1819 O 179.042 0.784318 1.62014 0
M  V30 1820 H 175.417 0.548718 0.51421 0
M  V30 1821 H 177.388 2.66991 1.33261 0
M  V30 1822 C 176.137 1.88172 2.92381 0
M  V30 1823 H 175.46 2.74808 2.90381 0
M  V30 1824 H 176.9 2.07672 3.6966 0
M  V30 1825 C 175.359 0.64239 3.30719 0
M  V30 1826 O 175.889 -0.201362 4.01195 0
M  V30 1827 N 174.095 0.485489 2.86516 0
M  V30 1828 H 173.642 1.17318 2.29334 0
M  V30 1829 H 173.6 -0.342482 3.12529 0
M  V30 1830 N 177.372 -0.689602 1.41712 0
M  V30 1831 C 178.619 -1.44966 1.4139 0
M  V30 1832 C 178.947 -1.94484 0.025105 0
M  V30 1833 O 178.202 -1.70307 -0.964048 0
M  V30 1834 C 178.501 -2.67298 2.37247 0
M  V30 1835 C 178.167 -2.36405 3.83958 0
M  V30 1836 C 176.829 -2.27691 4.23923 0
M  V30 1837 C 179.181 -2.11043 4.76561 0
M  V30 1838 C 176.509 -1.91719 5.54492 0
M  V30 1839 C 178.861 -1.76578 6.07456 0
M  V30 1840 C 177.525 -1.66363 6.46436 0
M  V30 1841 H 176.795 -0.53047 0.517381 0
M  V30 1842 H 179.442 -0.787655 1.74552 0
M  V30 1843 H 177.747 -3.38461 1.9736 0
M  V30 1844 H 179.444 -3.25452 2.34269 0
M  V30 1845 H 176.034 -2.44085 3.52308 0
M  V30 1846 H 180.218 -2.16717 4.46483 0
M  V30 1847 H 175.474 -1.82367 5.83568 0
M  V30 1848 H 179.648 -1.55974 6.78708 0
M  V30 1849 H 177.275 -1.38258 7.47522 0
M  V30 1850 N 178.85 -1.27639 -0.924453 0
M  V30 1851 C 180.127 -1.04887 -1.651 0
M  V30 1852 C 180.507 0.415327 -2.06974 0
M  V30 1853 O 179.855 1.39923 -1.80648 0
M  V30 1854 C 180.065 -2.01348 -2.85061 0
M  V30 1855 C 181.413 -2.30899 -3.56329 0
M  V30 1856 O 182.437 -1.99348 -2.95193 0
M  V30 1857 O 181.296 -2.84699 -4.66485 0
M  V30 1858 H 178.39 -0.400083 -0.723784 0
M  V30 1859 H 180.936 -1.38916 -0.974703 0
M  V30 1860 H 179.708 -3.0008 -2.51133 0
M  V30 1861 H 179.331 -1.679 -3.6041 0
M  V30 1862 N 180.328 1.1314 -1.09713 0
M  V30 1863 C 181.258 2.20748 -0.761102 0
M  V30 1864 C 182.239 1.68061 0.262566 0
M  V30 1865 O 183.424 1.93765 0.129977 0
M  V30 1866 C 180.554 3.46812 -0.184054 0
M  V30 1867 C 179.508 4.12606 -1.13757 0
M  V30 1868 C 178.834 5.33031 -0.422083 0
M  V30 1869 C 180.134 4.59603 -2.48118 0
M  V30 1870 H 181.828 2.49113 -1.66082 0
M  V30 1871 H 179.374 1.19734 -0.799987 0
M  V30 1872 H 181.327 4.21353 0.0631215 0
M  V30 1873 H 180.051 3.17851 0.750868 0
M  V30 1874 H 178.71 3.40036 -1.37007 0
M  V30 1875 H 178.358 5.00335 0.517072 0
M  V30 1876 H 178.058 5.77999 -1.05788 0
M  V30 1877 H 179.582 6.10325 -0.183277 0
M  V30 1878 H 180.996 5.25552 -2.29059 0
M  V30 1879 H 179.393 5.15321 -3.07514 0
M  V30 1880 H 180.463 3.73971 -3.08665 0
M  V30 1881 N 181.806 0.884767 1.30421 0
M  V30 1882 C 183.055 0.499164 1.95426 0
M  V30 1883 C 183.368 -0.95645 1.70621 0
M  V30 1884 O 184.574 -1.44889 2.29607 0
M  V30 1885 C 183.03 0.84177 3.49917 0
M  V30 1886 C 182.638 2.31514 3.83543 0
M  V30 1887 C 184.382 0.525355 4.21237 0
M  V30 1888 C 182.289 2.59939 5.31212 0
M  V30 1889 H 181.219 0.182944 0.73147 0
M  V30 1890 H 183.87 1.07971 1.48373 0
M  V30 1891 H 182.252 0.190311 3.95542 0
M  V30 1892 H 183.426 3.0109 3.48829 0
M  V30 1893 H 181.741 2.59907 3.25326 0
M  V30 1894 H 184.338 0.714762 5.29901 0
M  V30 1895 H 184.681 -0.535222 4.12845 0
M  V30 1896 H 185.214 1.134 3.81294 0
M  V30 1897 H 181.953 3.64736 5.44654 0
M  V30 1898 H 181.473 1.94972 5.67227 0
M  V30 1899 H 183.152 2.45429 5.98643 0
M  V30 1900 N 183.284 -1.43765 0.645699 0
M  V30 1901 C 184.514 -2.05953 0.163318 0
M  V30 1902 C 184.922 -1.48432 -1.17322 0
M  V30 1903 O 184.265 -0.607295 -1.73371 0
M  V30 1904 C 184.327 -3.59499 -0.0103065 0
M  V30 1905 C 183.991 -4.39563 1.25035 0
M  V30 1906 C 184.988 -4.72108 2.17739 0
M  V30 1907 C 182.673 -4.79697 1.48983 0
M  V30 1908 C 184.667 -5.43688 3.3269 0
M  V30 1909 C 182.354 -5.51023 2.64229 0
M  V30 1910 C 183.352 -5.8294 3.55908 0
M  V30 1911 O 183.04 -6.5281 4.69142 0
M  V30 1912 H 182.772 -0.670798 0.0836986 0
M  V30 1913 H 185.326 -1.85384 0.884407 0
M  V30 1914 H 183.556 -3.78613 -0.78669 0
M  V30 1915 H 185.245 -4.03408 -0.449087 0
M  V30 1916 H 186.011 -4.41627 2.00476 0
M  V30 1917 H 181.89 -4.54266 0.785078 0
M  V30 1918 H 185.434 -5.68517 4.04269 0
M  V30 1919 H 181.331 -5.8092 2.81429 0
M  V30 1920 H 182.099 -6.71288 4.6831 0
M  V30 1921 N 184.763 -0.387143 -1.52771 0
M  V30 1922 C 185.988 0.198407 -2.06449 0
M  V30 1923 C 186.413 1.39918 -1.25716 0
M  V30 1924 O 185.771 1.79099 -0.281657 0
M  V30 1925 C 185.819 0.548893 -3.56398 0
M  V30 1926 O 184.923 1.64315 -3.78252 0
M  V30 1927 H 184.264 0.0237731 -0.663574 0
M  V30 1928 H 186.794 -0.553989 -1.96957 0
M  V30 1929 H 186.804 0.813812 -3.99801 0
M  V30 1930 H 185.479 -0.329005 -4.14597 0
M  V30 1931 H 184.056 1.37211 -3.46738 0
M  V30 1932 N 186.241 1.57166 -0.116904 0
M  V30 1933 C 187.657 1.5779 0.239693 0
M  V30 1934 C 187.857 1.1295 1.66867 0
M  V30 1935 O 186.913 0.81592 2.38954 0
M  V30 1936 C 188.226 3.00699 0.00828202 0
M  V30 1937 C 189.774 3.12912 0.0743438 0
M  V30 1938 C 190.249 4.57817 -0.129348 0
M  V30 1939 N 191.74 4.63139 -0.075247 0
M  V30 1940 C 192.475 5.73023 -0.207788 0
M  V30 1941 N 191.971 6.91665 -0.396382 0
M  V30 1942 N 193.764 5.61906 -0.14751 0
M  V30 1943 H 185.915 1.84615 -1.05029 0
M  V30 1944 H 188.178 0.85311 -0.41341 0
M  V30 1945 H 187.884 3.37784 -0.979531 0
M  V30 1946 H 187.758 3.69848 0.741077 0
M  V30 1947 H 190.145 2.75686 1.05268 0
M  V30 1948 H 190.226 2.4631 -0.690297 0
M  V30 1949 H 189.87 4.95742 -1.10465 0
M  V30 1950 H 189.8 5.22507 0.655253 0
M  V30 1951 H 192.291 3.7784 0.0670898 0
M  V30 1952 H 192.604 7.71255 -0.488437 0
M  V30 1953 H 190.949 6.93654 -0.432329 0
M  V30 1954 H 194.14 4.681 -0.00115036 0
M  V30 1955 H 194.313 6.47501 -0.254247 0
M  V30 1956 N 187.719 -0.156864 1.56817 0
M  V30 1957 C 188.996 -0.899244 1.73704 0
M  V30 1958 C 189.376 -1.99771 0.682254 0
M  V30 1959 O 188.724 -2.26515 -0.300522 0
M  V30 1960 C 188.934 -1.45075 3.17418 0
M  V30 1961 C 190.282 -1.91802 3.7881 0
M  V30 1962 O 191.306 -1.54838 3.20786 0
M  V30 1963 O 190.165 -2.5994 4.80722 0
M  V30 1964 H 187.259 -0.424267 0.709878 0
M  V30 1965 H 189.805 -0.143561 1.69092 0
M  V30 1966 H 188.577 -0.660846 3.85679 0
M  V30 1967 H 188.2 -2.27021 3.26416 0
M  V30 1968 N 189.197 -1.51736 -0.425897 0
M  V30 1969 C 190.16 -1.73271 -1.50032 0
M  V30 1970 C 191.16 -0.602639 -1.4908 0
M  V30 1971 O 192.35 -0.87033 -1.509 0
M  V30 1972 C 189.482 -1.79969 -2.89523 0
M  V30 1973 H 190.675 -2.69172 -1.32237 0
M  V30 1974 H 188.228 -1.41899 -0.65532 0
M  V30 1975 H 188.963 -0.859241 -3.1271 0
M  V30 1976 H 188.748 -2.62109 -2.91619 0
M  V30 1977 H 190.238 -1.9843 -3.67444 0
M  V30 1978 N 190.675 0.682077 -1.42076 0
M  V30 1979 C 191.924 1.43786 -1.41451 0
M  V30 1980 C 192.237 1.95574 -0.0317074 0
M  V30 1981 O 193.443 2.71326 0.0971462 0
M  V30 1982 C 191.899 2.60071 -2.48779 0
M  V30 1983 C 191.507 2.15013 -3.93031 0
M  V30 1984 C 193.251 3.37626 -2.57311 0
M  V30 1985 C 191.158 3.28336 -4.91883 0
M  V30 1986 H 190.088 0.540143 -0.526082 0
M  V30 1987 H 192.739 0.739157 -1.67955 0
M  V30 1988 H 191.121 3.32275 -2.15429 0
M  V30 1989 H 192.295 1.5001 -4.35699 0
M  V30 1990 H 190.61 1.50416 -3.88284 0
M  V30 1991 H 193.207 4.22012 -3.28345 0
M  V30 1992 H 193.55 3.83727 -1.61429 0
M  V30 1993 H 194.083 2.72488 -2.89819 0
M  V30 1994 H 190.822 2.87234 -5.89217 0
M  V30 1995 H 190.342 3.92145 -4.53853 0
M  V30 1996 H 192.021 3.93913 -5.13265 0
M  V30 1997 N 192.153 1.28127 0.917671 0
M  V30 1998 C 193.083 1.14248 2.03641 0
M  V30 1999 C 194.064 0.0412748 1.7005 0
M  V30 2000 O 195.249 0.217566 1.92977 0
M  V30 2001 C 192.379 0.799431 3.37974 0
M  V30 2002 C 191.333 1.85497 3.85713 0
M  V30 2003 C 190.659 1.36565 5.16966 0
M  V30 2004 C 191.959 3.26085 4.08002 0
M  V30 2005 H 193.653 2.07835 2.15511 0
M  V30 2006 H 191.199 1.00064 1.03553 0
M  V30 2007 H 193.152 0.689114 4.15727 0
M  V30 2008 H 191.876 -0.172145 3.26146 0
M  V30 2009 H 190.535 1.95437 3.10161 0
M  V30 2010 H 190.183 0.383253 5.01538 0
M  V30 2011 H 189.883 2.07143 5.49878 0
M  V30 2012 H 191.407 1.26848 5.97279 0
M  V30 2013 H 192.821 3.19089 4.76293 0
M  V30 2014 H 191.218 3.94462 4.52238 0
M  V30 2015 H 192.288 3.70394 3.12948 0
M  V30 2016 N 193.631 -1.12557 1.10312 0
M  V30 2017 C 194.581 -2.16331 0.720076 0
M  V30 2018 C 195.565 -1.58616 -0.270115 0
M  V30 2019 O 196.757 -1.76823 -0.0790507 0
M  V30 2020 C 193.886 -3.42963 0.152113 0
M  V30 2021 C 192.972 -4.07663 1.16927 0
M  V30 2022 N 193.363 -4.47392 2.35953 0
M  V30 2023 C 191.661 -4.34425 1.0095 0
M  V30 2024 C 192.362 -4.97932 3.0073 0
M  V30 2025 N 191.338 -4.93358 2.28252 0
M  V30 2026 H 195.14 -2.44813 1.62616 0
M  V30 2027 H 192.654 -1.29449 0.980654 0
M  V30 2028 H 194.651 -4.16664 -0.14037 0
M  V30 2029 H 193.311 -3.1595 -0.748701 0
M  V30 2030 H 194.322 -4.39802 2.73486 0
M  V30 2031 H 190.999 -4.17177 0.164134 0
M  V30 2032 H 192.389 -5.38397 4.01969 0
M  V30 2033 N 195.109 -0.891671 -1.2995 0
M  V30 2034 C 196.039 -0.379797 -2.30391 0
M  V30 2035 C 197.02 0.540919 -1.6127 0
M  V30 2036 O 198.205 0.453352 -1.88834 0
M  V30 2037 C 195.335 0.400654 -3.44981 0
M  V30 2038 C 194.289 -0.428905 -4.25846 0
M  V30 2039 C 193.615 0.478557 -5.32554 0
M  V30 2040 C 194.915 -1.67458 -4.94727 0
M  V30 2041 H 196.609 -1.21914 -2.73454 0
M  V30 2042 H 194.155 -0.587675 -1.31462 0
M  V30 2043 H 196.108 0.769434 -4.14316 0
M  V30 2044 H 194.832 1.27371 -3.0074 0
M  V30 2045 H 193.491 -0.779911 -3.58208 0
M  V30 2046 H 193.139 1.34951 -4.84559 0
M  V30 2047 H 192.839 -0.0727433 -5.87555 0
M  V30 2048 H 194.363 0.843705 -6.04743 0
M  V30 2049 H 195.777 -1.376 -5.56542 0
M  V30 2050 H 194.174 -2.16659 -5.59624 0
M  V30 2051 H 195.244 -2.41518 -4.20473 0
M  V30 2052 N 196.587 1.43421 -0.653314 0
M  V30 2053 C 197.812 2.06678 -0.172846 0
M  V30 2054 C 198.237 1.48648 1.15262 0
M  V30 2055 O 197.595 0.596457 1.71208 0
M  V30 2056 C 197.643 3.60474 -0.0953184 0
M  V30 2057 O 196.747 4.01487 0.942442 0
M  V30 2058 H 196.088 0.657181 -0.0949155 0
M  V30 2059 H 198.618 1.83925 -0.896265 0
M  V30 2060 H 198.628 4.07905 0.0879728 0
M  V30 2061 H 197.303 4.02088 -1.06291 0
M  V30 2062 H 195.88 3.65646 0.731932 0
M  V30 2063 N 198.065 0.39524 1.52563 0
M  V30 2064 C 198.995 -0.428384 2.29537 0
M  V30 2065 C 199.976 -1.05831 1.33169 0
M  V30 2066 O 201.161 -1.06995 1.62067 0
M  V30 2067 C 198.291 -1.55274 3.10656 0
M  V30 2068 C 197.245 -1.04855 4.14957 0
M  V30 2069 C 196.571 -2.26543 4.84337 0
M  V30 2070 C 197.871 -0.112324 5.22179 0
M  V30 2071 H 199.565 0.213867 2.98635 0
M  V30 2072 H 197.111 0.104298 1.43622 0
M  V30 2073 H 199.064 -2.1358 3.63265 0
M  V30 2074 H 197.788 -2.22266 2.39302 0
M  V30 2075 H 196.447 -0.487985 3.63338 0
M  V30 2076 H 196.095 -2.92059 4.09525 0
M  V30 2077 H 195.795 -1.93466 5.54837 0
M  V30 2078 H 197.319 -2.85481 5.39753 0
M  V30 2079 H 198.733 -0.603752 5.70112 0
M  V30 2080 H 197.13 0.128968 5.99961 0
M  V30 2081 H 198.2 0.837052 4.77621 0
M  V30 2082 N 199.544 -1.57102 0.125237 0
M  V30 2083 C 200.454 -2.19191 -0.8362 0
M  V30 2084 C 201.47 -1.16985 -1.28805 0
M  V30 2085 O 202.646 -1.49479 -1.34974 0
M  V30 2086 C 199.711 -2.78407 -2.06617 0
M  V30 2087 C 198.772 -3.9567 -1.66565 0
M  V30 2088 C 198.005 -4.52052 -2.83698 0
M  V30 2089 O 198.228 -4.07326 -3.99302 0
M  V30 2090 O 197.162 -5.42645 -2.60423 0
M  V30 2091 H 200.988 -3.01816 -0.337776 0
M  V30 2092 H 198.573 -1.4906 -0.100695 0
M  V30 2093 H 200.455 -3.16129 -2.7864 0
M  V30 2094 H 199.13 -1.9881 -2.55453 0
M  V30 2095 H 198.037 -3.62705 -0.916296 0
M  V30 2096 H 199.37 -4.76722 -1.22464 0
M  V30 2097 N 201.022 0.148545 -1.56898 0
M  V30 2098 C 201.97 1.20265 -1.99096 0
M  V30 2099 C 202.964 1.44559 -0.883123 0
M  V30 2100 O 204.17 1.4487 -1.0683 0
M  V30 2101 H 200.545 0.404786 -0.63376 0
M  V30 2102 H 202.516 0.82004 -2.86911 0
M  V30 2103 C 201.265 2.52886 -2.3863 0
M  V30 2104 H 200.588 2.35021 -3.23427 0
M  V30 2105 H 202.028 3.25274 -2.7198 0
M  V30 2106 C 200.487 3.13315 -1.23837 0
M  V30 2107 O 201.017 3.98077 -0.538268 0
M  V30 2108 N 199.223 2.72742 -1.00301 0
M  V30 2109 H 198.77 2.03912 -1.5741 0
M  V30 2110 H 198.728 3.13507 -0.236838 0
M  V30 2111 N 202.5 1.5196 0.417844 0
M  V30 2112 C 203.447 1.74678 1.50852 0
M  V30 2113 C 204.417 0.588947 1.55308 0
M  V30 2114 O 205.602 0.825544 1.72016 0
M  V30 2115 C 202.742 1.89544 2.88387 0
M  V30 2116 C 201.855 3.17166 2.93309 0
M  V30 2117 C 200.99 3.22513 4.22088 0
M  V30 2118 C 200.029 4.44372 4.20951 0
M  V30 2119 N 199.166 4.47161 5.41287 0
M  V30 2120 H 204.006 2.67768 1.30783 0
M  V30 2121 H 201.543 1.32689 0.63498 0
M  V30 2122 H 203.501 1.96146 3.68216 0
M  V30 2123 H 202.131 0.998424 3.06971 0
M  V30 2124 H 201.183 3.19778 2.06024 0
M  V30 2125 H 202.495 4.07021 2.88332 0
M  V30 2126 H 201.649 3.28139 5.10303 0
M  V30 2127 H 200.388 2.30581 4.29748 0
M  V30 2128 H 199.393 4.38902 3.31127 0
M  V30 2129 H 200.618 5.3759 4.14938 0
M  V30 2130 H 198.564 3.58108 5.49632 0
M  V30 2131 H 198.481 5.3085 5.3827 0
M  V30 2132 H 199.749 4.57005 6.3148 0
M  V30 2133 N 203.978 -0.674533 1.42435 0
M  V30 2134 C 204.926 -1.80934 1.46169 0
M  V30 2135 C 205.92 -1.66006 0.3374 0
M  V30 2136 O 207.126 -1.72611 0.510425 0
M  V30 2137 H 203.501 -0.596594 0.457798 0
M  V30 2138 H 205.472 -1.74903 2.41767 0
M  V30 2139 C 204.221 -3.19088 1.38123 0
M  V30 2140 H 203.544 -3.31203 2.23931 0
M  V30 2141 H 204.984 -3.9851 1.44797 0
M  V30 2142 C 203.443 -3.36763 0.0960517 0
M  V30 2143 O 203.973 -3.92581 -0.851073 0
M  V30 2144 N 202.179 -2.90597 0.0131186 0
M  V30 2145 H 201.726 -2.45359 0.784639 0
M  V30 2146 H 201.684 -3.028 -0.846133 0
M  V30 2147 N 205.456 -1.28612 -0.910864 0
M  V30 2148 C 206.403 -1.12786 -2.01365 0
M  V30 2149 C 207.373 -0.024201 -1.66082 0
M  V30 2150 O 208.558 -0.189667 -1.89855 0
M  V30 2151 C 205.698 -0.798743 -3.35729 0
M  V30 2152 C 204.811 -1.98173 -3.83864 0
M  V30 2153 C 203.946 -1.59298 -5.06752 0
M  V30 2154 C 202.985 -2.74245 -5.47226 0
M  V30 2155 N 202.122 -2.35842 -6.61304 0
M  V30 2156 H 206.962 -2.07142 -2.14234 0
M  V30 2157 H 204.499 -1.03093 -1.0493 0
M  V30 2158 H 206.457 -0.588662 -4.13026 0
M  V30 2159 H 205.087 0.10789 -3.2262 0
M  V30 2160 H 204.139 -2.30386 -3.02699 0
M  V30 2161 H 205.451 -2.84343 -4.09818 0
M  V30 2162 H 204.605 -1.34513 -5.916 0
M  V30 2163 H 203.344 -0.702618 -4.82612 0
M  V30 2164 H 202.349 -2.99725 -4.60918 0
M  V30 2165 H 203.574 -3.63928 -5.73353 0
M  V30 2166 H 201.52 -1.49279 -6.38789 0
M  V30 2167 H 201.437 -3.15546 -6.86998 0
M  V30 2168 H 202.705 -2.14348 -7.4945 0
M  V30 2169 N 206.934 1.1197 -1.10907 0
M  V30 2170 C 207.864 2.19928 -0.784473 0
M  V30 2171 C 208.845 1.6833 0.244726 0
M  V30 2172 O 210.03 1.93892 0.109418 0
M  V30 2173 C 207.16 3.46597 -0.220827 0
M  V30 2174 C 206.114 4.11376 -1.18127 0
M  V30 2175 C 205.44 5.32554 -0.478594 0
M  V30 2176 C 206.74 4.56945 -2.52979 0
M  V30 2177 H 208.434 2.47337 -1.68715 0
M  V30 2178 H 205.98 1.18879 -0.812642 0
M  V30 2179 H 207.933 4.21396 0.0184278 0
M  V30 2180 H 206.657 3.1863 0.717113 0
M  V30 2181 H 205.316 3.38564 -1.40606 0
M  V30 2182 H 204.964 5.00856 0.463976 0
M  V30 2183 H 204.664 5.76844 -1.11912 0
M  V30 2184 H 206.188 6.10096 -0.248 0
M  V30 2185 H 207.602 5.23093 -2.3462 0
M  V30 2186 H 205.999 5.1203 -3.12962 0
M  V30 2187 H 207.069 3.70676 -3.12614 0
M  V30 2188 N 208.412 0.89855 1.29475 0
M  V30 2189 C 209.659 0.523882 1.95606 0
M  V30 2190 C 209.987 -0.929608 1.70847 0
M  V30 2191 O 209.242 -1.67401 1.01367 0
M  V30 2192 C 209.541 0.761398 3.49195 0
M  V30 2193 C 209.207 2.19207 3.94029 0
M  V30 2194 C 207.869 2.58326 4.05982 0
M  V30 2195 C 210.221 3.12379 4.17216 0
M  V30 2196 C 207.549 3.898 4.38489 0
M  V30 2197 C 209.901 4.43401 4.51197 0
M  V30 2198 C 208.565 4.82394 4.61359 0
M  V30 2199 H 207.835 0.191702 0.715773 0
M  V30 2200 H 210.482 1.13699 1.54094 0
M  V30 2201 H 208.787 0.0653622 3.91745 0
M  V30 2202 H 210.484 0.450904 3.98457 0
M  V30 2203 H 207.074 1.87846 3.85242 0
M  V30 2204 H 211.258 2.83371 4.07449 0
M  V30 2205 H 206.514 4.19734 4.44559 0
M  V30 2206 H 210.688 5.15623 4.68087 0
M  V30 2207 H 208.315 5.84306 4.86303 0
M  V30 2208 N 209.89 -1.43072 0.660911 0
M  V30 2209 C 210.822 -2.29108 -0.0647641 0
M  V30 2210 C 211.835 -1.42928 -0.779448 0
M  V30 2211 O 213.024 -1.66788 -0.635921 0
M  V30 2212 C 210.124 -3.20032 -1.11503 0
M  V30 2213 C 209.297 -4.34792 -0.476955 0
M  V30 2214 C 208.356 -5.06534 -1.42513 0
M  V30 2215 O 207.382 -5.61538 -0.930771 0
M  V30 2216 N 208.584 -5.1075 -2.75889 0
M  V30 2217 H 211.349 -2.92029 0.673731 0
M  V30 2218 H 208.91 -1.53846 0.50427 0
M  V30 2219 H 210.902 -3.64892 -1.75032 0
M  V30 2220 H 209.472 -2.58658 -1.75541 0
M  V30 2221 H 208.692 -3.92752 0.337572 0
M  V30 2222 H 209.98 -5.0879 -0.0318525 0
M  V30 2223 H 209.378 -4.67447 -3.18606 0
M  V30 2224 H 207.935 -5.59302 -3.347 0
M  V30 2225 N 211.368 -0.403325 -1.52352 0
M  V30 2226 C 212.315 0.425011 -2.26853 0
M  V30 2227 C 213.285 1.04598 -1.29029 0
M  V30 2228 O 214.47 1.07135 -1.57882 0
M  V30 2229 C 211.61 1.53888 -3.08889 0
M  V30 2230 C 210.723 0.939396 -4.21663 0
M  V30 2231 C 209.858 2.02547 -4.91068 0
M  V30 2232 C 208.897 1.40263 -5.95813 0
M  V30 2233 N 208.034 2.4286 -6.58759 0
M  V30 2234 H 212.874 -0.21674 -2.97211 0
M  V30 2235 H 210.411 -0.118722 -1.4662 0
M  V30 2236 H 212.369 2.19558 -3.54753 0
M  V30 2237 H 210.999 2.15074 -2.40714 0
M  V30 2238 H 210.051 0.171898 -3.80011 0
M  V30 2239 H 211.363 0.44436 -4.96817 0
M  V30 2240 H 210.517 2.75958 -5.40308 0
M  V30 2241 H 209.256 2.55415 -4.15469 0
M  V30 2242 H 208.261 0.653833 -5.45898 0
M  V30 2243 H 209.486 0.881719 -6.73352 0
M  V30 2244 H 207.432 2.94871 -5.85992 0
M  V30 2245 H 207.349 1.98152 -7.2957 0
M  V30 2246 H 208.617 3.15858 -7.12639 0
M  V30 2247 N 212.846 1.57033 -0.133567 0
M  V30 2248 C 214.086 1.97575 0.523789 0
M  V30 2249 C 214.45 1.01605 1.62912 0
M  V30 2250 O 215.651 1.3114 2.3464 0
M  V30 2251 C 213.922 3.42256 1.02935 0
M  V30 2252 S 215.481 4.04817 1.69319 0
M  V30 2253 H 212.299 0.690427 0.169799 0
M  V30 2254 H 214.901 1.94234 -0.222101 0
M  V30 2255 H 213.605 4.09842 0.213917 0
M  V30 2256 H 213.136 3.4928 1.81017 0
M  V30 2257 H 215.151 3.96767 2.97977 0
M  V30 2258 N 214.325 -0.140222 1.56975 0
M  V30 2259 C 215.555 -0.865181 1.87612 0
M  V30 2260 C 215.963 -1.74942 0.72055 0
M  V30 2261 O 215.306 -1.80917 -0.318561 0
M  V30 2262 C 215.368 -1.76782 3.13031 0
M  V30 2263 C 215.032 -1.06005 4.44536 0
M  V30 2264 C 216.029 -0.410768 5.18275 0
M  V30 2265 C 213.714 -1.04754 4.91255 0
M  V30 2266 C 215.708 0.241572 6.36942 0
M  V30 2267 C 213.395 -0.391394 6.09845 0
M  V30 2268 C 214.393 0.252029 6.82535 0
M  V30 2269 O 214.081 0.897757 7.98871 0
M  V30 2270 H 213.813 -0.255188 0.625983 0
M  V30 2271 H 216.367 -0.135653 2.04952 0
M  V30 2272 H 214.597 -2.53846 2.91718 0
M  V30 2273 H 216.286 -2.36533 3.29859 0
M  V30 2274 H 217.052 -0.412195 4.83245 0
M  V30 2275 H 212.931 -1.53777 4.34596 0
M  V30 2276 H 216.475 0.744375 6.93617 0
M  V30 2277 H 212.372 -0.387656 6.44335 0
M  V30 2278 H 213.14 0.800102 8.1458 0
M  V30 2279 N 215.803 -1.52179 -0.40978 0
M  V30 2280 C 216.75 -1.75475 -1.49924 0
M  V30 2281 C 217.72 -0.597175 -1.54994 0
M  V30 2282 O 218.905 -0.834655 -1.71575 0
M  V30 2283 C 216.045 -1.9107 -2.87378 0
M  V30 2284 C 215.158 -3.18717 -2.91622 0
M  V30 2285 C 214.293 -3.24747 -4.20372 0
M  V30 2286 C 213.332 -4.46598 -4.18588 0
M  V30 2287 N 212.469 -4.50025 -5.38908 0
M  V30 2288 H 217.309 -2.68458 -1.29361 0
M  V30 2289 H 214.846 -1.33024 -0.627934 0
M  V30 2290 H 216.804 -1.98096 -3.6717 0
M  V30 2291 H 215.434 -1.01469 -3.06437 0
M  V30 2292 H 214.486 -3.20866 -2.04326 0
M  V30 2293 H 215.798 -4.08544 -2.86169 0
M  V30 2294 H 214.952 -3.30841 -5.08556 0
M  V30 2295 H 213.691 -2.32857 -4.28519 0
M  V30 2296 H 212.696 -4.40652 -3.28794 0
M  V30 2297 H 213.921 -5.39783 -4.12081 0
M  V30 2298 H 211.867 -3.61017 -5.47725 0
M  V30 2299 H 211.784 -5.33697 -5.35447 0
M  V30 2300 H 213.052 -4.60347 -6.29048 0
M  V30 2301 N 217.281 0.66697 -1.42791 0
M  V30 2302 C 218.527 1.42754 -1.44889 0
M  V30 2303 C 218.882 1.92283 -0.0669755 0
M  V30 2304 O 218.175 1.68494 0.912154 0
M  V30 2305 C 218.369 2.6349 -2.4147 0
M  V30 2306 C 218.198 2.25776 -3.88915 0
M  V30 2307 C 216.968 2.1476 -4.57391 0
M  V30 2308 C 219.166 1.86927 -4.79127 0
M  V30 2309 N 217.148 1.70232 -5.89826 0
M  V30 2310 C 218.519 1.53378 -6.00729 0
M  V30 2311 C 220.574 1.73989 -4.66511 0
M  V30 2312 C 219.277 1.08187 -7.11117 0
M  V30 2313 C 221.303 1.30203 -5.76889 0
M  V30 2314 C 220.665 0.975818 -6.97608 0
M  V30 2315 H 216.764 0.518559 -0.585338 0
M  V30 2316 H 219.348 0.768906 -1.78874 0
M  V30 2317 H 217.519 3.27033 -2.09533 0
M  V30 2318 H 219.251 3.30123 -2.34096 0
M  V30 2319 H 216.006 2.3408 -4.11708 0
M  V30 2320 H 216.43 1.50369 -6.6009 0
M  V30 2321 H 221.072 1.97853 -3.7365 0
M  V30 2322 H 218.79 0.830701 -8.03819 0
M  V30 2323 H 222.376 1.20701 -5.69142 0
M  V30 2324 H 221.256 0.642157 -7.81566 0
M  V30 2325 N 218.759 1.29093 0.90403 0
M  V30 2326 C 219.689 1.16401 2.02418 0
M  V30 2327 C 220.67 0.0593085 1.69997 0
M  V30 2328 O 221.855 0.238021 1.92736 0
M  V30 2329 C 218.985 0.835233 3.37107 0
M  V30 2330 C 217.939 1.89578 3.83724 0
M  V30 2331 C 217.265 1.42041 5.15489 0
M  V30 2332 C 218.565 3.30394 4.04521 0
M  V30 2333 H 220.259 2.10109 2.13295 0
M  V30 2334 H 217.805 1.01157 1.02486 0
M  V30 2335 H 219.758 0.733169 4.14973 0
M  V30 2336 H 218.482 -0.137543 3.2631 0
M  V30 2337 H 217.141 1.98715 3.08071 0
M  V30 2338 H 216.789 0.436426 5.01103 0
M  V30 2339 H 216.489 2.12964 5.4765 0
M  V30 2340 H 218.013 1.33176 5.959 0
M  V30 2341 H 219.427 3.24123 4.72882 0
M  V30 2342 H 217.824 3.99237 4.48029 0
M  V30 2343 H 218.894 3.73692 3.09002 0
M  V30 2344 N 220.237 -1.11381 1.11499 0
M  V30 2345 C 221.184 -2.17439 0.773887 0
M  V30 2346 C 222.154 -1.64132 -0.254899 0
M  V30 2347 O 223.339 -1.90345 -0.13168 0
M  V30 2348 C 220.479 -3.44373 0.223917 0
M  V30 2349 C 219.592 -4.1168 1.30934 0
M  V30 2350 C 218.727 -5.263 0.71984 0
M  V30 2351 C 217.766 -5.85493 1.78507 0
M  V30 2352 N 216.903 -6.91507 1.21502 0
M  V30 2353 H 221.743 -2.45962 1.68246 0
M  V30 2354 H 219.28 -1.20744 0.840191 0
M  V30 2355 H 221.238 -4.17047 -0.112921 0
M  V30 2356 H 219.868 -3.16232 -0.647851 0
M  V30 2357 H 218.92 -3.37073 1.76312 0
M  V30 2358 H 220.232 -4.51729 2.11524 0
M  V30 2359 H 219.386 -6.05785 0.333094 0
M  V30 2360 H 218.125 -4.87559 -0.117377 0
M  V30 2361 H 217.13 -5.04686 2.18111 0
M  V30 2362 H 218.355 -6.26301 2.62533 0
M  V30 2363 H 216.301 -6.54783 0.399455 0
M  V30 2364 H 216.218 -7.30214 1.95763 0
M  V30 2365 H 217.486 -7.74795 0.855181 0
M  V30 2366 N 221.715 -0.905404 -1.28997 0
M  V30 2367 C 223.126 -0.581953 -1.77398 0
M  V30 2368 C 223.477 0.902552 -1.74208 0
M  V30 2369 O 222.602 1.70584 -1.33154 0
M  V30 2370 C 223.197 -1.04961 -3.22131 0
M  V30 2371 C 221.756 -0.777229 -3.68288 0
M  V30 2372 C 220.903 -1.22109 -2.48967 0
M  V30 2373 H 223.854 -1.08754 -1.15578 0
M  V30 2374 H 223.875 -0.387387 -3.78523 0
M  V30 2375 H 223.387 -2.13008 -3.24421 0
M  V30 2376 H 221.488 0.290383 -3.71467 0
M  V30 2377 H 221.601 -1.37911 -4.58822 0
M  V30 2378 H 219.965 -0.639971 -2.46529 0
M  V30 2379 H 220.748 -2.30972 -2.53982 0
M  V30 2380 N 223.193 1.4272 -0.668489 0
M  V30 2381 C 224.421 2.05966 -0.196348 0
M  V30 2382 C 224.836 1.50191 1.14403 0
M  V30 2383 O 224.193 0.639208 1.7094 0
M  V30 2384 C 224.244 3.61314 -0.115815 0
M  V30 2385 O 223.965 4.1502 -1.40322 0
M  V30 2386 C 225.466 4.41663 0.380579 0
M  V30 2387 H 222.686 0.663954 -0.0969829 0
M  V30 2388 H 225.23 1.82966 -0.913446 0
M  V30 2389 H 223.385 3.83448 0.551931 0
M  V30 2390 H 223.799 5.08832 -1.27243 0
M  V30 2391 H 225.273 5.5065 0.385848 0
M  V30 2392 H 225.75 4.15792 1.41471 0
M  V30 2393 H 226.356 4.24534 -0.255209 0
M  V30 2394 N 224.671 0.411399 1.52136 0
M  V30 2395 C 225.919 -0.163322 2.01439 0
M  V30 2396 C 226.24 -1.45453 1.29879 0
M  V30 2397 O 225.51 -1.91225 0.4254 0
M  V30 2398 H 224.09 -0.0633447 0.744309 0
M  V30 2399 H 226.752 0.548161 1.87033 0
M  V30 2400 H 225.848 -0.357817 3.10042 0
M  V30 2401 N 226.149 -1.5696 0.141893 0
M  V30 2402 C 227.377 -2.00322 -0.517579 0
M  V30 2403 C 227.792 -1.02193 -1.58752 0
M  V30 2404 O 227.149 -0.0181619 -1.82491 0
M  V30 2405 C 227.2 -3.43618 -1.12289 0
M  V30 2406 O 226.921 -4.37995 -0.0956929 0
M  V30 2407 C 228.422 -4.02231 -1.86347 0
M  V30 2408 H 225.642 -0.657243 -0.135177 0
M  V30 2409 H 228.186 -2.03146 0.234973 0
M  V30 2410 H 226.341 -3.41662 -1.82609 0
M  V30 2411 H 226.755 -5.21729 -0.538469 0
M  V30 2412 H 228.229 -5.04509 -2.23997 0
M  V30 2413 H 228.706 -3.42655 -2.74744 0
M  V30 2414 H 229.312 -4.07802 -1.20737 0
M  V30 2415 N 227.627 0.131896 -1.57047 0
M  V30 2416 C 228.557 1.16384 -2.02428 0
M  V30 2417 C 229.538 1.43936 -0.90644 0
M  V30 2418 O 230.723 1.54599 -1.17528 0
M  V30 2419 C 227.853 2.49328 -2.4177 0
M  V30 2420 C 226.807 2.36266 -3.56879 0
M  V30 2421 C 226.133 3.74057 -3.8208 0
M  V30 2422 C 227.433 1.834 -4.89042 0
M  V30 2423 H 229.127 0.786433 -2.88887 0
M  V30 2424 H 226.673 0.376855 -1.38981 0
M  V30 2425 H 228.626 3.21759 -2.7212 0
M  V30 2426 H 227.35 2.88934 -1.52266 0
M  V30 2427 H 226.009 1.66286 -3.26718 0
M  V30 2428 H 225.657 4.11125 -2.89803 0
M  V30 2429 H 225.357 3.66174 -4.59554 0
M  V30 2430 H 226.881 4.48012 -4.1487 0
M  V30 2431 H 228.295 2.45636 -5.18011 0
M  V30 2432 H 226.692 1.8637 -5.70426 0
M  V30 2433 H 227.762 0.790662 -4.7841 0
M  V30 2434 N 229.106 1.52395 0.401703 0
M  V30 2435 C 230.036 1.79231 1.49661 0
M  V30 2436 C 231.017 0.643654 1.57452 0
M  V30 2437 O 232.202 0.889989 1.72606 0
M  V30 2438 C 229.332 1.94971 2.87409 0
M  V30 2439 C 228.286 3.10604 2.94465 0
M  V30 2440 C 227.612 3.11577 4.34538 0
M  V30 2441 C 228.912 4.49921 2.6527 0
M  V30 2442 H 230.606 2.70917 1.27454 0
M  V30 2443 H 228.152 1.30362 0.6117 0
M  V30 2444 H 230.105 2.12328 3.63999 0
M  V30 2445 H 228.829 0.999632 3.10926 0
M  V30 2446 H 227.488 2.93009 2.20321 0
M  V30 2447 H 227.136 2.14277 4.55076 0
M  V30 2448 H 226.836 3.89247 4.40183 0
M  V30 2449 H 228.36 3.31073 5.13053 0
M  V30 2450 H 229.774 4.67683 3.31581 0
M  V30 2451 H 228.171 5.29564 2.82281 0
M  V30 2452 H 229.241 4.57507 1.60671 0
M  V30 2453 N 230.584 -0.659388 1.43143 0
M  V30 2454 C 231.833 -1.41518 1.43721 0
M  V30 2455 C 232.146 -1.95499 0.0628176 0
M  V30 2456 O 233.352 -2.71446 -0.0539683 0
M  V30 2457 C 231.808 -2.5608 2.52885 0
M  V30 2458 C 231.416 -2.08733 3.96402 0
M  V30 2459 C 233.16 -3.3349 2.62649 0
M  V30 2460 C 231.067 -3.20469 4.97045 0
M  V30 2461 H 229.997 -0.531705 0.534608 0
M  V30 2462 H 232.648 -0.712343 1.69109 0
M  V30 2463 H 231.03 -3.28805 2.20688 0
M  V30 2464 H 232.204 -1.43059 4.3803 0
M  V30 2465 H 230.519 -1.44219 3.90627 0
M  V30 2466 H 233.116 -4.16734 3.35017 0
M  V30 2467 H 233.459 -3.8111 1.67513 0
M  V30 2468 H 233.992 -2.67842 2.94118 0
M  V30 2469 H 230.731 -2.77824 5.93712 0
M  V30 2470 H 230.251 -3.84874 4.60034 0
M  V30 2471 H 231.93 -3.85698 5.19467 0
M  V30 2472 N 232.062 -1.29571 -0.897171 0
M  V30 2473 C 233.29 -1.20583 -1.68129 0
M  V30 2474 C 233.705 0.233181 -1.87354 0
M  V30 2475 O 233.062 1.15579 -1.41236 0
M  V30 2476 C 233.113 -1.91772 -3.06441 0
M  V30 2477 O 232.834 -3.30053 -2.88091 0
M  V30 2478 C 234.335 -1.89291 -4.00854 0
M  V30 2479 H 231.555 -0.417826 -0.525036 0
M  V30 2480 H 234.099 -1.70987 -1.12177 0
M  V30 2481 H 232.254 -1.45196 -3.59161 0
M  V30 2482 H 232.668 -3.65942 -3.75748 0
M  V30 2483 H 234.142 -2.43662 -4.95311 0
M  V30 2484 H 234.619 -0.869014 -4.30517 0
M  V30 2485 H 235.225 -2.35622 -3.54066 0
M  V30 2486 N 233.54 1.10788 -1.12088 0
M  V30 2487 C 234.817 1.79136 -0.785476 0
M  V30 2488 C 235.197 1.98246 0.725377 0
M  V30 2489 O 234.545 1.57258 1.65778 0
M  V30 2490 C 234.755 3.12375 -1.55636 0
M  V30 2491 C 236.103 3.8731 -1.74001 0
M  V30 2492 O 237.127 3.22085 -1.52117 0
M  V30 2493 O 235.986 5.04369 -2.10415 0
M  V30 2494 H 233.08 0.776226 -0.285311 0
M  V30 2495 H 235.626 1.1747 -1.2247 0
M  V30 2496 H 234.398 2.93863 -2.5838 0
M  V30 2497 H 234.021 3.81758 -1.11114 0
M  V30 2498 N 235.018 0.912232 1.28515 0
M  V30 2499 C 236.248 0.559604 1.98877 0
M  V30 2500 C 236.656 -0.863113 1.68366 0
M  V30 2501 O 235.999 -1.58304 0.931969 0
M  V30 2502 C 236.061 0.68703 3.52874 0
M  V30 2503 C 235.725 2.07901 4.06972 0
M  V30 2504 C 236.722 3.05157 4.20922 0
M  V30 2505 C 234.407 2.39178 4.417 0
M  V30 2506 C 236.401 4.31806 4.68852 0
M  V30 2507 C 234.088 3.66068 4.89324 0
M  V30 2508 C 235.086 4.62195 5.02856 0
M  V30 2509 O 234.774 5.86829 5.49442 0
M  V30 2510 H 234.506 0.212191 0.641834 0
M  V30 2511 H 237.06 1.22712 1.64715 0
M  V30 2512 H 235.29 -0.0375486 3.86682 0
M  V30 2513 H 236.979 0.341727 4.04459 0
M  V30 2514 H 237.745 2.82311 3.94367 0
M  V30 2515 H 233.624 1.65109 4.30418 0
M  V30 2516 H 237.168 5.06842 4.79329 0
M  V30 2517 H 233.065 3.88739 5.15318 0
M  V30 2518 H 233.833 5.89597 5.6773 0
M  V30 2519 N 236.496 -1.42363 0.676048 0
M  V30 2520 C 237.736 -2.03392 0.20273 0
M  V30 2521 C 238.1 -1.52306 -1.16906 0
M  V30 2522 O 239.301 -2.05129 -1.73711 0
M  V30 2523 C 237.572 -3.56614 0.236947 0
M  V30 2524 S 239.131 -4.38489 -0.165186 0
M  V30 2525 H 235.949 -0.70611 0.0832418 0
M  V30 2526 H 238.551 -1.74093 0.88948 0
M  V30 2527 H 237.255 -3.91293 1.23767 0
M  V30 2528 H 236.786 -3.90587 -0.469596 0
M  V30 2529 H 238.801 -4.76093 -1.39822 0
M  V30 2530 N 237.974 -0.419461 -1.51915 0
M  V30 2531 C 238.937 0.389116 -2.25873 0
M  V30 2532 C 239.937 0.964924 -1.28631 0
M  V30 2533 O 241.127 0.842179 -1.52489 0
M  V30 2534 C 238.259 1.54874 -3.03689 0
M  V30 2535 H 239.452 -0.258799 -2.98781 0
M  V30 2536 H 237.005 -0.172209 -1.55348 0
M  V30 2537 H 237.74 2.23323 -2.35154 0
M  V30 2538 H 237.525 1.14223 -3.75094 0
M  V30 2539 H 239.015 2.12046 -3.59759 0
M  V30 2540 N 239.452 1.56882 -0.150215 0
M  V30 2541 C 240.68 2.00593 0.506948 0
M  V30 2542 C 241.095 1.03033 1.58208 0
M  V30 2543 O 240.452 0.0278396 1.82479 0
M  V30 2544 C 240.503 3.44209 1.10465 0
M  V30 2545 O 240.224 4.3804 0.0724636 0
M  V30 2546 C 241.725 4.03214 1.84211 0
M  V30 2547 H 238.945 0.65795 0.13169 0
M  V30 2548 H 241.489 2.03018 -0.245743 0
M  V30 2549 H 239.644 3.42625 1.80795 0
M  V30 2550 H 240.058 5.22007 0.510793 0
M  V30 2551 H 241.532 5.0569 2.21318 0
M  V30 2552 H 242.009 3.44107 2.72923 0
M  V30 2553 H 242.615 4.08437 1.18572 0
M  V30 2554 N 240.93 -0.123565 1.57115 0
M  V30 2555 C 241.84 -1.17074 2.033 0
M  V30 2556 C 242.856 -1.4561 0.952559 0
M  V30 2557 O 244.032 -1.56817 1.26374 0
M  V30 2558 C 241.097 -2.47857 2.42421 0
M  V30 2559 C 240.158 -2.26758 3.64526 0
M  V30 2560 C 239.391 -3.51305 4.01771 0
M  V30 2561 O 239.614 -4.5843 3.39409 0
M  V30 2562 O 238.548 -3.42578 4.94898 0
M  V30 2563 H 242.374 -0.808555 2.92739 0
M  V30 2564 H 239.959 -0.334027 1.45618 0
M  V30 2565 H 241.841 -3.2492 2.68338 0
M  V30 2566 H 240.516 -2.83558 1.5613 0
M  V30 2567 H 239.423 -1.47569 3.43765 0
M  V30 2568 H 240.756 -1.95963 4.51508 0
M  V30 2569 N 242.408 -1.52605 -0.393616 0
M  V30 2570 C 243.355 -1.77055 -1.48054 0
M  V30 2571 C 244.325 -0.61358 -1.54352 0
M  V30 2572 O 245.51 -0.852806 -1.70681 0
M  V30 2573 C 242.65 -1.94108 -2.85335 0
M  V30 2574 C 241.763 -3.21792 -2.88226 0
M  V30 2575 C 240.898 -3.29188 -4.16904 0
M  V30 2576 C 239.937 -4.51013 -4.13828 0
M  V30 2577 N 239.074 -4.55716 -5.34105 0
M  V30 2578 H 243.914 -2.69815 -1.26506 0
M  V30 2579 H 241.451 -1.33683 -0.61379 0
M  V30 2580 H 243.409 -2.01979 -3.65049 0
M  V30 2581 H 242.039 -1.04713 -3.05344 0
M  V30 2582 H 241.091 -3.23015 -2.00911 0
M  V30 2583 H 242.403 -4.11557 -2.8182 0
M  V30 2584 H 241.557 -3.36216 -5.05018 0
M  V30 2585 H 240.296 -2.37389 -4.26026 0
M  V30 2586 H 239.301 -4.44115 -3.24102 0
M  V30 2587 H 240.526 -5.44123 -4.06333 0
M  V30 2588 H 238.472 -3.66807 -5.43865 0
M  V30 2589 H 238.389 -5.39346 -5.29756 0
M  V30 2590 H 239.657 -4.66993 -6.2413 0
M  V30 2591 N 243.887 0.651787 -1.4349 0
M  V30 2592 C 244.797 1.79368 -1.5121 0
M  V30 2593 C 245.813 1.69361 -0.399093 0
M  V30 2594 O 246.989 1.90505 -0.653431 0
M  V30 2595 C 244.054 3.15653 -1.43401 0
M  V30 2596 C 243.115 3.37446 -2.65384 0
M  V30 2597 C 242.348 4.67229 -2.57939 0
M  V30 2598 O 242.571 5.46676 -1.62792 0
M  V30 2599 O 241.505 4.90773 -3.48462 0
M  V30 2600 H 245.331 1.7581 -2.47638 0
M  V30 2601 H 242.916 0.810447 -1.25507 0
M  V30 2602 H 244.798 3.96935 -1.41494 0
M  V30 2603 H 243.473 3.19798 -0.501085 0
M  V30 2604 H 242.38 2.55923 -2.72863 0
M  V30 2605 H 243.713 3.38148 -3.57654 0
M  V30 2606 N 245.365 1.30045 0.890287 0
M  V30 2607 C 246.313 1.15873 2.01683 0
M  V30 2608 C 247.307 0.0719403 1.69247 0
M  V30 2609 O 248.513 0.232414 1.78493 0
M  V30 2610 H 244.888 0.358203 0.661207 0
M  V30 2611 H 246.859 2.11229 2.10772 0
M  V30 2612 C 245.608 0.861842 3.36849 0
M  V30 2613 H 244.931 1.69016 3.62317 0
M  V30 2614 H 246.371 0.802762 4.16331 0
M  V30 2615 C 244.83 -0.435132 3.34078 0
M  V30 2616 O 245.36 -1.4583 3.74295 0
M  V30 2617 N 243.566 -0.444377 2.87182 0
M  V30 2618 H 243.113 0.388723 2.5465 0
M  V30 2619 H 243.071 -1.31213 2.85711 0
M  V30 2620 N 246.843 -1.10192 1.12674 0
M  V30 2621 C 248.089 -1.82658 0.894847 0
M  V30 2622 C 248.444 -1.83666 -0.573107 0
M  V30 2623 O 247.737 -1.28816 -1.41835 0
M  V30 2624 C 247.931 -3.28552 1.4067 0
M  V30 2625 C 247.76 -3.41756 2.92289 0
M  V30 2626 C 246.53 -3.54021 3.60551 0
M  V30 2627 C 248.728 -3.34949 3.90274 0
M  V30 2628 N 246.71 -3.55827 5.0026 0
M  V30 2629 C 248.081 -3.43531 5.16127 0
M  V30 2630 C 250.136 -3.18565 3.8265 0
M  V30 2631 C 248.839 -3.37416 6.3525 0
M  V30 2632 C 250.865 -3.13772 5.01299 0
M  V30 2633 C 250.227 -3.22938 6.26012 0
M  V30 2634 H 246.326 -0.683044 0.380756 0
M  V30 2635 H 248.91 -1.31752 1.43351 0
M  V30 2636 H 247.081 -3.77946 0.895055 0
M  V30 2637 H 248.813 -3.88991 1.11661 0
M  V30 2638 H 245.568 -3.57135 3.1105 0
M  V30 2639 H 245.992 -3.60335 5.73138 0
M  V30 2640 H 250.634 -3.10354 2.87124 0
M  V30 2641 H 248.352 -3.44391 7.3104 0
M  V30 2642 H 251.938 -3.02242 4.97133 0
M  V30 2643 H 250.818 -3.19235 7.16281 0
M  V30 2644 N 248.321 -0.919034 -1.28029 0
M  V30 2645 C 249.598 -0.473668 -1.89778 0
M  V30 2646 C 249.978 1.04783 -1.83259 0
M  V30 2647 O 249.326 1.8982 -1.27202 0
M  V30 2648 C 249.536 -1.00998 -3.34066 0
M  V30 2649 C 250.884 -1.06525 -4.1102 0
M  V30 2650 O 251.908 -0.958996 -3.43048 0
M  V30 2651 O 250.767 -1.22776 -5.3253 0
M  V30 2652 H 247.861 -0.15098 -0.813101 0
M  V30 2653 H 250.407 -1.01016 -1.36359 0
M  V30 2654 H 249.179 -2.05392 -3.33061 0
M  V30 2655 H 248.802 -0.454626 -3.94992 0
M  V30 2656 N 249.799 1.42003 -0.683588 0
M  V30 2657 C 251.076 1.95112 -0.138075 0
M  V30 2658 C 251.456 1.62359 1.34918 0
M  V30 2659 O 250.804 0.924311 2.08971 0
M  V30 2660 C 251.014 3.46505 -0.416581 0
M  V30 2661 C 252.362 4.23254 -0.337834 0
M  V30 2662 O 253.386 3.54468 -0.35082 0
M  V30 2663 O 252.245 5.45743 -0.287596 0
M  V30 2664 H 249.339 0.826961 -0.00797996 0
M  V30 2665 H 251.885 1.51784 -0.758924 0
M  V30 2666 H 250.657 3.63582 -1.4465 0
M  V30 2667 H 250.28 3.969 0.235839 0
M  V30 2668 N 251.277 0.427512 1.51691 0
M  V30 2669 C 252.187 -0.39527 2.31246 0
M  V30 2670 C 253.203 -1.03674 1.39742 0
M  V30 2671 O 254.379 -1.03425 1.72816 0
M  V30 2672 C 251.444 -1.48706 3.13189 0
M  V30 2673 C 250.505 -0.866743 4.20459 0
M  V30 2674 C 249.738 -1.90651 4.98486 0
M  V30 2675 O 249.961 -3.12733 4.77026 0
M  V30 2676 O 248.895 -1.5025 5.82845 0
M  V30 2677 H 252.721 0.253918 3.02637 0
M  V30 2678 H 250.306 0.190274 1.48183 0
M  V30 2679 H 252.188 -2.12047 3.64162 0
M  V30 2680 H 250.863 -2.12051 2.44573 0
M  V30 2681 H 249.77 -0.195544 3.73589 0
M  V30 2682 H 251.103 -0.276934 4.9142 0
M  V30 2683 N 252.755 -1.56801 0.158532 0
M  V30 2684 C 254.002 -1.9649 -0.489679 0
M  V30 2685 C 254.33 -1.04394 -1.6411 0
M  V30 2686 O 253.585 -0.0754401 -1.95555 0
M  V30 2687 C 253.884 -3.4235 -1.02623 0
M  V30 2688 C 253.55 -4.50899 0.00794526 0
M  V30 2689 C 252.212 -4.80312 0.292207 0
M  V30 2690 C 254.564 -5.16333 0.710584 0
M  V30 2691 C 251.892 -5.72461 1.28472 0
M  V30 2692 C 254.244 -6.09553 1.69199 0
M  V30 2693 C 252.908 -6.37339 1.98383 0
M  V30 2694 H 252.178 -0.719009 -0.179186 0
M  V30 2695 H 254.825 -1.8989 0.247798 0
M  V30 2696 H 253.13 -3.45838 -1.84128 0
M  V30 2697 H 254.827 -3.70393 -1.53656 0
M  V30 2698 H 251.417 -4.28015 -0.22379 0
M  V30 2699 H 255.601 -4.93732 0.504174 0
M  V30 2700 H 250.857 -5.92278 1.51714 0
M  V30 2701 H 255.031 -6.59327 2.24189 0
M  V30 2702 H 252.658 -7.08546 2.7544 0
M  V30 2703 N 254.233 0.115231 -1.57178 0
M  V30 2704 C 255.18 1.14115 -2.00615 0
M  V30 2705 C 256.15 1.40939 -0.878941 0
M  V30 2706 O 257.335 1.52741 -1.14345 0
M  V30 2707 C 254.475 2.46156 -2.4187 0
M  V30 2708 C 253.588 2.26236 -3.68024 0
M  V30 2709 C 252.723 3.51534 -3.98243 0
M  V30 2710 C 251.762 3.26787 -5.17568 0
M  V30 2711 N 250.899 4.44298 -5.43639 0
M  V30 2712 H 255.739 0.763743 -2.88047 0
M  V30 2713 H 253.276 0.365615 -1.42484 0
M  V30 2714 H 255.234 3.23189 -2.63827 0
M  V30 2715 H 253.864 2.81783 -1.57475 0
M  V30 2716 H 252.916 1.40102 -3.5366 0
M  V30 2717 H 254.228 2.03929 -4.55208 0
M  V30 2718 H 253.382 4.36984 -4.20868 0
M  V30 2719 H 252.121 3.76876 -3.09541 0
M  V30 2720 H 251.126 2.39729 -4.94783 0
M  V30 2721 H 252.351 3.02812 -6.0785 0
M  V30 2722 H 250.297 4.69754 -4.57895 0
M  V30 2723 H 250.214 4.25109 -6.25154 0
M  V30 2724 H 251.482 5.3087 -5.70786 0
M  V30 2725 N 255.711 1.52812 0.385517 0
M  V30 2726 C 256.621 1.80766 1.49535 0
M  V30 2727 C 257.637 0.694651 1.59532 0
M  V30 2728 O 258.813 0.982611 1.75803 0
M  V30 2729 C 255.878 1.97381 2.85029 0
M  V30 2730 C 254.939 3.21295 2.84724 0
M  V30 2731 C 254.172 3.37108 4.13756 0
M  V30 2732 O 254.395 2.5765 5.08893 0
M  V30 2733 O 253.329 4.30378 4.20783 0
M  V30 2734 H 257.155 2.75015 1.28842 0
M  V30 2735 H 254.74 1.37946 0.573697 0
M  V30 2736 H 256.622 2.09996 3.65349 0
M  V30 2737 H 255.297 1.06322 3.05741 0
M  V30 2738 H 254.204 3.1412 2.03174 0
M  V30 2739 H 255.537 4.12212 2.68965 0
M  V30 2740 N 257.189 -0.644168 1.43834 0
M  V30 2741 C 258.419 -1.42939 1.49171 0
M  V30 2742 C 258.827 -1.88874 0.111048 0
M  V30 2743 O 258.17 -1.60656 -0.8908 0
M  V30 2744 C 258.232 -2.69151 2.38324 0
M  V30 2745 C 257.896 -2.45097 3.85715 0
M  V30 2746 C 258.893 -2.07747 4.76589 0
M  V30 2747 C 256.578 -2.59141 4.30292 0
M  V30 2748 C 258.572 -1.8475 6.10038 0
M  V30 2749 C 256.259 -2.35759 5.63792 0
M  V30 2750 C 257.257 -1.9862 6.53482 0
M  V30 2751 O 256.945 -1.75489 7.84512 0
M  V30 2752 H 256.677 -0.445271 0.508635 0
M  V30 2753 H 259.231 -0.79621 1.8934 0
M  V30 2754 H 257.461 -3.3506 1.93058 0
M  V30 2755 H 259.15 -3.31123 2.3476 0
M  V30 2756 H 259.916 -1.96465 4.43426 0
M  V30 2757 H 255.795 -2.87022 3.60749 0
M  V30 2758 H 259.339 -1.55686 6.80006 0
M  V30 2759 H 255.236 -2.46646 5.9652 0
M  V30 2760 H 256.004 -1.89841 7.9618 0
M  V30 2761 N 258.668 -1.30515 -0.883378 0
M  V30 2762 C 259.914 -1.19607 -1.63774 0
M  V30 2763 C 260.247 0.248314 -1.92606 0
M  V30 2764 O 259.522 1.17742 -1.54813 0
M  V30 2765 C 259.805 -2.02669 -2.97653 0
M  V30 2766 C 259.658 -3.55335 -2.75784 0
M  V30 2767 C 260.977 -1.86573 -3.98596 0
M  V30 2768 H 258.096 -0.435856 -0.594305 0
M  V30 2769 H 260.738 -1.60165 -1.02212 0
M  V30 2770 H 258.888 -1.68208 -3.50197 0
M  V30 2771 H 260.56 -3.99863 -2.30016 0
M  V30 2772 H 258.803 -3.79438 -2.1026 0
M  V30 2773 H 259.474 -4.08745 -3.70988 0
M  V30 2774 H 261.95 -2.16703 -3.55217 0
M  V30 2775 H 260.826 -2.47014 -4.90179 0
M  V30 2776 H 261.087 -0.825321 -4.34328 0
M  V30 2777 N 260.146 1.09593 -1.13257 0
M  V30 2778 C 261.093 2.1618 -0.808381 0
M  V30 2779 C 262.063 1.64517 0.228754 0
M  V30 2780 O 263.248 1.9053 0.101381 0
M  V30 2781 C 260.388 3.43973 -0.278675 0
M  V30 2782 C 259.501 4.09545 -1.37466 0
M  V30 2783 C 258.636 5.25088 -0.803479 0
M  V30 2784 C 257.675 5.82579 -1.87799 0
M  V30 2785 N 256.812 6.89486 -1.32488 0
M  V30 2786 H 261.652 2.43254 -1.72138 0
M  V30 2787 H 259.189 1.19392 -0.859294 0
M  V30 2788 H 261.147 4.17174 0.0465583 0
M  V30 2789 H 259.777 3.17223 0.597459 0
M  V30 2790 H 258.829 3.34226 -1.81652 0
M  V30 2791 H 260.141 4.48307 -2.18684 0
M  V30 2792 H 259.295 6.05178 -0.429427 0
M  V30 2793 H 258.034 4.87684 0.0397956 0
M  V30 2794 H 257.039 5.01152 -2.26113 0
M  V30 2795 H 258.264 6.22045 -2.72463 0
M  V30 2796 H 256.21 6.54064 -0.503575 0
M  V30 2797 H 256.127 7.27007 -2.07355 0
M  V30 2798 H 257.395 7.73336 -0.978336 0
M  V30 2799 N 261.624 0.925811 1.2754 0
M  V30 2800 C 262.556 0.380753 2.26015 0
M  V30 2801 C 263.569 -0.487485 1.5533 0
M  V30 2802 O 264.758 -0.300413 1.75954 0
M  V30 2803 C 261.858 -0.473259 3.35579 0
M  V30 2804 C 261.031 0.375249 4.35787 0
M  V30 2805 C 260.09 -0.415809 5.24555 0
M  V30 2806 O 259.116 0.175834 5.68928 0
M  V30 2807 N 260.318 -1.71607 5.54555 0
M  V30 2808 H 263.083 1.22725 2.73421 0
M  V30 2809 H 260.644 0.793037 1.41147 0
M  V30 2810 H 262.636 -1.00949 3.91907 0
M  V30 2811 H 261.206 -1.2205 2.87789 0
M  V30 2812 H 260.426 1.09279 3.7875 0
M  V30 2813 H 261.714 0.955399 4.99749 0
M  V30 2814 H 261.112 -2.2191 5.20358 0
M  V30 2815 H 259.669 -2.19887 6.1359 0
M  V30 2816 N 263.102 -1.41638 0.69111 0
M  V30 2817 C 264.518 -1.55435 0.362224 0
M  V30 2818 C 264.718 -1.66754 -1.13117 0
M  V30 2819 O 263.774 -1.64348 -1.91692 0
M  V30 2820 C 265.087 -2.79588 1.10684 0
M  V30 2821 C 266.635 -2.9338 1.09075 0
M  V30 2822 C 267.11 -4.20414 1.81703 0
M  V30 2823 N 268.601 -4.27362 1.7865 0
M  V30 2824 C 269.336 -5.24507 2.31689 0
M  V30 2825 N 268.832 -6.27708 2.93179 0
M  V30 2826 N 270.625 -5.16416 2.2197 0
M  V30 2827 H 262.776 -1.32536 1.65976 0
M  V30 2828 H 265.039 -0.639115 0.700168 0
M  V30 2829 H 264.745 -2.77419 2.16175 0
M  V30 2830 H 264.619 -3.70973 0.682545 0
M  V30 2831 H 267.006 -2.95067 0.0441238 0
M  V30 2832 H 267.087 -2.0318 1.55407 0
M  V30 2833 H 266.731 -4.19488 2.86343 0
M  V30 2834 H 266.661 -5.09578 1.32808 0
M  V30 2835 H 269.152 -3.53415 1.33815 0
M  V30 2836 H 269.465 -6.98217 3.31229 0
M  V30 2837 H 267.81 -6.28223 2.97255 0
M  V30 2838 H 271.001 -4.34716 1.73607 0
M  V30 2839 H 271.174 -5.91958 2.63609 0
M  V30 2840 N 264.58 -0.43555 -1.51462 0
M  V30 2841 C 265.527 0.376797 -2.27703 0
M  V30 2842 C 266.497 1.01838 -1.31219 0
M  V30 2843 O 267.682 1.03762 -1.60119 0
M  V30 2844 C 264.822 1.47301 -3.12084 0
M  V30 2845 C 263.935 0.849744 -4.2356 0
M  V30 2846 C 263.07 1.92086 -4.95254 0
M  V30 2847 C 262.109 1.27593 -5.98654 0
M  V30 2848 N 261.246 2.28833 -6.63762 0
M  V30 2849 H 266.086 -0.279734 -2.96684 0
M  V30 2850 H 263.623 -0.149795 -1.46335 0
M  V30 2851 H 265.581 2.11984 -3.59331 0
M  V30 2852 H 264.211 2.0992 -2.45221 0
M  V30 2853 H 263.263 0.0912529 -3.80291 0
M  V30 2854 H 264.575 0.338878 -4.97648 0
M  V30 2855 H 263.729 2.64435 -5.46039 0
M  V30 2856 H 262.468 2.46545 -4.20793 0
M  V30 2857 H 261.473 0.537893 -5.47162 0
M  V30 2858 H 262.698 0.738693 -6.7507 0
M  V30 2859 H 260.644 2.82375 -5.92115 0
M  V30 2860 H 260.561 1.82632 -7.33608 0
M  V30 2861 H 261.829 3.00671 -7.19178 0
M  V30 2862 N 266.058 1.56714 -0.166846 0
M  V30 2863 C 267.288 2.00828 0.48494 0
M  V30 2864 C 267.696 1.04612 1.57648 0
M  V30 2865 O 267.039 0.0383201 1.8366 0
M  V30 2866 C 267.101 3.4137 1.12723 0
M  V30 2867 C 266.765 4.56654 0.177886 0
M  V30 2868 C 267.762 5.16402 -0.60207 0
M  V30 2869 C 265.447 5.02244 0.0750139 0
M  V30 2870 C 267.441 6.20167 -1.47215 0
M  V30 2871 C 265.128 6.05859 -0.798649 0
M  V30 2872 C 266.126 6.64691 -1.57082 0
M  V30 2873 O 265.814 7.66297 -2.42989 0
M  V30 2874 H 265.546 0.663587 0.128953 0
M  V30 2875 H 268.1 2.03692 -0.264365 0
M  V30 2876 H 266.33 3.35406 1.92457 0
M  V30 2877 H 268.019 3.69466 1.68076 0
M  V30 2878 H 268.785 4.82065 -0.53274 0
M  V30 2879 H 264.664 4.56167 0.665812 0
M  V30 2880 H 268.208 6.66016 -2.07531 0
M  V30 2881 H 264.105 6.39621 -0.869199 0
M  V30 2882 H 264.873 7.83601 -2.36455 0
M  V30 2883 N 267.536 -0.106894 1.57237 0
M  V30 2884 C 268.764 -0.826389 1.8968 0
M  V30 2885 C 269.179 -1.72856 0.759353 0
M  V30 2886 O 268.536 -1.80503 -0.269263 0
M  V30 2887 C 268.587 -1.64967 3.21665 0
M  V30 2888 O 268.308 -0.783804 4.31031 0
M  V30 2889 C 269.809 -2.47326 3.67892 0
M  V30 2890 H 267.029 -0.236927 0.627779 0
M  V30 2891 H 269.573 -0.0876593 2.04312 0
M  V30 2892 H 267.728 -2.34103 3.08666 0
M  V30 2893 H 268.142 -1.35284 5.06753 0
M  V30 2894 H 269.616 -3.00604 4.6297 0
M  V30 2895 H 270.093 -3.25247 2.95146 0
M  V30 2896 H 270.699 -1.83411 3.83719 0
M  V30 2897 N 269.014 -1.53014 -0.377408 0
M  V30 2898 C 269.944 -1.81589 -1.46791 0
M  V30 2899 C 270.925 -0.668622 -1.56408 0
M  V30 2900 O 272.11 -0.917337 -1.71168 0
M  V30 2901 C 269.24 -1.99519 -2.8427 0
M  V30 2902 C 268.194 -3.15249 -2.89486 0
M  V30 2903 C 267.52 -3.18451 -4.29527 0
M  V30 2904 C 268.82 -4.54084 -2.58079 0
M  V30 2905 H 270.514 -2.7291 -1.23127 0
M  V30 2906 H 268.06 -1.31319 -0.590883 0
M  V30 2907 H 270.013 -2.18092 -3.60575 0
M  V30 2908 H 268.737 -1.04897 -3.09296 0
M  V30 2909 H 267.396 -2.96477 -2.15631 0
M  V30 2910 H 267.044 -2.2149 -4.5161 0
M  V30 2911 H 266.744 -3.962 -4.33934 0
M  V30 2912 H 268.268 -3.39193 -5.07721 0
M  V30 2913 H 269.682 -4.72899 -3.24098 0
M  V30 2914 H 268.079 -5.33987 -2.7382 0
M  V30 2915 H 269.149 -4.60006 -1.53372 0
M  V30 2916 N 270.492 0.636531 -1.44174 0
M  V30 2917 C 271.741 1.39213 -1.45954 0
M  V30 2918 C 272.054 1.95374 -0.0939119 0
M  V30 2919 O 273.26 2.71498 0.0107767 0
M  V30 2920 C 271.716 2.52025 -2.56927 0
M  V30 2921 C 271.324 2.024 -3.99673 0
M  V30 2922 C 273.068 3.29269 -2.67922 0
M  V30 2923 C 270.975 3.12521 -5.0208 0
M  V30 2924 H 269.905 0.523132 -0.542999 0
M  V30 2925 H 272.556 0.685349 -1.70221 0
M  V30 2926 H 270.938 3.25253 -2.25891 0
M  V30 2927 H 272.112 1.36073 -4.40251 0
M  V30 2928 H 270.427 1.37987 -3.92872 0
M  V30 2929 H 273.024 4.11352 -3.41605 0
M  V30 2930 H 273.367 3.78397 -1.73555 0
M  V30 2931 H 273.9 2.63129 -2.98342 0
M  V30 2932 H 270.639 2.68343 -5.98057 0
M  V30 2933 H 270.159 3.77507 -4.66099 0
M  V30 2934 H 271.838 3.77385 -5.25538 0
M  V30 2935 N 271.97 1.30982 0.876444 0
M  V30 2936 C 273.198 1.23242 1.6619 0
M  V30 2937 C 273.613 -0.203345 1.87702 0
M  V30 2938 O 272.97 -1.13317 1.43057 0
M  V30 2939 C 273.021 1.96623 3.03351 0
M  V30 2940 O 272.742 3.34594 2.82804 0
M  V30 2941 C 274.243 1.95644 3.97792 0
M  V30 2942 H 271.463 0.426126 0.518322 0
M  V30 2943 H 274.007 1.7275 1.09442 0
M  V30 2944 H 272.162 1.50892 3.56806 0
M  V30 2945 H 272.576 3.71873 3.69879 0
M  V30 2946 H 274.05 2.51511 4.91372 0
M  V30 2947 H 274.527 0.937395 4.2908 0
M  V30 2948 H 275.133 2.41225 3.50272 0
M  V30 2949 N 273.449 -1.08991 1.13837 0
M  V30 2950 C 274.695 -1.81526 0.90422 0
M  V30 2951 C 275.028 -1.85706 -0.568066 0
M  V30 2952 O 274.303 -1.32855 -1.42056 0
M  V30 2953 C 274.586 -3.27447 1.49835 0
M  V30 2954 C 274.439 -3.31512 3.04006 0
M  V30 2955 C 275.758 -4.24256 1.17025 0
M  V30 2956 H 272.877 -0.659029 0.329923 0
M  V30 2957 H 275.519 -1.27644 1.40737 0
M  V30 2958 H 273.669 -3.73462 1.07044 0
M  V30 2959 H 275.341 -2.93867 3.55584 0
M  V30 2960 H 273.584 -2.70963 3.38765 0
M  V30 2961 H 274.255 -4.34329 3.40679 0
M  V30 2962 H 276.731 -3.86549 1.54009 0
M  V30 2963 H 275.607 -5.24684 1.61237 0
M  V30 2964 H 275.868 -4.42019 0.0846274 0
M  V30 2965 N 274.927 -0.932562 -1.27047 0
M  V30 2966 C 275.837 -0.441219 -2.30414 0
M  V30 2967 C 276.853 0.480525 -1.67233 0
M  V30 2968 O 278.029 0.362151 -1.98117 0
M  V30 2969 C 275.094 0.293651 -3.45454 0
M  V30 2970 C 274.155 -0.663601 -4.2414 0
M  V30 2971 C 273.388 0.0362932 -5.33688 0
M  V30 2972 O 273.611 1.2548 -5.56427 0
M  V30 2973 O 272.545 -0.638015 -5.98509 0
M  V30 2974 H 276.371 -1.29962 -2.74488 0
M  V30 2975 H 273.956 -0.6981 -1.32087 0
M  V30 2976 H 275.838 0.707951 -4.15411 0
M  V30 2977 H 274.513 1.12758 -3.03426 0
M  V30 2978 H 273.42 -1.12768 -3.56699 0
M  V30 2979 H 274.753 -1.46489 -4.69896 0
M  V30 2980 N 276.405 1.4127 -0.698611 0
M  V30 2981 C 277.315 2.34573 -0.0357891 0
M  V30 2982 C 278.331 1.56393 0.762701 0
M  V30 2983 O 279.507 1.8886 0.699564 0
M  V30 2984 C 276.572 3.35159 0.887089 0
M  V30 2985 C 275.633 4.29225 0.0804634 0
M  V30 2986 C 274.866 5.25006 0.959387 0
M  V30 2987 O 275.089 5.26314 2.19886 0
M  V30 2988 O 274.023 6.00519 0.407439 0
M  V30 2989 H 277.849 2.92838 -0.804957 0
M  V30 2990 H 275.434 1.42175 -0.458966 0
M  V30 2991 H 277.316 3.9689 1.41621 0
M  V30 2992 H 275.991 2.79333 1.6357 0
M  V30 2993 H 274.898 3.70833 -0.493328 0
M  V30 2994 H 276.231 4.88157 -0.629547 0
M  V30 2995 N 277.883 0.443576 1.51229 0
M  V30 2996 C 279.113 -0.119117 2.06256 0
M  V30 2997 C 279.521 -1.36471 1.31043 0
M  V30 2998 O 278.864 -1.80034 0.365151 0
M  V30 2999 C 278.926 -0.500546 3.55998 0
M  V30 3000 C 278.59 0.639125 4.52509 0
M  V30 3001 C 279.587 1.51311 4.97394 0
M  V30 3002 C 277.272 0.821632 4.95535 0
M  V30 3003 C 279.266 2.55425 5.83984 0
M  V30 3004 C 276.953 1.86603 5.81913 0
M  V30 3005 C 277.951 2.73072 6.26036 0
M  V30 3006 O 277.639 3.75718 7.10698 0
M  V30 3007 H 277.371 -0.00857665 0.675946 0
M  V30 3008 H 279.925 0.623288 1.95715 0
M  V30 3009 H 278.155 -1.29575 3.64345 0
M  V30 3010 H 279.844 -0.995116 3.93513 0
M  V30 3011 H 280.61 1.38367 4.64844 0
M  V30 3012 H 276.489 0.158149 4.60729 0
M  V30 3013 H 280.033 3.22949 6.18344 0
M  V30 3014 H 275.93 1.99564 6.13876 0
M  V30 3015 H 276.698 3.72374 7.2889 0
M  V30 3016 N 279.361 -1.56624 0.175154 0
M  V30 3017 C 280.324 -2.16934 -0.739738 0
M  V30 3018 C 281.324 -1.11842 -1.15533 0
M  V30 3019 O 282.514 -1.37335 -1.07167 0
M  V30 3020 C 279.646 -2.75531 -2.00738 0
M  V30 3021 H 280.839 -2.99131 -0.214639 0
M  V30 3022 H 278.392 -1.56123 -0.0744197 0
M  V30 3023 H 279.127 -1.97078 -2.57548 0
M  V30 3024 H 278.912 -3.52444 -1.71831 0
M  V30 3025 H 280.402 -3.21904 -2.66021 0
M  V30 3026 N 280.839 0.0985539 -1.57292 0
M  V30 3027 C 282.116 0.834155 -1.76921 0
M  V30 3028 C 282.496 1.97101 -0.755928 0
M  V30 3029 O 281.844 2.27474 0.216245 0
M  V30 3030 C 282.054 1.33194 -3.22584 0
M  V30 3031 C 283.402 1.77611 -3.85668 0
M  V30 3032 O 284.426 1.42825 -3.26312 0
M  V30 3033 O 283.285 2.4192 -4.90038 0
M  V30 3034 H 280.379 0.397628 -0.725135 0
M  V30 3035 H 282.925 0.0807044 -1.69508 0
M  V30 3036 H 281.697 0.517248 -3.87866 0
M  V30 3037 H 281.32 2.1475 -3.34616 0
M  V30 3038 N 282.317 1.53212 0.369288 0
M  V30 3039 C 283.566 1.68436 1.10961 0
M  V30 3040 C 283.879 0.440738 1.9057 0
M  V30 3041 O 285.085 0.473446 2.6734 0
M  V30 3042 C 283.541 2.97744 2.0218 0
M  V30 3043 C 283.149 4.29355 1.279 0
M  V30 3044 C 284.893 3.22334 2.76226 0
M  V30 3045 C 282.8 5.49755 2.17999 0
M  V30 3046 H 281.73 0.627568 0.41794 0
M  V30 3047 H 284.381 1.79713 0.370884 0
M  V30 3048 H 282.763 2.8026 2.79768 0
M  V30 3049 H 283.937 4.57458 0.554007 0
M  V30 3050 H 282.252 4.11179 0.657311 0
M  V30 3051 H 284.849 4.09471 3.43857 0
M  V30 3052 H 285.192 2.38238 3.41392 0
M  V30 3053 H 285.725 3.40475 2.05723 0
M  V30 3054 H 282.464 6.36318 1.57417 0
M  V30 3055 H 281.984 5.25937 2.88359 0
M  V30 3056 H 283.663 5.84401 2.77641 0
M  V30 3057 N 283.795 -0.628877 1.44509 0
M  V30 3058 C 284.725 -1.75187 1.54376 0
M  V30 3059 C 285.706 -1.65411 0.396618 0
M  V30 3060 O 286.891 -1.84137 0.617031 0
M  V30 3061 C 284.021 -3.13725 1.48976 0
M  V30 3062 C 282.975 -3.38291 2.62189 0
M  V30 3063 C 282.301 -4.76883 2.41841 0
M  V30 3064 C 283.601 -3.30632 4.04326 0
M  V30 3065 H 285.295 -1.67187 2.48373 0
M  V30 3066 H 282.841 -0.802909 1.19538 0
M  V30 3067 H 284.794 -3.92064 1.54478 0
M  V30 3068 H 283.518 -3.22515 0.514961 0
M  V30 3069 H 282.177 -2.62334 2.56079 0
M  V30 3070 H 281.825 -4.82378 1.42548 0
M  V30 3071 H 281.525 -4.94278 3.17747 0
M  V30 3072 H 283.049 -5.57449 2.49165 0
M  V30 3073 H 284.463 -3.98873 4.11793 0
M  V30 3074 H 282.86 -3.59561 4.80454 0
M  V30 3075 H 283.93 -2.28404 4.27738 0
M  V30 3076 N 285.273 -1.31445 -0.869486 0
M  V30 3077 C 286.501 -1.24122 -1.65534 0
M  V30 3078 C 286.916 0.193387 -1.87807 0
M  V30 3079 O 286.273 1.12557 -1.43656 0
M  V30 3080 C 286.324 -1.98229 -3.02304 0
M  V30 3081 O 286.045 -3.3609 -2.81026 0
M  V30 3082 C 287.546 -1.97751 -3.96749 0
M  V30 3083 H 284.766 -0.428868 -0.516055 0
M  V30 3084 H 287.31 -1.73328 -1.08525 0
M  V30 3085 H 285.465 -1.52782 -3.56001 0
M  V30 3086 H 285.879 -3.7383 -3.67902 0
M  V30 3087 H 287.353 -2.54114 -4.90031 0
M  V30 3088 H 287.83 -0.960137 -4.28577 0
M  V30 3089 H 288.436 -2.43079 -3.48988 0
M  V30 3090 N 286.751 1.08385 -1.14413 0
M  V30 3091 C 287.714 2.13486 -0.834048 0
M  V30 3092 C 288.714 1.59988 0.161418 0
M  V30 3093 O 289.904 1.74071 -0.0669575 0
M  V30 3094 C 287.036 3.4003 -0.243354 0
M  V30 3095 H 288.229 2.42425 -1.7655 0
M  V30 3096 H 285.782 1.24101 -0.950189 0
M  V30 3097 H 286.517 3.16726 0.696807 0
M  V30 3098 H 286.302 3.80157 -0.960367 0
M  V30 3099 H 287.792 4.17577 -0.0436242 0
M  V30 3100 N 288.23 0.939286 1.26551 0
M  V30 3101 C 289.47 0.5933 1.956 0
M  V30 3102 C 289.834 -0.851515 1.72085 0
M  V30 3103 O 291.035 -1.30634 2.34921 0
M  V30 3104 C 289.306 0.923996 3.45249 0
M  V30 3105 S 290.865 0.688269 4.33369 0
M  V30 3106 H 287.683 0.218591 0.676564 0
M  V30 3107 H 290.285 1.2102 1.5354 0
M  V30 3108 H 288.989 1.97297 3.59864 0
M  V30 3109 H 288.52 0.296746 3.92279 0
M  V30 3110 H 290.535 -0.448434 4.9417 0
M  V30 3111 N 289.708 -1.40897 0.706093 0
M  V30 3112 C 290.656 -2.32572 0.0361893 0
M  V30 3113 C 291.65 -1.51532 -0.757266 0
M  V30 3114 O 292.856 -1.67396 -0.661703 0
M  V30 3115 H 289.231 -0.751966 -0.00709935 0
M  V30 3116 H 291.202 -2.86733 0.826249 0
M  V30 3117 C 289.951 -3.36418 -0.87854 0
M  V30 3118 H 289.274 -3.98836 -0.277401 0
M  V30 3119 H 290.714 -4.0308 -1.3154 0
M  V30 3120 C 289.173 -2.71141 -1.99961 0
M  V30 3121 O 289.703 -2.56735 -3.0895 0
M  V30 3122 N 287.909 -2.29671 -1.78043 0
M  V30 3123 H 287.456 -2.41588 -0.894042 0
M  V30 3124 H 287.414 -1.86332 -2.53235 0
M  V30 3125 N 291.186 -0.45159 -1.50991 0
M  V30 3126 C 292.433 0.110074 -2.02201 0
M  V30 3127 C 292.761 1.4146 -1.33489 0
M  V30 3128 O 292.016 1.90617 -0.443125 0
M  V30 3129 C 292.315 0.361728 -3.55565 0
M  V30 3130 C 291.981 -0.858717 -4.42648 0
M  V30 3131 C 290.643 -1.19338 -4.66167 0
M  V30 3132 C 292.995 -1.67221 -4.93646 0
M  V30 3133 C 290.323 -2.34195 -5.37931 0
M  V30 3134 C 292.675 -2.8119 -5.6667 0
M  V30 3135 C 291.339 -3.15094 -5.88449 0
M  V30 3136 H 290.609 0.040279 -0.739904 0
M  V30 3137 H 293.256 -0.601696 -1.81802 0
M  V30 3138 H 291.561 1.15554 -3.74372 0
M  V30 3139 H 293.258 0.80996 -3.92735 0
M  V30 3140 H 289.848 -0.58796 -4.24548 0
M  V30 3141 H 294.032 -1.42686 -4.75347 0
M  V30 3142 H 289.288 -2.6076 -5.53005 0
M  V30 3143 H 293.462 -3.44585 -6.05173 0
M  V30 3144 H 291.089 -4.04204 -6.43835 0
M  V30 3145 N 292.664 1.56529 -0.183458 0
M  V30 3146 C 293.611 2.18546 0.742055 0
M  V30 3147 C 294.581 1.12912 1.2182 0
M  V30 3148 O 295.766 1.41115 1.28418 0
M  V30 3149 C 292.906 2.83977 1.96089 0
M  V30 3150 C 292.019 4.04105 1.52719 0
M  V30 3151 C 291.154 4.57427 2.70063 0
M  V30 3152 C 290.193 5.69938 2.23243 0
M  V30 3153 N 289.33 6.17717 3.33722 0
M  V30 3154 H 294.17 2.97284 0.206432 0
M  V30 3155 H 291.707 1.46823 0.0901571 0
M  V30 3156 H 293.665 3.20077 2.67594 0
M  V30 3157 H 292.295 2.07822 2.47002 0
M  V30 3158 H 291.347 3.73745 0.708436 0
M  V30 3159 H 292.659 4.85513 1.1436 0
M  V30 3160 H 291.813 4.95772 3.49708 0
M  V30 3161 H 290.552 3.75101 3.11689 0
M  V30 3162 H 289.557 5.31133 1.42048 0
M  V30 3163 H 290.782 6.54073 1.82661 0
M  V30 3164 H 288.728 5.38317 3.74902 0
M  V30 3165 H 288.645 6.94146 2.99495 0
M  V30 3166 H 289.913 6.60713 4.13616 0
M  V30 3167 N 294.142 -0.090211 1.57342 0
M  V30 3168 C 295.09 -1.12792 2.03422 0
M  V30 3169 C 296.084 -1.41182 0.936166 0
M  V30 3170 O 297.29 -1.40805 1.12133 0
M  V30 3171 H 293.665 -0.380986 0.648347 0
M  V30 3172 H 295.636 -0.71299 2.89757 0
M  V30 3173 C 294.385 -2.43855 2.47851 0
M  V30 3174 H 293.708 -2.22855 3.31927 0
M  V30 3175 H 295.148 -3.14955 2.83865 0
M  V30 3176 C 293.607 -3.08503 1.3538 0
M  V30 3177 O 294.137 -3.95805 0.685641 0
M  V30 3178 N 292.343 -2.68831 1.10355 0
M  V30 3179 H 291.89 -1.97929 1.64869 0
M  V30 3180 H 291.848 -3.12412 0.353031 0
M  V30 3181 N 295.62 -1.53406 -0.361157 0
M  V30 3182 C 296.866 -1.70054 -1.10496 0
M  V30 3183 C 297.199 -0.453278 -1.88836 0
M  V30 3184 O 296.474 0.5495 -1.86576 0
M  V30 3185 C 296.757 -2.95317 -2.06058 0
M  V30 3186 C 296.61 -4.3021 -1.31298 0
M  V30 3187 C 297.929 -3.16193 -3.06121 0
M  V30 3188 H 295.048 -0.618799 -0.400321 0
M  V30 3189 H 297.69 -1.86052 -0.385318 0
M  V30 3190 H 295.84 -2.81809 -2.67425 0
M  V30 3191 H 297.512 -4.55538 -0.726807 0
M  V30 3192 H 295.755 -4.29421 -0.614853 0
M  V30 3193 H 296.426 -5.14 -2.01265 0
M  V30 3194 H 298.902 -3.28916 -2.5486 0
M  V30 3195 H 297.778 -4.05266 -3.70204 0
M  V30 3196 H 298.039 -2.31676 -3.76535 0
M  V30 3197 N 297.098 0.621204 -1.44841 0
M  V30 3198 C 298.344 1.3826 -1.48365 0
M  V30 3199 C 298.677 1.93831 -0.119624 0
M  V30 3200 O 297.952 1.74251 0.864111 0
M  V30 3201 C 298.235 2.54058 -2.55199 0
M  V30 3202 C 298.088 2.03772 -4.00995 0
M  V30 3203 C 299.407 3.56225 -2.58442 0
M  V30 3204 H 296.526 0.501374 -0.540179 0
M  V30 3205 H 299.168 0.7015 -1.76576 0
M  V30 3206 H 297.318 3.12162 -2.31274 0
M  V30 3207 H 298.99 1.50423 -4.36086 0
M  V30 3208 H 297.233 1.34876 -4.12299 0
M  V30 3209 H 297.904 2.87185 -4.71411 0
M  V30 3210 H 300.38 3.07939 -2.79844 0
M  V30 3211 H 299.256 4.34756 -3.3508 0
M  V30 3212 H 299.517 4.10949 -1.63013 0
M  V30 3213 N 298.576 1.31904 0.862503 0
M  V30 3214 C 299.801 1.25135 1.65397 0
M  V30 3215 C 300.226 -0.179 1.87246 0
M  V30 3216 O 299.584 -1.1277 1.4196 0
M  V30 3217 C 299.632 2.00832 2.99498 0
M  V30 3218 O 298.736 1.35075 3.89652 0
M  V30 3219 H 298.077 0.431655 0.504549 0
M  V30 3220 H 300.607 1.74094 1.07483 0
M  V30 3221 H 300.617 2.10709 3.49379 0
M  V30 3222 H 299.292 3.04847 2.82916 0
M  V30 3223 H 297.869 1.33696 3.48109 0
M  V30 3224 N 300.054 -1.07777 1.14986 0
M  V30 3225 C 301.001 -2.14867 0.842672 0
M  V30 3226 C 301.971 -1.6486 -0.202552 0
M  V30 3227 O 303.156 -1.90668 -0.0710568 0
M  V30 3228 C 300.296 -3.43486 0.333363 0
M  V30 3229 C 299.409 -4.07306 1.43965 0
M  V30 3230 C 298.544 -5.23744 0.886914 0
M  V30 3231 C 297.583 -5.79517 1.97043 0
M  V30 3232 N 296.72 -6.87291 1.4344 0
M  V30 3233 H 301.56 -2.40485 1.75986 0
M  V30 3234 H 299.097 -1.1801 0.878179 0
M  V30 3235 H 301.055 -4.17195 0.0198163 0
M  V30 3236 H 299.685 -3.18133 -0.546916 0
M  V30 3237 H 298.737 -3.31293 1.86946 0
M  V30 3238 H 300.049 -4.44771 2.25788 0
M  V30 3239 H 299.203 -6.04419 0.525651 0
M  V30 3240 H 297.942 -4.87685 0.0377957 0
M  V30 3241 H 296.947 -4.97491 2.34057 0
M  V30 3242 H 298.172 -6.17632 2.82325 0
M  V30 3243 H 296.118 -6.5318 0.607567 0
M  V30 3244 H 296.035 -7.23617 2.18895 0
M  V30 3245 H 297.303 -7.71682 1.10124 0
M  V30 3246 N 301.532 -0.945985 -1.26051 0
M  V30 3247 C 302.809 -0.513816 -1.88731 0
M  V30 3248 C 303.189 1.00872 -1.8544 0
M  V30 3249 O 302.537 1.8708 -1.312 0
M  V30 3250 C 302.747 -1.08062 -3.31849 0
M  V30 3251 C 304.095 -1.1522 -4.08668 0
M  V30 3252 O 305.119 -1.03155 -3.40936 0
M  V30 3253 O 303.978 -1.34044 -5.29806 0
M  V30 3254 H 301.072 -0.168193 -0.809716 0
M  V30 3255 H 303.618 -1.03886 -1.34186 0
M  V30 3256 H 302.39 -2.1241 -3.2863 0
M  V30 3257 H 302.013 -0.538307 -3.93939 0
M  V30 3258 N 303.011 1.40521 -0.713556 0
M  V30 3259 C 303.941 2.33381 -0.0743864 0
M  V30 3260 C 304.922 1.52784 0.747735 0
M  V30 3261 O 306.107 1.81258 0.697071 0
M  V30 3262 C 303.237 3.36748 0.849598 0
M  V30 3263 C 302.191 4.27793 0.133247 0
M  V30 3264 C 301.517 5.21679 1.17281 0
M  V30 3265 C 302.817 5.12415 -1.01134 0
M  V30 3266 H 304.511 2.87081 -0.850007 0
M  V30 3267 H 302.057 1.38034 -0.410201 0
M  V30 3268 H 304.01 4.00648 1.30612 0
M  V30 3269 H 302.734 2.81439 1.65709 0
M  V30 3270 H 301.393 3.65342 -0.303426 0
M  V30 3271 H 301.041 4.62677 1.9733 0
M  V30 3272 H 300.741 5.83435 0.698397 0
M  V30 3273 H 302.265 5.88456 1.62947 0
M  V30 3274 H 303.679 5.69781 -0.634274 0
M  V30 3275 H 302.076 5.83203 -1.41399 0
M  V30 3276 H 303.146 4.48514 -1.84292 0
M  V30 3277 N 304.489 0.459591 1.5075 0
M  V30 3278 C 305.714 -0.0996819 2.0716 0
M  V30 3279 C 306.139 -1.33761 1.32249 0
M  V30 3280 O 305.497 -1.77551 0.366786 0
M  V30 3281 C 305.545 -0.378226 3.58611 0
M  V30 3282 O 304.649 -1.46081 3.85661 0
M  V30 3283 H 303.99 0.00791392 0.663953 0
M  V30 3284 H 306.52 0.647329 1.9409 0
M  V30 3285 H 306.53 -0.622135 4.03229 0
M  V30 3286 H 305.205 0.526439 4.12555 0
M  V30 3287 H 303.782 -1.20511 3.5289 0
M  V30 3288 N 305.967 -1.56429 0.191757 0
M  V30 3289 C 307.244 -1.89224 -0.495332 0
M  V30 3290 C 307.624 -1.10478 -1.79883 0
M  V30 3291 O 306.972 -0.204852 -2.2758 0
M  V30 3292 C 307.182 -3.41548 -0.717367 0
M  V30 3293 C 308.53 -4.11711 -1.03823 0
M  V30 3294 O 309.554 -3.4698 -0.805204 0
M  V30 3295 O 308.413 -5.2611 -1.47887 0
M  V30 3296 H 305.507 -0.785788 -0.25781 0
M  V30 3297 H 308.053 -1.68111 0.231721 0
M  V30 3298 H 306.825 -3.90772 0.203287 0
M  V30 3299 H 306.448 -3.68342 -1.497 0
M  V30 3300 N 307.445 0.0818655 -1.57387 0
M  V30 3301 C 308.675 0.794954 -1.90694 0
M  V30 3302 C 309.083 1.72147 -0.784982 0
M  V30 3303 O 308.426 1.81974 0.251196 0
M  V30 3304 C 308.488 1.65042 -3.19376 0
M  V30 3305 C 308.152 0.894337 -4.48164 0
M  V30 3306 C 309.149 0.21813 -5.19442 0
M  V30 3307 C 306.834 0.864495 -4.94805 0
M  V30 3308 C 308.828 -0.477802 -6.35607 0
M  V30 3309 C 306.515 0.164785 -6.10878 0
M  V30 3310 C 307.513 -0.505173 -6.81129 0
M  V30 3311 O 307.201 -1.19363 -7.94989 0
M  V30 3312 H 306.933 0.231779 -0.635023 0
M  V30 3313 H 309.487 0.059493 -2.05314 0
M  V30 3314 H 307.717 2.42844 -3.00938 0
M  V30 3315 H 309.406 2.24127 -3.38411 0
M  V30 3316 H 310.172 0.232558 -4.84442 0
M  V30 3317 H 306.051 1.37542 -4.40004 0
M  V30 3318 H 309.595 -1.00129 -6.90377 0
M  V30 3319 H 305.492 0.148249 -6.4533 0
M  V30 3320 H 306.26 -1.10188 -8.11049 0
M  V30 3321 N 308.923 1.53595 0.353017 0
M  V30 3322 C 310.169 1.71581 1.09232 0
M  V30 3323 C 310.524 0.468328 1.86613 0
M  V30 3324 O 309.817 -0.538911 1.83865 0
M  V30 3325 C 310.011 2.91313 2.07054 0
M  V30 3326 C 309.84 4.27585 1.39287 0
M  V30 3327 C 308.61 4.92233 1.1417 0
M  V30 3328 C 310.808 5.07656 0.824005 0
M  V30 3329 N 308.79 6.124 0.428841 0
M  V30 3330 C 310.161 6.19531 0.241195 0
M  V30 3331 C 312.216 4.92609 0.723922 0
M  V30 3332 C 310.919 7.18002 -0.431952 0
M  V30 3333 C 312.945 5.91365 0.0645334 0
M  V30 3334 C 312.307 7.02571 -0.507347 0
M  V30 3335 H 308.406 0.680987 0.384422 0
M  V30 3336 H 310.99 1.91013 0.377096 0
M  V30 3337 H 309.161 2.73398 2.75877 0
M  V30 3338 H 310.893 2.98062 2.73753 0
M  V30 3339 H 307.648 4.51612 1.42631 0
M  V30 3340 H 308.072 6.76944 0.0874131 0
M  V30 3341 H 312.714 4.06808 1.15181 0
M  V30 3342 H 310.432 8.03384 -0.871758 0
M  V30 3343 H 314.018 5.81799 -0.0121469 0
M  V30 3344 H 312.898 7.77675 -1.0095 0
M  V30 3345 N 310.401 -0.613514 1.45168 0
M  V30 3346 C 311.349 -1.74572 1.53712 0
M  V30 3347 C 312.343 -1.64426 0.407505 0
M  V30 3348 O 313.549 -1.70291 0.583176 0
M  V30 3349 H 309.924 -0.576641 0.48269 0
M  V30 3350 H 311.895 -1.64492 2.48968 0
M  V30 3351 C 310.644 -3.12943 1.51532 0
M  V30 3352 H 309.967 -3.21407 2.37776 0
M  V30 3353 H 311.407 -3.9201 1.61569 0
M  V30 3354 C 309.866 -3.36053 0.238798 0
M  V30 3355 O 310.396 -3.95837 -0.6838 0
M  V30 3356 N 308.602 -2.9028 0.136359 0
M  V30 3357 H 308.149 -2.41811 0.887999 0
M  V30 3358 H 308.107 -3.06116 -0.716944 0
M  V30 3359 N 311.879 -1.3236 -0.855495 0
M  V30 3360 C 312.811 -1.17052 -1.97057 0
M  V30 3361 C 313.824 -0.10574 -1.62456 0
M  V30 3362 O 315.013 -0.354619 -1.74942 0
M  V30 3363 C 312.113 -0.769305 -3.30053 0
M  V30 3364 C 311.286 -1.9222 -3.929 0
M  V30 3365 C 310.345 -1.50466 -5.04228 0
M  V30 3366 O 309.371 -2.21655 -5.24269 0
M  V30 3367 N 310.573 -0.400209 -5.79119 0
M  V30 3368 H 313.338 -2.13103 -2.1073 0
M  V30 3369 H 310.899 -1.24885 -1.0303 0
M  V30 3370 H 312.891 -0.472407 -4.01933 0
M  V30 3371 H 311.461 0.100025 -3.1244 0
M  V30 3372 H 310.681 -2.38563 -3.13817 0
M  V30 3373 H 311.969 -2.69403 -4.31624 0
M  V30 3374 H 311.367 0.192319 -5.65373 0
M  V30 3375 H 309.924 -0.162912 -6.51596 0
M  V30 3376 N 313.357 1.07166 -1.15556 0
M  V30 3377 C 314.287 2.16403 -0.877046 0
M  V30 3378 C 315.268 1.69217 0.173111 0
M  V30 3379 O 316.453 1.94181 0.027084 0
M  V30 3380 C 313.583 3.45349 -0.367632 0
M  V30 3381 C 312.537 4.05995 -1.35468 0
M  V30 3382 C 311.863 5.30045 -0.704038 0
M  V30 3383 C 313.163 4.45804 -2.72132 0
M  V30 3384 H 314.857 2.39959 -1.79053 0
M  V30 3385 H 312.403 1.15325 -0.862331 0
M  V30 3386 H 314.356 4.21095 -0.160317 0
M  V30 3387 H 313.08 3.21385 0.581326 0
M  V30 3388 H 311.739 3.32296 -1.54839 0
M  V30 3389 H 311.387 5.02373 0.251128 0
M  V30 3390 H 311.087 5.71579 -1.36277 0
M  V30 3391 H 312.611 6.08495 -0.50654 0
M  V30 3392 H 314.025 5.12671 -2.56595 0
M  V30 3393 H 312.422 4.98296 -3.34397 0
M  V30 3394 H 313.492 3.57083 -3.28054 0
M  V30 3395 N 314.835 0.952656 1.25548 0
M  V30 3396 C 315.765 0.489287 2.28316 0
M  V30 3397 C 316.746 -0.463359 1.63667 0
M  V30 3398 O 317.931 -0.36274 1.90782 0
M  V30 3399 C 315.061 -0.235603 3.465 0
M  V30 3400 C 314.015 0.631593 4.23314 0
M  V30 3401 C 313.341 -0.223923 5.34231 0
M  V30 3402 C 314.641 1.90871 4.86174 0
M  V30 3403 H 316.335 1.34822 2.67326 0
M  V30 3404 H 313.881 0.649728 1.28509 0
M  V30 3405 H 315.834 -0.570882 4.17515 0
M  V30 3406 H 314.558 -1.12877 3.06474 0
M  V30 3407 H 313.217 0.949929 3.54079 0
M  V30 3408 H 312.865 -1.11678 4.90446 0
M  V30 3409 H 312.565 0.35299 5.86539 0
M  V30 3410 H 314.089 -0.554214 6.0808 0
M  V30 3411 H 315.503 1.63997 5.49343 0
M  V30 3412 H 313.9 2.43112 5.4865 0
M  V30 3413 H 314.97 2.61304 4.08471 0
M  V30 3414 N 316.313 -1.40141 0.720998 0
M  V30 3415 C 317.223 -2.34486 0.0731031 0
M  V30 3416 C 318.239 -1.57587 -0.737723 0
M  V30 3417 O 319.415 -1.89949 -0.669429 0
M  V30 3418 C 316.48 -3.36528 -0.833656 0
M  V30 3419 C 315.541 -4.29298 -0.0121673 0
M  V30 3420 C 314.774 -5.26466 -0.875742 0
M  V30 3421 O 314.997 -5.29745 -2.11485 0
M  V30 3422 O 313.931 -6.01092 -0.31185 0
M  V30 3423 H 317.757 -2.9152 0.851444 0
M  V30 3424 H 315.342 -1.41427 0.481527 0
M  V30 3425 H 317.224 -3.99093 -1.35289 0
M  V30 3426 H 315.899 -2.81899 -1.59105 0
M  V30 3427 H 314.806 -3.70001 0.552262 0
M  V30 3428 H 316.139 -4.87094 0.707129 0
M  V30 3429 N 317.792 -0.46758 -1.50504 0
M  V30 3430 C 319.038 0.0887532 -2.02606 0
M  V30 3431 C 319.371 1.39686 -1.34913 0
M  V30 3432 O 318.646 1.88644 -0.473694 0
M  V30 3433 C 318.929 0.276206 -3.59039 0
M  V30 3434 C 318.782 -1.05267 -4.37309 0
M  V30 3435 C 320.101 1.03235 -4.27821 0
M  V30 3436 H 317.22 0.0307814 -0.736357 0
M  V30 3437 H 319.862 -0.612485 -1.79857 0
M  V30 3438 H 318.012 0.8735 -3.78553 0
M  V30 3439 H 319.684 -1.68628 -4.29374 0
M  V30 3440 H 317.927 -1.65015 -4.01189 0
M  V30 3441 H 318.598 -0.875197 -5.45018 0
M  V30 3442 H 321.074 0.526111 -4.12761 0
M  V30 3443 H 319.95 1.1323 -5.37094 0
M  V30 3444 H 320.211 2.06806 -3.90748 0
M  V30 3445 N 319.27 1.56325 -0.20005 0
M  V30 3446 C 320.18 2.22931 0.730668 0
M  V30 3447 C 321.196 1.22997 1.23076 0
M  V30 3448 O 322.372 1.55748 1.27689 0
M  V30 3449 C 319.437 2.87948 1.93098 0
M  V30 3450 C 318.498 4.03166 1.47497 0
M  V30 3451 C 317.731 4.65073 2.61807 0
M  V30 3452 O 317.954 4.25913 3.79413 0
M  V30 3453 O 316.888 5.54452 2.34237 0
M  V30 3454 H 320.714 3.03084 0.193391 0
M  V30 3455 H 318.299 1.49371 0.0294621 0
M  V30 3456 H 320.181 3.29063 2.6324 0
M  V30 3457 H 318.856 2.10771 2.45677 0
M  V30 3458 H 317.763 3.66664 0.742201 0
M  V30 3459 H 319.096 4.82022 0.995796 0
M  V30 3460 N 320.748 -0.0735177 1.57428 0
M  V30 3461 C 321.698 -1.09442 2.00016 0
M  V30 3462 C 322.682 -1.34575 0.881947 0
M  V30 3463 O 323.874 -1.34905 1.14585 0
M  V30 3464 C 321.003 -2.40865 2.4462 0
M  V30 3465 C 320.089 -2.19014 3.63172 0
M  V30 3466 N 320.48 -1.67087 4.77405 0
M  V30 3467 C 318.778 -2.49494 3.69688 0
M  V30 3468 C 319.479 -1.6001 5.5926 0
M  V30 3469 N 318.455 -2.05999 5.03056 0
M  V30 3470 H 322.257 -0.686227 2.85776 0
M  V30 3471 H 319.771 -0.280617 1.59957 0
M  V30 3472 H 321.768 -3.14763 2.73368 0
M  V30 3473 H 320.428 -2.82403 1.60246 0
M  V30 3474 H 321.439 -1.35975 4.99731 0
M  V30 3475 H 318.116 -2.94409 2.96023 0
M  V30 3476 H 319.506 -1.2073 6.60964 0
M  V30 3477 N 322.226 -1.5378 -0.344866 0
M  V30 3478 C 323.173 -1.81676 -1.42346 0
M  V30 3479 C 324.143 -0.662376 -1.52321 0
M  V30 3480 O 325.328 -0.906675 -1.67881 0
M  V30 3481 C 322.468 -2.03087 -2.79015 0
M  V30 3482 C 321.581 -3.30799 -2.77842 0
M  V30 3483 C 320.716 -3.42285 -4.0622 0
M  V30 3484 C 319.755 -4.6395 -3.9927 0
M  V30 3485 N 318.892 -4.72477 -5.19336 0
M  V30 3486 H 323.732 -2.73703 -1.17858 0
M  V30 3487 H 321.269 -1.35568 -0.570949 0
M  V30 3488 H 323.227 -2.1349 -3.58438 0
M  V30 3489 H 321.857 -1.14375 -3.01858 0
M  V30 3490 H 320.909 -3.29244 -1.90533 0
M  V30 3491 H 322.221 -4.20314 -2.68584 0
M  V30 3492 H 321.375 -3.52113 -4.94066 0
M  V30 3493 H 320.114 -2.50823 -4.18258 0
M  V30 3494 H 319.119 -4.54201 -3.09809 0
M  V30 3495 H 320.344 -5.56775 -3.88817 0
M  V30 3496 H 318.29 -3.83924 -5.3192 0
M  V30 3497 H 318.207 -5.55927 -5.12329 0
M  V30 3498 H 319.475 -4.86613 -6.08957 0
M  V30 3499 N 323.704 0.605807 -1.45491 0
M  V30 3500 C 324.934 1.38934 -1.52908 0
M  V30 3501 C 325.342 1.88513 -0.161086 0
M  V30 3502 O 324.685 1.62962 0.847891 0
M  V30 3503 C 324.747 2.62737 -2.45376 0
M  V30 3504 C 324.411 2.34785 -3.92078 0
M  V30 3505 C 325.408 1.95038 -4.8193 0
M  V30 3506 C 323.093 2.47642 -4.37011 0
M  V30 3507 C 325.087 1.68511 -6.14722 0
M  V30 3508 C 322.774 2.20728 -5.69844 0
M  V30 3509 C 323.772 1.81225 -6.58519 0
M  V30 3510 O 323.46 1.54627 -7.88889 0
M  V30 3511 H 323.192 0.431629 -0.520262 0
M  V30 3512 H 325.746 0.74573 -1.91384 0
M  V30 3513 H 323.976 3.29824 -2.01874 0
M  V30 3514 H 325.665 3.24783 -2.43456 0
M  V30 3515 H 326.431 1.84639 -4.48479 0
M  V30 3516 H 322.31 2.77356 -3.68232 0
M  V30 3517 H 325.854 1.37602 -6.83894 0
M  V30 3518 H 321.751 2.30744 -6.02849 0
M  V30 3519 H 322.519 1.68665 -8.00933 0
M  V30 3520 N 325.182 1.32811 0.848464 0
M  V30 3521 C 326.112 1.24882 1.97299 0
M  V30 3522 C 327.093 0.131357 1.69592 0
M  V30 3523 O 328.278 0.319553 1.91553 0
M  V30 3524 C 325.408 0.97746 3.33261 0
M  V30 3525 C 324.362 2.05682 3.75338 0
M  V30 3526 C 323.688 1.63777 5.09 0
M  V30 3527 C 324.988 3.47254 3.90144 0
M  V30 3528 H 326.682 2.18966 2.04191 0
M  V30 3529 H 324.228 1.05413 0.981029 0
M  V30 3530 H 326.181 0.908513 4.1149 0
M  V30 3531 H 324.905 0.000980011 3.266 0
M  V30 3532 H 323.564 2.11603 2.99366 0
M  V30 3533 H 323.212 0.648569 4.98801 0
M  V30 3534 H 322.912 2.36 5.38124 0
M  V30 3535 H 324.436 1.5833 5.89715 0
M  V30 3536 H 325.85 3.43888 4.58709 0
M  V30 3537 H 324.247 4.1788 4.30693 0
M  V30 3538 H 325.317 3.86462 2.92874 0
M  V30 3539 N 326.66 -1.06551 1.16123 0
M  V30 3540 C 327.61 -2.12209 0.833736 0
M  V30 3541 C 328.594 -1.59825 -0.185656 0
M  V30 3542 O 329.786 -1.76994 0.0147906 0
M  V30 3543 C 326.915 -3.41674 0.333697 0
M  V30 3544 C 326.001 -4.00892 1.38372 0
M  V30 3545 N 326.392 -4.34256 2.59337 0
M  V30 3546 C 324.69 -4.28463 1.23836 0
M  V30 3547 C 325.391 -4.81291 3.26701 0
M  V30 3548 N 324.367 -4.80565 2.54083 0
M  V30 3549 H 328.169 -2.35849 1.75364 0
M  V30 3550 H 325.683 -1.24068 1.04789 0
M  V30 3551 H 327.68 -4.16822 0.0806918 0
M  V30 3552 H 326.34 -3.19475 -0.58017 0
M  V30 3553 H 327.351 -4.24687 2.96415 0
M  V30 3554 H 324.028 -4.15721 0.38504 0
M  V30 3555 H 325.418 -5.16332 4.29943 0
M  V30 3556 N 328.138 -0.959301 -1.25041 0
M  V30 3557 C 329.048 -0.489994 -2.29426 0
M  V30 3558 C 330.064 0.444944 -1.68215 0
M  V30 3559 O 331.24 0.320046 -1.98841 0
M  V30 3560 C 328.305 0.220309 -3.45999 0
M  V30 3561 C 327.366 -0.753418 -4.22637 0
M  V30 3562 C 326.599 -0.076918 -5.33645 0
M  V30 3563 O 326.822 1.13649 -5.58963 0
M  V30 3564 O 325.756 -0.764824 -5.97021 0
M  V30 3565 H 329.582 -1.35755 -2.71669 0
M  V30 3566 H 327.167 -0.725961 -1.30576 0
M  V30 3567 H 329.049 0.619677 -4.16819 0
M  V30 3568 H 327.724 1.06296 -3.0575 0
M  V30 3569 H 326.631 -1.20308 -3.54227 0
M  V30 3570 H 327.964 -1.56423 -4.66683 0
M  V30 3571 N 329.616 1.39756 -0.72842 0
M  V30 3572 C 330.564 2.32485 -0.0731849 0
M  V30 3573 C 331.558 1.52717 0.733063 0
M  V30 3574 O 332.764 1.68428 0.634988 0
M  V30 3575 H 329.139 0.751984 -0.00486469 0
M  V30 3576 H 331.11 2.85382 -0.871761 0
M  V30 3577 C 329.859 3.37773 0.824908 0
M  V30 3578 H 329.182 3.99227 0.213915 0
M  V30 3579 H 330.622 4.05121 1.25111 0
M  V30 3580 C 329.081 2.74287 1.95622 0
M  V30 3581 O 329.611 2.61618 3.04826 0
M  V30 3582 N 327.817 2.32475 1.74367 0
M  V30 3583 H 327.364 2.4298 0.855494 0
M  V30 3584 H 327.322 1.90337 2.50238 0
M  V30 3585 N 331.094 0.475555 1.50254 0
M  V30 3586 C 332.041 -0.316293 2.28622 0
M  V30 3587 C 333.011 -0.983227 1.33873 0
M  V30 3588 O 334.196 -0.994805 1.62814 0
M  V30 3589 C 331.336 -1.38975 3.1588 0
M  V30 3590 C 330.449 -0.737146 4.25664 0
M  V30 3591 C 329.584 -1.78887 5.00173 0
M  V30 3592 C 328.623 -1.11676 6.01826 0
M  V30 3593 N 327.76 -2.11154 6.69596 0
M  V30 3594 H 332.6 0.358297 2.95838 0
M  V30 3595 H 330.137 0.188541 1.45887 0
M  V30 3596 H 332.095 -2.02383 3.64825 0
M  V30 3597 H 330.725 -2.03344 2.50701 0
M  V30 3598 H 329.777 0.0096065 3.80399 0
M  V30 3599 H 331.089 -0.206816 4.98371 0
M  V30 3600 H 330.243 -2.49865 5.52859 0
M  V30 3601 H 328.982 -2.35302 4.27182 0
M  V30 3602 H 327.987 -0.392633 5.48396 0
M  V30 3603 H 329.212 -0.55945 6.76792 0
M  V30 3604 H 327.158 -2.66577 5.99394 0
M  V30 3605 H 327.075 -1.63118 7.38193 0
M  V30 3606 H 328.343 -2.81497 7.26897 0
M  V30 3607 N 332.573 -1.56217 0.208337 0
M  V30 3608 C 333.483 -2.23316 -0.718836 0
M  V30 3609 C 334.499 -1.23648 -1.22422 0
M  V30 3610 O 335.675 -1.56423 -1.26861 0
M  V30 3611 C 332.74 -2.88968 -1.91568 0
M  V30 3612 C 331.801 -4.03943 -1.45357 0
M  V30 3613 C 331.034 -4.66455 -2.59337 0
M  V30 3614 O 331.257 -4.27919 -3.77149 0
M  V30 3615 O 330.191 -5.55686 -2.31293 0
M  V30 3616 H 334.017 -3.03182 -0.177315 0
M  V30 3617 H 331.602 -1.49384 -0.0215402 0
M  V30 3618 H 333.484 -3.30455 -2.61491 0
M  V30 3619 H 332.159 -2.12071 -2.44556 0
M  V30 3620 H 331.066 -3.67052 -0.722746 0
M  V30 3621 H 332.399 -4.82543 -0.970219 0
M  V30 3622 N 334.051 0.0651679 -1.57465 0
M  V30 3623 C 334.961 1.09448 -2.07505 0
M  V30 3624 C 335.977 1.41974 -1.00595 0
M  V30 3625 O 337.153 1.52018 -1.32107 0
M  V30 3626 C 334.218 2.38689 -2.51453 0
M  V30 3627 C 333.279 2.13073 -3.72691 0
M  V30 3628 C 332.512 3.36152 -4.14533 0
M  V30 3629 O 332.735 4.45517 -3.56189 0
M  V30 3630 O 331.669 3.23974 -5.07272 0
M  V30 3631 H 335.495 0.69935 -2.95538 0
M  V30 3632 H 333.08 0.279752 -1.46757 0
M  V30 3633 H 334.962 3.14736 -2.80212 0
M  V30 3634 H 333.637 2.77568 -1.66546 0
M  V30 3635 H 332.544 1.34709 -3.49005 0
M  V30 3636 H 333.877 1.79071 -4.5847 0
M  V30 3637 N 335.529 1.53961 0.336706 0
M  V30 3638 C 336.776 1.71536 1.07618 0
M  V30 3639 C 337.104 0.482125 1.8843 0
M  V30 3640 O 336.359 -0.536142 1.88213 0
M  V30 3641 C 336.658 2.93493 2.03953 0
M  V30 3642 C 336.324 4.28811 1.39399 0
M  V30 3643 C 334.986 4.65602 1.21523 0
M  V30 3644 C 337.338 5.12844 0.929541 0
M  V30 3645 C 334.666 5.84037 0.558312 0
M  V30 3646 C 337.018 6.31951 0.286505 0
M  V30 3647 C 335.682 6.67432 0.0954869 0
M  V30 3648 H 334.952 0.627696 0.393801 0
M  V30 3649 H 337.599 1.88186 0.354715 0
M  V30 3650 H 335.904 2.71475 2.82504 0
M  V30 3651 H 337.601 3.04285 2.61174 0
M  V30 3652 H 334.191 3.99858 1.54311 0
M  V30 3653 H 338.375 4.84947 1.05548 0
M  V30 3654 H 333.631 6.10097 0.398995 0
M  V30 3655 H 337.805 6.96352 -0.0814376 0
M  V30 3656 H 335.432 7.59063 -0.415579 0
M  V30 3657 N 337.007 -0.598083 1.45811 0
M  V30 3658 C 337.937 -1.71873 1.58057 0
M  V30 3659 C 338.918 -1.64533 0.431615 0
M  V30 3660 O 340.103 -1.82787 0.65595 0
M  V30 3661 C 337.233 -3.10495 1.55597 0
M  V30 3662 C 336.187 -3.32654 2.69305 0
M  V30 3663 C 335.513 -4.71646 2.51902 0
M  V30 3664 C 336.813 -3.21981 4.11248 0
M  V30 3665 H 338.507 -1.61881 2.51863 0
M  V30 3666 H 336.053 -0.777372 1.21214 0
M  V30 3667 H 338.006 -3.88699 1.6276 0
M  V30 3668 H 336.73 -3.2135 0.583255 0
M  V30 3669 H 335.389 -2.56843 2.61586 0
M  V30 3670 H 335.037 -4.79246 1.52748 0
M  V30 3671 H 334.737 -4.87426 3.2816 0
M  V30 3672 H 336.261 -5.52038 2.60933 0
M  V30 3673 H 337.675 -3.90049 4.20161 0
M  V30 3674 H 336.072 -3.49289 4.87972 0
M  V30 3675 H 337.142 -2.1928 4.32486 0
M  V30 3676 N 338.485 -1.33259 -0.841409 0
M  V30 3677 C 339.432 -1.23302 -1.95103 0
M  V30 3678 C 340.402 -0.112204 -1.65721 0
M  V30 3679 O 341.587 -0.290038 -1.88583 0
M  V30 3680 C 338.727 -0.975583 -3.31023 0
M  V30 3681 C 337.84 -2.18243 -3.72819 0
M  V30 3682 C 336.975 -1.85936 -4.97595 0
M  V30 3683 C 336.014 -3.02866 -5.3192 0
M  V30 3684 N 335.151 -2.70565 -6.47873 0
M  V30 3685 H 339.991 -2.18207 -2.02952 0
M  V30 3686 H 337.528 -1.0851 -0.993173 0
M  V30 3687 H 339.486 -0.80677 -4.09325 0
M  V30 3688 H 338.116 -0.0632755 -3.22738 0
M  V30 3689 H 337.168 -2.46107 -2.90061 0
M  V30 3690 H 338.48 -3.05666 -3.94169 0
M  V30 3691 H 337.634 -1.65684 -5.83638 0
M  V30 3692 H 336.373 -0.957452 -4.78209 0
M  V30 3693 H 335.378 -3.23736 -4.44382 0
M  V30 3694 H 336.603 -3.93809 -5.53255 0
M  V30 3695 H 334.549 -1.8293 -6.29978 0
M  V30 3696 H 334.466 -3.51519 -6.69306 0
M  V30 3697 H 335.734 -2.53774 -7.37034 0
M  V30 3698 N 339.963 1.05934 -1.16686 0
M  V30 3699 C 340.893 2.1546 -0.899949 0
M  V30 3700 C 341.874 1.69391 0.155154 0
M  V30 3701 O 343.059 1.94199 0.00648693 0
M  V30 3702 C 340.189 3.44939 -0.404241 0
M  V30 3703 C 339.143 4.04536 -1.39767 0
M  V30 3704 C 338.469 5.29268 -0.760216 0
M  V30 3705 C 339.769 4.42893 -2.76845 0
M  V30 3706 H 341.463 2.38046 -1.81588 0
M  V30 3707 H 339.009 1.14404 -0.874514 0
M  V30 3708 H 340.962 4.20901 -0.204971 0
M  V30 3709 H 339.686 3.21983 0.547206 0
M  V30 3710 H 338.345 3.30635 -1.58355 0
M  V30 3711 H 337.993 5.02611 0.197831 0
M  V30 3712 H 337.693 5.70101 -1.42332 0
M  V30 3713 H 339.217 6.07924 -0.57105 0
M  V30 3714 H 340.631 5.09921 -2.62019 0
M  V30 3715 H 339.028 4.94721 -3.39663 0
M  V30 3716 H 340.098 3.53584 -3.31823 0
M  V30 3717 N 341.441 0.965919 1.2453 0
M  V30 3718 C 342.688 0.626831 1.92554 0
M  V30 3719 C 343.016 -0.837739 1.75534 0
M  V30 3720 O 342.271 -1.61793 1.10098 0
M  V30 3721 C 342.57 0.945428 3.44669 0
M  V30 3722 C 342.236 2.39785 3.81856 0
M  V30 3723 C 340.898 2.79483 3.91718 0
M  V30 3724 C 343.25 3.34055 4.00071 0
M  V30 3725 C 340.578 4.12496 4.1721 0
M  V30 3726 C 342.93 4.66694 4.27059 0
M  V30 3727 C 341.594 5.06172 4.3514 0
M  V30 3728 H 340.864 0.229374 0.704605 0
M  V30 3729 H 343.511 1.21707 1.4785 0
M  V30 3730 H 341.816 0.272926 3.90848 0
M  V30 3731 H 343.513 0.661484 3.95507 0
M  V30 3732 H 340.103 2.08003 3.74743 0
M  V30 3733 H 344.287 3.04571 3.91855 0
M  V30 3734 H 339.543 4.42709 4.21685 0
M  V30 3735 H 343.717 5.3971 4.40097 0
M  V30 3736 H 341.344 6.09262 4.54646 0
M  V30 3737 N 342.919 -1.39368 0.735821 0
M  V30 3738 C 344.144 -2.05319 0.293052 0
M  V30 3739 C 344.569 -1.55115 -1.064 0
M  V30 3740 O 343.927 -0.695261 -1.67439 0
M  V30 3741 C 343.975 -3.59305 0.305323 0
M  V30 3742 O 343.079 -4.06299 -0.706761 0
M  V30 3743 H 342.42 -0.650529 0.13307 0
M  V30 3744 H 344.95 -1.78386 1.00197 0
M  V30 3745 H 344.96 -4.07724 0.149997 0
M  V30 3746 H 343.635 -3.95207 1.29553 0
M  V30 3747 H 342.212 -3.69292 -0.517504 0
M  V30 3748 N 344.397 -0.483516 -1.5 0
M  V30 3749 C 345.307 0.309172 -2.32554 0
M  V30 3750 C 346.323 0.984159 -1.43493 0
M  V30 3751 O 347.499 0.969399 -1.76535 0
M  V30 3752 C 344.564 1.36979 -3.18493 0
M  V30 3753 C 343.625 0.710095 -4.23387 0
M  V30 3754 C 342.858 1.72018 -5.05218 0
M  V30 3755 O 343.081 2.94813 -4.88305 0
M  V30 3756 O 342.015 1.28515 -5.8802 0
M  V30 3757 H 345.841 -0.366064 -3.01486 0
M  V30 3758 H 343.426 -0.24514 -1.47375 0
M  V30 3759 H 345.308 1.98385 -3.71781 0
M  V30 3760 H 343.983 2.02828 -2.52275 0
M  V30 3761 H 342.89 0.0567539 -3.74057 0
M  V30 3762 H 344.223 0.0943557 -4.9211 0
M  V30 3763 N 345.875 1.56104 -0.216619 0
M  V30 3764 C 346.822 2.2007 0.695531 0
M  V30 3765 C 347.792 1.15471 1.19397 0
M  V30 3766 O 348.977 1.43807 1.25396 0
M  V30 3767 C 346.117 2.88073 1.90021 0
M  V30 3768 C 345.23 4.07253 1.44113 0
M  V30 3769 C 344.365 4.63052 2.603 0
M  V30 3770 C 343.404 5.74545 2.11103 0
M  V30 3771 N 342.541 6.24656 3.20545 0
M  V30 3772 H 347.381 2.97655 0.143327 0
M  V30 3773 H 344.918 1.46982 0.0589934 0
M  V30 3774 H 346.876 3.25681 2.60745 0
M  V30 3775 H 345.506 2.13015 2.42538 0
M  V30 3776 H 344.558 3.75164 0.628999 0
M  V30 3777 H 345.87 4.8783 1.04036 0
M  V30 3778 H 345.024 5.03078 3.39113 0
M  V30 3779 H 343.763 3.81628 3.03663 0
M  V30 3780 H 342.768 5.34027 1.3075 0
M  V30 3781 H 343.993 6.57801 1.68746 0
M  V30 3782 H 341.939 5.46148 3.63399 0
M  V30 3783 H 341.856 7.00343 2.84704 0
M  V30 3784 H 343.124 6.69338 3.99508 0
M  V30 3785 N 347.353 -0.0568162 1.57498 0
M  V30 3786 C 348.3 -1.06591 2.04712 0
M  V30 3787 C 349.27 -1.3758 0.930644 0
M  V30 3788 O 350.455 -1.48392 1.19935 0
M  V30 3789 C 347.595 -2.3701 2.50839 0
M  V30 3790 C 346.708 -2.12421 3.76167 0
M  V30 3791 C 345.843 -3.36511 4.11015 0
M  V30 3792 C 344.882 -3.07353 5.2934 0
M  V30 3793 N 344.019 -4.23816 5.59754 0
M  V30 3794 H 348.859 -0.65631 2.90683 0
M  V30 3795 H 346.396 -0.312481 1.43743 0
M  V30 3796 H 348.354 -3.13175 2.7564 0
M  V30 3797 H 346.984 -2.75744 1.67825 0
M  V30 3798 H 346.036 -1.2688 3.58616 0
M  V30 3799 H 347.348 -1.86894 4.62463 0
M  V30 3800 H 346.502 -4.21062 4.36797 0
M  V30 3801 H 345.241 -3.65128 3.23315 0
M  V30 3802 H 344.246 -2.212 5.03339 0
M  V30 3803 H 345.471 -2.80043 6.1867 0
M  V30 3804 H 343.417 -4.52436 4.75014 0
M  V30 3805 H 343.334 -4.01614 6.40501 0
M  V30 3806 H 344.602 -5.0932 5.90096 0
M  V30 3807 N 348.832 -1.54138 -0.328536 0
M  V30 3808 C 350.079 -1.72105 -1.06706 0
M  V30 3809 C 350.407 -0.492111 -1.88171 0
M  V30 3810 O 349.662 0.526153 -1.88494 0
M  V30 3811 C 349.961 -2.9457 -2.02393 0
M  V30 3812 C 349.627 -4.29544 -1.37122 0
M  V30 3813 C 348.289 -4.6624 -1.19052 0
M  V30 3814 C 350.641 -5.1333 -0.902331 0
M  V30 3815 C 347.969 -5.84325 -0.527331 0
M  V30 3816 C 350.321 -6.32094 -0.252988 0
M  V30 3817 C 348.985 -6.67473 -0.0600901 0
M  V30 3818 H 348.255 -0.629775 -0.390466 0
M  V30 3819 H 350.902 -1.88372 -0.34473 0
M  V30 3820 H 349.207 -2.72969 -2.81061 0
M  V30 3821 H 350.904 -3.05665 -2.59557 0
M  V30 3822 H 347.494 -4.0067 -1.52188 0
M  V30 3823 H 351.678 -4.855 -1.02974 0
M  V30 3824 H 346.934 -6.103 -0.366634 0
M  V30 3825 H 351.108 -6.96299 0.118366 0
M  V30 3826 H 348.735 -7.58832 0.455828 0
M  V30 3827 N 350.31 0.590341 -1.46126 0
M  V30 3828 C 351.559 1.34499 -1.50309 0
M  V30 3829 C 351.872 1.94977 -0.156021 0
M  V30 3830 O 353.078 2.71395 -0.0756037 0
M  V30 3831 C 351.534 2.43723 -2.64815 0
M  V30 3832 C 351.142 1.89582 -4.0591 0
M  V30 3833 C 352.886 3.20579 -2.78262 0
M  V30 3834 C 350.793 2.9639 -5.11769 0
M  V30 3835 H 349.723 0.505593 -0.559368 0
M  V30 3836 H 352.374 0.630848 -1.72315 0
M  V30 3837 H 350.756 3.17902 -2.36124 0
M  V30 3838 H 351.93 1.21997 -4.44357 0
M  V30 3839 H 350.245 1.25418 -3.97063 0
M  V30 3840 H 352.842 4.00276 -3.54519 0
M  V30 3841 H 353.185 3.72684 -1.85505 0
M  V30 3842 H 353.718 2.53505 -3.06562 0
M  V30 3843 H 350.457 2.49181 -6.06291 0
M  V30 3844 H 349.977 3.62487 -4.77873 0
M  V30 3845 H 351.656 3.60474 -5.37278 0
M  V30 3846 N 351.788 1.33704 0.83433 0
M  V30 3847 C 353.013 1.28615 1.62705 0
M  V30 3848 C 353.438 -0.139242 1.87584 0
M  V30 3849 O 352.796 -1.09734 1.4432 0
M  V30 3850 C 352.844 2.07139 2.95171 0
M  V30 3851 O 351.948 1.4331 3.86699 0
M  V30 3852 H 351.289 0.44226 0.49528 0
M  V30 3853 H 353.819 1.76335 1.03766 0
M  V30 3854 H 353.829 2.18073 3.44831 0
M  V30 3855 H 352.504 3.10779 2.76386 0
M  V30 3856 H 351.081 1.4105 3.45195 0
M  V30 3857 N 353.266 -1.05314 1.17247 0
M  V30 3858 C 354.196 -2.1498 0.911362 0
M  V30 3859 C 355.177 -1.69471 -0.146169 0
M  V30 3860 O 356.362 -1.942 0.003812 0
M  V30 3861 C 353.492 -3.4472 0.422528 0
M  V30 3862 C 352.446 -4.03789 1.4191 0
M  V30 3863 C 351.772 -5.28858 0.788274 0
M  V30 3864 C 353.072 -4.41418 2.7919 0
M  V30 3865 H 354.766 -2.3708 1.82848 0
M  V30 3866 H 352.312 -1.13938 0.880569 0
M  V30 3867 H 354.265 -4.20787 0.227289 0
M  V30 3868 H 352.989 -3.22269 -0.530123 0
M  V30 3869 H 351.648 -3.2979 1.60106 0
M  V30 3870 H 351.296 -5.02709 -0.171173 0
M  V30 3871 H 350.996 -5.69338 1.45353 0
M  V30 3872 H 352.52 -6.07612 0.603282 0
M  V30 3873 H 353.934 -5.08524 2.64719 0
M  V30 3874 H 352.331 -4.92913 3.42282 0
M  V30 3875 H 353.401 -3.51819 3.33693 0
M  V30 3876 N 354.744 -0.972509 -1.24016 0
M  V30 3877 C 356.021 -0.553733 -1.87598 0
M  V30 3878 C 356.401 0.969158 -1.87538 0
M  V30 3879 O 355.749 1.84255 -1.35139 0
M  V30 3880 C 355.959 -1.15076 -3.29482 0
M  V30 3881 C 357.307 -1.23862 -4.06132 0
M  V30 3882 O 358.331 -1.10363 -3.38672 0
M  V30 3883 O 357.19 -1.45252 -5.26844 0
M  V30 3884 H 354.284 -0.185331 -0.805966 0
M  V30 3885 H 356.83 -1.06709 -1.31952 0
M  V30 3886 H 355.602 -2.19333 -3.2405 0
M  V30 3887 H 355.225 -0.621746 -3.92709 0
M  V30 3888 N 356.222 1.38976 -0.743202 0
M  V30 3889 C 357.499 1.94351 -0.220705 0
M  V30 3890 C 357.879 1.67935 1.2791 0
M  V30 3891 O 357.227 1.01211 2.04862 0
M  V30 3892 C 357.437 3.44426 -0.563171 0
M  V30 3893 C 358.785 4.2144 -0.517046 0
M  V30 3894 O 359.809 3.52661 -0.500846 0
M  V30 3895 O 358.668 5.44032 -0.518806 0
M  V30 3896 H 355.762 0.825879 -0.043047 0
M  V30 3897 H 358.308 1.48429 -0.822618 0
M  V30 3898 H 357.08 3.5712 -1.59941 0
M  V30 3899 H 356.703 3.97543 0.0672883 0
M  V30 3900 N 357.7 0.491464 1.49741 0
M  V30 3901 C 358.948 -0.0563141 2.02022 0
M  V30 3902 C 359.269 -1.38363 1.37407 0
M  V30 3903 O 358.539 -1.88702 0.526166 0
M  V30 3904 H 357.119 -0.0238014 0.746621 0
M  V30 3905 H 359.781 0.646533 1.83864 0
M  V30 3906 H 358.877 -0.192967 3.11503 0
M  V30 3907 N 359.178 -1.55987 0.224894 0
M  V30 3908 C 360.424 -1.99433 -0.39973 0
M  V30 3909 C 360.779 -1.11004 -1.57149 0
M  V30 3910 O 360.072 -0.160725 -1.90925 0
M  V30 3911 C 360.266 -3.46394 -0.880106 0
M  V30 3912 C 360.095 -4.4904 0.243565 0
M  V30 3913 C 358.865 -5.00272 0.711056 0
M  V30 3914 C 361.063 -5.03195 1.06299 0
M  V30 3915 N 359.045 -5.86628 1.80944 0
M  V30 3916 C 360.416 -5.86508 2.01017 0
M  V30 3917 C 362.471 -4.8555 1.10205 0
M  V30 3918 C 361.174 -6.54062 2.99324 0
M  V30 3919 C 363.2 -5.53866 2.07332 0
M  V30 3920 C 362.562 -6.3695 3.00789 0
M  V30 3921 H 358.661 -0.773815 -0.112847 0
M  V30 3922 H 361.245 -1.91754 0.337432 0
M  V30 3923 H 359.416 -3.54515 -1.58662 0
M  V30 3924 H 361.148 -3.76752 -1.47783 0
M  V30 3925 H 357.903 -4.72655 0.29906 0
M  V30 3926 H 358.327 -6.34507 2.36073 0
M  V30 3927 H 362.969 -4.20966 0.39343 0
M  V30 3928 H 360.687 -7.17827 3.71147 0
M  V30 3929 H 364.273 -5.42178 2.11032 0
M  V30 3930 H 363.153 -6.8888 3.74718 0
M  V30 3931 N 360.656 0.0484629 -1.57525 0
M  V30 3932 C 361.881 0.759177 -1.93006 0
M  V30 3933 C 362.306 1.69125 -0.823317 0
M  V30 3934 O 361.664 1.79931 0.222364 0
M  V30 3935 C 361.712 1.50899 -3.27509 0
M  V30 3936 O 360.816 2.62112 -3.18388 0
M  V30 3937 H 360.157 0.205564 -0.631379 0
M  V30 3938 H 362.687 0.00972959 -2.04598 0
M  V30 3939 H 362.697 1.88317 -3.6194 0
M  V30 3940 H 361.372 0.825269 -4.0763 0
M  V30 3941 H 359.949 2.27379 -2.95556 0
M  V30 3942 N 362.134 1.5431 0.320358 0
M  V30 3943 C 363.55 1.45091 0.664889 0
M  V30 3944 C 363.75 0.626382 1.91517 0
M  V30 3945 O 362.806 0.126443 2.52183 0
M  V30 3946 C 364.119 2.88848 0.83591 0
M  V30 3947 C 365.667 2.9877 0.933046 0
M  V30 3948 C 366.142 4.43683 1.13621 0
M  V30 3949 N 367.633 4.47309 1.20287 0
M  V30 3950 C 368.368 5.56595 1.37801 0
M  V30 3951 N 367.864 6.75844 1.52338 0
M  V30 3952 N 369.657 5.44248 1.40535 0
M  V30 3953 H 361.808 2.06398 -0.501374 0
M  V30 3954 H 364.071 0.933963 -0.162534 0
M  V30 3955 H 363.777 3.51698 -0.0116092 0
M  V30 3956 H 363.651 3.35148 1.73078 0
M  V30 3957 H 366.038 2.36045 1.77107 0
M  V30 3958 H 366.119 2.55796 0.0145782 0
M  V30 3959 H 365.763 5.06995 0.303032 0
M  V30 3960 H 365.693 4.84269 2.0686 0
M  V30 3961 H 368.184 3.61388 1.10485 0
M  V30 3962 H 368.497 7.54892 1.65403 0
M  V30 3963 H 366.842 6.78746 1.4943 0
M  V30 3964 H 370.033 4.50038 1.28777 0
M  V30 3965 H 370.206 6.29473 1.53842 0
M  V30 3966 N 363.613 -0.582584 1.46437 0
M  V30 3967 C 364.56 -1.69164 1.5701 0
M  V30 3968 C 365.53 -1.60847 0.414403 0
M  V30 3969 O 366.715 -1.80058 0.631171 0
M  V30 3970 C 363.855 -3.075 1.56646 0
M  V30 3971 C 362.968 -3.2644 2.82951 0
M  V30 3972 C 362.103 -4.55026 2.7409 0
M  V30 3973 C 361.142 -4.6731 3.95333 0
M  V30 3974 N 360.279 -5.87221 3.84858 0
M  V30 3975 H 365.119 -1.59464 2.51744 0
M  V30 3976 H 362.656 -0.777186 1.24893 0
M  V30 3977 H 364.614 -3.8757 1.5442 0
M  V30 3978 H 363.244 -3.16096 0.654439 0
M  V30 3979 H 362.296 -2.39974 2.95155 0
M  V30 3980 H 363.608 -3.31385 3.72808 0
M  V30 3981 H 362.762 -5.43324 2.6997 0
M  V30 3982 H 361.501 -4.52519 1.81873 0
M  V30 3983 H 360.506 -3.77429 3.99784 0
M  V30 3984 H 361.731 -4.71595 4.88646 0
M  V30 3985 H 359.677 -5.85712 2.95427 0
M  V30 3986 H 359.594 -5.93435 4.6837 0
M  V30 3987 H 360.862 -6.7795 3.84713 0
M  V30 3988 N 365.091 -1.34144 -0.827227 0
M  V30 3989 C 366.34 -1.25602 -1.5782 0
M  V30 3990 C 366.653 0.173445 -1.94829 0
M  V30 3991 O 367.859 0.380984 -2.68814 0
M  V30 3992 C 366.315 -2.20151 -2.84713 0
M  V30 3993 C 365.923 -3.68331 -2.55021 0
M  V30 3994 C 367.667 -2.20508 -3.62735 0
M  V30 3995 C 365.574 -4.54762 -3.78082 0
M  V30 3996 H 364.504 -0.466573 -0.592306 0
M  V30 3997 H 367.155 -1.59283 -0.911116 0
M  V30 3998 H 365.537 -1.79417 -3.53023 0
M  V30 3999 H 366.711 -4.17577 -1.94849 0
M  V30 4000 H 365.026 -3.7038 -1.90283 0
M  V30 4001 H 367.623 -2.82306 -4.54101 0
M  V30 4002 H 367.966 -1.20322 -3.98533 0
M  V30 4003 H 368.499 -2.59664 -3.01362 0
M  V30 4004 H 365.238 -5.55867 -3.47407 0
M  V30 4005 H 364.758 -4.10254 -4.37552 0
M  V30 4006 H 366.437 -4.69153 -4.45538 0
M  V30 4007 N 366.569 1.04691 -1.17803 0
M  V30 4008 C 367.516 2.12557 -0.899343 0
M  V30 4009 C 368.486 1.65339 0.158771 0
M  V30 4010 O 369.671 1.90789 0.0204797 0
M  V30 4011 C 366.811 3.42481 -0.424315 0
M  V30 4012 C 365.924 4.03346 -1.54713 0
M  V30 4013 C 365.059 5.21208 -1.02546 0
M  V30 4014 C 364.098 5.74089 -2.12339 0
M  V30 4015 N 363.235 6.83247 -1.61612 0
M  V30 4016 H 368.075 2.35734 -1.823 0
M  V30 4017 H 365.612 1.1564 -0.909159 0
M  V30 4018 H 367.57 4.16996 -0.130421 0
M  V30 4019 H 366.2 3.19471 0.462377 0
M  V30 4020 H 365.252 3.2622 -1.95664 0
M  V30 4021 H 366.564 4.38628 -2.37501 0
M  V30 4022 H 365.718 6.02812 -0.685718 0
M  V30 4023 H 364.457 4.87414 -0.167084 0
M  V30 4024 H 363.462 4.91111 -2.47165 0
M  V30 4025 H 364.687 6.0993 -2.98601 0
M  V30 4026 H 362.633 6.5134 -0.780533 0
M  V30 4027 H 362.55 7.17559 -2.38003 0
M  V30 4028 H 363.818 7.68491 -1.30545 0
M  V30 4029 N 368.047 0.979072 1.23499 0
M  V30 4030 C 369.324 0.563674 1.87302 0
M  V30 4031 C 369.704 -0.959199 1.88049 0
M  V30 4032 O 369.052 -1.83535 1.36114 0
M  V30 4033 C 369.262 1.16822 3.28867 0
M  V30 4034 C 370.61 1.26014 4.0547 0
M  V30 4035 O 371.634 1.12158 3.38082 0
M  V30 4036 O 370.493 1.48044 5.26066 0
M  V30 4037 H 367.587 0.189602 0.804972 0
M  V30 4038 H 370.133 1.07407 1.31384 0
M  V30 4039 H 368.905 2.21049 3.22883 0
M  V30 4040 H 368.528 0.642564 3.92373 0
M  V30 4041 N 369.525 -1.3858 0.750561 0
M  V30 4042 C 370.75 -2.04997 0.314812 0
M  V30 4043 C 371.175 -1.56235 -1.04749 0
M  V30 4044 O 370.533 -0.712981 -1.66692 0
M  V30 4045 C 370.581 -3.58961 0.343415 0
M  V30 4046 O 369.685 -4.07025 -0.663628 0
M  V30 4047 H 369.026 -0.649081 0.139962 0
M  V30 4048 H 371.556 -1.77313 1.02084 0
M  V30 4049 H 371.566 -4.07542 0.193233 0
M  V30 4050 H 370.241 -3.93811 1.33738 0
M  V30 4051 H 368.818 -3.6982 -0.478307 0
M  V30 4052 N 371.003 -0.499398 -1.49478 0
M  V30 4053 C 371.95 0.279881 -2.29097 0
M  V30 4054 C 372.92 0.961805 -1.3542 0
M  V30 4055 O 374.105 0.968777 -1.64376 0
M  V30 4056 C 371.245 1.33932 -3.18051 0
M  V30 4057 C 370.358 0.669333 -4.26783 0
M  V30 4058 C 369.493 1.70907 -5.02955 0
M  V30 4059 C 368.532 1.02087 -6.03527 0
M  V30 4060 N 367.669 2.00474 -6.7287 0
M  V30 4061 H 372.509 -0.405317 -2.95231 0
M  V30 4062 H 370.046 -0.211726 -1.45568 0
M  V30 4063 H 372.004 1.96553 -3.67998 0
M  V30 4064 H 370.634 1.9933 -2.53904 0
M  V30 4065 H 369.686 -0.0701234 -3.80335 0
M  V30 4066 H 370.998 0.127503 -4.98637 0
M  V30 4067 H 370.152 2.41037 -5.56764 0
M  V30 4068 H 368.891 2.28476 -4.30871 0
M  V30 4069 H 367.896 0.305338 -5.48951 0
M  V30 4070 H 369.121 0.451708 -6.77596 0
M  V30 4071 H 367.067 2.57007 -6.03559 0
M  V30 4072 H 366.984 1.51353 -7.40694 0
M  V30 4073 H 368.252 2.69897 -7.31284 0
M  V30 4074 N 372.481 1.55866 -0.233164 0
M  V30 4075 C 373.897 1.59133 0.121988 0
M  V30 4076 C 374.097 1.25016 1.58029 0
M  V30 4077 O 373.153 0.990922 2.32243 0
M  V30 4078 C 374.466 2.99932 -0.214792 0
M  V30 4079 C 376.014 3.12601 -0.157971 0
M  V30 4080 C 376.489 4.55597 -0.46859 0
M  V30 4081 N 377.98 4.61305 -0.418585 0
M  V30 4082 C 378.715 5.69903 -0.63227 0
M  V30 4083 N 378.211 6.86819 -0.90835 0
M  V30 4084 N 380.004 5.59264 -0.563913 0
M  V30 4085 H 372.155 1.76315 -1.18434 0
M  V30 4086 H 374.418 0.820093 -0.475553 0
M  V30 4087 H 374.124 3.29588 -1.22739 0
M  V30 4088 H 373.998 3.74327 0.464691 0
M  V30 4089 H 376.385 2.82735 0.845283 0
M  V30 4090 H 376.466 2.40511 -0.871102 0
M  V30 4091 H 376.11 4.86182 -1.46934 0
M  V30 4092 H 376.04 5.25928 0.265865 0
M  V30 4093 H 378.531 3.77297 -0.213368 0
M  V30 4094 H 378.844 7.65507 -1.05919 0
M  V30 4095 H 377.189 6.88536 -0.945673 0
M  V30 4096 H 380.38 4.66802 -0.348372 0
M  V30 4097 H 380.553 6.43831 -0.733847 0
M  V30 4098 N 373.959 -0.0401083 1.57549 0
M  V30 4099 C 374.906 -1.04413 2.05831 0
M  V30 4100 C 375.876 -1.36585 0.945184 0
M  V30 4101 O 377.061 -1.47112 1.21502 0
M  V30 4102 C 374.201 -2.34336 2.53339 0
M  V30 4103 C 373.314 -2.08419 3.78398 0
M  V30 4104 C 372.449 -3.32133 4.14561 0
M  V30 4105 C 371.488 -3.01721 5.3257 0
M  V30 4106 N 370.625 -4.17855 5.64218 0
M  V30 4107 H 375.465 -0.625442 2.91363 0
M  V30 4108 H 373.002 -0.297218 1.44066 0
M  V30 4109 H 374.96 -3.10234 2.78946 0
M  V30 4110 H 373.59 -2.73948 1.7074 0
M  V30 4111 H 372.642 -1.23069 3.59942 0
M  V30 4112 H 373.954 -1.81978 4.64419 0
M  V30 4113 H 373.108 -4.16406 4.41238 0
M  V30 4114 H 371.847 -3.61678 3.2717 0
M  V30 4115 H 370.852 -2.15849 5.05657 0
M  V30 4116 H 372.077 -2.73466 6.21605 0
M  V30 4117 H 370.023 -4.47372 4.79786 0
M  V30 4118 H 369.94 -3.94798 6.44725 0
M  V30 4119 H 371.208 -5.03033 5.95465 0
M  V30 4120 N 375.437 -1.54477 -0.31217 0
M  V30 4121 C 376.37 -1.79519 -1.40884 0
M  V30 4122 C 377.348 -0.645753 -1.49227 0
M  V30 4123 O 378.532 -0.884468 -1.66461 0
M  V30 4124 C 375.659 -1.92194 -2.78889 0
M  V30 4125 C 374.705 -3.14555 -2.88023 0
M  V30 4126 S 375.538 -4.72893 -2.51262 0
M  V30 4127 C 376.694 -4.8849 -3.91317 0
M  V30 4128 H 376.927 -2.72256 -1.19432 0
M  V30 4129 H 374.46 -1.45746 -0.509654 0
M  V30 4130 H 376.418 -2.00182 -3.58382 0
M  V30 4131 H 375.079 -1.00414 -2.97617 0
M  V30 4132 H 374.272 -3.20193 -3.89221 0
M  V30 4133 H 373.874 -3.04955 -2.16514 0
M  V30 4134 H 376.166 -4.71826 -4.86196 0
M  V30 4135 H 377.109 -5.90588 -3.90656 0
M  V30 4136 H 377.517 -4.16715 -3.80801 0
M  V30 4137 N 376.915 0.57481 -1.46744 0
M  V30 4138 C 377.847 1.69804 -1.53946 0
M  V30 4139 C 378.86 1.57098 -0.427106 0
M  V30 4140 O 380.049 1.64378 -0.695863 0
M  V30 4141 C 377.149 3.08125 -1.4111 0
M  V30 4142 C 376.322 3.46757 -2.66605 0
M  V30 4143 C 375.381 4.6417 -2.47855 0
M  V30 4144 O 374.407 4.69634 -3.21609 0
M  V30 4145 N 375.609 5.59553 -1.54534 0
M  V30 4146 H 378.374 1.64077 -2.50796 0
M  V30 4147 H 375.935 0.761 -1.429 0
M  V30 4148 H 377.927 3.84478 -1.26328 0
M  V30 4149 H 376.497 3.08175 -0.524109 0
M  V30 4150 H 375.717 2.6003 -2.96274 0
M  V30 4151 H 377.005 3.69337 -3.49954 0
M  V30 4152 H 376.403 5.57881 -0.937304 0
M  V30 4153 H 374.96 6.35304 -1.45711 0
M  V30 4154 N 378.394 1.34581 0.820102 0
M  V30 4155 C 379.81 1.14325 1.11364 0
M  V30 4156 C 380.01 -0.0533648 2.01429 0
M  V30 4157 O 379.066 -0.728044 2.41776 0
M  V30 4158 C 380.379 2.43983 1.75764 0
M  V30 4159 C 381.927 2.50065 1.88246 0
M  V30 4160 C 382.402 3.79732 2.56061 0
M  V30 4161 N 383.893 3.80908 2.63558 0
M  V30 4162 C 384.628 4.77961 3.16766 0
M  V30 4163 N 384.124 5.85397 3.70517 0
M  V30 4164 N 385.917 4.65413 3.15194 0
M  V30 4165 H 378.068 2.11246 0.221096 0
M  V30 4166 H 380.331 0.934289 0.160649 0
M  V30 4167 H 380.037 3.31651 1.1705 0
M  V30 4168 H 379.911 2.57531 2.75604 0
M  V30 4169 H 382.298 1.62834 2.46108 0
M  V30 4170 H 382.379 2.40442 0.873006 0
M  V30 4171 H 382.023 4.67354 1.98853 0
M  V30 4172 H 381.953 3.86639 3.57516 0
M  V30 4173 H 384.444 3.03274 2.25463 0
M  V30 4174 H 384.757 6.55463 4.09376 0
M  V30 4175 H 383.102 5.89107 3.68752 0
M  V30 4176 H 386.293 3.80627 2.72471 0
M  V30 4177 H 386.466 5.41216 3.56356 0
M  V30 4178 N 379.872 -1.04064 1.18357 0
M  V30 4179 C 381.118 -1.77658 0.990412 0
M  V30 4180 C 381.473 -1.86446 -0.474944 0
M  V30 4181 O 380.766 -1.36153 -1.34807 0
M  V30 4182 C 380.96 -3.20634 1.57888 0
M  V30 4183 C 380.789 -3.25782 3.09994 0
M  V30 4184 C 379.559 -3.34411 3.7881 0
M  V30 4185 C 381.757 -3.13791 4.0748 0
M  V30 4186 N 379.739 -3.28809 5.18418 0
M  V30 4187 C 381.11 -3.15689 5.33611 0
M  V30 4188 C 383.165 -2.97833 3.98998 0
M  V30 4189 C 381.868 -3.03268 6.52243 0
M  V30 4190 C 383.894 -2.86759 5.17227 0
M  V30 4191 C 383.256 -2.893 6.4225 0
M  V30 4192 H 379.355 -0.661901 0.416427 0
M  V30 4193 H 381.939 -1.23968 1.50133 0
M  V30 4194 H 380.11 -3.7267 1.09414 0
M  V30 4195 H 381.842 -3.82525 1.32124 0
M  V30 4196 H 378.597 -3.40144 3.29543 0
M  V30 4197 H 379.021 -3.29448 5.91433 0
M  V30 4198 H 383.663 -2.94698 3.03171 0
M  V30 4199 H 381.381 -3.05156 7.48268 0
M  V30 4200 H 384.967 -2.75465 5.12455 0
M  V30 4201 H 383.847 -2.80818 7.32196 0
M  V30 4202 N 381.35 -0.985608 -1.22978 0
M  V30 4203 C 382.598 -0.656087 -1.91154 0
M  V30 4204 C 382.919 0.813561 -1.77218 0
M  V30 4205 O 382.189 1.58244 -1.1548 0
M  V30 4206 H 380.769 -0.239674 -0.707506 0
M  V30 4207 H 383.431 -1.25054 -1.49491 0
M  V30 4208 H 382.527 -0.912253 -2.9847 0
M  V30 4209 N 382.828 1.3818 -0.7579 0
M  V30 4210 C 384.058 2.04004 -0.326463 0
M  V30 4211 C 384.466 1.57286 1.05156 0
M  V30 4212 O 383.809 0.743144 1.67997 0
M  V30 4213 C 383.871 3.58444 -0.275402 0
M  V30 4214 C 383.535 4.28237 -1.59569 0
M  V30 4215 C 384.532 4.53312 -2.54566 0
M  V30 4216 C 382.217 4.66341 -1.86631 0
M  V30 4217 C 384.211 5.15531 -3.74842 0
M  V30 4218 C 381.898 5.28283 -3.0718 0
M  V30 4219 C 382.896 5.52814 -4.01106 0
M  V30 4220 O 382.584 6.13465 -5.19534 0
M  V30 4221 H 382.316 0.662026 -0.136739 0
M  V30 4222 H 384.87 1.7777 -1.02893 0
M  V30 4223 H 383.1 3.83667 0.483337 0
M  V30 4224 H 384.789 4.05701 0.127099 0
M  V30 4225 H 385.555 4.24299 -2.34936 0
M  V30 4226 H 381.434 4.46591 -1.14358 0
M  V30 4227 H 384.978 5.34594 -4.48168 0
M  V30 4228 H 380.875 5.56719 -3.26702 0
M  V30 4229 H 381.643 6.31951 -5.20173 0
M  V30 4230 N 384.306 0.507319 1.49211 0
M  V30 4231 C 385.553 -0.0349529 2.0247 0
M  V30 4232 C 385.881 -1.36409 1.38647 0
M  V30 4233 O 385.136 -1.88841 0.513566 0
M  V30 4234 C 385.435 -0.229513 3.56662 0
M  V30 4235 C 385.101 1.02241 4.39156 0
M  V30 4236 C 383.763 1.36557 4.61417 0
M  V30 4237 C 386.115 1.85428 4.871 0
M  V30 4238 C 383.443 2.53999 5.28868 0
M  V30 4239 C 385.795 3.02028 5.55843 0
M  V30 4240 C 384.459 3.36717 5.76349 0
M  V30 4241 H 383.729 -0.0127902 0.74089 0
M  V30 4242 H 386.376 0.668756 1.79443 0
M  V30 4243 H 384.681 -1.0158 3.78403 0
M  V30 4244 H 386.378 -0.663641 3.9547 0
M  V30 4245 H 382.968 0.745124 4.22073 0
M  V30 4246 H 387.152 1.6023 4.69723 0
M  V30 4247 H 382.408 2.81105 5.42946 0
M  V30 4248 H 386.582 3.66808 5.91967 0
M  V30 4249 H 384.209 4.27821 6.28389 0
M  V30 4250 N 385.784 -1.5574 0.241426 0
M  V30 4251 C 386.731 -2.21149 -0.660432 0
M  V30 4252 C 387.701 -1.17356 -1.17545 0
M  V30 4253 O 388.886 -1.45784 -1.23093 0
M  V30 4254 C 386.026 -2.91059 -1.85414 0
M  V30 4255 C 385.139 -4.09495 -1.37616 0
M  V30 4256 C 384.274 -4.67135 -2.529 0
M  V30 4257 C 383.313 -5.77831 -2.01936 0
M  V30 4258 N 382.45 -6.29677 -3.10566 0
M  V30 4259 H 387.29 -2.97845 -0.095955 0
M  V30 4260 H 384.827 -1.47057 -0.0356024 0
M  V30 4261 H 386.785 -3.29788 -2.5553 0
M  V30 4262 H 385.415 -2.16846 -2.39118 0
M  V30 4263 H 384.467 -3.76117 -0.569235 0
M  V30 4264 H 385.779 -4.89423 -0.962618 0
M  V30 4265 H 384.933 -5.08409 -3.31067 0
M  V30 4266 H 383.672 -3.86411 -2.97553 0
M  V30 4267 H 382.677 -5.36039 -1.22238 0
M  V30 4268 H 383.902 -6.60402 -1.58259 0
M  V30 4269 H 381.848 -5.5186 -3.54664 0
M  V30 4270 H 381.765 -7.04783 -2.73526 0
M  V30 4271 H 383.033 -6.75609 -3.88809 0
M  V30 4272 N 387.262 0.0317525 -1.57568 0
M  V30 4273 C 388.225 1.01783 -2.0536 0
M  V30 4274 C 389.225 1.29203 -0.957253 0
M  V30 4275 O 390.415 1.24251 -1.22095 0
M  V30 4276 C 387.547 2.35137 -2.46827 0
M  V30 4277 H 388.74 0.605062 -2.93733 0
M  V30 4278 H 386.293 0.278514 -1.53799 0
M  V30 4279 H 387.028 2.81168 -1.61602 0
M  V30 4280 H 386.813 2.16566 -3.26866 0
M  V30 4281 H 388.303 3.05938 -2.84239 0
M  V30 4282 N 388.74 1.54641 0.303973 0
M  V30 4283 C 389.968 1.77768 1.05858 0
M  V30 4284 C 390.383 0.535722 1.8104 0
M  V30 4285 O 389.74 -0.494337 1.75677 0
M  V30 4286 C 389.791 2.9834 2.04146 0
M  V30 4287 O 389.512 4.17736 1.32015 0
M  V30 4288 C 391.013 3.33832 2.91669 0
M  V30 4289 H 388.233 0.592961 0.314067 0
M  V30 4290 H 390.777 2.01583 0.344149 0
M  V30 4291 H 388.932 2.76742 2.71096 0
M  V30 4292 H 389.346 4.85693 1.97998 0
M  V30 4293 H 390.82 4.21448 3.56491 0
M  V30 4294 H 391.297 2.51857 3.59812 0
M  V30 4295 H 391.903 3.57579 2.30254 0
M  V30 4296 N 390.218 -0.567019 1.47046 0
M  V30 4297 C 391.165 -1.67489 1.58796 0
M  V30 4298 C 392.135 -1.60399 0.43144 0
M  V30 4299 O 393.32 -1.79378 0.650233 0
M  V30 4300 C 390.46 -3.05821 1.59899 0
M  V30 4301 C 389.573 -3.2342 2.86397 0
M  V30 4302 C 388.708 -4.52093 2.789 0
M  V30 4303 C 387.747 -4.6309 4.00267 0
M  V30 4304 N 386.884 -5.83106 3.91064 0
M  V30 4305 H 391.724 -1.56785 2.53422 0
M  V30 4306 H 389.261 -0.763896 1.2571 0
M  V30 4307 H 391.219 -3.8591 1.58522 0
M  V30 4308 H 389.849 -3.15384 0.687929 0
M  V30 4309 H 388.901 -2.3683 2.97684 0
M  V30 4310 H 390.213 -3.27412 3.76301 0
M  V30 4311 H 389.367 -5.4043 2.75718 0
M  V30 4312 H 388.106 -4.50565 1.86662 0
M  V30 4313 H 387.111 -3.73168 4.03765 0
M  V30 4314 H 388.336 -4.66386 4.93621 0
M  V30 4315 H 386.282 -5.82546 3.01623 0
M  V30 4316 H 386.199 -5.88434 4.74638 0
M  V30 4317 H 387.467 -6.73831 3.91882 0
M  V30 4318 N 391.696 -1.35014 -0.812953 0
M  V30 4319 C 392.644 -1.27435 -1.94585 0
M  V30 4320 C 393.638 -0.170494 -1.6854 0
M  V30 4321 O 394.844 -0.336085 -1.76835 0
M  V30 4322 H 391.219 -0.396144 -0.639198 0
M  V30 4323 H 393.19 -2.23158 -1.98098 0
M  V30 4324 C 391.939 -1.05677 -3.31252 0
M  V30 4325 H 391.262 -1.89853 -3.51846 0
M  V30 4326 H 392.702 -1.04413 -4.10943 0
M  V30 4327 C 391.161 0.239615 -3.36047 0
M  V30 4328 O 391.691 1.23759 -3.8216 0
M  V30 4329 N 389.897 0.276186 -2.89285 0
M  V30 4330 H 389.444 -0.53653 -2.51951 0
M  V30 4331 H 389.402 1.14332 -2.92875 0
M  V30 4332 O 393.213 0.951708 -1.30479 0
M  V30 4333 H 393.904 1.58029 -1.12012 0
M  V30 END ATOM
M  V30 BEGIN BOND
M  V30 END BOND
M  V30 END CTAB
M  END
$$$$
