drugbank_target|Q8IDH5 Thioredoxin-related protein, putative (DB11638)
 OpenBabel12092121103D

  0  0  0     0  0            999 V3000
M  V30 BEGIN CTAB
M  V30 COUNTS 3412 3454 0 0 0
M  V30 BEGIN ATOM
M  V30 1 H -0.908 1.98254 -0.117106 0
M  V30 2 N 0 1.576 0 0
M  V30 3 C 0.933 2.03868 1.02534 0
M  V30 4 C 1.911 0.928543 1.3348 0
M  V30 5 O 3.095 1.19667 1.45644 0
M  V30 6 C 0.222 2.43627 2.35294 0
M  V30 7 C -0.732 3.65373 2.2001 0
M  V30 8 S 0.101 5.13292 1.52614 0
M  V30 9 C 1.257 5.56322 2.86805 0
M  V30 10 H 1.49 2.90518 0.631377 0
M  V30 11 H -0.977 1.52953 0.210867 0
M  V30 12 H 0.981 2.67203 3.11629 0
M  V30 13 H -0.358 1.57376 2.7183 0
M  V30 14 H -1.165 3.90944 3.18086 0
M  V30 15 H -1.563 3.418 1.51819 0
M  V30 16 H 0.729 5.58782 3.83104 0
M  V30 17 H 1.672 6.56266 2.65933 0
M  V30 18 H 2.08 4.83886 2.90714 0
M  V30 19 N 1.4781 -0.272755 1.55222 0
M  V30 20 C 2.4411 -1.32041 1.87344 0
M  V30 21 C 3.4411 -1.42342 0.74803 0
M  V30 22 O 4.6311 -1.41488 1.0162 0
M  V30 23 C 1.7631 -2.70173 2.07893 0
M  V30 24 H 2.9561 -1.04789 2.80997 0
M  V30 25 H 0.5091 -0.51083 1.47717 0
M  V30 26 H 1.2441 -3.02605 1.16622 0
M  V30 27 H 1.0291 -2.64082 2.89833 0
M  V30 28 H 2.5191 -3.45869 2.34017 0
M  V30 29 N 2.9562 -1.48159 -0.537278 0
M  V30 30 C 4.2052 -1.5506 -1.28993 0
M  V30 31 C 4.5182 -0.226211 -1.94288 0
M  V30 32 O 5.7242 -0.173395 -2.70946 0
M  V30 33 C 4.1802 -2.73429 -2.34018 0
M  V30 34 C 3.7882 -4.1248 -1.74825 0
M  V30 35 C 5.5322 -2.89638 -3.10339 0
M  V30 36 C 3.4392 -5.22121 -2.77747 0
M  V30 37 H 2.3692 -0.577231 -0.485098 0
M  V30 38 H 5.0202 -1.74478 -0.568317 0
M  V30 39 H 3.4022 -2.47431 -3.09182 0
M  V30 40 H 4.5762 -4.48466 -1.05899 0
M  V30 41 H 2.8912 -4.01327 -1.11022 0
M  V30 42 H 5.4882 -3.68718 -3.87235 0
M  V30 43 H 5.8312 -1.9882 -3.65754 0
M  V30 44 H 6.3642 -3.15502 -2.42288 0
M  V30 45 H 3.1032 -6.1488 -2.27161 0
M  V30 46 H 2.6232 -4.90631 -3.45024 0
M  V30 47 H 4.3022 -5.49924 -3.4087 0
M  V30 48 N 4.4343 0.785586 -1.36625 0
M  V30 49 C 5.6813 1.54362 -1.31067 0
M  V30 50 C 6.0093 1.94195 0.10893 0
M  V30 51 O 5.2643 1.63262 1.07908 0
M  V30 52 C 5.5633 2.83007 -2.1827 0
M  V30 53 C 5.2293 2.62294 -3.6676 0
M  V30 54 C 3.8913 2.56353 -4.0723 0
M  V30 55 C 6.2433 2.43371 -4.6089 0
M  V30 56 C 3.5713 2.29461 -5.39967 0
M  V30 57 C 5.9233 2.18005 -5.93849 0
M  V30 58 C 4.5873 2.105 -6.3344 0
M  V30 59 H 3.8573 0.564851 -0.479609 0
M  V30 60 H 6.5043 0.906028 -1.68711 0
M  V30 61 H 4.8093 3.51253 -1.73576 0
M  V30 62 H 6.5063 3.40817 -2.11292 0
M  V30 63 H 3.0963 2.67774 -3.34656 0
M  V30 64 H 7.2803 2.46959 -4.30494 0
M  V30 65 H 2.5363 2.22135 -5.69619 0
M  V30 66 H 6.7103 2.02359 -6.66351 0
M  V30 67 H 4.3373 1.89425 -7.36222 0
M  V30 68 N 5.9124 1.20967 1.01018 0
M  V30 69 C 6.8594 0.964281 2.09691 0
M  V30 70 C 7.8294 -0.107853 1.65749 0
M  V30 71 O 9.0144 0.0381987 1.90762 0
M  V30 72 C 6.1544 0.52943 3.41015 0
M  V30 73 C 5.2674 1.67043 3.98398 0
M  V30 74 C 4.4024 1.18525 5.17808 0
M  V30 75 C 3.4414 2.29892 5.67288 0
M  V30 76 N 2.5784 1.82546 6.77954 0
M  V30 77 H 7.4184 1.89463 2.30017 0
M  V30 78 H 4.9554 0.944289 1.1279 0
M  V30 79 H 6.9134 0.258588 4.16398 0
M  V30 80 H 5.5434 -0.363919 3.20742 0
M  V30 81 H 4.5954 2.05603 3.20049 0
M  V30 82 H 5.9074 2.50877 4.31117 0
M  V30 83 H 5.0614 0.870762 6.00419 0
M  V30 84 H 3.8004 0.316887 4.86669 0
M  V30 85 H 2.8054 2.6215 4.83278 0
M  V30 86 H 4.0304 3.17216 6.00459 0
M  V30 87 H 1.9764 0.980454 6.48632 0
M  V30 88 H 1.8934 2.59956 7.09901 0
M  V30 89 H 3.1614 1.54115 7.64113 0
M  V30 90 N 7.3905 -1.2043 1.01659 0
M  V30 91 C 8.3375 -2.23215 0.586822 0
M  V30 92 C 9.3075 -1.61382 -0.393085 0
M  V30 93 O 10.4925 -1.88544 -0.292525 0
M  V30 94 C 7.6325 -3.45032 -0.0687464 0
M  V30 95 C 6.7455 -4.21296 0.955724 0
M  V30 96 C 5.8805 -5.30507 0.271208 0
M  V30 97 C 4.9195 -5.98515 1.28244 0
M  V30 98 N 4.0565 -6.99316 0.62459 0
M  V30 99 H 8.8965 -2.59336 1.46796 0
M  V30 100 H 6.4335 -1.27431 0.734836 0
M  V30 101 H 8.3915 -4.1459 -0.465965 0
M  V30 102 H 7.0215 -3.09604 -0.913529 0
M  V30 103 H 6.0735 -3.50803 1.4711 0
M  V30 104 H 7.3855 -4.6803 1.72479 0
M  V30 105 H 6.5395 -6.06428 -0.18151 0
M  V30 106 H 5.2785 -4.8481 -0.530163 0
M  V30 107 H 4.2835 -5.21355 1.74554 0
M  V30 108 H 5.5085 -6.46298 2.08509 0
M  V30 109 H 3.4545 -6.55812 -0.156914 0
M  V30 110 H 3.3715 -7.44178 1.33172 0
M  V30 111 H 4.6395 -7.79255 0.195462 0
M  V30 112 N 8.8686 -0.792821 -1.36206 0
M  V30 113 C 10.0936 -0.377701 -2.03932 0
M  V30 114 C 10.5186 0.998947 -1.59382 0
M  V30 115 O 9.8766 1.64421 -0.763903 0
M  V30 116 C 9.9246 -0.453635 -3.57735 0
M  V30 117 O 9.0286 0.538151 -4.08874 0
M  V30 118 H 8.3696 -0.159855 -0.644471 0
M  V30 119 H 10.8996 -1.07488 -1.7409 0
M  V30 120 H 10.9096 -0.318464 -4.06755 0
M  V30 121 H 9.5846 -1.45784 -3.89512 0
M  V30 122 H 8.1616 0.364359 -3.71116 0
M  V30 123 N 10.3467 1.47872 -0.545128 0
M  V30 124 C 11.5957 2.01695 -0.0145033 0
M  V30 125 C 11.9087 1.42609 1.33873 0
M  V30 126 O 13.1147 1.88021 1.95858 0
M  V30 127 C 11.5707 3.59892 0.0245068 0
M  V30 128 C 11.1787 4.27966 -1.32475 0
M  V30 129 C 12.9227 4.21507 0.50316 0
M  V30 130 C 10.8297 5.78136 -1.2455 0
M  V30 131 H 9.7597 0.753998 -0.00165172 0
M  V30 132 H 12.4107 1.69985 -0.691175 0
M  V30 133 H 10.7927 3.88509 0.766575 0
M  V30 134 H 11.9667 4.11003 -2.08357 0
M  V30 135 H 10.2817 3.78286 -1.74036 0
M  V30 136 H 12.8787 5.31538 0.580656 0
M  V30 137 H 13.2217 3.87855 1.51243 0
M  V30 138 H 13.7547 3.97376 -0.183681 0
M  V30 139 H 10.4937 6.16388 -2.23039 0
M  V30 140 H 10.0137 5.97469 -0.528282 0
M  V30 141 H 11.6927 6.40099 -0.942488 0
M  V30 142 N 11.8248 0.280983 1.55075 0
M  V30 143 C 13.0738 -0.334784 1.98902 0
M  V30 144 C 13.3868 -1.56534 1.17288 0
M  V30 145 O 14.5928 -2.25443 1.51287 0
M  V30 146 C 13.0488 -0.646994 3.54037 0
M  V30 147 C 12.6568 0.564085 4.44435 0
M  V30 148 C 14.4008 -1.22506 4.06439 0
M  V30 149 C 12.3078 0.226137 5.90967 0
M  V30 150 H 11.2378 -0.128866 0.742906 0
M  V30 151 H 13.8888 0.386556 1.79382 0
M  V30 152 H 12.2708 -1.42739 3.6938 0
M  V30 153 H 13.4448 1.34082 4.40861 0
M  V30 154 H 11.7598 1.0594 4.02698 0
M  V30 155 H 14.3568 -1.49182 5.13468 0
M  V30 156 H 14.6998 -2.16085 3.55827 0
M  V30 157 H 15.2328 -0.50682 3.94558 0
M  V30 158 H 11.9718 1.12996 6.45687 0
M  V30 159 H 11.4918 -0.513717 5.97596 0
M  V30 160 H 13.1708 -0.179539 6.46751 0
M  V30 161 N 13.3029 -1.57598 0.00835791 0
M  V30 162 C 14.5519 -1.90107 -0.673968 0
M  V30 163 C 14.8649 -0.884275 -1.7447 0
M  V30 164 O 16.0709 -1.09987 -2.48224 0
M  V30 165 C 14.5269 -3.37497 -1.24995 0
M  V30 166 C 14.1349 -4.47491 -0.2136 0
M  V30 167 C 15.8789 -3.79104 -1.90999 0
M  V30 168 C 13.7859 -5.85963 -0.80005 0
M  V30 169 H 12.7159 -0.709393 -0.255495 0
M  V30 170 H 15.3669 -1.83365 0.0702693 0
M  V30 171 H 13.7489 -3.39102 -2.04513 0
M  V30 172 H 14.9229 -4.57414 0.557596 0
M  V30 173 H 13.2379 -4.14956 0.346474 0
M  V30 174 H 15.8349 -4.79901 -2.35795 0
M  V30 175 H 16.1779 -3.1306 -2.74407 0
M  V30 176 H 16.7109 -3.79833 -1.18203 0
M  V30 177 H 13.4499 -6.555 -0.00456708 0
M  V30 178 H 12.9699 -5.79687 -1.54021 0
M  V30 179 H 14.6489 -6.33884 -1.29615 0
M  V30 180 N 14.781 0.264519 -1.55364 0
M  V30 181 C 16.028 0.994986 -1.7637 0
M  V30 182 C 16.356 1.85976 -0.5695 0
M  V30 183 O 15.611 1.90509 0.44776 0
M  V30 184 C 15.91 1.9004 -3.02687 0
M  V30 185 C 15.576 1.19243 -4.34847 0
M  V30 186 C 14.238 0.996709 -4.70764 0
M  V30 187 C 16.59 0.689296 -5.16622 0
M  V30 188 C 13.918 0.285261 -5.86006 0
M  V30 189 C 16.27 -0.00860079 -6.32599 0
M  V30 190 C 14.934 -0.215963 -6.67151 0
M  V30 191 H 14.204 0.364091 -0.645383 0
M  V30 192 H 16.851 0.266543 -1.89636 0
M  V30 193 H 15.156 2.69533 -2.84357 0
M  V30 194 H 16.853 2.46695 -3.16137 0
M  V30 195 H 13.443 1.3549 -4.06621 0
M  V30 196 H 17.627 0.828108 -4.89342 0
M  V30 197 H 12.883 0.113961 -6.11294 0
M  V30 198 H 17.057 -0.406186 -6.95214 0
M  V30 199 H 14.684 -0.769217 -7.56298 0
M  V30 200 N 16.2591 1.48442 0.529413 0
M  V30 201 C 17.1891 1.65902 1.64313 0
M  V30 202 C 18.1701 0.507897 1.6234 0
M  V30 203 O 19.3551 0.740503 1.79528 0
M  V30 204 C 16.4851 1.69911 3.02898 0
M  V30 205 C 15.4391 2.8453 3.19729 0
M  V30 206 C 14.7651 2.73629 4.59381 0
M  V30 207 C 16.0651 4.25821 3.02447 0
M  V30 208 H 17.7591 2.5914 1.49955 0
M  V30 209 H 15.3051 1.24709 0.719982 0
M  V30 210 H 17.2581 1.80715 3.80684 0
M  V30 211 H 15.9821 0.732524 3.18279 0
M  V30 212 H 14.6411 2.73283 2.44361 0
M  V30 213 H 14.2891 1.74938 4.71599 0
M  V30 214 H 13.9891 3.50541 4.71588 0
M  V30 215 H 15.5131 2.86401 5.39265 0
M  V30 216 H 16.9271 4.37898 3.70024 0
M  V30 217 H 15.3241 5.03735 3.26146 0
M  V30 218 H 16.3941 4.42244 1.98867 0
M  V30 219 N 17.7372 -0.778329 1.37039 0
M  V30 220 C 18.9842 -1.53665 1.31884 0
M  V30 221 C 19.3122 -1.9425 -0.0986303 0
M  V30 222 O 18.5672 -1.63832 -1.07041 0
M  V30 223 C 18.8662 -2.81845 2.19768 0
M  V30 224 C 18.5322 -2.60345 3.68146 0
M  V30 225 C 17.1942 -2.5419 4.08584 0
M  V30 226 C 19.5462 -2.40923 4.62175 0
M  V30 227 C 16.8742 -2.26594 5.41177 0
M  V30 228 C 19.2262 -2.14852 5.94997 0
M  V30 229 C 17.8902 -2.07137 6.34547 0
M  V30 230 H 17.1602 -0.562299 0.482598 0
M  V30 231 H 19.8072 -0.897069 1.69189 0
M  V30 232 H 18.1122 -3.50328 1.75436 0
M  V30 233 H 19.8092 -3.39692 2.13097 0
M  V30 234 H 16.3992 -2.65996 3.36072 0
M  V30 235 H 20.5832 -2.44673 4.31797 0
M  V30 236 H 15.8392 -2.19111 5.70789 0
M  V30 237 H 20.0132 -1.98822 6.67415 0
M  V30 238 H 17.6402 -1.85518 7.37216 0
M  V30 239 N 19.2153 -1.21501 -1.00376 0
M  V30 240 C 20.4623 -1.03299 -1.74171 0
M  V30 241 C 20.7903 0.433326 -1.89612 0
M  V30 242 O 20.0453 1.33779 -1.42834 0
M  V30 243 C 20.3443 -1.67673 -3.15627 0
M  V30 244 C 20.0103 -3.17533 -3.2013 0
M  V30 245 C 18.6723 -3.58427 -3.21067 0
M  V30 246 C 21.0243 -4.13504 -3.17275 0
M  V30 247 C 18.3523 -4.93794 -3.16835 0
M  V30 248 C 20.7043 -5.48834 -3.14585 0
M  V30 249 C 19.3683 -5.89123 -3.13831 0
M  V30 250 H 18.6383 -0.377999 -0.637336 0
M  V30 251 H 21.2853 -1.51111 -1.17634 0
M  V30 252 H 19.5903 -1.12158 -3.75404 0
M  V30 253 H 21.2873 -1.51091 -3.71446 0
M  V30 254 H 17.8773 -2.84965 -3.20145 0
M  V30 255 H 22.0613 -3.82936 -3.15711 0
M  V30 256 H 17.3173 -5.24255 -3.1459 0
M  V30 257 H 21.4913 -6.22934 -3.1133 0
M  V30 258 H 19.1183 -6.93984 -3.10307 0
M  V30 259 N 20.6934 1.19889 -1.02296 0
M  V30 260 C 21.9214 1.9339 -0.735399 0
M  V30 261 C 22.3364 1.75148 0.704887 0
M  V30 262 O 21.6934 1.06954 1.47875 0
M  V30 263 C 21.7444 3.45313 -1.06962 0
M  V30 264 O 21.4654 3.62964 -2.45334 0
M  V30 265 C 22.9664 4.35948 -0.804021 0
M  V30 266 H 20.1864 0.61448 -0.269546 0
M  V30 267 H 22.7304 1.522 -1.36585 0
M  V30 268 H 20.8854 3.84359 -0.484455 0
M  V30 269 H 21.2994 4.56886 -2.57595 0
M  V30 270 H 22.7734 5.41174 -1.0879 0
M  V30 271 H 23.2504 4.3842 0.261691 0
M  V30 272 H 23.8564 4.02574 -1.37164 0
M  V30 273 N 22.1715 0.800033 1.35784 0
M  V30 274 C 23.4185 0.377342 1.98953 0
M  V30 275 C 23.7465 -1.05378 1.6348 0
M  V30 276 O 23.0015 -1.74459 0.886707 0
M  V30 277 C 23.3005 0.500276 3.53881 0
M  V30 278 C 22.9665 1.89375 4.09204 0
M  V30 279 C 21.6285 2.27499 4.24025 0
M  V30 280 C 23.9805 2.8057 4.39238 0
M  V30 281 C 21.3085 3.562 4.66195 0
M  V30 282 C 23.6605 4.0871 4.82844 0
M  V30 283 C 22.3245 4.46843 4.95871 0
M  V30 284 H 21.5945 0.138079 0.728021 0
M  V30 285 H 24.2415 1.01955 1.62103 0
M  V30 286 H 22.5465 -0.225405 3.91151 0
M  V30 287 H 24.2435 0.154097 4.00704 0
M  V30 288 H 20.8335 1.58753 3.98115 0
M  V30 289 H 25.0175 2.52367 4.27346 0
M  V30 290 H 20.2735 3.85602 4.74469 0
M  V30 291 H 24.4475 4.79481 5.05046 0
M  V30 292 H 22.0745 5.46623 5.28306 0
M  V30 293 N 23.6496 -1.47581 0.552962 0
M  V30 294 C 24.8966 -2.02482 0.0273243 0
M  V30 295 C 25.2246 -1.42776 -1.32081 0
M  V30 296 O 24.4796 -0.571393 -1.87173 0
M  V30 297 C 24.7786 -3.57199 -0.119728 0
M  V30 298 C 24.4446 -4.35804 1.15697 0
M  V30 299 C 23.1066 -4.57 1.50681 0
M  V30 300 C 25.4586 -4.81167 2.00319 0
M  V30 301 C 22.7866 -5.20807 2.70142 0
M  V30 302 C 25.1386 -5.46293 3.18978 0
M  V30 303 C 23.8026 -5.65722 3.54281 0
M  V30 304 H 23.0726 -0.740933 0.00999866 0
M  V30 305 H 25.7196 -1.77302 0.72362 0
M  V30 306 H 24.0246 -3.81348 -0.89896 0
M  V30 307 H 25.7216 -3.97324 -0.541718 0
M  V30 308 H 22.3116 -4.19582 0.874561 0
M  V30 309 H 26.4956 -4.64574 1.74599 0
M  V30 310 H 21.7516 -5.34045 2.97668 0
M  V30 311 H 25.9256 -5.80407 3.84838 0
M  V30 312 H 23.5526 -6.14936 4.46942 0
M  V30 313 N 25.1277 -0.289203 -1.54924 0
M  V30 314 C 26.0757 0.607966 -2.24514 0
M  V30 315 C 27.0697 1.14655 -1.24702 0
M  V30 316 O 28.2757 1.09856 -1.4259 0
M  V30 317 H 24.6507 0.21464 -0.720718 0
M  V30 318 H 26.6217 -0.00164182 -2.984 0
M  V30 319 C 25.3707 1.77406 -2.99036 0
M  V30 320 H 24.6937 1.36884 -3.75637 0
M  V30 321 H 26.1337 2.37814 -3.51028 0
M  V30 322 C 24.5927 2.67107 -2.05318 0
M  V30 323 O 25.1227 3.6787 -1.61353 0
M  V30 324 N 23.3287 2.34582 -1.71521 0
M  V30 325 H 22.8757 1.52688 -2.07471 0
M  V30 326 H 22.8337 2.94867 -1.0909 0
M  V30 327 N 26.6058 1.57591 -0.0167156 0
M  V30 328 C 27.8358 1.95292 0.674149 0
M  V30 329 C 28.2438 0.891097 1.66901 0
M  V30 330 O 27.5868 -0.136908 1.83189 0
M  V30 331 C 27.6488 3.29072 1.44747 0
M  V30 332 C 27.3128 4.52879 0.612331 0
M  V30 333 C 28.3098 5.1979 -0.107126 0
M  V30 334 C 25.9948 4.99242 0.553381 0
M  V30 335 C 27.9888 6.31375 -0.874339 0
M  V30 336 C 25.6758 6.10713 -0.217546 0
M  V30 337 C 26.6738 6.76637 -0.930123 0
M  V30 338 O 26.3618 7.85969 -1.68844 0
M  V30 339 H 26.0938 0.648275 0.191615 0
M  V30 340 H 28.6478 2.05284 -0.0690148 0
M  V30 341 H 26.8778 3.15535 2.2355 0
M  V30 342 H 28.5668 3.51764 2.02526 0
M  V30 343 H 29.3328 4.84948 -0.0708392 0
M  V30 344 H 25.2118 4.47744 1.09757 0
M  V30 345 H 28.7558 6.82764 -1.43106 0
M  V30 346 H 24.6528 6.44994 -0.255593 0
M  V30 347 H 25.4208 8.02571 -1.6069 0
M  V30 348 N 28.0839 -0.256276 1.55502 0
M  V30 349 C 29.3239 -0.993081 1.78654 0
M  V30 350 C 29.6879 -1.8288 0.584724 0
M  V30 351 O 30.8889 -2.59665 0.694822 0
M  V30 352 C 29.1599 -1.83856 3.06483 0
M  V30 353 S 30.7189 -2.63573 3.5082 0
M  V30 354 H 27.5369 -0.334199 0.62756 0
M  V30 355 H 30.1389 -0.26184 1.93739 0
M  V30 356 H 28.8429 -1.21414 3.92029 0
M  V30 357 H 28.3739 -2.61271 2.94111 0
M  V30 358 H 30.3889 -3.86312 3.11412 0
M  V30 359 N 29.562 -1.4872 -0.521534 0
M  V30 360 C 30.809 -1.57168 -1.27689 0
M  V30 361 C 31.137 -0.249275 -1.92896 0
M  V30 362 O 30.392 0.761162 -1.80291 0
M  V30 363 C 30.691 -2.66497 -2.38148 0
M  V30 364 C 30.357 -4.08664 -1.90538 0
M  V30 365 C 29.019 -4.47357 -1.77271 0
M  V30 366 C 31.371 -4.97724 -1.54663 0
M  V30 367 C 28.699 -5.72905 -1.26478 0
M  V30 368 C 31.051 -6.2377 -1.05329 0
M  V30 369 C 29.715 -6.61311 -0.906861 0
M  V30 370 H 28.985 -0.575117 -0.467249 0
M  V30 371 H 31.632 -1.82472 -0.581051 0
M  V30 372 H 29.937 -2.35085 -3.13437 0
M  V30 373 H 31.634 -2.70246 -2.96257 0
M  V30 374 H 28.224 -3.78111 -2.01816 0
M  V30 375 H 32.408 -4.68501 -1.63768 0
M  V30 376 H 27.664 -6.00709 -1.13835 0
M  V30 377 H 31.838 -6.9217 -0.76644 0
M  V30 378 H 29.465 -7.5848 -0.511083 0
M  V30 379 N 31.0401 0.771051 -1.3745 0
M  V30 380 C 32.2651 1.56529 -1.36065 0
M  V30 381 C 32.6901 1.88029 0.0515859 0
M  V30 382 O 32.0481 1.49282 1.02882 0
M  V30 383 C 32.0961 2.85187 -2.20683 0
M  V30 384 O 31.2001 3.79593 -1.61193 0
M  V30 385 H 30.5411 0.47411 -0.464883 0
M  V30 386 H 33.0711 0.954269 -1.80983 0
M  V30 387 H 33.0811 3.34283 -2.33921 0
M  V30 388 H 31.7561 2.61588 -3.23334 0
M  V30 389 H 30.3331 3.38239 -1.56999 0
M  V30 390 N 32.5182 1.22032 0.997298 0
M  V30 391 C 33.4502 0.944263 2.08845 0
M  V30 392 C 34.4632 -0.0754663 1.62625 0
M  V30 393 O 35.6522 0.157994 1.77799 0
M  V30 394 C 32.7522 0.397723 3.36558 0
M  V30 395 C 31.9252 1.47362 4.11829 0
M  V30 396 C 30.9842 0.934951 5.17827 0
M  V30 397 O 30.0102 1.62016 5.45655 0
M  V30 398 N 31.2122 -0.245895 5.79979 0
M  V30 399 H 33.9772 1.88363 2.33109 0
M  V30 400 H 31.5382 1.12661 1.16272 0
M  V30 401 H 33.5302 0.0227771 4.04694 0
M  V30 402 H 32.1002 -0.446646 3.09393 0
M  V30 403 H 31.3202 2.02208 3.38386 0
M  V30 404 H 32.6082 2.19764 4.58891 0
M  V30 405 H 32.0062 -0.819475 5.59733 0
M  V30 406 H 30.5632 -0.562272 6.4937 0
M  V30 407 N 33.9963 -1.19345 1.0293 0
M  V30 408 C 35.2733 -1.84811 0.640642 0
M  V30 409 C 35.6533 -1.91855 -0.88062 0
M  V30 410 O 35.0013 -1.43587 -1.7775 0
M  V30 411 C 35.2113 -3.23755 1.30321 0
M  V30 412 C 36.5593 -3.99912 1.42673 0
M  V30 413 O 37.5833 -3.33155 1.26041 0
M  V30 414 O 36.4423 -5.19494 1.6967 0
M  V30 415 H 33.5363 -0.796443 0.222726 0
M  V30 416 H 36.0823 -1.26831 1.12748 0
M  V30 417 H 34.8543 -3.13466 2.34211 0
M  V30 418 H 34.4773 -3.89381 0.804261 0
M  V30 419 N 35.4744 -0.807222 -1.35358 0
M  V30 420 C 36.7204 -0.388463 -1.99045 0
M  V30 421 C 37.0534 1.04184 -1.63888 0
M  V30 422 O 36.3284 1.72292 -0.902535 0
M  V30 423 C 36.6114 -0.572783 -3.55515 0
M  V30 424 C 36.4644 -2.04807 -4.00468 0
M  V30 425 C 37.7834 0.00114064 -4.401 0
M  V30 426 H 34.9024 -0.142619 -0.723069 0
M  V30 427 H 37.5444 -1.01687 -1.60498 0
M  V30 428 H 35.6944 -0.0378425 -3.88482 0
M  V30 429 H 37.3664 -2.64544 -3.77908 0
M  V30 430 H 35.6094 -2.54427 -3.51353 0
M  V30 431 H 36.2804 -2.12792 -5.09337 0
M  V30 432 H 38.7564 -0.455716 -4.13597 0
M  V30 433 H 37.6324 -0.157737 -5.48673 0
M  V30 434 H 37.8934 1.09488 -4.28328 0
M  V30 435 N 36.9525 1.47285 -0.560781 0
M  V30 436 C 38.2015 2.01668 -0.035895 0
M  V30 437 C 38.5145 1.44021 1.32353 0
M  V30 438 O 39.7205 1.90088 1.93853 0
M  V30 439 C 38.1765 3.59897 -0.0136659 0
M  V30 440 C 37.7845 4.26536 -1.37006 0
M  V30 441 C 39.5285 4.22017 0.458425 0
M  V30 442 C 37.4355 5.76782 -1.30675 0
M  V30 443 H 36.3655 0.753938 -0.00964879 0
M  V30 444 H 39.0165 1.69243 -0.709166 0
M  V30 445 H 37.3985 3.89301 0.725325 0
M  V30 446 H 38.5725 4.0877 -2.12705 0
M  V30 447 H 36.8875 3.76419 -1.78038 0
M  V30 448 H 39.4845 5.32124 0.524247 0
M  V30 449 H 39.8275 3.89437 1.4712 0
M  V30 450 H 40.3605 3.97159 -0.225818 0
M  V30 451 H 37.0995 6.13988 -2.29564 0
M  V30 452 H 36.6195 5.96875 -0.591622 0
M  V30 453 H 38.2985 6.39063 -1.01033 0
M  V30 454 N 38.4306 0.297415 1.54768 0
M  V30 455 C 39.3406 -0.58983 2.27064 0
M  V30 456 C 40.3566 -1.15144 1.30453 0
M  V30 457 O 41.5326 -1.17699 1.63428 0
M  V30 458 C 38.5976 -1.74714 2.9946 0
M  V30 459 C 37.6586 -1.21997 4.11601 0
M  V30 460 C 36.8916 -2.32212 4.80535 0
M  V30 461 O 37.1146 -3.52036 4.48806 0
M  V30 462 O 36.0486 -1.99106 5.68014 0
M  V30 463 H 39.8746 -0.00348199 3.037 0
M  V30 464 H 37.4596 0.0640035 1.49263 0
M  V30 465 H 39.3416 -2.42147 3.44881 0
M  V30 466 H 38.0166 -2.32016 2.25722 0
M  V30 467 H 36.9236 -0.511458 3.70587 0
M  V30 468 H 38.2566 -0.692419 4.87305 0
M  V30 469 N 39.9087 -1.5758 0.0250728 0
M  V30 470 C 40.8387 -2.13007 -0.956575 0
M  V30 471 C 41.8197 -1.0452 -1.342 0
M  V30 472 O 43.0047 -1.32332 -1.42133 0
M  V30 473 C 40.1347 -2.65386 -2.24026 0
M  V30 474 C 39.0887 -3.78623 -1.99571 0
M  V30 475 C 38.4147 -4.17414 -3.3417 0
M  V30 476 C 39.7147 -5.04867 -1.33814 0
M  V30 477 H 41.4087 -2.9528 -0.494991 0
M  V30 478 H 38.9547 -1.42042 -0.236651 0
M  V30 479 H 40.9077 -3.02794 -2.93076 0
M  V30 480 H 39.6317 -1.80268 -2.72343 0
M  V30 481 H 38.2907 -3.41646 -1.32941 0
M  V30 482 H 37.9387 -3.29284 -3.80238 0
M  V30 483 H 37.6387 -4.93719 -3.18615 0
M  V30 484 H 39.1627 -4.57402 -4.04495 0
M  V30 485 H 40.5767 -5.39888 -1.92857 0
M  V30 486 H 38.9737 -5.86144 -1.28669 0
M  V30 487 H 40.0437 -4.83904 -0.310561 0
M  V30 488 N 41.3868 0.248026 -1.55636 0
M  V30 489 C 42.3348 1.32683 -1.91045 0
M  V30 490 C 43.3288 1.49883 -0.789401 0
M  V30 491 O 44.5348 1.51371 -0.974007 0
M  V30 492 H 40.9098 0.444272 -0.606734 0
M  V30 493 H 42.8808 1.00085 -2.81115 0
M  V30 494 C 41.6298 2.6755 -2.22064 0
M  V30 495 H 40.9528 2.55114 -3.07826 0
M  V30 496 H 42.3928 3.41912 -2.50743 0
M  V30 497 C 40.8518 3.20556 -1.0366 0
M  V30 498 O 41.3818 4.00695 -0.284016 0
M  V30 499 N 39.5878 2.78568 -0.82753 0
M  V30 500 H 39.1348 2.1351 -1.44123 0
M  V30 501 H 39.0928 3.14378 -0.0369803 0
M  V30 502 N 42.8649 1.48995 0.513639 0
M  V30 503 C 44.1419 1.48338 1.27495 0
M  V30 504 C 44.5219 0.204065 2.10111 0
M  V30 505 O 43.8699 -0.813881 2.13514 0
M  V30 506 C 44.0799 2.75498 2.14247 0
M  V30 507 C 45.4279 3.24484 2.73852 0
M  V30 508 O 46.4519 2.76528 2.24523 0
M  V30 509 O 45.3109 4.07974 3.6362 0
M  V30 510 H 42.4049 0.593149 0.576284 0
M  V30 511 H 44.9509 1.61246 0.528948 0
M  V30 512 H 43.7229 3.60109 1.53092 0
M  V30 513 H 43.3459 2.6539 2.96064 0
M  V30 514 N 44.343 -0.763751 1.37857 0
M  V30 515 C 45.568 -1.55805 1.36893 0
M  V30 516 C 45.993 -1.88054 -0.0416135 0
M  V30 517 O 45.351 -1.49825 -1.02089 0
M  V30 518 C 45.399 -2.84012 2.22192 0
M  V30 519 O 44.503 -3.78732 1.63204 0
M  V30 520 H 43.844 -0.471638 0.46739 0
M  V30 521 H 46.374 -0.944657 1.81487 0
M  V30 522 H 46.384 -3.33037 2.35691 0
M  V30 523 H 45.059 -2.59869 3.24716 0
M  V30 524 H 43.636 -3.37402 1.58791 0
M  V30 525 N 45.8211 -1.22559 -0.990812 0
M  V30 526 C 46.7691 -0.994798 -2.10253 0
M  V30 527 C 47.7631 0.0627798 -1.69284 0
M  V30 528 O 48.9691 -0.0898392 -1.79776 0
M  V30 529 H 45.3441 -0.304527 -0.687581 0
M  V30 530 H 47.3151 -1.93812 -2.26891 0
M  V30 531 C 46.0641 -0.591439 -3.42633 0
M  V30 532 H 45.3871 -1.3969 -3.74602 0
M  V30 533 H 46.8271 -0.469385 -4.21394 0
M  V30 534 C 45.2861 0.699232 -3.29564 0
M  V30 535 O 45.8161 1.75112 -3.61523 0
M  V30 536 N 44.0221 0.671182 -2.82743 0
M  V30 537 H 43.5691 -0.185136 -2.56934 0
M  V30 538 H 43.5271 1.53502 -2.7438 0
M  V30 539 N 47.2992 1.18797 -1.03562 0
M  V30 540 C 48.5462 1.8865 -0.736023 0
M  V30 541 C 48.8742 1.80041 0.735889 0
M  V30 542 O 48.1292 1.19179 1.55225 0
M  V30 543 C 48.4282 3.38692 -1.14117 0
M  V30 544 C 48.0942 3.67504 -2.6125 0
M  V30 545 C 46.7562 3.75078 -3.01447 0
M  V30 546 C 49.1082 3.80293 -3.56408 0
M  V30 547 C 46.4362 3.92915 -4.35701 0
M  V30 548 C 48.7882 3.99645 -4.90374 0
M  V30 549 C 47.4522 4.05453 -5.30249 0
M  V30 550 H 46.7222 0.690321 -0.26933 0
M  V30 551 H 49.3692 1.40641 -1.29971 0
M  V30 552 H 47.6742 3.88645 -0.496202 0
M  V30 553 H 49.3712 3.91072 -0.886789 0
M  V30 554 H 45.9612 3.62223 -2.29113 0
M  V30 555 H 50.1452 3.73779 -3.26501 0
M  V30 556 H 45.4012 3.95653 -4.66121 0
M  V30 557 H 49.5752 4.08482 -5.64017 0
M  V30 558 H 47.2022 4.19027 -6.34288 0
M  V30 559 N 48.7773 0.814389 1.34928 0
M  V30 560 C 49.6873 0.231978 2.3345 0
M  V30 561 C 50.7033 -0.629139 1.62228 0
M  V30 562 O 51.8793 -0.539052 1.94052 0
M  V30 563 C 48.9443 -0.603482 3.41407 0
M  V30 564 C 48.0053 0.279037 4.28392 0
M  V30 565 C 47.2383 -0.516643 5.31193 0
M  V30 566 O 47.4613 -1.75068 5.4287 0
M  V30 567 O 46.3953 0.0965652 6.01823 0
M  V30 568 H 50.2213 1.04721 2.85074 0
M  V30 569 H 47.8063 0.576343 1.37836 0
M  V30 570 H 49.6883 -1.07908 4.0735 0
M  V30 571 H 48.3633 -1.39618 2.92042 0
M  V30 572 H 47.2703 0.801948 3.65403 0
M  V30 573 H 48.6033 1.03588 4.81176 0
M  V30 574 N 50.2554 -1.46986 0.568584 0
M  V30 575 C 51.4804 -2.07335 0.0520528 0
M  V30 576 C 51.9054 -1.41675 -1.23733 0
M  V30 577 O 51.2634 -0.495623 -1.74394 0
M  V30 578 C 51.3114 -3.60417 -0.11501 0
M  V30 579 O 50.4154 -3.95309 -1.17492 0
M  V30 580 H 49.7564 -0.661597 0.0564385 0
M  V30 581 H 52.2864 -1.88837 0.787507 0
M  V30 582 H 52.2964 -4.06698 -0.325644 0
M  V30 583 H 50.9714 -4.07601 0.826675 0
M  V30 584 H 49.5484 -3.60757 -0.943869 0
M  V30 585 N 51.7335 -0.305618 -1.54608 0
M  V30 586 C 52.6635 0.561482 -2.26649 0
M  V30 587 C 53.6445 1.13415 -1.26772 0
M  V30 588 O 54.8295 1.16262 -1.55553 0
M  V30 589 C 51.9595 1.73122 -3.01075 0
M  V30 590 C 50.9135 1.2887 -4.08138 0
M  V30 591 C 50.2395 2.54396 -4.70305 0
M  V30 592 C 51.5395 0.416578 -5.20636 0
M  V30 593 H 53.2335 -0.0393902 -2.99374 0
M  V30 594 H 50.7795 -0.020385 -1.43986 0
M  V30 595 H 52.7325 2.34396 -3.50195 0
M  V30 596 H 51.4565 2.3584 -2.25936 0
M  V30 597 H 50.1155 0.698991 -3.59875 0
M  V30 598 H 49.7635 3.15439 -3.918 0
M  V30 599 H 49.4635 2.25486 -5.42614 0
M  V30 600 H 50.9875 3.16464 -5.2219 0
M  V30 601 H 52.4015 0.935116 -5.65622 0
M  V30 602 H 50.7985 0.221046 -5.99693 0
M  V30 603 H 51.8685 -0.557162 -4.81688 0
M  V30 604 N 53.2116 1.57565 -0.0334293 0
M  V30 605 C 54.4396 1.9628 0.654347 0
M  V30 606 C 54.8546 0.910138 1.65414 0
M  V30 607 O 54.2116 -0.107595 1.82183 0
M  V30 608 C 54.2626 3.35067 1.35693 0
M  V30 609 O 53.9836 4.36296 0.397191 0
M  V30 610 C 55.4846 3.88439 2.13613 0
M  V30 611 H 52.7046 0.646369 0.180132 0
M  V30 612 H 55.2486 2.04282 -0.0944721 0
M  V30 613 H 53.4036 3.2827 2.05712 0
M  V30 614 H 53.8176 5.1678 0.896597 0
M  V30 615 H 55.2916 4.8788 2.58219 0
M  V30 616 H 55.7686 3.22914 2.97696 0
M  V30 617 H 56.3746 3.98516 1.48543 0
M  V30 618 N 54.6897 -0.239769 1.55765 0
M  V30 619 C 55.6217 -1.32001 1.87372 0
M  V30 620 C 56.6347 -1.43944 0.760522 0
M  V30 621 O 57.8237 -1.45167 1.0387 0
M  V30 622 C 54.9237 -2.69779 2.05115 0
M  V30 623 C 54.0967 -2.80014 3.36022 0
M  V30 624 C 53.1557 -3.98684 3.4342 0
M  V30 625 O 52.1817 -3.87877 4.16582 0
M  V30 626 N 53.3837 -5.12176 2.73232 0
M  V30 627 H 56.1487 -1.0522 2.80622 0
M  V30 628 H 53.7097 -0.429857 1.56089 0
M  V30 629 H 55.7017 -3.47517 2.07399 0
M  V30 630 H 54.2717 -2.89237 1.18577 0
M  V30 631 H 53.4917 -1.88896 3.45994 0
M  V30 632 H 54.7797 -2.83808 4.22292 0
M  V30 633 H 54.1777 -5.2385 2.13536 0
M  V30 634 H 52.7347 -5.88022 2.81199 0
M  V30 635 N 56.1678 -1.49265 -0.50573 0
M  V30 636 C 57.0978 -1.68495 -1.61653 0
M  V30 637 C 58.0788 -0.53366 -1.61512 0
M  V30 638 O 59.2638 -0.76897 -1.78327 0
M  V30 639 C 56.3938 -1.74709 -3.00157 0
M  V30 640 C 55.3478 -2.89581 -3.15162 0
M  V30 641 C 54.6738 -2.80903 -4.5497 0
M  V30 642 C 55.9738 -4.30578 -2.95634 0
M  V30 643 H 57.6678 -2.61493 -1.45814 0
M  V30 644 H 55.2138 -1.25838 -0.70005 0
M  V30 645 H 57.1668 -1.86748 -3.77761 0
M  V30 646 H 55.8908 -0.783067 -3.17074 0
M  V30 647 H 54.5498 -2.77136 -2.39982 0
M  V30 648 H 54.1978 -1.82419 -4.68756 0
M  V30 649 H 53.8978 -3.57999 -4.65951 0
M  V30 650 H 55.4218 -2.94944 -5.34641 0
M  V30 651 H 56.8358 -4.4373 -3.63011 0
M  V30 652 H 55.2328 -5.0886 -3.18091 0
M  V30 653 H 56.3028 -4.45352 -1.91806 0
M  V30 654 N 57.6459 0.756429 -1.3826 0
M  V30 655 C 58.8709 1.55077 -1.37717 0
M  V30 656 C 59.2959 1.88073 0.03164 0
M  V30 657 O 58.6539 1.50364 1.01293 0
M  V30 658 C 58.7019 2.8283 -2.23695 0
M  V30 659 O 57.8059 3.77862 -1.6521 0
M  V30 660 H 57.1469 0.469152 -0.469885 0
M  V30 661 H 59.6769 0.935019 -1.81985 0
M  V30 662 H 59.6869 3.31783 -2.37453 0
M  V30 663 H 58.3619 2.58144 -3.2609 0
M  V30 664 H 56.9389 3.36555 -1.60578 0
M  V30 665 N 59.124 1.23083 0.984299 0
M  V30 666 C 60.352 1.08714 1.76037 0
M  V30 667 C 60.767 -0.361691 1.85303 0
M  V30 668 O 60.124 -1.25034 1.32939 0
M  V30 669 C 60.175 1.70206 3.18923 0
M  V30 670 O 59.896 3.09423 3.10144 0
M  V30 671 C 61.397 1.61227 4.12941 0
M  V30 672 H 58.617 0.380664 0.552572 0
M  V30 673 H 61.161 1.62853 1.23689 0
M  V30 674 H 59.316 1.20109 3.6831 0
M  V30 675 H 59.73 3.39188 4.00065 0
M  V30 676 H 61.204 2.08962 5.10919 0
M  V30 677 H 61.681 0.570375 4.35481 0
M  V30 678 H 62.287 2.10671 3.69456 0
M  V30 679 N 60.6021 -1.18246 1.0419 0
M  V30 680 C 61.8501 -1.87886 0.744543 0
M  V30 681 C 62.1711 -1.8082 -0.730006 0
M  V30 682 O 61.4411 -1.22736 -1.52685 0
M  V30 683 H 60.0211 -0.695556 0.272417 0
M  V30 684 H 62.6831 -1.43494 1.31892 0
M  V30 685 H 61.7791 -2.9389 1.05049 0
M  V30 686 N 62.0802 -0.821533 -1.34494 0
M  V30 687 C 63.0282 -0.230702 -2.31453 0
M  V30 688 C 64.0222 0.627793 -1.57338 0
M  V30 689 O 65.2282 0.519288 -1.72347 0
M  V30 690 H 61.6032 -0.0558577 -0.749923 0
M  V30 691 H 63.5742 -1.06332 -2.78812 0
M  V30 692 C 62.3232 0.59391 -3.4259 0
M  V30 693 H 61.6462 -0.0573588 -3.99759 0
M  V30 694 H 63.0862 0.973446 -4.12674 0
M  V30 695 C 61.5452 1.76568 -2.86924 0
M  V30 696 O 62.0752 2.8638 -2.81691 0
M  V30 697 N 60.2812 1.58198 -2.43766 0
M  V30 698 H 59.8282 0.68872 -2.48222 0
M  V30 699 H 59.7862 2.36752 -2.06871 0
M  V30 700 N 63.5583 1.46682 -0.576371 0
M  V30 701 C 64.7863 2.06798 -0.0649635 0
M  V30 702 C 65.2013 1.42612 1.23723 0
M  V30 703 O 64.5583 0.529203 1.74659 0
M  V30 704 C 64.6093 3.6132 0.114202 0
M  V30 705 O 64.3303 4.23104 -1.13644 0
M  V30 706 C 65.8313 4.38349 0.66069 0
M  V30 707 H 63.0513 0.668778 -0.0545616 0
M  V30 708 H 65.5953 1.88404 -0.795237 0
M  V30 709 H 63.7503 3.79162 0.794673 0
M  V30 710 H 64.1643 5.15894 -0.946253 0
M  V30 711 H 65.6383 5.47081 0.73526 0
M  V30 712 H 66.1153 4.05953 1.67627 0
M  V30 713 H 66.7213 4.25297 0.0152951 0
M  V30 714 N 65.0364 0.313813 1.54444 0
M  V30 715 C 66.2644 -0.293918 2.04802 0
M  V30 716 C 66.6794 -1.46537 1.19047 0
M  V30 717 O 66.0364 -1.81182 0.218939 0
M  V30 718 C 66.0874 -0.737806 3.53891 0
M  V30 719 O 65.8084 0.387038 4.36387 0
M  V30 720 C 67.3094 -1.40936 4.203 0
M  V30 721 H 64.5294 -0.0620057 0.668129 0
M  V30 722 H 67.0734 0.457169 1.99324 0
M  V30 723 H 65.2284 -1.43889 3.59687 0
M  V30 724 H 65.6424 0.0391274 5.24485 0
M  V30 725 H 67.1164 -1.67099 5.26101 0
M  V30 726 H 67.5934 -2.35355 3.70816 0
M  V30 727 H 68.1994 -0.751117 4.18615 0
M  V30 728 N 66.5145 -1.57545 0.0417849 0
M  V30 729 C 67.7625 -1.91937 -0.632829 0
M  V30 730 C 68.0835 -0.919978 -1.71934 0
M  V30 731 O 67.3535 0.0366064 -1.95866 0
M  V30 732 H 65.9335 -0.708493 -0.236742 0
M  V30 733 H 68.5955 -1.9468 0.0925745 0
M  V30 734 H 67.6915 -2.92912 -1.07746 0
M  V30 735 N 67.9926 0.231505 -1.5589 0
M  V30 736 C 69.2176 0.978689 -1.82856 0
M  V30 737 C 69.6426 1.77559 -0.620846 0
M  V30 738 O 69.0006 1.76119 0.430305 0
M  V30 739 C 69.0486 1.87997 -3.07716 0
M  V30 740 O 68.1526 2.97393 -2.85712 0
M  V30 741 H 67.4936 0.277663 -0.603158 0
M  V30 742 H 70.0236 0.24783 -2.03093 0
M  V30 743 H 70.0336 2.2917 -3.37558 0
M  V30 744 H 68.7086 1.29417 -3.95252 0
M  V30 745 H 67.2856 2.60238 -2.67078 0
M  V30 746 N 69.4707 1.49531 0.497807 0
M  V30 747 C 70.7167 1.60388 1.25089 0
M  V30 748 C 71.0717 0.288328 1.90227 0
M  V30 749 O 70.3647 -0.711706 1.77891 0
M  V30 750 C 70.5587 2.70252 2.33878 0
M  V30 751 C 70.3877 4.12363 1.79408 0
M  V30 752 C 69.1577 4.7911 1.60566 0
M  V30 753 C 71.3557 4.97491 1.30412 0
M  V30 754 N 69.3377 6.05525 1.01059 0
M  V30 755 C 70.7087 6.14411 0.830595 0
M  V30 756 C 72.7637 4.83466 1.19015 0
M  V30 757 C 71.4667 7.1885 0.254371 0
M  V30 758 C 73.4927 5.88057 0.627892 0
M  V30 759 C 72.8547 7.04208 0.16461 0
M  V30 760 H 68.9537 0.641246 0.447579 0
M  V30 761 H 71.5377 1.86549 0.557441 0
M  V30 762 H 69.7087 2.45858 3.0068 0
M  V30 763 H 71.4407 2.70613 3.00917 0
M  V30 764 H 68.1957 4.35961 1.85026 0
M  V30 765 H 68.6197 6.73028 0.732236 0
M  V30 766 H 73.2617 3.93978 1.53431 0
M  V30 767 H 70.9797 8.08036 -0.102052 0
M  V30 768 H 74.5657 5.79266 0.542444 0
M  V30 769 H 73.4457 7.83757 -0.263669 0
M  V30 770 N 70.9488 -0.749086 1.3866 0
M  V30 771 C 72.1958 -1.50833 1.35114 0
M  V30 772 C 72.5238 -1.94415 -0.0574049 0
M  V30 773 O 71.7788 -1.66065 -1.03541 0
M  V30 774 C 72.0778 -2.7712 2.25697 0
M  V30 775 C 71.7438 -2.52477 3.73585 0
M  V30 776 C 70.4058 -2.45466 4.13884 0
M  V30 777 C 72.7578 -2.31066 4.67181 0
M  V30 778 C 70.0858 -2.15064 5.45861 0
M  V30 779 C 72.4378 -2.02183 5.9942 0
M  V30 780 C 71.1018 -1.93631 6.38798 0
M  V30 781 H 70.3718 -0.551936 0.494416 0
M  V30 782 H 73.0188 -0.860979 1.71054 0
M  V30 783 H 71.3238 -3.46528 1.82827 0
M  V30 784 H 73.0208 -3.35096 2.20254 0
M  V30 785 H 69.6108 -2.58807 3.41638 0
M  V30 786 H 73.7948 -2.35459 4.3689 0
M  V30 787 H 69.0508 -2.06954 5.75308 0
M  V30 788 H 73.2248 -1.8462 6.71482 0
M  V30 789 H 70.8518 -1.69839 7.40985 0
M  V30 790 N 72.4269 -1.23603 -0.977757 0
M  V30 791 C 73.6759 -1.06377 -1.71368 0
M  V30 792 C 73.9889 0.399062 -1.91486 0
M  V30 793 O 75.1949 0.691312 -2.62551 0
M  V30 794 C 73.6509 -1.85512 -3.08404 0
M  V30 795 C 73.2589 -3.36141 -2.96164 0
M  V30 796 C 75.0029 -1.76783 -3.85938 0
M  V30 797 C 72.9099 -4.07659 -4.28449 0
M  V30 798 H 71.8399 -0.394452 -0.642591 0
M  V30 799 H 74.4909 -1.47594 -1.09034 0
M  V30 800 H 72.8729 -1.37103 -3.71509 0
M  V30 801 H 74.0469 -3.92056 -2.42133 0
M  V30 802 H 72.3619 -3.45712 -2.32104 0
M  V30 803 H 74.9589 -2.27526 -4.83876 0
M  V30 804 H 75.3019 -0.731116 -4.0983 0
M  V30 805 H 75.8349 -2.22818 -3.2954 0
M  V30 806 H 72.5739 -5.11648 -4.09752 0
M  V30 807 H 72.0939 -3.5653 -4.82334 0
M  V30 808 H 73.7729 -4.141 -4.97122 0
M  V30 809 N 73.905 1.17692 -1.04816 0
M  V30 810 C 74.852 2.21581 -0.645797 0
M  V30 811 C 75.822 1.62367 0.350159 0
M  V30 812 O 77.007 1.89254 0.242433 0
M  V30 813 C 74.147 3.45092 -0.0227568 0
M  V30 814 C 73.26 4.18613 -1.06709 0
M  V30 815 C 72.395 5.29602 -0.411767 0
M  V30 816 C 71.434 5.94904 -1.44067 0
M  V30 817 N 70.571 6.97414 -0.809781 0
M  V30 818 H 75.411 2.55353 -1.5362 0
M  V30 819 H 72.948 1.25438 -0.768364 0
M  V30 820 H 74.906 4.15679 0.35588 0
M  V30 821 H 73.536 3.11917 0.831122 0
M  V30 822 H 72.588 3.46779 -1.5636 0
M  V30 823 H 73.9 4.63293 -1.84827 0
M  V30 824 H 73.054 6.06696 0.0206623 0
M  V30 825 H 71.793 4.86045 0.401438 0
M  V30 826 H 70.798 5.16544 -1.88316 0
M  V30 827 H 72.023 6.40542 -2.25571 0
M  V30 828 H 69.969 6.55998 -0.0170186 0
M  V30 829 H 69.886 7.40386 -1.52856 0
M  V30 830 H 71.154 7.78463 -0.401999 0
M  V30 831 N 75.3831 0.828654 1.34056 0
M  V30 832 C 76.6301 0.419458 1.98108 0
M  V30 833 C 76.9581 -1.01886 1.65679 0
M  V30 834 O 76.2131 -1.72539 0.923512 0
M  V30 835 C 76.5121 0.575226 3.52741 0
M  V30 836 C 76.1781 1.98012 4.05095 0
M  V30 837 C 74.8401 2.36442 4.19104 0
M  V30 838 C 77.1921 2.89824 4.33188 0
M  V30 839 C 74.5201 3.66009 4.58535 0
M  V30 840 C 76.8721 4.1886 4.74066 0
M  V30 841 C 75.5361 4.5726 4.86281 0
M  V30 842 H 74.8061 0.153491 0.724929 0
M  V30 843 H 77.4531 1.05371 1.59904 0
M  V30 844 H 75.7581 -0.142385 3.91541 0
M  V30 845 H 77.4551 0.239057 4.00287 0
M  V30 846 H 74.0451 1.67162 3.94658 0
M  V30 847 H 78.2291 2.61375 4.21897 0
M  V30 848 H 73.4851 3.95579 4.66184 0
M  V30 849 H 77.6591 4.90086 4.94761 0
M  V30 850 H 75.2861 5.57707 5.16592 0
M  V30 851 N 76.8612 -1.46375 0.584142 0
M  V30 852 C 78.0912 -2.06461 0.0758195 0
M  V30 853 C 78.4992 -1.43322 -1.23512 0
M  V30 854 O 77.8422 -0.533216 -1.75791 0
M  V30 855 C 77.9042 -3.59131 -0.162773 0
M  V30 856 C 77.5682 -4.4447 1.06279 0
M  V30 857 C 78.5652 -4.80918 1.97519 0
M  V30 858 C 76.2502 -4.85584 1.28504 0
M  V30 859 C 78.2442 -5.57309 3.09331 0
M  V30 860 C 75.9312 -5.61734 2.4062 0
M  V30 861 C 76.9292 -5.9751 3.30863 0
M  V30 862 O 76.6172 -6.72121 4.41032 0
M  V30 863 H 76.3492 -0.673745 0.0551725 0
M  V30 864 H 78.9032 -1.88969 0.804984 0
M  V30 865 H 77.1332 -3.74936 -0.946565 0
M  V30 866 H 78.8222 -4.0114 -0.619782 0
M  V30 867 H 79.5882 -4.49732 1.81565 0
M  V30 868 H 75.4672 -4.57187 0.591702 0
M  V30 869 H 79.0112 -5.85152 3.79793 0
M  V30 870 H 74.9082 -5.92334 2.56537 0
M  V30 871 H 75.6762 -6.90547 4.39417 0
M  V30 872 N 78.3393 -0.321999 -1.54275 0
M  V30 873 C 79.3023 0.531975 -2.22941 0
M  V30 874 C 80.3023 1.04478 -1.22234 0
M  V30 875 O 81.4923 0.937452 -1.46825 0
M  V30 876 C 78.6243 1.73874 -2.93224 0
M  V30 877 H 79.8173 -0.0682612 -2.99822 0
M  V30 878 H 77.3703 -0.0730644 -1.56129 0
M  V30 879 H 78.1053 2.37825 -2.20476 0
M  V30 880 H 77.8903 1.37847 -3.6707 0
M  V30 881 H 79.3803 2.34496 -3.45545 0
M  V30 882 N 79.8174 1.5752 -0.0501392 0
M  V30 883 C 81.2284 1.80271 0.485705 0
M  V30 884 C 81.5794 0.96228 1.70981 0
M  V30 885 O 80.7044 0.178578 2.15662 0
M  V30 886 C 81.2994 3.26957 0.887938 0
M  V30 887 C 79.8584 3.5063 1.36877 0
M  V30 888 C 79.0054 2.75165 0.343468 0
M  V30 889 H 81.9564 1.56281 -0.276028 0
M  V30 890 H 81.9774 3.37821 1.75093 0
M  V30 891 H 81.4894 3.881 -0.0031809 0
M  V30 892 H 79.5904 2.94766 2.27911 0
M  V30 893 H 79.7034 4.59343 1.36164 0
M  V30 894 H 78.0674 2.4127 0.816128 0
M  V30 895 H 78.8504 3.39034 -0.539548 0
M  V30 896 N 81.2955 -0.223234 1.56011 0
M  V30 897 C 82.5415 -0.944891 1.8012 0
M  V30 898 C 82.8965 -1.82039 0.622862 0
M  V30 899 O 82.1895 -1.8773 -0.383143 0
M  V30 900 C 82.3835 -1.81948 3.0762 0
M  V30 901 C 82.2125 -1.03014 4.37742 0
M  V30 902 C 80.9825 -0.72574 5.00061 0
M  V30 903 C 83.1805 -0.396256 5.12771 0
M  V30 904 N 81.1625 0.0851816 6.13841 0
M  V30 905 C 82.5335 0.278137 6.19376 0
M  V30 906 C 84.5885 -0.309117 4.9694 0
M  V30 907 C 83.2915 1.03133 7.11868 0
M  V30 908 C 85.3175 0.430607 5.8983 0
M  V30 909 C 84.6795 1.09355 6.9586 0
M  V30 910 H 80.7785 -0.326081 0.710771 0
M  V30 911 H 83.3625 -0.215914 1.93499 0
M  V30 912 H 81.5335 -2.52029 2.95527 0
M  V30 913 H 83.2655 -2.47848 3.19927 0
M  V30 914 H 80.0205 -1.04335 4.61964 0
M  V30 915 H 80.4445 0.479428 6.753 0
M  V30 916 H 85.0865 -0.807313 4.15021 0
M  V30 917 H 82.8045 1.54105 7.9327 0
M  V30 918 H 86.3905 0.499012 5.79656 0
M  V30 919 H 85.2705 1.65679 7.66499 0
M  V30 920 N 82.7736 -1.49793 -0.48987 0
M  V30 921 C 84.0136 -1.61466 -1.25332 0
M  V30 922 C 84.3776 -0.299688 -1.89647 0
M  V30 923 O 85.5786 -0.291687 -2.67213 0
M  V30 924 C 83.8496 -2.74944 -2.28343 0
M  V30 925 S 85.4086 -3.06637 -3.13878 0
M  V30 926 H 82.2266 -0.569411 -0.425784 0
M  V30 927 H 84.8286 -1.875 -0.553541 0
M  V30 928 H 83.5326 -3.68994 -1.79643 0
M  V30 929 H 83.0636 -2.50938 -3.02975 0
M  V30 930 H 85.0786 -2.49015 -4.29192 0
M  V30 931 N 84.2517 0.741722 -1.39055 0
M  V30 932 C 85.4767 1.53607 -1.39354 0
M  V30 933 C 85.9017 1.88096 0.0116905 0
M  V30 934 O 85.2597 1.5143 0.996924 0
M  V30 935 C 85.3077 2.80441 -2.26682 0
M  V30 936 O 84.4117 3.76088 -1.69208 0
M  V30 937 H 83.7527 0.464142 -0.474835 0
M  V30 938 H 86.2827 0.915665 -1.82967 0
M  V30 939 H 86.2927 3.29246 -2.40959 0
M  V30 940 H 84.9677 2.5467 -3.2881 0
M  V30 941 H 83.5447 3.34833 -1.64138 0
M  V30 942 N 85.7298 1.2412 0.971189 0
M  V30 943 C 86.6798 0.997551 2.05019 0
M  V30 944 C 87.6638 -0.0597747 1.60789 0
M  V30 945 O 88.8558 0.153516 1.76333 0
M  V30 946 C 85.9848 0.600557 3.38006 0
M  V30 947 C 85.0708 1.69377 3.88809 0
M  V30 948 N 85.4618 2.92586 4.12586 0
M  V30 949 C 83.7598 1.57048 4.17435 0
M  V30 950 C 84.4608 3.63431 4.54195 0
M  V30 951 N 83.4368 2.90979 4.59165 0
M  V30 952 H 87.2388 1.93316 2.21374 0
M  V30 953 H 84.7528 1.14194 1.1547 0
M  V30 954 H 86.7498 0.40725 4.14906 0
M  V30 955 H 85.4098 -0.327903 3.2304 0
M  V30 956 H 86.4208 3.288 4.00139 0
M  V30 957 H 83.0978 0.709798 4.11422 0
M  V30 958 H 84.4878 4.69102 4.81033 0
M  V30 959 N 87.2079 -1.17134 1.05439 0
M  V30 960 C 88.4479 -1.89137 0.77502 0
M  V30 961 C 88.8119 -1.79345 -0.685526 0
M  V30 962 O 90.0129 -2.46188 -1.0791 0
M  V30 963 C 88.2839 -3.35003 1.2453 0
M  V30 964 S 89.8429 -4.24952 1.09367 0
M  V30 965 H 86.6609 -0.652949 0.281387 0
M  V30 966 H 89.2629 -1.4145 1.34953 0
M  V30 967 H 87.9669 -3.39666 2.30338 0
M  V30 968 H 87.4979 -3.87736 0.665166 0
M  V30 969 H 89.5129 -4.96196 0.0193397 0
M  V30 970 N 88.686 -0.835752 -1.33615 0
M  V30 971 C 89.633 -0.26473 -2.29277 0
M  V30 972 C 90.603 0.617712 -1.54187 0
M  V30 973 O 91.788 0.556641 -1.825 0
M  V30 974 C 88.928 0.556777 -3.40579 0
M  V30 975 C 88.041 -0.349339 -4.30585 0
M  V30 976 C 87.176 0.482969 -5.29 0
M  V30 977 C 86.215 -0.421732 -6.10645 0
M  V30 978 N 85.352 0.372262 -7.01112 0
M  V30 979 H 90.192 -1.08582 -2.77514 0
M  V30 980 H 87.729 -0.546927 -1.36554 0
M  V30 981 H 89.687 1.04852 -4.03809 0
M  V30 982 H 88.317 1.34286 -2.93542 0
M  V30 983 H 87.369 -0.959372 -3.68104 0
M  V30 984 H 88.681 -1.04445 -4.87742 0
M  V30 985 H 87.835 1.03866 -5.97743 0
M  V30 986 H 86.574 1.21153 -4.72412 0
M  V30 987 H 85.579 -0.989464 -5.40823 0
M  V30 988 H 86.804 -1.14861 -6.69316 0
M  V30 989 H 84.75 1.08426 -6.46977 0
M  V30 990 H 84.667 -0.264198 -7.55538 0
M  V30 991 H 85.935 0.910293 -7.74167 0
M  V30 992 N 90.1641 1.46063 -0.591896 0
M  V30 993 C 91.1271 2.28854 0.125973 0
M  V30 994 C 92.1271 1.38903 0.810107 0
M  V30 995 O 93.3171 1.61186 0.66066 0
M  V30 996 C 90.4491 3.19526 1.1881 0
M  V30 997 H 91.6421 2.93802 -0.601717 0
M  V30 998 H 89.1951 1.52325 -0.350254 0
M  V30 999 H 89.9301 2.59345 1.94707 0
M  V30 1000 H 89.7151 3.85766 0.701936 0
M  V30 1001 H 91.2051 3.81817 1.69132 0
M  V30 1002 N 91.6422 0.330177 1.54103 0
M  V30 1003 C 92.5752 -0.575477 2.20825 0
M  V30 1004 C 93.5532 -1.11064 1.18758 0
M  V30 1005 O 94.7372 -1.17341 1.47524 0
M  V30 1006 C 91.8642 -1.79032 2.87516 0
M  V30 1007 C 90.9102 -1.38581 4.03358 0
M  V30 1008 S 91.7432 -0.416911 5.33875 0
M  V30 1009 C 92.8992 -1.63889 6.04062 0
M  V30 1010 H 93.1322 -0.00872114 2.97299 0
M  V30 1011 H 90.6652 0.114254 1.53977 0
M  V30 1012 H 92.6232 -2.48734 3.2656 0
M  V30 1013 H 91.2842 -2.32827 2.10832 0
M  V30 1014 H 90.4772 -2.29123 4.48908 0
M  V30 1015 H 90.0792 -0.768419 3.66021 0
M  V30 1016 H 92.3712 -2.57536 6.26643 0
M  V30 1017 H 93.3142 -1.22542 6.97416 0
M  V30 1018 H 93.7222 -1.82887 5.34053 0
M  V30 1019 N 93.1203 -1.57491 0.0584922 0
M  V30 1020 C 94.3453 -1.97711 -0.62652 0
M  V30 1021 C 94.7703 -0.936132 -1.63151 0
M  V30 1022 O 94.1283 0.099811 -1.81025 0
M  V30 1023 C 94.1763 -3.36989 -1.28338 0
M  V30 1024 O 93.2803 -3.35433 -2.39913 0
M  V30 1025 H 92.6213 -0.643868 -0.162266 0
M  V30 1026 H 95.1513 -2.04193 0.129064 0
M  V30 1027 H 95.1613 -3.73879 -1.63335 0
M  V30 1028 H 93.8363 -4.12289 -0.546889 0
M  V30 1029 H 92.4133 -3.10298 -2.06809 0
M  V30 1030 N 94.5984 0.214957 -1.56127 0
M  V30 1031 C 95.5454 1.26642 -1.92952 0
M  V30 1032 C 96.5154 1.46244 -0.78753 0
M  V30 1033 O 97.7004 1.59704 -1.04399 0
M  V30 1034 C 94.8404 2.6104 -2.25726 0
M  V30 1035 C 93.9534 2.49183 -3.52891 0
M  V30 1036 C 93.0884 3.76149 -3.7508 0
M  V30 1037 C 92.1274 3.59041 -4.95738 0
M  V30 1038 N 91.2644 4.77972 -5.14283 0
M  V30 1039 H 96.1044 0.945384 -2.82607 0
M  V30 1040 H 93.6414 0.455489 -1.3987 0
M  V30 1041 H 95.5994 3.39313 -2.42739 0
M  V30 1042 H 94.2294 2.91227 -1.39236 0
M  V30 1043 H 93.2814 1.6231 -3.44034 0
M  V30 1044 H 94.5934 2.32466 -4.41318 0
M  V30 1045 H 93.7474 4.62865 -3.92226 0
M  V30 1046 H 92.4864 3.95799 -2.84947 0
M  V30 1047 H 91.4914 2.7071 -4.78535 0
M  V30 1048 H 92.7164 3.40856 -5.87362 0
M  V30 1049 H 90.6624 4.97923 -4.27093 0
M  V30 1050 H 90.5794 4.64006 -5.96853 0
M  V30 1051 H 91.8474 5.66096 -5.35869 0
M  V30 1052 N 96.0765 1.50051 0.48192 0
M  V30 1053 C 97.3045 1.64237 1.25832 0
M  V30 1054 C 97.7195 0.321336 1.86045 0
M  V30 1055 O 97.0765 -0.695478 1.68729 0
M  V30 1056 C 97.1275 2.72548 2.37487 0
M  V30 1057 O 96.8485 3.99529 1.79745 0
M  V30 1058 C 98.3495 2.9761 3.28547 0
M  V30 1059 H 95.5695 0.55237 0.380957 0
M  V30 1060 H 98.1135 1.96207 0.576467 0
M  V30 1061 H 96.2685 2.43303 3.01467 0
M  V30 1062 H 96.6825 4.59342 2.5319 0
M  V30 1063 H 98.1565 3.77084 4.03127 0
M  V30 1064 H 98.6335 2.0826 3.86684 0
M  V30 1065 H 99.2395 3.28345 2.70314 0
M  V30 1066 N 97.5546 -0.734337 1.39446 0
M  V30 1067 C 98.8006 -1.49505 1.37913 0
M  V30 1068 C 99.1556 -1.92384 -0.0248416 0
M  V30 1069 O 98.4486 -1.6395 -0.991506 0
M  V30 1070 C 98.6426 -2.74711 2.28623 0
M  V30 1071 C 98.4716 -2.44075 3.777 0
M  V30 1072 C 97.2416 -2.36338 4.46623 0
M  V30 1073 C 99.4396 -2.09574 4.69663 0
M  V30 1074 N 97.4216 -1.9818 5.81032 0
M  V30 1075 C 98.7926 -1.81865 5.92727 0
M  V30 1076 C 100.848 -1.96048 4.57678 0
M  V30 1077 C 99.5506 -1.41992 7.05146 0
M  V30 1078 C 101.577 -1.57579 5.7002 0
M  V30 1079 C 100.939 -1.30754 6.92158 0
M  V30 1080 H 97.0376 -0.545896 0.55993 0
M  V30 1081 H 99.6216 -0.853373 1.75002 0
M  V30 1082 H 97.7926 -3.36657 1.93692 0
M  V30 1083 H 99.5246 -3.40916 2.18078 0
M  V30 1084 H 96.2796 -2.53456 4.00071 0
M  V30 1085 H 96.7036 -1.81691 6.52163 0
M  V30 1086 H 101.346 -2.15455 3.63784 0
M  V30 1087 H 99.0636 -1.21327 7.9894 0
M  V30 1088 H 102.65 -1.47718 5.62735 0
M  V30 1089 H 101.53 -1.01432 7.77612 0
M  V30 1090 N 99.0327 -1.24633 -0.964593 0
M  V30 1091 C 99.9957 -1.0424 -2.04124 0
M  V30 1092 C 100.996 0.00137563 -1.608 0
M  V30 1093 O 102.186 -0.239883 -1.7254 0
M  V30 1094 C 99.3177 -0.580588 -3.3592 0
M  V30 1095 H 100.511 -1.99803 -2.23649 0
M  V30 1096 H 98.0637 -1.06899 -1.14027 0
M  V30 1097 H 98.7987 0.3781 -3.22088 0
M  V30 1098 H 98.5837 -1.33398 -3.6871 0
M  V30 1099 H 100.074 -0.459034 -4.15069 0
M  V30 1100 N 100.511 1.16574 -1.06058 0
M  V30 1101 C 101.443 2.2045 -0.627239 0
M  V30 1102 C 102.456 1.59752 0.313534 0
M  V30 1103 O 103.645 1.78192 0.104896 0
M  V30 1104 C 100.745 3.3875 0.100974 0
M  V30 1105 C 99.9178 4.29008 -0.852687 0
M  V30 1106 C 98.9768 5.25944 -0.164152 0
M  V30 1107 O 98.0028 5.63535 -0.801047 0
M  V30 1108 N 99.2048 5.70075 1.09518 0
M  V30 1109 H 101.97 2.58249 -1.52077 0
M  V30 1110 H 99.5308 1.3156 -0.943594 0
M  V30 1111 H 101.523 4.00638 0.57194 0
M  V30 1112 H 100.093 2.99476 0.89628 0
M  V30 1113 H 99.3128 3.64419 -1.50308 0
M  V30 1114 H 100.601 4.86195 -1.49972 0
M  V30 1115 H 99.9988 5.41624 1.6328 0
M  V30 1116 H 98.5558 6.34067 1.51006 0
M  V30 1117 N 101.989 0.842826 1.3317 0
M  V30 1118 C 102.919 0.294028 2.31641 0
M  V30 1119 C 103.9 -0.600401 1.59151 0
M  V30 1120 O 105.085 -0.523124 1.87022 0
M  V30 1121 C 102.215 -0.528416 3.43257 0
M  V30 1122 C 101.169 0.27056 4.27144 0
M  V30 1123 C 100.495 -0.675881 5.30411 0
M  V30 1124 C 101.795 1.48981 5.00602 0
M  V30 1125 H 103.489 1.11681 2.77791 0
M  V30 1126 H 101.035 0.538478 1.33553 0
M  V30 1127 H 102.988 -0.922674 4.11175 0
M  V30 1128 H 101.712 -1.38445 2.95805 0
M  V30 1129 H 100.371 0.646427 3.60856 0
M  V30 1130 H 100.019 -1.52842 4.79216 0
M  V30 1131 H 99.7189 -0.145374 5.8742 0
M  V30 1132 H 101.243 -1.06757 6.01195 0
M  V30 1133 H 102.657 1.16849 5.61266 0
M  V30 1134 H 101.054 1.95739 5.6728 0
M  V30 1135 H 102.124 2.25746 4.29147 0
M  V30 1136 N 103.467 -1.45747 0.599634 0
M  V30 1137 C 104.43 -2.28917 -0.113835 0
M  V30 1138 C 105.43 -1.3933 -0.802729 0
M  V30 1139 O 106.62 -1.61534 -0.652103 0
M  V30 1140 C 103.752 -3.20152 -1.17114 0
M  V30 1141 H 104.945 -2.93478 0.617289 0
M  V30 1142 H 102.498 -1.52137 0.358327 0
M  V30 1143 H 103.233 -2.60374 -1.93329 0
M  V30 1144 H 103.018 -3.86133 -0.681468 0
M  V30 1145 H 104.508 -3.82708 -1.67105 0
M  V30 1146 N 104.945 -0.338344 -1.53925 0
M  V30 1147 C 106.173 0.261298 -2.05243 0
M  V30 1148 C 106.588 1.44625 -1.21363 0
M  V30 1149 O 105.945 1.80811 -0.247736 0
M  V30 1150 C 105.996 0.681412 -3.5502 0
M  V30 1151 O 105.717 -0.456414 -4.35716 0
M  V30 1152 C 107.218 1.34232 -4.22489 0
M  V30 1153 H 104.438 0.0513685 -0.669031 0
M  V30 1154 H 106.982 -0.488822 -1.98572 0
M  V30 1155 H 105.137 1.38148 -3.61931 0
M  V30 1156 H 105.551 -0.122564 -5.24357 0
M  V30 1157 H 107.025 1.58708 -5.28693 0
M  V30 1158 H 107.502 2.29426 -3.74514 0
M  V30 1159 H 108.108 0.684424 -4.19757 0
M  V30 1160 N 106.423 1.57458 -0.0668435 0
M  V30 1161 C 107.333 2.15937 0.916975 0
M  V30 1162 C 108.349 1.12123 1.33058 0
M  V30 1163 O 109.525 1.44366 1.40429 0
M  V30 1164 C 106.59 2.70547 2.16807 0
M  V30 1165 C 105.651 3.89215 1.81135 0
M  V30 1166 C 104.884 4.41211 3.0028 0
M  V30 1167 O 105.107 3.92225 4.14144 0
M  V30 1168 O 104.041 5.32605 2.80384 0
M  V30 1169 H 107.867 3.00354 0.449561 0
M  V30 1170 H 105.452 1.48584 0.155949 0
M  V30 1171 H 107.334 3.0557 2.90181 0
M  V30 1172 H 106.009 1.89192 2.62656 0
M  V30 1173 H 104.916 3.59054 1.05028 0
M  V30 1174 H 106.249 4.71848 1.40073 0
M  V30 1175 N 107.901 -0.206675 1.56239 0
M  V30 1176 C 108.831 -1.25909 1.96645 0
M  V30 1177 C 109.812 -1.48097 0.836734 0
M  V30 1178 O 110.997 -1.6003 1.10019 0
M  V30 1179 C 108.127 -2.6058 2.29599 0
M  V30 1180 C 107.081 -2.53024 3.452 0
M  V30 1181 C 106.407 -3.91861 3.63798 0
M  V30 1182 C 107.707 -2.06524 4.79734 0
M  V30 1183 H 109.401 -0.923369 2.84806 0
M  V30 1184 H 106.947 -0.442735 1.37025 0
M  V30 1185 H 108.9 -3.34375 2.56459 0
M  V30 1186 H 107.624 -2.95869 1.38307 0
M  V30 1187 H 106.283 -1.81684 3.18412 0
M  V30 1188 H 105.931 -4.24483 2.69857 0
M  V30 1189 H 105.631 -3.87683 4.4156 0
M  V30 1190 H 107.155 -4.67296 3.93022 0
M  V30 1191 H 108.569 -2.70072 5.05702 0
M  V30 1192 H 106.966 -2.13374 5.60885 0
M  V30 1193 H 108.036 -1.01802 4.74093 0
M  V30 1194 N 109.379 -1.50304 -0.473955 0
M  V30 1195 C 110.326 -1.68959 -1.57231 0
M  V30 1196 C 111.296 -0.530899 -1.57387 0
M  V30 1197 O 112.481 -0.761133 -1.74961 0
M  V30 1198 C 109.621 -1.7871 -2.95223 0
M  V30 1199 C 108.734 -3.06061 -3.04878 0
M  V30 1200 C 107.869 -3.06626 -4.33767 0
M  V30 1201 C 106.908 -4.28443 -4.37154 0
M  V30 1202 N 106.045 -4.26763 -5.5751 0
M  V30 1203 H 110.885 -2.6273 -1.40631 0
M  V30 1204 H 108.422 -1.30241 -0.683789 0
M  V30 1205 H 110.38 -1.82344 -3.75242 0
M  V30 1206 H 109.01 -0.883806 -3.10465 0
M  V30 1207 H 108.062 -3.11911 -2.17751 0
M  V30 1208 H 109.374 -3.96039 -3.0324 0
M  V30 1209 H 108.528 -3.08973 -5.22131 0
M  V30 1210 H 107.267 -2.14473 -4.3801 0
M  V30 1211 H 106.272 -4.2631 -3.47188 0
M  V30 1212 H 107.497 -5.2182 -4.34605 0
M  V30 1213 H 105.443 -3.37462 -5.62544 0
M  V30 1214 H 105.36 -5.10507 -5.57601 0
M  V30 1215 H 106.628 -4.33253 -6.48006 0
M  V30 1216 N 110.857 0.726932 -1.39834 0
M  V30 1217 C 112.105 1.4837 -1.37225 0
M  V30 1218 C 112.426 1.94979 0.0284857 0
M  V30 1219 O 111.696 1.69555 0.981213 0
M  V30 1220 H 110.276 0.55043 -0.505011 0
M  V30 1221 H 112.938 0.862468 -1.74778 0
M  V30 1222 H 112.034 2.36198 -2.04003 0
M  V30 1223 N 112.336 1.25143 0.95797 0
M  V30 1224 C 113.283 1.05235 2.05412 0
M  V30 1225 C 114.253 -0.0374561 1.66058 0
M  V30 1226 O 115.438 0.119073 1.90428 0
M  V30 1227 C 112.578 0.673589 3.38462 0
M  V30 1228 C 111.691 1.8379 3.90954 0
M  V30 1229 C 110.826 1.40381 5.12315 0
M  V30 1230 C 109.865 2.53746 5.57027 0
M  V30 1231 N 109.002 2.11136 6.69601 0
M  V30 1232 H 113.842 1.99048 2.21774 0
M  V30 1233 H 111.379 0.991277 1.08683 0
M  V30 1234 H 113.337 0.434964 4.14926 0
M  V30 1235 H 111.967 -0.227554 3.21997 0
M  V30 1236 H 111.019 2.18992 3.11041 0
M  V30 1237 H 112.331 2.68937 4.20089 0
M  V30 1238 H 111.485 1.12464 5.96185 0
M  V30 1239 H 110.224 0.523015 4.84887 0
M  V30 1240 H 109.229 2.82412 4.71724 0
M  V30 1241 H 110.454 3.42398 5.86464 0
M  V30 1242 H 108.4 1.25468 6.4389 0
M  V30 1243 H 108.317 2.89832 6.98236 0
M  V30 1244 H 109.585 1.86385 7.56889 0
M  V30 1245 N 113.814 -1.1601 1.06675 0
M  V30 1246 C 115.063 -1.85973 0.780818 0
M  V30 1247 C 115.376 -1.82819 -0.695444 0
M  V30 1248 O 116.582 -2.484 -1.09589 0
M  V30 1249 C 115.038 -3.33757 1.34665 0
M  V30 1250 C 114.646 -3.45374 2.85343 0
M  V30 1251 C 116.39 -4.0895 1.13843 0
M  V30 1252 C 114.297 -4.87266 3.35151 0
M  V30 1253 H 113.227 -0.696661 0.288407 0
M  V30 1254 H 115.878 -1.30903 1.28595 0
M  V30 1255 H 114.26 -3.88456 0.769274 0
M  V30 1256 H 115.434 -3.00816 3.49065 0
M  V30 1257 H 113.749 -2.83619 3.04876 0
M  V30 1258 H 116.346 -5.13654 1.4854 0
M  V30 1259 H 116.689 -4.16229 0.0770282 0
M  V30 1260 H 117.222 -3.605 1.68179 0
M  V30 1261 H 113.961 -4.85168 4.40786 0
M  V30 1262 H 113.481 -5.32433 2.76179 0
M  V30 1263 H 115.16 -5.56097 3.30704 0
M  V30 1264 N 115.292 -0.849877 -1.32721 0
M  V30 1265 C 116.24 -0.279745 -2.30912 0
M  V30 1266 C 117.234 0.594278 -1.58634 0
M  V30 1267 O 118.44 0.482613 -1.73409 0
M  V30 1268 H 114.815 -0.0717521 -0.748569 0
M  V30 1269 H 116.786 -1.12222 -2.76494 0
M  V30 1270 C 115.535 0.521108 -3.43773 0
M  V30 1271 H 114.858 -0.142141 -3.99547 0
M  V30 1272 H 116.298 0.885693 -4.14646 0
M  V30 1273 C 114.757 1.70442 -2.90605 0
M  V30 1274 O 115.287 2.8034 -2.87702 0
M  V30 1275 N 113.493 1.52991 -2.47067 0
M  V30 1276 H 113.04 0.635914 -2.49628 0
M  V30 1277 H 112.998 2.32311 -2.11847 0
M  V30 1278 N 116.77 1.45427 -0.607355 0
M  V30 1279 C 118.016 2.0254 -0.102607 0
M  V30 1280 C 118.349 1.47478 1.26348 0
M  V30 1281 O 117.624 0.64939 1.83339 0
M  V30 1282 C 117.907 3.60044 -0.0634347 0
M  V30 1283 C 117.76 4.2544 -1.46017 0
M  V30 1284 C 119.079 4.35646 0.624514 0
M  V30 1285 H 116.198 0.73598 -0.0387607 0
M  V30 1286 H 118.84 1.73284 -0.779282 0
M  V30 1287 H 116.99 3.85101 0.512808 0
M  V30 1288 H 118.662 4.11569 -2.08347 0
M  V30 1289 H 116.905 3.83849 -2.02094 0
M  V30 1290 H 117.576 5.34342 -1.385 0
M  V30 1291 H 120.052 4.15882 0.134723 0
M  V30 1292 H 118.928 5.45376 0.621028 0
M  V30 1293 H 119.189 4.08501 1.69055 0
M  V30 1294 N 118.248 0.346503 1.53744 0
M  V30 1295 C 119.211 -0.496439 2.23759 0
M  V30 1296 C 120.211 -1.0252 1.2388 0
M  V30 1297 O 121.401 -0.913974 1.48297 0
M  V30 1298 C 118.533 -1.69187 2.95954 0
M  V30 1299 H 119.726 0.115952 2.99676 0
M  V30 1300 H 117.279 0.0978939 1.55993 0
M  V30 1301 H 118.014 -2.34288 2.24231 0
M  V30 1302 H 117.799 -1.31989 3.69217 0
M  V30 1303 H 119.289 -2.28969 3.49232 0
M  V30 1304 N 119.726 -1.57421 0.075193 0
M  V30 1305 C 120.673 -2.12915 -0.890843 0
M  V30 1306 C 121.643 -1.04252 -1.29309 0
M  V30 1307 O 122.828 -1.31933 -1.37834 0
M  V30 1308 C 119.968 -2.69795 -2.15186 0
M  V30 1309 C 119.081 -3.92624 -1.80194 0
M  V30 1310 C 118.216 -4.37736 -3.00933 0
M  V30 1311 C 117.255 -5.53205 -2.61974 0
M  V30 1312 N 116.392 -5.9326 -3.75483 0
M  V30 1313 H 121.232 -2.95156 -0.410735 0
M  V30 1314 H 118.769 -1.45854 -0.191086 0
M  V30 1315 H 120.727 -3.00883 -2.89008 0
M  V30 1316 H 119.357 -1.90313 -2.60731 0
M  V30 1317 H 118.409 -3.67977 -0.964218 0
M  V30 1318 H 119.721 -4.76482 -1.47534 0
M  V30 1319 H 118.875 -4.70503 -3.8303 0
M  V30 1320 H 117.614 -3.52739 -3.36789 0
M  V30 1321 H 116.619 -5.20086 -1.783 0
M  V30 1322 H 117.844 -6.39936 -2.27284 0
M  V30 1323 H 115.79 -5.11212 -4.11094 0
M  V30 1324 H 115.707 -6.71865 -3.46602 0
M  V30 1325 H 116.975 -6.30651 -4.58148 0
M  V30 1326 N 121.204 0.198386 -1.56346 0
M  V30 1327 C 122.453 0.917451 -1.79627 0
M  V30 1328 C 122.766 1.8456 -0.64784 0
M  V30 1329 O 123.972 2.60504 -0.764859 0
M  V30 1330 C 122.428 1.68175 -3.18191 0
M  V30 1331 C 122.036 0.798589 -4.40825 0
M  V30 1332 C 123.78 2.39065 -3.50782 0
M  V30 1333 C 121.687 1.56157 -5.70411 0
M  V30 1334 H 120.617 0.346317 -0.669762 0
M  V30 1335 H 123.268 0.170801 -1.82703 0
M  V30 1336 H 121.65 2.47216 -3.09354 0
M  V30 1337 H 122.824 0.0470665 -4.60776 0
M  V30 1338 H 121.139 0.200686 -4.15916 0
M  V30 1339 H 123.736 2.96692 -4.44835 0
M  V30 1340 H 124.079 3.13091 -2.74371 0
M  V30 1341 H 124.612 1.66993 -3.61052 0
M  V30 1342 H 121.351 0.864142 -6.49779 0
M  V30 1343 H 120.871 2.2871 -5.54483 0
M  V30 1344 H 122.55 2.11622 -6.11412 0
M  V30 1345 N 122.682 1.50554 0.465978 0
M  V30 1346 C 123.959 1.5232 1.22712 0
M  V30 1347 C 124.339 0.270807 2.09356 0
M  V30 1348 O 123.687 -0.745541 2.15995 0
M  V30 1349 C 123.897 2.82175 2.05374 0
M  V30 1350 C 125.245 3.33033 2.6339 0
M  V30 1351 O 126.269 2.83531 2.15612 0
M  V30 1352 O 125.128 4.19336 3.50456 0
M  V30 1353 H 122.222 0.611183 0.557122 0
M  V30 1354 H 124.768 1.62847 0.477381 0
M  V30 1355 H 123.54 3.64797 1.41558 0
M  V30 1356 H 123.163 2.74675 2.87471 0
M  V30 1357 N 124.16 -0.719506 1.40217 0
M  V30 1358 C 125.406 -1.48152 1.38488 0
M  V30 1359 C 125.739 -1.94195 -0.0141867 0
M  V30 1360 O 125.014 -1.67884 -0.982096 0
M  V30 1361 C 125.297 -2.71035 2.37091 0
M  V30 1362 C 125.15 -2.30912 3.86005 0
M  V30 1363 C 126.469 -3.73182 2.33288 0
M  V30 1364 H 123.588 -0.537395 0.504357 0
M  V30 1365 H 126.23 -0.821472 1.71324 0
M  V30 1366 H 124.38 -3.27352 2.0922 0
M  V30 1367 H 126.052 -1.80107 4.24687 0
M  V30 1368 H 124.295 -1.62958 4.02029 0
M  V30 1369 H 124.966 -3.18978 4.50508 0
M  V30 1370 H 127.442 -3.26485 2.57966 0
M  V30 1371 H 126.318 -4.56806 3.04334 0
M  V30 1372 H 126.579 -4.21202 1.34317 0
M  V30 1373 N 125.638 -1.25649 -0.95132 0
M  V30 1374 C 126.866 -1.13343 -1.73092 0
M  V30 1375 C 127.281 0.312434 -1.86197 0
M  V30 1376 O 126.638 1.21465 -1.36207 0
M  V30 1377 C 126.689 -1.78602 -3.14299 0
M  V30 1378 O 126.41 -3.17537 -3.01831 0
M  V30 1379 C 127.911 -1.72119 -4.08522 0
M  V30 1380 H 125.131 -0.395181 -0.542285 0
M  V30 1381 H 127.675 -1.66076 -1.19328 0
M  V30 1382 H 125.83 -1.29832 -3.64996 0
M  V30 1383 H 126.244 -3.49676 -3.90931 0
M  V30 1384 H 127.718 -2.22435 -5.052 0
M  V30 1385 H 128.195 -0.685635 -4.33815 0
M  V30 1386 H 128.801 -2.20393 -3.63741 0
M  V30 1387 N 127.117 1.15442 -1.07289 0
M  V30 1388 C 128.047 2.22312 -0.714107 0
M  V30 1389 C 129.028 1.67467 0.298155 0
M  V30 1390 O 130.213 1.93445 0.171048 0
M  V30 1391 C 127.343 3.47124 -0.110448 0
M  V30 1392 C 126.297 4.14926 -1.04979 0
M  V30 1393 C 125.623 5.33807 -0.308924 0
M  V30 1394 C 126.923 4.64762 -2.38314 0
M  V30 1395 H 128.617 2.5258 -1.6076 0
M  V30 1396 H 126.163 1.21404 -0.77441 0
M  V30 1397 H 128.116 4.21124 0.152482 0
M  V30 1398 H 126.84 3.16187 0.81812 0
M  V30 1399 H 125.499 3.42866 -1.29764 0
M  V30 1400 H 125.147 4.99126 0.623084 0
M  V30 1401 H 124.847 5.80113 -0.935036 0
M  V30 1402 H 126.371 6.10576 -0.0537771 0
M  V30 1403 H 127.785 5.30292 -2.1786 0
M  V30 1404 H 126.182 5.21728 -2.96514 0
M  V30 1405 H 127.252 3.80434 -3.00663 0
M  V30 1406 N 128.595 0.856903 1.32268 0
M  V30 1407 C 129.543 0.291987 2.3076 0
M  V30 1408 C 130.537 -0.585857 1.58947 0
M  V30 1409 O 131.743 -0.47341 1.73663 0
M  V30 1410 H 128.118 0.075721 0.748178 0
M  V30 1411 H 130.089 1.13687 2.75895 0
M  V30 1412 C 128.838 -0.502869 3.44044 0
M  V30 1413 H 128.161 0.163328 3.99466 0
M  V30 1414 H 129.601 -0.863691 4.1511 0
M  V30 1415 C 128.06 -1.68898 2.91505 0
M  V30 1416 O 128.59 -2.78811 2.89184 0
M  V30 1417 N 126.796 -1.51679 2.47875 0
M  V30 1418 H 126.343 -0.622666 2.49961 0
M  V30 1419 H 126.301 -2.31184 2.13076 0
M  V30 1420 N 130.073 -1.45103 0.615059 0
M  V30 1421 C 131.298 -2.07064 0.117988 0
M  V30 1422 C 131.723 -1.4554 -1.19163 0
M  V30 1423 O 131.081 -0.550855 -1.72729 0
M  V30 1424 C 131.129 -3.606 -0.000288387 0
M  V30 1425 O 130.233 -3.98847 -1.04856 0
M  V30 1426 H 129.574 -0.659467 0.0774581 0
M  V30 1427 H 132.104 -1.86236 0.847186 0
M  V30 1428 H 132.114 -4.07529 -0.196091 0
M  V30 1429 H 130.789 -4.04765 0.955932 0
M  V30 1430 H 129.366 -3.63577 -0.828619 0
M  V30 1431 N 131.551 -0.354651 -1.53558 0
M  V30 1432 C 132.498 0.496968 -2.25386 0
M  V30 1433 C 133.468 1.0865 -1.25636 0
M  V30 1434 O 134.653 1.12104 -1.54394 0
M  V30 1435 C 131.793 1.63637 -3.03837 0
M  V30 1436 C 130.906 1.07307 -4.18461 0
M  V30 1437 C 130.041 2.18068 -4.84376 0
M  V30 1438 C 129.08 1.59147 -5.91049 0
M  V30 1439 N 128.217 2.63695 -6.50699 0
M  V30 1440 H 133.057 -0.122075 -2.9775 0
M  V30 1441 H 130.594 -0.0720154 -1.46924 0
M  V30 1442 H 132.552 2.30734 -3.47589 0
M  V30 1443 H 131.182 2.22623 -2.33749 0
M  V30 1444 H 130.234 0.292708 -3.79272 0
M  V30 1445 H 131.546 0.602193 -4.95152 0
M  V30 1446 H 130.7 2.93007 -5.31255 0
M  V30 1447 H 129.439 2.68504 -4.07133 0
M  V30 1448 H 128.444 0.827175 -5.43542 0
M  V30 1449 H 129.669 1.09549 -6.70206 0
M  V30 1450 H 127.615 3.13365 -5.76315 0
M  V30 1451 H 127.532 2.21263 -7.22896 0
M  V30 1452 H 128.8 3.3837 -7.02229 0
M  V30 1453 N 133.029 1.57378 -0.0835403 0
M  V30 1454 C 134.257 1.98263 0.59157 0
M  V30 1455 C 134.672 0.962302 1.62435 0
M  V30 1456 O 134.029 -0.049581 1.82433 0
M  V30 1457 C 134.08 3.39214 1.24965 0
M  V30 1458 O 133.801 4.37339 0.258186 0
M  V30 1459 C 135.302 3.95038 2.01147 0
M  V30 1460 H 132.522 0.651773 0.159477 0
M  V30 1461 H 135.066 2.03878 -0.159415 0
M  V30 1462 H 133.221 3.34649 1.95164 0
M  V30 1463 H 133.635 5.19371 0.731734 0
M  V30 1464 H 135.109 4.95848 2.42567 0
M  V30 1465 H 135.586 3.32222 2.87272 0
M  V30 1466 H 136.192 4.0304 1.35789 0
M  V30 1467 N 134.507 -0.190092 1.56449 0
M  V30 1468 C 135.923 -0.54113 1.50146 0
M  V30 1469 C 136.123 -1.85603 0.784465 0
M  V30 1470 O 135.179 -2.5024 0.337051 0
M  V30 1471 C 136.492 -0.591241 2.9483 0
M  V30 1472 C 138.04 -0.679732 3.0553 0
M  V30 1473 C 138.515 -0.760908 4.51635 0
M  V30 1474 N 140.006 -0.824302 4.55806 0
M  V30 1475 C 140.741 -0.907365 5.66175 0
M  V30 1476 N 140.237 -0.952422 6.86222 0
M  V30 1477 N 142.03 -0.94494 5.541 0
M  V30 1478 H 134.181 0.67235 2.01478 0
M  V30 1479 H 136.444 0.240127 0.917084 0
M  V30 1480 H 136.15 0.305905 3.50367 0
M  V30 1481 H 136.024 -1.44422 3.48457 0
M  V30 1482 H 138.411 -1.56731 2.50039 0
M  V30 1483 H 138.492 0.199549 2.5502 0
M  V30 1484 H 138.136 0.122336 5.07753 0
M  V30 1485 H 138.066 -1.65606 4.99882 0
M  V30 1486 H 140.557 -0.798526 3.69367 0
M  V30 1487 H 140.87 -1.01645 7.66086 0
M  V30 1488 H 139.215 -0.921014 6.8887 0
M  V30 1489 H 142.406 -0.906612 4.59236 0
M  V30 1490 H 142.579 -1.00622 6.4014 0
M  V30 1491 N 135.985 -1.50799 -0.457987 0
M  V30 1492 C 136.932 -1.70617 -1.5543 0
M  V30 1493 C 137.902 -0.547562 -1.56815 0
M  V30 1494 O 139.087 -0.779647 -1.74144 0
M  V30 1495 C 136.227 -1.81831 -2.93311 0
M  V30 1496 C 135.34 -3.09278 -3.01615 0
M  V30 1497 C 134.475 -3.11209 -4.30491 0
M  V30 1498 C 133.514 -4.33055 -4.32585 0
M  V30 1499 N 132.651 -4.32652 -5.52952 0
M  V30 1500 H 137.491 -2.64207 -1.37836 0
M  V30 1501 H 135.028 -1.30959 -0.669937 0
M  V30 1502 H 136.986 -1.86314 -3.73287 0
M  V30 1503 H 135.616 -0.916685 -3.0951 0
M  V30 1504 H 134.668 -3.14203 -2.1443 0
M  V30 1505 H 135.98 -3.99233 -2.99022 0
M  V30 1506 H 135.134 -3.14494 -5.18824 0
M  V30 1507 H 133.873 -2.19106 -4.35711 0
M  V30 1508 H 132.878 -4.29969 -3.42647 0
M  V30 1509 H 134.103 -5.264 -4.29046 0
M  V30 1510 H 132.049 -3.43409 -5.58933 0
M  V30 1511 H 131.966 -5.16392 -5.52155 0
M  V30 1512 H 133.234 -4.40101 -6.43375 0
M  V30 1513 N 137.463 0.71206 -1.40597 0
M  V30 1514 C 138.879 1.02058 -1.22704 0
M  V30 1515 C 139.079 2.01228 -0.104729 0
M  V30 1516 O 138.135 2.4674 0.53624 0
M  V30 1517 C 139.448 1.56094 -2.57012 0
M  V30 1518 C 140.996 1.6806 -2.64054 0
M  V30 1519 C 141.471 2.25501 -3.9864 0
M  V30 1520 N 142.962 2.32882 -4.004 0
M  V30 1521 C 143.697 2.78317 -5.01325 0
M  V30 1522 N 143.193 3.23478 -6.12645 0
M  V30 1523 N 144.986 2.77733 -4.88693 0
M  V30 1524 H 137.137 0.0547896 -2.12329 0
M  V30 1525 H 139.4 0.0869027 -0.944008 0
M  V30 1526 H 139.106 0.906865 -3.39807 0
M  V30 1527 H 138.98 2.54564 -2.78347 0
M  V30 1528 H 141.367 2.32583 -1.81629 0
M  V30 1529 H 141.448 0.681802 -2.46546 0
M  V30 1530 H 141.092 1.61598 -4.81506 0
M  V30 1531 H 141.022 3.26102 -4.13479 0
M  V30 1532 H 143.513 2.00991 -3.20017 0
M  V30 1533 H 143.826 3.56725 -6.85542 0
M  V30 1534 H 142.171 3.21429 -6.16205 0
M  V30 1535 H 145.362 2.4179 -4.00818 0
M  V30 1536 H 145.535 3.12826 -5.67489 0
M  V30 1537 N 138.941 1.26152 0.944643 0
M  V30 1538 C 140.188 1.11492 1.69044 0
M  V30 1539 C 140.516 -0.342366 1.91463 0
M  V30 1540 O 139.771 -1.26812 1.49054 0
M  V30 1541 C 140.07 1.82541 3.07268 0
M  V30 1542 C 139.736 3.32445 3.04616 0
M  V30 1543 C 138.398 3.73337 3.036 0
M  V30 1544 C 140.75 4.28171 2.97185 0
M  V30 1545 C 138.078 5.08348 2.92915 0
M  V30 1546 C 140.43 5.63218 2.88041 0
M  V30 1547 C 139.094 6.03426 2.85366 0
M  V30 1548 H 138.364 0.407977 0.618576 0
M  V30 1549 H 141.011 1.56551 1.10291 0
M  V30 1550 H 139.316 1.29941 3.69625 0
M  V30 1551 H 141.013 1.68642 3.63815 0
M  V30 1552 H 137.603 2.99915 3.06185 0
M  V30 1553 H 141.787 3.97563 2.97081 0
M  V30 1554 H 137.043 5.38667 2.89219 0
M  V30 1555 H 141.217 6.37078 2.81254 0
M  V30 1556 H 138.844 7.07999 2.76842 0
M  V30 1557 N 140.419 -1.14872 1.07899 0
M  V30 1558 C 141.366 -2.19791 0.704319 0
M  V30 1559 C 142.336 -1.63238 -0.306987 0
M  V30 1560 O 143.521 -1.8983 -0.192171 0
M  V30 1561 C 140.661 -3.44911 0.114244 0
M  V30 1562 C 139.774 -4.15637 1.1777 0
M  V30 1563 C 138.909 -5.28324 0.552037 0
M  V30 1564 C 137.948 -5.90875 1.59789 0
M  V30 1565 N 137.085 -6.95022 0.994404 0
M  V30 1566 H 141.925 -2.5119 1.60336 0
M  V30 1567 H 139.462 -1.23356 0.801352 0
M  V30 1568 H 141.42 -4.16477 -0.245544 0
M  V30 1569 H 140.05 -3.14011 -0.74813 0
M  V30 1570 H 139.102 -3.42512 1.65499 0
M  V30 1571 H 140.414 -4.5823 1.97046 0
M  V30 1572 H 139.568 -6.06538 0.1402 0
M  V30 1573 H 138.307 -4.86939 -0.272431 0
M  V30 1574 H 137.312 -5.11369 2.01945 0
M  V30 1575 H 138.537 -6.34337 2.42474 0
M  V30 1576 H 136.483 -6.55722 0.190939 0
M  V30 1577 H 136.4 -7.36073 1.72432 0
M  V30 1578 H 137.668 -7.77123 0.608253 0
M  V30 1579 N 141.898 -0.863906 -1.31812 0
M  V30 1580 C 143.147 -0.46801 -1.96195 0
M  V30 1581 C 143.46 0.983474 -1.69077 0
M  V30 1582 O 144.666 1.48523 -2.27273 0
M  V30 1583 C 143.122 -0.785995 -3.51212 0
M  V30 1584 C 142.73 -2.25383 -3.87178 0
M  V30 1585 C 144.474 -0.458274 -4.22019 0
M  V30 1586 C 142.381 -2.51455 -5.3528 0
M  V30 1587 H 141.311 -0.171283 -0.734287 0
M  V30 1588 H 143.962 -1.05597 -1.50072 0
M  V30 1589 H 142.344 -0.127359 -3.95795 0
M  V30 1590 H 143.518 -2.95502 -3.53575 0
M  V30 1591 H 141.833 -2.54698 -3.2942 0
M  V30 1592 H 144.43 -0.630369 -5.30971 0
M  V30 1593 H 144.773 0.600834 -4.11941 0
M  V30 1594 H 145.306 -1.07319 -3.8305 0
M  V30 1595 H 142.045 -3.56025 -5.50387 0
M  V30 1596 H 141.565 -1.85923 -5.70257 0
M  V30 1597 H 143.244 -2.35874 -6.02472 0
M  V30 1598 N 143.376 1.44774 -0.622745 0
M  V30 1599 C 144.286 2.34433 0.0886031 0
M  V30 1600 C 145.302 1.52131 0.844529 0
M  V30 1601 O 146.478 1.84886 0.798691 0
M  V30 1602 C 143.543 3.29986 1.0635 0
M  V30 1603 C 142.604 4.28195 0.307873 0
M  V30 1604 C 141.837 5.19183 1.23633 0
M  V30 1605 O 142.06 5.13918 2.47476 0
M  V30 1606 O 140.994 5.97515 0.725189 0
M  V30 1607 H 144.82 2.96693 -0.648599 0
M  V30 1608 H 142.405 1.44408 -0.382957 0
M  V30 1609 H 144.287 3.88825 1.6246 0
M  V30 1610 H 142.962 2.70269 1.78146 0
M  V30 1611 H 141.869 3.72927 -0.296064 0
M  V30 1612 H 143.202 4.90808 -0.3699 0
M  V30 1613 N 144.854 0.36279 1.53368 0
M  V30 1614 C 146.102 -0.227326 2.00817 0
M  V30 1615 C 146.423 -1.49511 1.25186 0
M  V30 1616 O 145.693 -1.92482 0.364348 0
M  V30 1617 H 144.273 -0.0869923 0.741917 0
M  V30 1618 H 146.935 0.488381 1.88682 0
M  V30 1619 H 146.031 -0.456273 3.08747 0
M  V30 1620 N 146.332 -1.57332 0.0918853 0
M  V30 1621 C 147.579 -1.94236 -0.572577 0
M  V30 1622 C 147.907 -0.973398 -1.6839 0
M  V30 1623 O 147.162 0.00756912 -1.95699 0
M  V30 1624 C 147.461 -3.37689 -1.17051 0
M  V30 1625 C 147.127 -4.50527 -0.183304 0
M  V30 1626 C 145.789 -4.81119 0.0882276 0
M  V30 1627 C 148.141 -5.18883 0.49095 0
M  V30 1628 C 145.469 -5.77395 1.04076 0
M  V30 1629 C 147.821 -6.1618 1.43193 0
M  V30 1630 C 146.485 -6.45179 1.71173 0
M  V30 1631 H 145.755 -0.710762 -0.209521 0
M  V30 1632 H 148.402 -1.9077 0.167036 0
M  V30 1633 H 146.707 -3.37718 -1.9863 0
M  V30 1634 H 148.404 -3.63543 -1.69227 0
M  V30 1635 H 144.994 -4.26681 -0.405124 0
M  V30 1636 H 149.178 -4.95427 0.294312 0
M  V30 1637 H 144.434 -5.98179 1.26457 0
M  V30 1638 H 148.608 -6.68243 1.96023 0
M  V30 1639 H 146.235 -7.1959 2.4514 0
M  V30 1640 N 147.81 0.181792 -1.56548 0
M  V30 1641 C 149.221 0.745244 -1.71181 0
M  V30 1642 C 149.572 1.83262 -0.70068 0
M  V30 1643 O 148.697 2.15946 0.140154 0
M  V30 1644 C 149.292 1.35859 -3.10367 0
M  V30 1645 C 147.851 1.86898 -3.2672 0
M  V30 1646 C 146.998 0.743942 -2.67134 0
M  V30 1647 H 149.949 -0.0434661 -1.5864 0
M  V30 1648 H 149.97 2.22817 -3.08436 0
M  V30 1649 H 149.482 0.566948 -3.83937 0
M  V30 1650 H 147.583 2.68738 -2.5809 0
M  V30 1651 H 147.696 2.02162 -4.34359 0
M  V30 1652 H 146.06 1.16169 -2.26665 0
M  V30 1653 H 146.843 -0.035676 -3.43281 0
M  V30 1654 N 149.288 1.51039 0.449983 0
M  V30 1655 C 150.516 1.66869 1.2232 0
M  V30 1656 C 150.931 0.360727 1.85322 0
M  V30 1657 O 150.288 -0.659531 1.70166 0
M  V30 1658 C 150.339 2.77524 2.31652 0
M  V30 1659 O 150.06 4.03252 1.7123 0
M  V30 1660 C 151.561 3.04512 3.2216 0
M  V30 1661 H 148.781 0.560326 0.369155 0
M  V30 1662 H 151.325 1.97385 0.534719 0
M  V30 1663 H 149.48 2.49642 2.96239 0
M  V30 1664 H 149.894 4.64609 2.43389 0
M  V30 1665 H 151.368 3.85551 3.95038 0
M  V30 1666 H 151.845 2.16415 3.8218 0
M  V30 1667 H 152.451 3.34005 2.63288 0
M  V30 1668 N 150.766 -0.704594 1.40972 0
M  V30 1669 C 151.696 -1.83124 1.44872 0
M  V30 1670 C 152.677 -1.67281 0.30838 0
M  V30 1671 O 153.862 -1.87149 0.518556 0
M  V30 1672 C 150.992 -3.21181 1.32136 0
M  V30 1673 C 149.946 -3.51714 2.43888 0
M  V30 1674 C 149.272 -4.89032 2.16222 0
M  V30 1675 C 150.572 -3.516 3.86232 0
M  V30 1676 H 152.266 -1.80117 2.39161 0
M  V30 1677 H 149.812 -0.865145 1.15114 0
M  V30 1678 H 151.765 -3.99702 1.33479 0
M  V30 1679 H 150.489 -3.24791 0.343279 0
M  V30 1680 H 149.148 -2.75539 2.41813 0
M  V30 1681 H 148.796 -4.89256 1.16778 0
M  V30 1682 H 148.496 -5.10426 2.911 0
M  V30 1683 H 150.02 -5.69873 2.19265 0
M  V30 1684 H 151.434 -4.2014 3.9007 0
M  V30 1685 H 149.831 -3.84523 4.60719 0
M  V30 1686 H 150.901 -2.50757 4.15029 0
M  V30 1687 N 152.244 -1.26651 -0.937939 0
M  V30 1688 C 153.174 -1.10993 -2.05433 0
M  V30 1689 C 154.155 -0.0142161 -1.70094 0
M  V30 1690 O 155.34 -0.186837 -1.93299 0
M  V30 1691 C 152.47 -0.745561 -3.39203 0
M  V30 1692 C 151.424 -1.79337 -3.88616 0
M  V30 1693 C 150.75 -1.28324 -5.19073 0
M  V30 1694 C 152.05 -3.19553 -4.13138 0
M  V30 1695 H 153.744 -2.0438 -2.1879 0
M  V30 1696 H 151.29 -0.984041 -1.05131 0
M  V30 1697 H 153.243 -0.622888 -4.16771 0
M  V30 1698 H 151.967 0.22401 -3.25831 0
M  V30 1699 H 150.626 -1.90477 -3.13231 0
M  V30 1700 H 150.274 -0.303414 -5.02084 0
M  V30 1701 H 149.974 -1.98369 -5.53103 0
M  V30 1702 H 151.498 -1.1733 -5.99221 0
M  V30 1703 H 152.912 -3.11471 -4.81309 0
M  V30 1704 H 151.309 -3.87218 -4.58457 0
M  V30 1705 H 152.379 -3.65368 -3.18801 0
M  V30 1706 N 153.722 1.14298 -1.08507 0
M  V30 1707 C 154.952 1.88945 -0.835663 0
M  V30 1708 C 155.36 1.78894 0.615928 0
M  V30 1709 O 154.703 1.1468 1.43506 0
M  V30 1710 C 154.765 3.39585 -1.17994 0
M  V30 1711 C 154.429 3.7342 -2.63451 0
M  V30 1712 C 155.426 3.73454 -3.61702 0
M  V30 1713 C 153.111 4.03368 -2.99332 0
M  V30 1714 C 155.105 4.02961 -4.93864 0
M  V30 1715 C 152.792 4.32538 -4.31687 0
M  V30 1716 C 153.79 4.32318 -5.28763 0
M  V30 1717 O 153.478 4.6078 -6.58739 0
M  V30 1718 H 153.21 0.605307 -0.300965 0
M  V30 1719 H 155.764 1.45673 -1.44806 0
M  V30 1720 H 153.994 3.83315 -0.51055 0
M  V30 1721 H 155.683 3.9554 -0.911182 0
M  V30 1722 H 156.449 3.50403 -3.35325 0
M  V30 1723 H 152.328 4.02692 -2.24411 0
M  V30 1724 H 155.872 4.02704 -5.69627 0
M  V30 1725 H 151.769 4.55059 -4.57812 0
M  V30 1726 H 152.537 4.78492 -6.64069 0
M  V30 1727 N 155.201 0.870884 1.31352 0
M  V30 1728 C 156.448 0.482273 1.96673 0
M  V30 1729 C 156.776 -0.965638 1.68836 0
M  V30 1730 O 156.031 -1.69514 0.977937 0
M  V30 1731 C 156.33 0.687157 3.50732 0
M  V30 1732 C 155.996 2.108 3.9859 0
M  V30 1733 C 154.658 2.49656 4.1137 0
M  V30 1734 C 157.01 3.03459 4.23748 0
M  V30 1735 C 154.338 3.80412 4.46659 0
M  V30 1736 C 156.69 4.3373 4.60501 0
M  V30 1737 C 155.354 4.725 4.71487 0
M  V30 1738 H 154.624 0.176476 0.719679 0
M  V30 1739 H 157.271 1.10405 1.56471 0
M  V30 1740 H 155.576 -0.0177476 3.91796 0
M  V30 1741 H 157.273 0.366284 3.99324 0
M  V30 1742 H 153.863 1.79633 3.8914 0
M  V30 1743 H 158.047 2.74665 4.13368 0
M  V30 1744 H 153.303 4.1021 4.53362 0
M  V30 1745 H 157.477 5.05578 4.78919 0
M  V30 1746 H 155.104 5.73859 4.98588 0
M  V30 1747 N 156.679 -1.44442 0.630414 0
M  V30 1748 C 157.626 -2.30678 -0.0749355 0
M  V30 1749 C 158.596 -1.4344 -0.837502 0
M  V30 1750 O 159.781 -1.72343 -0.818684 0
M  V30 1751 C 156.921 -3.28706 -1.05103 0
M  V30 1752 C 156.034 -4.31046 -0.286954 0
M  V30 1753 C 155.169 -5.16167 -1.2548 0
M  V30 1754 C 154.208 -6.10216 -0.479843 0
M  V30 1755 N 153.345 -6.88039 -1.39811 0
M  V30 1756 H 158.185 -2.90454 0.666386 0
M  V30 1757 H 155.722 -1.43107 0.340404 0
M  V30 1758 H 157.68 -3.84027 -1.63031 0
M  V30 1759 H 156.31 -2.70632 -1.75949 0
M  V30 1760 H 155.362 -3.78203 0.408243 0
M  V30 1761 H 156.674 -4.97794 0.316657 0
M  V30 1762 H 155.828 -5.76002 -1.90544 0
M  V30 1763 H 154.567 -4.49491 -1.89233 0
M  V30 1764 H 153.572 -5.49491 0.184295 0
M  V30 1765 H 154.797 -6.78928 0.152965 0
M  V30 1766 H 152.743 -6.24032 -2.02287 0
M  V30 1767 H 152.66 -7.51223 -0.848508 0
M  V30 1768 H 153.928 -7.52397 -2.03762 0
M  V30 1769 N 158.157 -0.370918 -1.53173 0
M  V30 1770 C 159.105 0.488101 -2.27421 0
M  V30 1771 C 160.099 1.07884 -1.30604 0
M  V30 1772 O 161.305 1.02143 -1.48212 0
M  V30 1773 H 157.68 0.176134 -0.731082 0
M  V30 1774 H 159.651 -0.159815 -2.97972 0
M  V30 1775 C 158.4 1.61306 -3.08019 0
M  V30 1776 H 157.723 1.1678 -3.82364 0
M  V30 1777 H 159.163 2.18872 -3.63141 0
M  V30 1778 C 157.622 2.55848 -2.19188 0
M  V30 1779 O 158.152 3.58799 -1.80626 0
M  V30 1780 N 156.358 2.2516 -1.83715 0
M  V30 1781 H 155.905 1.41476 -2.15273 0
M  V30 1782 H 155.863 2.8867 -1.24567 0
M  V30 1783 N 159.635 1.57281 -0.100228 0
M  V30 1784 C 160.883 1.94153 0.561157 0
M  V30 1785 C 161.204 0.983157 1.68401 0
M  V30 1786 O 160.474 0.0361132 1.95867 0
M  V30 1787 H 159.054 0.716791 0.210283 0
M  V30 1788 H 161.716 1.94202 -0.164765 0
M  V30 1789 H 160.812 2.96709 0.968008 0
M  V30 1790 N 161.113 -0.173488 1.56642 0
M  V30 1791 C 162.06 -1.21482 1.96242 0
M  V30 1792 C 163.03 -1.44104 0.826027 0
M  V30 1793 O 164.215 -1.5688 1.08597 0
M  V30 1794 C 161.355 -2.54964 2.32567 0
M  V30 1795 C 160.468 -2.39739 3.59373 0
M  V30 1796 C 159.603 -3.66072 3.84921 0
M  V30 1797 C 158.642 -3.45771 5.05083 0
M  V30 1798 N 157.779 -4.64169 5.26775 0
M  V30 1799 H 162.619 -0.870123 2.85014 0
M  V30 1800 H 160.156 -0.418245 1.41029 0
M  V30 1801 H 162.114 -3.32758 2.5165 0
M  V30 1802 H 160.744 -2.87433 1.46908 0
M  V30 1803 H 159.796 -1.53131 3.48217 0
M  V30 1804 H 161.108 -2.20683 4.47326 0
M  V30 1805 H 160.262 -4.52303 4.0436 0
M  V30 1806 H 159.001 -3.88105 2.9534 0
M  V30 1807 H 158.006 -2.57927 4.85545 0
M  V30 1808 H 159.231 -3.25163 5.96193 0
M  V30 1809 H 157.177 -4.86425 4.40144 0
M  V30 1810 H 157.094 -4.48019 6.08946 0
M  V30 1811 H 158.362 -5.51689 5.5069 0
M  V30 1812 N 162.591 -1.51276 -0.441967 0
M  V30 1813 C 163.524 -1.66933 -1.55591 0
M  V30 1814 C 164.502 -0.516958 -1.54163 0
M  V30 1815 O 165.686 -0.740209 -1.73358 0
M  V30 1816 C 162.813 -1.67866 -2.94174 0
M  V30 1817 C 161.859 -2.89013 -3.13646 0
M  V30 1818 S 162.692 -4.49897 -2.90436 0
M  V30 1819 C 163.848 -4.53568 -4.31308 0
M  V30 1820 H 164.081 -2.61155 -1.42076 0
M  V30 1821 H 161.614 -1.40902 -0.631341 0
M  V30 1822 H 163.572 -1.69089 -3.74058 0
M  V30 1823 H 162.233 -0.748296 -3.05056 0
M  V30 1824 H 161.426 -2.86054 -4.14957 0
M  V30 1825 H 161.028 -2.85509 -2.4158 0
M  V30 1826 H 163.32 -4.28924 -5.24434 0
M  V30 1827 H 164.263 -5.55355 -4.39303 0
M  V30 1828 H 164.671 -3.82943 -4.14747 0
M  V30 1829 N 164.069 0.697108 -1.41344 0
M  V30 1830 C 165.299 1.48377 -1.43763 0
M  V30 1831 C 165.707 1.89156 -0.0408726 0
M  V30 1832 O 165.05 1.57239 0.949812 0
M  V30 1833 C 165.112 2.7781 -2.2817 0
M  V30 1834 C 164.776 2.59244 -3.76353 0
M  V30 1835 C 165.773 2.25292 -4.68551 0
M  V30 1836 C 163.458 2.74933 -4.20378 0
M  V30 1837 C 165.452 2.07264 -6.02761 0
M  V30 1838 C 163.139 2.56521 -5.54653 0
M  V30 1839 C 164.137 2.22737 -6.4566 0
M  V30 1840 O 163.825 2.04485 -7.77458 0
M  V30 1841 H 163.557 0.463842 -0.491759 0
M  V30 1842 H 166.111 0.865934 -1.86255 0
M  V30 1843 H 164.341 3.41995 -1.8049 0
M  V30 1844 H 166.03 3.39608 -2.22309 0
M  V30 1845 H 166.796 2.12787 -4.35829 0
M  V30 1846 H 162.675 3.00213 -3.49848 0
M  V30 1847 H 166.219 1.80817 -6.73759 0
M  V30 1848 H 162.116 2.68616 -5.86955 0
M  V30 1849 H 162.884 2.1926 -7.88586 0
M  V30 1850 N 165.547 1.27147 0.931209 0
M  V30 1851 C 166.824 1.0401 1.65654 0
M  V30 1852 C 167.204 -0.426297 2.06751 0
M  V30 1853 O 166.552 -1.40879 1.79904 0
M  V30 1854 C 166.762 1.99834 2.86125 0
M  V30 1855 C 168.11 2.29007 3.57549 0
M  V30 1856 O 169.134 1.97779 2.96246 0
M  V30 1857 O 167.993 2.82222 4.67989 0
M  V30 1858 H 165.087 0.396239 0.725895 0
M  V30 1859 H 167.633 1.38397 0.982056 0
M  V30 1860 H 166.405 2.98744 2.52721 0
M  V30 1861 H 166.028 1.65987 3.61295 0
M  V30 1862 N 167.025 -1.13721 1.09112 0
M  V30 1863 C 168.255 -1.88499 0.845671 0
M  V30 1864 C 168.663 -1.79218 -0.606432 0
M  V30 1865 O 168.006 -1.1544 -1.42896 0
M  V30 1866 C 168.068 -3.38954 1.19793 0
M  V30 1867 C 167.732 -3.72018 2.65428 0
M  V30 1868 C 168.729 -3.7153 3.63677 0
M  V30 1869 C 166.414 -4.01775 3.01467 0
M  V30 1870 C 168.408 -4.00336 4.95994 0
M  V30 1871 C 166.095 -4.30243 4.33975 0
M  V30 1872 C 167.093 -4.29508 5.31048 0
M  V30 1873 O 166.781 -4.5728 6.61173 0
M  V30 1874 H 166.513 -0.603702 0.304171 0
M  V30 1875 H 169.067 -1.44903 1.45576 0
M  V30 1876 H 167.297 -3.83039 0.530871 0
M  V30 1877 H 168.986 -3.95052 0.932146 0
M  V30 1878 H 169.752 -3.4862 3.37179 0
M  V30 1879 H 165.631 -4.01496 2.26544 0
M  V30 1880 H 169.175 -3.99678 5.71755 0
M  V30 1881 H 165.072 -4.52625 4.60219 0
M  V30 1882 H 165.84 -4.74964 6.66597 0
M  V30 1883 N 168.503 -0.877838 -1.30888 0
M  V30 1884 C 169.45 -0.337538 -2.28318 0
M  V30 1885 C 170.42 0.568346 -1.56074 0
M  V30 1886 O 171.605 0.498298 -1.84178 0
M  V30 1887 C 168.745 0.448142 -3.42178 0
M  V30 1888 C 167.858 -0.48615 -4.29256 0
M  V30 1889 C 166.993 0.314427 -5.30269 0
M  V30 1890 C 166.032 -0.615791 -6.08995 0
M  V30 1891 N 165.169 0.14902 -7.01942 0
M  V30 1892 H 170.009 -1.17356 -2.73919 0
M  V30 1893 H 167.546 -0.590094 -1.34745 0
M  V30 1894 H 169.504 0.919517 -4.06941 0
M  V30 1895 H 168.134 1.24879 -2.97666 0
M  V30 1896 H 167.186 -1.076 -3.64865 0
M  V30 1897 H 168.498 -1.19909 -4.84173 0
M  V30 1898 H 167.652 0.847969 -6.00745 0
M  V30 1899 H 166.391 1.06062 -4.76027 0
M  V30 1900 H 165.396 -1.16102 -5.37401 0
M  V30 1901 H 166.621 -1.36097 -6.65323 0
M  V30 1902 H 164.567 0.877884 -6.50099 0
M  V30 1903 H 164.484 -0.504433 -7.54315 0
M  V30 1904 H 165.752 0.663537 -7.76671 0
M  V30 1905 N 169.982 1.44106 -0.638065 0
M  V30 1906 C 170.93 2.3248 0.0748149 0
M  V30 1907 C 171.924 1.47746 0.828702 0
M  V30 1908 O 173.13 1.64049 0.740816 0
M  V30 1909 H 169.505 0.750771 0.0429686 0
M  V30 1910 H 171.476 2.90348 -0.688504 0
M  V30 1911 C 170.225 3.31843 1.03805 0
M  V30 1912 H 169.548 3.97059 0.467375 0
M  V30 1913 H 170.988 3.96345 1.50622 0
M  V30 1914 C 169.447 2.61291 2.1267 0
M  V30 1915 O 169.977 2.41702 3.20847 0
M  V30 1916 N 168.183 2.20915 1.88798 0
M  V30 1917 H 167.73 2.37047 1.00829 0
M  V30 1918 H 167.688 1.74038 2.61836 0
M  V30 1919 N 171.46 0.379036 1.52974 0
M  V30 1920 C 172.41 -0.477772 2.22938 0
M  V30 1921 C 173.394 -1.03792 1.22948 0
M  V30 1922 O 174.586 -0.965725 1.48333 0
M  V30 1923 C 171.715 -1.60994 3.03209 0
M  V30 1924 C 170.801 -1.06203 4.10587 0
M  V30 1925 N 171.192 -0.238214 5.05239 0
M  V30 1926 C 169.49 -1.33554 4.25534 0
M  V30 1927 C 170.191 0.0633235 5.81666 0
M  V30 1928 N 169.167 -0.537901 5.40932 0
M  V30 1929 H 172.969 0.158295 2.93473 0
M  V30 1930 H 170.483 0.187778 1.61311 0
M  V30 1931 H 172.48 -2.23607 3.5186 0
M  V30 1932 H 171.14 -2.24893 2.34207 0
M  V30 1933 H 172.151 0.123695 5.17752 0
M  V30 1934 H 168.828 -1.97632 3.6776 0
M  V30 1935 H 170.218 0.730161 6.67921 0
M  V30 1936 N 172.938 -1.57226 0.108567 0
M  V30 1937 C 174.215 -1.86333 -0.594939 0
M  V30 1938 C 174.595 -1.00788 -1.85486 0
M  V30 1939 O 173.943 -0.0839293 -2.28346 0
M  V30 1940 C 174.153 -3.37265 -0.897405 0
M  V30 1941 C 175.501 -4.05629 -1.25501 0
M  V30 1942 O 176.525 -3.42224 -0.987998 0
M  V30 1943 O 175.384 -5.17531 -1.75567 0
M  V30 1944 H 172.478 -0.771018 -0.2991 0
M  V30 1945 H 175.024 -1.69102 0.142283 0
M  V30 1946 H 173.796 -3.913 -0.00413806 0
M  V30 1947 H 173.419 -3.59889 -1.69014 0
M  V30 1948 N 174.416 0.165178 -1.56732 0
M  V30 1949 C 175.832 0.517174 -1.50988 0
M  V30 1950 C 176.032 1.84331 -0.813894 0
M  V30 1951 O 175.088 2.49672 -0.37682 0
M  V30 1952 C 176.401 0.544261 -2.95733 0
M  V30 1953 C 177.949 0.631039 -3.06573 0
M  V30 1954 C 178.424 0.68896 -4.52788 0
M  V30 1955 N 179.915 0.751683 -4.5706 0
M  V30 1956 C 180.65 0.817177 -5.67547 0
M  V30 1957 N 180.146 0.843129 -6.8765 0
M  V30 1958 N 181.939 0.856668 -5.55534 0
M  V30 1959 H 174.09 -0.704318 -2.00382 0
M  V30 1960 H 176.353 -0.254687 -0.913148 0
M  V30 1961 H 176.059 -0.361607 -3.49836 0
M  V30 1962 H 175.933 1.3886 -3.5071 0
M  V30 1963 H 178.32 1.52733 -2.52501 0
M  V30 1964 H 178.401 -0.240095 -2.54671 0
M  V30 1965 H 178.045 -0.2031 -5.07494 0
M  V30 1966 H 177.975 1.57633 -5.02454 0
M  V30 1967 H 180.466 0.739661 -3.70591 0
M  V30 1968 H 180.779 0.894448 -7.67606 0
M  V30 1969 H 179.124 0.811304 -6.90248 0
M  V30 1970 H 182.315 0.833437 -4.60621 0
M  V30 1971 H 182.488 0.904247 -6.4166 0
M  V30 1972 N 175.894 1.51508 0.433938 0
M  V30 1973 C 177.119 1.68443 1.21003 0
M  V30 1974 C 177.544 0.382636 1.84167 0
M  V30 1975 O 176.902 -0.65755 1.68956 0
M  V30 1976 C 176.95 2.80405 2.26727 0
M  V30 1977 O 176.054 2.44245 3.32292 0
M  V30 1978 H 175.395 0.561536 0.354363 0
M  V30 1979 H 177.925 1.9809 0.512024 0
M  V30 1980 H 177.935 3.0459 2.71457 0
M  V30 1981 H 176.61 3.74867 1.80132 0
M  V30 1982 H 175.187 2.30644 2.93015 0
M  V30 1983 N 177.372 -0.689602 1.41712 0
M  V30 1984 C 178.302 -1.81577 1.46806 0
M  V30 1985 C 179.283 -1.66945 0.326105 0
M  V30 1986 O 180.468 -1.86588 0.538377 0
M  V30 1987 C 177.598 -3.19762 1.35535 0
M  V30 1988 C 176.552 -3.49107 2.47605 0
M  V30 1989 C 175.878 -4.86711 2.21397 0
M  V30 1990 C 177.178 -3.47483 3.89939 0
M  V30 1991 H 178.872 -1.7757 2.41058 0
M  V30 1992 H 176.418 -0.852887 1.16025 0
M  V30 1993 H 178.371 -3.98263 1.3771 0
M  V30 1994 H 177.095 -3.24409 0.377708 0
M  V30 1995 H 175.754 -2.72959 2.44722 0
M  V30 1996 H 175.402 -4.8799 1.21961 0
M  V30 1997 H 175.102 -5.0731 2.96497 0
M  V30 1998 H 176.626 -5.67515 2.25297 0
M  V30 1999 H 178.04 -4.1598 3.94505 0
M  V30 2000 H 176.437 -3.79615 4.64771 0
M  V30 2001 H 177.507 -2.46341 4.17665 0
M  V30 2002 N 178.85 -1.27639 -0.924453 0
M  V30 2003 C 179.76 -1.12466 -2.05885 0
M  V30 2004 C 180.776 -0.053869 -1.73917 0
M  V30 2005 O 181.952 -0.261012 -1.99702 0
M  V30 2006 C 179.017 -0.776768 -3.37886 0
M  V30 2007 C 178.078 -1.92878 -3.83532 0
M  V30 2008 C 177.311 -1.59739 -5.09234 0
M  V30 2009 O 177.534 -0.506782 -5.68144 0
M  V30 2010 O 176.468 -2.43761 -5.50331 0
M  V30 2011 H 180.294 -2.07671 -2.21599 0
M  V30 2012 H 177.879 -1.06857 -1.04413 0
M  V30 2013 H 179.761 -0.596229 -4.17161 0
M  V30 2014 H 178.436 0.145732 -3.23372 0
M  V30 2015 H 177.343 -2.1644 -3.0513 0
M  V30 2016 H 178.676 -2.8316 -4.02593 0
M  V30 2017 N 180.328 1.1314 -1.09713 0
M  V30 2018 C 181.291 2.16831 -0.742751 0
M  V30 2019 C 182.291 1.59159 0.229129 0
M  V30 2020 O 183.481 1.74199 0.00693237 0
M  V30 2021 C 180.613 3.40756 -0.0989168 0
M  V30 2022 H 181.806 2.49695 -1.66109 0
M  V30 2023 H 179.359 1.2802 -0.896699 0
M  V30 2024 H 180.094 3.13485 0.830514 0
M  V30 2025 H 179.879 3.83888 -0.798265 0
M  V30 2026 H 181.369 4.17386 0.133524 0
M  V30 2027 N 181.806 0.884767 1.30421 0
M  V30 2028 C 183.053 0.503105 1.96151 0
M  V30 2029 C 183.381 -0.947676 1.69851 0
M  V30 2030 O 182.636 -1.68467 0.995861 0
M  V30 2031 C 182.935 0.724318 3.49983 0
M  V30 2032 C 182.601 2.15015 3.96332 0
M  V30 2033 C 181.263 2.54005 4.08699 0
M  V30 2034 C 183.615 3.07936 4.20505 0
M  V30 2035 C 180.943 3.85128 4.42599 0
M  V30 2036 C 183.295 4.3859 4.55874 0
M  V30 2037 C 181.959 4.77474 4.66449 0
M  V30 2038 H 181.229 0.184099 0.717766 0
M  V30 2039 H 183.876 1.12058 1.55291 0
M  V30 2040 H 182.181 0.0238086 3.91793 0
M  V30 2041 H 183.878 0.408617 3.98913 0
M  V30 2042 H 180.468 1.8375 3.87213 0
M  V30 2043 H 184.652 2.79033 4.10431 0
M  V30 2044 H 179.908 4.14996 4.48986 0
M  V30 2045 H 184.082 5.10629 4.7353 0
M  V30 2046 H 181.709 5.79115 4.92473 0
M  V30 2047 N 183.284 -1.43765 0.645699 0
M  V30 2048 C 184.231 -2.30745 -0.0504648 0
M  V30 2049 C 185.201 -1.4432 -0.822241 0
M  V30 2050 O 186.386 -1.73202 -0.800358 0
M  V30 2051 C 183.526 -3.29802 -1.0161 0
M  V30 2052 C 182.639 -4.31326 -0.241219 0
M  V30 2053 C 181.774 -5.17469 -1.19998 0
M  V30 2054 C 180.813 -6.10691 -0.415094 0
M  V30 2055 N 179.95 -6.89483 -1.32506 0
M  V30 2056 H 184.79 -2.8973 0.697155 0
M  V30 2057 H 182.327 -1.42738 0.355563 0
M  V30 2058 H 184.285 -3.85734 -1.58949 0
M  V30 2059 H 182.915 -2.72483 -1.73069 0
M  V30 2060 H 181.967 -3.77749 0.448334 0
M  V30 2061 H 183.279 -4.9743 0.369437 0
M  V30 2062 H 182.433 -5.7799 -1.84424 0
M  V30 2063 H 181.172 -4.51473 -1.84455 0
M  V30 2064 H 180.177 -5.49265 0.242565 0
M  V30 2065 H 181.402 -6.78727 0.224966 0
M  V30 2066 H 179.348 -6.26142 -1.95657 0
M  V30 2067 H 179.265 -7.52081 -0.768783 0
M  V30 2068 H 180.533 -7.54516 -1.9577 0
M  V30 2069 N 184.763 -0.387143 -1.52771 0
M  V30 2070 C 185.711 0.463953 -2.27926 0
M  V30 2071 C 186.705 1.06493 -1.31741 0
M  V30 2072 O 187.911 1.00565 -1.49287 0
M  V30 2073 H 184.286 0.16837 -0.732909 0
M  V30 2074 H 186.257 -0.19141 -2.97785 0
M  V30 2075 C 185.006 1.5803 -3.09713 0
M  V30 2076 H 184.329 1.12718 -3.83581 0
M  V30 2077 H 185.769 2.15008 -3.65442 0
M  V30 2078 C 184.228 2.53509 -2.2189 0
M  V30 2079 O 184.758 3.56863 -1.84422 0
M  V30 2080 N 182.964 2.23199 -1.86093 0
M  V30 2081 H 182.511 1.39185 -2.16761 0
M  V30 2082 H 182.469 2.87333 -1.27621 0
M  V30 2083 N 186.241 1.57166 -0.116904 0
M  V30 2084 C 187.488 1.95123 0.541603 0
M  V30 2085 C 187.816 1.00006 1.6682 0
M  V30 2086 O 187.071 0.0235658 1.95686 0
M  V30 2087 C 187.37 3.39508 1.11664 0
M  V30 2088 C 187.036 4.50762 0.111606 0
M  V30 2089 C 185.698 4.80918 -0.164758 0
M  V30 2090 C 188.05 5.18036 -0.573438 0
M  V30 2091 C 185.378 5.75666 -1.13249 0
M  V30 2092 C 187.73 6.13824 -1.52978 0
M  V30 2093 C 186.394 6.42374 -1.81415 0
M  V30 2094 H 185.664 0.714005 0.198187 0
M  V30 2095 H 188.311 1.9048 -0.197365 0
M  V30 2096 H 186.616 3.40835 1.93232 0
M  V30 2097 H 188.313 3.66189 1.63422 0
M  V30 2098 H 184.903 4.27272 0.337192 0
M  V30 2099 H 189.087 4.94896 -0.373092 0
M  V30 2100 H 184.343 5.96092 -1.35958 0
M  V30 2101 H 188.517 6.65039 -2.06629 0
M  V30 2102 H 186.144 7.15599 -2.56557 0
M  V30 2103 N 187.719 -0.156864 1.56817 0
M  V30 2104 C 188.965 -0.872416 1.83076 0
M  V30 2105 C 189.298 -1.81261 0.697001 0
M  V30 2106 O 188.573 -1.92171 -0.30008 0
M  V30 2107 C 188.856 -1.65551 3.19789 0
M  V30 2108 C 188.709 -0.737467 4.43713 0
M  V30 2109 C 190.028 -2.62012 3.53606 0
M  V30 2110 H 187.147 -0.315715 0.665953 0
M  V30 2111 H 189.789 -0.138004 1.89498 0
M  V30 2112 H 187.939 -2.28159 3.14445 0
M  V30 2113 H 189.611 -0.123143 4.61136 0
M  V30 2114 H 187.854 -0.0464067 4.33775 0
M  V30 2115 H 188.525 -1.32122 5.35955 0
M  V30 2116 H 191.001 -2.09525 3.59497 0
M  V30 2117 H 189.877 -3.13861 4.50314 0
M  V30 2118 H 190.138 -3.42902 2.79053 0
M  V30 2119 N 189.197 -1.51736 -0.425897 0
M  V30 2120 C 190.127 -1.76827 -1.52494 0
M  V30 2121 C 191.108 -0.618524 -1.58456 0
M  V30 2122 O 192.293 -0.862416 -1.74 0
M  V30 2123 C 189.423 -1.90374 -2.90474 0
M  V30 2124 C 188.377 -3.0588 -2.99369 0
M  V30 2125 C 187.703 -3.04625 -4.3944 0
M  V30 2126 C 189.003 -4.45644 -2.72394 0
M  V30 2127 H 190.697 -2.68855 -1.31748 0
M  V30 2128 H 188.243 -1.29372 -0.632362 0
M  V30 2129 H 190.196 -2.0651 -3.6733 0
M  V30 2130 H 188.92 -0.95004 -3.12477 0
M  V30 2131 H 187.579 -2.89467 -2.24954 0
M  V30 2132 H 187.227 -2.0701 -4.58428 0
M  V30 2133 H 186.927 -3.82195 -4.46319 0
M  V30 2134 H 188.451 -3.22869 -5.18255 0
M  V30 2135 H 189.865 -4.62348 -3.38979 0
M  V30 2136 H 188.262 -5.25006 -2.9067 0
M  V30 2137 H 189.332 -4.54893 -1.67929 0
M  V30 2138 N 190.675 0.682077 -1.42076 0
M  V30 2139 C 191.585 1.82535 -1.47371 0
M  V30 2140 C 192.601 1.7017 -0.363079 0
M  V30 2141 O 193.777 1.91848 -0.612875 0
M  V30 2142 C 190.842 3.18624 -1.36674 0
M  V30 2143 C 189.903 3.42999 -2.58167 0
M  V30 2144 C 189.136 4.72595 -2.4797 0
M  V30 2145 O 189.359 5.50006 -1.5116 0
M  V30 2146 O 188.293 4.98054 -3.37974 0
M  V30 2147 H 192.119 1.81023 -2.43853 0
M  V30 2148 H 189.704 0.836887 -1.2376 0
M  V30 2149 H 191.586 3.99847 -1.33043 0
M  V30 2150 H 190.261 3.20789 -0.433138 0
M  V30 2151 H 189.168 2.61653 -2.67373 0
M  V30 2152 H 190.501 3.45659 -3.50401 0
M  V30 2153 N 192.153 1.28127 0.917671 0
M  V30 2154 C 193.381 1.17892 1.70026 0
M  V30 2155 C 193.796 -0.262958 1.8696 0
M  V30 2156 O 193.153 -1.17811 1.3938 0
M  V30 2157 C 193.204 1.86872 3.09453 0
M  V30 2158 O 192.925 3.25428 2.93306 0
M  V30 2159 C 194.426 1.8289 4.03815 0
M  V30 2160 H 191.646 0.40942 0.531617 0
M  V30 2161 H 194.19 1.69181 1.14883 0
M  V30 2162 H 192.345 1.39464 3.61426 0
M  V30 2163 H 192.759 3.59918 3.81523 0
M  V30 2164 H 194.233 2.35751 4.99125 0
M  V30 2165 H 194.71 0.800412 4.31845 0
M  V30 2166 H 195.316 2.29959 3.57769 0
M  V30 2167 N 193.631 -1.12557 1.10312 0
M  V30 2168 C 194.861 -1.87592 0.865617 0
M  V30 2169 C 195.269 -1.79851 -0.587389 0
M  V30 2170 O 194.612 -1.16949 -1.41664 0
M  V30 2171 C 194.674 -3.37665 1.23381 0
M  V30 2172 C 194.338 -3.69181 2.69359 0
M  V30 2173 C 195.335 -3.67652 3.67597 0
M  V30 2174 C 193.02 -3.98555 3.05711 0
M  V30 2175 C 195.014 -3.95053 5.00212 0
M  V30 2176 C 192.701 -4.25616 4.38514 0
M  V30 2177 C 193.699 -4.23851 5.35574 0
M  V30 2178 O 193.387 -4.50242 6.65986 0
M  V30 2179 H 193.119 -0.600442 0.310557 0
M  V30 2180 H 195.673 -1.4335 1.47105 0
M  V30 2181 H 193.903 -3.82454 0.571467 0
M  V30 2182 H 195.592 -3.94041 0.973994 0
M  V30 2183 H 196.358 -3.45024 3.40857 0
M  V30 2184 H 192.237 -3.99071 2.30789 0
M  V30 2185 H 195.781 -3.93591 5.75962 0
M  V30 2186 H 191.678 -4.47718 4.64994 0
M  V30 2187 H 192.446 -4.67867 6.71597 0
M  V30 2188 N 195.109 -0.891671 -1.2995 0
M  V30 2189 C 196.056 -0.361736 -2.27948 0
M  V30 2190 C 197.026 0.551761 -1.56668 0
M  V30 2191 O 198.211 0.478736 -1.84696 0
M  V30 2192 C 195.351 0.411825 -3.42634 0
M  V30 2193 C 194.464 -0.531651 -4.28716 0
M  V30 2194 C 193.599 0.258167 -5.30572 0
M  V30 2195 C 192.638 -0.680349 -6.08307 0
M  V30 2196 N 191.775 0.0745613 -7.0206 0
M  V30 2197 H 196.615 -1.20254 -2.72659 0
M  V30 2198 H 194.152 -0.604352 -1.34112 0
M  V30 2199 H 196.11 0.876304 -4.07893 0
M  V30 2200 H 194.74 1.21715 -2.98974 0
M  V30 2201 H 193.792 -1.11463 -3.63703 0
M  V30 2202 H 195.104 -1.25038 -4.82874 0
M  V30 2203 H 194.258 0.784204 -6.0161 0
M  V30 2204 H 192.997 1.01008 -4.77126 0
M  V30 2205 H 192.002 -1.21796 -5.3614 0
M  V30 2206 H 193.227 -1.43145 -6.63842 0
M  V30 2207 H 191.173 0.808883 -6.50994 0
M  V30 2208 H 191.09 -0.584409 -7.53738 0
M  V30 2209 H 192.358 0.581123 -7.77331 0
M  V30 2210 N 196.587 1.43421 -0.653314 0
M  V30 2211 C 197.535 2.32546 0.0501531 0
M  V30 2212 C 198.529 1.48617 0.812985 0
M  V30 2213 O 199.735 1.64825 0.723375 0
M  V30 2214 H 196.11 0.751185 0.0350032 0
M  V30 2215 H 198.081 2.89602 -0.719261 0
M  V30 2216 C 196.83 3.32925 1.00279 0
M  V30 2217 H 196.153 3.97532 0.425236 0
M  V30 2218 H 197.593 3.9792 1.46409 0
M  V30 2219 C 196.052 2.63532 2.09886 0
M  V30 2220 O 196.582 2.45092 3.18265 0
M  V30 2221 N 194.788 2.22905 1.86445 0
M  V30 2222 H 194.335 2.38103 0.98309 0
M  V30 2223 H 194.293 1.76805 2.59976 0
M  V30 2224 N 198.065 0.39524 1.52563 0
M  V30 2225 C 199.028 -0.425001 2.25225 0
M  V30 2226 C 200.028 -0.985266 1.27079 0
M  V30 2227 O 201.218 -0.866332 1.5113 0
M  V30 2228 C 198.35 -1.59686 3.01186 0
M  V30 2229 H 199.543 0.211233 2.99155 0
M  V30 2230 H 197.096 0.147472 1.55603 0
M  V30 2231 H 197.831 -2.27035 2.31572 0
M  V30 2232 H 197.616 -1.20176 3.73229 0
M  V30 2233 H 199.106 -2.17743 3.5634 0
M  V30 2234 N 199.544 -1.57102 0.125237 0
M  V30 2235 C 200.491 -2.15641 -0.822655 0
M  V30 2236 C 201.461 -1.08313 -1.25927 0
M  V30 2237 O 202.646 -1.36251 -1.33567 0
M  V30 2238 C 199.786 -2.76504 -2.06494 0
M  V30 2239 C 198.899 -3.98158 -1.67612 0
M  V30 2240 C 198.034 -4.47088 -2.86854 0
M  V30 2241 C 197.073 -5.6126 -2.44242 0
M  V30 2242 N 196.21 -6.04905 -3.56419 0
M  V30 2243 H 201.05 -2.96313 -0.316625 0
M  V30 2244 H 198.587 -1.46388 -0.144588 0
M  V30 2245 H 200.545 -3.09925 -2.79289 0
M  V30 2246 H 199.175 -1.98512 -2.54545 0
M  V30 2247 H 198.227 -3.70858 -0.846661 0
M  V30 2248 H 199.539 -4.80934 -1.32301 0
M  V30 2249 H 198.693 -4.82451 -3.67867 0
M  V30 2250 H 197.432 -3.63275 -3.25396 0
M  V30 2251 H 196.437 -5.25495 -1.61663 0
M  V30 2252 H 197.662 -6.46843 -2.0681 0
M  V30 2253 H 195.608 -5.24032 -3.94623 0
M  V30 2254 H 195.525 -6.82552 -3.25051 0
M  V30 2255 H 196.793 -6.44907 -4.37853 0
M  V30 2256 N 201.022 0.148545 -1.56898 0
M  V30 2257 C 201.985 1.16736 -1.97244 0
M  V30 2258 C 202.985 1.35947 -0.858777 0
M  V30 2259 O 204.175 1.32966 -1.12542 0
M  V30 2260 C 201.307 2.52798 -2.28705 0
M  V30 2261 H 202.5 0.821279 -2.88435 0
M  V30 2262 H 200.053 0.391831 -1.51309 0
M  V30 2263 H 200.788 2.92381 -1.403 0
M  V30 2264 H 200.573 2.40216 -3.09901 0
M  V30 2265 H 202.063 3.26179 -2.60762 0
M  V30 2266 N 202.5 1.5196 0.417844 0
M  V30 2267 C 203.725 1.69717 1.1921 0
M  V30 2268 C 204.15 0.402148 1.83751 0
M  V30 2269 O 203.508 -0.639593 1.69643 0
M  V30 2270 C 203.556 2.82794 2.2374 0
M  V30 2271 O 202.66 2.47756 3.29683 0
M  V30 2272 H 202.001 0.565263 0.348387 0
M  V30 2273 H 204.531 1.98621 0.490985 0
M  V30 2274 H 204.541 3.07452 2.68212 0
M  V30 2275 H 203.216 3.76756 1.76146 0
M  V30 2276 H 201.793 2.33739 2.90552 0
M  V30 2277 N 203.978 -0.674533 1.42435 0
M  V30 2278 C 204.888 -1.81751 1.48337 0
M  V30 2279 C 205.904 -1.69975 0.372099 0
M  V30 2280 O 207.08 -1.91521 0.62304 0
M  V30 2281 C 204.145 -3.17895 1.38361 0
M  V30 2282 C 203.206 -3.41625 2.59982 0
M  V30 2283 C 202.439 -4.71274 2.50473 0
M  V30 2284 O 202.662 -5.49197 1.54075 0
M  V30 2285 O 201.596 -4.96254 3.4061 0
M  V30 2286 H 205.422 -1.79728 2.44809 0
M  V30 2287 H 203.007 -0.830312 1.24202 0
M  V30 2288 H 204.889 -3.99136 1.35161 0
M  V30 2289 H 203.564 -3.20555 0.450144 0
M  V30 2290 H 202.471 -2.60231 2.68757 0
M  V30 2291 H 203.804 -3.43796 3.52229 0
M  V30 2292 N 205.456 -1.28612 -0.910864 0
M  V30 2293 C 206.867 -1.14406 -1.47541 0
M  V30 2294 C 207.218 0.264901 -1.94403 0
M  V30 2295 O 206.343 1.15942 -1.82719 0
M  V30 2296 C 206.938 -2.07073 -2.68153 0
M  V30 2297 C 205.497 -1.96923 -3.20778 0
M  V30 2298 C 204.644 -1.98646 -1.93481 0
M  V30 2299 H 207.595 -1.41259 -0.723291 0
M  V30 2300 H 207.616 -1.63642 -3.43514 0
M  V30 2301 H 207.128 -3.09611 -2.34015 0
M  V30 2302 H 205.229 -0.97433 -3.59635 0
M  V30 2303 H 205.342 -2.84026 -3.85832 0
M  V30 2304 H 203.706 -1.43093 -2.10705 0
M  V30 2305 H 204.489 -3.02868 -1.61634 0
M  V30 2306 N 206.934 1.1197 -1.10907 0
M  V30 2307 C 208.345 1.65114 -0.871446 0
M  V30 2308 C 208.696 1.86885 0.597353 0
M  V30 2309 O 207.821 1.59896 1.45816 0
M  V30 2310 C 208.416 2.99944 -1.5754 0
M  V30 2311 C 206.975 3.50018 -1.38435 0
M  V30 2312 C 206.122 2.24941 -1.62164 0
M  V30 2313 H 209.073 0.956851 -1.2661 0
M  V30 2314 H 209.094 3.66651 -1.01721 0
M  V30 2315 H 208.606 2.84067 -2.64438 0
M  V30 2316 H 206.707 3.71071 -0.337214 0
M  V30 2317 H 206.82 4.29165 -2.12965 0
M  V30 2318 H 205.184 2.3229 -1.04467 0
M  V30 2319 H 205.967 2.11612 -2.70324 0
M  V30 2320 N 208.412 0.89855 1.29475 0
M  V30 2321 C 209.359 0.373819 2.27753 0
M  V30 2322 C 210.329 -0.543444 1.56958 0
M  V30 2323 O 211.514 -0.468934 1.84948 0
M  V30 2324 C 208.654 -0.393648 3.42848 0
M  V30 2325 C 207.767 0.554379 4.28428 0
M  V30 2326 C 206.902 -0.230026 5.30702 0
M  V30 2327 C 205.941 0.712599 6.07938 0
M  V30 2328 N 205.078 -0.0373283 7.0209 0
M  V30 2329 H 209.918 1.21699 2.72017 0
M  V30 2330 H 207.455 0.611456 1.33789 0
M  V30 2331 H 209.413 -0.85466 4.08352 0
M  V30 2332 H 208.043 -1.20128 2.99615 0
M  V30 2333 H 207.095 1.13391 3.63107 0
M  V30 2334 H 208.407 1.27597 4.82204 0
M  V30 2335 H 207.561 -0.752288 6.02018 0
M  V30 2336 H 206.3 -0.984758 4.77654 0
M  V30 2337 H 205.305 1.24637 5.35486 0
M  V30 2338 H 206.53 1.46664 6.63074 0
M  V30 2339 H 204.476 -0.774348 6.51414 0
M  V30 2340 H 204.393 0.624374 7.53417 0
M  V30 2341 H 205.661 -0.539891 7.77628 0
M  V30 2342 N 209.89 -1.43072 0.660911 0
M  V30 2343 C 211.301 -1.84932 0.256348 0
M  V30 2344 C 211.652 -1.55325 -1.19868 0
M  V30 2345 O 210.777 -1.00607 -1.91591 0
M  V30 2346 C 211.372 -3.35684 0.458475 0
M  V30 2347 C 209.931 -3.76245 0.108161 0
M  V30 2348 C 209.078 -2.66749 0.757641 0
M  V30 2349 H 212.029 -1.33116 0.864051 0
M  V30 2350 H 212.05 -3.79365 -0.293683 0
M  V30 2351 H 211.562 -3.572 1.51755 0
M  V30 2352 H 209.663 -3.60338 -0.948014 0
M  V30 2353 H 209.776 -4.76058 0.538992 0
M  V30 2354 H 208.14 -2.53989 0.190185 0
M  V30 2355 H 208.923 -2.91092 1.81989 0
M  V30 2356 N 211.368 -0.403325 -1.52352 0
M  V30 2357 C 212.298 0.416205 -2.29761 0
M  V30 2358 C 213.279 1.05123 -1.33728 0
M  V30 2359 O 214.464 1.06134 -1.62632 0
M  V30 2360 C 211.594 1.53624 -3.11475 0
M  V30 2361 C 210.548 1.02653 -4.15507 0
M  V30 2362 C 209.874 2.23971 -4.85532 0
M  V30 2363 C 211.174 0.08463 -5.22231 0
M  V30 2364 H 212.868 -0.229701 -2.98518 0
M  V30 2365 H 210.414 -0.111913 -1.43564 0
M  V30 2366 H 212.367 2.1165 -3.64393 0
M  V30 2367 H 211.091 2.20994 -2.40477 0
M  V30 2368 H 209.75 0.46871 -3.63591 0
M  V30 2369 H 209.398 2.89883 -4.11068 0
M  V30 2370 H 209.098 1.90521 -5.55856 0
M  V30 2371 H 210.622 2.82614 -5.41259 0
M  V30 2372 H 212.036 0.573509 -5.70424 0
M  V30 2373 H 210.433 -0.160783 -5.99885 0
M  V30 2374 H 211.503 -0.86237 -4.7717 0
M  V30 2375 N 212.846 1.57033 -0.133567 0
M  V30 2376 C 213.794 2.17348 0.828412 0
M  V30 2377 C 214.788 1.12671 1.26498 0
M  V30 2378 O 215.994 1.30947 1.23502 0
M  V30 2379 H 212.369 0.695775 0.285309 0
M  V30 2380 H 214.34 2.96935 0.295372 0
M  V30 2381 C 213.089 2.79893 2.06289 0
M  V30 2382 H 212.412 3.60147 1.73592 0
M  V30 2383 H 213.852 3.25615 2.71572 0
M  V30 2384 C 212.311 1.77713 2.86216 0
M  V30 2385 O 212.841 1.23937 3.82103 0
M  V30 2386 N 211.047 1.47321 2.50489 0
M  V30 2387 H 210.594 1.91243 1.7258 0
M  V30 2388 H 210.552 0.79199 3.04261 0
M  V30 2389 N 214.325 -0.140222 1.56975 0
M  V30 2390 C 215.555 -0.865181 1.87612 0
M  V30 2391 C 215.963 -1.74942 0.72055 0
M  V30 2392 O 215.306 -1.80917 -0.318561 0
M  V30 2393 C 215.368 -1.76782 3.13031 0
M  V30 2394 C 215.032 -1.06005 4.44536 0
M  V30 2395 C 216.029 -0.410768 5.18275 0
M  V30 2396 C 213.714 -1.04754 4.91255 0
M  V30 2397 C 215.708 0.241572 6.36942 0
M  V30 2398 C 213.395 -0.391394 6.09845 0
M  V30 2399 C 214.393 0.252029 6.82535 0
M  V30 2400 O 214.081 0.897757 7.98871 0
M  V30 2401 H 213.813 -0.255188 0.625983 0
M  V30 2402 H 216.367 -0.135653 2.04952 0
M  V30 2403 H 214.597 -2.53846 2.91718 0
M  V30 2404 H 216.286 -2.36533 3.29859 0
M  V30 2405 H 217.052 -0.412195 4.83245 0
M  V30 2406 H 212.931 -1.53777 4.34596 0
M  V30 2407 H 216.475 0.744375 6.93617 0
M  V30 2408 H 212.372 -0.387656 6.44335 0
M  V30 2409 H 213.14 0.800102 8.1458 0
M  V30 2410 N 215.803 -1.52179 -0.40978 0
M  V30 2411 C 216.736 -1.70196 -1.52015 0
M  V30 2412 C 217.714 -0.549542 -1.53032 0
M  V30 2413 O 218.898 -0.776815 -1.71749 0
M  V30 2414 C 216.025 -1.74069 -2.90547 0
M  V30 2415 C 215.071 -2.95601 -3.07445 0
M  V30 2416 S 215.904 -4.55956 -2.80827 0
M  V30 2417 C 217.06 -4.62614 -4.21591 0
M  V30 2418 H 217.293 -2.64109 -1.36504 0
M  V30 2419 H 214.826 -1.4221 -0.601312 0
M  V30 2420 H 216.784 -1.76985 -3.70387 0
M  V30 2421 H 215.445 -0.812835 -3.034 0
M  V30 2422 H 214.638 -2.94791 -4.08796 0
M  V30 2423 H 214.24 -2.90569 -2.35469 0
M  V30 2424 H 216.532 -4.39951 -5.15218 0
M  V30 2425 H 217.475 -5.64548 -4.27424 0
M  V30 2426 H 217.883 -3.91654 -4.06531 0
M  V30 2427 N 217.281 0.66697 -1.42791 0
M  V30 2428 C 218.558 1.4234 -1.34159 0
M  V30 2429 C 218.938 2.11093 0.0172729 0
M  V30 2430 O 218.286 2.03808 1.03318 0
M  V30 2431 C 218.496 2.41942 -2.51526 0
M  V30 2432 C 219.844 3.06353 -2.93995 0
M  V30 2433 O 220.868 2.52269 -2.51473 0
M  V30 2434 O 219.727 4.04376 -3.67617 0
M  V30 2435 H 216.821 0.635277 -0.529483 0
M  V30 2436 H 219.367 0.695034 -1.54814 0
M  V30 2437 H 218.139 1.89991 -3.42081 0
M  V30 2438 H 217.762 3.22249 -2.32898 0
M  V30 2439 N 218.759 1.29093 0.90403 0
M  V30 2440 C 220.008 1.16187 1.64874 0
M  V30 2441 C 220.321 -0.286742 1.93487 0
M  V30 2442 O 221.527 -0.537062 2.66135 0
M  V30 2443 C 219.983 2.03177 2.97064 0
M  V30 2444 C 219.591 3.52836 2.76062 0
M  V30 2445 C 221.335 1.98984 3.74974 0
M  V30 2446 C 219.242 4.31945 4.03952 0
M  V30 2447 H 218.172 0.431246 0.618501 0
M  V30 2448 H 220.823 1.53699 1.00243 0
M  V30 2449 H 219.205 1.5853 3.62883 0
M  V30 2450 H 220.379 4.05507 2.18863 0
M  V30 2451 H 218.694 3.58656 2.11553 0
M  V30 2452 H 221.291 2.55351 4.69787 0
M  V30 2453 H 221.634 0.968815 4.0487 0
M  V30 2454 H 222.167 2.41652 3.15989 0
M  V30 2455 H 218.906 5.34667 3.79225 0
M  V30 2456 H 218.426 3.84045 4.60727 0
M  V30 2457 H 220.105 4.42379 4.72133 0
M  V30 2458 N 220.237 -1.11381 1.11499 0
M  V30 2459 C 221.167 -2.19509 0.796125 0
M  V30 2460 C 222.148 -1.68458 -0.235796 0
M  V30 2461 O 223.333 -1.93947 -0.0991344 0
M  V30 2462 C 220.463 -3.46475 0.239205 0
M  V30 2463 C 219.417 -4.10744 1.20307 0
M  V30 2464 C 218.743 -5.32293 0.50683 0
M  V30 2465 C 220.043 -4.55597 2.55399 0
M  V30 2466 H 221.737 -2.46439 1.70024 0
M  V30 2467 H 219.283 -1.18446 0.818935 0
M  V30 2468 H 221.236 -4.214 0.00392006 0
M  V30 2469 H 219.96 -3.19006 -0.700206 0
M  V30 2470 H 218.619 -3.37813 1.42399 0
M  V30 2471 H 218.267 -5.01095 -0.437408 0
M  V30 2472 H 217.967 -5.76243 1.1497 0
M  V30 2473 H 219.491 -6.09956 0.280351 0
M  V30 2474 H 220.905 -5.21841 2.37391 0
M  V30 2475 H 219.302 -5.10363 3.15673 0
M  V30 2476 H 220.372 -3.69013 3.14575 0
M  V30 2477 N 221.715 -0.905404 -1.28997 0
M  V30 2478 C 222.662 -0.385892 -2.27551 0
M  V30 2479 C 223.632 0.535113 -1.57244 0
M  V30 2480 O 224.817 0.459119 -1.85194 0
M  V30 2481 C 221.957 0.375461 -3.43051 0
M  V30 2482 C 221.07 -0.577092 -4.28128 0
M  V30 2483 C 220.205 0.201879 -5.30816 0
M  V30 2484 C 219.244 -0.744829 -6.07551 0
M  V30 2485 N 218.381 9.42587e-05 -7.021 0
M  V30 2486 H 223.221 -1.23139 -2.71368 0
M  V30 2487 H 220.758 -0.618542 -1.33463 0
M  V30 2488 H 222.716 0.832992 -4.088 0
M  V30 2489 H 221.346 1.18537 -3.00248 0
M  V30 2490 H 220.398 -1.15315 -3.62501 0
M  V30 2491 H 221.71 -1.30152 -4.8152 0
M  V30 2492 H 220.864 0.720351 -6.02408 0
M  V30 2493 H 219.603 0.959413 -4.7817 0
M  V30 2494 H 218.608 -1.27475 -5.34818 0
M  V30 2495 H 219.833 -1.50178 -6.62286 0
M  V30 2496 H 217.779 0.739791 -6.51815 0
M  V30 2497 H 217.696 -0.664321 -7.53076 0
M  V30 2498 H 218.964 0.498644 -7.77903 0
M  V30 2499 N 223.193 1.4272 -0.668489 0
M  V30 2500 C 224.47 1.95248 -0.117373 0
M  V30 2501 C 224.85 1.60919 1.36632 0
M  V30 2502 O 224.198 0.902095 2.09939 0
M  V30 2503 C 224.408 3.46927 -0.379806 0
M  V30 2504 C 225.756 4.23588 -0.292923 0
M  V30 2505 O 226.78 3.5482 -0.313204 0
M  V30 2506 O 225.639 5.46017 -0.229697 0
M  V30 2507 H 222.733 0.827 0.00079152 0
M  V30 2508 H 225.279 1.52581 -0.742783 0
M  V30 2509 H 224.051 3.65096 -1.40786 0
M  V30 2510 H 223.674 3.96627 0.277923 0
M  V30 2511 N 224.671 0.411399 1.52136 0
M  V30 2512 C 225.918 -0.163645 2.01838 0
M  V30 2513 C 226.246 -1.4495 1.29691 0
M  V30 2514 O 225.501 -1.91725 0.392431 0
M  V30 2515 C 225.8 -0.455872 3.54481 0
M  V30 2516 C 225.466 0.741055 4.44769 0
M  V30 2517 C 224.128 1.06936 4.69167 0
M  V30 2518 C 226.48 1.54075 4.97906 0
M  V30 2519 C 223.808 2.19851 5.43951 0
M  V30 2520 C 226.16 2.66067 5.73926 0
M  V30 2521 C 224.824 2.99381 5.96596 0
M  V30 2522 H 224.094 -0.0598821 0.738576 0
M  V30 2523 H 226.741 0.553283 1.83333 0
M  V30 2524 H 225.046 -1.2544 3.71177 0
M  V30 2525 H 226.743 -0.913802 3.90449 0
M  V30 2526 H 223.333 0.475192 4.25958 0
M  V30 2527 H 227.517 1.30033 4.78963 0
M  V30 2528 H 222.773 2.46006 5.59724 0
M  V30 2529 H 226.947 3.28419 6.14096 0
M  V30 2530 H 224.574 3.86992 6.54325 0
M  V30 2531 N 226.149 -1.5696 0.141893 0
M  V30 2532 C 227.079 -2.19516 -0.795936 0
M  V30 2533 C 228.06 -1.14187 -1.26077 0
M  V30 2534 O 229.245 -1.42511 -1.31925 0
M  V30 2535 C 226.375 -2.81272 -2.03723 0
M  V30 2536 C 225.329 -3.92384 -1.70936 0
M  V30 2537 C 224.655 -4.41052 -3.02287 0
M  V30 2538 C 225.955 -5.13403 -0.959954 0
M  V30 2539 H 227.649 -2.98138 -0.274596 0
M  V30 2540 H 225.195 -1.43406 -0.130636 0
M  V30 2541 H 227.148 -3.237 -2.69808 0
M  V30 2542 H 225.872 -1.99973 -2.58221 0
M  V30 2543 H 224.531 -3.50566 -1.07232 0
M  V30 2544 H 224.179 -3.56582 -3.54765 0
M  V30 2545 H 223.879 -5.15993 -2.81114 0
M  V30 2546 H 225.403 -4.86146 -3.69451 0
M  V30 2547 H 226.817 -5.52706 -1.52279 0
M  V30 2548 H 225.214 -5.94073 -0.848357 0
M  V30 2549 H 226.284 -4.84875 0.0492434 0
M  V30 2550 N 227.627 0.131896 -1.57047 0
M  V30 2551 C 228.575 1.18146 -2.0036 0
M  V30 2552 C 229.569 1.43614 -0.898406 0
M  V30 2553 O 230.775 1.43729 -1.08361 0
M  V30 2554 H 227.15 0.398042 -0.638018 0
M  V30 2555 H 229.121 0.789564 -2.87765 0
M  V30 2556 C 227.87 2.50341 -2.41298 0
M  V30 2557 H 227.193 2.31578 -3.25902 0
M  V30 2558 H 228.633 3.22371 -2.75414 0
M  V30 2559 C 227.092 3.11984 -1.27153 0
M  V30 2560 O 227.622 3.97484 -0.580459 0
M  V30 2561 N 225.828 2.71662 -1.03189 0
M  V30 2562 H 225.375 2.02231 -1.59564 0
M  V30 2563 H 225.333 3.13238 -0.270077 0
M  V30 2564 N 229.106 1.52395 0.401703 0
M  V30 2565 C 230.016 1.7917 1.51444 0
M  V30 2566 C 231.032 0.677691 1.6026 0
M  V30 2567 O 232.208 0.963909 1.76835 0
M  V30 2568 C 229.273 1.94347 2.87107 0
M  V30 2569 C 228.334 3.18257 2.88116 0
M  V30 2570 C 227.567 3.32701 4.17308 0
M  V30 2571 O 227.79 2.52238 5.11598 0
M  V30 2572 O 226.724 4.25891 4.25324 0
M  V30 2573 H 230.55 2.73633 1.31752 0
M  V30 2574 H 228.135 1.3733 0.588296 0
M  V30 2575 H 230.017 2.06109 3.67555 0
M  V30 2576 H 228.692 1.03073 3.06851 0
M  V30 2577 H 227.599 3.11947 2.06494 0
M  V30 2578 H 228.932 4.09336 2.73322 0
M  V30 2579 N 230.584 -0.659388 1.43143 0
M  V30 2580 C 231.812 -1.44723 1.47861 0
M  V30 2581 C 232.227 -1.88563 0.0945886 0
M  V30 2582 O 231.584 -1.59108 -0.893915 0
M  V30 2583 C 231.635 -2.68627 2.41913 0
M  V30 2584 O 231.356 -2.26623 3.74932 0
M  V30 2585 C 232.857 -3.62045 2.55809 0
M  V30 2586 H 230.077 -0.444801 0.502387 0
M  V30 2587 H 232.621 -0.808916 1.87821 0
M  V30 2588 H 230.776 -3.28613 2.05164 0
M  V30 2589 H 231.19 -3.06745 4.2545 0
M  V30 2590 H 232.664 -4.45666 3.25708 0
M  V30 2591 H 233.141 -4.08981 1.60099 0
M  V30 2592 H 233.747 -3.07944 2.93344 0
M  V30 2593 N 232.062 -1.29571 -0.897171 0
M  V30 2594 C 233.309 -1.17689 -1.6479 0
M  V30 2595 C 233.637 0.27107 -1.92602 0
M  V30 2596 O 232.892 1.21193 -1.53658 0
M  V30 2597 C 233.191 -1.9382 -3.00281 0
M  V30 2598 C 232.857 -3.43522 -2.92068 0
M  V30 2599 C 231.519 -3.84348 -2.89535 0
M  V30 2600 C 233.871 -4.38906 -2.81089 0
M  V30 2601 C 231.199 -5.18869 -2.73846 0
M  V30 2602 C 233.551 -5.73521 -2.66939 0
M  V30 2603 C 232.215 -6.13601 -2.62774 0
M  V30 2604 H 231.485 -0.430654 -0.603008 0
M  V30 2605 H 234.132 -1.60536 -1.04404 0
M  V30 2606 H 232.437 -1.4357 -3.64547 0
M  V30 2607 H 234.134 -1.82028 -3.57305 0
M  V30 2608 H 230.724 -3.11072 -2.94842 0
M  V30 2609 H 234.908 -4.08315 -2.82121 0
M  V30 2610 H 230.164 -5.4903 -2.69027 0
M  V30 2611 H 234.338 -6.47078 -2.57416 0
M  V30 2612 H 231.965 -7.17786 -2.50375 0
M  V30 2613 N 233.54 1.10788 -1.12088 0
M  V30 2614 C 234.472 2.16816 -0.743213 0
M  V30 2615 C 235.485 1.6119 0.228412 0
M  V30 2616 O 236.674 1.78497 0.0102931 0
M  V30 2617 C 233.774 3.38809 -0.0787313 0
M  V30 2618 C 232.947 4.23885 -1.0789 0
M  V30 2619 C 232.006 5.24334 -0.442713 0
M  V30 2620 O 231.032 5.58497 -1.09864 0
M  V30 2621 N 232.234 5.75079 0.791457 0
M  V30 2622 H 234.999 2.49825 -1.65552 0
M  V30 2623 H 232.56 1.26373 -1.012 0
M  V30 2624 H 234.552 4.03107 0.358766 0
M  V30 2625 H 233.122 3.03805 0.736275 0
M  V30 2626 H 232.342 3.55939 -1.69414 0
M  V30 2627 H 233.63 4.77562 -1.75533 0
M  V30 2628 H 233.028 5.49517 1.3434 0
M  V30 2629 H 231.585 6.4118 1.17183 0
M  V30 2630 N 235.018 0.912232 1.28515 0
M  V30 2631 C 235.966 0.389597 2.29314 0
M  V30 2632 C 236.96 -0.517915 1.61289 0
M  V30 2633 O 238.166 -0.399328 1.75515 0
M  V30 2634 H 234.541 0.107386 0.744293 0
M  V30 2635 H 236.512 1.25286 2.70825 0
M  V30 2636 C 235.261 -0.356496 3.45868 0
M  V30 2637 H 234.584 0.332608 3.98414 0
M  V30 2638 H 236.024 -0.686851 4.184 0
M  V30 2639 C 234.483 -1.56383 2.98406 0
M  V30 2640 O 235.013 -2.66294 3.00749 0
M  V30 2641 N 233.219 -1.41029 2.54085 0
M  V30 2642 H 232.766 -0.516089 2.52377 0
M  V30 2643 H 232.724 -2.21939 2.22689 0
M  V30 2644 N 236.496 -1.42363 0.676048 0
M  V30 2645 C 237.745 -2.00745 0.196037 0
M  V30 2646 C 238.058 -1.54083 -1.20489 0
M  V30 2647 O 239.264 -2.04891 -1.78134 0
M  V30 2648 C 237.72 -3.58651 0.299616 0
M  V30 2649 C 237.328 -4.143 1.70468 0
M  V30 2650 C 239.072 -4.24326 -0.121619 0
M  V30 2651 C 236.979 -5.64574 1.76096 0
M  V30 2652 H 235.909 -0.750787 0.0695301 0
M  V30 2653 H 238.56 -1.63072 0.841412 0
M  V30 2654 H 236.942 -3.93833 -0.413673 0
M  V30 2655 H 238.116 -3.90575 2.44515 0
M  V30 2656 H 236.431 -3.61081 2.07387 0
M  V30 2657 H 239.028 -5.34607 -0.0997362 0
M  V30 2658 H 239.371 -3.99897 -1.15708 0
M  V30 2659 H 239.904 -3.94108 0.540706 0
M  V30 2660 H 236.643 -5.93804 2.77628 0
M  V30 2661 H 236.163 -5.90286 1.06406 0
M  V30 2662 H 237.842 -6.29013 1.51496 0
M  V30 2663 N 237.974 -0.419461 -1.51915 0
M  V30 2664 C 239.251 0.211999 -1.94448 0
M  V30 2665 C 239.631 1.61703 -1.35703 0
M  V30 2666 O 238.979 2.22102 -0.536931 0
M  V30 2667 C 239.189 0.207872 -3.4838 0
M  V30 2668 C 240.537 0.422192 -4.22496 0
M  V30 2669 O 241.561 0.286778 -3.55044 0
M  V30 2670 O 240.42 0.690009 -5.42126 0
M  V30 2671 H 237.514 0.139586 -0.815135 0
M  V30 2672 H 240.06 -0.476151 -1.62883 0
M  V30 2673 H 238.832 -0.775102 -3.83546 0
M  V30 2674 H 238.455 0.939688 -3.86336 0
M  V30 2675 N 239.452 1.56882 -0.150215 0
M  V30 2676 C 240.868 1.58263 0.20617 0
M  V30 2677 C 241.068 1.16464 1.64434 0
M  V30 2678 O 240.124 0.866422 2.3717 0
M  V30 2679 C 241.437 3.00649 -0.0555025 0
M  V30 2680 C 242.985 3.12999 0.00795388 0
M  V30 2681 C 243.46 4.5744 -0.226429 0
M  V30 2682 N 244.951 4.62875 -0.173469 0
M  V30 2683 C 245.686 5.72454 -0.329288 0
M  V30 2684 N 245.182 6.90669 -0.543005 0
M  V30 2685 N 246.975 5.61467 -0.266666 0
M  V30 2686 H 239.126 1.82345 -1.08922 0
M  V30 2687 H 241.389 0.844149 -0.431413 0
M  V30 2688 H 241.095 3.3563 -1.05096 0
M  V30 2689 H 240.969 3.71337 0.66246 0
M  V30 2690 H 243.356 2.77857 0.993966 0
M  V30 2691 H 243.437 2.4479 -0.742388 0
M  V30 2692 H 243.081 4.93287 -1.20956 0
M  V30 2693 H 243.011 5.2378 0.544274 0
M  V30 2694 H 245.502 3.77898 -0.0130709 0
M  V30 2695 H 245.815 7.70045 -0.651922 0
M  V30 2696 H 244.16 6.92581 -0.579366 0
M  V30 2697 H 247.351 4.67992 -0.100441 0
M  V30 2698 H 247.524 6.46816 -0.391535 0
M  V30 2699 N 240.93 -0.123565 1.57115 0
M  V30 2700 C 242.179 -0.830704 1.83799 0
M  V30 2701 C 242.492 -1.81259 0.735158 0
M  V30 2702 O 243.698 -2.56558 0.888278 0
M  V30 2703 C 242.154 -1.52802 3.25852 0
M  V30 2704 C 241.762 -0.587356 4.44133 0
M  V30 2705 C 243.506 -2.22056 3.61789 0
M  V30 2706 C 241.413 -1.28764 5.77212 0
M  V30 2707 H 240.343 -0.313967 0.685522 0
M  V30 2708 H 242.994 -0.0834359 1.8331 0
M  V30 2709 H 241.376 -2.32175 3.20797 0
M  V30 2710 H 242.55 0.172829 4.60476 0
M  V30 2711 H 240.865 -0.00201892 4.164 0
M  V30 2712 H 243.462 -2.75131 4.58483 0
M  V30 2713 H 243.805 -2.99644 2.88997 0
M  V30 2714 H 244.338 -1.49576 3.68608 0
M  V30 2715 H 241.077 -0.55314 6.53162 0
M  V30 2716 H 240.597 -2.01995 5.64764 0
M  V30 2717 H 242.276 -1.8221 6.20813 0
M  V30 2718 N 242.408 -1.52605 -0.393616 0
M  V30 2719 C 243.638 -1.71046 -1.15874 0
M  V30 2720 C 244.046 -0.426483 -1.84331 0
M  V30 2721 O 243.389 0.608513 -1.73329 0
M  V30 2722 C 243.451 -2.80118 -2.25332 0
M  V30 2723 C 243.115 -4.21381 -1.76881 0
M  V30 2724 C 244.112 -5.04697 -1.24808 0
M  V30 2725 C 241.797 -4.67683 -1.83244 0
M  V30 2726 C 243.791 -6.32393 -0.797387 0
M  V30 2727 C 241.478 -5.95364 -1.37787 0
M  V30 2728 C 242.476 -6.77549 -0.861208 0
M  V30 2729 O 242.164 -8.02837 -0.413252 0
M  V30 2730 H 241.896 -0.576155 -0.353583 0
M  V30 2731 H 244.45 -2.00018 -0.467123 0
M  V30 2732 H 242.68 -2.46557 -2.97904 0
M  V30 2733 H 244.369 -2.87006 -2.87023 0
M  V30 2734 H 245.135 -4.70111 -1.19252 0
M  V30 2735 H 241.014 -4.03805 -2.22401 0
M  V30 2736 H 244.558 -6.9649 -0.393437 0
M  V30 2737 H 240.455 -6.29455 -1.43026 0
M  V30 2738 H 241.223 -8.16749 -0.53515 0
M  V30 2739 N 243.887 0.651787 -1.4349 0
M  V30 2740 C 244.834 1.76462 -1.4876 0
M  V30 2741 C 245.804 1.62641 -0.337189 0
M  V30 2742 O 246.989 1.82864 -0.544544 0
M  V30 2743 C 244.129 3.14623 -1.41796 0
M  V30 2744 C 243.242 3.39568 -2.67053 0
M  V30 2745 C 242.377 4.67585 -2.52068 0
M  V30 2746 C 241.416 4.85639 -3.72587 0
M  V30 2747 N 240.553 6.04915 -3.56402 0
M  V30 2748 H 245.393 1.71293 -2.43849 0
M  V30 2749 H 242.93 0.835889 -1.21043 0
M  V30 2750 H 244.888 3.94496 -1.35753 0
M  V30 2751 H 243.518 3.18859 -0.50288 0
M  V30 2752 H 242.57 2.53783 -2.8337 0
M  V30 2753 H 243.882 3.48795 -3.56572 0
M  V30 2754 H 243.036 5.55586 -2.4374 0
M  V30 2755 H 241.775 4.60681 -1.60075 0
M  V30 2756 H 240.78 3.96073 -3.81321 0
M  V30 2757 H 242.005 4.94372 -4.65589 0
M  V30 2758 H 239.951 5.9914 -2.67146 0
M  V30 2759 H 239.868 6.15106 -4.39524 0
M  V30 2760 H 241.136 6.95533 -3.51929 0
M  V30 2761 N 245.365 1.30045 0.890287 0
M  V30 2762 C 246.595 1.21296 1.67245 0
M  V30 2763 C 247.003 -0.227471 1.87828 0
M  V30 2764 O 246.346 -1.16296 1.422 0
M  V30 2765 C 246.408 1.86519 3.07329 0
M  V30 2766 C 246.072 3.35837 3.09939 0
M  V30 2767 C 247.069 4.31915 2.89389 0
M  V30 2768 C 244.754 3.77196 3.31706 0
M  V30 2769 C 246.748 5.67325 2.90552 0
M  V30 2770 C 244.435 5.12725 3.32499 0
M  V30 2771 C 245.433 6.076 3.11947 0
M  V30 2772 O 245.121 7.40655 3.12547 0
M  V30 2773 H 244.853 0.4211 0.528821 0
M  V30 2774 H 247.407 1.72111 1.12103 0
M  V30 2775 H 245.637 1.30228 3.64112 0
M  V30 2776 H 247.326 1.71963 3.67673 0
M  V30 2777 H 248.092 4.01294 2.72375 0
M  V30 2778 H 243.971 3.03796 3.4674 0
M  V30 2779 H 247.515 6.41354 2.74429 0
M  V30 2780 H 243.412 5.42988 3.49047 0
M  V30 2781 H 244.18 7.49577 3.28749 0
M  V30 2782 N 246.843 -1.10192 1.12674 0
M  V30 2783 C 247.806 -2.14786 0.799979 0
M  V30 2784 C 248.806 -1.59711 -0.18685 0
M  V30 2785 O 249.996 -1.74156 0.0392558 0
M  V30 2786 C 247.128 -3.40374 0.189228 0
M  V30 2787 H 248.321 -2.45203 1.72671 0
M  V30 2788 H 245.874 -1.25597 0.930326 0
M  V30 2789 H 246.609 -3.15577 -0.747107 0
M  V30 2790 H 246.394 -3.81637 0.899766 0
M  V30 2791 H 247.884 -4.17594 -0.0228143 0
M  V30 2792 N 248.321 -0.919034 -1.28029 0
M  V30 2793 C 249.568 -0.554934 -1.94748 0
M  V30 2794 C 249.896 0.90231 -1.72304 0
M  V30 2795 O 249.151 1.65767 -1.04018 0
M  V30 2796 C 249.45 -0.816855 -3.4794 0
M  V30 2797 C 249.116 -2.25448 -3.90492 0
M  V30 2798 C 247.778 -2.64752 -4.01821 0
M  V30 2799 C 250.13 -3.18977 -4.12193 0
M  V30 2800 C 247.458 -3.96727 -4.32232 0
M  V30 2801 C 249.81 -4.50523 -4.44086 0
M  V30 2802 C 248.474 -4.89673 -4.53626 0
M  V30 2803 H 247.744 -0.203065 -0.712633 0
M  V30 2804 H 250.391 -1.16136 -1.52265 0
M  V30 2805 H 248.696 -0.127677 -3.91592 0
M  V30 2806 H 250.393 -0.514238 -3.97689 0
M  V30 2807 H 246.983 -1.93952 -3.82205 0
M  V30 2808 H 251.167 -2.89817 -4.02889 0
M  V30 2809 H 246.423 -4.26754 -4.37825 0
M  V30 2810 H 250.597 -5.23005 -4.59825 0
M  V30 2811 H 248.224 -5.91969 -4.76946 0
M  V30 2812 N 249.799 1.42003 -0.683588 0
M  V30 2813 C 251.21 1.84501 -0.285736 0
M  V30 2814 C 251.561 1.57213 1.17382 0
M  V30 2815 O 250.686 1.03642 1.89966 0
M  V30 2816 C 251.281 3.34912 -0.511821 0
M  V30 2817 C 249.84 3.76025 -0.168005 0
M  V30 2818 C 248.987 2.6551 -0.799983 0
M  V30 2819 H 251.938 1.31724 -0.885119 0
M  V30 2820 H 251.959 3.79784 0.233292 0
M  V30 2821 H 251.471 3.54741 -1.57418 0
M  V30 2822 H 249.572 3.61801 0.890567 0
M  V30 2823 H 249.685 4.75141 -0.614661 0
M  V30 2824 H 248.049 2.53654 -0.230568 0
M  V30 2825 H 248.832 2.8816 -1.86597 0
M  V30 2826 N 251.277 0.427512 1.51691 0
M  V30 2827 C 252.502 -0.143601 2.06902 0
M  V30 2828 C 252.927 -1.36536 1.29382 0
M  V30 2829 O 252.285 -1.78289 0.329043 0
M  V30 2830 C 252.333 -0.454207 3.57728 0
M  V30 2831 O 251.437 -1.54228 3.82475 0
M  V30 2832 H 250.778 -0.00617128 0.663971 0
M  V30 2833 H 253.308 0.606014 1.95419 0
M  V30 2834 H 253.318 -0.707525 4.01818 0
M  V30 2835 H 251.993 0.438812 4.13579 0
M  V30 2836 H 250.57 -1.2797 3.50254 0
M  V30 2837 N 252.755 -1.56801 0.158532 0
M  V30 2838 C 253.685 -2.20347 -0.772609 0
M  V30 2839 C 254.666 -1.15518 -1.24859 0
M  V30 2840 O 255.851 -1.43902 -1.30406 0
M  V30 2841 C 252.981 -2.83417 -2.00729 0
M  V30 2842 C 251.935 -3.94174 -1.66765 0
M  V30 2843 C 251.261 -4.44233 -2.97592 0
M  V30 2844 C 252.561 -5.14392 -0.905447 0
M  V30 2845 H 254.255 -2.98413 -0.242959 0
M  V30 2846 H 251.801 -1.43537 -0.115419 0
M  V30 2847 H 253.754 -3.26543 -2.6636 0
M  V30 2848 H 252.478 -2.02701 -2.56086 0
M  V30 2849 H 251.137 -3.51684 -1.03508 0
M  V30 2850 H 250.785 -3.60325 -3.50963 0
M  V30 2851 H 250.485 -5.18945 -2.75626 0
M  V30 2852 H 252.009 -4.90037 -3.64274 0
M  V30 2853 H 253.423 -5.5429 -1.46408 0
M  V30 2854 H 251.82 -5.9494 -0.7853 0
M  V30 2855 H 252.89 -4.84795 0.100668 0
M  V30 2856 N 254.233 0.115231 -1.57178 0
M  V30 2857 C 255.196 1.12526 -1.99676 0
M  V30 2858 C 256.196 1.34095 -0.88742 0
M  V30 2859 O 257.386 1.30548 -1.15337 0
M  V30 2860 C 254.518 2.4789 -2.34015 0
M  V30 2861 H 255.711 0.759912 -2.90113 0
M  V30 2862 H 253.264 0.359648 -1.52106 0
M  V30 2863 H 253.999 2.89339 -1.4647 0
M  V30 2864 H 253.784 2.33588 -3.14927 0
M  V30 2865 H 255.274 3.20575 -2.67622 0
M  V30 2866 N 255.711 1.52812 0.385517 0
M  V30 2867 C 256.957 1.68275 1.13188 0
M  V30 2868 C 257.29 0.423179 1.89533 0
M  V30 2869 O 256.565 -0.579113 1.85679 0
M  V30 2870 C 256.848 2.92001 2.1073 0
M  V30 2871 C 256.701 4.28067 1.38125 0
M  V30 2872 C 258.02 3.11283 3.11113 0
M  V30 2873 H 255.139 0.612352 0.410115 0
M  V30 2874 H 257.781 1.85415 0.414869 0
M  V30 2875 H 255.931 2.77519 2.71874 0
M  V30 2876 H 257.603 4.54324 0.799187 0
M  V30 2877 H 255.846 4.28388 0.683092 0
M  V30 2878 H 256.517 5.10733 2.09417 0
M  V30 2879 H 258.993 3.2482 2.6006 0
M  V30 2880 H 257.869 3.99325 3.76605 0
M  V30 2881 H 258.13 2.25656 3.80173 0
M  V30 2882 N 257.189 -0.644168 1.43834 0
M  V30 2883 C 258.119 -1.76814 1.52509 0
M  V30 2884 C 259.1 -1.65823 0.379052 0
M  V30 2885 O 260.285 -1.84781 0.597466 0
M  V30 2886 C 257.415 -3.15288 1.4564 0
M  V30 2887 C 256.369 -3.41053 2.58586 0
M  V30 2888 C 255.695 -4.79421 2.36769 0
M  V30 2889 C 256.995 -3.34902 4.00797 0
M  V30 2890 H 258.689 -1.69812 2.46586 0
M  V30 2891 H 256.235 -0.815542 1.1868 0
M  V30 2892 H 258.188 -3.93681 1.50311 0
M  V30 2893 H 256.912 -3.23043 0.480725 0
M  V30 2894 H 255.571 -2.65035 2.53282 0
M  V30 2895 H 255.219 -4.83863 1.37424 0
M  V30 2896 H 254.919 -4.9762 3.12487 0
M  V30 2897 H 256.443 -5.6006 2.43238 0
M  V30 2898 H 257.857 -4.03218 4.07539 0
M  V30 2899 H 256.254 -3.64637 4.76613 0
M  V30 2900 H 257.324 -2.32928 4.25291 0
M  V30 2901 N 258.668 -1.30515 -0.883378 0
M  V30 2902 C 259.914 -1.19607 -1.63774 0
M  V30 2903 C 260.247 0.248314 -1.92606 0
M  V30 2904 O 259.522 1.17742 -1.54813 0
M  V30 2905 C 259.805 -2.02669 -2.97653 0
M  V30 2906 C 259.658 -3.55335 -2.75784 0
M  V30 2907 C 260.977 -1.86573 -3.98596 0
M  V30 2908 H 258.096 -0.435856 -0.594305 0
M  V30 2909 H 260.738 -1.60165 -1.02212 0
M  V30 2910 H 258.888 -1.68208 -3.50197 0
M  V30 2911 H 260.56 -3.99863 -2.30016 0
M  V30 2912 H 258.803 -3.79438 -2.1026 0
M  V30 2913 H 259.474 -4.08745 -3.70988 0
M  V30 2914 H 261.95 -2.16703 -3.55217 0
M  V30 2915 H 260.826 -2.47014 -4.90179 0
M  V30 2916 H 261.087 -0.825321 -4.34328 0
M  V30 2917 N 260.146 1.09593 -1.13257 0
M  V30 2918 C 261.371 1.8604 -0.916732 0
M  V30 2919 C 261.796 1.80504 0.529146 0
M  V30 2920 O 261.154 1.18127 1.37534 0
M  V30 2921 C 261.202 3.32017 -1.40703 0
M  V30 2922 O 260.306 4.08141 -0.591153 0
M  V30 2923 H 259.647 0.576943 -0.328683 0
M  V30 2924 H 262.177 1.38405 -1.50682 0
M  V30 2925 H 262.187 3.82865 -1.4099 0
M  V30 2926 H 260.862 3.35361 -2.45979 0
M  V30 2927 H 259.439 3.67084 -0.656005 0
M  V30 2928 N 261.624 0.925811 1.2754 0
M  V30 2929 C 262.87 0.566092 1.94739 0
M  V30 2930 C 263.203 -0.890057 1.72603 0
M  V30 2931 O 262.478 -1.63467 1.05399 0
M  V30 2932 C 262.761 0.89054 3.48915 0
M  V30 2933 C 262.614 2.4003 3.80402 0
M  V30 2934 C 263.933 0.395101 4.38323 0
M  V30 2935 H 261.052 0.20714 0.707292 0
M  V30 2936 H 263.694 1.15725 1.50691 0
M  V30 2937 H 261.844 0.387452 3.86563 0
M  V30 2938 H 263.516 2.97494 3.52555 0
M  V30 2939 H 261.759 2.85028 3.2702 0
M  V30 2940 H 262.43 2.57785 4.8811 0
M  V30 2941 H 264.906 0.826241 4.07814 0
M  V30 2942 H 263.782 0.651086 5.45025 0
M  V30 2943 H 264.043 -0.704798 4.36446 0
M  V30 2944 N 263.102 -1.41638 0.69111 0
M  V30 2945 C 264.327 -2.06148 0.227583 0
M  V30 2946 C 264.752 -1.51652 -1.11281 0
M  V30 2947 O 264.11 -0.64164 -1.69566 0
M  V30 2948 C 264.158 -3.60095 0.190858 0
M  V30 2949 O 263.262 -4.03845 -0.835664 0
M  V30 2950 H 262.603 -0.654434 0.112306 0
M  V30 2951 H 265.133 -1.81484 0.944714 0
M  V30 2952 H 265.143 -4.07995 0.020207 0
M  V30 2953 H 263.818 -3.99129 1.16915 0
M  V30 2954 H 262.395 -3.67458 -0.63473 0
M  V30 2955 N 264.58 -0.43555 -1.51462 0
M  V30 2956 C 265.827 0.131514 -2.02072 0
M  V30 2957 C 266.155 1.42868 -1.31981 0
M  V30 2958 O 265.41 1.91076 -0.422883 0
M  V30 2959 C 265.709 0.39942 -3.55161 0
M  V30 2960 C 265.375 -0.81172 -4.43533 0
M  V30 2961 C 264.037 -1.14387 -4.67407 0
M  V30 2962 C 266.389 -1.61976 -4.95392 0
M  V30 2963 C 263.717 -2.28477 -5.40384 0
M  V30 2964 C 266.069 -2.75164 -5.6962 0
M  V30 2965 C 264.733 -3.08835 -5.91758 0
M  V30 2966 H 264.003 0.0481244 -0.739436 0
M  V30 2967 H 266.65 -0.58238 -1.8243 0
M  V30 2968 H 264.955 1.19519 -3.73125 0
M  V30 2969 H 266.652 0.85157 -3.91854 0
M  V30 2970 H 263.242 -0.542898 -4.25148 0
M  V30 2971 H 267.426 -1.37637 -4.76833 0
M  V30 2972 H 262.682 -2.5488 -5.55739 0
M  V30 2973 H 266.856 -3.38147 -6.08793 0
M  V30 2974 H 264.483 -3.97353 -6.48086 0
M  V30 2975 N 266.058 1.56714 -0.166846 0
M  V30 2976 C 266.988 2.20754 0.760913 0
M  V30 2977 C 267.969 1.16178 1.24244 0
M  V30 2978 O 269.154 1.44592 1.29641 0
M  V30 2979 C 266.284 2.84478 1.99223 0
M  V30 2980 C 265.238 3.95053 1.64672 0
M  V30 2981 C 264.564 4.45805 2.95232 0
M  V30 2982 C 265.864 5.14865 0.878155 0
M  V30 2983 H 267.558 2.98537 0.22713 0
M  V30 2984 H 265.104 1.43596 0.107805 0
M  V30 2985 H 267.057 3.27951 2.64624 0
M  V30 2986 H 265.781 2.04056 2.55007 0
M  V30 2987 H 264.44 3.52228 1.01641 0
M  V30 2988 H 264.088 3.62181 3.49047 0
M  V30 2989 H 263.788 5.204 2.7287 0
M  V30 2990 H 265.312 4.91962 3.6167 0
M  V30 2991 H 266.726 5.55059 1.43466 0
M  V30 2992 H 265.123 5.95348 0.753738 0
M  V30 2993 H 266.193 4.84735 -0.126377 0
M  V30 2994 N 267.536 -0.106894 1.57237 0
M  V30 2995 C 268.764 -0.826389 1.8968 0
M  V30 2996 C 269.179 -1.72856 0.759353 0
M  V30 2997 O 268.536 -1.80503 -0.269263 0
M  V30 2998 C 268.587 -1.64967 3.21665 0
M  V30 2999 O 268.308 -0.783804 4.31031 0
M  V30 3000 C 269.809 -2.47326 3.67892 0
M  V30 3001 H 267.029 -0.236927 0.627779 0
M  V30 3002 H 269.573 -0.0876593 2.04312 0
M  V30 3003 H 267.728 -2.34103 3.08666 0
M  V30 3004 H 268.142 -1.35284 5.06753 0
M  V30 3005 H 269.616 -3.00604 4.6297 0
M  V30 3006 H 270.093 -3.25247 2.95146 0
M  V30 3007 H 270.699 -1.83411 3.83719 0
M  V30 3008 N 269.014 -1.53014 -0.377408 0
M  V30 3009 C 270.262 -1.6829 -1.11906 0
M  V30 3010 C 270.583 -0.431206 -1.90173 0
M  V30 3011 O 269.853 0.554595 -1.87886 0
M  V30 3012 H 268.433 -0.620371 -0.416112 0
M  V30 3013 H 271.095 -1.90167 -0.426893 0
M  V30 3014 H 270.191 -2.53862 -1.8155 0
M  V30 3015 N 270.492 0.636531 -1.44174 0
M  V30 3016 C 271.717 1.42847 -1.50364 0
M  V30 3017 C 272.142 1.87665 -0.127867 0
M  V30 3018 O 271.5 1.58408 0.88185 0
M  V30 3019 C 271.548 2.62854 -2.4686 0
M  V30 3020 O 270.652 3.62501 -1.9664 0
M  V30 3021 H 269.993 0.427642 -0.507955 0
M  V30 3022 H 272.523 0.777422 -1.89255 0
M  V30 3023 H 272.533 3.10465 -2.64718 0
M  V30 3024 H 271.208 2.29578 -3.46795 0
M  V30 3025 H 269.785 3.21735 -1.88523 0
M  V30 3026 N 271.97 1.30982 0.876444 0
M  V30 3027 C 273.219 1.19658 1.62373 0
M  V30 3028 C 273.532 -0.245636 1.94052 0
M  V30 3029 O 274.738 -0.48049 2.67214 0
M  V30 3030 C 273.194 2.09433 2.92687 0
M  V30 3031 C 272.802 3.58613 2.68516 0
M  V30 3032 C 274.546 2.06893 3.70669 0
M  V30 3033 C 272.453 4.40416 3.94699 0
M  V30 3034 H 271.383 0.444268 0.609214 0
M  V30 3035 H 274.034 1.55791 0.969605 0
M  V30 3036 H 272.416 1.66191 3.59439 0
M  V30 3037 H 273.59 4.10058 2.10212 0
M  V30 3038 H 271.905 3.63063 2.03898 0
M  V30 3039 H 274.502 2.65258 4.64265 0
M  V30 3040 H 274.845 1.05448 4.02724 0
M  V30 3041 H 275.378 2.48301 3.10792 0
M  V30 3042 H 272.117 5.42591 3.67798 0
M  V30 3043 H 271.637 3.93731 4.52477 0
M  V30 3044 H 273.316 4.52294 4.62644 0
M  V30 3045 N 273.449 -1.08991 1.13837 0
M  V30 3046 C 274.696 -1.81258 0.902882 0
M  V30 3047 C 275.024 -1.85936 -0.570803 0
M  V30 3048 O 274.279 -1.3267 -1.43865 0
M  V30 3049 C 274.578 -3.27042 1.44147 0
M  V30 3050 C 274.244 -3.4249 2.93276 0
M  V30 3051 C 272.906 -3.46414 3.33992 0
M  V30 3052 C 275.258 -3.4666 3.892 0
M  V30 3053 C 272.586 -3.52091 4.69307 0
M  V30 3054 C 274.938 -3.53872 5.24364 0
M  V30 3055 C 273.602 -3.56066 5.646 0
M  V30 3056 H 272.872 -0.663268 0.330388 0
M  V30 3057 H 275.519 -1.28368 1.42105 0
M  V30 3058 H 273.824 -3.82599 0.844097 0
M  V30 3059 H 275.521 -3.81499 1.23528 0
M  V30 3060 H 272.111 -3.40124 2.60794 0
M  V30 3061 H 276.295 -3.42865 3.58828 0
M  V30 3062 H 271.551 -3.52079 4.9985 0
M  V30 3063 H 275.725 -3.56043 5.98503 0
M  V30 3064 H 273.352 -3.60218 6.69438 0
M  V30 3065 N 274.927 -0.932562 -1.27047 0
M  V30 3066 C 276.152 -0.591474 -1.98787 0
M  V30 3067 C 276.577 0.824601 -1.69062 0
M  V30 3068 O 275.935 1.5541 -0.933677 0
M  V30 3069 C 275.983 -0.829808 -3.50922 0
M  V30 3070 O 275.087 0.102266 -4.12273 0
M  V30 3071 H 274.428 -0.227185 -0.623926 0
M  V30 3072 H 276.958 -1.25314 -1.61733 0
M  V30 3073 H 276.968 -0.747292 -4.01098 0
M  V30 3074 H 275.643 -1.86201 -3.7189 0
M  V30 3075 H 274.22 -0.0305761 -3.72887 0
M  V30 3076 N 276.405 1.4127 -0.698611 0
M  V30 3077 C 277.335 2.33447 -0.049629 0
M  V30 3078 C 278.316 1.51982 0.763898 0
M  V30 3079 O 279.501 1.80509 0.716257 0
M  V30 3080 C 276.631 3.35828 0.885267 0
M  V30 3081 C 275.585 4.27627 0.178613 0
M  V30 3082 C 274.911 5.20406 1.22807 0
M  V30 3083 C 276.211 5.13459 -0.956933 0
M  V30 3084 H 277.905 2.87966 -0.81951 0
M  V30 3085 H 275.451 1.38461 -0.395538 0
M  V30 3086 H 277.404 3.9924 1.34854 0
M  V30 3087 H 276.128 2.79666 1.68685 0
M  V30 3088 H 274.787 3.65643 -0.26466 0
M  V30 3089 H 274.435 4.60558 2.02226 0
M  V30 3090 H 274.135 5.82661 0.760239 0
M  V30 3091 H 275.659 5.86695 1.69179 0
M  V30 3092 H 277.073 5.70421 -0.573805 0
M  V30 3093 H 275.47 5.8467 -1.35205 0
M  V30 3094 H 276.54 4.50443 -1.79524 0
M  V30 3095 N 277.883 0.443576 1.51229 0
M  V30 3096 C 279.132 -0.122332 2.01329 0
M  V30 3097 C 279.445 -1.43237 1.33201 0
M  V30 3098 O 280.651 -2.0816 1.74304 0
M  V30 3099 C 279.107 -0.268551 3.58897 0
M  V30 3100 C 278.715 1.03142 4.35965 0
M  V30 3101 C 280.459 -0.787894 4.17124 0
M  V30 3102 C 278.366 0.850504 5.85252 0
M  V30 3103 H 277.296 -0.0494929 0.752374 0
M  V30 3104 H 279.947 0.574289 1.74282 0
M  V30 3105 H 278.329 -1.02832 3.82415 0
M  V30 3106 H 279.503 1.80001 4.24189 0
M  V30 3107 H 277.818 1.47977 3.89219 0
M  V30 3108 H 280.415 -0.939841 5.26375 0
M  V30 3109 H 280.758 -1.77201 3.76703 0
M  V30 3110 H 281.291 -0.0862669 3.97706 0
M  V30 3111 H 278.03 1.80718 6.30096 0
M  V30 3112 H 277.55 0.121825 5.99676 0
M  V30 3113 H 279.229 0.506163 6.45017 0
M  V30 3114 N 279.361 -1.56624 0.175154 0
M  V30 3115 C 280.291 -2.21155 -0.749195 0
M  V30 3116 C 281.272 -1.16836 -1.23626 0
M  V30 3117 O 282.457 -1.45277 -1.28873 0
M  V30 3118 C 279.587 -2.8553 -1.97711 0
M  V30 3119 C 278.541 -3.95921 -1.62575 0
M  V30 3120 C 277.867 -4.47365 -2.92864 0
M  V30 3121 C 279.167 -5.15323 -0.850838 0
M  V30 3122 H 280.861 -2.98653 -0.211295 0
M  V30 3123 H 278.407 -1.43651 -0.100188 0
M  V30 3124 H 280.36 -3.2935 -2.62881 0
M  V30 3125 H 279.084 -2.05406 -2.53921 0
M  V30 3126 H 277.743 -3.52762 -0.997719 0
M  V30 3127 H 277.391 -3.64027 -3.47122 0
M  V30 3128 H 277.091 -5.21839 -2.70106 0
M  V30 3129 H 278.615 -4.93873 -3.59056 0
M  V30 3130 H 280.029 -5.55812 -1.40521 0
M  V30 3131 H 278.426 -5.95739 -0.722154 0
M  V30 3132 H 279.496 -4.84661 0.152082 0
M  V30 3133 N 280.839 0.0985539 -1.57292 0
M  V30 3134 C 281.769 1.12064 -2.04851 0
M  V30 3135 C 282.75 1.41981 -0.936767 0
M  V30 3136 O 283.935 1.52071 -1.20781 0
M  V30 3137 C 281.065 2.44144 -2.47004 0
M  V30 3138 C 280.019 2.28643 -3.6181 0
M  V30 3139 C 279.345 3.65869 -3.89929 0
M  V30 3140 C 280.645 1.72986 -4.92822 0
M  V30 3141 H 282.339 0.724979 -2.9049 0
M  V30 3142 H 279.885 0.34729 -1.39749 0
M  V30 3143 H 281.838 3.15914 -2.78884 0
M  V30 3144 H 280.562 2.85639 -1.5836 0
M  V30 3145 H 279.221 1.59318 -3.30172 0
M  V30 3146 H 278.869 4.04885 -2.98458 0
M  V30 3147 H 278.569 3.56344 -4.67218 0
M  V30 3148 H 280.093 4.39112 -4.2428 0
M  V30 3149 H 281.507 2.34593 -5.23105 0
M  V30 3150 H 279.904 1.74229 -5.74251 0
M  V30 3151 H 280.974 0.689007 -4.7998 0
M  V30 3152 N 282.317 1.53212 0.369288 0
M  V30 3153 C 283.264 1.79388 1.45219 0
M  V30 3154 C 284.234 0.638059 1.53356 0
M  V30 3155 O 285.419 0.879852 1.69302 0
M  V30 3156 C 282.559 1.98623 2.82211 0
M  V30 3157 C 281.672 3.26337 2.8307 0
M  V30 3158 C 280.807 3.35779 4.11614 0
M  V30 3159 C 279.846 4.5754 4.06601 0
M  V30 3160 N 278.983 4.64155 5.26787 0
M  V30 3161 H 283.823 2.71794 1.22198 0
M  V30 3162 H 281.36 1.34642 0.592444 0
M  V30 3163 H 283.318 2.07761 3.61789 0
M  V30 3164 H 281.948 1.09558 3.03639 0
M  V30 3165 H 281 3.26171 1.95747 0
M  V30 3166 H 282.312 4.15988 2.75237 0
M  V30 3167 H 281.466 3.44208 4.99606 0
M  V30 3168 H 280.205 2.44137 4.22195 0
M  V30 3169 H 279.21 4.49215 3.16996 0
M  V30 3170 H 280.435 5.50519 3.97625 0
M  V30 3171 H 278.381 3.75413 5.3796 0
M  V30 3172 H 278.298 5.47706 5.21109 0
M  V30 3173 H 279.566 4.76863 6.16621 0
M  V30 3174 N 283.795 -0.628877 1.44509 0
M  V30 3175 C 285.035 -1.39993 1.48934 0
M  V30 3176 C 285.399 -1.91627 0.119604 0
M  V30 3177 O 286.6 -2.68772 0.0385283 0
M  V30 3178 C 284.871 -2.53241 2.52198 0
M  V30 3179 S 286.43 -3.41383 2.75687 0
M  V30 3180 H 283.248 -0.477558 0.526744 0
M  V30 3181 H 285.85 -0.727804 1.81448 0
M  V30 3182 H 284.554 -2.13622 3.50419 0
M  V30 3183 H 284.085 -3.25278 2.21264 0
M  V30 3184 H 286.1 -4.50752 2.07453 0
M  V30 3185 N 285.273 -1.31445 -0.869486 0
M  V30 3186 C 286.513 -1.22458 -1.63656 0
M  V30 3187 C 286.877 0.213846 -1.90805 0
M  V30 3188 O 288.078 0.427212 -2.65383 0
M  V30 3189 C 286.349 -2.04564 -2.93067 0
M  V30 3190 S 287.908 -2.12445 -3.83944 0
M  V30 3191 H 284.726 -0.436145 -0.561514 0
M  V30 3192 H 287.328 -1.66114 -1.03085 0
M  V30 3193 H 286.032 -3.0816 -2.71045 0
M  V30 3194 H 285.563 -1.6163 -3.58663 0
M  V30 3195 H 287.578 -1.26312 -4.79854 0
M  V30 3196 N 286.751 1.08385 -1.14413 0
M  V30 3197 C 287.991 1.8238 -0.922868 0
M  V30 3198 C 288.355 1.84225 0.540842 0
M  V30 3199 O 289.556 2.53985 0.880058 0
M  V30 3200 C 287.827 3.24048 -1.50757 0
M  V30 3201 S 289.386 4.14917 -1.4279 0
M  V30 3202 H 286.204 0.628524 -0.332384 0
M  V30 3203 H 288.806 1.30278 -1.45766 0
M  V30 3204 H 287.51 3.20288 -2.56601 0
M  V30 3205 H 287.041 3.81224 -0.971178 0
M  V30 3206 H 289.056 4.94473 -0.413582 0
M  V30 3207 N 288.23 0.939286 1.26551 0
M  V30 3208 C 289.163 0.391702 2.24813 0
M  V30 3209 C 290.141 -0.518421 1.54114 0
M  V30 3210 O 291.325 -0.456299 1.82894 0
M  V30 3211 C 288.452 -0.437382 3.35864 0
M  V30 3212 C 287.498 0.410946 4.24516 0
M  V30 3213 S 288.331 1.83372 5.03125 0
M  V30 3214 C 289.487 1.01264 6.17654 0
M  V30 3215 H 289.72 1.22448 2.70913 0
M  V30 3216 H 287.253 0.742269 1.35387 0
M  V30 3217 H 289.211 -0.909837 4.0029 0
M  V30 3218 H 287.872 -1.24482 2.8838 0
M  V30 3219 H 287.065 -0.224191 5.03501 0
M  V30 3220 H 286.667 0.818014 3.64945 0
M  V30 3221 H 288.959 0.254023 6.77024 0
M  V30 3222 H 289.902 1.77589 6.85469 0
M  V30 3223 H 290.31 0.549532 5.61819 0
M  V30 3224 N 289.708 -1.40897 0.706093 0
M  V30 3225 C 290.655 -2.30751 0.0474474 0
M  V30 3226 C 291.625 -1.47678 -0.76029 0
M  V30 3227 O 292.81 -1.76441 -0.726177 0
M  V30 3228 C 289.95 -3.33815 -0.875309 0
M  V30 3229 C 289.063 -4.31961 -0.0580623 0
M  V30 3230 C 288.198 -5.22093 -0.979425 0
M  V30 3231 C 287.237 -6.11902 -0.155706 0
M  V30 3232 N 286.374 -6.94482 -1.03144 0
M  V30 3233 H 291.214 -2.86513 0.819413 0
M  V30 3234 H 288.751 -1.41102 0.415783 0
M  V30 3235 H 290.709 -3.92129 -1.42446 0
M  V30 3236 H 289.339 -2.79579 -1.61356 0
M  V30 3237 H 288.391 -3.75507 0.608147 0
M  V30 3238 H 289.703 -4.95415 0.580082 0
M  V30 3239 H 288.857 -5.85292 -1.59744 0
M  V30 3240 H 287.596 -4.5889 -1.65141 0
M  V30 3241 H 286.601 -5.47742 0.475309 0
M  V30 3242 H 287.826 -6.77162 0.512635 0
M  V30 3243 H 285.772 -6.33877 -1.68924 0
M  V30 3244 H 285.689 -7.54665 -0.449108 0
M  V30 3245 H 286.957 -7.6214 -1.63593 0
M  V30 3246 N 291.186 -0.45159 -1.50991 0
M  V30 3247 C 292.411 0.110667 -2.07105 0
M  V30 3248 C 292.836 1.3446 -1.31538 0
M  V30 3249 O 292.194 1.77743 -0.357365 0
M  V30 3250 C 292.242 0.397238 -3.58405 0
M  V30 3251 O 291.346 1.48124 -3.84881 0
M  V30 3252 H 290.687 -0.00439271 -0.663985 0
M  V30 3253 H 293.217 -0.637026 -1.9443 0
M  V30 3254 H 293.227 0.64351 -4.02893 0
M  V30 3255 H 291.902 -0.504553 -4.12828 0
M  V30 3256 H 290.479 1.22381 -3.52246 0
M  V30 3257 N 292.664 1.56529 -0.183458 0
M  V30 3258 C 293.912 1.96855 0.457452 0
M  V30 3259 C 294.233 1.07104 1.62953 0
M  V30 3260 O 293.503 0.139887 1.954 0
M  V30 3261 H 292.083 0.72693 0.171992 0
M  V30 3262 H 294.745 1.93056 -0.267476 0
M  V30 3263 H 293.841 3.01423 0.809368 0
M  V30 3264 N 294.142 -0.090211 1.57342 0
M  V30 3265 C 295.105 -1.09335 2.01441 0
M  V30 3266 C 296.105 -1.32666 0.908641 0
M  V30 3267 O 297.295 -1.28697 1.174 0
M  V30 3268 C 294.427 -2.44136 2.3793 0
M  V30 3269 H 295.62 -0.713662 2.91285 0
M  V30 3270 H 293.173 -0.335404 1.52659 0
M  V30 3271 H 293.908 -2.86972 1.51055 0
M  V30 3272 H 293.693 -2.28548 3.18603 0
M  V30 3273 H 295.183 -3.16277 2.72688 0
M  V30 3274 N 295.62 -1.53406 -0.361157 0
M  V30 3275 C 296.845 -1.74024 -1.12829 0
M  V30 3276 C 297.27 -0.470069 -1.82132 0
M  V30 3277 O 296.628 0.57619 -1.719 0
M  V30 3278 C 296.676 -2.90903 -2.13091 0
M  V30 3279 O 295.78 -2.59821 -3.20261 0
M  V30 3280 H 295.121 -0.577804 -0.327168 0
M  V30 3281 H 297.651 -2.00307 -0.41693 0
M  V30 3282 H 297.661 -3.17194 -2.56616 0
M  V30 3283 H 296.336 -3.83034 -1.62042 0
M  V30 3284 H 294.913 -2.44362 -2.81677 0
M  V30 3285 N 297.098 0.621204 -1.44841 0
M  V30 3286 C 298.045 1.73267 -1.5247 0
M  V30 3287 C 299.015 1.6189 -0.371611 0
M  V30 3288 O 300.2 1.81668 -0.58321 0
M  V30 3289 C 297.34 3.11545 -1.48438 0
M  V30 3290 C 296.453 3.33827 -2.74196 0
M  V30 3291 C 295.588 4.62133 -2.61929 0
M  V30 3292 C 294.627 4.77627 -3.82804 0
M  V30 3293 N 293.764 5.97219 -3.69153 0
M  V30 3294 H 298.604 1.66082 -2.47428 0
M  V30 3295 H 296.141 0.810026 -1.22788 0
M  V30 3296 H 298.099 3.91528 -1.4409 0
M  V30 3297 H 296.729 3.1772 -0.570402 0
M  V30 3298 H 295.781 2.47715 -2.88689 0
M  V30 3299 H 297.093 3.41153 -3.6389 0
M  V30 3300 H 296.247 5.50291 -2.5547 0
M  V30 3301 H 294.986 4.57182 -1.69811 0
M  V30 3302 H 293.991 3.87896 -3.89637 0
M  V30 3303 H 295.216 4.84385 -4.75971 0
M  V30 3304 H 293.162 5.93339 -2.79794 0
M  V30 3305 H 293.079 6.05644 -4.52472 0
M  V30 3306 H 294.347 6.87912 -3.66603 0
M  V30 3307 N 298.576 1.31904 0.862503 0
M  V30 3308 C 299.822 1.22197 1.61851 0
M  V30 3309 C 300.155 -0.217641 1.92977 0
M  V30 3310 O 299.43 -1.15264 1.56666 0
M  V30 3311 C 299.713 2.07378 2.94391 0
M  V30 3312 C 299.566 3.59678 2.70096 0
M  V30 3313 C 300.885 1.92891 3.95577 0
M  V30 3314 H 298.004 0.445255 0.587296 0
M  V30 3315 H 300.646 1.6177 0.99651 0
M  V30 3316 H 298.796 1.73758 3.47477 0
M  V30 3317 H 300.468 4.03472 2.23625 0
M  V30 3318 H 298.711 3.82735 2.04197 0
M  V30 3319 H 299.382 4.14595 3.64438 0
M  V30 3320 H 301.858 2.22327 3.51724 0
M  V30 3321 H 300.734 2.54781 4.86187 0
M  V30 3322 H 300.995 0.894315 4.3296 0
M  V30 3323 N 300.054 -1.07777 1.14986 0
M  V30 3324 C 301.017 -2.13041 0.845358 0
M  V30 3325 C 302.017 -1.60071 -0.152931 0
M  V30 3326 O 303.207 -1.74033 0.0761879 0
M  V30 3327 C 300.339 -3.39896 0.261383 0
M  V30 3328 H 301.532 -2.41485 1.77834 0
M  V30 3329 H 299.085 -1.23595 0.956757 0
M  V30 3330 H 299.82 -3.17091 -0.68 0
M  V30 3331 H 299.605 -3.79642 0.980514 0
M  V30 3332 H 301.095 -4.17548 0.0657687 0
M  V30 3333 N 301.532 -0.945985 -1.26051 0
M  V30 3334 C 302.479 -0.45809 -2.26208 0
M  V30 3335 C 303.449 0.484816 -1.58867 0
M  V30 3336 O 304.634 0.399969 -1.86561 0
M  V30 3337 C 301.774 0.266131 -3.44072 0
M  V30 3338 C 300.887 -0.713005 -4.26075 0
M  V30 3339 C 300.022 0.0329013 -5.3119 0
M  V30 3340 C 299.061 -0.93774 -6.04874 0
M  V30 3341 N 298.198 -0.223274 -7.01745 0
M  V30 3342 H 303.038 -1.3171 -2.67313 0
M  V30 3343 H 300.575 -0.66069 -1.31428 0
M  V30 3344 H 302.533 0.702514 -4.11243 0
M  V30 3345 H 301.163 1.08925 -3.03867 0
M  V30 3346 H 300.215 -1.26789 -3.58648 0
M  V30 3347 H 301.527 -1.45406 -4.77136 0
M  V30 3348 H 300.681 0.528335 -6.04395 0
M  V30 3349 H 299.42 0.806801 -4.8098 0
M  V30 3350 H 298.425 -1.44425 -5.30492 0
M  V30 3351 H 299.65 -1.71172 -6.57173 0
M  V30 3352 H 297.596 0.532046 -6.53839 0
M  V30 3353 H 297.513 -0.90357 -7.50581 0
M  V30 3354 H 298.781 0.250907 -7.79096 0
M  V30 3355 N 303.011 1.40521 -0.713556 0
M  V30 3356 C 303.958 2.30723 -0.059684 0
M  V30 3357 C 304.928 1.48079 0.752448 0
M  V30 3358 O 306.113 1.76823 0.71681 0
M  V30 3359 C 303.253 3.34274 0.857594 0
M  V30 3360 C 302.366 4.31986 0.0351536 0
M  V30 3361 C 301.501 5.22605 0.951724 0
M  V30 3362 C 300.54 6.11976 0.123253 0
M  V30 3363 N 299.677 6.9502 0.99459 0
M  V30 3364 H 304.517 2.86074 -0.834596 0
M  V30 3365 H 302.054 1.40879 -0.42326 0
M  V30 3366 H 304.012 3.92879 1.40364 0
M  V30 3367 H 302.642 2.8043 1.59871 0
M  V30 3368 H 301.694 3.7518 -0.628052 0
M  V30 3369 H 303.006 4.95101 -0.606347 0
M  V30 3370 H 302.16 5.86131 1.56638 0
M  V30 3371 H 300.899 4.59759 1.62705 0
M  V30 3372 H 299.904 5.47482 -0.50435 0
M  V30 3373 H 301.129 6.76881 -0.548539 0
M  V30 3374 H 299.075 6.34764 1.6556 0
M  V30 3375 H 298.992 7.54892 0.40908 0
M  V30 3376 H 300.26 7.62997 1.59549 0
M  V30 3377 N 304.489 0.459591 1.5075 0
M  V30 3378 C 305.436 -0.340524 2.28274 0
M  V30 3379 C 306.406 -0.997371 1.32822 0
M  V30 3380 O 307.591 -1.01202 1.61749 0
M  V30 3381 C 304.731 -1.42317 3.14388 0
M  V30 3382 C 303.844 -0.782251 4.24859 0
M  V30 3383 C 302.979 -1.84182 4.98247 0
M  V30 3384 C 302.018 -1.18053 6.00608 0
M  V30 3385 N 301.155 -2.18244 6.67319 0
M  V30 3386 H 305.995 0.326899 2.96202 0
M  V30 3387 H 303.532 0.173057 1.46078 0
M  V30 3388 H 305.49 -2.06241 3.62658 0
M  V30 3389 H 304.12 -2.05992 2.4853 0
M  V30 3390 H 303.172 -0.0307404 3.80388 0
M  V30 3391 H 304.484 -0.259663 4.98124 0
M  V30 3392 H 303.638 -2.55714 5.50177 0
M  V30 3393 H 302.377 -2.39819 4.24662 0
M  V30 3394 H 301.382 -0.450776 5.47949 0
M  V30 3395 H 302.607 -0.631202 6.7616 0
M  V30 3396 H 300.553 -2.72919 5.96533 0
M  V30 3397 H 300.47 -1.70938 7.36421 0
M  V30 3398 H 301.738 -2.89191 7.23871 0
M  V30 3399 N 305.967 -1.56429 0.191757 0
M  V30 3400 C 307.244 -1.89224 -0.495332 0
M  V30 3401 C 307.624 -1.10478 -1.79883 0
M  V30 3402 O 306.972 -0.204852 -2.2758 0
M  V30 3403 C 307.182 -3.41548 -0.717367 0
M  V30 3404 C 308.53 -4.11711 -1.03823 0
M  V30 3405 O 309.554 -3.4698 -0.805204 0
M  V30 3406 O 308.413 -5.2611 -1.47887 0
M  V30 3407 H 305.507 -0.785788 -0.25781 0
M  V30 3408 H 308.053 -1.68111 0.231721 0
M  V30 3409 H 306.825 -3.90772 0.203287 0
M  V30 3410 H 306.448 -3.68342 -1.497 0
M  V30 3411 O 307.484 -0.0545306 -1.61408 0
M  V30 3412 H 308.175 0.554314 -1.85599 0
M  V30 END ATOM
M  V30 BEGIN BOND
M  V30 END BOND
M  V30 END CTAB
M  END
$$$$
