drugbank_target|Q8IDI5 60S ribosomal protein L17, putative (DB11638)
 OpenBabel12092121113D

  0  0  0     0  0            999 V3000
M  V30 BEGIN CTAB
M  V30 COUNTS 3425 3449 0 0 0
M  V30 BEGIN ATOM
M  V30 1 H -0.908 1.98254 -0.117106 0
M  V30 2 N 0 1.576 0 0
M  V30 3 C 0.933 2.03868 1.02534 0
M  V30 4 C 1.911 0.928543 1.3348 0
M  V30 5 O 3.095 1.19667 1.45644 0
M  V30 6 C 0.222 2.43627 2.35294 0
M  V30 7 C -0.732 3.65373 2.2001 0
M  V30 8 S 0.101 5.13292 1.52614 0
M  V30 9 C 1.257 5.56322 2.86805 0
M  V30 10 H 1.49 2.90518 0.631377 0
M  V30 11 H -0.977 1.52953 0.210867 0
M  V30 12 H 0.981 2.67203 3.11629 0
M  V30 13 H -0.358 1.57376 2.7183 0
M  V30 14 H -1.165 3.90944 3.18086 0
M  V30 15 H -1.563 3.418 1.51819 0
M  V30 16 H 0.729 5.58782 3.83104 0
M  V30 17 H 1.672 6.56266 2.65933 0
M  V30 18 H 2.08 4.83886 2.90714 0
M  V30 19 N 1.4781 -0.272755 1.55222 0
M  V30 20 C 2.7241 -1.00581 1.761 0
M  V30 21 C 3.0571 -1.85932 0.560625 0
M  V30 22 O 2.3321 -1.89416 -0.441801 0
M  V30 23 C 2.6151 -1.88816 3.06628 0
M  V30 24 C 2.4681 -1.06457 4.37021 0
M  V30 25 C 3.7871 -2.8752 3.33197 0
M  V30 26 H 0.9061 -0.364244 0.640699 0
M  V30 27 H 3.5481 -0.278189 1.87952 0
M  V30 28 H 1.6981 -2.50856 2.96654 0
M  V30 29 H 3.3701 -0.464863 4.58952 0
M  V30 30 H 1.6131 -0.368043 4.32236 0
M  V30 31 H 2.2841 -1.71514 5.24678 0
M  V30 32 H 4.7601 -2.35615 3.42965 0
M  V30 33 H 3.6361 -3.46399 4.25792 0
M  V30 34 H 3.8971 -3.62657 2.52849 0
M  V30 35 N 2.9562 -1.48159 -0.537278 0
M  V30 36 C 3.9032 -1.62138 -1.64256 0
M  V30 37 C 4.8732 -0.463668 -1.59497 0
M  V30 38 O 6.0582 -0.686241 -1.78032 0
M  V30 39 C 3.1982 -1.66028 -3.02537 0
M  V30 40 C 2.3112 -2.92855 -3.17585 0
M  V30 41 C 1.4462 -2.87952 -4.46382 0
M  V30 42 C 0.4852 -4.09516 -4.54932 0
M  V30 43 N -0.3778 -4.02733 -5.75109 0
M  V30 44 H 4.4622 -2.56529 -1.51647 0
M  V30 45 H 1.9992 -1.27224 -0.738414 0
M  V30 46 H 3.9572 -1.66265 -3.82638 0
M  V30 47 H 2.5872 -0.751331 -3.13934 0
M  V30 48 H 1.6392 -3.02395 -2.30784 0
M  V30 49 H 2.9512 -3.82822 -3.19764 0
M  V30 50 H 2.1052 -2.8655 -5.34765 0
M  V30 51 H 0.8442 -1.95702 -4.46712 0
M  V30 52 H -0.1508 -4.11201 -3.64957 0
M  V30 53 H 1.0742 -5.02917 -4.56346 0
M  V30 54 H -0.9798 -3.13299 -5.76351 0
M  V30 55 H -1.0628 -4.86397 -5.78752 0
M  V30 56 H 0.2052 -4.05379 -6.65799 0
M  V30 57 N 4.4343 0.785586 -1.36625 0
M  V30 58 C 5.6643 1.5722 -1.34036 0
M  V30 59 C 6.0723 1.89033 0.0795062 0
M  V30 60 O 5.4153 1.50881 1.04789 0
M  V30 61 C 5.4773 2.91759 -2.10041 0
M  V30 62 C 5.1413 2.82654 -3.59104 0
M  V30 63 C 6.1383 2.54634 -4.53274 0
M  V30 64 C 3.8233 3.01111 -4.02042 0
M  V30 65 C 5.8173 2.45177 -5.88359 0
M  V30 66 C 3.5043 2.91276 -5.37216 0
M  V30 67 C 4.5023 2.63348 -6.30188 0
M  V30 68 O 4.1903 2.53514 -7.6288 0
M  V30 69 H 3.9223 0.494177 -0.461265 0
M  V30 70 H 6.4763 0.982632 -1.8037 0
M  V30 71 H 4.7063 3.52781 -1.58375 0
M  V30 72 H 6.3953 3.53059 -2.00261 0
M  V30 73 H 7.1613 2.40073 -4.21414 0
M  V30 74 H 3.0403 3.21854 -3.30047 0
M  V30 75 H 6.5843 2.23299 -6.60896 0
M  V30 76 H 2.4813 3.054 -5.68684 0
M  V30 77 H 3.2493 2.68967 -7.73045 0
M  V30 78 N 5.9124 1.20967 1.01018 0
M  V30 79 C 6.8754 0.965918 2.07853 0
M  V30 80 C 7.8754 -0.0610545 1.60684 0
M  V30 81 O 9.0654 0.175681 1.73312 0
M  V30 82 C 6.1974 0.455513 3.37843 0
M  V30 83 H 7.3904 1.91365 2.3091 0
M  V30 84 H 4.9434 1.02594 1.17916 0
M  V30 85 H 5.6784 -0.497381 3.20463 0
M  V30 86 H 5.4634 1.19622 3.73407 0
M  V30 87 H 6.9534 0.304667 4.16487 0
M  V30 88 N 7.3905 -1.2043 1.01659 0
M  V30 89 C 8.3375 -2.23215 0.586822 0
M  V30 90 C 9.3075 -1.61382 -0.393085 0
M  V30 91 O 10.4925 -1.88544 -0.292525 0
M  V30 92 C 7.6325 -3.45032 -0.0687464 0
M  V30 93 C 6.7455 -4.21296 0.955724 0
M  V30 94 C 5.8805 -5.30507 0.271208 0
M  V30 95 C 4.9195 -5.98515 1.28244 0
M  V30 96 N 4.0565 -6.99316 0.62459 0
M  V30 97 H 8.8965 -2.59336 1.46796 0
M  V30 98 H 6.4335 -1.27431 0.734836 0
M  V30 99 H 8.3915 -4.1459 -0.465965 0
M  V30 100 H 7.0215 -3.09604 -0.913529 0
M  V30 101 H 6.0735 -3.50803 1.4711 0
M  V30 102 H 7.3855 -4.6803 1.72479 0
M  V30 103 H 6.5395 -6.06428 -0.18151 0
M  V30 104 H 5.2785 -4.8481 -0.530163 0
M  V30 105 H 4.2835 -5.21355 1.74554 0
M  V30 106 H 5.5085 -6.46298 2.08509 0
M  V30 107 H 3.4545 -6.55812 -0.156914 0
M  V30 108 H 3.3715 -7.44178 1.33172 0
M  V30 109 H 4.6395 -7.79255 0.195462 0
M  V30 110 N 8.8686 -0.792821 -1.36206 0
M  V30 111 C 9.8156 -0.191653 -2.30003 0
M  V30 112 C 10.7856 0.666453 -1.52143 0
M  V30 113 O 11.9706 0.61442 -1.80636 0
M  V30 114 C 9.1106 0.664848 -3.38635 0
M  V30 115 C 8.2236 -0.212175 -4.31479 0
M  V30 116 C 7.3586 0.651022 -5.27196 0
M  V30 117 C 6.3976 -0.227247 -6.11678 0
M  V30 118 N 5.5346 0.595127 -6.99573 0
M  V30 119 H 10.3746 -0.996978 -2.80828 0
M  V30 120 H 7.9116 -0.503206 -1.38225 0
M  V30 121 H 9.8696 1.17645 -4.00269 0
M  V30 122 H 8.4996 1.43557 -2.89122 0
M  V30 123 H 7.5516 -0.841777 -3.70969 0
M  V30 124 H 8.8636 -0.888751 -4.90818 0
M  V30 125 H 8.0176 1.2283 -5.94136 0
M  V30 126 H 6.7566 1.36121 -4.68319 0
M  V30 127 H 5.7616 -0.816904 -5.43697 0
M  V30 128 H 6.9866 -0.93509 -6.72631 0
M  V30 129 H 4.9326 1.28955 -6.432 0
M  V30 130 H 4.8496 -0.0236952 -7.55996 0
M  V30 131 H 6.1176 1.15613 -7.70879 0
M  V30 132 N 10.3467 1.47872 -0.545128 0
M  V30 133 C 11.5957 2.01695 -0.0145033 0
M  V30 134 C 11.9087 1.42609 1.33873 0
M  V30 135 O 13.1147 1.88021 1.95858 0
M  V30 136 C 11.5707 3.59892 0.0245068 0
M  V30 137 C 11.1787 4.27966 -1.32475 0
M  V30 138 C 12.9227 4.21507 0.50316 0
M  V30 139 C 10.8297 5.78136 -1.2455 0
M  V30 140 H 9.7597 0.753998 -0.00165172 0
M  V30 141 H 12.4107 1.69985 -0.691175 0
M  V30 142 H 10.7927 3.88509 0.766575 0
M  V30 143 H 11.9667 4.11003 -2.08357 0
M  V30 144 H 10.2817 3.78286 -1.74036 0
M  V30 145 H 12.8787 5.31538 0.580656 0
M  V30 146 H 13.2217 3.87855 1.51243 0
M  V30 147 H 13.7547 3.97376 -0.183681 0
M  V30 148 H 10.4937 6.16388 -2.23039 0
M  V30 149 H 10.0137 5.97469 -0.528282 0
M  V30 150 H 11.6927 6.40099 -0.942488 0
M  V30 151 N 11.8248 0.280983 1.55075 0
M  V30 152 C 13.2408 -0.0729964 1.59433 0
M  V30 153 C 13.4408 -1.5411 1.29817 0
M  V30 154 O 12.4968 -2.29086 1.06187 0
M  V30 155 C 13.8098 0.306921 2.9913 0
M  V30 156 C 15.3578 0.254023 3.11968 0
M  V30 157 C 15.8328 0.608467 4.5394 0
M  V30 158 N 17.3238 0.560241 4.59799 0
M  V30 159 C 18.0588 0.80722 5.6769 0
M  V30 160 N 17.5548 1.11912 6.83701 0
M  V30 161 N 19.3478 0.735623 5.57266 0
M  V30 162 H 11.4988 1.238 1.7259 0
M  V30 163 H 13.7618 0.500547 0.805082 0
M  V30 164 H 13.4678 1.32816 3.25657 0
M  V30 165 H 13.3418 -0.349363 3.75579 0
M  V30 166 H 15.7288 -0.75794 2.852 0
M  V30 167 H 15.8098 0.944649 2.37718 0
M  V30 168 H 15.4538 1.61814 4.81434 0
M  V30 169 H 15.3838 -0.104013 5.26497 0
M  V30 170 H 17.8748 0.329288 3.76463 0
M  V30 171 H 18.1878 1.29409 7.61888 0
M  V30 172 H 16.5328 1.15695 6.85303 0
M  V30 173 H 19.7238 0.491752 4.6551 0
M  V30 174 H 19.8968 0.931482 6.4127 0
M  V30 175 N 13.3029 -1.57598 0.00835791 0
M  V30 176 C 14.2509 -2.10078 -0.998508 0
M  V30 177 C 15.2449 -1.02262 -1.35051 0
M  V30 178 O 16.4509 -1.20719 -1.33518 0
M  V30 179 H 12.8259 -0.670903 -0.339696 0
M  V30 180 H 14.7969 -2.93648 -0.530398 0
M  V30 181 C 13.5459 -2.62615 -2.27879 0
M  V30 182 H 12.8689 -3.45213 -2.01662 0
M  V30 183 H 14.3089 -3.03004 -2.96588 0
M  V30 184 C 12.7679 -1.54407 -2.99433 0
M  V30 185 O 13.2979 -0.931812 -3.90743 0
M  V30 186 N 11.5039 -1.2695 -2.61404 0
M  V30 187 H 11.0509 -1.76924 -1.87232 0
M  V30 188 H 11.0089 -0.547704 -3.09593 0
M  V30 189 N 14.781 0.264519 -1.55364 0
M  V30 190 C 15.711 1.33121 -1.91836 0
M  V30 191 C 16.692 1.51101 -0.781192 0
M  V30 192 O 17.877 1.64003 -1.04003 0
M  V30 193 C 15.007 2.68921 -2.19769 0
M  V30 194 C 13.961 2.65661 -3.35571 0
M  V30 195 C 13.287 4.05093 -3.49004 0
M  V30 196 C 14.587 2.24187 -4.71739 0
M  V30 197 H 16.281 1.02844 -2.81182 0
M  V30 198 H 13.827 0.493286 -1.35287 0
M  V30 199 H 15.78 3.43663 -2.43872 0
M  V30 200 H 14.504 3.00799 -1.27231 0
M  V30 201 H 13.163 1.93377 -3.1145 0
M  V30 202 H 12.811 4.34206 -2.53917 0
M  V30 203 H 12.511 4.03804 -4.26868 0
M  V30 204 H 14.035 4.81561 -3.75408 0
M  V30 205 H 15.449 2.88654 -4.9533 0
M  V30 206 H 13.846 2.34044 -5.52579 0
M  V30 207 H 14.916 1.19327 -4.69988 0
M  V30 208 N 16.2591 1.48442 0.529413 0
M  V30 209 C 17.5071 1.56179 1.28267 0
M  V30 210 C 17.8281 0.237721 1.93546 0
M  V30 211 O 17.0981 -0.740779 1.81354 0
M  V30 212 H 15.6781 0.575367 0.476405 0
M  V30 213 H 18.3401 1.84909 0.61602 0
M  V30 214 H 17.4361 2.34312 2.06165 0
M  V30 215 N 17.7372 -0.778329 1.37039 0
M  V30 216 C 18.6842 -1.89139 1.32269 0
M  V30 217 C 19.6542 -1.65017 0.189387 0
M  V30 218 O 20.8392 -1.87024 0.377693 0
M  V30 219 C 17.9792 -3.26112 1.12894 0
M  V30 220 C 17.0922 -3.62233 2.35396 0
M  V30 221 C 16.2272 -4.8838 2.08946 0
M  V30 222 C 15.2662 -5.17212 3.2735 0
M  V30 223 N 14.4032 -6.34546 3.00492 0
M  V30 224 H 19.2432 -1.92552 2.27437 0
M  V30 225 H 16.7802 -0.941473 1.13025 0
M  V30 226 H 18.7382 -4.05116 0.996835 0
M  V30 227 H 17.3682 -3.22091 0.213758 0
M  V30 228 H 16.4202 -2.78265 2.5937 0
M  V30 229 H 17.7322 -3.79481 3.23721 0
M  V30 230 H 16.8862 -5.75274 1.92729 0
M  V30 231 H 15.6252 -4.73222 1.17949 0
M  V30 232 H 14.6302 -4.28796 3.44113 0
M  V30 233 H 15.8552 -5.34283 4.19188 0
M  V30 234 H 13.8012 -6.20759 2.12118 0
M  V30 235 H 13.7182 -6.52179 3.82358 0
M  V30 236 H 14.9862 -7.24394 2.87879 0
M  V30 237 N 19.2153 -1.21501 -1.00376 0
M  V30 238 C 20.4553 -1.04444 -1.75701 0
M  V30 239 C 20.8193 0.414644 -1.87469 0
M  V30 240 O 22.0203 0.705763 -2.59369 0
M  V30 241 C 20.2913 -1.72389 -3.13077 0
M  V30 242 S 21.8503 -1.70604 -4.04277 0
M  V30 243 H 18.6683 -0.374249 -0.604532 0
M  V30 244 H 21.2703 -1.54267 -1.20091 0
M  V30 245 H 19.9743 -2.77734 -3.02146 0
M  V30 246 H 19.5053 -1.22751 -3.73759 0
M  V30 247 H 21.5203 -0.748012 -4.9053 0
M  V30 248 N 20.6934 1.19889 -1.02296 0
M  V30 249 C 21.6564 2.21116 -0.603351 0
M  V30 250 C 22.6564 1.5738 0.329884 0
M  V30 251 O 23.8464 1.73802 0.117702 0
M  V30 252 C 20.9784 3.40696 0.117992 0
M  V30 253 H 22.1714 2.59754 -1.49893 0
M  V30 254 H 19.7244 1.33463 -0.813468 0
M  V30 255 H 20.4594 3.07569 1.0282 0
M  V30 256 H 20.2444 3.88188 -0.552511 0
M  V30 257 H 21.7344 4.15692 0.398696 0
M  V30 258 N 22.1715 0.800033 1.35784 0
M  V30 259 C 23.1185 0.203848 2.29898 0
M  V30 260 C 24.0885 -0.658375 1.52495 0
M  V30 261 O 25.2735 -0.604832 1.8096 0
M  V30 262 C 22.4135 -0.64688 3.38983 0
M  V30 263 C 21.5265 0.235054 4.3136 0
M  V30 264 C 20.6615 -0.623054 5.27533 0
M  V30 265 C 19.7005 0.259682 6.11549 0
M  V30 266 N 18.8375 -0.558019 6.99879 0
M  V30 267 H 23.6775 1.01186 2.80295 0
M  V30 268 H 21.2145 0.51053 1.37957 0
M  V30 269 H 23.1725 -1.15521 4.00887 0
M  V30 270 H 21.8025 -1.42021 2.89879 0
M  V30 271 H 20.8545 0.861438 3.70518 0
M  V30 272 H 22.1665 0.914768 4.9034 0
M  V30 273 H 21.3205 -1.19678 5.94779 0
M  V30 274 H 20.0595 -1.33636 4.69034 0
M  V30 275 H 19.0645 0.845726 5.43256 0
M  V30 276 H 20.2895 0.970748 6.72126 0
M  V30 277 H 18.2355 -1.25542 6.43875 0
M  V30 278 H 18.1525 0.0637872 7.55973 0
M  V30 279 H 19.4205 -1.11523 7.71481 0
M  V30 280 N 23.6496 -1.47581 0.552962 0
M  V30 281 C 24.8976 -2.02082 0.0272703 0
M  V30 282 C 25.2186 -1.4301 -1.32563 0
M  V30 283 O 24.4886 -0.603745 -1.86365 0
M  V30 284 H 23.0686 -0.746966 0.00709182 0
M  V30 285 H 25.7306 -1.81033 0.722008 0
M  V30 286 H 24.8266 -3.12034 -0.0639951 0
M  V30 287 N 25.1277 -0.289203 -1.54924 0
M  V30 288 C 26.0907 0.579144 -2.21762 0
M  V30 289 C 27.0907 1.07047 -1.1999 0
M  V30 290 O 28.2807 0.968384 -1.44803 0
M  V30 291 C 25.4127 1.80055 -2.8947 0
M  V30 292 H 26.6057 -0.00464908 -2.999 0
M  V30 293 H 24.1587 -0.0399306 -1.56249 0
M  V30 294 H 24.8937 2.42449 -2.15381 0
M  V30 295 H 24.6787 1.45602 -3.64064 0
M  V30 296 H 26.1687 2.41773 -3.40493 0
M  V30 297 N 26.6058 1.57591 -0.0167156 0
M  V30 298 C 27.8538 1.90906 0.663285 0
M  V30 299 C 28.1748 0.892509 1.73376 0
M  V30 300 O 27.4448 -0.0677623 1.95783 0
M  V30 301 H 26.0248 0.704637 0.247983 0
M  V30 302 H 28.6868 1.94803 -0.0615909 0
M  V30 303 H 27.7828 2.9116 1.12393 0
M  V30 304 N 28.0839 -0.256276 1.55502 0
M  V30 305 C 29.3299 -0.987079 1.77157 0
M  V30 306 C 29.6629 -1.85327 0.580315 0
M  V30 307 O 28.9379 -1.89874 -0.421686 0
M  V30 308 C 29.2209 -1.85553 3.08613 0
M  V30 309 C 29.0739 -1.01816 4.38125 0
M  V30 310 C 30.3929 -2.8397 3.36228 0
M  V30 311 H 27.5119 -0.357428 0.644526 0
M  V30 312 H 30.1539 -0.258239 1.88237 0
M  V30 313 H 28.3039 -2.47695 2.99298 0
M  V30 314 H 29.9759 -0.416159 4.59419 0
M  V30 315 H 28.2189 -0.322178 4.32602 0
M  V30 316 H 28.8899 -1.65939 5.26468 0
M  V30 317 H 31.3659 -2.31964 3.45445 0
M  V30 318 H 30.2419 -3.41864 4.29442 0
M  V30 319 H 30.5029 -3.59955 2.56681 0
M  V30 320 N 29.562 -1.4872 -0.521534 0
M  V30 321 C 30.839 -1.4766 -1.2828 0
M  V30 322 C 31.219 -0.19292 -2.10217 0
M  V30 323 O 30.567 0.825193 -2.13079 0
M  V30 324 C 30.777 -2.74358 -2.15705 0
M  V30 325 C 32.125 -3.23028 -2.75569 0
M  V30 326 O 33.149 -2.75333 -2.25987 0
M  V30 327 O 32.008 -4.0604 -3.65778 0
M  V30 328 H 29.102 -0.590085 -0.579421 0
M  V30 329 H 31.648 -1.60963 -0.537492 0
M  V30 330 H 30.42 -3.59292 -1.54999 0
M  V30 331 H 30.043 -2.63816 -2.97467 0
M  V30 332 N 31.0401 0.771051 -1.3745 0
M  V30 333 C 31.9701 1.89827 -1.3597 0
M  V30 334 C 32.9511 1.68562 -0.228216 0
M  V30 335 O 34.1361 1.8941 -0.428675 0
M  V30 336 C 31.2661 3.2712 -1.16662 0
M  V30 337 C 30.2201 3.6295 -2.2683 0
M  V30 338 C 29.5461 4.98791 -1.92644 0
M  V30 339 C 30.8461 3.69627 -3.69017 0
M  V30 340 H 32.5401 1.91323 -2.30295 0
M  V30 341 H 30.0861 0.919082 -1.10855 0
M  V30 342 H 32.0391 4.05615 -1.14256 0
M  V30 343 H 30.7631 3.26059 -0.187926 0
M  V30 344 H 29.4221 2.86763 -2.28392 0
M  V30 345 H 29.0701 4.94271 -0.933021 0
M  V30 346 H 28.7701 5.23733 -2.66416 0
M  V30 347 H 30.2941 5.79685 -1.91826 0
M  V30 348 H 31.7081 4.38273 -3.69581 0
M  V30 349 H 30.1051 4.06067 -4.41848 0
M  V30 350 H 31.1751 2.70273 -4.02592 0
M  V30 351 N 32.5182 1.22032 0.997298 0
M  V30 352 C 33.9342 0.979326 1.26021 0
M  V30 353 C 34.1342 -0.32972 1.98784 0
M  V30 354 O 33.1902 -1.05345 2.29475 0
M  V30 355 C 34.5032 2.17509 2.07631 0
M  V30 356 C 36.0512 2.21817 2.2083 0
M  V30 357 C 36.5262 3.40933 3.05825 0
M  V30 358 N 38.0172 3.41067 3.13412 0
M  V30 359 C 38.7522 4.29885 3.79455 0
M  V30 360 N 38.2482 5.28914 4.47462 0
M  V30 361 N 40.0412 4.17673 3.76173 0
M  V30 362 H 32.1922 2.06202 0.509352 0
M  V30 363 H 34.4552 0.90334 0.287541 0
M  V30 364 H 34.1612 3.12415 1.61524 0
M  V30 365 H 34.0352 2.17206 3.08385 0
M  V30 366 H 36.4222 1.27462 2.66153 0
M  V30 367 H 36.5032 2.2616 1.1952 0
M  V30 368 H 36.1472 4.35586 2.61203 0
M  V30 369 H 36.0772 3.33829 4.07266 0
M  V30 370 H 38.5682 2.69406 2.65007 0
M  V30 371 H 38.8812 5.92973 4.95583 0
M  V30 372 H 37.2262 5.32831 4.46224 0
M  V30 373 H 40.4172 3.39564 3.22202 0
M  V30 374 H 40.5902 4.87098 4.27363 0
M  V30 375 N 33.9963 -1.19345 1.0293 0
M  V30 376 C 35.2423 -1.89318 0.727083 0
M  V30 377 C 35.5753 -1.79446 -0.742483 0
M  V30 378 O 34.8503 -1.1871 -1.54072 0
M  V30 379 C 35.1333 -3.40238 1.17942 0
M  V30 380 C 34.9863 -3.58979 2.71024 0
M  V30 381 C 36.3053 -4.33479 0.760548 0
M  V30 382 H 33.4243 -0.687475 0.265606 0
M  V30 383 H 36.0663 -1.40477 1.2793 0
M  V30 384 H 34.2163 -3.81964 0.709608 0
M  V30 385 H 35.8883 -3.26421 3.25955 0
M  V30 386 H 34.1313 -3.02018 3.11396 0
M  V30 387 H 34.8023 -4.64823 2.9773 0
M  V30 388 H 37.2783 -3.99469 1.16464 0
M  V30 389 H 36.1543 -5.37664 1.10493 0
M  V30 390 H 36.4153 -4.40813 -0.337063 0
M  V30 391 N 35.4744 -0.807222 -1.35358 0
M  V30 392 C 36.4244 -0.190706 -2.27201 0
M  V30 393 C 37.4084 0.635838 -1.47804 0
M  V30 394 O 38.6004 0.492991 -1.69996 0
M  V30 395 C 35.7294 0.659337 -3.36909 0
M  V30 396 C 34.8154 -0.176971 -4.23731 0
M  V30 397 N 35.2064 -1.24029 -4.90357 0
M  V30 398 C 33.5044 0.0412953 -4.45981 0
M  V30 399 C 34.2054 -1.75092 -5.54723 0
M  V30 400 N 33.1814 -1.05727 -5.33219 0
M  V30 401 H 36.9834 -1.0043 -2.76208 0
M  V30 402 H 34.4974 -0.648445 -1.48892 0
M  V30 403 H 36.4944 1.11706 -4.01656 0
M  V30 404 H 35.1544 1.47127 -2.89454 0
M  V30 405 H 36.1654 -1.62295 -4.91814 0
M  V30 406 H 32.8424 0.82232 -4.09322 0
M  V30 407 H 34.2324 -2.63963 -6.17878 0
M  V30 408 N 36.9525 1.47285 -0.560781 0
M  V30 409 C 38.1995 2.02464 -0.038062 0
M  V30 410 C 38.5275 1.43474 1.31322 0
M  V30 411 O 37.7825 0.581311 1.86867 0
M  V30 412 C 38.0815 3.57258 0.100784 0
M  V30 413 C 37.7475 4.35184 -1.18007 0
M  V30 414 C 36.4095 4.56194 -1.53103 0
M  V30 415 C 38.7615 4.80098 -2.02867 0
M  V30 416 C 36.0895 5.19367 -2.729 0
M  V30 417 C 38.4415 5.44593 -3.21871 0
M  V30 418 C 37.1055 5.63835 -3.57276 0
M  V30 419 H 36.3755 0.740869 -0.0139279 0
M  V30 420 H 39.0225 1.76916 -0.733012 0
M  V30 421 H 37.3275 3.81819 0.878724 0
M  V30 422 H 39.0245 3.97606 0.520639 0
M  V30 423 H 35.6145 4.19113 -0.8968 0
M  V30 424 H 39.7985 4.63642 -1.7706 0
M  V30 425 H 35.0545 5.32459 -3.00496 0
M  V30 426 H 39.2285 5.78358 -3.87911 0
M  V30 427 H 36.8555 6.12557 -4.50197 0
M  V30 428 N 38.4306 0.297415 1.54768 0
M  V30 429 C 39.3776 -0.580276 2.23386 0
M  V30 430 C 40.3476 -1.13238 1.21517 0
M  V30 431 O 41.5326 -1.17757 1.50126 0
M  V30 432 C 38.6726 -1.74801 2.97555 0
M  V30 433 C 37.7856 -1.22764 4.1419 0
M  V30 434 C 36.9206 -2.35895 4.75949 0
M  V30 435 C 35.9596 -1.80974 5.84735 0
M  V30 436 N 35.0966 -2.87664 6.40464 0
M  V30 437 H 39.9366 0.0114833 2.97998 0
M  V30 438 H 37.4736 0.0174361 1.4709 0
M  V30 439 H 39.4316 -2.43475 3.38786 0
M  V30 440 H 38.0616 -2.31145 2.25326 0
M  V30 441 H 37.1136 -0.433271 3.77924 0
M  V30 442 H 38.4256 -0.785551 4.92575 0
M  V30 443 H 37.5796 -3.12523 5.20014 0
M  V30 444 H 36.3186 -2.83429 3.96887 0
M  V30 445 H 35.3236 -1.02834 5.40097 0
M  V30 446 H 36.5486 -1.34348 6.65678 0
M  V30 447 H 34.4946 -3.34538 5.64287 0
M  V30 448 H 34.4116 -2.4794 7.14186 0
M  V30 449 H 35.6796 -3.642 6.89187 0
M  V30 450 N 39.9087 -1.5758 0.0250728 0
M  V30 451 C 40.8567 -2.11125 -0.97617 0
M  V30 452 C 41.8507 -1.03689 -1.33959 0
M  V30 453 O 43.0567 -1.22128 -1.3223 0
M  V30 454 H 39.4317 -0.674468 -0.332561 0
M  V30 455 H 41.4027 -2.94194 -0.499223 0
M  V30 456 C 40.1517 -2.65017 -2.2508 0
M  V30 457 H 39.4747 -3.47333 -1.9799 0
M  V30 458 H 40.9147 -3.06133 -2.93357 0
M  V30 459 C 39.3737 -1.57574 -2.97779 0
M  V30 460 O 39.9037 -0.973203 -3.89733 0
M  V30 461 N 38.1097 -1.29716 -2.60043 0
M  V30 462 H 37.6567 -1.789 -1.85345 0
M  V30 463 H 37.6147 -0.58051 -3.08994 0
M  V30 464 N 41.3868 0.248026 -1.55636 0
M  V30 465 C 42.6148 0.993808 -1.81469 0
M  V30 466 C 43.0298 1.78991 -0.60064 0
M  V30 467 O 42.3868 1.77345 0.430682 0
M  V30 468 C 42.4378 1.93258 -3.05506 0
M  V30 469 O 42.1588 1.16869 -4.22224 0
M  V30 470 C 43.6598 2.79444 -3.4413 0
M  V30 471 H 40.8798 0.292486 -0.603898 0
M  V30 472 H 43.4238 0.271253 -2.02693 0
M  V30 473 H 41.5788 2.60943 -2.86335 0
M  V30 474 H 41.9928 1.80359 -4.92515 0
M  V30 475 H 43.4668 3.41066 -4.34026 0
M  V30 476 H 43.9438 3.50499 -2.64665 0
M  V30 477 H 44.5498 2.17214 -3.65648 0
M  V30 478 N 42.8649 1.48995 0.513639 0
M  V30 479 C 44.0949 1.61297 1.291 0
M  V30 480 C 44.5029 0.278656 1.87137 0
M  V30 481 O 43.8459 -0.744325 1.67945 0
M  V30 482 C 43.9079 2.61326 2.46879 0
M  V30 483 C 43.5719 4.05993 2.09807 0
M  V30 484 C 44.5689 4.93183 1.64519 0
M  V30 485 C 42.2539 4.51642 2.19829 0
M  V30 486 C 44.2479 6.24056 1.2974 0
M  V30 487 C 41.9349 5.82532 1.84662 0
M  V30 488 C 42.9329 6.68562 1.3969 0
M  V30 489 O 42.6209 7.97014 1.04992 0
M  V30 490 H 42.3529 0.546236 0.39825 0
M  V30 491 H 44.9069 1.95673 0.62459 0
M  V30 492 H 43.1369 2.22104 3.16554 0
M  V30 493 H 44.8259 2.6329 3.08923 0
M  V30 494 H 45.5919 4.59147 1.56233 0
M  V30 495 H 41.4709 3.84855 2.53786 0
M  V30 496 H 45.0149 6.91161 0.945659 0
M  V30 497 H 40.9119 6.16099 1.92594 0
M  V30 498 H 41.6799 8.09913 1.18249 0
M  V30 499 N 44.343 -0.763751 1.37857 0
M  V30 500 C 45.253 -1.90817 1.36478 0
M  V30 501 C 46.269 -1.71997 0.263248 0
M  V30 502 O 47.445 -1.95095 0.499979 0
M  V30 503 C 44.51 -3.2605 1.17864 0
M  V30 504 C 43.571 -3.57467 2.3773 0
M  V30 505 C 42.804 -4.86249 2.19995 0
M  V30 506 O 43.027 -5.57884 1.18836 0
M  V30 507 O 41.961 -5.16911 3.08361 0
M  V30 508 H 45.787 -1.94933 2.32884 0
M  V30 509 H 43.372 -0.907619 1.1867 0
M  V30 510 H 45.254 -4.06924 1.09504 0
M  V30 511 H 43.929 -3.22769 0.245372 0
M  V30 512 H 42.836 -2.76796 2.51664 0
M  V30 513 H 44.169 -3.655 3.29652 0
M  V30 514 N 45.8211 -1.22559 -0.990812 0
M  V30 515 C 46.7841 -0.998863 -2.0629 0
M  V30 516 C 47.7841 0.0354834 -1.60761 0
M  V30 517 O 48.9741 -0.203231 -1.7301 0
M  V30 518 C 46.1061 -0.509203 -3.37076 0
M  V30 519 H 47.2991 -1.95014 -2.27837 0
M  V30 520 H 44.8521 -1.04456 -1.16269 0
M  V30 521 H 45.5871 0.446335 -3.21214 0
M  V30 522 H 45.3721 -1.25547 -3.71457 0
M  V30 523 H 46.8621 -0.370888 -4.1595 0
M  V30 524 N 47.2992 1.18797 -1.03562 0
M  V30 525 C 48.2622 2.20464 -0.626769 0
M  V30 526 C 49.2622 1.57721 0.313173 0
M  V30 527 O 50.4522 1.73917 0.0992615 0
M  V30 528 C 47.5842 3.40802 0.0818498 0
M  V30 529 H 48.7772 2.58149 -1.5264 0
M  V30 530 H 46.3302 1.32593 -0.827578 0
M  V30 531 H 47.0652 3.08642 0.995518 0
M  V30 532 H 46.8502 3.8758 -0.593652 0
M  V30 533 H 48.3402 4.16092 0.354584 0
M  V30 534 N 48.7773 0.814389 1.34928 0
M  V30 535 C 50.1933 0.499084 1.51596 0
M  V30 536 C 50.3933 -0.978319 1.76157 0
M  V30 537 O 49.4493 -1.76309 1.80752 0
M  V30 538 C 50.7623 1.35121 2.68631 0
M  V30 539 C 52.3103 1.34746 2.82511 0
M  V30 540 C 52.7853 2.18388 4.0258 0
M  V30 541 N 54.2763 2.15966 4.09772 0
M  V30 542 C 55.0113 2.77437 5.01813 0
M  V30 543 N 54.5073 3.47866 5.99134 0
M  V30 544 N 56.3003 2.67037 4.94619 0
M  V30 545 H 48.4513 1.7711 1.17243 0
M  V30 546 H 50.7143 0.754256 0.574284 0
M  V30 547 H 50.4203 2.40001 2.57085 0
M  V30 548 H 50.2943 1.00991 3.63429 0
M  V30 549 H 52.6813 0.30648 2.93504 0
M  V30 550 H 52.7623 1.72869 1.88547 0
M  V30 551 H 52.4063 3.2253 3.92347 0
M  V30 552 H 52.3363 1.77621 4.9574 0
M  V30 553 H 54.8273 1.64729 3.40107 0
M  V30 554 H 55.1403 3.92038 6.65977 0
M  V30 555 H 53.4853 3.51972 5.99284 0
M  V30 556 H 56.6763 2.11597 4.17546 0
M  V30 557 H 56.8493 3.15232 5.66156 0
M  V30 558 N 50.2554 -1.46986 0.568584 0
M  V30 559 C 51.2184 -2.28624 -0.162366 0
M  V30 560 C 52.2184 -1.37596 -0.832103 0
M  V30 561 O 53.4084 -1.60115 -0.68622 0
M  V30 562 C 50.5404 -3.17596 -1.23878 0
M  V30 563 H 51.7334 -2.94722 0.554899 0
M  V30 564 H 49.2864 -1.52863 0.325976 0
M  V30 565 H 50.0214 -2.56214 -1.98808 0
M  V30 566 H 49.8064 -3.846 -0.763219 0
M  V30 567 H 51.2964 -3.79078 -1.75185 0
M  V30 568 N 51.7335 -0.305618 -1.54608 0
M  V30 569 C 52.9825 0.303098 -1.9941 0
M  V30 570 C 53.2955 1.54648 -1.19764 0
M  V30 571 O 54.5015 2.23007 -1.54855 0
M  V30 572 C 52.9575 0.590588 -3.55021 0
M  V30 573 C 52.5655 -0.634719 -4.43481 0
M  V30 574 C 54.3095 1.16025 -4.08336 0
M  V30 575 C 52.2165 -0.320126 -5.90533 0
M  V30 576 H 51.1465 0.117031 -0.744862 0
M  V30 577 H 53.7975 -0.415045 -1.78745 0
M  V30 578 H 52.1795 1.36845 -3.71604 0
M  V30 579 H 53.3535 -1.41079 -4.38672 0
M  V30 580 H 51.6685 -1.12333 -4.00962 0
M  V30 581 H 54.2655 1.40994 -5.15776 0
M  V30 582 H 54.6085 2.10397 -3.5922 0
M  V30 583 H 55.1415 0.443985 -3.95315 0
M  V30 584 H 51.8805 -1.23254 -6.43808 0
M  V30 585 H 51.4005 0.418579 -5.98338 0
M  V30 586 H 53.0795 0.0766241 -6.46955 0
M  V30 587 N 53.2116 1.57565 -0.0334293 0
M  V30 588 C 54.6276 1.56297 0.322997 0
M  V30 589 C 54.8276 1.03945 1.7262 0
M  V30 590 O 53.8836 0.688109 2.42943 0
M  V30 591 C 55.1966 3.00232 0.167664 0
M  V30 592 C 56.7446 3.12078 0.240107 0
M  V30 593 C 57.2196 4.57859 0.113513 0
M  V30 594 N 58.7106 4.62887 0.170359 0
M  V30 595 C 59.4456 5.73319 0.0962517 0
M  V30 596 N 58.9416 6.92794 -0.0291881 0
M  V30 597 N 60.7346 5.61898 0.150551 0
M  V30 598 H 52.8856 1.89923 -0.950956 0
M  V30 599 H 55.1486 0.873824 -0.367608 0
M  V30 600 H 54.8546 3.42501 -0.799102 0
M  V30 601 H 54.7286 3.654 0.936083 0
M  V30 602 H 57.1156 2.69718 1.19733 0
M  V30 603 H 57.1966 2.49623 -0.558763 0
M  V30 604 H 56.8406 5.009 -0.840314 0
M  V30 605 H 56.7706 5.18299 0.931302 0
M  V30 606 H 59.2616 3.76954 0.26728 0
M  V30 607 H 59.5746 7.7276 -0.0789252 0
M  V30 608 H 57.9196 6.94971 -0.0640299 0
M  V30 609 H 61.1106 4.67448 0.246981 0
M  V30 610 H 61.2836 6.47938 0.0893365 0
M  V30 611 N 54.6897 -0.239769 1.55765 0
M  V30 612 C 56.1057 -0.588624 1.48349 0
M  V30 613 C 56.3057 -1.88005 0.72502 0
M  V30 614 O 55.3617 -2.51186 0.257269 0
M  V30 615 C 56.6747 -0.68474 2.928 0
M  V30 616 C 58.2227 -0.77659 3.03213 0
M  V30 617 C 58.6977 -0.904207 4.48986 0
M  V30 618 N 60.1887 -0.968896 4.52953 0
M  V30 619 C 60.9237 -1.08703 5.63002 0
M  V30 620 N 60.4197 -1.17026 6.82845 0
M  V30 621 N 62.2127 -1.12074 5.50814 0
M  V30 622 H 54.3637 0.607911 2.03515 0
M  V30 623 H 56.6267 0.21083 0.924259 0
M  V30 624 H 56.3327 0.194284 3.51163 0
M  V30 625 H 56.2067 -1.55435 3.43686 0
M  V30 626 H 58.5937 -1.64606 2.44926 0
M  V30 627 H 58.6747 0.118315 2.55526 0
M  V30 628 H 58.3187 -0.0392633 5.07885 0
M  V30 629 H 58.2487 -1.81426 4.9436 0
M  V30 630 H 60.7397 -0.915633 3.6664 0
M  V30 631 H 61.0527 -1.25966 7.62465 0
M  V30 632 H 59.3977 -1.13971 6.85591 0
M  V30 633 H 62.5887 -1.05226 4.5612 0
M  V30 634 H 62.7617 -1.20936 6.36615 0
M  V30 635 N 56.1678 -1.49265 -0.50573 0
M  V30 636 C 57.1008 -1.60183 -1.62532 0
M  V30 637 C 58.0788 -0.451107 -1.56217 0
M  V30 638 O 59.2628 -0.666016 -1.76342 0
M  V30 639 C 56.3898 -1.55238 -3.01029 0
M  V30 640 C 55.4358 -2.7545 -3.25621 0
M  V30 641 S 56.2688 -4.37174 -3.09256 0
M  V30 642 C 57.4248 -4.34866 -4.50158 0
M  V30 643 H 57.6578 -2.54894 -1.53025 0
M  V30 644 H 55.1908 -1.38098 -0.690535 0
M  V30 645 H 57.1488 -1.53071 -3.80893 0
M  V30 646 H 55.8098 -0.618238 -3.07956 0
M  V30 647 H 55.0028 -2.68197 -4.26716 0
M  V30 648 H 54.6048 -2.75005 -2.53472 0
M  V30 649 H 56.8968 -4.06295 -5.42154 0
M  V30 650 H 57.8398 -5.36223 -4.62462 0
M  V30 651 H 58.2478 -3.65007 -4.30616 0
M  V30 652 N 57.6459 0.756429 -1.3826 0
M  V30 653 C 58.5929 1.87011 -1.35261 0
M  V30 654 C 59.5629 1.64695 -0.215616 0
M  V30 655 O 60.7479 1.864 -0.407399 0
M  V30 656 C 57.8879 3.24275 -1.18068 0
M  V30 657 C 57.0009 3.58442 -2.41129 0
M  V30 658 C 56.1359 4.84994 -2.16689 0
M  V30 659 C 55.1749 5.11939 -3.35537 0
M  V30 660 N 54.3119 6.29685 -3.10549 0
M  V30 661 H 59.1519 1.8891 -2.30472 0
M  V30 662 H 56.6889 0.923373 -1.14509 0
M  V30 663 H 58.6469 4.03479 -1.06116 0
M  V30 664 H 57.2769 3.21711 -0.264973 0
M  V30 665 H 56.3289 2.74103 -2.63764 0
M  V30 666 H 57.6409 3.74283 -3.29717 0
M  V30 667 H 56.7949 5.72135 -2.01857 0
M  V30 668 H 55.5339 4.71286 -1.25462 0
M  V30 669 H 54.5389 4.23268 -3.50891 0
M  V30 670 H 55.7639 5.27546 -4.27635 0
M  V30 671 H 53.7099 6.17306 -2.21967 0
M  V30 672 H 53.6269 6.46014 -3.92686 0
M  V30 673 H 54.8949 7.19722 -2.99367 0
M  V30 674 N 59.124 1.23083 0.984299 0
M  V30 675 C 60.054 1.03292 2.09411 0
M  V30 676 C 61.035 -0.048923 1.7003 0
M  V30 677 O 62.22 0.114967 1.93859 0
M  V30 678 C 59.35 0.619155 3.41736 0
M  V30 679 C 58.304 1.64791 3.95004 0
M  V30 680 C 57.63 1.0897 5.23478 0
M  V30 681 C 58.93 3.03999 4.24714 0
M  V30 682 H 60.624 1.96119 2.26225 0
M  V30 683 H 58.17 0.944344 1.08711 0
M  V30 684 H 60.123 0.467777 4.18796 0
M  V30 685 H 58.847 -0.344786 3.24775 0
M  V30 686 H 57.506 1.78721 3.20085 0
M  V30 687 H 57.154 0.11686 5.02864 0
M  V30 688 H 56.854 1.77704 5.60085 0
M  V30 689 H 58.378 0.950093 6.03163 0
M  V30 690 H 59.792 2.93393 4.92538 0
M  V30 691 H 58.189 3.69936 4.72512 0
M  V30 692 H 59.259 3.53285 3.32142 0
M  V30 693 N 60.6021 -1.18246 1.0419 0
M  V30 694 C 61.5321 -2.24127 0.654914 0
M  V30 695 C 62.5131 -1.66617 -0.342451 0
M  V30 696 O 63.6981 -1.92924 -0.222277 0
M  V30 697 C 60.8281 -3.47295 0.0183757 0
M  V30 698 C 59.7821 -4.17563 0.939414 0
M  V30 699 C 59.1081 -5.34438 0.167286 0
M  V30 700 C 60.4081 -4.70917 2.25908 0
M  V30 701 H 62.1021 -2.56753 1.54007 0
M  V30 702 H 59.6481 -1.23414 0.74195 0
M  V30 703 H 61.6011 -4.20572 -0.264082 0
M  V30 704 H 60.3251 -3.13907 -0.901664 0
M  V30 705 H 58.9841 -3.46186 1.20628 0
M  V30 706 H 58.6321 -4.97298 -0.7552 0
M  V30 707 H 58.3321 -5.82388 0.780901 0
M  V30 708 H 59.8561 -6.10504 -0.108125 0
M  V30 709 H 61.2701 -5.35882 2.03724 0
M  V30 710 H 59.6671 -5.29406 2.82577 0
M  V30 711 H 60.7371 -3.88272 2.9047 0
M  V30 712 N 62.0802 -0.821533 -1.34494 0
M  V30 713 C 62.9902 -0.244355 -2.33324 0
M  V30 714 C 64.0062 0.620527 -1.62559 0
M  V30 715 O 65.1822 0.528754 -1.94335 0
M  V30 716 C 62.2472 0.585368 -3.41723 0
M  V30 717 C 61.3082 -0.301752 -4.28238 0
M  V30 718 C 60.5412 0.488466 -5.3146 0
M  V30 719 O 60.7642 1.72186 -5.4379 0
M  V30 720 O 59.6982 -0.12848 -6.01763 0
M  V30 721 H 63.5242 -1.06231 -2.84515 0
M  V30 722 H 61.1092 -0.583645 -1.37528 0
M  V30 723 H 62.9912 1.05747 -4.07916 0
M  V30 724 H 61.6662 1.38068 -2.92778 0
M  V30 725 H 60.5732 -0.821315 -3.64973 0
M  V30 726 H 61.9062 -1.06138 -4.8062 0
M  V30 727 N 63.5583 1.46682 -0.576371 0
M  V30 728 C 64.5213 2.28707 0.150239 0
M  V30 729 C 65.5213 1.38035 0.824794 0
M  V30 730 O 66.7113 1.60476 0.677719 0
M  V30 731 C 63.8433 3.18248 1.22192 0
M  V30 732 H 65.0363 2.94423 -0.570521 0
M  V30 733 H 62.5893 1.52688 -0.334078 0
M  V30 734 H 63.3243 2.57265 1.97447 0
M  V30 735 H 63.1093 3.85 0.742812 0
M  V30 736 H 64.5993 3.80001 1.73172 0
M  V30 737 N 65.0364 0.313813 1.54444 0
M  V30 738 C 65.9834 -0.55655 2.23989 0
M  V30 739 C 66.9534 -1.11943 1.22711 0
M  V30 740 O 68.1384 -1.16158 1.51367 0
M  V30 741 C 65.2784 -1.71635 2.99392 0
M  V30 742 C 64.3914 -1.18364 4.15468 0
M  V30 743 C 63.5264 -2.30834 4.78424 0
M  V30 744 C 62.5654 -1.74762 5.86622 0
M  V30 745 N 61.7024 -2.80855 6.43479 0
M  V30 746 H 66.5424 0.0430893 2.97969 0
M  V30 747 H 64.0794 0.0330359 1.47063 0
M  V30 748 H 66.0374 -2.39868 3.41349 0
M  V30 749 H 64.6674 -2.28742 2.27765 0
M  V30 750 H 63.7194 -0.393163 3.78363 0
M  V30 751 H 65.0314 -0.733262 4.93381 0
M  V30 752 H 64.1854 -3.0699 5.23299 0
M  V30 753 H 62.9244 -2.79204 3.99871 0
M  V30 754 H 61.9294 -0.970995 5.41158 0
M  V30 755 H 63.1544 -1.2728 6.67066 0
M  V30 756 H 61.1004 -3.28535 5.67804 0
M  V30 757 H 61.0174 -2.40351 7.16776 0
M  V30 758 H 62.2854 -3.5687 6.93011 0
M  V30 759 N 66.5145 -1.57545 0.0417849 0
M  V30 760 C 67.4615 -2.10977 -0.935805 0
M  V30 761 C 68.4315 -1.01486 -1.31491 0
M  V30 762 O 69.6165 -1.2898 -1.40602 0
M  V30 763 C 66.7565 -2.65169 -2.2086 0
M  V30 764 C 65.8695 -3.88714 -1.88482 0
M  V30 765 C 65.0045 -4.31254 -3.1015 0
M  V30 766 C 64.0435 -5.47524 -2.7365 0
M  V30 767 N 63.1805 -5.85162 -3.87982 0
M  V30 768 H 68.0205 -2.94218 -0.473249 0
M  V30 769 H 65.5575 -1.45415 -0.221981 0
M  V30 770 H 67.5155 -2.94685 -2.95325 0
M  V30 771 H 66.1455 -1.8474 -2.64709 0
M  V30 772 H 65.1975 -3.65849 -1.04205 0
M  V30 773 H 66.5095 -4.73245 -1.57608 0
M  V30 774 H 65.6635 -4.62273 -3.92923 0
M  V30 775 H 64.4025 -3.45516 -3.44195 0
M  V30 776 H 63.4075 -5.16187 -1.89291 0
M  V30 777 H 64.6325 -6.34971 -2.40807 0
M  V30 778 H 62.5785 -5.02377 -4.21846 0
M  V30 779 H 62.4955 -6.64362 -3.60775 0
M  V30 780 H 63.7635 -6.20791 -4.71422 0
M  V30 781 N 67.9926 0.231505 -1.5589 0
M  V30 782 C 69.2226 0.973092 -1.82248 0
M  V30 783 C 69.6306 1.78845 -0.617328 0
M  V30 784 O 68.9736 1.78752 0.423499 0
M  V30 785 C 69.0356 1.94732 -3.02192 0
M  V30 786 C 68.6996 1.31743 -4.37599 0
M  V30 787 C 69.6966 0.712238 -5.14998 0
M  V30 788 C 67.3816 1.33218 -4.84312 0
M  V30 789 C 69.3756 0.130195 -6.37267 0
M  V30 790 C 67.0626 0.746286 -6.06526 0
M  V30 791 C 68.0606 0.146337 -6.82843 0
M  V30 792 O 67.7486 -0.430465 -8.02747 0
M  V30 793 H 67.4806 0.29125 -0.61004 0
M  V30 794 H 70.0346 0.254915 -2.03812 0
M  V30 795 H 68.2646 2.70422 -2.76422 0
M  V30 796 H 69.9536 2.55362 -3.15508 0
M  V30 797 H 70.7196 0.69324 -4.8002 0
M  V30 798 H 66.5986 1.78854 -4.24891 0
M  V30 799 H 70.1426 -0.33871 -6.96777 0
M  V30 800 H 66.0396 0.762663 -6.40979 0
M  V30 801 H 66.8076 -0.323818 -8.17859 0
M  V30 802 N 69.4707 1.49531 0.497807 0
M  V30 803 C 70.4007 1.6935 1.60757 0
M  V30 804 C 71.3817 0.542218 1.61227 0
M  V30 805 O 72.5667 0.778417 1.77917 0
M  V30 806 C 69.6967 1.76298 2.99226 0
M  V30 807 C 68.6507 2.91248 3.13622 0
M  V30 808 C 67.9767 2.83312 4.53474 0
M  V30 809 C 69.2767 4.3214 2.93346 0
M  V30 810 H 70.9707 2.62263 1.44425 0
M  V30 811 H 68.5167 1.26208 0.693367 0
M  V30 812 H 70.4697 1.88749 3.76765 0
M  V30 813 H 69.1937 0.799871 3.16654 0
M  V30 814 H 67.8527 2.78404 2.38509 0
M  V30 815 H 67.5007 1.84902 4.67782 0
M  V30 816 H 67.2007 3.60465 4.64046 0
M  V30 817 H 68.7247 2.97775 5.33069 0
M  V30 818 H 70.1387 4.45649 3.60652 0
M  V30 819 H 68.5357 5.1054 3.15387 0
M  V30 820 H 69.6057 4.46363 1.89441 0
M  V30 821 N 70.9488 -0.749086 1.3866 0
M  V30 822 C 71.8968 -1.88428 1.36373 0
M  V30 823 C 72.8908 -1.67561 0.248929 0
M  V30 824 O 74.0968 -1.75074 0.41821 0
M  V30 825 H 70.4718 -0.620023 0.42553 0
M  V30 826 H 72.4428 -1.87473 2.32156 0
M  V30 827 C 71.1918 -3.25961 1.21014 0
M  V30 828 H 70.5148 -3.42607 2.06059 0
M  V30 829 H 71.9548 -4.05625 1.23469 0
M  V30 830 C 70.4138 -3.36799 -0.0825941 0
M  V30 831 O 70.9438 -3.87517 -1.05797 0
M  V30 832 N 69.1498 -2.90258 -0.140939 0
M  V30 833 H 68.6968 -2.49174 0.653477 0
M  V30 834 H 68.6548 -2.97889 -1.00545 0
M  V30 835 N 72.4269 -1.23603 -0.977757 0
M  V30 836 C 73.7039 -0.977897 -1.69401 0
M  V30 837 C 74.0839 0.502738 -2.05026 0
M  V30 838 O 73.4319 1.47459 -1.74551 0
M  V30 839 C 73.6419 -1.89077 -2.93345 0
M  V30 840 C 74.9899 -2.15579 -3.65802 0
M  V30 841 O 76.0139 -1.86648 -3.03383 0
M  V30 842 O 74.8729 -2.64658 -4.78141 0
M  V30 843 H 71.9669 -0.369025 -0.740101 0
M  V30 844 H 74.5129 -1.34657 -1.03274 0
M  V30 845 H 73.2849 -2.89158 -2.63634 0
M  V30 846 H 72.9079 -1.52463 -3.67207 0
M  V30 847 N 73.905 1.17692 -1.04816 0
M  V30 848 C 75.151 1.88137 -0.75711 0
M  V30 849 C 75.484 1.80604 0.713841 0
M  V30 850 O 74.759 1.21146 1.52164 0
M  V30 851 C 75.042 3.38318 -1.2334 0
M  V30 852 C 74.895 3.54622 -2.76701 0
M  V30 853 C 76.214 4.32214 -0.829415 0
M  V30 854 H 73.333 0.683163 -0.27651 0
M  V30 855 H 75.975 1.38424 -1.30149 0
M  V30 856 H 74.125 3.80787 -0.770286 0
M  V30 857 H 75.797 3.21194 -3.31107 0
M  V30 858 H 74.04 2.97026 -3.16161 0
M  V30 859 H 74.711 4.60028 -3.05088 0
M  V30 860 H 77.187 3.97565 -1.22805 0
M  V30 861 H 76.063 5.35838 -1.19033 0
M  V30 862 H 76.324 4.41294 0.266891 0
M  V30 863 N 75.3831 0.828654 1.34056 0
M  V30 864 C 76.6321 0.415828 1.97367 0
M  V30 865 C 76.9451 -1.02796 1.6641 0
M  V30 866 O 78.1511 -1.54497 2.23255 0
M  V30 867 C 76.6071 0.692601 3.53173 0
M  V30 868 C 76.2151 2.15038 3.93017 0
M  V30 869 C 77.9591 0.346222 4.23086 0
M  V30 870 C 75.8661 2.37174 5.41758 0
M  V30 871 H 74.7961 0.151755 0.738571 0
M  V30 872 H 77.4471 1.01581 1.52819 0
M  V30 873 H 75.8291 0.0223764 3.95994 0
M  V30 874 H 77.0031 2.86024 3.61285 0
M  V30 875 H 75.3181 2.45875 3.36057 0
M  V30 876 H 77.9151 0.48937 5.32456 0
M  V30 877 H 78.2581 -0.709842 4.10204 0
M  V30 878 H 78.7911 0.971258 3.85761 0
M  V30 879 H 75.5301 3.41308 5.59633 0
M  V30 880 H 75.0501 1.70738 5.74986 0
M  V30 881 H 76.7291 2.19818 6.08514 0
M  V30 882 N 76.8612 -1.46375 0.584142 0
M  V30 883 C 77.7712 -2.34115 -0.150728 0
M  V30 884 C 78.7872 -1.49838 -0.884567 0
M  V30 885 O 79.9632 -1.82704 -0.847429 0
M  V30 886 C 77.0282 -3.2705 -1.15062 0
M  V30 887 C 76.0892 -4.27228 -0.421293 0
M  V30 888 C 75.3222 -5.15722 -1.37355 0
M  V30 889 O 75.5452 -5.07176 -2.61014 0
M  V30 890 O 74.4792 -5.95383 -0.883355 0
M  V30 891 H 78.3052 -2.98309 0.569708 0
M  V30 892 H 75.8902 -1.45373 0.344535 0
M  V30 893 H 77.7722 -3.84381 -1.72712 0
M  V30 894 H 76.4472 -2.65451 -1.8525 0
M  V30 895 H 75.3542 -3.7358 0.197085 0
M  V30 896 H 76.6872 -4.91616 0.239641 0
M  V30 897 N 78.3393 -0.321999 -1.54275 0
M  V30 898 C 79.2863 0.544664 -2.24281 0
M  V30 899 C 80.2563 1.1129 -1.23303 0
M  V30 900 O 81.4413 1.15354 -1.51981 0
M  V30 901 C 78.5813 1.70045 -3.00298 0
M  V30 902 C 77.6943 1.16159 -4.1609 0
M  V30 903 C 76.8293 2.28293 -4.79641 0
M  V30 904 C 75.8683 1.71648 -5.8754 0
M  V30 905 N 75.0053 2.77438 -6.44959 0
M  V30 906 H 79.8453 -0.0588907 -2.97942 0
M  V30 907 H 77.3823 -0.0408345 -1.47043 0
M  V30 908 H 79.3403 2.38054 -3.42616 0
M  V30 909 H 77.9703 2.27531 -2.28975 0
M  V30 910 H 77.0223 0.373092 -3.78566 0
M  V30 911 H 78.3343 0.707087 -4.93763 0
M  V30 912 H 77.4883 3.0421 -5.2492 0
M  V30 913 H 76.2273 2.77079 -4.01346 0
M  V30 914 H 75.2323 0.942282 -5.41665 0
M  V30 915 H 76.4573 1.23741 -6.67731 0
M  V30 916 H 74.4033 3.25519 -5.69538 0
M  V30 917 H 74.3203 2.36547 -7.1804 0
M  V30 918 H 75.5883 3.53189 -6.94894 0
M  V30 919 N 79.8174 1.5752 -0.0501392 0
M  V30 920 C 80.7644 2.1147 0.924603 0
M  V30 921 C 81.7344 1.02182 1.30951 0
M  V30 922 O 82.9194 1.29723 1.39916 0
M  V30 923 C 80.0594 2.66337 2.19451 0
M  V30 924 C 79.1724 3.89708 1.86418 0
M  V30 925 C 78.3074 4.32893 3.07859 0
M  V30 926 C 77.3464 5.48967 2.70742 0
M  V30 927 N 76.4834 5.87211 3.84874 0
M  V30 928 H 81.3234 2.94465 0.457639 0
M  V30 929 H 78.8604 1.45531 0.214266 0
M  V30 930 H 80.8184 2.96247 2.93758 0
M  V30 931 H 79.4484 1.86141 2.63726 0
M  V30 932 H 78.5004 3.66396 1.02264 0
M  V30 933 H 79.8124 4.74074 1.55096 0
M  V30 934 H 78.9664 4.6435 3.90466 0
M  V30 935 H 77.7054 3.47336 3.42358 0
M  V30 936 H 76.7104 5.17183 1.86551 0
M  V30 937 H 77.9354 6.3624 2.37436 0
M  V30 938 H 75.8814 5.04607 4.19175 0
M  V30 939 H 75.7984 6.66266 3.57247 0
M  V30 940 H 77.0664 6.23282 4.68123 0
M  V30 941 N 81.2955 -0.223234 1.56011 0
M  V30 942 C 82.7115 -0.572856 1.48965 0
M  V30 943 C 82.9115 -1.87225 0.74492 0
M  V30 944 O 81.9675 -2.50899 0.283896 0
M  V30 945 C 83.2805 -0.653646 2.9351 0
M  V30 946 C 84.8285 -0.744386 3.0402 0
M  V30 947 C 85.3035 -0.856535 4.49919 0
M  V30 948 N 86.7945 -0.9208 4.53955 0
M  V30 949 C 87.5295 -1.02726 5.64123 0
M  V30 950 N 87.0255 -1.09777 6.84047 0
M  V30 951 N 88.8185 -1.06226 5.51971 0
M  V30 952 H 80.9695 0.629462 2.02858 0
M  V30 953 H 83.2325 0.220621 0.921971 0
M  V30 954 H 82.9385 0.231518 3.50937 0
M  V30 955 H 82.8125 -1.51781 3.45315 0
M  V30 956 H 85.1995 -1.61999 2.46658 0
M  V30 957 H 85.2805 0.14541 2.55386 0
M  V30 958 H 84.9245 0.0146069 5.07898 0
M  V30 959 H 84.8545 -1.76172 4.96257 0
M  V30 960 H 87.3455 -0.876694 3.6759 0
M  V30 961 H 87.6585 -1.17872 7.63758 0
M  V30 962 H 86.0035 -1.06693 6.86762 0
M  V30 963 H 89.1945 -1.00382 4.5721 0
M  V30 964 H 89.3675 -1.14177 6.37862 0
M  V30 965 N 82.7736 -1.49793 -0.48987 0
M  V30 966 C 84.0136 -1.61466 -1.25332 0
M  V30 967 C 84.3776 -0.299688 -1.89647 0
M  V30 968 O 85.5786 -0.291687 -2.67213 0
M  V30 969 C 83.8496 -2.74944 -2.28343 0
M  V30 970 S 85.4086 -3.06637 -3.13878 0
M  V30 971 H 82.2266 -0.569411 -0.425784 0
M  V30 972 H 84.8286 -1.875 -0.553541 0
M  V30 973 H 83.5326 -3.68994 -1.79643 0
M  V30 974 H 83.0636 -2.50938 -3.02975 0
M  V30 975 H 85.0786 -2.49015 -4.29192 0
M  V30 976 N 84.2517 0.741722 -1.39055 0
M  V30 977 C 85.4977 1.50336 -1.36113 0
M  V30 978 C 85.8307 1.94148 0.0450796 0
M  V30 979 O 85.1057 1.66301 1.00868 0
M  V30 980 C 85.3887 2.74773 -2.32749 0
M  V30 981 C 85.2417 2.37023 -3.82283 0
M  V30 982 C 86.5607 3.76846 -2.27322 0
M  V30 983 H 83.6797 0.545351 -0.495743 0
M  V30 984 H 86.3217 0.848624 -1.69995 0
M  V30 985 H 84.4717 3.30639 -2.03986 0
M  V30 986 H 86.1437 1.8684 -4.21768 0
M  V30 987 H 84.3867 1.69334 -3.99385 0
M  V30 988 H 85.0577 3.26104 -4.45376 0
M  V30 989 H 87.5337 3.30548 -2.5274 0
M  V30 990 H 86.4097 4.6159 -2.97028 0
M  V30 991 H 86.6707 4.23286 -1.27599 0
M  V30 992 N 85.7298 1.2412 0.971189 0
M  V30 993 C 87.1408 1.07236 1.52831 0
M  V30 994 C 87.4918 -0.357352 1.92918 0
M  V30 995 O 86.6168 -1.24528 1.76979 0
M  V30 996 C 87.2118 1.94043 2.77728 0
M  V30 997 C 85.7708 1.81394 3.29808 0
M  V30 998 C 84.9178 1.89189 2.02738 0
M  V30 999 H 87.8688 1.37648 0.789864 0
M  V30 1000 H 87.8898 1.47066 3.5093 0
M  V30 1001 H 87.4018 2.98093 2.4852 0
M  V30 1002 H 85.5028 0.801634 3.63874 0
M  V30 1003 H 85.6158 2.65294 3.98944 0
M  V30 1004 H 83.9798 1.32877 2.17292 0
M  V30 1005 H 84.7628 2.94812 1.759 0
M  V30 1006 N 87.2079 -1.17134 1.05439 0
M  V30 1007 C 88.4549 -1.87456 0.765942 0
M  V30 1008 C 88.7829 -1.81189 -0.707153 0
M  V30 1009 O 88.0379 -1.21633 -1.5331 0
M  V30 1010 C 88.3369 -3.36833 1.19491 0
M  V30 1011 C 88.0029 -3.63301 2.67063 0
M  V30 1012 C 86.6649 -3.70234 3.07376 0
M  V30 1013 C 89.0169 -3.74575 3.62413 0
M  V30 1014 C 86.3449 -3.85933 4.41896 0
M  V30 1015 C 88.6969 -3.91793 4.9667 0
M  V30 1016 C 87.3609 -3.96966 5.36633 0
M  V30 1017 H 86.6309 -0.685948 0.280278 0
M  V30 1018 H 89.2779 -1.38556 1.32192 0
M  V30 1019 H 87.5829 -3.87807 0.557969 0
M  V30 1020 H 89.2799 -3.89611 0.948893 0
M  V30 1021 H 85.8699 -3.58532 2.34846 0
M  V30 1022 H 90.0539 -3.68537 3.32406 0
M  V30 1023 H 85.3099 -3.88187 4.72357 0
M  V30 1024 H 89.4839 -3.99458 5.70444 0
M  V30 1025 H 87.1109 -4.08883 6.40874 0
M  V30 1026 N 88.686 -0.835752 -1.33615 0
M  V30 1027 C 90.102 -0.523139 -1.50783 0
M  V30 1028 C 90.302 0.950171 -1.77691 0
M  V30 1029 O 89.358 1.73411 -1.83534 0
M  V30 1030 C 90.671 -1.39378 -2.66448 0
M  V30 1031 C 92.219 -1.39223 -2.80332 0
M  V30 1032 C 92.694 -2.24765 -3.99055 0
M  V30 1033 N 94.185 -2.22458 -4.06284 0
M  V30 1034 C 94.92 -2.85386 -4.97336 0
M  V30 1035 N 94.416 -3.57354 -5.93523 0
M  V30 1036 N 96.209 -2.74872 -4.90308 0
M  V30 1037 H 88.36 -1.78952 -1.14411 0
M  V30 1038 H 90.623 -0.763297 -0.562212 0
M  V30 1039 H 90.329 -2.44061 -2.53234 0
M  V30 1040 H 90.203 -1.0676 -3.61776 0
M  V30 1041 H 92.59 -0.353136 -2.92979 0
M  V30 1042 H 92.671 -1.75846 -1.85773 0
M  V30 1043 H 92.315 -3.28732 -3.87167 0
M  V30 1044 H 92.245 -1.85485 -4.92852 0
M  V30 1045 H 94.736 -1.70119 -3.37443 0
M  V30 1046 H 95.049 -4.02584 -6.59656 0
M  V30 1047 H 93.394 -3.61461 -5.93608 0
M  V30 1048 H 96.585 -2.18213 -4.14126 0
M  V30 1049 H 96.758 -3.24199 -5.61069 0
M  V30 1050 N 90.1641 1.46063 -0.591896 0
M  V30 1051 C 91.1111 2.30399 0.136069 0
M  V30 1052 C 92.0811 1.41169 0.875238 0
M  V30 1053 O 93.2661 1.70112 0.86409 0
M  V30 1054 C 90.4061 3.25804 1.13781 0
M  V30 1055 C 89.5191 4.30134 0.401137 0
M  V30 1056 C 88.6541 5.12659 1.39121 0
M  V30 1057 C 87.6931 6.0873 0.641462 0
M  V30 1058 N 86.8301 6.8409 1.58004 0
M  V30 1059 H 91.6701 2.92118 -0.589144 0
M  V30 1060 H 89.2071 1.43959 -0.302342 0
M  V30 1061 H 91.1651 3.79569 1.73156 0
M  V30 1062 H 89.7951 2.65872 1.83062 0
M  V30 1063 H 88.8471 3.79152 -0.307826 0
M  V30 1064 H 90.1591 4.98458 -0.184565 0
M  V30 1065 H 89.3131 5.70747 2.05749 0
M  V30 1066 H 88.0521 4.44316 2.01084 0
M  V30 1067 H 87.0571 5.49786 -0.0385419 0
M  V30 1068 H 88.2821 6.79095 0.0270945 0
M  V30 1069 H 86.2281 6.18449 2.18761 0
M  V30 1070 H 86.1451 7.48709 1.04738 0
M  V30 1071 H 87.4131 7.4673 2.23639 0
M  V30 1072 N 91.6422 0.330177 1.54103 0
M  V30 1073 C 92.8722 -0.271784 2.04805 0
M  V30 1074 C 93.2802 -1.45816 1.20559 0
M  V30 1075 O 92.6232 -1.82247 0.2306 0
M  V30 1076 C 92.6852 -0.763238 3.51305 0
M  V30 1077 C 92.3492 0.301705 4.56003 0
M  V30 1078 C 93.3462 1.13999 5.07248 0
M  V30 1079 C 91.0312 0.451793 5.00264 0
M  V30 1080 C 93.0252 2.11402 6.01322 0
M  V30 1081 C 90.7122 1.42924 5.94151 0
M  V30 1082 C 91.7102 2.25882 6.44567 0
M  V30 1083 O 91.3982 3.21965 7.3661 0
M  V30 1084 H 91.1302 -0.058693 0.673447 0
M  V30 1085 H 93.6842 0.476395 1.99799 0
M  V30 1086 H 91.9142 -1.56244 3.5373 0
M  V30 1087 H 93.6032 -1.28427 3.85047 0
M  V30 1088 H 94.3692 1.03505 4.73827 0
M  V30 1089 H 90.2482 -0.184044 4.60632 0
M  V30 1090 H 93.7922 2.76192 6.40596 0
M  V30 1091 H 89.6892 1.53479 6.26988 0
M  V30 1092 H 90.4572 3.17281 7.54503 0
M  V30 1093 N 93.1203 -1.57491 0.0584922 0
M  V30 1094 C 94.0683 -2.13148 -0.931168 0
M  V30 1095 C 95.0623 -1.06507 -1.31729 0
M  V30 1096 O 96.2683 -1.24906 -1.29609 0
M  V30 1097 H 92.6433 -0.68137 -0.31818 0
M  V30 1098 H 94.6143 -2.95187 -0.436707 0
M  V30 1099 C 93.3633 -2.69732 -2.19408 0
M  V30 1100 H 92.6863 -3.51454 -1.90578 0
M  V30 1101 H 94.1263 -3.12287 -2.86798 0
M  V30 1102 C 92.5853 -1.63855 -2.94369 0
M  V30 1103 O 93.1153 -1.05565 -3.87581 0
M  V30 1104 N 91.3213 -1.35202 -2.57233 0
M  V30 1105 H 90.8683 -1.82791 -1.81508 0
M  V30 1106 H 90.8263 -0.645922 -3.07693 0
M  V30 1107 N 94.5984 0.214957 -1.56127 0
M  V30 1108 C 95.8464 0.936518 -1.79091 0
M  V30 1109 C 96.1674 1.84606 -0.628148 0
M  V30 1110 O 95.4374 1.92664 0.35462 0
M  V30 1111 H 94.0174 0.3488 -0.660566 0
M  V30 1112 H 96.6794 0.22523 -1.93594 0
M  V30 1113 H 95.7754 1.53943 -2.71492 0
M  V30 1114 N 96.0765 1.50051 0.48192 0
M  V30 1115 C 97.3245 1.60181 1.23234 0
M  V30 1116 C 97.6455 0.299176 1.92691 0
M  V30 1117 O 96.9155 -0.682708 1.83619 0
M  V30 1118 H 95.4955 0.590232 0.457859 0
M  V30 1119 H 98.1575 1.86775 0.556881 0
M  V30 1120 H 97.2535 2.40753 1.98607 0
M  V30 1121 N 97.5546 -0.734337 1.39446 0
M  V30 1122 C 98.8006 -1.49613 1.36908 0
M  V30 1123 C 99.1336 -1.94169 -0.0347829 0
M  V30 1124 O 98.4086 -1.66833 -0.999847 0
M  V30 1125 C 98.6916 -2.73534 2.34203 0
M  V30 1126 C 98.5446 -2.34993 3.83534 0
M  V30 1127 C 99.8636 -3.75635 2.29317 0
M  V30 1128 H 96.9826 -0.542714 0.498629 0
M  V30 1129 H 99.6246 -0.839597 1.70443 0
M  V30 1130 H 97.7746 -3.29553 2.05736 0
M  V30 1131 H 99.4466 -1.84601 4.22753 0
M  V30 1132 H 97.6896 -1.67213 4.00278 0
M  V30 1133 H 98.3606 -3.23738 4.47099 0
M  V30 1134 H 100.837 -3.29203 2.54489 0
M  V30 1135 H 99.7126 -4.60008 2.99472 0
M  V30 1136 H 99.9736 -4.22603 1.29842 0
M  V30 1137 N 99.0327 -1.24633 -0.964593 0
M  V30 1138 C 100.281 -1.08573 -1.70459 0
M  V30 1139 C 100.602 0.375655 -1.91347 0
M  V30 1140 O 99.8717 1.26779 -1.49345 0
M  V30 1141 H 98.4517 -0.398784 -0.631649 0
M  V30 1142 H 101.114 -1.56601 -1.16026 0
M  V30 1143 H 100.21 -1.58623 -2.68785 0
M  V30 1144 N 100.511 1.16574 -1.06058 0
M  V30 1145 C 101.927 1.3904 -0.783585 0
M  V30 1146 C 102.127 1.91784 0.618145 0
M  V30 1147 O 101.183 2.11511 1.37911 0
M  V30 1148 C 102.496 2.37329 -1.84649 0
M  V30 1149 C 104.044 2.51018 -1.86973 0
M  V30 1150 C 104.519 3.52588 -2.92311 0
M  V30 1151 N 106.01 3.60113 -2.91329 0
M  V30 1152 C 106.745 4.38486 -3.69482 0
M  V30 1153 N 106.241 5.20302 -4.57447 0
M  V30 1154 N 108.034 4.33446 -3.57885 0
M  V30 1155 H 100.185 0.806725 -1.96483 0
M  V30 1156 H 102.448 0.417117 -0.851303 0
M  V30 1157 H 102.154 2.05663 -2.85299 0
M  V30 1158 H 102.028 3.36946 -1.6955 0
M  V30 1159 H 104.415 2.81989 -0.869827 0
M  V30 1160 H 104.496 1.51445 -2.0615 0
M  V30 1161 H 104.14 3.22354 -3.92492 0
M  V30 1162 H 104.07 4.51886 -2.70383 0
M  V30 1163 H 106.561 3.01707 -2.27555 0
M  V30 1164 H 106.874 5.77311 -5.13743 0
M  V30 1165 H 105.219 5.19653 -4.61503 0
M  V30 1166 H 108.41 3.68586 -2.88551 0
M  V30 1167 H 108.583 4.94279 -4.19037 0
M  V30 1168 N 101.989 0.842826 1.3317 0
M  V30 1169 C 103.217 0.454055 2.01856 0
M  V30 1170 C 103.632 -0.94587 1.63397 0
M  V30 1171 O 102.989 -1.61534 0.849302 0
M  V30 1172 C 103.04 0.569715 3.56982 0
M  V30 1173 O 102.761 1.91448 3.94055 0
M  V30 1174 C 104.262 0.178412 4.42941 0
M  V30 1175 H 101.482 0.17979 0.646465 0
M  V30 1176 H 104.026 1.1365 1.70012 0
M  V30 1177 H 102.181 -0.0648587 3.87346 0
M  V30 1178 H 102.595 1.90282 4.88767 0
M  V30 1179 H 104.069 0.310376 5.51127 0
M  V30 1180 H 104.546 -0.880056 4.30293 0
M  V30 1181 H 105.152 0.787579 4.17944 0
M  V30 1182 N 103.467 -1.45747 0.599634 0
M  V30 1183 C 104.415 -2.322 -0.136426 0
M  V30 1184 C 105.409 -1.45497 -0.867583 0
M  V30 1185 O 106.615 -1.62027 -0.78405 0
M  V30 1186 H 102.99 -0.749368 -0.0628588 0
M  V30 1187 H 104.961 -2.92072 0.611281 0
M  V30 1188 C 103.71 -3.28974 -1.12567 0
M  V30 1189 H 103.033 -3.9568 -0.572484 0
M  V30 1190 H 104.473 -3.92212 -1.61077 0
M  V30 1191 C 102.932 -2.55561 -2.19523 0
M  V30 1192 O 103.462 -2.33111 -3.27143 0
M  V30 1193 N 101.668 -2.15832 -1.94589 0
M  V30 1194 H 101.215 -2.3429 -1.07078 0
M  V30 1195 H 101.173 -1.67034 -2.66359 0
M  V30 1196 N 104.945 -0.338344 -1.53925 0
M  V30 1197 C 105.877 0.555117 -2.22376 0
M  V30 1198 C 106.89 1.06812 -1.22862 0
M  V30 1199 O 108.079 0.979163 -1.49247 0
M  V30 1200 C 105.179 1.77609 -2.88631 0
M  V30 1201 C 104.352 1.39927 -4.14414 0
M  V30 1202 C 103.411 2.47936 -4.64127 0
M  V30 1203 O 102.437 2.11461 -5.28463 0
M  V30 1204 N 103.639 3.79107 -4.39612 0
M  V30 1205 H 106.404 -0.0310778 -2.99684 0
M  V30 1206 H 103.965 -0.162226 -1.61085 0
M  V30 1207 H 105.957 2.49287 -3.18807 0
M  V30 1208 H 104.527 2.26978 -2.14941 0
M  V30 1209 H 103.747 0.513481 -3.90841 0
M  V30 1210 H 105.035 1.12341 -4.96243 0
M  V30 1211 H 104.433 4.11531 -3.88148 0
M  V30 1212 H 102.99 4.4697 -4.74406 0
M  V30 1213 N 106.423 1.57458 -0.0668435 0
M  V30 1214 C 107.386 2.11323 0.887422 0
M  V30 1215 C 108.386 1.03618 1.22964 0
M  V30 1216 O 109.576 1.29626 1.16373 0
M  V30 1217 C 106.708 2.61048 2.19242 0
M  V30 1218 H 107.901 2.96942 0.420194 0
M  V30 1219 H 105.454 1.55239 0.181793 0
M  V30 1220 H 106.189 1.78868 2.70512 0
M  V30 1221 H 105.974 3.39769 1.95702 0
M  V30 1222 H 107.464 3.02814 2.87565 0
M  V30 1223 N 107.901 -0.206675 1.56239 0
M  V30 1224 C 108.848 -1.25617 1.93621 0
M  V30 1225 C 109.818 -1.45824 0.795274 0
M  V30 1226 O 111.003 -1.59148 1.05245 0
M  V30 1227 C 108.143 -2.59839 2.27107 0
M  V30 1228 C 107.256 -2.47308 3.54207 0
M  V30 1229 C 106.391 -3.74155 3.7707 0
M  V30 1230 C 105.43 -3.56407 4.97635 0
M  V30 1231 N 104.567 -4.75238 5.1681 0
M  V30 1232 H 109.407 -0.930383 2.83104 0
M  V30 1233 H 106.944 -0.448065 1.4011 0
M  V30 1234 H 108.902 -3.38021 2.44535 0
M  V30 1235 H 107.532 -2.90485 1.40778 0
M  V30 1236 H 106.584 -1.60483 3.4489 0
M  V30 1237 H 107.896 -2.30122 4.42544 0
M  V30 1238 H 107.05 -4.60778 3.94675 0
M  V30 1239 H 105.789 -3.94282 2.87042 0
M  V30 1240 H 104.794 -2.68168 4.79964 0
M  V30 1241 H 106.019 -3.37736 5.89161 0
M  V30 1242 H 103.965 -4.95651 4.29728 0
M  V30 1243 H 103.882 -4.60835 5.99306 0
M  V30 1244 H 105.15 -5.63246 5.38864 0
M  V30 1245 N 109.379 -1.50304 -0.473955 0
M  V30 1246 C 110.289 -1.7174 -1.5982 0
M  V30 1247 C 111.305 -0.600457 -1.63311 0
M  V30 1248 O 112.481 -0.878441 -1.81233 0
M  V30 1249 C 109.546 -1.80427 -2.96052 0
M  V30 1250 C 108.607 -3.04148 -3.02972 0
M  V30 1251 C 107.84 -3.12411 -4.32706 0
M  V30 1252 O 108.063 -2.27542 -5.23049 0
M  V30 1253 O 106.997 -4.05113 -4.45159 0
M  V30 1254 H 110.823 -2.67035 -1.44657 0
M  V30 1255 H 108.408 -1.34366 -0.653148 0
M  V30 1256 H 110.29 -1.88338 -3.7697 0
M  V30 1257 H 108.965 -0.883156 -3.11419 0
M  V30 1258 H 107.872 -3.0174 -2.21142 0
M  V30 1259 H 109.205 -3.95829 -2.92541 0
M  V30 1260 N 110.857 0.726932 -1.39834 0
M  V30 1261 C 112.104 1.48664 -1.37496 0
M  V30 1262 C 112.432 1.94482 0.0264678 0
M  V30 1263 O 111.687 1.67692 1.00886 0
M  V30 1264 C 111.986 2.73495 -2.30077 0
M  V30 1265 C 111.652 2.46502 -3.77555 0
M  V30 1266 C 110.314 2.3885 -4.17737 0
M  V30 1267 C 112.666 2.23604 -4.70798 0
M  V30 1268 C 109.994 2.06352 -5.49214 0
M  V30 1269 C 112.346 1.92622 -6.02561 0
M  V30 1270 C 111.01 1.83444 -6.41798 0
M  V30 1271 H 110.28 0.544001 -0.503135 0
M  V30 1272 H 112.927 0.833657 -1.72402 0
M  V30 1273 H 111.232 3.43575 -1.88317 0
M  V30 1274 H 112.929 3.31549 -2.25558 0
M  V30 1275 H 109.519 2.5334 -3.45712 0
M  V30 1276 H 113.703 2.28479 -4.40581 0
M  V30 1277 H 108.959 1.97776 -5.78528 0
M  V30 1278 H 113.133 1.73914 -6.74334 0
M  V30 1279 H 110.76 1.58029 -7.43593 0
M  V30 1280 N 112.336 1.25143 0.95797 0
M  V30 1281 C 113.284 1.05019 2.07542 0
M  V30 1282 C 114.278 -0.0178751 1.69391 0
M  V30 1283 O 115.484 0.137472 1.79474 0
M  V30 1284 H 111.859 0.32265 0.679265 0
M  V30 1285 H 113.83 1.99759 2.21673 0
M  V30 1286 C 112.579 0.682074 3.40944 0
M  V30 1287 H 111.902 1.49573 3.70767 0
M  V30 1288 H 113.342 0.580945 4.20001 0
M  V30 1289 C 111.801 -0.611608 3.31302 0
M  V30 1290 O 112.331 -1.65465 3.66038 0
M  V30 1291 N 110.537 -0.595982 2.84423 0
M  V30 1292 H 110.084 0.253192 2.56353 0
M  V30 1293 H 110.042 -1.46173 2.78354 0
M  V30 1294 N 113.814 -1.1601 1.06675 0
M  V30 1295 C 114.764 -2.18512 0.650888 0
M  V30 1296 C 115.748 -1.57677 -0.320441 0
M  V30 1297 O 116.94 -1.76482 -0.135266 0
M  V30 1298 C 114.069 -3.43273 0.0429255 0
M  V30 1299 C 113.155 -4.11176 1.03898 0
M  V30 1300 N 113.546 -4.54672 2.216 0
M  V30 1301 C 111.844 -4.37417 0.870779 0
M  V30 1302 C 112.545 -5.07248 2.84736 0
M  V30 1303 N 111.521 -5.0037 2.12441 0
M  V30 1304 H 115.323 -2.49863 1.54745 0
M  V30 1305 H 112.837 -1.32503 0.938975 0
M  V30 1306 H 114.834 -4.16006 -0.272857 0
M  V30 1307 H 113.494 -3.13408 -0.84884 0
M  V30 1308 H 114.505 -4.4828 2.59356 0
M  V30 1309 H 111.182 -4.17488 0.0313293 0
M  V30 1310 H 112.572 -5.50912 3.84636 0
M  V30 1311 N 115.292 -0.849877 -1.32721 0
M  V30 1312 C 116.52 -0.464754 -2.01613 0
M  V30 1313 C 116.935 0.937191 -1.63897 0
M  V30 1314 O 116.292 1.61081 -0.857856 0
M  V30 1315 C 116.343 -0.588638 -3.56675 0
M  V30 1316 O 116.064 -1.93535 -3.93034 0
M  V30 1317 C 117.565 -0.2019 -4.4284 0
M  V30 1318 H 114.785 -0.183215 -0.645502 0
M  V30 1319 H 117.329 -1.1455 -1.69407 0
M  V30 1320 H 115.484 0.0443159 -3.87375 0
M  V30 1321 H 115.898 -1.92871 -4.87751 0
M  V30 1322 H 117.372 -0.339599 -5.50954 0
M  V30 1323 H 117.849 0.857224 -4.30753 0
M  V30 1324 H 118.455 -0.809733 -4.17521 0
M  V30 1325 N 116.77 1.45427 -0.607355 0
M  V30 1326 C 117.702 2.2871 0.149752 0
M  V30 1327 C 118.715 1.39937 0.831958 0
M  V30 1328 O 119.904 1.64313 0.697385 0
M  V30 1329 C 117.004 3.15673 1.23304 0
M  V30 1330 C 116.177 4.32722 0.637996 0
M  V30 1331 C 115.236 5.00895 1.61215 0
M  V30 1332 O 114.262 5.57697 1.13854 0
M  V30 1333 N 115.464 5.00159 2.94655 0
M  V30 1334 H 118.229 2.94328 -0.564882 0
M  V30 1335 H 115.79 1.55612 -0.446823 0
M  V30 1336 H 117.782 3.58144 1.88454 0
M  V30 1337 H 116.352 2.51965 1.8502 0
M  V30 1338 H 115.572 3.93734 -0.191572 0
M  V30 1339 H 116.86 5.08321 0.220665 0
M  V30 1340 H 116.258 4.553 3.35735 0
M  V30 1341 H 114.815 5.46495 3.55228 0
M  V30 1342 N 118.248 0.346503 1.53744 0
M  V30 1343 C 119.496 -0.248612 2.00565 0
M  V30 1344 C 119.817 -1.5083 1.23593 0
M  V30 1345 O 119.087 -1.92858 0.343912 0
M  V30 1346 H 117.667 -0.0948564 0.740953 0
M  V30 1347 H 120.329 0.468341 1.89189 0
M  V30 1348 H 119.425 -0.488994 3.08245 0
M  V30 1349 N 119.726 -1.57421 0.075193 0
M  V30 1350 C 121.142 -1.57099 -0.281444 0
M  V30 1351 C 121.342 -1.08486 -1.69803 0
M  V30 1352 O 120.398 -0.752279 -2.41033 0
M  V30 1353 C 121.711 -3.00571 -0.0880041 0
M  V30 1354 C 123.259 -3.12605 -0.157281 0
M  V30 1355 C 123.734 -4.57999 0.0079207 0
M  V30 1356 N 125.225 -4.63176 -0.0475725 0
M  V30 1357 C 125.96 -5.73373 0.0557876 0
M  V30 1358 N 125.456 -6.92473 0.21286 0
M  V30 1359 N 127.249 -5.621 -0.00152098 0
M  V30 1360 H 119.4 -1.87335 1.00098 0
M  V30 1361 H 121.663 -0.86377 0.390646 0
M  V30 1362 H 121.369 -3.40262 0.889629 0
M  V30 1363 H 121.243 -3.67754 -0.838875 0
M  V30 1364 H 123.63 -2.72798 -1.1254 0
M  V30 1365 H 123.711 -2.48053 0.62475 0
M  V30 1366 H 123.355 -4.98496 0.972824 0
M  V30 1367 H 123.285 -5.20586 -0.793556 0
M  V30 1368 H 125.776 -3.7753 -0.167244 0
M  V30 1369 H 126.089 -7.72279 0.283781 0
M  V30 1370 H 124.434 -6.94556 0.248267 0
M  V30 1371 H 127.625 -4.67938 -0.122958 0
M  V30 1372 H 127.798 -6.47948 0.0824844 0
M  V30 1373 N 121.204 0.198386 -1.56346 0
M  V30 1374 C 122.45 0.916115 -1.81601 0
M  V30 1375 C 122.805 1.81025 -0.651744 0
M  V30 1376 O 122.098 1.88316 0.353229 0
M  V30 1377 C 122.292 1.77031 -3.10475 0
M  V30 1378 C 122.121 0.960365 -4.39326 0
M  V30 1379 C 120.891 0.646093 -5.01152 0
M  V30 1380 C 123.089 0.314628 -5.13337 0
M  V30 1381 N 121.071 -0.182828 -6.13628 0
M  V30 1382 C 122.442 -0.37664 -6.18855 0
M  V30 1383 C 124.497 0.230019 -4.97368 0
M  V30 1384 C 123.2 -1.14445 -7.10137 0
M  V30 1385 C 125.226 -0.524389 -5.89071 0
M  V30 1386 C 124.588 -1.20412 -6.94032 0
M  V30 1387 H 120.687 0.314732 -0.715868 0
M  V30 1388 H 123.271 0.185102 -1.93818 0
M  V30 1389 H 121.442 2.47295 -2.99499 0
M  V30 1390 H 123.174 2.42727 -3.2383 0
M  V30 1391 H 119.929 0.969724 -4.63566 0
M  V30 1392 H 120.353 -0.586802 -6.74452 0
M  V30 1393 H 124.995 0.741184 -4.16253 0
M  V30 1394 H 122.713 -1.66706 -7.90718 0
M  V30 1395 H 126.299 -0.591167 -5.78789 0
M  V30 1396 H 125.179 -1.77853 -7.63766 0
M  V30 1397 N 122.682 1.50554 0.465978 0
M  V30 1398 C 124.093 1.54599 1.04671 0
M  V30 1399 C 124.444 0.352488 1.93008 0
M  V30 1400 O 123.569 -0.534044 2.09707 0
M  V30 1401 C 124.164 2.80166 1.90505 0
M  V30 1402 C 122.723 2.86876 2.43678 0
M  V30 1403 C 121.87 2.48947 1.22151 0
M  V30 1404 H 124.821 1.56744 0.248384 0
M  V30 1405 H 124.842 2.62311 2.75633 0
M  V30 1406 H 124.354 3.67013 1.26186 0
M  V30 1407 H 122.455 2.04393 3.11536 0
M  V30 1408 H 122.568 3.89885 2.78436 0
M  V30 1409 H 120.932 2.01498 1.5579 0
M  V30 1410 H 121.715 3.38107 0.594866 0
M  V30 1411 N 124.16 -0.719506 1.40217 0
M  V30 1412 C 125.123 -1.8153 1.39927 0
M  V30 1413 C 126.123 -1.58095 0.293723 0
M  V30 1414 O 127.313 -1.65209 0.552429 0
M  V30 1415 C 124.445 -3.19561 1.18716 0
M  V30 1416 H 125.638 -1.83186 2.37451 0
M  V30 1417 H 123.191 -0.924746 1.26008 0
M  V30 1418 H 123.926 -3.23557 0.219366 0
M  V30 1419 H 123.711 -3.3797 1.98793 0
M  V30 1420 H 125.201 -3.99598 1.21291 0
M  V30 1421 N 125.638 -1.25649 -0.95132 0
M  V30 1422 C 126.585 -1.06323 -2.04851 0
M  V30 1423 C 127.555 0.0286491 -1.66075 0
M  V30 1424 O 128.74 -0.12917 -1.90362 0
M  V30 1425 C 125.88 -0.691529 -3.381 0
M  V30 1426 C 124.993 -1.85861 -3.89974 0
M  V30 1427 C 124.128 -1.43096 -5.11563 0
M  V30 1428 C 123.167 -2.56696 -5.55674 0
M  V30 1429 N 122.304 -2.14684 -6.68472 0
M  V30 1430 H 127.144 -2.00222 -2.20715 0
M  V30 1431 H 124.681 -0.997027 -1.08156 0
M  V30 1432 H 126.639 -0.456963 -4.1469 0
M  V30 1433 H 125.269 0.210474 -3.22113 0
M  V30 1434 H 124.321 -2.20639 -3.09875 0
M  V30 1435 H 125.633 -2.71161 -4.18657 0
M  V30 1436 H 124.787 -1.15624 -5.9558 0
M  V30 1437 H 123.526 -0.548722 -4.84603 0
M  V30 1438 H 122.531 -2.84909 -4.7022 0
M  V30 1439 H 123.756 -3.45503 -5.8464 0
M  V30 1440 H 121.702 -1.28881 -6.43215 0
M  V30 1441 H 121.619 -2.9353 -6.96689 0
M  V30 1442 H 122.887 -1.90397 -7.5589 0
M  V30 1443 N 127.117 1.15442 -1.07289 0
M  V30 1444 C 128.342 1.90638 -0.816828 0
M  V30 1445 C 128.767 1.77445 0.624083 0
M  V30 1446 O 128.125 1.10671 1.43602 0
M  V30 1447 C 128.173 3.39008 -1.22906 0
M  V30 1448 O 127.277 4.10701 -0.373975 0
M  V30 1449 H 126.618 0.593555 -0.297638 0
M  V30 1450 H 129.148 1.46198 -1.43134 0
M  V30 1451 H 129.158 3.89801 -1.20497 0
M  V30 1452 H 127.833 3.47929 -2.27856 0
M  V30 1453 H 126.41 3.70046 -0.460499 0
M  V30 1454 N 128.595 0.856903 1.32268 0
M  V30 1455 C 129.835 0.467705 1.98977 0
M  V30 1456 C 130.199 -0.959231 1.66321 0
M  V30 1457 O 131.4 -1.4531 2.26138 0
M  V30 1458 C 129.671 0.70256 3.50427 0
M  V30 1459 S 131.23 0.411269 4.36868 0
M  V30 1460 H 128.048 0.175121 0.689096 0
M  V30 1461 H 130.65 1.1101 1.60925 0
M  V30 1462 H 129.354 1.74012 3.71683 0
M  V30 1463 H 128.885 0.0466707 3.93372 0
M  V30 1464 H 130.9 -0.761799 4.90317 0
M  V30 1465 N 130.073 -1.45103 0.615059 0
M  V30 1466 C 131.02 -2.30586 -0.0993978 0
M  V30 1467 C 131.99 -1.42544 -0.852669 0
M  V30 1468 O 133.175 -1.71465 -0.836917 0
M  V30 1469 C 130.315 -3.27572 -1.08583 0
M  V30 1470 C 129.428 -4.30717 -0.332656 0
M  V30 1471 C 128.563 -5.14807 -1.30947 0
M  V30 1472 C 127.602 -6.09673 -0.544538 0
M  V30 1473 N 126.739 -6.86517 -1.47101 0
M  V30 1474 H 131.579 -2.91144 0.635542 0
M  V30 1475 H 129.116 -1.4346 0.325206 0
M  V30 1476 H 131.074 -3.82276 -1.67095 0
M  V30 1477 H 129.704 -2.68751 -1.78809 0
M  V30 1478 H 128.756 -3.78615 0.368107 0
M  V30 1479 H 130.068 -4.98102 0.263842 0
M  V30 1480 H 129.222 -5.73948 -1.96643 0
M  V30 1481 H 127.961 -4.47458 -1.9399 0
M  V30 1482 H 126.966 -5.49656 0.126003 0
M  V30 1483 H 128.191 -6.79052 0.080947 0
M  V30 1484 H 126.137 -6.21851 -2.08895 0
M  V30 1485 H 126.054 -7.50281 -0.928137 0
M  V30 1486 H 127.322 -7.50194 -2.11731 0
M  V30 1487 N 131.551 -0.354651 -1.53558 0
M  V30 1488 C 132.798 0.238443 -2.01091 0
M  V30 1489 C 133.126 1.49663 -1.24222 0
M  V30 1490 O 132.381 1.93049 -0.321003 0
M  V30 1491 C 132.68 0.587121 -3.52545 0
M  V30 1492 C 132.346 -0.575472 -4.47213 0
M  V30 1493 C 131.008 -0.894497 -4.72813 0
M  V30 1494 C 133.36 -1.35489 -5.03281 0
M  V30 1495 C 130.688 -1.99511 -5.51736 0
M  V30 1496 C 133.04 -2.44583 -5.83405 0
M  V30 1497 C 131.704 -2.77033 -6.07296 0
M  V30 1498 H 130.974 0.0872526 -0.735845 0
M  V30 1499 H 133.621 -0.484859 -1.8526 0
M  V30 1500 H 131.926 1.39129 -3.66265 0
M  V30 1501 H 133.623 1.05809 -3.86789 0
M  V30 1502 H 130.213 -0.316774 -4.27428 0
M  V30 1503 H 134.397 -1.12167 -4.83459 0
M  V30 1504 H 129.653 -2.25063 -5.68469 0
M  V30 1505 H 133.827 -3.05401 -6.25862 0
M  V30 1506 H 131.454 -3.6244 -6.68237 0
M  V30 1507 N 133.029 1.57378 -0.0835403 0
M  V30 1508 C 133.959 2.1641 0.87686 0
M  V30 1509 C 134.94 1.09429 1.30228 0
M  V30 1510 O 136.125 1.37516 1.37124 0
M  V30 1511 C 133.255 2.73517 2.14022 0
M  V30 1512 C 132.209 3.85769 1.85381 0
M  V30 1513 C 131.535 4.29529 3.18448 0
M  V30 1514 C 132.835 5.09486 1.14984 0
M  V30 1515 H 134.529 2.96914 0.385059 0
M  V30 1516 H 132.075 1.42823 0.18377 0
M  V30 1517 H 134.028 3.13463 2.81636 0
M  V30 1518 H 132.752 1.90252 2.65465 0
M  V30 1519 H 131.411 3.46345 1.20169 0
M  V30 1520 H 131.059 3.43169 3.67755 0
M  V30 1521 H 130.759 5.05204 3.00071 0
M  V30 1522 H 132.283 4.72099 3.8724 0
M  V30 1523 H 133.697 5.46674 1.72687 0
M  V30 1524 H 132.094 5.90515 1.06826 0
M  V30 1525 H 133.164 4.84724 0.130749 0
M  V30 1526 N 134.507 -0.190092 1.56449 0
M  V30 1527 C 135.437 -1.23816 1.97969 0
M  V30 1528 C 136.418 -1.47201 0.852395 0
M  V30 1529 O 137.603 -1.58854 1.1171 0
M  V30 1530 C 134.733 -2.5813 2.3235 0
M  V30 1531 C 133.687 -2.49348 3.47864 0
M  V30 1532 C 133.013 -3.8798 3.67934 0
M  V30 1533 C 134.313 -2.01424 4.81898 0
M  V30 1534 H 136.007 -0.89311 2.85769 0
M  V30 1535 H 133.553 -0.428177 1.37487 0
M  V30 1536 H 135.506 -3.31637 2.59991 0
M  V30 1537 H 134.23 -2.94386 1.41438 0
M  V30 1538 H 132.889 -1.78297 3.20321 0
M  V30 1539 H 132.537 -4.21597 2.74344 0
M  V30 1540 H 132.237 -3.82978 4.45648 0
M  V30 1541 H 133.761 -4.63101 3.97957 0
M  V30 1542 H 135.175 -2.64693 5.08538 0
M  V30 1543 H 133.572 -2.07413 5.63116 0
M  V30 1544 H 134.642 -0.967677 4.75146 0
M  V30 1545 N 135.985 -1.50799 -0.457987 0
M  V30 1546 C 136.933 -1.71162 -1.575 0
M  V30 1547 C 137.927 -0.577592 -1.59249 0
M  V30 1548 O 139.133 -0.758443 -1.63241 0
M  V30 1549 H 135.508 -0.540468 -0.522875 0
M  V30 1550 H 137.479 -2.64837 -1.37492 0
M  V30 1551 C 136.228 -1.83496 -2.95338 0
M  V30 1552 H 135.551 -2.70153 -2.94716 0
M  V30 1553 H 136.991 -2.01765 -3.72917 0
M  V30 1554 C 135.45 -0.589694 -3.31699 0
M  V30 1555 O 135.98 0.265163 -4.00824 0
M  V30 1556 N 134.186 -0.439845 -2.87252 0
M  V30 1557 H 133.733 -1.13655 -2.31172 0
M  V30 1558 H 133.691 0.392159 -3.11945 0
M  V30 1559 N 137.463 0.71206 -1.40597 0
M  V30 1560 C 138.712 1.46754 -1.38369 0
M  V30 1561 C 139.025 1.95598 0.0097839 0
M  V30 1562 O 140.231 2.71059 0.154677 0
M  V30 1563 C 138.687 2.65289 -2.43207 0
M  V30 1564 C 138.295 2.23301 -3.88382 0
M  V30 1565 C 140.039 3.43008 -2.50091 0
M  V30 1566 C 137.946 3.38696 -4.84808 0
M  V30 1567 H 136.876 0.55118 -0.514506 0
M  V30 1568 H 139.527 0.774616 -1.66349 0
M  V30 1569 H 137.909 3.36769 -2.08332 0
M  V30 1570 H 139.083 1.59218 -4.32419 0
M  V30 1571 H 137.398 1.58618 -3.85006 0
M  V30 1572 H 139.995 4.28881 -3.1932 0
M  V30 1573 H 140.338 3.87065 -1.53253 0
M  V30 1574 H 140.871 2.78574 -2.83974 0
M  V30 1575 H 137.61 2.99668 -5.82992 0
M  V30 1576 H 137.13 4.01683 -4.45433 0
M  V30 1577 H 138.809 4.04712 -5.04794 0
M  V30 1578 N 138.941 1.26152 0.944643 0
M  V30 1579 C 139.871 1.09902 2.06019 0
M  V30 1580 C 140.852 0.00519538 1.70099 0
M  V30 1581 O 142.037 0.176583 1.93396 0
M  V30 1582 C 139.167 0.727562 3.39594 0
M  V30 1583 C 138.121 1.77274 3.89561 0
M  V30 1584 C 137.447 1.25569 5.19747 0
M  V30 1585 C 138.747 3.17357 4.14827 0
M  V30 1586 H 140.441 2.03217 2.19871 0
M  V30 1587 H 137.987 0.978452 1.05652 0
M  V30 1588 H 139.94 0.600777 4.17095 0
M  V30 1589 H 138.664 -0.241287 3.25707 0
M  V30 1590 H 137.323 1.88814 3.14237 0
M  V30 1591 H 136.971 0.276783 5.02238 0
M  V30 1592 H 136.671 1.95433 5.54148 0
M  V30 1593 H 138.195 1.1415 5.99835 0
M  V30 1594 H 139.609 3.08914 4.82954 0
M  V30 1595 H 138.006 3.84781 4.60504 0
M  V30 1596 H 139.076 3.63673 3.20734 0
M  V30 1597 N 140.419 -1.14872 1.07899 0
M  V30 1598 C 141.696 -1.81928 0.71845 0
M  V30 1599 C 142.076 -1.95417 -0.798455 0
M  V30 1600 O 141.424 -1.50997 -1.715 0
M  V30 1601 C 141.634 -3.17937 1.43935 0
M  V30 1602 C 142.982 -3.93501 1.59506 0
M  V30 1603 O 144.006 -3.27509 1.40058 0
M  V30 1604 O 142.865 -5.1183 1.91551 0
M  V30 1605 H 139.959 -0.78628 0.256305 0
M  V30 1606 H 142.505 -1.21934 1.18026 0
M  V30 1607 H 141.277 -3.0325 2.47295 0
M  V30 1608 H 140.9 -3.85619 0.968687 0
M  V30 1609 N 141.898 -0.863906 -1.31812 0
M  V30 1610 C 142.846 -0.30422 -2.30602 0
M  V30 1611 C 143.84 0.577419 -1.59255 0
M  V30 1612 O 145.046 0.464194 -1.73912 0
M  V30 1613 H 141.421 -0.0796877 -0.747766 0
M  V30 1614 H 143.392 -1.15148 -2.75288 0
M  V30 1615 C 142.141 0.484617 -3.44306 0
M  V30 1616 H 141.464 -0.18451 -3.99374 0
M  V30 1617 H 142.904 0.841664 -4.15562 0
M  V30 1618 C 141.363 1.6735 -2.92396 0
M  V30 1619 O 141.893 2.77273 -2.90659 0
M  V30 1620 N 140.099 1.50362 -2.48676 0
M  V30 1621 H 139.646 0.609402 -2.50288 0
M  V30 1622 H 139.604 2.30051 -2.14299 0
M  V30 1623 N 143.376 1.44774 -0.622745 0
M  V30 1624 C 144.622 2.0242 -0.124083 0
M  V30 1625 C 144.955 1.4881 1.24777 0
M  V30 1626 O 144.23 0.668799 1.8264 0
M  V30 1627 C 144.513 3.59957 -0.101619 0
M  V30 1628 C 144.366 4.23867 -1.50521 0
M  V30 1629 C 145.685 4.36284 0.578272 0
M  V30 1630 H 142.804 0.735528 -0.0465645 0
M  V30 1631 H 145.446 1.72447 -0.797617 0
M  V30 1632 H 143.596 3.85623 0.471934 0
M  V30 1633 H 145.268 4.09336 -2.12701 0
M  V30 1634 H 143.511 3.81684 -2.06154 0
M  V30 1635 H 144.182 5.32843 -1.4416 0
M  V30 1636 H 146.658 4.16001 0.0906057 0
M  V30 1637 H 145.534 5.46004 0.563149 0
M  V30 1638 H 145.795 4.10271 1.64713 0
M  V30 1639 N 144.854 0.36279 1.53368 0
M  V30 1640 C 145.786 -0.519668 2.23231 0
M  V30 1641 C 146.799 -1.04844 1.24546 0
M  V30 1642 O 147.988 -0.955296 1.50786 0
M  V30 1643 C 145.088 -1.72995 2.9142 0
M  V30 1644 C 144.261 -1.33316 4.16588 0
M  V30 1645 C 143.32 -2.40521 4.68013 0
M  V30 1646 O 142.346 -2.03027 5.3176 0
M  V30 1647 N 143.548 -3.72065 4.45587 0
M  V30 1648 H 146.313 0.078751 2.99597 0
M  V30 1649 H 143.874 0.187833 1.60807 0
M  V30 1650 H 145.866 -2.44184 3.22733 0
M  V30 1651 H 144.436 -2.2353 2.18525 0
M  V30 1652 H 143.656 -0.451236 3.91609 0
M  V30 1653 H 144.944 -1.04432 4.97967 0
M  V30 1654 H 144.342 -4.05304 3.94646 0
M  V30 1655 H 142.899 -4.39366 4.81457 0
M  V30 1656 N 146.332 -1.57332 0.0918853 0
M  V30 1657 C 147.295 -2.12708 -0.85369 0
M  V30 1658 C 148.295 -1.05561 -1.213 0
M  V30 1659 O 149.485 -1.31461 -1.14296 0
M  V30 1660 C 146.617 -2.64503 -2.15061 0
M  V30 1661 H 147.81 -2.97573 -0.3729 0
M  V30 1662 H 145.363 -1.55509 -0.157072 0
M  V30 1663 H 146.098 -1.83149 -2.67632 0
M  V30 1664 H 145.883 -3.4284 -1.90272 0
M  V30 1665 H 147.373 -3.07351 -2.82711 0
M  V30 1666 N 147.81 0.181792 -1.56548 0
M  V30 1667 C 148.758 1.24461 -1.965 0
M  V30 1668 C 149.752 1.464 -0.852261 0
M  V30 1669 O 150.958 1.47103 -1.03733 0
M  V30 1670 H 147.333 0.418138 -0.625031 0
M  V30 1671 H 149.304 0.880714 -2.85107 0
M  V30 1672 C 148.053 2.57891 -2.33212 0
M  V30 1673 H 147.376 2.41829 -3.18369 0
M  V30 1674 H 148.816 3.3097 -2.65019 0
M  V30 1675 C 147.275 3.15871 -1.17163 0
M  V30 1676 O 147.805 3.9913 -0.453708 0
M  V30 1677 N 146.011 2.74808 -0.944936 0
M  V30 1678 H 145.558 2.07205 -1.53049 0
M  V30 1679 H 145.516 3.13939 -0.170286 0
M  V30 1680 N 149.288 1.51039 0.449983 0
M  V30 1681 C 150.251 1.70863 1.5277 0
M  V30 1682 C 151.251 0.578846 1.5002 0
M  V30 1683 O 152.441 0.846213 1.52266 0
M  V30 1684 C 149.573 1.75341 2.9235 0
M  V30 1685 H 150.766 2.67034 1.36502 0
M  V30 1686 H 148.319 1.40838 0.677812 0
M  V30 1687 H 149.054 0.809383 3.14037 0
M  V30 1688 H 148.839 2.57436 2.95752 0
M  V30 1689 H 150.329 1.92559 3.70555 0
M  V30 1690 N 150.766 -0.704594 1.40972 0
M  V30 1691 C 151.676 -1.84856 1.44448 0
M  V30 1692 C 152.692 -1.70726 0.335961 0
M  V30 1693 O 153.868 -1.92799 0.582276 0
M  V30 1694 C 150.933 -3.20758 1.31587 0
M  V30 1695 C 149.994 -3.47063 2.52677 0
M  V30 1696 C 149.227 -4.76481 2.4042 0
M  V30 1697 O 149.45 -5.52341 1.42391 0
M  V30 1698 O 148.384 -5.03367 3.30007 0
M  V30 1699 H 152.21 -1.8488 2.40942 0
M  V30 1700 H 149.795 -0.85647 1.22413 0
M  V30 1701 H 151.677 -4.01913 1.26665 0
M  V30 1702 H 150.352 -3.21438 0.382049 0
M  V30 1703 H 149.259 -2.65873 2.63177 0
M  V30 1704 H 150.592 -3.5119 3.44858 0
M  V30 1705 N 152.244 -1.26651 -0.937939 0
M  V30 1706 C 153.469 -1.15279 -1.72411 0
M  V30 1707 C 153.894 0.287866 -1.85884 0
M  V30 1708 O 153.252 1.20855 -1.35143 0
M  V30 1709 C 153.3 -1.83028 -3.10698 0
M  V30 1710 O 152.404 -1.12128 -3.96864 0
M  V30 1711 H 151.745 -0.401504 -0.528858 0
M  V30 1712 H 154.275 -1.67531 -1.1745 0
M  V30 1713 H 154.285 -1.89981 -3.6107 0
M  V30 1714 H 152.96 -2.87833 -3.00208 0
M  V30 1715 H 151.537 -1.13173 -3.55312 0
M  V30 1716 N 153.722 1.14298 -1.08507 0
M  V30 1717 C 155.138 1.37347 -0.812901 0
M  V30 1718 C 155.338 1.93052 0.577325 0
M  V30 1719 O 154.394 2.14389 1.33393 0
M  V30 1720 C 155.707 2.33359 -1.89642 0
M  V30 1721 C 157.255 2.46996 -1.92255 0
M  V30 1722 C 157.73 3.46309 -2.99724 0
M  V30 1723 N 159.221 3.53853 -2.98902 0
M  V30 1724 C 159.956 4.3055 -3.787 0
M  V30 1725 N 159.452 5.10482 -4.6838 0
M  V30 1726 N 161.245 4.25757 -3.66998 0
M  V30 1727 H 153.396 0.764867 -1.9815 0
M  V30 1728 H 155.659 0.398966 -0.859959 0
M  V30 1729 H 155.365 1.99565 -2.89597 0
M  V30 1730 H 155.239 3.33274 -1.76659 0
M  V30 1731 H 157.626 2.80081 -0.929445 0
M  V30 1732 H 157.707 1.47039 -2.09316 0
M  V30 1733 H 157.351 3.13957 -3.99241 0
M  V30 1734 H 157.281 4.46049 -2.79907 0
M  V30 1735 H 159.772 2.96812 -2.33904 0
M  V30 1736 H 160.085 5.66284 -5.25873 0
M  V30 1737 H 158.43 5.09747 -4.72422 0
M  V30 1738 H 161.621 3.62383 -2.96304 0
M  V30 1739 H 161.794 4.85279 -4.29427 0
M  V30 1740 N 155.201 0.870884 1.31352 0
M  V30 1741 C 156.149 0.316445 2.30437 0
M  V30 1742 C 157.143 -0.568965 1.59559 0
M  V30 1743 O 158.349 -0.454964 1.74155 0
M  V30 1744 H 154.724 0.0836521 0.747333 0
M  V30 1745 H 156.695 1.16606 2.74673 0
M  V30 1746 C 155.444 -0.46635 3.44558 0
M  V30 1747 H 154.767 0.205687 3.99271 0
M  V30 1748 H 156.207 -0.819614 4.16003 0
M  V30 1749 C 154.666 -1.65797 2.9328 0
M  V30 1750 O 155.196 -2.75728 2.92125 0
M  V30 1751 N 153.402 -1.49041 2.4947 0
M  V30 1752 H 152.949 -0.59612 2.50608 0
M  V30 1753 H 152.907 -2.28911 2.15516 0
M  V30 1754 N 156.679 -1.44442 0.630414 0
M  V30 1755 C 157.609 -2.33418 -0.0618083 0
M  V30 1756 C 158.59 -1.48165 -0.835541 0
M  V30 1757 O 159.775 -1.76886 -0.801564 0
M  V30 1758 C 156.905 -3.31222 -1.04449 0
M  V30 1759 C 155.859 -4.26288 -0.382436 0
M  V30 1760 C 155.185 -5.13954 -1.47497 0
M  V30 1761 C 156.485 -5.1744 0.710865 0
M  V30 1762 H 158.179 -2.91548 0.681184 0
M  V30 1763 H 155.725 -1.40191 0.329026 0
M  V30 1764 H 157.678 -3.92351 -1.53748 0
M  V30 1765 H 156.402 -2.71299 -1.81836 0
M  V30 1766 H 155.061 -3.6649 0.0899054 0
M  V30 1767 H 154.709 -4.50385 -2.2397 0
M  V30 1768 H 154.409 -5.7837 -1.03737 0
M  V30 1769 H 155.933 -5.77955 -1.96979 0
M  V30 1770 H 157.347 -5.72509 0.300996 0
M  V30 1771 H 155.744 -5.90455 1.07156 0
M  V30 1772 H 156.814 -4.58496 1.57829 0
M  V30 1773 N 158.157 -0.370918 -1.53173 0
M  V30 1774 C 159.434 0.273754 -1.93675 0
M  V30 1775 C 159.814 1.65938 -1.3049 0
M  V30 1776 O 159.162 2.23698 -0.465999 0
M  V30 1777 C 159.372 0.318602 -3.47543 0
M  V30 1778 C 160.72 0.556392 -4.20939 0
M  V30 1779 O 161.744 0.399587 -3.53952 0
M  V30 1780 O 160.603 0.862133 -5.39657 0
M  V30 1781 H 157.697 0.165448 -0.810281 0
M  V30 1782 H 160.243 -0.42409 -1.64315 0
M  V30 1783 H 159.015 -0.652687 -3.85818 0
M  V30 1784 H 158.638 1.06212 -3.83151 0
M  V30 1785 N 159.635 1.57281 -0.100228 0
M  V30 1786 C 160.881 1.94826 0.563101 0
M  V30 1787 C 161.214 0.982475 1.67514 0
M  V30 1788 O 160.489 0.0164069 1.94493 0
M  V30 1789 C 160.772 3.42453 1.11346 0
M  V30 1790 C 160.625 4.498 0.00612081 0
M  V30 1791 C 161.944 3.91506 2.01024 0
M  V30 1792 H 159.063 0.708428 0.203221 0
M  V30 1793 H 161.705 1.8922 -0.171979 0
M  V30 1794 H 159.855 3.47361 1.7399 0
M  V30 1795 H 161.527 4.57 -0.628357 0
M  V30 1796 H 159.77 4.28756 -0.659581 0
M  V30 1797 H 160.441 5.50306 0.432109 0
M  V30 1798 H 162.917 3.88784 1.48278 0
M  V30 1799 H 161.793 4.95358 2.36457 0
M  V30 1800 H 162.054 3.31099 2.92961 0
M  V30 1801 N 161.113 -0.173488 1.56642 0
M  V30 1802 C 162.338 -0.910149 1.86363 0
M  V30 1803 C 162.763 -1.75132 0.686318 0
M  V30 1804 O 162.121 -1.77595 -0.364643 0
M  V30 1805 C 162.169 -1.76447 3.14482 0
M  V30 1806 O 161.273 -2.86584 2.96553 0
M  V30 1807 H 160.614 -0.255086 0.613047 0
M  V30 1808 H 163.144 -0.172283 2.03873 0
M  V30 1809 H 163.154 -2.16483 3.45831 0
M  V30 1810 H 161.829 -1.14658 3.99783 0
M  V30 1811 H 160.406 -2.50146 2.76553 0
M  V30 1812 N 162.591 -1.51276 -0.441967 0
M  V30 1813 C 163.538 -1.72256 -1.53612 0
M  V30 1814 C 164.508 -0.564164 -1.56225 0
M  V30 1815 O 165.693 -0.798074 -1.73307 0
M  V30 1816 C 162.833 -1.84932 -2.91366 0
M  V30 1817 C 161.946 -3.12459 -2.98317 0
M  V30 1818 C 161.081 -3.15758 -4.27166 0
M  V30 1819 C 160.12 -4.37619 -4.27967 0
M  V30 1820 N 159.257 -4.38493 -5.48333 0
M  V30 1821 H 164.097 -2.65654 -1.35026 0
M  V30 1822 H 161.634 -1.31662 -0.656009 0
M  V30 1823 H 163.592 -1.90263 -3.7129 0
M  V30 1824 H 162.222 -0.949461 -3.08521 0
M  V30 1825 H 161.274 -3.1646 -2.11086 0
M  V30 1826 H 162.586 -4.02382 -2.94771 0
M  V30 1827 H 161.74 -3.19979 -5.15459 0
M  V30 1828 H 160.479 -2.23715 -4.33362 0
M  V30 1829 H 159.484 -4.33579 -3.38067 0
M  V30 1830 H 160.709 -5.30921 -4.23438 0
M  V30 1831 H 158.655 -3.49318 -5.55259 0
M  V30 1832 H 158.572 -5.22219 -5.46647 0
M  V30 1833 H 159.84 -4.469 -6.38671 0
M  V30 1834 N 164.069 0.697108 -1.41344 0
M  V30 1835 C 164.999 1.82353 -1.45841 0
M  V30 1836 C 165.98 1.67115 -0.317247 0
M  V30 1837 O 167.165 1.86871 -0.528474 0
M  V30 1838 C 164.295 3.20476 -1.33838 0
M  V30 1839 C 163.249 3.50415 -2.4575 0
M  V30 1840 C 162.575 4.87878 -2.18813 0
M  V30 1841 C 163.875 3.49546 -3.88091 0
M  V30 1842 H 165.569 1.78846 -2.40113 0
M  V30 1843 H 163.115 0.859028 -1.15571 0
M  V30 1844 H 165.068 3.98988 -1.35596 0
M  V30 1845 H 163.792 3.24604 -0.360498 0
M  V30 1846 H 162.451 2.74253 -2.43271 0
M  V30 1847 H 162.099 4.8863 -1.19371 0
M  V30 1848 H 161.799 5.08875 -2.93803 0
M  V30 1849 H 163.323 5.68702 -2.22284 0
M  V30 1850 H 164.737 4.18066 -3.92293 0
M  V30 1851 H 163.134 3.82075 -4.62751 0
M  V30 1852 H 164.204 2.48552 -4.16353 0
M  V30 1853 N 165.547 1.27147 0.931209 0
M  V30 1854 C 166.963 1.04475 1.20653 0
M  V30 1855 C 167.163 -0.223885 2.00252 0
M  V30 1856 O 166.219 -0.930332 2.34736 0
M  V30 1857 C 167.532 2.28209 1.95809 0
M  V30 1858 C 169.08 2.33211 2.08762 0
M  V30 1859 C 169.555 3.56665 2.87323 0
M  V30 1860 N 171.046 3.57201 2.94892 0
M  V30 1861 C 171.781 4.49395 3.56134 0
M  V30 1862 N 171.277 5.51889 4.18796 0
M  V30 1863 N 173.07 4.37026 3.53504 0
M  V30 1864 H 165.221 2.08612 0.399333 0
M  V30 1865 H 167.484 0.917312 0.239253 0
M  V30 1866 H 167.19 3.20538 1.44736 0
M  V30 1867 H 167.064 2.33247 2.96438 0
M  V30 1868 H 169.451 1.41391 2.59023 0
M  V30 1869 H 169.532 2.32178 1.07364 0
M  V30 1870 H 169.176 4.4882 2.37746 0
M  V30 1871 H 169.106 3.54948 3.88998 0
M  V30 1872 H 171.597 2.83074 2.50354 0
M  V30 1873 H 171.91 6.18409 4.63454 0
M  V30 1874 H 170.255 5.55735 4.17353 0
M  V30 1875 H 173.446 3.56166 3.03749 0
M  V30 1876 H 173.619 5.09067 4.00942 0
M  V30 1877 N 167.025 -1.13721 1.09112 0
M  V30 1878 C 167.955 -2.21148 0.749385 0
M  V30 1879 C 168.936 -1.6792 -0.271475 0
M  V30 1880 O 170.121 -1.93693 -0.140251 0
M  V30 1881 C 167.251 -3.46905 0.165659 0
M  V30 1882 C 166.205 -4.13203 1.11567 0
M  V30 1883 C 165.531 -5.33248 0.393809 0
M  V30 1884 C 166.831 -4.60912 2.45678 0
M  V30 1885 H 168.525 -2.4999 1.64758 0
M  V30 1886 H 166.071 -1.20156 0.793626 0
M  V30 1887 H 168.024 -4.21313 -0.085466 0
M  V30 1888 H 166.748 -3.17449 -0.767714 0
M  V30 1889 H 165.407 -3.40758 1.35202 0
M  V30 1890 H 165.055 -5.00054 -0.543599 0
M  V30 1891 H 164.755 -5.78552 1.02721 0
M  V30 1892 H 166.279 -6.10413 0.150908 0
M  V30 1893 H 167.693 -5.26759 2.26269 0
M  V30 1894 H 166.09 -5.16944 3.04776 0
M  V30 1895 H 167.16 -3.75603 3.06677 0
M  V30 1896 N 168.503 -0.877838 -1.30888 0
M  V30 1897 C 169.752 -0.488793 -1.95688 0
M  V30 1898 C 170.065 0.965485 -1.70111 0
M  V30 1899 O 171.271 1.46104 -2.28836 0
M  V30 1900 C 169.727 -0.823201 -3.50359 0
M  V30 1901 C 169.335 -2.29477 -3.84765 0
M  V30 1902 C 171.079 -0.503009 -4.21509 0
M  V30 1903 C 168.986 -2.57118 -5.32583 0
M  V30 1904 H 167.916 -0.179062 -0.732429 0
M  V30 1905 H 170.567 -1.07183 -1.48943 0
M  V30 1906 H 168.949 -0.169331 -3.95638 0
M  V30 1907 H 170.123 -2.99236 -3.5042 0
M  V30 1908 H 168.438 -2.58178 -3.267 0
M  V30 1909 H 171.035 -0.68665 -5.30273 0
M  V30 1910 H 171.378 0.557109 -4.12555 0
M  V30 1911 H 171.911 -1.11376 -3.8189 0
M  V30 1912 H 168.65 -3.61843 -5.4658 0
M  V30 1913 H 168.17 -1.91961 -5.68253 0
M  V30 1914 H 169.849 -2.42251 -5.99936 0
M  V30 1915 N 169.982 1.44106 -0.638065 0
M  V30 1916 C 170.932 2.27843 0.0847285 0
M  V30 1917 C 171.916 1.39055 0.809471 0
M  V30 1918 O 173.108 1.62808 0.694435 0
M  V30 1919 C 170.237 3.26497 1.06089 0
M  V30 1920 C 169.323 4.22772 0.33541 0
M  V30 1921 N 169.714 5.01737 -0.639787 0
M  V30 1922 C 168.012 4.42227 0.578921 0
M  V30 1923 C 168.713 5.71792 -1.06904 0
M  V30 1924 N 167.689 5.42079 -0.406395 0
M  V30 1925 H 171.491 2.86305 -0.663814 0
M  V30 1926 H 169.005 1.55627 -0.464122 0
M  V30 1927 H 171.002 3.8525 1.59337 0
M  V30 1928 H 169.662 2.69595 1.80966 0
M  V30 1929 H 170.673 5.07799 -1.01789 0
M  V30 1930 H 167.35 3.96415 1.31003 0
M  V30 1931 H 168.74 6.45205 -1.8751 0
M  V30 1932 N 171.46 0.379036 1.52974 0
M  V30 1933 C 172.706 -0.206727 2.01744 0
M  V30 1934 C 173.039 -1.47314 1.26539 0
M  V30 1935 O 172.314 -1.91084 0.362903 0
M  V30 1936 C 172.597 -0.485066 3.56818 0
M  V30 1937 C 172.45 0.795919 4.42702 0
M  V30 1938 C 173.769 -1.28003 4.21074 0
M  V30 1939 H 170.888 -0.0736607 0.73331 0
M  V30 1940 H 173.53 0.506581 1.83122 0
M  V30 1941 H 171.68 -1.09272 3.72816 0
M  V30 1942 H 173.352 1.43307 4.38476 0
M  V30 1943 H 171.595 1.41344 4.10127 0
M  V30 1944 H 172.266 0.555947 5.49193 0
M  V30 1945 H 174.742 -0.765867 4.08991 0
M  V30 1946 H 173.618 -1.44352 5.29579 0
M  V30 1947 H 173.879 -2.29236 3.78026 0
M  V30 1948 N 172.938 -1.57226 0.108567 0
M  V30 1949 C 173.871 -2.10447 -0.882464 0
M  V30 1950 C 174.849 -1.01829 -1.26766 0
M  V30 1951 O 176.033 -1.29415 -1.37054 0
M  V30 1952 C 173.16 -2.59258 -2.17952 0
M  V30 1953 C 172.206 -3.79662 -1.94318 0
M  V30 1954 S 173.039 -5.22586 -1.16892 0
M  V30 1955 C 174.195 -5.74758 -2.47799 0
M  V30 1956 H 174.428 -2.94178 -0.429745 0
M  V30 1957 H 171.961 -1.54043 -0.105 0
M  V30 1958 H 173.919 -2.88036 -2.92482 0
M  V30 1959 H 172.58 -1.75728 -2.60343 0
M  V30 1960 H 171.773 -4.11928 -2.90399 0
M  V30 1961 H 171.375 -3.51446 -1.27913 0
M  V30 1962 H 173.667 -5.83846 -3.43701 0
M  V30 1963 H 174.61 -6.73027 -2.20093 0
M  V30 1964 H 175.018 -5.02763 -2.56689 0
M  V30 1965 N 174.416 0.165178 -1.56732 0
M  V30 1966 C 175.662 0.882112 -1.82611 0
M  V30 1967 C 175.995 1.81628 -0.687378 0
M  V30 1968 O 175.27 1.92009 0.310267 0
M  V30 1969 C 175.553 1.67245 -3.18906 0
M  V30 1970 C 175.406 0.760987 -4.43316 0
M  V30 1971 C 176.725 2.63884 -3.52212 0
M  V30 1972 H 173.844 0.319242 -0.664269 0
M  V30 1973 H 176.486 0.148052 -1.89422 0
M  V30 1974 H 174.636 2.29824 -3.1323 0
M  V30 1975 H 176.308 0.147596 -4.61064 0
M  V30 1976 H 174.551 0.0694102 -4.33744 0
M  V30 1977 H 175.222 1.34962 -5.35247 0
M  V30 1978 H 177.698 2.11429 -3.58381 0
M  V30 1979 H 176.574 3.16245 -4.48643 0
M  V30 1980 H 176.835 3.44377 -2.77231 0
M  V30 1981 N 175.894 1.51508 0.433938 0
M  V30 1982 C 176.842 1.73646 1.54757 0
M  V30 1983 C 177.836 0.602854 1.5831 0
M  V30 1984 O 179.042 0.784318 1.62014 0
M  V30 1985 H 175.417 0.548718 0.51421 0
M  V30 1986 H 177.388 2.66991 1.33261 0
M  V30 1987 C 176.137 1.88172 2.92381 0
M  V30 1988 H 175.46 2.74808 2.90381 0
M  V30 1989 H 176.9 2.07672 3.6966 0
M  V30 1990 C 175.359 0.64239 3.30719 0
M  V30 1991 O 175.889 -0.201362 4.01195 0
M  V30 1992 N 174.095 0.485489 2.86516 0
M  V30 1993 H 173.642 1.17318 2.29334 0
M  V30 1994 H 173.6 -0.342482 3.12529 0
M  V30 1995 N 177.372 -0.689602 1.41712 0
M  V30 1996 C 178.319 -1.80345 1.44029 0
M  V30 1997 C 179.289 -1.63478 0.293948 0
M  V30 1998 O 180.474 -1.84244 0.495869 0
M  V30 1999 C 177.614 -3.18272 1.33405 0
M  V30 2000 C 176.727 -3.46529 2.57956 0
M  V30 2001 C 175.862 -4.74103 2.39582 0
M  V30 2002 C 174.901 -4.95347 3.5958 0
M  V30 2003 N 174.038 -6.14151 3.40239 0
M  V30 2004 H 178.878 -1.77698 2.39222 0
M  V30 2005 H 176.415 -0.867688 1.18784 0
M  V30 2006 H 178.373 -3.97956 1.25246 0
M  V30 2007 H 177.003 -3.2008 0.418164 0
M  V30 2008 H 176.055 -2.61207 2.76542 0
M  V30 2009 H 177.367 -3.58126 3.47199 0
M  V30 2010 H 176.521 -5.61853 2.28924 0
M  V30 2011 H 175.26 -4.64763 1.47805 0
M  V30 2012 H 174.265 -4.06044 3.70686 0
M  V30 2013 H 175.49 -5.06542 4.52318 0
M  V30 2014 H 173.436 -6.06013 2.51167 0
M  V30 2015 H 173.353 -6.26543 4.23061 0
M  V30 2016 H 174.621 -7.04619 3.33365 0
M  V30 2017 N 178.85 -1.27639 -0.924453 0
M  V30 2018 C 179.813 -1.10681 -2.00705 0
M  V30 2019 C 180.813 -0.0497823 -1.60723 0
M  V30 2020 O 182.003 -0.294654 -1.7169 0
M  V30 2021 C 179.135 -0.687164 -3.33902 0
M  V30 2022 H 180.328 -2.06817 -2.17179 0
M  V30 2023 H 177.881 -1.10473 -1.10569 0
M  V30 2024 H 178.616 0.275439 -3.23128 0
M  V30 2025 H 178.401 -1.45061 -3.6428 0
M  V30 2026 H 179.891 -0.590853 -4.13399 0
M  V30 2027 N 180.328 1.1314 -1.09713 0
M  V30 2028 C 181.744 1.36477 -0.827423 0
M  V30 2029 C 181.944 1.93654 0.556817 0
M  V30 2030 O 181 2.15791 1.31112 0
M  V30 2031 C 182.313 2.31334 -1.92106 0
M  V30 2032 C 183.861 2.44943 -1.94864 0
M  V30 2033 C 184.336 3.4311 -3.0338 0
M  V30 2034 N 185.827 3.50662 -3.02639 0
M  V30 2035 C 186.562 4.2651 -3.83246 0
M  V30 2036 N 186.058 5.05485 -4.73768 0
M  V30 2037 N 187.851 4.2184 -3.71493 0
M  V30 2038 H 180.002 0.743807 -1.9895 0
M  V30 2039 H 182.265 0.389823 -0.864143 0
M  V30 2040 H 181.971 1.96483 -2.91698 0
M  V30 2041 H 181.845 3.31381 -1.80184 0
M  V30 2042 H 184.232 2.79079 -0.959099 0
M  V30 2043 H 184.313 1.4481 -2.10864 0
M  V30 2044 H 183.957 3.09704 -4.02549 0
M  V30 2045 H 183.887 4.43055 -2.84622 0
M  V30 2046 H 186.378 2.94315 -2.37039 0
M  V30 2047 H 186.691 5.60675 -5.3185 0
M  V30 2048 H 185.036 5.04708 -4.77802 0
M  V30 2049 H 188.227 3.5922 -3.00131 0
M  V30 2050 H 188.4 4.80697 -4.3455 0
M  V30 2051 N 181.806 0.884767 1.30421 0
M  V30 2052 C 183.217 0.553656 1.78302 0
M  V30 2053 C 183.568 -0.930153 1.7275 0
M  V30 2054 O 182.693 -1.72681 1.30423 0
M  V30 2055 C 183.288 0.998234 3.2376 0
M  V30 2056 C 181.847 0.71854 3.69478 0
M  V30 2057 C 180.994 1.18132 2.50879 0
M  V30 2058 H 183.945 1.06901 1.17294 0
M  V30 2059 H 183.966 0.327118 3.79091 0
M  V30 2060 H 183.478 2.0782 3.27769 0
M  V30 2061 H 181.579 -0.349444 3.70958 0
M  V30 2062 H 181.692 1.30595 4.60958 0
M  V30 2063 H 180.056 0.600669 2.47516 0
M  V30 2064 H 180.839 2.26902 2.57624 0
M  V30 2065 N 183.284 -1.43765 0.645699 0
M  V30 2066 C 184.532 -2.01499 0.155731 0
M  V30 2067 C 184.853 -1.51151 -1.232 0
M  V30 2068 O 184.123 -0.721044 -1.82148 0
M  V30 2069 H 182.703 -0.745003 0.0545817 0
M  V30 2070 H 185.365 -1.76075 0.835677 0
M  V30 2071 H 184.461 -3.1181 0.134577 0
M  V30 2072 N 184.763 -0.387143 -1.52771 0
M  V30 2073 C 186.179 -0.037007 -1.59557 0
M  V30 2074 C 186.379 1.44801 -1.40124 0
M  V30 2075 O 185.435 2.21227 -1.21716 0
M  V30 2076 C 186.748 -0.512256 -2.96305 0
M  V30 2077 C 188.296 -0.468328 -3.09476 0
M  V30 2078 C 188.771 -0.919731 -4.4867 0
M  V30 2079 N 190.262 -0.875656 -4.54848 0
M  V30 2080 C 190.997 -1.19637 -5.6078 0
M  V30 2081 N 190.493 -1.58745 -6.74368 0
M  V30 2082 N 192.286 -1.11776 -5.50874 0
M  V30 2083 H 184.437 -1.35395 -1.63652 0
M  V30 2084 H 186.7 -0.554818 -0.768688 0
M  V30 2085 H 186.406 -1.54935 -3.15734 0
M  V30 2086 H 186.28 0.089805 -3.77093 0
M  V30 2087 H 188.667 0.559671 -2.89744 0
M  V30 2088 H 188.748 -1.10616 -2.30646 0
M  V30 2089 H 188.392 -1.94595 -4.69143 0
M  V30 2090 H 188.322 -0.258927 -5.25963 0
M  V30 2091 H 190.813 -0.587843 -3.733 0
M  V30 2092 H 191.126 -1.81586 -7.51163 0
M  V30 2093 H 189.471 -1.6263 -6.75705 0
M  V30 2094 H 192.662 -0.811264 -4.61016 0
M  V30 2095 H 192.835 -1.37103 -6.3333 0
M  V30 2096 N 186.241 1.57166 -0.116904 0
M  V30 2097 C 187.657 1.5779 0.239693 0
M  V30 2098 C 187.857 1.1295 1.66867 0
M  V30 2099 O 186.913 0.81592 2.38954 0
M  V30 2100 C 188.226 3.00699 0.00828202 0
M  V30 2101 C 189.774 3.12912 0.0743438 0
M  V30 2102 C 190.249 4.57817 -0.129348 0
M  V30 2103 N 191.74 4.63139 -0.075247 0
M  V30 2104 C 192.475 5.73023 -0.207788 0
M  V30 2105 N 191.971 6.91665 -0.396382 0
M  V30 2106 N 193.764 5.61906 -0.14751 0
M  V30 2107 H 185.915 1.84615 -1.05029 0
M  V30 2108 H 188.178 0.85311 -0.41341 0
M  V30 2109 H 187.884 3.37784 -0.979531 0
M  V30 2110 H 187.758 3.69848 0.741077 0
M  V30 2111 H 190.145 2.75686 1.05268 0
M  V30 2112 H 190.226 2.4631 -0.690297 0
M  V30 2113 H 189.87 4.95742 -1.10465 0
M  V30 2114 H 189.8 5.22507 0.655253 0
M  V30 2115 H 192.291 3.7784 0.0670898 0
M  V30 2116 H 192.604 7.71255 -0.488437 0
M  V30 2117 H 190.949 6.93654 -0.432329 0
M  V30 2118 H 194.14 4.681 -0.00115036 0
M  V30 2119 H 194.313 6.47501 -0.254247 0
M  V30 2120 N 187.719 -0.156864 1.56817 0
M  V30 2121 C 189.135 -0.50916 1.5126 0
M  V30 2122 C 189.335 -1.83897 0.823658 0
M  V30 2123 O 188.391 -2.49469 0.390055 0
M  V30 2124 C 189.704 -0.52857 2.96018 0
M  V30 2125 C 191.252 -0.614771 3.06903 0
M  V30 2126 C 191.727 -0.664938 4.53147 0
M  V30 2127 N 193.218 -0.727433 4.57452 0
M  V30 2128 C 193.953 -0.787067 5.67973 0
M  V30 2129 N 193.449 -0.806649 6.88088 0
M  V30 2130 N 195.242 -0.827195 5.5598 0
M  V30 2131 H 187.393 0.714935 2.00006 0
M  V30 2132 H 189.656 0.259526 0.911784 0
M  V30 2133 H 189.362 0.380154 3.49639 0
M  V30 2134 H 189.236 -1.36998 3.51442 0
M  V30 2135 H 191.623 -1.51392 2.53307 0
M  V30 2136 H 191.704 0.253597 2.5454 0
M  V30 2137 H 191.348 0.230011 5.07379 0
M  V30 2138 H 191.278 -1.54966 5.03282 0
M  V30 2139 H 193.769 -0.719998 3.70978 0
M  V30 2140 H 194.082 -0.853727 7.6807 0
M  V30 2141 H 192.427 -0.774687 6.90669 0
M  V30 2142 H 195.618 -0.808998 4.61056 0
M  V30 2143 H 195.791 -0.870206 6.4213 0
M  V30 2144 N 189.197 -1.51736 -0.425897 0
M  V30 2145 C 190.425 -1.68794 -1.1965 0
M  V30 2146 C 190.84 -0.390164 -1.84725 0
M  V30 2147 O 190.197 0.632376 -1.71194 0
M  V30 2148 C 190.248 -2.81174 -2.27208 0
M  V30 2149 O 189.969 -4.05925 -1.64793 0
M  V30 2150 C 191.47 -3.09599 -3.17275 0
M  V30 2151 H 188.69 -0.566128 -0.360194 0
M  V30 2152 H 191.234 -1.98211 -0.503249 0
M  V30 2153 H 189.389 -2.54324 -2.9223 0
M  V30 2154 H 189.803 -4.68423 -2.35967 0
M  V30 2155 H 191.277 -3.91786 -3.88854 0
M  V30 2156 H 191.754 -2.22468 -3.78688 0
M  V30 2157 H 192.36 -3.38151 -2.57941 0
M  V30 2158 N 190.675 0.682077 -1.42076 0
M  V30 2159 C 191.905 1.46844 -1.45329 0
M  V30 2160 C 192.313 1.89102 -0.0609328 0
M  V30 2161 O 191.656 1.58238 0.933082 0
M  V30 2162 C 191.718 2.75375 -2.31104 0
M  V30 2163 C 191.382 2.55238 -3.79081 0
M  V30 2164 C 192.379 2.20309 -4.70914 0
M  V30 2165 C 190.064 2.70459 -4.2327 0
M  V30 2166 C 192.058 2.00859 -6.04925 0
M  V30 2167 C 189.745 2.50624 -5.57343 0
M  V30 2168 C 190.743 2.15876 -6.47986 0
M  V30 2169 O 190.431 1.96227 -7.79583 0
M  V30 2170 H 190.163 0.4586 -0.496651 0
M  V30 2171 H 192.717 0.846131 -1.87162 0
M  V30 2172 H 190.947 3.40061 -1.84107 0
M  V30 2173 H 192.636 3.37231 -2.25898 0
M  V30 2174 H 193.402 2.08153 -4.38061 0
M  V30 2175 H 189.281 2.96485 -3.53012 0
M  V30 2176 H 192.825 1.7366 -6.75639 0
M  V30 2177 H 188.722 2.62375 -5.89771 0
M  V30 2178 H 189.49 2.10883 -7.90867 0
M  V30 2179 N 192.153 1.28127 0.917671 0
M  V30 2180 C 193.1 1.11717 2.0196 0
M  V30 2181 C 194.07 0.0153929 1.66093 0
M  V30 2182 O 195.255 0.179596 1.89953 0
M  V30 2183 C 192.395 0.780927 3.36148 0
M  V30 2184 C 191.508 1.96135 3.84909 0
M  V30 2185 C 190.643 1.56609 5.0759 0
M  V30 2186 C 189.682 2.71339 5.48673 0
M  V30 2187 N 188.819 2.32332 6.62545 0
M  V30 2188 H 193.659 2.06003 2.15329 0
M  V30 2189 H 191.196 1.02535 1.05475 0
M  V30 2190 H 193.154 0.56675 4.13333 0
M  V30 2191 H 191.784 -0.124998 3.22558 0
M  V30 2192 H 190.836 2.28777 3.03916 0
M  V30 2193 H 192.148 2.82165 4.1132 0
M  V30 2194 H 191.302 1.31374 5.92305 0
M  V30 2195 H 190.041 0.677014 4.82978 0
M  V30 2196 H 189.046 2.97276 4.62501 0
M  V30 2197 H 190.271 3.60882 5.75274 0
M  V30 2198 H 188.217 1.45889 6.39572 0
M  V30 2199 H 188.134 3.11899 6.88662 0
M  V30 2200 H 189.402 2.10371 7.50576 0
M  V30 2201 N 193.631 -1.12557 1.10312 0
M  V30 2202 C 194.594 -2.16434 0.75424 0
M  V30 2203 C 195.594 -1.59278 -0.220685 0
M  V30 2204 O 196.784 -1.742 0.00230591 0
M  V30 2205 C 193.916 -3.40699 0.116987 0
M  V30 2206 H 195.109 -2.48811 1.67431 0
M  V30 2207 H 192.662 -1.27542 0.903475 0
M  V30 2208 H 193.397 -3.13921 -0.813877 0
M  V30 2209 H 193.182 -3.83459 0.818613 0
M  V30 2210 H 194.672 -4.17451 -0.111387 0
M  V30 2211 N 195.109 -0.891671 -1.2995 0
M  V30 2212 C 196.059 -0.334811 -2.25528 0
M  V30 2213 C 197.043 0.540553 -1.51548 0
M  V30 2214 O 198.235 0.383882 -1.72787 0
M  V30 2215 C 195.364 0.44374 -3.4042 0
M  V30 2216 C 194.45 -0.44609 -4.21747 0
M  V30 2217 N 194.841 -1.54963 -4.81477 0
M  V30 2218 C 193.139 -0.242415 -4.45341 0
M  V30 2219 C 193.84 -2.10015 -5.42465 0
M  V30 2220 N 192.816 -1.39423 -5.25416 0
M  V30 2221 H 196.618 -1.17792 -2.69262 0
M  V30 2222 H 194.132 -0.741822 -1.44467 0
M  V30 2223 H 196.129 0.859362 -4.07947 0
M  V30 2224 H 194.789 1.28421 -2.98225 0
M  V30 2225 H 195.8 -1.93244 -4.80497 0
M  V30 2226 H 192.477 0.560342 -4.13723 0
M  V30 2227 H 193.867 -3.02724 -5.9984 0
M  V30 2228 N 196.587 1.43421 -0.653314 0
M  V30 2229 C 197.835 2.01414 -0.166415 0
M  V30 2230 C 198.156 1.51803 1.22397 0
M  V30 2231 O 197.426 0.730693 1.81763 0
M  V30 2232 H 196.006 0.744703 -0.0585319 0
M  V30 2233 H 198.668 1.75629 -0.845003 0
M  V30 2234 H 197.764 3.11734 -0.151111 0
M  V30 2235 N 198.065 0.39524 1.52563 0
M  V30 2236 C 199.481 0.0454682 1.59535 0
M  V30 2237 C 199.681 -1.44056 1.4089 0
M  V30 2238 O 198.737 -2.20579 1.22888 0
M  V30 2239 C 200.05 0.527963 2.96029 0
M  V30 2240 C 201.598 0.484733 3.09224 0
M  V30 2241 C 202.073 0.943512 4.48176 0
M  V30 2242 N 203.564 0.899765 4.54377 0
M  V30 2243 C 204.299 1.22609 5.60138 0
M  V30 2244 N 203.795 1.62319 6.73516 0
M  V30 2245 N 205.588 1.14696 5.50274 0
M  V30 2246 H 197.739 1.36261 1.62931 0
M  V30 2247 H 200.002 0.558887 0.765735 0
M  V30 2248 H 199.708 1.56607 3.14908 0
M  V30 2249 H 199.582 -0.0698056 3.77135 0
M  V30 2250 H 201.969 -0.544298 2.90037 0
M  V30 2251 H 202.05 1.11838 2.30056 0
M  V30 2252 H 201.694 1.9708 4.68104 0
M  V30 2253 H 201.624 0.286817 5.25818 0
M  V30 2254 H 204.115 0.607632 3.72983 0
M  V30 2255 H 204.428 1.85567 7.5019 0
M  V30 2256 H 202.773 1.66211 6.74833 0
M  V30 2257 H 205.964 0.835701 4.6058 0
M  V30 2258 H 206.137 1.40459 6.32594 0
M  V30 2259 N 199.544 -1.57102 0.125237 0
M  V30 2260 C 200.793 -1.94582 -0.531095 0
M  V30 2261 C 201.106 -1.01126 -1.6743 0
M  V30 2262 O 202.312 -1.28097 -2.39381 0
M  V30 2263 C 200.768 -3.45839 -0.996164 0
M  V30 2264 C 200.376 -4.47842 0.118926 0
M  V30 2265 C 202.12 -3.92227 -1.62352 0
M  V30 2266 C 200.027 -5.90284 -0.363192 0
M  V30 2267 H 198.957 -0.726391 -0.20217 0
M  V30 2268 H 201.608 -1.82339 0.206092 0
M  V30 2269 H 199.99 -3.53338 -1.78796 0
M  V30 2270 H 201.164 -4.52018 0.895358 0
M  V30 2271 H 199.479 -4.11243 0.653324 0
M  V30 2272 H 202.076 -4.96069 -1.99548 0
M  V30 2273 H 202.419 -3.32552 -2.50429 0
M  V30 2274 H 202.952 -3.87554 -0.897019 0
M  V30 2275 H 199.691 -6.53728 0.481679 0
M  V30 2276 H 199.211 -5.89515 -1.10597 0
M  V30 2277 H 200.89 -6.41752 -0.822377 0
M  V30 2278 N 201.022 0.148545 -1.56898 0
M  V30 2279 C 201.97 1.20265 -1.99096 0
M  V30 2280 C 202.964 1.44559 -0.883123 0
M  V30 2281 O 204.17 1.4487 -1.0683 0
M  V30 2282 H 200.545 0.404786 -0.63376 0
M  V30 2283 H 202.516 0.82004 -2.86911 0
M  V30 2284 C 201.265 2.52886 -2.3863 0
M  V30 2285 H 200.588 2.35021 -3.23427 0
M  V30 2286 H 202.028 3.25274 -2.7198 0
M  V30 2287 C 200.487 3.13315 -1.23837 0
M  V30 2288 O 201.017 3.98077 -0.538268 0
M  V30 2289 N 199.223 2.72742 -1.00301 0
M  V30 2290 H 198.77 2.03912 -1.5741 0
M  V30 2291 H 198.728 3.13507 -0.236838 0
M  V30 2292 N 202.5 1.5196 0.417844 0
M  V30 2293 C 203.911 1.57851 0.997 0
M  V30 2294 C 204.262 0.413714 1.91789 0
M  V30 2295 O 203.387 -0.467057 2.113 0
M  V30 2296 C 203.982 2.86085 1.81496 0
M  V30 2297 C 202.541 2.94483 2.34428 0
M  V30 2298 C 201.688 2.52707 1.14169 0
M  V30 2299 H 204.639 1.57455 0.198392 0
M  V30 2300 H 204.66 2.70947 2.67148 0
M  V30 2301 H 204.172 3.70842 1.14446 0
M  V30 2302 H 202.273 2.142 3.04875 0
M  V30 2303 H 202.386 3.98546 2.65891 0
M  V30 2304 H 200.75 2.06353 1.49301 0
M  V30 2305 H 201.533 3.39828 0.486999 0
M  V30 2306 N 203.978 -0.674533 1.42435 0
M  V30 2307 C 205.225 -1.43459 1.42919 0
M  V30 2308 C 205.553 -1.94446 0.0457312 0
M  V30 2309 O 204.808 -1.7132 -0.94593 0
M  V30 2310 C 205.107 -2.64767 2.40069 0
M  V30 2311 C 204.773 -2.3232 3.86443 0
M  V30 2312 C 203.435 -2.23182 4.26314 0
M  V30 2313 C 205.787 -2.05977 4.78773 0
M  V30 2314 C 203.115 -1.85827 5.56494 0
M  V30 2315 C 205.467 -1.70125 6.09295 0
M  V30 2316 C 204.131 -1.59498 6.48164 0
M  V30 2317 H 203.401 -0.524952 0.522978 0
M  V30 2318 H 206.048 -0.769097 1.75377 0
M  V30 2319 H 204.353 -3.36349 2.00939 0
M  V30 2320 H 206.05 -3.22949 2.37707 0
M  V30 2321 H 202.64 -2.40334 3.54877 0
M  V30 2322 H 206.824 -2.11969 4.48757 0
M  V30 2323 H 202.08 -1.76168 5.8547 0
M  V30 2324 H 206.254 -1.48767 6.80324 0
M  V30 2325 H 203.881 -1.30322 7.48946 0
M  V30 2326 N 205.456 -1.28612 -0.910864 0
M  V30 2327 C 206.389 -1.07109 -2.01502 0
M  V30 2328 C 207.367 0.013706 -1.62594 0
M  V30 2329 O 208.551 -0.134796 -1.88017 0
M  V30 2330 C 205.678 -0.628255 -3.32822 0
M  V30 2331 C 204.724 -1.71012 -3.90714 0
M  V30 2332 S 205.557 -3.30676 -4.21205 0
M  V30 2333 C 206.713 -2.88234 -5.55583 0
M  V30 2334 H 206.946 -2.00591 -2.19432 0
M  V30 2335 H 204.479 -1.12633 -1.05609 0
M  V30 2336 H 206.437 -0.37946 -4.08742 0
M  V30 2337 H 205.098 0.28678 -3.12788 0
M  V30 2338 H 204.291 -1.35195 -4.85529 0
M  V30 2339 H 203.893 -1.91186 -3.21441 0
M  V30 2340 H 206.185 -2.34584 -6.35591 0
M  V30 2341 H 207.128 -3.81857 -5.96314 0
M  V30 2342 H 207.536 -2.26862 -5.16908 0
M  V30 2343 N 206.934 1.1197 -1.10907 0
M  V30 2344 C 208.159 1.87942 -0.877064 0
M  V30 2345 C 208.584 1.79341 0.567314 0
M  V30 2346 O 207.942 1.15184 1.40009 0
M  V30 2347 C 207.99 3.34926 -1.33629 0
M  V30 2348 O 207.094 4.09303 -0.504447 0
M  V30 2349 H 206.435 0.583785 -0.316371 0
M  V30 2350 H 208.965 1.4157 -1.47712 0
M  V30 2351 H 208.975 3.8577 -1.32837 0
M  V30 2352 H 207.65 3.40504 -2.3881 0
M  V30 2353 H 206.227 3.68393 -0.577993 0
M  V30 2354 N 208.412 0.89855 1.29475 0
M  V30 2355 C 209.637 0.538561 2.00285 0
M  V30 2356 C 210.062 -0.869135 1.66816 0
M  V30 2357 O 209.42 -1.57831 0.892145 0
M  V30 2358 C 209.468 0.736475 3.52999 0
M  V30 2359 O 208.572 -0.211537 4.11857 0
M  V30 2360 H 207.913 0.210563 0.62973 0
M  V30 2361 H 210.443 1.20982 1.64998 0
M  V30 2362 H 210.453 0.640685 4.02938 0
M  V30 2363 H 209.128 1.76276 3.76696 0
M  V30 2364 H 207.705 -0.0682991 3.72837 0
M  V30 2365 N 209.89 -1.43072 0.660911 0
M  V30 2366 C 211.301 -1.84932 0.256348 0
M  V30 2367 C 211.652 -1.55325 -1.19868 0
M  V30 2368 O 210.777 -1.00607 -1.91591 0
M  V30 2369 C 211.372 -3.35684 0.458475 0
M  V30 2370 C 209.931 -3.76245 0.108161 0
M  V30 2371 C 209.078 -2.66749 0.757641 0
M  V30 2372 H 212.029 -1.33116 0.864051 0
M  V30 2373 H 212.05 -3.79365 -0.293683 0
M  V30 2374 H 211.562 -3.572 1.51755 0
M  V30 2375 H 209.663 -3.60338 -0.948014 0
M  V30 2376 H 209.776 -4.76058 0.538992 0
M  V30 2377 H 208.14 -2.53989 0.190185 0
M  V30 2378 H 208.923 -2.91092 1.81989 0
M  V30 2379 N 211.368 -0.403325 -1.52352 0
M  V30 2380 C 212.608 0.173946 -2.03659 0
M  V30 2381 C 212.972 1.42869 -1.28267 0
M  V30 2382 O 214.173 2.08403 -1.69769 0
M  V30 2383 C 212.444 0.421478 -3.54906 0
M  V30 2384 S 214.003 0.967027 -4.28012 0
M  V30 2385 H 210.821 0.0477461 -0.709395 0
M  V30 2386 H 213.423 -0.554906 -1.87459 0
M  V30 2387 H 212.127 -0.498616 -4.0736 0
M  V30 2388 H 211.658 1.17837 -3.75337 0
M  V30 2389 H 213.673 2.24812 -4.4235 0
M  V30 2390 N 212.846 1.57033 -0.133567 0
M  V30 2391 C 213.796 2.12641 0.822671 0
M  V30 2392 C 214.78 1.05081 1.21847 0
M  V30 2393 O 215.972 1.31287 1.18713 0
M  V30 2394 C 213.101 2.74094 2.06706 0
M  V30 2395 C 212.187 3.88757 1.69497 0
M  V30 2396 N 212.578 4.95194 1.03037 0
M  V30 2397 C 210.876 3.99213 1.98859 0
M  V30 2398 C 211.577 5.75414 0.852873 0
M  V30 2399 N 210.553 5.25726 1.3825 0
M  V30 2400 H 214.355 2.92308 0.305537 0
M  V30 2401 H 211.869 1.62256 0.0684276 0
M  V30 2402 H 213.866 3.12285 2.76195 0
M  V30 2403 H 212.526 1.95896 2.5895 0
M  V30 2404 H 213.537 5.13247 0.692669 0
M  V30 2405 H 210.214 3.32075 2.53047 0
M  V30 2406 H 211.604 6.71089 0.330091 0
M  V30 2407 N 214.325 -0.140222 1.56975 0
M  V30 2408 C 215.574 -0.850152 1.82908 0
M  V30 2409 C 215.887 -1.82028 0.715892 0
M  V30 2410 O 217.093 -2.57485 0.861016 0
M  V30 2411 C 215.549 -1.5625 3.24213 0
M  V30 2412 C 215.157 -0.63443 4.43485 0
M  V30 2413 C 216.901 -2.25881 3.59413 0
M  V30 2414 C 214.808 -1.34879 5.75814 0
M  V30 2415 H 213.738 -0.321221 0.682153 0
M  V30 2416 H 216.389 -0.102874 1.83211 0
M  V30 2417 H 214.771 -2.35565 3.18316 0
M  V30 2418 H 215.945 0.12398 4.60633 0
M  V30 2419 H 214.26 -0.0461836 4.16374 0
M  V30 2420 H 216.857 -2.79978 4.5554 0
M  V30 2421 H 217.2 -3.02693 2.85802 0
M  V30 2422 H 217.733 -1.53477 3.67001 0
M  V30 2423 H 214.472 -0.622385 6.52539 0
M  V30 2424 H 213.992 -2.07974 5.6259 0
M  V30 2425 H 215.671 -1.88784 6.18845 0
M  V30 2426 N 215.803 -1.52179 -0.40978 0
M  V30 2427 C 216.735 -1.71703 -1.51825 0
M  V30 2428 C 217.748 -0.597445 -1.51441 0
M  V30 2429 O 218.937 -0.872582 -1.55719 0
M  V30 2430 C 216.037 -1.74171 -2.90719 0
M  V30 2431 C 215.21 -3.03156 -3.15302 0
M  V30 2432 C 214.269 -2.97445 -4.34065 0
M  V30 2433 O 213.295 -3.71352 -4.31377 0
M  V30 2434 N 214.497 -2.15191 -5.39141 0
M  V30 2435 H 217.262 -2.67334 -1.35472 0
M  V30 2436 H 214.823 -1.50409 -0.599069 0
M  V30 2437 H 216.815 -1.67884 -3.68235 0
M  V30 2438 H 215.385 -0.860166 -3.00533 0
M  V30 2439 H 214.605 -3.23097 -2.25836 0
M  V30 2440 H 215.893 -3.88484 -3.28569 0
M  V30 2441 H 215.291 -1.54573 -5.44173 0
M  V30 2442 H 213.848 -2.1476 -6.15403 0
M  V30 2443 N 217.281 0.66697 -1.42791 0
M  V30 2444 C 218.53 1.42278 -1.42968 0
M  V30 2445 C 218.843 1.9553 -0.0524489 0
M  V30 2446 O 220.049 2.71414 0.068363 0
M  V30 2447 C 218.505 2.57418 -2.51524 0
M  V30 2448 C 218.113 2.10832 -3.9529 0
M  V30 2449 C 219.857 3.34878 -2.60877 0
M  V30 2450 C 217.764 3.23101 -4.95338 0
M  V30 2451 H 216.694 0.534533 -0.531781 0
M  V30 2452 H 219.345 0.721302 -1.68729 0
M  V30 2453 H 217.727 3.29971 -2.18941 0
M  V30 2454 H 218.901 1.4538 -4.37266 0
M  V30 2455 H 217.216 1.46289 -3.89857 0
M  V30 2456 H 219.813 4.18505 -3.32802 0
M  V30 2457 H 220.156 3.81993 -1.6549 0
M  V30 2458 H 220.689 2.69398 -2.92693 0
M  V30 2459 H 217.428 2.80969 -5.9223 0
M  V30 2460 H 216.948 3.87309 -4.57987 0
M  V30 2461 H 218.627 3.88447 -5.17415 0
M  V30 2462 N 218.759 1.29093 0.90403 0
M  V30 2463 C 220.008 1.16187 1.64874 0
M  V30 2464 C 220.321 -0.286742 1.93487 0
M  V30 2465 O 221.527 -0.537062 2.66135 0
M  V30 2466 C 219.983 2.03177 2.97064 0
M  V30 2467 C 219.591 3.52836 2.76062 0
M  V30 2468 C 221.335 1.98984 3.74974 0
M  V30 2469 C 219.242 4.31945 4.03952 0
M  V30 2470 H 218.172 0.431246 0.618501 0
M  V30 2471 H 220.823 1.53699 1.00243 0
M  V30 2472 H 219.205 1.5853 3.62883 0
M  V30 2473 H 220.379 4.05507 2.18863 0
M  V30 2474 H 218.694 3.58656 2.11553 0
M  V30 2475 H 221.291 2.55351 4.69787 0
M  V30 2476 H 221.634 0.968815 4.0487 0
M  V30 2477 H 222.167 2.41652 3.15989 0
M  V30 2478 H 218.906 5.34667 3.79225 0
M  V30 2479 H 218.426 3.84045 4.60727 0
M  V30 2480 H 220.105 4.42379 4.72133 0
M  V30 2481 N 220.237 -1.11381 1.11499 0
M  V30 2482 C 221.2 -2.15622 0.777153 0
M  V30 2483 C 222.2 -1.59504 -0.203779 0
M  V30 2484 O 223.39 -1.74188 0.020782 0
M  V30 2485 C 220.522 -3.40556 0.153116 0
M  V30 2486 H 221.715 -2.47021 1.70061 0
M  V30 2487 H 219.268 -1.26577 0.916952 0
M  V30 2488 H 220.003 -3.14767 -0.780536 0
M  V30 2489 H 219.788 -3.8257 0.859238 0
M  V30 2490 H 221.278 -4.17546 -0.0671044 0
M  V30 2491 N 221.715 -0.905404 -1.28997 0
M  V30 2492 C 223.131 -0.60233 -1.47798 0
M  V30 2493 C 223.331 0.854645 -1.82478 0
M  V30 2494 O 222.387 1.63439 -1.92468 0
M  V30 2495 C 223.7 -1.53306 -2.58685 0
M  V30 2496 C 225.248 -1.53887 -2.72558 0
M  V30 2497 C 225.723 -2.45602 -3.86579 0
M  V30 2498 N 227.214 -2.43681 -3.93921 0
M  V30 2499 C 227.949 -3.11347 -4.81509 0
M  V30 2500 N 227.445 -3.88313 -5.73746 0
M  V30 2501 N 229.238 -3.00476 -4.75048 0
M  V30 2502 H 221.389 -1.84765 -1.04764 0
M  V30 2503 H 223.652 -0.792025 -0.520961 0
M  V30 2504 H 223.358 -2.57141 -2.39941 0
M  V30 2505 H 223.232 -1.25787 -3.55609 0
M  V30 2506 H 225.619 -0.507941 -2.90696 0
M  V30 2507 H 225.7 -1.85447 -1.76191 0
M  V30 2508 H 225.344 -3.48792 -3.69197 0
M  V30 2509 H 225.274 -2.11349 -4.82327 0
M  V30 2510 H 227.765 -1.87767 -3.27951 0
M  V30 2511 H 228.078 -4.36985 -6.37389 0
M  V30 2512 H 226.423 -3.92419 -5.73614 0
M  V30 2513 H 229.614 -2.39858 -4.01977 0
M  V30 2514 H 229.787 -3.53485 -5.43095 0
M  V30 2515 N 223.193 1.4272 -0.668489 0
M  V30 2516 C 224.103 2.34596 0.0139753 0
M  V30 2517 C 225.119 1.5474 0.795703 0
M  V30 2518 O 226.295 1.87334 0.739466 0
M  V30 2519 C 223.36 3.33202 0.957982 0
M  V30 2520 C 222.421 4.28957 0.17149 0
M  V30 2521 C 221.654 5.22853 1.07053 0
M  V30 2522 O 221.877 5.21531 2.31001 0
M  V30 2523 O 220.811 5.9952 0.534727 0
M  V30 2524 H 224.637 2.9448 -0.742661 0
M  V30 2525 H 222.222 1.43117 -0.428705 0
M  V30 2526 H 224.104 3.93796 1.50008 0
M  V30 2527 H 222.779 2.758 1.69458 0
M  V30 2528 H 221.686 3.71796 -0.414558 0
M  V30 2529 H 223.019 4.89383 -0.52586 0
M  V30 2530 N 224.671 0.411399 1.52136 0
M  V30 2531 C 225.92 -0.165009 2.01024 0
M  V30 2532 C 226.233 -1.4603 1.30133 0
M  V30 2533 O 227.439 -2.1181 1.69849 0
M  V30 2534 C 225.895 -0.344618 3.58246 0
M  V30 2535 C 225.503 0.938716 4.38055 0
M  V30 2536 C 227.247 -0.876195 4.15359 0
M  V30 2537 C 225.154 0.726172 5.86925 0
M  V30 2538 H 224.084 -0.0654407 0.751155 0
M  V30 2539 H 226.735 0.537192 1.75461 0
M  V30 2540 H 225.117 -1.10921 3.80148 0
M  V30 2541 H 226.291 1.70963 4.27912 0
M  V30 2542 H 224.606 1.39688 3.92271 0
M  V30 2543 H 227.203 -1.05128 5.24263 0
M  V30 2544 H 227.546 -1.85152 3.7286 0
M  V30 2545 H 228.079 -0.170607 3.97434 0
M  V30 2546 H 224.818 1.67312 6.33788 0
M  V30 2547 H 224.338 -0.00540283 5.998 0
M  V30 2548 H 226.017 0.369231 6.45946 0
M  V30 2549 N 226.149 -1.5696 0.141893 0
M  V30 2550 C 227.097 -2.17784 -0.816874 0
M  V30 2551 C 228.091 -1.1334 -1.25899 0
M  V30 2552 O 229.297 -1.316 -1.22806 0
M  V30 2553 H 225.672 -0.697278 -0.281615 0
M  V30 2554 H 227.643 -2.97087 -0.279621 0
M  V30 2555 C 226.392 -2.80983 -2.04802 0
M  V30 2556 H 225.715 -3.61062 -1.7168 0
M  V30 2557 H 227.155 -3.2705 -2.69841 0
M  V30 2558 C 225.614 -1.79228 -2.8527 0
M  V30 2559 O 226.144 -1.25962 -3.8144 0
M  V30 2560 N 224.35 -1.48647 -2.49704 0
M  V30 2561 H 223.897 -1.92155 -1.71564 0
M  V30 2562 H 223.855 -0.808115 -3.03837 0
M  V30 2563 N 227.627 0.131896 -1.57047 0
M  V30 2564 C 228.574 1.16236 -1.99393 0
M  V30 2565 C 229.544 1.41863 -0.863943 0
M  V30 2566 O 230.729 1.53946 -1.12718 0
M  V30 2567 C 227.869 2.48708 -2.39245 0
M  V30 2568 C 226.982 2.30127 -3.65603 0
M  V30 2569 C 226.117 3.55738 -3.94492 0
M  V30 2570 C 225.156 3.32259 -5.14073 0
M  V30 2571 N 224.293 4.50039 -5.38896 0
M  V30 2572 H 229.133 0.794251 -2.87221 0
M  V30 2573 H 226.67 0.380707 -1.42088 0
M  V30 2574 H 228.628 3.25969 -2.60384 0
M  V30 2575 H 227.258 2.83437 -1.54478 0
M  V30 2576 H 226.31 1.43845 -3.52154 0
M  V30 2577 H 227.622 2.08746 -4.5302 0
M  V30 2578 H 226.776 4.41423 -4.1621 0
M  V30 2579 H 225.515 3.80138 -3.05526 0
M  V30 2580 H 224.52 2.44963 -4.92212 0
M  V30 2581 H 225.745 3.09242 -6.04604 0
M  V30 2582 H 223.691 4.74584 -4.52886 0
M  V30 2583 H 223.608 4.31716 -6.2061 0
M  V30 2584 H 224.876 5.36895 -5.65123 0
M  V30 2585 N 229.106 1.52395 0.401703 0
M  V30 2586 C 230.517 1.58899 0.980202 0
M  V30 2587 C 230.868 0.434032 1.91339 0
M  V30 2588 O 229.993 -0.444619 2.11783 0
M  V30 2589 C 230.588 2.87994 1.78451 0
M  V30 2590 C 229.147 2.96953 2.31292 0
M  V30 2591 C 228.294 2.53903 1.11483 0
M  V30 2592 H 231.245 1.57657 0.18168 0
M  V30 2593 H 231.266 2.73765 2.64259 0
M  V30 2594 H 230.778 3.72035 1.10506 0
M  V30 2595 H 228.879 2.17422 3.02586 0
M  V30 2596 H 228.992 4.01344 2.61649 0
M  V30 2597 H 227.356 2.07925 1.47104 0
M  V30 2598 H 228.139 3.40326 0.450928 0
M  V30 2599 N 230.584 -0.659388 1.43143 0
M  V30 2600 C 231.547 -1.75432 1.47501 0
M  V30 2601 C 232.547 -1.56707 0.360512 0
M  V30 2602 O 233.737 -1.62717 0.622002 0
M  V30 2603 C 230.869 -3.14239 1.32162 0
M  V30 2604 H 232.062 -1.7295 2.45006 0
M  V30 2605 H 229.615 -0.870469 1.29817 0
M  V30 2606 H 230.35 -3.22336 0.356401 0
M  V30 2607 H 230.135 -3.29235 2.12948 0
M  V30 2608 H 231.625 -3.94094 1.3813 0
M  V30 2609 N 232.062 -1.29571 -0.897171 0
M  V30 2610 C 233.009 -1.14916 -2.00158 0
M  V30 2611 C 233.979 -0.0418149 -1.66047 0
M  V30 2612 O 235.164 -0.209793 -1.89643 0
M  V30 2613 C 232.304 -0.834307 -3.34863 0
M  V30 2614 C 231.417 -2.02234 -3.8174 0
M  V30 2615 C 230.552 -1.64664 -5.05034 0
M  V30 2616 C 229.591 -2.80033 -5.44286 0
M  V30 2617 N 228.728 -2.42843 -6.58765 0
M  V30 2618 H 233.568 -2.09403 -2.12025 0
M  V30 2619 H 231.105 -1.042 -1.0383 0
M  V30 2620 H 233.063 -0.632436 -4.12379 0
M  V30 2621 H 231.693 0.0736656 -3.22716 0
M  V30 2622 H 230.745 -2.33583 -3.00238 0
M  V30 2623 H 232.057 -2.88673 -4.06779 0
M  V30 2624 H 231.211 -1.4078 -5.9014 0
M  V30 2625 H 229.95 -0.753766 -4.8184 0
M  V30 2626 H 228.955 -3.04596 -4.57713 0
M  V30 2627 H 230.18 -3.69989 -5.6946 0
M  V30 2628 H 228.126 -1.56046 -6.3717 0
M  V30 2629 H 228.043 -3.22815 -6.83613 0
M  V30 2630 H 229.311 -2.22285 -7.47134 0
M  V30 2631 N 233.54 1.10788 -1.12088 0
M  V30 2632 C 234.487 2.17025 -0.785407 0
M  V30 2633 C 235.457 1.64265 0.246191 0
M  V30 2634 O 236.642 1.90412 0.121584 0
M  V30 2635 C 233.782 3.44249 -0.242177 0
M  V30 2636 C 232.895 4.1098 -1.33115 0
M  V30 2637 C 232.03 5.25911 -0.747741 0
M  V30 2638 C 231.069 5.84538 -1.81609 0
M  V30 2639 N 230.206 6.90853 -1.25167 0
M  V30 2640 H 235.046 2.45066 -1.69548 0
M  V30 2641 H 232.583 1.20297 -0.846582 0
M  V30 2642 H 234.541 4.17101 0.0908026 0
M  V30 2643 H 233.171 3.16571 0.631072 0
M  V30 2644 H 232.223 3.36133 -1.78097 0
M  V30 2645 H 233.535 4.50601 -2.13917 0
M  V30 2646 H 232.689 6.056 -0.365216 0
M  V30 2647 H 231.428 4.87614 0.0915188 0
M  V30 2648 H 230.433 5.03522 -2.20785 0
M  V30 2649 H 231.658 6.249 -2.6585 0
M  V30 2650 H 229.604 6.54562 -0.434174 0
M  V30 2651 H 229.521 7.29166 -1.99633 0
M  V30 2652 H 230.789 7.7433 -0.896259 0
M  V30 2653 N 235.018 0.912232 1.28515 0
M  V30 2654 C 236.243 0.559774 1.99703 0
M  V30 2655 C 236.668 -0.851393 1.67729 0
M  V30 2656 O 236.026 -1.56875 0.908834 0
M  V30 2657 C 236.074 0.773874 3.52198 0
M  V30 2658 O 235.178 -0.167842 4.12058 0
M  V30 2659 H 234.519 0.21723 0.627461 0
M  V30 2660 H 237.049 1.22725 1.63706 0
M  V30 2661 H 237.059 0.683386 4.02236 0
M  V30 2662 H 235.734 1.80261 3.74805 0
M  V30 2663 H 234.311 -0.0287509 3.72889 0
M  V30 2664 N 236.496 -1.42363 0.676048 0
M  V30 2665 C 237.426 -2.33497 0.0124832 0
M  V30 2666 C 238.407 -1.50748 -0.787981 0
M  V30 2667 O 239.592 -1.79346 -0.744884 0
M  V30 2668 C 236.722 -3.34377 -0.938582 0
M  V30 2669 C 235.676 -4.27289 -0.246622 0
M  V30 2670 C 235.002 -5.18386 -1.31071 0
M  V30 2671 C 236.302 -5.14916 0.875125 0
M  V30 2672 H 237.996 -2.89233 0.773593 0
M  V30 2673 H 235.542 -1.39073 0.37346 0
M  V30 2674 H 237.495 -3.97044 -1.41188 0
M  V30 2675 H 236.219 -2.76947 -1.73113 0
M  V30 2676 H 234.878 -3.66018 0.206456 0
M  V30 2677 H 234.526 -4.57282 -2.09528 0
M  V30 2678 H 234.226 -5.81378 -0.852839 0
M  V30 2679 H 235.75 -5.83929 -1.78492 0
M  V30 2680 H 237.164 -5.71262 0.482983 0
M  V30 2681 H 235.561 -5.86747 1.25887 0
M  V30 2682 H 236.631 -4.53242 1.72335 0
M  V30 2683 N 237.974 -0.419461 -1.51915 0
M  V30 2684 C 238.904 0.391813 -2.30189 0
M  V30 2685 C 239.885 1.03699 -1.34836 0
M  V30 2686 O 241.07 1.04403 -1.63748 0
M  V30 2687 C 238.2 1.50312 -3.13087 0
M  V30 2688 C 237.154 0.9824 -4.16573 0
M  V30 2689 C 236.48 2.18809 -4.8788 0
M  V30 2690 C 237.78 0.0292356 -5.22292 0
M  V30 2691 H 239.474 -0.26135 -2.98257 0
M  V30 2692 H 237.02 -0.127134 -1.43438 0
M  V30 2693 H 238.973 2.07773 -3.66617 0
M  V30 2694 H 237.697 2.18431 -2.42807 0
M  V30 2695 H 236.356 0.430119 -3.64068 0
M  V30 2696 H 236.004 2.85507 -4.14119 0
M  V30 2697 H 235.704 1.84615 -5.57845 0
M  V30 2698 H 237.228 2.76858 -5.44226 0
M  V30 2699 H 238.642 0.512976 -5.71 0
M  V30 2700 H 237.039 -0.2244 -5.9968 0
M  V30 2701 H 238.109 -0.912931 -4.76228 0
M  V30 2702 N 239.452 1.56882 -0.150215 0
M  V30 2703 C 240.677 2.01027 0.510184 0
M  V30 2704 C 241.102 1.02966 1.57415 0
M  V30 2705 O 240.46 0.00590158 1.81299 0
M  V30 2706 C 240.508 3.43899 1.08472 0
M  V30 2707 O 239.612 3.4885 2.19948 0
M  V30 2708 H 238.953 0.652233 0.124451 0
M  V30 2709 H 241.483 2.03093 -0.247894 0
M  V30 2710 H 241.493 3.82766 1.41259 0
M  V30 2711 H 240.168 4.14776 0.305582 0
M  V30 2712 H 238.745 3.21827 1.88366 0
M  V30 2713 N 240.93 -0.123565 1.57115 0
M  V30 2714 C 241.878 -1.17082 2.00984 0
M  V30 2715 C 242.872 -1.43136 0.906009 0
M  V30 2716 O 244.078 -1.43152 1.09121 0
M  V30 2717 H 240.453 -0.394653 0.64012 0
M  V30 2718 H 242.424 -0.774292 2.88179 0
M  V30 2719 C 241.173 -2.49057 2.42623 0
M  V30 2720 H 240.496 -2.29846 3.27125 0
M  V30 2721 H 241.936 -3.20906 2.7712 0
M  V30 2722 C 240.395 -3.11305 1.28805 0
M  V30 2723 O 240.925 -3.97171 0.60153 0
M  V30 2724 N 239.131 -2.71111 1.04628 0
M  V30 2725 H 238.678 -2.01382 1.60634 0
M  V30 2726 H 238.636 -3.1309 0.286685 0
M  V30 2727 N 242.408 -1.52605 -0.393616 0
M  V30 2728 C 243.371 -1.76415 -1.46323 0
M  V30 2729 C 244.371 -0.634126 -1.47768 0
M  V30 2730 O 245.561 -0.902142 -1.4902 0
M  V30 2731 C 242.693 -1.8607 -2.85641 0
M  V30 2732 H 243.886 -2.71916 -1.26498 0
M  V30 2733 H 241.439 -1.43257 -0.625073 0
M  V30 2734 H 242.174 -0.925378 -3.10817 0
M  V30 2735 H 241.959 -2.68235 -2.85993 0
M  V30 2736 H 243.449 -2.06179 -3.63153 0
M  V30 2737 N 243.887 0.651787 -1.4349 0
M  V30 2738 C 244.797 1.79368 -1.5121 0
M  V30 2739 C 245.813 1.69361 -0.399093 0
M  V30 2740 O 246.989 1.90505 -0.653431 0
M  V30 2741 C 244.054 3.15653 -1.43401 0
M  V30 2742 C 243.115 3.37446 -2.65384 0
M  V30 2743 C 242.348 4.67229 -2.57939 0
M  V30 2744 O 242.571 5.46676 -1.62792 0
M  V30 2745 O 241.505 4.90773 -3.48462 0
M  V30 2746 H 245.331 1.7581 -2.47638 0
M  V30 2747 H 242.916 0.810447 -1.25507 0
M  V30 2748 H 244.798 3.96935 -1.41494 0
M  V30 2749 H 243.473 3.19798 -0.501085 0
M  V30 2750 H 242.38 2.55923 -2.72863 0
M  V30 2751 H 243.713 3.38148 -3.57654 0
M  V30 2752 N 245.365 1.30045 0.890287 0
M  V30 2753 C 246.312 1.15976 1.99545 0
M  V30 2754 C 247.282 0.0506202 1.66023 0
M  V30 2755 O 248.467 0.219847 1.89529 0
M  V30 2756 C 245.607 0.852054 3.34416 0
M  V30 2757 C 244.72 2.04255 3.80662 0
M  V30 2758 C 243.855 1.6734 5.04154 0
M  V30 2759 C 242.894 2.82916 5.42794 0
M  V30 2760 N 242.031 2.46333 6.57468 0
M  V30 2761 H 246.871 2.10524 2.10911 0
M  V30 2762 H 244.408 1.04749 1.03276 0
M  V30 2763 H 246.366 0.654296 4.12037 0
M  V30 2764 H 244.996 -0.0565502 3.2275 0
M  V30 2765 H 244.048 2.35172 2.98995 0
M  V30 2766 H 245.36 2.90826 4.05242 0
M  V30 2767 H 244.514 1.43908 5.89386 0
M  V30 2768 H 243.253 0.779308 4.81433 0
M  V30 2769 H 242.258 3.0702 4.56091 0
M  V30 2770 H 243.483 3.73004 5.6749 0
M  V30 2771 H 241.429 1.59423 6.36334 0
M  V30 2772 H 241.346 3.26436 6.81891 0
M  V30 2773 H 242.614 2.26244 7.45945 0
M  V30 2774 N 246.843 -1.10192 1.12674 0
M  V30 2775 C 247.775 -2.16418 0.754701 0
M  V30 2776 C 248.788 -1.61309 -0.21986 0
M  V30 2777 O 249.977 -1.785 -0.000826841 0
M  V30 2778 C 247.077 -3.38762 0.096698 0
M  V30 2779 C 246.25 -4.23307 1.10136 0
M  V30 2780 C 245.309 -5.24092 0.470513 0
M  V30 2781 O 244.335 -5.57906 1.12824 0
M  V30 2782 N 245.537 -5.75491 -0.760948 0
M  V30 2783 H 248.302 -2.48943 1.66875 0
M  V30 2784 H 245.863 -1.25834 1.01869 0
M  V30 2785 H 247.855 -4.03291 -0.337384 0
M  V30 2786 H 246.425 -3.04192 -0.720153 0
M  V30 2787 H 245.645 -3.55036 1.71299 0
M  V30 2788 H 246.933 -4.76624 1.78064 0
M  V30 2789 H 246.331 -5.50222 -1.31424 0
M  V30 2790 H 244.888 -6.41792 -1.13781 0
M  V30 2791 N 248.321 -0.919034 -1.28029 0
M  V30 2792 C 249.268 -0.410005 -2.27129 0
M  V30 2793 C 250.238 0.518405 -1.57803 0
M  V30 2794 O 251.423 0.439451 -1.8567 0
M  V30 2795 C 248.563 0.339054 -3.4343 0
M  V30 2796 C 247.676 -0.622468 -4.27492 0
M  V30 2797 C 246.811 0.145567 -5.31001 0
M  V30 2798 C 245.85 -0.809226 -6.06727 0
M  V30 2799 N 244.987 -0.0743728 -7.02061 0
M  V30 2800 H 249.827 -1.26011 -2.70047 0
M  V30 2801 H 247.364 -0.632663 -1.328 0
M  V30 2802 H 249.322 0.789586 -4.0966 0
M  V30 2803 H 247.952 1.15346 -3.01488 0
M  V30 2804 H 247.004 -1.19153 -3.61257 0
M  V30 2805 H 248.316 -1.35252 -4.80113 0
M  V30 2806 H 247.47 0.656417 -6.03139 0
M  V30 2807 H 246.209 0.908643 -4.79161 0
M  V30 2808 H 245.214 -1.3314 -5.33436 0
M  V30 2809 H 246.439 -1.57194 -6.60656 0
M  V30 2810 H 244.385 0.670616 -6.52563 0
M  V30 2811 H 244.302 -0.744157 -7.52329 0
M  V30 2812 H 245.57 0.416109 -7.78389 0
M  V30 2813 N 249.799 1.42003 -0.683588 0
M  V30 2814 C 250.746 2.30798 -0.0107309 0
M  V30 2815 C 251.716 1.4645 0.783688 0
M  V30 2816 O 252.901 1.75263 0.754156 0
M  V30 2817 C 250.041 3.3238 0.928306 0
M  V30 2818 C 249.154 4.31814 0.126776 0
M  V30 2819 C 248.289 5.20468 1.06236 0
M  V30 2820 C 247.328 6.11577 0.253035 0
M  V30 2821 N 246.465 6.92754 1.14179 0
M  V30 2822 H 251.305 2.8778 -0.773727 0
M  V30 2823 H 248.842 1.41745 -0.393283 0
M  V30 2824 H 250.8 3.89813 1.48666 0
M  V30 2825 H 249.43 2.76976 1.65783 0
M  V30 2826 H 248.482 3.76427 -0.54833 0
M  V30 2827 H 249.794 4.96276 -0.501192 0
M  V30 2828 H 248.948 5.82677 1.69035 0
M  V30 2829 H 247.687 4.56204 1.7242 0
M  V30 2830 H 246.692 5.48428 -0.388108 0
M  V30 2831 H 247.917 6.77892 -0.404839 0
M  V30 2832 H 245.863 6.3111 1.78987 0
M  V30 2833 H 245.78 7.53855 0.569111 0
M  V30 2834 H 247.048 7.59441 1.75697 0
M  V30 2835 N 251.277 0.427512 1.51691 0
M  V30 2836 C 252.207 -0.3796 2.30394 0
M  V30 2837 C 253.188 -1.02982 1.35384 0
M  V30 2838 O 254.373 -1.03534 1.643 0
M  V30 2839 C 251.503 -1.48649 3.1388 0
M  V30 2840 C 250.457 -0.960294 4.17088 0
M  V30 2841 C 249.783 -2.16219 4.89033 0
M  V30 2842 C 251.083 -0.00153679 5.223 0
M  V30 2843 H 252.777 0.277164 2.98114 0
M  V30 2844 H 250.323 0.134739 1.43368 0
M  V30 2845 H 252.276 -2.05826 3.67714 0
M  V30 2846 H 251 -2.1714 2.43962 0
M  V30 2847 H 249.659 -0.410806 3.64291 0
M  V30 2848 H 249.307 -2.83307 4.15628 0
M  V30 2849 H 249.007 -1.81654 5.58816 0
M  V30 2850 H 250.531 -2.73968 5.45687 0
M  V30 2851 H 251.945 -0.482687 5.71264 0
M  V30 2852 H 250.342 0.256199 5.99553 0
M  V30 2853 H 251.412 0.938174 4.75738 0
M  V30 2854 N 252.755 -1.56801 0.158532 0
M  V30 2855 C 254.166 -1.83189 -0.360366 0
M  V30 2856 C 254.517 -1.07778 -1.63946 0
M  V30 2857 O 253.642 -0.326718 -2.13919 0
M  V30 2858 C 254.237 -3.32297 -0.660595 0
M  V30 2859 C 252.796 -3.59227 -1.12398 0
M  V30 2860 C 251.943 -2.76877 -0.153097 0
M  V30 2861 H 254.894 -1.54008 0.383031 0
M  V30 2862 H 254.915 -3.4908 -1.51405 0
M  V30 2863 H 254.427 -3.87156 0.270527 0
M  V30 2864 H 252.528 -3.09766 -2.07064 0
M  V30 2865 H 252.641 -4.67632 -1.04197 0
M  V30 2866 H 251.005 -2.46319 -0.647983 0
M  V30 2867 H 251.788 -3.34511 0.77182 0
M  V30 2868 N 254.233 0.115231 -1.57178 0
M  V30 2869 C 255.48 0.822351 -1.8505 0
M  V30 2870 C 255.808 1.79701 -0.744168 0
M  V30 2871 O 255.063 1.93909 0.26414 0
M  V30 2872 C 255.362 1.60324 -3.19423 0
M  V30 2873 C 255.028 0.772536 -4.44233 0
M  V30 2874 C 253.69 0.543468 -4.78121 0
M  V30 2875 C 256.042 0.193746 -5.2084 0
M  V30 2876 C 253.37 -0.274583 -5.86057 0
M  V30 2877 C 255.722 -0.611517 -6.29637 0
M  V30 2878 C 254.386 -0.850867 -6.62055 0
M  V30 2879 H 253.656 0.30092 -0.677147 0
M  V30 2880 H 256.303 0.0845802 -1.91313 0
M  V30 2881 H 254.608 2.41203 -3.08753 0
M  V30 2882 H 256.305 2.1544 -3.38211 0
M  V30 2883 H 252.895 0.96117 -4.17683 0
M  V30 2884 H 257.079 0.357926 -4.95008 0
M  V30 2885 H 252.335 -0.469206 -6.09597 0
M  V30 2886 H 256.509 -1.06697 -6.88178 0
M  V30 2887 H 254.136 -1.48657 -7.45523 0
M  V30 2888 N 255.711 1.52812 0.385517 0
M  V30 2889 C 256.658 1.77838 1.47113 0
M  V30 2890 C 257.628 0.621757 1.54024 0
M  V30 2891 O 258.813 0.861846 1.70226 0
M  V30 2892 C 255.953 1.95618 2.84302 0
M  V30 2893 C 255.066 3.23316 2.86515 0
M  V30 2894 C 254.201 3.31394 4.15152 0
M  V30 2895 C 253.24 4.53201 4.1143 0
M  V30 2896 N 252.377 4.58542 5.3168 0
M  V30 2897 H 257.217 2.70482 1.25073 0
M  V30 2898 H 254.754 1.34006 0.606692 0
M  V30 2899 H 256.712 2.03912 3.63972 0
M  V30 2900 H 255.342 1.06331 3.04784 0
M  V30 2901 H 254.394 3.24076 1.99195 0
M  V30 2902 H 255.706 4.13045 2.79634 0
M  V30 2903 H 254.86 3.3889 5.03228 0
M  V30 2904 H 253.599 2.39645 4.24761 0
M  V30 2905 H 252.604 4.45827 3.21742 0
M  V30 2906 H 253.829 5.46271 4.03442 0
M  V30 2907 H 251.775 3.69686 5.41912 0
M  V30 2908 H 251.692 5.42148 5.26889 0
M  V30 2909 H 252.96 4.70296 6.21644 0
M  V30 2910 N 257.189 -0.644168 1.43834 0
M  V30 2911 C 258.435 -1.40603 1.46146 0
M  V30 2912 C 258.768 -1.93997 0.0887717 0
M  V30 2913 O 258.043 -1.72854 -0.891724 0
M  V30 2914 C 258.326 -2.58086 2.51124 0
M  V30 2915 C 258.179 -2.10126 3.97702 0
M  V30 2916 C 259.498 -3.60291 2.52742 0
M  V30 2917 H 256.617 -0.509905 0.532134 0
M  V30 2918 H 259.259 -0.729502 1.75437 0
M  V30 2919 H 257.409 -3.15801 2.26278 0
M  V30 2920 H 259.081 -1.57342 4.33637 0
M  V30 2921 H 257.324 -1.41419 4.10101 0
M  V30 2922 H 257.995 -2.94649 4.66783 0
M  V30 2923 H 260.471 -3.12352 2.7491 0
M  V30 2924 H 259.347 -4.40032 3.28121 0
M  V30 2925 H 259.608 -4.1349 1.56455 0
M  V30 2926 N 258.668 -1.30515 -0.883378 0
M  V30 2927 C 259.896 -1.22359 -1.66841 0
M  V30 2928 C 260.311 0.213296 -1.87591 0
M  V30 2929 O 259.668 1.14075 -1.42454 0
M  V30 2930 C 259.719 -1.95011 -3.04389 0
M  V30 2931 O 259.44 -3.3309 -2.84575 0
M  V30 2932 C 260.941 -1.93532 -3.98824 0
M  V30 2933 H 258.161 -0.423371 -0.520575 0
M  V30 2934 H 260.705 -1.72167 -1.10357 0
M  V30 2935 H 258.86 -1.48997 -3.57601 0
M  V30 2936 H 259.274 -3.69907 -3.71846 0
M  V30 2937 H 260.748 -2.48902 -4.92699 0
M  V30 2938 H 261.225 -0.914627 -4.29571 0
M  V30 2939 H 261.831 -2.39364 -3.51547 0
M  V30 2940 N 260.146 1.09593 -1.13257 0
M  V30 2941 C 261.076 2.18214 -0.830946 0
M  V30 2942 C 262.057 1.68812 0.208966 0
M  V30 2943 O 263.242 1.9408 0.0682666 0
M  V30 2944 C 260.372 3.46051 -0.294296 0
M  V30 2945 C 259.326 4.08778 -1.26826 0
M  V30 2946 C 258.652 5.31419 -0.591449 0
M  V30 2947 C 259.952 4.51476 -2.62615 0
M  V30 2948 H 261.646 2.43703 -1.73923 0
M  V30 2949 H 259.192 1.17128 -0.837675 0
M  V30 2950 H 261.145 4.2134 -0.0709606 0
M  V30 2951 H 259.869 3.20079 0.649366 0
M  V30 2952 H 258.528 3.35505 -1.47756 0
M  V30 2953 H 258.176 5.01727 0.357633 0
M  V30 2954 H 257.876 5.74341 -1.24123 0
M  V30 2955 H 259.4 6.09433 -0.377355 0
M  V30 2956 H 260.814 5.17999 -2.45663 0
M  V30 2957 H 259.211 5.05277 -3.23752 0
M  V30 2958 H 260.281 3.63962 -3.20406 0
M  V30 2959 N 261.624 0.925811 1.2754 0
M  V30 2960 C 262.571 0.422045 2.26908 0
M  V30 2961 C 263.541 -0.510029 1.58076 0
M  V30 2962 O 264.726 -0.429599 1.85901 0
M  V30 2963 C 261.866 -0.320837 3.43605 0
M  V30 2964 C 260.979 0.64513 4.27156 0
M  V30 2965 C 260.114 -0.117405 5.3107 0
M  V30 2966 C 259.153 0.841391 6.0629 0
M  V30 2967 N 258.29 0.111604 7.02011 0
M  V30 2968 H 263.13 1.27441 2.69375 0
M  V30 2969 H 260.667 0.639697 1.32462 0
M  V30 2970 H 262.625 -0.76785 4.10073 0
M  V30 2971 H 261.255 -1.13745 3.02096 0
M  V30 2972 H 260.307 1.21067 3.6062 0
M  V30 2973 H 261.619 1.37797 4.79389 0
M  V30 2974 H 260.773 -0.624422 6.03478 0
M  V30 2975 H 259.512 -0.883219 4.79636 0
M  V30 2976 H 258.517 1.35967 5.32722 0
M  V30 2977 H 259.742 1.60696 6.59813 0
M  V30 2978 H 257.688 -0.635999 6.5291 0
M  V30 2979 H 257.605 0.784044 7.51923 0
M  V30 2980 H 258.873 -0.374823 7.78598 0
M  V30 2981 N 263.102 -1.41638 0.69111 0
M  V30 2982 C 264.049 -2.30789 0.0229705 0
M  V30 2983 C 265.019 -1.46863 -0.775911 0
M  V30 2984 O 266.204 -1.75661 -0.74485 0
M  V30 2985 C 263.344 -3.32868 -0.910666 0
M  V30 2986 C 262.457 -4.31875 -0.103874 0
M  V30 2987 C 261.592 -5.21024 -1.03475 0
M  V30 2988 C 260.631 -6.11702 -0.220598 0
M  V30 2989 N 259.768 -6.93349 -1.10504 0
M  V30 2990 H 264.608 -2.87366 0.788978 0
M  V30 2991 H 262.145 -1.41535 0.400794 0
M  V30 2992 H 264.103 -3.90596 -1.46597 0
M  V30 2993 H 262.733 -2.77851 -1.64312 0
M  V30 2994 H 261.785 -3.76131 0.568285 0
M  V30 2995 H 263.097 -4.96003 0.527504 0
M  V30 2996 H 262.251 -5.83565 -1.65943 0
M  V30 2997 H 260.99 -4.57112 -1.69999 0
M  V30 2998 H 259.995 -5.48215 0.417187 0
M  V30 2999 H 261.22 -6.77668 0.440784 0
M  V30 3000 H 259.166 -6.3205 -1.75638 0
M  V30 3001 H 259.083 -7.54146 -0.529125 0
M  V30 3002 H 260.351 -7.60362 -1.71667 0
M  V30 3003 N 264.58 -0.43555 -1.51462 0
M  V30 3004 C 265.51 0.367376 -2.30592 0
M  V30 3005 C 266.491 1.02263 -1.35928 0
M  V30 3006 O 267.676 1.02661 -1.64847 0
M  V30 3007 C 264.806 1.46983 -3.14664 0
M  V30 3008 C 263.76 0.938161 -4.17591 0
M  V30 3009 C 263.086 2.13622 -4.90173 0
M  V30 3010 C 264.386 -0.0261621 -5.22293 0
M  V30 3011 H 266.08 -0.292969 -2.97963 0
M  V30 3012 H 263.626 -0.14234 -1.43295 0
M  V30 3013 H 265.579 2.03873 -3.688 0
M  V30 3014 H 264.303 2.15843 -2.4511 0
M  V30 3015 H 262.962 0.391481 -3.64504 0
M  V30 3016 H 262.61 2.81098 -4.17124 0
M  V30 3017 H 262.31 1.78688 -5.59772 0
M  V30 3018 H 263.834 2.7107 -5.47132 0
M  V30 3019 H 265.248 0.452384 -5.71512 0
M  V30 3020 H 263.645 -0.287992 -5.99409 0
M  V30 3021 H 264.715 -0.963391 -4.75233 0
M  V30 3022 N 266.058 1.56714 -0.166846 0
M  V30 3023 C 267.307 1.95922 0.479318 0
M  V30 3024 C 267.62 1.05529 1.6469 0
M  V30 3025 O 268.826 1.34399 2.35901 0
M  V30 3026 C 267.282 3.48359 0.90412 0
M  V30 3027 C 266.89 4.47369 -0.237621 0
M  V30 3028 C 268.634 3.96394 1.51896 0
M  V30 3029 C 266.541 5.91039 0.206561 0
M  V30 3030 H 265.471 0.731495 0.18284 0
M  V30 3031 H 268.122 1.81728 -0.254363 0
M  V30 3032 H 266.504 3.57955 1.69365 0
M  V30 3033 H 267.678 4.49485 -1.01489 0
M  V30 3034 H 265.993 4.09366 -0.762128 0
M  V30 3035 H 268.59 5.01186 1.86325 0
M  V30 3036 H 268.933 3.39075 2.41524 0
M  V30 3037 H 269.466 3.89796 0.79395 0
M  V30 3038 H 266.205 6.52221 -0.654834 0
M  V30 3039 H 265.725 5.9224 0.949282 0
M  V30 3040 H 267.404 6.43707 0.651939 0
M  V30 3041 N 267.536 -0.106894 1.57237 0
M  V30 3042 C 268.483 -1.13049 2.01217 0
M  V30 3043 C 269.453 -1.40471 0.886403 0
M  V30 3044 O 270.638 -1.52133 1.15153 0
M  V30 3045 C 267.778 -2.4487 2.43172 0
M  V30 3046 C 266.891 -2.24281 3.69218 0
M  V30 3047 C 266.026 -3.49417 4.00101 0
M  V30 3048 C 265.065 -3.24038 5.19294 0
M  V30 3049 N 264.202 -4.41409 5.45988 0
M  V30 3050 H 269.042 -0.748456 2.88448 0
M  V30 3051 H 266.579 -0.358054 1.42676 0
M  V30 3052 H 268.537 -3.21786 2.65537 0
M  V30 3053 H 267.167 -2.80944 1.58967 0
M  V30 3054 H 266.219 -1.38224 3.54398 0
M  V30 3055 H 267.531 -2.01512 4.56283 0
M  V30 3056 H 266.685 -4.34746 4.2318 0
M  V30 3057 H 265.424 -3.75229 3.11535 0
M  V30 3058 H 264.429 -2.37102 4.96047 0
M  V30 3059 H 265.654 -2.99584 6.09447 0
M  V30 3060 H 263.6 -4.67319 4.60379 0
M  V30 3061 H 263.517 -4.21788 6.274 0
M  V30 3062 H 264.785 -5.27836 5.73593 0
M  V30 3063 N 269.014 -1.53014 -0.377408 0
M  V30 3064 C 269.944 -1.81589 -1.46791 0
M  V30 3065 C 270.925 -0.668622 -1.56408 0
M  V30 3066 O 272.11 -0.917337 -1.71168 0
M  V30 3067 C 269.24 -1.99519 -2.8427 0
M  V30 3068 C 268.194 -3.15249 -2.89486 0
M  V30 3069 C 267.52 -3.18451 -4.29527 0
M  V30 3070 C 268.82 -4.54084 -2.58079 0
M  V30 3071 H 270.514 -2.7291 -1.23127 0
M  V30 3072 H 268.06 -1.31319 -0.590883 0
M  V30 3073 H 270.013 -2.18092 -3.60575 0
M  V30 3074 H 268.737 -1.04897 -3.09296 0
M  V30 3075 H 267.396 -2.96477 -2.15631 0
M  V30 3076 H 267.044 -2.2149 -4.5161 0
M  V30 3077 H 266.744 -3.962 -4.33934 0
M  V30 3078 H 268.268 -3.39193 -5.07721 0
M  V30 3079 H 269.682 -4.72899 -3.24098 0
M  V30 3080 H 268.079 -5.33987 -2.7382 0
M  V30 3081 H 269.149 -4.60006 -1.53372 0
M  V30 3082 N 270.492 0.636531 -1.44174 0
M  V30 3083 C 271.44 1.76995 -1.50915 0
M  V30 3084 C 272.434 1.65053 -0.381295 0
M  V30 3085 O 273.64 1.71197 -0.55601 0
M  V30 3086 H 270.015 0.584247 -0.473455 0
M  V30 3087 H 271.986 1.68432 -2.4632 0
M  V30 3088 C 270.735 3.15314 -1.46534 0
M  V30 3089 H 270.058 3.25149 -2.32633 0
M  V30 3090 H 271.498 3.9453 -1.55312 0
M  V30 3091 C 269.957 3.3639 -0.185305 0
M  V30 3092 O 270.487 3.94699 0.746688 0
M  V30 3093 N 268.693 2.9046 -0.0901606 0
M  V30 3094 H 268.24 2.43193 -0.849416 0
M  V30 3095 H 268.198 3.04937 0.765553 0
M  V30 3096 N 271.97 1.30982 0.876444 0
M  V30 3097 C 273.219 1.19658 1.62373 0
M  V30 3098 C 273.532 -0.245636 1.94052 0
M  V30 3099 O 274.738 -0.48049 2.67214 0
M  V30 3100 C 273.194 2.09433 2.92687 0
M  V30 3101 C 272.802 3.58613 2.68516 0
M  V30 3102 C 274.546 2.06893 3.70669 0
M  V30 3103 C 272.453 4.40416 3.94699 0
M  V30 3104 H 271.383 0.444268 0.609214 0
M  V30 3105 H 274.034 1.55791 0.969605 0
M  V30 3106 H 272.416 1.66191 3.59439 0
M  V30 3107 H 273.59 4.10058 2.10212 0
M  V30 3108 H 271.905 3.63063 2.03898 0
M  V30 3109 H 274.502 2.65258 4.64265 0
M  V30 3110 H 274.845 1.05448 4.02724 0
M  V30 3111 H 275.378 2.48301 3.10792 0
M  V30 3112 H 272.117 5.42591 3.67798 0
M  V30 3113 H 271.637 3.93731 4.52477 0
M  V30 3114 H 273.316 4.52294 4.62644 0
M  V30 3115 N 273.449 -1.08991 1.13837 0
M  V30 3116 C 274.674 -1.85551 0.926585 0
M  V30 3117 C 275.099 -1.80782 -0.519566 0
M  V30 3118 O 274.457 -1.18855 -1.36906 0
M  V30 3119 C 274.505 -3.31266 1.42462 0
M  V30 3120 O 273.609 -4.07822 0.612789 0
M  V30 3121 H 272.95 -0.575192 0.331738 0
M  V30 3122 H 275.48 -1.37604 1.51414 0
M  V30 3123 H 275.49 -3.82112 1.43019 0
M  V30 3124 H 274.165 -3.34052 2.47754 0
M  V30 3125 H 272.742 -3.66731 0.675463 0
M  V30 3126 N 274.927 -0.932562 -1.27047 0
M  V30 3127 C 275.875 -0.42603 -2.28665 0
M  V30 3128 C 276.869 0.49219 -1.62092 0
M  V30 3129 O 278.075 0.371355 -1.76128 0
M  V30 3130 H 274.45 -0.119213 -0.742491 0
M  V30 3131 H 276.421 -1.29579 -2.68797 0
M  V30 3132 C 275.17 0.301426 -3.46391 0
M  V30 3133 H 274.493 -0.39595 -3.97834 0
M  V30 3134 H 275.933 0.6202 -4.1944 0
M  V30 3135 C 274.392 1.51616 -3.00856 0
M  V30 3136 O 274.922 2.61476 -3.04948 0
M  V30 3137 N 273.128 1.36969 -2.56296 0
M  V30 3138 H 272.675 0.475873 -2.53166 0
M  V30 3139 H 272.633 2.18368 -2.26192 0
M  V30 3140 N 276.405 1.4127 -0.698611 0
M  V30 3141 C 277.337 2.292 0.00399731 0
M  V30 3142 C 278.35 1.44944 0.741279 0
M  V30 3143 O 279.539 1.68416 0.591477 0
M  V30 3144 C 276.639 3.22875 1.02979 0
M  V30 3145 C 275.812 4.35904 0.36151 0
M  V30 3146 C 274.871 5.10134 1.29033 0
M  V30 3147 O 273.897 5.63809 0.781562 0
M  V30 3148 N 275.099 5.17885 2.6225 0
M  V30 3149 H 277.864 2.9014 -0.750921 0
M  V30 3150 H 275.425 1.52455 -0.544882 0
M  V30 3151 H 277.417 3.69404 1.65296 0
M  V30 3152 H 275.987 2.63221 1.68622 0
M  V30 3153 H 275.207 3.91719 -0.441584 0
M  V30 3154 H 276.495 5.08696 -0.103055 0
M  V30 3155 H 275.893 4.7573 3.061 0
M  V30 3156 H 274.45 5.6798 3.19754 0
M  V30 3157 N 277.883 0.443576 1.51229 0
M  V30 3158 C 278.831 -0.37904 2.29491 0
M  V30 3159 C 279.825 -1.0153 1.35603 0
M  V30 3160 O 281.031 -0.94955 1.52917 0
M  V30 3161 H 277.406 -0.141053 0.738653 0
M  V30 3162 H 279.377 0.301799 2.9687 0
M  V30 3163 C 278.126 -1.46426 3.15364 0
M  V30 3164 H 277.449 -0.984037 3.87501 0
M  V30 3165 H 278.889 -2.01297 3.7317 0
M  V30 3166 C 277.348 -2.45099 2.31146 0
M  V30 3167 O 277.878 -3.49773 1.9754 0
M  V30 3168 N 276.084 -2.16139 1.94249 0
M  V30 3169 H 275.631 -1.31044 2.21777 0
M  V30 3170 H 275.589 -2.82398 1.38198 0
M  V30 3171 N 279.361 -1.56624 0.175154 0
M  V30 3172 C 280.777 -1.58571 -0.180966 0
M  V30 3173 C 280.977 -1.19065 -1.6256 0
M  V30 3174 O 280.033 -0.904044 -2.35761 0
M  V30 3175 C 281.346 -3.00522 0.103326 0
M  V30 3176 C 282.894 -3.12972 0.0418426 0
M  V30 3177 C 283.369 -4.57022 0.299175 0
M  V30 3178 N 284.86 -4.62541 0.247086 0
M  V30 3179 C 285.595 -5.71857 0.420318 0
M  V30 3180 N 285.091 -6.89717 0.652816 0
M  V30 3181 N 286.884 -5.60972 0.355957 0
M  V30 3182 H 279.035 -1.80589 1.11809 0
M  V30 3183 H 281.298 -0.837178 0.444788 0
M  V30 3184 H 281.004 -3.33916 1.10422 0
M  V30 3185 H 280.878 -3.72344 -0.603299 0
M  V30 3186 H 283.265 -2.79403 -0.949636 0
M  V30 3187 H 283.346 -2.43578 0.781238 0
M  V30 3188 H 282.99 -4.913 1.28788 0
M  V30 3189 H 282.92 -5.24579 -0.460876 0
M  V30 3190 H 285.411 -3.77829 0.0731895 0
M  V30 3191 H 285.724 -7.68911 0.774347 0
M  V30 3192 H 284.069 -6.91572 0.689476 0
M  V30 3193 H 287.26 -4.67773 0.174882 0
M  V30 3194 H 287.433 -6.46111 0.494388 0
M  V30 3195 N 280.839 0.0985539 -1.57292 0
M  V30 3196 C 281.769 1.12064 -2.04851 0
M  V30 3197 C 282.75 1.41981 -0.936767 0
M  V30 3198 O 283.935 1.52071 -1.20781 0
M  V30 3199 C 281.065 2.44144 -2.47004 0
M  V30 3200 C 280.019 2.28643 -3.6181 0
M  V30 3201 C 279.345 3.65869 -3.89929 0
M  V30 3202 C 280.645 1.72986 -4.92822 0
M  V30 3203 H 282.339 0.724979 -2.9049 0
M  V30 3204 H 279.885 0.34729 -1.39749 0
M  V30 3205 H 281.838 3.15914 -2.78884 0
M  V30 3206 H 280.562 2.85639 -1.5836 0
M  V30 3207 H 279.221 1.59318 -3.30172 0
M  V30 3208 H 278.869 4.04885 -2.98458 0
M  V30 3209 H 278.569 3.56344 -4.67218 0
M  V30 3210 H 280.093 4.39112 -4.2428 0
M  V30 3211 H 281.507 2.34593 -5.23105 0
M  V30 3212 H 279.904 1.74229 -5.74251 0
M  V30 3213 H 280.974 0.689007 -4.7998 0
M  V30 3214 N 282.317 1.53212 0.369288 0
M  V30 3215 C 283.264 1.79388 1.45219 0
M  V30 3216 C 284.234 0.638059 1.53356 0
M  V30 3217 O 285.419 0.879852 1.69302 0
M  V30 3218 C 282.559 1.98623 2.82211 0
M  V30 3219 C 281.672 3.26337 2.8307 0
M  V30 3220 C 280.807 3.35779 4.11614 0
M  V30 3221 C 279.846 4.5754 4.06601 0
M  V30 3222 N 278.983 4.64155 5.26787 0
M  V30 3223 H 283.823 2.71794 1.22198 0
M  V30 3224 H 281.36 1.34642 0.592444 0
M  V30 3225 H 283.318 2.07761 3.61789 0
M  V30 3226 H 281.948 1.09558 3.03639 0
M  V30 3227 H 281 3.26171 1.95747 0
M  V30 3228 H 282.312 4.15988 2.75237 0
M  V30 3229 H 281.466 3.44208 4.99606 0
M  V30 3230 H 280.205 2.44137 4.22195 0
M  V30 3231 H 279.21 4.49215 3.16996 0
M  V30 3232 H 280.435 5.50519 3.97625 0
M  V30 3233 H 278.381 3.75413 5.3796 0
M  V30 3234 H 278.298 5.47706 5.21109 0
M  V30 3235 H 279.566 4.76863 6.16621 0
M  V30 3236 N 283.795 -0.628877 1.44509 0
M  V30 3237 C 284.743 -1.76193 1.51852 0
M  V30 3238 C 285.737 -1.64849 0.390042 0
M  V30 3239 O 286.943 -1.709 0.565082 0
M  V30 3240 H 283.318 -0.581728 0.476547 0
M  V30 3241 H 285.289 -1.67123 2.47209 0
M  V30 3242 C 284.038 -3.14533 1.48204 0
M  V30 3243 H 283.361 -3.23911 2.34354 0
M  V30 3244 H 284.801 -3.93701 1.57402 0
M  V30 3245 C 283.26 -3.36287 0.203142 0
M  V30 3246 O 283.79 -3.9509 -0.725745 0
M  V30 3247 N 281.996 -2.90408 0.105563 0
M  V30 3248 H 281.543 -2.42739 0.862301 0
M  V30 3249 H 281.501 -3.05339 -0.749371 0
M  V30 3250 N 285.273 -1.31445 -0.869486 0
M  V30 3251 C 286.22 -1.19135 -1.97675 0
M  V30 3252 C 287.19 -0.0770266 -1.65921 0
M  V30 3253 O 288.375 -0.249972 -1.89155 0
M  V30 3254 C 285.515 -0.905149 -3.33018 0
M  V30 3255 C 284.628 -2.10285 -3.77365 0
M  V30 3256 C 283.763 -1.75339 -5.01427 0
M  V30 3257 C 282.802 -2.91515 -5.38224 0
M  V30 3258 N 281.939 -2.56762 -6.53466 0
M  V30 3259 H 286.779 -2.13853 -2.07535 0
M  V30 3260 H 284.316 -1.06379 -1.01597 0
M  V30 3261 H 286.274 -0.719765 -4.10944 0
M  V30 3262 H 284.904 0.00519624 -3.228 0
M  V30 3263 H 283.956 -2.39899 -2.95216 0
M  V30 3264 H 285.268 -2.97237 -4.00564 0
M  V30 3265 H 284.422 -1.53266 -5.87022 0
M  V30 3266 H 283.161 -0.855801 -4.80133 0
M  V30 3267 H 282.166 -3.14237 -4.51149 0
M  V30 3268 H 283.391 -3.81985 -5.61484 0
M  V30 3269 H 281.337 -1.69526 -6.33717 0
M  V30 3270 H 281.254 -3.37243 -6.76612 0
M  V30 3271 H 282.522 -2.38083 -7.42251 0
M  V30 3272 N 286.751 1.08385 -1.14413 0
M  V30 3273 C 287.976 1.85057 -0.936413 0
M  V30 3274 C 288.401 1.81055 0.509971 0
M  V30 3275 O 287.759 1.1958 1.36273 0
M  V30 3276 C 287.807 3.30505 -1.44217 0
M  V30 3277 O 286.911 4.07491 -0.634409 0
M  V30 3278 H 286.252 0.573425 -0.334784 0
M  V30 3279 H 288.782 1.36799 -1.52142 0
M  V30 3280 H 288.792 3.81348 -1.45043 0
M  V30 3281 H 287.467 3.32734 -2.49522 0
M  V30 3282 H 286.044 3.66368 -0.694902 0
M  V30 3283 N 288.23 0.939286 1.26551 0
M  V30 3284 C 289.476 0.586715 1.94128 0
M  V30 3285 C 289.809 -0.8717 1.73537 0
M  V30 3286 O 289.084 -1.62339 1.07127 0
M  V30 3287 C 289.367 0.927497 3.4795 0
M  V30 3288 C 289.22 2.44052 3.77834 0
M  V30 3289 C 290.539 0.441569 4.37879 0
M  V30 3290 H 287.658 0.21463 0.705055 0
M  V30 3291 H 290.3 1.17316 1.49455 0
M  V30 3292 H 288.45 0.428431 3.8613 0
M  V30 3293 H 290.122 3.01216 3.4938 0
M  V30 3294 H 288.365 2.8848 3.23978 0
M  V30 3295 H 289.036 2.62947 4.85348 0
M  V30 3296 H 291.512 0.869448 4.06915 0
M  V30 3297 H 290.388 0.708856 5.44304 0
M  V30 3298 H 290.649 -0.658467 4.37169 0
M  V30 3299 N 289.708 -1.40897 0.706093 0
M  V30 3300 C 290.655 -2.30751 0.0474474 0
M  V30 3301 C 291.625 -1.47678 -0.76029 0
M  V30 3302 O 292.81 -1.76441 -0.726177 0
M  V30 3303 C 289.95 -3.33815 -0.875309 0
M  V30 3304 C 289.063 -4.31961 -0.0580623 0
M  V30 3305 C 288.198 -5.22093 -0.979425 0
M  V30 3306 C 287.237 -6.11902 -0.155706 0
M  V30 3307 N 286.374 -6.94482 -1.03144 0
M  V30 3308 H 291.214 -2.86513 0.819413 0
M  V30 3309 H 288.751 -1.41102 0.415783 0
M  V30 3310 H 290.709 -3.92129 -1.42446 0
M  V30 3311 H 289.339 -2.79579 -1.61356 0
M  V30 3312 H 288.391 -3.75507 0.608147 0
M  V30 3313 H 289.703 -4.95415 0.580082 0
M  V30 3314 H 288.857 -5.85292 -1.59744 0
M  V30 3315 H 287.596 -4.5889 -1.65141 0
M  V30 3316 H 286.601 -5.47742 0.475309 0
M  V30 3317 H 287.826 -6.77162 0.512635 0
M  V30 3318 H 285.772 -6.33877 -1.68924 0
M  V30 3319 H 285.689 -7.54665 -0.449108 0
M  V30 3320 H 286.957 -7.6214 -1.63593 0
M  V30 3321 N 291.186 -0.45159 -1.50991 0
M  V30 3322 C 292.133 0.352625 -2.2809 0
M  V30 3323 C 293.103 1.0044 -1.32291 0
M  V30 3324 O 294.288 1.02058 -1.6121 0
M  V30 3325 C 291.428 1.43983 -3.13629 0
M  V30 3326 C 290.541 0.804772 -4.24438 0
M  V30 3327 C 289.676 1.86822 -4.97263 0
M  V30 3328 C 288.715 1.21236 -5.99973 0
M  V30 3329 N 287.852 2.2178 -6.66152 0
M  V30 3330 H 292.692 -0.311186 -2.96371 0
M  V30 3331 H 290.229 -0.165308 -1.46168 0
M  V30 3332 H 292.187 2.08161 -3.61559 0
M  V30 3333 H 290.817 2.07307 -2.47434 0
M  V30 3334 H 289.869 0.0509129 -3.80366 0
M  V30 3335 H 291.181 0.286076 -4.97979 0
M  V30 3336 H 290.335 2.58628 -5.48813 0
M  V30 3337 H 289.074 2.42068 -4.23385 0
M  V30 3338 H 288.079 0.479828 -5.47702 0
M  V30 3339 H 289.304 0.667051 -6.75816 0
M  V30 3340 H 287.25 2.76079 -5.95077 0
M  V30 3341 H 287.167 1.74841 -7.35504 0
M  V30 3342 H 288.435 2.93026 -7.22327 0
M  V30 3343 N 292.664 1.56529 -0.183458 0
M  V30 3344 C 293.596 2.15747 0.773697 0
M  V30 3345 C 294.609 1.1162 1.1851 0
M  V30 3346 O 295.798 1.3876 1.12285 0
M  V30 3347 C 292.898 2.6952 2.05456 0
M  V30 3348 C 292.071 3.98429 1.8048 0
M  V30 3349 C 291.13 4.37145 2.92901 0
M  V30 3350 O 290.156 5.04791 2.6301 0
M  V30 3351 N 291.358 3.99695 4.2098 0
M  V30 3352 H 294.123 2.98505 0.26736 0
M  V30 3353 H 291.684 1.619 -0.0010878 0
M  V30 3354 H 293.676 2.92412 2.79781 0
M  V30 3355 H 292.246 1.91282 2.47245 0
M  V30 3356 H 291.466 3.8379 0.899947 0
M  V30 3357 H 292.754 4.82597 1.61175 0
M  V30 3358 H 292.152 3.4526 4.48121 0
M  V30 3359 H 290.709 4.27562 4.9197 0
M  V30 3360 N 294.142 -0.090211 1.57342 0
M  V30 3361 C 295.074 -1.13541 1.99101 0
M  V30 3362 C 296.087 -1.3604 0.894258 0
M  V30 3363 O 297.276 -1.34606 1.17233 0
M  V30 3364 C 294.376 -2.49001 2.29895 0
M  V30 3365 C 293.549 -2.46712 3.61182 0
M  V30 3366 C 292.608 -3.64136 3.79857 0
M  V30 3367 O 291.634 -3.46405 4.51655 0
M  V30 3368 N 292.836 -4.83802 3.20806 0
M  V30 3369 H 295.601 -0.779942 2.89373 0
M  V30 3370 H 293.162 -0.279125 1.59476 0
M  V30 3371 H 295.154 -3.26166 2.39578 0
M  V30 3372 H 293.724 -2.76619 1.45605 0
M  V30 3373 H 292.944 -1.55058 3.62423 0
M  V30 3374 H 294.232 -2.42265 4.4742 0
M  V30 3375 H 293.63 -5.01112 2.62494 0
M  V30 3376 H 292.187 -5.58543 3.35966 0
M  V30 3377 N 295.62 -1.53406 -0.361157 0
M  V30 3378 C 296.848 -1.73717 -1.12383 0
M  V30 3379 C 297.263 -0.468161 -1.82904 0
M  V30 3380 O 296.62 0.559198 -1.73722 0
M  V30 3381 C 296.671 -2.90558 -2.15078 0
M  V30 3382 O 296.392 -4.12549 -1.47428 0
M  V30 3383 C 297.893 -3.22777 -3.03858 0
M  V30 3384 H 295.113 -0.580896 -0.335858 0
M  V30 3385 H 297.657 -2.00167 -0.418728 0
M  V30 3386 H 295.812 -2.66489 -2.8118 0
M  V30 3387 H 296.226 -4.78009 -2.15887 0
M  V30 3388 H 297.7 -4.07927 -3.71887 0
M  V30 3389 H 298.177 -2.38329 -3.68912 0
M  V30 3390 H 298.783 -3.48787 -2.43367 0
M  V30 3391 N 297.098 0.621204 -1.44841 0
M  V30 3392 C 298.344 1.3826 -1.48365 0
M  V30 3393 C 298.677 1.93831 -0.119624 0
M  V30 3394 O 297.952 1.74251 0.864111 0
M  V30 3395 C 298.235 2.54058 -2.55199 0
M  V30 3396 C 298.088 2.03772 -4.00995 0
M  V30 3397 C 299.407 3.56225 -2.58442 0
M  V30 3398 H 296.526 0.501374 -0.540179 0
M  V30 3399 H 299.168 0.7015 -1.76576 0
M  V30 3400 H 297.318 3.12162 -2.31274 0
M  V30 3401 H 298.99 1.50423 -4.36086 0
M  V30 3402 H 297.233 1.34876 -4.12299 0
M  V30 3403 H 297.904 2.87185 -4.71411 0
M  V30 3404 H 300.38 3.07939 -2.79844 0
M  V30 3405 H 299.256 4.34756 -3.3508 0
M  V30 3406 H 299.517 4.10949 -1.63013 0
M  V30 3407 N 298.576 1.31904 0.862503 0
M  V30 3408 C 299.508 1.16005 1.97675 0
M  V30 3409 C 300.521 0.0971234 1.6251 0
M  V30 3410 O 301.71 0.345337 1.75128 0
M  V30 3411 C 298.81 0.751791 3.30456 0
M  V30 3412 C 297.983 1.90133 3.93914 0
M  V30 3413 C 297.042 1.4779 5.05019 0
M  V30 3414 O 296.068 2.18872 5.25437 0
M  V30 3415 N 297.27 0.369491 5.79323 0
M  V30 3416 H 300.035 2.11982 2.11857 0
M  V30 3417 H 297.596 1.24337 1.03691 0
M  V30 3418 H 299.588 0.451084 4.02178 0
M  V30 3419 H 298.158 -0.116593 3.12382 0
M  V30 3420 H 297.378 2.36896 3.15078 0
M  V30 3421 H 298.666 2.67111 4.33047 0
M  V30 3422 H 298.064 -0.222299 5.65263 0
M  V30 3423 H 296.621 0.128354 6.51674 0
M  V30 3424 O 300.093 -0.999479 1.26857 0
M  V30 3425 H 300.784 -1.62077 1.0607 0
M  V30 END ATOM
M  V30 BEGIN BOND
M  V30 END BOND
M  V30 END CTAB
M  END
$$$$
